# Generated by pormake.
# Topology fny, (5)-cn, num edge types: 1
# Building blocks:
#     Node 0, Type 0, BuildingBlock: BEQFEK_clean_sbu_0, # of connection points: 5
#     Node 1, Type 0, BuildingBlock: BEQFEK_clean_sbu_0, # of connection points: 5
#     Node 2, Type 0, BuildingBlock: BEQFEK_clean_sbu_0, # of connection points: 5
#     Node 3, Type 0, BuildingBlock: BEQFEK_clean_sbu_0, # of connection points: 5
#     Node 4, Type 0, BuildingBlock: BEQFEK_clean_sbu_0, # of connection points: 5
#     Node 5, Type 0, BuildingBlock: BEQFEK_clean_sbu_0, # of connection points: 5
#     Node 6, Type 0, BuildingBlock: BEQFEK_clean_sbu_0, # of connection points: 5
#     Node 7, Type 0, BuildingBlock: BEQFEK_clean_sbu_0, # of connection points: 5
#     Node 8, Type 0, BuildingBlock: BEQFEK_clean_sbu_0, # of connection points: 5
#     Node 9, Type 0, BuildingBlock: BEQFEK_clean_sbu_0, # of connection points: 5
#     Node 10, Type 0, BuildingBlock: BEQFEK_clean_sbu_0, # of connection points: 5
#     Node 11, Type 0, BuildingBlock: BEQFEK_clean_sbu_0, # of connection points: 5
#     Edge 12, Type (0, 0), BuildingBlock: TEMPAE_clean_linker_10, # of connection points: 2
#     Edge 13, Type (0, 0), BuildingBlock: TEMPAE_clean_linker_10, # of connection points: 2
#     Edge 14, Type (0, 0), BuildingBlock: TEMPAE_clean_linker_10, # of connection points: 2
#     Edge 15, Type (0, 0), BuildingBlock: TEMPAE_clean_linker_10, # of connection points: 2
#     Edge 16, Type (0, 0), BuildingBlock: TEMPAE_clean_linker_10, # of connection points: 2
#     Edge 17, Type (0, 0), BuildingBlock: TEMPAE_clean_linker_10, # of connection points: 2
#     Edge 18, Type (0, 0), BuildingBlock: TEMPAE_clean_linker_10, # of connection points: 2
#     Edge 19, Type (0, 0), BuildingBlock: TEMPAE_clean_linker_10, # of connection points: 2
#     Edge 20, Type (0, 0), BuildingBlock: TEMPAE_clean_linker_10, # of connection points: 2
#     Edge 21, Type (0, 0), BuildingBlock: TEMPAE_clean_linker_10, # of connection points: 2
#     Edge 22, Type (0, 0), BuildingBlock: TEMPAE_clean_linker_10, # of connection points: 2
#     Edge 23, Type (0, 0), BuildingBlock: TEMPAE_clean_linker_10, # of connection points: 2
#     Edge 24, Type (0, 0), BuildingBlock: TEMPAE_clean_linker_10, # of connection points: 2
#     Edge 25, Type (0, 0), BuildingBlock: TEMPAE_clean_linker_10, # of connection points: 2
#     Edge 26, Type (0, 0), BuildingBlock: TEMPAE_clean_linker_10, # of connection points: 2
#     Edge 27, Type (0, 0), BuildingBlock: TEMPAE_clean_linker_10, # of connection points: 2
#     Edge 28, Type (0, 0), BuildingBlock: TEMPAE_clean_linker_10, # of connection points: 2
#     Edge 29, Type (0, 0), BuildingBlock: TEMPAE_clean_linker_10, # of connection points: 2
#     Edge 30, Type (0, 0), BuildingBlock: TEMPAE_clean_linker_10, # of connection points: 2
#     Edge 31, Type (0, 0), BuildingBlock: TEMPAE_clean_linker_10, # of connection points: 2
#     Edge 32, Type (0, 0), BuildingBlock: TEMPAE_clean_linker_10, # of connection points: 2
#     Edge 33, Type (0, 0), BuildingBlock: TEMPAE_clean_linker_10, # of connection points: 2
#     Edge 34, Type (0, 0), BuildingBlock: TEMPAE_clean_linker_10, # of connection points: 2
#     Edge 35, Type (0, 0), BuildingBlock: TEMPAE_clean_linker_10, # of connection points: 2
#     Edge 36, Type (0, 0), BuildingBlock: TEMPAE_clean_linker_10, # of connection points: 2
#     Edge 37, Type (0, 0), BuildingBlock: TEMPAE_clean_linker_10, # of connection points: 2
#     Edge 38, Type (0, 0), BuildingBlock: TEMPAE_clean_linker_10, # of connection points: 2
#     Edge 39, Type (0, 0), BuildingBlock: TEMPAE_clean_linker_10, # of connection points: 2
#     Edge 40, Type (0, 0), BuildingBlock: TEMPAE_clean_linker_10, # of connection points: 2
#     Edge 41, Type (0, 0), BuildingBlock: TEMPAE_clean_linker_10, # of connection points: 2
# Relax obj value: 0.260
# Max RMSD: 0.110
# Mean RMSD: 0.110
data_MOF--net-fny--node1-BEQFEK_clean_sbu_0--edge1-TEMPAE_clean_linker_10
_symmetry_space_group_name_H-M    P1
_symmetry_Int_Tables_number       1
_symmetry_cell_setting            triclinic
loop_
_symmetry_equiv_pos_as_xyz
'x, y, z'
_cell_length_a     63.212003
_cell_length_b     63.212486
_cell_length_c     23.977825
_cell_angle_alpha  89.953637
_cell_angle_beta   89.988621
_cell_angle_gamma 119.96411
loop_
_atom_site_label
_atom_site_type_symbol
_atom_site_fract_x
_atom_site_fract_y
_atom_site_fract_z
_atom_type_partial_charge
Co0 Co 0.4014 0.53368 0.28723 0.0
Co1 Co 0.35898 0.49412 0.22246 0.0
C2 C 0.3943 0.54067 0.16516 0.0
O3 O 0.40501 0.54847 0.21175 0.0
O4 O 0.37565 0.51931 0.16113 0.0
C5 C 0.44863 0.56436 0.31174 0.0
O6 O 0.45028 0.55482 0.26441 0.0
C7 C 0.3151 0.46645 0.15537 0.0
C8 C 0.29849 0.4299 0.19477 0.0
C9 C 0.29517 0.44311 0.15327 0.0
N10 N 0.32966 0.46718 0.1967 0.0
N11 N 0.3198 0.44527 0.21985 0.0
C12 C 0.32044 0.48778 0.11882 0.0
H13 H 0.33587 0.49146 0.09074 0.0
H14 H 0.32626 0.50431 0.14475 0.0
H15 H 0.30448 0.48431 0.09295 0.0
C16 C 0.3611 0.52762 0.36652 0.0
N17 N 0.36971 0.5225 0.31968 0.0
N18 N 0.35127 0.5071 0.28895 0.0
C19 C 0.33023 0.5031 0.31353 0.0
C20 C 0.33534 0.51561 0.36494 0.0
C21 C 0.37753 0.54253 0.41312 0.0
H22 H 0.39501 0.54241 0.41139 0.0
H23 H 0.38168 0.56171 0.40883 0.0
H24 H 0.36871 0.53528 0.45413 0.0
O25 O 0.41064 0.50773 0.28473 0.0
O26 O 0.38019 0.4791 0.23663 0.0
H27 H 0.2972 0.46995 0.29491 0.0
H28 H 0.29383 0.49679 0.29772 0.0
C29 C 0.30599 0.4897 0.28491 0.0
H30 H 0.30849 0.49195 0.23924 0.0
H31 H 0.32743 0.44093 0.25344 0.0
O32 O 0.42769 0.5591 0.33015 0.0
C33 C 0.40053 0.48692 0.26152 0.0
Co34 Co 0.88811 0.39537 0.79811 0.0
Co35 Co 0.88479 0.35353 0.73008 0.0
C36 C 0.876 0.39288 0.67776 0.0
O37 O 0.87803 0.40248 0.72546 0.0
O38 O 0.87852 0.37409 0.67224 0.0
C39 C 0.90976 0.4415 0.83824 0.0
O40 O 0.92108 0.44511 0.79027 0.0
C41 C 0.86148 0.30798 0.66695 0.0
C42 C 0.88916 0.29637 0.6732 0.0
C43 C 0.86634 0.28967 0.65191 0.0
N44 N 0.88044 0.3246 0.69668 0.0
N45 N 0.89689 0.31756 0.70047 0.0
C46 C 0.84002 0.31056 0.65053 0.0
H47 H 0.84371 0.32938 0.65831 0.0
H48 H 0.82385 0.29782 0.67549 0.0
H49 H 0.83559 0.30582 0.60585 0.0
C50 C 0.84998 0.35419 0.8698 0.0
N51 N 0.86546 0.36314 0.82571 0.0
N52 N 0.86429 0.34487 0.7971 0.0
C53 C 0.84835 0.32366 0.82306 0.0
C54 C 0.83829 0.32859 0.87012 0.0
C55 C 0.84588 0.36999 0.90967 0.0
H56 H 0.84872 0.38679 0.88834 0.0
H57 H 0.82717 0.36006 0.92742 0.0
H58 H 0.85927 0.37546 0.94424 0.0
O59 O 0.92294 0.40223 0.79433 0.0
O60 O 0.92038 0.37126 0.74733 0.0
H61 H 0.83791 0.28623 0.84185 0.0
H62 H 0.83036 0.29156 0.77277 0.0
C63 C 0.84434 0.29913 0.80614 0.0
H64 H 0.86153 0.30081 0.79003 0.0
H65 H 0.91347 0.32725 0.72154 0.0
O66 O 0.89168 0.42058 0.84925 0.0
C67 C 0.93319 0.39125 0.77289 0.0
Co68 Co 0.5109 0.87993 0.29828 0.0
Co69 Co 0.54926 0.87673 0.2288 0.0
C70 C 0.5008 0.86761 0.17808 0.0
O71 O 0.49335 0.86957 0.22603 0.0
O72 O 0.52214 0.87027 0.17199 0.0
C73 C 0.48645 0.90142 0.34042 0.0
O74 O 0.49388 0.91293 0.29257 0.0
C75 C 0.57157 0.85382 0.16374 0.0
C76 C 0.61085 0.88111 0.17222 0.0
C77 C 0.59481 0.85865 0.1492 0.0
N78 N 0.57382 0.87245 0.19477 0.0
N79 N 0.59731 0.88867 0.19981 0.0
C80 C 0.54758 0.83268 0.14599 0.0
H81 H 0.53267 0.83689 0.1515 0.0
H82 H 0.54329 0.81653 0.17202 0.0
H83 H 0.54845 0.82797 0.10178 0.0
C84 C 0.51508 0.84255 0.37026 0.0
N85 N 0.52105 0.8577 0.32562 0.0
N86 N 0.53788 0.8564 0.29612 0.0
C87 C 0.54339 0.84055 0.32177 0.0
C88 C 0.52898 0.83086 0.36978 0.0
C89 C 0.49579 0.83883 0.4116 0.0
H90 H 0.48121 0.84086 0.39091 0.0
H91 H 0.48773 0.82053 0.43133 0.0
H92 H 0.50408 0.85296 0.44458 0.0
O93 O 0.53853 0.91479 0.29322 0.0
O94 O 0.56689 0.91246 0.24531 0.0
H95 H 0.57917 0.85333 0.28779 0.0
H96 H 0.56979 0.82903 0.33798 0.0
C97 C 0.56348 0.83614 0.30331 0.0
H98 H 0.55675 0.82259 0.26902 0.0
H99 H 0.60413 0.90496 0.2221 0.0
O100 O 0.48945 0.88336 0.35047 0.0
C101 C 0.55959 0.92518 0.27095 0.0
Co102 Co 0.65041 0.5004 0.79661 0.0
Co103 Co 0.69038 0.54161 0.72782 0.0
C104 C 0.65478 0.49543 0.67086 0.0
O105 O 0.64508 0.4877 0.71836 0.0
O106 O 0.67353 0.5166 0.6661 0.0
C107 C 0.638 0.45431 0.8284 0.0
O108 O 0.65547 0.45954 0.79198 0.0
C109 C 0.73525 0.56991 0.66523 0.0
C110 C 0.74305 0.60786 0.67707 0.0
C111 C 0.75185 0.59399 0.65245 0.0
N112 N 0.71762 0.5695 0.69696 0.0
N113 N 0.72232 0.5922 0.70401 0.0
C114 C 0.73506 0.54748 0.6443 0.0
H115 H 0.71888 0.53072 0.65996 0.0
H116 H 0.75166 0.54727 0.65823 0.0
H117 H 0.73511 0.54754 0.598 0.0
C118 C 0.69366 0.51166 0.87198 0.0
N119 N 0.68365 0.51456 0.82445 0.0
N120 N 0.7012 0.53061 0.7924 0.0
C121 C 0.72301 0.53759 0.81775 0.0
C122 C 0.71913 0.52558 0.86913 0.0
C123 C 0.67935 0.4975 0.92185 0.0
H124 H 0.65968 0.48658 0.91316 0.0
H125 H 0.6865 0.48575 0.93746 0.0
H126 H 0.68143 0.51037 0.95556 0.0
O127 O 0.63784 0.52415 0.80218 0.0
O128 O 0.66704 0.55295 0.75011 0.0
H129 H 0.76158 0.5633 0.82846 0.0
H130 H 0.75245 0.55046 0.75962 0.0
C131 C 0.74708 0.55733 0.79634 0.0
H132 H 0.74551 0.5733 0.78336 0.0
H133 H 0.71135 0.597 0.72704 0.0
O134 O 0.63099 0.46976 0.83711 0.0
C135 C 0.64735 0.545 0.77816 0.0
Co136 Co 0.15945 0.64069 0.30164 0.0
Co137 Co 0.16935 0.68354 0.22797 0.0
C138 C 0.17477 0.6432 0.17969 0.0
O139 O 0.16799 0.63266 0.22689 0.0
O140 O 0.17754 0.66445 0.17258 0.0
C141 C 0.13629 0.59352 0.33386 0.0
O142 O 0.12516 0.59238 0.28678 0.0
C143 C 0.18352 0.72304 0.14675 0.0
C144 C 0.17924 0.75002 0.19694 0.0
C145 C 0.18645 0.74631 0.14509 0.0
N146 N 0.1756 0.71377 0.19777 0.0
N147 N 0.17259 0.72974 0.2272 0.0
C148 C 0.18621 0.70893 0.09983 0.0
H149 H 0.1707 0.68991 0.10033 0.0
H150 H 0.20333 0.70832 0.10554 0.0
H151 H 0.18655 0.71717 0.05874 0.0
C152 C 0.19601 0.68098 0.3783 0.0
N153 N 0.18297 0.67232 0.33055 0.0
N154 N 0.18862 0.6906 0.29645 0.0
C155 C 0.20683 0.7113 0.3196 0.0
C156 C 0.21209 0.70642 0.37375 0.0
C157 C 0.1916 0.66516 0.4284 0.0
H158 H 0.17323 0.64862 0.4262 0.0
H159 H 0.20541 0.65923 0.42957 0.0
H160 H 0.19296 0.6753 0.46725 0.0
O161 O 0.12649 0.63673 0.29881 0.0
O162 O 0.13236 0.66566 0.23934 0.0
H163 H 0.21305 0.74655 0.2952 0.0
H164 H 0.24038 0.74435 0.30002 0.0
C165 C 0.22089 0.73457 0.28737 0.0
H166 H 0.21983 0.73071 0.24204 0.0
H167 H 0.16642 0.72694 0.26839 0.0
O168 O 0.15436 0.61376 0.34923 0.0
C169 C 0.11802 0.64751 0.26964 0.0
Co170 Co 0.53494 0.15617 0.78816 0.0
Co171 Co 0.49699 0.16095 0.72028 0.0
C172 C 0.54342 0.1685 0.66573 0.0
O173 O 0.54954 0.16399 0.71273 0.0
O174 O 0.52357 0.1691 0.66081 0.0
C175 C 0.56238 0.1364 0.81623 0.0
O176 O 0.55216 0.12503 0.76954 0.0
C177 C 0.47335 0.18392 0.66005 0.0
C178 C 0.43432 0.15598 0.66903 0.0
C179 C 0.44988 0.1788 0.64682 0.0
N180 N 0.47168 0.1651 0.68949 0.0
N181 N 0.44832 0.1485 0.69488 0.0
C182 C 0.49703 0.20551 0.64225 0.0
H183 H 0.5123 0.20181 0.647 0.0
H184 H 0.50101 0.22143 0.66877 0.0
H185 H 0.49588 0.21035 0.59828 0.0
C186 C 0.53196 0.19352 0.86255 0.0
N187 N 0.52591 0.17904 0.81678 0.0
N188 N 0.50892 0.18064 0.78865 0.0
C189 C 0.50335 0.19599 0.81645 0.0
C190 C 0.51791 0.20505 0.86443 0.0
C191 C 0.55118 0.19646 0.90322 0.0
H192 H 0.56541 0.19407 0.88187 0.0
H193 H 0.55971 0.21468 0.92339 0.0
H194 H 0.54268 0.18221 0.93596 0.0
O195 O 0.50699 0.12194 0.7891 0.0
O196 O 0.48032 0.12459 0.73488 0.0
H197 H 0.47652 0.20654 0.83647 0.0
H198 H 0.48913 0.21418 0.7671 0.0
C199 C 0.48285 0.20017 0.80043 0.0
H200 H 0.46724 0.18304 0.78445 0.0
H201 H 0.44192 0.13197 0.71602 0.0
O202 O 0.55887 0.15347 0.83321 0.0
C203 C 0.48662 0.11175 0.76384 0.0
Co204 Co 0.50961 0.63902 0.72282 0.0
Co205 Co 0.54802 0.68086 0.7921 0.0
C206 C 0.49888 0.64291 0.84163 0.0
O207 O 0.49147 0.63308 0.79404 0.0
O208 O 0.5204 0.6612 0.84769 0.0
C209 C 0.48541 0.593 0.6795 0.0
O210 O 0.4923 0.58833 0.72738 0.0
C211 C 0.57094 0.72551 0.86004 0.0
C212 C 0.61008 0.73914 0.84286 0.0
C213 C 0.59428 0.74438 0.87151 0.0
N214 N 0.57278 0.70996 0.82511 0.0
N215 N 0.59619 0.71818 0.81506 0.0
C216 C 0.5474 0.72187 0.88375 0.0
H217 H 0.53271 0.70265 0.87989 0.0
H218 H 0.54167 0.73338 0.8607 0.0
H219 H 0.54981 0.72745 0.92825 0.0
C220 C 0.51557 0.68041 0.64748 0.0
N221 N 0.52092 0.6713 0.69321 0.0
N222 N 0.53738 0.68947 0.72315 0.0
C223 C 0.54296 0.7108 0.69731 0.0
C224 C 0.52931 0.706 0.64801 0.0
C225 C 0.4982 0.66473 0.60302 0.0
H226 H 0.50012 0.64844 0.59587 0.0
H227 H 0.47923 0.65835 0.61712 0.0
H228 H 0.50148 0.67493 0.56329 0.0
O229 O 0.53637 0.63084 0.73217 0.0
O230 O 0.56485 0.66147 0.78002 0.0
H231 H 0.57855 0.73786 0.72463 0.0
H232 H 0.56056 0.75044 0.6965 0.0
C233 C 0.55994 0.73539 0.72146 0.0
H234 H 0.55375 0.7364 0.764 0.0
H235 H 0.60272 0.70947 0.78909 0.0
O236 O 0.48825 0.61409 0.67073 0.0
C237 C 0.55708 0.64099 0.75603 0.0
Co238 Co 0.88729 0.50705 0.23668 0.0
Co239 Co 0.88379 0.5461 0.30304 0.0
C240 C 0.87524 0.4987 0.35781 0.0
O241 O 0.87717 0.49089 0.31042 0.0
O242 O 0.87783 0.52004 0.36254 0.0
C243 C 0.90692 0.47961 0.2057 0.0
O244 O 0.91901 0.48972 0.25175 0.0
C245 C 0.8616 0.56919 0.36922 0.0
C246 C 0.88561 0.60811 0.3474 0.0
C247 C 0.86512 0.59244 0.37795 0.0
N248 N 0.87895 0.571 0.33408 0.0
N249 N 0.89328 0.5943 0.32136 0.0
C250 C 0.84259 0.54574 0.39513 0.0
H251 H 0.8489 0.5323 0.3969 0.0
H252 H 0.82576 0.5378 0.36948 0.0
H253 H 0.83805 0.54894 0.43787 0.0
C254 C 0.85092 0.51107 0.16104 0.0
N255 N 0.86519 0.51679 0.20711 0.0
N256 N 0.86357 0.53367 0.23561 0.0
C257 C 0.8482 0.53931 0.20814 0.0
C258 C 0.83946 0.52516 0.15956 0.0
C259 C 0.84942 0.4934 0.11762 0.0
H260 H 0.86753 0.49487 0.1121 0.0
H261 H 0.83639 0.47456 0.13182 0.0
H262 H 0.84305 0.49667 0.07711 0.0
O263 O 0.92197 0.53492 0.23853 0.0
O264 O 0.91959 0.56362 0.28521 0.0
H265 H 0.85802 0.57584 0.23027 0.0
H266 H 0.82738 0.55808 0.20257 0.0
C267 C 0.84146 0.55747 0.22894 0.0
H268 H 0.83422 0.55251 0.27188 0.0
H269 H 0.90825 0.60079 0.29453 0.0
O270 O 0.88984 0.48341 0.19042 0.0
C271 C 0.93228 0.55626 0.25934 0.0
Co272 Co 0.40012 0.88104 0.73573 0.0
Co273 Co 0.35737 0.87656 0.80211 0.0
C274 C 0.3948 0.86812 0.85891 0.0
O275 O 0.40515 0.87123 0.81171 0.0
O276 O 0.37551 0.86975 0.86381 0.0
C277 C 0.44741 0.89943 0.70867 0.0
O278 O 0.44896 0.91147 0.75454 0.0
C279 C 0.31482 0.86349 0.87348 0.0
C280 C 0.29485 0.87702 0.82236 0.0
C281 C 0.29404 0.86559 0.87209 0.0
N282 N 0.32764 0.87364 0.82695 0.0
N283 N 0.31577 0.88191 0.79683 0.0
C284 C 0.3213 0.85005 0.91532 0.0
H285 H 0.33004 0.84078 0.89411 0.0
H286 H 0.30496 0.83632 0.93845 0.0
H287 H 0.33457 0.86335 0.94552 0.0
C288 C 0.35985 0.845 0.65879 0.0
N289 N 0.36844 0.859 0.70522 0.0
N290 N 0.35001 0.85539 0.73679 0.0
C291 C 0.32905 0.83779 0.71316 0.0
C292 C 0.33416 0.83054 0.66153 0.0
C293 C 0.37614 0.84704 0.6113 0.0
H294 H 0.39324 0.86498 0.61228 0.0
H295 H 0.38103 0.83251 0.61515 0.0
H296 H 0.36684 0.84502 0.57077 0.0
O297 O 0.4075 0.91569 0.73525 0.0
O298 O 0.37682 0.91259 0.78474 0.0
H299 H 0.29531 0.83658 0.73115 0.0
H300 H 0.29342 0.80705 0.73137 0.0
C301 C 0.30496 0.82659 0.74263 0.0
H302 H 0.30776 0.82788 0.7884 0.0
H303 H 0.32174 0.89045 0.75815 0.0
O304 O 0.42661 0.88269 0.69211 0.0
C305 C 0.39653 0.92565 0.75798 0.0
Co306 Co 0.54248 0.395 0.22336 0.0
Co307 Co 0.50212 0.35531 0.29429 0.0
C308 C 0.54883 0.39141 0.3488 0.0
O309 O 0.5561 0.40101 0.30099 0.0
O310 O 0.52776 0.37257 0.3545 0.0
C311 C 0.588 0.40722 0.18847 0.0
O312 O 0.58333 0.39015 0.22566 0.0
C313 C 0.47491 0.3131 0.36523 0.0
C314 C 0.43686 0.29846 0.3363 0.0
C315 C 0.45125 0.29414 0.37274 0.0
N316 N 0.47467 0.32782 0.32541 0.0
N317 N 0.4519 0.31917 0.30849 0.0
C318 C 0.49747 0.31799 0.3964 0.0
H319 H 0.51226 0.32154 0.36641 0.0
H320 H 0.4943 0.30286 0.42481 0.0
H321 H 0.50375 0.33473 0.42181 0.0
C322 C 0.53212 0.35153 0.15108 0.0
N323 N 0.52866 0.36172 0.19749 0.0
N324 N 0.51295 0.34431 0.23019 0.0
C325 C 0.50663 0.32238 0.20641 0.0
C326 C 0.51878 0.32609 0.15517 0.0
C327 C 0.54514 0.36562 0.09998 0.0
H328 H 0.5481 0.38443 0.10134 0.0
H329 H 0.56287 0.36628 0.09637 0.0
H330 H 0.5344 0.35622 0.06221 0.0
O331 O 0.51836 0.40713 0.21853 0.0
O332 O 0.49013 0.37819 0.27212 0.0
H333 H 0.47064 0.295 0.23019 0.0
H334 H 0.49051 0.2831 0.21213 0.0
C335 C 0.48958 0.2983 0.23278 0.0
H336 H 0.49426 0.29871 0.27741 0.0
H337 H 0.4467 0.32714 0.27722 0.0
O338 O 0.57229 0.41389 0.17989 0.0
C339 C 0.4977 0.39768 0.2434 0.0
Co340 Co 0.16064 0.53052 0.72636 0.0
Co341 Co 0.16994 0.49683 0.79867 0.0
C342 C 0.17546 0.54194 0.84936 0.0
O343 O 0.16878 0.54599 0.80234 0.0
O344 O 0.17834 0.52348 0.85581 0.0
C345 C 0.13819 0.55539 0.69659 0.0
O346 O 0.12733 0.54534 0.7439 0.0
C347 C 0.1889 0.47229 0.86952 0.0
C348 C 0.17109 0.43543 0.83155 0.0
C349 C 0.18695 0.44952 0.87324 0.0
N350 N 0.17501 0.47181 0.82685 0.0
N351 N 0.16431 0.44975 0.80449 0.0
C352 C 0.20267 0.49387 0.90707 0.0
H353 H 0.18965 0.49858 0.92656 0.0
H354 H 0.21578 0.50986 0.88203 0.0
H355 H 0.21251 0.49023 0.94061 0.0
C356 C 0.197 0.52667 0.64905 0.0
N357 N 0.184 0.5223 0.6969 0.0
N358 N 0.18927 0.5092 0.73041 0.0
C359 C 0.20711 0.50624 0.7067 0.0
C360 C 0.21262 0.51672 0.65288 0.0
C361 C 0.19283 0.53849 0.59941 0.0
H362 H 0.17463 0.53706 0.60202 0.0
H363 H 0.20691 0.55813 0.59852 0.0
H364 H 0.19394 0.52974 0.56026 0.0
O365 O 0.12748 0.50179 0.72722 0.0
O366 O 0.13299 0.47872 0.78738 0.0
H367 H 0.21078 0.47573 0.73177 0.0
H368 H 0.23952 0.50403 0.72405 0.0
C369 C 0.22027 0.49579 0.73803 0.0
H370 H 0.22031 0.49946 0.78315 0.0
H371 H 0.15247 0.44452 0.77045 0.0
O372 O 0.15613 0.55316 0.68031 0.0
C373 C 0.11883 0.48264 0.75678 0.0
Co374 Co 0.64499 0.15324 0.21745 0.0
Co375 Co 0.68697 0.16149 0.29215 0.0
C376 C 0.64647 0.16787 0.33867 0.0
O377 O 0.63629 0.16155 0.29108 0.0
O378 O 0.66748 0.17007 0.34663 0.0
C379 C 0.5985 0.13022 0.18017 0.0
O380 O 0.5961 0.11904 0.22789 0.0
C381 C 0.72975 0.18185 0.36497 0.0
C382 C 0.74768 0.16126 0.33672 0.0
C383 C 0.74994 0.17912 0.37339 0.0
N384 N 0.7163 0.1665 0.32433 0.0
N385 N 0.72699 0.15416 0.30778 0.0
C386 C 0.72243 0.19765 0.39644 0.0
H387 H 0.70419 0.18598 0.41541 0.0
H388 H 0.7208 0.21033 0.36703 0.0
H389 H 0.73547 0.20814 0.43014 0.0
C390 C 0.68613 0.19111 0.14433 0.0
N391 N 0.67702 0.1769 0.19048 0.0
N392 N 0.69522 0.18038 0.22293 0.0
C393 C 0.7165 0.19716 0.19866 0.0
C394 C 0.7117 0.20466 0.14743 0.0
C395 C 0.67061 0.19082 0.09691 0.0
H396 H 0.65425 0.17243 0.09265 0.0
H397 H 0.66438 0.20408 0.10563 0.0
H398 H 0.68106 0.19605 0.05723 0.0
O399 O 0.64045 0.1197 0.2206 0.0
O400 O 0.66865 0.12488 0.28135 0.0
H401 H 0.74648 0.19279 0.22413 0.0
H402 H 0.7551 0.22375 0.20487 0.0
C403 C 0.74096 0.20691 0.22568 0.0
H404 H 0.73978 0.21112 0.27 0.0
H405 H 0.72019 0.14096 0.27643 0.0
O406 O 0.61903 0.14851 0.16729 0.0
C407 C 0.65069 0.11085 0.25056 0.0
C408 C 0.41598 0.58147 0.11725 0.0
C409 C 0.40576 0.55601 0.11469 0.0
C410 C 0.42984 0.59668 0.07268 0.0
C411 C 0.43463 0.58641 0.02511 0.0
C412 C 0.42409 0.56064 0.0221 0.0
C413 C 0.40944 0.54577 0.06637 0.0
C414 C 0.43975 0.62385 0.07705 0.0
C415 C 0.42924 0.54882 0.9733 0.0
C416 C 0.45744 0.62115 0.88692 0.0
C417 C 0.48282 0.63107 0.89096 0.0
C418 C 0.44169 0.60749 0.93098 0.0
C419 C 0.45134 0.60259 0.97955 0.0
C420 C 0.47702 0.61272 0.9839 0.0
C421 C 0.49243 0.62717 0.94012 0.0
C422 C 0.41465 0.59804 0.9252 0.0
C423 C 0.48818 0.60744 0.03385 0.0
H424 H 0.41331 0.58953 0.15457 0.0
H425 H 0.40202 0.52617 0.06453 0.0
H426 H 0.45992 0.63344 0.08085 0.0
H427 H 0.43537 0.63074 0.03871 0.0
H428 H 0.43225 0.62869 0.11366 0.0
H429 H 0.41964 0.52861 0.97696 0.0
H430 H 0.42359 0.55369 0.93379 0.0
H431 H 0.44917 0.55577 0.97039 0.0
H432 H 0.44987 0.62404 0.84902 0.0
H433 H 0.51197 0.6344 0.94317 0.0
H434 H 0.40771 0.60308 0.96246 0.0
H435 H 0.4047 0.57783 0.92268 0.0
H436 H 0.41029 0.60533 0.88744 0.0
H437 H 0.48346 0.61376 0.07255 0.0
H438 H 0.50838 0.6164 0.03077 0.0
H439 H 0.48058 0.58743 0.03792 0.0
C440 C 0.85736 0.41563 0.63228 0.0
C441 C 0.87254 0.40534 0.62833 0.0
C442 C 0.85595 0.42999 0.58884 0.0
C443 C 0.87086 0.43521 0.54078 0.0
C444 C 0.88614 0.42473 0.53644 0.0
C445 C 0.88647 0.40963 0.57968 0.0
C446 C 0.83865 0.4398 0.59475 0.0
C447 C 0.90289 0.43023 0.48703 0.0
C448 C 0.85675 0.45757 0.40429 0.0
C449 C 0.87189 0.48303 0.40766 0.0
C450 C 0.85558 0.44197 0.44789 0.0
C451 C 0.8707 0.45183 0.49552 0.0
C452 C 0.88591 0.4776 0.49932 0.0
C453 C 0.88601 0.49286 0.45594 0.0
C454 C 0.83835 0.41485 0.44252 0.0
C455 C 0.90288 0.48903 0.54826 0.0
H456 H 0.84659 0.41251 0.66975 0.0
H457 H 0.89859 0.40217 0.57664 0.0
H458 H 0.84915 0.45999 0.59773 0.0
H459 H 0.82682 0.43508 0.55733 0.0
H460 H 0.82686 0.43248 0.63229 0.0
H461 H 0.91386 0.42097 0.48997 0.0
H462 H 0.89213 0.42441 0.4479 0.0
H463 H 0.91553 0.45023 0.48398 0.0
H464 H 0.84584 0.44977 0.36709 0.0
H465 H 0.89813 0.51244 0.4585 0.0
H466 H 0.82676 0.40777 0.48037 0.0
H467 H 0.84891 0.40522 0.43904 0.0
H468 H 0.82631 0.41024 0.40543 0.0
H469 H 0.89232 0.48409 0.58771 0.0
H470 H 0.91368 0.50926 0.54507 0.0
H471 H 0.91567 0.48184 0.55085 0.0
C472 C 0.49452 0.87779 0.0798 0.0
C473 C 0.4848 0.86423 0.12891 0.0
C474 C 0.47916 0.87758 0.03659 0.0
C475 C 0.45338 0.86278 0.04143 0.0
C476 C 0.4436 0.84822 0.08997 0.0
C477 C 0.45931 0.84952 0.13337 0.0
C478 C 0.49053 0.89397 0.98667 0.0
C479 C 0.41644 0.83142 0.09644 0.0
C480 C 0.41163 0.87887 0.9566 0.0
C481 C 0.40699 0.86454 0.90857 0.0
C482 C 0.42669 0.87854 0.99989 0.0
C483 C 0.4367 0.86284 0.9963 0.0
C484 C 0.43106 0.84751 0.94891 0.0
C485 C 0.41682 0.84896 0.90529 0.0
C486 C 0.43271 0.89579 0.04844 0.0
C487 C 0.44034 0.82974 0.94386 0.0
H488 H 0.51413 0.88955 0.07633 0.0
H489 H 0.45161 0.83903 0.17118 0.0
H490 H 0.48529 0.88299 0.94786 0.0
H491 H 0.48357 0.90694 0.98327 0.0
H492 H 0.51078 0.90458 0.98924 0.0
H493 H 0.41185 0.81977 0.13424 0.0
H494 H 0.40712 0.84231 0.09929 0.0
H495 H 0.409 0.81946 0.0593 0.0
H496 H 0.40454 0.89131 0.959 0.0
H497 H 0.41344 0.83792 0.86821 0.0
H498 H 0.45276 0.9082 0.05073 0.0
H499 H 0.42696 0.88542 0.08813 0.0
H500 H 0.42372 0.90701 0.04502 0.0
H501 H 0.46051 0.83987 0.93989 0.0
H502 H 0.43254 0.81754 0.90715 0.0
H503 H 0.43574 0.81834 0.98204 0.0
C504 C 0.59024 0.41436 0.394 0.0
C505 C 0.56477 0.40383 0.39812 0.0
C506 C 0.60589 0.42837 0.43786 0.0
C507 C 0.59608 0.43303 0.48649 0.0
C508 C 0.57031 0.42236 0.49088 0.0
C509 C 0.555 0.40757 0.44726 0.0
C510 C 0.63302 0.43836 0.43186 0.0
C511 C 0.55892 0.42735 0.54079 0.0
C512 C 0.63217 0.4545 0.62353 0.0
C513 C 0.64238 0.47997 0.62091 0.0
C514 C 0.61794 0.43919 0.57944 0.0
C515 C 0.61272 0.44934 0.53219 0.0
C516 C 0.6231 0.47511 0.52928 0.0
C517 C 0.63812 0.49009 0.57304 0.0
C518 C 0.60825 0.41206 0.58379 0.0
C519 C 0.61752 0.48683 0.48094 0.0
H520 H 0.59797 0.41163 0.35616 0.0
H521 H 0.53541 0.39989 0.45046 0.0
H522 H 0.64261 0.45858 0.4296 0.0
H523 H 0.64017 0.43343 0.46893 0.0
H524 H 0.6376 0.43139 0.3939 0.0
H525 H 0.5387 0.41807 0.53773 0.0
H526 H 0.5638 0.42117 0.57951 0.0
H527 H 0.5662 0.4473 0.54482 0.0
H528 H 0.63527 0.44649 0.66043 0.0
H529 H 0.64551 0.50967 0.57109 0.0
H530 H 0.61288 0.40534 0.54554 0.0
H531 H 0.58806 0.40228 0.58725 0.0
H532 H 0.61573 0.40726 0.62053 0.0
H533 H 0.62334 0.48233 0.4412 0.0
H534 H 0.62673 0.50701 0.48494 0.0
H535 H 0.59751 0.47947 0.47823 0.0
C536 C 0.16437 0.60376 0.13206 0.0
C537 C 0.17748 0.62944 0.13192 0.0
C538 C 0.16528 0.5901 0.0866 0.0
C539 C 0.1803 0.60222 0.03996 0.0
C540 C 0.19418 0.62815 0.04023 0.0
C541 C 0.19229 0.64143 0.0856 0.0
C542 C 0.14945 0.56264 0.08778 0.0
C543 C 0.21098 0.64191 0.99237 0.0
C544 C 0.19379 0.56212 0.94218 0.0
C545 C 0.17777 0.558 0.89764 0.0
C546 C 0.19554 0.5772 0.98763 0.0
C547 C 0.18025 0.58772 0.98989 0.0
C548 C 0.16391 0.58337 0.94515 0.0
C549 C 0.16319 0.56902 0.89946 0.0
C550 C 0.21377 0.58189 0.03331 0.0
C551 C 0.14658 0.5933 0.9462 0.0
H552 H 0.15265 0.59423 0.16721 0.0
H553 H 0.20256 0.66122 0.08502 0.0
H554 H 0.1365 0.55651 0.05219 0.0
H555 H 0.16086 0.55397 0.08304 0.0
H556 H 0.1388 0.55593 0.12708 0.0
H557 H 0.22217 0.66179 1.00094 0.0
H558 H 0.22336 0.63459 0.98366 0.0
H559 H 0.20012 0.63934 0.95408 0.0
H560 H 0.20521 0.55381 0.94114 0.0
H561 H 0.15054 0.56577 0.86566 0.0
H562 H 0.20406 0.57374 0.07297 0.0
H563 H 0.22542 0.60183 0.04029 0.0
H564 H 0.22569 0.57412 0.02341 0.0
H565 H 0.13467 0.58633 0.98358 0.0
H566 H 0.13482 0.58811 0.90851 0.0
H567 H 0.15696 0.61349 0.94924 0.0
C568 C 0.60664 0.157 0.38487 0.0
C569 C 0.63231 0.17054 0.3857 0.0
C570 C 0.59249 0.15799 0.42915 0.0
C571 C 0.60406 0.17357 0.47526 0.0
C572 C 0.62999 0.1879 0.47564 0.0
C573 C 0.6438 0.18589 0.4315 0.0
C574 C 0.5651 0.14161 0.42741 0.0
C575 C 0.64318 0.20527 0.52294 0.0
C576 C 0.56242 0.186 0.57097 0.0
C577 C 0.55881 0.17046 0.61627 0.0
C578 C 0.57776 0.18791 0.52576 0.0
C579 C 0.58906 0.17329 0.52464 0.0
C580 C 0.58505 0.15731 0.56997 0.0
C581 C 0.57043 0.15643 0.61524 0.0
C582 C 0.58203 0.20572 0.47932 0.0
C583 C 0.59575 0.14063 0.57022 0.0
H584 H 0.5975 0.14487 0.35011 0.0
H585 H 0.66356 0.19653 0.43254 0.0
H586 H 0.55907 0.12884 0.46337 0.0
H587 H 0.55595 0.15262 0.43112 0.0
H588 H 0.55883 0.13076 0.38837 0.0
H589 H 0.66303 0.21693 0.51451 0.0
H590 H 0.63522 0.21719 0.53045 0.0
H591 H 0.64086 0.19482 0.56185 0.0
H592 H 0.55371 0.19704 0.57147 0.0
H593 H 0.56761 0.14416 0.64967 0.0
H594 H 0.57452 0.19572 0.43969 0.0
H595 H 0.60193 0.21803 0.47305 0.0
H596 H 0.57341 0.21698 0.48798 0.0
H597 H 0.58945 0.12867 0.5329 0.0
H598 H 0.59056 0.12893 0.60805 0.0
H599 H 0.61596 0.15155 0.56808 0.0
C600 C 0.61005 0.39401 0.12504 0.0
C601 C 0.60678 0.41286 0.14623 0.0
C602 C 0.61969 0.39589 0.0715 0.0
C603 C 0.62736 0.41762 0.04086 0.0
C604 C 0.62837 0.43822 0.06704 0.0
C605 C 0.61741 0.43538 0.11913 0.0
C606 C 0.6184 0.37354 0.04558 0.0
C607 C 0.63828 0.4624 0.0373 0.0
C608 C 0.65311 0.43597 0.8972 0.0
C609 C 0.63325 0.43621 0.87179 0.0
C610 C 0.65104 0.42711 0.95165 0.0
C611 C 0.62836 0.4175 0.97933 0.0
C612 C 0.60734 0.41362 0.94953 0.0
C613 C 0.61018 0.42369 0.89629 0.0
C614 C 0.67378 0.43118 0.98149 0.0
C615 C 0.58244 0.40181 0.97652 0.0
H616 H 0.60213 0.37665 0.14676 0.0
H617 H 0.61547 0.45014 0.13665 0.0
H618 H 0.60019 0.36234 0.02606 0.0
H619 H 0.63248 0.37838 0.01283 0.0
H620 H 0.62057 0.3621 0.07774 0.0
H621 H 0.64033 0.47717 0.06574 0.0
H622 H 0.65634 0.46774 0.01889 0.0
H623 H 0.6258 0.46075 1.00288 0.0
H624 H 0.67097 0.4455 0.8777 0.0
H625 H 0.5948 0.42352 0.87581 0.0
H626 H 0.66957 0.41709 0.0139 0.0
H627 H 0.68244 0.44926 1.00234 0.0
H628 H 0.68725 0.43119 0.9517 0.0
H629 H 0.56768 0.39697 0.94543 0.0
H630 H 0.58173 0.41455 1.0073 0.0
H631 H 0.57884 0.38501 0.99906 0.0
C632 C 0.1346 0.56516 0.40602 0.0
C633 C 0.12303 0.57565 0.37712 0.0
C634 C 0.12687 0.55596 0.4597 0.0
C635 C 0.10823 0.55886 0.4852 0.0
C636 C 0.09434 0.56626 0.45309 0.0
C637 C 0.10181 0.57436 0.39852 0.0
C638 C 0.14105 0.54652 0.49171 0.0
C639 C 0.07395 0.56902 0.47803 0.0
C640 C 0.10317 0.53942 0.63356 0.0
C641 C 0.12445 0.5596 0.65383 0.0
C642 C 0.09515 0.53962 0.57934 0.0
C643 C 0.10853 0.56076 0.54644 0.0
C644 C 0.12726 0.58253 0.57089 0.0
C645 C 0.13555 0.58147 0.6242 0.0
C646 C 0.07471 0.51621 0.55567 0.0
C647 C 0.14092 0.60598 0.53804 0.0
H648 H 0.15088 0.56606 0.38868 0.0
H649 H 0.09286 0.58243 0.37542 0.0
H650 H 0.15454 0.56117 0.51921 0.0
H651 H 0.12868 0.53079 0.51839 0.0
H652 H 0.15112 0.54075 0.4633 0.0
H653 H 0.05934 0.56441 0.44673 0.0
H654 H 0.06585 0.55734 0.51536 0.0
H655 H 0.08123 0.58835 0.49043 0.0
H656 H 0.09459 0.52253 0.65721 0.0
H657 H 0.15189 0.59705 0.64065 0.0
H658 H 0.08189 0.50389 0.54491 0.0
H659 H 0.06661 0.51927 0.51765 0.0
H660 H 0.06011 0.50675 0.58732 0.0
H661 H 0.15426 0.60484 0.50989 0.0
H662 H 0.15111 0.622 0.56585 0.0
H663 H 0.12818 0.60902 0.51195 0.0
C664 C 0.58725 0.09928 0.10804 0.0
C665 C 0.58278 0.11645 0.13414 0.0
C666 C 0.5807 0.09294 0.05238 0.0
C667 C 0.56919 0.10389 0.02362 0.0
C668 C 0.56087 0.11782 0.05311 0.0
C669 C 0.56844 0.12456 0.10818 0.0
C670 C 0.5894 0.07764 0.02271 0.0
C671 C 0.54715 0.12857 0.02431 0.0
C672 C 0.58986 0.13787 0.89025 0.0
C673 C 0.5692 0.12412 0.85767 0.0
C674 C 0.59186 0.1293 0.94248 0.0
C675 C 0.57206 0.10714 0.96278 0.0
C676 C 0.55277 0.09176 0.92683 0.0
C677 C 0.55175 0.1004 0.87378 0.0
C678 C 0.61353 0.14563 0.97867 0.0
C679 C 0.53154 0.06782 0.9461 0.0
H680 H 0.59842 0.09313 0.12883 0.0
H681 H 0.56497 0.13775 0.12906 0.0
H682 H 0.57664 0.06657 0.98902 0.0
H683 H 0.60745 0.08987 1.0034 0.0
H684 H 0.59158 0.0653 0.05221 0.0
H685 H 0.53792 0.13451 0.05478 0.0
H686 H 0.56012 0.14473 0.99948 0.0
H687 H 0.53325 0.1151 0.99538 0.0
H688 H 0.60336 0.15613 0.87699 0.0
H689 H 0.53578 0.08978 0.84795 0.0
H690 H 0.61982 0.13476 1.00254 0.0
H691 H 0.60819 0.15537 1.00905 0.0
H692 H 0.62907 0.15952 0.95357 0.0
H693 H 0.53595 0.0604 0.98343 0.0
H694 H 0.52552 0.0541 0.91207 0.0
H695 H 0.51595 0.07056 0.95644 0.0
C696 C 0.50867 0.58818 0.60438 0.0
C697 C 0.48605 0.57998 0.63033 0.0
C698 C 0.50992 0.58343 0.54802 0.0
C699 C 0.48796 0.5704 0.51787 0.0
C700 C 0.46521 0.55887 0.54631 0.0
C701 C 0.46449 0.56425 0.60259 0.0
C702 C 0.53449 0.59537 0.51958 0.0
C703 C 0.44141 0.54377 0.5157 0.0
C704 C 0.47298 0.59169 0.38754 0.0
C705 C 0.46819 0.57225 0.35241 0.0
C706 C 0.4833 0.59341 0.43992 0.0
C707 C 0.48781 0.57458 0.45749 0.0
C708 C 0.48627 0.55699 0.41898 0.0
C709 C 0.47665 0.55621 0.36603 0.0
C710 C 0.48599 0.61335 0.47903 0.0
C711 C 0.49147 0.53699 0.43537 0.0
H712 H 0.52529 0.60062 0.62627 0.0
H713 H 0.44709 0.55798 0.62328 0.0
H714 H 0.53464 0.5844 0.48366 0.0
H715 H 0.53872 0.61356 0.50367 0.0
H716 H 0.54915 0.59808 0.5492 0.0
H717 H 0.42615 0.53263 0.54484 0.0
H718 H 0.43676 0.55605 0.49221 0.0
H719 H 0.44301 0.53143 0.48529 0.0
H720 H 0.46653 0.60412 0.37624 0.0
H721 H 0.47292 0.54118 0.33832 0.0
H722 H 0.50332 0.62092 0.50279 0.0
H723 H 0.47072 0.60569 0.50949 0.0
H724 H 0.48568 0.62851 0.4563 0.0
H725 H 0.50379 0.54202 0.47194 0.0
H726 H 0.49979 0.53243 0.39991 0.0
H727 H 0.47401 0.52029 0.44592 0.0
C728 C 0.90302 0.45138 0.13116 0.0
C729 C 0.91798 0.47184 0.16325 0.0
C730 C 0.91061 0.4486 0.07843 0.0
C731 C 0.93321 0.4674 0.05725 0.0
C732 C 0.94964 0.48643 0.0925 0.0
C733 C 0.94185 0.48827 0.14594 0.0
C734 C 0.89303 0.42727 0.04289 0.0
C735 C 0.97401 0.50659 0.07205 0.0
C736 C 0.93898 0.44957 0.91305 0.0
C737 C 0.92347 0.45606 0.88577 0.0
C738 C 0.94566 0.45626 0.9685 0.0
C739 C 0.93638 0.46955 0.9963 0.0
C740 C 0.92387 0.47927 0.96601 0.0
C741 C 0.91707 0.47193 0.91082 0.0
C742 C 0.95951 0.44608 0.99895 0.0
C743 C 0.9147 0.49456 0.99396 0.0
H744 H 0.88464 0.43869 0.14531 0.0
H745 H 0.95337 0.50412 0.1713 0.0
H746 H 0.88431 0.43356 0.01191 0.0
H747 H 0.90276 0.41952 0.01967 0.0
H748 H 0.87838 0.41253 0.06831 0.0
H749 H 0.98763 0.51328 0.10637 0.0
H750 H 0.98117 0.50066 0.03678 0.0
H751 H 0.97194 0.52216 0.05775 0.0
H752 H 0.94365 0.43706 0.89318 0.0
H753 H 0.90512 0.47686 0.88906 0.0
H754 H 0.9463 0.42837 0.01833 0.0
H755 H 0.97105 0.45853 0.03261 0.0
H756 H 0.97124 0.44278 0.96987 0.0
H757 H 0.8983 0.48258 0.01931 0.0
H758 H 0.90959 0.50432 0.963 0.0
H759 H 0.92878 0.50817 0.02233 0.0
C760 C 0.50793 0.9308 0.41473 0.0
C761 C 0.48577 0.91491 0.38863 0.0
C762 C 0.50837 0.93757 0.47029 0.0
C763 C 0.48608 0.92798 0.49948 0.0
C764 C 0.46357 0.91487 0.47058 0.0
C765 C 0.46369 0.90803 0.41521 0.0
C766 C 0.53268 0.952 0.49924 0.0
C767 C 0.43936 0.90526 0.50005 0.0
C768 C 0.47252 0.89583 0.63557 0.0
C769 C 0.46657 0.91065 0.66699 0.0
C770 C 0.4827 0.90324 0.58259 0.0
C771 C 0.48582 0.92546 0.56056 0.0
C772 C 0.48295 0.9419 0.59525 0.0
C773 C 0.47354 0.93432 0.64894 0.0
C774 C 0.48677 0.88571 0.54761 0.0
C775 C 0.48649 0.9659 0.57385 0.0
H776 H 0.52497 0.93578 0.39377 0.0
H777 H 0.44666 0.89574 0.3944 0.0
H778 H 0.53182 0.96339 0.53334 0.0
H779 H 0.53791 0.93917 0.51778 0.0
H780 H 0.54721 0.96396 0.46931 0.0
H781 H 0.42405 0.8995 0.47005 0.0
H782 H 0.43574 0.8892 0.52585 0.0
H783 H 0.43968 0.91933 0.52822 0.0
H784 H 0.46717 0.8776 0.65028 0.0
H785 H 0.46884 0.94573 0.67377 0.0
H786 H 0.50399 0.8956 0.52348 0.0
H787 H 0.47154 0.87635 0.51745 0.0
H788 H 0.48756 0.87157 0.57361 0.0
H789 H 0.49963 0.97315 0.53869 0.0
H790 H 0.49297 0.9797 0.60775 0.0
H791 H 0.46868 0.96322 0.55901 0.0
C792 C 0.18754 0.42118 0.94423 0.0
C793 C 0.20019 0.442 0.91095 0.0
C794 C 0.19996 0.41545 0.98456 0.0
C795 C 0.22546 0.43089 0.99072 0.0
C796 C 0.23843 0.45095 0.95421 0.0
C797 C 0.22556 0.45625 0.91463 0.0
C798 C 0.18565 0.39386 0.0226 0.0
C799 C 0.26571 0.4677 0.95906 0.0
C800 C 0.25896 0.44564 0.1267 0.0
C801 C 0.27347 0.435 0.11876 0.0
C802 C 0.24131 0.44242 0.08738 0.0
C803 C 0.23844 0.42833 0.03913 0.0
C804 C 0.25155 0.41569 0.0337 0.0
C805 C 0.26909 0.41922 0.07396 0.0
C806 C 0.22755 0.45606 0.09484 0.0
C807 C 0.24874 0.40035 0.98307 0.0
H808 H 0.16786 0.41007 0.94047 0.0
H809 H 0.23523 0.47198 0.88751 0.0
H810 H 0.19524 0.38334 0.02821 0.0
H811 H 0.18397 0.40046 0.06432 0.0
H812 H 0.16698 0.38145 1.00639 0.0
H813 H 0.2732 0.48117 0.92442 0.0
H814 H 0.26999 0.47785 0.99905 0.0
H815 H 0.27522 0.45695 0.95928 0.0
H816 H 0.26249 0.45772 0.16195 0.0
H817 H 0.28047 0.41102 0.06847 0.0
H818 H 0.20789 0.44405 0.08547 0.0
H819 H 0.23478 0.47165 0.06525 0.0
H820 H 0.22937 0.46332 0.13784 0.0
H821 H 0.22929 0.38935 0.97064 0.0
H822 H 0.25612 0.38791 0.99054 0.0
H823 H 0.25885 0.41251 0.94758 0.0
C824 C 0.86231 0.26295 0.57217 0.0
C825 C 0.85148 0.26846 0.6165 0.0
C826 C 0.84784 0.24531 0.53267 0.0
C827 C 0.82215 0.23309 0.53832 0.0
C828 C 0.81136 0.23707 0.58591 0.0
C829 C 0.82625 0.25473 0.6247 0.0
C830 C 0.85994 0.24123 0.4828 0.0
C831 C 0.78399 0.22413 0.59365 0.0
C832 C 0.78187 0.21835 0.41229 0.0
C833 C 0.77037 0.1929 0.41147 0.0
C834 C 0.79979 0.23178 0.45189 0.0
C835 C 0.80639 0.2193 0.49101 0.0
C836 C 0.796 0.19366 0.48782 0.0
C837 C 0.77802 0.18067 0.44765 0.0
C838 C 0.81068 0.25918 0.45367 0.0
C839 C 0.80288 0.17989 0.52853 0.0
H840 H 0.88194 0.27344 0.5665 0.0
H841 H 0.81809 0.25835 0.66048 0.0
H842 H 0.85116 0.22152 0.47252 0.0
H843 H 0.85785 0.2507 0.44602 0.0
H844 H 0.87974 0.24844 0.48988 0.0
H845 H 0.77875 0.22721 0.63582 0.0
H846 H 0.77589 0.23091 0.56221 0.0
H847 H 0.7759 0.20421 0.58705 0.0
H848 H 0.77635 0.2277 0.38278 0.0
H849 H 0.76923 0.16092 0.44606 0.0
H850 H 0.83091 0.26839 0.4536 0.0
H851 H 0.80508 0.26441 0.49279 0.0
H852 H 0.80477 0.26612 0.41782 0.0
H853 H 0.82299 0.18916 0.53383 0.0
H854 H 0.79616 0.16077 0.51497 0.0
H855 H 0.79486 0.17947 0.56996 0.0
C856 C 0.58909 0.81864 0.1184 0.0
C857 C 0.60147 0.84407 0.1134 0.0
C858 C 0.59272 0.80434 0.07947 0.0
C859 C 0.60945 0.81591 0.03525 0.0
C860 C 0.62366 0.84166 0.03305 0.0
C861 C 0.61947 0.85553 0.07239 0.0
C862 C 0.57738 0.77686 0.08346 0.0
C863 C 0.64199 0.85455 0.98705 0.0
C864 C 0.61945 0.77194 0.94808 0.0
C865 C 0.60114 0.76543 0.90797 0.0
C866 C 0.62367 0.78975 0.98819 0.0
C867 C 0.60916 0.80102 0.98758 0.0
C868 C 0.59199 0.79578 0.94437 0.0
C869 C 0.58834 0.77812 0.90473 0.0
C870 C 0.64245 0.79529 0.0331 0.0
C871 C 0.57632 0.80761 0.94205 0.0
H872 H 0.57606 0.80988 0.15185 0.0
H873 H 0.62934 0.87528 0.06924 0.0
H874 H 0.56421 0.76988 0.0483 0.0
H875 H 0.58905 0.76841 0.0801 0.0
H876 H 0.56695 0.77082 0.12316 0.0
H877 H 0.65462 0.87407 0.99715 0.0
H878 H 0.65287 0.84551 0.97898 0.0
H879 H 0.6322 0.85368 0.94796 0.0
H880 H 0.62956 0.76226 0.94984 0.0
H881 H 0.57494 0.77373 0.87207 0.0
H882 H 0.63306 0.78633 0.07254 0.0
H883 H 0.65326 0.81521 0.04112 0.0
H884 H 0.65511 0.78855 0.02189 0.0
H885 H 0.56377 0.80159 0.97842 0.0
H886 H 0.56519 0.80285 0.90338 0.0
H887 H 0.58786 0.82776 0.94444 0.0
C888 C 0.78988 0.59428 0.62673 0.0
C889 C 0.77368 0.60288 0.61737 0.0
C890 C 0.80766 0.59802 0.58722 0.0
C891 C 0.80952 0.61123 0.53801 0.0
C892 C 0.79505 0.6224 0.53159 0.0
C893 C 0.77707 0.61796 0.57153 0.0
C894 C 0.82283 0.5859 0.59584 0.0
C895 C 0.79714 0.6373 0.48056 0.0
C896 C 0.86219 0.62042 0.44668 0.0
C897 C 0.8506 0.59953 0.41313 0.0
C898 C 0.84876 0.62568 0.48522 0.0
C899 C 0.82334 0.60949 0.49019 0.0
C900 C 0.81138 0.58943 0.45334 0.0
C901 C 0.82518 0.58493 0.41465 0.0
C902 C 0.86197 0.64765 0.52267 0.0
C903 C 0.78424 0.57177 0.45712 0.0
H904 H 0.78791 0.58363 0.66382 0.0
H905 H 0.7647 0.62495 0.56504 0.0
H906 H 0.81708 0.57073 0.56557 0.0
H907 H 0.84241 0.59905 0.58818 0.0
H908 H 0.82081 0.57835 0.63862 0.0
H909 H 0.78894 0.64905 0.48765 0.0
H910 H 0.81651 0.64898 0.46805 0.0
H911 H 0.78741 0.62486 0.44527 0.0
H912 H 0.88187 0.63201 0.4446 0.0
H913 H 0.81608 0.56954 0.38658 0.0
H914 H 0.86451 0.64169 0.56442 0.0
H915 H 0.85117 0.65696 0.52829 0.0
H916 H 0.88025 0.66098 0.50585 0.0
H917 H 0.7799 0.56213 0.49785 0.0
H918 H 0.77764 0.55789 0.42336 0.0
H919 H 0.77398 0.58174 0.4549 0.0
C920 C 0.19073 0.78244 0.09318 0.0
C921 C 0.198 0.76504 0.10141 0.0
C922 C 0.20298 0.80156 0.05482 0.0
C923 C 0.22286 0.80309 0.02438 0.0
C924 C 0.23001 0.78534 0.03207 0.0
C925 C 0.21775 0.7668 0.07121 0.0
C926 C 0.19524 0.82047 0.04827 0.0
C927 C 0.25118 0.78634 1.00033 0.0
C928 C 0.25045 0.83676 0.89128 0.0
C929 C 0.27343 0.85435 0.91084 0.0
C930 C 0.23231 0.82123 0.92875 0.0
C931 C 0.23747 0.82382 0.98658 0.0
C932 C 0.25961 0.84363 1.00641 0.0
C933 C 0.27754 0.85859 0.96802 0.0
C934 C 0.20893 0.80031 0.90606 0.0
C935 C 0.26554 0.84733 0.06785 0.0
H936 H 0.17567 0.78129 0.11729 0.0
H937 H 0.22429 0.75421 0.07946 0.0
H938 H 0.20962 0.83815 0.06542 0.0
H939 H 0.19308 0.82346 1.00354 0.0
H940 H 0.17782 0.81517 0.07031 0.0
H941 H 0.25309 0.77005 1.00818 0.0
H942 H 0.24879 0.78763 0.95485 0.0
H943 H 0.26844 0.80283 0.01274 0.0
H944 H 0.24742 0.8337 0.84677 0.0
H945 H 0.29534 0.87255 0.98266 0.0
H946 H 0.19306 0.79698 0.9321 0.0
H947 H 0.21021 0.78342 0.90679 0.0
H948 H 0.20556 0.80371 0.86237 0.0
H949 H 0.24938 0.84418 0.09252 0.0
H950 H 0.28085 0.866 0.07673 0.0
H951 H 0.27094 0.834 0.08217 0.0
C952 C 0.4549 0.21876 0.61709 0.0
C953 C 0.44264 0.19333 0.61213 0.0
C954 C 0.45099 0.23304 0.57853 0.0
C955 C 0.43398 0.22145 0.53485 0.0
C956 C 0.41974 0.19569 0.53307 0.0
C957 C 0.4243 0.18185 0.57188 0.0
C958 C 0.46643 0.26051 0.5821 0.0
C959 C 0.40101 0.18275 0.48793 0.0
C960 C 0.42505 0.26636 0.44823 0.0
C961 C 0.4433 0.27257 0.40815 0.0
C962 C 0.42029 0.24817 0.4879 0.0
C963 C 0.43425 0.2363 0.48691 0.0
C964 C 0.45122 0.2412 0.44336 0.0
C965 C 0.45535 0.25917 0.4041 0.0
C966 C 0.4016 0.24291 0.53288 0.0
C967 C 0.46643 0.22886 0.44065 0.0
H968 H 0.46814 0.22757 0.65008 0.0
H969 H 0.41446 0.1621 0.56876 0.0
H970 H 0.47931 0.26742 0.54635 0.0
H971 H 0.45479 0.26901 0.5795 0.0
H972 H 0.47719 0.26659 0.62132 0.0
H973 H 0.38818 0.16338 0.49897 0.0
H974 H 0.39038 0.19207 0.47984 0.0
H975 H 0.41043 0.18311 0.44859 0.0
H976 H 0.4155 0.27659 0.45042 0.0
H977 H 0.46896 0.26367 0.37176 0.0
H978 H 0.41105 0.25214 0.57199 0.0
H979 H 0.39077 0.22304 0.54165 0.0
H980 H 0.38895 0.24962 0.52123 0.0
H981 H 0.47915 0.23476 0.47665 0.0
H982 H 0.47734 0.23334 0.40166 0.0
H983 H 0.45459 0.20876 0.44341 0.0
C984 C 0.7576 0.52416 0.89392 0.0
C985 C 0.73773 0.52678 0.91106 0.0
C986 C 0.77454 0.52408 0.93272 0.0
C987 C 0.77171 0.52647 0.99083 0.0
C988 C 0.75179 0.52931 1.00827 0.0
C989 C 0.73536 0.52966 0.96852 0.0
C990 C 0.79542 0.52122 0.91142 0.0
C991 C 0.74772 0.53191 0.0693 0.0
C992 C 0.8018 0.50369 0.09765 0.0
C993 C 0.82235 0.52543 0.11558 0.0
C994 C 0.78537 0.50374 0.05736 0.0
C995 C 0.78948 0.52605 0.03327 0.0
C996 C 0.81045 0.54802 0.05068 0.0
C997 C 0.82646 0.54744 0.09133 0.0
C998 C 0.76335 0.47982 0.04103 0.0
C999 C 0.81601 0.57227 0.02631 0.0
H1000 H 0.75972 0.52177 0.84992 0.0
H1001 H 0.72076 0.53253 0.98276 0.0
H1002 H 0.81305 0.53678 0.92564 0.0
H1003 H 0.79411 0.50434 0.92882 0.0
H1004 H 0.79564 0.52028 0.86518 0.0
H1005 H 0.7312 0.53349 0.07654 0.0
H1006 H 0.74572 0.51587 0.09279 0.0
H1007 H 0.76379 0.54832 0.08667 0.0
H1008 H 0.79831 0.48656 0.11596 0.0
H1009 H 0.84242 0.56434 0.10394 0.0
H1010 H 0.76346 0.47698 0.9954 0.0
H1011 H 0.74641 0.48026 0.05079 0.0
H1012 H 0.7627 0.46401 0.06293 0.0
H1013 H 0.81756 0.57189 0.98027 0.0
H1014 H 0.83321 0.58767 0.04305 0.0
H1015 H 0.80082 0.57576 0.03549 0.0
C1016 C 0.23721 0.74939 0.4156 0.0
C1017 C 0.23018 0.72441 0.41651 0.0
C1018 C 0.2548 0.7666 0.45283 0.0
C1019 C 0.26442 0.7588 0.49691 0.0
C1020 C 0.25653 0.7334 0.49989 0.0
C1021 C 0.24059 0.717 0.45881 0.0
C1022 C 0.26282 0.7932 0.44368 0.0
C1023 C 0.26458 0.7229 0.54635 0.0
C1024 C 0.32333 0.79932 0.58224 0.0
C1025 C 0.3163 0.81202 0.61928 0.0
C1026 C 0.30724 0.78296 0.54134 0.0
C1027 C 0.28233 0.77701 0.53949 0.0
C1028 C 0.2748 0.78896 0.57847 0.0
C1029 C 0.29192 0.80686 0.61536 0.0
C1030 C 0.31754 0.77237 0.50027 0.0
C1031 C 0.24861 0.78316 0.58242 0.0
H1032 H 0.22901 0.7559 0.38572 0.0
H1033 H 0.23645 0.69824 0.46042 0.0
H1034 H 0.24877 0.797 0.46088 0.0
H1035 H 0.28067 0.80573 0.46331 0.0
H1036 H 0.26425 0.79736 0.39835 0.0
H1037 H 0.24934 0.70473 0.5591 0.0
H1038 H 0.27951 0.72004 0.53094 0.0
H1039 H 0.27103 0.7348 0.58373 0.0
H1040 H 0.34155 0.80197 0.5847 0.0
H1041 H 0.28584 0.81681 0.6411 0.0
H1042 H 0.30659 0.76575 0.4615 0.0
H1043 H 0.31837 0.75698 0.52029 0.0
H1044 H 0.33654 0.78622 0.48871 0.0
H1045 H 0.24672 0.79765 0.56079 0.0
H1046 H 0.24345 0.78321 0.6267 0.0
H1047 H 0.23553 0.7652 0.56404 0.0
C1048 C 0.49627 0.28738 0.09612 0.0
C1049 C 0.51828 0.30768 0.11376 0.0
C1050 C 0.49586 0.27054 0.05631 0.0
C1051 C 0.51799 0.27377 0.03298 0.0
C1052 C 0.54026 0.29419 0.05097 0.0
C1053 C 0.54012 0.31075 0.09064 0.0
C1054 C 0.4716 0.24933 0.03873 0.0
C1055 C 0.56441 0.29869 0.02811 0.0
C1056 C 0.51916 0.21875 0.96527 0.0
C1057 C 0.51804 0.22267 0.9078 0.0
C1058 C 0.51917 0.23504 1.00603 0.0
C1059 C 0.51788 0.25601 0.98971 0.0
C1060 C 0.51674 0.26005 0.93172 0.0
C1061 C 0.51692 0.24354 0.89189 0.0
C1062 C 0.52054 0.22976 0.06687 0.0
C1063 C 0.51539 0.28195 0.91156 0.0
H1064 H 0.47923 0.28487 0.11274 0.0
H1065 H 0.55732 0.32606 0.10417 0.0
H1066 H 0.46907 0.25025 0.99319 0.0
H1067 H 0.47123 0.23188 0.04704 0.0
H1068 H 0.45603 0.24905 0.06087 0.0
H1069 H 0.58019 0.31441 0.04857 0.0
H1070 H 0.56615 0.2822 0.03377 0.0
H1071 H 0.56529 0.30236 0.98268 0.0
H1072 H 0.51968 0.20265 0.97865 0.0
H1073 H 0.51642 0.24715 0.84788 0.0
H1074 H 0.5042 0.22763 0.08917 0.0
H1075 H 0.53676 0.24536 0.0863 0.0
H1076 H 0.52169 0.21295 0.07313 0.0
H1077 H 0.49928 0.28189 0.93016 0.0
H1078 H 0.51407 0.28237 0.86542 0.0
H1079 H 0.53183 0.29897 0.92536 0.0
C1080 C 0.32412 0.53567 0.44439 0.0
C1081 C 0.31741 0.51593 0.4076 0.0
C1082 C 0.3079 0.53568 0.48536 0.0
C1083 C 0.28308 0.51651 0.48726 0.0
C1084 C 0.27587 0.49701 0.44852 0.0
C1085 C 0.29321 0.4964 0.41199 0.0
C1086 C 0.31799 0.55655 0.52642 0.0
C1087 C 0.24979 0.47642 0.44429 0.0
C1088 C 0.23725 0.49848 0.60999 0.0
C1089 C 0.23056 0.51669 0.60981 0.0
C1090 C 0.25501 0.49897 0.57309 0.0
C1091 C 0.26497 0.51665 0.52957 0.0
C1092 C 0.25721 0.53428 0.5269 0.0
C1093 C 0.24127 0.53473 0.56803 0.0
C1094 C 0.26287 0.48026 0.58216 0.0
C1095 C 0.26538 0.55298 0.48071 0.0
H1096 H 0.34218 0.55146 0.44171 0.0
H1097 H 0.28741 0.48028 0.38674 0.0
H1098 H 0.31898 0.5728 0.50616 0.0
H1099 H 0.30686 0.55225 0.56494 0.0
H1100 H 0.33692 0.56164 0.53847 0.0
H1101 H 0.24474 0.47145 0.39988 0.0
H1102 H 0.24811 0.46001 0.46528 0.0
H1103 H 0.2365 0.48097 0.46296 0.0
H1104 H 0.22868 0.4835 0.63916 0.0
H1105 H 0.23735 0.54951 0.56684 0.0
H1106 H 0.28067 0.48541 0.56239 0.0
H1107 H 0.24869 0.46243 0.56522 0.0
H1108 H 0.26433 0.47756 0.62749 0.0
H1109 H 0.28005 0.57079 0.49662 0.0
H1110 H 0.25007 0.55573 0.46756 0.0
H1111 H 0.27218 0.54779 0.44348 0.0
C1112 C 0.72649 0.24115 0.08169 0.0
C1113 C 0.72982 0.22269 0.10565 0.0
C1114 C 0.74367 0.25848 0.04369 0.0
C1115 C 0.7649 0.2575 0.02827 0.0
C1116 C 0.76817 0.23869 0.0519 0.0
C1117 C 0.75077 0.22171 0.08996 0.0
C1118 C 0.73917 0.27805 0.02038 0.0
C1119 C 0.79015 0.23645 0.03688 0.0
C1120 C 0.79903 0.28882 0.89188 0.0
C1121 C 0.81935 0.31058 0.9108 0.0
C1122 C 0.78138 0.2716 0.92918 0.0
C1123 C 0.7836 0.27601 0.98759 0.0
C1124 C 0.80395 0.29806 1.00693 0.0
C1125 C 0.82145 0.31487 0.96869 0.0
C1126 C 0.76027 0.24854 0.90587 0.0
C1127 C 0.80736 0.30389 0.06839 0.0
H1128 H 0.71058 0.24236 0.09349 0.0
H1129 H 0.7535 0.20741 0.10725 0.0
H1130 H 0.75451 0.29634 0.03173 0.0
H1131 H 0.73844 0.27703 0.97418 0.0
H1132 H 0.72188 0.27643 0.03601 0.0
H1133 H 0.79012 0.22085 0.05831 0.0
H1134 H 0.79064 0.23401 0.99117 0.0
H1135 H 0.80712 0.25348 0.04817 0.0
H1136 H 0.79676 0.28527 0.84747 0.0
H1137 H 0.83709 0.33129 0.98443 0.0
H1138 H 0.74276 0.24742 0.91759 0.0
H1139 H 0.76018 0.23235 0.92407 0.0
H1140 H 0.76108 0.24758 0.85972 0.0
H1141 H 0.79096 0.3037 0.08557 0.0
H1142 H 0.82362 0.32199 0.07699 0.0
H1143 H 0.80942 0.2897 0.09096 0.0
C1144 C 0.52865 0.79122 0.39181 0.0
C1145 C 0.52857 0.81227 0.41068 0.0
C1146 C 0.52852 0.77377 0.42932 0.0
C1147 C 0.52835 0.77713 0.48791 0.0
C1148 C 0.52816 0.79831 0.5072 0.0
C1149 C 0.52824 0.81544 0.46871 0.0
C1150 C 0.52853 0.75161 0.40605 0.0
C1151 C 0.5281 0.80304 0.56884 0.0
C1152 C 0.50695 0.72168 0.58701 0.0
C1153 C 0.52904 0.72402 0.60635 0.0
C1154 C 0.50644 0.73858 0.54876 0.0
C1155 C 0.52856 0.75868 0.52876 0.0
C1156 C 0.55092 0.76102 0.54792 0.0
C1157 C 0.55088 0.74375 0.58585 0.0
C1158 C 0.48209 0.73496 0.52988 0.0
C1159 C 0.57504 0.7819 0.52832 0.0
H1160 H 0.52855 0.78821 0.34731 0.0
H1161 H 0.52846 0.83164 0.48423 0.0
H1162 H 0.54486 0.75107 0.42106 0.0
H1163 H 0.51224 0.73475 0.42117 0.0
H1164 H 0.52853 0.75144 0.35972 0.0
H1165 H 0.52769 0.82009 0.5775 0.0
H1166 H 0.512 0.78753 0.58891 0.0
H1167 H 0.54462 0.80442 0.58858 0.0
H1168 H 0.48991 0.7067 0.60246 0.0
H1169 H 0.56811 0.74564 0.59932 0.0
H1170 H 0.48076 0.73349 0.48376 0.0
H1171 H 0.48043 0.75103 0.54179 0.0
H1172 H 0.46651 0.71832 0.54824 0.0
H1173 H 0.57639 0.78127 0.48229 0.0
H1174 H 0.59085 0.78147 0.5473 0.0
H1175 H 0.57623 0.79955 0.53889 0.0
C1176 C 0.43438 0.47949 0.29317 0.0
C1177 C 0.41362 0.47262 0.25993 0.0
C1178 C 0.44785 0.46724 0.28968 0.0
C1179 C 0.44076 0.44774 0.25139 0.0
C1180 C 0.41977 0.44065 0.21788 0.0
C1181 C 0.40642 0.453 0.22279 0.0
C1182 C 0.4698 0.47527 0.32696 0.0
C1183 C 0.41156 0.42014 0.17622 0.0
C1184 C 0.48896 0.43061 0.20921 0.0
C1185 C 0.48265 0.41002 0.24265 0.0
C1186 C 0.47532 0.4428 0.21088 0.0
C1187 C 0.45498 0.43449 0.24735 0.0
C1188 C 0.44845 0.41364 0.28085 0.0
C1189 C 0.46217 0.40166 0.27786 0.0
C1190 C 0.48282 0.46474 0.17388 0.0
C1191 C 0.42718 0.4042 0.32084 0.0
H1192 H 0.44021 0.49458 0.32205 0.0
H1193 H 0.39058 0.44759 0.19651 0.0
H1194 H 0.46796 0.45953 0.35139 0.0
H1195 H 0.48653 0.48217 0.30118 0.0
H1196 H 0.47222 0.48988 0.3564 0.0
H1197 H 0.39509 0.41697 0.15273 0.0
H1198 H 0.42648 0.42435 0.14605 0.0
H1199 H 0.40743 0.40298 0.19789 0.0
H1200 H 0.50466 0.43731 0.18184 0.0
H1201 H 0.45703 0.38589 0.30423 0.0
H1202 H 0.48812 0.48115 0.19987 0.0
H1203 H 0.46717 0.46196 0.14765 0.0
H1204 H 0.49838 0.46837 0.14622 0.0
H1205 H 0.43037 0.41857 0.35171 0.0
H1206 H 0.42426 0.38765 0.34369 0.0
H1207 H 0.41021 0.39973 0.29795 0.0
C1208 C 0.08025 0.44981 0.80279 0.0
C1209 C 0.09172 0.46604 0.75824 0.0
C1210 C 0.05452 0.43626 0.8073 0.0
C1211 C 0.03979 0.4387 0.766 0.0
C1212 C 0.05131 0.45435 0.71991 0.0
C1213 C 0.07698 0.46786 0.71681 0.0
C1214 C 0.04311 0.41989 0.85724 0.0
C1215 C 0.03656 0.45746 0.67443 0.0
C1216 C 0.97206 0.39091 0.74994 0.0
C1217 C 0.96044 0.40257 0.77477 0.0
C1218 C 0.99776 0.40214 0.74793 0.0
C1219 C 1.01242 0.42563 0.77158 0.0
C1220 C 1.0008 0.43721 0.79794 0.0
C1221 C 0.9751 0.42567 0.7989 0.0
C1222 C 1.00923 0.38917 0.7189 0.0
C1223 C 1.01555 0.46215 0.824 0.0
H1224 H 0.09137 0.44832 0.83524 0.0
H1225 H 0.08554 0.48017 0.68196 0.0
H1226 H 0.03301 0.4267 0.88237 0.0
H1227 H 0.0297 0.40113 0.84349 0.0
H1228 H 0.05692 0.41903 0.88433 0.0
H1229 H 0.048 0.46753 0.63793 0.0
H1230 H 1.0217 0.43944 0.66004 0.0
H1231 H 0.02793 0.46772 0.69102 0.0
H1232 H 0.96108 0.37313 0.73095 0.0
H1233 H 0.96652 0.43506 0.81761 0.0
H1234 H 1.02244 0.38783 0.74702 0.0
H1235 H 1.01956 0.39984 0.6818 0.0
H1236 H 0.99544 0.3705 0.70515 0.0
H1237 H 0.02915 0.46231 0.85351 0.0
H1238 H 1.0039 0.46786 0.84671 0.0
H1239 H 1.0258 0.47585 0.79108 0.0
C1240 C 0.62311 0.0687 0.21231 0.0
C1241 C 0.64024 0.08374 0.2524 0.0
C1242 C 0.61127 0.04306 0.21593 0.0
C1243 C 0.61655 0.03186 0.26088 0.0
C1244 C 0.63432 0.04689 0.30076 0.0
C1245 C 0.64597 0.07257 0.29597 0.0
C1246 C 0.59269 0.02793 0.17206 0.0
C1247 C 0.64051 0.03583 0.34946 0.0
C1248 C 0.56665 0.96688 0.29747 0.0
C1249 C 0.57508 0.95248 0.27182 0.0
C1250 C 0.58027 0.99259 0.29574 0.0
C1251 C 0.60286 1.0045 0.26685 0.0
C1252 C 0.61169 0.99013 0.24151 0.0
C1253 C 0.5978 0.96441 0.24447 0.0
C1254 C 0.57013 1.00701 0.32379 0.0
C1255 C 0.63555 1.00192 0.20997 0.0
H1256 H 0.61873 0.07701 0.1781 0.0
H1257 H 0.65909 0.0839 0.32736 0.0
H1258 H 0.59769 1.01512 0.1525 0.0
H1259 H 0.5745 1.01676 0.19169 0.0
H1260 H 0.59116 0.03935 0.13886 0.0
H1261 H 0.65548 0.04987 0.37545 0.0
H1262 H 0.62412 0.0255 0.37612 0.0
H1263 H 0.646 0.02269 0.33438 0.0
H1264 H 0.54908 0.95806 0.31808 0.0
H1265 H 0.60457 0.95363 0.22425 0.0
H1266 H 0.56586 1.01705 0.2919 0.0
H1267 H 0.58392 0.02078 0.35239 0.0
H1268 H 0.55326 0.99517 0.34796 0.0
H1269 H 0.63428 1.01208 0.17356 0.0
H1270 H 0.64049 0.98835 0.19482 0.0
H1271 H 0.65049 1.01534 0.23693 0.0
C1272 C 0.59148 0.63593 0.79516 0.0
C1273 C 0.57134 0.62788 0.7592 0.0
C1274 C 0.60398 0.62276 0.80117 0.0
C1275 C 0.59653 0.60113 0.76984 0.0
C1276 C 0.57644 0.59312 0.73295 0.0
C1277 C 0.564 0.60636 0.7286 0.0
C1278 C 0.62505 0.63188 0.84153 0.0
C1279 C 0.56805 0.5705 0.69781 0.0
C1280 C 0.64261 0.57987 0.74244 0.0
C1281 C 0.63484 0.55988 0.77893 0.0
C1282 C 0.63046 0.59341 0.73942 0.0
C1283 C 0.61011 0.58725 0.77432 0.0
C1284 C 0.60245 0.56746 0.81221 0.0
C1285 C 0.61473 0.55391 0.81375 0.0
C1286 C 0.63913 0.61404 0.69777 0.0
C1287 C 0.58111 0.56045 0.85085 0.0
H1288 H 0.59724 0.65234 0.81956 0.0
H1289 H 0.5484 0.59973 0.70116 0.0
H1290 H 0.6215 0.61749 0.87271 0.0
H1291 H 0.642 0.63597 0.81894 0.0
H1292 H 0.62824 0.6486 0.86391 0.0
H1293 H 0.55253 0.56699 0.67015 0.0
H1294 H 0.58335 0.57235 0.67159 0.0
H1295 H 0.56234 0.55436 0.72512 0.0
H1296 H 0.65799 0.58471 0.71499 0.0
H1297 H 0.60853 0.53861 0.84217 0.0
H1298 H 0.64378 0.63132 0.71942 0.0
H1299 H 0.62428 0.61023 0.66778 0.0
H1300 H 0.6554 0.61676 0.67401 0.0
H1301 H 0.58412 0.57651 0.87572 0.0
H1302 H 0.57815 0.54549 0.87983 0.0
H1303 H 0.56423 0.55445 0.82612 0.0
C1304 C 0.0796 0.64375 0.22674 0.0
C1305 C 0.09093 0.63734 0.26863 0.0
C1306 C 0.05387 0.63218 0.22285 0.0
C1307 C 0.03898 0.6138 0.2619 0.0
C1308 C 0.05037 0.60784 0.30518 0.0
C1309 C 0.07602 0.61957 0.30793 0.0
C1310 C 0.04259 0.63915 0.17604 0.0
C1311 C 0.03544 0.58856 0.34804 0.0
C1312 C 0.97168 0.59447 0.28468 0.0
C1313 C 0.95951 0.57208 0.25615 0.0
C1314 C 0.99742 0.60856 0.28553 0.0
C1315 C 1.01156 0.60024 0.25703 0.0
C1316 C 0.99937 0.57803 0.22674 0.0
C1317 C 0.97364 0.56428 0.22674 0.0
C1318 C 1.00951 0.63201 0.31851 0.0
C1319 C 1.01353 0.56839 0.19551 0.0
H1320 H 0.09082 0.65732 0.19597 0.0
H1321 H 0.08442 0.61452 0.34077 0.0
H1322 H 0.03212 0.62321 0.14829 0.0
H1323 H 0.02953 0.64439 0.19303 0.0
H1324 H 0.05652 0.65454 0.15069 0.0
H1325 H 0.04698 0.58732 0.38135 0.0
H1326 H 1.0219 0.59253 0.36765 0.0
H1327 H 1.02513 0.5705 0.32741 0.0
H1328 H 0.96111 0.60078 0.30758 0.0
H1329 H 0.96458 0.54712 0.20431 0.0
H1330 H 1.02285 0.64727 0.29203 0.0
H1331 H 1.0198 0.6302 0.35391 0.0
H1332 H 0.99609 0.63685 0.33532 0.0
H1333 H 0.02687 0.58257 0.16684 0.0
H1334 H 1.00144 0.55178 0.1709 0.0
H1335 H 1.02405 0.56385 0.22546 0.0
C1336 C 0.4286 0.96726 0.72354 0.0
C1337 C 0.40772 0.95288 0.75609 0.0
C1338 C 0.44033 0.99298 0.72408 0.0
C1339 C 0.43119 1.00491 0.75834 0.0
C1340 C 0.4099 0.99053 0.79062 0.0
C1341 C 0.39841 0.9648 0.78895 0.0
C1342 C 0.46281 1.00742 0.68861 0.0
C1343 C 0.39961 1.00234 0.82816 0.0
C1344 C 0.47665 0.07057 0.80189 0.0
C1345 C 0.47109 0.08447 0.76515 0.0
C1346 C 0.46351 0.04483 0.80093 0.0
C1347 C 0.4444 0.03238 0.76179 0.0
C1348 C 0.43839 0.04626 0.72524 0.0
C1349 C 0.45167 0.07203 0.72754 0.0
C1350 C 0.47052 0.03098 0.84115 0.0
C1351 C 0.4183 0.03388 0.68266 0.0
H1352 H 0.43601 0.9584 0.69786 0.0
H1353 H 0.3824 0.95402 0.8145 0.0
H1354 H 0.46052 0.02039 0.66157 0.0
H1355 H 0.47884 0.01837 0.71578 0.0
H1356 H 0.46678 0.99549 0.66181 0.0
H1357 H 0.3825 0.98871 0.84918 0.0
H1358 H 0.41323 1.01335 0.86054 0.0
H1359 H 0.39581 1.015 0.80376 0.0
H1360 H 0.49151 0.07984 0.8313 0.0
H1361 H 0.44722 0.08245 0.69872 0.0
H1362 H 0.47889 0.02186 0.81784 0.0
H1363 H 0.45411 1.01654 0.86274 0.0
H1364 H 0.48373 0.04313 0.87304 0.0
H1365 H 0.42293 0.02326 0.65322 0.0
H1366 H 0.41528 0.04712 0.65843 0.0
H1367 H 0.40096 0.02077 0.70355 0.0
loop_
_geom_bond_atom_site_label_1
_geom_bond_atom_site_label_2
_geom_bond_distance
_geom_bond_site_symmetry_2
_ccdc_geom_bond_type
Co0 O3 1.970 . S
Co0 N17 1.989 . S
Co0 O25 1.967 . S
Co0 O32 1.920 . S
Co1 O4 1.966 . S
Co1 N10 2.022 . S
Co1 N18 1.993 . S
Co1 O26 1.941 . S
C2 O3 1.258 . S
C2 O4 1.263 . S
O3 Co0 1.970 . S
O3 C2 1.258 . S
O4 Co1 1.966 . S
O4 C2 1.263 . S
C5 O6 1.235 . S
C5 O32 1.289 . S
O6 C5 1.235 . S
C7 C9 1.400 . S
C7 N10 1.351 . S
C7 C12 1.501 . S
C8 C9 1.387 . S
C8 N11 1.341 . S
C9 C7 1.400 . S
C9 C8 1.387 . S
N10 Co1 2.022 . S
N10 C7 1.351 . S
N10 N11 1.365 . S
N11 C8 1.341 . S
N11 N10 1.365 . S
N11 H31 0.862 . S
C12 C7 1.501 . S
C12 H13 0.961 . S
C12 H14 0.961 . S
C12 H15 0.960 . S
H13 C12 0.961 . S
H14 C12 0.961 . S
H15 C12 0.960 . S
C16 N17 1.342 . S
C16 C20 1.401 . S
C16 C21 1.499 . S
N17 Co0 1.989 . S
N17 C16 1.342 . S
N17 N18 1.388 . S
N18 Co1 1.993 . S
N18 N17 1.388 . S
N18 C19 1.346 . S
C19 N18 1.346 . S
C19 C20 1.396 . S
C19 C29 1.510 . S
C20 C16 1.401 . S
C20 C19 1.396 . S
C21 C16 1.499 . S
C21 H22 0.959 . S
C21 H23 0.960 . S
C21 H24 0.961 . S
H22 C21 0.959 . S
H23 C21 0.960 . S
H24 C21 0.961 . S
O25 Co0 1.967 . S
O25 C33 1.258 . S
O26 Co1 1.941 . S
O26 C33 1.266 . S
H27 C29 0.959 . S
H28 C29 0.961 . S
C29 C19 1.510 . S
C29 H27 0.959 . S
C29 H28 0.961 . S
C29 H30 0.960 . S
H30 C29 0.960 . S
H31 N11 0.862 . S
O32 Co0 1.920 . S
O32 C5 1.289 . S
C33 O25 1.258 . S
C33 O26 1.266 . S
Co34 O37 1.970 . S
Co34 N51 1.989 . S
Co34 O59 1.967 . S
Co34 O66 1.920 . S
Co35 O38 1.966 . S
Co35 N44 2.022 . S
Co35 N52 1.993 . S
Co35 O60 1.941 . S
C36 O37 1.258 . S
C36 O38 1.263 . S
O37 Co34 1.970 . S
O37 C36 1.258 . S
O38 Co35 1.966 . S
O38 C36 1.263 . S
C39 O40 1.235 . S
C39 O66 1.289 . S
O40 C39 1.235 . S
C41 C43 1.400 . S
C41 N44 1.351 . S
C41 C46 1.501 . S
C42 C43 1.387 . S
C42 N45 1.341 . S
C43 C41 1.400 . S
C43 C42 1.387 . S
N44 Co35 2.022 . S
N44 C41 1.351 . S
N44 N45 1.365 . S
N45 C42 1.341 . S
N45 N44 1.365 . S
N45 H65 0.862 . S
C46 C41 1.501 . S
C46 H47 0.961 . S
C46 H48 0.961 . S
C46 H49 0.960 . S
H47 C46 0.961 . S
H48 C46 0.961 . S
H49 C46 0.960 . S
C50 N51 1.342 . S
C50 C54 1.401 . S
C50 C55 1.499 . S
N51 Co34 1.989 . S
N51 C50 1.342 . S
N51 N52 1.388 . S
N52 Co35 1.993 . S
N52 N51 1.388 . S
N52 C53 1.346 . S
C53 N52 1.346 . S
C53 C54 1.396 . S
C53 C63 1.510 . S
C54 C50 1.401 . S
C54 C53 1.396 . S
C55 C50 1.499 . S
C55 H56 0.959 . S
C55 H57 0.960 . S
C55 H58 0.961 . S
H56 C55 0.959 . S
H57 C55 0.960 . S
H58 C55 0.961 . S
O59 Co34 1.967 . S
O59 C67 1.258 . S
O60 Co35 1.941 . S
O60 C67 1.266 . S
H61 C63 0.959 . S
H62 C63 0.961 . S
C63 C53 1.510 . S
C63 H61 0.959 . S
C63 H62 0.961 . S
C63 H64 0.960 . S
H64 C63 0.960 . S
H65 N45 0.862 . S
O66 Co34 1.920 . S
O66 C39 1.289 . S
C67 O59 1.258 . S
C67 O60 1.266 . S
Co68 O71 1.970 . S
Co68 N85 1.989 . S
Co68 O93 1.967 . S
Co68 O100 1.920 . S
Co69 O72 1.966 . S
Co69 N78 2.022 . S
Co69 N86 1.993 . S
Co69 O94 1.941 . S
C70 O71 1.258 . S
C70 O72 1.263 . S
O71 Co68 1.970 . S
O71 C70 1.258 . S
O72 Co69 1.966 . S
O72 C70 1.263 . S
C73 O74 1.235 . S
C73 O100 1.289 . S
O74 C73 1.235 . S
C75 C77 1.400 . S
C75 N78 1.351 . S
C75 C80 1.501 . S
C76 C77 1.387 . S
C76 N79 1.341 . S
C77 C75 1.400 . S
C77 C76 1.387 . S
N78 Co69 2.022 . S
N78 C75 1.351 . S
N78 N79 1.365 . S
N79 C76 1.341 . S
N79 N78 1.365 . S
N79 H99 0.862 . S
C80 C75 1.501 . S
C80 H81 0.961 . S
C80 H82 0.961 . S
C80 H83 0.960 . S
H81 C80 0.961 . S
H82 C80 0.961 . S
H83 C80 0.960 . S
C84 N85 1.342 . S
C84 C88 1.401 . S
C84 C89 1.499 . S
N85 Co68 1.989 . S
N85 C84 1.342 . S
N85 N86 1.388 . S
N86 Co69 1.993 . S
N86 N85 1.388 . S
N86 C87 1.346 . S
C87 N86 1.346 . S
C87 C88 1.396 . S
C87 C97 1.510 . S
C88 C84 1.401 . S
C88 C87 1.396 . S
C89 C84 1.499 . S
C89 H90 0.959 . S
C89 H91 0.960 . S
C89 H92 0.961 . S
H90 C89 0.959 . S
H91 C89 0.960 . S
H92 C89 0.961 . S
O93 Co68 1.967 . S
O93 C101 1.258 . S
O94 Co69 1.941 . S
O94 C101 1.266 . S
H95 C97 0.959 . S
H96 C97 0.961 . S
C97 C87 1.510 . S
C97 H95 0.959 . S
C97 H96 0.961 . S
C97 H98 0.960 . S
H98 C97 0.960 . S
H99 N79 0.862 . S
O100 Co68 1.920 . S
O100 C73 1.289 . S
C101 O93 1.258 . S
C101 O94 1.266 . S
Co102 O105 1.970 . S
Co102 N119 1.989 . S
Co102 O127 1.967 . S
Co102 O134 1.920 . S
Co103 O106 1.966 . S
Co103 N112 2.022 . S
Co103 N120 1.993 . S
Co103 O128 1.941 . S
C104 O105 1.258 . S
C104 O106 1.263 . S
O105 Co102 1.970 . S
O105 C104 1.258 . S
O106 Co103 1.966 . S
O106 C104 1.263 . S
C107 O108 1.235 . S
C107 O134 1.289 . S
O108 C107 1.235 . S
C109 C111 1.400 . S
C109 N112 1.351 . S
C109 C114 1.501 . S
C110 C111 1.387 . S
C110 N113 1.341 . S
C111 C109 1.400 . S
C111 C110 1.387 . S
N112 Co103 2.022 . S
N112 C109 1.351 . S
N112 N113 1.365 . S
N113 C110 1.341 . S
N113 N112 1.365 . S
N113 H133 0.862 . S
C114 C109 1.501 . S
C114 H115 0.961 . S
C114 H116 0.961 . S
C114 H117 0.960 . S
H115 C114 0.961 . S
H116 C114 0.961 . S
H117 C114 0.960 . S
C118 N119 1.342 . S
C118 C122 1.401 . S
C118 C123 1.499 . S
N119 Co102 1.989 . S
N119 C118 1.342 . S
N119 N120 1.388 . S
N120 Co103 1.993 . S
N120 N119 1.388 . S
N120 C121 1.346 . S
C121 N120 1.346 . S
C121 C122 1.396 . S
C121 C131 1.510 . S
C122 C118 1.401 . S
C122 C121 1.396 . S
C123 C118 1.499 . S
C123 H124 0.959 . S
C123 H125 0.960 . S
C123 H126 0.961 . S
H124 C123 0.959 . S
H125 C123 0.960 . S
H126 C123 0.961 . S
O127 Co102 1.967 . S
O127 C135 1.258 . S
O128 Co103 1.941 . S
O128 C135 1.266 . S
H129 C131 0.959 . S
H130 C131 0.961 . S
C131 C121 1.510 . S
C131 H129 0.959 . S
C131 H130 0.961 . S
C131 H132 0.960 . S
H132 C131 0.960 . S
H133 N113 0.862 . S
O134 Co102 1.920 . S
O134 C107 1.289 . S
C135 O127 1.258 . S
C135 O128 1.266 . S
Co136 O139 1.970 . S
Co136 N153 1.989 . S
Co136 O161 1.967 . S
Co136 O168 1.920 . S
Co137 O140 1.966 . S
Co137 N146 2.022 . S
Co137 N154 1.993 . S
Co137 O162 1.941 . S
C138 O139 1.258 . S
C138 O140 1.263 . S
O139 Co136 1.970 . S
O139 C138 1.258 . S
O140 Co137 1.966 . S
O140 C138 1.263 . S
C141 O142 1.235 . S
C141 O168 1.289 . S
O142 C141 1.235 . S
C143 C145 1.400 . S
C143 N146 1.351 . S
C143 C148 1.501 . S
C144 C145 1.387 . S
C144 N147 1.341 . S
C145 C143 1.400 . S
C145 C144 1.387 . S
N146 Co137 2.022 . S
N146 C143 1.351 . S
N146 N147 1.365 . S
N147 C144 1.341 . S
N147 N146 1.365 . S
N147 H167 0.862 . S
C148 C143 1.501 . S
C148 H149 0.961 . S
C148 H150 0.961 . S
C148 H151 0.960 . S
H149 C148 0.961 . S
H150 C148 0.961 . S
H151 C148 0.960 . S
C152 N153 1.342 . S
C152 C156 1.401 . S
C152 C157 1.499 . S
N153 Co136 1.989 . S
N153 C152 1.342 . S
N153 N154 1.388 . S
N154 Co137 1.993 . S
N154 N153 1.388 . S
N154 C155 1.346 . S
C155 N154 1.346 . S
C155 C156 1.396 . S
C155 C165 1.510 . S
C156 C152 1.401 . S
C156 C155 1.396 . S
C157 C152 1.499 . S
C157 H158 0.959 . S
C157 H159 0.960 . S
C157 H160 0.961 . S
H158 C157 0.959 . S
H159 C157 0.960 . S
H160 C157 0.961 . S
O161 Co136 1.967 . S
O161 C169 1.258 . S
O162 Co137 1.941 . S
O162 C169 1.266 . S
H163 C165 0.959 . S
H164 C165 0.961 . S
C165 C155 1.510 . S
C165 H163 0.959 . S
C165 H164 0.961 . S
C165 H166 0.960 . S
H166 C165 0.960 . S
H167 N147 0.862 . S
O168 Co136 1.920 . S
O168 C141 1.289 . S
C169 O161 1.258 . S
C169 O162 1.266 . S
Co170 O173 1.970 . S
Co170 N187 1.989 . S
Co170 O195 1.967 . S
Co170 O202 1.920 . S
Co171 O174 1.966 . S
Co171 N180 2.022 . S
Co171 N188 1.993 . S
Co171 O196 1.941 . S
C172 O173 1.258 . S
C172 O174 1.263 . S
O173 Co170 1.970 . S
O173 C172 1.258 . S
O174 Co171 1.966 . S
O174 C172 1.263 . S
C175 O176 1.235 . S
C175 O202 1.289 . S
O176 C175 1.235 . S
C177 C179 1.400 . S
C177 N180 1.351 . S
C177 C182 1.501 . S
C178 C179 1.387 . S
C178 N181 1.341 . S
C179 C177 1.400 . S
C179 C178 1.387 . S
N180 Co171 2.022 . S
N180 C177 1.351 . S
N180 N181 1.365 . S
N181 C178 1.341 . S
N181 N180 1.365 . S
N181 H201 0.862 . S
C182 C177 1.501 . S
C182 H183 0.961 . S
C182 H184 0.961 . S
C182 H185 0.960 . S
H183 C182 0.961 . S
H184 C182 0.961 . S
H185 C182 0.960 . S
C186 N187 1.342 . S
C186 C190 1.401 . S
C186 C191 1.499 . S
N187 Co170 1.989 . S
N187 C186 1.342 . S
N187 N188 1.388 . S
N188 Co171 1.993 . S
N188 N187 1.388 . S
N188 C189 1.346 . S
C189 N188 1.346 . S
C189 C190 1.396 . S
C189 C199 1.510 . S
C190 C186 1.401 . S
C190 C189 1.396 . S
C191 C186 1.499 . S
C191 H192 0.959 . S
C191 H193 0.960 . S
C191 H194 0.961 . S
H192 C191 0.959 . S
H193 C191 0.960 . S
H194 C191 0.961 . S
O195 Co170 1.967 . S
O195 C203 1.258 . S
O196 Co171 1.941 . S
O196 C203 1.266 . S
H197 C199 0.959 . S
H198 C199 0.961 . S
C199 C189 1.510 . S
C199 H197 0.959 . S
C199 H198 0.961 . S
C199 H200 0.960 . S
H200 C199 0.960 . S
H201 N181 0.862 . S
O202 Co170 1.920 . S
O202 C175 1.289 . S
C203 O195 1.258 . S
C203 O196 1.266 . S
Co204 O207 1.970 . S
Co204 N221 1.989 . S
Co204 O229 1.967 . S
Co204 O236 1.920 . S
Co205 O208 1.966 . S
Co205 N214 2.022 . S
Co205 N222 1.993 . S
Co205 O230 1.941 . S
C206 O207 1.258 . S
C206 O208 1.263 . S
O207 Co204 1.970 . S
O207 C206 1.258 . S
O208 Co205 1.966 . S
O208 C206 1.263 . S
C209 O210 1.235 . S
C209 O236 1.289 . S
O210 C209 1.235 . S
C211 C213 1.400 . S
C211 N214 1.351 . S
C211 C216 1.501 . S
C212 C213 1.387 . S
C212 N215 1.341 . S
C213 C211 1.400 . S
C213 C212 1.387 . S
N214 Co205 2.022 . S
N214 C211 1.351 . S
N214 N215 1.365 . S
N215 C212 1.341 . S
N215 N214 1.365 . S
N215 H235 0.862 . S
C216 C211 1.501 . S
C216 H217 0.961 . S
C216 H218 0.961 . S
C216 H219 0.960 . S
H217 C216 0.961 . S
H218 C216 0.961 . S
H219 C216 0.960 . S
C220 N221 1.342 . S
C220 C224 1.401 . S
C220 C225 1.499 . S
N221 Co204 1.989 . S
N221 C220 1.342 . S
N221 N222 1.388 . S
N222 Co205 1.993 . S
N222 N221 1.388 . S
N222 C223 1.346 . S
C223 N222 1.346 . S
C223 C224 1.396 . S
C223 C233 1.510 . S
C224 C220 1.401 . S
C224 C223 1.396 . S
C225 C220 1.499 . S
C225 H226 0.959 . S
C225 H227 0.960 . S
C225 H228 0.961 . S
H226 C225 0.959 . S
H227 C225 0.960 . S
H228 C225 0.961 . S
O229 Co204 1.967 . S
O229 C237 1.258 . S
O230 Co205 1.941 . S
O230 C237 1.266 . S
H231 C233 0.959 . S
H232 C233 0.961 . S
C233 C223 1.510 . S
C233 H231 0.959 . S
C233 H232 0.961 . S
C233 H234 0.960 . S
H234 C233 0.960 . S
H235 N215 0.862 . S
O236 Co204 1.920 . S
O236 C209 1.289 . S
C237 O229 1.258 . S
C237 O230 1.266 . S
Co238 O241 1.970 . S
Co238 N255 1.989 . S
Co238 O263 1.967 . S
Co238 O270 1.920 . S
Co239 O242 1.966 . S
Co239 N248 2.022 . S
Co239 N256 1.993 . S
Co239 O264 1.941 . S
C240 O241 1.258 . S
C240 O242 1.263 . S
O241 Co238 1.970 . S
O241 C240 1.258 . S
O242 Co239 1.966 . S
O242 C240 1.263 . S
C243 O244 1.235 . S
C243 O270 1.289 . S
O244 C243 1.235 . S
C245 C247 1.400 . S
C245 N248 1.351 . S
C245 C250 1.501 . S
C246 C247 1.387 . S
C246 N249 1.341 . S
C247 C245 1.400 . S
C247 C246 1.387 . S
N248 Co239 2.022 . S
N248 C245 1.351 . S
N248 N249 1.365 . S
N249 C246 1.341 . S
N249 N248 1.365 . S
N249 H269 0.862 . S
C250 C245 1.501 . S
C250 H251 0.961 . S
C250 H252 0.961 . S
C250 H253 0.960 . S
H251 C250 0.961 . S
H252 C250 0.961 . S
H253 C250 0.960 . S
C254 N255 1.342 . S
C254 C258 1.401 . S
C254 C259 1.499 . S
N255 Co238 1.989 . S
N255 C254 1.342 . S
N255 N256 1.388 . S
N256 Co239 1.993 . S
N256 N255 1.388 . S
N256 C257 1.346 . S
C257 N256 1.346 . S
C257 C258 1.396 . S
C257 C267 1.510 . S
C258 C254 1.401 . S
C258 C257 1.396 . S
C259 C254 1.499 . S
C259 H260 0.959 . S
C259 H261 0.960 . S
C259 H262 0.961 . S
H260 C259 0.959 . S
H261 C259 0.960 . S
H262 C259 0.961 . S
O263 Co238 1.967 . S
O263 C271 1.258 . S
O264 Co239 1.941 . S
O264 C271 1.266 . S
H265 C267 0.959 . S
H266 C267 0.961 . S
C267 C257 1.510 . S
C267 H265 0.959 . S
C267 H266 0.961 . S
C267 H268 0.960 . S
H268 C267 0.960 . S
H269 N249 0.862 . S
O270 Co238 1.920 . S
O270 C243 1.289 . S
C271 O263 1.258 . S
C271 O264 1.266 . S
Co272 O275 1.970 . S
Co272 N289 1.989 . S
Co272 O297 1.967 . S
Co272 O304 1.920 . S
Co273 O276 1.966 . S
Co273 N282 2.022 . S
Co273 N290 1.993 . S
Co273 O298 1.941 . S
C274 O275 1.258 . S
C274 O276 1.263 . S
O275 Co272 1.970 . S
O275 C274 1.258 . S
O276 Co273 1.966 . S
O276 C274 1.263 . S
C277 O278 1.235 . S
C277 O304 1.289 . S
O278 C277 1.235 . S
C279 C281 1.400 . S
C279 N282 1.351 . S
C279 C284 1.501 . S
C280 C281 1.387 . S
C280 N283 1.341 . S
C281 C279 1.400 . S
C281 C280 1.387 . S
N282 Co273 2.022 . S
N282 C279 1.351 . S
N282 N283 1.365 . S
N283 C280 1.341 . S
N283 N282 1.365 . S
N283 H303 0.862 . S
C284 C279 1.501 . S
C284 H285 0.961 . S
C284 H286 0.961 . S
C284 H287 0.960 . S
H285 C284 0.961 . S
H286 C284 0.961 . S
H287 C284 0.960 . S
C288 N289 1.342 . S
C288 C292 1.401 . S
C288 C293 1.499 . S
N289 Co272 1.989 . S
N289 C288 1.342 . S
N289 N290 1.388 . S
N290 Co273 1.993 . S
N290 N289 1.388 . S
N290 C291 1.346 . S
C291 N290 1.346 . S
C291 C292 1.396 . S
C291 C301 1.510 . S
C292 C288 1.401 . S
C292 C291 1.396 . S
C293 C288 1.499 . S
C293 H294 0.959 . S
C293 H295 0.960 . S
C293 H296 0.961 . S
H294 C293 0.959 . S
H295 C293 0.960 . S
H296 C293 0.961 . S
O297 Co272 1.967 . S
O297 C305 1.258 . S
O298 Co273 1.941 . S
O298 C305 1.266 . S
H299 C301 0.959 . S
H300 C301 0.961 . S
C301 C291 1.510 . S
C301 H299 0.959 . S
C301 H300 0.961 . S
C301 H302 0.960 . S
H302 C301 0.960 . S
H303 N283 0.862 . S
O304 Co272 1.920 . S
O304 C277 1.289 . S
C305 O297 1.258 . S
C305 O298 1.266 . S
Co306 O309 1.970 . S
Co306 N323 1.989 . S
Co306 O331 1.967 . S
Co306 O338 1.920 . S
Co307 O310 1.966 . S
Co307 N316 2.022 . S
Co307 N324 1.993 . S
Co307 O332 1.941 . S
C308 O309 1.258 . S
C308 O310 1.263 . S
O309 Co306 1.970 . S
O309 C308 1.258 . S
O310 Co307 1.966 . S
O310 C308 1.263 . S
C311 O312 1.235 . S
C311 O338 1.289 . S
O312 C311 1.235 . S
C313 C315 1.400 . S
C313 N316 1.351 . S
C313 C318 1.501 . S
C314 C315 1.387 . S
C314 N317 1.341 . S
C315 C313 1.400 . S
C315 C314 1.387 . S
N316 Co307 2.022 . S
N316 C313 1.351 . S
N316 N317 1.365 . S
N317 C314 1.341 . S
N317 N316 1.365 . S
N317 H337 0.862 . S
C318 C313 1.501 . S
C318 H319 0.961 . S
C318 H320 0.961 . S
C318 H321 0.960 . S
H319 C318 0.961 . S
H320 C318 0.961 . S
H321 C318 0.960 . S
C322 N323 1.342 . S
C322 C326 1.401 . S
C322 C327 1.499 . S
N323 Co306 1.989 . S
N323 C322 1.342 . S
N323 N324 1.388 . S
N324 Co307 1.993 . S
N324 N323 1.388 . S
N324 C325 1.346 . S
C325 N324 1.346 . S
C325 C326 1.396 . S
C325 C335 1.510 . S
C326 C322 1.401 . S
C326 C325 1.396 . S
C327 C322 1.499 . S
C327 H328 0.959 . S
C327 H329 0.960 . S
C327 H330 0.961 . S
H328 C327 0.959 . S
H329 C327 0.960 . S
H330 C327 0.961 . S
O331 Co306 1.967 . S
O331 C339 1.258 . S
O332 Co307 1.941 . S
O332 C339 1.266 . S
H333 C335 0.959 . S
H334 C335 0.961 . S
C335 C325 1.510 . S
C335 H333 0.959 . S
C335 H334 0.961 . S
C335 H336 0.960 . S
H336 C335 0.960 . S
H337 N317 0.862 . S
O338 Co306 1.920 . S
O338 C311 1.289 . S
C339 O331 1.258 . S
C339 O332 1.266 . S
Co340 O343 1.970 . S
Co340 N357 1.989 . S
Co340 O365 1.967 . S
Co340 O372 1.920 . S
Co341 O344 1.966 . S
Co341 N350 2.022 . S
Co341 N358 1.993 . S
Co341 O366 1.941 . S
C342 O343 1.258 . S
C342 O344 1.263 . S
O343 Co340 1.970 . S
O343 C342 1.258 . S
O344 Co341 1.966 . S
O344 C342 1.263 . S
C345 O346 1.235 . S
C345 O372 1.289 . S
O346 C345 1.235 . S
C347 C349 1.400 . S
C347 N350 1.351 . S
C347 C352 1.501 . S
C348 C349 1.387 . S
C348 N351 1.341 . S
C349 C347 1.400 . S
C349 C348 1.387 . S
N350 Co341 2.022 . S
N350 C347 1.351 . S
N350 N351 1.365 . S
N351 C348 1.341 . S
N351 N350 1.365 . S
N351 H371 0.862 . S
C352 C347 1.501 . S
C352 H353 0.961 . S
C352 H354 0.961 . S
C352 H355 0.960 . S
H353 C352 0.961 . S
H354 C352 0.961 . S
H355 C352 0.960 . S
C356 N357 1.342 . S
C356 C360 1.401 . S
C356 C361 1.499 . S
N357 Co340 1.989 . S
N357 C356 1.342 . S
N357 N358 1.388 . S
N358 Co341 1.993 . S
N358 N357 1.388 . S
N358 C359 1.346 . S
C359 N358 1.346 . S
C359 C360 1.396 . S
C359 C369 1.510 . S
C360 C356 1.401 . S
C360 C359 1.396 . S
C361 C356 1.499 . S
C361 H362 0.959 . S
C361 H363 0.960 . S
C361 H364 0.961 . S
H362 C361 0.959 . S
H363 C361 0.960 . S
H364 C361 0.961 . S
O365 Co340 1.967 . S
O365 C373 1.258 . S
O366 Co341 1.941 . S
O366 C373 1.266 . S
H367 C369 0.959 . S
H368 C369 0.961 . S
C369 C359 1.510 . S
C369 H367 0.959 . S
C369 H368 0.961 . S
C369 H370 0.960 . S
H370 C369 0.960 . S
H371 N351 0.862 . S
O372 Co340 1.920 . S
O372 C345 1.289 . S
C373 O365 1.258 . S
C373 O366 1.266 . S
Co374 O377 1.970 . S
Co374 N391 1.989 . S
Co374 O399 1.967 . S
Co374 O406 1.920 . S
Co375 O378 1.966 . S
Co375 N384 2.022 . S
Co375 N392 1.993 . S
Co375 O400 1.941 . S
C376 O377 1.258 . S
C376 O378 1.263 . S
O377 Co374 1.970 . S
O377 C376 1.258 . S
O378 Co375 1.966 . S
O378 C376 1.263 . S
C379 O380 1.235 . S
C379 O406 1.289 . S
O380 C379 1.235 . S
C381 C383 1.400 . S
C381 N384 1.351 . S
C381 C386 1.501 . S
C382 C383 1.387 . S
C382 N385 1.341 . S
C383 C381 1.400 . S
C383 C382 1.387 . S
N384 Co375 2.022 . S
N384 C381 1.351 . S
N384 N385 1.365 . S
N385 C382 1.341 . S
N385 N384 1.365 . S
N385 H405 0.862 . S
C386 C381 1.501 . S
C386 H387 0.961 . S
C386 H388 0.961 . S
C386 H389 0.960 . S
H387 C386 0.961 . S
H388 C386 0.961 . S
H389 C386 0.960 . S
C390 N391 1.342 . S
C390 C394 1.401 . S
C390 C395 1.499 . S
N391 Co374 1.989 . S
N391 C390 1.342 . S
N391 N392 1.388 . S
N392 Co375 1.993 . S
N392 N391 1.388 . S
N392 C393 1.346 . S
C393 N392 1.346 . S
C393 C394 1.396 . S
C393 C403 1.510 . S
C394 C390 1.401 . S
C394 C393 1.396 . S
C395 C390 1.499 . S
C395 H396 0.959 . S
C395 H397 0.960 . S
C395 H398 0.961 . S
H396 C395 0.959 . S
H397 C395 0.960 . S
H398 C395 0.961 . S
O399 Co374 1.967 . S
O399 C407 1.258 . S
O400 Co375 1.941 . S
O400 C407 1.266 . S
H401 C403 0.959 . S
H402 C403 0.961 . S
C403 C393 1.510 . S
C403 H401 0.959 . S
C403 H402 0.961 . S
C403 H404 0.960 . S
H404 C403 0.960 . S
H405 N385 0.862 . S
O406 Co374 1.920 . S
O406 C379 1.289 . S
C407 O399 1.258 . S
C407 O400 1.266 . S
C408 C409 1.391 . S
C408 C410 1.394 . S
C408 H424 0.931 . S
C409 C408 1.391 . S
C409 C413 1.376 . S
C410 C408 1.394 . S
C410 C411 1.369 . S
C410 C414 1.531 . S
C411 C410 1.369 . S
C411 C412 1.410 . S
C411 C419 1.503 1_554 S
C412 C411 1.410 . S
C412 C413 1.392 . S
C412 C415 1.511 . S
C413 C409 1.376 . S
C413 C412 1.392 . S
C413 H425 0.929 . S
C414 C410 1.531 . S
C414 H426 0.960 . S
C414 H427 0.962 . S
C414 H428 0.960 . S
C415 C412 1.511 . S
C415 H429 0.961 . S
C415 H430 0.961 1_554 S
C415 H431 0.961 . S
C416 C417 1.370 . S
C416 C418 1.363 . S
C416 H432 0.931 . S
C417 C416 1.370 . S
C417 C421 1.408 . S
C418 C416 1.363 . S
C418 C419 1.370 . S
C418 C422 1.524 . S
C419 C411 1.503 1_556 S
C419 C418 1.370 . S
C419 C420 1.403 . S
C420 C419 1.403 . S
C420 C421 1.404 . S
C420 C423 1.539 1_556 S
C421 C417 1.408 . S
C421 C420 1.404 . S
C421 H433 0.930 . S
C422 C418 1.524 . S
C422 H434 0.956 . S
C422 H435 0.961 . S
C422 H436 0.961 . S
C423 C420 1.539 1_554 S
C423 H437 0.958 . S
C423 H438 0.961 . S
C423 H439 0.960 . S
H424 C408 0.931 . S
H425 C413 0.929 . S
H426 C414 0.960 . S
H427 C414 0.962 . S
H428 C414 0.960 . S
H429 C415 0.961 . S
H430 C415 0.961 1_556 S
H431 C415 0.961 . S
H432 C416 0.931 . S
H433 C421 0.930 . S
H434 C422 0.956 . S
H435 C422 0.961 . S
H436 C422 0.961 . S
H437 C423 0.958 . S
H438 C423 0.961 . S
H439 C423 0.960 . S
C440 C441 1.391 . S
C440 C442 1.394 . S
C440 H456 0.931 . S
C441 C440 1.391 . S
C441 C445 1.376 . S
C442 C440 1.394 . S
C442 C443 1.369 . S
C442 C446 1.531 . S
C443 C442 1.369 . S
C443 C444 1.410 . S
C443 C451 1.503 . S
C444 C443 1.410 . S
C444 C445 1.392 . S
C444 C447 1.511 . S
C445 C441 1.376 . S
C445 C444 1.392 . S
C445 H457 0.929 . S
C446 C442 1.531 . S
C446 H458 0.960 . S
C446 H459 0.962 . S
C446 H460 0.960 . S
C447 C444 1.511 . S
C447 H461 0.961 . S
C447 H462 0.961 . S
C447 H463 0.961 . S
C448 C449 1.370 . S
C448 C450 1.363 . S
C448 H464 0.931 . S
C449 C448 1.370 . S
C449 C453 1.408 . S
C450 C448 1.363 . S
C450 C451 1.370 . S
C450 C454 1.524 . S
C451 C443 1.503 . S
C451 C450 1.370 . S
C451 C452 1.403 . S
C452 C451 1.403 . S
C452 C453 1.404 . S
C452 C455 1.539 . S
C453 C449 1.408 . S
C453 C452 1.404 . S
C453 H465 0.930 . S
C454 C450 1.524 . S
C454 H466 0.956 . S
C454 H467 0.961 . S
C454 H468 0.961 . S
C455 C452 1.539 . S
C455 H469 0.958 . S
C455 H470 0.961 . S
C455 H471 0.960 . S
H456 C440 0.931 . S
H457 C445 0.929 . S
H458 C446 0.960 . S
H459 C446 0.962 . S
H460 C446 0.960 . S
H461 C447 0.961 . S
H462 C447 0.961 . S
H463 C447 0.961 . S
H464 C448 0.931 . S
H465 C453 0.930 . S
H466 C454 0.956 . S
H467 C454 0.961 . S
H468 C454 0.961 . S
H469 C455 0.958 . S
H470 C455 0.961 . S
H471 C455 0.960 . S
C472 C473 1.391 . S
C472 C474 1.394 . S
C472 H488 0.931 . S
C473 C472 1.391 . S
C473 C477 1.376 . S
C474 C472 1.394 . S
C474 C475 1.369 . S
C474 C478 1.531 1_554 S
C475 C474 1.369 . S
C475 C476 1.410 . S
C475 C483 1.503 1_554 S
C476 C475 1.410 . S
C476 C477 1.392 . S
C476 C479 1.511 . S
C477 C473 1.376 . S
C477 C476 1.392 . S
C477 H489 0.929 . S
C478 C474 1.531 1_556 S
C478 H490 0.960 . S
C478 H491 0.962 . S
C478 H492 0.960 . S
C479 C476 1.511 . S
C479 H493 0.961 . S
C479 H494 0.961 . S
C479 H495 0.961 . S
C480 C481 1.370 . S
C480 C482 1.363 . S
C480 H496 0.931 . S
C481 C480 1.370 . S
C481 C485 1.408 . S
C482 C480 1.363 . S
C482 C483 1.370 . S
C482 C486 1.524 . S
C483 C475 1.503 1_556 S
C483 C482 1.370 . S
C483 C484 1.403 . S
C484 C483 1.403 . S
C484 C485 1.404 . S
C484 C487 1.539 . S
C485 C481 1.408 . S
C485 C484 1.404 . S
C485 H497 0.930 . S
C486 C482 1.524 . S
C486 H498 0.956 . S
C486 H499 0.961 1_556 S
C486 H500 0.961 . S
C487 C484 1.539 . S
C487 H501 0.958 . S
C487 H502 0.961 . S
C487 H503 0.960 . S
H488 C472 0.931 . S
H489 C477 0.929 . S
H490 C478 0.960 . S
H491 C478 0.962 . S
H492 C478 0.960 . S
H493 C479 0.961 . S
H494 C479 0.961 . S
H495 C479 0.961 . S
H496 C480 0.931 . S
H497 C485 0.930 . S
H498 C486 0.956 . S
H499 C486 0.961 1_554 S
H500 C486 0.961 . S
H501 C487 0.958 . S
H502 C487 0.961 . S
H503 C487 0.960 . S
C504 C505 1.391 . S
C504 C506 1.394 . S
C504 H520 0.931 . S
C505 C504 1.391 . S
C505 C509 1.376 . S
C506 C504 1.394 . S
C506 C507 1.369 . S
C506 C510 1.531 . S
C507 C506 1.369 . S
C507 C508 1.410 . S
C507 C515 1.503 . S
C508 C507 1.410 . S
C508 C509 1.392 . S
C508 C511 1.511 . S
C509 C505 1.376 . S
C509 C508 1.392 . S
C509 H521 0.929 . S
C510 C506 1.531 . S
C510 H522 0.960 . S
C510 H523 0.962 . S
C510 H524 0.960 . S
C511 C508 1.511 . S
C511 H525 0.961 . S
C511 H526 0.961 . S
C511 H527 0.961 . S
C512 C513 1.370 . S
C512 C514 1.363 . S
C512 H528 0.931 . S
C513 C512 1.370 . S
C513 C517 1.408 . S
C514 C512 1.363 . S
C514 C515 1.370 . S
C514 C518 1.524 . S
C515 C507 1.503 . S
C515 C514 1.370 . S
C515 C516 1.403 . S
C516 C515 1.403 . S
C516 C517 1.404 . S
C516 C519 1.539 . S
C517 C513 1.408 . S
C517 C516 1.404 . S
C517 H529 0.930 . S
C518 C514 1.524 . S
C518 H530 0.956 . S
C518 H531 0.961 . S
C518 H532 0.961 . S
C519 C516 1.539 . S
C519 H533 0.958 . S
C519 H534 0.961 . S
C519 H535 0.960 . S
H520 C504 0.931 . S
H521 C509 0.929 . S
H522 C510 0.960 . S
H523 C510 0.962 . S
H524 C510 0.960 . S
H525 C511 0.961 . S
H526 C511 0.961 . S
H527 C511 0.961 . S
H528 C512 0.931 . S
H529 C517 0.930 . S
H530 C518 0.956 . S
H531 C518 0.961 . S
H532 C518 0.961 . S
H533 C519 0.958 . S
H534 C519 0.961 . S
H535 C519 0.960 . S
C536 C537 1.391 . S
C536 C538 1.394 . S
C536 H552 0.931 . S
C537 C536 1.391 . S
C537 C541 1.376 . S
C538 C536 1.394 . S
C538 C539 1.369 . S
C538 C542 1.531 . S
C539 C538 1.369 . S
C539 C540 1.410 . S
C539 C547 1.503 1_554 S
C540 C539 1.410 . S
C540 C541 1.392 . S
C540 C543 1.511 1_554 S
C541 C537 1.376 . S
C541 C540 1.392 . S
C541 H553 0.929 . S
C542 C538 1.531 . S
C542 H554 0.960 . S
C542 H555 0.962 . S
C542 H556 0.960 . S
C543 C540 1.511 1_556 S
C543 H557 0.961 . S
C543 H558 0.961 . S
C543 H559 0.961 . S
C544 C545 1.370 . S
C544 C546 1.363 . S
C544 H560 0.931 . S
C545 C544 1.370 . S
C545 C549 1.408 . S
C546 C544 1.363 . S
C546 C547 1.370 . S
C546 C550 1.524 . S
C547 C539 1.503 1_556 S
C547 C546 1.370 . S
C547 C548 1.403 . S
C548 C547 1.403 . S
C548 C549 1.404 . S
C548 C551 1.539 1_556 S
C549 C545 1.408 . S
C549 C548 1.404 . S
C549 H561 0.930 . S
C550 C546 1.524 . S
C550 H562 0.956 . S
C550 H563 0.961 . S
C550 H564 0.961 . S
C551 C548 1.539 1_554 S
C551 H565 0.958 . S
C551 H566 0.961 1_554 S
C551 H567 0.960 . S
H552 C536 0.931 . S
H553 C541 0.929 . S
H554 C542 0.960 . S
H555 C542 0.962 . S
H556 C542 0.960 . S
H557 C543 0.961 . S
H558 C543 0.961 . S
H559 C543 0.961 . S
H560 C544 0.931 . S
H561 C549 0.930 . S
H562 C550 0.956 . S
H563 C550 0.961 . S
H564 C550 0.961 . S
H565 C551 0.958 . S
H566 C551 0.961 1_556 S
H567 C551 0.960 . S
C568 C569 1.391 . S
C568 C570 1.394 . S
C568 H584 0.931 . S
C569 C568 1.391 . S
C569 C573 1.376 . S
C570 C568 1.394 . S
C570 C571 1.369 . S
C570 C574 1.531 . S
C571 C570 1.369 . S
C571 C572 1.410 . S
C571 C579 1.503 . S
C572 C571 1.410 . S
C572 C573 1.392 . S
C572 C575 1.511 . S
C573 C569 1.376 . S
C573 C572 1.392 . S
C573 H585 0.929 . S
C574 C570 1.531 . S
C574 H586 0.960 . S
C574 H587 0.962 . S
C574 H588 0.960 . S
C575 C572 1.511 . S
C575 H589 0.961 . S
C575 H590 0.961 . S
C575 H591 0.961 . S
C576 C577 1.370 . S
C576 C578 1.363 . S
C576 H592 0.931 . S
C577 C576 1.370 . S
C577 C581 1.408 . S
C578 C576 1.363 . S
C578 C579 1.370 . S
C578 C582 1.524 . S
C579 C571 1.503 . S
C579 C578 1.370 . S
C579 C580 1.403 . S
C580 C579 1.403 . S
C580 C581 1.404 . S
C580 C583 1.539 . S
C581 C577 1.408 . S
C581 C580 1.404 . S
C581 H593 0.930 . S
C582 C578 1.524 . S
C582 H594 0.956 . S
C582 H595 0.961 . S
C582 H596 0.961 . S
C583 C580 1.539 . S
C583 H597 0.958 . S
C583 H598 0.961 . S
C583 H599 0.960 . S
H584 C568 0.931 . S
H585 C573 0.929 . S
H586 C574 0.960 . S
H587 C574 0.962 . S
H588 C574 0.960 . S
H589 C575 0.961 . S
H590 C575 0.961 . S
H591 C575 0.961 . S
H592 C576 0.931 . S
H593 C581 0.930 . S
H594 C582 0.956 . S
H595 C582 0.961 . S
H596 C582 0.961 . S
H597 C583 0.958 . S
H598 C583 0.961 . S
H599 C583 0.960 . S
C600 C601 1.391 . S
C600 C602 1.394 . S
C600 H616 0.931 . S
C601 C600 1.391 . S
C601 C605 1.376 . S
C602 C600 1.394 . S
C602 C603 1.369 . S
C602 C606 1.531 1_554 S
C603 C602 1.369 . S
C603 C604 1.410 . S
C603 C611 1.503 1_554 S
C604 C603 1.410 . S
C604 C605 1.392 . S
C604 C607 1.511 . S
C605 C601 1.376 . S
C605 C604 1.392 . S
C605 H617 0.929 . S
C606 C602 1.531 1_556 S
C606 H618 0.960 . S
C606 H619 0.962 . S
C606 H620 0.960 . S
C607 C604 1.511 . S
C607 H621 0.961 . S
C607 H622 0.961 . S
C607 H623 0.961 . S
C608 C609 1.370 . S
C608 C610 1.363 . S
C608 H624 0.931 . S
C609 C608 1.370 . S
C609 C613 1.408 . S
C610 C608 1.363 . S
C610 C611 1.370 . S
C610 C614 1.524 1_556 S
C611 C603 1.503 1_556 S
C611 C610 1.370 . S
C611 C612 1.403 . S
C612 C611 1.403 . S
C612 C613 1.404 . S
C612 C615 1.539 . S
C613 C609 1.408 . S
C613 C612 1.404 . S
C613 H625 0.930 . S
C614 C610 1.524 1_554 S
C614 H626 0.956 . S
C614 H627 0.961 . S
C614 H628 0.961 . S
C615 C612 1.539 . S
C615 H629 0.958 . S
C615 H630 0.961 . S
C615 H631 0.960 . S
H616 C600 0.931 . S
H617 C605 0.929 . S
H618 C606 0.960 . S
H619 C606 0.962 . S
H620 C606 0.960 . S
H621 C607 0.961 . S
H622 C607 0.961 . S
H623 C607 0.961 . S
H624 C608 0.931 . S
H625 C613 0.930 . S
H626 C614 0.956 . S
H627 C614 0.961 . S
H628 C614 0.961 . S
H629 C615 0.958 . S
H630 C615 0.961 . S
H631 C615 0.960 . S
C632 C633 1.391 . S
C632 C634 1.394 . S
C632 H648 0.931 . S
C633 C632 1.391 . S
C633 C637 1.376 . S
C634 C632 1.394 . S
C634 C635 1.369 . S
C634 C638 1.531 . S
C635 C634 1.369 . S
C635 C636 1.410 . S
C635 C643 1.503 . S
C636 C635 1.410 . S
C636 C637 1.392 . S
C636 C639 1.511 . S
C637 C633 1.376 . S
C637 C636 1.392 . S
C637 H649 0.929 . S
C638 C634 1.531 . S
C638 H650 0.960 . S
C638 H651 0.962 . S
C638 H652 0.960 . S
C639 C636 1.511 . S
C639 H653 0.961 . S
C639 H654 0.961 . S
C639 H655 0.961 . S
C640 C641 1.370 . S
C640 C642 1.363 . S
C640 H656 0.931 . S
C641 C640 1.370 . S
C641 C645 1.408 . S
C642 C640 1.363 . S
C642 C643 1.370 . S
C642 C646 1.524 . S
C643 C635 1.503 . S
C643 C642 1.370 . S
C643 C644 1.403 . S
C644 C643 1.403 . S
C644 C645 1.404 . S
C644 C647 1.539 . S
C645 C641 1.408 . S
C645 C644 1.404 . S
C645 H657 0.930 . S
C646 C642 1.524 . S
C646 H658 0.956 . S
C646 H659 0.961 . S
C646 H660 0.961 . S
C647 C644 1.539 . S
C647 H661 0.958 . S
C647 H662 0.961 . S
C647 H663 0.960 . S
H648 C632 0.931 . S
H649 C637 0.929 . S
H650 C638 0.960 . S
H651 C638 0.962 . S
H652 C638 0.960 . S
H653 C639 0.961 . S
H654 C639 0.961 . S
H655 C639 0.961 . S
H656 C640 0.931 . S
H657 C645 0.930 . S
H658 C646 0.956 . S
H659 C646 0.961 . S
H660 C646 0.961 . S
H661 C647 0.958 . S
H662 C647 0.961 . S
H663 C647 0.960 . S
C664 C665 1.391 . S
C664 C666 1.394 . S
C664 H680 0.931 . S
C665 C664 1.391 . S
C665 C669 1.376 . S
C666 C664 1.394 . S
C666 C667 1.369 . S
C666 C670 1.531 1_554 S
C667 C666 1.369 . S
C667 C668 1.410 . S
C667 C675 1.503 1_554 S
C668 C667 1.410 . S
C668 C669 1.392 . S
C668 C671 1.511 . S
C669 C665 1.376 . S
C669 C668 1.392 . S
C669 H681 0.929 . S
C670 C666 1.531 1_556 S
C670 H682 0.960 . S
C670 H683 0.962 . S
C670 H684 0.960 . S
C671 C668 1.511 . S
C671 H685 0.961 . S
C671 H686 0.961 . S
C671 H687 0.961 . S
C672 C673 1.370 . S
C672 C674 1.363 . S
C672 H688 0.931 . S
C673 C672 1.370 . S
C673 C677 1.408 . S
C674 C672 1.363 . S
C674 C675 1.370 . S
C674 C678 1.524 . S
C675 C667 1.503 1_556 S
C675 C674 1.370 . S
C675 C676 1.403 . S
C676 C675 1.403 . S
C676 C677 1.404 . S
C676 C679 1.539 . S
C677 C673 1.408 . S
C677 C676 1.404 . S
C677 H689 0.930 . S
C678 C674 1.524 . S
C678 H690 0.956 . S
C678 H691 0.961 1_556 S
C678 H692 0.961 . S
C679 C676 1.539 . S
C679 H693 0.958 . S
C679 H694 0.961 . S
C679 H695 0.960 1_556 S
H680 C664 0.931 . S
H681 C669 0.929 . S
H682 C670 0.960 . S
H683 C670 0.962 . S
H684 C670 0.960 . S
H685 C671 0.961 . S
H686 C671 0.961 . S
H687 C671 0.961 . S
H688 C672 0.931 . S
H689 C677 0.930 . S
H690 C678 0.956 . S
H691 C678 0.961 1_554 S
H692 C678 0.961 . S
H693 C679 0.958 . S
H694 C679 0.961 . S
H695 C679 0.960 1_554 S
C696 C697 1.391 . S
C696 C698 1.394 . S
C696 H712 0.931 . S
C697 C696 1.391 . S
C697 C701 1.376 . S
C698 C696 1.394 . S
C698 C699 1.369 . S
C698 C702 1.531 . S
C699 C698 1.369 . S
C699 C700 1.410 . S
C699 C707 1.503 . S
C700 C699 1.410 . S
C700 C701 1.392 . S
C700 C703 1.511 . S
C701 C697 1.376 . S
C701 C700 1.392 . S
C701 H713 0.929 . S
C702 C698 1.531 . S
C702 H714 0.960 . S
C702 H715 0.962 . S
C702 H716 0.960 . S
C703 C700 1.511 . S
C703 H717 0.961 . S
C703 H718 0.961 . S
C703 H719 0.961 . S
C704 C705 1.370 . S
C704 C706 1.363 . S
C704 H720 0.931 . S
C705 C704 1.370 . S
C705 C709 1.408 . S
C706 C704 1.363 . S
C706 C707 1.370 . S
C706 C710 1.524 . S
C707 C699 1.503 . S
C707 C706 1.370 . S
C707 C708 1.403 . S
C708 C707 1.403 . S
C708 C709 1.404 . S
C708 C711 1.539 . S
C709 C705 1.408 . S
C709 C708 1.404 . S
C709 H721 0.930 . S
C710 C706 1.524 . S
C710 H722 0.956 . S
C710 H723 0.961 . S
C710 H724 0.961 . S
C711 C708 1.539 . S
C711 H725 0.958 . S
C711 H726 0.961 . S
C711 H727 0.960 . S
H712 C696 0.931 . S
H713 C701 0.929 . S
H714 C702 0.960 . S
H715 C702 0.962 . S
H716 C702 0.960 . S
H717 C703 0.961 . S
H718 C703 0.961 . S
H719 C703 0.961 . S
H720 C704 0.931 . S
H721 C709 0.930 . S
H722 C710 0.956 . S
H723 C710 0.961 . S
H724 C710 0.961 . S
H725 C711 0.958 . S
H726 C711 0.961 . S
H727 C711 0.960 . S
C728 C729 1.391 . S
C728 C730 1.394 . S
C728 H744 0.931 . S
C729 C728 1.391 . S
C729 C733 1.376 . S
C730 C728 1.394 . S
C730 C731 1.369 . S
C730 C734 1.531 1_554 S
C731 C730 1.369 . S
C731 C732 1.410 . S
C731 C739 1.503 1_554 S
C732 C731 1.410 . S
C732 C733 1.392 . S
C732 C735 1.511 . S
C733 C729 1.376 . S
C733 C732 1.392 . S
C733 H745 0.929 . S
C734 C730 1.531 1_556 S
C734 H746 0.960 . S
C734 H747 0.960 1_556 S
C734 H748 0.960 . S
C735 C732 1.511 . S
C735 H749 0.961 . S
C735 H750 0.961 . S
C735 H751 0.961 . S
C736 C737 1.370 . S
C736 C738 1.363 . S
C736 H752 0.931 . S
C737 C736 1.370 . S
C737 C741 1.408 . S
C738 C736 1.363 . S
C738 C739 1.370 . S
C738 C742 1.524 1_556 S
C739 C731 1.503 1_556 S
C739 C738 1.370 . S
C739 C740 1.403 . S
C740 C739 1.403 . S
C740 C741 1.404 . S
C740 C743 1.539 . S
C741 C737 1.408 . S
C741 C740 1.404 . S
C741 H753 0.930 . S
C742 C738 1.524 1_554 S
C742 H754 0.956 . S
C742 H755 0.961 . S
C742 H756 0.961 . S
C743 C740 1.539 . S
C743 H757 0.958 . S
C743 H758 0.961 . S
C743 H759 0.960 . S
H744 C728 0.931 . S
H745 C733 0.929 . S
H746 C734 0.960 . S
H747 C734 0.960 1_554 S
H748 C734 0.960 . S
H749 C735 0.961 . S
H750 C735 0.961 . S
H751 C735 0.961 . S
H752 C736 0.931 . S
H753 C741 0.930 . S
H754 C742 0.956 . S
H755 C742 0.961 . S
H756 C742 0.961 . S
H757 C743 0.958 . S
H758 C743 0.961 . S
H759 C743 0.960 . S
C760 C761 1.391 . S
C760 C762 1.394 . S
C760 H776 0.931 . S
C761 C760 1.391 . S
C761 C765 1.376 . S
C762 C760 1.394 . S
C762 C763 1.369 . S
C762 C766 1.531 . S
C763 C762 1.369 . S
C763 C764 1.410 . S
C763 C771 1.503 . S
C764 C763 1.410 . S
C764 C765 1.392 . S
C764 C767 1.511 . S
C765 C761 1.376 . S
C765 C764 1.392 . S
C765 H777 0.929 . S
C766 C762 1.531 . S
C766 H778 0.960 . S
C766 H779 0.962 . S
C766 H780 0.960 . S
C767 C764 1.511 . S
C767 H781 0.961 . S
C767 H782 0.961 . S
C767 H783 0.961 . S
C768 C769 1.370 . S
C768 C770 1.363 . S
C768 H784 0.931 . S
C769 C768 1.370 . S
C769 C773 1.408 . S
C770 C768 1.363 . S
C770 C771 1.370 . S
C770 C774 1.524 . S
C771 C763 1.503 . S
C771 C770 1.370 . S
C771 C772 1.403 . S
C772 C771 1.403 . S
C772 C773 1.404 . S
C772 C775 1.539 . S
C773 C769 1.408 . S
C773 C772 1.404 . S
C773 H785 0.930 . S
C774 C770 1.524 . S
C774 H786 0.956 . S
C774 H787 0.961 . S
C774 H788 0.961 . S
C775 C772 1.539 . S
C775 H789 0.958 . S
C775 H790 0.961 . S
C775 H791 0.960 . S
H776 C760 0.931 . S
H777 C765 0.929 . S
H778 C766 0.960 . S
H779 C766 0.962 . S
H780 C766 0.960 . S
H781 C767 0.961 . S
H782 C767 0.961 . S
H783 C767 0.961 . S
H784 C768 0.931 . S
H785 C773 0.930 . S
H786 C774 0.956 . S
H787 C774 0.961 . S
H788 C774 0.961 . S
H789 C775 0.958 . S
H790 C775 0.961 . S
H791 C775 0.960 . S
C792 C793 1.391 . S
C792 C794 1.394 . S
C792 H808 0.931 . S
C793 C792 1.391 . S
C793 C797 1.376 . S
C794 C792 1.394 . S
C794 C795 1.369 . S
C794 C798 1.531 1_556 S
C795 C794 1.369 . S
C795 C796 1.410 . S
C795 C803 1.503 1_556 S
C796 C795 1.410 . S
C796 C797 1.392 . S
C796 C799 1.511 . S
C797 C793 1.376 . S
C797 C796 1.392 . S
C797 H809 0.929 . S
C798 C794 1.531 1_554 S
C798 H810 0.960 . S
C798 H811 0.962 . S
C798 H812 0.960 . S
C799 C796 1.511 . S
C799 H813 0.961 . S
C799 H814 0.961 . S
C799 H815 0.961 . S
C800 C801 1.370 . S
C800 C802 1.363 . S
C800 H816 0.931 . S
C801 C800 1.370 . S
C801 C805 1.408 . S
C802 C800 1.363 . S
C802 C803 1.370 . S
C802 C806 1.524 . S
C803 C795 1.503 1_554 S
C803 C802 1.370 . S
C803 C804 1.403 . S
C804 C803 1.403 . S
C804 C805 1.404 . S
C804 C807 1.539 1_554 S
C805 C801 1.408 . S
C805 C804 1.404 . S
C805 H817 0.930 . S
C806 C802 1.524 . S
C806 H818 0.956 . S
C806 H819 0.961 . S
C806 H820 0.961 . S
C807 C804 1.539 1_556 S
C807 H821 0.958 . S
C807 H822 0.961 . S
C807 H823 0.960 . S
H808 C792 0.931 . S
H809 C797 0.929 . S
H810 C798 0.960 . S
H811 C798 0.962 . S
H812 C798 0.960 . S
H813 C799 0.961 . S
H814 C799 0.961 . S
H815 C799 0.961 . S
H816 C800 0.931 . S
H817 C805 0.930 . S
H818 C806 0.956 . S
H819 C806 0.961 . S
H820 C806 0.961 . S
H821 C807 0.958 . S
H822 C807 0.961 . S
H823 C807 0.960 . S
C824 C825 1.391 . S
C824 C826 1.394 . S
C824 H840 0.931 . S
C825 C824 1.391 . S
C825 C829 1.376 . S
C826 C824 1.394 . S
C826 C827 1.369 . S
C826 C830 1.531 . S
C827 C826 1.369 . S
C827 C828 1.410 . S
C827 C835 1.503 . S
C828 C827 1.410 . S
C828 C829 1.392 . S
C828 C831 1.511 . S
C829 C825 1.376 . S
C829 C828 1.392 . S
C829 H841 0.929 . S
C830 C826 1.531 . S
C830 H842 0.960 . S
C830 H843 0.962 . S
C830 H844 0.960 . S
C831 C828 1.511 . S
C831 H845 0.961 . S
C831 H846 0.961 . S
C831 H847 0.961 . S
C832 C833 1.370 . S
C832 C834 1.363 . S
C832 H848 0.931 . S
C833 C832 1.370 . S
C833 C837 1.408 . S
C834 C832 1.363 . S
C834 C835 1.370 . S
C834 C838 1.524 . S
C835 C827 1.503 . S
C835 C834 1.370 . S
C835 C836 1.403 . S
C836 C835 1.403 . S
C836 C837 1.404 . S
C836 C839 1.539 . S
C837 C833 1.408 . S
C837 C836 1.404 . S
C837 H849 0.930 . S
C838 C834 1.524 . S
C838 H850 0.956 . S
C838 H851 0.961 . S
C838 H852 0.961 . S
C839 C836 1.539 . S
C839 H853 0.958 . S
C839 H854 0.961 . S
C839 H855 0.960 . S
H840 C824 0.931 . S
H841 C829 0.929 . S
H842 C830 0.960 . S
H843 C830 0.962 . S
H844 C830 0.960 . S
H845 C831 0.961 . S
H846 C831 0.961 . S
H847 C831 0.961 . S
H848 C832 0.931 . S
H849 C837 0.930 . S
H850 C838 0.956 . S
H851 C838 0.961 . S
H852 C838 0.961 . S
H853 C839 0.958 . S
H854 C839 0.961 . S
H855 C839 0.960 . S
C856 C857 1.391 . S
C856 C858 1.394 . S
C856 H872 0.931 . S
C857 C856 1.391 . S
C857 C861 1.376 . S
C858 C856 1.394 . S
C858 C859 1.369 . S
C858 C862 1.531 . S
C859 C858 1.369 . S
C859 C860 1.410 1_554 S
C859 C867 1.503 1_554 S
C860 C859 1.410 1_556 S
C860 C861 1.392 1_556 S
C860 C863 1.511 . S
C861 C857 1.376 . S
C861 C860 1.392 1_554 S
C861 H873 0.929 . S
C862 C858 1.531 . S
C862 H874 0.960 . S
C862 H875 0.962 . S
C862 H876 0.960 . S
C863 C860 1.511 . S
C863 H877 0.961 . S
C863 H878 0.961 . S
C863 H879 0.961 . S
C864 C865 1.370 . S
C864 C866 1.363 . S
C864 H880 0.931 . S
C865 C864 1.370 . S
C865 C869 1.408 . S
C866 C864 1.363 . S
C866 C867 1.370 . S
C866 C870 1.524 1_556 S
C867 C859 1.503 1_556 S
C867 C866 1.370 . S
C867 C868 1.403 . S
C868 C867 1.403 . S
C868 C869 1.404 . S
C868 C871 1.539 . S
C869 C865 1.408 . S
C869 C868 1.404 . S
C869 H881 0.930 . S
C870 C866 1.524 1_554 S
C870 H882 0.956 . S
C870 H883 0.961 . S
C870 H884 0.961 . S
C871 C868 1.539 . S
C871 H885 0.958 . S
C871 H886 0.961 . S
C871 H887 0.960 . S
H872 C856 0.931 . S
H873 C861 0.929 . S
H874 C862 0.960 . S
H875 C862 0.962 . S
H876 C862 0.960 . S
H877 C863 0.961 . S
H878 C863 0.961 . S
H879 C863 0.961 . S
H880 C864 0.931 . S
H881 C869 0.930 . S
H882 C870 0.956 . S
H883 C870 0.961 . S
H884 C870 0.961 . S
H885 C871 0.958 . S
H886 C871 0.961 . S
H887 C871 0.960 . S
C888 C889 1.391 . S
C888 C890 1.394 . S
C888 H904 0.931 . S
C889 C888 1.391 . S
C889 C893 1.376 . S
C890 C888 1.394 . S
C890 C891 1.369 . S
C890 C894 1.531 . S
C891 C890 1.369 . S
C891 C892 1.410 . S
C891 C899 1.503 . S
C892 C891 1.410 . S
C892 C893 1.392 . S
C892 C895 1.511 . S
C893 C889 1.376 . S
C893 C892 1.392 . S
C893 H905 0.929 . S
C894 C890 1.531 . S
C894 H906 0.960 . S
C894 H907 0.962 . S
C894 H908 0.960 . S
C895 C892 1.511 . S
C895 H909 0.961 . S
C895 H910 0.961 . S
C895 H911 0.961 . S
C896 C897 1.370 . S
C896 C898 1.363 . S
C896 H912 0.931 . S
C897 C896 1.370 . S
C897 C901 1.408 . S
C898 C896 1.363 . S
C898 C899 1.370 . S
C898 C902 1.524 . S
C899 C891 1.503 . S
C899 C898 1.370 . S
C899 C900 1.403 . S
C900 C899 1.403 . S
C900 C901 1.404 . S
C900 C903 1.539 . S
C901 C897 1.408 . S
C901 C900 1.404 . S
C901 H913 0.930 . S
C902 C898 1.524 . S
C902 H914 0.956 . S
C902 H915 0.961 . S
C902 H916 0.961 . S
C903 C900 1.539 . S
C903 H917 0.958 . S
C903 H918 0.961 . S
C903 H919 0.960 . S
H904 C888 0.931 . S
H905 C893 0.929 . S
H906 C894 0.960 . S
H907 C894 0.962 . S
H908 C894 0.960 . S
H909 C895 0.961 . S
H910 C895 0.961 . S
H911 C895 0.961 . S
H912 C896 0.931 . S
H913 C901 0.930 . S
H914 C902 0.956 . S
H915 C902 0.961 . S
H916 C902 0.961 . S
H917 C903 0.958 . S
H918 C903 0.961 . S
H919 C903 0.960 . S
C920 C921 1.391 . S
C920 C922 1.394 . S
C920 H936 0.931 . S
C921 C920 1.391 . S
C921 C925 1.376 . S
C922 C920 1.394 . S
C922 C923 1.369 . S
C922 C926 1.531 . S
C923 C922 1.369 . S
C923 C924 1.410 . S
C923 C931 1.503 1_554 S
C924 C923 1.410 . S
C924 C925 1.392 . S
C924 C927 1.511 . S
C925 C921 1.376 . S
C925 C924 1.392 . S
C925 H937 0.929 . S
C926 C922 1.531 . S
C926 H938 0.960 . S
C926 H939 0.962 1_554 S
C926 H940 0.960 . S
C927 C924 1.511 . S
C927 H941 0.961 . S
C927 H942 0.961 1_554 S
C927 H943 0.961 . S
C928 C929 1.370 . S
C928 C930 1.363 . S
C928 H944 0.931 . S
C929 C928 1.370 . S
C929 C933 1.408 . S
C930 C928 1.363 . S
C930 C931 1.370 . S
C930 C934 1.524 . S
C931 C923 1.503 1_556 S
C931 C930 1.370 . S
C931 C932 1.403 1_556 S
C932 C931 1.403 1_554 S
C932 C933 1.404 1_554 S
C932 C935 1.539 . S
C933 C929 1.408 . S
C933 C932 1.404 1_556 S
C933 H945 0.930 . S
C934 C930 1.524 . S
C934 H946 0.956 . S
C934 H947 0.961 . S
C934 H948 0.961 . S
C935 C932 1.539 . S
C935 H949 0.958 . S
C935 H950 0.961 . S
C935 H951 0.960 . S
H936 C920 0.931 . S
H937 C925 0.929 . S
H938 C926 0.960 . S
H939 C926 0.962 1_556 S
H940 C926 0.960 . S
H941 C927 0.961 . S
H942 C927 0.961 1_556 S
H943 C927 0.961 . S
H944 C928 0.931 . S
H945 C933 0.930 . S
H946 C934 0.956 . S
H947 C934 0.961 . S
H948 C934 0.961 . S
H949 C935 0.958 . S
H950 C935 0.961 . S
H951 C935 0.960 . S
C952 C953 1.391 . S
C952 C954 1.394 . S
C952 H968 0.931 . S
C953 C952 1.391 . S
C953 C957 1.376 . S
C954 C952 1.394 . S
C954 C955 1.369 . S
C954 C958 1.531 . S
C955 C954 1.369 . S
C955 C956 1.410 . S
C955 C963 1.503 . S
C956 C955 1.410 . S
C956 C957 1.392 . S
C956 C959 1.511 . S
C957 C953 1.376 . S
C957 C956 1.392 . S
C957 H969 0.929 . S
C958 C954 1.531 . S
C958 H970 0.960 . S
C958 H971 0.962 . S
C958 H972 0.960 . S
C959 C956 1.511 . S
C959 H973 0.961 . S
C959 H974 0.961 . S
C959 H975 0.961 . S
C960 C961 1.370 . S
C960 C962 1.363 . S
C960 H976 0.931 . S
C961 C960 1.370 . S
C961 C965 1.408 . S
C962 C960 1.363 . S
C962 C963 1.370 . S
C962 C966 1.524 . S
C963 C955 1.503 . S
C963 C962 1.370 . S
C963 C964 1.403 . S
C964 C963 1.403 . S
C964 C965 1.404 . S
C964 C967 1.539 . S
C965 C961 1.408 . S
C965 C964 1.404 . S
C965 H977 0.930 . S
C966 C962 1.524 . S
C966 H978 0.956 . S
C966 H979 0.961 . S
C966 H980 0.961 . S
C967 C964 1.539 . S
C967 H981 0.958 . S
C967 H982 0.961 . S
C967 H983 0.960 . S
H968 C952 0.931 . S
H969 C957 0.929 . S
H970 C958 0.960 . S
H971 C958 0.962 . S
H972 C958 0.960 . S
H973 C959 0.961 . S
H974 C959 0.961 . S
H975 C959 0.961 . S
H976 C960 0.931 . S
H977 C965 0.930 . S
H978 C966 0.956 . S
H979 C966 0.961 . S
H980 C966 0.961 . S
H981 C967 0.958 . S
H982 C967 0.961 . S
H983 C967 0.960 . S
C984 C985 1.391 . S
C984 C986 1.394 . S
C984 H1000 0.931 . S
C985 C984 1.391 . S
C985 C989 1.376 . S
C986 C984 1.394 . S
C986 C987 1.369 . S
C986 C990 1.531 . S
C987 C986 1.369 . S
C987 C988 1.410 1_556 S
C987 C995 1.503 1_556 S
C988 C987 1.410 1_554 S
C988 C989 1.392 1_554 S
C988 C991 1.511 . S
C989 C985 1.376 . S
C989 C988 1.392 1_556 S
C989 H1001 0.929 . S
C990 C986 1.531 . S
C990 H1002 0.960 . S
C990 H1003 0.962 . S
C990 H1004 0.960 . S
C991 C988 1.511 . S
C991 H1005 0.961 . S
C991 H1006 0.961 . S
C991 H1007 0.961 . S
C992 C993 1.370 . S
C992 C994 1.363 . S
C992 H1008 0.931 . S
C993 C992 1.370 . S
C993 C997 1.408 . S
C994 C992 1.363 . S
C994 C995 1.370 . S
C994 C998 1.517 1_554 S
C995 C987 1.503 1_554 S
C995 C994 1.370 . S
C995 C996 1.403 . S
C996 C995 1.403 . S
C996 C997 1.404 . S
C996 C999 1.539 . S
C997 C993 1.408 . S
C997 C996 1.404 . S
C997 H1009 0.930 . S
C998 C994 1.517 1_556 S
C998 H1010 0.970 . S
C998 H1011 0.958 1_556 S
C998 H1012 0.956 1_556 S
C999 C996 1.539 . S
C999 H1013 0.958 . S
C999 H1014 0.961 . S
C999 H1015 0.960 . S
H1000 C984 0.931 . S
H1001 C989 0.929 . S
H1002 C990 0.960 . S
H1003 C990 0.962 . S
H1004 C990 0.960 . S
H1005 C991 0.961 . S
H1006 C991 0.961 . S
H1007 C991 0.961 . S
H1008 C992 0.931 . S
H1009 C997 0.930 . S
H1010 C998 0.970 . S
H1011 C998 0.958 1_554 S
H1012 C998 0.956 1_554 S
H1013 C999 0.958 . S
H1014 C999 0.961 . S
H1015 C999 0.960 . S
C1016 C1017 1.391 . S
C1016 C1018 1.394 . S
C1016 H1032 0.931 . S
C1017 C1016 1.391 . S
C1017 C1021 1.376 . S
C1018 C1016 1.394 . S
C1018 C1019 1.369 . S
C1018 C1022 1.531 . S
C1019 C1018 1.369 . S
C1019 C1020 1.410 . S
C1019 C1027 1.503 . S
C1020 C1019 1.410 . S
C1020 C1021 1.392 . S
C1020 C1023 1.511 . S
C1021 C1017 1.376 . S
C1021 C1020 1.392 . S
C1021 H1033 0.929 . S
C1022 C1018 1.531 . S
C1022 H1034 0.960 . S
C1022 H1035 0.962 . S
C1022 H1036 0.960 . S
C1023 C1020 1.511 . S
C1023 H1037 0.961 . S
C1023 H1038 0.961 . S
C1023 H1039 0.961 . S
C1024 C1025 1.370 . S
C1024 C1026 1.363 . S
C1024 H1040 0.931 . S
C1025 C1024 1.370 . S
C1025 C1029 1.408 . S
C1026 C1024 1.363 . S
C1026 C1027 1.370 . S
C1026 C1030 1.524 . S
C1027 C1019 1.503 . S
C1027 C1026 1.370 . S
C1027 C1028 1.403 . S
C1028 C1027 1.403 . S
C1028 C1029 1.404 . S
C1028 C1031 1.539 . S
C1029 C1025 1.408 . S
C1029 C1028 1.404 . S
C1029 H1041 0.930 . S
C1030 C1026 1.524 . S
C1030 H1042 0.956 . S
C1030 H1043 0.961 . S
C1030 H1044 0.961 . S
C1031 C1028 1.539 . S
C1031 H1045 0.958 . S
C1031 H1046 0.961 . S
C1031 H1047 0.960 . S
H1032 C1016 0.931 . S
H1033 C1021 0.929 . S
H1034 C1022 0.960 . S
H1035 C1022 0.962 . S
H1036 C1022 0.960 . S
H1037 C1023 0.961 . S
H1038 C1023 0.961 . S
H1039 C1023 0.961 . S
H1040 C1024 0.931 . S
H1041 C1029 0.930 . S
H1042 C1030 0.956 . S
H1043 C1030 0.961 . S
H1044 C1030 0.961 . S
H1045 C1031 0.958 . S
H1046 C1031 0.961 . S
H1047 C1031 0.960 . S
C1048 C1049 1.391 . S
C1048 C1050 1.394 . S
C1048 H1064 0.931 . S
C1049 C1048 1.391 . S
C1049 C1053 1.376 . S
C1050 C1048 1.394 . S
C1050 C1051 1.369 . S
C1050 C1054 1.531 1_554 S
C1051 C1050 1.369 . S
C1051 C1052 1.410 . S
C1051 C1059 1.503 1_554 S
C1052 C1051 1.410 . S
C1052 C1053 1.392 . S
C1052 C1055 1.511 . S
C1053 C1049 1.376 . S
C1053 C1052 1.392 . S
C1053 H1065 0.929 . S
C1054 C1050 1.531 1_556 S
C1054 H1066 0.960 . S
C1054 H1067 0.962 1_556 S
C1054 H1068 0.960 . S
C1055 C1052 1.511 . S
C1055 H1069 0.961 . S
C1055 H1070 0.961 . S
C1055 H1071 0.961 1_554 S
C1056 C1057 1.370 . S
C1056 C1058 1.363 . S
C1056 H1072 0.931 . S
C1057 C1056 1.370 . S
C1057 C1061 1.408 . S
C1058 C1056 1.363 . S
C1058 C1059 1.370 . S
C1058 C1062 1.524 1_556 S
C1059 C1051 1.503 1_556 S
C1059 C1058 1.370 . S
C1059 C1060 1.403 . S
C1060 C1059 1.403 . S
C1060 C1061 1.404 . S
C1060 C1063 1.539 . S
C1061 C1057 1.408 . S
C1061 C1060 1.404 . S
C1061 H1073 0.930 . S
C1062 C1058 1.524 1_554 S
C1062 H1074 0.956 . S
C1062 H1075 0.961 . S
C1062 H1076 0.961 . S
C1063 C1060 1.539 . S
C1063 H1077 0.958 . S
C1063 H1078 0.961 . S
C1063 H1079 0.960 . S
H1064 C1048 0.931 . S
H1065 C1053 0.929 . S
H1066 C1054 0.960 . S
H1067 C1054 0.962 1_554 S
H1068 C1054 0.960 . S
H1069 C1055 0.961 . S
H1070 C1055 0.961 . S
H1071 C1055 0.961 1_556 S
H1072 C1056 0.931 . S
H1073 C1061 0.930 . S
H1074 C1062 0.956 . S
H1075 C1062 0.961 . S
H1076 C1062 0.961 . S
H1077 C1063 0.958 . S
H1078 C1063 0.961 . S
H1079 C1063 0.960 . S
C1080 C1081 1.391 . S
C1080 C1082 1.394 . S
C1080 H1096 0.931 . S
C1081 C1080 1.391 . S
C1081 C1085 1.376 . S
C1082 C1080 1.394 . S
C1082 C1083 1.369 . S
C1082 C1086 1.531 . S
C1083 C1082 1.369 . S
C1083 C1084 1.410 . S
C1083 C1091 1.503 . S
C1084 C1083 1.410 . S
C1084 C1085 1.392 . S
C1084 C1087 1.511 . S
C1085 C1081 1.376 . S
C1085 C1084 1.392 . S
C1085 H1097 0.929 . S
C1086 C1082 1.531 . S
C1086 H1098 0.960 . S
C1086 H1099 0.962 . S
C1086 H1100 0.960 . S
C1087 C1084 1.511 . S
C1087 H1101 0.961 . S
C1087 H1102 0.961 . S
C1087 H1103 0.961 . S
C1088 C1089 1.370 . S
C1088 C1090 1.363 . S
C1088 H1104 0.931 . S
C1089 C1088 1.370 . S
C1089 C1093 1.408 . S
C1090 C1088 1.363 . S
C1090 C1091 1.370 . S
C1090 C1094 1.524 . S
C1091 C1083 1.503 . S
C1091 C1090 1.370 . S
C1091 C1092 1.403 . S
C1092 C1091 1.403 . S
C1092 C1093 1.404 . S
C1092 C1095 1.539 . S
C1093 C1089 1.408 . S
C1093 C1092 1.404 . S
C1093 H1105 0.930 . S
C1094 C1090 1.524 . S
C1094 H1106 0.956 . S
C1094 H1107 0.961 . S
C1094 H1108 0.961 . S
C1095 C1092 1.539 . S
C1095 H1109 0.958 . S
C1095 H1110 0.961 . S
C1095 H1111 0.960 . S
H1096 C1080 0.931 . S
H1097 C1085 0.929 . S
H1098 C1086 0.960 . S
H1099 C1086 0.962 . S
H1100 C1086 0.960 . S
H1101 C1087 0.961 . S
H1102 C1087 0.961 . S
H1103 C1087 0.961 . S
H1104 C1088 0.931 . S
H1105 C1093 0.930 . S
H1106 C1094 0.956 . S
H1107 C1094 0.961 . S
H1108 C1094 0.961 . S
H1109 C1095 0.958 . S
H1110 C1095 0.961 . S
H1111 C1095 0.960 . S
C1112 C1113 1.391 . S
C1112 C1114 1.394 . S
C1112 H1128 0.931 . S
C1113 C1112 1.391 . S
C1113 C1117 1.376 . S
C1114 C1112 1.394 . S
C1114 C1115 1.369 . S
C1114 C1118 1.531 . S
C1115 C1114 1.369 . S
C1115 C1116 1.410 . S
C1115 C1123 1.503 1_554 S
C1116 C1115 1.410 . S
C1116 C1117 1.392 . S
C1116 C1119 1.511 . S
C1117 C1113 1.376 . S
C1117 C1116 1.392 . S
C1117 H1129 0.929 . S
C1118 C1114 1.531 . S
C1118 H1130 0.960 . S
C1118 H1131 0.962 . S
C1118 H1132 0.960 . S
C1119 C1116 1.511 . S
C1119 H1133 0.961 . S
C1119 H1134 0.961 1_554 S
C1119 H1135 0.961 . S
C1120 C1121 1.370 . S
C1120 C1122 1.363 . S
C1120 H1136 0.931 . S
C1121 C1120 1.370 . S
C1121 C1125 1.408 . S
C1122 C1120 1.363 . S
C1122 C1123 1.370 . S
C1122 C1126 1.524 . S
C1123 C1115 1.503 1_556 S
C1123 C1122 1.370 . S
C1123 C1124 1.403 1_556 S
C1124 C1123 1.403 1_554 S
C1124 C1125 1.404 1_554 S
C1124 C1127 1.539 . S
C1125 C1121 1.408 . S
C1125 C1124 1.404 1_556 S
C1125 H1137 0.930 . S
C1126 C1122 1.524 . S
C1126 H1138 0.956 . S
C1126 H1139 0.961 . S
C1126 H1140 0.961 . S
C1127 C1124 1.539 . S
C1127 H1141 0.958 . S
C1127 H1142 0.961 . S
C1127 H1143 0.960 . S
H1128 C1112 0.931 . S
H1129 C1117 0.929 . S
H1130 C1118 0.960 . S
H1131 C1118 0.962 . S
H1132 C1118 0.960 . S
H1133 C1119 0.961 . S
H1134 C1119 0.961 1_556 S
H1135 C1119 0.961 . S
H1136 C1120 0.931 . S
H1137 C1125 0.930 . S
H1138 C1126 0.956 . S
H1139 C1126 0.961 . S
H1140 C1126 0.961 . S
H1141 C1127 0.958 . S
H1142 C1127 0.961 . S
H1143 C1127 0.960 . S
C1144 C1145 1.391 . S
C1144 C1146 1.394 . S
C1144 H1160 0.931 . S
C1145 C1144 1.391 . S
C1145 C1149 1.376 . S
C1146 C1144 1.394 . S
C1146 C1147 1.369 . S
C1146 C1150 1.531 . S
C1147 C1146 1.369 . S
C1147 C1148 1.410 . S
C1147 C1155 1.503 . S
C1148 C1147 1.410 . S
C1148 C1149 1.392 . S
C1148 C1151 1.511 . S
C1149 C1145 1.376 . S
C1149 C1148 1.392 . S
C1149 H1161 0.929 . S
C1150 C1146 1.531 . S
C1150 H1162 0.960 . S
C1150 H1163 0.962 . S
C1150 H1164 0.960 . S
C1151 C1148 1.511 . S
C1151 H1165 0.961 . S
C1151 H1166 0.961 . S
C1151 H1167 0.961 . S
C1152 C1153 1.370 . S
C1152 C1154 1.363 . S
C1152 H1168 0.931 . S
C1153 C1152 1.370 . S
C1153 C1157 1.408 . S
C1154 C1152 1.363 . S
C1154 C1155 1.370 . S
C1154 C1158 1.524 . S
C1155 C1147 1.503 . S
C1155 C1154 1.370 . S
C1155 C1156 1.403 . S
C1156 C1155 1.403 . S
C1156 C1157 1.404 . S
C1156 C1159 1.539 . S
C1157 C1153 1.408 . S
C1157 C1156 1.404 . S
C1157 H1169 0.930 . S
C1158 C1154 1.524 . S
C1158 H1170 0.956 . S
C1158 H1171 0.961 . S
C1158 H1172 0.961 . S
C1159 C1156 1.539 . S
C1159 H1173 0.958 . S
C1159 H1174 0.961 . S
C1159 H1175 0.960 . S
H1160 C1144 0.931 . S
H1161 C1149 0.929 . S
H1162 C1150 0.960 . S
H1163 C1150 0.962 . S
H1164 C1150 0.960 . S
H1165 C1151 0.961 . S
H1166 C1151 0.961 . S
H1167 C1151 0.961 . S
H1168 C1152 0.931 . S
H1169 C1157 0.930 . S
H1170 C1158 0.956 . S
H1171 C1158 0.961 . S
H1172 C1158 0.961 . S
H1173 C1159 0.958 . S
H1174 C1159 0.961 . S
H1175 C1159 0.960 . S
C1176 C1177 1.391 . S
C1176 C1178 1.394 . S
C1176 H1192 0.931 . S
C1177 C1176 1.391 . S
C1177 C1181 1.376 . S
C1178 C1176 1.394 . S
C1178 C1179 1.369 . S
C1178 C1182 1.531 . S
C1179 C1178 1.369 . S
C1179 C1180 1.410 . S
C1179 C1187 1.503 . S
C1180 C1179 1.410 . S
C1180 C1181 1.392 . S
C1180 C1183 1.511 . S
C1181 C1177 1.376 . S
C1181 C1180 1.392 . S
C1181 H1193 0.929 . S
C1182 C1178 1.531 . S
C1182 H1194 0.960 . S
C1182 H1195 0.962 . S
C1182 H1196 0.960 . S
C1183 C1180 1.511 . S
C1183 H1197 0.961 . S
C1183 H1198 0.961 . S
C1183 H1199 0.961 . S
C1184 C1185 1.370 . S
C1184 C1186 1.363 . S
C1184 H1200 0.931 . S
C1185 C1184 1.370 . S
C1185 C1189 1.408 . S
C1186 C1184 1.363 . S
C1186 C1187 1.370 . S
C1186 C1190 1.524 . S
C1187 C1179 1.503 . S
C1187 C1186 1.370 . S
C1187 C1188 1.403 . S
C1188 C1187 1.403 . S
C1188 C1189 1.404 . S
C1188 C1191 1.539 . S
C1189 C1185 1.408 . S
C1189 C1188 1.404 . S
C1189 H1201 0.930 . S
C1190 C1186 1.524 . S
C1190 H1202 0.956 . S
C1190 H1203 0.961 . S
C1190 H1204 0.961 . S
C1191 C1188 1.539 . S
C1191 H1205 0.958 . S
C1191 H1206 0.961 . S
C1191 H1207 0.960 . S
H1192 C1176 0.931 . S
H1193 C1181 0.929 . S
H1194 C1182 0.960 . S
H1195 C1182 0.962 . S
H1196 C1182 0.960 . S
H1197 C1183 0.961 . S
H1198 C1183 0.961 . S
H1199 C1183 0.961 . S
H1200 C1184 0.931 . S
H1201 C1189 0.930 . S
H1202 C1190 0.956 . S
H1203 C1190 0.961 . S
H1204 C1190 0.961 . S
H1205 C1191 0.958 . S
H1206 C1191 0.961 . S
H1207 C1191 0.960 . S
C1208 C1209 1.391 . S
C1208 C1210 1.394 . S
C1208 H1224 0.931 . S
C1209 C1208 1.391 . S
C1209 C1213 1.376 . S
C1210 C1208 1.394 . S
C1210 C1211 1.369 . S
C1210 C1214 1.531 . S
C1211 C1210 1.369 . S
C1211 C1212 1.410 . S
C1211 C1219 1.503 1_455 S
C1212 C1211 1.410 . S
C1212 C1213 1.392 . S
C1212 C1215 1.511 . S
C1213 C1209 1.376 . S
C1213 C1212 1.392 . S
C1213 H1225 0.929 . S
C1214 C1210 1.531 . S
C1214 H1226 0.960 1_455 S
C1214 H1227 0.962 . S
C1214 H1228 0.960 . S
C1215 C1212 1.511 . S
C1215 H1229 0.961 . S
C1215 H1230 0.939 1_455 S
C1215 H1231 0.961 . S
C1216 C1217 1.370 . S
C1216 C1218 1.363 . S
C1216 H1232 0.931 . S
C1217 C1216 1.370 . S
C1217 C1221 1.408 . S
C1218 C1216 1.363 . S
C1218 C1219 1.370 . S
C1218 C1222 1.524 . S
C1219 C1211 1.503 1_655 S
C1219 C1218 1.370 . S
C1219 C1220 1.403 . S
C1220 C1219 1.403 . S
C1220 C1221 1.404 . S
C1220 C1223 1.539 . S
C1221 C1217 1.408 . S
C1221 C1220 1.404 . S
C1221 H1233 0.930 . S
C1222 C1218 1.524 . S
C1222 H1234 0.956 . S
C1222 H1235 0.961 1_655 S
C1222 H1236 0.961 . S
C1223 C1220 1.539 . S
C1223 H1237 0.958 . S
C1223 H1238 0.961 . S
C1223 H1239 0.964 1_655 S
H1224 C1208 0.931 . S
H1225 C1213 0.929 . S
H1226 C1214 0.960 1_655 S
H1227 C1214 0.962 . S
H1228 C1214 0.960 . S
H1229 C1215 0.961 . S
H1230 C1215 0.939 1_655 S
H1231 C1215 0.961 . S
H1232 C1216 0.931 . S
H1233 C1221 0.930 . S
H1234 C1222 0.956 . S
H1235 C1222 0.961 1_455 S
H1236 C1222 0.961 . S
H1237 C1223 0.958 . S
H1238 C1223 0.961 . S
H1239 C1223 0.964 1_455 S
C1240 C1241 1.391 . S
C1240 C1242 1.394 . S
C1240 H1256 0.931 . S
C1241 C1240 1.391 . S
C1241 C1245 1.376 . S
C1242 C1240 1.394 . S
C1242 C1243 1.369 . S
C1242 C1246 1.531 . S
C1243 C1242 1.369 . S
C1243 C1244 1.410 . S
C1243 C1251 1.503 1_545 S
C1244 C1243 1.410 . S
C1244 C1245 1.392 . S
C1244 C1247 1.511 . S
C1245 C1241 1.376 . S
C1245 C1244 1.392 . S
C1245 H1257 0.929 . S
C1246 C1242 1.531 . S
C1246 H1258 0.960 1_545 S
C1246 H1259 0.962 . S
C1246 H1260 0.960 . S
C1247 C1244 1.511 . S
C1247 H1261 0.961 . S
C1247 H1262 0.961 1_545 S
C1247 H1263 0.961 . S
C1248 C1249 1.370 . S
C1248 C1250 1.363 . S
C1248 H1264 0.931 . S
C1249 C1248 1.370 . S
C1249 C1253 1.408 . S
C1250 C1248 1.363 . S
C1250 C1251 1.370 . S
C1250 C1254 1.524 . S
C1251 C1243 1.503 1_565 S
C1251 C1250 1.370 . S
C1251 C1252 1.403 . S
C1252 C1251 1.403 . S
C1252 C1253 1.404 . S
C1252 C1255 1.539 . S
C1253 C1249 1.408 . S
C1253 C1252 1.404 . S
C1253 H1265 0.930 . S
C1254 C1250 1.524 . S
C1254 H1266 0.956 . S
C1254 H1267 0.961 1_565 S
C1254 H1268 0.961 . S
C1255 C1252 1.539 . S
C1255 H1269 0.958 . S
C1255 H1270 0.961 . S
C1255 H1271 0.960 1_565 S
H1256 C1240 0.931 . S
H1257 C1245 0.929 . S
H1258 C1246 0.960 1_565 S
H1259 C1246 0.962 . S
H1260 C1246 0.960 . S
H1261 C1247 0.961 . S
H1262 C1247 0.961 1_565 S
H1263 C1247 0.961 . S
H1264 C1248 0.931 . S
H1265 C1253 0.930 . S
H1266 C1254 0.956 . S
H1267 C1254 0.961 1_545 S
H1268 C1254 0.961 . S
H1269 C1255 0.958 . S
H1270 C1255 0.961 . S
H1271 C1255 0.960 1_545 S
C1272 C1273 1.391 . S
C1272 C1274 1.394 . S
C1272 H1288 0.931 . S
C1273 C1272 1.391 . S
C1273 C1277 1.376 . S
C1274 C1272 1.394 . S
C1274 C1275 1.369 . S
C1274 C1278 1.531 . S
C1275 C1274 1.369 . S
C1275 C1276 1.410 . S
C1275 C1283 1.503 . S
C1276 C1275 1.410 . S
C1276 C1277 1.392 . S
C1276 C1279 1.511 . S
C1277 C1273 1.376 . S
C1277 C1276 1.392 . S
C1277 H1289 0.929 . S
C1278 C1274 1.531 . S
C1278 H1290 0.960 . S
C1278 H1291 0.962 . S
C1278 H1292 0.960 . S
C1279 C1276 1.511 . S
C1279 H1293 0.961 . S
C1279 H1294 0.961 . S
C1279 H1295 0.961 . S
C1280 C1281 1.370 . S
C1280 C1282 1.363 . S
C1280 H1296 0.931 . S
C1281 C1280 1.370 . S
C1281 C1285 1.408 . S
C1282 C1280 1.363 . S
C1282 C1283 1.370 . S
C1282 C1286 1.524 . S
C1283 C1275 1.503 . S
C1283 C1282 1.370 . S
C1283 C1284 1.403 . S
C1284 C1283 1.403 . S
C1284 C1285 1.404 . S
C1284 C1287 1.539 . S
C1285 C1281 1.408 . S
C1285 C1284 1.404 . S
C1285 H1297 0.930 . S
C1286 C1282 1.524 . S
C1286 H1298 0.956 . S
C1286 H1299 0.961 . S
C1286 H1300 0.961 . S
C1287 C1284 1.539 . S
C1287 H1301 0.958 . S
C1287 H1302 0.961 . S
C1287 H1303 0.960 . S
H1288 C1272 0.931 . S
H1289 C1277 0.929 . S
H1290 C1278 0.960 . S
H1291 C1278 0.962 . S
H1292 C1278 0.960 . S
H1293 C1279 0.961 . S
H1294 C1279 0.961 . S
H1295 C1279 0.961 . S
H1296 C1280 0.931 . S
H1297 C1285 0.930 . S
H1298 C1286 0.956 . S
H1299 C1286 0.961 . S
H1300 C1286 0.961 . S
H1301 C1287 0.958 . S
H1302 C1287 0.961 . S
H1303 C1287 0.960 . S
C1304 C1305 1.391 . S
C1304 C1306 1.394 . S
C1304 H1320 0.931 . S
C1305 C1304 1.391 . S
C1305 C1309 1.376 . S
C1306 C1304 1.394 . S
C1306 C1307 1.369 . S
C1306 C1310 1.531 . S
C1307 C1306 1.369 . S
C1307 C1308 1.410 . S
C1307 C1315 1.503 1_455 S
C1308 C1307 1.410 . S
C1308 C1309 1.392 . S
C1308 C1311 1.511 . S
C1309 C1305 1.376 . S
C1309 C1308 1.392 . S
C1309 H1321 0.929 . S
C1310 C1306 1.531 . S
C1310 H1322 0.960 1_455 S
C1310 H1323 0.962 . S
C1310 H1324 0.960 . S
C1311 C1308 1.511 . S
C1311 H1325 0.961 . S
C1311 H1326 0.918 1_455 S
C1311 H1327 0.961 . S
C1312 C1313 1.370 . S
C1312 C1314 1.363 . S
C1312 H1328 0.931 . S
C1313 C1312 1.370 . S
C1313 C1317 1.408 . S
C1314 C1312 1.363 . S
C1314 C1315 1.370 . S
C1314 C1318 1.524 . S
C1315 C1307 1.503 1_655 S
C1315 C1314 1.370 . S
C1315 C1316 1.403 . S
C1316 C1315 1.403 . S
C1316 C1317 1.404 . S
C1316 C1319 1.539 . S
C1317 C1313 1.408 . S
C1317 C1316 1.404 . S
C1317 H1329 0.930 . S
C1318 C1314 1.524 . S
C1318 H1330 0.956 . S
C1318 H1331 0.961 1_655 S
C1318 H1332 0.961 . S
C1319 C1316 1.539 . S
C1319 H1333 0.958 . S
C1319 H1334 0.961 . S
C1319 H1335 0.950 1_655 S
H1320 C1304 0.931 . S
H1321 C1309 0.929 . S
H1322 C1310 0.960 1_655 S
H1323 C1310 0.962 . S
H1324 C1310 0.960 . S
H1325 C1311 0.961 . S
H1326 C1311 0.918 1_655 S
H1327 C1311 0.961 . S
H1328 C1312 0.931 . S
H1329 C1317 0.930 . S
H1330 C1318 0.956 . S
H1331 C1318 0.961 1_455 S
H1332 C1318 0.961 . S
H1333 C1319 0.958 . S
H1334 C1319 0.961 . S
H1335 C1319 0.950 1_455 S
C1336 C1337 1.391 . S
C1336 C1338 1.394 . S
C1336 H1352 0.931 . S
C1337 C1336 1.391 . S
C1337 C1341 1.376 . S
C1338 C1336 1.394 . S
C1338 C1339 1.369 . S
C1338 C1342 1.531 . S
C1339 C1338 1.369 . S
C1339 C1340 1.410 . S
C1339 C1347 1.503 1_565 S
C1340 C1339 1.410 . S
C1340 C1341 1.392 . S
C1340 C1343 1.511 . S
C1341 C1337 1.376 . S
C1341 C1340 1.392 . S
C1341 H1353 0.929 . S
C1342 C1338 1.531 . S
C1342 H1354 0.960 1_565 S
C1342 H1355 0.962 . S
C1342 H1356 0.960 . S
C1343 C1340 1.511 . S
C1343 H1357 0.961 . S
C1343 H1358 0.961 1_565 S
C1343 H1359 0.961 . S
C1344 C1345 1.370 . S
C1344 C1346 1.363 . S
C1344 H1360 0.931 . S
C1345 C1344 1.370 . S
C1345 C1349 1.408 . S
C1346 C1344 1.363 . S
C1346 C1347 1.370 . S
C1346 C1350 1.524 . S
C1347 C1339 1.503 1_545 S
C1347 C1346 1.370 . S
C1347 C1348 1.403 . S
C1348 C1347 1.403 . S
C1348 C1349 1.404 . S
C1348 C1351 1.539 . S
C1349 C1345 1.408 . S
C1349 C1348 1.404 . S
C1349 H1361 0.930 . S
C1350 C1346 1.524 . S
C1350 H1362 0.956 . S
C1350 H1363 0.963 . S
C1350 H1364 0.961 . S
C1351 C1348 1.539 . S
C1351 H1365 0.958 . S
C1351 H1366 0.961 . S
C1351 H1367 0.960 1_545 S
H1352 C1336 0.931 . S
H1353 C1341 0.929 . S
H1354 C1342 0.960 1_545 S
H1355 C1342 0.962 . S
H1356 C1342 0.960 . S
H1357 C1343 0.961 . S
H1358 C1343 0.961 1_545 S
H1359 C1343 0.961 . S
H1360 C1344 0.931 . S
H1361 C1349 0.930 . S
H1362 C1350 0.956 . S
H1363 C1350 0.963 . S
H1364 C1350 0.961 . S
H1365 C1351 0.958 . S
H1366 C1351 0.961 . S
H1367 C1351 0.960 1_565 S
C409 C2 2.947 . S
C417 C206 2.955 . S
C441 C36 2.947 . S
C449 C240 2.955 . S
C473 C70 2.949 . S
C481 C274 2.954 . S
C505 C308 2.948 . S
C513 C104 2.955 . S
C537 C138 2.948 . S
C545 C342 2.955 . S
C569 C376 2.949 . S
C577 C172 2.954 . S
C601 C311 1.132 . S
C609 C107 1.106 . S
C633 C141 1.123 . S
C641 C345 1.100 . S
C665 C379 1.130 . S
C673 C175 1.116 . S
C697 C209 1.135 . S
C705 C5 1.112 . S
C729 C243 1.125 . S
C737 C39 1.102 . S
C761 C73 1.127 . S
C769 C277 1.116 . S
C793 C349 0.726 . S
C801 C9 0.761 . S
C825 C43 0.729 . S
C833 C383 0.766 . S
C857 C77 0.798 . S
C865 C213 0.765 . S
C889 C111 0.797 . S
C897 C247 0.761 . S
C921 C145 0.740 . S
C929 C281 0.773 . S
C953 C179 0.785 . S
C961 C315 0.752 . S
C985 C122 2.259 . S
C993 C258 2.259 . S
C1017 C156 2.259 . S
C1025 C292 2.259 . S
C1049 C326 2.250 . S
C1057 C190 2.255 . S
C1081 C20 2.246 . S
C1089 C360 2.255 . S
C1113 C394 2.252 . S
C1121 C54 2.257 . S
C1145 C88 2.258 . S
C1153 C224 2.260 . S
C1177 C33 0.760 . S
C1185 C339 0.747 . S
C1209 C373 0.708 . S
C1217 C67 0.724 . S
C1241 C407 0.725 . S
C1249 C101 0.734 . S
C1273 C237 0.748 . S
C1281 C135 0.738 . S
C1305 C169 0.708 . S
C1313 C271 0.725 . S
C1337 C305 0.740 . S
C1345 C203 0.741 . S
