# Generated by pormake.
# Topology rkf, (6)-cn, num edge types: 1
# Building blocks:
#     Node 0, Type 0, BuildingBlock: HISSIN_clean_sbu_0, # of connection points: 6
#     Node 1, Type 0, BuildingBlock: HISSIN_clean_sbu_0, # of connection points: 6
#     Node 2, Type 0, BuildingBlock: HISSIN_clean_sbu_0, # of connection points: 6
#     Node 3, Type 0, BuildingBlock: HISSIN_clean_sbu_0, # of connection points: 6
#     Node 4, Type 0, BuildingBlock: HISSIN_clean_sbu_0, # of connection points: 6
#     Node 5, Type 0, BuildingBlock: HISSIN_clean_sbu_0, # of connection points: 6
#     Edge 6, Type (0, 0), BuildingBlock: XIVTED_clean_linker_0, # of connection points: 2
#     Edge 7, Type (0, 0), BuildingBlock: XIVTED_clean_linker_0, # of connection points: 2
#     Edge 8, Type (0, 0), BuildingBlock: XIVTED_clean_linker_0, # of connection points: 2
#     Edge 9, Type (0, 0), BuildingBlock: XIVTED_clean_linker_0, # of connection points: 2
#     Edge 10, Type (0, 0), BuildingBlock: XIVTED_clean_linker_0, # of connection points: 2
#     Edge 11, Type (0, 0), BuildingBlock: XIVTED_clean_linker_0, # of connection points: 2
#     Edge 12, Type (0, 0), BuildingBlock: XIVTED_clean_linker_0, # of connection points: 2
#     Edge 13, Type (0, 0), BuildingBlock: XIVTED_clean_linker_0, # of connection points: 2
#     Edge 14, Type (0, 0), BuildingBlock: XIVTED_clean_linker_0, # of connection points: 2
#     Edge 15, Type (0, 0), BuildingBlock: XIVTED_clean_linker_0, # of connection points: 2
#     Edge 16, Type (0, 0), BuildingBlock: XIVTED_clean_linker_0, # of connection points: 2
#     Edge 17, Type (0, 0), BuildingBlock: XIVTED_clean_linker_0, # of connection points: 2
#     Edge 18, Type (0, 0), BuildingBlock: XIVTED_clean_linker_0, # of connection points: 2
#     Edge 19, Type (0, 0), BuildingBlock: XIVTED_clean_linker_0, # of connection points: 2
#     Edge 20, Type (0, 0), BuildingBlock: XIVTED_clean_linker_0, # of connection points: 2
#     Edge 21, Type (0, 0), BuildingBlock: XIVTED_clean_linker_0, # of connection points: 2
#     Edge 22, Type (0, 0), BuildingBlock: XIVTED_clean_linker_0, # of connection points: 2
#     Edge 23, Type (0, 0), BuildingBlock: XIVTED_clean_linker_0, # of connection points: 2
# Relax obj value: 0.706
# Max RMSD: 0.256
# Mean RMSD: 0.256
data_MOF--net-rkf--node1-HISSIN_clean_sbu_0--edge1-XIVTED_clean_linker_0
_symmetry_space_group_name_H-M    P1
_symmetry_Int_Tables_number       1
_symmetry_cell_setting            triclinic
loop_
_symmetry_equiv_pos_as_xyz
'x, y, z'
_cell_length_a     24.838207
_cell_length_b     24.78586
_cell_length_c     45.312272
_cell_angle_alpha  90.689045
_cell_angle_beta   90.694016
_cell_angle_gamma 119.68775
loop_
_atom_site_label
_atom_site_type_symbol
_atom_site_fract_x
_atom_site_fract_y
_atom_site_fract_z
_atom_type_partial_charge
Eu0 Eu 0.33667 0.14811 0.17154 0.0
Eu1 Eu 0.40758 0.29347 0.15101 0.0
C2 C 0.48604 0.22591 0.17404 0.0
C3 C 0.27764 0.98347 0.20142 0.0
C4 C 0.29174 -0.00588 0.23172 0.0
C5 C 0.26579 0.88056 0.20562 0.0
C6 C 0.29112 0.94753 0.249 0.0
C7 C 0.26605 0.92701 0.18841 0.0
C8 C 0.27675 0.88965 0.23625 0.0
C9 C 0.27377 0.02968 0.18287 0.0
O10 O 0.40021 0.24388 1.10623 0.0
O11 O 0.33958 0.14275 1.12055 0.0
C12 C 0.3674 0.18359 1.09952 0.0
O13 O 0.27428 0.18816 0.16544 0.0
O14 O 0.49282 0.37994 0.14356 0.0
O15 O 0.40523 0.37903 0.14257 0.0
O16 O 0.31535 0.24714 1.12638 0.0
C17 C 0.26653 0.20371 0.13906 0.0
O18 O 0.35472 0.19858 0.21638 0.0
O19 O 0.37487 0.29345 0.19906 0.0
O20 O 0.48562 0.2731 0.1612 0.0
O21 O 0.26374 0.07131 0.19564 0.0
O22 O 0.31459 0.05287 0.16221 0.0
O23 O 0.43518 0.1761 0.18164 0.0
C24 C 0.48263 0.44671 1.11055 0.0
C25 C 0.49152 0.50714 1.11023 0.0
C26 C 0.50449 0.45277 1.05836 0.0
C27 C 0.50581 0.53995 1.08389 0.0
C28 C 0.48984 0.41998 1.08454 0.0
C29 C 0.51174 0.51276 1.05761 0.0
C30 C 0.46456 0.41118 1.13781 0.0
C31 C 0.36181 0.25454 0.22129 0.0
H32 H 0.30153 0.03765 0.2422 0.0
H33 H 0.2553 0.8369 0.19506 0.0
H34 H 0.29883 0.95589 0.27259 0.0
H35 H 0.25582 0.9183 0.16495 0.0
H36 H 0.48622 0.52842 1.13019 0.0
H37 H 0.5072 0.42983 1.03839 0.0
H38 H 0.51097 0.58598 1.08395 0.0
H39 H 0.48276 0.37318 1.08433 0.0
Eu40 Eu 0.2622 0.31432 0.5033 0.0
Eu41 Eu 0.24494 0.43059 0.48589 0.0
C42 C 0.37768 0.45416 0.51012 0.0
C43 C 0.32096 0.2063 0.52855 0.0
C44 C 0.33226 0.16147 0.51543 0.0
C45 C 0.40244 0.22955 0.56488 0.0
C46 C 0.37795 0.15015 0.52716 0.0
C47 C 0.35728 0.24124 0.55296 0.0
C48 C 0.41279 0.18323 0.55241 0.0
C49 C 0.27223 0.21696 0.51609 0.0
O50 O 0.28435 0.41106 0.44264 0.0
O51 O 0.2724 0.31564 0.4534 0.0
C52 C 0.28609 0.36011 0.43433 0.0
O53 O 0.16153 0.28368 0.49339 0.0
O54 O 0.28234 0.5264 0.47198 0.0
O55 O 0.18538 0.47197 0.48301 0.0
O56 O 0.17593 0.35134 0.45766 0.0
C57 C 0.14397 0.29577 0.46811 0.0
O58 O 0.25034 0.34987 0.54811 0.0
O59 O 0.19622 0.39583 0.5313 0.0
O60 O 0.33757 0.47406 0.50975 0.0
O61 O 0.24798 0.24083 0.53364 0.0
O62 O 0.28324 0.24185 0.49024 0.0
O63 O 0.36019 0.39535 0.50508 0.0
C64 C 0.21137 0.54007 0.44256 0.0
C65 C 0.15623 0.49892 0.42726 0.0
C66 C 0.24419 0.60679 0.39985 0.0
C67 C 0.14619 0.51051 0.39827 0.0
C68 C 0.2541 0.59532 0.42902 0.0
C69 C 0.19114 0.56331 0.38382 0.0
C70 C 0.22798 0.52253 0.47088 0.0
C71 C 0.212 0.37108 0.55337 0.0
H72 H 0.30526 0.13475 0.49626 0.0
H73 H 0.42736 0.25521 0.58464 0.0
H74 H 0.38518 0.11476 0.51675 0.0
H75 H 0.35001 0.27678 0.56321 0.0
H76 H 0.12223 0.45593 0.43702 0.0
H77 H 0.27923 0.64831 0.38945 0.0
H78 H 0.10511 0.47563 0.38655 0.0
H79 H 0.29674 0.62803 0.44046 0.0
Eu80 Eu 0.05691 0.27708 0.83456 0.0
Eu81 Eu 0.92199 0.25765 0.81629 0.0
C82 C 0.03069 0.39191 0.83878 0.0
C83 C 0.22729 0.34037 0.85276 0.0
C84 C 0.23916 0.40146 0.8493 0.0
C85 C 0.32989 0.37972 0.87426 0.0
C86 C 0.2954 0.4515 0.8594 0.0
C87 C 0.27375 0.32985 0.86413 0.0
C88 C 0.34028 0.44097 0.87326 0.0
C89 C 0.16431 0.28797 0.84878 0.0
O90 O 0.97742 0.29371 0.77249 0.0
O91 O 0.06684 0.29246 0.78486 0.0
C92 C 0.03218 0.30031 0.76497 0.0
O93 O 0.98635 0.17582 0.82709 0.0
O94 O 0.8598 0.28788 0.79769 0.0
O95 O 0.8221 0.19841 0.81856 0.0
O96 O 0.93308 0.18741 0.7898 0.0
C97 C 0.95724 0.15647 0.80155 0.0
O98 O 0.01088 0.26191 0.87923 0.0
O99 O 0.91025 0.21329 0.86274 0.0
O100 O 0.97113 0.3517 0.8387 0.0
O101 O 0.12491 0.28638 0.86789 0.0
O102 O 0.14112 0.27603 0.82205 0.0
O103 O 0.07204 0.37461 0.83392 0.0
C104 C 0.76914 0.20468 0.77644 0.0
C105 C 0.76556 0.15145 0.76328 0.0
C106 C 0.70413 0.20771 0.73671 0.0
C107 C 0.7326 0.12725 0.73688 0.0
C108 C 0.73693 0.23175 0.76342 0.0
C109 C 0.70299 0.15608 0.72283 0.0
C110 C 0.81025 0.23456 0.80228 0.0
C111 C 0.95148 0.22737 0.88463 0.0
H112 H 0.20355 0.41024 0.84047 0.0
H113 H 0.36283 0.36955 0.88512 0.0
H114 H 0.3022 0.49805 0.85798 0.0
H115 H 0.2651 0.28288 0.867 0.0
H116 H 0.79042 0.1299 0.77269 0.0
H117 H 0.68154 0.23068 0.72642 0.0
H118 H 0.73384 0.08826 0.72654 0.0
H119 H 0.73913 0.27284 0.77329 0.0
Eu120 Eu 0.92794 0.09098 0.16637 0.0
Eu121 Eu 0.78654 0.98368 0.15647 0.0
C122 C 0.81774 0.11522 0.18035 0.0
C123 C 0.07558 0.24584 0.17898 0.0
C124 C 0.13234 0.27671 0.19441 0.0
C125 C 0.06997 0.34086 0.17951 0.0
C126 C 0.15638 0.3385 0.20363 0.0
C127 C 0.04578 0.27886 0.17045 0.0
C128 C 0.1238 0.37035 0.19758 0.0
C129 C 0.0427 0.17783 0.17707 0.0
O130 O 0.80969 0.04096 1.11299 0.0
O131 O 0.91574 0.09899 1.117 0.0
C132 C 0.8643 0.07895 1.10109 0.0
O133 O 0.92416 -0.00025 0.15596 0.0
O134 O 0.69055 0.96268 0.15262 0.0
O135 O 0.71151 0.88769 0.15113 0.0
O136 O 0.84103 0.96086 1.12485 0.0
C137 C 0.89373 0.9655 1.13273 0.0
O138 O 0.89757 0.04795 0.21189 0.0
O139 O 0.81836 0.95201 0.19816 0.0
O140 O 0.78996 0.05676 0.18741 0.0
O141 O 0.0016 0.15096 0.19733 0.0
O142 O 0.02228 0.15181 0.15113 0.0
O143 O 0.87016 0.13863 0.16637 0.0
C144 C 0.64207 0.88689 1.11472 0.0
C145 C 0.64248 0.83731 1.09958 0.0
C146 C 0.63962 0.93183 1.06772 0.0
C147 C 0.64863 0.83909 1.06898 0.0
C148 C 0.63318 0.92991 1.0983 0.0
C149 C 0.65395 0.89019 1.05345 0.0
C150 C 0.67071 0.90487 0.14467 0.0
C151 C 0.85984 0.98932 0.21833 0.0
H152 H 0.15567 0.25169 0.20133 0.0
H153 H 0.0443 0.36431 0.17404 0.0
H154 H 0.19753 0.35917 0.21772 0.0
H155 H 0.00168 0.25552 0.15859 0.0
H156 H 0.64719 0.80223 1.11154 0.0
H157 H 0.64241 0.97111 1.05614 0.0
H158 H 0.65797 0.80543 1.05817 0.0
H159 H 0.63033 0.96751 1.10922 0.0
Eu160 Eu 0.94582 0.91321 0.49816 0.0
Eu161 Eu 0.9612 0.79524 0.4808 0.0
C162 C 0.83075 0.77406 0.50487 0.0
C163 C 0.88621 0.02081 0.52287 0.0
C164 C 0.87728 0.06866 0.51218 0.0
C165 C 0.80084 0.99158 0.55612 0.0
C166 C 0.83076 0.07848 0.52364 0.0
C167 C 0.84689 0.98149 0.54446 0.0
C168 C 0.79265 0.0407 0.54614 0.0
C169 C 0.93477 0.01069 0.51037 0.0
O170 O 0.92136 0.81327 0.43701 0.0
O171 O 0.93885 0.9112 0.44804 0.0
C172 C 0.92276 0.86544 0.4287 0.0
O173 O 0.04661 0.94419 0.48972 0.0
O174 O 0.92562 0.6999 0.46485 0.0
O175 O 0.01983 0.75279 0.48217 0.0
O176 O 0.03203 0.87289 0.45442 0.0
C177 C 0.06467 0.92896 0.46545 0.0
O178 O 0.96022 0.88115 0.54308 0.0
O179 O 0.01226 0.83312 0.52632 0.0
O180 O 0.87072 0.75405 0.5046 0.0
O181 O 0.96187 0.98987 0.52801 0.0
O182 O 0.92119 0.98254 0.48475 0.0
O183 O 0.8478 0.83221 0.49929 0.0
C184 C 0.00228 0.68287 0.44321 0.0
C185 C 0.04081 0.65717 0.44796 0.0
C186 C 0.02203 0.68675 0.39087 0.0
C187 C 0.0713 0.64794 0.42433 0.0
C188 C -0.00795 0.69633 0.41444 0.0
C189 C 0.06334 0.66412 0.39563 0.0
C190 C 0.97887 0.70194 0.46853 0.0
C191 C -0.002 0.85921 0.54839 0.0
H192 H 0.90655 0.09869 0.49507 0.0
H193 H 0.77333 0.96221 0.57379 0.0
H194 H 0.82528 0.11618 0.51517 0.0
H195 H 0.85235 0.94353 0.55264 0.0
H196 H 0.04942 0.64683 0.47011 0.0
H197 H 0.01585 0.701 0.36918 0.0
H198 H 0.10276 0.63036 0.42863 0.0
H199 H 0.9632 0.71703 0.41031 0.0
Eu200 Eu 0.15235 0.96436 0.83044 0.0
Eu201 Eu 0.28587 0.9773 0.81664 0.0
C202 C 0.17386 0.848 0.83644 0.0
C203 C 0.01225 0.98525 0.853 0.0
C204 C 0.94761 0.95225 0.85044 0.0
C205 C 0.00612 0.05526 0.88884 0.0
C206 C 0.91217 0.96925 0.86762 0.0
C207 C 0.0417 0.03809 0.87151 0.0
C208 C 0.94091 0.01949 0.88785 0.0
C209 C 0.04682 0.96152 0.83677 0.0
O210 O 0.23056 0.93696 0.77178 0.0
O211 O 0.14505 0.94664 0.78102 0.0
C212 C 0.17782 0.93388 0.76252 0.0
O213 O 0.22927 0.06351 0.82646 0.0
O214 O 0.34302 0.93544 0.80734 0.0
O215 O 0.38639 0.03538 0.81381 0.0
O216 O 0.27796 0.04749 0.7893 0.0
C217 C 0.25702 0.08125 0.80117 0.0
O218 O 0.19603 0.98267 0.8767 0.0
O219 O 0.2976 0.02516 0.86304 0.0
O220 O 0.23263 0.88821 0.84091 0.0
O221 O 0.09027 -0.00016 0.81951 0.0
O222 O 0.06189 0.92502 0.85082 0.0
O223 O 0.13527 0.86604 0.82701 0.0
C224 C 0.42765 -0.00139 0.77743 0.0
C225 C 0.39619 0.96634 0.75148 0.0
C226 C 0.51987 0.06088 0.74901 0.0
C227 C 0.42574 0.98215 0.72449 0.0
C228 C 0.49024 0.04468 0.77617 0.0
C229 C 0.48719 0.03099 0.72279 0.0
C230 C 0.39364 0.98902 0.80499 0.0
C231 C 0.25576 0.0144 0.88366 0.0
H232 H 0.92437 0.91168 0.83596 0.0
H233 H 0.02951 0.0945 0.90405 0.0
H234 H 0.86225 0.94003 0.86655 0.0
H235 H 0.09181 0.06446 0.87337 0.0
H236 H 0.34769 0.93098 0.75173 0.0
H237 H 0.56733 0.09852 0.74835 0.0
H238 H 0.39877 0.95896 0.70472 0.0
H239 H 0.51526 0.0701 0.79598 0.0
H240 H 0.95624 0.90174 1.13859 0.0
H241 H 0.1956 0.21518 1.0948 0.0
H242 H 0.91674 0.00862 1.07685 0.0
H243 H 0.22738 0.08133 0.14004 0.0
H244 H 0.10317 0.12884 1.07064 0.0
H245 H 0.05817 0.94169 1.11765 0.0
C246 C 0.96824 0.93171 1.11971 0.0
C247 C 0.93021 0.95526 1.11061 0.0
C248 C 0.13174 0.11847 1.0851 0.0
C249 C 0.04843 0.00672 1.08906 0.0
C250 C 0.18385 0.16774 1.09912 0.0
C251 C 0.21706 0.15502 1.12043 0.0
C252 C 0.11372 0.05676 1.09259 0.0
C253 C 0.20151 0.09314 1.12468 0.0
C254 C 0.02696 0.95559 1.10793 0.0
C255 C 0.94686 0.9925 1.0856 0.0
N256 N 0.15084 0.0465 1.11117 0.0
N257 N 0.00651 0.02042 1.07671 0.0
H258 H 0.17043 0.03732 0.47895 0.0
H259 H 0.16679 0.28902 0.40964 0.0
H260 H 0.04354 0.93717 0.40696 0.0
H261 H 0.0454 0.18202 0.47916 0.0
H262 H 0.16206 0.19444 0.38958 0.0
H263 H 0.18869 0.13444 0.45739 0.0
C264 C 0.14882 0.03587 0.4578 0.0
C265 C 0.10266 0.97953 0.44558 0.0
C266 C 0.13379 0.19145 0.40819 0.0
C267 C 0.11994 0.089 0.4223 0.0
C268 C 0.13645 0.24517 0.41978 0.0
C269 C 0.11007 0.24335 0.44731 0.0
C270 C 0.10142 0.13628 0.42355 0.0
C271 C 0.06858 0.18544 0.45859 0.0
C272 C 0.15893 0.09118 0.44555 0.0
C273 C 0.07676 0.98012 0.41792 0.0
N274 N 0.06693 0.13398 0.44712 0.0
N275 N 0.08217 0.03413 0.40813 0.0
H276 H 0.24742 0.18293 0.8148 0.0
H277 H -0.00995 0.17917 0.74373 0.0
H278 H 0.21649 0.05319 0.74367 0.0
H279 H 0.97302 0.05896 0.81508 0.0
H280 H 0.07817 0.17092 0.72544 0.0
H281 H 0.16372 0.19663 0.79461 0.0
C282 C 0.22502 0.15962 0.79415 0.0
C283 C 0.23627 0.11443 0.78172 0.0
C284 C 0.05262 0.14353 0.74403 0.0
C285 C 0.13928 0.12728 0.75983 0.0
C286 C 0.00256 0.14824 0.75463 0.0
C287 C 0.97732 0.1226 0.78199 0.0
C288 C 0.07422 0.11042 0.76036 0.0
C289 C -0.00699 0.08097 0.79449 0.0
C290 C 0.17713 0.16717 0.78271 0.0
C291 C 0.20646 0.08593 0.75476 0.0
N292 N 0.04203 0.07751 0.78404 0.0
N293 N 0.15608 0.08955 0.74562 0.0
H294 H 0.58451 0.51998 1.01102 0.0
H295 H 0.33617 0.52995 0.90805 0.0
H296 H 0.45005 0.57168 1.03814 0.0
H297 H 0.46023 0.46428 0.88118 0.0
H298 H 0.4052 0.5849 0.94964 0.0
H299 H 0.56746 0.53832 0.95977 0.0
C300 C 0.55254 0.53672 1.00625 0.0
C301 C 0.51703 0.54221 1.02871 0.0
C302 C 0.41831 0.55986 0.93424 0.0
C303 C 0.49687 0.56268 0.97023 0.0
C304 C 0.37903 0.52875 0.91019 0.0
C305 C 0.39123 0.49043 0.89161 0.0
C306 C 0.46945 0.5517 0.94002 0.0
C307 C 0.44776 0.49126 0.89564 0.0
C308 C 0.54293 0.54734 0.977 0.0
C309 C 0.4777 0.56583 1.02148 0.0
N310 N 0.48394 0.51983 0.91991 0.0
N311 N 0.46745 0.57364 0.99276 0.0
H312 H 0.0879 0.5357 0.34998 0.0
H313 H 0.23902 0.46862 0.21326 0.0
H314 H 0.28323 0.59853 0.34343 0.0
H315 H 0.04338 0.4028 0.22208 0.0
H316 H 0.26053 0.54367 0.25346 0.0
H317 H 0.07599 0.5159 0.2968 0.0
C318 C 0.12852 0.54643 0.33726 0.0
C319 C 0.18629 0.56723 0.35131 0.0
C320 C 0.21299 0.51388 0.24605 0.0
C321 C 0.17287 0.54348 0.29046 0.0
C322 C 0.20067 0.47086 0.22313 0.0
C323 C 0.13918 0.42792 0.21478 0.0
C324 C 0.16344 0.51357 0.26085 0.0
C325 C 0.09153 0.43436 0.2278 0.0
C326 C 0.12177 0.53525 0.30685 0.0
C327 C 0.23764 0.58193 0.33362 0.0
N328 N 0.10459 0.47525 0.2506 0.0
N329 N 0.22946 0.5683 0.30421 0.0
H330 H 0.71929 0.23167 0.67628 0.0
H331 H 0.67787 0.96121 0.56866 0.0
H332 H 0.63568 0.03843 0.69891 0.0
H333 H 0.80926 0.1563 0.55945 0.0
H334 H 0.62436 0.98834 0.60591 0.0
H335 H 0.71084 0.20189 0.62418 0.0
C336 C 0.69723 0.18279 0.67029 0.0
C337 C 0.6801 0.13755 0.692 0.0
C338 C 0.66389 0.02516 0.59505 0.0
C339 C 0.67167 0.10358 0.63258 0.0
C340 C 0.69479 0.00977 0.57397 0.0
C341 C 0.74971 0.05638 0.56173 0.0
C342 C 0.68813 0.0875 0.60388 0.0
C343 C 0.7678 0.11858 0.56854 0.0
C344 C 0.69279 0.1659 0.64052 0.0
C345 C 0.65166 0.07496 0.68287 0.0
N346 N 0.73792 0.13225 0.58966 0.0
N347 N 0.64965 0.05987 0.65385 0.0
H348 H 0.76677 0.90163 1.04818 0.0
H349 H 0.82503 0.00869 0.8833 0.0
H350 H 0.6327 0.93146 1.00044 0.0
H351 H 0.96986 0.04074 0.94652 0.0
H352 H 0.75251 0.98267 0.924 0.0
H353 H 0.83919 0.94881 1.00862 0.0
C354 C 0.75198 0.91673 1.0289 0.0
C355 C 0.693 0.91103 1.02713 0.0
C356 C 0.80053 -0.00325 0.92888 0.0
C357 C 0.77676 0.96701 0.9819 0.0
C358 C 0.84195 0.01178 0.90575 0.0
C359 C 0.90321 0.02527 0.91145 0.0
C360 C 0.82077 -0.00502 0.95768 0.0
C361 C 0.92311 0.03016 0.94094 0.0
C362 C 0.79385 0.94477 1.00653 0.0
C363 C 0.6774 0.93401 1.00224 0.0
N364 N 0.88165 0.01367 0.96287 0.0
N365 N 0.71899 0.9606 0.9803 0.0
H366 H 0.18818 0.70528 0.39836 0.0
H367 H 0.34095 0.89042 0.28633 0.0
H368 H 0.03173 0.62958 0.33755 0.0
H369 H 0.18473 0.76837 0.23022 0.0
H370 H 0.3025 0.81256 0.32423 0.0
H371 H 0.25765 0.73875 0.35676 0.0
C372 C 0.16835 0.69456 0.37621 0.0
C373 C 0.10405 0.66683 0.37139 0.0
C374 C 0.27741 0.80134 0.30337 0.0
C375 C 0.18339 0.70831 0.32362 0.0
C376 C 0.2993 0.84648 0.28172 0.0
C377 C 0.2649 0.83694 0.25547 0.0
C378 C 0.22031 0.7464 0.29876 0.0
C379 C 0.21246 0.77838 0.25026 0.0
C380 C 0.20825 0.71483 0.35234 0.0
C381 C 0.08111 0.65312 0.34224 0.0
N382 N 0.191 0.73604 0.272 0.0
N383 N 0.12075 0.6753 0.31949 0.0
H384 H 0.47866 0.9674 0.67128 0.0
H385 H 0.52368 0.25815 0.58193 0.0
H386 H 0.55098 0.15297 0.70742 0.0
H387 H 0.3964 0.06609 0.55865 0.0
H388 H 0.57314 0.22394 0.61844 0.0
H389 H 0.48997 0.00872 0.62157 0.0
C390 C 0.49832 0.017 0.66874 0.0
C391 C 0.51197 0.05654 0.69352 0.0
C392 C 0.53547 0.18952 0.6047 0.0
C393 C 0.52488 0.1038 0.63695 0.0
C394 C 0.50686 0.20889 0.58402 0.0
C395 C 0.45415 0.16491 0.56796 0.0
C396 C 0.51123 0.12581 0.60925 0.0
C397 C 0.4362 0.10185 0.57074 0.0
C398 C 0.50493 0.04051 0.64041 0.0
C399 C 0.53896 0.12061 0.68899 0.0
N400 N 0.46382 0.08415 0.5915 0.0
N401 N 0.54323 0.14211 0.66123 0.0
H402 H 0.60033 0.30198 0.14975 0.0
H403 H 0.83278 0.21847 0.15104 0.0
H404 H 0.5073 0.14988 0.20939 0.0
H405 H 0.72411 0.08969 0.21806 0.0
H406 H 0.76227 0.26062 0.15145 0.0
H407 H 0.69302 0.29165 0.15401 0.0
C408 C 0.5996 0.26681 0.16396 0.0
C409 C 0.54548 0.22619 0.17887 0.0
C410 C 0.75418 0.22406 0.16654 0.0
C411 C 0.65139 0.21311 0.18362 0.0
C412 C 0.79491 0.20013 0.16637 0.0
C413 C 0.784 0.15006 0.18433 0.0
C414 C 0.70229 0.1977 0.18494 0.0
C415 C 0.73399 0.12779 0.20357 0.0
C416 C 0.65262 0.26049 0.16624 0.0
C417 C 0.54741 0.18171 0.19706 0.0
N418 N 0.69491 0.15128 0.20313 0.0
N419 N 0.59906 0.17622 0.19872 0.0
H420 H 0.47696 0.43355 0.51241 0.0
H421 H 0.73207 0.79539 0.50867 0.0
H422 H 0.43212 0.5809 0.51674 0.0
H423 H 0.77723 0.64833 0.51254 0.0
H424 H 0.62234 0.71797 0.51346 0.0
H425 H 0.5872 0.51158 0.51441 0.0
C426 C 0.49013 0.48219 0.51407 0.0
C427 C 0.44481 0.50041 0.51431 0.0
C428 C 0.65632 0.7027 0.51345 0.0
C429 C 0.57151 0.59041 0.51632 0.0
C430 C 0.71911 0.74697 0.51073 0.0
C431 C 0.76429 0.72859 0.51008 0.0
C432 C 0.63825 0.63935 0.51537 0.0
C433 C 0.74435 0.66497 0.51288 0.0
C434 C 0.55324 0.52684 0.51516 0.0
C435 C 0.4651 0.56438 0.51646 0.0
N436 N 0.68302 0.6228 0.5152 0.0
N437 N 0.52672 0.60689 0.51716 0.0
H438 H 0.95801 0.4462 0.84281 0.0
H439 H 0.24378 0.79392 0.85009 0.0
H440 H 0.14959 0.49079 0.84335 0.0
H441 H 0.05483 0.74916 0.83218 0.0
H442 H 0.20897 0.6834 0.85383 0.0
H443 H -0.00814 0.55691 0.84519 0.0
C444 C 0.00725 0.47916 0.84369 0.0
C445 C 0.05101 0.4589 0.84274 0.0
C446 C 0.17506 0.69772 0.84921 0.0
C447 C 0.09003 0.58619 0.84539 0.0
C448 C 0.19484 0.76095 0.84715 0.0
C449 C 0.1522 0.78108 0.84069 0.0
C450 C 0.11206 0.65396 0.84494 0.0
C451 C 0.08941 0.73591 0.8371 0.0
C452 C 0.0265 0.54249 0.84493 0.0
C453 C 0.11414 0.50408 0.84392 0.0
N454 N 0.07127 0.67451 0.83921 0.0
N455 N 0.13172 0.56554 0.8451 0.0
H456 H 0.36481 0.36362 0.24138 0.0
H457 H 0.29079 0.25846 0.4119 0.0
H458 H 0.33665 0.18907 0.2738 0.0
H459 H 0.31178 0.43252 0.38269 0.0
H460 H 0.30905 0.23514 0.36179 0.0
H461 H 0.34773 0.39132 0.29155 0.0
C462 C 0.35531 0.33092 0.25888 0.0
C463 C 0.35264 0.2735 0.25257 0.0
C464 C 0.30998 0.27865 0.36608 0.0
C465 C 0.3325 0.30573 0.31133 0.0
C466 C 0.29955 0.29243 0.39512 0.0
C467 C 0.2997 0.34819 0.40249 0.0
C468 C 0.32124 0.32056 0.34312 0.0
C469 C 0.31122 0.38909 0.37877 0.0
C470 C 0.34537 0.34698 0.28779 0.0
C471 C 0.33959 0.23383 0.27689 0.0
N472 N 0.32142 0.37459 0.35055 0.0
N473 N 0.33026 0.25054 0.30465 0.0
H474 H 0.24523 0.33387 0.60464 0.0
H475 H 0.98451 0.32852 0.71372 0.0
H476 H 0.11574 0.39026 0.57464 0.0
H477 H 0.13539 0.3012 0.74189 0.0
H478 H 0.02628 0.34742 0.66313 0.0
H479 H 0.20148 0.31838 0.65398 0.0
C480 C 0.20766 0.34335 0.60821 0.0
C481 C 0.18513 0.36399 0.5846 0.0
C482 C 0.05036 0.33744 0.6804 0.0
C483 C 0.13279 0.34507 0.64279 0.0
C484 C 0.02633 0.32653 0.70957 0.0
C485 C 0.05599 0.31333 0.73301 0.0
C486 C 0.10462 0.3347 0.67391 0.0
C487 C 0.11023 0.31145 0.72529 0.0
C488 C 0.18237 0.33431 0.63679 0.0
C489 C 0.13565 0.37478 0.59163 0.0
N490 N 0.13204 0.32159 0.69699 0.0
N491 N 0.11138 0.36508 0.61966 0.0
H492 H 0.83278 0.15772 0.90866 0.0
H493 H 0.77235 0.05631 1.05774 0.0
H494 H 0.0257 0.24003 0.93359 0.0
H495 H 0.97078 0.14681 1.06895 0.0
H496 H 0.7861 0.0894 1.00612 0.0
H497 H 0.8051 0.1203 0.95922 0.0
C498 C 0.8696 0.1683 0.92465 0.0
C499 C 0.93208 0.20307 0.91609 0.0
C500 C 0.82698 0.10225 1.01962 0.0
C501 C 0.90022 0.15896 0.97561 0.0
C502 C 0.81891 0.08318 1.04956 0.0
C503 C 0.87021 0.09868 1.06862 0.0
C504 C 0.8871 0.1369 1.00782 0.0
C505 C 0.92925 0.13354 1.05582 0.0
C506 C 0.85362 0.14668 0.95396 0.0
C507 C 0.97689 0.21407 0.93849 0.0
N508 N 0.93576 0.15091 1.02679 0.0
N509 N 0.96024 0.19239 0.96663 0.0
H510 H 0.92241 0.05988 0.26774 0.0
H511 H 0.87639 0.7851 0.37806 0.0
H512 H 0.81206 0.86784 0.24048 0.0
H513 H 0.94104 0.97505 0.40507 0.0
H514 H 0.85844 0.81106 0.32743 0.0
H515 H 0.93555 0.02729 0.3167 0.0
C516 C 0.90065 0.0106 0.27184 0.0
C517 C 0.86562 0.96707 0.24919 0.0
C518 C 0.87649 0.84698 0.3445 0.0
C519 C 0.88171 0.92836 0.30683 0.0
C520 C 0.88694 0.83211 0.37363 0.0
C521 C 0.91039 0.87749 0.39669 0.0
C522 C 0.8903 0.90814 0.33777 0.0
C523 C 0.92282 0.93768 0.38873 0.0
C524 C 0.90829 0.99185 0.30019 0.0
C525 C 0.83914 0.90371 0.25681 0.0
N526 N 0.91312 0.95085 0.3605 0.0
N527 N 0.84794 0.88651 0.28461 0.0
H528 H 0.09193 0.83604 0.56921 0.0
H529 H 0.07744 0.93723 0.73846 0.0
H530 H 0.97034 0.90118 0.59994 0.0
H531 H 0.22147 0.89933 0.71147 0.0
H532 H 0.03695 0.91846 0.6881 0.0
H533 H 0.13759 0.8527 0.61965 0.0
C534 C 0.07434 0.85351 0.58639 0.0
C535 C 0.02637 0.86682 0.5796 0.0
C536 C 0.07732 0.91392 0.69288 0.0
C537 C 0.07943 0.88627 0.63844 0.0
C538 C 0.10091 0.92459 0.72212 0.0
C539 C 0.15365 0.9199 0.73024 0.0
C540 C 0.10546 0.89759 0.67038 0.0
C541 C 0.18086 0.90356 0.70696 0.0
C542 C 0.10086 0.86326 0.6154 0.0
C543 C 0.00675 0.88984 0.60342 0.0
N544 N 0.15657 0.89295 0.67843 0.0
N545 N 0.03283 0.89843 0.63122 0.0
H546 H 0.18607 0.97655 0.93427 0.0
H547 H 0.42938 0.24296 1.04789 0.0
H548 H 0.36931 0.11061 0.90698 0.0
H549 H 0.27598 0.07046 1.07612 0.0
H550 H 0.40557 0.20321 0.99627 0.0
H551 H 0.21461 0.01711 0.98511 0.0
C552 C 0.23249 0.01457 0.93876 0.0
C553 C 0.27504 0.03938 0.91556 0.0
C554 C 0.37721 0.17392 1.01376 0.0
C555 C 0.30839 0.08796 0.97518 0.0
C556 C 0.39081 0.19675 1.04348 0.0
C557 C 0.3553 0.16035 1.06717 0.0
C558 C 0.32651 0.11432 1.00696 0.0
C559 C 0.30556 0.10074 1.05922 0.0
C560 C 0.24887 0.03785 0.96814 0.0
C561 C 0.33455 0.08907 0.92367 0.0
N562 N 0.29268 0.08028 1.03028 0.0
N563 N 0.34905 0.11173 0.95239 0.0
loop_
_geom_bond_atom_site_label_1
_geom_bond_atom_site_label_2
_geom_bond_distance
_geom_bond_site_symmetry_2
_ccdc_geom_bond_type
Eu0 C9 2.828 . S
Eu0 O11 2.392 1_554 S
Eu0 O13 2.418 . S
Eu0 O18 2.373 . S
Eu0 O21 2.488 . S
Eu0 O22 2.471 . S
Eu0 O23 2.349 . S
Eu1 O10 2.373 . S
Eu1 O14 2.488 . S
Eu1 O15 2.471 . S
Eu1 O16 2.349 1_556 S
Eu1 O19 2.392 1_556 S
Eu1 O20 2.418 . S
Eu1 C30 2.828 . S
C2 O20 1.244 1_554 S
C2 O23 1.265 . S
C3 C4 1.379 . S
C3 C7 1.373 . S
C3 C9 1.505 . S
C4 C3 1.379 . S
C4 C6 1.369 . S
C4 H32 0.930 . S
C5 C7 1.383 . S
C5 C8 1.382 . S
C5 H33 0.930 . S
C6 C4 1.369 . S
C6 C8 1.392 . S
C6 H34 0.930 . S
C7 C3 1.373 . S
C7 C5 1.383 . S
C7 H35 0.931 . S
C8 C5 1.382 . S
C8 C6 1.392 . S
C9 Eu0 2.828 . S
C9 C3 1.505 . S
C9 O21 1.249 . S
C9 O22 1.244 . S
O10 Eu1 2.373 . S
O10 C12 1.258 . S
O11 Eu0 2.392 1_556 S
O11 C12 1.242 . S
C12 O10 1.258 . S
C12 O11 1.242 . S
O13 Eu0 2.418 . S
O13 C17 1.244 . S
O14 Eu1 2.488 . S
O14 C30 1.249 . S
O15 Eu1 2.471 . S
O15 C30 1.244 . S
O16 Eu1 2.349 1_554 S
O16 C17 1.265 . S
C17 O13 1.244 . S
C17 O16 1.265 . S
O18 Eu0 2.373 . S
O18 C31 1.258 . S
O19 Eu1 2.392 1_554 S
O19 C31 1.242 . S
O20 Eu1 2.418 . S
O20 C2 1.244 1_556 S
O21 Eu0 2.488 . S
O21 C9 1.249 . S
O22 Eu0 2.471 . S
O22 C9 1.244 . S
O23 Eu0 2.349 . S
O23 C2 1.265 . S
C24 C25 1.379 . S
C24 C28 1.373 . S
C24 C30 1.505 . S
C25 C24 1.379 . S
C25 C27 1.369 . S
C25 H36 0.930 . S
C26 C28 1.383 . S
C26 C29 1.382 . S
C26 H37 0.930 . S
C27 C25 1.369 . S
C27 C29 1.392 . S
C27 H38 0.930 . S
C28 C24 1.373 . S
C28 C26 1.383 . S
C28 H39 0.931 . S
C29 C26 1.382 . S
C29 C27 1.392 . S
C30 Eu1 2.828 . S
C30 O14 1.249 . S
C30 O15 1.244 . S
C30 C24 1.505 . S
C31 O18 1.258 . S
C31 O19 1.242 . S
H32 C4 0.930 . S
H33 C5 0.930 . S
H34 C6 0.930 . S
H35 C7 0.931 . S
H36 C25 0.930 . S
H37 C26 0.930 . S
H38 C27 0.930 . S
H39 C28 0.931 . S
Eu40 C49 2.828 . S
Eu40 O51 2.392 . S
Eu40 O53 2.418 . S
Eu40 O58 2.373 . S
Eu40 O61 2.488 . S
Eu40 O62 2.471 . S
Eu40 O63 2.349 . S
Eu41 O50 2.373 . S
Eu41 O54 2.488 . S
Eu41 O55 2.471 . S
Eu41 O56 2.349 . S
Eu41 O59 2.392 . S
Eu41 O60 2.418 . S
Eu41 C70 2.828 . S
C42 O60 1.244 . S
C42 O63 1.265 . S
C43 C44 1.379 . S
C43 C47 1.373 . S
C43 C49 1.505 . S
C44 C43 1.379 . S
C44 C46 1.369 . S
C44 H72 0.930 . S
C45 C47 1.383 . S
C45 C48 1.382 . S
C45 H73 0.930 . S
C46 C44 1.369 . S
C46 C48 1.392 . S
C46 H74 0.930 . S
C47 C43 1.373 . S
C47 C45 1.383 . S
C47 H75 0.931 . S
C48 C45 1.382 . S
C48 C46 1.392 . S
C49 Eu40 2.828 . S
C49 C43 1.505 . S
C49 O61 1.249 . S
C49 O62 1.244 . S
O50 Eu41 2.373 . S
O50 C52 1.258 . S
O51 Eu40 2.392 . S
O51 C52 1.242 . S
C52 O50 1.258 . S
C52 O51 1.242 . S
O53 Eu40 2.418 . S
O53 C57 1.244 . S
O54 Eu41 2.488 . S
O54 C70 1.249 . S
O55 Eu41 2.471 . S
O55 C70 1.244 . S
O56 Eu41 2.349 . S
O56 C57 1.265 . S
C57 O53 1.244 . S
C57 O56 1.265 . S
O58 Eu40 2.373 . S
O58 C71 1.258 . S
O59 Eu41 2.392 . S
O59 C71 1.242 . S
O60 Eu41 2.418 . S
O60 C42 1.244 . S
O61 Eu40 2.488 . S
O61 C49 1.249 . S
O62 Eu40 2.471 . S
O62 C49 1.244 . S
O63 Eu40 2.349 . S
O63 C42 1.265 . S
C64 C65 1.379 . S
C64 C68 1.373 . S
C64 C70 1.505 . S
C65 C64 1.379 . S
C65 C67 1.369 . S
C65 H76 0.930 . S
C66 C68 1.383 . S
C66 C69 1.382 . S
C66 H77 0.930 . S
C67 C65 1.369 . S
C67 C69 1.392 . S
C67 H78 0.930 . S
C68 C64 1.373 . S
C68 C66 1.383 . S
C68 H79 0.931 . S
C69 C66 1.382 . S
C69 C67 1.392 . S
C70 Eu41 2.828 . S
C70 O54 1.249 . S
C70 O55 1.244 . S
C70 C64 1.505 . S
C71 O58 1.258 . S
C71 O59 1.242 . S
H72 C44 0.930 . S
H73 C45 0.930 . S
H74 C46 0.930 . S
H75 C47 0.931 . S
H76 C65 0.930 . S
H77 C66 0.930 . S
H78 C67 0.930 . S
H79 C68 0.931 . S
Eu80 C89 2.828 . S
Eu80 O91 2.392 . S
Eu80 O93 2.418 . S
Eu80 O98 2.378 . S
Eu80 O101 2.488 . S
Eu80 O102 2.471 . S
Eu80 O103 2.349 . S
Eu81 O90 2.365 1_655 S
Eu81 O94 2.488 . S
Eu81 O95 2.471 . S
Eu81 O96 2.349 . S
Eu81 O99 2.392 . S
Eu81 O100 2.418 . S
Eu81 C110 2.828 . S
C82 O100 1.244 . S
C82 O103 1.265 1_655 S
C83 C84 1.379 . S
C83 C87 1.373 . S
C83 C89 1.505 . S
C84 C83 1.379 . S
C84 C86 1.369 . S
C84 H112 0.930 . S
C85 C87 1.383 . S
C85 C88 1.382 . S
C85 H113 0.930 . S
C86 C84 1.369 . S
C86 C88 1.392 . S
C86 H114 0.930 . S
C87 C83 1.373 . S
C87 C85 1.383 . S
C87 H115 0.931 . S
C88 C85 1.382 . S
C88 C86 1.392 . S
C89 Eu80 2.828 . S
C89 C83 1.505 . S
C89 O101 1.249 . S
C89 O102 1.244 . S
O90 Eu81 2.365 1_455 S
O90 C92 1.271 . S
O91 Eu80 2.392 . S
O91 C92 1.242 . S
C92 O90 1.271 . S
C92 O91 1.242 . S
O93 Eu80 2.418 . S
O93 C97 1.244 . S
O94 Eu81 2.488 . S
O94 C110 1.249 . S
O95 Eu81 2.471 . S
O95 C110 1.244 . S
O96 Eu81 2.349 . S
O96 C97 1.265 1_655 S
C97 O93 1.244 . S
C97 O96 1.265 1_455 S
O98 Eu80 2.378 . S
O98 C111 1.249 1_455 S
O99 Eu81 2.392 . S
O99 C111 1.242 . S
O100 Eu81 2.418 . S
O100 C82 1.244 . S
O101 Eu80 2.488 . S
O101 C89 1.249 . S
O102 Eu80 2.471 . S
O102 C89 1.244 . S
O103 Eu80 2.349 . S
O103 C82 1.265 1_455 S
C104 C105 1.379 . S
C104 C108 1.373 . S
C104 C110 1.505 . S
C105 C104 1.379 . S
C105 C107 1.369 . S
C105 H116 0.930 . S
C106 C108 1.383 . S
C106 C109 1.382 . S
C106 H117 0.930 . S
C107 C105 1.369 . S
C107 C109 1.392 . S
C107 H118 0.930 . S
C108 C104 1.373 . S
C108 C106 1.383 . S
C108 H119 0.931 . S
C109 C106 1.382 . S
C109 C107 1.392 . S
C110 Eu81 2.828 . S
C110 O94 1.249 . S
C110 O95 1.244 . S
C110 C104 1.505 . S
C111 O98 1.249 1_655 S
C111 O99 1.242 . S
H112 C84 0.930 . S
H113 C85 0.930 . S
H114 C86 0.930 . S
H115 C87 0.931 . S
H116 C105 0.930 . S
H117 C106 0.930 . S
H118 C107 0.930 . S
H119 C108 0.931 . S
Eu120 C129 2.828 . S
Eu120 O131 2.392 1_554 S
Eu120 O133 2.418 . S
Eu120 O138 2.373 . S
Eu120 O141 2.488 . S
Eu120 O142 2.471 . S
Eu120 O143 2.349 . S
Eu121 O130 2.373 1_565 S
Eu121 O134 2.488 . S
Eu121 O135 2.471 . S
Eu121 O136 2.349 1_566 S
Eu121 O139 2.392 1_556 S
Eu121 O140 2.418 . S
Eu121 C150 2.828 . S
C122 O140 1.244 1_554 S
C122 O143 1.265 1_565 S
C123 C124 1.379 . S
C123 C127 1.373 . S
C123 C129 1.505 . S
C124 C123 1.379 . S
C124 C126 1.369 . S
C124 H152 0.930 . S
C125 C127 1.383 . S
C125 C128 1.382 . S
C125 H153 0.930 . S
C126 C124 1.369 . S
C126 C128 1.392 . S
C126 H154 0.930 . S
C127 C123 1.373 . S
C127 C125 1.383 . S
C127 H155 0.931 . S
C128 C125 1.382 . S
C128 C126 1.392 . S
C129 Eu120 2.828 . S
C129 C123 1.505 . S
C129 O141 1.249 . S
C129 O142 1.244 . S
O130 Eu121 2.373 1_545 S
O130 C132 1.258 . S
O131 Eu120 2.392 1_556 S
O131 C132 1.242 . S
C132 O130 1.258 . S
C132 O131 1.242 . S
O133 Eu120 2.418 . S
O133 C137 1.244 . S
O134 Eu121 2.488 . S
O134 C150 1.249 . S
O135 Eu121 2.471 . S
O135 C150 1.244 . S
O136 Eu121 2.349 1_544 S
O136 C137 1.265 . S
C137 O133 1.244 . S
C137 O136 1.265 . S
O138 Eu120 2.373 . S
O138 C151 1.258 1_545 S
O139 Eu121 2.392 1_554 S
O139 C151 1.242 . S
O140 Eu121 2.418 . S
O140 C122 1.244 1_556 S
O141 Eu120 2.488 . S
O141 C129 1.249 . S
O142 Eu120 2.471 . S
O142 C129 1.244 . S
O143 Eu120 2.349 . S
O143 C122 1.265 1_545 S
C144 C145 1.379 . S
C144 C148 1.373 . S
C144 C150 1.505 . S
C145 C144 1.379 . S
C145 C147 1.369 . S
C145 H156 0.930 . S
C146 C148 1.383 . S
C146 C149 1.382 . S
C146 H157 0.930 . S
C147 C145 1.369 . S
C147 C149 1.392 . S
C147 H158 0.930 . S
C148 C144 1.373 . S
C148 C146 1.383 . S
C148 H159 0.931 . S
C149 C146 1.382 . S
C149 C147 1.392 . S
C150 Eu121 2.828 . S
C150 O134 1.249 . S
C150 O135 1.244 . S
C150 C144 1.505 . S
C151 O138 1.258 1_565 S
C151 O139 1.242 . S
H152 C124 0.930 . S
H153 C125 0.930 . S
H154 C126 0.930 . S
H155 C127 0.931 . S
H156 C145 0.930 . S
H157 C146 0.930 . S
H158 C147 0.930 . S
H159 C148 0.931 . S
Eu160 C169 2.828 . S
Eu160 O171 2.392 . S
Eu160 O173 2.418 1_655 S
Eu160 O178 2.373 . S
Eu160 O181 2.488 . S
Eu160 O182 2.471 . S
Eu160 O183 2.349 . S
Eu161 O170 2.373 1_455 S
Eu161 O174 2.488 . S
Eu161 O175 2.471 . S
Eu161 O176 2.349 . S
Eu161 O179 2.392 . S
Eu161 O180 2.418 1_455 S
Eu161 C190 2.828 . S
C162 O180 1.244 . S
C162 O183 1.265 . S
C163 C164 1.379 . S
C163 C167 1.373 . S
C163 C169 1.505 . S
C164 C163 1.379 . S
C164 C166 1.369 . S
C164 H192 0.930 . S
C165 C167 1.383 . S
C165 C168 1.382 . S
C165 H193 0.930 . S
C166 C164 1.369 . S
C166 C168 1.392 . S
C166 H194 0.930 . S
C167 C163 1.373 . S
C167 C165 1.383 . S
C167 H195 0.931 . S
C168 C165 1.382 . S
C168 C166 1.392 . S
C169 Eu160 2.828 . S
C169 C163 1.505 . S
C169 O181 1.249 . S
C169 O182 1.244 . S
O170 Eu161 2.373 1_655 S
O170 C172 1.258 . S
O171 Eu160 2.392 . S
O171 C172 1.242 . S
C172 O170 1.258 . S
C172 O171 1.242 . S
O173 Eu160 2.418 1_455 S
O173 C177 1.244 . S
O174 Eu161 2.488 . S
O174 C190 1.249 . S
O175 Eu161 2.471 . S
O175 C190 1.244 . S
O176 Eu161 2.349 . S
O176 C177 1.265 . S
C177 O173 1.244 . S
C177 O176 1.265 . S
O178 Eu160 2.373 . S
O178 C191 1.258 1_655 S
O179 Eu161 2.392 . S
O179 C191 1.242 . S
O180 Eu161 2.418 1_655 S
O180 C162 1.244 . S
O181 Eu160 2.488 . S
O181 C169 1.249 . S
O182 Eu160 2.471 . S
O182 C169 1.244 . S
O183 Eu160 2.349 . S
O183 C162 1.265 . S
C184 C185 1.379 . S
C184 C188 1.373 . S
C184 C190 1.505 . S
C185 C184 1.379 . S
C185 C187 1.369 . S
C185 H196 0.930 . S
C186 C188 1.383 . S
C186 C189 1.382 . S
C186 H197 0.930 . S
C187 C185 1.369 . S
C187 C189 1.392 . S
C187 H198 0.930 . S
C188 C184 1.373 . S
C188 C186 1.383 . S
C188 H199 0.931 . S
C189 C186 1.382 . S
C189 C187 1.392 . S
C190 Eu161 2.828 . S
C190 O174 1.249 . S
C190 O175 1.244 . S
C190 C184 1.505 . S
C191 O178 1.258 1_455 S
C191 O179 1.242 . S
H192 C164 0.930 . S
H193 C165 0.930 . S
H194 C166 0.930 . S
H195 C167 0.931 . S
H196 C185 0.930 . S
H197 C186 0.930 . S
H198 C187 0.930 . S
H199 C188 0.931 . S
Eu200 C209 2.828 . S
Eu200 O211 2.392 . S
Eu200 O213 2.418 1_565 S
Eu200 O218 2.373 . S
Eu200 O221 2.488 . S
Eu200 O222 2.471 . S
Eu200 O223 2.349 . S
Eu201 O210 2.373 1_545 S
Eu201 O214 2.488 . S
Eu201 O215 2.471 . S
Eu201 O216 2.349 . S
Eu201 O219 2.392 . S
Eu201 O220 2.418 1_545 S
Eu201 C230 2.828 . S
C202 O220 1.244 . S
C202 O223 1.265 . S
C203 C204 1.379 . S
C203 C207 1.373 . S
C203 C209 1.505 . S
C204 C203 1.379 . S
C204 C206 1.369 . S
C204 H232 0.930 . S
C205 C207 1.383 . S
C205 C208 1.382 . S
C205 H233 0.930 . S
C206 C204 1.369 . S
C206 C208 1.392 . S
C206 H234 0.930 . S
C207 C203 1.373 . S
C207 C205 1.383 . S
C207 H235 0.931 . S
C208 C205 1.382 . S
C208 C206 1.392 . S
C209 Eu200 2.828 . S
C209 C203 1.505 . S
C209 O221 1.249 . S
C209 O222 1.244 . S
O210 Eu201 2.373 1_565 S
O210 C212 1.258 . S
O211 Eu200 2.392 . S
O211 C212 1.242 . S
C212 O210 1.258 . S
C212 O211 1.242 . S
O213 Eu200 2.418 1_545 S
O213 C217 1.244 . S
O214 Eu201 2.488 . S
O214 C230 1.249 . S
O215 Eu201 2.471 . S
O215 C230 1.244 . S
O216 Eu201 2.349 . S
O216 C217 1.265 . S
C217 O213 1.244 . S
C217 O216 1.265 . S
O218 Eu200 2.373 . S
O218 C231 1.258 1_565 S
O219 Eu201 2.392 . S
O219 C231 1.242 . S
O220 Eu201 2.418 1_565 S
O220 C202 1.244 . S
O221 Eu200 2.488 . S
O221 C209 1.249 . S
O222 Eu200 2.471 . S
O222 C209 1.244 . S
O223 Eu200 2.349 . S
O223 C202 1.265 . S
C224 C225 1.379 . S
C224 C228 1.373 . S
C224 C230 1.505 . S
C225 C224 1.379 . S
C225 C227 1.369 . S
C225 H236 0.930 . S
C226 C228 1.383 . S
C226 C229 1.382 . S
C226 H237 0.930 . S
C227 C225 1.369 . S
C227 C229 1.392 . S
C227 H238 0.930 . S
C228 C224 1.373 . S
C228 C226 1.383 . S
C228 H239 0.931 . S
C229 C226 1.382 . S
C229 C227 1.392 . S
C230 Eu201 2.828 . S
C230 O214 1.249 . S
C230 O215 1.244 . S
C230 C224 1.505 . S
C231 O218 1.258 1_545 S
C231 O219 1.242 . S
H232 C204 0.930 . S
H233 C205 0.930 . S
H234 C206 0.930 . S
H235 C207 0.931 . S
H236 C225 0.930 . S
H237 C226 0.930 . S
H238 C227 0.930 . S
H239 C228 0.931 . S
H240 C246 0.930 1_665 S
H241 C250 0.930 . S
H242 C255 0.929 . S
H243 C253 0.929 . S
H244 C248 0.929 . S
H245 C254 0.929 . S
C246 H240 0.930 1_445 S
C246 C247 1.367 1_455 S
C246 C254 1.378 . S
C247 C246 1.367 1_655 S
C247 C255 1.433 1_554 S
C248 H244 0.929 . S
C248 C250 1.378 . S
C248 C252 1.350 1_556 S
C249 C252 1.463 . S
C249 C254 1.350 . S
C249 N257 1.427 1_554 S
C250 H241 0.930 . S
C250 C248 1.378 . S
C250 C251 1.367 1_556 S
C251 C250 1.367 1_554 S
C251 C253 1.433 . S
C252 C248 1.350 1_554 S
C252 C249 1.463 . S
C252 N256 1.427 . S
C253 H243 0.929 . S
C253 C251 1.433 . S
C253 N256 1.384 . S
C254 H245 0.929 . S
C254 C246 1.378 . S
C254 C249 1.350 . S
C255 H242 0.929 . S
C255 C247 1.433 1_556 S
C255 N257 1.384 1_655 S
N256 C252 1.427 . S
N256 C253 1.384 . S
N257 C249 1.427 1_556 S
N257 C255 1.384 1_455 S
H258 C264 0.930 1_565 S
H259 C268 0.930 . S
H260 C273 0.929 1_565 S
H261 C271 0.929 . S
H262 C266 0.929 . S
H263 C272 0.929 . S
C264 H258 0.930 1_545 S
C264 C265 1.367 1_545 S
C264 C272 1.378 . S
C265 C264 1.367 1_565 S
C265 C273 1.433 1_565 S
C266 H262 0.929 . S
C266 C268 1.378 . S
C266 C270 1.350 . S
C267 C270 1.463 . S
C267 C272 1.350 . S
C267 N275 1.427 . S
C268 H259 0.930 . S
C268 C266 1.378 . S
C268 C269 1.367 . S
C269 C268 1.367 . S
C269 C271 1.433 . S
C270 C266 1.350 . S
C270 C267 1.463 . S
C270 N274 1.427 . S
C271 H261 0.929 . S
C271 C269 1.433 . S
C271 N274 1.384 . S
C272 H263 0.929 . S
C272 C264 1.378 . S
C272 C267 1.350 . S
C273 H260 0.929 1_545 S
C273 C265 1.433 1_545 S
C273 N275 1.384 . S
N274 C270 1.427 . S
N274 C271 1.384 . S
N275 C267 1.427 . S
N275 C273 1.384 . S
H276 C282 0.930 . S
H277 C286 0.930 . S
H278 C291 0.929 . S
H279 C289 0.929 . S
H280 C284 0.929 . S
H281 C290 0.929 . S
C282 H276 0.930 . S
C282 C283 1.367 . S
C282 C290 1.378 . S
C283 C282 1.367 . S
C283 C291 1.433 . S
C284 H280 0.929 . S
C284 C286 1.378 1_455 S
C284 C288 1.350 . S
C285 C288 1.463 . S
C285 C290 1.350 . S
C285 N293 1.427 . S
C286 H277 0.930 . S
C286 C284 1.378 1_655 S
C286 C287 1.367 1_655 S
C287 C286 1.367 1_455 S
C287 C289 1.433 . S
C288 C284 1.350 . S
C288 C285 1.463 . S
C288 N292 1.427 . S
C289 H279 0.929 . S
C289 C287 1.433 . S
C289 N292 1.384 . S
C290 H281 0.929 . S
C290 C282 1.378 . S
C290 C285 1.350 . S
C291 H278 0.929 . S
C291 C283 1.433 . S
C291 N293 1.384 . S
N292 C288 1.427 . S
N292 C289 1.384 . S
N293 C285 1.427 . S
N293 C291 1.384 . S
H294 C300 0.930 . S
H295 C304 0.930 . S
H296 C309 0.929 . S
H297 C307 0.929 . S
H298 C302 0.929 . S
H299 C308 0.929 . S
C300 H294 0.930 . S
C300 C301 1.367 . S
C300 C308 1.378 . S
C301 C300 1.367 . S
C301 C309 1.433 . S
C302 H298 0.929 . S
C302 C304 1.378 . S
C302 C306 1.350 . S
C303 C306 1.463 . S
C303 C308 1.350 . S
C303 N311 1.427 . S
C304 H295 0.930 . S
C304 C302 1.378 . S
C304 C305 1.367 . S
C305 C304 1.367 . S
C305 C307 1.433 . S
C306 C302 1.350 . S
C306 C303 1.463 . S
C306 N310 1.427 . S
C307 H297 0.929 . S
C307 C305 1.433 . S
C307 N310 1.384 . S
C308 H299 0.929 . S
C308 C300 1.378 . S
C308 C303 1.350 . S
C309 H296 0.929 . S
C309 C301 1.433 . S
C309 N311 1.384 . S
N310 C306 1.427 . S
N310 C307 1.384 . S
N311 C303 1.427 . S
N311 C309 1.384 . S
H312 C318 0.930 . S
H313 C322 0.930 . S
H314 C327 0.929 . S
H315 C325 0.929 . S
H316 C320 0.929 1_455 S
H317 C326 0.929 1_655 S
C318 H312 0.930 . S
C318 C319 1.367 . S
C318 C326 1.378 . S
C319 C318 1.367 . S
C319 C327 1.433 . S
C320 H316 0.929 1_655 S
C320 C322 1.378 . S
C320 C324 1.350 . S
C321 C324 1.463 1_455 S
C321 C326 1.350 . S
C321 N329 1.427 . S
C322 H313 0.930 . S
C322 C320 1.378 . S
C322 C323 1.367 . S
C323 C322 1.367 . S
C323 C325 1.433 . S
C324 C320 1.350 . S
C324 C321 1.463 1_655 S
C324 N328 1.427 . S
C325 H315 0.929 . S
C325 C323 1.433 . S
C325 N328 1.384 . S
C326 H317 0.929 1_455 S
C326 C318 1.378 . S
C326 C321 1.350 . S
C327 H314 0.929 . S
C327 C319 1.433 . S
C327 N329 1.384 . S
N328 C324 1.427 . S
N328 C325 1.384 . S
N329 C321 1.427 . S
N329 C327 1.384 . S
H330 C336 0.930 . S
H331 C340 0.930 . S
H332 C345 0.929 . S
H333 C343 0.929 . S
H334 C338 0.929 . S
H335 C344 0.929 . S
C336 H330 0.930 . S
C336 C337 1.367 . S
C336 C344 1.378 . S
C337 C336 1.367 . S
C337 C345 1.433 . S
C338 H334 0.929 . S
C338 C340 1.378 . S
C338 C342 1.350 . S
C339 C342 1.463 1_545 S
C339 C344 1.350 . S
C339 N347 1.427 . S
C340 H331 0.930 . S
C340 C338 1.378 . S
C340 C341 1.367 . S
C341 C340 1.367 . S
C341 C343 1.433 . S
C342 C338 1.350 . S
C342 C339 1.463 1_565 S
C342 N346 1.427 . S
C343 H333 0.929 . S
C343 C341 1.433 . S
C343 N346 1.384 . S
C344 H335 0.929 . S
C344 C336 1.378 . S
C344 C339 1.350 . S
C345 H332 0.929 . S
C345 C337 1.433 . S
C345 N347 1.384 . S
N346 C342 1.427 . S
N346 C343 1.384 . S
N347 C339 1.427 . S
N347 C345 1.384 . S
H348 C354 0.930 . S
H349 C358 0.930 . S
H350 C363 0.929 . S
H351 C361 0.929 . S
H352 C356 0.929 . S
H353 C362 0.929 . S
C354 H348 0.930 . S
C354 C355 1.367 . S
C354 C362 1.378 . S
C355 C354 1.367 . S
C355 C363 1.433 . S
C356 H352 0.929 . S
C356 C358 1.378 . S
C356 C360 1.350 . S
C357 C360 1.463 . S
C357 C362 1.350 . S
C357 N365 1.427 . S
C358 H349 0.930 . S
C358 C356 1.378 . S
C358 C359 1.367 1_655 S
C359 C358 1.367 1_455 S
C359 C361 1.433 . S
C360 C356 1.350 . S
C360 C357 1.463 . S
C360 N364 1.427 1_655 S
C361 H351 0.929 . S
C361 C359 1.433 . S
C361 N364 1.384 . S
C362 H353 0.929 . S
C362 C354 1.378 . S
C362 C357 1.350 . S
C363 H350 0.929 . S
C363 C355 1.433 . S
C363 N365 1.384 . S
N364 C360 1.427 1_455 S
N364 C361 1.384 . S
N365 C357 1.427 . S
N365 C363 1.384 . S
H366 C372 0.930 . S
H367 C376 0.930 . S
H368 C381 0.929 . S
H369 C379 0.929 . S
H370 C374 0.929 . S
H371 C380 0.929 . S
C372 H366 0.930 . S
C372 C373 1.367 . S
C372 C380 1.378 . S
C373 C372 1.367 . S
C373 C381 1.433 . S
C374 H370 0.929 . S
C374 C376 1.378 1_565 S
C374 C378 1.350 . S
C375 C378 1.463 . S
C375 C380 1.350 . S
C375 N383 1.427 . S
C376 H367 0.930 . S
C376 C374 1.378 1_545 S
C376 C377 1.367 . S
C377 C376 1.367 . S
C377 C379 1.433 . S
C378 C374 1.350 . S
C378 C375 1.463 . S
C378 N382 1.427 1_565 S
C379 H369 0.929 . S
C379 C377 1.433 . S
C379 N382 1.384 . S
C380 H371 0.929 . S
C380 C372 1.378 . S
C380 C375 1.350 . S
C381 H368 0.929 . S
C381 C373 1.433 . S
C381 N383 1.384 . S
N382 C378 1.427 1_545 S
N382 C379 1.384 . S
N383 C375 1.427 . S
N383 C381 1.384 . S
H384 C390 0.930 . S
H385 C394 0.930 . S
H386 C399 0.929 . S
H387 C397 0.929 . S
H388 C392 0.929 . S
H389 C398 0.929 . S
C390 H384 0.930 . S
C390 C391 1.367 . S
C390 C398 1.378 . S
C391 C390 1.367 . S
C391 C399 1.433 . S
C392 H388 0.929 . S
C392 C394 1.378 . S
C392 C396 1.350 . S
C393 C396 1.463 . S
C393 C398 1.350 . S
C393 N401 1.427 . S
C394 H385 0.930 . S
C394 C392 1.378 . S
C394 C395 1.367 . S
C395 C394 1.367 . S
C395 C397 1.433 . S
C396 C392 1.350 . S
C396 C393 1.463 . S
C396 N400 1.427 . S
C397 H387 0.929 . S
C397 C395 1.433 . S
C397 N400 1.384 . S
C398 H389 0.929 . S
C398 C390 1.378 . S
C398 C393 1.350 . S
C399 H386 0.929 . S
C399 C391 1.433 . S
C399 N401 1.384 . S
N400 C396 1.427 . S
N400 C397 1.384 . S
N401 C393 1.427 . S
N401 C399 1.384 . S
H402 C408 0.930 . S
H403 C412 0.930 1_565 S
H404 C417 0.929 . S
H405 C415 0.929 . S
H406 C410 0.929 . S
H407 C416 0.929 . S
C408 H402 0.930 . S
C408 C409 1.367 1_556 S
C408 C416 1.378 . S
C409 C408 1.367 1_554 S
C409 C417 1.433 . S
C410 H406 0.929 . S
C410 C412 1.378 . S
C410 C414 1.350 . S
C411 C414 1.463 . S
C411 C416 1.350 1_554 S
C411 N419 1.427 . S
C412 H403 0.930 1_545 S
C412 C410 1.378 . S
C412 C413 1.367 . S
C413 C412 1.367 . S
C413 C415 1.433 1_554 S
C414 C410 1.350 . S
C414 C411 1.463 . S
C414 N418 1.427 1_554 S
C415 H405 0.929 . S
C415 C413 1.433 1_556 S
C415 N418 1.384 . S
C416 H407 0.929 . S
C416 C408 1.378 . S
C416 C411 1.350 1_556 S
C417 H404 0.929 . S
C417 C409 1.433 . S
C417 N419 1.384 . S
N418 C414 1.427 1_556 S
N418 C415 1.384 . S
N419 C411 1.427 . S
N419 C417 1.384 . S
H420 C426 0.930 . S
H421 C430 0.930 . S
H422 C435 0.929 . S
H423 C433 0.929 . S
H424 C428 0.929 . S
H425 C434 0.929 . S
C426 H420 0.930 . S
C426 C427 1.367 . S
C426 C434 1.378 . S
C427 C426 1.367 . S
C427 C435 1.433 . S
C428 H424 0.929 . S
C428 C430 1.378 . S
C428 C432 1.350 . S
C429 C432 1.463 . S
C429 C434 1.350 . S
C429 N437 1.427 . S
C430 H421 0.930 . S
C430 C428 1.378 . S
C430 C431 1.367 . S
C431 C430 1.367 . S
C431 C433 1.433 . S
C432 C428 1.350 . S
C432 C429 1.463 . S
C432 N436 1.427 . S
C433 H423 0.929 . S
C433 C431 1.433 . S
C433 N436 1.384 . S
C434 H425 0.929 . S
C434 C426 1.378 . S
C434 C429 1.350 . S
C435 H422 0.929 . S
C435 C427 1.433 . S
C435 N437 1.384 . S
N436 C432 1.427 . S
N436 C433 1.384 . S
N437 C429 1.427 . S
N437 C435 1.384 . S
H438 C444 0.930 . S
H439 C448 0.930 . S
H440 C453 0.929 . S
H441 C451 0.929 . S
H442 C446 0.929 . S
H443 C452 0.929 . S
C444 H438 0.930 . S
C444 C445 1.367 . S
C444 C452 1.378 . S
C445 C444 1.367 . S
C445 C453 1.433 . S
C446 H442 0.929 . S
C446 C448 1.378 . S
C446 C450 1.350 . S
C447 C450 1.463 . S
C447 C452 1.350 . S
C447 N455 1.427 . S
C448 H439 0.930 . S
C448 C446 1.378 . S
C448 C449 1.367 . S
C449 C448 1.367 . S
C449 C451 1.433 . S
C450 C446 1.350 . S
C450 C447 1.463 . S
C450 N454 1.427 . S
C451 H441 0.929 . S
C451 C449 1.433 . S
C451 N454 1.384 . S
C452 H443 0.929 . S
C452 C444 1.378 . S
C452 C447 1.350 . S
C453 H440 0.929 . S
C453 C445 1.433 . S
C453 N455 1.384 . S
N454 C450 1.427 . S
N454 C451 1.384 . S
N455 C447 1.427 . S
N455 C453 1.384 . S
H456 C462 0.930 . S
H457 C466 0.930 . S
H458 C471 0.929 . S
H459 C469 0.929 . S
H460 C464 0.929 . S
H461 C470 0.929 . S
C462 H456 0.930 . S
C462 C463 1.367 . S
C462 C470 1.378 . S
C463 C462 1.367 . S
C463 C471 1.433 . S
C464 H460 0.929 . S
C464 C466 1.378 . S
C464 C468 1.350 . S
C465 C468 1.463 . S
C465 C470 1.350 . S
C465 N473 1.427 . S
C466 H457 0.930 . S
C466 C464 1.378 . S
C466 C467 1.367 . S
C467 C466 1.367 . S
C467 C469 1.433 . S
C468 C464 1.350 . S
C468 C465 1.463 . S
C468 N472 1.427 . S
C469 H459 0.929 . S
C469 C467 1.433 . S
C469 N472 1.384 . S
C470 H461 0.929 . S
C470 C462 1.378 . S
C470 C465 1.350 . S
C471 H458 0.929 . S
C471 C463 1.433 . S
C471 N473 1.384 . S
N472 C468 1.427 . S
N472 C469 1.384 . S
N473 C465 1.427 . S
N473 C471 1.384 . S
H474 C480 0.930 . S
H475 C484 0.930 . S
H476 C489 0.929 . S
H477 C487 0.929 . S
H478 C482 0.929 . S
H479 C488 0.929 . S
C480 H474 0.930 . S
C480 C481 1.367 . S
C480 C488 1.378 . S
C481 C480 1.367 . S
C481 C489 1.433 . S
C482 H478 0.929 . S
C482 C484 1.378 . S
C482 C486 1.350 . S
C483 C486 1.463 . S
C483 C488 1.350 . S
C483 N491 1.427 . S
C484 H475 0.930 . S
C484 C482 1.378 . S
C484 C485 1.367 . S
C485 C484 1.367 . S
C485 C487 1.433 . S
C486 C482 1.350 . S
C486 C483 1.463 . S
C486 N490 1.427 . S
C487 H477 0.929 . S
C487 C485 1.433 . S
C487 N490 1.384 . S
C488 H479 0.929 . S
C488 C480 1.378 . S
C488 C483 1.350 . S
C489 H476 0.929 . S
C489 C481 1.433 . S
C489 N491 1.384 . S
N490 C486 1.427 . S
N490 C487 1.384 . S
N491 C483 1.427 . S
N491 C489 1.384 . S
H492 C498 0.930 . S
H493 C502 0.930 . S
H494 C507 0.929 . S
H495 C505 0.929 . S
H496 C500 0.929 . S
H497 C506 0.929 . S
C498 H492 0.930 . S
C498 C499 1.367 . S
C498 C506 1.378 . S
C499 C498 1.367 . S
C499 C507 1.433 . S
C500 H496 0.929 . S
C500 C502 1.378 . S
C500 C504 1.350 . S
C501 C504 1.463 . S
C501 C506 1.350 . S
C501 N509 1.427 . S
C502 H493 0.930 . S
C502 C500 1.378 . S
C502 C503 1.367 . S
C503 C502 1.367 . S
C503 C505 1.433 . S
C504 C500 1.350 . S
C504 C501 1.463 . S
C504 N508 1.427 . S
C505 H495 0.929 . S
C505 C503 1.433 . S
C505 N508 1.384 . S
C506 H497 0.929 . S
C506 C498 1.378 . S
C506 C501 1.350 . S
C507 H494 0.929 . S
C507 C499 1.433 . S
C507 N509 1.384 . S
N508 C504 1.427 . S
N508 C505 1.384 . S
N509 C501 1.427 . S
N509 C507 1.384 . S
H510 C516 0.930 1_545 S
H511 C520 0.930 . S
H512 C525 0.929 . S
H513 C523 0.929 . S
H514 C518 0.929 . S
H515 C524 0.929 . S
C516 H510 0.930 1_565 S
C516 C517 1.367 . S
C516 C524 1.378 . S
C517 C516 1.367 . S
C517 C525 1.433 . S
C518 H514 0.929 . S
C518 C520 1.378 . S
C518 C522 1.350 . S
C519 C522 1.463 . S
C519 C524 1.350 . S
C519 N527 1.427 . S
C520 H511 0.930 . S
C520 C518 1.378 . S
C520 C521 1.367 . S
C521 C520 1.367 . S
C521 C523 1.433 . S
C522 C518 1.350 . S
C522 C519 1.463 . S
C522 N526 1.427 . S
C523 H513 0.929 . S
C523 C521 1.433 . S
C523 N526 1.384 . S
C524 H515 0.929 . S
C524 C516 1.378 . S
C524 C519 1.350 . S
C525 H512 0.929 . S
C525 C517 1.433 . S
C525 N527 1.384 . S
N526 C522 1.427 . S
N526 C523 1.384 . S
N527 C519 1.427 . S
N527 C525 1.384 . S
H528 C534 0.930 . S
H529 C538 0.930 . S
H530 C543 0.929 . S
H531 C541 0.929 . S
H532 C536 0.929 . S
H533 C542 0.929 . S
C534 H528 0.930 . S
C534 C535 1.367 . S
C534 C542 1.378 . S
C535 C534 1.367 . S
C535 C543 1.433 . S
C536 H532 0.929 . S
C536 C538 1.378 . S
C536 C540 1.350 . S
C537 C540 1.463 . S
C537 C542 1.350 . S
C537 N545 1.427 . S
C538 H529 0.930 . S
C538 C536 1.378 . S
C538 C539 1.367 . S
C539 C538 1.367 . S
C539 C541 1.433 . S
C540 C536 1.350 . S
C540 C537 1.463 . S
C540 N544 1.427 . S
C541 H531 0.929 . S
C541 C539 1.433 . S
C541 N544 1.384 . S
C542 H533 0.929 . S
C542 C534 1.378 . S
C542 C537 1.350 . S
C543 H530 0.929 . S
C543 C535 1.433 . S
C543 N545 1.384 . S
N544 C540 1.427 . S
N544 C541 1.384 . S
N545 C537 1.427 . S
N545 C543 1.384 . S
H546 C552 0.930 1_565 S
H547 C556 0.930 . S
H548 C561 0.929 . S
H549 C559 0.929 . S
H550 C554 0.929 . S
H551 C560 0.929 . S
C552 H546 0.930 1_545 S
C552 C553 1.367 . S
C552 C560 1.378 . S
C553 C552 1.367 . S
C553 C561 1.433 . S
C554 H550 0.929 . S
C554 C556 1.378 . S
C554 C558 1.350 . S
C555 C558 1.463 . S
C555 C560 1.350 . S
C555 N563 1.427 . S
C556 H547 0.930 . S
C556 C554 1.378 . S
C556 C557 1.367 . S
C557 C556 1.367 . S
C557 C559 1.433 . S
C558 C554 1.350 . S
C558 C555 1.463 . S
C558 N562 1.427 . S
C559 H549 0.929 . S
C559 C557 1.433 . S
C559 N562 1.384 . S
C560 H551 0.929 . S
C560 C552 1.378 . S
C560 C555 1.350 . S
C561 H548 0.929 . S
C561 C553 1.433 . S
C561 N563 1.384 . S
N562 C558 1.427 . S
N562 C559 1.384 . S
N563 C555 1.427 . S
N563 C561 1.384 . S
C247 C137 0.723 . S
C251 C17 0.733 . S
C265 C177 0.710 . S
C269 C57 0.725 . S
C283 C217 0.730 . S
C287 C97 0.735 . S
C301 C29 0.784 . S
C305 C88 0.770 . S
C319 C69 0.781 . S
C323 C128 0.769 . S
C337 C109 0.811 . S
C341 C168 0.814 . S
C355 C149 0.776 . S
C359 C208 0.788 . S
C373 C189 0.784 . S
C377 C8 0.797 . S
C391 C229 0.814 . S
C395 C48 0.811 . S
C409 C2 1.646 . S
C413 C122 1.651 1_545 S
C427 C42 1.644 . S
C431 C162 1.640 . S
C445 C82 1.642 1_455 S
C449 C202 1.648 . S
C463 C31 4.033 . S
C467 C52 4.060 . S
C481 C71 4.032 . S
C485 C92 4.059 . S
C499 C111 4.035 . S
C503 C132 4.059 . S
C517 C151 4.032 . S
C521 C172 4.059 . S
C535 C191 4.035 . S
C539 C212 4.059 . S
C553 C231 4.034 . S
C557 C12 4.059 . S
