# Generated by pormake.
# Topology sxb, (6)-cn, num edge types: 1
# Building blocks:
#     Node 0, Type 0, BuildingBlock: KUMJIN_clean_sbu_1, # of connection points: 6
#     Node 1, Type 0, BuildingBlock: KUMJIN_clean_sbu_1, # of connection points: 6
#     Node 2, Type 0, BuildingBlock: KUMJIN_clean_sbu_1, # of connection points: 6
#     Node 3, Type 0, BuildingBlock: KUMJIN_clean_sbu_1, # of connection points: 6
#     Edge 4, Type (0, 0), BuildingBlock: XUDNAN_clean_linker_2, # of connection points: 2
#     Edge 5, Type (0, 0), BuildingBlock: XUDNAN_clean_linker_2, # of connection points: 2
#     Edge 6, Type (0, 0), BuildingBlock: XUDNAN_clean_linker_2, # of connection points: 2
#     Edge 7, Type (0, 0), BuildingBlock: XUDNAN_clean_linker_2, # of connection points: 2
#     Edge 8, Type (0, 0), BuildingBlock: XUDNAN_clean_linker_2, # of connection points: 2
#     Edge 9, Type (0, 0), BuildingBlock: XUDNAN_clean_linker_2, # of connection points: 2
#     Edge 10, Type (0, 0), BuildingBlock: XUDNAN_clean_linker_2, # of connection points: 2
#     Edge 11, Type (0, 0), BuildingBlock: XUDNAN_clean_linker_2, # of connection points: 2
#     Edge 12, Type (0, 0), BuildingBlock: XUDNAN_clean_linker_2, # of connection points: 2
#     Edge 13, Type (0, 0), BuildingBlock: XUDNAN_clean_linker_2, # of connection points: 2
#     Edge 14, Type (0, 0), BuildingBlock: XUDNAN_clean_linker_2, # of connection points: 2
#     Edge 15, Type (0, 0), BuildingBlock: XUDNAN_clean_linker_2, # of connection points: 2
# Relax obj value: 0.014
# Max RMSD: 0.058
# Mean RMSD: 0.058
data_MOF--net-sxb--node1-KUMJIN_clean_sbu_1--edge1-XUDNAN_clean_linker_2
_symmetry_space_group_name_H-M    P1
_symmetry_Int_Tables_number       1
_symmetry_cell_setting            triclinic
loop_
_symmetry_equiv_pos_as_xyz
'x, y, z'
_cell_length_a     14.942959
_cell_length_b     47.322837
_cell_length_c     29.624089
_cell_angle_alpha  114.88177
_cell_angle_beta   90.21228
_cell_angle_gamma 89.970516
loop_
_atom_site_label
_atom_site_type_symbol
_atom_site_fract_x
_atom_site_fract_y
_atom_site_fract_z
_atom_type_partial_charge
Eu0 Eu 1.03238 0.9647 0.95473 0.0
C1 C 0.1856 0.09358 0.1197 0.0
N2 N 0.10265 0.081 0.11619 0.0
C3 C 0.10057 0.09609 0.20417 0.0
C4 C 0.22992 0.10767 0.16598 0.0
C5 C 0.05885 0.08269 0.15755 0.0
C6 C 0.18665 0.10851 0.2084 0.0
C7 C 0.31155 0.10581 0.07932 0.0
C8 C 0.22611 0.09267 0.0769 0.0
C9 C 0.35591 0.11983 0.12537 0.0
C10 C 0.3154 0.12064 0.16853 0.0
Eu11 Eu 0.03933 0.05836 0.03578 0.0
N12 N 0.18241 0.07835 0.03265 0.0
C13 C 0.34972 0.10448 0.03534 0.0
C14 C 0.21722 0.07817 0.99003 0.0
C15 C 0.30206 0.0908 0.99058 0.0
H16 H 0.99127 0.07398 0.15464 0.0
H17 H 0.33061 0.09 0.95654 0.0
H18 H 0.97326 0.95131 0.83884 0.0
H19 H 0.84941 0.93944 0.09411 0.0
H20 H 0.18014 0.06772 0.95553 0.0
H21 H 0.41549 0.11418 0.03561 0.0
H22 H 0.98261 0.95027 0.05563 0.0
H23 H 0.06603 0.09707 0.23685 0.0
H24 H 0.4217 0.13004 0.128 0.0
H25 H 0.35054 0.13154 0.20376 0.0
H26 H 0.83969 0.93392 0.78418 0.0
H27 H 0.21858 0.11905 0.24462 0.0
H28 H 0.70455 0.92839 0.04926 0.0
N29 N 0.90983 0.94704 0.89967 0.0
C30 C 0.8349 0.93891 0.91733 0.0
C31 C 0.83749 0.93524 0.82153 0.0
C32 C 0.75694 0.92933 0.8878 0.0
C33 C 0.91284 0.94504 0.85241 0.0
C34 C 0.75907 0.9275 0.83936 0.0
N35 N 0.9118 0.95077 0.99349 0.0
C36 C 0.91888 0.94795 0.03737 0.0
C37 C 0.75806 0.9336 0.98535 0.0
C38 C 0.83539 0.94143 0.96586 0.0
C39 C 0.76245 0.93421 0.03294 0.0
C40 C 0.84387 0.94068 0.05853 0.0
H41 H 0.70047 0.92029 0.81555 0.0
H42 H 0.61826 0.91548 0.88585 0.0
H43 H 0.6194 0.91898 0.97107 0.0
O44 O 0.09024 0.92411 0.9628 0.0
O45 O 0.91642 0.99541 0.9525 0.0
O46 O 0.90676 0.03373 0.03171 0.0
O47 O 0.07399 0.92354 0.88918 0.0
O48 O 0.0795 0.98548 0.03517 0.0
O49 O 0.98662 0.02756 0.07037 0.0
O50 O 0.99709 0.09194 0.00737 0.0
O51 O 0.17271 0.03222 0.02624 0.0
O52 O 0.16449 0.9873 0.95276 0.0
O53 O 0.97634 0.10234 0.08499 0.0
O54 O 1.02026 0.04044 0.95222 0.0
O55 O 0.08075 0.9907 0.91009 0.0
C56 C 0.86885 0.01499 0.98966 0.0
C57 C 0.13891 0.87686 0.89131 0.0
C58 C 0.20097 0.8302 0.89619 0.0
C59 C 0.21633 0.81741 0.84461 0.0
C60 C 0.15496 0.86335 0.83983 0.0
C61 C 0.19328 0.83386 0.81677 0.0
C62 C 0.16154 0.86002 0.9194 0.0
C63 C 0.03925 1.00656 0.07421 0.0
C64 C 0.10039 0.90863 0.91499 0.0
C65 C 0.67914 0.92253 0.90777 0.0
C66 C 0.67966 0.92469 0.95642 0.0
C67 C 0.21013 1.00964 0.98765 0.0
C68 C 0.87901 0.12619 0.04773 0.0
C69 C 0.79828 0.17096 0.04677 0.0
C70 C 0.71761 0.15435 0.04047 0.0
C71 C 0.79803 0.11005 0.0416 0.0
C72 C 0.87885 0.15647 0.0502 0.0
C73 C 0.7177 0.12413 0.038 0.0
C74 C 0.05142 0.01747 0.91187 0.0
C75 C 0.96507 0.11169 0.0498 0.0
H76 H 0.24528 0.79442 0.82559 0.0
H77 H 0.13835 0.87565 0.81726 0.0
H78 H 0.20527 0.82369 0.77707 0.0
H79 H 0.14991 0.87023 0.95918 0.0
H80 H 0.65434 0.16484 0.03815 0.0
H81 H 0.7971 0.08663 0.03939 0.0
H82 H 0.94202 0.16854 0.05397 0.0
H83 H 0.65524 0.1116 0.03329 0.0
Eu84 Eu 1.03255 0.05676 0.52432 0.0
C85 C 0.22134 0.92985 0.41131 0.0
N86 N 0.13978 0.93665 0.39796 0.0
C87 C 0.18264 0.91426 0.31221 0.0
C88 C 0.28791 0.91552 0.37528 0.0
C89 C 0.11893 0.92869 0.34929 0.0
C90 C 0.26767 0.90781 0.32526 0.0
C91 C 0.32296 0.93134 0.47636 0.0
C92 C 0.23865 0.93784 0.46139 0.0
C93 C 0.38999 0.91757 0.44067 0.0
C94 C 0.37247 0.90963 0.39028 0.0
Eu95 Eu 1.038 0.9622 0.46291 0.0
N96 N 0.17311 0.9519 0.49535 0.0
C97 C 0.33697 0.9385 0.52673 0.0
C98 C 0.18403 0.95638 0.54358 0.0
C99 C 0.26658 0.95048 0.56028 0.0
H100 H 0.05312 0.93356 0.33909 0.0
H101 H 0.27545 0.95467 0.59884 0.0
H102 H 0.07356 0.08261 0.64706 0.0
H103 H 0.74528 0.07603 0.42669 0.0
H104 H 0.12873 0.9635 0.56897 0.0
H105 H 0.4008 0.9339 0.53977 0.0
H106 H 0.89476 0.05589 0.43421 0.0
H107 H 0.16623 0.90823 0.27363 0.0
H108 H 0.45538 0.91267 0.45161 0.0
H109 H 0.42474 0.89887 0.36318 0.0
H110 H 0.99537 0.11242 0.72637 0.0
H111 H 0.31706 0.89681 0.29647 0.0
H112 H 0.65819 0.10691 0.50247 0.0
N113 N 0.9653 0.08528 0.60226 0.0
C114 C 0.88297 0.09724 0.60106 0.0
C115 C 0.96289 0.1082 0.69139 0.0
C116 C 0.83688 0.11504 0.64547 0.0
C117 C 1.00655 0.09103 0.64643 0.0
C118 C 0.87757 0.12016 0.69093 0.0
N119 N 0.88979 0.07397 0.51296 0.0
C120 C 0.85661 0.06899 0.4673 0.0
C121 C 0.75981 0.10412 0.55278 0.0
C122 C 0.84467 0.09183 0.55523 0.0
C123 C 0.72348 0.09802 0.50591 0.0
C124 C 0.77233 0.08053 0.46302 0.0
H125 H 0.84417 0.13362 0.72585 0.0
H126 H 0.71591 0.1411 0.67689 0.0
H127 H 0.6489 0.13176 0.59585 0.0
O128 O 0.07586 0.08558 0.48714 0.0
O129 O 0.90067 0.03137 0.52328 0.0
O130 O 0.9067 0.98331 0.45564 0.0
O131 O 0.0924 0.1027 0.56677 0.0
O132 O 0.05037 0.03139 0.44046 0.0
O133 O 0.9858 0.9819 0.40994 0.0
O134 O 0.98623 0.92933 0.49101 0.0
O135 O 0.15547 0.98976 0.4532 0.0
O136 O 0.1661 0.03404 0.52597 0.0
O137 O 0.98354 0.91699 0.41224 0.0
O138 O 0.99959 0.98961 0.54398 0.0
O139 O 0.08969 0.03287 0.56962 0.0
C140 C 0.86191 1.00708 0.48791 0.0
C141 C 0.19062 0.12251 0.52423 0.0
C142 C 0.27083 0.16695 0.52168 0.0
C143 C 0.35121 0.15009 0.51435 0.0
C144 C 0.2714 0.10617 0.51712 0.0
C145 C 0.35131 0.11997 0.51225 0.0
C146 C 0.19063 0.15279 0.52656 0.0
C147 C 1.01595 1.00644 0.40428 0.0
C148 C 0.10502 0.10823 0.52776 0.0
C149 C 0.75226 0.12734 0.64315 0.0
C150 C 0.71411 0.12205 0.59698 0.0
C151 C 0.20331 0.01192 0.48696 0.0
C152 C 1.0059 0.87607 0.43756 0.0
C153 C 0.99894 0.82874 0.45183 0.0
C154 C 0.07634 0.81781 0.42281 0.0
C155 C 0.08267 0.86438 0.40839 0.0
C156 C 0.96354 0.85795 0.45885 0.0
C157 C 0.11749 0.83547 0.40114 0.0
C158 C 0.04113 0.01304 0.57917 0.0
C159 C 0.97113 0.90732 0.44691 0.0
H160 H 0.41416 0.16035 0.51094 0.0
H161 H 0.27249 0.08279 0.51507 0.0
H162 H 0.4136 0.10728 0.50682 0.0
H163 H 0.12768 0.16511 0.53131 0.0
H164 H 0.10459 0.79536 0.41644 0.0
H165 H 0.11592 0.87751 0.39108 0.0
H166 H 0.90443 0.86681 0.48157 0.0
H167 H 0.17677 0.82672 0.37865 0.0
Eu168 Eu 0.49352 0.46149 0.97476 0.0
C169 C 0.70956 0.58024 0.045 0.0
N170 N 0.63564 0.57708 0.0691 0.0
C171 C 0.71418 0.59894 0.14697 0.0
C172 C 0.79006 0.59211 0.07104 0.0
C173 C 0.63597 0.58687 0.11952 0.0
C174 C 0.79183 0.60128 0.12258 0.0
C175 C 0.77765 0.57687 0.96882 0.0
C176 C 0.70365 0.57216 0.99431 0.0
C177 C 0.85946 0.58708 0.99397 0.0
C178 C 0.86567 0.59465 0.04498 0.0
Eu179 Eu 0.50775 0.555 0.01958 0.0
N180 N 0.62362 0.56226 0.97093 0.0
C181 C 0.76577 0.57285 0.91961 0.0
C182 C 0.60911 0.56236 0.92551 0.0
C183 C 0.68032 0.56664 0.89848 0.0
H184 H 0.57611 0.58485 0.13827 0.0
H185 H 0.66897 0.5655 0.86164 0.0
H186 H 0.54114 0.42949 0.85222 0.0
H187 H 0.19748 0.44896 0.07211 0.0
H188 H 0.54244 0.55933 0.91002 0.0
H189 H 0.82076 0.57633 0.89875 0.0
H190 H 0.34945 0.46712 0.06483 0.0
H191 H 0.7147 0.60626 0.18685 0.0
H192 H 0.91743 0.59026 0.97473 0.0
H193 H 0.92861 0.60319 0.06416 0.0
H194 H 0.46564 0.39722 0.7729 0.0
H195 H 0.85245 0.61047 0.1439 0.0
H196 H 0.11238 0.4161 0.99627 0.0
N197 N 0.42934 0.42994 0.89677 0.0
C198 C 0.34558 0.419 0.89788 0.0
C199 C 0.43097 0.40332 0.80777 0.0
C200 C 0.30073 0.39994 0.85348 0.0
C201 C 0.47313 0.42193 0.85276 0.0
C202 C 0.34428 0.39238 0.80809 0.0
N203 N 0.34873 0.44568 0.98579 0.0
C204 C 0.31263 0.45298 0.03157 0.0
C205 C 0.21799 0.41565 0.94606 0.0
C206 C 0.30455 0.42674 0.94364 0.0
C207 C 0.17898 0.42403 0.99286 0.0
C208 C 0.22674 0.44263 0.03578 0.0
H209 H 0.31199 0.37785 0.77317 0.0
H210 H 0.17888 0.37423 0.82201 0.0
H211 H 0.10675 0.38785 0.903 0.0
O212 O 0.54253 0.43841 0.02025 0.0
O213 O 0.36456 0.48659 0.96963 0.0
O214 O 0.37258 0.53721 0.03018 0.0
O215 O 0.54471 0.41381 0.94022 0.0
O216 O 0.49856 0.49081 0.05858 0.0
O217 O 0.4564 0.54259 0.08086 0.0
O218 O 0.44041 0.58742 0.99524 0.0
O219 O 0.61803 0.52836 0.03907 0.0
O220 O 0.62906 0.48219 0.97039 0.0
O221 O 0.47469 0.60252 0.07237 0.0
O222 O 0.47107 0.52233 0.93912 0.0
O223 O 0.56009 0.48012 0.92501 0.0
C224 C 0.32682 0.51219 0.00218 0.0
C225 C 0.65726 0.40153 0.98526 0.0
C226 C 0.75445 0.36644 0.00449 0.0
C227 C 0.82941 0.38114 0.99515 0.0
C228 C 0.73296 0.41567 0.97578 0.0
C229 C 0.81853 0.40549 0.98073 0.0
C230 C 0.66816 0.37673 -0.00081 0.0
C231 C 0.47286 0.51857 0.09147 0.0
C232 C 0.56701 0.41314 0.98229 0.0
C233 C 0.21436 0.38889 0.85575 0.0
C234 C 0.17328 0.39662 0.90189 0.0
C235 C 0.6666 0.5054 0.00781 0.0
C236 C 0.48138 0.6402 0.03929 0.0
C237 C 0.4618 0.68719 0.02491 0.0
C238 C 0.55234 0.69464 0.03744 0.0
C239 C 0.57137 0.64833 0.05179 0.0
C240 C 0.42657 0.65983 0.02611 0.0
C241 C 0.60645 0.67536 0.05085 0.0
C242 C 0.51875 0.49851 0.90891 0.0
C243 C 0.44512 0.61095 0.03857 0.0
H244 H 0.89656 0.3736 0.9986 0.0
H245 H 0.72592 0.4346 0.96469 0.0
H246 H 0.87664 0.41658 0.97353 0.0
H247 H 0.60973 0.36596 0.00695 0.0
H248 H 0.58117 0.71566 0.03749 0.0
H249 H 0.6147 0.63386 0.06238 0.0
H250 H 0.35723 0.65352 0.016 0.0
H251 H 0.67592 0.68142 0.06061 0.0
Eu252 Eu 0.55339 0.55539 0.54419 0.0
C253 C 0.74026 0.43099 0.40313 0.0
N254 N 0.65472 0.43693 0.39416 0.0
C255 C 0.6847 0.41669 0.30678 0.0
C256 C 0.80255 0.41841 0.36404 0.0
C257 C 0.62559 0.42935 0.34682 0.0
C258 C 0.77387 0.4115 0.31547 0.0
C259 C 0.85336 0.43105 0.4621 0.0
C260 C 0.76538 0.43742 0.45162 0.0
C261 C 0.91641 0.41941 0.42355 0.0
C262 C 0.89102 0.41306 0.37462 0.0
Eu263 Eu 0.56153 0.46099 0.4641 0.0
N264 N 0.70327 0.44925 0.48834 0.0
C265 C 0.8747 0.43593 0.51085 0.0
C266 C 0.72128 0.45087 0.53443 0.0
C267 C 0.80771 0.44516 0.54691 0.0
H268 H 0.55633 0.43269 0.33996 0.0
H269 H 0.82208 0.44728 0.58404 0.0
H270 H 0.64661 0.56998 0.65535 0.0
H271 H 0.23521 0.59582 0.50206 0.0
H272 H 0.66854 0.45529 0.56094 0.0
H273 H 0.94148 0.43134 0.52048 0.0
H274 H 0.38501 0.57132 0.48369 0.0
H275 H 0.66142 0.41084 0.26926 0.0
H276 H 0.98458 0.41475 0.43104 0.0
H277 H 0.94007 0.40372 0.34516 0.0
H278 H 0.60053 0.59031 0.74347 0.0
H279 H 0.8196 0.40177 0.28439 0.0
H280 H 0.1766 0.61676 0.588 0.0
N281 N 0.51911 0.5772 0.62993 0.0
C282 C 0.43574 0.58934 0.64266 0.0
C283 C 0.55344 0.59008 0.71547 0.0
C284 C 0.40738 0.60198 0.69264 0.0
C285 C 0.57904 0.57834 0.66553 0.0
C286 C 0.46696 0.60172 0.72906 0.0
N287 N 0.40917 0.57781 0.55807 0.0
C288 C 0.35971 0.58048 0.52119 0.0
C289 C 0.29456 0.60411 0.61799 0.0
C290 C 0.37967 0.59016 0.60582 0.0
C291 C 0.24207 0.60597 0.58006 0.0
C292 C 0.27501 0.59425 0.53151 0.0
H293 H 0.44752 0.61102 0.76783 0.0
H294 H 0.2982 0.6246 0.7429 0.0
H295 H 0.19968 0.62668 0.67757 0.0
O296 O 0.61011 0.58234 0.50643 0.0
O297 O 0.41932 0.52955 0.53554 0.0
O298 O 0.4262 0.48223 0.46547 0.0
O299 O 0.61024 0.60166 0.58665 0.0
O300 O 0.53228 0.53798 0.46088 0.0
O301 O 0.51254 0.48412 0.41482 0.0
O302 O 0.53226 0.42262 0.48456 0.0
O303 O 0.67107 0.49227 0.45612 0.0
O304 O 0.68628 0.53011 0.53515 0.0
O305 O 0.49526 0.41852 0.41172 0.0
O306 O 0.52541 0.48251 0.5468 0.0
O307 O 0.61904 0.52409 0.57392 0.0
C308 C 0.38166 0.50583 0.49835 0.0
C309 C 0.6011 0.63729 0.54986 0.0
C310 C 0.64057 0.68563 0.54292 0.0
C311 C 0.55218 0.69611 0.55599 0.0
C312 C 0.51379 0.64846 0.5632 0.0
C313 C 0.4895 0.67761 0.56593 0.0
C314 C 0.66419 0.65589 0.53963 0.0
C315 C 0.51518 0.51319 0.41913 0.0
C316 C 0.62776 0.60667 0.54762 0.0
C317 C 0.32134 0.61493 0.70475 0.0
C318 C 0.26524 0.61612 0.66755 0.0
C319 C 0.72106 0.51232 0.49177 0.0
C320 C 0.39965 0.39512 0.4502 0.0
C321 C 0.30769 0.36113 0.47481 0.0
C322 C 0.23082 0.37658 0.46923 0.0
C323 C 0.32177 0.41018 0.44509 0.0
C324 C 0.39222 0.37042 0.46474 0.0
C325 C 0.23797 0.40083 0.45436 0.0
C326 C 0.56925 0.50451 0.58304 0.0
C327 C 0.48884 0.40633 0.44365 0.0
H328 H 0.53181 0.71895 0.55973 0.0
H329 H 0.46464 0.63489 0.57208 0.0
H330 H 0.422 0.68608 0.57644 0.0
H331 H 0.73153 0.64712 0.52913 0.0
H332 H 0.16488 0.3698 0.47619 0.0
H333 H 0.32563 0.42937 0.43436 0.0
H334 H 0.45223 0.35911 0.46963 0.0
H335 H 0.1783 0.41259 0.45038 0.0
H336 H 0.50526 0.71385 0.96177 0.0
H337 H 0.29135 0.70814 0.05611 0.0
H338 H 0.20217 0.74559 0.03606 0.0
H339 H 0.48536 0.79541 0.99286 0.0
H340 H 0.50895 0.79112 0.93068 0.0
H341 H 0.55492 0.76385 0.95237 0.0
H342 H 0.48295 0.71802 0.87746 0.0
H343 H 0.4373 0.74511 0.85534 0.0
H344 H 0.36432 0.71841 0.86646 0.0
H345 H 0.13852 0.78541 0.00695 0.0
H346 H 0.10114 0.81995 0.96571 0.0
H347 H 0.35733 0.79868 0.89052 0.0
C348 C 0.43973 0.72053 0.97836 0.0
C349 C 0.40541 0.70818 0.01073 0.0
C350 C 0.31872 0.71713 0.03096 0.0
C351 C 0.26793 0.73856 0.02006 0.0
C352 C 0.3045 0.75066 0.98859 0.0
C353 C 0.38814 0.74166 0.96766 0.0
C354 C 0.41189 0.75744 0.9342 0.0
C355 C 0.49521 0.77819 0.95371 0.0
C356 C 0.42484 0.73331 0.88017 0.0
C357 C 0.32862 0.77679 0.93946 0.0
C358 C 0.26759 0.77284 0.97129 0.0
C359 C 0.18584 0.78857 0.9819 0.0
C360 C 0.16539 0.80831 0.95861 0.0
C361 C 0.22608 0.81192 0.92478 0.0
C362 C 0.30912 0.79618 0.91581 0.0
H363 H 0.67185 0.30902 0.96792 0.0
H364 H 0.86707 0.366 0.0769 0.0
H365 H 0.89508 0.32296 0.10151 0.0
H366 H 0.58196 0.2693 0.04035 0.0
H367 H 0.56991 0.23246 0.98699 0.0
H368 H 0.56153 0.2683 0.97967 0.0
H369 H 0.68696 0.24953 0.91342 0.0
H370 H 0.69579 0.21369 0.92058 0.0
H371 H 0.7933 0.2378 0.92887 0.0
H372 H 0.90521 0.2735 0.1128 0.0
H373 H 0.89859 0.22056 0.10932 0.0
H374 H 0.69973 0.19468 0.99143 0.0
C375 C 0.7195 0.31252 0.99745 0.0
C376 C 0.76722 0.34087 0.02061 0.0
C377 C 0.83023 0.34441 0.05848 0.0
C378 C 0.8463 0.32016 0.07285 0.0
C379 C 0.79906 0.29239 0.0489 0.0
C380 C 0.737 0.28838 0.01197 0.0
C381 C 0.69824 0.25568 0.99082 0.0
C382 C 0.59689 0.2565 2e-05 0.0
C383 C 0.71989 0.23815 0.93513 0.0
C384 C 0.74841 0.24196 0.02153 0.0
C385 C 0.8059 0.2636 0.05493 0.0
C386 C 0.86048 0.25633 0.08677 0.0
C387 C 0.85667 0.22609 0.08425 0.0
C388 C 0.79901 0.20329 0.04996 0.0
C389 C 0.74378 0.21158 0.01847 0.0
H390 H 0.36321 0.18957 0.46318 0.0
H391 H 0.17691 0.21739 0.58644 0.0
H392 H 0.17152 0.27038 0.5899 0.0
H393 H 0.48643 0.26307 0.50766 0.0
H394 H 0.50017 0.26151 0.44622 0.0
H395 H 0.49208 0.22595 0.45441 0.0
H396 H 0.35927 0.20797 0.39223 0.0
H397 H 0.36696 0.24343 0.38383 0.0
H398 H 0.26272 0.23281 0.403 0.0
H399 H 0.18194 0.3198 0.57836 0.0
H400 H 0.20636 0.36223 0.55205 0.0
H401 H 0.38732 0.30309 0.43679 0.0
C402 C 0.32223 0.20692 0.49135 0.0
C403 C 0.27027 0.1992 0.5245 0.0
C404 C 0.21639 0.22253 0.56023 0.0
C405 C 0.21338 0.2528 0.56273 0.0
C406 C 0.26478 0.25953 0.52932 0.0
C407 C 0.3183 0.2373 0.49432 0.0
C408 C 0.36475 0.25044 0.46178 0.0
C409 C 0.46693 0.25023 0.4679 0.0
C410 C 0.33672 0.2326 0.40697 0.0
C411 C 0.32839 0.28344 0.4837 0.0
C412 C 0.27104 0.28816 0.52273 0.0
C413 C 0.22693 0.31639 0.54796 0.0
C414 C 0.24094 0.34031 0.5326 0.0
C415 C 0.2986 0.33599 0.49232 0.0
C416 C 0.3437 0.30722 0.46805 0.0
H417 H 0.82242 0.81079 0.44755 0.0
H418 H 0.0821 0.80225 0.50641 0.0
H419 H 1.01821 0.76575 0.53761 0.0
H420 H 0.68753 0.80575 0.54764 0.0
H421 H 0.60075 0.78304 0.50565 0.0
H422 H 0.66535 0.81029 0.4912 0.0
H423 H 0.70852 0.76601 0.40628 0.0
H424 H 0.64469 0.7386 0.42063 0.0
H425 H 0.76136 0.73134 0.4047 0.0
H426 H 0.92832 0.72833 0.55901 0.0
H427 H 0.81751 0.69357 0.57116 0.0
H428 H 0.61657 0.72473 0.49594 0.0
C429 C 0.86519 0.80168 0.46789 0.0
C430 C 0.95718 0.80941 0.47474 0.0
C431 C 1.01155 0.79655 0.50066 0.0
C432 C 0.97584 0.77585 0.51857 0.0
C433 C 0.88549 0.7681 0.51022 0.0
C434 C 0.83067 0.78069 0.4857 0.0
C435 C 0.73673 0.76739 0.47985 0.0
C436 C 0.66857 0.79316 0.50776 0.0
C437 C 0.71138 0.74979 0.42458 0.0
C438 C 0.74766 0.74523 0.50452 0.0
C439 C 0.8339 0.74611 0.52194 0.0
C440 C 0.8605 0.72745 0.54554 0.0
C441 C 0.79717 0.70751 0.55183 0.0
C442 C 0.70806 0.70617 0.53442 0.0
C443 C 0.68362 0.72536 0.5103 0.0
H444 H 0.34533 0.02927 0.0585 0.0
H445 H 0.29512 0.99265 0.89959 0.0
H446 H 0.45683 0.99365 0.88446 0.0
H447 H 0.53233 0.07959 0.06432 0.0
H448 H 0.59726 0.07058 0.10796 0.0
H449 H 0.47693 0.06871 0.1087 0.0
H450 H 0.48168 1.01169 0.09748 0.0
H451 H 0.60215 0.01327 0.09838 0.0
H452 H 0.54468 0.98341 0.04674 0.0
H453 H 0.62174 0.99728 0.88537 0.0
H454 H 0.78352 1.00037 0.90175 0.0
H455 H 0.73325 0.03232 0.05975 0.0
C456 C 0.3687 0.0217 0.02064 0.0
C457 C 0.30776 1.01084 0.98013 0.0
C458 C 0.34064 1.00079 0.93107 0.0
C459 C 0.43233 1.00147 0.92212 0.0
C460 C 0.49078 0.01195 0.96257 0.0
C461 C 0.46083 0.02162 0.01086 0.0
C462 C 0.53937 0.02981 0.04701 0.0
C463 C 0.53626 0.06424 0.08418 0.0
C464 C 0.54209 1.00826 0.07399 0.0
C465 C 0.61762 0.02345 0.01145 0.0
C466 C 0.5875 0.01335 0.963 0.0
C467 C 0.64614 1.00525 0.92317 0.0
C468 C 0.7381 1.00702 0.93289 0.0
C469 C 0.77117 0.01646 0.98196 0.0
C470 C 0.70993 0.02527 0.0219 0.0
H471 H 0.33892 0.03707 0.55686 0.0
H472 H 0.28955 0.98541 0.39861 0.0
H473 H 0.45062 0.98123 0.38283 0.0
H474 H 0.53967 0.0798 0.54676 0.0
H475 H 0.59393 0.07606 0.59853 0.0
H476 H 0.47371 0.07725 0.59575 0.0
H477 H 0.46987 0.02496 0.60502 0.0
H478 H 0.59036 0.02355 0.60526 0.0
H479 H 0.52754 0.99155 0.56011 0.0
H480 H 0.61411 0.97986 0.38311 0.0
H481 H 0.77566 0.98129 0.39951 0.0
H482 H 0.72763 0.0341 0.55759 0.0
C483 C 0.3623 0.02544 0.51888 0.0
C484 C 0.30115 1.01184 0.47886 0.0
C485 C 0.33444 0.99621 0.42983 0.0
C486 C 0.4262 0.9937 0.42041 0.0
C487 C 0.48464 1.00697 0.46043 0.0
C488 C 0.45465 0.02254 0.50872 0.0
C489 C 0.53318 0.03304 0.54485 0.0
C490 C 0.53523 0.06868 0.5731 0.0
C491 C 0.53004 0.01734 0.58094 0.0
C492 C 0.61153 0.02108 0.50909 0.0
C493 C 0.58115 1.00604 0.46064 0.0
C494 C 0.63902 0.9917 0.42082 0.0
C495 C 0.7307 0.99249 0.4306 0.0
C496 C 0.76422 1.00764 0.47979 0.0
C497 C 0.70381 0.0225 0.51958 0.0
H498 H 0.8009 0.4822 0.93764 0.0
H499 H 0.75425 0.52956 0.09648 0.0
H500 H 0.91705 0.53541 0.11157 0.0
H501 H 1.00466 0.43988 0.94536 0.0
H502 H 0.05652 0.44431 0.89386 0.0
H503 H 0.93639 0.44256 0.89702 0.0
H504 H 0.92784 0.49541 0.8896 0.0
H505 H 0.0482 0.49723 0.88829 0.0
H506 H 0.98623 0.52876 0.93454 0.0
H507 H 0.08293 0.53975 0.10958 0.0
H508 H 0.24407 0.53883 0.09137 0.0
H509 H 0.18894 0.48579 0.93408 0.0
C510 C 0.82528 0.4933 0.97559 0.0
C511 C 0.76485 0.50574 0.01597 0.0
C512 C 0.7992 0.52029 0.06502 0.0
C513 C 0.89164 0.52361 0.07396 0.0
C514 C 0.94944 0.51188 0.03345 0.0
C515 C 0.91798 0.49666 0.98524 0.0
C516 C 0.99526 0.48686 0.94852 0.0
C517 C 0.99835 0.45127 0.91948 0.0
C518 C 0.98899 0.50303 0.91315 0.0
C519 C 0.07489 0.49886 0.98367 0.0
C520 C 0.04636 0.51352 0.03244 0.0
C521 C 0.10617 0.52804 0.07162 0.0
C522 C 0.19758 0.52757 0.06086 0.0
C523 C 0.22909 0.51228 0.01139 0.0
C524 C 0.16678 0.49746 0.9723 0.0
H525 H 0.24374 0.52799 0.56749 0.0
H526 H 0.29845 0.48444 0.40901 0.0
H527 H 0.1373 0.48326 0.39104 0.0
H528 H 0.04497 0.48201 0.55852 0.0
H529 H 0.98434 0.51298 0.60656 0.0
H530 H 0.10487 0.51229 0.60843 0.0
H531 H 0.11157 0.56766 0.61139 0.0
H532 H 0.99114 0.56878 0.61024 0.0
H533 H 0.05451 0.57546 0.56402 0.0
H534 H 0.97182 0.48651 0.38905 0.0
H535 H 0.80917 0.49172 0.40349 0.0
H536 H 0.85568 0.53091 0.56295 0.0
C537 C 0.22149 0.51845 0.52911 0.0
C538 C 0.28382 0.50632 0.48961 0.0
C539 C 0.2521 0.49368 0.43986 0.0
C540 C 0.1606 0.49301 0.42921 0.0
C541 C 0.10082 0.50482 0.46869 0.0
C542 C 0.12944 0.51709 0.51767 0.0
C543 C 0.04967 0.52668 0.55273 0.0
C544 C 0.04574 0.50734 0.58338 0.0
C545 C 0.05194 0.56174 0.5866 0.0
C546 C 0.97249 0.51851 0.51574 0.0
C547 C 1.00395 0.50593 0.46749 0.0
C548 C 0.94632 0.49633 0.42668 0.0
C549 C 0.85392 0.49935 0.43527 0.0
C550 C 0.81947 0.51166 0.48427 0.0
C551 C 0.8799 0.52166 0.52505 0.0
H552 H 0.89934 0.01776 0.34179 0.0
H553 H 0.16991 0.98918 0.3544 0.0
H554 H 0.20521 0.98571 0.27096 0.0
H555 H 0.86985 0.97029 0.20903 0.0
H556 H 0.80928 0.99988 0.1984 0.0
H557 H 0.8036 0.99846 0.25816 0.0
H558 H 0.85729 0.05587 0.30086 0.0
H559 H 0.86374 0.05737 0.24117 0.0
H560 H 0.96066 0.06679 0.28124 0.0
H561 H 0.21145 0.98531 0.18719 0.0
H562 H 0.18963 0.98923 0.10732 0.0
H563 H 0.91734 0.02092 0.14951 0.0
C564 C 0.96545 1.01045 0.32644 0.0
C565 C 1.03198 1.00304 0.35355 0.0
C566 C 0.11832 0.99431 0.33338 0.0
C567 C 0.13884 0.99241 0.28623 0.0
C568 C 0.07232 0.99993 0.26022 0.0
C569 C 0.98746 1.00893 0.27947 0.0
C570 C 0.92983 0.01688 0.24419 0.0
C571 C 0.84832 0.99507 0.2264 0.0
C572 C 0.9012 0.05127 0.26832 0.0
C573 C 0.9955 1.01076 0.20223 0.0
C574 C 0.0771 1.00087 0.21227 0.0
C575 C 0.14802 0.99314 0.17887 0.0
C576 C 0.13504 0.99537 0.1337 0.0
C577 C 0.05224 1.0056 0.12275 0.0
C578 C 0.98174 0.01351 0.15751 0.0
H579 H 0.17237 1.00965 0.838 0.0
H580 H 0.89465 0.03082 0.88044 0.0
H581 H 0.86225 0.03339 0.80044 0.0
H582 H 0.18863 0.06331 0.77826 0.0
H583 H 0.26271 0.03837 0.73007 0.0
H584 H 0.26396 0.03748 0.79029 0.0
H585 H 0.2338 0.97792 0.74889 0.0
H586 H 0.23366 0.97884 0.68879 0.0
H587 H 0.1387 0.96317 0.70797 0.0
H588 H 0.85735 0.02914 0.71371 0.0
H589 H 0.88367 0.0236 0.62787 0.0
H590 H 0.16777 0.01259 0.64554 0.0
C591 C 0.10501 0.01483 0.83014 0.0
C592 C 1.0355 0.0197 0.86464 0.0
C593 C 0.94831 0.02689 0.85401 0.0
C594 C 0.92939 0.02841 0.80883 0.0
C595 C 0.99913 0.02354 0.77538 0.0
C596 C 0.08554 0.01747 0.78574 0.0
C597 C 0.14845 0.01416 0.74381 0.0
C598 C 0.22018 0.03987 0.76169 0.0
C599 C 0.19112 0.98158 0.72102 0.0
C600 C 0.08345 0.01858 0.7079 0.0
C601 C 0.99746 0.02359 0.7267 0.0
C602 C 0.92454 0.0258 0.69888 0.0
C603 C 0.93989 0.02255 0.65034 0.0
C604 C 1.02752 0.018 0.6309 0.0
C605 C 0.10036 0.01654 0.66021 0.0
H606 H 0.51272 0.47136 0.31986 0.0
H607 H 0.47572 0.56926 0.41716 0.0
H608 H 0.44946 0.5803 0.34433 0.0
H609 H 0.63843 0.48481 0.22973 0.0
H610 H 0.59308 0.45201 0.17722 0.0
H611 H 0.59927 0.45102 0.23723 0.0
H612 H 0.4291 0.43982 0.23358 0.0
H613 H 0.42229 0.44085 0.17354 0.0
H614 H 0.3518 0.46594 0.22364 0.0
H615 H 0.43215 0.58139 0.26098 0.0
H616 H 0.43469 0.57287 0.17302 0.0
H617 H 0.49299 0.47489 0.12954 0.0
C618 C 0.49793 0.495 0.3261 0.0
C619 C 0.49512 0.5192 0.37471 0.0
C620 C 0.47708 0.55004 0.38064 0.0
C621 C 0.46207 0.55665 0.33936 0.0
C622 C 0.46634 0.5323 0.29211 0.0
C623 C 0.48452 0.50212 0.28518 0.0
C624 C 0.49222 0.48067 0.2303 0.0
C625 C 0.58634 0.46629 0.21791 0.0
C626 C 0.41949 0.45532 0.21434 0.0
C627 C 0.47605 0.50359 0.20762 0.0
C628 C 0.46016 0.53316 0.24391 0.0
C629 C 0.44452 0.55832 0.23217 0.0
C630 C 0.44625 0.55322 0.182 0.0
C631 C 0.46476 0.52326 0.1441 0.0
C632 C 0.47884 0.49813 0.15738 0.0
H633 H 0.43434 0.50349 0.64488 0.0
H634 H 0.72296 0.50514 0.63224 0.0
H635 H 0.73986 0.49981 0.71125 0.0
H636 H 0.44073 0.5536 0.7786 0.0
H637 H 0.34404 0.53558 0.79167 0.0
H638 H 0.35515 0.53667 0.73187 0.0
H639 H 0.33731 0.47649 0.68903 0.0
H640 H 0.32798 0.47531 0.74885 0.0
H641 H 0.41244 0.4525 0.70557 0.0
H642 H 0.7249 0.48883 0.78642 0.0
H643 H 0.68203 0.48747 0.8659 0.0
H644 H 0.40487 0.50348 0.83946 0.0
C645 C 0.50081 0.50236 0.65873 0.0
C646 C 0.5775 0.50318 0.63166 0.0
C647 C 0.66361 0.50344 0.65184 0.0
C648 C 0.67382 0.50041 0.69656 0.0
C649 C 0.59708 0.49879 0.72185 0.0
C650 C 0.5123 0.50105 0.70484 0.0
C651 C 0.44174 0.50252 0.74246 0.0
C652 C 0.3925 0.53396 0.76232 0.0
C653 C 0.37599 0.47506 0.72012 0.0
C654 C 0.50005 0.49968 0.78239 0.0
C655 C 0.58922 0.49673 0.76895 0.0
C656 C 0.65557 0.49173 0.7979 0.0
C657 C 0.63053 0.4907 0.84266 0.0
C658 C 0.54057 0.49584 0.85883 0.0
C659 C 0.47431 0.50004 0.8281 0.0
loop_
_geom_bond_atom_site_label_1
_geom_bond_atom_site_label_2
_geom_bond_distance
_geom_bond_site_symmetry_2
_ccdc_geom_bond_type
Eu0 N29 2.600 . S
Eu0 N35 2.562 . S
Eu0 O44 2.462 1_655 S
Eu0 O45 2.373 . S
Eu0 O47 2.432 1_655 S
Eu0 O48 2.291 1_556 S
Eu0 O52 2.335 1_655 S
Eu0 O55 2.372 1_655 S
Eu0 C64 2.787 1_655 S
C1 N2 1.365 . S
C1 C4 1.405 . S
C1 C8 1.448 . S
N2 C1 1.365 . S
N2 C5 1.319 . S
N2 Eu11 2.600 . S
C3 C5 1.397 . S
C3 C6 1.367 . S
C3 H23 0.931 . S
C4 C1 1.405 . S
C4 C6 1.403 . S
C4 C10 1.439 . S
C5 N2 1.319 . S
C5 C3 1.397 . S
C5 H16 0.930 . S
C6 C3 1.367 . S
C6 C4 1.403 . S
C6 H27 0.929 . S
C7 C8 1.430 . S
C7 C9 1.387 . S
C7 C13 1.404 . S
C8 C1 1.448 . S
C8 C7 1.430 . S
C8 N12 1.351 . S
C9 C7 1.387 . S
C9 C10 1.374 . S
C9 H24 0.931 . S
C10 C4 1.439 . S
C10 C9 1.374 . S
C10 H25 0.931 . S
Eu11 N2 2.600 . S
Eu11 N12 2.562 . S
Eu11 O46 2.335 1_455 S
Eu11 O49 2.372 1_455 S
Eu11 O50 2.462 1_455 S
Eu11 O51 2.373 . S
Eu11 O53 2.432 1_455 S
Eu11 O54 2.291 1_554 S
Eu11 C75 2.787 1_455 S
N12 C8 1.351 . S
N12 Eu11 2.562 . S
N12 C14 1.325 1_554 S
C13 C7 1.404 . S
C13 C15 1.366 1_554 S
C13 H21 0.930 1_554 S
C14 N12 1.325 1_556 S
C14 C15 1.416 . S
C14 H20 0.929 . S
C15 C13 1.366 1_556 S
C15 C14 1.416 . S
C15 H17 0.930 . S
H16 C5 0.930 . S
H17 C15 0.930 . S
H18 C33 0.930 . S
H19 C40 0.930 . S
H20 C14 0.929 . S
H21 C13 0.930 1_556 S
H22 C36 0.929 . S
H23 C3 0.931 . S
H24 C9 0.931 . S
H25 C10 0.931 . S
H26 C31 0.931 . S
H27 C6 0.929 . S
H28 C39 0.930 1_554 S
N29 Eu0 2.600 . S
N29 C30 1.365 . S
N29 C33 1.319 . S
C30 N29 1.365 . S
C30 C32 1.405 . S
C30 C38 1.448 . S
C31 H26 0.931 . S
C31 C33 1.397 . S
C31 C34 1.367 . S
C32 C30 1.405 . S
C32 C34 1.403 . S
C32 C65 1.439 . S
C33 H18 0.930 . S
C33 N29 1.319 . S
C33 C31 1.397 . S
C34 C31 1.367 . S
C34 C32 1.403 . S
C34 H41 0.929 . S
N35 Eu0 2.562 . S
N35 C36 1.325 1_556 S
N35 C38 1.351 . S
C36 H22 0.929 . S
C36 N35 1.325 1_554 S
C36 C40 1.416 . S
C37 C38 1.430 . S
C37 C39 1.404 . S
C37 C66 1.387 . S
C38 C30 1.448 . S
C38 N35 1.351 . S
C38 C37 1.430 . S
C39 H28 0.930 1_556 S
C39 C37 1.404 . S
C39 C40 1.366 1_556 S
C40 H19 0.930 . S
C40 C36 1.416 . S
C40 C39 1.366 1_554 S
H41 C34 0.929 . S
H42 C65 0.931 . S
H43 C66 0.931 . S
O44 Eu0 2.462 1_455 S
O44 C64 1.252 . S
O45 Eu0 2.373 . S
O45 C56 1.249 1_565 S
O46 Eu11 2.335 1_655 S
O46 C56 1.264 1_554 S
O47 Eu0 2.432 1_455 S
O47 C64 1.268 . S
O48 Eu0 2.291 1_554 S
O48 C63 1.255 1_565 S
O49 Eu11 2.372 1_655 S
O49 C63 1.257 . S
O50 Eu11 2.462 1_655 S
O50 C75 1.252 . S
O51 Eu11 2.373 . S
O51 C67 1.249 1_545 S
O52 Eu0 2.335 1_455 S
O52 C67 1.264 1_556 S
O53 Eu11 2.432 1_655 S
O53 C75 1.268 . S
O54 Eu11 2.291 1_556 S
O54 C74 1.255 1_545 S
O55 Eu0 2.372 1_455 S
O55 C74 1.257 . S
C56 O45 1.249 1_545 S
C56 O46 1.264 1_556 S
C57 C60 1.382 . S
C57 C62 1.390 . S
C57 C64 1.506 . S
C58 C59 1.398 . S
C58 C62 1.392 . S
C59 C58 1.398 . S
C59 C61 1.372 . S
C59 H76 0.931 . S
C60 C57 1.382 . S
C60 C61 1.390 . S
C60 H77 0.931 . S
C61 C59 1.372 . S
C61 C60 1.390 . S
C61 H78 0.929 . S
C62 C57 1.390 . S
C62 C58 1.392 . S
C62 H79 0.930 1_556 S
C63 O48 1.255 1_545 S
C63 O49 1.257 . S
C64 Eu0 2.787 1_455 S
C64 O44 1.252 . S
C64 O47 1.268 . S
C64 C57 1.506 . S
C65 C32 1.439 . S
C65 H42 0.931 . S
C65 C66 1.374 . S
C66 C37 1.387 . S
C66 H43 0.931 . S
C66 C65 1.374 . S
C67 O51 1.249 1_565 S
C67 O52 1.264 1_554 S
C68 C71 1.382 . S
C68 C72 1.390 . S
C68 C75 1.506 . S
C69 C70 1.398 . S
C69 C72 1.392 . S
C70 C69 1.398 . S
C70 C73 1.372 . S
C70 H80 0.931 . S
C71 C68 1.382 . S
C71 C73 1.390 . S
C71 H81 0.931 . S
C72 C68 1.390 . S
C72 C69 1.392 . S
C72 H82 0.930 1_554 S
C73 C70 1.372 . S
C73 C71 1.390 . S
C73 H83 0.929 . S
C74 O54 1.255 1_565 S
C74 O55 1.257 . S
C75 Eu11 2.787 1_655 S
C75 O50 1.252 . S
C75 O53 1.268 . S
C75 C68 1.506 . S
H76 C59 0.931 . S
H77 C60 0.931 . S
H78 C61 0.929 . S
H79 C62 0.930 1_554 S
H80 C70 0.931 . S
H81 C71 0.931 . S
H82 C72 0.930 1_556 S
H83 C73 0.929 . S
Eu84 N113 2.600 . S
Eu84 N119 2.562 . S
Eu84 O128 2.462 1_655 S
Eu84 O129 2.373 . S
Eu84 O131 2.432 1_655 S
Eu84 O132 2.291 . S
Eu84 O136 2.335 1_655 S
Eu84 O139 2.372 1_655 S
Eu84 C148 2.787 1_655 S
C85 N86 1.365 . S
C85 C88 1.405 . S
C85 C92 1.448 . S
N86 C85 1.365 . S
N86 C89 1.319 . S
N86 Eu95 2.600 . S
C87 C89 1.397 . S
C87 C90 1.367 . S
C87 H107 0.931 . S
C88 C85 1.405 . S
C88 C90 1.403 . S
C88 C94 1.439 . S
C89 N86 1.319 . S
C89 C87 1.397 . S
C89 H100 0.930 . S
C90 C87 1.367 . S
C90 C88 1.403 . S
C90 H111 0.929 . S
C91 C92 1.430 . S
C91 C93 1.387 . S
C91 C97 1.404 . S
C92 C85 1.448 . S
C92 C91 1.430 . S
C92 N96 1.351 . S
C93 C91 1.387 . S
C93 C94 1.374 . S
C93 H108 0.931 . S
C94 C88 1.439 . S
C94 C93 1.374 . S
C94 H109 0.931 . S
Eu95 N86 2.600 . S
Eu95 N96 2.562 . S
Eu95 O130 2.335 1_455 S
Eu95 O133 2.372 1_455 S
Eu95 O134 2.462 1_455 S
Eu95 O135 2.373 . S
Eu95 O137 2.432 1_455 S
Eu95 O138 2.291 . S
Eu95 C159 2.787 1_455 S
N96 C92 1.351 . S
N96 Eu95 2.562 . S
N96 C98 1.325 . S
C97 C91 1.404 . S
C97 C99 1.366 . S
C97 H105 0.930 . S
C98 N96 1.325 . S
C98 C99 1.416 . S
C98 H104 0.929 . S
C99 C97 1.366 . S
C99 C98 1.416 . S
C99 H101 0.930 . S
H100 C89 0.930 . S
H101 C99 0.930 . S
H102 C117 0.930 . S
H103 C124 0.930 . S
H104 C98 0.929 . S
H105 C97 0.930 . S
H106 C120 0.929 . S
H107 C87 0.931 . S
H108 C93 0.931 . S
H109 C94 0.931 . S
H110 C115 0.931 . S
H111 C90 0.929 . S
H112 C123 0.930 . S
N113 Eu84 2.600 . S
N113 C114 1.365 . S
N113 C117 1.319 . S
C114 N113 1.365 . S
C114 C116 1.405 . S
C114 C122 1.448 . S
C115 H110 0.931 . S
C115 C117 1.397 . S
C115 C118 1.367 . S
C116 C114 1.405 . S
C116 C118 1.403 . S
C116 C149 1.439 . S
C117 H102 0.930 . S
C117 N113 1.319 . S
C117 C115 1.397 . S
C118 C115 1.367 . S
C118 C116 1.403 . S
C118 H125 0.929 . S
N119 Eu84 2.562 . S
N119 C120 1.325 . S
N119 C122 1.351 . S
C120 H106 0.929 . S
C120 N119 1.325 . S
C120 C124 1.416 . S
C121 C122 1.430 . S
C121 C123 1.404 . S
C121 C150 1.387 . S
C122 C114 1.448 . S
C122 N119 1.351 . S
C122 C121 1.430 . S
C123 H112 0.930 . S
C123 C121 1.404 . S
C123 C124 1.366 . S
C124 H103 0.930 . S
C124 C120 1.416 . S
C124 C123 1.366 . S
H125 C118 0.929 . S
H126 C149 0.931 . S
H127 C150 0.931 . S
O128 Eu84 2.462 1_455 S
O128 C148 1.252 . S
O129 Eu84 2.373 . S
O129 C140 1.249 1_545 S
O130 Eu95 2.335 1_655 S
O130 C140 1.264 . S
O131 Eu84 2.432 1_455 S
O131 C148 1.268 . S
O132 Eu84 2.291 . S
O132 C147 1.255 1_545 S
O133 Eu95 2.372 1_655 S
O133 C147 1.257 . S
O134 Eu95 2.462 1_655 S
O134 C159 1.252 . S
O135 Eu95 2.373 . S
O135 C151 1.249 1_565 S
O136 Eu84 2.335 1_455 S
O136 C151 1.264 . S
O137 Eu95 2.432 1_655 S
O137 C159 1.268 . S
O138 Eu95 2.291 . S
O138 C158 1.255 1_565 S
O139 Eu84 2.372 1_455 S
O139 C158 1.257 . S
C140 O129 1.249 1_565 S
C140 O130 1.264 . S
C141 C144 1.382 . S
C141 C146 1.390 . S
C141 C148 1.506 . S
C142 C143 1.398 . S
C142 C146 1.392 . S
C143 C142 1.398 . S
C143 C145 1.372 . S
C143 H160 0.931 . S
C144 C141 1.382 . S
C144 C145 1.390 . S
C144 H161 0.931 . S
C145 C143 1.372 . S
C145 C144 1.390 . S
C145 H162 0.929 . S
C146 C141 1.390 . S
C146 C142 1.392 . S
C146 H163 0.930 . S
C147 O132 1.255 1_565 S
C147 O133 1.257 . S
C148 Eu84 2.787 1_455 S
C148 O128 1.252 . S
C148 O131 1.268 . S
C148 C141 1.506 . S
C149 C116 1.439 . S
C149 H126 0.931 . S
C149 C150 1.374 . S
C150 C121 1.387 . S
C150 H127 0.931 . S
C150 C149 1.374 . S
C151 O135 1.249 1_545 S
C151 O136 1.264 . S
C152 C155 1.382 . S
C152 C156 1.390 . S
C152 C159 1.506 . S
C153 C154 1.398 . S
C153 C156 1.392 . S
C154 C153 1.398 . S
C154 C157 1.372 . S
C154 H164 0.931 . S
C155 C152 1.382 . S
C155 C157 1.390 . S
C155 H165 0.931 . S
C156 C152 1.390 . S
C156 C153 1.392 . S
C156 H166 0.930 . S
C157 C154 1.372 . S
C157 C155 1.390 . S
C157 H167 0.929 . S
C158 O138 1.255 1_545 S
C158 O139 1.257 . S
C159 Eu95 2.787 1_655 S
C159 O134 1.252 . S
C159 O137 1.268 . S
C159 C152 1.506 . S
H160 C143 0.931 . S
H161 C144 0.931 . S
H162 C145 0.929 . S
H163 C146 0.930 . S
H164 C154 0.931 . S
H165 C155 0.931 . S
H166 C156 0.930 . S
H167 C157 0.929 . S
Eu168 N197 2.600 . S
Eu168 N203 2.562 . S
Eu168 O212 2.462 . S
Eu168 O213 2.373 . S
Eu168 O215 2.432 . S
Eu168 O216 2.291 1_556 S
Eu168 O220 2.335 . S
Eu168 O223 2.372 . S
Eu168 C232 2.787 . S
C169 N170 1.365 . S
C169 C172 1.405 . S
C169 C176 1.448 . S
N170 C169 1.365 . S
N170 C173 1.319 . S
N170 Eu179 2.600 . S
C171 C173 1.397 . S
C171 C174 1.367 . S
C171 H191 0.931 . S
C172 C169 1.405 . S
C172 C174 1.403 . S
C172 C178 1.439 . S
C173 N170 1.319 . S
C173 C171 1.397 . S
C173 H184 0.930 . S
C174 C171 1.367 . S
C174 C172 1.403 . S
C174 H195 0.929 . S
C175 C176 1.430 . S
C175 C177 1.387 . S
C175 C181 1.404 . S
C176 C169 1.448 . S
C176 C175 1.430 . S
C176 N180 1.351 . S
C177 C175 1.387 . S
C177 C178 1.374 . S
C177 H192 0.931 . S
C178 C172 1.439 . S
C178 C177 1.374 . S
C178 H193 0.931 . S
Eu179 N170 2.600 . S
Eu179 N180 2.562 . S
Eu179 O214 2.335 . S
Eu179 O217 2.372 . S
Eu179 O218 2.462 . S
Eu179 O219 2.373 . S
Eu179 O221 2.432 . S
Eu179 O222 2.291 1_554 S
Eu179 C243 2.787 . S
N180 C176 1.351 . S
N180 Eu179 2.562 . S
N180 C182 1.325 1_554 S
C181 C175 1.404 . S
C181 C183 1.366 1_554 S
C181 H189 0.930 1_554 S
C182 N180 1.325 1_556 S
C182 C183 1.416 . S
C182 H188 0.929 . S
C183 C181 1.366 1_556 S
C183 C182 1.416 . S
C183 H185 0.930 . S
H184 C173 0.930 . S
H185 C183 0.930 . S
H186 C201 0.930 . S
H187 C208 0.930 . S
H188 C182 0.929 . S
H189 C181 0.930 1_556 S
H190 C204 0.929 . S
H191 C171 0.931 . S
H192 C177 0.931 . S
H193 C178 0.931 . S
H194 C199 0.931 . S
H195 C174 0.929 . S
H196 C207 0.930 1_554 S
N197 Eu168 2.600 . S
N197 C198 1.365 . S
N197 C201 1.319 . S
C198 N197 1.365 . S
C198 C200 1.405 . S
C198 C206 1.448 . S
C199 H194 0.931 . S
C199 C201 1.397 . S
C199 C202 1.367 . S
C200 C198 1.405 . S
C200 C202 1.403 . S
C200 C233 1.439 . S
C201 H186 0.930 . S
C201 N197 1.319 . S
C201 C199 1.397 . S
C202 C199 1.367 . S
C202 C200 1.403 . S
C202 H209 0.929 . S
N203 Eu168 2.562 . S
N203 C204 1.325 1_556 S
N203 C206 1.351 . S
C204 H190 0.929 . S
C204 N203 1.325 1_554 S
C204 C208 1.416 . S
C205 C206 1.430 . S
C205 C207 1.404 . S
C205 C234 1.387 . S
C206 C198 1.448 . S
C206 N203 1.351 . S
C206 C205 1.430 . S
C207 H196 0.930 1_556 S
C207 C205 1.404 . S
C207 C208 1.366 1_556 S
C208 H187 0.930 . S
C208 C204 1.416 . S
C208 C207 1.366 1_554 S
H209 C202 0.929 . S
H210 C233 0.931 . S
H211 C234 0.931 . S
O212 Eu168 2.462 . S
O212 C232 1.252 . S
O213 Eu168 2.373 . S
O213 C224 1.249 . S
O214 Eu179 2.335 . S
O214 C224 1.264 1_554 S
O215 Eu168 2.432 . S
O215 C232 1.268 . S
O216 Eu168 2.291 1_554 S
O216 C231 1.255 . S
O217 Eu179 2.372 . S
O217 C231 1.257 . S
O218 Eu179 2.462 . S
O218 C243 1.252 . S
O219 Eu179 2.373 . S
O219 C235 1.249 . S
O220 Eu168 2.335 . S
O220 C235 1.264 1_556 S
O221 Eu179 2.432 . S
O221 C243 1.268 . S
O222 Eu179 2.291 1_556 S
O222 C242 1.255 . S
O223 Eu168 2.372 . S
O223 C242 1.257 . S
C224 O213 1.249 . S
C224 O214 1.264 1_556 S
C225 C228 1.382 . S
C225 C230 1.390 . S
C225 C232 1.506 . S
C226 C227 1.398 . S
C226 C230 1.392 . S
C227 C226 1.398 . S
C227 C229 1.372 . S
C227 H244 0.931 . S
C228 C225 1.382 . S
C228 C229 1.390 . S
C228 H245 0.931 . S
C229 C227 1.372 . S
C229 C228 1.390 . S
C229 H246 0.929 . S
C230 C225 1.390 . S
C230 C226 1.392 . S
C230 H247 0.930 1_556 S
C231 O216 1.255 . S
C231 O217 1.257 . S
C232 Eu168 2.787 . S
C232 O212 1.252 . S
C232 O215 1.268 . S
C232 C225 1.506 . S
C233 C200 1.439 . S
C233 H210 0.931 . S
C233 C234 1.374 . S
C234 C205 1.387 . S
C234 H211 0.931 . S
C234 C233 1.374 . S
C235 O219 1.249 . S
C235 O220 1.264 1_554 S
C236 C239 1.382 . S
C236 C240 1.390 . S
C236 C243 1.506 . S
C237 C238 1.398 . S
C237 C240 1.392 . S
C238 C237 1.398 . S
C238 C241 1.372 . S
C238 H248 0.931 . S
C239 C236 1.382 . S
C239 C241 1.390 . S
C239 H249 0.931 . S
C240 C236 1.390 . S
C240 C237 1.392 . S
C240 H250 0.930 1_554 S
C241 C238 1.372 . S
C241 C239 1.390 . S
C241 H251 0.929 . S
C242 O222 1.255 . S
C242 O223 1.257 . S
C243 Eu179 2.787 . S
C243 O218 1.252 . S
C243 O221 1.268 . S
C243 C236 1.506 . S
H244 C227 0.931 . S
H245 C228 0.931 . S
H246 C229 0.929 . S
H247 C230 0.930 1_554 S
H248 C238 0.931 . S
H249 C239 0.931 . S
H250 C240 0.930 1_556 S
H251 C241 0.929 . S
Eu252 N281 2.600 . S
Eu252 N287 2.562 . S
Eu252 O296 2.462 . S
Eu252 O297 2.373 . S
Eu252 O299 2.432 . S
Eu252 O300 2.291 . S
Eu252 O304 2.335 . S
Eu252 O307 2.372 . S
Eu252 C316 2.787 . S
C253 N254 1.365 . S
C253 C256 1.405 . S
C253 C260 1.448 . S
N254 C253 1.365 . S
N254 C257 1.319 . S
N254 Eu263 2.600 . S
C255 C257 1.397 . S
C255 C258 1.367 . S
C255 H275 0.931 . S
C256 C253 1.405 . S
C256 C258 1.403 . S
C256 C262 1.439 . S
C257 N254 1.319 . S
C257 C255 1.397 . S
C257 H268 0.930 . S
C258 C255 1.367 . S
C258 C256 1.403 . S
C258 H279 0.929 . S
C259 C260 1.430 . S
C259 C261 1.387 . S
C259 C265 1.404 . S
C260 C253 1.448 . S
C260 C259 1.430 . S
C260 N264 1.351 . S
C261 C259 1.387 . S
C261 C262 1.374 . S
C261 H276 0.931 . S
C262 C256 1.439 . S
C262 C261 1.374 . S
C262 H277 0.931 . S
Eu263 N254 2.600 . S
Eu263 N264 2.562 . S
Eu263 O298 2.335 . S
Eu263 O301 2.372 . S
Eu263 O302 2.462 . S
Eu263 O303 2.373 . S
Eu263 O305 2.432 . S
Eu263 O306 2.291 . S
Eu263 C327 2.787 . S
N264 C260 1.351 . S
N264 Eu263 2.562 . S
N264 C266 1.325 . S
C265 C259 1.404 . S
C265 C267 1.366 . S
C265 H273 0.930 . S
C266 N264 1.325 . S
C266 C267 1.416 . S
C266 H272 0.929 . S
C267 C265 1.366 . S
C267 C266 1.416 . S
C267 H269 0.930 . S
H268 C257 0.930 . S
H269 C267 0.930 . S
H270 C285 0.930 . S
H271 C292 0.930 . S
H272 C266 0.929 . S
H273 C265 0.930 . S
H274 C288 0.929 . S
H275 C255 0.931 . S
H276 C261 0.931 . S
H277 C262 0.931 . S
H278 C283 0.931 . S
H279 C258 0.929 . S
H280 C291 0.930 . S
N281 Eu252 2.600 . S
N281 C282 1.365 . S
N281 C285 1.319 . S
C282 N281 1.365 . S
C282 C284 1.405 . S
C282 C290 1.448 . S
C283 H278 0.931 . S
C283 C285 1.397 . S
C283 C286 1.367 . S
C284 C282 1.405 . S
C284 C286 1.403 . S
C284 C317 1.439 . S
C285 H270 0.930 . S
C285 N281 1.319 . S
C285 C283 1.397 . S
C286 C283 1.367 . S
C286 C284 1.403 . S
C286 H293 0.929 . S
N287 Eu252 2.562 . S
N287 C288 1.325 . S
N287 C290 1.351 . S
C288 H274 0.929 . S
C288 N287 1.325 . S
C288 C292 1.416 . S
C289 C290 1.430 . S
C289 C291 1.404 . S
C289 C318 1.387 . S
C290 C282 1.448 . S
C290 N287 1.351 . S
C290 C289 1.430 . S
C291 H280 0.930 . S
C291 C289 1.404 . S
C291 C292 1.366 . S
C292 H271 0.930 . S
C292 C288 1.416 . S
C292 C291 1.366 . S
H293 C286 0.929 . S
H294 C317 0.931 . S
H295 C318 0.931 . S
O296 Eu252 2.462 . S
O296 C316 1.252 . S
O297 Eu252 2.373 . S
O297 C308 1.249 . S
O298 Eu263 2.335 . S
O298 C308 1.264 . S
O299 Eu252 2.432 . S
O299 C316 1.268 . S
O300 Eu252 2.291 . S
O300 C315 1.255 . S
O301 Eu263 2.372 . S
O301 C315 1.257 . S
O302 Eu263 2.462 . S
O302 C327 1.252 . S
O303 Eu263 2.373 . S
O303 C319 1.249 . S
O304 Eu252 2.335 . S
O304 C319 1.264 . S
O305 Eu263 2.432 . S
O305 C327 1.268 . S
O306 Eu263 2.291 . S
O306 C326 1.255 . S
O307 Eu252 2.372 . S
O307 C326 1.257 . S
C308 O297 1.249 . S
C308 O298 1.264 . S
C309 C312 1.382 . S
C309 C314 1.390 . S
C309 C316 1.506 . S
C310 C311 1.398 . S
C310 C314 1.392 . S
C311 C310 1.398 . S
C311 C313 1.372 . S
C311 H328 0.931 . S
C312 C309 1.382 . S
C312 C313 1.390 . S
C312 H329 0.931 . S
C313 C311 1.372 . S
C313 C312 1.390 . S
C313 H330 0.929 . S
C314 C309 1.390 . S
C314 C310 1.392 . S
C314 H331 0.930 . S
C315 O300 1.255 . S
C315 O301 1.257 . S
C316 Eu252 2.787 . S
C316 O296 1.252 . S
C316 O299 1.268 . S
C316 C309 1.506 . S
C317 C284 1.439 . S
C317 H294 0.931 . S
C317 C318 1.374 . S
C318 C289 1.387 . S
C318 H295 0.931 . S
C318 C317 1.374 . S
C319 O303 1.249 . S
C319 O304 1.264 . S
C320 C323 1.382 . S
C320 C324 1.390 . S
C320 C327 1.506 . S
C321 C322 1.398 . S
C321 C324 1.392 . S
C322 C321 1.398 . S
C322 C325 1.372 . S
C322 H332 0.931 . S
C323 C320 1.382 . S
C323 C325 1.390 . S
C323 H333 0.931 . S
C324 C320 1.390 . S
C324 C321 1.392 . S
C324 H334 0.930 . S
C325 C322 1.372 . S
C325 C323 1.390 . S
C325 H335 0.929 . S
C326 O306 1.255 . S
C326 O307 1.257 . S
C327 Eu263 2.787 . S
C327 O302 1.252 . S
C327 O305 1.268 . S
C327 C320 1.506 . S
H328 C311 0.931 . S
H329 C312 0.931 . S
H330 C313 0.929 . S
H331 C314 0.930 . S
H332 C322 0.931 . S
H333 C323 0.931 . S
H334 C324 0.930 . S
H335 C325 0.929 . S
H336 C348 0.930 . S
H337 C350 0.930 . S
H338 C351 0.930 . S
H339 C355 0.959 . S
H340 C355 0.959 . S
H341 C355 0.961 . S
H342 C356 0.960 . S
H343 C356 0.961 . S
H344 C356 0.959 . S
H345 C359 0.929 . S
H346 C360 0.931 . S
H347 C362 0.930 . S
C348 H336 0.930 . S
C348 C349 1.399 1_556 S
C348 C353 1.399 . S
C349 C348 1.399 1_554 S
C349 C350 1.376 . S
C350 H337 0.930 . S
C350 C349 1.376 . S
C350 C351 1.388 . S
C351 H338 0.930 . S
C351 C350 1.388 . S
C351 C352 1.390 . S
C352 C351 1.390 . S
C352 C353 1.394 1_554 S
C352 C358 1.465 . S
C353 C348 1.399 . S
C353 C352 1.394 1_556 S
C353 C354 1.516 . S
C354 C353 1.516 . S
C354 C355 1.502 . S
C354 C356 1.561 . S
C354 C357 1.526 . S
C355 H339 0.959 . S
C355 H340 0.959 . S
C355 H341 0.961 . S
C355 C354 1.502 . S
C356 H342 0.960 . S
C356 H343 0.961 . S
C356 H344 0.959 . S
C356 C354 1.561 . S
C357 C354 1.526 . S
C357 C358 1.396 1_556 S
C357 C362 1.390 . S
C358 C352 1.465 . S
C358 C357 1.396 1_554 S
C358 C359 1.399 . S
C359 H345 0.929 . S
C359 C358 1.399 . S
C359 C360 1.385 . S
C360 H346 0.931 . S
C360 C359 1.385 . S
C360 C361 1.389 . S
C361 C360 1.389 . S
C361 C362 1.387 1_554 S
C362 H347 0.930 . S
C362 C357 1.390 . S
C362 C361 1.387 1_556 S
H363 C375 0.930 . S
H364 C377 0.930 . S
H365 C378 0.930 . S
H366 C382 0.959 . S
H367 C382 0.959 . S
H368 C382 0.961 . S
H369 C383 0.960 . S
H370 C383 0.961 . S
H371 C383 0.959 . S
H372 C386 0.929 . S
H373 C387 0.931 . S
H374 C389 0.930 . S
C375 H363 0.930 . S
C375 C376 1.399 1_556 S
C375 C380 1.399 . S
C376 C375 1.399 1_554 S
C376 C377 1.376 . S
C377 H364 0.930 . S
C377 C376 1.376 . S
C377 C378 1.388 . S
C378 H365 0.930 . S
C378 C377 1.388 . S
C378 C379 1.390 . S
C379 C378 1.390 . S
C379 C380 1.394 1_554 S
C379 C385 1.465 . S
C380 C375 1.399 . S
C380 C379 1.394 1_556 S
C380 C381 1.516 . S
C381 C380 1.516 . S
C381 C382 1.502 . S
C381 C383 1.561 . S
C381 C384 1.526 . S
C382 H366 0.959 . S
C382 H367 0.959 . S
C382 H368 0.961 . S
C382 C381 1.502 . S
C383 H369 0.960 . S
C383 H370 0.961 . S
C383 H371 0.959 . S
C383 C381 1.561 . S
C384 C381 1.526 . S
C384 C385 1.396 1_556 S
C384 C389 1.390 . S
C385 C379 1.465 . S
C385 C384 1.396 1_554 S
C385 C386 1.399 . S
C386 H372 0.929 . S
C386 C385 1.399 . S
C386 C387 1.385 . S
C387 H373 0.931 . S
C387 C386 1.385 . S
C387 C388 1.389 . S
C388 C387 1.389 . S
C388 C389 1.387 1_554 S
C389 H374 0.930 . S
C389 C384 1.390 . S
C389 C388 1.387 1_556 S
H390 C402 0.930 . S
H391 C404 0.930 . S
H392 C405 0.930 . S
H393 C409 0.959 . S
H394 C409 0.959 . S
H395 C409 0.961 . S
H396 C410 0.960 . S
H397 C410 0.961 . S
H398 C410 0.959 . S
H399 C413 0.929 . S
H400 C414 0.931 . S
H401 C416 0.930 . S
C402 H390 0.930 . S
C402 C403 1.399 . S
C402 C407 1.399 . S
C403 C402 1.399 . S
C403 C404 1.376 . S
C404 H391 0.930 . S
C404 C403 1.376 . S
C404 C405 1.388 . S
C405 H392 0.930 . S
C405 C404 1.388 . S
C405 C406 1.390 . S
C406 C405 1.390 . S
C406 C407 1.394 . S
C406 C412 1.465 . S
C407 C402 1.399 . S
C407 C406 1.394 . S
C407 C408 1.516 . S
C408 C407 1.516 . S
C408 C409 1.502 . S
C408 C410 1.561 . S
C408 C411 1.526 . S
C409 H393 0.959 . S
C409 H394 0.959 . S
C409 H395 0.961 . S
C409 C408 1.502 . S
C410 H396 0.960 . S
C410 H397 0.961 . S
C410 H398 0.959 . S
C410 C408 1.561 . S
C411 C408 1.526 . S
C411 C412 1.396 . S
C411 C416 1.390 . S
C412 C406 1.465 . S
C412 C411 1.396 . S
C412 C413 1.399 . S
C413 H399 0.929 . S
C413 C412 1.399 . S
C413 C414 1.385 . S
C414 H400 0.931 . S
C414 C413 1.385 . S
C414 C415 1.389 . S
C415 C414 1.389 . S
C415 C416 1.387 . S
C416 H401 0.930 . S
C416 C411 1.390 . S
C416 C415 1.387 . S
H417 C429 0.930 . S
H418 C431 0.930 . S
H419 C432 0.930 . S
H420 C436 0.959 . S
H421 C436 0.959 . S
H422 C436 0.961 . S
H423 C437 0.960 . S
H424 C437 0.961 . S
H425 C437 0.959 . S
H426 C440 0.929 . S
H427 C441 0.931 . S
H428 C443 0.930 . S
C429 H417 0.930 . S
C429 C430 1.399 . S
C429 C434 1.399 . S
C430 C429 1.399 . S
C430 C431 1.376 . S
C431 H418 0.930 . S
C431 C430 1.376 . S
C431 C432 1.388 . S
C432 H419 0.930 . S
C432 C431 1.388 . S
C432 C433 1.390 . S
C433 C432 1.390 . S
C433 C434 1.394 . S
C433 C439 1.465 . S
C434 C429 1.399 . S
C434 C433 1.394 . S
C434 C435 1.516 . S
C435 C434 1.516 . S
C435 C436 1.502 . S
C435 C437 1.561 . S
C435 C438 1.526 . S
C436 H420 0.959 . S
C436 H421 0.959 . S
C436 H422 0.961 . S
C436 C435 1.502 . S
C437 H423 0.960 . S
C437 H424 0.961 . S
C437 H425 0.959 . S
C437 C435 1.561 . S
C438 C435 1.526 . S
C438 C439 1.396 . S
C438 C443 1.390 . S
C439 C433 1.465 . S
C439 C438 1.396 . S
C439 C440 1.399 . S
C440 H426 0.929 . S
C440 C439 1.399 . S
C440 C441 1.385 . S
C441 H427 0.931 . S
C441 C440 1.385 . S
C441 C442 1.389 . S
C442 C441 1.389 . S
C442 C443 1.387 . S
C443 H428 0.930 . S
C443 C438 1.390 . S
C443 C442 1.387 . S
H444 C456 0.930 . S
H445 C458 0.930 . S
H446 C459 0.930 . S
H447 C463 0.959 . S
H448 C463 0.959 . S
H449 C463 0.961 . S
H450 C464 0.960 . S
H451 C464 0.961 . S
H452 C464 0.959 . S
H453 C467 0.929 . S
H454 C468 0.931 . S
H455 C470 0.930 . S
C456 H444 0.930 . S
C456 C457 1.399 1_544 S
C456 C461 1.399 . S
C457 C456 1.399 1_566 S
C457 C458 1.376 . S
C458 H445 0.930 . S
C458 C457 1.376 . S
C458 C459 1.388 . S
C459 H446 0.930 . S
C459 C458 1.388 . S
C459 C460 1.390 . S
C460 C459 1.390 . S
C460 C461 1.394 1_566 S
C460 C466 1.465 . S
C461 C456 1.399 . S
C461 C460 1.394 1_544 S
C461 C462 1.516 . S
C462 C461 1.516 . S
C462 C463 1.502 . S
C462 C464 1.561 . S
C462 C465 1.526 . S
C463 H447 0.959 . S
C463 H448 0.959 . S
C463 H449 0.961 . S
C463 C462 1.502 . S
C464 H450 0.960 . S
C464 H451 0.961 . S
C464 H452 0.959 . S
C464 C462 1.561 . S
C465 C462 1.526 . S
C465 C466 1.396 1_544 S
C465 C470 1.390 . S
C466 C460 1.465 . S
C466 C465 1.396 1_566 S
C466 C467 1.399 . S
C467 H453 0.929 . S
C467 C466 1.399 . S
C467 C468 1.385 . S
C468 H454 0.931 . S
C468 C467 1.385 . S
C468 C469 1.389 1_565 S
C469 C468 1.389 1_545 S
C469 C470 1.387 1_556 S
C470 H455 0.930 . S
C470 C465 1.390 . S
C470 C469 1.387 1_554 S
H471 C483 0.930 . S
H472 C485 0.930 . S
H473 C486 0.930 . S
H474 C490 0.959 . S
H475 C490 0.959 . S
H476 C490 0.961 . S
H477 C491 0.960 . S
H478 C491 0.961 . S
H479 C491 0.959 . S
H480 C494 0.929 . S
H481 C495 0.931 . S
H482 C497 0.930 . S
C483 H471 0.930 . S
C483 C484 1.399 . S
C483 C488 1.399 . S
C484 C483 1.399 . S
C484 C485 1.376 1_545 S
C485 H472 0.930 . S
C485 C484 1.376 1_565 S
C485 C486 1.388 . S
C486 H473 0.930 . S
C486 C485 1.388 . S
C486 C487 1.390 . S
C487 C486 1.390 . S
C487 C488 1.394 1_565 S
C487 C493 1.465 . S
C488 C483 1.399 . S
C488 C487 1.394 1_545 S
C488 C489 1.516 . S
C489 C488 1.516 . S
C489 C490 1.502 . S
C489 C491 1.561 1_545 S
C489 C492 1.526 . S
C490 H474 0.959 . S
C490 H475 0.959 . S
C490 H476 0.961 . S
C490 C489 1.502 . S
C491 H477 0.960 . S
C491 H478 0.961 . S
C491 H479 0.959 . S
C491 C489 1.561 1_565 S
C492 C489 1.526 . S
C492 C493 1.396 1_545 S
C492 C497 1.390 . S
C493 C487 1.465 . S
C493 C492 1.396 1_565 S
C493 C494 1.399 . S
C494 H480 0.929 . S
C494 C493 1.399 . S
C494 C495 1.385 . S
C495 H481 0.931 . S
C495 C494 1.385 . S
C495 C496 1.389 . S
C496 C495 1.389 . S
C496 C497 1.387 1_565 S
C497 H482 0.930 . S
C497 C492 1.390 . S
C497 C496 1.387 1_545 S
H498 C510 0.930 . S
H499 C512 0.930 . S
H500 C513 0.930 . S
H501 C517 0.959 . S
H502 C517 0.959 . S
H503 C517 0.961 1_655 S
H504 C518 0.960 1_655 S
H505 C518 0.961 . S
H506 C518 0.959 . S
H507 C521 0.929 . S
H508 C522 0.931 . S
H509 C524 0.930 . S
C510 H498 0.930 . S
C510 C511 1.399 1_556 S
C510 C515 1.399 . S
C511 C510 1.399 1_554 S
C511 C512 1.376 . S
C512 H499 0.930 . S
C512 C511 1.376 . S
C512 C513 1.388 . S
C513 H500 0.930 . S
C513 C512 1.388 . S
C513 C514 1.390 . S
C514 C513 1.390 . S
C514 C515 1.394 1_554 S
C514 C520 1.465 1_655 S
C515 C510 1.399 . S
C515 C514 1.394 1_556 S
C515 C516 1.516 1_655 S
C516 C515 1.516 1_455 S
C516 C517 1.502 . S
C516 C518 1.561 . S
C516 C519 1.526 . S
C517 H501 0.959 . S
C517 H502 0.959 . S
C517 H503 0.961 1_455 S
C517 C516 1.502 . S
C518 H504 0.960 1_455 S
C518 H505 0.961 . S
C518 H506 0.959 . S
C518 C516 1.561 . S
C519 C516 1.526 . S
C519 C520 1.396 1_556 S
C519 C524 1.390 . S
C520 C514 1.465 1_455 S
C520 C519 1.396 1_554 S
C520 C521 1.399 . S
C521 H507 0.929 . S
C521 C520 1.399 . S
C521 C522 1.385 . S
C522 H508 0.931 . S
C522 C521 1.385 . S
C522 C523 1.389 . S
C523 C522 1.389 . S
C523 C524 1.387 1_554 S
C524 H509 0.930 . S
C524 C519 1.390 . S
C524 C523 1.387 1_556 S
H525 C537 0.930 . S
H526 C539 0.930 . S
H527 C540 0.930 . S
H528 C544 0.959 . S
H529 C544 0.959 . S
H530 C544 0.961 1_455 S
H531 C545 0.955 1_455 S
H532 C545 0.966 . S
H533 C545 0.959 . S
H534 C548 0.929 . S
H535 C549 0.931 . S
H536 C551 0.930 . S
C537 H525 0.930 . S
C537 C538 1.399 . S
C537 C542 1.399 . S
C538 C537 1.399 . S
C538 C539 1.376 . S
C539 H526 0.930 . S
C539 C538 1.376 . S
C539 C540 1.388 . S
C540 H527 0.930 . S
C540 C539 1.388 . S
C540 C541 1.390 . S
C541 C540 1.390 . S
C541 C542 1.394 . S
C541 C547 1.465 1_455 S
C542 C537 1.399 . S
C542 C541 1.394 . S
C542 C543 1.516 1_455 S
C543 C542 1.516 1_655 S
C543 C544 1.502 . S
C543 C545 1.561 . S
C543 C546 1.526 . S
C544 H528 0.959 . S
C544 H529 0.959 . S
C544 H530 0.961 1_655 S
C544 C543 1.502 . S
C545 H531 0.955 1_655 S
C545 H532 0.966 . S
C545 H533 0.959 . S
C545 C543 1.561 . S
C546 C543 1.526 . S
C546 C547 1.396 . S
C546 C551 1.390 . S
C547 C541 1.465 1_655 S
C547 C546 1.396 . S
C547 C548 1.399 . S
C548 H534 0.929 . S
C548 C547 1.399 . S
C548 C549 1.385 . S
C549 H535 0.931 . S
C549 C548 1.385 . S
C549 C550 1.389 . S
C550 C549 1.389 . S
C550 C551 1.387 . S
C551 H536 0.930 . S
C551 C546 1.390 . S
C551 C550 1.387 . S
H552 C564 0.930 . S
H553 C566 0.930 . S
H554 C567 0.930 . S
H555 C571 0.959 . S
H556 C571 0.959 . S
H557 C571 0.961 . S
H558 C572 0.959 1_655 S
H559 C572 0.959 1_655 S
H560 C572 0.965 . S
H561 C575 0.929 . S
H562 C576 0.931 . S
H563 C578 0.930 . S
C564 H552 0.930 . S
C564 C565 1.375 1_645 S
C564 C569 1.399 . S
C565 C564 1.375 1_465 S
C565 C566 1.392 . S
C566 H553 0.930 . S
C566 C565 1.392 . S
C566 C567 1.388 . S
C567 H554 0.930 . S
C567 C566 1.388 . S
C567 C568 1.390 . S
C568 C567 1.390 . S
C568 C569 1.394 1_465 S
C568 C574 1.465 . S
C569 C564 1.399 . S
C569 C568 1.394 1_645 S
C569 C570 1.516 . S
C570 C569 1.516 . S
C570 C571 1.502 . S
C570 C572 1.558 1_655 S
C570 C573 1.526 . S
C571 H555 0.959 . S
C571 H556 0.959 . S
C571 H557 0.961 . S
C571 C570 1.502 . S
C572 H558 0.959 1_455 S
C572 H559 0.959 1_455 S
C572 H560 0.965 . S
C572 C570 1.558 1_455 S
C573 C570 1.526 . S
C573 C574 1.396 1_645 S
C573 C578 1.390 . S
C574 C568 1.465 . S
C574 C573 1.396 1_465 S
C574 C575 1.399 . S
C575 H561 0.929 . S
C575 C574 1.399 . S
C575 C576 1.385 . S
C576 H562 0.931 . S
C576 C575 1.385 . S
C576 C577 1.389 . S
C577 C576 1.389 . S
C577 C578 1.387 1_465 S
C578 H563 0.930 . S
C578 C573 1.390 . S
C578 C577 1.387 1_645 S
H579 C591 0.930 . S
H580 C593 0.930 . S
H581 C594 0.930 . S
H582 C598 0.959 . S
H583 C598 0.959 . S
H584 C598 0.961 . S
H585 C599 0.960 . S
H586 C599 0.961 . S
H587 C599 0.959 . S
H588 C602 0.929 . S
H589 C603 0.931 . S
H590 C605 0.930 . S
C591 H579 0.930 . S
C591 C592 1.399 1_465 S
C591 C596 1.399 . S
C592 C591 1.399 1_645 S
C592 C593 1.376 . S
C593 H580 0.930 . S
C593 C592 1.376 . S
C593 C594 1.388 . S
C594 H581 0.930 . S
C594 C593 1.388 . S
C594 C595 1.390 . S
C595 C594 1.390 . S
C595 C596 1.394 1_645 S
C595 C601 1.465 . S
C596 C591 1.399 . S
C596 C595 1.394 1_465 S
C596 C597 1.516 . S
C597 C596 1.516 . S
C597 C598 1.502 . S
C597 C599 1.561 1_455 S
C597 C600 1.526 . S
C598 H582 0.959 . S
C598 H583 0.959 . S
C598 H584 0.961 . S
C598 C597 1.502 . S
C599 H585 0.960 . S
C599 H586 0.961 . S
C599 H587 0.959 . S
C599 C597 1.561 1_655 S
C600 C597 1.526 . S
C600 C601 1.396 1_465 S
C600 C605 1.390 . S
C601 C595 1.465 . S
C601 C600 1.396 1_645 S
C601 C602 1.399 . S
C602 H588 0.929 . S
C602 C601 1.399 . S
C602 C603 1.385 . S
C603 H589 0.931 . S
C603 C602 1.385 . S
C603 C604 1.389 . S
C604 C603 1.389 . S
C604 C605 1.387 1_645 S
C605 H590 0.930 . S
C605 C600 1.390 . S
C605 C604 1.387 1_465 S
H606 C618 0.930 . S
H607 C620 0.930 . S
H608 C621 0.930 . S
H609 C625 0.959 . S
H610 C625 0.959 . S
H611 C625 0.961 . S
H612 C626 0.960 . S
H613 C626 0.961 . S
H614 C626 0.959 . S
H615 C629 0.929 . S
H616 C630 0.931 . S
H617 C632 0.930 . S
C618 H606 0.930 . S
C618 C619 1.399 . S
C618 C623 1.399 . S
C619 C618 1.399 . S
C619 C620 1.376 . S
C620 H607 0.930 . S
C620 C619 1.376 . S
C620 C621 1.388 . S
C621 H608 0.930 . S
C621 C620 1.388 . S
C621 C622 1.390 . S
C622 C621 1.390 . S
C622 C623 1.394 . S
C622 C628 1.465 . S
C623 C618 1.399 . S
C623 C622 1.394 . S
C623 C624 1.516 . S
C624 C623 1.516 . S
C624 C625 1.502 . S
C624 C626 1.561 . S
C624 C627 1.526 . S
C625 H609 0.959 . S
C625 H610 0.959 . S
C625 H611 0.961 . S
C625 C624 1.502 . S
C626 H612 0.960 . S
C626 H613 0.961 . S
C626 H614 0.959 . S
C626 C624 1.561 . S
C627 C624 1.526 . S
C627 C628 1.396 . S
C627 C632 1.390 . S
C628 C622 1.465 . S
C628 C627 1.396 . S
C628 C629 1.399 . S
C629 H615 0.929 . S
C629 C628 1.399 . S
C629 C630 1.385 . S
C630 H616 0.931 . S
C630 C629 1.385 . S
C630 C631 1.389 . S
C631 C630 1.389 . S
C631 C632 1.387 . S
C632 H617 0.930 . S
C632 C627 1.390 . S
C632 C631 1.387 . S
H633 C645 0.930 . S
H634 C647 0.930 . S
H635 C648 0.930 . S
H636 C652 0.959 . S
H637 C652 0.959 . S
H638 C652 0.961 . S
H639 C653 0.960 . S
H640 C653 0.961 . S
H641 C653 0.959 . S
H642 C656 0.929 . S
H643 C657 0.931 . S
H644 C659 0.930 . S
C645 H633 0.930 . S
C645 C646 1.399 . S
C645 C650 1.399 . S
C646 C645 1.399 . S
C646 C647 1.376 . S
C647 H634 0.930 . S
C647 C646 1.376 . S
C647 C648 1.388 . S
C648 H635 0.930 . S
C648 C647 1.388 . S
C648 C649 1.390 . S
C649 C648 1.390 . S
C649 C650 1.394 . S
C649 C655 1.465 . S
C650 C645 1.399 . S
C650 C649 1.394 . S
C650 C651 1.516 . S
C651 C650 1.516 . S
C651 C652 1.502 . S
C651 C653 1.561 . S
C651 C654 1.526 . S
C652 H636 0.959 . S
C652 H637 0.959 . S
C652 H638 0.961 . S
C652 C651 1.502 . S
C653 H639 0.960 . S
C653 H640 0.961 . S
C653 H641 0.959 . S
C653 C651 1.561 . S
C654 C651 1.526 . S
C654 C655 1.396 . S
C654 C659 1.390 . S
C655 C649 1.465 . S
C655 C654 1.396 . S
C655 C656 1.399 . S
C656 H642 0.929 . S
C656 C655 1.399 . S
C656 C657 1.385 . S
C657 H643 0.931 . S
C657 C656 1.385 . S
C657 C658 1.389 . S
C658 C657 1.389 . S
C658 C659 1.387 . S
C659 H644 0.930 . S
C659 C654 1.390 . S
C659 C658 1.387 . S
C349 C237 1.368 . S
C361 C58 1.448 1_554 S
C376 C226 1.456 1_554 S
C388 C69 1.341 . S
C403 C142 1.373 . S
C415 C321 1.444 . S
C430 C153 1.429 . S
C442 C310 1.359 . S
C457 C67 1.961 1_556 S
C469 C56 1.946 . S
C484 C151 1.944 . S
C496 C140 1.963 . S
C511 C235 1.947 . S
C523 C224 1.962 1_554 S
C538 C308 1.955 . S
C550 C319 1.950 . S
C565 C147 1.492 1_455 S
C577 C63 1.497 1_465 S
C592 C74 1.497 1_645 S
C604 C158 1.465 1_655 S
C619 C315 1.480 . S
C631 C231 1.453 . S
C646 C326 1.450 . S
C658 C242 1.478 . S
