# Generated by pormake.
# Topology fnk, (5)-cn, num edge types: 1
# Building blocks:
#     Node 0, Type 0, BuildingBlock: XOMCOT_clean_sbu_1, # of connection points: 5
#     Node 1, Type 0, BuildingBlock: XOMCOT_clean_sbu_1, # of connection points: 5
#     Node 2, Type 0, BuildingBlock: XOMCOT_clean_sbu_1, # of connection points: 5
#     Node 3, Type 0, BuildingBlock: XOMCOT_clean_sbu_1, # of connection points: 5
#     Node 4, Type 0, BuildingBlock: XOMCOT_clean_sbu_1, # of connection points: 5
#     Node 5, Type 0, BuildingBlock: XOMCOT_clean_sbu_1, # of connection points: 5
#     Node 6, Type 0, BuildingBlock: XOMCOT_clean_sbu_1, # of connection points: 5
#     Node 7, Type 0, BuildingBlock: XOMCOT_clean_sbu_1, # of connection points: 5
#     Node 8, Type 0, BuildingBlock: XOMCOT_clean_sbu_1, # of connection points: 5
#     Node 9, Type 0, BuildingBlock: XOMCOT_clean_sbu_1, # of connection points: 5
#     Node 10, Type 0, BuildingBlock: XOMCOT_clean_sbu_1, # of connection points: 5
#     Node 11, Type 0, BuildingBlock: XOMCOT_clean_sbu_1, # of connection points: 5
#     Node 12, Type 0, BuildingBlock: XOMCOT_clean_sbu_1, # of connection points: 5
#     Node 13, Type 0, BuildingBlock: XOMCOT_clean_sbu_1, # of connection points: 5
#     Node 14, Type 0, BuildingBlock: XOMCOT_clean_sbu_1, # of connection points: 5
#     Node 15, Type 0, BuildingBlock: XOMCOT_clean_sbu_1, # of connection points: 5
#     Edge 16, Type (0, 0), BuildingBlock: KIFKEQ_clean_linker_1, # of connection points: 2
#     Edge 17, Type (0, 0), BuildingBlock: KIFKEQ_clean_linker_1, # of connection points: 2
#     Edge 18, Type (0, 0), BuildingBlock: KIFKEQ_clean_linker_1, # of connection points: 2
#     Edge 19, Type (0, 0), BuildingBlock: KIFKEQ_clean_linker_1, # of connection points: 2
#     Edge 20, Type (0, 0), BuildingBlock: KIFKEQ_clean_linker_1, # of connection points: 2
#     Edge 21, Type (0, 0), BuildingBlock: KIFKEQ_clean_linker_1, # of connection points: 2
#     Edge 22, Type (0, 0), BuildingBlock: KIFKEQ_clean_linker_1, # of connection points: 2
#     Edge 23, Type (0, 0), BuildingBlock: KIFKEQ_clean_linker_1, # of connection points: 2
#     Edge 24, Type (0, 0), BuildingBlock: KIFKEQ_clean_linker_1, # of connection points: 2
#     Edge 25, Type (0, 0), BuildingBlock: KIFKEQ_clean_linker_1, # of connection points: 2
#     Edge 26, Type (0, 0), BuildingBlock: KIFKEQ_clean_linker_1, # of connection points: 2
#     Edge 27, Type (0, 0), BuildingBlock: KIFKEQ_clean_linker_1, # of connection points: 2
#     Edge 28, Type (0, 0), BuildingBlock: KIFKEQ_clean_linker_1, # of connection points: 2
#     Edge 29, Type (0, 0), BuildingBlock: KIFKEQ_clean_linker_1, # of connection points: 2
#     Edge 30, Type (0, 0), BuildingBlock: KIFKEQ_clean_linker_1, # of connection points: 2
#     Edge 31, Type (0, 0), BuildingBlock: KIFKEQ_clean_linker_1, # of connection points: 2
#     Edge 32, Type (0, 0), BuildingBlock: KIFKEQ_clean_linker_1, # of connection points: 2
#     Edge 33, Type (0, 0), BuildingBlock: KIFKEQ_clean_linker_1, # of connection points: 2
#     Edge 34, Type (0, 0), BuildingBlock: KIFKEQ_clean_linker_1, # of connection points: 2
#     Edge 35, Type (0, 0), BuildingBlock: KIFKEQ_clean_linker_1, # of connection points: 2
#     Edge 36, Type (0, 0), BuildingBlock: KIFKEQ_clean_linker_1, # of connection points: 2
#     Edge 37, Type (0, 0), BuildingBlock: KIFKEQ_clean_linker_1, # of connection points: 2
#     Edge 38, Type (0, 0), BuildingBlock: KIFKEQ_clean_linker_1, # of connection points: 2
#     Edge 39, Type (0, 0), BuildingBlock: KIFKEQ_clean_linker_1, # of connection points: 2
#     Edge 40, Type (0, 0), BuildingBlock: KIFKEQ_clean_linker_1, # of connection points: 2
#     Edge 41, Type (0, 0), BuildingBlock: KIFKEQ_clean_linker_1, # of connection points: 2
#     Edge 42, Type (0, 0), BuildingBlock: KIFKEQ_clean_linker_1, # of connection points: 2
#     Edge 43, Type (0, 0), BuildingBlock: KIFKEQ_clean_linker_1, # of connection points: 2
#     Edge 44, Type (0, 0), BuildingBlock: KIFKEQ_clean_linker_1, # of connection points: 2
#     Edge 45, Type (0, 0), BuildingBlock: KIFKEQ_clean_linker_1, # of connection points: 2
#     Edge 46, Type (0, 0), BuildingBlock: KIFKEQ_clean_linker_1, # of connection points: 2
#     Edge 47, Type (0, 0), BuildingBlock: KIFKEQ_clean_linker_1, # of connection points: 2
#     Edge 48, Type (0, 0), BuildingBlock: KIFKEQ_clean_linker_1, # of connection points: 2
#     Edge 49, Type (0, 0), BuildingBlock: KIFKEQ_clean_linker_1, # of connection points: 2
#     Edge 50, Type (0, 0), BuildingBlock: KIFKEQ_clean_linker_1, # of connection points: 2
#     Edge 51, Type (0, 0), BuildingBlock: KIFKEQ_clean_linker_1, # of connection points: 2
#     Edge 52, Type (0, 0), BuildingBlock: KIFKEQ_clean_linker_1, # of connection points: 2
#     Edge 53, Type (0, 0), BuildingBlock: KIFKEQ_clean_linker_1, # of connection points: 2
#     Edge 54, Type (0, 0), BuildingBlock: KIFKEQ_clean_linker_1, # of connection points: 2
#     Edge 55, Type (0, 0), BuildingBlock: KIFKEQ_clean_linker_1, # of connection points: 2
# Relax obj value: 0.623
# Max RMSD: 0.261
# Mean RMSD: 0.261
data_MOF--net-fnk--node1-XOMCOT_clean_sbu_1--edge1-KIFKEQ_clean_linker_1
_symmetry_space_group_name_H-M    P1
_symmetry_Int_Tables_number       1
_symmetry_cell_setting            triclinic
loop_
_symmetry_equiv_pos_as_xyz
'x, y, z'
_cell_length_a     45.722561
_cell_length_b     45.696173
_cell_length_c     47.902198
_cell_angle_alpha  89.848134
_cell_angle_beta   89.950108
_cell_angle_gamma 90.107647
loop_
_atom_site_label
_atom_site_type_symbol
_atom_site_fract_x
_atom_site_fract_y
_atom_site_fract_z
_atom_type_partial_charge
C0 C 0.1519 0.34773 0.14789 0.0
C1 C 0.17361 0.32735 0.15135 0.0
N2 N 0.19896 0.34137 0.15688 0.0
N3 N 0.16299 0.37474 0.15174 0.0
C4 C 0.19199 0.37023 0.15545 0.0
H5 H 0.12888 0.34298 0.1453 0.0
Co6 Co 0.13835 0.40756 0.15681 0.0
C7 C 0.18741 0.42709 0.19973 0.0
O8 O 0.19919 0.40168 0.20562 0.0
N9 N 0.11326 0.44031 0.16205 0.0
C10 C 0.08998 0.47575 0.18487 0.0
C11 C 0.10956 0.45323 0.18716 0.0
C12 C 0.09473 0.45502 0.14488 0.0
N13 N 0.08059 0.47682 0.15834 0.0
O14 O 0.1533 0.42422 0.12249 0.0
H15 H 0.11994 0.4462 0.2063 0.0
H16 H 0.09138 0.44987 0.1231 0.0
O17 O 0.16655 0.42881 0.18181 0.0
C18 C 0.13518 0.41284 0.10511 0.0
O19 O 0.11408 0.39623 0.11506 0.0
N20 N 0.12014 0.38827 0.18667 0.0
C21 C 0.08975 0.3419 0.21053 0.0
C22 C 0.11794 0.34879 0.21989 0.0
C23 C 0.13301 0.37221 0.20743 0.0
C24 C 0.0918 0.38313 0.17938 0.0
C25 C 0.07619 0.3603 0.19118 0.0
H26 H 0.15565 0.37509 0.21242 0.0
H27 H 0.08198 0.39484 0.16219 0.0
H28 H 0.20751 0.38778 0.15822 0.0
H29 H 0.17008 0.30397 0.15235 0.0
H30 H 0.08241 0.48969 0.20162 0.0
H31 H 0.12885 0.33508 0.23511 0.0
H32 H 0.05412 0.35606 0.18399 0.0
C33 C 0.6682 0.1715 0.15152 0.0
C34 C 0.68492 0.19461 0.16081 0.0
N35 N 0.6766 0.20119 0.18705 0.0
N36 N 0.64943 0.16339 0.17182 0.0
C37 C 0.65463 0.18235 0.19296 0.0
H38 H 0.67159 0.15961 0.13231 0.0
Co39 Co 0.63056 0.12702 0.17402 0.0
C40 C 0.58236 0.13488 0.215 0.0
O41 O 0.58752 0.10826 0.22414 0.0
N42 N 0.61173 0.08968 0.17612 0.0
C43 C 0.60297 0.04226 0.18304 0.0
C44 C 0.62349 0.06412 0.18482 0.0
C45 C 0.58404 0.0824 0.16848 0.0
N46 N 0.57805 0.0537 0.17288 0.0
O47 O 0.61249 0.13369 0.13795 0.0
H48 H 0.64563 0.0611 0.19196 0.0
H49 H 0.56837 0.09806 0.16052 0.0
O50 O 0.59774 0.14541 0.1949 0.0
C51 C 0.62681 0.11721 0.12117 0.0
O52 O 0.64754 0.10057 0.13155 0.0
N53 N 0.65268 0.119 0.20608 0.0
C54 C 0.69444 0.09687 0.24293 0.0
C55 C 0.67019 0.11282 0.2529 0.0
C56 C 0.64951 0.12391 0.23403 0.0
C57 C 0.67804 0.10754 0.19613 0.0
C58 C 0.69886 0.09596 0.21395 0.0
H59 H 0.63129 0.13616 0.24211 0.0
H60 H 0.6812 0.10555 0.17387 0.0
H61 H 0.64487 0.18029 0.21344 0.0
H62 H 0.70336 0.20424 0.14993 0.0
H63 H 0.60632 0.01952 0.18853 0.0
H64 H 0.66654 0.1158 0.27503 0.0
H65 H 0.7169 0.08433 0.20455 0.0
C66 C 0.77535 0.63375 0.18459 0.0
C67 C 0.75349 0.64648 0.20026 0.0
N68 N 0.76288 0.6729 0.20916 0.0
N69 N 0.79852 0.65197 0.18361 0.0
C70 C 0.79001 0.67582 0.19817 0.0
H71 H 0.775 0.61192 0.1759 0.0
Co72 Co 0.83663 0.64452 0.17116 0.0
C73 C 0.85082 0.58766 0.19869 0.0
O74 O 0.87618 0.59926 0.20546 0.0
N75 N 0.87528 0.63773 0.15749 0.0
C76 C 0.91989 0.64583 0.14026 0.0
C77 C 0.8946 0.6586 0.14972 0.0
C78 C 0.88871 0.61244 0.15003 0.0
N79 N 0.91641 0.61656 0.14079 0.0
O80 O 0.82307 0.63589 0.13422 0.0
H81 H 0.89051 0.68184 0.14998 0.0
H82 H 0.87822 0.59128 0.15091 0.0
O83 O 0.8328 0.60263 0.18378 0.0
C84 C 0.82344 0.65953 0.1199 0.0
O85 O 0.8271 0.68433 0.13331 0.0
N86 N 0.85045 0.65578 0.20671 0.0
C87 C 0.88115 0.66768 0.25499 0.0
C88 C 0.85775 0.64782 0.2556 0.0
C89 C 0.84196 0.64279 0.23117 0.0
C90 C 0.86835 0.67958 0.20759 0.0
C91 C 0.88459 0.68559 0.23142 0.0
H92 H 0.82455 0.62675 0.23145 0.0
H93 H 0.87104 0.69326 0.18947 0.0
H94 H 0.80426 0.69433 0.2018 0.0
H95 H 0.73302 0.63619 0.206 0.0
H96 H 0.93941 0.65746 0.13389 0.0
H97 H 0.85333 0.63463 0.27395 0.0
H98 H 0.90147 0.70221 0.23035 0.0
C99 C 0.30963 0.81237 0.14746 0.0
C100 C 0.2979 0.78762 0.15947 0.0
N101 N 0.31261 0.78172 0.1832 0.0
N102 N 0.33184 0.82234 0.16331 0.0
C103 C 0.33366 0.80264 0.18448 0.0
H104 H 0.30056 0.82382 0.12974 0.0
Co105 Co 0.34636 0.86096 0.16073 0.0
C106 C 0.39767 0.86497 0.19811 0.0
O107 O 0.38677 0.89043 0.20543 0.0
N108 N 0.36047 0.9005 0.15703 0.0
C109 C 0.36531 0.94907 0.15603 0.0
C110 C 0.34608 0.92618 0.15951 0.0
C111 C 0.38817 0.90873 0.15026 0.0
N112 N 0.39202 0.93813 0.15059 0.0
O113 O 0.36142 0.8538 0.12353 0.0
H114 H 0.32308 0.92872 0.16364 0.0
H115 H 0.40548 0.89321 0.14617 0.0
O116 O 0.38404 0.84944 0.17978 0.0
C117 C 0.34236 0.86556 0.1074 0.0
O118 O 0.31859 0.87621 0.11899 0.0
N119 N 0.3279 0.86911 0.19514 0.0
C120 C 0.30503 0.89906 0.23985 0.0
C121 C 0.32472 0.87605 0.24447 0.0
C122 C 0.33598 0.8611 0.22156 0.0
C123 C 0.30296 0.88483 0.19156 0.0
C124 C 0.29146 0.90089 0.21364 0.0
H125 H 0.35319 0.84554 0.22526 0.0
H126 H 0.29426 0.88795 0.17078 0.0
H127 H 0.34893 0.80461 0.2015 0.0
H128 H 0.2782 0.77667 0.15259 0.0
H129 H 0.36006 0.972 0.15845 0.0
H130 H 0.33427 0.87241 0.26487 0.0
H131 H 0.27507 0.91729 0.20911 0.0
C132 C 0.19853 0.66711 0.38472 0.0
C133 C 0.21627 0.68445 0.36851 0.0
N134 N 0.21434 0.67542 0.34185 0.0
N135 N 0.18525 0.64684 0.36863 0.0
C136 C 0.19549 0.65248 0.34248 0.0
H137 H 0.1954 0.66976 0.40688 0.0
Co138 Co 0.15688 0.61898 0.38083 0.0
C139 C 0.20159 0.57927 0.35193 0.0
O140 O 0.22523 0.59391 0.35885 0.0
N141 N 0.12938 0.59053 0.39298 0.0
C142 C 0.11388 0.54838 0.41126 0.0
C143 C 0.1377 0.56599 0.40658 0.0
C144 C 0.10009 0.58722 0.3896 0.0
N145 N 0.09023 0.56157 0.40038 0.0
O146 O 0.17737 0.6135 0.41588 0.0
H147 H 0.16005 0.56059 0.41187 0.0
H148 H 0.08637 0.60279 0.37875 0.0
O149 O 0.17663 0.58783 0.36054 0.0
C150 C 0.16274 0.63049 0.43201 0.0
O151 O 0.14246 0.6471 0.4207 0.0
N152 N 0.13423 0.62721 0.34972 0.0
C153 C 0.08451 0.64046 0.31956 0.0
C154 C 0.09819 0.61326 0.3162 0.0
C155 C 0.1235 0.6071 0.33137 0.0
C156 C 0.12281 0.65468 0.35101 0.0
C157 C 0.09806 0.66196 0.33573 0.0
H158 H 0.13204 0.58517 0.33097 0.0
H159 H 0.13123 0.67014 0.36607 0.0
H160 H 0.18859 0.64049 0.32417 0.0
H161 H 0.22958 0.70243 0.3759 0.0
H162 H 0.11421 0.52673 0.42048 0.0
H163 H 0.08798 0.59613 0.30399 0.0
H164 H 0.08783 0.68305 0.33899 0.0
C165 C 0.318 0.22323 0.34247 0.0
C166 C 0.30484 0.24303 0.32503 0.0
N167 N 0.31763 0.24143 0.29977 0.0
N168 N 0.33937 0.209 0.32858 0.0
C169 C 0.33847 0.22053 0.30242 0.0
H170 H 0.31168 0.21932 0.36385 0.0
Co171 Co 0.36335 0.17893 0.34351 0.0
C172 C 0.41901 0.21273 0.33073 0.0
O173 O 0.42139 0.22557 0.35512 0.0
N174 N 0.38825 0.14941 0.35881 0.0
C175 C 0.42537 0.13107 0.38339 0.0
C176 C 0.41057 0.15596 0.37624 0.0
C177 C 0.39004 0.11989 0.35586 0.0
N178 N 0.41267 0.10834 0.37045 0.0
O179 O 0.36665 0.19976 0.3783 0.0
H180 H 0.41627 0.17768 0.38317 0.0
H181 H 0.37537 0.1071 0.34305 0.0
O182 O 0.39725 0.19615 0.32573 0.0
C183 C 0.34728 0.18627 0.39287 0.0
O184 O 0.33084 0.16671 0.38024 0.0
N185 N 0.3568 0.15647 0.31201 0.0
C186 C 0.34285 0.1067 0.28244 0.0
C187 C 0.37144 0.11789 0.28156 0.0
C188 C 0.37799 0.14338 0.29633 0.0
C189 C 0.32838 0.1477 0.31033 0.0
C190 C 0.32079 0.123 0.29518 0.0
H191 H 0.4006 0.14999 0.2983 0.0
H192 H 0.312 0.158 0.32328 0.0
H193 H 0.3527 0.2136 0.28562 0.0
H194 H 0.28651 0.25691 0.33035 0.0
H195 H 0.44487 0.12995 0.39615 0.0
H196 H 0.38898 0.10544 0.27212 0.0
H197 H 0.29861 0.11471 0.29649 0.0
C198 C 0.85363 0.30642 0.33853 0.0
C199 C 0.83349 0.28585 0.33046 0.0
N200 N 0.8082 0.29949 0.32411 0.0
N201 N 0.84157 0.33325 0.33706 0.0
C202 C 0.81352 0.32821 0.32934 0.0
H203 H 0.87644 0.30228 0.34293 0.0
Co204 Co 0.86501 0.3673 0.33898 0.0
C205 C 0.8179 0.39582 0.29818 0.0
O206 O 0.80545 0.37372 0.28535 0.0
N207 N 0.88875 0.40148 0.34019 0.0
C208 C 0.91075 0.44134 0.32344 0.0
C209 C 0.89306 0.41816 0.31718 0.0
C210 C 0.90493 0.41487 0.36023 0.0
N211 N 0.91828 0.43941 0.35048 0.0
O212 O 0.84728 0.37708 0.37435 0.0
H213 H 0.88422 0.41353 0.29673 0.0
H214 H 0.90696 0.40686 0.38142 0.0
O215 O 0.83783 0.39114 0.31643 0.0
C216 C 0.86307 0.36133 0.39066 0.0
O217 O 0.88548 0.34741 0.37981 0.0
N218 N 0.88531 0.35451 0.3077 0.0
C219 C 0.91943 0.31798 0.27497 0.0
C220 C 0.89129 0.32593 0.26611 0.0
C221 C 0.87425 0.34415 0.28314 0.0
C222 C 0.91319 0.34821 0.31553 0.0
C223 C 0.93063 0.33024 0.29945 0.0
H224 H 0.85176 0.34787 0.27766 0.0
H225 H 0.92135 0.35551 0.33551 0.0
H226 H 0.79752 0.34528 0.32684 0.0
H227 H 0.83818 0.26291 0.3273 0.0
H228 H 0.91832 0.45791 0.30892 0.0
H229 H 0.88216 0.31705 0.24707 0.0
H230 H 0.95258 0.32534 0.30658 0.0
C231 C 0.66481 0.8555 0.36334 0.0
C232 C 0.68365 0.83291 0.35709 0.0
N233 N 0.66813 0.81092 0.34557 0.0
N234 N 0.63747 0.84797 0.35562 0.0
C235 C 0.64004 0.82017 0.3462 0.0
H236 H 0.67115 0.87719 0.37002 0.0
Co237 Co 0.60664 0.87479 0.34999 0.0
C238 C 0.5802 0.83269 0.30657 0.0
O239 O 0.60294 0.83243 0.28998 0.0
N240 N 0.57426 0.90066 0.34375 0.0
C241 C 0.53834 0.92137 0.31928 0.0
C242 C 0.56165 0.90277 0.31827 0.0
C243 C 0.55803 0.91886 0.35996 0.0
N244 N 0.5359 0.93153 0.34545 0.0
O245 O 0.59147 0.86424 0.38641 0.0
H246 H 0.56924 0.89175 0.29971 0.0
H247 H 0.56204 0.92258 0.38191 0.0
O248 O 0.58167 0.84571 0.33024 0.0
C249 C 0.6043 0.88341 0.40172 0.0
O250 O 0.61952 0.90396 0.38902 0.0
N251 N 0.62629 0.88965 0.31736 0.0
C252 C 0.6724 0.92005 0.29213 0.0
C253 C 0.67016 0.88981 0.289 0.0
C254 C 0.64682 0.87495 0.30176 0.0
C255 C 0.62785 0.91954 0.3187 0.0
C256 C 0.65007 0.93505 0.30569 0.0
H257 H 0.64822 0.85153 0.30195 0.0
H258 H 0.61426 0.93183 0.3328 0.0
H259 H 0.62216 0.80791 0.33735 0.0
H260 H 0.70728 0.83403 0.35802 0.0
H261 H 0.52465 0.92757 0.30181 0.0
H262 H 0.68749 0.87757 0.27898 0.0
H263 H 0.65145 0.95852 0.30876 0.0
C264 C 0.83178 0.7007 0.86294 0.0
C265 C 0.81492 0.71885 0.84669 0.0
N266 N 0.82876 0.72336 0.82222 0.0
N267 N 0.85649 0.69372 0.84908 0.0
C268 C 0.85395 0.70789 0.82422 0.0
H269 H 0.8257 0.69251 0.88329 0.0
Co270 Co 0.88579 0.66746 0.86143 0.0
C271 C 0.93595 0.71149 0.85957 0.0
O272 O 0.93962 0.71474 0.88657 0.0
N273 N 0.9155 0.64103 0.8738 0.0
C274 C 0.95234 0.62261 0.89869 0.0
C275 C 0.93348 0.64572 0.89572 0.0
C276 C 0.92399 0.61448 0.86391 0.0
N277 N 0.94651 0.60295 0.87861 0.0
O278 O 0.88189 0.6819 0.89933 0.0
H279 H 0.93311 0.66478 0.90897 0.0
H280 H 0.91389 0.60366 0.84633 0.0
O281 O 0.91552 0.6952 0.85047 0.0
C282 C 0.86618 0.66279 0.91203 0.0
O283 O 0.85621 0.64065 0.89734 0.0
N284 N 0.88736 0.65128 0.82606 0.0
C285 C 0.88879 0.6134 0.78109 0.0
C286 C 0.91203 0.63282 0.78577 0.0
C287 C 0.91107 0.65146 0.80868 0.0
C288 C 0.86348 0.63462 0.82029 0.0
C289 C 0.86366 0.61551 0.7978 0.0
H290 H 0.93049 0.66373 0.81371 0.0
H291 H 0.84512 0.63456 0.83455 0.0
H292 H 0.87007 0.70647 0.80772 0.0
H293 H 0.79348 0.72708 0.8521 0.0
H294 H 0.96962 0.62084 0.91404 0.0
H295 H 0.93175 0.63191 0.77325 0.0
H296 H 0.84538 0.60065 0.79528 0.0
C297 C 0.33713 0.83151 0.86628 0.0
C298 C 0.31455 0.81369 0.85764 0.0
N299 N 0.30008 0.82733 0.83686 0.0
N300 N 0.33694 0.85637 0.85109 0.0
C301 C 0.31351 0.85355 0.83403 0.0
H302 H 0.35429 0.82542 0.88067 0.0
Co303 Co 0.36863 0.88239 0.84787 0.0
C304 C 0.34338 0.9114 0.79512 0.0
O305 O 0.35584 0.89295 0.77799 0.0
N306 N 0.40045 0.90937 0.84372 0.0
C307 C 0.43473 0.93517 0.82152 0.0
C308 C 0.41131 0.91688 0.81843 0.0
C309 C 0.41791 0.92391 0.86202 0.0
N310 N 0.4391 0.93952 0.84892 0.0
O311 O 0.35437 0.90337 0.87991 0.0
H312 H 0.40352 0.90872 0.79871 0.0
H313 H 0.41586 0.92252 0.88446 0.0
O314 O 0.34653 0.90851 0.82163 0.0
C315 C 0.36849 0.89116 0.8999 0.0
O316 O 0.38829 0.87143 0.89361 0.0
N317 N 0.38549 0.85713 0.82094 0.0
C318 C 0.41581 0.80971 0.79822 0.0
C319 C 0.38801 0.81717 0.78819 0.0
C320 C 0.37276 0.84044 0.8005 0.0
C321 C 0.41228 0.84931 0.83103 0.0
C322 C 0.42789 0.82629 0.81976 0.0
H323 H 0.35045 0.84391 0.7942 0.0
H324 H 0.42138 0.86011 0.84906 0.0
H325 H 0.3082 0.86899 0.81774 0.0
H326 H 0.31109 0.79124 0.86412 0.0
H327 H 0.44767 0.94448 0.80476 0.0
H328 H 0.37781 0.80453 0.77175 0.0
H329 H 0.44939 0.82149 0.82809 0.0
C330 C 0.1661 0.31671 0.86858 0.0
C331 C 0.17852 0.29121 0.85893 0.0
N332 N 0.17376 0.28932 0.83122 0.0
N333 N 0.15341 0.33102 0.84712 0.0
C334 C 0.15795 0.31342 0.82482 0.0
H335 H 0.16804 0.32501 0.88958 0.0
Co336 Co 0.14022 0.37012 0.84602 0.0
C337 C 0.09209 0.37038 0.80347 0.0
O338 O 0.09916 0.39737 0.79673 0.0
N339 N 0.12715 0.40968 0.84513 0.0
C340 C 0.12489 0.45793 0.83886 0.0
C341 C 0.14259 0.43372 0.83769 0.0
C342 C 0.10026 0.42026 0.85173 0.0
N343 N 0.09815 0.4495 0.84748 0.0
O344 O 0.11924 0.36504 0.88091 0.0
H345 H 0.16527 0.43398 0.83151 0.0
H346 H 0.0822 0.40652 0.8583 0.0
O347 O 0.10639 0.35717 0.82281 0.0
C348 C 0.13705 0.37505 0.89925 0.0
O349 O 0.16288 0.38417 0.89094 0.0
N350 N 0.16475 0.37656 0.81512 0.0
C351 C 0.20781 0.4002 0.7805 0.0
C352 C 0.18225 0.38762 0.76912 0.0
C353 C 0.16078 0.37598 0.78689 0.0
C354 C 0.19147 0.38332 0.82576 0.0
C355 C 0.21312 0.39547 0.80906 0.0
H356 H 0.14112 0.36728 0.77778 0.0
H357 H 0.19507 0.38186 0.84798 0.0
H358 H 0.15185 0.31939 0.80379 0.0
H359 H 0.19136 0.27607 0.87123 0.0
H360 H 0.13131 0.48014 0.8338 0.0
H361 H 0.17786 0.38826 0.74695 0.0
H362 H 0.23237 0.40363 0.81952 0.0
C363 C 0.72152 0.15544 0.87158 0.0
C364 C 0.74519 0.16522 0.85649 0.0
N365 N 0.74326 0.15472 0.83026 0.0
N366 N 0.70437 0.13869 0.85522 0.0
C367 C 0.71872 0.138 0.83043 0.0
H368 H 0.71614 0.16236 0.89248 0.0
Co369 Co 0.66501 0.12898 0.86316 0.0
C370 C 0.65026 0.07752 0.82743 0.0
O371 O 0.62439 0.08941 0.82372 0.0
N372 N 0.62538 0.11984 0.87221 0.0
C373 C 0.57752 0.12109 0.88076 0.0
C374 C 0.60163 0.13734 0.87338 0.0
C375 C 0.61518 0.09342 0.8808 0.0
N376 N 0.58592 0.09321 0.88513 0.0
O377 O 0.67548 0.11174 0.89847 0.0
H378 H 0.60129 0.16051 0.86931 0.0
H379 H 0.62908 0.07442 0.88293 0.0
O380 O 0.66931 0.09083 0.84262 0.0
C381 C 0.66999 0.13159 0.91656 0.0
O382 O 0.66311 0.15787 0.9075 0.0
N383 N 0.65367 0.14934 0.83075 0.0
C384 C 0.61759 0.17774 0.79358 0.0
C385 C 0.63536 0.15464 0.78438 0.0
C386 C 0.65332 0.14044 0.80356 0.0
C387 C 0.64333 0.17635 0.83735 0.0
C388 C 0.62427 0.19073 0.8193 0.0
H389 H 0.66469 0.12108 0.79685 0.0
H390 H 0.6463 0.18465 0.85828 0.0
H391 H 0.71044 0.12682 0.81233 0.0
H392 H 0.76105 0.18101 0.86381 0.0
H393 H 0.55535 0.12922 0.88174 0.0
H394 H 0.6327 0.14534 0.76376 0.0
H395 H 0.6122 0.20934 0.8271 0.0
C396 C 0.83122 0.31961 0.65745 0.0
C397 C 0.81342 0.29849 0.66876 0.0
N398 N 0.8303 0.27687 0.67893 0.0
N399 N 0.85959 0.31236 0.66116 0.0
C400 C 0.85806 0.28523 0.67286 0.0
H401 H 0.82362 0.33936 0.64741 0.0
Co402 Co 0.89114 0.3373 0.64939 0.0
C403 C 0.92502 0.30069 0.68969 0.0
O404 O 0.90334 0.30346 0.70754 0.0
N405 N 0.92167 0.36167 0.6365 0.0
C406 C 0.96512 0.37481 0.61987 0.0
C407 C 0.94581 0.35201 0.62329 0.0
C408 C 0.92637 0.39072 0.63999 0.0
N409 N 0.95309 0.39916 0.63078 0.0
O410 O 0.88962 0.31957 0.61287 0.0
H411 H 0.94966 0.32947 0.61752 0.0
H412 H 0.91134 0.40494 0.6509 0.0
O413 O 0.92162 0.31013 0.66454 0.0
C414 C 0.87304 0.33715 0.59925 0.0
O415 O 0.86189 0.35953 0.61274 0.0
N416 N 0.89061 0.3584 0.68333 0.0
C417 C 0.89193 0.40741 0.71759 0.0
C418 C 0.91664 0.38967 0.71503 0.0
C419 C 0.91571 0.36558 0.69739 0.0
C420 C 0.8657 0.37405 0.68785 0.0
C421 C 0.86576 0.3984 0.70518 0.0
H422 H 0.93631 0.35574 0.69201 0.0
H423 H 0.84661 0.37046 0.67535 0.0
H424 H 0.87676 0.2714 0.6765 0.0
H425 H 0.78985 0.29971 0.67023 0.0
H426 H 0.98673 0.37329 0.61079 0.0
H427 H 0.93737 0.39613 0.7241 0.0
H428 H 0.84634 0.41191 0.70604 0.0
C429 C 0.66118 0.81076 0.65571 0.0
C430 C 0.68467 0.79378 0.66312 0.0
N431 N 0.70637 0.81137 0.6722 0.0
N432 N 0.66748 0.83919 0.66021 0.0
C433 C 0.69566 0.8389 0.66907 0.0
H434 H 0.6398 0.80262 0.64997 0.0
Co435 Co 0.63752 0.86794 0.66175 0.0
C436 C 0.6775 0.89736 0.70802 0.0
O437 O 0.691 0.87483 0.71903 0.0
N438 N 0.60768 0.89673 0.66437 0.0
C439 C 0.57994 0.92967 0.68602 0.0
C440 C 0.59889 0.90688 0.68953 0.0
C441 C 0.59311 0.91371 0.64569 0.0
N442 N 0.57633 0.93408 0.65853 0.0
O443 O 0.65258 0.88667 0.62835 0.0
H444 H 0.60667 0.89891 0.70946 0.0
H445 H 0.59561 0.91208 0.62331 0.0
O446 O 0.65954 0.89372 0.68774 0.0
C447 C 0.64119 0.87086 0.60905 0.0
O448 O 0.62492 0.84844 0.61648 0.0
N449 N 0.61958 0.84646 0.69019 0.0
C450 C 0.58733 0.80451 0.71925 0.0
C451 C 0.6137 0.81533 0.73026 0.0
C452 C 0.62983 0.83616 0.7151 0.0
C453 C 0.594 0.83617 0.67949 0.0
C454 C 0.57749 0.81554 0.69367 0.0
H455 H 0.65077 0.8428 0.72287 0.0
H456 H 0.58665 0.84357 0.65923 0.0
H457 H 0.70776 0.85842 0.67421 0.0
H458 H 0.6845 0.77014 0.66428 0.0
H459 H 0.56989 0.94244 0.70243 0.0
H460 H 0.62203 0.80731 0.75 0.0
H461 H 0.55694 0.80854 0.68462 0.0
C462 C 0.1908 0.65396 0.68563 0.0
C463 C 0.2103 0.67594 0.69204 0.0
N464 N 0.19513 0.69924 0.70132 0.0
N465 N 0.16336 0.66314 0.69115 0.0
C466 C 0.16671 0.69131 0.69927 0.0
H467 H 0.19649 0.63176 0.68011 0.0
Co468 Co 0.13014 0.63837 0.69333 0.0
C469 C 0.10609 0.68259 0.73555 0.0
O470 O 0.12882 0.68042 0.75195 0.0
N471 N 0.0958 0.61462 0.69488 0.0
C472 C 0.05562 0.59374 0.71215 0.0
C473 C 0.07744 0.61367 0.71698 0.0
C474 C 0.0844 0.59488 0.67674 0.0
N475 N 0.05988 0.58177 0.68682 0.0
O476 O 0.11978 0.65101 0.65596 0.0
H477 H 0.08047 0.62565 0.73618 0.0
H478 H 0.09413 0.58982 0.65678 0.0
O479 O 0.10562 0.66898 0.71213 0.0
C480 C 0.13487 0.6326 0.64173 0.0
O481 O 0.1482 0.61158 0.65553 0.0
N482 N 0.14495 0.62114 0.72784 0.0
C483 C 0.18544 0.5861 0.75623 0.0
C484 C 0.18788 0.61641 0.75716 0.0
C485 C 0.16711 0.63357 0.74331 0.0
C486 C 0.14147 0.59132 0.72924 0.0
C487 C 0.16086 0.57368 0.74387 0.0
H488 H 0.17212 0.65647 0.74213 0.0
H489 H 0.12634 0.57979 0.71609 0.0
H490 H 0.14889 0.70518 0.70569 0.0
H491 H 0.23386 0.67375 0.69264 0.0
H492 H 0.03874 0.5876 0.7269 0.0
H493 H 0.20704 0.62666 0.76619 0.0
H494 H 0.15873 0.5501 0.74232 0.0
C495 C 0.33463 0.19658 0.65679 0.0
C496 C 0.31425 0.21238 0.67137 0.0
N497 N 0.29885 0.19384 0.68761 0.0
N498 N 0.33213 0.168 0.66342 0.0
C499 C 0.31019 0.16699 0.68251 0.0
H500 H 0.3508 0.20563 0.64275 0.0
Co501 Co 0.35709 0.13931 0.64871 0.0
C502 C 0.34595 0.08521 0.68 0.0
O503 O 0.37447 0.08287 0.68171 0.0
N504 N 0.38241 0.11008 0.63282 0.0
C505 C 0.39427 0.07051 0.608 0.0
C506 C 0.37239 0.08976 0.61465 0.0
C507 C 0.41082 0.10231 0.63685 0.0
N508 N 0.41844 0.07822 0.62212 0.0
O509 O 0.33406 0.13871 0.61489 0.0
H510 H 0.35003 0.08801 0.60756 0.0
H511 H 0.42543 0.11301 0.65126 0.0
O512 O 0.33442 0.1073 0.66748 0.0
C513 C 0.34826 0.15684 0.59953 0.0
O514 O 0.37224 0.16851 0.60969 0.0
N515 N 0.38121 0.14482 0.67938 0.0
C516 C 0.4187 0.16803 0.71928 0.0
C517 C 0.39367 0.15233 0.72748 0.0
C518 C 0.37466 0.14146 0.70706 0.0
C519 C 0.40465 0.16115 0.67135 0.0
C520 C 0.42392 0.17244 0.69079 0.0
H521 H 0.35444 0.13126 0.71353 0.0
H522 H 0.40849 0.16541 0.64947 0.0
H523 H 0.30288 0.14712 0.69269 0.0
H524 H 0.31169 0.23592 0.67081 0.0
H525 H 0.39199 0.05123 0.59509 0.0
H526 H 0.38863 0.14897 0.74935 0.0
H527 H 0.44309 0.18406 0.68338 0.0
H528 H 0.96911 0.62382 0.11473 0.0
H529 H 0.91519 0.55884 0.15594 0.0
H530 H 0.00937 0.58915 0.11335 0.0
H531 H 0.95531 0.52406 0.15349 0.0
H532 H 0.03163 0.46282 0.1296 0.0
H533 H 0.99029 0.49574 0.11951 0.0
H534 H 0.0388 0.56792 0.15463 0.0
H535 H 0.07944 0.53497 0.16509 0.0
C536 C 0.96554 0.60218 0.12326 0.0
C537 C 0.93871 0.59459 0.13591 0.0
C538 C 0.98869 0.58223 0.12227 0.0
C539 C 0.98554 0.55396 0.13344 0.0
C540 C 0.9583 0.54563 0.14449 0.0
C541 C 0.93522 0.56571 0.14586 0.0
C542 C 0.03352 0.48587 0.13447 0.0
C543 C 0.05861 0.49652 0.14799 0.0
C544 C 0.0099 0.50461 0.12896 0.0
C545 C 0.01135 0.5344 0.13628 0.0
C546 C 0.03713 0.54518 0.14848 0.0
C547 C 0.06034 0.52639 0.15452 0.0
H548 H 0.53637 0.06448 0.13365 0.0
H549 H 0.55791 0.00748 0.20252 0.0
H550 H 0.49171 0.03612 0.1253 0.0
H551 H 0.51345 0.97962 0.19471 0.0
H552 H 0.44685 0.91751 0.16089 0.0
H553 H 0.49182 0.94565 0.16389 0.0
H554 H 0.44437 0.02448 0.14338 0.0
H555 H 0.39961 0.99602 0.13882 0.0
C556 C 0.53144 0.04609 0.14715 0.0
C557 C 0.55088 0.0381 0.16856 0.0
C558 C 0.50584 0.02978 0.1424 0.0
C559 C 0.499 0.00522 0.15909 0.0
C560 C 0.51824 0.99778 0.18086 0.0
C561 C 0.54379 0.01388 0.18545 0.0
C562 C 0.44597 0.94069 0.15638 0.0
C563 C 0.4193 0.95436 0.14975 0.0
C564 C 0.47183 0.95701 0.15854 0.0
C565 C 0.47183 0.98755 0.15434 0.0
C566 C 0.44539 1.00105 0.14669 0.0
C567 C 0.41954 0.98469 0.14437 0.0
H568 H 0.92115 0.4978 0.3441 0.0
H569 H 0.96128 0.42535 0.38714 0.0
H570 H 0.96026 0.53017 0.35962 0.0
H571 H 1.00102 0.45762 0.4025 0.0
H572 H 0.05575 0.56352 0.35484 0.0
H573 H 0.01082 0.53589 0.34685 0.0
H574 H 0.01693 0.49937 0.42996 0.0
H575 H 0.06185 0.52741 0.43773 0.0
C576 C 0.93826 0.48892 0.35722 0.0
C577 C 0.93835 0.45902 0.36421 0.0
C578 C 0.96078 0.50741 0.36597 0.0
C579 C 0.98415 0.49646 0.38188 0.0
C580 C 0.98332 0.46688 0.39037 0.0
C581 C 0.96056 0.44834 0.38167 0.0
C582 C 0.04682 0.55046 0.37168 0.0
C583 C 0.06193 0.54807 0.39703 0.0
C584 C 0.02121 0.53436 0.3671 0.0
C585 C 0.01014 0.51532 0.38779 0.0
C586 C 0.02495 0.5135 0.41345 0.0
C587 C 0.05056 0.52967 0.41798 0.0
H588 H 0.47995 0.93576 0.32821 0.0
H589 H 0.54366 0.97581 0.3824 0.0
H590 H 0.44618 0.97591 0.3368 0.0
H591 H 0.50998 0.01646 0.39088 0.0
H592 H 0.41615 0.07242 0.32581 0.0
H593 H 0.44323 0.02649 0.32298 0.0
H594 H 0.46427 0.03289 0.4107 0.0
H595 H 0.43713 0.07881 0.41325 0.0
C596 C 0.48663 0.95313 0.34217 0.0
C597 C 0.5146 0.95282 0.3544 0.0
C598 C 0.46731 0.97622 0.34699 0.0
C599 C 0.47544 0.99973 0.36417 0.0
C600 C 0.50285 0.99864 0.37766 0.0
C601 C 0.5222 0.97536 0.37288 0.0
C602 C 0.42572 0.06344 0.34462 0.0
C603 C 0.42434 0.07906 0.36976 0.0
C604 C 0.44146 0.03721 0.34304 0.0
C605 C 0.45622 0.02601 0.3666 0.0
C606 C 0.45368 0.04107 0.39203 0.0
C607 C 0.43798 0.06727 0.39356 0.0
H608 H 0.97274 0.56807 0.91673 0.0
H609 H 0.95806 0.57815 0.82829 0.0
H610 H 0.00625 0.52776 0.90775 0.0
H611 H 0.99135 0.5373 0.81917 0.0
H612 H 0.08528 0.49742 0.81661 0.0
H613 H 0.04467 0.53111 0.82304 0.0
H614 H 0.01192 0.47739 0.8905 0.0
H615 H 0.05315 0.44375 0.88426 0.0
C616 C 0.97642 0.56141 0.89534 0.0
C617 C 0.96297 0.57655 0.87322 0.0
C618 C 0.99544 0.53808 0.89019 0.0
C619 C 1.00173 0.52934 0.86272 0.0
C620 C 0.98728 0.54366 0.84058 0.0
C621 C 0.96798 0.5669 0.84578 0.0
C622 C 0.06943 0.49274 0.83282 0.0
C623 C 0.0727 0.46805 0.85016 0.0
C624 C 0.04588 0.5119 0.83627 0.0
C625 C 0.02496 0.50706 0.85731 0.0
C626 C 0.02775 0.48192 0.87422 0.0
C627 C 0.05125 0.46253 0.87056 0.0
H628 H 0.43779 0.97158 0.89671 0.0
H629 H 0.49324 0.94684 0.82783 0.0
H630 H 0.47557 0.00579 0.91286 0.0
H631 H 0.53003 0.98142 0.84286 0.0
H632 H 0.5995 0.03569 0.87692 0.0
H633 H 0.56586 0.99478 0.87552 0.0
H634 H 0.4947 0.05215 0.89802 0.0
H635 H 0.52868 0.0928 0.90133 0.0
C636 C 0.45816 0.97317 0.88527 0.0
C637 C 0.46235 0.95688 0.86076 0.0
C638 C 0.4797 0.99294 0.89432 0.0
C639 C 0.50588 0.99661 0.8791 0.0
C640 C 0.51046 0.97909 0.85542 0.0
C641 C 0.48908 0.95949 0.84648 0.0
C642 C 0.57692 0.03966 0.88236 0.0
C643 C 0.56693 0.06803 0.88861 0.0
C644 C 0.55744 0.01608 0.88123 0.0
C645 C 0.52734 0.02019 0.88596 0.0
C646 C 0.51767 0.04804 0.89421 0.0
C647 C 0.53722 0.07158 0.89568 0.0
H648 H 0.01141 0.4086 0.63602 0.0
H649 H 0.92794 0.4526 0.63752 0.0
H650 H 0.03597 0.45421 0.6466 0.0
H651 H 0.95266 0.49874 0.64776 0.0
H652 H 1.00399 0.56617 0.69946 0.0
H653 H 0.97779 0.52305 0.68398 0.0
H654 H 0.05004 0.50079 0.62988 0.0
H655 H 0.07711 0.5431 0.64676 0.0
C656 C 0.99826 0.42813 0.638 0.0
C657 C 0.96761 0.42683 0.63566 0.0
C658 C 0.01244 0.45446 0.64407 0.0
C659 C 0.99645 0.4804 0.64789 0.0
C660 C 0.96576 0.47921 0.64527 0.0
C661 C 0.95153 0.45274 0.63932 0.0
C662 C 0.01449 0.55206 0.6844 0.0
C663 C 0.04305 0.55803 0.67483 0.0
C664 C 0.99917 0.52742 0.67516 0.0
C665 C 0.01178 0.50811 0.65581 0.0
C666 C 0.0398 0.51479 0.64524 0.0
C667 C 0.05525 0.53936 0.65467 0.0
H668 H 0.45371 0.07206 0.66722 0.0
H669 H 0.44299 0.04513 0.58159 0.0
H670 H 0.49499 0.03897 0.6721 0.0
H671 H 0.4848 0.0123 0.58613 0.0
H672 H 0.53409 0.92947 0.61927 0.0
H673 H 0.49782 0.96705 0.6076 0.0
H674 H 0.54377 0.02877 0.66003 0.0
H675 H 0.57891 0.9908 0.67228 0.0
C676 C 0.46062 0.05959 0.64921 0.0
C677 C 0.44499 0.06122 0.62404 0.0
C678 C 0.48439 0.04053 0.65195 0.0
C679 C 0.49338 0.02276 0.6295 0.0
C680 C 0.47829 0.02518 0.60403 0.0
C681 C 0.45438 0.0441 0.60137 0.0
C682 C 0.53665 0.95132 0.62763 0.0
C683 C 0.55907 0.95731 0.64673 0.0
C684 C 0.51591 0.9729 0.62105 0.0
C685 C 0.51745 1.00095 0.63328 0.0
C686 C 0.54127 0.0073 0.65082 0.0
C687 C 0.56163 0.98569 0.65761 0.0
H688 H 0.21431 0.28353 0.15789 0.0
H689 H 0.24299 0.36883 0.18566 0.0
H690 H 0.24892 0.26064 0.18933 0.0
H691 H 0.27853 0.34584 0.21606 0.0
H692 H 0.29596 0.29625 0.29851 0.0
H693 H 0.27359 0.32115 0.25925 0.0
H694 H 0.29706 0.24911 0.20545 0.0
H695 H 0.3187 0.2236 0.24553 0.0
C696 C 0.22815 0.29757 0.17034 0.0
C697 C 0.22454 0.32823 0.1699 0.0
C698 C 0.24844 0.2843 0.18823 0.0
C699 C 0.2661 0.30128 0.20596 0.0
C700 C 0.26465 0.33195 0.20343 0.0
C701 C 0.24421 0.34523 0.18569 0.0
C702 C 0.29656 0.28577 0.27828 0.0
C703 C 0.30875 0.25773 0.27529 0.0
C704 C 0.28401 0.30026 0.25556 0.0
C705 C 0.28329 0.28722 0.22899 0.0
C706 C 0.29684 0.25972 0.22563 0.0
C707 C 0.30953 0.24518 0.24852 0.0
H708 H 0.79459 0.24162 0.31934 0.0
H709 H 0.766 0.32774 0.29358 0.0
H710 H 0.76062 0.21966 0.28641 0.0
H711 H 0.73098 0.30526 0.26157 0.0
H712 H 0.65519 0.23474 0.22898 0.0
H713 H 0.68375 0.26056 0.26504 0.0
H714 H 0.76359 0.22988 0.22726 0.0
H715 H 0.73538 0.20487 0.19117 0.0
C716 C 0.781 0.256 0.30698 0.0
C717 C 0.78393 0.28666 0.30882 0.0
C718 C 0.76135 0.24329 0.28822 0.0
C719 C 0.74348 0.26079 0.2713 0.0
C720 C 0.7446 0.29131 0.27443 0.0
C721 C 0.76471 0.30415 0.2929 0.0
C722 C 0.67885 0.23391 0.22829 0.0
C723 C 0.69305 0.21806 0.2071 0.0
C724 C 0.69511 0.24864 0.24882 0.0
C725 C 0.7258 0.24708 0.24887 0.0
C726 C 0.73994 0.23138 0.22765 0.0
C727 C 0.7238 0.21728 0.20688 0.0
H728 H 0.64434 0.78786 0.29844 0.0
H729 H 0.71941 0.78199 0.35271 0.0
H730 H 0.66685 0.75377 0.26633 0.0
H731 H 0.74196 0.74715 0.32064 0.0
H732 H 0.78827 0.71447 0.24212 0.0
H733 H 0.76454 0.74589 0.27597 0.0
H734 H 0.68148 0.70511 0.25756 0.0
H735 H 0.70497 0.67473 0.22251 0.0
C736 C 0.66535 0.77874 0.30397 0.0
C737 C 0.67997 0.78773 0.32837 0.0
C738 C 0.67839 0.75909 0.28538 0.0
C739 C 0.70641 0.74765 0.29063 0.0
C740 C 0.72063 0.75588 0.31551 0.0
C741 C 0.70763 0.77572 0.33406 0.0
C742 C 0.76488 0.71238 0.24485 0.0
C743 C 0.74864 0.69198 0.22918 0.0
C744 C 0.75128 0.73018 0.26476 0.0
C745 C 0.72101 0.7281 0.26978 0.0
C746 C 0.70476 0.70767 0.25417 0.0
C747 C 0.71835 0.68995 0.23415 0.0
H748 H 0.2317 0.64928 0.29346 0.0
H749 H 0.22954 0.73233 0.33602 0.0
H750 H 0.25841 0.67216 0.25465 0.0
H751 H 0.25559 0.75512 0.29762 0.0
H752 H 0.32429 0.78597 0.23894 0.0
H753 H 0.30234 0.75782 0.2765 0.0
H754 H 0.25455 0.70626 0.21638 0.0
H755 H 0.27778 0.73349 0.17856 0.0
C756 C 0.2367 0.67242 0.29445 0.0
C757 C 0.22874 0.68884 0.31807 0.0
C758 C 0.25205 0.68558 0.27222 0.0
C759 C 0.25969 0.7155 0.27305 0.0
C760 C 0.25102 0.7319 0.29645 0.0
C761 C 0.23589 0.71879 0.31856 0.0
C762 C 0.30971 0.76823 0.2335 0.0
C763 C 0.30271 0.7624 0.20544 0.0
C764 C 0.29667 0.75227 0.25522 0.0
C765 C 0.27607 0.73006 0.24966 0.0
C766 C 0.27024 0.72315 0.2216 0.0
C767 C 0.28341 0.73904 0.19983 0.0
H768 H 0.73763 0.84317 0.71033 0.0
H769 H 0.7325 0.75777 0.6722 0.0
H770 H 0.77227 0.82436 0.7443 0.0
H771 H 0.76644 0.73877 0.70678 0.0
H772 H 0.83856 0.7131 0.76695 0.0
H773 H 0.81464 0.73713 0.72732 0.0
H774 H 0.76781 0.79316 0.78439 0.0
H775 H 0.79226 0.76985 0.82356 0.0
C776 C 0.74398 0.82049 0.70885 0.0
C777 C 0.73129 0.80192 0.68877 0.0
C778 C 0.76381 0.80957 0.72862 0.0
C779 C 0.77176 0.7798 0.72884 0.0
C780 C 0.76088 0.76178 0.70745 0.0
C781 C 0.74105 0.77269 0.68769 0.0
C782 C 0.8236 0.73094 0.77094 0.0
C783 C 0.81718 0.73934 0.79851 0.0
C784 C 0.80964 0.74456 0.74823 0.0
C785 C 0.78909 0.7671 0.75251 0.0
C786 C 0.78367 0.77619 0.78008 0.0
C787 C 0.79746 0.76253 0.80267 0.0
H788 H 0.24788 0.72569 0.69536 0.0
H789 H 0.16967 0.7257 0.74592 0.0
H790 H 0.27083 0.76001 0.72778 0.0
H791 H 0.19235 0.76018 0.77796 0.0
H792 H 0.26054 0.7844 0.84703 0.0
H793 H 0.23268 0.75659 0.81251 0.0
H794 H 0.26854 0.81053 0.7467 0.0
H795 H 0.2966 0.83796 0.78101 0.0
C796 C 0.23543 0.73338 0.71311 0.0
C797 C 0.20695 0.72286 0.71794 0.0
C798 C 0.24849 0.75315 0.73163 0.0
C799 C 0.23348 0.76269 0.7556 0.0
C800 C 0.20463 0.75303 0.75988 0.0
C801 C 0.19148 0.73349 0.74124 0.0
C802 C 0.2622 0.7905 0.82523 0.0
C803 C 0.28082 0.81344 0.81692 0.0
C804 C 0.24612 0.77469 0.80545 0.0
C805 C 0.24848 0.78126 0.7768 0.0
C806 C 0.26643 0.80474 0.76855 0.0
C807 C 0.28228 0.82071 0.78835 0.0
H808 H 0.26014 0.23792 0.6821 0.0
H809 H 0.28716 0.16909 0.73813 0.0
H810 H 0.22684 0.25663 0.71737 0.0
H811 H 0.25312 0.18745 0.7736 0.0
H812 H 0.22404 0.25832 0.83871 0.0
H813 H 0.2507 0.23059 0.80379 0.0
H814 H 0.18249 0.24786 0.74374 0.0
H815 H 0.15565 0.27564 0.77878 0.0
C816 C 0.25868 0.22657 0.70191 0.0
C817 C 0.27651 0.20219 0.70739 0.0
C818 C 0.23933 0.23712 0.72209 0.0
C819 C 0.23728 0.22365 0.74845 0.0
C820 C 0.25434 0.19854 0.75362 0.0
C821 C 0.27363 0.18783 0.73324 0.0
C822 C 0.21428 0.25574 0.81831 0.0
C823 C 0.1877 0.26964 0.81162 0.0
C824 C 0.22966 0.23973 0.7982 0.0
C825 C 0.21895 0.23718 0.7708 0.0
C826 C 0.19169 0.24983 0.76447 0.0
C827 C 0.17628 0.26581 0.7846 0.0
H828 H 0.86272 0.24501 0.71594 0.0
H829 H 0.77556 0.25356 0.6822 0.0
H830 H 0.84475 0.2094 0.74969 0.0
H831 H 0.75728 0.21976 0.71702 0.0
H832 H 0.72882 0.14982 0.77491 0.0
H833 H 0.75284 0.17314 0.73565 0.0
H834 H 0.81826 0.20867 0.79115 0.0
H835 H 0.79556 0.18359 0.83008 0.0
C836 C 0.8398 0.23915 0.71541 0.0
C837 C 0.82062 0.25271 0.69639 0.0
C838 C 0.82934 0.21893 0.73516 0.0
C839 C 0.79935 0.21184 0.73664 0.0
C840 C 0.78052 0.22428 0.71664 0.0
C841 C 0.79101 0.24418 0.69675 0.0
C842 C 0.74869 0.16195 0.77887 0.0
C843 C 0.7597 0.16509 0.80618 0.0
C844 C 0.76235 0.17579 0.75617 0.0
C845 C 0.78728 0.19349 0.76003 0.0
C846 C 0.79923 0.19524 0.78705 0.0
C847 C 0.78582 0.18109 0.80967 0.0
H848 H 0.18312 0.41089 0.07001 0.0
H849 H 0.08931 0.41998 0.0708 0.0
H850 H 0.18155 0.40218 0.01946 0.0
H851 H 0.08739 0.41032 0.02108 0.0
H852 H 0.09563 0.40845 0.92524 0.0
H853 H 0.09639 0.42336 0.97436 0.0
H854 H 0.1674 0.36314 0.98986 0.0
H855 H 0.16705 0.34931 0.94078 0.0
C856 C 0.16232 0.41196 0.05925 0.0
C857 C 0.1364 0.41625 0.07433 0.0
C858 C 0.16124 0.40633 0.03037 0.0
C859 C 0.1342 0.40484 0.01606 0.0
C860 C 0.10861 0.41131 0.03104 0.0
C861 C 0.10973 0.41692 0.05968 0.0
C862 C 0.11059 0.3977 0.93948 0.0
C863 C 0.13073 0.37714 0.92942 0.0
C864 C 0.11138 0.4065 0.9676 0.0
C865 C 0.13238 0.39492 0.98623 0.0
C866 C 0.15147 0.37325 0.97619 0.0
C867 C 0.15081 0.36472 0.94817 0.0
H868 H 0.68161 0.16827 0.9591 0.0
H869 H 0.64665 0.08258 0.94155 0.0
H870 H 0.66567 0.16416 1.00737 0.0
H871 H 0.62963 0.0786 0.98995 0.0
H872 H 0.63438 0.0716 0.08656 0.0
H873 H 0.64426 0.07327 0.03686 0.0
H874 H 0.62317 0.16544 0.03585 0.0
H875 H 0.61435 0.16378 0.08637 0.0
C876 C 0.67083 0.1483 0.96577 0.0
C877 C 0.66576 0.12557 0.94666 0.0
C878 C 0.66114 0.14616 0.99336 0.0
C879 C 0.64571 0.12134 1.00263 0.0
C880 C 0.64151 0.09805 0.98369 0.0
C881 C 0.65153 0.10012 0.956 0.0
C882 C 0.63115 0.09212 0.0756 0.0
C883 C 0.62374 0.11762 0.0904 0.0
C884 C 0.63679 0.09305 0.04697 0.0
C885 C 0.63515 0.11958 0.03221 0.0
C886 C 0.62541 0.14472 0.04664 0.0
C887 C 0.61977 0.14376 0.0755 0.0
H888 H 0.83055 0.62585 0.94064 0.0
H889 H 0.88535 0.70197 0.95227 0.0
H890 H 0.81905 0.62517 0.98995 0.0
H891 H 0.87394 0.70103 1.00241 0.0
H892 H 0.82321 0.70686 0.0852 0.0
H893 H 0.83361 0.70852 0.0354 0.0
H894 H 0.84149 0.61436 0.03444 0.0
H895 H 0.8308 0.61267 0.08447 0.0
C896 C 0.84028 0.64252 0.95373 0.0
C897 C 0.859 0.66399 0.94234 0.0
C898 C 0.83376 0.64194 0.9822 0.0
C899 C 0.8457 0.66283 1.00033 0.0
C900 C 0.86416 0.68467 0.989 0.0
C901 C 0.87079 0.68522 0.9603 0.0
C902 C 0.82685 0.6864 0.07437 0.0
C903 C 0.82601 0.65957 0.08892 0.0
C904 C 0.83315 0.68744 0.04579 0.0
C905 C 0.83868 0.66166 0.03084 0.0
C906 C 0.83712 0.63469 0.04521 0.0
C907 C 0.83088 0.63366 0.07391 0.0
H908 H 0.4093 0.9002 0.93938 0.0
H909 H 0.31626 0.89114 0.92798 0.0
H910 H 0.40341 0.89498 0.98969 0.0
H911 H 0.31013 0.88484 0.97841 0.0
H912 H 0.30604 0.89462 0.07231 0.0
H913 H 0.31203 0.90524 0.02327 0.0
H914 H 0.39361 0.85764 0.02301 0.0
H915 H 0.38806 0.84786 0.07313 0.0
C916 C 0.38743 0.89784 0.94783 0.0
C917 C 0.36316 0.89656 0.92986 0.0
C918 C 0.3841 0.89425 0.97665 0.0
C919 C 0.35639 0.88885 0.98831 0.0
C920 C 0.33185 0.88916 0.97036 0.0
C921 C 0.33521 0.89307 0.94142 0.0
C922 C 0.32535 0.88625 0.06197 0.0
C923 C 0.34659 0.87024 0.07686 0.0
C924 C 0.32865 0.89229 0.03357 0.0
C925 C 0.35323 0.88235 0.01887 0.0
C926 C 0.37453 0.86611 0.03366 0.0
C927 C 0.3713 0.8602 0.06236 0.0
H928 H 0.15675 0.67799 0.46479 0.0
H929 H 0.17301 0.58517 0.46874 0.0
H930 H 0.15029 0.67953 0.51519 0.0
H931 H 0.16577 0.58634 0.51942 0.0
H932 H 0.17464 0.60177 0.61218 0.0
H933 H 0.18425 0.60195 0.56273 0.0
H934 H 0.11612 0.66614 0.55071 0.0
H935 H 0.10692 0.6666 0.6013 0.0
C936 C 0.15944 0.65791 0.4766 0.0
C937 C 0.1657 0.63147 0.46282 0.0
C938 C 0.15525 0.65874 0.50551 0.0
C939 C 0.15696 0.63305 0.52158 0.0
C940 C 0.16447 0.6067 0.50789 0.0
C941 C 0.1689 0.60595 0.47882 0.0
C942 C 0.16147 0.616 0.59919 0.0
C943 C 0.13976 0.6341 0.61094 0.0
C944 C 0.16699 0.6159 0.57055 0.0
C945 C 0.1509 0.63378 0.55239 0.0
C946 C 0.12924 0.65221 0.56403 0.0
C947 C 0.12378 0.65244 0.59303 0.0
H948 H 0.29951 0.17232 0.42336 0.0
H949 H 0.38752 0.20562 0.4316 0.0
H950 H 0.2957 0.16729 0.47374 0.0
H951 H 0.38366 0.2006 0.4825 0.0
H952 H 0.36002 0.20783 0.57372 0.0
H953 H 0.35753 0.2188 0.52414 0.0
H954 H 0.3176 0.13452 0.50939 0.0
H955 H 0.32013 0.12346 0.5596 0.0
C956 C 0.31797 0.179 0.43601 0.0
C957 C 0.34393 0.18928 0.42348 0.0
C958 C 0.31579 0.17586 0.46491 0.0
C959 C 0.33945 0.18309 0.48213 0.0
C960 C 0.36494 0.19492 0.46977 0.0
C961 C 0.36717 0.19798 0.44066 0.0
C962 C 0.35027 0.19174 0.55998 0.0
C963 C 0.34041 0.16466 0.57051 0.0
C964 C 0.34909 0.198 0.53152 0.0
C965 C 0.3379 0.17739 0.51274 0.0
C966 C 0.32633 0.15092 0.52339 0.0
C967 C 0.32758 0.14459 0.5521 0.0
H968 H 0.87058 0.31074 0.41828 0.0
H969 H 0.84336 0.40006 0.43096 0.0
H970 H 0.87058 0.30226 0.46831 0.0
H971 H 0.84378 0.39175 0.48171 0.0
H972 H 0.82803 0.3614 0.57091 0.0
H973 H 0.82181 0.36622 0.52076 0.0
H974 H 0.90022 0.31544 0.50773 0.0
H975 H 0.90621 0.31027 0.55838 0.0
C976 C 0.86423 0.32856 0.43187 0.0
C977 C 0.85702 0.35614 0.42068 0.0
C978 C 0.86454 0.32373 0.46064 0.0
C979 C 0.85775 0.34638 0.47923 0.0
C980 C 0.84904 0.37369 0.46802 0.0
C981 C 0.84862 0.37852 0.43897 0.0
C982 C 0.84383 0.35092 0.55737 0.0
C983 C 0.8677 0.33545 0.5687 0.0
C984 C 0.84035 0.35396 0.52854 0.0
C985 C 0.86064 0.34161 0.51004 0.0
C986 C 0.88397 0.3251 0.52131 0.0
C987 C 0.88744 0.322 0.55035 0.0
H988 H 0.59447 0.83696 0.43816 0.0
H989 H 0.61795 0.92845 0.43582 0.0
H990 H 0.60508 0.83594 0.48839 0.0
H991 H 0.62971 0.92724 0.485 0.0
H992 H 0.62682 0.92139 0.58099 0.0
H993 H 0.6144 0.92472 0.53138 0.0
H994 H 0.64525 0.83629 0.51925 0.0
H995 H 0.65633 0.83287 0.56885 0.0
C996 C 0.60144 0.8569 0.44838 0.0
C997 C 0.60541 0.88269 0.43284 0.0
C998 C 0.60804 0.85629 0.47713 0.0
C999 C 0.61882 0.88145 0.49097 0.0
C1000 C 0.62137 0.90745 0.47548 0.0
C1001 C 0.6147 0.90806 0.44701 0.0
C1002 C 0.63185 0.90311 0.56747 0.0
C1003 C 0.64302 0.87706 0.57873 0.0
C1004 C 0.62443 0.90481 0.53898 0.0
C1005 C 0.62819 0.88051 0.52108 0.0
C1006 C 0.64112 0.85517 0.53227 0.0
C1007 C 0.64818 0.85342 0.56065 0.0
H1008 H 0.24825 0.56239 0.31907 0.0
H1009 H 0.15757 0.54224 0.33585 0.0
H1010 H 0.24783 0.52726 0.28031 0.0
H1011 H 0.15687 0.50879 0.29632 0.0
H1012 H 0.16045 0.48115 0.20272 0.0
H1013 H 0.16558 0.51751 0.23979 0.0
H1014 H 0.23634 0.46787 0.27559 0.0
H1015 H 0.23034 0.43064 0.2395 0.0
C1016 C 0.22827 0.55055 0.3146 0.0
C1017 C 0.20275 0.55575 0.33033 0.0
C1018 C 0.22802 0.53057 0.29229 0.0
C1019 C 0.20213 0.51582 0.28492 0.0
C1020 C 0.17694 0.52038 0.30109 0.0
C1021 C 0.17737 0.53969 0.32372 0.0
C1022 C 0.17703 0.47781 0.21846 0.0
C1023 C 0.19428 0.45233 0.21846 0.0
C1024 C 0.18006 0.49877 0.23964 0.0
C1025 C 0.20111 0.4953 0.26079 0.0
C1026 C 0.21987 0.47106 0.25964 0.0
C1027 C 0.21635 0.44973 0.23889 0.0
H1028 H 0.54668 0.17917 0.19549 0.0
H1029 H 0.56981 0.13133 0.27005 0.0
H1030 H 0.50839 0.20513 0.22188 0.0
H1031 H 0.53241 0.1573 0.29619 0.0
H1032 H 0.47705 0.22113 0.34263 0.0
H1033 H 0.5188 0.20831 0.31315 0.0
H1034 H 0.46013 0.18738 0.24556 0.0
H1035 H 0.41837 0.20003 0.27503 0.0
C1036 C 0.54391 0.17457 0.21753 0.0
C1037 C 0.56108 0.15307 0.23064 0.0
C1038 C 0.52199 0.18931 0.23259 0.0
C1039 C 0.51747 0.18336 0.26117 0.0
C1040 C 0.53552 0.1627 0.27435 0.0
C1041 C 0.55681 0.14761 0.25926 0.0
C1042 C 0.47307 0.21459 0.32125 0.0
C1043 C 0.44435 0.21138 0.31128 0.0
C1044 C 0.49699 0.20706 0.30441 0.0
C1045 C 0.49276 0.19658 0.27709 0.0
C1046 C 0.46416 0.19551 0.26643 0.0
C1047 C 0.44023 0.20264 0.28339 0.0
H1048 H 0.79258 0.41183 0.24841 0.0
H1049 H 0.83752 0.44778 0.31984 0.0
H1050 H 0.79717 0.45877 0.22425 0.0
H1051 H 0.84227 0.49452 0.29558 0.0
H1052 H 0.88566 0.55253 0.23 0.0
H1053 H 0.87292 0.5083 0.2551 0.0
H1054 H 0.78492 0.51298 0.22288 0.0
H1055 H 0.79774 0.55809 0.19741 0.0
C1056 C 0.80292 0.42986 0.25924 0.0
C1057 C 0.81529 0.42573 0.28591 0.0
C1058 C 0.80552 0.45682 0.24532 0.0
C1059 C 0.82062 0.48025 0.25771 0.0
C1060 C 0.8311 0.47672 0.28515 0.0
C1061 C 0.82834 0.44989 0.2991 0.0
C1062 C 0.86352 0.5443 0.22807 0.0
C1063 C 0.84269 0.55909 0.21166 0.0
C1064 C 0.85616 0.51894 0.24276 0.0
C1065 C 0.82776 0.50731 0.24147 0.0
C1066 C 0.80699 0.52145 0.22439 0.0
C1067 C 0.81434 0.54722 0.20974 0.0
H1068 H 0.52579 0.84312 0.32879 0.0
H1069 H 0.56847 0.80773 0.25581 0.0
H1070 H 0.47968 0.84457 0.30337 0.0
H1071 H 0.52238 0.80972 0.23031 0.0
H1072 H 0.42686 0.81152 0.19492 0.0
H1073 H 0.46885 0.79574 0.22359 0.0
H1074 H 0.46833 0.87923 0.26556 0.0
H1075 H 0.42755 0.89479 0.23759 0.0
C1076 C 0.52526 0.83487 0.30762 0.0
C1077 C 0.55108 0.82588 0.29424 0.0
C1078 C 0.49881 0.8359 0.29294 0.0
C1079 C 0.49749 0.82791 0.26457 0.0
C1080 C 0.52261 0.8161 0.25207 0.0
C1081 C 0.5491 0.81509 0.26674 0.0
C1082 C 0.43583 0.82638 0.21028 0.0
C1083 C 0.42364 0.85437 0.21391 0.0
C1084 C 0.45977 0.81735 0.22674 0.0
C1085 C 0.47155 0.83601 0.24732 0.0
C1086 C 0.45938 0.86393 0.25057 0.0
C1087 C 0.43598 0.87295 0.23416 0.0
H1088 H 0.84871 0.58705 0.74685 0.0
H1089 H 0.93778 0.57997 0.77652 0.0
H1090 H 0.85133 0.5369 0.72951 0.0
H1091 H 0.94044 0.53044 0.7586 0.0
H1092 H 0.93562 0.44588 0.70545 0.0
H1093 H 0.93676 0.49813 0.71532 0.0
H1094 H 0.85486 0.49044 0.75977 0.0
H1095 H 0.85387 0.43793 0.75037 0.0
C1096 C 0.86904 0.57511 0.749 0.0
C1097 C 0.89285 0.5873 0.76339 0.0
C1098 C 0.87048 0.54648 0.73919 0.0
C1099 C 0.89587 0.52983 0.74334 0.0
C1100 C 0.92063 0.54291 0.75521 0.0
C1101 C 0.91912 0.57141 0.76525 0.0
C1102 C 0.91826 0.45515 0.71802 0.0
C1103 C 0.89475 0.43781 0.72745 0.0
C1104 C 0.91877 0.48509 0.72329 0.0
C1105 C 0.89565 0.4982 0.73781 0.0
C1106 C 0.87259 0.48081 0.74794 0.0
C1107 C 0.87217 0.45083 0.74285 0.0
H1108 H 0.57373 0.80553 0.77469 0.0
H1109 H 0.55701 0.7575 0.69881 0.0
H1110 H 0.52929 0.78563 0.79498 0.0
H1111 H 0.51166 0.7385 0.71882 0.0
H1112 H 0.42709 0.8008 0.74312 0.0
H1113 H 0.47168 0.77866 0.72542 0.0
H1114 H 0.49126 0.74521 0.80766 0.0
H1115 H 0.44604 0.76671 0.82523 0.0
C1116 C 0.56136 0.78961 0.76283 0.0
C1117 C 0.56818 0.78398 0.73482 0.0
C1118 C 0.53581 0.77809 0.77447 0.0
C1119 C 0.51669 0.7611 0.75813 0.0
C1120 C 0.52586 0.75185 0.73167 0.0
C1121 C 0.55167 0.76295 0.72021 0.0
C1122 C 0.43993 0.7872 0.75702 0.0
C1123 C 0.43381 0.78633 0.78568 0.0
C1124 C 0.46554 0.77443 0.74691 0.0
C1125 C 0.48528 0.76095 0.76544 0.0
C1126 C 0.47658 0.75585 0.79309 0.0
C1127 C 0.4508 0.76827 0.80311 0.0
H1128 H 0.26426 0.42171 0.79064 0.0
H1129 H 0.19083 0.43278 0.73439 0.0
H1130 H 0.27675 0.47308 0.78415 0.0
H1131 H 0.20587 0.48225 0.72565 0.0
H1132 H 0.19815 0.55466 0.80296 0.0
H1133 H 0.2245 0.5082 0.80219 0.0
H1134 H 0.25212 0.52544 0.71762 0.0
H1135 H 0.22699 0.57259 0.71895 0.0
C1136 C 0.25122 0.43445 0.77627 0.0
C1137 C 0.22473 0.42343 0.76521 0.0
C1138 C 0.25899 0.46376 0.77212 0.0
C1139 C 0.24172 0.4816 0.75506 0.0
C1140 C 0.21937 0.46885 0.73917 0.0
C1141 C 0.21073 0.4401 0.74434 0.0
C1142 C 0.21168 0.54947 0.78507 0.0
C1143 C 0.2107 0.56695 0.76106 0.0
C1144 C 0.22679 0.52294 0.78456 0.0
C1145 C 0.24017 0.51337 0.75976 0.0
C1146 C 0.2423 0.5326 0.73702 0.0
C1147 C 0.2279 0.55948 0.73782 0.0
H1148 H 0.43972 0.13752 0.76383 0.0
H1149 H 0.44888 0.21982 0.72003 0.0
H1150 H 0.48694 0.1454 0.78595 0.0
H1151 H 0.49697 0.22681 0.74087 0.0
H1152 H 0.58293 0.13624 0.76999 0.0
H1153 H 0.53192 0.13966 0.75877 0.0
H1154 H 0.53219 0.23139 0.78024 0.0
H1155 H 0.58464 0.22853 0.79032 0.0
C1156 C 0.45131 0.15776 0.75966 0.0
C1157 C 0.44117 0.17755 0.73948 0.0
C1158 C 0.47854 0.16211 0.77203 0.0
C1159 C 0.49607 0.18608 0.76411 0.0
C1160 C 0.48413 0.20792 0.74701 0.0
C1161 C 0.4567 0.20377 0.73493 0.0
C1162 C 0.57272 0.15753 0.77153 0.0
C1163 C 0.58822 0.18217 0.78108 0.0
C1164 C 0.54306 0.15923 0.76583 0.0
C1165 C 0.52783 0.1855 0.76972 0.0
C1166 C 0.54336 0.21071 0.77761 0.0
C1167 C 0.57337 0.20905 0.78328 0.0
H1168 H 0.612 0.04322 0.79922 0.0
H1169 H 0.70405 0.05109 0.81812 0.0
H1170 H 0.62192 1.00198 0.76914 0.0
H1171 H 0.71409 0.00914 0.78747 0.0
H1172 H 0.70922 0.91149 0.75471 0.0
H1173 H 0.70533 0.95545 0.78325 0.0
H1174 H 0.64443 0.99219 0.724 0.0
H1175 H 0.64812 0.94822 0.69551 0.0
C1176 C 0.63449 0.03619 0.79697 0.0
C1177 C 0.65726 0.05074 0.81106 0.0
C1178 C 0.64018 0.01254 0.77943 0.0
C1179 C 0.66886 1.00248 0.77538 0.0
C1180 C 0.69172 0.01637 0.79007 0.0
C1181 C 0.68599 0.04035 0.80768 0.0
C1182 C 0.69528 0.92909 0.7475 0.0
C1183 C 0.67859 0.92598 0.72294 0.0
C1184 C 0.69317 0.95439 0.76389 0.0
C1185 C 0.67423 0.97722 0.75623 0.0
C1186 C 0.65878 0.97478 0.73088 0.0
C1187 C 0.66099 0.94956 0.71443 0.0
H1188 H 0.93184 0.72001 0.80321 0.0
H1189 H 0.99423 0.71844 0.87072 0.0
H1190 H 0.97181 0.72031 0.76938 0.0
H1191 H 0.03413 0.7181 0.83714 0.0
H1192 H 0.10418 0.72567 0.77444 0.0
H1193 H 0.06226 0.74095 0.80204 0.0
H1194 H 0.0062 0.68561 0.75222 0.0
H1195 H 0.04816 0.67134 0.72383 0.0
C1196 C 0.95414 0.72036 0.81084 0.0
C1197 C 0.95983 0.71901 0.83969 0.0
C1198 C 0.97708 0.72022 0.79141 0.0
C1199 C 0.00636 0.71878 0.80034 0.0
C1200 C 0.01199 0.71952 0.82929 0.0
C1201 C 0.98903 0.71976 0.8487 0.0
C1202 C 0.08276 0.71733 0.76891 0.0
C1203 C 0.07961 0.69695 0.74715 0.0
C1204 C 0.0587 0.72588 0.78497 0.0
C1205 C 0.0308 0.71402 0.77996 0.0
C1206 C 0.02726 0.69535 0.75677 0.0
C1207 C 0.05137 0.68707 0.74042 0.0
H1208 H 0.31872 0.08896 0.73053 0.0
H1209 H 0.33866 0.02962 0.66356 0.0
H1210 H 0.30807 0.04732 0.76137 0.0
H1211 H 0.32878 0.98817 0.69392 0.0
H1212 H 0.31006 0.91442 0.74849 0.0
H1213 H 0.29865 0.95789 0.72107 0.0
H1214 H 0.33809 0.012 0.78468 0.0
H1215 H 0.3482 0.9683 0.81263 0.0
C1216 C 0.31941 0.06701 0.72205 0.0
C1217 C 0.32876 0.06245 0.69447 0.0
C1218 C 0.3139 0.0431 0.73985 0.0
C1219 C 0.31779 0.01415 0.7304 0.0
C1220 C 0.325 0.00991 0.70207 0.0
C1221 C 0.33054 0.03373 0.68445 0.0
C1222 C 0.31541 0.93572 0.757 0.0
C1223 C 0.33009 0.93796 0.78266 0.0
C1224 C 0.30915 0.96069 0.74114 0.0
C1225 C 0.31802 0.98861 0.75019 0.0
C1226 C 0.3307 0.99101 0.77697 0.0
C1227 C 0.33652 0.96593 0.7931 0.0
H1228 H 0.9777 0.31832 0.66708 0.0
H1229 H 0.9399 0.27905 0.74086 0.0
H1230 H 0.02174 0.33019 0.69348 0.0
H1231 H 0.98364 0.29129 0.76728 0.0
H1232 H 0.07192 0.31331 0.80783 0.0
H1233 H 0.03627 0.2887 0.7775 0.0
H1234 H 0.02755 0.36789 0.72885 0.0
H1235 H 0.06274 0.39212 0.7586 0.0
C1236 C 0.97911 0.31125 0.68861 0.0
C1237 C 0.95491 0.29825 0.70192 0.0
C1238 C 0.00426 0.31844 0.70392 0.0
C1239 C 0.00595 0.31247 0.73278 0.0
C1240 C 0.98315 0.29639 0.7452 0.0
C1241 C 0.95798 0.28935 0.72995 0.0
C1242 C 0.06237 0.32538 0.79063 0.0
C1243 C 0.07019 0.35478 0.78584 0.0
C1244 C 0.042 0.31127 0.7732 0.0
C1245 C 0.02925 0.32615 0.75042 0.0
C1246 C 0.03734 0.35543 0.74567 0.0
C1247 C 0.05738 0.36949 0.76308 0.0
H1248 H 0.35302 0.9212 0.26561 0.0
H1249 H 0.26095 0.93812 0.2526 0.0
H1250 H 0.36051 0.9711 0.27891 0.0
H1251 H 0.26858 0.98895 0.26664 0.0
H1252 H 0.30396 0.08169 0.24629 0.0
H1253 H 0.29133 0.02965 0.24334 0.0
H1254 H 0.35406 0.01072 0.30853 0.0
H1255 H 0.36744 0.06213 0.3101 0.0
C1256 C 0.33394 0.93514 0.26688 0.0
C1257 C 0.30636 0.92558 0.25758 0.0
C1258 C 0.33837 0.96413 0.2744 0.0
C1259 C 0.31529 0.98428 0.27318 0.0
C1260 C 0.287 0.9741 0.26693 0.0
C1261 C 0.28255 0.94494 0.2592 0.0
C1262 C 0.31536 0.06609 0.2594 0.0
C1263 C 0.3374 0.07546 0.27762 0.0
C1264 C 0.30776 0.03648 0.25823 0.0
C1265 C 0.32164 0.01598 0.27578 0.0
C1266 C 0.34334 0.02573 0.29432 0.0
C1267 C 0.35127 0.0551 0.29505 0.0
H1268 H 0.06726 0.29899 0.17803 0.0
H1269 H 0.07503 0.32677 0.26367 0.0
H1270 H 0.02364 0.27068 0.18983 0.0
H1271 H 0.0319 0.29808 0.27568 0.0
H1272 H 0.93424 0.32207 0.22012 0.0
H1273 H 0.98079 0.30562 0.20145 0.0
H1274 H 0.99564 0.25421 0.27586 0.0
H1275 H 0.94849 0.27013 0.29418 0.0
C1276 C 0.06052 0.29765 0.19969 0.0
C1277 C 0.07368 0.31568 0.21988 0.0
C1278 C 0.03567 0.28138 0.20641 0.0
C1279 C 0.024 0.28282 0.23343 0.0
C1280 C 0.04037 0.2966 0.25461 0.0
C1281 C 0.06507 0.31316 0.2478 0.0
C1282 C 0.94652 0.30578 0.23165 0.0
C1283 C 0.93848 0.29818 0.25891 0.0
C1284 C 0.97326 0.29625 0.22098 0.0
C1285 C 0.99218 0.27935 0.2377 0.0
C1286 C 0.98162 0.26755 0.2628 0.0
C1287 C 0.95473 0.27677 0.27327 0.0
H1288 H 0.69034 0.94077 0.24169 0.0
H1289 H 0.71272 0.93825 0.32903 0.0
H1290 H 0.71747 0.98651 0.23654 0.0
H1291 H 0.73878 0.98466 0.32421 0.0
H1292 H 0.67681 0.07095 0.29215 0.0
H1293 H 0.69332 0.02403 0.30849 0.0
H1294 H 0.76545 0.02654 0.25056 0.0
H1295 H 0.75113 0.07567 0.23615 0.0
C1296 C 0.70275 0.94897 0.25928 0.0
C1297 C 0.69929 0.93643 0.28575 0.0
C1298 C 0.71831 0.97515 0.25641 0.0
C1299 C 0.72976 0.98919 0.28015 0.0
C1300 C 0.73027 0.97415 0.30566 0.0
C1301 C 0.71531 0.94766 0.30837 0.0
C1302 C 0.69729 0.06284 0.28396 0.0
C1303 C 0.7114 0.07654 0.26129 0.0
C1304 C 0.70678 0.03563 0.29345 0.0
C1305 C 0.73007 0.02141 0.28007 0.0
C1306 C 0.74711 0.03697 0.26082 0.0
C1307 C 0.7384 0.06489 0.25223 0.0
H1308 H 0.90498 0.61745 0.27421 0.0
H1309 H 0.9137 0.71148 0.27915 0.0
H1310 H 0.95346 0.61164 0.29316 0.0
H1311 H 0.9626 0.70564 0.29896 0.0
H1312 H 0.06042 0.68338 0.28714 0.0
H1313 H 0.0083 0.69145 0.2784 0.0
H1314 H 0.98744 0.61601 0.32952 0.0
H1315 H 0.0393 0.60757 0.33696 0.0
C1316 C 0.91673 0.63692 0.28058 0.0
C1317 C 0.90562 0.66496 0.27493 0.0
C1318 C 0.94476 0.63358 0.29135 0.0
C1319 C 0.9622 0.6582 0.29699 0.0
C1320 C 0.94998 0.68626 0.29402 0.0
C1321 C 0.92191 0.68961 0.28301 0.0
C1322 C 0.04453 0.66839 0.29602 0.0
C1323 C 0.05365 0.64431 0.3119 0.0
C1324 C 0.01474 0.67324 0.29151 0.0
C1325 C 0.99366 0.65438 0.30334 0.0
C1326 C 1.00304 0.63062 0.31967 0.0
C1327 C 0.03271 0.62558 0.32374 0.0
loop_
_geom_bond_atom_site_label_1
_geom_bond_atom_site_label_2
_geom_bond_distance
_geom_bond_site_symmetry_2
_ccdc_geom_bond_type
C0 C1 1.351 . S
C0 N3 1.368 . S
C0 H5 0.931 . S
C1 C0 1.351 . S
C1 N2 1.373 . S
C1 H29 0.930 . S
N2 C1 1.373 . S
N2 C4 1.340 . S
N3 C0 1.368 . S
N3 C4 1.321 . S
N3 Co6 2.135 . S
C4 N2 1.340 . S
C4 N3 1.321 . S
C4 H28 0.930 . S
H5 C0 0.931 . S
Co6 N3 2.135 . S
Co6 N9 2.121 . S
Co6 O14 2.055 . S
Co6 O17 2.039 . S
Co6 N20 2.140 . S
C7 O8 1.227 . S
C7 O17 1.265 . S
O8 C7 1.227 . S
N9 Co6 2.121 . S
N9 C11 1.375 . S
N9 C12 1.313 . S
C10 C11 1.338 . S
C10 N13 1.377 . S
C10 H30 0.930 . S
C11 N9 1.375 . S
C11 C10 1.338 . S
C11 H15 0.931 . S
C12 N9 1.313 . S
C12 N13 1.344 . S
C12 H16 0.930 . S
N13 C10 1.377 . S
N13 C12 1.344 . S
O14 Co6 2.055 . S
O14 C18 1.253 . S
H15 C11 0.931 . S
H16 C12 0.930 . S
O17 Co6 2.039 . S
O17 C7 1.265 . S
C18 O14 1.253 . S
C18 O19 1.227 . S
O19 C18 1.227 . S
N20 Co6 2.140 . S
N20 C23 1.346 . S
N20 C24 1.345 . S
C21 C22 1.387 . S
C21 C25 1.391 . S
C22 C21 1.387 . S
C22 C23 1.369 . S
C22 H31 0.929 . S
C23 N20 1.346 . S
C23 C22 1.369 . S
C23 H26 0.928 . S
C24 N20 1.345 . S
C24 C25 1.371 . S
C24 H27 0.931 . S
C25 C21 1.391 . S
C25 C24 1.371 . S
C25 H32 0.930 . S
H26 C23 0.928 . S
H27 C24 0.931 . S
H28 C4 0.930 . S
H29 C1 0.930 . S
H30 C10 0.930 . S
H31 C22 0.929 . S
H32 C25 0.930 . S
C33 C34 1.351 . S
C33 N36 1.368 . S
C33 H38 0.931 . S
C34 C33 1.351 . S
C34 N35 1.373 . S
C34 H62 0.930 . S
N35 C34 1.373 . S
N35 C37 1.340 . S
N36 C33 1.368 . S
N36 C37 1.321 . S
N36 Co39 2.135 . S
C37 N35 1.340 . S
C37 N36 1.321 . S
C37 H61 0.930 . S
H38 C33 0.931 . S
Co39 N36 2.135 . S
Co39 N42 2.121 . S
Co39 O47 2.055 . S
Co39 O50 2.039 . S
Co39 N53 2.140 . S
C40 O41 1.227 . S
C40 O50 1.265 . S
O41 C40 1.227 . S
N42 Co39 2.121 . S
N42 C44 1.375 . S
N42 C45 1.313 . S
C43 C44 1.338 . S
C43 N46 1.377 . S
C43 H63 0.930 . S
C44 N42 1.375 . S
C44 C43 1.338 . S
C44 H48 0.931 . S
C45 N42 1.313 . S
C45 N46 1.344 . S
C45 H49 0.930 . S
N46 C43 1.377 . S
N46 C45 1.344 . S
O47 Co39 2.055 . S
O47 C51 1.253 . S
H48 C44 0.931 . S
H49 C45 0.930 . S
O50 Co39 2.039 . S
O50 C40 1.265 . S
C51 O47 1.253 . S
C51 O52 1.227 . S
O52 C51 1.227 . S
N53 Co39 2.140 . S
N53 C56 1.346 . S
N53 C57 1.345 . S
C54 C55 1.387 . S
C54 C58 1.391 . S
C55 C54 1.387 . S
C55 C56 1.369 . S
C55 H64 0.929 . S
C56 N53 1.346 . S
C56 C55 1.369 . S
C56 H59 0.928 . S
C57 N53 1.345 . S
C57 C58 1.371 . S
C57 H60 0.931 . S
C58 C54 1.391 . S
C58 C57 1.371 . S
C58 H65 0.930 . S
H59 C56 0.928 . S
H60 C57 0.931 . S
H61 C37 0.930 . S
H62 C34 0.930 . S
H63 C43 0.930 . S
H64 C55 0.929 . S
H65 C58 0.930 . S
C66 C67 1.351 . S
C66 N69 1.368 . S
C66 H71 0.931 . S
C67 C66 1.351 . S
C67 N68 1.373 . S
C67 H95 0.930 . S
N68 C67 1.373 . S
N68 C70 1.340 . S
N69 C66 1.368 . S
N69 C70 1.321 . S
N69 Co72 2.135 . S
C70 N68 1.340 . S
C70 N69 1.321 . S
C70 H94 0.930 . S
H71 C66 0.931 . S
Co72 N69 2.135 . S
Co72 N75 2.121 . S
Co72 O80 2.055 . S
Co72 O83 2.039 . S
Co72 N86 2.140 . S
C73 O74 1.227 . S
C73 O83 1.265 . S
O74 C73 1.227 . S
N75 Co72 2.121 . S
N75 C77 1.375 . S
N75 C78 1.313 . S
C76 C77 1.338 . S
C76 N79 1.377 . S
C76 H96 0.930 . S
C77 N75 1.375 . S
C77 C76 1.338 . S
C77 H81 0.931 . S
C78 N75 1.313 . S
C78 N79 1.344 . S
C78 H82 0.930 . S
N79 C76 1.377 . S
N79 C78 1.344 . S
O80 Co72 2.055 . S
O80 C84 1.253 . S
H81 C77 0.931 . S
H82 C78 0.930 . S
O83 Co72 2.039 . S
O83 C73 1.265 . S
C84 O80 1.253 . S
C84 O85 1.227 . S
O85 C84 1.227 . S
N86 Co72 2.140 . S
N86 C89 1.346 . S
N86 C90 1.345 . S
C87 C88 1.387 . S
C87 C91 1.391 . S
C88 C87 1.387 . S
C88 C89 1.369 . S
C88 H97 0.929 . S
C89 N86 1.346 . S
C89 C88 1.369 . S
C89 H92 0.928 . S
C90 N86 1.345 . S
C90 C91 1.371 . S
C90 H93 0.931 . S
C91 C87 1.391 . S
C91 C90 1.371 . S
C91 H98 0.930 . S
H92 C89 0.928 . S
H93 C90 0.931 . S
H94 C70 0.930 . S
H95 C67 0.930 . S
H96 C76 0.930 . S
H97 C88 0.929 . S
H98 C91 0.930 . S
C99 C100 1.351 . S
C99 N102 1.368 . S
C99 H104 0.931 . S
C100 C99 1.351 . S
C100 N101 1.373 . S
C100 H128 0.930 . S
N101 C100 1.373 . S
N101 C103 1.340 . S
N102 C99 1.368 . S
N102 C103 1.321 . S
N102 Co105 2.135 . S
C103 N101 1.340 . S
C103 N102 1.321 . S
C103 H127 0.930 . S
H104 C99 0.931 . S
Co105 N102 2.135 . S
Co105 N108 2.121 . S
Co105 O113 2.055 . S
Co105 O116 2.039 . S
Co105 N119 2.140 . S
C106 O107 1.227 . S
C106 O116 1.265 . S
O107 C106 1.227 . S
N108 Co105 2.121 . S
N108 C110 1.375 . S
N108 C111 1.313 . S
C109 C110 1.338 . S
C109 N112 1.377 . S
C109 H129 0.930 . S
C110 N108 1.375 . S
C110 C109 1.338 . S
C110 H114 0.931 . S
C111 N108 1.313 . S
C111 N112 1.344 . S
C111 H115 0.930 . S
N112 C109 1.377 . S
N112 C111 1.344 . S
O113 Co105 2.055 . S
O113 C117 1.253 . S
H114 C110 0.931 . S
H115 C111 0.930 . S
O116 Co105 2.039 . S
O116 C106 1.265 . S
C117 O113 1.253 . S
C117 O118 1.227 . S
O118 C117 1.227 . S
N119 Co105 2.140 . S
N119 C122 1.346 . S
N119 C123 1.345 . S
C120 C121 1.387 . S
C120 C124 1.391 . S
C121 C120 1.387 . S
C121 C122 1.369 . S
C121 H130 0.929 . S
C122 N119 1.346 . S
C122 C121 1.369 . S
C122 H125 0.928 . S
C123 N119 1.345 . S
C123 C124 1.371 . S
C123 H126 0.931 . S
C124 C120 1.391 . S
C124 C123 1.371 . S
C124 H131 0.930 . S
H125 C122 0.928 . S
H126 C123 0.931 . S
H127 C103 0.930 . S
H128 C100 0.930 . S
H129 C109 0.930 . S
H130 C121 0.929 . S
H131 C124 0.930 . S
C132 C133 1.351 . S
C132 N135 1.368 . S
C132 H137 0.931 . S
C133 C132 1.351 . S
C133 N134 1.373 . S
C133 H161 0.930 . S
N134 C133 1.373 . S
N134 C136 1.340 . S
N135 C132 1.368 . S
N135 C136 1.321 . S
N135 Co138 2.135 . S
C136 N134 1.340 . S
C136 N135 1.321 . S
C136 H160 0.930 . S
H137 C132 0.931 . S
Co138 N135 2.135 . S
Co138 N141 2.121 . S
Co138 O146 2.055 . S
Co138 O149 2.039 . S
Co138 N152 2.140 . S
C139 O140 1.227 . S
C139 O149 1.265 . S
O140 C139 1.227 . S
N141 Co138 2.121 . S
N141 C143 1.375 . S
N141 C144 1.313 . S
C142 C143 1.338 . S
C142 N145 1.377 . S
C142 H162 0.930 . S
C143 N141 1.375 . S
C143 C142 1.338 . S
C143 H147 0.931 . S
C144 N141 1.313 . S
C144 N145 1.344 . S
C144 H148 0.930 . S
N145 C142 1.377 . S
N145 C144 1.344 . S
O146 Co138 2.055 . S
O146 C150 1.253 . S
H147 C143 0.931 . S
H148 C144 0.930 . S
O149 Co138 2.039 . S
O149 C139 1.265 . S
C150 O146 1.253 . S
C150 O151 1.227 . S
O151 C150 1.227 . S
N152 Co138 2.140 . S
N152 C155 1.346 . S
N152 C156 1.345 . S
C153 C154 1.387 . S
C153 C157 1.391 . S
C154 C153 1.387 . S
C154 C155 1.369 . S
C154 H163 0.929 . S
C155 N152 1.346 . S
C155 C154 1.369 . S
C155 H158 0.928 . S
C156 N152 1.345 . S
C156 C157 1.371 . S
C156 H159 0.931 . S
C157 C153 1.391 . S
C157 C156 1.371 . S
C157 H164 0.930 . S
H158 C155 0.928 . S
H159 C156 0.931 . S
H160 C136 0.930 . S
H161 C133 0.930 . S
H162 C142 0.930 . S
H163 C154 0.929 . S
H164 C157 0.930 . S
C165 C166 1.351 . S
C165 N168 1.368 . S
C165 H170 0.931 . S
C166 C165 1.351 . S
C166 N167 1.373 . S
C166 H194 0.930 . S
N167 C166 1.373 . S
N167 C169 1.340 . S
N168 C165 1.368 . S
N168 C169 1.321 . S
N168 Co171 2.135 . S
C169 N167 1.340 . S
C169 N168 1.321 . S
C169 H193 0.930 . S
H170 C165 0.931 . S
Co171 N168 2.135 . S
Co171 N174 2.121 . S
Co171 O179 2.055 . S
Co171 O182 2.039 . S
Co171 N185 2.140 . S
C172 O173 1.227 . S
C172 O182 1.265 . S
O173 C172 1.227 . S
N174 Co171 2.121 . S
N174 C176 1.375 . S
N174 C177 1.313 . S
C175 C176 1.338 . S
C175 N178 1.377 . S
C175 H195 0.930 . S
C176 N174 1.375 . S
C176 C175 1.338 . S
C176 H180 0.931 . S
C177 N174 1.313 . S
C177 N178 1.344 . S
C177 H181 0.930 . S
N178 C175 1.377 . S
N178 C177 1.344 . S
O179 Co171 2.055 . S
O179 C183 1.253 . S
H180 C176 0.931 . S
H181 C177 0.930 . S
O182 Co171 2.039 . S
O182 C172 1.265 . S
C183 O179 1.253 . S
C183 O184 1.227 . S
O184 C183 1.227 . S
N185 Co171 2.140 . S
N185 C188 1.346 . S
N185 C189 1.345 . S
C186 C187 1.387 . S
C186 C190 1.391 . S
C187 C186 1.387 . S
C187 C188 1.369 . S
C187 H196 0.929 . S
C188 N185 1.346 . S
C188 C187 1.369 . S
C188 H191 0.928 . S
C189 N185 1.345 . S
C189 C190 1.371 . S
C189 H192 0.931 . S
C190 C186 1.391 . S
C190 C189 1.371 . S
C190 H197 0.930 . S
H191 C188 0.928 . S
H192 C189 0.931 . S
H193 C169 0.930 . S
H194 C166 0.930 . S
H195 C175 0.930 . S
H196 C187 0.929 . S
H197 C190 0.930 . S
C198 C199 1.351 . S
C198 N201 1.368 . S
C198 H203 0.931 . S
C199 C198 1.351 . S
C199 N200 1.373 . S
C199 H227 0.930 . S
N200 C199 1.373 . S
N200 C202 1.340 . S
N201 C198 1.368 . S
N201 C202 1.321 . S
N201 Co204 2.135 . S
C202 N200 1.340 . S
C202 N201 1.321 . S
C202 H226 0.930 . S
H203 C198 0.931 . S
Co204 N201 2.135 . S
Co204 N207 2.121 . S
Co204 O212 2.055 . S
Co204 O215 2.039 . S
Co204 N218 2.140 . S
C205 O206 1.227 . S
C205 O215 1.265 . S
O206 C205 1.227 . S
N207 Co204 2.121 . S
N207 C209 1.375 . S
N207 C210 1.313 . S
C208 C209 1.338 . S
C208 N211 1.377 . S
C208 H228 0.930 . S
C209 N207 1.375 . S
C209 C208 1.338 . S
C209 H213 0.931 . S
C210 N207 1.313 . S
C210 N211 1.344 . S
C210 H214 0.930 . S
N211 C208 1.377 . S
N211 C210 1.344 . S
O212 Co204 2.055 . S
O212 C216 1.253 . S
H213 C209 0.931 . S
H214 C210 0.930 . S
O215 Co204 2.039 . S
O215 C205 1.265 . S
C216 O212 1.253 . S
C216 O217 1.227 . S
O217 C216 1.227 . S
N218 Co204 2.140 . S
N218 C221 1.346 . S
N218 C222 1.345 . S
C219 C220 1.387 . S
C219 C223 1.391 . S
C220 C219 1.387 . S
C220 C221 1.369 . S
C220 H229 0.929 . S
C221 N218 1.346 . S
C221 C220 1.369 . S
C221 H224 0.928 . S
C222 N218 1.345 . S
C222 C223 1.371 . S
C222 H225 0.931 . S
C223 C219 1.391 . S
C223 C222 1.371 . S
C223 H230 0.930 . S
H224 C221 0.928 . S
H225 C222 0.931 . S
H226 C202 0.930 . S
H227 C199 0.930 . S
H228 C208 0.930 . S
H229 C220 0.929 . S
H230 C223 0.930 . S
C231 C232 1.351 . S
C231 N234 1.368 . S
C231 H236 0.931 . S
C232 C231 1.351 . S
C232 N233 1.373 . S
C232 H260 0.930 . S
N233 C232 1.373 . S
N233 C235 1.340 . S
N234 C231 1.368 . S
N234 C235 1.321 . S
N234 Co237 2.135 . S
C235 N233 1.340 . S
C235 N234 1.321 . S
C235 H259 0.930 . S
H236 C231 0.931 . S
Co237 N234 2.135 . S
Co237 N240 2.121 . S
Co237 O245 2.055 . S
Co237 O248 2.039 . S
Co237 N251 2.140 . S
C238 O239 1.227 . S
C238 O248 1.265 . S
O239 C238 1.227 . S
N240 Co237 2.121 . S
N240 C242 1.375 . S
N240 C243 1.313 . S
C241 C242 1.338 . S
C241 N244 1.377 . S
C241 H261 0.930 . S
C242 N240 1.375 . S
C242 C241 1.338 . S
C242 H246 0.931 . S
C243 N240 1.313 . S
C243 N244 1.344 . S
C243 H247 0.930 . S
N244 C241 1.377 . S
N244 C243 1.344 . S
O245 Co237 2.055 . S
O245 C249 1.253 . S
H246 C242 0.931 . S
H247 C243 0.930 . S
O248 Co237 2.039 . S
O248 C238 1.265 . S
C249 O245 1.253 . S
C249 O250 1.227 . S
O250 C249 1.227 . S
N251 Co237 2.140 . S
N251 C254 1.346 . S
N251 C255 1.345 . S
C252 C253 1.387 . S
C252 C256 1.391 . S
C253 C252 1.387 . S
C253 C254 1.369 . S
C253 H262 0.929 . S
C254 N251 1.346 . S
C254 C253 1.369 . S
C254 H257 0.928 . S
C255 N251 1.345 . S
C255 C256 1.371 . S
C255 H258 0.931 . S
C256 C252 1.391 . S
C256 C255 1.371 . S
C256 H263 0.930 . S
H257 C254 0.928 . S
H258 C255 0.931 . S
H259 C235 0.930 . S
H260 C232 0.930 . S
H261 C241 0.930 . S
H262 C253 0.929 . S
H263 C256 0.930 . S
C264 C265 1.351 . S
C264 N267 1.368 . S
C264 H269 0.931 . S
C265 C264 1.351 . S
C265 N266 1.373 . S
C265 H293 0.930 . S
N266 C265 1.373 . S
N266 C268 1.340 . S
N267 C264 1.368 . S
N267 C268 1.321 . S
N267 Co270 2.135 . S
C268 N266 1.340 . S
C268 N267 1.321 . S
C268 H292 0.930 . S
H269 C264 0.931 . S
Co270 N267 2.135 . S
Co270 N273 2.121 . S
Co270 O278 2.055 . S
Co270 O281 2.039 . S
Co270 N284 2.140 . S
C271 O272 1.227 . S
C271 O281 1.265 . S
O272 C271 1.227 . S
N273 Co270 2.121 . S
N273 C275 1.375 . S
N273 C276 1.313 . S
C274 C275 1.338 . S
C274 N277 1.377 . S
C274 H294 0.930 . S
C275 N273 1.375 . S
C275 C274 1.338 . S
C275 H279 0.931 . S
C276 N273 1.313 . S
C276 N277 1.344 . S
C276 H280 0.930 . S
N277 C274 1.377 . S
N277 C276 1.344 . S
O278 Co270 2.055 . S
O278 C282 1.253 . S
H279 C275 0.931 . S
H280 C276 0.930 . S
O281 Co270 2.039 . S
O281 C271 1.265 . S
C282 O278 1.253 . S
C282 O283 1.227 . S
O283 C282 1.227 . S
N284 Co270 2.140 . S
N284 C287 1.346 . S
N284 C288 1.345 . S
C285 C286 1.387 . S
C285 C289 1.391 . S
C286 C285 1.387 . S
C286 C287 1.369 . S
C286 H295 0.929 . S
C287 N284 1.346 . S
C287 C286 1.369 . S
C287 H290 0.928 . S
C288 N284 1.345 . S
C288 C289 1.371 . S
C288 H291 0.931 . S
C289 C285 1.391 . S
C289 C288 1.371 . S
C289 H296 0.930 . S
H290 C287 0.928 . S
H291 C288 0.931 . S
H292 C268 0.930 . S
H293 C265 0.930 . S
H294 C274 0.930 . S
H295 C286 0.929 . S
H296 C289 0.930 . S
C297 C298 1.351 . S
C297 N300 1.368 . S
C297 H302 0.931 . S
C298 C297 1.351 . S
C298 N299 1.373 . S
C298 H326 0.930 . S
N299 C298 1.373 . S
N299 C301 1.340 . S
N300 C297 1.368 . S
N300 C301 1.321 . S
N300 Co303 2.135 . S
C301 N299 1.340 . S
C301 N300 1.321 . S
C301 H325 0.930 . S
H302 C297 0.931 . S
Co303 N300 2.135 . S
Co303 N306 2.121 . S
Co303 O311 2.055 . S
Co303 O314 2.039 . S
Co303 N317 2.140 . S
C304 O305 1.227 . S
C304 O314 1.265 . S
O305 C304 1.227 . S
N306 Co303 2.121 . S
N306 C308 1.375 . S
N306 C309 1.313 . S
C307 C308 1.338 . S
C307 N310 1.377 . S
C307 H327 0.930 . S
C308 N306 1.375 . S
C308 C307 1.338 . S
C308 H312 0.931 . S
C309 N306 1.313 . S
C309 N310 1.344 . S
C309 H313 0.930 . S
N310 C307 1.377 . S
N310 C309 1.344 . S
O311 Co303 2.055 . S
O311 C315 1.253 . S
H312 C308 0.931 . S
H313 C309 0.930 . S
O314 Co303 2.039 . S
O314 C304 1.265 . S
C315 O311 1.253 . S
C315 O316 1.227 . S
O316 C315 1.227 . S
N317 Co303 2.140 . S
N317 C320 1.346 . S
N317 C321 1.345 . S
C318 C319 1.387 . S
C318 C322 1.391 . S
C319 C318 1.387 . S
C319 C320 1.369 . S
C319 H328 0.929 . S
C320 N317 1.346 . S
C320 C319 1.369 . S
C320 H323 0.928 . S
C321 N317 1.345 . S
C321 C322 1.371 . S
C321 H324 0.931 . S
C322 C318 1.391 . S
C322 C321 1.371 . S
C322 H329 0.930 . S
H323 C320 0.928 . S
H324 C321 0.931 . S
H325 C301 0.930 . S
H326 C298 0.930 . S
H327 C307 0.930 . S
H328 C319 0.929 . S
H329 C322 0.930 . S
C330 C331 1.351 . S
C330 N333 1.368 . S
C330 H335 0.931 . S
C331 C330 1.351 . S
C331 N332 1.373 . S
C331 H359 0.930 . S
N332 C331 1.373 . S
N332 C334 1.340 . S
N333 C330 1.368 . S
N333 C334 1.321 . S
N333 Co336 2.135 . S
C334 N332 1.340 . S
C334 N333 1.321 . S
C334 H358 0.930 . S
H335 C330 0.931 . S
Co336 N333 2.135 . S
Co336 N339 2.121 . S
Co336 O344 2.055 . S
Co336 O347 2.039 . S
Co336 N350 2.140 . S
C337 O338 1.227 . S
C337 O347 1.265 . S
O338 C337 1.227 . S
N339 Co336 2.121 . S
N339 C341 1.375 . S
N339 C342 1.313 . S
C340 C341 1.338 . S
C340 N343 1.377 . S
C340 H360 0.930 . S
C341 N339 1.375 . S
C341 C340 1.338 . S
C341 H345 0.931 . S
C342 N339 1.313 . S
C342 N343 1.344 . S
C342 H346 0.930 . S
N343 C340 1.377 . S
N343 C342 1.344 . S
O344 Co336 2.055 . S
O344 C348 1.253 . S
H345 C341 0.931 . S
H346 C342 0.930 . S
O347 Co336 2.039 . S
O347 C337 1.265 . S
C348 O344 1.253 . S
C348 O349 1.227 . S
O349 C348 1.227 . S
N350 Co336 2.140 . S
N350 C353 1.346 . S
N350 C354 1.345 . S
C351 C352 1.387 . S
C351 C355 1.391 . S
C352 C351 1.387 . S
C352 C353 1.369 . S
C352 H361 0.929 . S
C353 N350 1.346 . S
C353 C352 1.369 . S
C353 H356 0.928 . S
C354 N350 1.345 . S
C354 C355 1.371 . S
C354 H357 0.931 . S
C355 C351 1.391 . S
C355 C354 1.371 . S
C355 H362 0.930 . S
H356 C353 0.928 . S
H357 C354 0.931 . S
H358 C334 0.930 . S
H359 C331 0.930 . S
H360 C340 0.930 . S
H361 C352 0.929 . S
H362 C355 0.930 . S
C363 C364 1.351 . S
C363 N366 1.368 . S
C363 H368 0.931 . S
C364 C363 1.351 . S
C364 N365 1.373 . S
C364 H392 0.930 . S
N365 C364 1.373 . S
N365 C367 1.340 . S
N366 C363 1.368 . S
N366 C367 1.321 . S
N366 Co369 2.135 . S
C367 N365 1.340 . S
C367 N366 1.321 . S
C367 H391 0.930 . S
H368 C363 0.931 . S
Co369 N366 2.135 . S
Co369 N372 2.121 . S
Co369 O377 2.055 . S
Co369 O380 2.039 . S
Co369 N383 2.140 . S
C370 O371 1.227 . S
C370 O380 1.265 . S
O371 C370 1.227 . S
N372 Co369 2.121 . S
N372 C374 1.375 . S
N372 C375 1.313 . S
C373 C374 1.338 . S
C373 N376 1.377 . S
C373 H393 0.930 . S
C374 N372 1.375 . S
C374 C373 1.338 . S
C374 H378 0.931 . S
C375 N372 1.313 . S
C375 N376 1.344 . S
C375 H379 0.930 . S
N376 C373 1.377 . S
N376 C375 1.344 . S
O377 Co369 2.055 . S
O377 C381 1.253 . S
H378 C374 0.931 . S
H379 C375 0.930 . S
O380 Co369 2.039 . S
O380 C370 1.265 . S
C381 O377 1.253 . S
C381 O382 1.227 . S
O382 C381 1.227 . S
N383 Co369 2.140 . S
N383 C386 1.346 . S
N383 C387 1.345 . S
C384 C385 1.387 . S
C384 C388 1.391 . S
C385 C384 1.387 . S
C385 C386 1.369 . S
C385 H394 0.929 . S
C386 N383 1.346 . S
C386 C385 1.369 . S
C386 H389 0.928 . S
C387 N383 1.345 . S
C387 C388 1.371 . S
C387 H390 0.931 . S
C388 C384 1.391 . S
C388 C387 1.371 . S
C388 H395 0.930 . S
H389 C386 0.928 . S
H390 C387 0.931 . S
H391 C367 0.930 . S
H392 C364 0.930 . S
H393 C373 0.930 . S
H394 C385 0.929 . S
H395 C388 0.930 . S
C396 C397 1.351 . S
C396 N399 1.368 . S
C396 H401 0.931 . S
C397 C396 1.351 . S
C397 N398 1.373 . S
C397 H425 0.930 . S
N398 C397 1.373 . S
N398 C400 1.340 . S
N399 C396 1.368 . S
N399 C400 1.321 . S
N399 Co402 2.135 . S
C400 N398 1.340 . S
C400 N399 1.321 . S
C400 H424 0.930 . S
H401 C396 0.931 . S
Co402 N399 2.135 . S
Co402 N405 2.121 . S
Co402 O410 2.055 . S
Co402 O413 2.039 . S
Co402 N416 2.140 . S
C403 O404 1.227 . S
C403 O413 1.265 . S
O404 C403 1.227 . S
N405 Co402 2.121 . S
N405 C407 1.375 . S
N405 C408 1.313 . S
C406 C407 1.338 . S
C406 N409 1.377 . S
C406 H426 0.930 . S
C407 N405 1.375 . S
C407 C406 1.338 . S
C407 H411 0.931 . S
C408 N405 1.313 . S
C408 N409 1.344 . S
C408 H412 0.930 . S
N409 C406 1.377 . S
N409 C408 1.344 . S
O410 Co402 2.055 . S
O410 C414 1.253 . S
H411 C407 0.931 . S
H412 C408 0.930 . S
O413 Co402 2.039 . S
O413 C403 1.265 . S
C414 O410 1.253 . S
C414 O415 1.227 . S
O415 C414 1.227 . S
N416 Co402 2.140 . S
N416 C419 1.346 . S
N416 C420 1.345 . S
C417 C418 1.387 . S
C417 C421 1.391 . S
C418 C417 1.387 . S
C418 C419 1.369 . S
C418 H427 0.929 . S
C419 N416 1.346 . S
C419 C418 1.369 . S
C419 H422 0.928 . S
C420 N416 1.345 . S
C420 C421 1.371 . S
C420 H423 0.931 . S
C421 C417 1.391 . S
C421 C420 1.371 . S
C421 H428 0.930 . S
H422 C419 0.928 . S
H423 C420 0.931 . S
H424 C400 0.930 . S
H425 C397 0.930 . S
H426 C406 0.930 . S
H427 C418 0.929 . S
H428 C421 0.930 . S
C429 C430 1.351 . S
C429 N432 1.368 . S
C429 H434 0.931 . S
C430 C429 1.351 . S
C430 N431 1.373 . S
C430 H458 0.930 . S
N431 C430 1.373 . S
N431 C433 1.340 . S
N432 C429 1.368 . S
N432 C433 1.321 . S
N432 Co435 2.135 . S
C433 N431 1.340 . S
C433 N432 1.321 . S
C433 H457 0.930 . S
H434 C429 0.931 . S
Co435 N432 2.135 . S
Co435 N438 2.121 . S
Co435 O443 2.055 . S
Co435 O446 2.039 . S
Co435 N449 2.140 . S
C436 O437 1.227 . S
C436 O446 1.265 . S
O437 C436 1.227 . S
N438 Co435 2.121 . S
N438 C440 1.375 . S
N438 C441 1.313 . S
C439 C440 1.338 . S
C439 N442 1.377 . S
C439 H459 0.930 . S
C440 N438 1.375 . S
C440 C439 1.338 . S
C440 H444 0.931 . S
C441 N438 1.313 . S
C441 N442 1.344 . S
C441 H445 0.930 . S
N442 C439 1.377 . S
N442 C441 1.344 . S
O443 Co435 2.055 . S
O443 C447 1.253 . S
H444 C440 0.931 . S
H445 C441 0.930 . S
O446 Co435 2.039 . S
O446 C436 1.265 . S
C447 O443 1.253 . S
C447 O448 1.227 . S
O448 C447 1.227 . S
N449 Co435 2.140 . S
N449 C452 1.346 . S
N449 C453 1.345 . S
C450 C451 1.387 . S
C450 C454 1.391 . S
C451 C450 1.387 . S
C451 C452 1.369 . S
C451 H460 0.929 . S
C452 N449 1.346 . S
C452 C451 1.369 . S
C452 H455 0.928 . S
C453 N449 1.345 . S
C453 C454 1.371 . S
C453 H456 0.931 . S
C454 C450 1.391 . S
C454 C453 1.371 . S
C454 H461 0.930 . S
H455 C452 0.928 . S
H456 C453 0.931 . S
H457 C433 0.930 . S
H458 C430 0.930 . S
H459 C439 0.930 . S
H460 C451 0.929 . S
H461 C454 0.930 . S
C462 C463 1.351 . S
C462 N465 1.368 . S
C462 H467 0.931 . S
C463 C462 1.351 . S
C463 N464 1.373 . S
C463 H491 0.930 . S
N464 C463 1.373 . S
N464 C466 1.340 . S
N465 C462 1.368 . S
N465 C466 1.321 . S
N465 Co468 2.135 . S
C466 N464 1.340 . S
C466 N465 1.321 . S
C466 H490 0.930 . S
H467 C462 0.931 . S
Co468 N465 2.135 . S
Co468 N471 2.121 . S
Co468 O476 2.055 . S
Co468 O479 2.039 . S
Co468 N482 2.140 . S
C469 O470 1.227 . S
C469 O479 1.265 . S
O470 C469 1.227 . S
N471 Co468 2.121 . S
N471 C473 1.375 . S
N471 C474 1.313 . S
C472 C473 1.338 . S
C472 N475 1.377 . S
C472 H492 0.930 . S
C473 N471 1.375 . S
C473 C472 1.338 . S
C473 H477 0.931 . S
C474 N471 1.313 . S
C474 N475 1.344 . S
C474 H478 0.930 . S
N475 C472 1.377 . S
N475 C474 1.344 . S
O476 Co468 2.055 . S
O476 C480 1.253 . S
H477 C473 0.931 . S
H478 C474 0.930 . S
O479 Co468 2.039 . S
O479 C469 1.265 . S
C480 O476 1.253 . S
C480 O481 1.227 . S
O481 C480 1.227 . S
N482 Co468 2.140 . S
N482 C485 1.346 . S
N482 C486 1.345 . S
C483 C484 1.387 . S
C483 C487 1.391 . S
C484 C483 1.387 . S
C484 C485 1.369 . S
C484 H493 0.929 . S
C485 N482 1.346 . S
C485 C484 1.369 . S
C485 H488 0.928 . S
C486 N482 1.345 . S
C486 C487 1.371 . S
C486 H489 0.931 . S
C487 C483 1.391 . S
C487 C486 1.371 . S
C487 H494 0.930 . S
H488 C485 0.928 . S
H489 C486 0.931 . S
H490 C466 0.930 . S
H491 C463 0.930 . S
H492 C472 0.930 . S
H493 C484 0.929 . S
H494 C487 0.930 . S
C495 C496 1.351 . S
C495 N498 1.368 . S
C495 H500 0.931 . S
C496 C495 1.351 . S
C496 N497 1.373 . S
C496 H524 0.930 . S
N497 C496 1.373 . S
N497 C499 1.340 . S
N498 C495 1.368 . S
N498 C499 1.321 . S
N498 Co501 2.135 . S
C499 N497 1.340 . S
C499 N498 1.321 . S
C499 H523 0.930 . S
H500 C495 0.931 . S
Co501 N498 2.135 . S
Co501 N504 2.121 . S
Co501 O509 2.055 . S
Co501 O512 2.039 . S
Co501 N515 2.140 . S
C502 O503 1.227 . S
C502 O512 1.265 . S
O503 C502 1.227 . S
N504 Co501 2.121 . S
N504 C506 1.375 . S
N504 C507 1.313 . S
C505 C506 1.338 . S
C505 N508 1.377 . S
C505 H525 0.930 . S
C506 N504 1.375 . S
C506 C505 1.338 . S
C506 H510 0.931 . S
C507 N504 1.313 . S
C507 N508 1.344 . S
C507 H511 0.930 . S
N508 C505 1.377 . S
N508 C507 1.344 . S
O509 Co501 2.055 . S
O509 C513 1.253 . S
H510 C506 0.931 . S
H511 C507 0.930 . S
O512 Co501 2.039 . S
O512 C502 1.265 . S
C513 O509 1.253 . S
C513 O514 1.227 . S
O514 C513 1.227 . S
N515 Co501 2.140 . S
N515 C518 1.346 . S
N515 C519 1.345 . S
C516 C517 1.387 . S
C516 C520 1.391 . S
C517 C516 1.387 . S
C517 C518 1.369 . S
C517 H526 0.929 . S
C518 N515 1.346 . S
C518 C517 1.369 . S
C518 H521 0.928 . S
C519 N515 1.345 . S
C519 C520 1.371 . S
C519 H522 0.931 . S
C520 C516 1.391 . S
C520 C519 1.371 . S
C520 H527 0.930 . S
H521 C518 0.928 . S
H522 C519 0.931 . S
H523 C499 0.930 . S
H524 C496 0.930 . S
H525 C505 0.930 . S
H526 C517 0.929 . S
H527 C520 0.930 . S
H528 C536 0.950 . S
H529 C541 0.950 . S
H530 C538 0.950 1_455 S
H531 C540 0.950 . S
H532 C542 0.950 . S
H533 C544 0.950 1_655 S
H534 C546 0.950 . S
H535 C547 0.950 . S
C536 H528 0.950 . S
C536 C537 1.386 . S
C536 C538 1.391 . S
C537 C536 1.386 . S
C537 C541 1.393 . S
C538 H530 0.950 1_655 S
C538 C536 1.391 . S
C538 C539 1.400 . S
C539 C538 1.400 . S
C539 C540 1.398 . S
C539 C545 1.491 1_655 S
C540 H531 0.950 . S
C540 C539 1.398 . S
C540 C541 1.391 . S
C541 H529 0.950 . S
C541 C537 1.393 . S
C541 C540 1.391 . S
C542 H532 0.950 . S
C542 C543 1.386 . S
C542 C544 1.391 . S
C543 C542 1.386 . S
C543 C547 1.393 . S
C544 H533 0.950 1_455 S
C544 C542 1.391 . S
C544 C545 1.400 . S
C545 C539 1.491 1_455 S
C545 C544 1.400 . S
C545 C546 1.398 . S
C546 H534 0.950 . S
C546 C545 1.398 . S
C546 C547 1.391 . S
C547 H535 0.950 . S
C547 C543 1.393 . S
C547 C546 1.391 . S
H548 C556 0.950 . S
H549 C561 0.950 . S
H550 C558 0.950 . S
H551 C560 0.950 . S
H552 C562 0.950 . S
H553 C564 0.950 . S
H554 C566 0.950 . S
H555 C567 0.950 . S
C556 H548 0.950 . S
C556 C557 1.386 . S
C556 C558 1.391 . S
C557 C556 1.386 . S
C557 C561 1.393 . S
C558 H550 0.950 . S
C558 C556 1.391 . S
C558 C559 1.400 . S
C559 C558 1.400 . S
C559 C560 1.398 . S
C559 C565 1.491 1_545 S
C560 H551 0.950 . S
C560 C559 1.398 . S
C560 C561 1.391 . S
C561 H549 0.950 . S
C561 C557 1.393 . S
C561 C560 1.391 . S
C562 H552 0.950 . S
C562 C563 1.386 . S
C562 C564 1.391 . S
C563 C562 1.386 . S
C563 C567 1.393 . S
C564 H553 0.950 . S
C564 C562 1.391 . S
C564 C565 1.400 . S
C565 C559 1.491 1_565 S
C565 C564 1.400 . S
C565 C566 1.398 . S
C566 H554 0.950 . S
C566 C565 1.398 . S
C566 C567 1.391 . S
C567 H555 0.950 . S
C567 C563 1.393 . S
C567 C566 1.391 . S
H568 C576 0.950 . S
H569 C581 0.950 . S
H570 C578 0.950 . S
H571 C580 0.950 . S
H572 C582 0.950 . S
H573 C584 0.950 . S
H574 C586 0.950 . S
H575 C587 0.950 . S
C576 H568 0.950 . S
C576 C577 1.386 . S
C576 C578 1.391 . S
C577 C576 1.386 . S
C577 C581 1.393 . S
C578 H570 0.950 . S
C578 C576 1.391 . S
C578 C579 1.400 . S
C579 C578 1.400 . S
C579 C580 1.398 . S
C579 C585 1.491 1_655 S
C580 H571 0.950 . S
C580 C579 1.398 . S
C580 C581 1.391 . S
C581 H569 0.950 . S
C581 C577 1.393 . S
C581 C580 1.391 . S
C582 H572 0.950 . S
C582 C583 1.386 . S
C582 C584 1.391 . S
C583 C582 1.386 . S
C583 C587 1.393 . S
C584 H573 0.950 . S
C584 C582 1.391 . S
C584 C585 1.400 . S
C585 C579 1.491 1_455 S
C585 C584 1.400 . S
C585 C586 1.398 . S
C586 H574 0.950 . S
C586 C585 1.398 . S
C586 C587 1.391 . S
C587 H575 0.950 . S
C587 C583 1.393 . S
C587 C586 1.391 . S
H588 C596 0.950 . S
H589 C601 0.950 . S
H590 C598 0.950 . S
H591 C600 0.950 . S
H592 C602 0.950 . S
H593 C604 0.950 . S
H594 C606 0.950 . S
H595 C607 0.950 . S
C596 H588 0.950 . S
C596 C597 1.386 . S
C596 C598 1.391 . S
C597 C596 1.386 . S
C597 C601 1.393 . S
C598 H590 0.950 . S
C598 C596 1.391 . S
C598 C599 1.400 . S
C599 C598 1.400 . S
C599 C600 1.398 . S
C599 C605 1.491 1_565 S
C600 H591 0.950 . S
C600 C599 1.398 . S
C600 C601 1.391 . S
C601 H589 0.950 . S
C601 C597 1.393 . S
C601 C600 1.391 . S
C602 H592 0.950 . S
C602 C603 1.386 . S
C602 C604 1.391 . S
C603 C602 1.386 . S
C603 C607 1.393 . S
C604 H593 0.950 . S
C604 C602 1.391 . S
C604 C605 1.400 . S
C605 C599 1.491 1_545 S
C605 C604 1.400 . S
C605 C606 1.398 . S
C606 H594 0.950 . S
C606 C605 1.398 . S
C606 C607 1.391 . S
C607 H595 0.950 . S
C607 C603 1.393 . S
C607 C606 1.391 . S
H608 C616 0.950 . S
H609 C621 0.950 . S
H610 C618 0.950 . S
H611 C620 0.950 . S
H612 C622 0.950 . S
H613 C624 0.950 . S
H614 C626 0.950 . S
H615 C627 0.950 . S
C616 H608 0.950 . S
C616 C617 1.386 . S
C616 C618 1.391 1_655 S
C617 C616 1.386 . S
C617 C621 1.393 . S
C618 H610 0.950 . S
C618 C616 1.391 1_455 S
C618 C619 1.400 1_455 S
C619 C618 1.400 1_655 S
C619 C620 1.398 . S
C619 C625 1.491 1_655 S
C620 H611 0.950 . S
C620 C619 1.398 . S
C620 C621 1.391 . S
C621 H609 0.950 . S
C621 C617 1.393 . S
C621 C620 1.391 . S
C622 H612 0.950 . S
C622 C623 1.386 . S
C622 C624 1.391 1_455 S
C623 C622 1.386 . S
C623 C627 1.393 . S
C624 H613 0.950 . S
C624 C622 1.391 1_655 S
C624 C625 1.400 1_655 S
C625 C619 1.491 1_455 S
C625 C624 1.400 1_455 S
C625 C626 1.398 . S
C626 H614 0.950 . S
C626 C625 1.398 . S
C626 C627 1.391 . S
C627 H615 0.950 . S
C627 C623 1.393 . S
C627 C626 1.391 . S
H628 C636 0.950 . S
H629 C641 0.950 . S
H630 C638 0.960 . S
H631 C640 0.950 . S
H632 C642 0.950 . S
H633 C644 0.960 . S
H634 C646 0.950 . S
H635 C647 0.950 . S
C636 H628 0.950 . S
C636 C637 1.386 . S
C636 C638 1.385 1_565 S
C637 C636 1.386 . S
C637 C641 1.393 . S
C638 H630 0.960 . S
C638 C636 1.385 1_545 S
C638 C639 1.397 1_545 S
C639 C638 1.397 1_565 S
C639 C640 1.398 . S
C639 C645 1.491 1_565 S
C640 H631 0.950 . S
C640 C639 1.398 . S
C640 C641 1.391 . S
C641 H629 0.950 . S
C641 C637 1.393 . S
C641 C640 1.391 . S
C642 H632 0.950 . S
C642 C643 1.386 . S
C642 C644 1.385 1_545 S
C643 C642 1.386 . S
C643 C647 1.393 . S
C644 H633 0.960 . S
C644 C642 1.385 1_565 S
C644 C645 1.397 1_565 S
C645 C639 1.491 1_545 S
C645 C644 1.397 1_545 S
C645 C646 1.398 . S
C646 H634 0.950 . S
C646 C645 1.398 . S
C646 C647 1.391 . S
C647 H635 0.950 . S
C647 C643 1.393 . S
C647 C646 1.391 . S
H648 C656 0.950 1_455 S
H649 C661 0.950 . S
H650 C658 0.950 . S
H651 C660 0.950 . S
H652 C662 0.950 1_655 S
H653 C664 0.950 . S
H654 C666 0.950 . S
H655 C667 0.950 . S
C656 H648 0.950 1_655 S
C656 C657 1.386 . S
C656 C658 1.391 1_655 S
C657 C656 1.386 . S
C657 C661 1.393 . S
C658 H650 0.950 . S
C658 C656 1.391 1_455 S
C658 C659 1.400 1_455 S
C659 C658 1.400 1_655 S
C659 C660 1.398 . S
C659 C665 1.491 1_655 S
C660 H651 0.950 . S
C660 C659 1.398 . S
C660 C661 1.391 . S
C661 H649 0.950 . S
C661 C657 1.393 . S
C661 C660 1.391 . S
C662 H652 0.950 1_455 S
C662 C663 1.386 . S
C662 C664 1.391 1_455 S
C663 C662 1.386 . S
C663 C667 1.393 . S
C664 H653 0.950 . S
C664 C662 1.391 1_655 S
C664 C665 1.400 1_655 S
C665 C659 1.491 1_455 S
C665 C664 1.400 1_455 S
C665 C666 1.398 . S
C666 H654 0.950 . S
C666 C665 1.398 . S
C666 C667 1.391 . S
C667 H655 0.950 . S
C667 C663 1.393 . S
C667 C666 1.391 . S
H668 C676 0.950 . S
H669 C681 0.950 . S
H670 C678 0.950 . S
H671 C680 0.950 . S
H672 C682 0.950 . S
H673 C684 0.950 . S
H674 C686 0.950 . S
H675 C687 0.950 . S
C676 H668 0.950 . S
C676 C677 1.386 . S
C676 C678 1.391 . S
C677 C676 1.386 . S
C677 C681 1.393 . S
C678 H670 0.950 . S
C678 C676 1.391 . S
C678 C679 1.400 . S
C679 C678 1.400 . S
C679 C680 1.398 1_545 S
C679 C685 1.491 1_545 S
C680 H671 0.950 . S
C680 C679 1.398 1_565 S
C680 C681 1.391 1_565 S
C681 H669 0.950 . S
C681 C677 1.393 . S
C681 C680 1.391 1_545 S
C682 H672 0.950 . S
C682 C683 1.386 . S
C682 C684 1.391 . S
C683 C682 1.386 . S
C683 C687 1.393 . S
C684 H673 0.950 . S
C684 C682 1.391 . S
C684 C685 1.400 . S
C685 C679 1.491 1_565 S
C685 C684 1.400 . S
C685 C686 1.398 1_565 S
C686 H674 0.950 . S
C686 C685 1.398 1_545 S
C686 C687 1.391 1_545 S
C687 H675 0.950 . S
C687 C683 1.393 . S
C687 C686 1.391 1_565 S
H688 C696 0.950 . S
H689 C701 0.950 . S
H690 C698 0.950 . S
H691 C700 0.950 . S
H692 C702 0.950 . S
H693 C704 0.950 . S
H694 C706 0.950 . S
H695 C707 0.950 . S
C696 H688 0.950 . S
C696 C697 1.386 . S
C696 C698 1.391 . S
C697 C696 1.386 . S
C697 C701 1.393 . S
C698 H690 0.950 . S
C698 C696 1.391 . S
C698 C699 1.400 . S
C699 C698 1.400 . S
C699 C700 1.398 . S
C699 C705 1.491 . S
C700 H691 0.950 . S
C700 C699 1.398 . S
C700 C701 1.391 . S
C701 H689 0.950 . S
C701 C697 1.393 . S
C701 C700 1.391 . S
C702 H692 0.950 . S
C702 C703 1.386 . S
C702 C704 1.391 . S
C703 C702 1.386 . S
C703 C707 1.393 . S
C704 H693 0.950 . S
C704 C702 1.391 . S
C704 C705 1.400 . S
C705 C699 1.491 . S
C705 C704 1.400 . S
C705 C706 1.398 . S
C706 H694 0.950 . S
C706 C705 1.398 . S
C706 C707 1.391 . S
C707 H695 0.950 . S
C707 C703 1.393 . S
C707 C706 1.391 . S
H708 C716 0.950 . S
H709 C721 0.950 . S
H710 C718 0.950 . S
H711 C720 0.950 . S
H712 C722 0.950 . S
H713 C724 0.950 . S
H714 C726 0.950 . S
H715 C727 0.950 . S
C716 H708 0.950 . S
C716 C717 1.386 . S
C716 C718 1.391 . S
C717 C716 1.386 . S
C717 C721 1.393 . S
C718 H710 0.950 . S
C718 C716 1.391 . S
C718 C719 1.400 . S
C719 C718 1.400 . S
C719 C720 1.398 . S
C719 C725 1.491 . S
C720 H711 0.950 . S
C720 C719 1.398 . S
C720 C721 1.391 . S
C721 H709 0.950 . S
C721 C717 1.393 . S
C721 C720 1.391 . S
C722 H712 0.950 . S
C722 C723 1.386 . S
C722 C724 1.391 . S
C723 C722 1.386 . S
C723 C727 1.393 . S
C724 H713 0.950 . S
C724 C722 1.391 . S
C724 C725 1.400 . S
C725 C719 1.491 . S
C725 C724 1.400 . S
C725 C726 1.398 . S
C726 H714 0.950 . S
C726 C725 1.398 . S
C726 C727 1.391 . S
C727 H715 0.950 . S
C727 C723 1.393 . S
C727 C726 1.391 . S
H728 C736 0.950 . S
H729 C741 0.950 . S
H730 C738 0.950 . S
H731 C740 0.950 . S
H732 C742 0.950 . S
H733 C744 0.950 . S
H734 C746 0.950 . S
H735 C747 0.950 . S
C736 H728 0.950 . S
C736 C737 1.386 . S
C736 C738 1.391 . S
C737 C736 1.386 . S
C737 C741 1.393 . S
C738 H730 0.950 . S
C738 C736 1.391 . S
C738 C739 1.400 . S
C739 C738 1.400 . S
C739 C740 1.398 . S
C739 C745 1.491 . S
C740 H731 0.950 . S
C740 C739 1.398 . S
C740 C741 1.391 . S
C741 H729 0.950 . S
C741 C737 1.393 . S
C741 C740 1.391 . S
C742 H732 0.950 . S
C742 C743 1.386 . S
C742 C744 1.391 . S
C743 C742 1.386 . S
C743 C747 1.393 . S
C744 H733 0.950 . S
C744 C742 1.391 . S
C744 C745 1.400 . S
C745 C739 1.491 . S
C745 C744 1.400 . S
C745 C746 1.398 . S
C746 H734 0.950 . S
C746 C745 1.398 . S
C746 C747 1.391 . S
C747 H735 0.950 . S
C747 C743 1.393 . S
C747 C746 1.391 . S
H748 C756 0.950 . S
H749 C761 0.950 . S
H750 C758 0.950 . S
H751 C760 0.950 . S
H752 C762 0.950 . S
H753 C764 0.950 . S
H754 C766 0.950 . S
H755 C767 0.950 . S
C756 H748 0.950 . S
C756 C757 1.386 . S
C756 C758 1.391 . S
C757 C756 1.386 . S
C757 C761 1.393 . S
C758 H750 0.950 . S
C758 C756 1.391 . S
C758 C759 1.400 . S
C759 C758 1.400 . S
C759 C760 1.398 . S
C759 C765 1.491 . S
C760 H751 0.950 . S
C760 C759 1.398 . S
C760 C761 1.391 . S
C761 H749 0.950 . S
C761 C757 1.393 . S
C761 C760 1.391 . S
C762 H752 0.950 . S
C762 C763 1.386 . S
C762 C764 1.391 . S
C763 C762 1.386 . S
C763 C767 1.393 . S
C764 H753 0.950 . S
C764 C762 1.391 . S
C764 C765 1.400 . S
C765 C759 1.491 . S
C765 C764 1.400 . S
C765 C766 1.398 . S
C766 H754 0.950 . S
C766 C765 1.398 . S
C766 C767 1.391 . S
C767 H755 0.950 . S
C767 C763 1.393 . S
C767 C766 1.391 . S
H768 C776 0.950 . S
H769 C781 0.950 . S
H770 C778 0.950 . S
H771 C780 0.950 . S
H772 C782 0.950 . S
H773 C784 0.950 . S
H774 C786 0.950 . S
H775 C787 0.950 . S
C776 H768 0.950 . S
C776 C777 1.386 . S
C776 C778 1.391 . S
C777 C776 1.386 . S
C777 C781 1.393 . S
C778 H770 0.950 . S
C778 C776 1.391 . S
C778 C779 1.400 . S
C779 C778 1.400 . S
C779 C780 1.398 . S
C779 C785 1.491 . S
C780 H771 0.950 . S
C780 C779 1.398 . S
C780 C781 1.391 . S
C781 H769 0.950 . S
C781 C777 1.393 . S
C781 C780 1.391 . S
C782 H772 0.950 . S
C782 C783 1.386 . S
C782 C784 1.391 . S
C783 C782 1.386 . S
C783 C787 1.393 . S
C784 H773 0.950 . S
C784 C782 1.391 . S
C784 C785 1.400 . S
C785 C779 1.491 . S
C785 C784 1.400 . S
C785 C786 1.398 . S
C786 H774 0.950 . S
C786 C785 1.398 . S
C786 C787 1.391 . S
C787 H775 0.950 . S
C787 C783 1.393 . S
C787 C786 1.391 . S
H788 C796 0.950 . S
H789 C801 0.950 . S
H790 C798 0.950 . S
H791 C800 0.950 . S
H792 C802 0.950 . S
H793 C804 0.950 . S
H794 C806 0.950 . S
H795 C807 0.950 . S
C796 H788 0.950 . S
C796 C797 1.386 . S
C796 C798 1.391 . S
C797 C796 1.386 . S
C797 C801 1.393 . S
C798 H790 0.950 . S
C798 C796 1.391 . S
C798 C799 1.400 . S
C799 C798 1.400 . S
C799 C800 1.398 . S
C799 C805 1.491 . S
C800 H791 0.950 . S
C800 C799 1.398 . S
C800 C801 1.391 . S
C801 H789 0.950 . S
C801 C797 1.393 . S
C801 C800 1.391 . S
C802 H792 0.950 . S
C802 C803 1.386 . S
C802 C804 1.391 . S
C803 C802 1.386 . S
C803 C807 1.393 . S
C804 H793 0.950 . S
C804 C802 1.391 . S
C804 C805 1.400 . S
C805 C799 1.491 . S
C805 C804 1.400 . S
C805 C806 1.398 . S
C806 H794 0.950 . S
C806 C805 1.398 . S
C806 C807 1.391 . S
C807 H795 0.950 . S
C807 C803 1.393 . S
C807 C806 1.391 . S
H808 C816 0.950 . S
H809 C821 0.950 . S
H810 C818 0.950 . S
H811 C820 0.950 . S
H812 C822 0.950 . S
H813 C824 0.950 . S
H814 C826 0.950 . S
H815 C827 0.950 . S
C816 H808 0.950 . S
C816 C817 1.386 . S
C816 C818 1.391 . S
C817 C816 1.386 . S
C817 C821 1.393 . S
C818 H810 0.950 . S
C818 C816 1.391 . S
C818 C819 1.400 . S
C819 C818 1.400 . S
C819 C820 1.398 . S
C819 C825 1.491 . S
C820 H811 0.950 . S
C820 C819 1.398 . S
C820 C821 1.391 . S
C821 H809 0.950 . S
C821 C817 1.393 . S
C821 C820 1.391 . S
C822 H812 0.950 . S
C822 C823 1.386 . S
C822 C824 1.391 . S
C823 C822 1.386 . S
C823 C827 1.393 . S
C824 H813 0.950 . S
C824 C822 1.391 . S
C824 C825 1.400 . S
C825 C819 1.491 . S
C825 C824 1.400 . S
C825 C826 1.398 . S
C826 H814 0.950 . S
C826 C825 1.398 . S
C826 C827 1.391 . S
C827 H815 0.950 . S
C827 C823 1.393 . S
C827 C826 1.391 . S
H828 C836 0.950 . S
H829 C841 0.950 . S
H830 C838 0.950 . S
H831 C840 0.950 . S
H832 C842 0.950 . S
H833 C844 0.950 . S
H834 C846 0.950 . S
H835 C847 0.950 . S
C836 H828 0.950 . S
C836 C837 1.386 . S
C836 C838 1.391 . S
C837 C836 1.386 . S
C837 C841 1.393 . S
C838 H830 0.950 . S
C838 C836 1.391 . S
C838 C839 1.400 . S
C839 C838 1.400 . S
C839 C840 1.398 . S
C839 C845 1.491 . S
C840 H831 0.950 . S
C840 C839 1.398 . S
C840 C841 1.391 . S
C841 H829 0.950 . S
C841 C837 1.393 . S
C841 C840 1.391 . S
C842 H832 0.950 . S
C842 C843 1.386 . S
C842 C844 1.391 . S
C843 C842 1.386 . S
C843 C847 1.393 . S
C844 H833 0.950 . S
C844 C842 1.391 . S
C844 C845 1.400 . S
C845 C839 1.491 . S
C845 C844 1.400 . S
C845 C846 1.398 . S
C846 H834 0.950 . S
C846 C845 1.398 . S
C846 C847 1.391 . S
C847 H835 0.950 . S
C847 C843 1.393 . S
C847 C846 1.391 . S
H848 C856 0.950 . S
H849 C861 0.950 . S
H850 C858 0.950 . S
H851 C860 0.950 . S
H852 C862 0.950 . S
H853 C864 0.950 . S
H854 C866 0.950 . S
H855 C867 0.950 . S
C856 H848 0.950 . S
C856 C857 1.386 . S
C856 C858 1.391 . S
C857 C856 1.386 . S
C857 C861 1.393 . S
C858 H850 0.950 . S
C858 C856 1.391 . S
C858 C859 1.400 . S
C859 C858 1.400 . S
C859 C860 1.398 . S
C859 C865 1.491 1_554 S
C860 H851 0.950 . S
C860 C859 1.398 . S
C860 C861 1.391 . S
C861 H849 0.950 . S
C861 C857 1.393 . S
C861 C860 1.391 . S
C862 H852 0.950 . S
C862 C863 1.386 . S
C862 C864 1.391 . S
C863 C862 1.386 . S
C863 C867 1.393 . S
C864 H853 0.950 . S
C864 C862 1.391 . S
C864 C865 1.400 . S
C865 C859 1.491 1_556 S
C865 C864 1.400 . S
C865 C866 1.398 . S
C866 H854 0.950 . S
C866 C865 1.398 . S
C866 C867 1.391 . S
C867 H855 0.950 . S
C867 C863 1.393 . S
C867 C866 1.391 . S
H868 C876 0.950 . S
H869 C881 0.950 . S
H870 C878 0.950 . S
H871 C880 0.950 . S
H872 C882 0.950 . S
H873 C884 0.950 . S
H874 C886 0.950 . S
H875 C887 0.950 . S
C876 H868 0.950 . S
C876 C877 1.386 . S
C876 C878 1.391 . S
C877 C876 1.386 . S
C877 C881 1.393 . S
C878 H870 0.950 . S
C878 C876 1.391 . S
C878 C879 1.400 . S
C879 C878 1.400 . S
C879 C880 1.398 . S
C879 C885 1.491 1_556 S
C880 H871 0.950 . S
C880 C879 1.398 . S
C880 C881 1.391 . S
C881 H869 0.950 . S
C881 C877 1.393 . S
C881 C880 1.391 . S
C882 H872 0.950 . S
C882 C883 1.386 . S
C882 C884 1.391 . S
C883 C882 1.386 . S
C883 C887 1.393 . S
C884 H873 0.950 . S
C884 C882 1.391 . S
C884 C885 1.400 . S
C885 C879 1.491 1_554 S
C885 C884 1.400 . S
C885 C886 1.398 . S
C886 H874 0.950 . S
C886 C885 1.398 . S
C886 C887 1.391 . S
C887 H875 0.950 . S
C887 C883 1.393 . S
C887 C886 1.391 . S
H888 C896 0.950 . S
H889 C901 0.950 . S
H890 C898 0.950 . S
H891 C900 0.950 . S
H892 C902 0.950 . S
H893 C904 0.950 . S
H894 C906 0.950 . S
H895 C907 0.950 . S
C896 H888 0.950 . S
C896 C897 1.386 . S
C896 C898 1.391 . S
C897 C896 1.386 . S
C897 C901 1.393 . S
C898 H890 0.950 . S
C898 C896 1.391 . S
C898 C899 1.400 . S
C899 C898 1.400 . S
C899 C900 1.398 . S
C899 C905 1.491 1_556 S
C900 H891 0.950 . S
C900 C899 1.398 . S
C900 C901 1.391 . S
C901 H889 0.950 . S
C901 C897 1.393 . S
C901 C900 1.391 . S
C902 H892 0.950 . S
C902 C903 1.386 . S
C902 C904 1.391 . S
C903 C902 1.386 . S
C903 C907 1.393 . S
C904 H893 0.950 . S
C904 C902 1.391 . S
C904 C905 1.400 . S
C905 C899 1.491 1_554 S
C905 C904 1.400 . S
C905 C906 1.398 . S
C906 H894 0.950 . S
C906 C905 1.398 . S
C906 C907 1.391 . S
C907 H895 0.950 . S
C907 C903 1.393 . S
C907 C906 1.391 . S
H908 C916 0.950 . S
H909 C921 0.950 . S
H910 C918 0.950 . S
H911 C920 0.950 . S
H912 C922 0.950 . S
H913 C924 0.950 . S
H914 C926 0.950 . S
H915 C927 0.950 . S
C916 H908 0.950 . S
C916 C917 1.386 . S
C916 C918 1.391 . S
C917 C916 1.386 . S
C917 C921 1.393 . S
C918 H910 0.950 . S
C918 C916 1.391 . S
C918 C919 1.400 . S
C919 C918 1.400 . S
C919 C920 1.398 . S
C919 C925 1.491 1_556 S
C920 H911 0.950 . S
C920 C919 1.398 . S
C920 C921 1.391 . S
C921 H909 0.950 . S
C921 C917 1.393 . S
C921 C920 1.391 . S
C922 H912 0.950 . S
C922 C923 1.386 . S
C922 C924 1.391 . S
C923 C922 1.386 . S
C923 C927 1.393 . S
C924 H913 0.950 . S
C924 C922 1.391 . S
C924 C925 1.400 . S
C925 C919 1.491 1_554 S
C925 C924 1.400 . S
C925 C926 1.398 . S
C926 H914 0.950 . S
C926 C925 1.398 . S
C926 C927 1.391 . S
C927 H915 0.950 . S
C927 C923 1.393 . S
C927 C926 1.391 . S
H928 C936 0.950 . S
H929 C941 0.950 . S
H930 C938 0.950 . S
H931 C940 0.950 . S
H932 C942 0.950 . S
H933 C944 0.950 . S
H934 C946 0.950 . S
H935 C947 0.950 . S
C936 H928 0.950 . S
C936 C937 1.386 . S
C936 C938 1.391 . S
C937 C936 1.386 . S
C937 C941 1.393 . S
C938 H930 0.950 . S
C938 C936 1.391 . S
C938 C939 1.400 . S
C939 C938 1.400 . S
C939 C940 1.398 . S
C939 C945 1.491 . S
C940 H931 0.950 . S
C940 C939 1.398 . S
C940 C941 1.391 . S
C941 H929 0.950 . S
C941 C937 1.393 . S
C941 C940 1.391 . S
C942 H932 0.950 . S
C942 C943 1.386 . S
C942 C944 1.391 . S
C943 C942 1.386 . S
C943 C947 1.393 . S
C944 H933 0.950 . S
C944 C942 1.391 . S
C944 C945 1.400 . S
C945 C939 1.491 . S
C945 C944 1.400 . S
C945 C946 1.398 . S
C946 H934 0.950 . S
C946 C945 1.398 . S
C946 C947 1.391 . S
C947 H935 0.950 . S
C947 C943 1.393 . S
C947 C946 1.391 . S
H948 C956 0.950 . S
H949 C961 0.950 . S
H950 C958 0.950 . S
H951 C960 0.950 . S
H952 C962 0.950 . S
H953 C964 0.950 . S
H954 C966 0.950 . S
H955 C967 0.950 . S
C956 H948 0.950 . S
C956 C957 1.386 . S
C956 C958 1.391 . S
C957 C956 1.386 . S
C957 C961 1.393 . S
C958 H950 0.950 . S
C958 C956 1.391 . S
C958 C959 1.400 . S
C959 C958 1.400 . S
C959 C960 1.398 . S
C959 C965 1.491 . S
C960 H951 0.950 . S
C960 C959 1.398 . S
C960 C961 1.391 . S
C961 H949 0.950 . S
C961 C957 1.393 . S
C961 C960 1.391 . S
C962 H952 0.950 . S
C962 C963 1.386 . S
C962 C964 1.391 . S
C963 C962 1.386 . S
C963 C967 1.393 . S
C964 H953 0.950 . S
C964 C962 1.391 . S
C964 C965 1.400 . S
C965 C959 1.491 . S
C965 C964 1.400 . S
C965 C966 1.398 . S
C966 H954 0.950 . S
C966 C965 1.398 . S
C966 C967 1.391 . S
C967 H955 0.950 . S
C967 C963 1.393 . S
C967 C966 1.391 . S
H968 C976 0.950 . S
H969 C981 0.950 . S
H970 C978 0.950 . S
H971 C980 0.950 . S
H972 C982 0.950 . S
H973 C984 0.950 . S
H974 C986 0.950 . S
H975 C987 0.950 . S
C976 H968 0.950 . S
C976 C977 1.386 . S
C976 C978 1.391 . S
C977 C976 1.386 . S
C977 C981 1.393 . S
C978 H970 0.950 . S
C978 C976 1.391 . S
C978 C979 1.400 . S
C979 C978 1.400 . S
C979 C980 1.398 . S
C979 C985 1.491 . S
C980 H971 0.950 . S
C980 C979 1.398 . S
C980 C981 1.391 . S
C981 H969 0.950 . S
C981 C977 1.393 . S
C981 C980 1.391 . S
C982 H972 0.950 . S
C982 C983 1.386 . S
C982 C984 1.391 . S
C983 C982 1.386 . S
C983 C987 1.393 . S
C984 H973 0.950 . S
C984 C982 1.391 . S
C984 C985 1.400 . S
C985 C979 1.491 . S
C985 C984 1.400 . S
C985 C986 1.398 . S
C986 H974 0.950 . S
C986 C985 1.398 . S
C986 C987 1.391 . S
C987 H975 0.950 . S
C987 C983 1.393 . S
C987 C986 1.391 . S
H988 C996 0.950 . S
H989 C1001 0.950 . S
H990 C998 0.950 . S
H991 C1000 0.950 . S
H992 C1002 0.950 . S
H993 C1004 0.950 . S
H994 C1006 0.950 . S
H995 C1007 0.950 . S
C996 H988 0.950 . S
C996 C997 1.386 . S
C996 C998 1.391 . S
C997 C996 1.386 . S
C997 C1001 1.393 . S
C998 H990 0.950 . S
C998 C996 1.391 . S
C998 C999 1.400 . S
C999 C998 1.400 . S
C999 C1000 1.398 . S
C999 C1005 1.491 . S
C1000 H991 0.950 . S
C1000 C999 1.398 . S
C1000 C1001 1.391 . S
C1001 H989 0.950 . S
C1001 C997 1.393 . S
C1001 C1000 1.391 . S
C1002 H992 0.950 . S
C1002 C1003 1.386 . S
C1002 C1004 1.391 . S
C1003 C1002 1.386 . S
C1003 C1007 1.393 . S
C1004 H993 0.950 . S
C1004 C1002 1.391 . S
C1004 C1005 1.400 . S
C1005 C999 1.491 . S
C1005 C1004 1.400 . S
C1005 C1006 1.398 . S
C1006 H994 0.950 . S
C1006 C1005 1.398 . S
C1006 C1007 1.391 . S
C1007 H995 0.950 . S
C1007 C1003 1.393 . S
C1007 C1006 1.391 . S
H1008 C1016 0.950 . S
H1009 C1021 0.950 . S
H1010 C1018 0.950 . S
H1011 C1020 0.950 . S
H1012 C1022 0.950 . S
H1013 C1024 0.950 . S
H1014 C1026 0.950 . S
H1015 C1027 0.950 . S
C1016 H1008 0.950 . S
C1016 C1017 1.386 . S
C1016 C1018 1.391 . S
C1017 C1016 1.386 . S
C1017 C1021 1.393 . S
C1018 H1010 0.950 . S
C1018 C1016 1.391 . S
C1018 C1019 1.400 . S
C1019 C1018 1.400 . S
C1019 C1020 1.398 . S
C1019 C1025 1.491 . S
C1020 H1011 0.950 . S
C1020 C1019 1.398 . S
C1020 C1021 1.391 . S
C1021 H1009 0.950 . S
C1021 C1017 1.393 . S
C1021 C1020 1.391 . S
C1022 H1012 0.950 . S
C1022 C1023 1.386 . S
C1022 C1024 1.391 . S
C1023 C1022 1.386 . S
C1023 C1027 1.393 . S
C1024 H1013 0.950 . S
C1024 C1022 1.391 . S
C1024 C1025 1.400 . S
C1025 C1019 1.491 . S
C1025 C1024 1.400 . S
C1025 C1026 1.398 . S
C1026 H1014 0.950 . S
C1026 C1025 1.398 . S
C1026 C1027 1.391 . S
C1027 H1015 0.950 . S
C1027 C1023 1.393 . S
C1027 C1026 1.391 . S
H1028 C1036 0.950 . S
H1029 C1041 0.950 . S
H1030 C1038 0.950 . S
H1031 C1040 0.950 . S
H1032 C1042 0.950 . S
H1033 C1044 0.950 . S
H1034 C1046 0.950 . S
H1035 C1047 0.950 . S
C1036 H1028 0.950 . S
C1036 C1037 1.386 . S
C1036 C1038 1.391 . S
C1037 C1036 1.386 . S
C1037 C1041 1.393 . S
C1038 H1030 0.950 . S
C1038 C1036 1.391 . S
C1038 C1039 1.400 . S
C1039 C1038 1.400 . S
C1039 C1040 1.398 . S
C1039 C1045 1.491 . S
C1040 H1031 0.950 . S
C1040 C1039 1.398 . S
C1040 C1041 1.391 . S
C1041 H1029 0.950 . S
C1041 C1037 1.393 . S
C1041 C1040 1.391 . S
C1042 H1032 0.950 . S
C1042 C1043 1.386 . S
C1042 C1044 1.391 . S
C1043 C1042 1.386 . S
C1043 C1047 1.393 . S
C1044 H1033 0.950 . S
C1044 C1042 1.391 . S
C1044 C1045 1.400 . S
C1045 C1039 1.491 . S
C1045 C1044 1.400 . S
C1045 C1046 1.398 . S
C1046 H1034 0.950 . S
C1046 C1045 1.398 . S
C1046 C1047 1.391 . S
C1047 H1035 0.950 . S
C1047 C1043 1.393 . S
C1047 C1046 1.391 . S
H1048 C1056 0.950 . S
H1049 C1061 0.950 . S
H1050 C1058 0.950 . S
H1051 C1060 0.950 . S
H1052 C1062 0.950 . S
H1053 C1064 0.950 . S
H1054 C1066 0.950 . S
H1055 C1067 0.950 . S
C1056 H1048 0.950 . S
C1056 C1057 1.386 . S
C1056 C1058 1.391 . S
C1057 C1056 1.386 . S
C1057 C1061 1.393 . S
C1058 H1050 0.950 . S
C1058 C1056 1.391 . S
C1058 C1059 1.400 . S
C1059 C1058 1.400 . S
C1059 C1060 1.398 . S
C1059 C1065 1.491 . S
C1060 H1051 0.950 . S
C1060 C1059 1.398 . S
C1060 C1061 1.391 . S
C1061 H1049 0.950 . S
C1061 C1057 1.393 . S
C1061 C1060 1.391 . S
C1062 H1052 0.950 . S
C1062 C1063 1.386 . S
C1062 C1064 1.391 . S
C1063 C1062 1.386 . S
C1063 C1067 1.393 . S
C1064 H1053 0.950 . S
C1064 C1062 1.391 . S
C1064 C1065 1.400 . S
C1065 C1059 1.491 . S
C1065 C1064 1.400 . S
C1065 C1066 1.398 . S
C1066 H1054 0.950 . S
C1066 C1065 1.398 . S
C1066 C1067 1.391 . S
C1067 H1055 0.950 . S
C1067 C1063 1.393 . S
C1067 C1066 1.391 . S
H1068 C1076 0.950 . S
H1069 C1081 0.950 . S
H1070 C1078 0.950 . S
H1071 C1080 0.950 . S
H1072 C1082 0.950 . S
H1073 C1084 0.950 . S
H1074 C1086 0.950 . S
H1075 C1087 0.950 . S
C1076 H1068 0.950 . S
C1076 C1077 1.386 . S
C1076 C1078 1.391 . S
C1077 C1076 1.386 . S
C1077 C1081 1.393 . S
C1078 H1070 0.950 . S
C1078 C1076 1.391 . S
C1078 C1079 1.400 . S
C1079 C1078 1.400 . S
C1079 C1080 1.398 . S
C1079 C1085 1.491 . S
C1080 H1071 0.950 . S
C1080 C1079 1.398 . S
C1080 C1081 1.391 . S
C1081 H1069 0.950 . S
C1081 C1077 1.393 . S
C1081 C1080 1.391 . S
C1082 H1072 0.950 . S
C1082 C1083 1.386 . S
C1082 C1084 1.391 . S
C1083 C1082 1.386 . S
C1083 C1087 1.393 . S
C1084 H1073 0.950 . S
C1084 C1082 1.391 . S
C1084 C1085 1.400 . S
C1085 C1079 1.491 . S
C1085 C1084 1.400 . S
C1085 C1086 1.398 . S
C1086 H1074 0.950 . S
C1086 C1085 1.398 . S
C1086 C1087 1.391 . S
C1087 H1075 0.950 . S
C1087 C1083 1.393 . S
C1087 C1086 1.391 . S
H1088 C1096 0.950 . S
H1089 C1101 0.950 . S
H1090 C1098 0.950 . S
H1091 C1100 0.950 . S
H1092 C1102 0.950 . S
H1093 C1104 0.950 . S
H1094 C1106 0.950 . S
H1095 C1107 0.950 . S
C1096 H1088 0.950 . S
C1096 C1097 1.386 . S
C1096 C1098 1.391 . S
C1097 C1096 1.386 . S
C1097 C1101 1.393 . S
C1098 H1090 0.950 . S
C1098 C1096 1.391 . S
C1098 C1099 1.400 . S
C1099 C1098 1.400 . S
C1099 C1100 1.398 . S
C1099 C1105 1.491 . S
C1100 H1091 0.950 . S
C1100 C1099 1.398 . S
C1100 C1101 1.391 . S
C1101 H1089 0.950 . S
C1101 C1097 1.393 . S
C1101 C1100 1.391 . S
C1102 H1092 0.950 . S
C1102 C1103 1.386 . S
C1102 C1104 1.391 . S
C1103 C1102 1.386 . S
C1103 C1107 1.393 . S
C1104 H1093 0.950 . S
C1104 C1102 1.391 . S
C1104 C1105 1.400 . S
C1105 C1099 1.491 . S
C1105 C1104 1.400 . S
C1105 C1106 1.398 . S
C1106 H1094 0.950 . S
C1106 C1105 1.398 . S
C1106 C1107 1.391 . S
C1107 H1095 0.950 . S
C1107 C1103 1.393 . S
C1107 C1106 1.391 . S
H1108 C1116 0.950 . S
H1109 C1121 0.950 . S
H1110 C1118 0.950 . S
H1111 C1120 0.950 . S
H1112 C1122 0.950 . S
H1113 C1124 0.950 . S
H1114 C1126 0.950 . S
H1115 C1127 0.950 . S
C1116 H1108 0.950 . S
C1116 C1117 1.386 . S
C1116 C1118 1.391 . S
C1117 C1116 1.386 . S
C1117 C1121 1.393 . S
C1118 H1110 0.950 . S
C1118 C1116 1.391 . S
C1118 C1119 1.400 . S
C1119 C1118 1.400 . S
C1119 C1120 1.398 . S
C1119 C1125 1.491 . S
C1120 H1111 0.950 . S
C1120 C1119 1.398 . S
C1120 C1121 1.391 . S
C1121 H1109 0.950 . S
C1121 C1117 1.393 . S
C1121 C1120 1.391 . S
C1122 H1112 0.950 . S
C1122 C1123 1.386 . S
C1122 C1124 1.391 . S
C1123 C1122 1.386 . S
C1123 C1127 1.393 . S
C1124 H1113 0.950 . S
C1124 C1122 1.391 . S
C1124 C1125 1.400 . S
C1125 C1119 1.491 . S
C1125 C1124 1.400 . S
C1125 C1126 1.398 . S
C1126 H1114 0.950 . S
C1126 C1125 1.398 . S
C1126 C1127 1.391 . S
C1127 H1115 0.950 . S
C1127 C1123 1.393 . S
C1127 C1126 1.391 . S
H1128 C1136 0.950 . S
H1129 C1141 0.950 . S
H1130 C1138 0.950 . S
H1131 C1140 0.950 . S
H1132 C1142 0.950 . S
H1133 C1144 0.950 . S
H1134 C1146 0.950 . S
H1135 C1147 0.950 . S
C1136 H1128 0.950 . S
C1136 C1137 1.386 . S
C1136 C1138 1.391 . S
C1137 C1136 1.386 . S
C1137 C1141 1.393 . S
C1138 H1130 0.950 . S
C1138 C1136 1.391 . S
C1138 C1139 1.400 . S
C1139 C1138 1.400 . S
C1139 C1140 1.398 . S
C1139 C1145 1.491 . S
C1140 H1131 0.950 . S
C1140 C1139 1.398 . S
C1140 C1141 1.391 . S
C1141 H1129 0.950 . S
C1141 C1137 1.393 . S
C1141 C1140 1.391 . S
C1142 H1132 0.950 . S
C1142 C1143 1.386 . S
C1142 C1144 1.391 . S
C1143 C1142 1.386 . S
C1143 C1147 1.393 . S
C1144 H1133 0.950 . S
C1144 C1142 1.391 . S
C1144 C1145 1.400 . S
C1145 C1139 1.491 . S
C1145 C1144 1.400 . S
C1145 C1146 1.398 . S
C1146 H1134 0.950 . S
C1146 C1145 1.398 . S
C1146 C1147 1.391 . S
C1147 H1135 0.950 . S
C1147 C1143 1.393 . S
C1147 C1146 1.391 . S
H1148 C1156 0.950 . S
H1149 C1161 0.950 . S
H1150 C1158 0.950 . S
H1151 C1160 0.950 . S
H1152 C1162 0.950 . S
H1153 C1164 0.950 . S
H1154 C1166 0.950 . S
H1155 C1167 0.950 . S
C1156 H1148 0.950 . S
C1156 C1157 1.386 . S
C1156 C1158 1.391 . S
C1157 C1156 1.386 . S
C1157 C1161 1.393 . S
C1158 H1150 0.950 . S
C1158 C1156 1.391 . S
C1158 C1159 1.400 . S
C1159 C1158 1.400 . S
C1159 C1160 1.398 . S
C1159 C1165 1.491 . S
C1160 H1151 0.950 . S
C1160 C1159 1.398 . S
C1160 C1161 1.391 . S
C1161 H1149 0.950 . S
C1161 C1157 1.393 . S
C1161 C1160 1.391 . S
C1162 H1152 0.950 . S
C1162 C1163 1.386 . S
C1162 C1164 1.391 . S
C1163 C1162 1.386 . S
C1163 C1167 1.393 . S
C1164 H1153 0.950 . S
C1164 C1162 1.391 . S
C1164 C1165 1.400 . S
C1165 C1159 1.491 . S
C1165 C1164 1.400 . S
C1165 C1166 1.398 . S
C1166 H1154 0.950 . S
C1166 C1165 1.398 . S
C1166 C1167 1.391 . S
C1167 H1155 0.950 . S
C1167 C1163 1.393 . S
C1167 C1166 1.391 . S
H1168 C1176 0.950 . S
H1169 C1181 0.950 . S
H1170 C1178 0.950 . S
H1171 C1180 0.950 1_565 S
H1172 C1182 0.950 . S
H1173 C1184 0.950 . S
H1174 C1186 0.950 1_545 S
H1175 C1187 0.950 . S
C1176 H1168 0.950 . S
C1176 C1177 1.386 . S
C1176 C1178 1.391 . S
C1177 C1176 1.386 . S
C1177 C1181 1.393 . S
C1178 H1170 0.950 . S
C1178 C1176 1.391 . S
C1178 C1179 1.400 . S
C1179 C1178 1.400 . S
C1179 C1180 1.398 . S
C1179 C1185 1.491 1_545 S
C1180 H1171 0.950 1_545 S
C1180 C1179 1.398 . S
C1180 C1181 1.391 . S
C1181 H1169 0.950 . S
C1181 C1177 1.393 . S
C1181 C1180 1.391 . S
C1182 H1172 0.950 . S
C1182 C1183 1.386 . S
C1182 C1184 1.391 . S
C1183 C1182 1.386 . S
C1183 C1187 1.393 . S
C1184 H1173 0.950 . S
C1184 C1182 1.391 . S
C1184 C1185 1.400 . S
C1185 C1179 1.491 1_565 S
C1185 C1184 1.400 . S
C1185 C1186 1.398 . S
C1186 H1174 0.950 1_565 S
C1186 C1185 1.398 . S
C1186 C1187 1.391 . S
C1187 H1175 0.950 . S
C1187 C1183 1.393 . S
C1187 C1186 1.391 . S
H1188 C1196 0.950 . S
H1189 C1201 0.950 . S
H1190 C1198 0.950 . S
H1191 C1200 0.950 1_455 S
H1192 C1202 0.950 . S
H1193 C1204 0.950 . S
H1194 C1206 0.950 1_655 S
H1195 C1207 0.950 . S
C1196 H1188 0.950 . S
C1196 C1197 1.386 . S
C1196 C1198 1.391 . S
C1197 C1196 1.386 . S
C1197 C1201 1.393 . S
C1198 H1190 0.950 . S
C1198 C1196 1.391 . S
C1198 C1199 1.400 . S
C1199 C1198 1.400 . S
C1199 C1200 1.398 . S
C1199 C1205 1.491 1_655 S
C1200 H1191 0.950 1_655 S
C1200 C1199 1.398 . S
C1200 C1201 1.391 . S
C1201 H1189 0.950 . S
C1201 C1197 1.393 . S
C1201 C1200 1.391 . S
C1202 H1192 0.950 . S
C1202 C1203 1.386 . S
C1202 C1204 1.391 . S
C1203 C1202 1.386 . S
C1203 C1207 1.393 . S
C1204 H1193 0.950 . S
C1204 C1202 1.391 . S
C1204 C1205 1.400 . S
C1205 C1199 1.491 1_455 S
C1205 C1204 1.400 . S
C1205 C1206 1.398 . S
C1206 H1194 0.950 1_455 S
C1206 C1205 1.398 . S
C1206 C1207 1.391 . S
C1207 H1195 0.950 . S
C1207 C1203 1.393 . S
C1207 C1206 1.391 . S
H1208 C1216 0.950 . S
H1209 C1221 0.950 . S
H1210 C1218 0.950 . S
H1211 C1220 0.950 1_565 S
H1212 C1222 0.950 . S
H1213 C1224 0.950 . S
H1214 C1226 0.950 1_545 S
H1215 C1227 0.950 . S
C1216 H1208 0.950 . S
C1216 C1217 1.386 . S
C1216 C1218 1.391 . S
C1217 C1216 1.386 . S
C1217 C1221 1.393 . S
C1218 H1210 0.950 . S
C1218 C1216 1.391 . S
C1218 C1219 1.400 . S
C1219 C1218 1.400 . S
C1219 C1220 1.398 . S
C1219 C1225 1.491 1_545 S
C1220 H1211 0.950 1_545 S
C1220 C1219 1.398 . S
C1220 C1221 1.391 . S
C1221 H1209 0.950 . S
C1221 C1217 1.393 . S
C1221 C1220 1.391 . S
C1222 H1212 0.950 . S
C1222 C1223 1.386 . S
C1222 C1224 1.391 . S
C1223 C1222 1.386 . S
C1223 C1227 1.393 . S
C1224 H1213 0.950 . S
C1224 C1222 1.391 . S
C1224 C1225 1.400 . S
C1225 C1219 1.491 1_565 S
C1225 C1224 1.400 . S
C1225 C1226 1.398 . S
C1226 H1214 0.950 1_565 S
C1226 C1225 1.398 . S
C1226 C1227 1.391 . S
C1227 H1215 0.950 . S
C1227 C1223 1.393 . S
C1227 C1226 1.391 . S
H1228 C1236 0.950 . S
H1229 C1241 0.950 . S
H1230 C1238 0.950 1_455 S
H1231 C1240 0.950 . S
H1232 C1242 0.950 . S
H1233 C1244 0.950 1_655 S
H1234 C1246 0.950 . S
H1235 C1247 0.950 . S
C1236 H1228 0.950 . S
C1236 C1237 1.386 . S
C1236 C1238 1.391 . S
C1237 C1236 1.386 . S
C1237 C1241 1.393 . S
C1238 H1230 0.950 1_655 S
C1238 C1236 1.391 . S
C1238 C1239 1.400 . S
C1239 C1238 1.400 . S
C1239 C1240 1.398 . S
C1239 C1245 1.491 1_655 S
C1240 H1231 0.950 . S
C1240 C1239 1.398 . S
C1240 C1241 1.391 . S
C1241 H1229 0.950 . S
C1241 C1237 1.393 . S
C1241 C1240 1.391 . S
C1242 H1232 0.950 . S
C1242 C1243 1.386 . S
C1242 C1244 1.391 . S
C1243 C1242 1.386 . S
C1243 C1247 1.393 . S
C1244 H1233 0.950 1_455 S
C1244 C1242 1.391 . S
C1244 C1245 1.400 . S
C1245 C1239 1.491 1_455 S
C1245 C1244 1.400 . S
C1245 C1246 1.398 . S
C1246 H1234 0.950 . S
C1246 C1245 1.398 . S
C1246 C1247 1.391 . S
C1247 H1235 0.950 . S
C1247 C1243 1.393 . S
C1247 C1246 1.391 . S
H1248 C1256 0.950 . S
H1249 C1261 0.950 . S
H1250 C1258 0.950 . S
H1251 C1260 0.950 1_545 S
H1252 C1262 0.950 . S
H1253 C1264 0.950 . S
H1254 C1266 0.950 1_565 S
H1255 C1267 0.950 . S
C1256 H1248 0.950 . S
C1256 C1257 1.386 . S
C1256 C1258 1.391 . S
C1257 C1256 1.386 . S
C1257 C1261 1.393 . S
C1258 H1250 0.950 . S
C1258 C1256 1.391 . S
C1258 C1259 1.400 . S
C1259 C1258 1.400 . S
C1259 C1260 1.398 . S
C1259 C1265 1.491 1_565 S
C1260 H1251 0.950 1_565 S
C1260 C1259 1.398 . S
C1260 C1261 1.391 . S
C1261 H1249 0.950 . S
C1261 C1257 1.393 . S
C1261 C1260 1.391 . S
C1262 H1252 0.950 . S
C1262 C1263 1.386 . S
C1262 C1264 1.391 . S
C1263 C1262 1.386 . S
C1263 C1267 1.393 . S
C1264 H1253 0.950 . S
C1264 C1262 1.391 . S
C1264 C1265 1.400 . S
C1265 C1259 1.491 1_545 S
C1265 C1264 1.400 . S
C1265 C1266 1.398 . S
C1266 H1254 0.950 1_545 S
C1266 C1265 1.398 . S
C1266 C1267 1.391 . S
C1267 H1255 0.950 . S
C1267 C1263 1.393 . S
C1267 C1266 1.391 . S
H1268 C1276 0.950 . S
H1269 C1281 0.950 . S
H1270 C1278 0.950 . S
H1271 C1280 0.950 . S
H1272 C1282 0.950 . S
H1273 C1284 0.950 . S
H1274 C1286 0.950 . S
H1275 C1287 0.950 . S
C1276 H1268 0.950 . S
C1276 C1277 1.386 . S
C1276 C1278 1.391 . S
C1277 C1276 1.386 . S
C1277 C1281 1.393 . S
C1278 H1270 0.950 . S
C1278 C1276 1.391 . S
C1278 C1279 1.400 . S
C1279 C1278 1.400 . S
C1279 C1280 1.398 . S
C1279 C1285 1.491 1_455 S
C1280 H1271 0.950 . S
C1280 C1279 1.398 . S
C1280 C1281 1.391 . S
C1281 H1269 0.950 . S
C1281 C1277 1.393 . S
C1281 C1280 1.391 . S
C1282 H1272 0.950 . S
C1282 C1283 1.386 . S
C1282 C1284 1.391 . S
C1283 C1282 1.386 . S
C1283 C1287 1.393 . S
C1284 H1273 0.950 . S
C1284 C1282 1.391 . S
C1284 C1285 1.400 . S
C1285 C1279 1.491 1_655 S
C1285 C1284 1.400 . S
C1285 C1286 1.398 . S
C1286 H1274 0.950 . S
C1286 C1285 1.398 . S
C1286 C1287 1.391 . S
C1287 H1275 0.950 . S
C1287 C1283 1.393 . S
C1287 C1286 1.391 . S
H1288 C1296 0.950 . S
H1289 C1301 0.950 . S
H1290 C1298 0.950 . S
H1291 C1300 0.950 1_545 S
H1292 C1302 0.950 . S
H1293 C1304 0.950 . S
H1294 C1306 0.950 1_565 S
H1295 C1307 0.950 . S
C1296 H1288 0.950 . S
C1296 C1297 1.386 . S
C1296 C1298 1.391 . S
C1297 C1296 1.386 . S
C1297 C1301 1.393 . S
C1298 H1290 0.950 . S
C1298 C1296 1.391 . S
C1298 C1299 1.400 . S
C1299 C1298 1.400 . S
C1299 C1300 1.398 . S
C1299 C1305 1.491 1_565 S
C1300 H1291 0.950 1_565 S
C1300 C1299 1.398 . S
C1300 C1301 1.391 . S
C1301 H1289 0.950 . S
C1301 C1297 1.393 . S
C1301 C1300 1.391 . S
C1302 H1292 0.950 . S
C1302 C1303 1.386 . S
C1302 C1304 1.391 . S
C1303 C1302 1.386 . S
C1303 C1307 1.393 . S
C1304 H1293 0.950 . S
C1304 C1302 1.391 . S
C1304 C1305 1.400 . S
C1305 C1299 1.491 1_545 S
C1305 C1304 1.400 . S
C1305 C1306 1.398 . S
C1306 H1294 0.950 1_545 S
C1306 C1305 1.398 . S
C1306 C1307 1.391 . S
C1307 H1295 0.950 . S
C1307 C1303 1.393 . S
C1307 C1306 1.391 . S
H1308 C1316 0.950 . S
H1309 C1321 0.950 . S
H1310 C1318 0.950 . S
H1311 C1320 0.950 1_455 S
H1312 C1322 0.950 . S
H1313 C1324 0.950 . S
H1314 C1326 0.950 1_655 S
H1315 C1327 0.950 . S
C1316 H1308 0.950 . S
C1316 C1317 1.386 . S
C1316 C1318 1.391 . S
C1317 C1316 1.386 . S
C1317 C1321 1.393 . S
C1318 H1310 0.950 . S
C1318 C1316 1.391 . S
C1318 C1319 1.400 . S
C1319 C1318 1.400 . S
C1319 C1320 1.398 . S
C1319 C1325 1.491 1_655 S
C1320 H1311 0.950 1_655 S
C1320 C1319 1.398 . S
C1320 C1321 1.391 . S
C1321 H1309 0.950 . S
C1321 C1317 1.393 . S
C1321 C1320 1.391 . S
C1322 H1312 0.950 . S
C1322 C1323 1.386 . S
C1322 C1324 1.391 . S
C1323 C1322 1.386 . S
C1323 C1327 1.393 . S
C1324 H1313 0.950 . S
C1324 C1322 1.391 . S
C1324 C1325 1.400 . S
C1325 C1319 1.491 1_455 S
C1325 C1324 1.400 . S
C1325 C1326 1.398 . S
C1326 H1314 0.950 1_455 S
C1326 C1325 1.398 . S
C1326 C1327 1.391 . S
C1327 H1315 0.950 . S
C1327 C1323 1.393 . S
C1327 C1326 1.391 . S
C537 N79 0.891 . S
C543 N13 0.946 . S
C557 N46 0.938 . S
C563 N112 0.898 . S
C577 N211 0.916 . S
C583 N145 0.921 . S
C597 N244 0.914 . S
C603 N178 0.922 . S
C617 N277 0.941 . S
C623 N343 0.896 . S
C637 N310 0.936 . S
C643 N376 0.901 . S
C657 N409 0.946 . S
C663 N475 0.891 . S
C677 N508 0.903 . S
C683 N442 0.936 . S
C697 N2 1.813 . S
C703 N167 1.806 . S
C717 N200 1.810 . S
C723 N35 1.808 . S
C737 N233 1.809 . S
C743 N68 1.808 . S
C757 N134 1.808 . S
C763 N101 1.814 . S
C777 N431 1.806 . S
C783 N266 1.812 . S
C797 N464 1.814 . S
C803 N299 1.806 . S
C817 N497 1.812 . S
C823 N332 1.811 . S
C837 N398 1.806 . S
C843 N365 1.813 . S
C857 C18 1.162 . S
C863 C348 1.165 . S
C877 C381 1.160 . S
C883 C51 1.168 . S
C897 C282 1.159 . S
C903 C84 1.170 . S
C917 C315 1.170 . S
C923 C117 1.171 . S
C937 C150 1.171 . S
C943 C480 1.158 . S
C957 C183 1.160 . S
C963 C513 1.168 . S
C977 C216 1.158 . S
C983 C414 1.175 . S
C997 C249 1.174 . S
C1003 C447 1.158 . S
C1017 C139 0.989 . S
C1023 C7 1.008 . S
C1037 C40 1.006 . S
C1043 C172 1.022 . S
C1057 C205 1.019 . S
C1063 C73 1.010 . S
C1077 C238 0.987 . S
C1083 C106 1.012 . S
C1097 C285 0.536 . S
C1103 C417 0.576 . S
C1117 C450 0.537 . S
C1123 C318 0.574 . S
C1137 C351 0.575 . S
C1143 C483 0.537 . S
C1157 C516 0.523 . S
C1163 C384 0.587 . S
C1177 C370 1.024 . S
C1183 C436 1.002 . S
C1197 C271 1.025 . S
C1203 C469 0.992 . S
C1217 C502 1.020 . S
C1223 C304 0.986 . S
C1237 C403 0.989 . S
C1243 C337 1.008 . S
C1257 C120 0.537 . S
C1263 C186 0.574 . S
C1277 C21 0.572 . S
C1283 C219 0.540 . S
C1297 C252 0.526 . S
C1303 C54 0.584 . S
C1317 C87 0.536 . S
C1323 C153 0.575 . S
