# Generated by pormake.
# Topology fci, (5)-cn, num edge types: 1
# Building blocks:
#     Node 0, Type 0, BuildingBlock: BEQFEK_clean_sbu_0, # of connection points: 5
#     Node 1, Type 0, BuildingBlock: BEQFEK_clean_sbu_0, # of connection points: 5
#     Node 2, Type 0, BuildingBlock: BEQFEK_clean_sbu_0, # of connection points: 5
#     Node 3, Type 0, BuildingBlock: BEQFEK_clean_sbu_0, # of connection points: 5
#     Node 4, Type 0, BuildingBlock: BEQFEK_clean_sbu_0, # of connection points: 5
#     Node 5, Type 0, BuildingBlock: BEQFEK_clean_sbu_0, # of connection points: 5
#     Node 6, Type 0, BuildingBlock: BEQFEK_clean_sbu_0, # of connection points: 5
#     Node 7, Type 0, BuildingBlock: BEQFEK_clean_sbu_0, # of connection points: 5
#     Node 8, Type 0, BuildingBlock: BEQFEK_clean_sbu_0, # of connection points: 5
#     Node 9, Type 0, BuildingBlock: BEQFEK_clean_sbu_0, # of connection points: 5
#     Node 10, Type 0, BuildingBlock: BEQFEK_clean_sbu_0, # of connection points: 5
#     Node 11, Type 0, BuildingBlock: BEQFEK_clean_sbu_0, # of connection points: 5
#     Node 12, Type 0, BuildingBlock: BEQFEK_clean_sbu_0, # of connection points: 5
#     Node 13, Type 0, BuildingBlock: BEQFEK_clean_sbu_0, # of connection points: 5
#     Node 14, Type 0, BuildingBlock: BEQFEK_clean_sbu_0, # of connection points: 5
#     Node 15, Type 0, BuildingBlock: BEQFEK_clean_sbu_0, # of connection points: 5
#     Node 16, Type 0, BuildingBlock: BEQFEK_clean_sbu_0, # of connection points: 5
#     Node 17, Type 0, BuildingBlock: BEQFEK_clean_sbu_0, # of connection points: 5
#     Node 18, Type 0, BuildingBlock: BEQFEK_clean_sbu_0, # of connection points: 5
#     Node 19, Type 0, BuildingBlock: BEQFEK_clean_sbu_0, # of connection points: 5
#     Node 20, Type 0, BuildingBlock: BEQFEK_clean_sbu_0, # of connection points: 5
#     Node 21, Type 0, BuildingBlock: BEQFEK_clean_sbu_0, # of connection points: 5
#     Node 22, Type 0, BuildingBlock: BEQFEK_clean_sbu_0, # of connection points: 5
#     Node 23, Type 0, BuildingBlock: BEQFEK_clean_sbu_0, # of connection points: 5
#     Edge 24, Type (0, 0), BuildingBlock: XIVTED_clean_linker_0, # of connection points: 2
#     Edge 25, Type (0, 0), BuildingBlock: XIVTED_clean_linker_0, # of connection points: 2
#     Edge 26, Type (0, 0), BuildingBlock: XIVTED_clean_linker_0, # of connection points: 2
#     Edge 27, Type (0, 0), BuildingBlock: XIVTED_clean_linker_0, # of connection points: 2
#     Edge 28, Type (0, 0), BuildingBlock: XIVTED_clean_linker_0, # of connection points: 2
#     Edge 29, Type (0, 0), BuildingBlock: XIVTED_clean_linker_0, # of connection points: 2
#     Edge 30, Type (0, 0), BuildingBlock: XIVTED_clean_linker_0, # of connection points: 2
#     Edge 31, Type (0, 0), BuildingBlock: XIVTED_clean_linker_0, # of connection points: 2
#     Edge 32, Type (0, 0), BuildingBlock: XIVTED_clean_linker_0, # of connection points: 2
#     Edge 33, Type (0, 0), BuildingBlock: XIVTED_clean_linker_0, # of connection points: 2
#     Edge 34, Type (0, 0), BuildingBlock: XIVTED_clean_linker_0, # of connection points: 2
#     Edge 35, Type (0, 0), BuildingBlock: XIVTED_clean_linker_0, # of connection points: 2
#     Edge 36, Type (0, 0), BuildingBlock: XIVTED_clean_linker_0, # of connection points: 2
#     Edge 37, Type (0, 0), BuildingBlock: XIVTED_clean_linker_0, # of connection points: 2
#     Edge 38, Type (0, 0), BuildingBlock: XIVTED_clean_linker_0, # of connection points: 2
#     Edge 39, Type (0, 0), BuildingBlock: XIVTED_clean_linker_0, # of connection points: 2
#     Edge 40, Type (0, 0), BuildingBlock: XIVTED_clean_linker_0, # of connection points: 2
#     Edge 41, Type (0, 0), BuildingBlock: XIVTED_clean_linker_0, # of connection points: 2
#     Edge 42, Type (0, 0), BuildingBlock: XIVTED_clean_linker_0, # of connection points: 2
#     Edge 43, Type (0, 0), BuildingBlock: XIVTED_clean_linker_0, # of connection points: 2
#     Edge 44, Type (0, 0), BuildingBlock: XIVTED_clean_linker_0, # of connection points: 2
#     Edge 45, Type (0, 0), BuildingBlock: XIVTED_clean_linker_0, # of connection points: 2
#     Edge 46, Type (0, 0), BuildingBlock: XIVTED_clean_linker_0, # of connection points: 2
#     Edge 47, Type (0, 0), BuildingBlock: XIVTED_clean_linker_0, # of connection points: 2
#     Edge 48, Type (0, 0), BuildingBlock: XIVTED_clean_linker_0, # of connection points: 2
#     Edge 49, Type (0, 0), BuildingBlock: XIVTED_clean_linker_0, # of connection points: 2
#     Edge 50, Type (0, 0), BuildingBlock: XIVTED_clean_linker_0, # of connection points: 2
#     Edge 51, Type (0, 0), BuildingBlock: XIVTED_clean_linker_0, # of connection points: 2
#     Edge 52, Type (0, 0), BuildingBlock: XIVTED_clean_linker_0, # of connection points: 2
#     Edge 53, Type (0, 0), BuildingBlock: XIVTED_clean_linker_0, # of connection points: 2
#     Edge 54, Type (0, 0), BuildingBlock: XIVTED_clean_linker_0, # of connection points: 2
#     Edge 55, Type (0, 0), BuildingBlock: XIVTED_clean_linker_0, # of connection points: 2
#     Edge 56, Type (0, 0), BuildingBlock: XIVTED_clean_linker_0, # of connection points: 2
#     Edge 57, Type (0, 0), BuildingBlock: XIVTED_clean_linker_0, # of connection points: 2
#     Edge 58, Type (0, 0), BuildingBlock: XIVTED_clean_linker_0, # of connection points: 2
#     Edge 59, Type (0, 0), BuildingBlock: XIVTED_clean_linker_0, # of connection points: 2
#     Edge 60, Type (0, 0), BuildingBlock: XIVTED_clean_linker_0, # of connection points: 2
#     Edge 61, Type (0, 0), BuildingBlock: XIVTED_clean_linker_0, # of connection points: 2
#     Edge 62, Type (0, 0), BuildingBlock: XIVTED_clean_linker_0, # of connection points: 2
#     Edge 63, Type (0, 0), BuildingBlock: XIVTED_clean_linker_0, # of connection points: 2
#     Edge 64, Type (0, 0), BuildingBlock: XIVTED_clean_linker_0, # of connection points: 2
#     Edge 65, Type (0, 0), BuildingBlock: XIVTED_clean_linker_0, # of connection points: 2
#     Edge 66, Type (0, 0), BuildingBlock: XIVTED_clean_linker_0, # of connection points: 2
#     Edge 67, Type (0, 0), BuildingBlock: XIVTED_clean_linker_0, # of connection points: 2
#     Edge 68, Type (0, 0), BuildingBlock: XIVTED_clean_linker_0, # of connection points: 2
#     Edge 69, Type (0, 0), BuildingBlock: XIVTED_clean_linker_0, # of connection points: 2
#     Edge 70, Type (0, 0), BuildingBlock: XIVTED_clean_linker_0, # of connection points: 2
#     Edge 71, Type (0, 0), BuildingBlock: XIVTED_clean_linker_0, # of connection points: 2
#     Edge 72, Type (0, 0), BuildingBlock: XIVTED_clean_linker_0, # of connection points: 2
#     Edge 73, Type (0, 0), BuildingBlock: XIVTED_clean_linker_0, # of connection points: 2
#     Edge 74, Type (0, 0), BuildingBlock: XIVTED_clean_linker_0, # of connection points: 2
#     Edge 75, Type (0, 0), BuildingBlock: XIVTED_clean_linker_0, # of connection points: 2
#     Edge 76, Type (0, 0), BuildingBlock: XIVTED_clean_linker_0, # of connection points: 2
#     Edge 77, Type (0, 0), BuildingBlock: XIVTED_clean_linker_0, # of connection points: 2
#     Edge 78, Type (0, 0), BuildingBlock: XIVTED_clean_linker_0, # of connection points: 2
#     Edge 79, Type (0, 0), BuildingBlock: XIVTED_clean_linker_0, # of connection points: 2
#     Edge 80, Type (0, 0), BuildingBlock: XIVTED_clean_linker_0, # of connection points: 2
#     Edge 81, Type (0, 0), BuildingBlock: XIVTED_clean_linker_0, # of connection points: 2
#     Edge 82, Type (0, 0), BuildingBlock: XIVTED_clean_linker_0, # of connection points: 2
#     Edge 83, Type (0, 0), BuildingBlock: XIVTED_clean_linker_0, # of connection points: 2
# Relax obj value: 0.885
# Max RMSD: 0.352
# Mean RMSD: 0.317
data_MOF--net-fci--node1-BEQFEK_clean_sbu_0--edge1-XIVTED_clean_linker_0
_symmetry_space_group_name_H-M    P1
_symmetry_Int_Tables_number       1
_symmetry_cell_setting            triclinic
loop_
_symmetry_equiv_pos_as_xyz
'x, y, z'
_cell_length_a     54.199458
_cell_length_b     54.206499
_cell_length_c     54.211669
_cell_angle_alpha  89.214129
_cell_angle_beta   89.200407
_cell_angle_gamma 89.207613
loop_
_atom_site_label
_atom_site_type_symbol
_atom_site_fract_x
_atom_site_fract_y
_atom_site_fract_z
_atom_type_partial_charge
Co0 Co 0.19219 0.1509 0.60691 0.0
Co1 Co 0.23041 0.13478 0.5658 0.0
C2 C 0.20518 0.09826 0.60004 0.0
O3 O 0.19382 0.11552 0.61111 0.0
O4 O 0.21948 0.10247 0.58161 0.0
C5 C 0.1588 0.1521 0.64889 0.0
O6 O 0.15849 0.12801 0.64671 0.0
C7 C 0.28189 0.12323 0.55698 0.0
C8 C 0.28794 0.13595 0.51865 0.0
C9 C 0.30051 0.12876 0.53982 0.0
N10 N 0.25987 0.12824 0.54682 0.0
N11 N 0.26354 0.13498 0.52358 0.0
C12 C 0.28451 0.11418 0.58305 0.0
H13 H 0.28347 0.12998 0.59581 0.0
H14 H 0.30232 0.10415 0.58551 0.0
H15 H 0.26907 0.10175 0.58799 0.0
C16 C 0.2326 0.18194 0.62185 0.0
N17 N 0.22378 0.1637 0.60809 0.0
N18 N 0.2388 0.15951 0.58933 0.0
C19 C 0.257 0.17629 0.58975 0.0
C20 C 0.25399 0.19055 0.61067 0.0
C21 C 0.21992 0.19167 0.64448 0.0
H22 H 0.20452 0.20416 0.63893 0.0
H23 H 0.21212 0.17618 0.65551 0.0
H24 H 0.23286 0.202 0.65605 0.0
O25 O 0.17769 0.16073 0.57489 0.0
O26 O 0.20363 0.14918 0.54482 0.0
H27 H 0.26512 0.17649 0.55076 0.0
H28 H 0.27657 0.20265 0.56695 0.0
C29 C 0.27342 0.18248 0.56818 0.0
H30 H 0.29157 0.17333 0.57064 0.0
H31 H 0.2496 0.1411 0.51183 0.0
O32 O 0.17142 0.16496 0.63367 0.0
C33 C 0.18351 0.15952 0.55205 0.0
Co34 Co 0.5311 0.43495 0.2923 0.0
Co35 Co 0.53994 0.48597 0.26543 0.0
C36 C 0.57655 0.4634 0.301 0.0
O37 O 0.56283 0.44503 0.30542 0.0
O38 O 0.57049 0.48005 0.28536 0.0
C39 C 0.53621 0.39083 0.32123 0.0
O40 O 0.55985 0.39428 0.31699 0.0
C41 C 0.54266 0.53865 0.27114 0.0
C42 C 0.52582 0.5533 0.23711 0.0
C43 C 0.53277 0.5601 0.26061 0.0
N44 N 0.54017 0.52002 0.2553 0.0
N45 N 0.53101 0.52906 0.23456 0.0
C46 C 0.55401 0.53544 0.29603 0.0
H47 H 0.54114 0.52531 0.30851 0.0
H48 H 0.55885 0.5534 0.30409 0.0
H49 H 0.57126 0.52439 0.29436 0.0
C50 C 0.48686 0.46064 0.31078 0.0
N51 N 0.50796 0.46023 0.29744 0.0
N52 N 0.51026 0.48106 0.28496 0.0
C53 C 0.48981 0.49504 0.28923 0.0
C54 C 0.47448 0.48268 0.3059 0.0
C55 C 0.4795 0.44073 0.32872 0.0
H56 H 0.49589 0.43413 0.33904 0.0
H57 H 0.46536 0.44734 0.34214 0.0
H58 H 0.47207 0.42496 0.31844 0.0
O59 O 0.53278 0.42766 0.25655 0.0
O60 O 0.53996 0.46326 0.23665 0.0
H61 H 0.46326 0.52193 0.2757 0.0
H62 H 0.49248 0.53405 0.28453 0.0
C63 C 0.48347 0.51837 0.27557 0.0
H64 H 0.48988 0.51709 0.25618 0.0
H65 H 0.52613 0.51833 0.21961 0.0
O66 O 0.52057 0.40529 0.31116 0.0
C67 C 0.53631 0.44003 0.23665 0.0
Co68 Co 0.29558 0.84916 0.1126 0.0
Co69 Co 0.26222 0.86448 0.06808 0.0
C70 C 0.28614 0.9018 0.1004 0.0
O71 O 0.29568 0.88467 0.11337 0.0
O72 O 0.27304 0.89726 0.08167 0.0
C73 C 0.31849 0.84919 0.16015 0.0
O74 O 0.31173 0.87255 0.16054 0.0
C75 C 0.21235 0.87586 0.05291 0.0
C76 C 0.21247 0.86259 0.01469 0.0
C77 C 0.19662 0.86998 0.0337 0.0
N78 N 0.23573 0.87074 0.04587 0.0
N79 N 0.2358 0.86369 0.02268 0.0
C80 C 0.20585 0.8855 0.07796 0.0
H81 H 0.22137 0.89635 0.08508 0.0
H82 H 0.20274 0.86993 0.09104 0.0
H83 H 0.18898 0.89731 0.0772 0.0
C84 C 0.25315 0.81993 0.12683 0.0
N85 N 0.26336 0.83778 0.11281 0.0
N86 N 0.25024 0.84154 0.09286 0.0
C87 C 0.23188 0.82486 0.09294 0.0
C88 C 0.23289 0.81103 0.11467 0.0
C89 C 0.26397 0.81018 0.15033 0.0
H90 H 0.2803 0.79838 0.14597 0.0
H91 H 0.27009 0.82576 0.16167 0.0
H92 H 0.25036 0.79919 0.16111 0.0
O93 O 0.31264 0.83649 0.08284 0.0
O94 O 0.29027 0.84779 0.05037 0.0
H95 H 0.22741 0.82354 0.05357 0.0
H96 H 0.21393 0.79813 0.07037 0.0
C97 C 0.21738 0.81825 0.07072 0.0
H98 H 0.19922 0.82781 0.07144 0.0
H99 H 0.25146 0.85749 0.01309 0.0
O100 O 0.31348 0.83624 0.14155 0.0
C101 C 0.30902 0.83681 0.05965 0.0
Co102 Co 0.96762 0.55723 0.79734 0.0
Co103 Co 0.9581 0.51291 0.76269 0.0
C104 C 0.92264 0.52772 0.80381 0.0
O105 O 0.93666 0.54477 0.81069 0.0
O106 O 0.92795 0.51474 0.78501 0.0
C107 C 0.97116 0.60469 0.8221 0.0
O108 O 0.95479 0.6135 0.80654 0.0
C109 C 0.95715 0.46025 0.76176 0.0
C110 C 0.96611 0.45102 0.72317 0.0
C111 C 0.96313 0.44063 0.74658 0.0
N112 N 0.9569 0.48113 0.74814 0.0
N113 N 0.9615 0.47547 0.72489 0.0
C114 C 0.95636 0.45983 0.78944 0.0
H115 H 0.95682 0.47871 0.79693 0.0
H116 H 0.97215 0.44892 0.79683 0.0
H117 H 0.9391 0.45088 0.79587 0.0
C118 C 0.01281 0.52926 0.8079 0.0
N119 N 0.99107 0.53179 0.79649 0.0
N120 N 0.98855 0.51395 0.7806 0.0
C121 C 0.00942 0.49994 0.78071 0.0
C122 C 0.02535 0.50913 0.79812 0.0
C123 C 0.02063 0.54517 0.82866 0.0
H124 H 0.00469 0.54847 0.84128 0.0
H125 H 0.03578 0.53648 0.8394 0.0
H126 H 0.02681 0.56323 0.82112 0.0
O127 O 0.96461 0.57142 0.76369 0.0
O128 O 0.95792 0.54068 0.73781 0.0
H129 H 0.03561 0.47829 0.75957 0.0
H130 H 0.00898 0.46201 0.77051 0.0
C131 C 0.01539 0.47988 0.76281 0.0
H132 H 0.00625 0.48366 0.74499 0.0
H133 H 0.96362 0.48845 0.71064 0.0
O134 O 0.97866 0.58247 0.82032 0.0
C135 C 0.96128 0.56356 0.74192 0.0
Co136 Co 0.7045 0.34864 0.37798 0.0
Co137 Co 0.73875 0.36839 0.41921 0.0
C138 C 0.71245 0.40238 0.3839 0.0
O139 O 0.70267 0.38408 0.37382 0.0
O140 O 0.72703 0.39968 0.40199 0.0
C141 C 0.68105 0.34591 0.33112 0.0
O142 O 0.6883 0.36883 0.32864 0.0
C143 C 0.78941 0.37728 0.43332 0.0
C144 C 0.78674 0.37384 0.47376 0.0
C145 C 0.80381 0.37427 0.45433 0.0
N146 N 0.76544 0.37684 0.44011 0.0
N147 N 0.76397 0.37592 0.4644 0.0
C148 C 0.79788 0.37841 0.40689 0.0
H149 H 0.78192 0.38018 0.39437 0.0
H150 H 0.80902 0.36183 0.40207 0.0
H151 H 0.8097 0.39477 0.40404 0.0
C152 C 0.74708 0.31815 0.36632 0.0
N153 N 0.7372 0.33765 0.37804 0.0
N154 N 0.75026 0.34253 0.39759 0.0
C155 C 0.76801 0.32485 0.39989 0.0
C156 C 0.76688 0.30927 0.37982 0.0
C157 C 0.7361 0.30681 0.34404 0.0
H158 H 0.71999 0.29559 0.34979 0.0
H159 H 0.72964 0.32154 0.33119 0.0
H160 H 0.74975 0.29483 0.33432 0.0
O161 O 0.68901 0.33789 0.40961 0.0
O162 O 0.71125 0.35427 0.43946 0.0
H163 H 0.78094 0.29866 0.42715 0.0
H164 H 0.80083 0.32414 0.42163 0.0
C165 C 0.7812 0.31884 0.4234 0.0
H166 H 0.77239 0.32839 0.43923 0.0
H167 H 0.74749 0.37427 0.47443 0.0
O168 O 0.68611 0.33383 0.35072 0.0
C169 C 0.69312 0.34148 0.43237 0.0
Co170 Co 0.45679 0.9321 0.20211 0.0
Co171 Co 0.44612 0.98293 0.22781 0.0
C172 C 0.4121 0.96204 0.19005 0.0
O173 O 0.4261 0.94337 0.18675 0.0
O174 O 0.41694 0.9782 0.20602 0.0
C175 C 0.45275 0.8877 0.17497 0.0
O176 O 0.42903 0.89165 0.17868 0.0
C177 C 0.44304 0.03597 0.22216 0.0
C178 C 0.45814 0.04913 0.25707 0.0
C179 C 0.45212 0.0569 0.23334 0.0
N180 N 0.44513 0.01671 0.23792 0.0
N181 N 0.45322 0.02487 0.25914 0.0
C182 C 0.43277 0.03385 0.19678 0.0
H183 H 0.41571 0.02286 0.19761 0.0
H184 H 0.44634 0.02415 0.1847 0.0
H185 H 0.42786 0.05218 0.18878 0.0
C186 C 0.50176 0.95725 0.1856 0.0
N187 N 0.48012 0.95689 0.19804 0.0
N188 N 0.47686 0.97769 0.20997 0.0
C189 C 0.49715 0.99158 0.20623 0.0
C190 C 0.5134 0.97923 0.19046 0.0
C191 C 0.51019 0.93744 0.16831 0.0
H192 H 0.49433 0.931 0.15753 0.0
H193 H 0.52468 0.94407 0.1553 0.0
H194 H 0.51755 0.92154 0.17917 0.0
O195 O 0.45316 0.92432 0.23782 0.0
O196 O 0.44468 0.95978 0.25682 0.0
H197 H 0.52239 0.01855 0.21993 0.0
H198 H 0.49315 0.03059 0.20975 0.0
C199 C 0.50231 0.01494 0.21945 0.0
H200 H 0.49529 0.01363 0.23866 0.0
H201 H 0.45756 0.01353 0.27421 0.0
O202 O 0.46813 0.90219 0.18443 0.0
C203 C 0.44852 0.9365 0.25736 0.0
Co204 Co 0.80449 0.64393 0.88218 0.0
Co205 Co 0.76973 0.62769 0.92597 0.0
C206 C 0.79405 0.5912 0.89139 0.0
O207 O 0.80404 0.60855 0.87914 0.0
O208 O 0.78074 0.59532 0.91053 0.0
C209 C 0.83619 0.64592 0.8388 0.0
O210 O 0.83794 0.62182 0.8413 0.0
C211 C 0.71936 0.6173 0.9412 0.0
C212 C 0.71908 0.62894 0.97998 0.0
C213 C 0.70342 0.62289 0.96092 0.0
N214 N 0.74269 0.62134 0.94808 0.0
N215 N 0.74249 0.62742 0.97156 0.0
C216 C 0.71312 0.60886 0.91588 0.0
H217 H 0.72881 0.59808 0.90795 0.0
H218 H 0.70988 0.625 0.90353 0.0
H219 H 0.69638 0.59729 0.91651 0.0
C220 C 0.76231 0.67476 0.86908 0.0
N221 N 0.77235 0.6564 0.88263 0.0
N222 N 0.75853 0.65211 0.90231 0.0
C223 C 0.73986 0.66893 0.90258 0.0
C224 C 0.74141 0.6834 0.8813 0.0
C225 C 0.77364 0.68489 0.84579 0.0
H226 H 0.78102 0.66955 0.8344 0.0
H227 H 0.75995 0.6957 0.83492 0.0
H228 H 0.78918 0.69701 0.85047 0.0
O229 O 0.82085 0.65425 0.9126 0.0
O230 O 0.7973 0.64261 0.94448 0.0
H231 H 0.72071 0.69512 0.92587 0.0
H232 H 0.70628 0.66583 0.92349 0.0
C233 C 0.72435 0.67496 0.92484 0.0
H234 H 0.73369 0.66885 0.94193 0.0
H235 H 0.75807 0.63266 0.98117 0.0
O236 O 0.8232 0.65824 0.8541 0.0
C237 C 0.81651 0.65316 0.93575 0.0
Co238 Co 0.03207 0.06249 0.69113 0.0
Co239 Co 0.04019 0.01579 0.72464 0.0
C240 C 0.0768 0.03136 0.68489 0.0
O241 O 0.06312 0.04928 0.67809 0.0
O242 O 0.07095 0.0176 0.70322 0.0
C243 C 0.03809 0.10466 0.6599 0.0
O244 O 0.06151 0.10117 0.66504 0.0
C245 C 0.03966 0.96294 0.72445 0.0
C246 C 0.03032 0.95263 0.7629 0.0
C247 C 0.03295 0.94306 0.73934 0.0
N248 N 0.04048 0.98321 0.73839 0.0
N249 N 0.03567 0.97684 0.76154 0.0
C250 C 0.04083 0.96365 0.6968 0.0
H251 H 0.04145 0.98287 0.68964 0.0
H252 H 0.02465 0.95429 0.68903 0.0
H253 H 0.05771 0.95367 0.69044 0.0
C254 C 0.98697 0.0367 0.67814 0.0
N255 N 0.00829 0.03802 0.6904 0.0
N256 N 0.01025 0.01929 0.70593 0.0
C257 C 0.98937 0.00599 0.70485 0.0
C258 C 0.97413 0.01639 0.68698 0.0
C259 C 0.97979 0.0541 0.6577 0.0
H260 H 0.97163 0.07112 0.66574 0.0
H261 H 0.99636 0.05927 0.64667 0.0
H262 H 0.96619 0.04573 0.64533 0.0
O263 O 0.0344 0.0742 0.7254 0.0
O264 O 0.04007 0.04183 0.75054 0.0
H265 H 0.99148 0.98839 0.74057 0.0
H266 H 0.96222 0.9853 0.72556 0.0
C267 C 0.98252 0.98573 0.72259 0.0
H268 H 0.98838 0.9677 0.71493 0.0
H269 H 0.03394 0.98932 0.77598 0.0
O270 O 0.0221 0.09058 0.66977 0.0
C271 C 0.03704 0.06503 0.74702 0.0
Co272 Co 0.60762 0.19702 0.14893 0.0
Co273 Co 0.56737 0.23526 0.13121 0.0
C274 C 0.59996 0.20791 0.0955 0.0
O275 O 0.61022 0.19654 0.11326 0.0
O276 O 0.5827 0.22374 0.09903 0.0
C277 C 0.65286 0.16854 0.14971 0.0
O278 O 0.65303 0.17235 0.12573 0.0
C279 C 0.55426 0.28638 0.11972 0.0
C280 C 0.5152 0.28788 0.13152 0.0
C281 C 0.53484 0.30288 0.12472 0.0
N282 N 0.54661 0.26331 0.12467 0.0
N283 N 0.523 0.26426 0.13089 0.0
C284 C 0.57985 0.29188 0.11066 0.0
H285 H 0.58724 0.27614 0.09981 0.0
H286 H 0.59226 0.29429 0.12649 0.0
H287 H 0.57992 0.30889 0.09903 0.0
C288 C 0.62359 0.2383 0.1779 0.0
N289 N 0.6096 0.22931 0.15996 0.0
N290 N 0.59119 0.24467 0.15534 0.0
C291 C 0.59213 0.26338 0.17157 0.0
C292 C 0.61292 0.26011 0.186 0.0
C293 C 0.64588 0.22534 0.18807 0.0
H294 H 0.65721 0.21765 0.17274 0.0
H295 H 0.65736 0.23805 0.19876 0.0
H296 H 0.63992 0.20986 0.20027 0.0
O297 O 0.57603 0.18314 0.16098 0.0
O298 O 0.5469 0.2085 0.14615 0.0
H299 H 0.57011 0.28477 0.19718 0.0
H300 H 0.57418 0.29853 0.1673 0.0
C301 C 0.57115 0.28079 0.17716 0.0
H302 H 0.5534 0.27288 0.17156 0.0
H303 H 0.51278 0.249 0.13667 0.0
O304 O 0.63501 0.17689 0.16272 0.0
C305 C 0.55341 0.18925 0.15833 0.0
Co306 Co 0.56142 0.79266 0.97018 0.0
Co307 Co 0.51394 0.76251 0.95987 0.0
C308 C 0.53159 0.80297 0.92553 0.0
O309 O 0.54949 0.80766 0.93947 0.0
O310 O 0.51688 0.78544 0.93051 0.0
C311 C 0.60419 0.82169 0.96466 0.0
O312 O 0.60146 0.81599 0.94139 0.0
C313 C 0.46101 0.76442 0.95883 0.0
C314 C 0.45002 0.72595 0.96602 0.0
C315 C 0.44065 0.74985 0.9638 0.0
N316 N 0.48132 0.74994 0.95847 0.0
N317 N 0.47461 0.72681 0.96204 0.0
C318 C 0.46177 0.79206 0.95865 0.0
H319 H 0.48094 0.79865 0.96022 0.0
H320 H 0.45039 0.79963 0.97402 0.0
H321 H 0.45404 0.79921 0.94107 0.0
C322 C 0.5341 0.80508 0.01557 0.0
N323 N 0.53602 0.79361 0.99379 0.0
N324 N 0.51679 0.7795 0.99076 0.0
C325 C 0.50246 0.78072 0.01135 0.0
C326 C 0.51279 0.79719 0.02759 0.0
C327 C 0.55176 0.8242 0.02383 0.0
H328 H 0.5682 0.81488 0.03186 0.0
H329 H 0.55793 0.83557 0.0078 0.0
H330 H 0.5432 0.83652 0.03779 0.0
O331 O 0.57266 0.75789 0.96668 0.0
O332 O 0.53956 0.73562 0.95832 0.0
H333 H 0.48333 0.74654 0.00744 0.0
H334 H 0.47881 0.76105 0.03694 0.0
C335 C 0.48089 0.76446 0.01678 0.0
H336 H 0.46374 0.77364 0.01027 0.0
H337 H 0.48695 0.71194 0.96367 0.0
O338 O 0.58947 0.81274 0.98079 0.0
C339 C 0.56266 0.73729 0.96219 0.0
Co340 Co 0.88359 0.79901 0.64665 0.0
Co341 Co 0.92919 0.76751 0.62881 0.0
C342 C 0.89196 0.78955 0.59361 0.0
O343 O 0.87959 0.79854 0.61138 0.0
O344 O 0.91203 0.77754 0.5971 0.0
C345 C 0.83684 0.82506 0.64925 0.0
O346 O 0.8378 0.82457 0.62504 0.0
C347 C 0.94804 0.71782 0.62019 0.0
C348 C 0.98796 0.72265 0.62488 0.0
C349 C 0.97003 0.70458 0.62361 0.0
N350 N 0.95279 0.7421 0.62105 0.0
N351 N 0.97684 0.74488 0.62278 0.0
C352 C 0.92244 0.70795 0.61845 0.0
H353 H 0.90867 0.72321 0.61696 0.0
H354 H 0.91791 0.69607 0.63464 0.0
H355 H 0.92124 0.69652 0.6017 0.0
C356 C 0.87512 0.75647 0.67839 0.0
N357 N 0.88687 0.76696 0.65907 0.0
N358 N 0.90769 0.755 0.65456 0.0
C359 C 0.91063 0.7374 0.67227 0.0
C360 C 0.88982 0.73745 0.68751 0.0
C361 C 0.85126 0.76595 0.68907 0.0
H362 H 0.85489 0.7822 0.70063 0.0
H363 H 0.83876 0.77183 0.674 0.0
H364 H 0.84206 0.75161 0.7006 0.0
O365 O 0.91322 0.81762 0.65604 0.0
O366 O 0.94618 0.79637 0.6429 0.0
H367 H 0.93758 0.72522 0.69875 0.0
H368 H 0.93483 0.70573 0.67272 0.0
C369 C 0.93482 0.72526 0.67849 0.0
H370 H 0.95038 0.73505 0.66945 0.0
H371 H 0.98537 0.76185 0.6249 0.0
O372 O 0.8544 0.81555 0.66162 0.0
C373 C 0.93657 0.8149 0.65392 0.0
Co374 Co 0.93938 0.19225 0.4483 0.0
Co375 Co 0.98601 0.22418 0.43729 0.0
C376 C 0.97001 0.18333 0.40375 0.0
O377 O 0.95221 0.17761 0.41804 0.0
O378 O 0.98385 0.2015 0.40819 0.0
C379 C 0.89673 0.1624 0.44501 0.0
O380 O 0.90002 0.16637 0.42124 0.0
C381 C 0.039 0.22331 0.43731 0.0
C382 C 0.04874 0.26215 0.44293 0.0
C383 C 0.05873 0.23841 0.44235 0.0
N384 N 0.01846 0.23733 0.43553 0.0
N385 N 0.02448 0.26067 0.43809 0.0
C386 C 0.03878 0.19566 0.43843 0.0
H387 H 0.01967 0.18867 0.43847 0.0
H388 H 0.04834 0.18871 0.45517 0.0
H389 H 0.0488 0.18829 0.42208 0.0
C390 C 0.96558 0.18087 0.49402 0.0
N391 N 0.96418 0.19199 0.47178 0.0
N392 N 0.98292 0.20688 0.4685 0.0
C393 C 0.99633 0.20654 0.48936 0.0
C394 C 0.98595 0.18983 0.50605 0.0
C395 C 0.94813 0.16141 0.50295 0.0
H396 H 0.9428 0.14967 0.48736 0.0
H397 H 0.95653 0.14954 0.51749 0.0
H398 H 0.93119 0.17041 0.51052 0.0
O399 O 0.92762 0.22668 0.44371 0.0
O400 O 0.95993 0.25066 0.436 0.0
H401 H 0.014 0.24157 0.48429 0.0
H402 H 0.01714 0.22808 0.51471 0.0
C403 C 0.01665 0.22405 0.4947 0.0
H404 H 0.03465 0.21558 0.48944 0.0
H405 H 0.01176 0.2753 0.43862 0.0
O406 O 0.91124 0.17223 0.46012 0.0
C407 C 0.93677 0.24791 0.43952 0.0
Co408 Co 0.11138 0.29275 0.84565 0.0
Co409 Co 0.06521 0.26258 0.86259 0.0
C410 C 0.10066 0.2844 0.89866 0.0
O411 O 0.11381 0.29279 0.88109 0.0
O412 O 0.08086 0.27272 0.89471 0.0
C413 C 0.1594 0.31477 0.8441 0.0
O414 O 0.15932 0.31039 0.86799 0.0
C415 C 0.04635 0.2132 0.87129 0.0
C416 C 0.00653 0.21911 0.86579 0.0
C417 C 0.02448 0.20056 0.86747 0.0
N418 N 0.04153 0.23762 0.87022 0.0
N419 N 0.01753 0.24103 0.86802 0.0
C420 C 0.07193 0.20267 0.87369 0.0
H421 H 0.08554 0.21755 0.87585 0.0
H422 H 0.07702 0.19141 0.85744 0.0
H423 H 0.07268 0.19051 0.89029 0.0
C424 C 0.12088 0.25035 0.81503 0.0
N425 N 0.10881 0.26069 0.83414 0.0
N426 N 0.08772 0.24951 0.83803 0.0
C427 C 0.08496 0.23265 0.82011 0.0
C428 C 0.10612 0.23233 0.80534 0.0
C429 C 0.14493 0.25943 0.80477 0.0
H430 H 0.14155 0.2762 0.79327 0.0
H431 H 0.15722 0.26439 0.82007 0.0
H432 H 0.15422 0.24519 0.79327 0.0
O433 O 0.0821 0.31182 0.83422 0.0
O434 O 0.0486 0.29159 0.84671 0.0
H435 H 0.05846 0.22264 0.79285 0.0
H436 H 0.06014 0.20221 0.81889 0.0
C437 C 0.0607 0.22191 0.81318 0.0
H438 H 0.04513 0.23215 0.82188 0.0
H439 H 0.00899 0.25825 0.86564 0.0
O440 O 0.14091 0.30878 0.83144 0.0
C441 C 0.05869 0.30971 0.83536 0.0
Co442 Co 0.43538 0.29508 0.53546 0.0
Co443 Co 0.48603 0.26683 0.54093 0.0
C444 C 0.4679 0.30605 0.5767 0.0
O445 O 0.449 0.31121 0.56399 0.0
O446 O 0.48263 0.28851 0.57083 0.0
C447 C 0.39112 0.32315 0.54296 0.0
O448 O 0.39655 0.31982 0.56632 0.0
C449 C 0.5389 0.27222 0.54036 0.0
C450 C 0.55259 0.23733 0.52447 0.0
C451 C 0.55984 0.26104 0.53015 0.0
N452 N 0.52002 0.25645 0.53936 0.0
N453 N 0.52852 0.23525 0.53072 0.0
C454 C 0.53645 0.29762 0.55075 0.0
H455 H 0.52701 0.29662 0.56896 0.0
H456 H 0.52507 0.30941 0.53832 0.0
H457 H 0.55467 0.30609 0.55364 0.0
C458 C 0.45761 0.30975 0.48768 0.0
N459 N 0.45828 0.29731 0.50933 0.0
N460 N 0.47907 0.28462 0.51083 0.0
C461 C 0.49181 0.28773 0.48944 0.0
C462 C 0.47887 0.30404 0.47425 0.0
C463 C 0.43776 0.32803 0.48099 0.0
H464 H 0.42132 0.31797 0.47479 0.0
H465 H 0.43234 0.33891 0.49742 0.0
H466 H 0.4439 0.34087 0.46611 0.0
O467 O 0.42758 0.25997 0.54294 0.0
O468 O 0.46302 0.23851 0.54388 0.0
H469 H 0.51338 0.25435 0.48959 0.0
H470 H 0.51711 0.27283 0.4621 0.0
C471 C 0.51462 0.2735 0.48243 0.0
H472 H 0.53091 0.2825 0.49027 0.0
H473 H 0.51747 0.22016 0.52704 0.0
O474 O 0.40476 0.31318 0.52653 0.0
C475 C 0.43949 0.23959 0.54509 0.0
Co476 Co 0.37775 0.69904 0.35038 0.0
Co477 Co 0.41784 0.73508 0.36941 0.0
C478 C 0.38494 0.70664 0.40407 0.0
O479 O 0.37485 0.69653 0.38594 0.0
O480 O 0.40219 0.72221 0.40111 0.0
C481 C 0.33186 0.67329 0.34803 0.0
O482 O 0.32983 0.67872 0.37152 0.0
C483 C 0.43026 0.78559 0.38106 0.0
C484 C 0.46969 0.78639 0.37071 0.0
C485 C 0.4497 0.80177 0.37637 0.0
N486 N 0.43826 0.76239 0.37688 0.0
N487 N 0.46208 0.7629 0.3716 0.0
C488 C 0.40429 0.79146 0.38899 0.0
H489 H 0.39642 0.77553 0.39935 0.0
H490 H 0.39261 0.79482 0.37264 0.0
H491 H 0.4037 0.80804 0.40078 0.0
C492 C 0.36245 0.74196 0.32181 0.0
N493 N 0.37576 0.73194 0.34019 0.0
N494 N 0.39435 0.7463 0.34518 0.0
C495 C 0.39429 0.76531 0.32872 0.0
C496 C 0.37381 0.76338 0.31381 0.0
C497 C 0.34066 0.72992 0.31063 0.0
H498 H 0.34712 0.71448 0.29885 0.0
H499 H 0.32856 0.72231 0.32545 0.0
H500 H 0.32982 0.74323 0.29926 0.0
O501 O 0.40952 0.68518 0.33815 0.0
O502 O 0.43864 0.70874 0.35389 0.0
H503 H 0.4333 0.77243 0.3296 0.0
H504 H 0.41781 0.78512 0.30306 0.0
C505 C 0.41601 0.78136 0.32318 0.0
H506 H 0.41328 0.79935 0.33232 0.0
H507 H 0.4726 0.7475 0.36646 0.0
O508 O 0.35087 0.68 0.33582 0.0
C509 C 0.43213 0.69046 0.34104 0.0
Co510 Co 0.06313 0.69996 0.03306 0.0
Co511 Co 0.01313 0.72852 0.04209 0.0
C512 C 0.03163 0.68955 0.07744 0.0
O513 O 0.05042 0.68532 0.06386 0.0
O514 O 0.01601 0.70639 0.07196 0.0
C515 C 0.10531 0.66816 0.03884 0.0
O516 O 0.10084 0.67158 0.06244 0.0
C517 C 0.96014 0.726 0.04285 0.0
C518 C 0.94823 0.76404 0.03366 0.0
C519 C 0.93954 0.74016 0.03667 0.0
N520 N 0.97993 0.74065 0.04289 0.0
N521 N 0.97261 0.76355 0.03822 0.0
C522 C 0.96186 0.6984 0.04471 0.0
H523 H 0.98127 0.69189 0.04289 0.0
H524 H 0.95068 0.68967 0.03033 0.0
H525 H 0.95451 0.69236 0.06299 0.0
C526 C 0.03931 0.68678 0.98716 0.0
N527 N 0.03897 0.69823 0.00897 0.0
N528 N 0.01827 0.71098 0.01156 0.0
C529 C 0.00505 0.70855 0.99072 0.0
C530 C 0.01781 0.6928 0.97488 0.0
C531 C 0.06054 0.67141 0.97784 0.0
H532 H 0.07755 0.68256 0.9778 0.0
H533 H 0.06342 0.65536 0.99045 0.0
H534 H 0.05754 0.66482 0.95885 0.0
O535 O 0.07239 0.73495 0.03586 0.0
O536 O 0.0374 0.75605 0.04312 0.0
H537 H 0.98025 0.73959 0.99428 0.0
H538 H 0.97789 0.72363 0.9656 0.0
C539 C 0.98089 0.72121 0.98565 0.0
H540 H 0.96564 0.70982 0.99309 0.0
H541 H 0.98452 0.77843 0.03611 0.0
O542 O 0.09218 0.67959 0.02303 0.0
C543 C 0.06076 0.7552 0.03962 0.0
Co544 Co 0.14626 0.61128 0.19621 0.0
Co545 Co 0.13054 0.56836 0.23228 0.0
C546 C 0.09351 0.60225 0.20776 0.0
O547 O 0.11074 0.61399 0.19707 0.0
O548 O 0.09786 0.58362 0.22175 0.0
C549 C 0.1468 0.65791 0.16992 0.0
O550 O 0.12299 0.65854 0.17475 0.0
C551 C 0.1199 0.55385 0.28302 0.0
C552 C 0.1326 0.51507 0.28372 0.0
C553 C 0.12567 0.53434 0.29915 0.0
N554 N 0.1246 0.54666 0.25975 0.0
N555 N 0.13135 0.52318 0.26022 0.0
C556 C 0.11061 0.57924 0.28902 0.0
H557 H 0.09969 0.58686 0.27344 0.0
H558 H 0.12635 0.59172 0.2917 0.0
H559 H 0.09896 0.57886 0.30602 0.0
C560 C 0.17636 0.62513 0.2376 0.0
N561 N 0.15844 0.61141 0.22815 0.0
N562 N 0.15441 0.59208 0.24248 0.0
C563 C 0.171 0.59219 0.26091 0.0
C564 C 0.18503 0.61336 0.25863 0.0
C565 C 0.1859 0.64829 0.22577 0.0
H566 H 0.19794 0.64345 0.20979 0.0
H567 H 0.17024 0.65973 0.21896 0.0
H568 H 0.1966 0.65922 0.23897 0.0
O569 O 0.15747 0.58053 0.18007 0.0
O570 O 0.14572 0.54937 0.20449 0.0
H571 H 0.1718 0.55301 0.2681 0.0
H572 H 0.19733 0.56939 0.28058 0.0
C573 C 0.17723 0.57034 0.27697 0.0
H574 H 0.1676 0.57216 0.29501 0.0
H575 H 0.13715 0.51335 0.24473 0.0
O576 O 0.15968 0.63942 0.17702 0.0
C577 C 0.15635 0.55748 0.1849 0.0
Co578 Co 0.64402 0.87964 0.80134 0.0
Co579 Co 0.62748 0.92335 0.76673 0.0
C580 C 0.59109 0.88986 0.79258 0.0
O581 O 0.60856 0.87756 0.80226 0.0
O582 O 0.5951 0.9086 0.77867 0.0
C583 C 0.64587 0.83291 0.82752 0.0
O584 O 0.62195 0.83239 0.82404 0.0
C585 C 0.61685 0.93872 0.71652 0.0
C586 C 0.62847 0.9775 0.71636 0.0
C587 C 0.62242 0.95849 0.70063 0.0
N588 N 0.62093 0.94554 0.73986 0.0
N589 N 0.62698 0.96902 0.73974 0.0
C590 C 0.60839 0.9134 0.71028 0.0
H591 H 0.62451 0.90117 0.7065 0.0
H592 H 0.59639 0.91414 0.69386 0.0
H593 H 0.59806 0.90526 0.72616 0.0
C594 C 0.67376 0.86591 0.75872 0.0
N595 N 0.65554 0.87959 0.76884 0.0
N596 N 0.65142 0.89937 0.75513 0.0
C597 C 0.66829 0.8996 0.73649 0.0
C598 C 0.68263 0.8782 0.73795 0.0
C599 C 0.68367 0.84245 0.76991 0.0
H600 H 0.66819 0.83109 0.77701 0.0
H601 H 0.69452 0.83164 0.7562 0.0
H602 H 0.69568 0.84689 0.7856 0.0
O603 O 0.65546 0.90994 0.81726 0.0
O604 O 0.64315 0.94172 0.79389 0.0
H605 H 0.69472 0.92288 0.71766 0.0
H606 H 0.66549 0.92076 0.70304 0.0
C607 C 0.67453 0.92193 0.72117 0.0
H608 H 0.66844 0.93899 0.73059 0.0
H609 H 0.63226 0.97858 0.75534 0.0
O610 O 0.65816 0.85127 0.81966 0.0
C611 C 0.65425 0.93308 0.8128 0.0
Co612 Co 0.79355 0.96505 0.55907 0.0
Co613 Co 0.7629 0.95411 0.51208 0.0
C614 C 0.8031 0.91966 0.5302 0.0
O615 O 0.80808 0.93388 0.5478 0.0
O616 O 0.78556 0.92456 0.51548 0.0
C617 C 0.82396 0.96109 0.6013 0.0
O618 O 0.81953 0.93747 0.59899 0.0
C619 C 0.76396 0.9525 0.45918 0.0
C620 C 0.72535 0.96014 0.44892 0.0
C621 C 0.74908 0.95778 0.43911 0.0
N622 N 0.74983 0.95224 0.47973 0.0
N623 N 0.72662 0.95601 0.47346 0.0
C624 C 0.79163 0.95198 0.45947 0.0
H625 H 0.79856 0.95309 0.47854 0.0
H626 H 0.79921 0.96747 0.44826 0.0
H627 H 0.79843 0.93449 0.45125 0.0
C628 C 0.80691 0.00927 0.53045 0.0
N629 N 0.79473 0.98795 0.53308 0.0
N630 N 0.78035 0.98484 0.51407 0.0
C631 C 0.78204 0.00503 0.49922 0.0
C632 C 0.79917 0.02098 0.50893 0.0
C633 C 0.82668 0.01723 0.54752 0.0
H634 H 0.81799 0.02601 0.56391 0.0
H635 H 0.83758 0.00095 0.55387 0.0
H636 H 0.83938 0.0305 0.5384 0.0
O637 O 0.75881 0.96225 0.57063 0.0
O638 O 0.73624 0.95341 0.5379 0.0
H639 H 0.76258 0.0307 0.47555 0.0
H640 H 0.77467 0.00382 0.46056 0.0
C641 C 0.7657 0.01051 0.47773 0.0
H642 H 0.74765 0.00144 0.48035 0.0
H643 H 0.71198 0.95783 0.48606 0.0
O644 O 0.81382 0.9765 0.58662 0.0
C645 C 0.73809 0.95778 0.56087 0.0
Co646 Co 0.84737 0.10895 0.29682 0.0
Co647 Co 0.86099 0.06559 0.26122 0.0
C648 C 0.89946 0.09804 0.28299 0.0
O649 O 0.88291 0.11051 0.29414 0.0
O650 O 0.89422 0.07952 0.2699 0.0
C651 C 0.8486 0.15361 0.32541 0.0
O652 O 0.87265 0.15208 0.32239 0.0
C653 C 0.8698 0.05091 0.21059 0.0
C654 C 0.85678 0.01257 0.21121 0.0
C655 C 0.86344 0.03164 0.19514 0.0
N656 N 0.86569 0.0438 0.23414 0.0
N657 N 0.85875 0.02057 0.23446 0.0
C658 C 0.87908 0.076 0.20371 0.0
H659 H 0.89055 0.08315 0.21875 0.0
H660 H 0.86334 0.08903 0.20127 0.0
H661 H 0.89018 0.0753 0.18637 0.0
C662 C 0.81517 0.12384 0.25669 0.0
N663 N 0.83368 0.10969 0.26548 0.0
N664 N 0.83703 0.09032 0.25141 0.0
C665 C 0.81953 0.09092 0.23385 0.0
C666 C 0.80548 0.11238 0.23639 0.0
C667 C 0.80592 0.14696 0.2687 0.0
H668 H 0.7946 0.14202 0.28521 0.0
H669 H 0.82176 0.15798 0.27478 0.0
H670 H 0.79455 0.15829 0.25587 0.0
O671 O 0.83635 0.07856 0.31397 0.0
O672 O 0.84644 0.04704 0.2898 0.0
H673 H 0.79242 0.06891 0.21575 0.0
H674 H 0.8217 0.07072 0.20026 0.0
C675 C 0.81264 0.06926 0.21865 0.0
H676 H 0.8183 0.05177 0.22785 0.0
H677 H 0.85334 0.01089 0.25036 0.0
O678 O 0.835 0.13725 0.31625 0.0
C679 C 0.83667 0.05552 0.30955 0.0
Co680 Co 0.69449 0.03208 0.05817 0.0
Co681 Co 0.72459 0.04205 0.00946 0.0
C682 C 0.6854 0.07745 0.02805 0.0
O683 O 0.68047 0.06344 0.04634 0.0
O684 O 0.70252 0.07207 0.01266 0.0
C685 C 0.66386 0.03704 0.10088 0.0
O686 O 0.66825 0.06059 0.09725 0.0
C687 C 0.72294 0.04209 0.95655 0.0
C688 C 0.76151 0.0345 0.94524 0.0
C689 C 0.73766 0.03631 0.93624 0.0
N690 N 0.73728 0.04315 0.97651 0.0
N691 N 0.76046 0.0394 0.96955 0.0
C692 C 0.69529 0.04234 0.95789 0.0
H693 H 0.68857 0.0424 0.97729 0.0
H694 H 0.68783 0.02609 0.94841 0.0
H695 H 0.68818 0.05918 0.94838 0.0
C696 C 0.68126 0.98706 0.03256 0.0
N697 N 0.69274 0.00884 0.03323 0.0
N698 N 0.70697 0.01152 0.01357 0.0
C699 C 0.70586 0.99065 0.00023 0.0
C700 C 0.68933 0.97462 0.0117 0.0
C701 C 0.66228 0.97897 0.05119 0.0
H702 H 0.67171 0.97151 0.06779 0.0
H703 H 0.65065 0.99497 0.0568 0.0
H704 H 0.65018 0.9646 0.04373 0.0
O705 O 0.72942 0.03441 0.06819 0.0
O706 O 0.75158 0.04271 0.03414 0.0
H707 H 0.74036 0.99419 0.98051 0.0
H708 H 0.72623 0.96442 0.97808 0.0
C709 C 0.72258 0.98459 0.97888 0.0
H710 H 0.71363 0.99033 0.96143 0.0
H711 H 0.77523 0.03812 0.98168 0.0
O712 O 0.67423 0.02129 0.08686 0.0
C713 C 0.75002 0.03855 0.05734 0.0
Co714 Co 0.35115 0.3799 0.69541 0.0
Co715 Co 0.36544 0.42186 0.7315 0.0
C716 C 0.40348 0.38993 0.7054 0.0
O717 O 0.38671 0.37797 0.69497 0.0
O718 O 0.39846 0.40787 0.71972 0.0
C719 C 0.35007 0.33428 0.66821 0.0
O720 O 0.37387 0.33269 0.6723 0.0
C721 C 0.37496 0.43434 0.78237 0.0
C722 C 0.36199 0.47301 0.78362 0.0
C723 C 0.36864 0.45315 0.79877 0.0
N724 N 0.37082 0.44246 0.75921 0.0
N725 N 0.36392 0.46587 0.76001 0.0
C726 C 0.3843 0.40879 0.78804 0.0
H727 H 0.36861 0.39607 0.79056 0.0
H728 H 0.39545 0.40859 0.80506 0.0
H729 H 0.3957 0.4019 0.77236 0.0
C730 C 0.3216 0.3634 0.73731 0.0
N731 N 0.33926 0.37793 0.72772 0.0
N732 N 0.34235 0.39702 0.74199 0.0
C733 C 0.32532 0.39598 0.76046 0.0
C734 C 0.31204 0.37441 0.75831 0.0
C735 C 0.31284 0.3404 0.72545 0.0
H736 H 0.30072 0.34545 0.70979 0.0
H737 H 0.32887 0.32968 0.71819 0.0
H738 H 0.30238 0.32869 0.73878 0.0
O739 O 0.33877 0.411 0.68037 0.0
O740 O 0.34939 0.44169 0.70471 0.0
H741 H 0.29763 0.41783 0.77944 0.0
H742 H 0.32668 0.41529 0.79451 0.0
C743 C 0.31791 0.41736 0.77627 0.0
H744 H 0.32344 0.435 0.76745 0.0
H745 H 0.35843 0.47628 0.74467 0.0
O746 O 0.33776 0.35273 0.6761 0.0
C747 C 0.33887 0.43389 0.68545 0.0
Co748 Co 0.29122 0.52849 0.4395 0.0
Co749 Co 0.26079 0.53937 0.48771 0.0
C750 C 0.3003 0.57352 0.46855 0.0
O751 O 0.30536 0.55933 0.45071 0.0
O752 O 0.28293 0.56872 0.48383 0.0
C753 C 0.32128 0.53335 0.39663 0.0
O754 O 0.31572 0.5568 0.39956 0.0
C755 C 0.26274 0.54006 0.54055 0.0
C756 C 0.22436 0.53332 0.55253 0.0
C757 C 0.24827 0.53491 0.56125 0.0
N758 N 0.24821 0.541 0.52067 0.0
N759 N 0.22513 0.53775 0.52799 0.0
C760 C 0.29039 0.53981 0.53895 0.0
H761 H 0.29694 0.53903 0.51953 0.0
H762 H 0.29814 0.52381 0.54938 0.0
H763 H 0.2974 0.55687 0.5473 0.0
C764 C 0.30455 0.48325 0.46673 0.0
N765 N 0.29272 0.50515 0.46507 0.0
N766 N 0.27846 0.50834 0.48462 0.0
C767 C 0.27995 0.48772 0.49891 0.0
C768 C 0.29675 0.47132 0.48819 0.0
C769 C 0.32382 0.47473 0.44857 0.0
H770 H 0.31464 0.46702 0.43227 0.0
H771 H 0.33512 0.49057 0.44229 0.0
H772 H 0.33619 0.46044 0.45673 0.0
O773 O 0.25638 0.532 0.42915 0.0
O774 O 0.2339 0.54083 0.46278 0.0
H775 H 0.24558 0.49204 0.51879 0.0
H776 H 0.26029 0.4622 0.52256 0.0
C777 C 0.26356 0.48232 0.52072 0.0
H778 H 0.27257 0.48835 0.53779 0.0
H779 H 0.21026 0.53652 0.51606 0.0
O780 O 0.31175 0.51744 0.41118 0.0
C781 C 0.23568 0.53672 0.43968 0.0
Co782 Co 0.19665 0.45704 0.93602 0.0
Co783 Co 0.22507 0.44562 0.98475 0.0
C784 C 0.18598 0.41189 0.96581 0.0
O785 O 0.18185 0.42619 0.94756 0.0
O786 O 0.20268 0.4165 0.98131 0.0
C787 C 0.17074 0.45248 0.89141 0.0
O788 O 0.17701 0.42916 0.89455 0.0
C789 C 0.22218 0.44552 0.03781 0.0
C790 C 0.26067 0.45135 0.04877 0.0
C791 C 0.23663 0.45066 0.058 0.0
N792 N 0.23686 0.44385 0.01771 0.0
N793 N 0.25997 0.44652 0.02447 0.0
C794 C 0.19456 0.44633 0.03674 0.0
H795 H 0.1882 0.44661 0.01739 0.0
H796 H 0.18708 0.4628 0.04639 0.0
H797 H 0.18711 0.42972 0.04623 0.0
C798 C 0.18268 0.50235 0.96217 0.0
N799 N 0.19423 0.48028 0.96111 0.0
N800 N 0.20783 0.47686 0.98079 0.0
C801 C 0.20629 0.4975 0.9945 0.0
C802 C 0.19001 0.51415 0.98337 0.0
C803 C 0.16434 0.51132 0.94358 0.0
H804 H 0.15342 0.49563 0.93698 0.0
H805 H 0.15156 0.52537 0.95149 0.0
H806 H 0.17434 0.51953 0.92753 0.0
O807 O 0.23188 0.4535 0.92622 0.0
O808 O 0.25294 0.44414 0.96022 0.0
H809 H 0.22631 0.52287 0.01676 0.0
H810 H 0.21314 0.49734 0.03332 0.0
C811 C 0.22253 0.50283 0.01586 0.0
H812 H 0.24029 0.49263 0.01411 0.0
H813 H 0.27498 0.44713 0.01222 0.0
O814 O 0.17788 0.46822 0.90684 0.0
C815 C 0.25212 0.44854 0.93705 0.0
H816 H 0.36936 0.29034 0.65153 0.0
H817 H 0.23645 0.23658 0.62154 0.0
H818 H 0.30093 0.33158 0.65857 0.0
H819 H 0.30393 0.19421 0.61373 0.0
H820 H 0.26037 0.2723 0.6332 0.0
H821 H 0.34642 0.25566 0.63529 0.0
C822 C 0.34957 0.29218 0.6495 0.0
C823 C 0.33703 0.31383 0.65658 0.0
C824 C 0.27003 0.25522 0.62896 0.0
C825 C 0.31072 0.27428 0.63817 0.0
C826 C 0.25634 0.2348 0.62252 0.0
C827 C 0.26829 0.21241 0.61721 0.0
C828 C 0.29587 0.25321 0.63008 0.0
C829 C 0.29412 0.21121 0.6179 0.0
C830 C 0.33649 0.27237 0.64027 0.0
C831 C 0.31138 0.31522 0.65349 0.0
N832 N 0.3071 0.23133 0.62441 0.0
N833 N 0.29909 0.29568 0.64465 0.0
H834 H 0.33456 0.48663 0.3825 0.0
H835 H 0.46244 0.52801 0.32409 0.0
H836 H 0.35331 0.56317 0.37124 0.0
H837 H 0.43185 0.45648 0.31074 0.0
H838 H 0.42302 0.5411 0.34256 0.0
H839 H 0.37045 0.4747 0.35728 0.0
C840 C 0.34606 0.50093 0.3745 0.0
C841 C 0.34102 0.52593 0.37909 0.0
C842 C 0.42487 0.52259 0.33543 0.0
C843 C 0.38224 0.51239 0.35059 0.0
C844 C 0.44732 0.51515 0.32485 0.0
C845 C 0.4504 0.49109 0.31609 0.0
C846 C 0.4055 0.50571 0.33755 0.0
C847 C 0.43034 0.47504 0.31776 0.0
C848 C 0.36651 0.49411 0.3601 0.0
C849 C 0.35651 0.54368 0.36822 0.0
N850 N 0.40879 0.48255 0.32853 0.0
N851 N 0.37661 0.53655 0.35474 0.0
H852 H 0.18307 0.80458 0.11626 0.0
H853 H 0.19578 0.66301 0.15889 0.0
H854 H 0.25228 0.76558 0.12513 0.0
H855 H 0.12579 0.70183 0.15486 0.0
H856 H 0.21627 0.69968 0.1429 0.0
H857 H 0.16115 0.76639 0.12687 0.0
C858 C 0.19357 0.78794 0.12049 0.0
C859 C 0.2194 0.78819 0.12045 0.0
C860 C 0.19641 0.70018 0.14538 0.0
C861 C 0.19475 0.7447 0.13231 0.0
C862 C 0.18468 0.67921 0.15448 0.0
C863 C 0.15904 0.67941 0.15839 0.0
C864 C 0.18247 0.72161 0.14018 0.0
C865 C 0.14562 0.70091 0.15225 0.0
C866 C 0.18113 0.76622 0.12652 0.0
C867 C 0.23231 0.76623 0.12568 0.0
N868 N 0.15752 0.72124 0.14358 0.0
N869 N 0.21985 0.74539 0.13151 0.0
H870 H 0.1432 0.4226 0.86257 0.0
H871 H 0.06742 0.53548 0.80289 0.0
H872 H 0.15815 0.49922 0.87616 0.0
H873 H 0.03929 0.46163 0.80902 0.0
H874 H 0.10631 0.52098 0.82077 0.0
H875 H 0.11057 0.43544 0.83419 0.0
C876 C 0.13988 0.44212 0.85932 0.0
C877 C 0.1532 0.45989 0.87197 0.0
C878 C 0.09174 0.50789 0.81796 0.0
C879 C 0.11604 0.47461 0.83952 0.0
C880 C 0.06959 0.51614 0.80781 0.0
C881 C 0.05006 0.49978 0.80505 0.0
C882 C 0.09439 0.48305 0.82521 0.0
C883 C 0.05392 0.47481 0.81104 0.0
C884 C 0.12121 0.4494 0.84319 0.0
C885 C 0.14815 0.48491 0.867 0.0
N886 N 0.0756 0.46721 0.82114 0.0
N887 N 0.12986 0.49152 0.85127 0.0
H888 H 0.81655 0.30039 0.37886 0.0
H889 H 0.79989 0.16092 0.33685 0.0
H890 H 0.74656 0.26409 0.37432 0.0
H891 H 0.87109 0.19505 0.34233 0.0
H892 H 0.78064 0.19759 0.35444 0.0
H893 H 0.8376 0.26103 0.36965 0.0
C894 C 0.8057 0.28405 0.37606 0.0
C895 C 0.77988 0.28544 0.37662 0.0
C896 C 0.8005 0.19706 0.35198 0.0
C897 C 0.80352 0.24068 0.36622 0.0
C898 C 0.81152 0.17609 0.3419 0.0
C899 C 0.83712 0.17501 0.33788 0.0
C900 C 0.81512 0.21726 0.35795 0.0
C901 C 0.85126 0.19517 0.34497 0.0
C902 C 0.81764 0.26167 0.37079 0.0
C903 C 0.76651 0.26386 0.37324 0.0
N904 N 0.84003 0.2156 0.35446 0.0
N905 N 0.77848 0.24242 0.36797 0.0
H906 H 0.63064 0.06616 0.12582 0.0
H907 H 0.55715 0.95355 0.18705 0.0
H908 H 0.65261 0.99002 0.11593 0.0
H909 H 0.52404 0.02478 0.17152 0.0
H910 H 0.59598 0.96793 0.16843 0.0
H911 H 0.5954 0.05251 0.15084 0.0
C912 C 0.62827 0.04659 0.12918 0.0
C913 C 0.64446 0.02918 0.11858 0.0
C914 C 0.58022 0.98042 0.16925 0.0
C915 C 0.6042 0.01351 0.14714 0.0
C916 C 0.55809 0.97221 0.17972 0.0
C917 C 0.53736 0.98796 0.18056 0.0
C918 C 0.58166 0.00464 0.1599 0.0
C919 C 0.53966 0.01212 0.17136 0.0
C920 C 0.60808 0.03883 0.14335 0.0
C921 C 0.64047 0.00406 0.12359 0.0
N922 N 0.56141 0.01974 0.16136 0.0
N923 N 0.62065 0.99695 0.13745 0.0
H924 H 0.62636 0.78917 0.84416 0.0
H925 H 0.75912 0.72918 0.87101 0.0
H926 H 0.69517 0.82791 0.83607 0.0
H927 H 0.69139 0.68905 0.87978 0.0
H928 H 0.73537 0.76626 0.86041 0.0
H929 H 0.64915 0.75303 0.85974 0.0
C930 C 0.64622 0.79014 0.84581 0.0
C931 C 0.6589 0.81153 0.83865 0.0
C932 C 0.72561 0.74939 0.86462 0.0
C933 C 0.68502 0.77032 0.85633 0.0
C934 C 0.73919 0.72821 0.87048 0.0
C935 C 0.72712 0.70604 0.87567 0.0
C936 C 0.69974 0.7484 0.86399 0.0
C937 C 0.70128 0.70585 0.8756 0.0
C938 C 0.6592 0.76951 0.85468 0.0
C939 C 0.68461 0.81179 0.84125 0.0
N940 N 0.68838 0.72673 0.86963 0.0
N941 N 0.69681 0.79147 0.84975 0.0
H942 H 0.83562 0.00846 0.613 0.0
H943 H 0.96138 0.96912 0.67683 0.0
H944 H 0.85582 0.93256 0.62855 0.0
H945 H 0.93198 0.04341 0.67857 0.0
H946 H 0.92235 0.95514 0.66018 0.0
H947 H 0.87022 0.02169 0.63777 0.0
C948 C 0.84717 0.99457 0.62185 0.0
C949 C 0.84294 0.96936 0.61854 0.0
C950 C 0.92433 0.97447 0.66441 0.0
C951 C 0.88273 0.98438 0.64667 0.0
C952 C 0.94656 0.98243 0.674 0.0
C953 C 0.94994 0.00749 0.67879 0.0
C954 C 0.90546 0.99177 0.65936 0.0
C955 C 0.93028 0.02401 0.67457 0.0
C956 C 0.86691 0.00214 0.63601 0.0
C957 C 0.85845 0.95219 0.63051 0.0
N958 N 0.90895 0.01591 0.66483 0.0
N959 N 0.87784 0.96002 0.6438 0.0
H960 H 0.61941 0.30968 0.18984 0.0
H961 H 0.66526 0.29829 0.32935 0.0
H962 H 0.62074 0.24189 0.2323 0.0
H963 H 0.66732 0.36616 0.28674 0.0
H964 H 0.64554 0.27826 0.29496 0.0
H965 H 0.63329 0.33183 0.22625 0.0
C966 C 0.62254 0.29956 0.2069 0.0
C967 C 0.61954 0.27397 0.20809 0.0
C968 C 0.6502 0.29756 0.29315 0.0
C969 C 0.63526 0.29888 0.24956 0.0
C970 C 0.66146 0.30902 0.3128 0.0
C971 C 0.6681 0.33389 0.31085 0.0
C972 C 0.64557 0.31104 0.27134 0.0
C973 C 0.66265 0.3469 0.28898 0.0
C974 C 0.63049 0.31212 0.22761 0.0
C975 C 0.62352 0.26158 0.23055 0.0
N976 N 0.6518 0.33527 0.27 0.0
N977 N 0.63134 0.27412 0.25037 0.0
H978 H 0.46528 0.81038 0.0391 0.0
H979 H 0.50023 0.87254 0.16499 0.0
H980 H 0.53756 0.80276 0.07078 0.0
H981 H 0.42488 0.86079 0.14367 0.0
H982 H 0.51428 0.846 0.13139 0.0
H983 H 0.4498 0.82763 0.07786 0.0
C984 C 0.4778 0.812 0.05437 0.0
C985 C 0.50278 0.80542 0.05169 0.0
C986 C 0.49466 0.84896 0.13427 0.0
C987 C 0.48538 0.8256 0.09588 0.0
C988 C 0.48662 0.86412 0.15345 0.0
C989 C 0.46134 0.86907 0.15701 0.0
C990 C 0.47733 0.83896 0.11833 0.0
C991 C 0.44455 0.85759 0.14154 0.0
C992 C 0.46899 0.82194 0.07645 0.0
C993 C 0.51828 0.80815 0.07194 0.0
N994 N 0.45285 0.84334 0.12266 0.0
N995 N 0.50941 0.81833 0.0931 0.0
H996 H 0.87974 0.75676 0.73265 0.0
H997 H 0.86059 0.62557 0.79907 0.0
H998 H 0.89292 0.68775 0.69586 0.0
H999 H 0.83896 0.69552 0.83049 0.0
H1000 H 0.87772 0.64761 0.76311 0.0
H1001 H 0.87024 0.7342 0.77076 0.0
C1002 C 0.88054 0.73678 0.73266 0.0
C1003 C 0.88641 0.72397 0.71108 0.0
C1004 C 0.86936 0.65808 0.77797 0.0
C1005 C 0.87587 0.69799 0.75459 0.0
C1006 C 0.85961 0.64554 0.7985 0.0
C1007 C 0.84814 0.65872 0.81771 0.0
C1008 C 0.86769 0.68395 0.77677 0.0
C1009 C 0.84744 0.68457 0.81605 0.0
C1010 C 0.87525 0.7239 0.75442 0.0
C1011 C 0.88812 0.69817 0.71218 0.0
N1012 N 0.85697 0.69629 0.7959 0.0
N1013 N 0.88258 0.68593 0.73358 0.0
H1014 H 0.03312 0.17869 0.51973 0.0
H1015 H 0.99137 0.1197 0.64791 0.0
H1016 H 0.95885 0.18505 0.54871 0.0
H1017 H 0.06786 0.13015 0.62758 0.0
H1018 H 0.97924 0.14528 0.61261 0.0
H1019 H 0.04669 0.16289 0.55988 0.0
C1020 C 0.01975 0.17709 0.53468 0.0
C1021 C 0.99478 0.18279 0.53088 0.0
C1022 C 0.99869 0.14225 0.61603 0.0
C1023 C 0.01 0.16437 0.57662 0.0
C1024 C 0.00563 0.12761 0.63618 0.0
C1025 C 0.03066 0.12258 0.64054 0.0
C1026 C 0.01689 0.15165 0.59993 0.0
C1027 C 0.04834 0.13344 0.62482 0.0
C1028 C 0.02746 0.16799 0.55755 0.0
C1029 C 0.97817 0.18025 0.55076 0.0
N1030 N 0.0411 0.1472 0.605 0.0
N1031 N 0.98601 0.17092 0.57271 0.0
H1032 H 0.15389 0.20144 0.65748 0.0
H1033 H 0.10207 0.18337 0.79519 0.0
H1034 H 0.13587 0.13014 0.68879 0.0
H1035 H 0.1169 0.25393 0.76093 0.0
H1036 H 0.11086 0.16337 0.75553 0.0
H1037 H 0.13706 0.22096 0.69433 0.0
C1038 C 0.14621 0.18987 0.67204 0.0
C1039 C 0.1465 0.1641 0.67014 0.0
C1040 C 0.11211 0.18323 0.75669 0.0
C1041 C 0.12734 0.18637 0.7126 0.0
C1042 C 0.10709 0.19458 0.77925 0.0
C1043 C 0.10949 0.22016 0.78133 0.0
C1044 C 0.11943 0.1977 0.7362 0.0
C1045 C 0.11568 0.23404 0.76022 0.0
C1046 C 0.13659 0.20105 0.69312 0.0
C1047 C 0.13614 0.15008 0.68955 0.0
N1048 N 0.12064 0.22261 0.73859 0.0
N1049 N 0.12719 0.16139 0.71011 0.0
H1050 H 0.45182 0.30982 0.4321 0.0
H1051 H 0.56496 0.36423 0.35331 0.0
H1052 H 0.52433 0.3211 0.46134 0.0
H1053 H 0.48892 0.37783 0.33388 0.0
H1054 H 0.551 0.3402 0.38915 0.0
H1055 H 0.46577 0.32773 0.39252 0.0
C1056 C 0.47065 0.31609 0.43017 0.0
C1057 C 0.48694 0.31411 0.44998 0.0
C1058 C 0.53739 0.34828 0.37691 0.0
C1059 C 0.50312 0.33393 0.40485 0.0
C1060 C 0.54533 0.36188 0.35635 0.0
C1061 C 0.52807 0.37328 0.34071 0.0
C1062 C 0.51202 0.34589 0.38176 0.0
C1063 C 0.50286 0.36952 0.34558 0.0
C1064 C 0.47862 0.32613 0.4076 0.0
C1065 C 0.51126 0.32204 0.44643 0.0
N1066 N 0.49557 0.35625 0.36579 0.0
N1067 N 0.51862 0.33159 0.42431 0.0
H1068 H 0.36817 0.81316 0.30773 0.0
H1069 H 0.33452 0.80148 0.16513 0.0
H1070 H 0.3692 0.74497 0.26776 0.0
H1071 H 0.32912 0.87011 0.20451 0.0
H1072 H 0.35121 0.7815 0.20184 0.0
H1073 H 0.35782 0.83549 0.26936 0.0
C1074 C 0.36623 0.80299 0.29081 0.0
C1075 C 0.36886 0.77726 0.29083 0.0
C1076 C 0.3465 0.80097 0.20247 0.0
C1077 C 0.35731 0.80235 0.24719 0.0
C1078 C 0.33697 0.81241 0.18147 0.0
C1079 C 0.33021 0.83746 0.18181 0.0
C1080 C 0.34923 0.81462 0.22406 0.0
C1081 C 0.33395 0.85071 0.20349 0.0
C1082 C 0.36034 0.81564 0.26901 0.0
C1083 C 0.36658 0.76478 0.26856 0.0
N1084 N 0.34307 0.83907 0.22385 0.0
N1085 N 0.36078 0.77743 0.24765 0.0
H1086 H 0.00021 0.58922 0.85998 0.0
H1087 H 0.00473 0.71589 0.93134 0.0
H1088 H 0.96035 0.65334 0.83278 0.0
H1089 H 0.01223 0.64437 0.96638 0.0
H1090 H 0.99297 0.69562 0.89289 0.0
H1091 H 0.01088 0.61179 0.89651 0.0
C1092 C 0.99378 0.60812 0.86156 0.0
C1093 C 0.97916 0.61931 0.8433 0.0
C1094 C 0.99699 0.68447 0.90911 0.0
C1095 C 0.99138 0.64533 0.88541 0.0
C1096 C 0.0035 0.69598 0.931 0.0
C1097 C 0.00922 0.68167 0.95195 0.0
C1098 C 0.99674 0.65859 0.90829 0.0
C1099 C 0.00801 0.65597 0.95053 0.0
C1100 C -0.0002 0.62097 0.88257 0.0
C1101 C 0.97153 0.64396 0.84649 0.0
N1102 N 0.00209 0.64524 0.92903 0.0
N1103 N 0.97774 0.65623 0.86723 0.0
H1104 H 0.32931 0.66154 0.2993 0.0
H1105 H 0.18954 0.61604 0.30853 0.0
H1106 H 0.28781 0.6578 0.36781 0.0
H1107 H 0.23088 0.62367 0.24043 0.0
H1108 H 0.22631 0.62784 0.33132 0.0
H1109 H 0.29436 0.64425 0.27806 0.0
C1110 C 0.31289 0.65693 0.30993 0.0
C1111 C 0.31142 0.66128 0.33535 0.0
C1112 C 0.22733 0.62693 0.31139 0.0
C1113 C 0.27122 0.64156 0.31108 0.0
C1114 C 0.20642 0.62018 0.29846 0.0
C1115 C 0.20719 0.61946 0.27265 0.0
C1116 C 0.2491 0.63279 0.29831 0.0
C1117 C 0.22942 0.6247 0.26032 0.0
C1118 C 0.29291 0.64708 0.29777 0.0
C1119 C 0.28969 0.65488 0.34816 0.0
N1120 N 0.24947 0.63127 0.27326 0.0
N1121 N 0.27036 0.64546 0.33585 0.0
H1122 H 0.68964 0.87734 0.68801 0.0
H1123 H 0.8296 0.8299 0.69889 0.0
H1124 H 0.72793 0.86754 0.75668 0.0
H1125 H 0.7942 0.84361 0.62905 0.0
H1126 H 0.79265 0.84504 0.72011 0.0
H1127 H 0.72798 0.86666 0.66561 0.0
C1128 C 0.70616 0.87292 0.69829 0.0
C1129 C 0.70563 0.87269 0.72413 0.0
C1130 C 0.79295 0.84487 0.70013 0.0
C1131 C 0.74928 0.86063 0.69893 0.0
C1132 C 0.81408 0.83621 0.68799 0.0
C1133 C 0.81496 0.83539 0.66215 0.0
C1134 C 0.77244 0.85268 0.68638 0.0
C1135 C 0.79429 0.84386 0.64901 0.0
C1136 C 0.72796 0.86684 0.68558 0.0
C1137 C 0.72744 0.86717 0.73674 0.0
N1138 N 0.77379 0.85204 0.66129 0.0
N1139 N 0.74834 0.86122 0.72402 0.0
H1140 H 0.81272 0.0303 0.46105 0.0
H1141 H 0.88164 0.15363 0.49267 0.0
H1142 H 0.80667 0.06464 0.5322 0.0
H1143 H 0.86924 0.13091 0.41788 0.0
H1144 H 0.85357 0.12164 0.50746 0.0
H1145 H 0.83229 0.06749 0.44446 0.0
C1146 C 0.81515 0.04585 0.47307 0.0
C1147 C 0.80838 0.04434 0.49809 0.0
C1148 C 0.85676 0.12383 0.48779 0.0
C1149 C 0.83121 0.08667 0.47943 0.0
C1150 C 0.87284 0.14205 0.47934 0.0
C1151 C 0.87795 0.1448 0.45401 0.0
C1152 C 0.84599 0.108 0.47084 0.0
C1153 C 0.86592 0.12937 0.43757 0.0
C1154 C 0.82643 0.06702 0.46364 0.0
C1155 C 0.81216 0.0649 0.51292 0.0
N1156 N 0.85073 0.11142 0.44629 0.0
N1157 N 0.82363 0.08511 0.50346 0.0
H1158 H 0.76063 0.12328 0.25715 0.0
H1159 H 0.69524 0.15046 0.12801 0.0
H1160 H 0.79771 0.11491 0.18685 0.0
H1161 H 0.65968 0.16043 0.19904 0.0
H1162 H 0.73202 0.13459 0.14884 0.0
H1163 H 0.72265 0.13454 0.23585 0.0
C1164 C 0.76077 0.12407 0.23718 0.0
C1165 C 0.78234 0.11875 0.22365 0.0
C1166 C 0.7161 0.14012 0.15984 0.0
C1167 C 0.73892 0.1311 0.1991 0.0
C1168 C 0.69508 0.14914 0.14797 0.0
C1169 C 0.67441 0.15694 0.16182 0.0
C1170 C 0.71643 0.13892 0.18572 0.0
C1171 C 0.67522 0.15474 0.18761 0.0
C1172 C 0.73906 0.13028 0.22501 0.0
C1173 C 0.78141 0.11915 0.19784 0.0
N1174 N 0.69594 0.14607 0.19871 0.0
N1175 N 0.76004 0.1254 0.18634 0.0
H1176 H 0.6177 0.83508 0.01103 0.0
H1177 H 0.67684 0.96067 0.96536 0.0
H1178 H 0.63049 0.85233 0.93396 0.0
H1179 H 0.68502 0.93243 0.03959 0.0
H1180 H 0.6607 0.92077 0.95315 0.0
H1181 H 0.6429 0.87023 0.02195 0.0
C1182 C 0.62604 0.84608 0.99641 0.0
C1183 C 0.62182 0.84088 0.97155 0.0
C1184 C 0.66626 0.92321 0.97206 0.0
C1185 C 0.6504 0.8813 0.98391 0.0
C1186 C 0.67554 0.94594 0.979 0.0
C1187 C 0.68188 0.9499 0.00358 0.0
C1188 C 0.66306 0.90446 0.98993 0.0
C1189 C 0.67971 0.93029 0.02057 0.0
C1190 C 0.64046 0.86613 0.00265 0.0
C1191 C 0.63317 0.85571 0.95337 0.0
N1192 N 0.67017 0.90849 0.01351 0.0
N1193 N 0.64667 0.87546 0.95991 0.0
H1194 H 0.16578 0.32524 0.79505 0.0
H1195 H 0.30502 0.3702 0.80809 0.0
H1196 H 0.20258 0.32915 0.86502 0.0
H1197 H 0.26729 0.36442 0.73899 0.0
H1198 H 0.26709 0.35763 0.82992 0.0
H1199 H 0.20234 0.34184 0.77466 0.0
C1200 C 0.18153 0.32968 0.80616 0.0
C1201 C 0.18116 0.3257 0.83177 0.0
C1202 C 0.26714 0.35909 0.80998 0.0
C1203 C 0.22321 0.34468 0.80848 0.0
C1204 C 0.2887 0.36626 0.7976 0.0
C1205 C 0.28927 0.36772 0.77179 0.0
C1206 C 0.24609 0.35358 0.79633 0.0
C1207 C 0.26773 0.36278 0.7589 0.0
C1208 C 0.20244 0.33917 0.79449 0.0
C1209 C 0.20211 0.33185 0.84521 0.0
N1210 N 0.24704 0.35581 0.7713 0.0
N1211 N 0.22236 0.34096 0.83338 0.0
H1212 H 0.31028 0.45944 0.53523 0.0
H1213 H 0.37325 0.33257 0.49675 0.0
H1214 H 0.30242 0.42811 0.46313 0.0
H1215 H 0.3652 0.35514 0.57254 0.0
H1216 H 0.34552 0.36627 0.48439 0.0
H1217 H 0.32834 0.42041 0.54988 0.0
C1218 C 0.31202 0.44419 0.52259 0.0
C1219 C 0.30521 0.44704 0.49787 0.0
C1220 C 0.34955 0.36366 0.50377 0.0
C1221 C 0.32624 0.40255 0.5143 0.0
C1222 C 0.3654 0.34442 0.51084 0.0
C1223 C 0.37176 0.34119 0.53569 0.0
C1224 C 0.34024 0.37999 0.52162 0.0
C1225 C 0.36093 0.35703 0.55315 0.0
C1226 C 0.32242 0.42195 0.53092 0.0
C1227 C 0.30802 0.4268 0.4822 0.0
N1228 N 0.34597 0.37596 0.54574 0.0
N1229 N 0.31862 0.40549 0.49059 0.0
H1230 H 0.17633 0.52638 0.0303 0.0
H1231 H 0.12063 0.65737 0.99176 0.0
H1232 H 0.18512 0.55749 0.95712 0.0
H1233 H 0.12934 0.63388 0.0676 0.0
H1234 H 0.14511 0.62155 0.97866 0.0
H1235 H 0.16009 0.56607 0.04453 0.0
C1236 C 0.17513 0.54168 0.0173 0.0
C1237 C 0.18183 0.53862 0.99245 0.0
C1238 C 0.14192 0.6244 0.99818 0.0
C1239 C 0.16282 0.58394 0.00846 0.0
C1240 C 0.12794 0.64485 0.00568 0.0
C1241 C 0.12275 0.64853 0.03082 0.0
C1242 C 0.15051 0.60734 0.01591 0.0
C1243 C 0.13278 0.63174 0.04803 0.0
C1244 C 0.16576 0.56431 0.0254 0.0
C1245 C 0.17962 0.55895 0.97632 0.0
N1246 N 0.14591 0.61172 0.04024 0.0
N1247 N 0.17006 0.5807 0.98453 0.0
H1248 H 0.08211 0.03005 0.63534 0.0
H1249 H 0.21454 0.07678 0.64425 0.0
H1250 H 0.1236 0.02369 0.70237 0.0
H1251 H 0.179 0.06463 0.57506 0.0
H1252 H 0.18696 0.0472 0.66422 0.0
H1253 H 0.12055 0.03278 0.61168 0.0
C1254 C 0.09946 0.02866 0.64498 0.0
C1255 C 0.09981 0.02702 0.67078 0.0
C1256 C 0.18575 0.05013 0.64448 0.0
C1257 C 0.14397 0.03093 0.64396 0.0
C1258 C 0.20176 0.0668 0.63301 0.0
C1259 C 0.19888 0.07315 0.60805 0.0
C1260 C 0.16631 0.04041 0.63095 0.0
C1261 C 0.1818 0.06013 0.59436 0.0
C1262 C 0.12145 0.03017 0.63148 0.0
C1263 C 0.12266 0.0251 0.68246 0.0
N1264 N 0.16559 0.04492 0.60614 0.0
N1265 N 0.14389 0.02779 0.669 0.0
H1266 H 0.62063 0.48403 0.28621 0.0
H1267 H 0.71989 0.42406 0.33925 0.0
H1268 H 0.58477 0.44731 0.34773 0.0
H1269 H 0.68192 0.4334 0.40879 0.0
H1270 H 0.68897 0.45034 0.31933 0.0
H1271 H 0.65987 0.48162 0.30859 0.0
C1272 C 0.62097 0.47579 0.30452 0.0
C1273 C 0.59966 0.46527 0.31492 0.0
C1274 C 0.68802 0.44785 0.33916 0.0
C1275 C 0.64404 0.46266 0.34053 0.0
C1276 C 0.70585 0.43297 0.35058 0.0
C1277 C 0.70343 0.42671 0.37568 0.0
C1278 C 0.66736 0.45589 0.35293 0.0
C1279 C 0.68451 0.43803 0.38944 0.0
C1280 C 0.64332 0.47436 0.31722 0.0
C1281 C 0.60094 0.45509 0.3388 0.0
N1282 N 0.66665 0.45137 0.37772 0.0
N1283 N 0.62276 0.45393 0.35071 0.0
H1284 H 0.36539 0.97873 0.20225 0.0
H1285 H 0.31678 0.93129 0.07389 0.0
H1286 H 0.40997 0.95236 0.14136 0.0
H1287 H 0.27506 0.92705 0.14191 0.0
H1288 H 0.34608 0.95839 0.09373 0.0
H1289 H 0.32872 0.97714 0.17591 0.0
C1290 C 0.3675 0.97317 0.18321 0.0
C1291 C 0.3905 0.96511 0.17403 0.0
C1292 C 0.3299 0.95242 0.10402 0.0
C1293 C 0.34916 0.9639 0.14388 0.0
C1294 C 0.31294 0.93733 0.09254 0.0
C1295 C 0.29369 0.92685 0.10641 0.0
C1296 C 0.32744 0.95686 0.12944 0.0
C1297 C 0.28979 0.93479 0.13069 0.0
C1298 C 0.34668 0.97233 0.16822 0.0
C1299 C 0.3924 0.9582 0.14925 0.0
N1300 N 0.30693 0.94882 0.14171 0.0
N1301 N 0.37199 0.95756 0.1351 0.0
H1302 H 0.82139 0.55759 0.91703 0.0
H1303 H 0.87624 0.51743 0.78723 0.0
H1304 H 0.7851 0.56977 0.84772 0.0
H1305 H 0.91749 0.52855 0.85348 0.0
H1306 H 0.83777 0.51959 0.81185 0.0
H1307 H 0.85004 0.5287 0.89681 0.0
C1308 C 0.81855 0.55305 0.89789 0.0
C1309 C 0.80111 0.56615 0.8839 0.0
C1310 C 0.85531 0.52085 0.82104 0.0
C1311 C 0.83423 0.5341 0.86048 0.0
C1312 C 0.87719 0.5196 0.80703 0.0
C1313 C 0.89989 0.5234 0.81835 0.0
C1314 C 0.85635 0.5256 0.84647 0.0
C1315 C 0.90024 0.52609 0.84403 0.0
C1316 C 0.83515 0.53688 0.88622 0.0
C1317 C 0.79847 0.56002 0.85903 0.0
N1318 N 0.87881 0.52744 0.85717 0.0
N1319 N 0.8153 0.54491 0.8479 0.0
H1320 H 0.7014 0.12386 0.01543 0.0
H1321 H 0.57385 0.18081 0.06364 0.0
H1322 H 0.63611 0.08303 0.03489 0.0
H1323 H 0.64433 0.21478 0.07319 0.0
H1324 H 0.59322 0.15158 0.03496 0.0
H1325 H 0.67739 0.16254 0.01973 0.0
C1326 C 0.68187 0.12305 0.01988 0.0
C1327 C 0.67072 0.10039 0.02526 0.0
C1328 C 0.60425 0.16611 0.04251 0.0
C1329 C 0.64329 0.14414 0.02981 0.0
C1330 C 0.59311 0.18302 0.05855 0.0
C1331 C 0.60758 0.20011 0.07071 0.0
C1332 C 0.62999 0.16638 0.03883 0.0
C1333 C 0.6326 0.20184 0.06404 0.0
C1334 C 0.66823 0.14504 0.02235 0.0
C1335 C 0.64543 0.10023 0.03101 0.0
N1336 N 0.64319 0.18478 0.04894 0.0
N1337 N 0.63262 0.12177 0.03336 0.0
H1338 H 0.53765 0.85234 0.92197 0.0
H1339 H 0.5673 0.84737 0.78402 0.0
H1340 H 0.51774 0.78948 0.87906 0.0
H1341 H 0.5606 0.91589 0.82284 0.0
H1342 H 0.54049 0.82787 0.81488 0.0
H1343 H 0.5386 0.87763 0.88449 0.0
C1344 C 0.53312 0.84397 0.90459 0.0
C1345 C 0.52806 0.81874 0.90345 0.0
C1346 C 0.54391 0.84744 0.81617 0.0
C1347 C 0.52955 0.84747 0.86028 0.0
C1348 C 0.55895 0.85867 0.7983 0.0
C1349 C 0.56622 0.8832 0.80104 0.0
C1350 C 0.53676 0.86075 0.83718 0.0
C1351 C 0.55536 0.89693 0.82009 0.0
C1352 C 0.53348 0.85846 0.88318 0.0
C1353 C 0.52195 0.80886 0.8806 0.0
N1354 N 0.54182 0.88531 0.83796 0.0
N1355 N 0.5235 0.82312 0.85975 0.0
H1356 H 0.84795 0.78066 0.57277 0.0
H1357 H 0.85268 0.91623 0.53412 0.0
H1358 H 0.91662 0.81804 0.56022 0.0
H1359 H 0.7888 0.87263 0.51936 0.0
H1360 H 0.87783 0.87867 0.5362 0.0
H1361 H 0.82757 0.80989 0.54486 0.0
C1362 C 0.85901 0.79425 0.56301 0.0
C1363 C 0.88392 0.79713 0.56887 0.0
C1364 C 0.85845 0.8772 0.53194 0.0
C1365 C 0.86053 0.83146 0.53806 0.0
C1366 C 0.84406 0.89866 0.53092 0.0
C1367 C 0.81862 0.89738 0.527 0.0
C1368 C 0.84716 0.85416 0.52986 0.0
C1369 C 0.80836 0.87428 0.52263 0.0
C1370 C 0.8473 0.81117 0.54729 0.0
C1371 C 0.89737 0.81523 0.55612 0.0
N1372 N 0.82257 0.85344 0.52484 0.0
N1373 N 0.88533 0.83228 0.54193 0.0
H1374 H 0.98048 0.19913 0.35647 0.0
H1375 H 0.93323 0.07111 0.30866 0.0
H1376 H 0.96777 0.13367 0.4006 0.0
H1377 H 0.922 0.14093 0.27144 0.0
H1378 H 0.96429 0.09007 0.33446 0.0
H1379 H 0.9765 0.17441 0.31902 0.0
C1380 C 0.97766 0.17944 0.35823 0.0
C1381 C 0.9739 0.16842 0.38149 0.0
C1382 C 0.95581 0.101 0.31992 0.0
C1383 C 0.96956 0.1402 0.33912 0.0
C1384 C 0.93837 0.09006 0.30495 0.0
C1385 C 0.92501 0.10461 0.28815 0.0
C1386 C 0.95959 0.12659 0.31804 0.0
C1387 C 0.93195 0.12921 0.28435 0.0
C1388 C 0.97536 0.16537 0.33693 0.0
C1389 C 0.97028 0.14288 0.3829 0.0
N1390 N 0.94834 0.13965 0.29964 0.0
N1391 N 0.96788 0.12969 0.36202 0.0
H1392 H 0.07382 0.31312 0.92998 0.0
H1393 H 0.20056 0.36483 0.97898 0.0
H1394 H 0.14402 0.2758 0.9217 0.0
H1395 H 0.13691 0.40848 0.95821 0.0
H1396 H 0.17599 0.32725 0.97477 0.0
H1397 H 0.09266 0.3419 0.95842 0.0
C1398 C 0.09283 0.31011 0.93529 0.0
C1399 C 0.10748 0.29224 0.92345 0.0
C1400 C 0.16729 0.34513 0.97182 0.0
C1401 C 0.12928 0.32538 0.95516 0.0
C1402 C 0.18126 0.3665 0.97424 0.0
C1403 C 0.17079 0.38962 0.96848 0.0
C1404 C 0.14267 0.34711 0.96404 0.0
C1405 C 0.14574 0.3909 0.96238 0.0
C1406 C 0.1037 0.32677 0.95119 0.0
C1407 C 0.13218 0.28943 0.9305 0.0
N1408 N 0.1326 0.36994 0.96009 0.0
N1409 N 0.1425 0.30621 0.94548 0.0
H1410 H 0.43447 0.41736 0.67698 0.0
H1411 H 0.48279 0.29033 0.62257 0.0
H1412 H 0.42817 0.3471 0.71433 0.0
H1413 H 0.4623 0.35549 0.5808 0.0
H1414 H 0.4805 0.31468 0.66058 0.0
H1415 H 0.46372 0.39874 0.64761 0.0
C1416 C 0.44041 0.39838 0.67988 0.0
C1417 C 0.42885 0.38363 0.69788 0.0
C1418 C 0.47724 0.32375 0.64298 0.0
C1419 C 0.46135 0.36204 0.66399 0.0
C1420 C 0.47856 0.3099 0.62136 0.0
C1421 C 0.47219 0.3209 0.59874 0.0
C1422 C 0.46989 0.34873 0.64171 0.0
C1423 C 0.46684 0.34627 0.59803 0.0
C1424 C 0.45679 0.38764 0.66288 0.0
C1425 C 0.43674 0.359 0.70058 0.0
N1426 N 0.46554 0.35926 0.61922 0.0
N1427 N 0.45204 0.34875 0.68338 0.0
H1428 H 0.34069 0.7141 0.42652 0.0
H1429 H 0.34963 0.57713 0.46173 0.0
H1430 H 0.41047 0.67632 0.43491 0.0
H1431 H 0.285 0.6204 0.48074 0.0
H1432 H 0.3736 0.61478 0.45864 0.0
H1433 H 0.32138 0.68369 0.45398 0.0
C1434 C 0.3522 0.70014 0.43531 0.0
C1435 C 0.37717 0.69765 0.42856 0.0
C1436 C 0.35432 0.61615 0.46404 0.0
C1437 C 0.35503 0.662 0.45877 0.0
C1438 C 0.34061 0.59464 0.46565 0.0
C1439 C 0.31528 0.5958 0.47111 0.0
C1440 C 0.34246 0.63912 0.46711 0.0
C1441 C 0.30449 0.61883 0.47632 0.0
C1442 C 0.34112 0.68256 0.45075 0.0
C1443 C 0.39119 0.67892 0.43986 0.0
N1444 N 0.31802 0.63972 0.47355 0.0
N1445 N 0.37979 0.66133 0.45384 0.0
H1446 H 0.03807 0.64013 0.08092 0.0
H1447 H 0.06979 0.64541 0.21706 0.0
H1448 H 0.0176 0.70347 0.12419 0.0
H1449 H 0.06241 0.57662 0.17937 0.0
H1450 H 0.04211 0.6652 0.18744 0.0
H1451 H 0.03951 0.61497 0.11847 0.0
C1452 C 0.03348 0.64861 0.09841 0.0
C1453 C 0.02811 0.67392 0.09962 0.0
C1454 C 0.04558 0.64553 0.18619 0.0
C1455 C 0.03025 0.64538 0.14285 0.0
C1456 C 0.06113 0.63415 0.20336 0.0
C1457 C 0.06844 0.60942 0.20049 0.0
C1458 C 0.03797 0.63216 0.16571 0.0
C1459 C 0.05716 0.59573 0.18218 0.0
C1460 C 0.03414 0.63422 0.11986 0.0
C1461 C 0.022 0.68401 0.12261 0.0
N1462 N 0.04312 0.60748 0.16493 0.0
N1463 N 0.02389 0.66983 0.14347 0.0
H1464 H 0.3223 0.14314 0.58344 0.0
H1465 H 0.44336 0.19685 0.51882 0.0
H1466 H 0.33864 0.13129 0.50622 0.0
H1467 H 0.40226 0.23153 0.57781 0.0
H1468 H 0.41373 0.16263 0.51984 0.0
H1469 H 0.36097 0.1639 0.58733 0.0
C1470 C 0.33419 0.14385 0.56738 0.0
C1471 C 0.32672 0.13529 0.54431 0.0
C1472 C 0.41161 0.17752 0.53286 0.0
C1473 C 0.37141 0.16013 0.54883 0.0
C1474 C 0.42851 0.19687 0.53241 0.0
C1475 C 0.42508 0.21691 0.54825 0.0
C1476 C 0.39167 0.17812 0.54969 0.0
C1477 C 0.40543 0.21639 0.56527 0.0
C1478 C 0.35637 0.1562 0.56967 0.0
C1479 C 0.34341 0.13778 0.52432 0.0
N1480 N 0.38946 0.19733 0.56553 0.0
N1481 N 0.36483 0.1503 0.52692 0.0
H1482 H 0.51886 0.56583 0.30962 0.0
H1483 H 0.43104 0.67454 0.2939 0.0
H1484 H 0.52263 0.60543 0.24 0.0
H1485 H 0.47565 0.67205 0.35913 0.0
H1486 H 0.46067 0.64661 0.27348 0.0
H1487 H 0.50024 0.60171 0.32857 0.0
C1488 C 0.51706 0.58233 0.29842 0.0
C1489 C 0.52376 0.58279 0.27324 0.0
C1490 C 0.46412 0.65252 0.29211 0.0
C1491 C 0.5 0.62346 0.2948 0.0
C1492 C 0.4472 0.66821 0.30381 0.0
C1493 C 0.45095 0.67537 0.32823 0.0
C1494 C 0.48441 0.64332 0.30525 0.0
C1495 C 0.4722 0.66688 0.34029 0.0
C1496 C 0.50585 0.60277 0.30932 0.0
C1497 C 0.51829 0.60435 0.25953 0.0
N1498 N 0.48792 0.65077 0.32885 0.0
N1499 N 0.50631 0.6237 0.27038 0.0
H1500 H 0.09056 0.76815 0.00166 0.0
H1501 H 0.16508 0.86172 0.07453 0.0
H1502 H 0.06301 0.79397 0.07177 0.0
H1503 H 0.16668 0.86181 0.99477 0.0
H1504 H 0.12659 0.84006 0.07425 0.0
H1505 H 0.11766 0.80369 0.99868 0.0
C1506 C 0.0901 0.78156 0.01632 0.0
C1507 C 0.07478 0.77817 0.03707 0.0
C1508 C 0.13504 0.84544 0.0568 0.0
C1509 C 0.10601 0.81864 0.03404 0.0
C1510 C 0.15727 0.85816 0.05684 0.0
C1511 C 0.1699 0.86353 0.03455 0.0
C1512 C 0.12552 0.83753 0.03442 0.0
C1513 C 0.1581 0.85769 0.01247 0.0
C1514 C 0.10542 0.80191 0.01454 0.0
C1515 C 0.07466 0.79604 0.05551 0.0
N1516 N 0.13697 0.84447 0.01296 0.0
N1517 N 0.09051 0.81532 0.05384 0.0
H1518 H 0.07443 0.34471 0.80238 0.0
H1519 H 0.94342 0.40773 0.78008 0.0
H1520 H 0.00798 0.31571 0.83599 0.0
H1521 H 0.00713 0.41989 0.73323 0.0
H1522 H 0.96566 0.37375 0.8008 0.0
H1523 H 0.0495 0.37313 0.77791 0.0
C1524 C 0.05456 0.34437 0.80476 0.0
C1525 C 0.04333 0.3278 0.82144 0.0
C1526 C 0.97459 0.38358 0.7857 0.0
C1527 C 0.01451 0.36045 0.79311 0.0
C1528 C 0.96191 0.4029 0.77386 0.0
C1529 C 0.97358 0.41672 0.75511 0.0
C1530 C 0.99917 0.37832 0.77886 0.0
C1531 C 0.99744 0.40965 0.74756 0.0
C1532 C 0.0403 0.36052 0.79055 0.0
C1533 C 0.01744 0.3282 0.82344 0.0
N1534 N 0.00959 0.3912 0.75972 0.0
N1535 N 0.00389 0.34439 0.80954 0.0
H1536 H 0.81961 0.34156 0.48936 0.0
H1537 H 0.94297 0.29567 0.42148 0.0
H1538 H 0.84527 0.37887 0.42309 0.0
H1539 H 0.89241 0.24971 0.46301 0.0
H1540 H 0.91408 0.33094 0.42713 0.0
H1541 H 0.85491 0.31388 0.48691 0.0
C1542 C 0.83275 0.34428 0.47437 0.0
C1543 C 0.82859 0.36203 0.45571 0.0
C1544 C 0.90953 0.31306 0.43494 0.0
C1545 C 0.86926 0.32979 0.45276 0.0
C1546 C 0.9259 0.29299 0.43173 0.0
C1547 C 0.92001 0.26965 0.4416 0.0
C1548 C 0.88761 0.30972 0.44867 0.0
C1549 C 0.8977 0.26721 0.4548 0.0
C1550 C 0.85287 0.3282 0.47291 0.0
C1551 C 0.84684 0.36466 0.43714 0.0
N1552 N 0.88249 0.28694 0.45803 0.0
N1553 N 0.86624 0.34839 0.43586 0.0
H1554 H 0.4676 0.06462 0.1849 0.0
H1555 H 0.55417 0.17021 0.20484 0.0
H1556 H 0.46097 0.10111 0.25509 0.0
H1557 H 0.51013 0.17321 0.13922 0.0
H1558 H 0.52434 0.14183 0.22394 0.0
H1559 H 0.4864 0.10106 0.16727 0.0
C1560 C 0.46881 0.08057 0.19647 0.0
C1561 C 0.46126 0.08 0.22141 0.0
C1562 C 0.52107 0.14904 0.20552 0.0
C1563 C 0.48523 0.12123 0.20144 0.0
C1564 C 0.5381 0.16499 0.19457 0.0
C1565 C 0.53455 0.17384 0.17043 0.0
C1566 C 0.5009 0.1413 0.19189 0.0
C1567 C 0.51342 0.16673 0.15788 0.0
C1568 C 0.48012 0.10132 0.18633 0.0
C1569 C 0.46599 0.10084 0.23569 0.0
N1570 N 0.49761 0.15034 0.16856 0.0
N1571 N 0.4781 0.12047 0.22563 0.0
H1572 H 0.5953 0.72554 0.99769 0.0
H1573 H 0.67186 0.63295 0.92112 0.0
H1574 H 0.56577 0.69852 0.92993 0.0
H1575 H 0.6734 0.63077 0.00085 0.0
H1576 H 0.63292 0.655 0.92306 0.0
H1577 H 0.62431 0.69069 0.99873 0.0
C1578 C 0.59485 0.71207 0.98312 0.0
C1579 C 0.57832 0.71489 0.96361 0.0
C1580 C 0.64151 0.64909 0.94011 0.0
C1581 C 0.61171 0.67519 0.96445 0.0
C1582 C 0.66398 0.63617 0.93912 0.0
C1583 C 0.67666 0.63 0.96092 0.0
C1584 C 0.63181 0.65643 0.96298 0.0
C1585 C 0.66477 0.63546 0.98348 0.0
C1586 C 0.61126 0.6921 0.98382 0.0
C1587 C 0.5783 0.6969 0.94527 0.0
N1588 N 0.64341 0.64888 0.98392 0.0
N1589 N 0.59517 0.678 0.94582 0.0
H1590 H 0.98914 0.92364 0.754 0.0
H1591 H 0.9872 0.81954 0.65072 0.0
H1592 H 0.05079 0.91073 0.70448 0.0
H1593 H 0.92231 0.85058 0.68631 0.0
H1594 H 0.01273 0.84809 0.67384 0.0
H1595 H 0.96679 0.89075 0.73413 0.0
C1596 C 0.99818 0.9135 0.73926 0.0
C1597 C 0.02172 0.92008 0.73066 0.0
C1598 C 0.99289 0.84858 0.67649 0.0
C1599 C 0.99608 0.8827 0.7075 0.0
C1600 C 0.97831 0.83237 0.66327 0.0
C1601 C 0.95253 0.83272 0.66644 0.0
C1602 C 0.98161 0.86494 0.69322 0.0
C1603 C 0.94206 0.84968 0.68306 0.0
C1604 C 0.9853 0.89494 0.72771 0.0
C1605 C 0.03248 0.90646 0.71136 0.0
N1606 N 0.95661 0.86497 0.69585 0.0
N1607 N 0.0195 0.88849 0.70025 0.0
H1608 H 0.49559 0.33447 0.12926 0.0
H1609 H 0.5711 0.43717 0.19956 0.0
H1610 H 0.57504 0.33282 0.13506 0.0
H1611 H 0.49869 0.41232 0.2212 0.0
H1612 H 0.57052 0.40895 0.16422 0.0
H1613 H 0.49476 0.37384 0.15063 0.0
C1614 C 0.51294 0.34257 0.13429 0.0
C1615 C 0.53537 0.32971 0.13054 0.0
C1616 C 0.55458 0.41017 0.17644 0.0
C1617 C 0.53444 0.37498 0.15493 0.0
C1618 C 0.55488 0.42624 0.19645 0.0
C1619 C 0.53497 0.42679 0.21322 0.0
C1620 C 0.534 0.39513 0.17306 0.0
C1621 C 0.51444 0.4122 0.20867 0.0
C1622 C 0.51239 0.36504 0.14656 0.0
C1623 C 0.55722 0.34152 0.13729 0.0
N1624 N 0.51449 0.39691 0.18906 0.0
N1625 N 0.55616 0.36328 0.14948 0.0
H1626 H 0.41008 0.78623 0.9451 0.0
H1627 H 0.34191 0.80138 0.07419 0.0
H1628 H 0.41702 0.73407 0.00544 0.0
H1629 H 0.31546 0.83936 0.00899 0.0
H1630 H 0.37026 0.7775 0.04867 0.0
H1631 H 0.37534 0.80618 0.96695 0.0
C1632 C 0.40402 0.77877 0.96276 0.0
C1633 C 0.41661 0.75873 0.97368 0.0
C1634 C 0.3582 0.79094 0.03984 0.0
C1635 C 0.37724 0.78145 0.99875 0.0
C1636 C 0.3421 0.8048 0.05446 0.0
C1637 C 0.32637 0.8226 0.04376 0.0
C1638 C 0.35898 0.79502 0.01424 0.0
C1639 C 0.32733 0.82589 0.01801 0.0
C1640 C 0.38422 0.79012 0.97518 0.0
C1641 C 0.40784 0.74949 0.99637 0.0
N1642 N 0.34357 0.81238 0.0041 0.0
N1643 N 0.38897 0.76117 0.00833 0.0
H1644 H 0.94378 0.56071 0.69417 0.0
H1645 H 0.00461 0.68953 0.65662 0.0
H1646 H 0.9845 0.60744 0.74248 0.0
H1647 H 0.94276 0.66171 0.61654 0.0
H1648 H 0.00442 0.65263 0.6822 0.0
H1649 H 0.94856 0.59208 0.66098 0.0
C1650 C 0.95374 0.57744 0.69777 0.0
C1651 C 0.96354 0.58156 0.72121 0.0
C1652 C 0.99088 0.65454 0.66777 0.0
C1653 C 0.96953 0.61689 0.68345 0.0
C1654 C 0.99107 0.67561 0.65288 0.0
C1655 C 0.97292 0.67949 0.63493 0.0
C1656 C 0.9725 0.63693 0.66479 0.0
C1657 C 0.95626 0.66029 0.63096 0.0
C1658 C 0.95645 0.59525 0.67888 0.0
C1659 C 0.97634 0.60351 0.72487 0.0
N1660 N 0.95617 0.63994 0.64606 0.0
N1661 N 0.979 0.6202 0.70625 0.0
H1662 H 0.09142 0.20172 0.42816 0.0
H1663 H 0.14764 0.19361 0.56197 0.0
H1664 H 0.07842 0.25639 0.48406 0.0
H1665 H 0.18206 0.15469 0.50132 0.0
H1666 H 0.12094 0.2152 0.5331 0.0
H1667 H 0.12439 0.18341 0.45347 0.0
C1668 C 0.09576 0.21006 0.44557 0.0
C1669 C 0.08195 0.23035 0.45423 0.0
C1670 C 0.13439 0.20204 0.526 0.0
C1671 C 0.1193 0.20952 0.4832 0.0
C1672 C 0.14955 0.18948 0.54253 0.0
C1673 C 0.16708 0.17213 0.5341 0.0
C1674 C 0.13636 0.19711 0.50072 0.0
C1675 C 0.16877 0.16787 0.50861 0.0
C1676 C 0.11456 0.19966 0.45995 0.0
C1677 C 0.08857 0.24075 0.47668 0.0
N1678 N 0.15341 0.18013 0.49278 0.0
N1679 N 0.10648 0.22998 0.49055 0.0
H1680 H 0.99012 0.18704 0.83434 0.0
H1681 H 0.05377 0.05945 0.79499 0.0
H1682 H 0.05217 0.15692 0.87448 0.0
H1683 H 0.013 0.10908 0.74718 0.0
H1684 H 0.04786 0.08915 0.82887 0.0
H1685 H 0.99109 0.15116 0.80833 0.0
C1686 C 0.00388 0.17283 0.838 0.0
C1687 C 0.0219 0.17585 0.85606 0.0
C1688 C 0.04021 0.09331 0.81092 0.0
C1689 C 0.02322 0.13446 0.82569 0.0
C1690 C 0.04357 0.07646 0.79164 0.0
C1691 C 0.03411 0.08192 0.76815 0.0
C1692 C 0.0268 0.11532 0.80665 0.0
C1693 C 0.02095 0.10416 0.76482 0.0
C1694 C 0.00452 0.15235 0.82287 0.0
C1695 C 0.03881 0.15626 0.85995 0.0
N1696 N 0.01766 0.11989 0.78379 0.0
N1697 N 0.03936 0.13653 0.84458 0.0
H1698 H 0.60541 0.24002 0.52206 0.0
H1699 H 0.67165 0.36151 0.47361 0.0
H1700 H 0.56524 0.30879 0.51273 0.0
H1701 H 0.67794 0.29407 0.43259 0.0
H1702 H 0.64141 0.34145 0.50149 0.0
H1703 H 0.64126 0.25909 0.50131 0.0
C1704 C 0.60431 0.25925 0.51644 0.0
C1705 C 0.58251 0.27306 0.52032 0.0
C1706 C 0.64981 0.33104 0.48658 0.0
C1707 C 0.62333 0.29485 0.49707 0.0
C1708 C 0.66696 0.3424 0.47079 0.0
C1709 C 0.67693 0.32942 0.45075 0.0
C1710 C 0.64338 0.30641 0.48265 0.0
C1711 C 0.67033 0.30471 0.44773 0.0
C1712 C 0.6247 0.27003 0.50464 0.0
C1713 C 0.58194 0.29775 0.51192 0.0
N1714 N 0.65397 0.29392 0.46357 0.0
N1715 N 0.60208 0.30787 0.5009 0.0
H1716 H 0.48892 0.83221 0.37006 0.0
H1717 H 0.41379 0.93566 0.29476 0.0
H1718 H 0.40937 0.83301 0.36534 0.0
H1719 H 0.48526 0.90663 0.27348 0.0
H1720 H 0.41424 0.90823 0.33154 0.0
H1721 H 0.48966 0.8708 0.34639 0.0
C1722 C 0.47153 0.84066 0.36474 0.0
C1723 C 0.4491 0.82855 0.36938 0.0
C1724 C 0.42998 0.90832 0.31901 0.0
C1725 C 0.44995 0.87302 0.34238 0.0
C1726 C 0.42974 0.92391 0.29816 0.0
C1727 C 0.44942 0.92308 0.28112 0.0
C1728 C 0.45032 0.89245 0.32295 0.0
C1729 C 0.46965 0.90754 0.28614 0.0
C1730 C 0.47204 0.86269 0.35116 0.0
C1731 C 0.42722 0.84094 0.3623 0.0
N1732 N 0.46958 0.89281 0.30658 0.0
N1733 N 0.42824 0.86225 0.34881 0.0
H1734 H 0.90892 0.70364 0.05445 0.0
H1735 H 0.85175 0.68614 0.92233 0.0
H1736 H 0.9187 0.75484 0.99364 0.0
H1737 H 0.8193 0.65087 0.98669 0.0
H1738 H 0.87817 0.70947 0.94887 0.0
H1739 H 0.87669 0.68298 0.03117 0.0
C1740 C 0.90398 0.71075 0.0364 0.0
C1741 C 0.91668 0.73074 0.02579 0.0
C1742 C 0.86524 0.69671 0.95728 0.0
C1743 C 0.88027 0.7072 0.99912 0.0
C1744 C 0.85023 0.68315 0.94209 0.0
C1745 C 0.83328 0.66637 0.95225 0.0
C1746 C 0.86366 0.69338 0.98295 0.0
C1747 C 0.83213 0.66357 0.97806 0.0
C1748 C 0.88564 0.69899 0.02316 0.0
C1749 C 0.90941 0.73948 0.00252 0.0
N1750 N 0.84729 0.67683 0.99258 0.0
N1751 N 0.89199 0.72743 0.98983 0.0
H1752 H 0.13254 0.49474 0.32987 0.0
H1753 H 0.19727 0.57025 0.43629 0.0
H1754 H 0.13474 0.57442 0.32986 0.0
H1755 H 0.22373 0.50039 0.4087 0.0
H1756 H 0.16309 0.56921 0.40665 0.0
H1757 H 0.15408 0.49412 0.36912 0.0
C1758 C 0.13684 0.51215 0.33827 0.0
C1759 C 0.13195 0.53464 0.3259 0.0
C1760 C 0.17618 0.55396 0.4075 0.0
C1761 C 0.15651 0.53393 0.3711 0.0
C1762 C 0.19555 0.55452 0.42434 0.0
C1763 C 0.21334 0.5355 0.42461 0.0
C1764 C 0.1744 0.5339 0.39147 0.0
C1765 C 0.21048 0.51554 0.40879 0.0
C1766 C 0.14921 0.51171 0.36068 0.0
C1767 C 0.13781 0.55654 0.33814 0.0
N1768 N 0.19141 0.51525 0.39285 0.0
N1769 N 0.15007 0.55561 0.35986 0.0
H1770 H 0.72779 0.99264 0.59471 0.0
H1771 H 0.63119 0.91878 0.66848 0.0
H1772 H 0.69795 0.92717 0.56292 0.0
H1773 H 0.63177 0.99847 0.67112 0.0
H1774 H 0.6538 0.92047 0.62989 0.0
H1775 H 0.69271 0.99445 0.6234 0.0
C1776 C 0.71369 0.97872 0.59372 0.0
C1777 C 0.71577 0.95961 0.57663 0.0
C1778 C 0.6484 0.93758 0.63865 0.0
C1779 C 0.67576 0.96137 0.60961 0.0
C1780 C 0.63518 0.93674 0.66096 0.0
C1781 C 0.62968 0.95856 0.6739 0.0
C1782 C 0.65666 0.96029 0.62939 0.0
C1783 C 0.63597 0.98106 0.66234 0.0
C1784 C 0.69359 0.97988 0.60994 0.0
C1785 C 0.69694 0.94215 0.57591 0.0
N1786 N 0.64967 0.98132 0.64116 0.0
N1787 N 0.67789 0.94312 0.59259 0.0
H1788 H 0.83881 0.00462 0.31292 0.0
H1789 H 0.733 0.00016 0.41715 0.0
H1790 H 0.80351 0.06858 0.34531 0.0
H1791 H 0.78504 0.94006 0.40739 0.0
H1792 H 0.75294 0.02239 0.38309 0.0
H1793 H 0.8147 0.97815 0.34128 0.0
C1794 C 0.82608 0.01308 0.32596 0.0
C1795 C 0.82335 0.03887 0.32687 0.0
C1796 C 0.75986 0.00421 0.3882 0.0
C1797 C 0.79545 0.00882 0.35871 0.0
C1798 C 0.74828 0.99138 0.40744 0.0
C1799 C 0.75764 0.96841 0.41529 0.0
C1800 C 0.78084 0.99394 0.37659 0.0
C1801 C 0.77759 0.95797 0.40212 0.0
C1802 C 0.81233 0.99799 0.34205 0.0
C1803 C 0.80648 0.04884 0.34406 0.0
N1804 N 0.78875 0.97093 0.38351 0.0
N1805 N 0.79315 0.03383 0.35916 0.0
H1806 H 0.78917 0.07021 0.05859 0.0
H1807 H 0.85559 0.9924 0.16556 0.0
H1808 H 0.76174 0.00215 0.08971 0.0
H1809 H 0.8537 0.07215 0.16381 0.0
H1810 H 0.83301 0.99267 0.1269 0.0
H1811 H 0.82409 0.06776 0.08738 0.0
C1812 C 0.7908 0.05458 0.07115 0.0
C1813 C 0.77255 0.0365 0.07213 0.0
C1814 C 0.83822 0.01006 0.13481 0.0
C1815 C 0.81234 0.03324 0.10423 0.0
C1816 C 0.85117 0.00999 0.15687 0.0
C1817 C 0.85648 0.03226 0.16857 0.0
C1818 C 0.83077 0.03256 0.12406 0.0
C1819 C 0.85039 0.05441 0.15601 0.0
C1820 C 0.81059 0.0532 0.08749 0.0
C1821 C 0.77533 0.0166 0.08869 0.0
N1822 N 0.83759 0.05398 0.13463 0.0
N1823 N 0.79483 0.01549 0.10409 0.0
H1824 H 0.7013 0.05291 0.90495 0.0
H1825 H 0.68857 0.92032 0.84703 0.0
H1826 H 0.75388 0.99349 0.91595 0.0
H1827 H 0.65066 0.98383 0.81596 0.0
H1828 H 0.7113 0.94737 0.87355 0.0
H1829 H 0.68188 0.02896 0.87252 0.0
C1830 C 0.70896 0.035 0.90027 0.0
C1831 C 0.729 0.02499 0.91332 0.0
C1832 C 0.69811 0.95548 0.86088 0.0
C1833 C 0.70687 0.99754 0.87662 0.0
C1834 C 0.68492 0.93999 0.84583 0.0
C1835 C 0.66753 0.94978 0.82929 0.0
C1836 C 0.69378 0.98104 0.85975 0.0
C1837 C 0.66385 0.97549 0.82847 0.0
C1838 C 0.69791 0.02138 0.88178 0.0
C1839 C 0.73848 0.0019 0.90633 0.0
N1840 N 0.67674 0.99027 0.84367 0.0
N1841 N 0.72709 0.98881 0.88874 0.0
H1842 H 0.26564 0.48649 0.90754 0.0
H1843 H 0.35852 0.41168 0.82869 0.0
H1844 H 0.29028 0.41473 0.93292 0.0
H1845 H 0.3606 0.49134 0.83015 0.0
H1846 H 0.33609 0.41167 0.86747 0.0
H1847 H 0.3012 0.48844 0.87946 0.0
C1848 C 0.27878 0.47124 0.90732 0.0
C1849 C 0.27508 0.45037 0.92235 0.0
C1850 C 0.34206 0.4291 0.85961 0.0
C1851 C 0.31556 0.45222 0.88998 0.0
C1852 C 0.35521 0.42922 0.83725 0.0
C1853 C 0.36144 0.45165 0.82546 0.0
C1854 C 0.33459 0.45152 0.87008 0.0
C1855 C 0.35587 0.47357 0.83811 0.0
C1856 C 0.29914 0.47241 0.89143 0.0
C1857 C 0.29261 0.43113 0.92154 0.0
N1858 N 0.34226 0.47299 0.85935 0.0
N1859 N 0.3119 0.43226 0.90516 0.0
H1860 H 0.34113 0.48476 0.68227 0.0
H1861 H 0.23238 0.49303 0.58399 0.0
H1862 H 0.30374 0.4222 0.65247 0.0
H1863 H 0.285 0.55136 0.59126 0.0
H1864 H 0.25282 0.47016 0.61713 0.0
H1865 H 0.31623 0.51217 0.65552 0.0
C1866 C 0.32774 0.4768 0.67017 0.0
C1867 C 0.3247 0.45113 0.66943 0.0
C1868 C 0.25977 0.48809 0.61168 0.0
C1869 C 0.29595 0.48224 0.63943 0.0
C1870 C 0.24792 0.50129 0.59296 0.0
C1871 C 0.25728 0.52393 0.58463 0.0
C1872 C 0.28105 0.49765 0.62229 0.0
C1873 C 0.27755 0.5337 0.59685 0.0
C1874 C 0.31355 0.49242 0.65499 0.0
C1875 C 0.30699 0.44182 0.65349 0.0
N1876 N 0.28898 0.52037 0.61495 0.0
N1877 N 0.29329 0.45734 0.63924 0.0
H1878 H 0.19911 0.43621 0.08959 0.0
H1879 H 0.1905 0.56866 0.14937 0.0
H1880 H 0.2539 0.49235 0.07836 0.0
H1881 H 0.15159 0.50694 0.18173 0.0
H1882 H 0.21212 0.54063 0.1217 0.0
H1883 H 0.18031 0.46095 0.12273 0.0
C1884 C 0.20735 0.45357 0.09433 0.0
C1885 C 0.22787 0.46243 0.08104 0.0
C1886 C 0.19895 0.53313 0.1349 0.0
C1887 C 0.20648 0.49076 0.11857 0.0
C1888 C 0.1864 0.54918 0.15062 0.0
C1889 C 0.16907 0.54018 0.16787 0.0
C1890 C 0.194 0.50781 0.13606 0.0
C1891 C 0.16479 0.51466 0.1687 0.0
C1892 C 0.19667 0.46762 0.11323 0.0
C1893 C 0.2381 0.48481 0.08813 0.0
N1894 N 0.17704 0.49934 0.15284 0.0
N1895 N 0.22708 0.49837 0.10614 0.0
loop_
_geom_bond_atom_site_label_1
_geom_bond_atom_site_label_2
_geom_bond_distance
_geom_bond_site_symmetry_2
_ccdc_geom_bond_type
Co0 O3 1.970 . S
Co0 N17 1.989 . S
Co0 O25 1.967 . S
Co0 O32 1.920 . S
Co1 O4 1.966 . S
Co1 N10 2.022 . S
Co1 N18 1.993 . S
Co1 O26 1.941 . S
C2 O3 1.258 . S
C2 O4 1.263 . S
O3 Co0 1.970 . S
O3 C2 1.258 . S
O4 Co1 1.966 . S
O4 C2 1.263 . S
C5 O6 1.235 . S
C5 O32 1.289 . S
O6 C5 1.235 . S
C7 C9 1.400 . S
C7 N10 1.351 . S
C7 C12 1.501 . S
C8 C9 1.387 . S
C8 N11 1.341 . S
C9 C7 1.400 . S
C9 C8 1.387 . S
N10 Co1 2.022 . S
N10 C7 1.351 . S
N10 N11 1.365 . S
N11 C8 1.341 . S
N11 N10 1.365 . S
N11 H31 0.862 . S
C12 C7 1.501 . S
C12 H13 0.961 . S
C12 H14 0.961 . S
C12 H15 0.960 . S
H13 C12 0.961 . S
H14 C12 0.961 . S
H15 C12 0.960 . S
C16 N17 1.342 . S
C16 C20 1.401 . S
C16 C21 1.499 . S
N17 Co0 1.989 . S
N17 C16 1.342 . S
N17 N18 1.388 . S
N18 Co1 1.993 . S
N18 N17 1.388 . S
N18 C19 1.346 . S
C19 N18 1.346 . S
C19 C20 1.396 . S
C19 C29 1.510 . S
C20 C16 1.401 . S
C20 C19 1.396 . S
C21 C16 1.499 . S
C21 H22 0.959 . S
C21 H23 0.960 . S
C21 H24 0.961 . S
H22 C21 0.959 . S
H23 C21 0.960 . S
H24 C21 0.961 . S
O25 Co0 1.967 . S
O25 C33 1.258 . S
O26 Co1 1.941 . S
O26 C33 1.266 . S
H27 C29 0.959 . S
H28 C29 0.961 . S
C29 C19 1.510 . S
C29 H27 0.959 . S
C29 H28 0.961 . S
C29 H30 0.960 . S
H30 C29 0.960 . S
H31 N11 0.862 . S
O32 Co0 1.920 . S
O32 C5 1.289 . S
C33 O25 1.258 . S
C33 O26 1.266 . S
Co34 O37 1.970 . S
Co34 N51 1.989 . S
Co34 O59 1.967 . S
Co34 O66 1.920 . S
Co35 O38 1.966 . S
Co35 N44 2.022 . S
Co35 N52 1.993 . S
Co35 O60 1.941 . S
C36 O37 1.258 . S
C36 O38 1.263 . S
O37 Co34 1.970 . S
O37 C36 1.258 . S
O38 Co35 1.966 . S
O38 C36 1.263 . S
C39 O40 1.235 . S
C39 O66 1.289 . S
O40 C39 1.235 . S
C41 C43 1.400 . S
C41 N44 1.351 . S
C41 C46 1.501 . S
C42 C43 1.387 . S
C42 N45 1.341 . S
C43 C41 1.400 . S
C43 C42 1.387 . S
N44 Co35 2.022 . S
N44 C41 1.351 . S
N44 N45 1.365 . S
N45 C42 1.341 . S
N45 N44 1.365 . S
N45 H65 0.862 . S
C46 C41 1.501 . S
C46 H47 0.961 . S
C46 H48 0.961 . S
C46 H49 0.960 . S
H47 C46 0.961 . S
H48 C46 0.961 . S
H49 C46 0.960 . S
C50 N51 1.342 . S
C50 C54 1.401 . S
C50 C55 1.499 . S
N51 Co34 1.989 . S
N51 C50 1.342 . S
N51 N52 1.388 . S
N52 Co35 1.993 . S
N52 N51 1.388 . S
N52 C53 1.346 . S
C53 N52 1.346 . S
C53 C54 1.396 . S
C53 C63 1.510 . S
C54 C50 1.401 . S
C54 C53 1.396 . S
C55 C50 1.499 . S
C55 H56 0.959 . S
C55 H57 0.960 . S
C55 H58 0.961 . S
H56 C55 0.959 . S
H57 C55 0.960 . S
H58 C55 0.961 . S
O59 Co34 1.967 . S
O59 C67 1.258 . S
O60 Co35 1.941 . S
O60 C67 1.266 . S
H61 C63 0.959 . S
H62 C63 0.961 . S
C63 C53 1.510 . S
C63 H61 0.959 . S
C63 H62 0.961 . S
C63 H64 0.960 . S
H64 C63 0.960 . S
H65 N45 0.862 . S
O66 Co34 1.920 . S
O66 C39 1.289 . S
C67 O59 1.258 . S
C67 O60 1.266 . S
Co68 O71 1.970 . S
Co68 N85 1.989 . S
Co68 O93 1.967 . S
Co68 O100 1.920 . S
Co69 O72 1.966 . S
Co69 N78 2.022 . S
Co69 N86 1.993 . S
Co69 O94 1.941 . S
C70 O71 1.258 . S
C70 O72 1.263 . S
O71 Co68 1.970 . S
O71 C70 1.258 . S
O72 Co69 1.966 . S
O72 C70 1.263 . S
C73 O74 1.235 . S
C73 O100 1.289 . S
O74 C73 1.235 . S
C75 C77 1.400 . S
C75 N78 1.351 . S
C75 C80 1.501 . S
C76 C77 1.387 . S
C76 N79 1.341 . S
C77 C75 1.400 . S
C77 C76 1.387 . S
N78 Co69 2.022 . S
N78 C75 1.351 . S
N78 N79 1.365 . S
N79 C76 1.341 . S
N79 N78 1.365 . S
N79 H99 0.862 . S
C80 C75 1.501 . S
C80 H81 0.961 . S
C80 H82 0.961 . S
C80 H83 0.960 . S
H81 C80 0.961 . S
H82 C80 0.961 . S
H83 C80 0.960 . S
C84 N85 1.342 . S
C84 C88 1.401 . S
C84 C89 1.499 . S
N85 Co68 1.989 . S
N85 C84 1.342 . S
N85 N86 1.388 . S
N86 Co69 1.993 . S
N86 N85 1.388 . S
N86 C87 1.346 . S
C87 N86 1.346 . S
C87 C88 1.396 . S
C87 C97 1.510 . S
C88 C84 1.401 . S
C88 C87 1.396 . S
C89 C84 1.499 . S
C89 H90 0.959 . S
C89 H91 0.960 . S
C89 H92 0.961 . S
H90 C89 0.959 . S
H91 C89 0.960 . S
H92 C89 0.961 . S
O93 Co68 1.967 . S
O93 C101 1.258 . S
O94 Co69 1.941 . S
O94 C101 1.266 . S
H95 C97 0.959 . S
H96 C97 0.961 . S
C97 C87 1.510 . S
C97 H95 0.959 . S
C97 H96 0.961 . S
C97 H98 0.960 . S
H98 C97 0.960 . S
H99 N79 0.862 . S
O100 Co68 1.920 . S
O100 C73 1.289 . S
C101 O93 1.258 . S
C101 O94 1.266 . S
Co102 O105 1.970 . S
Co102 N119 1.989 1_655 S
Co102 O127 1.967 . S
Co102 O134 1.920 1_655 S
Co103 O106 1.966 . S
Co103 N112 2.022 . S
Co103 N120 1.993 1_655 S
Co103 O128 1.941 . S
C104 O105 1.258 . S
C104 O106 1.263 . S
O105 Co102 1.970 . S
O105 C104 1.258 . S
O106 Co103 1.966 . S
O106 C104 1.263 . S
C107 O108 1.234 1_455 S
C107 O134 1.289 . S
O108 C107 1.234 1_655 S
C109 C111 1.400 . S
C109 N112 1.351 . S
C109 C114 1.501 . S
C110 C111 1.387 1_455 S
C110 N113 1.341 . S
C111 C109 1.400 . S
C111 C110 1.387 1_655 S
N112 Co103 2.022 . S
N112 C109 1.351 . S
N112 N113 1.365 1_655 S
N113 C110 1.341 . S
N113 N112 1.365 1_455 S
N113 H133 0.862 . S
C114 C109 1.501 . S
C114 H115 0.961 . S
C114 H116 0.961 . S
C114 H117 0.960 . S
H115 C114 0.961 . S
H116 C114 0.961 . S
H117 C114 0.960 . S
C118 N119 1.342 . S
C118 C122 1.401 . S
C118 C123 1.499 . S
N119 Co102 1.989 1_455 S
N119 C118 1.342 . S
N119 N120 1.388 . S
N120 Co103 1.993 1_455 S
N120 N119 1.388 . S
N120 C121 1.346 . S
C121 N120 1.346 . S
C121 C122 1.396 . S
C121 C131 1.510 . S
C122 C118 1.401 . S
C122 C121 1.396 . S
C123 C118 1.499 . S
C123 H124 0.959 . S
C123 H125 0.960 . S
C123 H126 0.961 . S
H124 C123 0.959 . S
H125 C123 0.960 . S
H126 C123 0.961 . S
O127 Co102 1.967 . S
O127 C135 1.258 . S
O128 Co103 1.941 . S
O128 C135 1.266 . S
H129 C131 0.959 . S
H130 C131 0.961 . S
C131 C121 1.510 . S
C131 H129 0.959 . S
C131 H130 0.961 . S
C131 H132 0.960 . S
H132 C131 0.960 . S
H133 N113 0.862 . S
O134 Co102 1.920 1_455 S
O134 C107 1.289 . S
C135 O127 1.258 . S
C135 O128 1.266 . S
Co136 O139 1.970 . S
Co136 N153 1.989 . S
Co136 O161 1.967 . S
Co136 O168 1.920 . S
Co137 O140 1.966 . S
Co137 N146 2.022 . S
Co137 N154 1.993 . S
Co137 O162 1.941 . S
C138 O139 1.258 . S
C138 O140 1.263 . S
O139 Co136 1.970 . S
O139 C138 1.258 . S
O140 Co137 1.966 . S
O140 C138 1.263 . S
C141 O142 1.235 . S
C141 O168 1.289 . S
O142 C141 1.235 . S
C143 C145 1.400 . S
C143 N146 1.351 . S
C143 C148 1.501 . S
C144 C145 1.387 . S
C144 N147 1.341 . S
C145 C143 1.400 . S
C145 C144 1.387 . S
N146 Co137 2.022 . S
N146 C143 1.351 . S
N146 N147 1.365 . S
N147 C144 1.341 . S
N147 N146 1.365 . S
N147 H167 0.862 . S
C148 C143 1.501 . S
C148 H149 0.961 . S
C148 H150 0.961 . S
C148 H151 0.960 . S
H149 C148 0.961 . S
H150 C148 0.961 . S
H151 C148 0.960 . S
C152 N153 1.342 . S
C152 C156 1.401 . S
C152 C157 1.499 . S
N153 Co136 1.989 . S
N153 C152 1.342 . S
N153 N154 1.388 . S
N154 Co137 1.993 . S
N154 N153 1.388 . S
N154 C155 1.346 . S
C155 N154 1.346 . S
C155 C156 1.396 . S
C155 C165 1.510 . S
C156 C152 1.401 . S
C156 C155 1.396 . S
C157 C152 1.499 . S
C157 H158 0.959 . S
C157 H159 0.960 . S
C157 H160 0.961 . S
H158 C157 0.959 . S
H159 C157 0.960 . S
H160 C157 0.961 . S
O161 Co136 1.967 . S
O161 C169 1.258 . S
O162 Co137 1.941 . S
O162 C169 1.266 . S
H163 C165 0.959 . S
H164 C165 0.961 . S
C165 C155 1.510 . S
C165 H163 0.959 . S
C165 H164 0.961 . S
C165 H166 0.960 . S
H166 C165 0.960 . S
H167 N147 0.862 . S
O168 Co136 1.920 . S
O168 C141 1.289 . S
C169 O161 1.258 . S
C169 O162 1.266 . S
Co170 O173 1.970 . S
Co170 N187 1.989 . S
Co170 O195 1.967 . S
Co170 O202 1.920 . S
Co171 O174 1.966 . S
Co171 N180 2.022 1_565 S
Co171 N188 1.993 . S
Co171 O196 1.941 . S
C172 O173 1.258 . S
C172 O174 1.263 . S
O173 Co170 1.970 . S
O173 C172 1.258 . S
O174 Co171 1.966 . S
O174 C172 1.263 . S
C175 O176 1.235 . S
C175 O202 1.289 . S
O176 C175 1.235 . S
C177 C179 1.400 . S
C177 N180 1.351 . S
C177 C182 1.501 . S
C178 C179 1.387 . S
C178 N181 1.341 . S
C179 C177 1.400 . S
C179 C178 1.387 . S
N180 Co171 2.022 1_545 S
N180 C177 1.351 . S
N180 N181 1.365 . S
N181 C178 1.341 . S
N181 N180 1.365 . S
N181 H201 0.862 . S
C182 C177 1.501 . S
C182 H183 0.961 . S
C182 H184 0.961 . S
C182 H185 0.960 . S
H183 C182 0.961 . S
H184 C182 0.961 . S
H185 C182 0.960 . S
C186 N187 1.342 . S
C186 C190 1.401 . S
C186 C191 1.499 . S
N187 Co170 1.989 . S
N187 C186 1.342 . S
N187 N188 1.388 . S
N188 Co171 1.993 . S
N188 N187 1.388 . S
N188 C189 1.346 . S
C189 N188 1.346 . S
C189 C190 1.396 . S
C189 C199 1.510 1_565 S
C190 C186 1.401 . S
C190 C189 1.396 . S
C191 C186 1.499 . S
C191 H192 0.959 . S
C191 H193 0.960 . S
C191 H194 0.961 . S
H192 C191 0.959 . S
H193 C191 0.960 . S
H194 C191 0.961 . S
O195 Co170 1.967 . S
O195 C203 1.258 . S
O196 Co171 1.941 . S
O196 C203 1.266 . S
H197 C199 0.959 . S
H198 C199 0.961 . S
C199 C189 1.510 1_545 S
C199 H197 0.959 . S
C199 H198 0.961 . S
C199 H200 0.960 . S
H200 C199 0.960 . S
H201 N181 0.862 . S
O202 Co170 1.920 . S
O202 C175 1.289 . S
C203 O195 1.258 . S
C203 O196 1.266 . S
Co204 O207 1.970 . S
Co204 N221 1.989 . S
Co204 O229 1.967 . S
Co204 O236 1.920 . S
Co205 O208 1.966 . S
Co205 N214 2.022 . S
Co205 N222 1.993 . S
Co205 O230 1.941 . S
C206 O207 1.258 . S
C206 O208 1.263 . S
O207 Co204 1.970 . S
O207 C206 1.258 . S
O208 Co205 1.966 . S
O208 C206 1.263 . S
C209 O210 1.235 . S
C209 O236 1.289 . S
O210 C209 1.235 . S
C211 C213 1.400 . S
C211 N214 1.351 . S
C211 C216 1.501 . S
C212 C213 1.387 . S
C212 N215 1.341 . S
C213 C211 1.400 . S
C213 C212 1.387 . S
N214 Co205 2.022 . S
N214 C211 1.351 . S
N214 N215 1.365 . S
N215 C212 1.341 . S
N215 N214 1.365 . S
N215 H235 0.862 . S
C216 C211 1.501 . S
C216 H217 0.961 . S
C216 H218 0.961 . S
C216 H219 0.960 . S
H217 C216 0.961 . S
H218 C216 0.961 . S
H219 C216 0.960 . S
C220 N221 1.342 . S
C220 C224 1.401 . S
C220 C225 1.499 . S
N221 Co204 1.989 . S
N221 C220 1.342 . S
N221 N222 1.388 . S
N222 Co205 1.993 . S
N222 N221 1.388 . S
N222 C223 1.346 . S
C223 N222 1.346 . S
C223 C224 1.396 . S
C223 C233 1.510 . S
C224 C220 1.401 . S
C224 C223 1.396 . S
C225 C220 1.499 . S
C225 H226 0.959 . S
C225 H227 0.960 . S
C225 H228 0.961 . S
H226 C225 0.959 . S
H227 C225 0.960 . S
H228 C225 0.961 . S
O229 Co204 1.967 . S
O229 C237 1.258 . S
O230 Co205 1.941 . S
O230 C237 1.266 . S
H231 C233 0.959 . S
H232 C233 0.961 . S
C233 C223 1.510 . S
C233 H231 0.959 . S
C233 H232 0.961 . S
C233 H234 0.960 . S
H234 C233 0.960 . S
H235 N215 0.862 . S
O236 Co204 1.920 . S
O236 C209 1.289 . S
C237 O229 1.258 . S
C237 O230 1.266 . S
Co238 O241 1.970 . S
Co238 N255 1.989 1_455 S
Co238 O263 1.967 . S
Co238 O270 1.920 1_455 S
Co239 O242 1.966 . S
Co239 N248 2.022 1_545 S
Co239 N256 1.993 1_455 S
Co239 O264 1.941 . S
C240 O241 1.258 . S
C240 O242 1.263 . S
O241 Co238 1.970 . S
O241 C240 1.258 . S
O242 Co239 1.966 . S
O242 C240 1.263 . S
C243 O244 1.235 1_655 S
C243 O270 1.289 . S
O244 C243 1.235 1_455 S
C245 C247 1.400 . S
C245 N248 1.351 . S
C245 C250 1.501 . S
C246 C247 1.387 1_655 S
C246 N249 1.341 . S
C247 C245 1.400 . S
C247 C246 1.387 1_455 S
N248 Co239 2.022 1_565 S
N248 C245 1.351 . S
N248 N249 1.365 1_455 S
N249 C246 1.341 . S
N249 N248 1.365 1_655 S
N249 H269 0.862 . S
C250 C245 1.501 . S
C250 H251 0.961 . S
C250 H252 0.961 . S
C250 H253 0.960 . S
H251 C250 0.961 . S
H252 C250 0.961 . S
H253 C250 0.960 . S
C254 N255 1.342 . S
C254 C258 1.401 . S
C254 C259 1.499 . S
N255 Co238 1.989 1_655 S
N255 C254 1.342 . S
N255 N256 1.388 . S
N256 Co239 1.993 1_655 S
N256 N255 1.388 . S
N256 C257 1.346 . S
C257 N256 1.346 . S
C257 C258 1.396 . S
C257 C267 1.510 1_545 S
C258 C254 1.401 . S
C258 C257 1.396 . S
C259 C254 1.499 . S
C259 H260 0.959 . S
C259 H261 0.960 . S
C259 H262 0.961 . S
H260 C259 0.959 . S
H261 C259 0.960 . S
H262 C259 0.961 . S
O263 Co238 1.967 . S
O263 C271 1.258 . S
O264 Co239 1.941 . S
O264 C271 1.266 . S
H265 C267 0.959 . S
H266 C267 0.961 . S
C267 C257 1.510 1_565 S
C267 H265 0.959 . S
C267 H266 0.961 . S
C267 H268 0.960 . S
H268 C267 0.960 . S
H269 N249 0.862 . S
O270 Co238 1.920 1_655 S
O270 C243 1.289 . S
C271 O263 1.258 . S
C271 O264 1.266 . S
Co272 O275 1.970 . S
Co272 N289 1.989 . S
Co272 O297 1.967 . S
Co272 O304 1.920 . S
Co273 O276 1.966 . S
Co273 N282 2.022 . S
Co273 N290 1.993 . S
Co273 O298 1.941 . S
C274 O275 1.258 . S
C274 O276 1.263 . S
O275 Co272 1.970 . S
O275 C274 1.258 . S
O276 Co273 1.966 . S
O276 C274 1.263 . S
C277 O278 1.235 . S
C277 O304 1.289 . S
O278 C277 1.235 . S
C279 C281 1.400 . S
C279 N282 1.351 . S
C279 C284 1.501 . S
C280 C281 1.387 . S
C280 N283 1.341 . S
C281 C279 1.400 . S
C281 C280 1.387 . S
N282 Co273 2.022 . S
N282 C279 1.351 . S
N282 N283 1.365 . S
N283 C280 1.341 . S
N283 N282 1.365 . S
N283 H303 0.862 . S
C284 C279 1.501 . S
C284 H285 0.961 . S
C284 H286 0.961 . S
C284 H287 0.960 . S
H285 C284 0.961 . S
H286 C284 0.961 . S
H287 C284 0.960 . S
C288 N289 1.342 . S
C288 C292 1.401 . S
C288 C293 1.499 . S
N289 Co272 1.989 . S
N289 C288 1.342 . S
N289 N290 1.388 . S
N290 Co273 1.993 . S
N290 N289 1.388 . S
N290 C291 1.346 . S
C291 N290 1.346 . S
C291 C292 1.396 . S
C291 C301 1.510 . S
C292 C288 1.401 . S
C292 C291 1.396 . S
C293 C288 1.499 . S
C293 H294 0.959 . S
C293 H295 0.960 . S
C293 H296 0.961 . S
H294 C293 0.959 . S
H295 C293 0.960 . S
H296 C293 0.961 . S
O297 Co272 1.967 . S
O297 C305 1.258 . S
O298 Co273 1.941 . S
O298 C305 1.266 . S
H299 C301 0.959 . S
H300 C301 0.961 . S
C301 C291 1.510 . S
C301 H299 0.959 . S
C301 H300 0.961 . S
C301 H302 0.960 . S
H302 C301 0.960 . S
H303 N283 0.862 . S
O304 Co272 1.920 . S
O304 C277 1.289 . S
C305 O297 1.258 . S
C305 O298 1.266 . S
Co306 O309 1.970 . S
Co306 N323 1.989 1_556 S
Co306 O331 1.967 . S
Co306 O338 1.920 1_556 S
Co307 O310 1.966 . S
Co307 N316 2.022 . S
Co307 N324 1.993 1_556 S
Co307 O332 1.941 . S
C308 O309 1.258 . S
C308 O310 1.263 . S
O309 Co306 1.970 . S
O309 C308 1.258 . S
O310 Co307 1.966 . S
O310 C308 1.263 . S
C311 O312 1.234 1_554 S
C311 O338 1.289 . S
O312 C311 1.234 1_556 S
C313 C315 1.400 . S
C313 N316 1.351 . S
C313 C318 1.501 . S
C314 C315 1.387 1_554 S
C314 N317 1.341 . S
C315 C313 1.400 . S
C315 C314 1.387 1_556 S
N316 Co307 2.022 . S
N316 C313 1.351 . S
N316 N317 1.365 1_556 S
N317 C314 1.341 . S
N317 N316 1.365 1_554 S
N317 H337 0.862 . S
C318 C313 1.501 . S
C318 H319 0.961 . S
C318 H320 0.961 . S
C318 H321 0.960 . S
H319 C318 0.961 . S
H320 C318 0.961 . S
H321 C318 0.960 . S
C322 N323 1.342 . S
C322 C326 1.401 . S
C322 C327 1.499 . S
N323 Co306 1.989 1_554 S
N323 C322 1.342 . S
N323 N324 1.388 . S
N324 Co307 1.993 1_554 S
N324 N323 1.388 . S
N324 C325 1.346 . S
C325 N324 1.346 . S
C325 C326 1.396 . S
C325 C335 1.510 . S
C326 C322 1.401 . S
C326 C325 1.396 . S
C327 C322 1.499 . S
C327 H328 0.959 . S
C327 H329 0.960 . S
C327 H330 0.961 . S
H328 C327 0.959 . S
H329 C327 0.960 . S
H330 C327 0.961 . S
O331 Co306 1.967 . S
O331 C339 1.258 . S
O332 Co307 1.941 . S
O332 C339 1.266 . S
H333 C335 0.959 . S
H334 C335 0.961 . S
C335 C325 1.510 . S
C335 H333 0.959 . S
C335 H334 0.961 . S
C335 H336 0.960 . S
H336 C335 0.960 . S
H337 N317 0.862 . S
O338 Co306 1.920 1_554 S
O338 C311 1.289 . S
C339 O331 1.258 . S
C339 O332 1.266 . S
Co340 O343 1.970 . S
Co340 N357 1.989 . S
Co340 O365 1.967 . S
Co340 O372 1.920 . S
Co341 O344 1.966 . S
Co341 N350 2.022 . S
Co341 N358 1.993 . S
Co341 O366 1.941 . S
C342 O343 1.258 . S
C342 O344 1.263 . S
O343 Co340 1.970 . S
O343 C342 1.258 . S
O344 Co341 1.966 . S
O344 C342 1.263 . S
C345 O346 1.235 . S
C345 O372 1.289 . S
O346 C345 1.235 . S
C347 C349 1.400 . S
C347 N350 1.351 . S
C347 C352 1.501 . S
C348 C349 1.387 . S
C348 N351 1.341 . S
C349 C347 1.400 . S
C349 C348 1.387 . S
N350 Co341 2.022 . S
N350 C347 1.351 . S
N350 N351 1.365 . S
N351 C348 1.341 . S
N351 N350 1.365 . S
N351 H371 0.862 . S
C352 C347 1.501 . S
C352 H353 0.961 . S
C352 H354 0.961 . S
C352 H355 0.960 . S
H353 C352 0.961 . S
H354 C352 0.961 . S
H355 C352 0.960 . S
C356 N357 1.342 . S
C356 C360 1.401 . S
C356 C361 1.499 . S
N357 Co340 1.989 . S
N357 C356 1.342 . S
N357 N358 1.388 . S
N358 Co341 1.993 . S
N358 N357 1.388 . S
N358 C359 1.346 . S
C359 N358 1.346 . S
C359 C360 1.396 . S
C359 C369 1.510 . S
C360 C356 1.401 . S
C360 C359 1.396 . S
C361 C356 1.499 . S
C361 H362 0.959 . S
C361 H363 0.960 . S
C361 H364 0.961 . S
H362 C361 0.959 . S
H363 C361 0.960 . S
H364 C361 0.961 . S
O365 Co340 1.967 . S
O365 C373 1.258 . S
O366 Co341 1.941 . S
O366 C373 1.266 . S
H367 C369 0.959 . S
H368 C369 0.961 . S
C369 C359 1.510 . S
C369 H367 0.959 . S
C369 H368 0.961 . S
C369 H370 0.960 . S
H370 C369 0.960 . S
H371 N351 0.862 . S
O372 Co340 1.920 . S
O372 C345 1.289 . S
C373 O365 1.258 . S
C373 O366 1.266 . S
Co374 O377 1.970 . S
Co374 N391 1.989 . S
Co374 O399 1.967 . S
Co374 O406 1.920 . S
Co375 O378 1.966 . S
Co375 N384 2.022 1_655 S
Co375 N392 1.993 . S
Co375 O400 1.941 . S
C376 O377 1.258 . S
C376 O378 1.263 . S
O377 Co374 1.970 . S
O377 C376 1.258 . S
O378 Co375 1.966 . S
O378 C376 1.263 . S
C379 O380 1.235 . S
C379 O406 1.289 . S
O380 C379 1.235 . S
C381 C383 1.400 . S
C381 N384 1.351 . S
C381 C386 1.501 . S
C382 C383 1.387 . S
C382 N385 1.341 . S
C383 C381 1.400 . S
C383 C382 1.387 . S
N384 Co375 2.022 1_455 S
N384 C381 1.351 . S
N384 N385 1.365 . S
N385 C382 1.341 . S
N385 N384 1.365 . S
N385 H405 0.862 . S
C386 C381 1.501 . S
C386 H387 0.961 . S
C386 H388 0.961 . S
C386 H389 0.960 . S
H387 C386 0.961 . S
H388 C386 0.961 . S
H389 C386 0.960 . S
C390 N391 1.342 . S
C390 C394 1.401 . S
C390 C395 1.499 . S
N391 Co374 1.989 . S
N391 C390 1.342 . S
N391 N392 1.388 . S
N392 Co375 1.993 . S
N392 N391 1.388 . S
N392 C393 1.346 . S
C393 N392 1.346 . S
C393 C394 1.396 . S
C393 C403 1.510 1_655 S
C394 C390 1.401 . S
C394 C393 1.396 . S
C395 C390 1.499 . S
C395 H396 0.959 . S
C395 H397 0.960 . S
C395 H398 0.961 . S
H396 C395 0.959 . S
H397 C395 0.960 . S
H398 C395 0.961 . S
O399 Co374 1.967 . S
O399 C407 1.258 . S
O400 Co375 1.941 . S
O400 C407 1.266 . S
H401 C403 0.959 . S
H402 C403 0.961 . S
C403 C393 1.510 1_455 S
C403 H401 0.959 . S
C403 H402 0.961 . S
C403 H404 0.960 . S
H404 C403 0.960 . S
H405 N385 0.862 . S
O406 Co374 1.920 . S
O406 C379 1.289 . S
C407 O399 1.258 . S
C407 O400 1.266 . S
Co408 O411 1.970 . S
Co408 N425 1.989 . S
Co408 O433 1.967 . S
Co408 O440 1.920 . S
Co409 O412 1.966 . S
Co409 N418 2.022 . S
Co409 N426 1.993 . S
Co409 O434 1.941 . S
C410 O411 1.258 . S
C410 O412 1.263 . S
O411 Co408 1.970 . S
O411 C410 1.258 . S
O412 Co409 1.966 . S
O412 C410 1.263 . S
C413 O414 1.235 . S
C413 O440 1.289 . S
O414 C413 1.235 . S
C415 C417 1.400 . S
C415 N418 1.351 . S
C415 C420 1.501 . S
C416 C417 1.387 . S
C416 N419 1.341 . S
C417 C415 1.400 . S
C417 C416 1.387 . S
N418 Co409 2.022 . S
N418 C415 1.351 . S
N418 N419 1.365 . S
N419 C416 1.341 . S
N419 N418 1.365 . S
N419 H439 0.862 . S
C420 C415 1.501 . S
C420 H421 0.961 . S
C420 H422 0.961 . S
C420 H423 0.960 . S
H421 C420 0.961 . S
H422 C420 0.961 . S
H423 C420 0.960 . S
C424 N425 1.342 . S
C424 C428 1.401 . S
C424 C429 1.499 . S
N425 Co408 1.989 . S
N425 C424 1.342 . S
N425 N426 1.388 . S
N426 Co409 1.993 . S
N426 N425 1.388 . S
N426 C427 1.346 . S
C427 N426 1.346 . S
C427 C428 1.396 . S
C427 C437 1.510 . S
C428 C424 1.401 . S
C428 C427 1.396 . S
C429 C424 1.499 . S
C429 H430 0.959 . S
C429 H431 0.960 . S
C429 H432 0.961 . S
H430 C429 0.959 . S
H431 C429 0.960 . S
H432 C429 0.961 . S
O433 Co408 1.967 . S
O433 C441 1.258 . S
O434 Co409 1.941 . S
O434 C441 1.266 . S
H435 C437 0.959 . S
H436 C437 0.961 . S
C437 C427 1.510 . S
C437 H435 0.959 . S
C437 H436 0.961 . S
C437 H438 0.960 . S
H438 C437 0.960 . S
H439 N419 0.862 . S
O440 Co408 1.920 . S
O440 C413 1.289 . S
C441 O433 1.258 . S
C441 O434 1.266 . S
Co442 O445 1.970 . S
Co442 N459 1.989 . S
Co442 O467 1.967 . S
Co442 O474 1.920 . S
Co443 O446 1.966 . S
Co443 N452 2.022 . S
Co443 N460 1.993 . S
Co443 O468 1.941 . S
C444 O445 1.258 . S
C444 O446 1.263 . S
O445 Co442 1.970 . S
O445 C444 1.258 . S
O446 Co443 1.966 . S
O446 C444 1.263 . S
C447 O448 1.235 . S
C447 O474 1.289 . S
O448 C447 1.235 . S
C449 C451 1.400 . S
C449 N452 1.351 . S
C449 C454 1.501 . S
C450 C451 1.387 . S
C450 N453 1.341 . S
C451 C449 1.400 . S
C451 C450 1.387 . S
N452 Co443 2.022 . S
N452 C449 1.351 . S
N452 N453 1.365 . S
N453 C450 1.341 . S
N453 N452 1.365 . S
N453 H473 0.862 . S
C454 C449 1.501 . S
C454 H455 0.961 . S
C454 H456 0.961 . S
C454 H457 0.960 . S
H455 C454 0.961 . S
H456 C454 0.961 . S
H457 C454 0.960 . S
C458 N459 1.342 . S
C458 C462 1.401 . S
C458 C463 1.499 . S
N459 Co442 1.989 . S
N459 C458 1.342 . S
N459 N460 1.388 . S
N460 Co443 1.993 . S
N460 N459 1.388 . S
N460 C461 1.346 . S
C461 N460 1.346 . S
C461 C462 1.396 . S
C461 C471 1.510 . S
C462 C458 1.401 . S
C462 C461 1.396 . S
C463 C458 1.499 . S
C463 H464 0.959 . S
C463 H465 0.960 . S
C463 H466 0.961 . S
H464 C463 0.959 . S
H465 C463 0.960 . S
H466 C463 0.961 . S
O467 Co442 1.967 . S
O467 C475 1.258 . S
O468 Co443 1.941 . S
O468 C475 1.266 . S
H469 C471 0.959 . S
H470 C471 0.961 . S
C471 C461 1.510 . S
C471 H469 0.959 . S
C471 H470 0.961 . S
C471 H472 0.960 . S
H472 C471 0.960 . S
H473 N453 0.862 . S
O474 Co442 1.920 . S
O474 C447 1.289 . S
C475 O467 1.258 . S
C475 O468 1.266 . S
Co476 O479 1.970 . S
Co476 N493 1.989 . S
Co476 O501 1.967 . S
Co476 O508 1.920 . S
Co477 O480 1.966 . S
Co477 N486 2.022 . S
Co477 N494 1.993 . S
Co477 O502 1.941 . S
C478 O479 1.258 . S
C478 O480 1.263 . S
O479 Co476 1.970 . S
O479 C478 1.258 . S
O480 Co477 1.966 . S
O480 C478 1.263 . S
C481 O482 1.235 . S
C481 O508 1.289 . S
O482 C481 1.235 . S
C483 C485 1.400 . S
C483 N486 1.351 . S
C483 C488 1.501 . S
C484 C485 1.387 . S
C484 N487 1.341 . S
C485 C483 1.400 . S
C485 C484 1.387 . S
N486 Co477 2.022 . S
N486 C483 1.351 . S
N486 N487 1.365 . S
N487 C484 1.341 . S
N487 N486 1.365 . S
N487 H507 0.862 . S
C488 C483 1.501 . S
C488 H489 0.961 . S
C488 H490 0.961 . S
C488 H491 0.960 . S
H489 C488 0.961 . S
H490 C488 0.961 . S
H491 C488 0.960 . S
C492 N493 1.342 . S
C492 C496 1.401 . S
C492 C497 1.499 . S
N493 Co476 1.989 . S
N493 C492 1.342 . S
N493 N494 1.388 . S
N494 Co477 1.993 . S
N494 N493 1.388 . S
N494 C495 1.346 . S
C495 N494 1.346 . S
C495 C496 1.396 . S
C495 C505 1.510 . S
C496 C492 1.401 . S
C496 C495 1.396 . S
C497 C492 1.499 . S
C497 H498 0.959 . S
C497 H499 0.960 . S
C497 H500 0.961 . S
H498 C497 0.959 . S
H499 C497 0.960 . S
H500 C497 0.961 . S
O501 Co476 1.967 . S
O501 C509 1.258 . S
O502 Co477 1.941 . S
O502 C509 1.266 . S
H503 C505 0.959 . S
H504 C505 0.961 . S
C505 C495 1.510 . S
C505 H503 0.959 . S
C505 H504 0.961 . S
C505 H506 0.960 . S
H506 C505 0.960 . S
H507 N487 0.862 . S
O508 Co476 1.920 . S
O508 C481 1.289 . S
C509 O501 1.258 . S
C509 O502 1.266 . S
Co510 O513 1.970 . S
Co510 N527 1.989 1_554 S
Co510 O535 1.967 . S
Co510 O542 1.920 1_554 S
Co511 O514 1.966 . S
Co511 N520 2.022 1_455 S
Co511 N528 1.993 1_554 S
Co511 O536 1.941 . S
C512 O513 1.258 . S
C512 O514 1.263 . S
O513 Co510 1.970 . S
O513 C512 1.258 . S
O514 Co511 1.966 . S
O514 C512 1.263 . S
C515 O516 1.235 1_556 S
C515 O542 1.289 . S
O516 C515 1.235 1_554 S
C517 C519 1.400 . S
C517 N520 1.351 . S
C517 C522 1.501 . S
C518 C519 1.387 1_556 S
C518 N521 1.341 . S
C519 C517 1.400 . S
C519 C518 1.387 1_554 S
N520 Co511 2.022 1_655 S
N520 C517 1.351 . S
N520 N521 1.365 1_554 S
N521 C518 1.341 . S
N521 N520 1.365 1_556 S
N521 H541 0.862 . S
C522 C517 1.501 . S
C522 H523 0.961 . S
C522 H524 0.961 . S
C522 H525 0.960 . S
H523 C522 0.961 . S
H524 C522 0.961 . S
H525 C522 0.960 . S
C526 N527 1.342 . S
C526 C530 1.401 . S
C526 C531 1.499 . S
N527 Co510 1.989 1_556 S
N527 C526 1.342 . S
N527 N528 1.388 . S
N528 Co511 1.993 1_556 S
N528 N527 1.388 . S
N528 C529 1.346 . S
C529 N528 1.346 . S
C529 C530 1.396 . S
C529 C539 1.510 1_455 S
C530 C526 1.401 . S
C530 C529 1.396 . S
C531 C526 1.499 . S
C531 H532 0.959 . S
C531 H533 0.960 . S
C531 H534 0.961 . S
H532 C531 0.959 . S
H533 C531 0.960 . S
H534 C531 0.961 . S
O535 Co510 1.967 . S
O535 C543 1.258 . S
O536 Co511 1.941 . S
O536 C543 1.266 . S
H537 C539 0.959 . S
H538 C539 0.961 . S
C539 C529 1.510 1_655 S
C539 H537 0.959 . S
C539 H538 0.961 . S
C539 H540 0.960 . S
H540 C539 0.960 . S
H541 N521 0.862 . S
O542 Co510 1.920 1_556 S
O542 C515 1.289 . S
C543 O535 1.258 . S
C543 O536 1.266 . S
Co544 O547 1.970 . S
Co544 N561 1.989 . S
Co544 O569 1.967 . S
Co544 O576 1.920 . S
Co545 O548 1.966 . S
Co545 N554 2.022 . S
Co545 N562 1.993 . S
Co545 O570 1.941 . S
C546 O547 1.258 . S
C546 O548 1.263 . S
O547 Co544 1.970 . S
O547 C546 1.258 . S
O548 Co545 1.966 . S
O548 C546 1.263 . S
C549 O550 1.235 . S
C549 O576 1.289 . S
O550 C549 1.235 . S
C551 C553 1.400 . S
C551 N554 1.351 . S
C551 C556 1.501 . S
C552 C553 1.387 . S
C552 N555 1.341 . S
C553 C551 1.400 . S
C553 C552 1.387 . S
N554 Co545 2.022 . S
N554 C551 1.351 . S
N554 N555 1.365 . S
N555 C552 1.341 . S
N555 N554 1.365 . S
N555 H575 0.862 . S
C556 C551 1.501 . S
C556 H557 0.961 . S
C556 H558 0.961 . S
C556 H559 0.960 . S
H557 C556 0.961 . S
H558 C556 0.961 . S
H559 C556 0.960 . S
C560 N561 1.342 . S
C560 C564 1.401 . S
C560 C565 1.499 . S
N561 Co544 1.989 . S
N561 C560 1.342 . S
N561 N562 1.388 . S
N562 Co545 1.993 . S
N562 N561 1.388 . S
N562 C563 1.346 . S
C563 N562 1.346 . S
C563 C564 1.396 . S
C563 C573 1.510 . S
C564 C560 1.401 . S
C564 C563 1.396 . S
C565 C560 1.499 . S
C565 H566 0.959 . S
C565 H567 0.960 . S
C565 H568 0.961 . S
H566 C565 0.959 . S
H567 C565 0.960 . S
H568 C565 0.961 . S
O569 Co544 1.967 . S
O569 C577 1.258 . S
O570 Co545 1.941 . S
O570 C577 1.266 . S
H571 C573 0.959 . S
H572 C573 0.961 . S
C573 C563 1.510 . S
C573 H571 0.959 . S
C573 H572 0.961 . S
C573 H574 0.960 . S
H574 C573 0.960 . S
H575 N555 0.862 . S
O576 Co544 1.920 . S
O576 C549 1.289 . S
C577 O569 1.258 . S
C577 O570 1.266 . S
Co578 O581 1.970 . S
Co578 N595 1.989 . S
Co578 O603 1.967 . S
Co578 O610 1.920 . S
Co579 O582 1.966 . S
Co579 N588 2.022 . S
Co579 N596 1.993 . S
Co579 O604 1.941 . S
C580 O581 1.258 . S
C580 O582 1.263 . S
O581 Co578 1.970 . S
O581 C580 1.258 . S
O582 Co579 1.966 . S
O582 C580 1.263 . S
C583 O584 1.235 . S
C583 O610 1.289 . S
O584 C583 1.235 . S
C585 C587 1.400 . S
C585 N588 1.351 . S
C585 C590 1.501 . S
C586 C587 1.387 . S
C586 N589 1.341 . S
C587 C585 1.400 . S
C587 C586 1.387 . S
N588 Co579 2.022 . S
N588 C585 1.351 . S
N588 N589 1.365 . S
N589 C586 1.341 . S
N589 N588 1.365 . S
N589 H609 0.862 . S
C590 C585 1.501 . S
C590 H591 0.961 . S
C590 H592 0.961 . S
C590 H593 0.960 . S
H591 C590 0.961 . S
H592 C590 0.961 . S
H593 C590 0.960 . S
C594 N595 1.342 . S
C594 C598 1.401 . S
C594 C599 1.499 . S
N595 Co578 1.989 . S
N595 C594 1.342 . S
N595 N596 1.388 . S
N596 Co579 1.993 . S
N596 N595 1.388 . S
N596 C597 1.346 . S
C597 N596 1.346 . S
C597 C598 1.396 . S
C597 C607 1.510 . S
C598 C594 1.401 . S
C598 C597 1.396 . S
C599 C594 1.499 . S
C599 H600 0.959 . S
C599 H601 0.960 . S
C599 H602 0.961 . S
H600 C599 0.959 . S
H601 C599 0.960 . S
H602 C599 0.961 . S
O603 Co578 1.967 . S
O603 C611 1.258 . S
O604 Co579 1.941 . S
O604 C611 1.266 . S
H605 C607 0.959 . S
H606 C607 0.961 . S
C607 C597 1.510 . S
C607 H605 0.959 . S
C607 H606 0.961 . S
C607 H608 0.960 . S
H608 C607 0.960 . S
H609 N589 0.862 . S
O610 Co578 1.920 . S
O610 C583 1.289 . S
C611 O603 1.258 . S
C611 O604 1.266 . S
Co612 O615 1.970 . S
Co612 N629 1.989 1_565 S
Co612 O637 1.967 . S
Co612 O644 1.920 1_565 S
Co613 O616 1.966 . S
Co613 N622 2.022 . S
Co613 N630 1.993 1_565 S
Co613 O638 1.941 . S
C614 O615 1.258 . S
C614 O616 1.263 . S
O615 Co612 1.970 . S
O615 C614 1.258 . S
O616 Co613 1.966 . S
O616 C614 1.263 . S
C617 O618 1.234 1_545 S
C617 O644 1.289 . S
O618 C617 1.234 1_565 S
C619 C621 1.400 . S
C619 N622 1.351 . S
C619 C624 1.501 . S
C620 C621 1.387 1_545 S
C620 N623 1.341 . S
C621 C619 1.400 . S
C621 C620 1.387 1_565 S
N622 Co613 2.022 . S
N622 C619 1.351 . S
N622 N623 1.365 1_565 S
N623 C620 1.341 . S
N623 N622 1.365 1_545 S
N623 H643 0.862 . S
C624 C619 1.501 . S
C624 H625 0.961 . S
C624 H626 0.961 . S
C624 H627 0.960 . S
H625 C624 0.961 . S
H626 C624 0.961 . S
H627 C624 0.960 . S
C628 N629 1.342 . S
C628 C632 1.401 . S
C628 C633 1.499 . S
N629 Co612 1.989 1_545 S
N629 C628 1.342 . S
N629 N630 1.388 . S
N630 Co613 1.993 1_545 S
N630 N629 1.388 . S
N630 C631 1.346 . S
C631 N630 1.346 . S
C631 C632 1.396 . S
C631 C641 1.510 . S
C632 C628 1.401 . S
C632 C631 1.396 . S
C633 C628 1.499 . S
C633 H634 0.959 . S
C633 H635 0.960 . S
C633 H636 0.961 . S
H634 C633 0.959 . S
H635 C633 0.960 . S
H636 C633 0.961 . S
O637 Co612 1.967 . S
O637 C645 1.258 . S
O638 Co613 1.941 . S
O638 C645 1.266 . S
H639 C641 0.959 . S
H640 C641 0.961 . S
C641 C631 1.510 . S
C641 H639 0.959 . S
C641 H640 0.961 . S
C641 H642 0.960 . S
H642 C641 0.960 . S
H643 N623 0.862 . S
O644 Co612 1.920 1_545 S
O644 C617 1.289 . S
C645 O637 1.258 . S
C645 O638 1.266 . S
Co646 O649 1.970 . S
Co646 N663 1.989 . S
Co646 O671 1.967 . S
Co646 O678 1.920 . S
Co647 O650 1.966 . S
Co647 N656 2.022 . S
Co647 N664 1.993 . S
Co647 O672 1.941 . S
C648 O649 1.258 . S
C648 O650 1.263 . S
O649 Co646 1.970 . S
O649 C648 1.258 . S
O650 Co647 1.966 . S
O650 C648 1.263 . S
C651 O652 1.235 . S
C651 O678 1.289 . S
O652 C651 1.235 . S
C653 C655 1.400 . S
C653 N656 1.351 . S
C653 C658 1.501 . S
C654 C655 1.387 . S
C654 N657 1.341 . S
C655 C653 1.400 . S
C655 C654 1.387 . S
N656 Co647 2.022 . S
N656 C653 1.351 . S
N656 N657 1.365 . S
N657 C654 1.341 . S
N657 N656 1.365 . S
N657 H677 0.862 . S
C658 C653 1.501 . S
C658 H659 0.961 . S
C658 H660 0.961 . S
C658 H661 0.960 . S
H659 C658 0.961 . S
H660 C658 0.961 . S
H661 C658 0.960 . S
C662 N663 1.342 . S
C662 C666 1.401 . S
C662 C667 1.499 . S
N663 Co646 1.989 . S
N663 C662 1.342 . S
N663 N664 1.388 . S
N664 Co647 1.993 . S
N664 N663 1.388 . S
N664 C665 1.346 . S
C665 N664 1.346 . S
C665 C666 1.396 . S
C665 C675 1.510 . S
C666 C662 1.401 . S
C666 C665 1.396 . S
C667 C662 1.499 . S
C667 H668 0.959 . S
C667 H669 0.960 . S
C667 H670 0.961 . S
H668 C667 0.959 . S
H669 C667 0.960 . S
H670 C667 0.961 . S
O671 Co646 1.967 . S
O671 C679 1.258 . S
O672 Co647 1.941 . S
O672 C679 1.266 . S
H673 C675 0.959 . S
H674 C675 0.961 . S
C675 C665 1.510 . S
C675 H673 0.959 . S
C675 H674 0.961 . S
C675 H676 0.960 . S
H676 C675 0.960 . S
H677 N657 0.862 . S
O678 Co646 1.920 . S
O678 C651 1.289 . S
C679 O671 1.258 . S
C679 O672 1.266 . S
Co680 O683 1.970 . S
Co680 N697 1.989 1_545 S
Co680 O705 1.967 . S
Co680 O712 1.920 1_545 S
Co681 O684 1.966 . S
Co681 N690 2.022 1_554 S
Co681 N698 1.993 1_545 S
Co681 O706 1.941 . S
C682 O683 1.258 . S
C682 O684 1.263 . S
O683 Co680 1.970 . S
O683 C682 1.258 . S
O684 Co681 1.966 . S
O684 C682 1.263 . S
C685 O686 1.235 1_565 S
C685 O712 1.289 . S
O686 C685 1.235 1_545 S
C687 C689 1.400 . S
C687 N690 1.351 . S
C687 C692 1.501 . S
C688 C689 1.387 1_565 S
C688 N691 1.341 . S
C689 C687 1.400 . S
C689 C688 1.387 1_545 S
N690 Co681 2.022 1_556 S
N690 C687 1.351 . S
N690 N691 1.365 1_545 S
N691 C688 1.341 . S
N691 N690 1.365 1_565 S
N691 H711 0.862 . S
C692 C687 1.501 . S
C692 H693 0.961 . S
C692 H694 0.961 . S
C692 H695 0.960 . S
H693 C692 0.961 . S
H694 C692 0.961 . S
H695 C692 0.960 . S
C696 N697 1.342 . S
C696 C700 1.401 . S
C696 C701 1.499 . S
N697 Co680 1.989 1_565 S
N697 C696 1.342 . S
N697 N698 1.388 . S
N698 Co681 1.993 1_565 S
N698 N697 1.388 . S
N698 C699 1.346 . S
C699 N698 1.346 . S
C699 C700 1.396 . S
C699 C709 1.510 1_554 S
C700 C696 1.401 . S
C700 C699 1.396 . S
C701 C696 1.499 . S
C701 H702 0.959 . S
C701 H703 0.960 . S
C701 H704 0.961 . S
H702 C701 0.959 . S
H703 C701 0.960 . S
H704 C701 0.961 . S
O705 Co680 1.967 . S
O705 C713 1.258 . S
O706 Co681 1.941 . S
O706 C713 1.266 . S
H707 C709 0.959 . S
H708 C709 0.961 . S
C709 C699 1.510 1_556 S
C709 H707 0.959 . S
C709 H708 0.961 . S
C709 H710 0.960 . S
H710 C709 0.960 . S
H711 N691 0.862 . S
O712 Co680 1.920 1_565 S
O712 C685 1.289 . S
C713 O705 1.258 . S
C713 O706 1.266 . S
Co714 O717 1.970 . S
Co714 N731 1.989 . S
Co714 O739 1.967 . S
Co714 O746 1.920 . S
Co715 O718 1.966 . S
Co715 N724 2.022 . S
Co715 N732 1.993 . S
Co715 O740 1.941 . S
C716 O717 1.258 . S
C716 O718 1.263 . S
O717 Co714 1.970 . S
O717 C716 1.258 . S
O718 Co715 1.966 . S
O718 C716 1.263 . S
C719 O720 1.235 . S
C719 O746 1.289 . S
O720 C719 1.235 . S
C721 C723 1.400 . S
C721 N724 1.351 . S
C721 C726 1.501 . S
C722 C723 1.387 . S
C722 N725 1.341 . S
C723 C721 1.400 . S
C723 C722 1.387 . S
N724 Co715 2.022 . S
N724 C721 1.351 . S
N724 N725 1.365 . S
N725 C722 1.341 . S
N725 N724 1.365 . S
N725 H745 0.862 . S
C726 C721 1.501 . S
C726 H727 0.961 . S
C726 H728 0.961 . S
C726 H729 0.960 . S
H727 C726 0.961 . S
H728 C726 0.961 . S
H729 C726 0.960 . S
C730 N731 1.342 . S
C730 C734 1.401 . S
C730 C735 1.499 . S
N731 Co714 1.989 . S
N731 C730 1.342 . S
N731 N732 1.388 . S
N732 Co715 1.993 . S
N732 N731 1.388 . S
N732 C733 1.346 . S
C733 N732 1.346 . S
C733 C734 1.396 . S
C733 C743 1.510 . S
C734 C730 1.401 . S
C734 C733 1.396 . S
C735 C730 1.499 . S
C735 H736 0.959 . S
C735 H737 0.960 . S
C735 H738 0.961 . S
H736 C735 0.959 . S
H737 C735 0.960 . S
H738 C735 0.961 . S
O739 Co714 1.967 . S
O739 C747 1.258 . S
O740 Co715 1.941 . S
O740 C747 1.266 . S
H741 C743 0.959 . S
H742 C743 0.961 . S
C743 C733 1.510 . S
C743 H741 0.959 . S
C743 H742 0.961 . S
C743 H744 0.960 . S
H744 C743 0.960 . S
H745 N725 0.862 . S
O746 Co714 1.920 . S
O746 C719 1.289 . S
C747 O739 1.258 . S
C747 O740 1.266 . S
Co748 O751 1.970 . S
Co748 N765 1.989 . S
Co748 O773 1.967 . S
Co748 O780 1.920 . S
Co749 O752 1.966 . S
Co749 N758 2.022 . S
Co749 N766 1.993 . S
Co749 O774 1.941 . S
C750 O751 1.258 . S
C750 O752 1.263 . S
O751 Co748 1.970 . S
O751 C750 1.258 . S
O752 Co749 1.966 . S
O752 C750 1.263 . S
C753 O754 1.235 . S
C753 O780 1.289 . S
O754 C753 1.235 . S
C755 C757 1.400 . S
C755 N758 1.351 . S
C755 C760 1.501 . S
C756 C757 1.387 . S
C756 N759 1.341 . S
C757 C755 1.400 . S
C757 C756 1.387 . S
N758 Co749 2.022 . S
N758 C755 1.351 . S
N758 N759 1.365 . S
N759 C756 1.341 . S
N759 N758 1.365 . S
N759 H779 0.862 . S
C760 C755 1.501 . S
C760 H761 0.961 . S
C760 H762 0.961 . S
C760 H763 0.960 . S
H761 C760 0.961 . S
H762 C760 0.961 . S
H763 C760 0.960 . S
C764 N765 1.342 . S
C764 C768 1.401 . S
C764 C769 1.499 . S
N765 Co748 1.989 . S
N765 C764 1.342 . S
N765 N766 1.388 . S
N766 Co749 1.993 . S
N766 N765 1.388 . S
N766 C767 1.346 . S
C767 N766 1.346 . S
C767 C768 1.396 . S
C767 C777 1.510 . S
C768 C764 1.401 . S
C768 C767 1.396 . S
C769 C764 1.499 . S
C769 H770 0.959 . S
C769 H771 0.960 . S
C769 H772 0.961 . S
H770 C769 0.959 . S
H771 C769 0.960 . S
H772 C769 0.961 . S
O773 Co748 1.967 . S
O773 C781 1.258 . S
O774 Co749 1.941 . S
O774 C781 1.266 . S
H775 C777 0.959 . S
H776 C777 0.961 . S
C777 C767 1.510 . S
C777 H775 0.959 . S
C777 H776 0.961 . S
C777 H778 0.960 . S
H778 C777 0.960 . S
H779 N759 0.862 . S
O780 Co748 1.920 . S
O780 C753 1.289 . S
C781 O773 1.258 . S
C781 O774 1.266 . S
Co782 O785 1.970 . S
Co782 N799 1.989 . S
Co782 O807 1.967 . S
Co782 O814 1.920 . S
Co783 O786 1.966 . S
Co783 N792 2.022 1_556 S
Co783 N800 1.993 . S
Co783 O808 1.941 . S
C784 O785 1.258 . S
C784 O786 1.263 . S
O785 Co782 1.970 . S
O785 C784 1.258 . S
O786 Co783 1.966 . S
O786 C784 1.263 . S
C787 O788 1.235 . S
C787 O814 1.289 . S
O788 C787 1.235 . S
C789 C791 1.400 . S
C789 N792 1.351 . S
C789 C794 1.501 . S
C790 C791 1.387 . S
C790 N793 1.341 . S
C791 C789 1.400 . S
C791 C790 1.387 . S
N792 Co783 2.022 1_554 S
N792 C789 1.351 . S
N792 N793 1.365 . S
N793 C790 1.341 . S
N793 N792 1.365 . S
N793 H813 0.862 . S
C794 C789 1.501 . S
C794 H795 0.961 . S
C794 H796 0.961 . S
C794 H797 0.960 . S
H795 C794 0.961 . S
H796 C794 0.961 . S
H797 C794 0.960 . S
C798 N799 1.342 . S
C798 C802 1.401 . S
C798 C803 1.499 . S
N799 Co782 1.989 . S
N799 C798 1.342 . S
N799 N800 1.388 . S
N800 Co783 1.993 . S
N800 N799 1.388 . S
N800 C801 1.346 . S
C801 N800 1.346 . S
C801 C802 1.396 . S
C801 C811 1.510 1_556 S
C802 C798 1.401 . S
C802 C801 1.396 . S
C803 C798 1.499 . S
C803 H804 0.959 . S
C803 H805 0.960 . S
C803 H806 0.961 . S
H804 C803 0.959 . S
H805 C803 0.960 . S
H806 C803 0.961 . S
O807 Co782 1.967 . S
O807 C815 1.258 . S
O808 Co783 1.941 . S
O808 C815 1.266 . S
H809 C811 0.959 . S
H810 C811 0.961 . S
C811 C801 1.510 1_554 S
C811 H809 0.959 . S
C811 H810 0.961 . S
C811 H812 0.960 . S
H812 C811 0.960 . S
H813 N793 0.862 . S
O814 Co782 1.920 . S
O814 C787 1.289 . S
C815 O807 1.258 . S
C815 O808 1.266 . S
H816 C822 0.930 . S
H817 C826 0.930 . S
H818 C831 0.929 . S
H819 C829 0.929 . S
H820 C824 0.929 . S
H821 C830 0.929 . S
C822 H816 0.930 . S
C822 C823 1.367 . S
C822 C830 1.378 . S
C823 C822 1.367 . S
C823 C831 1.433 . S
C824 H820 0.929 . S
C824 C826 1.378 . S
C824 C828 1.350 . S
C825 C828 1.463 . S
C825 C830 1.350 . S
C825 N833 1.427 . S
C826 H817 0.930 . S
C826 C824 1.378 . S
C826 C827 1.367 . S
C827 C826 1.367 . S
C827 C829 1.433 . S
C828 C824 1.350 . S
C828 C825 1.463 . S
C828 N832 1.427 . S
C829 H819 0.929 . S
C829 C827 1.433 . S
C829 N832 1.384 . S
C830 H821 0.929 . S
C830 C822 1.378 . S
C830 C825 1.350 . S
C831 H818 0.929 . S
C831 C823 1.433 . S
C831 N833 1.384 . S
N832 C828 1.427 . S
N832 C829 1.384 . S
N833 C825 1.427 . S
N833 C831 1.384 . S
H834 C840 0.930 . S
H835 C844 0.930 . S
H836 C849 0.929 . S
H837 C847 0.929 . S
H838 C842 0.929 . S
H839 C848 0.929 . S
C840 H834 0.930 . S
C840 C841 1.367 . S
C840 C848 1.378 . S
C841 C840 1.367 . S
C841 C849 1.433 . S
C842 H838 0.929 . S
C842 C844 1.378 . S
C842 C846 1.350 . S
C843 C846 1.463 . S
C843 C848 1.350 . S
C843 N851 1.427 . S
C844 H835 0.930 . S
C844 C842 1.378 . S
C844 C845 1.367 . S
C845 C844 1.367 . S
C845 C847 1.433 . S
C846 C842 1.350 . S
C846 C843 1.463 . S
C846 N850 1.427 . S
C847 H837 0.929 . S
C847 C845 1.433 . S
C847 N850 1.384 . S
C848 H839 0.929 . S
C848 C840 1.378 . S
C848 C843 1.350 . S
C849 H836 0.929 . S
C849 C841 1.433 . S
C849 N851 1.384 . S
N850 C846 1.427 . S
N850 C847 1.384 . S
N851 C843 1.427 . S
N851 C849 1.384 . S
H852 C858 0.930 . S
H853 C862 0.930 . S
H854 C867 0.929 . S
H855 C865 0.929 . S
H856 C860 0.929 . S
H857 C866 0.929 . S
C858 H852 0.930 . S
C858 C859 1.367 . S
C858 C866 1.378 . S
C859 C858 1.367 . S
C859 C867 1.433 . S
C860 H856 0.929 . S
C860 C862 1.378 . S
C860 C864 1.350 . S
C861 C864 1.463 . S
C861 C866 1.350 . S
C861 N869 1.427 . S
C862 H853 0.930 . S
C862 C860 1.378 . S
C862 C863 1.367 . S
C863 C862 1.367 . S
C863 C865 1.433 . S
C864 C860 1.350 . S
C864 C861 1.463 . S
C864 N868 1.427 . S
C865 H855 0.929 . S
C865 C863 1.433 . S
C865 N868 1.384 . S
C866 H857 0.929 . S
C866 C858 1.378 . S
C866 C861 1.350 . S
C867 H854 0.929 . S
C867 C859 1.433 . S
C867 N869 1.384 . S
N868 C864 1.427 . S
N868 C865 1.384 . S
N869 C861 1.427 . S
N869 C867 1.384 . S
H870 C876 0.930 . S
H871 C880 0.930 . S
H872 C885 0.929 . S
H873 C883 0.929 . S
H874 C878 0.929 . S
H875 C884 0.929 . S
C876 H870 0.930 . S
C876 C877 1.367 . S
C876 C884 1.378 . S
C877 C876 1.367 . S
C877 C885 1.433 . S
C878 H874 0.929 . S
C878 C880 1.378 . S
C878 C882 1.350 . S
C879 C882 1.463 . S
C879 C884 1.350 . S
C879 N887 1.427 . S
C880 H871 0.930 . S
C880 C878 1.378 . S
C880 C881 1.367 . S
C881 C880 1.367 . S
C881 C883 1.433 . S
C882 C878 1.350 . S
C882 C879 1.463 . S
C882 N886 1.427 . S
C883 H873 0.929 . S
C883 C881 1.433 . S
C883 N886 1.384 . S
C884 H875 0.929 . S
C884 C876 1.378 . S
C884 C879 1.350 . S
C885 H872 0.929 . S
C885 C877 1.433 . S
C885 N887 1.384 . S
N886 C882 1.427 . S
N886 C883 1.384 . S
N887 C879 1.427 . S
N887 C885 1.384 . S
H888 C894 0.930 . S
H889 C898 0.930 . S
H890 C903 0.929 . S
H891 C901 0.929 . S
H892 C896 0.929 . S
H893 C902 0.929 . S
C894 H888 0.930 . S
C894 C895 1.367 . S
C894 C902 1.378 . S
C895 C894 1.367 . S
C895 C903 1.433 . S
C896 H892 0.929 . S
C896 C898 1.378 . S
C896 C900 1.350 . S
C897 C900 1.463 . S
C897 C902 1.350 . S
C897 N905 1.427 . S
C898 H889 0.930 . S
C898 C896 1.378 . S
C898 C899 1.367 . S
C899 C898 1.367 . S
C899 C901 1.433 . S
C900 C896 1.350 . S
C900 C897 1.463 . S
C900 N904 1.427 . S
C901 H891 0.929 . S
C901 C899 1.433 . S
C901 N904 1.384 . S
C902 H893 0.929 . S
C902 C894 1.378 . S
C902 C897 1.350 . S
C903 H890 0.929 . S
C903 C895 1.433 . S
C903 N905 1.384 . S
N904 C900 1.427 . S
N904 C901 1.384 . S
N905 C897 1.427 . S
N905 C903 1.384 . S
H906 C912 0.930 . S
H907 C916 0.930 . S
H908 C921 0.929 . S
H909 C919 0.929 . S
H910 C914 0.929 . S
H911 C920 0.929 . S
C912 H906 0.930 . S
C912 C913 1.367 1_545 S
C912 C920 1.378 . S
C913 C912 1.367 1_565 S
C913 C921 1.433 . S
C914 H910 0.929 . S
C914 C916 1.378 . S
C914 C918 1.350 . S
C915 C918 1.463 . S
C915 C920 1.350 1_565 S
C915 N923 1.427 . S
C916 H907 0.930 . S
C916 C914 1.378 . S
C916 C917 1.367 . S
C917 C916 1.367 . S
C917 C919 1.433 1_565 S
C918 C914 1.350 . S
C918 C915 1.463 . S
C918 N922 1.427 1_565 S
C919 H909 0.929 . S
C919 C917 1.433 1_545 S
C919 N922 1.384 . S
C920 H911 0.929 . S
C920 C912 1.378 . S
C920 C915 1.350 1_545 S
C921 H908 0.929 . S
C921 C913 1.433 . S
C921 N923 1.384 . S
N922 C918 1.427 1_545 S
N922 C919 1.384 . S
N923 C915 1.427 . S
N923 C921 1.384 . S
H924 C930 0.930 . S
H925 C934 0.930 . S
H926 C939 0.929 . S
H927 C937 0.929 . S
H928 C932 0.929 . S
H929 C938 0.929 . S
C930 H924 0.930 . S
C930 C931 1.367 . S
C930 C938 1.378 . S
C931 C930 1.367 . S
C931 C939 1.433 . S
C932 H928 0.929 . S
C932 C934 1.378 . S
C932 C936 1.350 . S
C933 C936 1.463 . S
C933 C938 1.350 . S
C933 N941 1.427 . S
C934 H925 0.930 . S
C934 C932 1.378 . S
C934 C935 1.367 . S
C935 C934 1.367 . S
C935 C937 1.433 . S
C936 C932 1.350 . S
C936 C933 1.463 . S
C936 N940 1.427 . S
C937 H927 0.929 . S
C937 C935 1.433 . S
C937 N940 1.384 . S
C938 H929 0.929 . S
C938 C930 1.378 . S
C938 C933 1.350 . S
C939 H926 0.929 . S
C939 C931 1.433 . S
C939 N941 1.384 . S
N940 C936 1.427 . S
N940 C937 1.384 . S
N941 C933 1.427 . S
N941 C939 1.384 . S
H942 C948 0.930 . S
H943 C952 0.930 . S
H944 C957 0.929 . S
H945 C955 0.929 . S
H946 C950 0.929 . S
H947 C956 0.929 . S
C948 H942 0.930 . S
C948 C949 1.367 1_565 S
C948 C956 1.378 . S
C949 C948 1.367 1_545 S
C949 C957 1.433 . S
C950 H946 0.929 . S
C950 C952 1.378 . S
C950 C954 1.350 . S
C951 C954 1.463 . S
C951 C956 1.350 1_545 S
C951 N959 1.427 . S
C952 H943 0.930 . S
C952 C950 1.378 . S
C952 C953 1.367 . S
C953 C952 1.367 . S
C953 C955 1.433 . S
C954 C950 1.350 . S
C954 C951 1.463 . S
C954 N958 1.427 . S
C955 H945 0.929 . S
C955 C953 1.433 . S
C955 N958 1.384 . S
C956 H947 0.929 . S
C956 C948 1.378 . S
C956 C951 1.350 1_565 S
C957 H944 0.929 . S
C957 C949 1.433 . S
C957 N959 1.384 . S
N958 C954 1.427 . S
N958 C955 1.384 . S
N959 C951 1.427 . S
N959 C957 1.384 . S
H960 C966 0.930 . S
H961 C970 0.930 . S
H962 C975 0.929 . S
H963 C973 0.929 . S
H964 C968 0.929 . S
H965 C974 0.929 . S
C966 H960 0.930 . S
C966 C967 1.367 . S
C966 C974 1.378 . S
C967 C966 1.367 . S
C967 C975 1.433 . S
C968 H964 0.929 . S
C968 C970 1.378 . S
C968 C972 1.350 . S
C969 C972 1.463 . S
C969 C974 1.350 . S
C969 N977 1.427 . S
C970 H961 0.930 . S
C970 C968 1.378 . S
C970 C971 1.367 . S
C971 C970 1.367 . S
C971 C973 1.433 . S
C972 C968 1.350 . S
C972 C969 1.463 . S
C972 N976 1.427 . S
C973 H963 0.929 . S
C973 C971 1.433 . S
C973 N976 1.384 . S
C974 H965 0.929 . S
C974 C966 1.378 . S
C974 C969 1.350 . S
C975 H962 0.929 . S
C975 C967 1.433 . S
C975 N977 1.384 . S
N976 C972 1.427 . S
N976 C973 1.384 . S
N977 C969 1.427 . S
N977 C975 1.384 . S
H978 C984 0.930 . S
H979 C988 0.930 . S
H980 C993 0.929 . S
H981 C991 0.929 . S
H982 C986 0.929 . S
H983 C992 0.929 . S
C984 H978 0.930 . S
C984 C985 1.367 . S
C984 C992 1.378 . S
C985 C984 1.367 . S
C985 C993 1.433 . S
C986 H982 0.929 . S
C986 C988 1.378 . S
C986 C990 1.350 . S
C987 C990 1.463 . S
C987 C992 1.350 . S
C987 N995 1.427 . S
C988 H979 0.930 . S
C988 C986 1.378 . S
C988 C989 1.367 . S
C989 C988 1.367 . S
C989 C991 1.433 . S
C990 C986 1.350 . S
C990 C987 1.463 . S
C990 N994 1.427 . S
C991 H981 0.929 . S
C991 C989 1.433 . S
C991 N994 1.384 . S
C992 H983 0.929 . S
C992 C984 1.378 . S
C992 C987 1.350 . S
C993 H980 0.929 . S
C993 C985 1.433 . S
C993 N995 1.384 . S
N994 C990 1.427 . S
N994 C991 1.384 . S
N995 C987 1.427 . S
N995 C993 1.384 . S
H996 C1002 0.930 . S
H997 C1006 0.930 . S
H998 C1011 0.929 . S
H999 C1009 0.929 . S
H1000 C1004 0.929 . S
H1001 C1010 0.929 . S
C1002 H996 0.930 . S
C1002 C1003 1.367 . S
C1002 C1010 1.378 . S
C1003 C1002 1.367 . S
C1003 C1011 1.433 . S
C1004 H1000 0.929 . S
C1004 C1006 1.378 . S
C1004 C1008 1.350 . S
C1005 C1008 1.463 . S
C1005 C1010 1.350 . S
C1005 N1013 1.427 . S
C1006 H997 0.930 . S
C1006 C1004 1.378 . S
C1006 C1007 1.367 . S
C1007 C1006 1.367 . S
C1007 C1009 1.433 . S
C1008 C1004 1.350 . S
C1008 C1005 1.463 . S
C1008 N1012 1.427 . S
C1009 H999 0.929 . S
C1009 C1007 1.433 . S
C1009 N1012 1.384 . S
C1010 H1001 0.929 . S
C1010 C1002 1.378 . S
C1010 C1005 1.350 . S
C1011 H998 0.929 . S
C1011 C1003 1.433 . S
C1011 N1013 1.384 . S
N1012 C1008 1.427 . S
N1012 C1009 1.384 . S
N1013 C1005 1.427 . S
N1013 C1011 1.384 . S
H1014 C1020 0.930 1_455 S
H1015 C1024 0.930 . S
H1016 C1029 0.929 . S
H1017 C1027 0.929 . S
H1018 C1022 0.929 . S
H1019 C1028 0.929 1_455 S
C1020 H1014 0.930 1_655 S
C1020 C1021 1.367 . S
C1020 C1028 1.378 . S
C1021 C1020 1.367 . S
C1021 C1029 1.433 . S
C1022 H1018 0.929 . S
C1022 C1024 1.378 . S
C1022 C1026 1.350 . S
C1023 C1026 1.463 . S
C1023 C1028 1.350 . S
C1023 N1031 1.427 . S
C1024 H1015 0.930 . S
C1024 C1022 1.378 . S
C1024 C1025 1.367 . S
C1025 C1024 1.367 . S
C1025 C1027 1.433 1_655 S
C1026 C1022 1.350 . S
C1026 C1023 1.463 . S
C1026 N1030 1.427 1_655 S
C1027 H1017 0.929 . S
C1027 C1025 1.433 1_455 S
C1027 N1030 1.384 . S
C1028 H1019 0.929 1_655 S
C1028 C1020 1.378 . S
C1028 C1023 1.350 . S
C1029 H1016 0.929 . S
C1029 C1021 1.433 . S
C1029 N1031 1.384 . S
N1030 C1026 1.427 1_455 S
N1030 C1027 1.384 . S
N1031 C1023 1.427 . S
N1031 C1029 1.384 . S
H1032 C1038 0.930 . S
H1033 C1042 0.930 . S
H1034 C1047 0.929 . S
H1035 C1045 0.929 . S
H1036 C1040 0.929 . S
H1037 C1046 0.929 . S
C1038 H1032 0.930 . S
C1038 C1039 1.367 . S
C1038 C1046 1.378 . S
C1039 C1038 1.367 . S
C1039 C1047 1.433 . S
C1040 H1036 0.929 . S
C1040 C1042 1.378 . S
C1040 C1044 1.350 . S
C1041 C1044 1.463 . S
C1041 C1046 1.350 . S
C1041 N1049 1.427 . S
C1042 H1033 0.930 . S
C1042 C1040 1.378 . S
C1042 C1043 1.367 . S
C1043 C1042 1.367 . S
C1043 C1045 1.433 . S
C1044 C1040 1.350 . S
C1044 C1041 1.463 . S
C1044 N1048 1.427 . S
C1045 H1035 0.929 . S
C1045 C1043 1.433 . S
C1045 N1048 1.384 . S
C1046 H1037 0.929 . S
C1046 C1038 1.378 . S
C1046 C1041 1.350 . S
C1047 H1034 0.929 . S
C1047 C1039 1.433 . S
C1047 N1049 1.384 . S
N1048 C1044 1.427 . S
N1048 C1045 1.384 . S
N1049 C1041 1.427 . S
N1049 C1047 1.384 . S
H1050 C1056 0.930 . S
H1051 C1060 0.930 . S
H1052 C1065 0.929 . S
H1053 C1063 0.929 . S
H1054 C1058 0.929 . S
H1055 C1064 0.929 . S
C1056 H1050 0.930 . S
C1056 C1057 1.367 . S
C1056 C1064 1.378 . S
C1057 C1056 1.367 . S
C1057 C1065 1.433 . S
C1058 H1054 0.929 . S
C1058 C1060 1.378 . S
C1058 C1062 1.350 . S
C1059 C1062 1.463 . S
C1059 C1064 1.350 . S
C1059 N1067 1.427 . S
C1060 H1051 0.930 . S
C1060 C1058 1.378 . S
C1060 C1061 1.367 . S
C1061 C1060 1.367 . S
C1061 C1063 1.433 . S
C1062 C1058 1.350 . S
C1062 C1059 1.463 . S
C1062 N1066 1.427 . S
C1063 H1053 0.929 . S
C1063 C1061 1.433 . S
C1063 N1066 1.384 . S
C1064 H1055 0.929 . S
C1064 C1056 1.378 . S
C1064 C1059 1.350 . S
C1065 H1052 0.929 . S
C1065 C1057 1.433 . S
C1065 N1067 1.384 . S
N1066 C1062 1.427 . S
N1066 C1063 1.384 . S
N1067 C1059 1.427 . S
N1067 C1065 1.384 . S
H1068 C1074 0.930 . S
H1069 C1078 0.930 . S
H1070 C1083 0.929 . S
H1071 C1081 0.929 . S
H1072 C1076 0.929 . S
H1073 C1082 0.929 . S
C1074 H1068 0.930 . S
C1074 C1075 1.367 . S
C1074 C1082 1.378 . S
C1075 C1074 1.367 . S
C1075 C1083 1.433 . S
C1076 H1072 0.929 . S
C1076 C1078 1.378 . S
C1076 C1080 1.350 . S
C1077 C1080 1.463 . S
C1077 C1082 1.350 . S
C1077 N1085 1.427 . S
C1078 H1069 0.930 . S
C1078 C1076 1.378 . S
C1078 C1079 1.367 . S
C1079 C1078 1.367 . S
C1079 C1081 1.433 . S
C1080 C1076 1.350 . S
C1080 C1077 1.463 . S
C1080 N1084 1.427 . S
C1081 H1071 0.929 . S
C1081 C1079 1.433 . S
C1081 N1084 1.384 . S
C1082 H1073 0.929 . S
C1082 C1074 1.378 . S
C1082 C1077 1.350 . S
C1083 H1070 0.929 . S
C1083 C1075 1.433 . S
C1083 N1085 1.384 . S
N1084 C1080 1.427 . S
N1084 C1081 1.384 . S
N1085 C1077 1.427 . S
N1085 C1083 1.384 . S
H1086 C1092 0.930 . S
H1087 C1096 0.930 1_655 S
H1088 C1101 0.929 . S
H1089 C1099 0.929 . S
H1090 C1094 0.900 1_655 S
H1091 C1100 0.929 . S
C1092 H1086 0.930 . S
C1092 C1093 1.367 . S
C1092 C1100 1.378 . S
C1093 C1092 1.367 . S
C1093 C1101 1.433 1_455 S
C1094 H1090 0.900 1_455 S
C1094 C1096 1.385 . S
C1094 C1098 1.373 . S
C1095 C1098 1.463 . S
C1095 C1100 1.350 . S
C1095 N1103 1.427 1_455 S
C1096 H1087 0.930 1_455 S
C1096 C1094 1.385 . S
C1096 C1097 1.367 . S
C1097 C1096 1.367 . S
C1097 C1099 1.433 . S
C1098 C1094 1.373 . S
C1098 C1095 1.463 . S
C1098 N1102 1.427 . S
C1099 H1089 0.929 . S
C1099 C1097 1.433 . S
C1099 N1102 1.384 . S
C1100 H1091 0.929 . S
C1100 C1092 1.378 . S
C1100 C1095 1.350 . S
C1101 H1088 0.929 . S
C1101 C1093 1.433 1_655 S
C1101 N1103 1.384 . S
N1102 C1098 1.427 . S
N1102 C1099 1.384 . S
N1103 C1095 1.427 1_655 S
N1103 C1101 1.384 . S
H1104 C1110 0.930 . S
H1105 C1114 0.930 . S
H1106 C1119 0.929 . S
H1107 C1117 0.929 . S
H1108 C1112 0.929 . S
H1109 C1118 0.929 . S
C1110 H1104 0.930 . S
C1110 C1111 1.367 . S
C1110 C1118 1.378 . S
C1111 C1110 1.367 . S
C1111 C1119 1.433 . S
C1112 H1108 0.929 . S
C1112 C1114 1.378 . S
C1112 C1116 1.350 . S
C1113 C1116 1.463 . S
C1113 C1118 1.350 . S
C1113 N1121 1.427 . S
C1114 H1105 0.930 . S
C1114 C1112 1.378 . S
C1114 C1115 1.367 . S
C1115 C1114 1.367 . S
C1115 C1117 1.433 . S
C1116 C1112 1.350 . S
C1116 C1113 1.463 . S
C1116 N1120 1.427 . S
C1117 H1107 0.929 . S
C1117 C1115 1.433 . S
C1117 N1120 1.384 . S
C1118 H1109 0.929 . S
C1118 C1110 1.378 . S
C1118 C1113 1.350 . S
C1119 H1106 0.929 . S
C1119 C1111 1.433 . S
C1119 N1121 1.384 . S
N1120 C1116 1.427 . S
N1120 C1117 1.384 . S
N1121 C1113 1.427 . S
N1121 C1119 1.384 . S
H1122 C1128 0.930 . S
H1123 C1132 0.930 . S
H1124 C1137 0.929 . S
H1125 C1135 0.929 . S
H1126 C1130 0.929 . S
H1127 C1136 0.929 . S
C1128 H1122 0.930 . S
C1128 C1129 1.367 . S
C1128 C1136 1.378 . S
C1129 C1128 1.367 . S
C1129 C1137 1.433 . S
C1130 H1126 0.929 . S
C1130 C1132 1.378 . S
C1130 C1134 1.350 . S
C1131 C1134 1.463 . S
C1131 C1136 1.350 . S
C1131 N1139 1.427 . S
C1132 H1123 0.930 . S
C1132 C1130 1.378 . S
C1132 C1133 1.367 . S
C1133 C1132 1.367 . S
C1133 C1135 1.433 . S
C1134 C1130 1.350 . S
C1134 C1131 1.463 . S
C1134 N1138 1.427 . S
C1135 H1125 0.929 . S
C1135 C1133 1.433 . S
C1135 N1138 1.384 . S
C1136 H1127 0.929 . S
C1136 C1128 1.378 . S
C1136 C1131 1.350 . S
C1137 H1124 0.929 . S
C1137 C1129 1.433 . S
C1137 N1139 1.384 . S
N1138 C1134 1.427 . S
N1138 C1135 1.384 . S
N1139 C1131 1.427 . S
N1139 C1137 1.384 . S
H1140 C1146 0.930 . S
H1141 C1150 0.930 . S
H1142 C1155 0.929 . S
H1143 C1153 0.929 . S
H1144 C1148 0.929 . S
H1145 C1154 0.929 . S
C1146 H1140 0.930 . S
C1146 C1147 1.367 . S
C1146 C1154 1.378 . S
C1147 C1146 1.367 . S
C1147 C1155 1.433 . S
C1148 H1144 0.929 . S
C1148 C1150 1.378 . S
C1148 C1152 1.350 . S
C1149 C1152 1.463 . S
C1149 C1154 1.350 . S
C1149 N1157 1.427 . S
C1150 H1141 0.930 . S
C1150 C1148 1.378 . S
C1150 C1151 1.367 . S
C1151 C1150 1.367 . S
C1151 C1153 1.433 . S
C1152 C1148 1.350 . S
C1152 C1149 1.463 . S
C1152 N1156 1.427 . S
C1153 H1143 0.929 . S
C1153 C1151 1.433 . S
C1153 N1156 1.384 . S
C1154 H1145 0.929 . S
C1154 C1146 1.378 . S
C1154 C1149 1.350 . S
C1155 H1142 0.929 . S
C1155 C1147 1.433 . S
C1155 N1157 1.384 . S
N1156 C1152 1.427 . S
N1156 C1153 1.384 . S
N1157 C1149 1.427 . S
N1157 C1155 1.384 . S
H1158 C1164 0.930 . S
H1159 C1168 0.930 . S
H1160 C1173 0.929 . S
H1161 C1171 0.929 . S
H1162 C1166 0.929 . S
H1163 C1172 0.929 . S
C1164 H1158 0.930 . S
C1164 C1165 1.367 . S
C1164 C1172 1.378 . S
C1165 C1164 1.367 . S
C1165 C1173 1.433 . S
C1166 H1162 0.929 . S
C1166 C1168 1.378 . S
C1166 C1170 1.350 . S
C1167 C1170 1.463 . S
C1167 C1172 1.350 . S
C1167 N1175 1.427 . S
C1168 H1159 0.930 . S
C1168 C1166 1.378 . S
C1168 C1169 1.367 . S
C1169 C1168 1.367 . S
C1169 C1171 1.433 . S
C1170 C1166 1.350 . S
C1170 C1167 1.463 . S
C1170 N1174 1.427 . S
C1171 H1161 0.929 . S
C1171 C1169 1.433 . S
C1171 N1174 1.384 . S
C1172 H1163 0.929 . S
C1172 C1164 1.378 . S
C1172 C1167 1.350 . S
C1173 H1160 0.929 . S
C1173 C1165 1.433 . S
C1173 N1175 1.384 . S
N1174 C1170 1.427 . S
N1174 C1171 1.384 . S
N1175 C1167 1.427 . S
N1175 C1173 1.384 . S
H1176 C1182 0.930 . S
H1177 C1186 0.932 1_556 S
H1178 C1191 0.929 . S
H1179 C1189 0.929 . S
H1180 C1184 0.929 1_556 S
H1181 C1190 0.929 . S
C1182 H1176 0.930 . S
C1182 C1183 1.367 . S
C1182 C1190 1.378 . S
C1183 C1182 1.367 . S
C1183 C1191 1.433 1_554 S
C1184 H1180 0.929 1_554 S
C1184 C1186 1.378 . S
C1184 C1188 1.350 . S
C1185 C1188 1.463 . S
C1185 C1190 1.350 . S
C1185 N1193 1.427 1_554 S
C1186 H1177 0.932 1_554 S
C1186 C1184 1.378 . S
C1186 C1187 1.367 . S
C1187 C1186 1.367 . S
C1187 C1189 1.433 . S
C1188 C1184 1.350 . S
C1188 C1185 1.463 . S
C1188 N1192 1.427 . S
C1189 H1179 0.929 . S
C1189 C1187 1.433 . S
C1189 N1192 1.384 . S
C1190 H1181 0.929 . S
C1190 C1182 1.378 . S
C1190 C1185 1.350 . S
C1191 H1178 0.929 . S
C1191 C1183 1.433 1_556 S
C1191 N1193 1.384 . S
N1192 C1188 1.427 . S
N1192 C1189 1.384 . S
N1193 C1185 1.427 1_556 S
N1193 C1191 1.384 . S
H1194 C1200 0.930 . S
H1195 C1204 0.930 . S
H1196 C1209 0.929 . S
H1197 C1207 0.929 . S
H1198 C1202 0.929 . S
H1199 C1208 0.929 . S
C1200 H1194 0.930 . S
C1200 C1201 1.367 . S
C1200 C1208 1.378 . S
C1201 C1200 1.367 . S
C1201 C1209 1.433 . S
C1202 H1198 0.929 . S
C1202 C1204 1.378 . S
C1202 C1206 1.350 . S
C1203 C1206 1.463 . S
C1203 C1208 1.350 . S
C1203 N1211 1.427 . S
C1204 H1195 0.930 . S
C1204 C1202 1.378 . S
C1204 C1205 1.367 . S
C1205 C1204 1.367 . S
C1205 C1207 1.433 . S
C1206 C1202 1.350 . S
C1206 C1203 1.463 . S
C1206 N1210 1.427 . S
C1207 H1197 0.929 . S
C1207 C1205 1.433 . S
C1207 N1210 1.384 . S
C1208 H1199 0.929 . S
C1208 C1200 1.378 . S
C1208 C1203 1.350 . S
C1209 H1196 0.929 . S
C1209 C1201 1.433 . S
C1209 N1211 1.384 . S
N1210 C1206 1.427 . S
N1210 C1207 1.384 . S
N1211 C1203 1.427 . S
N1211 C1209 1.384 . S
H1212 C1218 0.930 . S
H1213 C1222 0.930 . S
H1214 C1227 0.929 . S
H1215 C1225 0.929 . S
H1216 C1220 0.929 . S
H1217 C1226 0.929 . S
C1218 H1212 0.930 . S
C1218 C1219 1.367 . S
C1218 C1226 1.378 . S
C1219 C1218 1.367 . S
C1219 C1227 1.433 . S
C1220 H1216 0.929 . S
C1220 C1222 1.378 . S
C1220 C1224 1.350 . S
C1221 C1224 1.463 . S
C1221 C1226 1.350 . S
C1221 N1229 1.427 . S
C1222 H1213 0.930 . S
C1222 C1220 1.378 . S
C1222 C1223 1.367 . S
C1223 C1222 1.367 . S
C1223 C1225 1.433 . S
C1224 C1220 1.350 . S
C1224 C1221 1.463 . S
C1224 N1228 1.427 . S
C1225 H1215 0.929 . S
C1225 C1223 1.433 . S
C1225 N1228 1.384 . S
C1226 H1217 0.929 . S
C1226 C1218 1.378 . S
C1226 C1221 1.350 . S
C1227 H1214 0.929 . S
C1227 C1219 1.433 . S
C1227 N1229 1.384 . S
N1228 C1224 1.427 . S
N1228 C1225 1.384 . S
N1229 C1221 1.427 . S
N1229 C1227 1.384 . S
H1230 C1236 0.939 . S
H1231 C1240 0.930 . S
H1232 C1245 0.929 . S
H1233 C1243 0.929 . S
H1234 C1238 0.929 . S
H1235 C1244 0.929 . S
C1236 H1230 0.939 . S
C1236 C1237 1.356 1_554 S
C1236 C1244 1.380 . S
C1237 C1236 1.356 1_556 S
C1237 C1245 1.433 . S
C1238 H1234 0.929 . S
C1238 C1240 1.378 . S
C1238 C1242 1.350 . S
C1239 C1242 1.463 . S
C1239 C1244 1.350 1_556 S
C1239 N1247 1.427 . S
C1240 H1231 0.930 . S
C1240 C1238 1.378 . S
C1240 C1241 1.367 . S
C1241 C1240 1.367 . S
C1241 C1243 1.433 1_556 S
C1242 C1238 1.350 . S
C1242 C1239 1.463 . S
C1242 N1246 1.427 1_556 S
C1243 H1233 0.929 . S
C1243 C1241 1.433 1_554 S
C1243 N1246 1.384 . S
C1244 H1235 0.929 . S
C1244 C1236 1.380 . S
C1244 C1239 1.350 1_554 S
C1245 H1232 0.929 . S
C1245 C1237 1.433 . S
C1245 N1247 1.384 . S
N1246 C1242 1.427 1_554 S
N1246 C1243 1.384 . S
N1247 C1239 1.427 . S
N1247 C1245 1.384 . S
H1248 C1254 0.930 . S
H1249 C1258 0.930 . S
H1250 C1263 0.929 . S
H1251 C1261 0.929 . S
H1252 C1256 0.929 . S
H1253 C1262 0.929 . S
C1254 H1248 0.930 . S
C1254 C1255 1.367 . S
C1254 C1262 1.378 . S
C1255 C1254 1.367 . S
C1255 C1263 1.433 . S
C1256 H1252 0.929 . S
C1256 C1258 1.378 . S
C1256 C1260 1.350 . S
C1257 C1260 1.463 . S
C1257 C1262 1.350 . S
C1257 N1265 1.427 . S
C1258 H1249 0.930 . S
C1258 C1256 1.378 . S
C1258 C1259 1.367 . S
C1259 C1258 1.367 . S
C1259 C1261 1.433 . S
C1260 C1256 1.350 . S
C1260 C1257 1.463 . S
C1260 N1264 1.427 . S
C1261 H1251 0.929 . S
C1261 C1259 1.433 . S
C1261 N1264 1.384 . S
C1262 H1253 0.929 . S
C1262 C1254 1.378 . S
C1262 C1257 1.350 . S
C1263 H1250 0.929 . S
C1263 C1255 1.433 . S
C1263 N1265 1.384 . S
N1264 C1260 1.427 . S
N1264 C1261 1.384 . S
N1265 C1257 1.427 . S
N1265 C1263 1.384 . S
H1266 C1272 0.930 . S
H1267 C1276 0.930 . S
H1268 C1281 0.929 . S
H1269 C1279 0.929 . S
H1270 C1274 0.929 . S
H1271 C1280 0.929 . S
C1272 H1266 0.930 . S
C1272 C1273 1.367 . S
C1272 C1280 1.378 . S
C1273 C1272 1.367 . S
C1273 C1281 1.433 . S
C1274 H1270 0.929 . S
C1274 C1276 1.378 . S
C1274 C1278 1.350 . S
C1275 C1278 1.463 . S
C1275 C1280 1.350 . S
C1275 N1283 1.427 . S
C1276 H1267 0.930 . S
C1276 C1274 1.378 . S
C1276 C1277 1.367 . S
C1277 C1276 1.367 . S
C1277 C1279 1.433 . S
C1278 C1274 1.350 . S
C1278 C1275 1.463 . S
C1278 N1282 1.427 . S
C1279 H1269 0.929 . S
C1279 C1277 1.433 . S
C1279 N1282 1.384 . S
C1280 H1271 0.929 . S
C1280 C1272 1.378 . S
C1280 C1275 1.350 . S
C1281 H1268 0.929 . S
C1281 C1273 1.433 . S
C1281 N1283 1.384 . S
N1282 C1278 1.427 . S
N1282 C1279 1.384 . S
N1283 C1275 1.427 . S
N1283 C1281 1.384 . S
H1284 C1290 0.930 . S
H1285 C1294 0.930 . S
H1286 C1299 0.929 . S
H1287 C1297 0.929 . S
H1288 C1292 0.929 . S
H1289 C1298 0.929 . S
C1290 H1284 0.930 . S
C1290 C1291 1.367 . S
C1290 C1298 1.378 . S
C1291 C1290 1.367 . S
C1291 C1299 1.433 . S
C1292 H1288 0.929 . S
C1292 C1294 1.378 . S
C1292 C1296 1.350 . S
C1293 C1296 1.463 . S
C1293 C1298 1.350 . S
C1293 N1301 1.427 . S
C1294 H1285 0.930 . S
C1294 C1292 1.378 . S
C1294 C1295 1.367 . S
C1295 C1294 1.367 . S
C1295 C1297 1.433 . S
C1296 C1292 1.350 . S
C1296 C1293 1.463 . S
C1296 N1300 1.427 . S
C1297 H1287 0.929 . S
C1297 C1295 1.433 . S
C1297 N1300 1.384 . S
C1298 H1289 0.929 . S
C1298 C1290 1.378 . S
C1298 C1293 1.350 . S
C1299 H1286 0.929 . S
C1299 C1291 1.433 . S
C1299 N1301 1.384 . S
N1300 C1296 1.427 . S
N1300 C1297 1.384 . S
N1301 C1293 1.427 . S
N1301 C1299 1.384 . S
H1302 C1308 0.930 . S
H1303 C1312 0.930 . S
H1304 C1317 0.929 . S
H1305 C1315 0.929 . S
H1306 C1310 0.929 . S
H1307 C1316 0.929 . S
C1308 H1302 0.930 . S
C1308 C1309 1.367 . S
C1308 C1316 1.378 . S
C1309 C1308 1.367 . S
C1309 C1317 1.433 . S
C1310 H1306 0.929 . S
C1310 C1312 1.378 . S
C1310 C1314 1.350 . S
C1311 C1314 1.463 . S
C1311 C1316 1.350 . S
C1311 N1319 1.427 . S
C1312 H1303 0.930 . S
C1312 C1310 1.378 . S
C1312 C1313 1.367 . S
C1313 C1312 1.367 . S
C1313 C1315 1.433 . S
C1314 C1310 1.350 . S
C1314 C1311 1.463 . S
C1314 N1318 1.427 . S
C1315 H1305 0.929 . S
C1315 C1313 1.433 . S
C1315 N1318 1.384 . S
C1316 H1307 0.929 . S
C1316 C1308 1.378 . S
C1316 C1311 1.350 . S
C1317 H1304 0.929 . S
C1317 C1309 1.433 . S
C1317 N1319 1.384 . S
N1318 C1314 1.427 . S
N1318 C1315 1.384 . S
N1319 C1311 1.427 . S
N1319 C1317 1.384 . S
H1320 C1326 0.930 . S
H1321 C1330 0.930 . S
H1322 C1335 0.929 . S
H1323 C1333 0.929 . S
H1324 C1328 0.929 . S
H1325 C1334 0.929 . S
C1326 H1320 0.930 . S
C1326 C1327 1.367 . S
C1326 C1334 1.378 . S
C1327 C1326 1.367 . S
C1327 C1335 1.433 . S
C1328 H1324 0.929 . S
C1328 C1330 1.378 . S
C1328 C1332 1.350 . S
C1329 C1332 1.463 . S
C1329 C1334 1.350 . S
C1329 N1337 1.427 . S
C1330 H1321 0.930 . S
C1330 C1328 1.378 . S
C1330 C1331 1.367 . S
C1331 C1330 1.367 . S
C1331 C1333 1.433 . S
C1332 C1328 1.350 . S
C1332 C1329 1.463 . S
C1332 N1336 1.427 . S
C1333 H1323 0.929 . S
C1333 C1331 1.433 . S
C1333 N1336 1.384 . S
C1334 H1325 0.929 . S
C1334 C1326 1.378 . S
C1334 C1329 1.350 . S
C1335 H1322 0.929 . S
C1335 C1327 1.433 . S
C1335 N1337 1.384 . S
N1336 C1332 1.427 . S
N1336 C1333 1.384 . S
N1337 C1329 1.427 . S
N1337 C1335 1.384 . S
H1338 C1344 0.930 . S
H1339 C1348 0.930 . S
H1340 C1353 0.929 . S
H1341 C1351 0.929 . S
H1342 C1346 0.929 . S
H1343 C1352 0.929 . S
C1344 H1338 0.930 . S
C1344 C1345 1.367 . S
C1344 C1352 1.378 . S
C1345 C1344 1.367 . S
C1345 C1353 1.433 . S
C1346 H1342 0.929 . S
C1346 C1348 1.378 . S
C1346 C1350 1.350 . S
C1347 C1350 1.463 . S
C1347 C1352 1.350 . S
C1347 N1355 1.427 . S
C1348 H1339 0.930 . S
C1348 C1346 1.378 . S
C1348 C1349 1.367 . S
C1349 C1348 1.367 . S
C1349 C1351 1.433 . S
C1350 C1346 1.350 . S
C1350 C1347 1.463 . S
C1350 N1354 1.427 . S
C1351 H1341 0.929 . S
C1351 C1349 1.433 . S
C1351 N1354 1.384 . S
C1352 H1343 0.929 . S
C1352 C1344 1.378 . S
C1352 C1347 1.350 . S
C1353 H1340 0.929 . S
C1353 C1345 1.433 . S
C1353 N1355 1.384 . S
N1354 C1350 1.427 . S
N1354 C1351 1.384 . S
N1355 C1347 1.427 . S
N1355 C1353 1.384 . S
H1356 C1362 0.930 . S
H1357 C1366 0.930 . S
H1358 C1371 0.929 . S
H1359 C1369 0.929 . S
H1360 C1364 0.929 . S
H1361 C1370 0.929 . S
C1362 H1356 0.930 . S
C1362 C1363 1.367 . S
C1362 C1370 1.378 . S
C1363 C1362 1.367 . S
C1363 C1371 1.433 . S
C1364 H1360 0.929 . S
C1364 C1366 1.378 . S
C1364 C1368 1.350 . S
C1365 C1368 1.463 . S
C1365 C1370 1.350 . S
C1365 N1373 1.427 . S
C1366 H1357 0.930 . S
C1366 C1364 1.378 . S
C1366 C1367 1.367 . S
C1367 C1366 1.367 . S
C1367 C1369 1.433 . S
C1368 C1364 1.350 . S
C1368 C1365 1.463 . S
C1368 N1372 1.427 . S
C1369 H1359 0.929 . S
C1369 C1367 1.433 . S
C1369 N1372 1.384 . S
C1370 H1361 0.929 . S
C1370 C1362 1.378 . S
C1370 C1365 1.350 . S
C1371 H1358 0.929 . S
C1371 C1363 1.433 . S
C1371 N1373 1.384 . S
N1372 C1368 1.427 . S
N1372 C1369 1.384 . S
N1373 C1365 1.427 . S
N1373 C1371 1.384 . S
H1374 C1380 0.930 . S
H1375 C1384 0.930 . S
H1376 C1389 0.929 . S
H1377 C1387 0.929 . S
H1378 C1382 0.929 . S
H1379 C1388 0.929 . S
C1380 H1374 0.930 . S
C1380 C1381 1.367 . S
C1380 C1388 1.378 . S
C1381 C1380 1.367 . S
C1381 C1389 1.433 . S
C1382 H1378 0.929 . S
C1382 C1384 1.378 . S
C1382 C1386 1.350 . S
C1383 C1386 1.463 . S
C1383 C1388 1.350 . S
C1383 N1391 1.427 . S
C1384 H1375 0.930 . S
C1384 C1382 1.378 . S
C1384 C1385 1.367 . S
C1385 C1384 1.367 . S
C1385 C1387 1.433 . S
C1386 C1382 1.350 . S
C1386 C1383 1.463 . S
C1386 N1390 1.427 . S
C1387 H1377 0.929 . S
C1387 C1385 1.433 . S
C1387 N1390 1.384 . S
C1388 H1379 0.929 . S
C1388 C1380 1.378 . S
C1388 C1383 1.350 . S
C1389 H1376 0.929 . S
C1389 C1381 1.433 . S
C1389 N1391 1.384 . S
N1390 C1386 1.427 . S
N1390 C1387 1.384 . S
N1391 C1383 1.427 . S
N1391 C1389 1.384 . S
H1392 C1398 0.930 . S
H1393 C1402 0.930 . S
H1394 C1407 0.929 . S
H1395 C1405 0.929 . S
H1396 C1400 0.929 . S
H1397 C1406 0.929 . S
C1398 H1392 0.930 . S
C1398 C1399 1.367 . S
C1398 C1406 1.378 . S
C1399 C1398 1.367 . S
C1399 C1407 1.433 . S
C1400 H1396 0.929 . S
C1400 C1402 1.378 . S
C1400 C1404 1.350 . S
C1401 C1404 1.463 . S
C1401 C1406 1.350 . S
C1401 N1409 1.427 . S
C1402 H1393 0.930 . S
C1402 C1400 1.378 . S
C1402 C1403 1.367 . S
C1403 C1402 1.367 . S
C1403 C1405 1.433 . S
C1404 C1400 1.350 . S
C1404 C1401 1.463 . S
C1404 N1408 1.427 . S
C1405 H1395 0.929 . S
C1405 C1403 1.433 . S
C1405 N1408 1.384 . S
C1406 H1397 0.929 . S
C1406 C1398 1.378 . S
C1406 C1401 1.350 . S
C1407 H1394 0.929 . S
C1407 C1399 1.433 . S
C1407 N1409 1.384 . S
N1408 C1404 1.427 . S
N1408 C1405 1.384 . S
N1409 C1401 1.427 . S
N1409 C1407 1.384 . S
H1410 C1416 0.930 . S
H1411 C1420 0.930 . S
H1412 C1425 0.929 . S
H1413 C1423 0.929 . S
H1414 C1418 0.929 . S
H1415 C1424 0.929 . S
C1416 H1410 0.930 . S
C1416 C1417 1.367 . S
C1416 C1424 1.378 . S
C1417 C1416 1.367 . S
C1417 C1425 1.433 . S
C1418 H1414 0.929 . S
C1418 C1420 1.378 . S
C1418 C1422 1.350 . S
C1419 C1422 1.463 . S
C1419 C1424 1.350 . S
C1419 N1427 1.427 . S
C1420 H1411 0.930 . S
C1420 C1418 1.378 . S
C1420 C1421 1.367 . S
C1421 C1420 1.367 . S
C1421 C1423 1.433 . S
C1422 C1418 1.350 . S
C1422 C1419 1.463 . S
C1422 N1426 1.427 . S
C1423 H1413 0.929 . S
C1423 C1421 1.433 . S
C1423 N1426 1.384 . S
C1424 H1415 0.929 . S
C1424 C1416 1.378 . S
C1424 C1419 1.350 . S
C1425 H1412 0.929 . S
C1425 C1417 1.433 . S
C1425 N1427 1.384 . S
N1426 C1422 1.427 . S
N1426 C1423 1.384 . S
N1427 C1419 1.427 . S
N1427 C1425 1.384 . S
H1428 C1434 0.930 . S
H1429 C1438 0.930 . S
H1430 C1443 0.929 . S
H1431 C1441 0.929 . S
H1432 C1436 0.929 . S
H1433 C1442 0.929 . S
C1434 H1428 0.930 . S
C1434 C1435 1.367 . S
C1434 C1442 1.378 . S
C1435 C1434 1.367 . S
C1435 C1443 1.433 . S
C1436 H1432 0.929 . S
C1436 C1438 1.378 . S
C1436 C1440 1.350 . S
C1437 C1440 1.463 . S
C1437 C1442 1.350 . S
C1437 N1445 1.427 . S
C1438 H1429 0.930 . S
C1438 C1436 1.378 . S
C1438 C1439 1.367 . S
C1439 C1438 1.367 . S
C1439 C1441 1.433 . S
C1440 C1436 1.350 . S
C1440 C1437 1.463 . S
C1440 N1444 1.427 . S
C1441 H1431 0.929 . S
C1441 C1439 1.433 . S
C1441 N1444 1.384 . S
C1442 H1433 0.929 . S
C1442 C1434 1.378 . S
C1442 C1437 1.350 . S
C1443 H1430 0.929 . S
C1443 C1435 1.433 . S
C1443 N1445 1.384 . S
N1444 C1440 1.427 . S
N1444 C1441 1.384 . S
N1445 C1437 1.427 . S
N1445 C1443 1.384 . S
H1446 C1452 0.930 . S
H1447 C1456 0.930 . S
H1448 C1461 0.929 . S
H1449 C1459 0.929 . S
H1450 C1454 0.929 . S
H1451 C1460 0.929 . S
C1452 H1446 0.930 . S
C1452 C1453 1.367 . S
C1452 C1460 1.378 . S
C1453 C1452 1.367 . S
C1453 C1461 1.433 . S
C1454 H1450 0.929 . S
C1454 C1456 1.378 . S
C1454 C1458 1.350 . S
C1455 C1458 1.463 . S
C1455 C1460 1.350 . S
C1455 N1463 1.427 . S
C1456 H1447 0.930 . S
C1456 C1454 1.378 . S
C1456 C1457 1.367 . S
C1457 C1456 1.367 . S
C1457 C1459 1.433 . S
C1458 C1454 1.350 . S
C1458 C1455 1.463 . S
C1458 N1462 1.427 . S
C1459 H1449 0.929 . S
C1459 C1457 1.433 . S
C1459 N1462 1.384 . S
C1460 H1451 0.929 . S
C1460 C1452 1.378 . S
C1460 C1455 1.350 . S
C1461 H1448 0.929 . S
C1461 C1453 1.433 . S
C1461 N1463 1.384 . S
N1462 C1458 1.427 . S
N1462 C1459 1.384 . S
N1463 C1455 1.427 . S
N1463 C1461 1.384 . S
H1464 C1470 0.930 . S
H1465 C1474 0.930 . S
H1466 C1479 0.929 . S
H1467 C1477 0.929 . S
H1468 C1472 0.929 . S
H1469 C1478 0.929 . S
C1470 H1464 0.930 . S
C1470 C1471 1.367 . S
C1470 C1478 1.378 . S
C1471 C1470 1.367 . S
C1471 C1479 1.433 . S
C1472 H1468 0.929 . S
C1472 C1474 1.378 . S
C1472 C1476 1.350 . S
C1473 C1476 1.463 . S
C1473 C1478 1.350 . S
C1473 N1481 1.427 . S
C1474 H1465 0.930 . S
C1474 C1472 1.378 . S
C1474 C1475 1.367 . S
C1475 C1474 1.367 . S
C1475 C1477 1.433 . S
C1476 C1472 1.350 . S
C1476 C1473 1.463 . S
C1476 N1480 1.427 . S
C1477 H1467 0.929 . S
C1477 C1475 1.433 . S
C1477 N1480 1.384 . S
C1478 H1469 0.929 . S
C1478 C1470 1.378 . S
C1478 C1473 1.350 . S
C1479 H1466 0.929 . S
C1479 C1471 1.433 . S
C1479 N1481 1.384 . S
N1480 C1476 1.427 . S
N1480 C1477 1.384 . S
N1481 C1473 1.427 . S
N1481 C1479 1.384 . S
H1482 C1488 0.930 . S
H1483 C1492 0.930 . S
H1484 C1497 0.929 . S
H1485 C1495 0.929 . S
H1486 C1490 0.929 . S
H1487 C1496 0.929 . S
C1488 H1482 0.930 . S
C1488 C1489 1.367 . S
C1488 C1496 1.378 . S
C1489 C1488 1.367 . S
C1489 C1497 1.433 . S
C1490 H1486 0.929 . S
C1490 C1492 1.378 . S
C1490 C1494 1.350 . S
C1491 C1494 1.463 . S
C1491 C1496 1.350 . S
C1491 N1499 1.427 . S
C1492 H1483 0.930 . S
C1492 C1490 1.378 . S
C1492 C1493 1.367 . S
C1493 C1492 1.367 . S
C1493 C1495 1.433 . S
C1494 C1490 1.350 . S
C1494 C1491 1.463 . S
C1494 N1498 1.427 . S
C1495 H1485 0.929 . S
C1495 C1493 1.433 . S
C1495 N1498 1.384 . S
C1496 H1487 0.929 . S
C1496 C1488 1.378 . S
C1496 C1491 1.350 . S
C1497 H1484 0.929 . S
C1497 C1489 1.433 . S
C1497 N1499 1.384 . S
N1498 C1494 1.427 . S
N1498 C1495 1.384 . S
N1499 C1491 1.427 . S
N1499 C1497 1.384 . S
H1500 C1506 0.930 . S
H1501 C1510 0.930 . S
H1502 C1515 0.929 . S
H1503 C1513 0.922 1_556 S
H1504 C1508 0.929 . S
H1505 C1514 0.929 . S
C1506 H1500 0.930 . S
C1506 C1507 1.367 1_556 S
C1506 C1514 1.378 . S
C1507 C1506 1.367 1_554 S
C1507 C1515 1.433 . S
C1508 H1504 0.929 . S
C1508 C1510 1.378 . S
C1508 C1512 1.350 . S
C1509 C1512 1.463 . S
C1509 C1514 1.350 1_554 S
C1509 N1517 1.427 . S
C1510 H1501 0.930 . S
C1510 C1508 1.378 . S
C1510 C1511 1.367 . S
C1511 C1510 1.367 . S
C1511 C1513 1.442 . S
C1512 C1508 1.350 . S
C1512 C1509 1.463 . S
C1512 N1516 1.427 1_554 S
C1513 H1503 0.922 1_554 S
C1513 C1511 1.442 . S
C1513 N1516 1.382 1_554 S
C1514 H1505 0.929 . S
C1514 C1506 1.378 . S
C1514 C1509 1.350 1_556 S
C1515 H1502 0.929 . S
C1515 C1507 1.433 . S
C1515 N1517 1.384 . S
N1516 C1512 1.427 1_556 S
N1516 C1513 1.382 1_556 S
N1517 C1509 1.427 . S
N1517 C1515 1.384 . S
H1518 C1524 0.930 . S
H1519 C1528 0.930 . S
H1520 C1533 0.929 . S
H1521 C1531 0.929 . S
H1522 C1526 0.929 . S
H1523 C1532 0.929 . S
C1524 H1518 0.930 . S
C1524 C1525 1.367 . S
C1524 C1532 1.378 . S
C1525 C1524 1.367 . S
C1525 C1533 1.433 . S
C1526 H1522 0.929 . S
C1526 C1528 1.378 . S
C1526 C1530 1.350 1_655 S
C1527 C1530 1.463 . S
C1527 C1532 1.350 . S
C1527 N1535 1.427 . S
C1528 H1519 0.930 . S
C1528 C1526 1.378 . S
C1528 C1529 1.367 . S
C1529 C1528 1.367 . S
C1529 C1531 1.433 1_655 S
C1530 C1526 1.350 1_455 S
C1530 C1527 1.463 . S
C1530 N1534 1.427 . S
C1531 H1521 0.929 . S
C1531 C1529 1.433 1_455 S
C1531 N1534 1.384 . S
C1532 H1523 0.929 . S
C1532 C1524 1.378 . S
C1532 C1527 1.350 . S
C1533 H1520 0.929 . S
C1533 C1525 1.433 . S
C1533 N1535 1.384 . S
N1534 C1530 1.427 . S
N1534 C1531 1.384 . S
N1535 C1527 1.427 . S
N1535 C1533 1.384 . S
H1536 C1542 0.930 . S
H1537 C1546 0.930 . S
H1538 C1551 0.929 . S
H1539 C1549 0.929 . S
H1540 C1544 0.929 . S
H1541 C1550 0.929 . S
C1542 H1536 0.930 . S
C1542 C1543 1.367 . S
C1542 C1550 1.378 . S
C1543 C1542 1.367 . S
C1543 C1551 1.433 . S
C1544 H1540 0.929 . S
C1544 C1546 1.378 . S
C1544 C1548 1.350 . S
C1545 C1548 1.463 . S
C1545 C1550 1.350 . S
C1545 N1553 1.427 . S
C1546 H1537 0.930 . S
C1546 C1544 1.378 . S
C1546 C1547 1.367 . S
C1547 C1546 1.367 . S
C1547 C1549 1.433 . S
C1548 C1544 1.350 . S
C1548 C1545 1.463 . S
C1548 N1552 1.427 . S
C1549 H1539 0.929 . S
C1549 C1547 1.433 . S
C1549 N1552 1.384 . S
C1550 H1541 0.929 . S
C1550 C1542 1.378 . S
C1550 C1545 1.350 . S
C1551 H1538 0.929 . S
C1551 C1543 1.433 . S
C1551 N1553 1.384 . S
N1552 C1548 1.427 . S
N1552 C1549 1.384 . S
N1553 C1545 1.427 . S
N1553 C1551 1.384 . S
H1554 C1560 0.930 . S
H1555 C1564 0.930 . S
H1556 C1569 0.929 . S
H1557 C1567 0.929 . S
H1558 C1562 0.929 . S
H1559 C1568 0.929 . S
C1560 H1554 0.930 . S
C1560 C1561 1.367 . S
C1560 C1568 1.378 . S
C1561 C1560 1.367 . S
C1561 C1569 1.433 . S
C1562 H1558 0.929 . S
C1562 C1564 1.378 . S
C1562 C1566 1.350 . S
C1563 C1566 1.463 . S
C1563 C1568 1.350 . S
C1563 N1571 1.427 . S
C1564 H1555 0.930 . S
C1564 C1562 1.378 . S
C1564 C1565 1.367 . S
C1565 C1564 1.367 . S
C1565 C1567 1.433 . S
C1566 C1562 1.350 . S
C1566 C1563 1.463 . S
C1566 N1570 1.427 . S
C1567 H1557 0.929 . S
C1567 C1565 1.433 . S
C1567 N1570 1.384 . S
C1568 H1559 0.929 . S
C1568 C1560 1.378 . S
C1568 C1563 1.350 . S
C1569 H1556 0.929 . S
C1569 C1561 1.433 . S
C1569 N1571 1.384 . S
N1570 C1566 1.427 . S
N1570 C1567 1.384 . S
N1571 C1563 1.427 . S
N1571 C1569 1.384 . S
H1572 C1578 0.930 . S
H1573 C1582 0.930 . S
H1574 C1587 0.929 . S
H1575 C1585 0.929 . S
H1576 C1580 0.929 . S
H1577 C1586 0.929 1_554 S
C1578 H1572 0.930 . S
C1578 C1579 1.367 1_554 S
C1578 C1586 1.378 1_554 S
C1579 C1578 1.367 1_556 S
C1579 C1587 1.433 . S
C1580 H1576 0.929 . S
C1580 C1582 1.378 . S
C1580 C1584 1.350 . S
C1581 C1584 1.463 . S
C1581 C1586 1.350 . S
C1581 N1589 1.427 . S
C1582 H1573 0.930 . S
C1582 C1580 1.378 . S
C1582 C1583 1.367 . S
C1583 C1582 1.367 . S
C1583 C1585 1.433 . S
C1584 C1580 1.350 . S
C1584 C1581 1.463 . S
C1584 N1588 1.427 . S
C1585 H1575 0.929 . S
C1585 C1583 1.433 . S
C1585 N1588 1.384 . S
C1586 H1577 0.929 1_556 S
C1586 C1578 1.378 1_556 S
C1586 C1581 1.350 . S
C1587 H1574 0.929 . S
C1587 C1579 1.433 . S
C1587 N1589 1.384 . S
N1588 C1584 1.427 . S
N1588 C1585 1.384 . S
N1589 C1581 1.427 . S
N1589 C1587 1.384 . S
H1590 C1596 0.930 . S
H1591 C1600 0.930 . S
H1592 C1605 0.929 . S
H1593 C1603 0.929 . S
H1594 C1598 0.929 . S
H1595 C1604 0.929 . S
C1596 H1590 0.930 . S
C1596 C1597 1.408 . S
C1596 C1604 1.378 . S
C1597 C1596 1.408 . S
C1597 C1605 1.413 1_655 S
C1598 H1594 0.929 . S
C1598 C1600 1.378 . S
C1598 C1602 1.350 . S
C1599 C1602 1.463 . S
C1599 C1604 1.350 . S
C1599 N1607 1.428 . S
C1600 H1591 0.930 . S
C1600 C1598 1.378 . S
C1600 C1601 1.367 . S
C1601 C1600 1.367 . S
C1601 C1603 1.433 . S
C1602 C1598 1.350 . S
C1602 C1599 1.463 . S
C1602 N1606 1.427 . S
C1603 H1593 0.929 . S
C1603 C1601 1.433 . S
C1603 N1606 1.384 . S
C1604 H1595 0.929 . S
C1604 C1596 1.378 . S
C1604 C1599 1.350 . S
C1605 H1592 0.929 . S
C1605 C1597 1.413 1_455 S
C1605 N1607 1.383 1_455 S
N1606 C1602 1.427 . S
N1606 C1603 1.384 . S
N1607 C1599 1.428 . S
N1607 C1605 1.383 1_655 S
H1608 C1614 0.930 . S
H1609 C1618 0.930 . S
H1610 C1623 0.929 . S
H1611 C1621 0.929 . S
H1612 C1616 0.929 . S
H1613 C1622 0.929 . S
C1614 H1608 0.930 . S
C1614 C1615 1.367 . S
C1614 C1622 1.378 . S
C1615 C1614 1.367 . S
C1615 C1623 1.433 . S
C1616 H1612 0.929 . S
C1616 C1618 1.378 . S
C1616 C1620 1.350 . S
C1617 C1620 1.463 . S
C1617 C1622 1.350 . S
C1617 N1625 1.427 . S
C1618 H1609 0.930 . S
C1618 C1616 1.378 . S
C1618 C1619 1.367 . S
C1619 C1618 1.367 . S
C1619 C1621 1.433 . S
C1620 C1616 1.350 . S
C1620 C1617 1.463 . S
C1620 N1624 1.427 . S
C1621 H1611 0.929 . S
C1621 C1619 1.433 . S
C1621 N1624 1.384 . S
C1622 H1613 0.929 . S
C1622 C1614 1.378 . S
C1622 C1617 1.350 . S
C1623 H1610 0.929 . S
C1623 C1615 1.433 . S
C1623 N1625 1.384 . S
N1624 C1620 1.427 . S
N1624 C1621 1.384 . S
N1625 C1617 1.427 . S
N1625 C1623 1.384 . S
H1626 C1632 0.930 . S
H1627 C1636 0.930 . S
H1628 C1641 0.929 . S
H1629 C1639 0.929 . S
H1630 C1634 0.929 . S
H1631 C1640 0.929 . S
C1632 H1626 0.930 . S
C1632 C1633 1.367 . S
C1632 C1640 1.378 . S
C1633 C1632 1.367 . S
C1633 C1641 1.433 1_556 S
C1634 H1630 0.929 . S
C1634 C1636 1.378 . S
C1634 C1638 1.350 . S
C1635 C1638 1.463 . S
C1635 C1640 1.350 1_554 S
C1635 N1643 1.427 . S
C1636 H1627 0.930 . S
C1636 C1634 1.378 . S
C1636 C1637 1.367 . S
C1637 C1636 1.367 . S
C1637 C1639 1.433 . S
C1638 C1634 1.350 . S
C1638 C1635 1.463 . S
C1638 N1642 1.427 . S
C1639 H1629 0.929 . S
C1639 C1637 1.433 . S
C1639 N1642 1.384 . S
C1640 H1631 0.929 . S
C1640 C1632 1.378 . S
C1640 C1635 1.350 1_556 S
C1641 H1628 0.929 . S
C1641 C1633 1.433 1_554 S
C1641 N1643 1.384 . S
N1642 C1638 1.427 . S
N1642 C1639 1.384 . S
N1643 C1635 1.427 . S
N1643 C1641 1.384 . S
H1644 C1650 0.930 . S
H1645 C1654 0.930 . S
H1646 C1659 0.929 . S
H1647 C1657 0.929 . S
H1648 C1652 0.929 . S
H1649 C1658 0.929 . S
C1650 H1644 0.930 . S
C1650 C1651 1.367 . S
C1650 C1658 1.378 . S
C1651 C1650 1.367 . S
C1651 C1659 1.433 . S
C1652 H1648 0.929 . S
C1652 C1654 1.378 . S
C1652 C1656 1.350 . S
C1653 C1656 1.463 . S
C1653 C1658 1.350 . S
C1653 N1661 1.427 . S
C1654 H1645 0.930 . S
C1654 C1652 1.378 . S
C1654 C1655 1.367 . S
C1655 C1654 1.367 . S
C1655 C1657 1.433 . S
C1656 C1652 1.350 . S
C1656 C1653 1.463 . S
C1656 N1660 1.427 . S
C1657 H1647 0.929 . S
C1657 C1655 1.433 . S
C1657 N1660 1.384 . S
C1658 H1649 0.929 . S
C1658 C1650 1.378 . S
C1658 C1653 1.350 . S
C1659 H1646 0.929 . S
C1659 C1651 1.433 . S
C1659 N1661 1.384 . S
N1660 C1656 1.427 . S
N1660 C1657 1.384 . S
N1661 C1653 1.427 . S
N1661 C1659 1.384 . S
H1662 C1668 0.930 . S
H1663 C1672 0.930 . S
H1664 C1677 0.929 . S
H1665 C1675 0.929 . S
H1666 C1670 0.929 . S
H1667 C1676 0.929 . S
C1668 H1662 0.930 . S
C1668 C1669 1.367 . S
C1668 C1676 1.378 . S
C1669 C1668 1.367 . S
C1669 C1677 1.433 . S
C1670 H1666 0.929 . S
C1670 C1672 1.378 . S
C1670 C1674 1.350 . S
C1671 C1674 1.463 . S
C1671 C1676 1.350 . S
C1671 N1679 1.427 . S
C1672 H1663 0.930 . S
C1672 C1670 1.378 . S
C1672 C1673 1.367 . S
C1673 C1672 1.367 . S
C1673 C1675 1.433 . S
C1674 C1670 1.350 . S
C1674 C1671 1.463 . S
C1674 N1678 1.427 . S
C1675 H1665 0.929 . S
C1675 C1673 1.433 . S
C1675 N1678 1.384 . S
C1676 H1667 0.929 . S
C1676 C1668 1.378 . S
C1676 C1671 1.350 . S
C1677 H1664 0.929 . S
C1677 C1669 1.433 . S
C1677 N1679 1.384 . S
N1678 C1674 1.427 . S
N1678 C1675 1.384 . S
N1679 C1671 1.427 . S
N1679 C1677 1.384 . S
H1680 C1686 0.930 . S
H1681 C1690 0.930 . S
H1682 C1695 0.929 . S
H1683 C1693 0.929 . S
H1684 C1688 0.929 . S
H1685 C1694 0.929 . S
C1686 H1680 0.930 . S
C1686 C1687 1.367 . S
C1686 C1694 1.378 . S
C1687 C1686 1.367 . S
C1687 C1695 1.433 . S
C1688 H1684 0.929 . S
C1688 C1690 1.378 . S
C1688 C1692 1.350 . S
C1689 C1692 1.463 . S
C1689 C1694 1.350 . S
C1689 N1697 1.427 . S
C1690 H1681 0.930 . S
C1690 C1688 1.378 . S
C1690 C1691 1.367 . S
C1691 C1690 1.367 . S
C1691 C1693 1.433 . S
C1692 C1688 1.350 . S
C1692 C1689 1.463 . S
C1692 N1696 1.427 . S
C1693 H1683 0.929 . S
C1693 C1691 1.433 . S
C1693 N1696 1.384 . S
C1694 H1685 0.929 . S
C1694 C1686 1.378 . S
C1694 C1689 1.350 . S
C1695 H1682 0.929 . S
C1695 C1687 1.433 . S
C1695 N1697 1.384 . S
N1696 C1692 1.427 . S
N1696 C1693 1.384 . S
N1697 C1689 1.427 . S
N1697 C1695 1.384 . S
H1698 C1704 0.930 . S
H1699 C1708 0.930 . S
H1700 C1713 0.929 . S
H1701 C1711 0.929 . S
H1702 C1706 0.929 . S
H1703 C1712 0.929 . S
C1704 H1698 0.930 . S
C1704 C1705 1.367 . S
C1704 C1712 1.378 . S
C1705 C1704 1.367 . S
C1705 C1713 1.433 . S
C1706 H1702 0.929 . S
C1706 C1708 1.378 . S
C1706 C1710 1.350 . S
C1707 C1710 1.463 . S
C1707 C1712 1.350 . S
C1707 N1715 1.427 . S
C1708 H1699 0.930 . S
C1708 C1706 1.378 . S
C1708 C1709 1.367 . S
C1709 C1708 1.367 . S
C1709 C1711 1.433 . S
C1710 C1706 1.350 . S
C1710 C1707 1.463 . S
C1710 N1714 1.427 . S
C1711 H1701 0.929 . S
C1711 C1709 1.433 . S
C1711 N1714 1.384 . S
C1712 H1703 0.929 . S
C1712 C1704 1.378 . S
C1712 C1707 1.350 . S
C1713 H1700 0.929 . S
C1713 C1705 1.433 . S
C1713 N1715 1.384 . S
N1714 C1710 1.427 . S
N1714 C1711 1.384 . S
N1715 C1707 1.427 . S
N1715 C1713 1.384 . S
H1716 C1722 0.930 . S
H1717 C1726 0.930 . S
H1718 C1731 0.929 . S
H1719 C1729 0.929 . S
H1720 C1724 0.929 . S
H1721 C1730 0.929 . S
C1722 H1716 0.930 . S
C1722 C1723 1.367 . S
C1722 C1730 1.378 . S
C1723 C1722 1.367 . S
C1723 C1731 1.433 . S
C1724 H1720 0.929 . S
C1724 C1726 1.378 . S
C1724 C1728 1.350 . S
C1725 C1728 1.463 . S
C1725 C1730 1.350 . S
C1725 N1733 1.427 . S
C1726 H1717 0.930 . S
C1726 C1724 1.378 . S
C1726 C1727 1.367 . S
C1727 C1726 1.367 . S
C1727 C1729 1.433 . S
C1728 C1724 1.350 . S
C1728 C1725 1.463 . S
C1728 N1732 1.427 . S
C1729 H1719 0.929 . S
C1729 C1727 1.433 . S
C1729 N1732 1.384 . S
C1730 H1721 0.929 . S
C1730 C1722 1.378 . S
C1730 C1725 1.350 . S
C1731 H1718 0.929 . S
C1731 C1723 1.433 . S
C1731 N1733 1.384 . S
N1732 C1728 1.427 . S
N1732 C1729 1.384 . S
N1733 C1725 1.427 . S
N1733 C1731 1.384 . S
H1734 C1740 0.930 . S
H1735 C1744 0.930 . S
H1736 C1749 0.929 . S
H1737 C1747 0.929 . S
H1738 C1742 0.929 . S
H1739 C1748 0.929 . S
C1740 H1734 0.930 . S
C1740 C1741 1.369 1_554 S
C1740 C1748 1.378 . S
C1741 C1740 1.369 1_556 S
C1741 C1749 1.429 . S
C1742 H1738 0.929 . S
C1742 C1744 1.378 . S
C1742 C1746 1.350 . S
C1743 C1746 1.463 . S
C1743 C1748 1.350 1_556 S
C1743 N1751 1.427 . S
C1744 H1735 0.930 . S
C1744 C1742 1.378 . S
C1744 C1745 1.367 . S
C1745 C1744 1.367 . S
C1745 C1747 1.433 . S
C1746 C1742 1.350 . S
C1746 C1743 1.463 . S
C1746 N1750 1.427 . S
C1747 H1737 0.929 . S
C1747 C1745 1.433 . S
C1747 N1750 1.384 . S
C1748 H1739 0.929 . S
C1748 C1740 1.378 . S
C1748 C1743 1.350 1_554 S
C1749 H1736 0.929 . S
C1749 C1741 1.429 . S
C1749 N1751 1.384 . S
N1750 C1746 1.427 . S
N1750 C1747 1.384 . S
N1751 C1743 1.427 . S
N1751 C1749 1.384 . S
H1752 C1758 0.930 . S
H1753 C1762 0.930 . S
H1754 C1767 0.929 . S
H1755 C1765 0.929 . S
H1756 C1760 0.929 . S
H1757 C1766 0.929 . S
C1758 H1752 0.930 . S
C1758 C1759 1.367 . S
C1758 C1766 1.378 . S
C1759 C1758 1.367 . S
C1759 C1767 1.433 . S
C1760 H1756 0.929 . S
C1760 C1762 1.378 . S
C1760 C1764 1.350 . S
C1761 C1764 1.463 . S
C1761 C1766 1.350 . S
C1761 N1769 1.427 . S
C1762 H1753 0.930 . S
C1762 C1760 1.378 . S
C1762 C1763 1.367 . S
C1763 C1762 1.367 . S
C1763 C1765 1.433 . S
C1764 C1760 1.350 . S
C1764 C1761 1.463 . S
C1764 N1768 1.427 . S
C1765 H1755 0.929 . S
C1765 C1763 1.433 . S
C1765 N1768 1.384 . S
C1766 H1757 0.929 . S
C1766 C1758 1.378 . S
C1766 C1761 1.350 . S
C1767 H1754 0.929 . S
C1767 C1759 1.433 . S
C1767 N1769 1.384 . S
N1768 C1764 1.427 . S
N1768 C1765 1.384 . S
N1769 C1761 1.427 . S
N1769 C1767 1.384 . S
H1770 C1776 0.930 . S
H1771 C1780 0.930 . S
H1772 C1785 0.929 . S
H1773 C1783 0.929 1_545 S
H1774 C1778 0.929 . S
H1775 C1784 0.929 . S
C1776 H1770 0.930 . S
C1776 C1777 1.367 1_545 S
C1776 C1784 1.378 . S
C1777 C1776 1.367 1_565 S
C1777 C1785 1.433 . S
C1778 H1774 0.929 . S
C1778 C1780 1.378 . S
C1778 C1782 1.350 . S
C1779 C1782 1.463 . S
C1779 C1784 1.350 1_565 S
C1779 N1787 1.427 . S
C1780 H1771 0.930 . S
C1780 C1778 1.378 . S
C1780 C1781 1.367 . S
C1781 C1780 1.367 . S
C1781 C1783 1.433 . S
C1782 C1778 1.350 . S
C1782 C1779 1.463 . S
C1782 N1786 1.427 . S
C1783 H1773 0.929 1_565 S
C1783 C1781 1.433 . S
C1783 N1786 1.384 . S
C1784 H1775 0.929 . S
C1784 C1776 1.378 . S
C1784 C1779 1.350 1_545 S
C1785 H1772 0.929 . S
C1785 C1777 1.433 . S
C1785 N1787 1.384 . S
N1786 C1782 1.427 . S
N1786 C1783 1.384 . S
N1787 C1779 1.427 . S
N1787 C1785 1.384 . S
H1788 C1794 0.930 . S
H1789 C1798 0.930 . S
H1790 C1803 0.929 . S
H1791 C1801 0.929 . S
H1792 C1796 0.929 . S
H1793 C1802 0.929 . S
C1794 H1788 0.930 . S
C1794 C1795 1.367 . S
C1794 C1802 1.378 . S
C1795 C1794 1.367 . S
C1795 C1803 1.433 . S
C1796 H1792 0.929 . S
C1796 C1798 1.378 . S
C1796 C1800 1.350 . S
C1797 C1800 1.463 . S
C1797 C1802 1.350 . S
C1797 N1805 1.427 . S
C1798 H1789 0.930 . S
C1798 C1796 1.378 . S
C1798 C1799 1.367 1_545 S
C1799 C1798 1.367 1_565 S
C1799 C1801 1.433 . S
C1800 C1796 1.350 . S
C1800 C1797 1.463 . S
C1800 N1804 1.427 1_545 S
C1801 H1791 0.929 . S
C1801 C1799 1.433 . S
C1801 N1804 1.384 . S
C1802 H1793 0.929 . S
C1802 C1794 1.378 . S
C1802 C1797 1.350 . S
C1803 H1790 0.929 . S
C1803 C1795 1.433 . S
C1803 N1805 1.384 . S
N1804 C1800 1.427 1_565 S
N1804 C1801 1.384 . S
N1805 C1797 1.427 . S
N1805 C1803 1.384 . S
H1806 C1812 0.930 . S
H1807 C1816 0.930 1_565 S
H1808 C1821 0.929 . S
H1809 C1819 0.929 . S
H1810 C1814 0.964 . S
H1811 C1820 0.929 . S
C1812 H1806 0.930 . S
C1812 C1813 1.367 . S
C1812 C1820 1.378 . S
C1813 C1812 1.367 . S
C1813 C1821 1.433 1_545 S
C1814 H1810 0.964 . S
C1814 C1816 1.373 1_565 S
C1814 C1818 1.321 1_565 S
C1815 C1818 1.463 . S
C1815 C1820 1.350 . S
C1815 N1823 1.427 1_545 S
C1816 H1807 0.930 1_545 S
C1816 C1814 1.373 1_545 S
C1816 C1817 1.367 . S
C1817 C1816 1.367 . S
C1817 C1819 1.433 . S
C1818 C1814 1.321 1_545 S
C1818 C1815 1.463 . S
C1818 N1822 1.427 . S
C1819 H1809 0.929 . S
C1819 C1817 1.433 . S
C1819 N1822 1.384 . S
C1820 H1811 0.929 . S
C1820 C1812 1.378 . S
C1820 C1815 1.350 . S
C1821 H1808 0.929 . S
C1821 C1813 1.433 1_565 S
C1821 N1823 1.384 . S
N1822 C1818 1.427 . S
N1822 C1819 1.384 . S
N1823 C1815 1.427 1_565 S
N1823 C1821 1.384 . S
H1824 C1830 0.930 . S
H1825 C1834 0.930 . S
H1826 C1839 0.929 . S
H1827 C1837 0.929 . S
H1828 C1832 0.929 . S
H1829 C1838 0.929 1_545 S
C1830 H1824 0.930 . S
C1830 C1831 1.367 1_545 S
C1830 C1838 1.378 1_545 S
C1831 C1830 1.367 1_565 S
C1831 C1839 1.433 . S
C1832 H1828 0.929 . S
C1832 C1834 1.378 . S
C1832 C1836 1.350 . S
C1833 C1836 1.463 . S
C1833 C1838 1.350 . S
C1833 N1841 1.427 . S
C1834 H1825 0.930 . S
C1834 C1832 1.378 . S
C1834 C1835 1.367 . S
C1835 C1834 1.367 . S
C1835 C1837 1.433 . S
C1836 C1832 1.350 . S
C1836 C1833 1.463 . S
C1836 N1840 1.427 . S
C1837 H1827 0.929 . S
C1837 C1835 1.433 . S
C1837 N1840 1.384 . S
C1838 H1829 0.929 1_565 S
C1838 C1830 1.378 1_565 S
C1838 C1833 1.350 . S
C1839 H1826 0.929 . S
C1839 C1831 1.433 . S
C1839 N1841 1.384 . S
N1840 C1836 1.427 . S
N1840 C1837 1.384 . S
N1841 C1833 1.427 . S
N1841 C1839 1.384 . S
H1842 C1848 0.930 . S
H1843 C1852 0.930 . S
H1844 C1857 0.929 . S
H1845 C1855 0.929 . S
H1846 C1850 0.929 . S
H1847 C1856 0.929 . S
C1848 H1842 0.930 . S
C1848 C1849 1.367 . S
C1848 C1856 1.378 . S
C1849 C1848 1.367 . S
C1849 C1857 1.433 . S
C1850 H1846 0.929 . S
C1850 C1852 1.378 . S
C1850 C1854 1.350 . S
C1851 C1854 1.463 . S
C1851 C1856 1.350 . S
C1851 N1859 1.427 . S
C1852 H1843 0.930 . S
C1852 C1850 1.378 . S
C1852 C1853 1.367 . S
C1853 C1852 1.367 . S
C1853 C1855 1.433 . S
C1854 C1850 1.350 . S
C1854 C1851 1.463 . S
C1854 N1858 1.427 . S
C1855 H1845 0.929 . S
C1855 C1853 1.433 . S
C1855 N1858 1.384 . S
C1856 H1847 0.929 . S
C1856 C1848 1.378 . S
C1856 C1851 1.350 . S
C1857 H1844 0.929 . S
C1857 C1849 1.433 . S
C1857 N1859 1.384 . S
N1858 C1854 1.427 . S
N1858 C1855 1.384 . S
N1859 C1851 1.427 . S
N1859 C1857 1.384 . S
H1860 C1866 0.930 . S
H1861 C1870 0.930 . S
H1862 C1875 0.929 . S
H1863 C1873 0.929 . S
H1864 C1868 0.929 . S
H1865 C1874 0.929 . S
C1866 H1860 0.930 . S
C1866 C1867 1.367 . S
C1866 C1874 1.378 . S
C1867 C1866 1.367 . S
C1867 C1875 1.433 . S
C1868 H1864 0.929 . S
C1868 C1870 1.378 . S
C1868 C1872 1.350 . S
C1869 C1872 1.463 . S
C1869 C1874 1.350 . S
C1869 N1877 1.427 . S
C1870 H1861 0.930 . S
C1870 C1868 1.378 . S
C1870 C1871 1.367 . S
C1871 C1870 1.367 . S
C1871 C1873 1.433 . S
C1872 C1868 1.350 . S
C1872 C1869 1.463 . S
C1872 N1876 1.427 . S
C1873 H1863 0.929 . S
C1873 C1871 1.433 . S
C1873 N1876 1.384 . S
C1874 H1865 0.929 . S
C1874 C1866 1.378 . S
C1874 C1869 1.350 . S
C1875 H1862 0.929 . S
C1875 C1867 1.433 . S
C1875 N1877 1.384 . S
N1876 C1872 1.427 . S
N1876 C1873 1.384 . S
N1877 C1869 1.427 . S
N1877 C1875 1.384 . S
H1878 C1884 0.930 . S
H1879 C1888 0.930 . S
H1880 C1893 0.929 . S
H1881 C1891 0.929 . S
H1882 C1886 0.929 . S
H1883 C1892 0.929 . S
C1884 H1878 0.930 . S
C1884 C1885 1.367 . S
C1884 C1892 1.378 . S
C1885 C1884 1.367 . S
C1885 C1893 1.433 . S
C1886 H1882 0.929 . S
C1886 C1888 1.378 . S
C1886 C1890 1.350 . S
C1887 C1890 1.463 . S
C1887 C1892 1.350 . S
C1887 N1895 1.427 . S
C1888 H1879 0.930 . S
C1888 C1886 1.378 . S
C1888 C1889 1.367 . S
C1889 C1888 1.367 . S
C1889 C1891 1.433 . S
C1890 C1886 1.350 . S
C1890 C1887 1.463 . S
C1890 N1894 1.427 . S
C1891 H1881 0.929 . S
C1891 C1889 1.433 . S
C1891 N1894 1.384 . S
C1892 H1883 0.929 . S
C1892 C1884 1.378 . S
C1892 C1887 1.350 . S
C1893 H1880 0.929 . S
C1893 C1885 1.433 . S
C1893 N1895 1.384 . S
N1894 C1890 1.427 . S
N1894 C1891 1.384 . S
N1895 C1887 1.427 . S
N1895 C1893 1.384 . S
C823 C719 0.805 . S
C827 C20 0.823 . S
C841 C753 0.679 . S
C845 C54 0.681 . S
C859 C88 0.819 . S
C863 C549 0.824 . S
C877 C787 0.687 . S
C881 C122 0.671 . S
C895 C156 0.729 . S
C899 C651 0.739 . S
C913 C685 0.702 . S
C917 C190 0.689 . S
C931 C583 0.746 . S
C935 C224 0.732 . S
C949 C617 0.606 . S
C953 C258 0.537 . S
C967 C292 0.822 . S
C971 C141 0.810 . S
C985 C326 0.667 . S
C989 C175 0.693 . S
C1003 C360 0.741 . S
C1007 C209 0.730 . S
C1021 C394 0.689 . S
C1025 C243 0.715 . S
C1039 C5 0.825 . S
C1043 C428 0.818 . S
C1057 C462 0.680 . S
C1061 C39 0.678 . S
C1075 C496 0.730 . S
C1079 C73 0.737 . S
C1093 C107 0.581 . S
C1097 C530 0.557 . S
C1111 C481 0.824 . S
C1115 C564 0.812 . S
C1129 C598 0.746 . S
C1133 C345 0.735 . S
C1147 C632 0.678 . S
C1151 C379 0.680 . S
C1165 C666 0.824 . S
C1169 C277 0.805 . S
C1183 C311 0.604 . S
C1187 C700 0.543 . S
C1201 C413 0.731 . S
C1205 C734 0.734 . S
C1219 C768 0.667 . S
C1223 C447 0.700 . S
C1237 C802 0.694 . S
C1241 C515 0.708 . S
C1255 C240 2.135 . S
C1259 C2 1.897 . S
C1273 C36 1.876 . S
C1277 C138 1.711 . S
C1291 C172 2.062 . S
C1295 C70 1.868 . S
C1309 C206 1.896 . S
C1313 C104 2.150 . S
C1327 C682 2.140 . S
C1331 C274 1.897 . S
C1345 C308 2.137 . S
C1349 C580 1.918 . S
C1363 C342 1.915 . S
C1367 C614 2.144 . S
C1381 C376 2.058 . S
C1385 C648 1.873 . S
C1399 C410 1.864 . S
C1403 C784 2.064 . S
C1417 C716 1.695 . S
C1421 C444 1.885 . S
C1435 C478 1.692 . S
C1439 C750 1.881 . S
C1453 C512 2.131 . S
C1457 C546 1.912 . S
C1471 C9 1.292 . S
C1475 C475 1.673 . S
C1489 C43 1.565 . S
C1493 C509 1.756 . S
C1507 C543 1.415 . S
C1511 C77 1.116 . S
C1525 C441 1.626 . S
C1529 C111 1.499 . S
C1543 C145 1.105 . S
C1547 C407 1.408 . S
C1561 C179 1.577 . S
C1565 C305 1.759 . S
C1579 C339 1.538 . S
C1583 C213 1.232 . S
C1597 C247 1.528 1_655 S
C1601 C373 1.693 . S
C1615 C281 1.292 . S
C1619 C67 1.673 . S
C1633 C315 1.501 . S
C1637 C101 1.626 . S
C1651 C135 1.541 . S
C1655 C349 1.203 . S
C1669 C383 1.590 . S
C1673 C33 1.762 . S
C1687 C417 1.094 . S
C1691 C271 1.417 . S
C1705 C451 1.567 . S
C1709 C169 1.762 . S
C1723 C485 1.128 . S
C1727 C203 1.404 . S
C1741 C519 1.556 1_556 S
C1745 C237 1.693 . S
C1759 C553 1.297 . S
C1763 C781 1.672 . S
C1777 C645 1.541 . S
C1781 C587 1.209 . S
C1795 C679 1.627 . S
C1799 C621 1.479 . S
C1813 C713 1.413 . S
C1817 C655 1.125 . S
C1831 C689 1.557 1_565 S
C1835 C611 1.695 . S
C1849 C815 1.407 . S
C1853 C723 1.112 . S
C1867 C747 1.759 . S
C1871 C757 1.558 . S
C1885 C791 1.589 . S
C1889 C577 1.762 . S
