# Generated by pormake.
# Topology uoj, (4)-cn, num edge types: 1
# Building blocks:
#     Node 0, Type 0, BuildingBlock: QUQFOY_clean_sbu_3, # of connection points: 4
#     Node 1, Type 0, BuildingBlock: QUQFOY_clean_sbu_3, # of connection points: 4
#     Node 2, Type 0, BuildingBlock: QUQFOY_clean_sbu_3, # of connection points: 4
#     Node 3, Type 0, BuildingBlock: QUQFOY_clean_sbu_3, # of connection points: 4
#     Node 4, Type 0, BuildingBlock: QUQFOY_clean_sbu_3, # of connection points: 4
#     Node 5, Type 0, BuildingBlock: QUQFOY_clean_sbu_3, # of connection points: 4
#     Node 6, Type 0, BuildingBlock: QUQFOY_clean_sbu_3, # of connection points: 4
#     Node 7, Type 0, BuildingBlock: QUQFOY_clean_sbu_3, # of connection points: 4
#     Edge 8, Type (0, 0), BuildingBlock: EZIPEK_clean_linker_0, # of connection points: 2
#     Edge 9, Type (0, 0), BuildingBlock: EZIPEK_clean_linker_0, # of connection points: 2
#     Edge 10, Type (0, 0), BuildingBlock: EZIPEK_clean_linker_0, # of connection points: 2
#     Edge 11, Type (0, 0), BuildingBlock: EZIPEK_clean_linker_0, # of connection points: 2
#     Edge 12, Type (0, 0), BuildingBlock: EZIPEK_clean_linker_0, # of connection points: 2
#     Edge 13, Type (0, 0), BuildingBlock: EZIPEK_clean_linker_0, # of connection points: 2
#     Edge 14, Type (0, 0), BuildingBlock: EZIPEK_clean_linker_0, # of connection points: 2
#     Edge 15, Type (0, 0), BuildingBlock: EZIPEK_clean_linker_0, # of connection points: 2
#     Edge 16, Type (0, 0), BuildingBlock: EZIPEK_clean_linker_0, # of connection points: 2
#     Edge 17, Type (0, 0), BuildingBlock: EZIPEK_clean_linker_0, # of connection points: 2
#     Edge 18, Type (0, 0), BuildingBlock: EZIPEK_clean_linker_0, # of connection points: 2
#     Edge 19, Type (0, 0), BuildingBlock: EZIPEK_clean_linker_0, # of connection points: 2
#     Edge 20, Type (0, 0), BuildingBlock: EZIPEK_clean_linker_0, # of connection points: 2
#     Edge 21, Type (0, 0), BuildingBlock: EZIPEK_clean_linker_0, # of connection points: 2
#     Edge 22, Type (0, 0), BuildingBlock: EZIPEK_clean_linker_0, # of connection points: 2
#     Edge 23, Type (0, 0), BuildingBlock: EZIPEK_clean_linker_0, # of connection points: 2
# Relax obj value: 0.109
# Max RMSD: 0.138
# Mean RMSD: 0.137
data_MOF--net-uoj--node1-QUQFOY_clean_sbu_3--edge1-EZIPEK_clean_linker_0
_symmetry_space_group_name_H-M    P1
_symmetry_Int_Tables_number       1
_symmetry_cell_setting            triclinic
loop_
_symmetry_equiv_pos_as_xyz
'x, y, z'
_cell_length_a     26.017141
_cell_length_b     25.731494
_cell_length_c     26.91882
_cell_angle_alpha  90.228165
_cell_angle_beta   89.676263
_cell_angle_gamma 92.079553
loop_
_atom_site_label
_atom_site_type_symbol
_atom_site_fract_x
_atom_site_fract_y
_atom_site_fract_z
_atom_type_partial_charge
C0 C 0.04167 0.2817 0.30768 0.0
O1 O -0.00651 0.2735 0.30323 0.0
Cd2 Cd 0.93489 0.2519 0.36936 0.0
O3 O 0.06394 0.27538 0.34914 0.0
Cd4 Cd 0.03776 0.25239 0.435 0.0
C5 C -0.02788 0.3609 0.43522 0.0
O6 O -0.02917 0.18718 0.41927 0.0
O7 O -0.02905 0.22196 0.49258 0.0
O8 O 0.10853 0.19695 0.44325 0.0
C9 C 0.95244 0.18791 0.46292 0.0
O10 O 0.93649 0.33467 0.41322 0.0
C11 C 0.12338 0.21541 0.48475 0.0
O12 O 0.01511 0.34149 0.44507 0.0
O13 O 0.1006 0.25445 0.50204 0.0
C14 C 0.17839 0.87422 0.49376 0.0
O15 O 0.19439 0.89061 0.45189 0.0
Cd16 Cd 0.2676 0.94871 0.44183 0.0
O17 O 0.20253 0.88519 0.53349 0.0
Cd18 Cd 0.28221 0.93188 0.55656 0.0
C19 C 0.23361 0.04408 0.52442 0.0
O20 O 0.33958 0.91734 0.48516 0.0
O21 O 0.35748 -0.01825 0.53488 0.0
O22 O 0.30906 0.86111 0.60902 0.0
C23 C 0.37085 0.95355 0.49874 0.0
O24 O 0.24231 0.02961 0.47998 0.0
C25 C 0.31193 0.88874 0.64813 0.0
O26 O 0.24194 0.01472 0.56114 0.0
O27 O 0.30019 0.93604 0.64485 0.0
C28 C 0.90076 0.6683 0.32544 0.0
O29 O 0.94642 0.68599 0.31859 0.0
Cd30 Cd 0.00239 0.69345 0.38789 0.0
O31 O 0.88091 0.66633 0.3689 0.0
Cd32 Cd 0.90171 0.69365 0.45598 0.0
C33 C 0.95657 0.58185 0.45067 0.0
O34 O -0.03096 0.75768 0.44056 0.0
O35 O -0.02922 0.72101 0.51268 0.0
O36 O 0.83228 0.75171 0.45937 0.0
C37 C -0.01143 0.75577 0.4834 0.0
O38 O -0.01085 0.60597 0.42279 0.0
C39 C 0.81564 0.73669 0.50151 0.0
O40 O 0.91826 0.60428 0.46923 0.0
O41 O 0.83678 0.69839 0.52158 0.0
C42 C 0.76174 0.07257 0.49128 0.0
O43 O 0.74192 0.05417 0.45169 0.0
Cd44 Cd 0.66546 0.00039 0.44867 0.0
O45 O 0.74004 0.06626 0.53341 0.0
Cd46 Cd 0.66033 0.02701 0.5682 0.0
C47 C 0.70249 0.91033 0.53538 0.0
O48 O 0.60404 0.04321 0.49793 0.0
O49 O 0.57632 -0.01101 0.55387 0.0
O50 O 0.65311 0.10279 0.62285 0.0
C51 C 0.56799 0.01352 0.51424 0.0
O52 O 0.69207 0.92246 0.49083 0.0
C53 C 0.64339 0.07595 0.66152 0.0
O54 O 0.69616 0.94175 0.5713 0.0
O55 O 0.64318 0.02684 0.65676 0.0
C56 C 0.35842 0.67421 0.98862 0.0
O57 O 0.37839 0.68709 0.02995 0.0
Cd58 Cd 0.4393 0.75843 0.04041 0.0
O59 O 0.36905 0.69947 0.94922 0.0
Cd60 Cd 0.4226 0.7759 0.92632 0.0
C61 C 0.53444 0.72668 0.95816 0.0
O62 O 0.40773 0.83231 -0.00112 0.0
O63 O 0.47025 0.85337 0.94872 0.0
O64 O 0.35589 0.80697 0.87194 0.0
C65 C 0.44239 0.86525 0.98544 0.0
O66 O 0.52036 0.73498 0.00276 0.0
C67 C 0.38424 0.8079 0.83343 0.0
O68 O 0.50466 0.73442 0.92188 0.0
O69 O 0.42991 0.79294 0.83784 0.0
C70 C 0.78982 0.55722 0.17067 0.0
O71 O 0.78159 0.50884 0.17779 0.0
Cd72 Cd 0.74129 0.44718 0.12103 0.0
O73 O 0.77869 0.57833 0.12968 0.0
Cd74 Cd 0.74427 0.5447 0.05064 0.0
C75 C 0.83572 0.45731 0.03517 0.0
O76 O 0.67374 0.48854 0.08089 0.0
O77 O 0.69604 0.47828 0.00516 0.0
O78 O 0.74477 0.59914 0.9765 0.0
C79 C 0.66413 0.46686 0.0395 0.0
O80 O 0.80552 0.42589 0.05853 0.0
C81 C 0.71167 0.62919 -0.0056 0.0
O82 O 0.82571 0.50526 0.0317 0.0
O83 O 0.69829 0.62247 0.0394 0.0
C84 C 0.57545 0.25977 0.02792 0.0
O85 O 0.55133 0.24067 0.06507 0.0
Cd86 Cd 0.49273 0.16697 0.06042 0.0
O87 O 0.56837 0.23939 0.9853 0.0
Cd88 Cd 0.52466 0.16448 0.94566 0.0
C89 C 0.41062 0.21334 0.97266 0.0
O90 O 0.53285 0.10118 0.01289 0.0
O91 O 0.47847 0.08307 0.95436 0.0
O92 O 0.60064 0.15212 0.89309 0.0
C93 C 0.50156 0.06866 -0.00711 0.0
O94 O 0.41831 0.19914 0.01719 0.0
C95 C 0.57497 0.14669 0.85329 0.0
O96 O 0.44436 0.20786 0.9389 0.0
O97 O 0.5267 0.15146 0.85652 0.0
C98 C 0.12189 0.39036 0.1366 0.0
O99 O 0.11206 0.43828 0.13936 0.0
Cd100 Cd 0.12447 0.49829 0.07248 0.0
O101 O 0.14075 0.37135 0.09703 0.0
Cd102 Cd 0.16414 0.40223 0.01241 0.0
C103 C 0.04156 0.43269 -0.00566 0.0
O104 O 0.20731 0.48222 0.03891 0.0
O105 O 0.19549 0.47405 0.95959 0.0
O106 O 0.2337 0.34497 0.02099 0.0
C107 C 0.21637 0.49875 -0.00456 0.0
O108 O 0.05236 0.47328 0.01988 0.0
C109 C 0.22957 0.32482 0.97812 0.0
O110 O 0.07465 0.39833 0.98702 0.0
O111 O 0.1931 0.33902 0.95071 0.0
C112 C 0.12406 0.37428 0.22795 0.0
C113 C 0.10966 0.35653 0.17993 0.0
C114 C 0.06534 0.28066 0.21757 0.0
C115 C 0.07079 0.3042 0.265 0.0
N116 N 0.09854 0.37936 0.31396 0.0
N117 N 0.06005 0.29501 0.12928 0.0
C118 C 0.09887 0.35234 0.27012 0.0
C119 C 0.07911 0.30986 0.17457 0.0
N120 N 0.16214 0.41182 0.23333 0.0
N121 N 0.04724 0.23031 0.21365 0.0
H122 H 0.06732 0.31568 0.09673 0.0
H123 H 0.03289 0.26462 0.12478 0.0
H124 H 0.03776 0.20759 0.24464 0.0
H125 H 0.04695 0.20965 0.18027 0.0
H126 H 0.17712 0.42284 0.26779 0.0
H127 H 0.18265 0.42753 0.20317 0.0
H128 H 0.11396 0.41715 0.31744 0.0
H129 H 0.07841 0.36679 0.34549 0.0
C130 C 0.30265 0.8257 0.71858 0.0
C131 C 0.33046 0.86736 0.69522 0.0
C132 C 0.39061 0.87272 0.7647 0.0
C133 C 0.36568 0.82807 0.78584 0.0
N134 N 0.3035 0.75652 0.77937 0.0
N135 N 0.40657 0.92376 0.69057 0.0
C136 C 0.32314 0.80298 0.76185 0.0
C137 C 0.37606 0.88905 0.71673 0.0
N138 N 0.25581 0.80917 0.70054 0.0
N139 N 0.42671 0.90087 0.79125 0.0
H140 H 0.39776 0.93617 0.65487 0.0
H141 H 0.44303 0.93645 0.70224 0.0
H142 H 0.43794 0.89082 0.82698 0.0
H143 H 0.44197 0.93688 0.77983 0.0
H144 H 0.23124 0.78285 0.7191 0.0
H145 H 0.23937 0.82509 0.66907 0.0
H146 H 0.27617 0.73364 0.7604 0.0
H147 H 0.31776 0.73847 0.8108 0.0
C148 C 0.89642 0.60114 0.25772 0.0
C149 C 0.87311 0.6426 0.28359 0.0
C150 C 0.79374 0.62707 0.23616 0.0
C151 C 0.81842 0.58811 0.2084 0.0
N152 N 0.89636 0.54633 0.1845 0.0
N153 N 0.80342 0.70138 0.29158 0.0
C154 C 0.87073 0.5777 0.21667 0.0
C155 C 0.82275 0.6574 0.27116 0.0
N156 N 0.94173 0.58194 0.27391 0.0
N157 N 0.74229 0.6339 0.23017 0.0
H158 H 0.82401 0.72492 0.3167 0.0
H159 H 0.76907 0.71713 0.2804 0.0
H160 H 0.72011 0.61279 0.20439 0.0
H161 H 0.72081 0.65761 0.25313 0.0
H162 H 0.95698 0.54793 0.25996 0.0
H163 H 0.96162 0.59626 0.30483 0.0
H164 H 0.93602 0.54215 0.18542 0.0
H165 H 0.87894 0.52831 0.15381 0.0
C166 C 0.63347 0.09235 0.80081 0.0
C167 C 0.5993 0.13402 0.80498 0.0
C168 C 0.5949 0.13933 0.71434 0.0
C169 C 0.63181 0.10014 0.71024 0.0
N170 N 0.69776 0.05175 0.75005 0.0
N171 N 0.56083 0.20728 0.7659 0.0
C172 C 0.65486 0.08066 0.75367 0.0
C173 C 0.58435 0.16083 0.76176 0.0
N174 N 0.64305 0.06154 0.84071 0.0
N175 N 0.56726 0.15381 0.67397 0.0
H176 H 0.55429 0.22523 0.80007 0.0
H177 H 0.55332 0.23059 0.73539 0.0
H178 H 0.57133 0.13745 0.63879 0.0
H179 H 0.53632 0.17831 0.6766 0.0
H180 H 0.66345 0.02753 0.83777 0.0
H181 H 0.62641 0.06649 0.87559 0.0
H182 H 0.71863 0.04058 0.78092 0.0
H183 H 0.71578 0.04415 0.7162 0.0
C184 C 0.23917 0.13911 0.50964 0.0
C185 C 0.21289 0.09602 0.53218 0.0
C186 C 0.13895 0.14943 0.54814 0.0
C187 C 0.15986 0.18636 0.5142 0.0
N188 N 0.23123 0.22122 0.46667 0.0
N189 N 0.13743 0.05966 0.57429 0.0
C190 C 0.211 0.18326 0.49706 0.0
C191 C 0.16327 0.10139 0.5534 0.0
N192 N 0.29063 0.13703 0.49982 0.0
N193 N 0.09472 0.15951 0.5734 0.0
H194 H 0.15339 0.02349 0.57883 0.0
H195 H 0.09873 0.05983 0.58435 0.0
H196 H 0.07611 0.19448 0.56963 0.0
H197 H 0.07968 0.13584 0.60163 0.0
H198 H 0.31288 0.16836 0.4863 0.0
H199 H 0.31191 0.10506 0.50974 0.0
H200 H 0.26622 0.21861 0.44803 0.0
H201 H 0.21157 0.25495 0.45912 0.0
C202 C 0.08265 0.8696 0.49713 0.0
C203 C 0.12978 0.8436 0.49672 0.0
C204 C 0.08408 0.75909 0.49265 0.0
C205 C 0.03685 0.78502 0.49376 0.0
N206 N -0.01019 0.8628 0.50694 0.0
N207 N 0.17641 0.76483 0.50464 0.0
C208 C 0.03574 0.83975 0.49906 0.0
C209 C 0.1308 0.78864 0.49807 0.0
N210 N 0.08288 0.92272 0.49465 0.0
N211 N 0.08446 0.70675 0.48356 0.0
H212 H 0.21164 0.78532 0.50723 0.0
H213 H 0.17901 0.72521 0.51143 0.0
H214 H 0.05111 0.68343 0.47979 0.0
H215 H 0.1178 0.68683 0.47624 0.0
H216 H 0.05004 0.94384 0.4891 0.0
H217 H 0.11658 0.94596 0.49546 0.0
H218 H -0.01348 0.90197 0.51571 0.0
H219 H 0.95483 0.8417 0.50884 0.0
C220 C 0.6991 0.81447 0.52427 0.0
C221 C 0.72494 0.85939 0.54396 0.0
C222 C 0.8007 0.80872 0.55954 0.0
C223 C 0.77949 0.76901 0.52864 0.0
N224 N 0.70774 0.73021 0.48474 0.0
N225 N 0.80155 0.90016 0.58002 0.0
C226 C 0.72794 0.77023 0.51276 0.0
C227 C 0.77557 0.85652 0.56305 0.0
N228 N 0.64731 0.81476 0.51627 0.0
N229 N 0.84591 0.8014 0.58365 0.0
H230 H 0.78541 0.93646 0.58281 0.0
H231 H 0.84068 0.90133 0.58809 0.0
H232 H 0.86542 0.76679 0.58101 0.0
H233 H 0.86112 0.82726 0.61006 0.0
H234 H 0.62545 0.78215 0.50506 0.0
H235 H 0.62551 0.84671 0.52554 0.0
H236 H 0.67234 0.7312 0.46699 0.0
H237 H 0.72779 0.69642 0.47806 0.0
C238 C 0.85703 0.07486 0.48016 0.0
C239 C 0.81114 0.10188 0.48827 0.0
C240 C 0.85805 0.18548 0.48099 0.0
C241 C 0.90434 0.15857 0.47463 0.0
N242 N 0.95035 0.07902 0.4766 0.0
N243 N 0.76821 0.18162 0.50529 0.0
C244 C 0.90456 0.10355 0.4766 0.0
C245 C 0.81181 0.15683 0.49177 0.0
N246 N 0.85496 0.02186 0.47539 0.0
N247 N 0.85764 0.23807 0.47382 0.0
H248 H 0.73283 0.1622 0.51116 0.0
H249 H 0.7678 0.22099 0.51431 0.0
H250 H 0.89057 0.26074 0.46582 0.0
H251 H 0.82415 0.25889 0.47184 0.0
H252 H 0.88589 0.00028 0.46369 0.0
H253 H 0.82126 -0.00071 0.48071 0.0
H254 H 0.95363 0.03942 0.48294 0.0
H255 H -0.01412 0.09905 0.47421 0.0
C256 C 0.30198 0.53767 0.97091 0.0
C257 C 0.25083 0.54454 0.98754 0.0
C258 C 0.27009 0.63667 0.00415 0.0
C259 C 0.32091 0.63011 0.98644 0.0
N260 N 0.38355 0.5779 0.94519 0.0
N261 N 0.1827 0.60086 0.01053 0.0
C262 C 0.33625 0.5817 0.96708 0.0
C263 C 0.23382 0.59422 0.00139 0.0
N264 N 0.31844 0.48872 0.9613 0.0
N265 N 0.25682 0.68326 0.02426 0.0
H266 H 0.15515 0.57047 0.00812 0.0
H267 H 0.16676 0.63693 0.01621 0.0
H268 H 0.28155 0.71609 0.02459 0.0
H269 H 0.22243 0.68881 0.04315 0.0
H270 H 0.35669 0.48027 0.95463 0.0
H271 H 0.29424 0.45558 0.96327 0.0
H272 H 0.39483 0.5453 0.92549 0.0
H273 H 0.41061 0.60879 0.9437 0.0
C274 C 0.64639 0.64101 0.92973 0.0
C275 C 0.68201 0.66427 0.96336 0.0
C276 C 0.62856 0.73986 0.97032 0.0
C277 C 0.58731 0.70978 0.94937 0.0
N278 N 0.55673 0.63171 0.90689 0.0
N279 N 0.71234 0.73888 0.00961 0.0
C280 C 0.59637 0.66094 0.92697 0.0
C281 C 0.67522 0.71539 0.98077 0.0
N282 N 0.65981 0.59904 0.90203 0.0
N283 N 0.62252 0.79134 0.98049 0.0
H284 H 0.74769 0.72193 0.01541 0.0
H285 H 0.70767 0.77375 0.02856 0.0
H286 H 0.5888 0.81004 0.9718 0.0
H287 H 0.65211 0.81632 -0.00705 0.0
H288 H 0.63648 0.58255 0.87441 0.0
H289 H 0.69677 0.5848 0.90256 0.0
H290 H 0.56015 0.59318 0.89574 0.0
H291 H 0.51936 0.64459 0.90426 0.0
C292 C 0.62912 0.39153 0.9897 0.0
C293 C 0.63145 0.41811 0.03578 0.0
C294 C 0.60709 0.33737 0.07881 0.0
C295 C 0.6053 0.31051 0.03258 0.0
N296 N 0.63965 0.30935 0.94884 0.0
N297 N 0.59959 0.42021 0.12008 0.0
C298 C 0.62321 0.33673 0.98911 0.0
C299 C 0.61368 0.39228 0.07932 0.0
N300 N 0.62993 0.41892 0.94634 0.0
N301 N 0.6075 0.31033 0.12235 0.0
H302 H 0.59715 0.46056 0.11934 0.0
H303 H 0.58272 0.40311 0.1515 0.0
H304 H 0.61114 0.27013 0.12335 0.0
H305 H 0.61275 0.32821 0.15685 0.0
H306 H 0.62415 0.40139 0.91174 0.0
H307 H 0.62911 0.45945 0.94583 0.0
H308 H 0.65633 0.32712 0.91765 0.0
H309 H 0.64471 0.26936 0.94997 0.0
C310 C 0.36107 0.28869 0.94192 0.0
C311 C 0.36152 0.23723 0.96083 0.0
C312 C 0.26905 0.23823 0.97742 0.0
C313 C 0.26929 0.29008 0.96034 0.0
N314 N 0.30951 0.35841 0.91161 0.0
N315 N 0.3145 0.15773 0.98165 0.0
C316 C 0.31332 0.31291 0.93708 0.0
C317 C 0.31484 0.21016 0.97362 0.0
N318 N 0.40612 0.31604 0.93256 0.0
N319 N 0.22566 0.21679 -0.00099 0.0
H320 H 0.34746 0.13608 0.97781 0.0
H321 H 0.28104 0.13505 0.98731 0.0
H322 H 0.19091 0.23585 -0.00017 0.0
H323 H 0.22466 0.18141 0.01769 0.0
H324 H 0.40789 0.3556 0.9244 0.0
H325 H 0.4423 0.30067 0.93685 0.0
H326 H 0.33936 0.37487 0.89029 0.0
H327 H 0.27468 0.37681 0.90779 0.0
C328 C 0.94007 0.49898 0.40662 0.0
C329 C 0.95627 0.52491 0.45047 0.0
C330 C -0.02476 0.44166 0.48827 0.0
C331 C 0.96632 0.41716 0.44155 0.0
N332 N 0.95381 0.42605 0.35281 0.0
N333 N -0.00731 0.52292 0.53241 0.0
C334 C 0.95227 0.44667 0.39971 0.0
C335 C -0.02521 0.49686 0.49136 0.0
N336 N 0.91213 0.52403 0.37184 0.0
N337 N -0.01755 0.41227 0.52964 0.0
H338 H -0.00864 0.56326 0.536 0.0
H339 H 0.01166 0.50502 0.56131 0.0
H340 H -0.01805 0.37172 0.52871 0.0
H341 H -0.01552 0.42775 0.5654 0.0
H342 H 0.8951 0.50487 0.34159 0.0
H343 H 0.90138 0.56244 0.37607 0.0
H344 H 0.94849 0.44819 0.32101 0.0
H345 H 0.96641 0.38887 0.34503 0.0
C346 C 0.51114 0.94594 0.47588 0.0
C347 C 0.5222 -0.00056 0.48462 0.0
C348 C 0.43355 0.01847 0.46617 0.0
C349 C 0.42042 0.96529 0.47381 0.0
N350 N 0.44603 0.87618 0.47537 0.0
N351 N 0.49679 0.08845 0.48002 0.0
C352 C 0.45907 0.92801 0.47365 0.0
C353 C 0.48466 0.03658 0.47556 0.0
N354 N 0.55068 0.91282 0.4709 0.0
N355 N 0.3962 0.05127 0.45226 0.0
H356 H 0.53429 0.10276 0.48569 0.0
H357 H 0.46961 0.11715 0.47962 0.0
H358 H 0.35857 0.03754 0.44554 0.0
H359 H 0.40331 0.09017 0.44319 0.0
H360 H 0.54575 0.87374 0.46125 0.0
H361 H 0.58902 0.92622 0.47189 0.0
H362 H 0.47226 0.84748 0.48215 0.0
H363 H 0.40846 0.86182 0.47052 0.0
C364 C 0.43376 0.00567 0.02041 0.0
C365 C 0.48694 0.01827 0.01555 0.0
C366 C 0.50565 0.92672 0.02315 0.0
C367 C 0.45351 0.91432 0.01225 0.0
N368 N 0.36559 0.94077 0.00689 0.0
N369 N 0.57498 -0.00816 0.01849 0.0
C370 C 0.41641 0.95321 0.01447 0.0
C371 C 0.52356 -0.02072 0.02049 0.0
N372 N 0.40032 0.04436 0.02939 0.0
N373 N 0.53776 0.88773 0.0345 0.0
H374 H 0.58951 0.03008 0.01791 0.0
H375 H 0.6032 0.9643 0.01551 0.0
H376 H 0.52439 0.84903 0.03688 0.0
H377 H 0.57558 0.89416 0.04611 0.0
H378 H 0.36132 0.03762 0.03676 0.0
H379 H 0.41311 0.08299 0.03429 0.0
H380 H 0.33789 0.96839 0.00157 0.0
H381 H 0.35119 0.90259 0.00425 0.0
C382 C 0.95776 0.45624 0.95821 0.0
C383 C -0.01342 0.42075 0.98537 0.0
C384 C 0.91442 0.4025 0.04068 0.0
C385 C 0.88483 0.43883 0.01433 0.0
N386 N 0.87279 0.48421 0.9369 0.0
N387 N -0.01592 0.34316 0.03499 0.0
C388 C 0.90461 0.46044 0.9692 0.0
C389 C 0.96152 0.38736 0.01988 0.0
N390 N -0.01823 0.48712 0.92346 0.0
N391 N 0.90132 0.38655 0.08762 0.0
H392 H 0.01817 0.33072 0.01914 0.0
H393 H 0.96554 0.31605 0.05828 0.0
H394 H 0.87111 0.4012 0.10817 0.0
H395 H 0.92493 0.36362 0.10892 0.0
H396 H 0.96416 0.518 0.90631 0.0
H397 H 0.02024 0.48256 0.9136 0.0
H398 H 0.88487 0.49755 0.9021 0.0
H399 H 0.83314 0.48515 0.94261 0.0
loop_
_geom_bond_atom_site_label_1
_geom_bond_atom_site_label_2
_geom_bond_distance
_geom_bond_site_symmetry_2
_ccdc_geom_bond_type
C0 O1 1.306 . S
C0 O3 1.160 . S
O1 C0 1.306 . S
O1 Cd2 2.228 1_455 S
Cd2 O1 2.228 1_655 S
Cd2 O6 2.270 1_655 S
Cd2 O10 2.277 1_655 S
O3 C0 1.160 . S
O3 Cd4 2.203 . S
Cd4 O3 2.203 . S
Cd4 O6 2.421 . S
Cd4 O7 2.333 . S
Cd4 O8 2.352 . S
Cd4 O12 2.277 . S
Cd4 O13 2.356 . S
C5 O10 1.209 . S
C5 O12 1.226 . S
O6 Cd2 2.270 1_455 S
O6 Cd4 2.421 . S
O6 C9 1.317 1_455 S
O7 Cd4 2.333 . S
O7 C9 1.214 1_455 S
O8 Cd4 2.352 . S
O8 C11 1.258 . S
C9 O6 1.317 1_655 S
C9 O7 1.214 1_655 S
O10 Cd2 2.277 1_455 S
O10 C5 1.209 . S
C11 O8 1.258 . S
C11 O13 1.282 . S
O12 Cd4 2.277 . S
O12 C5 1.226 . S
O13 Cd4 2.356 . S
O13 C11 1.282 . S
C14 O15 1.306 . S
C14 O17 1.160 . S
O15 C14 1.306 . S
O15 Cd16 2.228 . S
Cd16 O15 2.228 . S
Cd16 O20 2.273 . S
Cd16 O24 2.277 . S
O17 C14 1.160 . S
O17 Cd18 2.203 . S
Cd18 O17 2.203 . S
Cd18 O20 2.411 . S
Cd18 O21 2.333 . S
Cd18 O22 2.352 . S
Cd18 O26 2.277 1_565 S
Cd18 O27 2.356 . S
C19 O24 1.209 1_545 S
C19 O26 1.226 . S
O20 Cd16 2.273 . S
O20 Cd18 2.411 . S
O20 C23 1.320 . S
O21 Cd18 2.333 . S
O21 C23 1.214 . S
O22 Cd18 2.352 . S
O22 C25 1.258 . S
C23 O20 1.320 . S
C23 O21 1.214 . S
O24 Cd16 2.277 . S
O24 C19 1.209 1_565 S
C25 O22 1.258 . S
C25 O27 1.282 . S
O26 Cd18 2.277 1_545 S
O26 C19 1.226 . S
O27 Cd18 2.356 . S
O27 C25 1.282 . S
C28 O29 1.306 . S
C28 O31 1.160 . S
O29 C28 1.306 . S
O29 Cd30 2.228 1_655 S
Cd30 O29 2.228 1_455 S
Cd30 O34 2.270 1_455 S
Cd30 O38 2.277 1_455 S
O31 C28 1.160 . S
O31 Cd32 2.203 . S
Cd32 O31 2.203 . S
Cd32 O34 2.421 . S
Cd32 O35 2.333 . S
Cd32 O36 2.352 . S
Cd32 O40 2.277 . S
Cd32 O41 2.356 . S
C33 O38 1.209 . S
C33 O40 1.226 . S
O34 Cd30 2.270 1_655 S
O34 Cd32 2.421 . S
O34 C37 1.317 1_655 S
O35 Cd32 2.333 . S
O35 C37 1.214 1_655 S
O36 Cd32 2.352 . S
O36 C39 1.258 . S
C37 O34 1.317 1_455 S
C37 O35 1.214 1_455 S
O38 Cd30 2.277 1_655 S
O38 C33 1.209 . S
C39 O36 1.258 . S
C39 O41 1.282 . S
O40 Cd32 2.277 . S
O40 C33 1.226 . S
O41 Cd32 2.356 . S
O41 C39 1.282 . S
C42 O43 1.306 . S
C42 O45 1.160 . S
O43 C42 1.306 . S
O43 Cd44 2.228 . S
Cd44 O43 2.228 . S
Cd44 O48 2.273 . S
Cd44 O52 2.277 . S
O45 C42 1.160 . S
O45 Cd46 2.203 . S
Cd46 O45 2.203 . S
Cd46 O48 2.411 . S
Cd46 O49 2.333 . S
Cd46 O50 2.352 . S
Cd46 O54 2.277 1_545 S
Cd46 O55 2.356 . S
C47 O52 1.209 1_565 S
C47 O54 1.226 . S
O48 Cd44 2.273 . S
O48 Cd46 2.411 . S
O48 C51 1.320 . S
O49 Cd46 2.333 . S
O49 C51 1.214 . S
O50 Cd46 2.352 . S
O50 C53 1.258 . S
C51 O48 1.320 . S
C51 O49 1.214 . S
O52 Cd44 2.277 . S
O52 C47 1.209 1_545 S
C53 O50 1.258 . S
C53 O55 1.282 . S
O54 Cd46 2.277 1_565 S
O54 C47 1.226 . S
O55 Cd46 2.356 . S
O55 C53 1.282 . S
C56 O57 1.306 . S
C56 O59 1.160 1_554 S
O57 C56 1.306 . S
O57 Cd58 2.228 . S
Cd58 O57 2.228 . S
Cd58 O62 2.273 . S
Cd58 O66 2.277 . S
O59 C56 1.160 1_556 S
O59 Cd60 2.203 . S
Cd60 O59 2.203 . S
Cd60 O62 2.411 1_556 S
Cd60 O63 2.333 . S
Cd60 O64 2.352 . S
Cd60 O68 2.277 . S
Cd60 O69 2.356 . S
C61 O66 1.209 1_556 S
C61 O68 1.226 . S
O62 Cd58 2.273 . S
O62 Cd60 2.411 1_554 S
O62 C65 1.320 1_554 S
O63 Cd60 2.333 . S
O63 C65 1.214 . S
O64 Cd60 2.352 . S
O64 C67 1.258 . S
C65 O62 1.320 1_556 S
C65 O63 1.214 . S
O66 Cd58 2.277 . S
O66 C61 1.209 1_554 S
C67 O64 1.258 . S
C67 O69 1.282 . S
O68 Cd60 2.277 . S
O68 C61 1.226 . S
O69 Cd60 2.356 . S
O69 C67 1.282 . S
C70 O71 1.306 . S
C70 O73 1.160 . S
O71 C70 1.306 . S
O71 Cd72 2.228 . S
Cd72 O71 2.228 . S
Cd72 O76 2.273 . S
Cd72 O80 2.277 . S
O73 C70 1.160 . S
O73 Cd74 2.203 . S
Cd74 O73 2.203 . S
Cd74 O76 2.411 . S
Cd74 O77 2.333 1_554 S
Cd74 O78 2.352 . S
Cd74 O82 2.277 . S
Cd74 O83 2.356 1_554 S
C75 O80 1.209 . S
C75 O82 1.226 . S
O76 Cd72 2.273 . S
O76 Cd74 2.411 . S
O76 C79 1.320 . S
O77 Cd74 2.333 1_556 S
O77 C79 1.214 1_556 S
O78 Cd74 2.352 . S
O78 C81 1.258 . S
C79 O76 1.320 . S
C79 O77 1.214 1_554 S
O80 Cd72 2.277 . S
O80 C75 1.209 . S
C81 O78 1.258 . S
C81 O83 1.282 1_554 S
O82 Cd74 2.277 . S
O82 C75 1.226 . S
O83 Cd74 2.356 1_556 S
O83 C81 1.282 1_556 S
C84 O85 1.306 . S
C84 O87 1.160 1_554 S
O85 C84 1.306 . S
O85 Cd86 2.228 . S
Cd86 O85 2.228 . S
Cd86 O90 2.273 . S
Cd86 O94 2.277 . S
O87 C84 1.160 1_556 S
O87 Cd88 2.203 . S
Cd88 O87 2.203 . S
Cd88 O90 2.411 1_556 S
Cd88 O91 2.333 . S
Cd88 O92 2.352 . S
Cd88 O96 2.277 . S
Cd88 O97 2.356 . S
C89 O94 1.209 1_556 S
C89 O96 1.226 . S
O90 Cd86 2.273 . S
O90 Cd88 2.411 1_554 S
O90 C93 1.320 1_554 S
O91 Cd88 2.333 . S
O91 C93 1.214 . S
O92 Cd88 2.352 . S
O92 C95 1.258 . S
C93 O90 1.320 1_556 S
C93 O91 1.214 . S
O94 Cd86 2.277 . S
O94 C89 1.209 1_554 S
C95 O92 1.258 . S
C95 O97 1.282 . S
O96 Cd88 2.277 . S
O96 C89 1.226 . S
O97 Cd88 2.356 . S
O97 C95 1.282 . S
C98 O99 1.306 . S
C98 O101 1.160 . S
O99 C98 1.306 . S
O99 Cd100 2.228 . S
Cd100 O99 2.228 . S
Cd100 O104 2.273 . S
Cd100 O108 2.277 . S
O101 C98 1.160 . S
O101 Cd102 2.203 . S
Cd102 O101 2.203 . S
Cd102 O104 2.411 . S
Cd102 O105 2.333 1_554 S
Cd102 O106 2.352 . S
Cd102 O110 2.277 . S
Cd102 O111 2.356 1_554 S
C103 O108 1.209 . S
C103 O110 1.226 . S
O104 Cd100 2.273 . S
O104 Cd102 2.411 . S
O104 C107 1.320 . S
O105 Cd102 2.333 1_556 S
O105 C107 1.214 1_556 S
O106 Cd102 2.352 . S
O106 C109 1.258 . S
C107 O104 1.320 . S
C107 O105 1.214 1_554 S
O108 Cd100 2.277 . S
O108 C103 1.209 . S
C109 O106 1.258 . S
C109 O111 1.282 1_554 S
O110 Cd102 2.277 . S
O110 C103 1.226 . S
O111 Cd102 2.356 1_556 S
O111 C109 1.282 1_556 S
C112 C113 1.363 . S
C112 C118 1.379 . S
C112 N120 1.356 . S
C113 C112 1.363 . S
C113 C119 1.363 . S
C114 C115 1.363 . S
C114 C119 1.379 . S
C114 N121 1.356 . S
C115 C114 1.363 . S
C115 C118 1.363 . S
N116 C118 1.356 . S
N116 H128 0.984 . S
N116 H129 0.985 . S
N117 C119 1.356 . S
N117 H122 0.984 . S
N117 H123 0.985 . S
C118 C112 1.379 . S
C118 C115 1.363 . S
C118 N116 1.356 . S
C119 C113 1.363 . S
C119 C114 1.379 . S
C119 N117 1.356 . S
N120 C112 1.356 . S
N120 H126 0.984 . S
N120 H127 0.984 . S
N121 C114 1.356 . S
N121 H124 0.984 . S
N121 H125 0.985 . S
H122 N117 0.984 . S
H123 N117 0.985 . S
H124 N121 0.984 . S
H125 N121 0.985 . S
H126 N120 0.984 . S
H127 N120 0.984 . S
H128 N116 0.984 . S
H129 N116 0.985 . S
C130 C131 1.363 . S
C130 C136 1.379 . S
C130 N138 1.356 . S
C131 C130 1.363 . S
C131 C137 1.363 . S
C132 C133 1.363 . S
C132 C137 1.379 . S
C132 N139 1.356 . S
C133 C132 1.363 . S
C133 C136 1.363 . S
N134 C136 1.356 . S
N134 H146 0.984 . S
N134 H147 0.985 . S
N135 C137 1.356 . S
N135 H140 0.984 . S
N135 H141 0.985 . S
C136 C130 1.379 . S
C136 C133 1.363 . S
C136 N134 1.356 . S
C137 C131 1.363 . S
C137 C132 1.379 . S
C137 N135 1.356 . S
N138 C130 1.356 . S
N138 H144 0.984 . S
N138 H145 0.984 . S
N139 C132 1.356 . S
N139 H142 0.984 . S
N139 H143 0.985 . S
H140 N135 0.984 . S
H141 N135 0.985 . S
H142 N139 0.984 . S
H143 N139 0.985 . S
H144 N138 0.984 . S
H145 N138 0.984 . S
H146 N134 0.984 . S
H147 N134 0.985 . S
C148 C149 1.363 . S
C148 C154 1.379 . S
C148 N156 1.356 . S
C149 C148 1.363 . S
C149 C155 1.363 . S
C150 C151 1.363 . S
C150 C155 1.379 . S
C150 N157 1.356 . S
C151 C150 1.363 . S
C151 C154 1.363 . S
N152 C154 1.356 . S
N152 H164 0.984 . S
N152 H165 0.985 . S
N153 C155 1.356 . S
N153 H158 0.984 . S
N153 H159 0.985 . S
C154 C148 1.379 . S
C154 C151 1.363 . S
C154 N152 1.356 . S
C155 C149 1.363 . S
C155 C150 1.379 . S
C155 N153 1.356 . S
N156 C148 1.356 . S
N156 H162 0.984 . S
N156 H163 0.984 . S
N157 C150 1.356 . S
N157 H160 0.984 . S
N157 H161 0.985 . S
H158 N153 0.984 . S
H159 N153 0.985 . S
H160 N157 0.984 . S
H161 N157 0.985 . S
H162 N156 0.984 . S
H163 N156 0.984 . S
H164 N152 0.984 . S
H165 N152 0.985 . S
C166 C167 1.363 . S
C166 C172 1.379 . S
C166 N174 1.356 . S
C167 C166 1.363 . S
C167 C173 1.363 . S
C168 C169 1.363 . S
C168 C173 1.379 . S
C168 N175 1.356 . S
C169 C168 1.363 . S
C169 C172 1.363 . S
N170 C172 1.356 . S
N170 H182 0.984 . S
N170 H183 0.985 . S
N171 C173 1.356 . S
N171 H176 0.984 . S
N171 H177 0.985 . S
C172 C166 1.379 . S
C172 C169 1.363 . S
C172 N170 1.356 . S
C173 C167 1.363 . S
C173 C168 1.379 . S
C173 N171 1.356 . S
N174 C166 1.356 . S
N174 H180 0.984 . S
N174 H181 0.984 . S
N175 C168 1.356 . S
N175 H178 0.984 . S
N175 H179 0.985 . S
H176 N171 0.984 . S
H177 N171 0.985 . S
H178 N175 0.984 . S
H179 N175 0.985 . S
H180 N174 0.984 . S
H181 N174 0.984 . S
H182 N170 0.984 . S
H183 N170 0.985 . S
C184 C185 1.363 . S
C184 C190 1.379 . S
C184 N192 1.356 . S
C185 C184 1.363 . S
C185 C191 1.363 . S
C186 C187 1.363 . S
C186 C191 1.379 . S
C186 N193 1.356 . S
C187 C186 1.363 . S
C187 C190 1.363 . S
N188 C190 1.356 . S
N188 H200 0.984 . S
N188 H201 0.985 . S
N189 C191 1.356 . S
N189 H194 0.984 . S
N189 H195 0.985 . S
C190 C184 1.379 . S
C190 C187 1.363 . S
C190 N188 1.356 . S
C191 C185 1.363 . S
C191 C186 1.379 . S
C191 N189 1.356 . S
N192 C184 1.356 . S
N192 H198 0.984 . S
N192 H199 0.984 . S
N193 C186 1.356 . S
N193 H196 0.984 . S
N193 H197 0.985 . S
H194 N189 0.984 . S
H195 N189 0.985 . S
H196 N193 0.984 . S
H197 N193 0.985 . S
H198 N192 0.984 . S
H199 N192 0.984 . S
H200 N188 0.984 . S
H201 N188 0.985 . S
C202 C203 1.363 . S
C202 C208 1.379 . S
C202 N210 1.356 . S
C203 C202 1.363 . S
C203 C209 1.363 . S
C204 C205 1.363 . S
C204 C209 1.379 . S
C204 N211 1.356 . S
C205 C204 1.363 . S
C205 C208 1.363 . S
N206 C208 1.356 . S
N206 H218 0.984 . S
N206 H219 0.985 . S
N207 C209 1.356 . S
N207 H212 0.984 . S
N207 H213 0.985 . S
C208 C202 1.379 . S
C208 C205 1.363 . S
C208 N206 1.356 . S
C209 C203 1.363 . S
C209 C204 1.379 . S
C209 N207 1.356 . S
N210 C202 1.356 . S
N210 H216 0.984 . S
N210 H217 0.984 . S
N211 C204 1.356 . S
N211 H214 0.984 . S
N211 H215 0.985 . S
H212 N207 0.984 . S
H213 N207 0.985 . S
H214 N211 0.984 . S
H215 N211 0.985 . S
H216 N210 0.984 . S
H217 N210 0.984 . S
H218 N206 0.984 . S
H219 N206 0.985 . S
C220 C221 1.363 . S
C220 C226 1.379 . S
C220 N228 1.356 . S
C221 C220 1.363 . S
C221 C227 1.363 . S
C222 C223 1.363 . S
C222 C227 1.379 . S
C222 N229 1.356 . S
C223 C222 1.363 . S
C223 C226 1.363 . S
N224 C226 1.356 . S
N224 H236 0.984 . S
N224 H237 0.985 . S
N225 C227 1.356 . S
N225 H230 0.984 . S
N225 H231 0.985 . S
C226 C220 1.379 . S
C226 C223 1.363 . S
C226 N224 1.356 . S
C227 C221 1.363 . S
C227 C222 1.379 . S
C227 N225 1.356 . S
N228 C220 1.356 . S
N228 H234 0.984 . S
N228 H235 0.984 . S
N229 C222 1.356 . S
N229 H232 0.984 . S
N229 H233 0.985 . S
H230 N225 0.984 . S
H231 N225 0.985 . S
H232 N229 0.984 . S
H233 N229 0.985 . S
H234 N228 0.984 . S
H235 N228 0.984 . S
H236 N224 0.984 . S
H237 N224 0.985 . S
C238 C239 1.363 . S
C238 C244 1.379 . S
C238 N246 1.356 . S
C239 C238 1.363 . S
C239 C245 1.363 . S
C240 C241 1.363 . S
C240 C245 1.379 . S
C240 N247 1.356 . S
C241 C240 1.363 . S
C241 C244 1.363 . S
N242 C244 1.356 . S
N242 H254 0.984 . S
N242 H255 0.985 . S
N243 C245 1.356 . S
N243 H248 0.984 . S
N243 H249 0.985 . S
C244 C238 1.379 . S
C244 C241 1.363 . S
C244 N242 1.356 . S
C245 C239 1.363 . S
C245 C240 1.379 . S
C245 N243 1.356 . S
N246 C238 1.356 . S
N246 H252 0.984 . S
N246 H253 0.984 . S
N247 C240 1.356 . S
N247 H250 0.984 . S
N247 H251 0.985 . S
H248 N243 0.984 . S
H249 N243 0.985 . S
H250 N247 0.984 . S
H251 N247 0.985 . S
H252 N246 0.984 . S
H253 N246 0.984 . S
H254 N242 0.984 . S
H255 N242 0.985 . S
C256 C257 1.363 1_556 S
C256 C262 1.379 . S
C256 N264 1.356 . S
C257 C256 1.363 1_554 S
C257 C263 1.363 . S
C258 C259 1.363 . S
C258 C263 1.379 . S
C258 N265 1.356 . S
C259 C258 1.363 . S
C259 C262 1.363 1_554 S
N260 C262 1.356 . S
N260 H272 0.984 . S
N260 H273 0.985 . S
N261 C263 1.356 . S
N261 H266 0.984 . S
N261 H267 0.985 . S
C262 C256 1.379 . S
C262 C259 1.363 1_556 S
C262 N260 1.356 . S
C263 C257 1.363 . S
C263 C258 1.379 . S
C263 N261 1.356 . S
N264 C256 1.356 . S
N264 H270 0.984 . S
N264 H271 0.984 . S
N265 C258 1.356 . S
N265 H268 0.984 . S
N265 H269 0.985 . S
H266 N261 0.984 . S
H267 N261 0.985 . S
H268 N265 0.984 . S
H269 N265 0.985 . S
H270 N264 0.984 . S
H271 N264 0.984 . S
H272 N260 0.984 . S
H273 N260 0.985 . S
C274 C275 1.363 . S
C274 C280 1.379 . S
C274 N282 1.356 . S
C275 C274 1.363 . S
C275 C281 1.363 1_554 S
C276 C277 1.347 1_556 S
C276 C281 1.379 . S
C276 N283 1.356 . S
C277 C276 1.347 1_554 S
C277 C280 1.380 . S
N278 C280 1.356 . S
N278 H290 0.984 . S
N278 H291 0.985 . S
N279 C281 1.356 . S
N279 H284 0.984 . S
N279 H285 0.985 . S
C280 C274 1.379 . S
C280 C277 1.380 . S
C280 N278 1.356 . S
C281 C275 1.363 1_556 S
C281 C276 1.379 . S
C281 N279 1.356 . S
N282 C274 1.356 . S
N282 H288 0.984 . S
N282 H289 0.984 . S
N283 C276 1.356 . S
N283 H286 0.984 . S
N283 H287 0.985 . S
H284 N279 0.984 . S
H285 N279 0.985 . S
H286 N283 0.984 . S
H287 N283 0.985 . S
H288 N282 0.984 . S
H289 N282 0.984 . S
H290 N278 0.984 . S
H291 N278 0.985 . S
C292 C293 1.363 1_556 S
C292 C298 1.379 . S
C292 N300 1.356 . S
C293 C292 1.363 1_554 S
C293 C299 1.363 . S
C294 C295 1.363 . S
C294 C299 1.379 . S
C294 N301 1.356 . S
C295 C294 1.363 . S
C295 C298 1.363 1_554 S
N296 C298 1.356 . S
N296 H308 0.984 . S
N296 H309 0.985 . S
N297 C299 1.356 . S
N297 H302 0.984 . S
N297 H303 0.985 . S
C298 C292 1.379 . S
C298 C295 1.363 1_556 S
C298 N296 1.356 . S
C299 C293 1.363 . S
C299 C294 1.379 . S
C299 N297 1.356 . S
N300 C292 1.356 . S
N300 H306 0.984 . S
N300 H307 0.984 . S
N301 C294 1.356 . S
N301 H304 0.984 . S
N301 H305 0.985 . S
H302 N297 0.984 . S
H303 N297 0.985 . S
H304 N301 0.984 . S
H305 N301 0.985 . S
H306 N300 0.984 . S
H307 N300 0.984 . S
H308 N296 0.984 . S
H309 N296 0.985 . S
C310 C311 1.348 1_556 S
C310 C316 1.379 . S
C310 N318 1.356 . S
C311 C310 1.348 1_554 S
C311 C317 1.379 . S
C312 C313 1.363 . S
C312 C317 1.379 . S
C312 N319 1.356 . S
C313 C312 1.363 . S
C313 C316 1.363 1_554 S
N314 C316 1.356 . S
N314 H326 0.984 . S
N314 H327 0.985 . S
N315 C317 1.356 . S
N315 H320 0.984 . S
N315 H321 0.985 . S
C316 C310 1.379 . S
C316 C313 1.363 1_556 S
C316 N314 1.356 . S
C317 C311 1.379 . S
C317 C312 1.379 . S
C317 N315 1.356 . S
N318 C310 1.356 . S
N318 H324 0.984 . S
N318 H325 0.984 . S
N319 C312 1.356 . S
N319 H322 0.984 . S
N319 H323 0.985 . S
H320 N315 0.984 . S
H321 N315 0.985 . S
H322 N319 0.984 . S
H323 N319 0.985 . S
H324 N318 0.984 . S
H325 N318 0.984 . S
H326 N314 0.984 . S
H327 N314 0.985 . S
C328 C329 1.363 . S
C328 C334 1.379 . S
C328 N336 1.356 . S
C329 C328 1.363 . S
C329 C335 1.363 1_655 S
C330 C331 1.363 . S
C330 C335 1.379 . S
C330 N337 1.356 . S
C331 C330 1.363 . S
C331 C334 1.363 1_455 S
N332 C334 1.356 1_455 S
N332 H344 0.984 1_455 S
N332 H345 0.985 . S
N333 C335 1.356 1_655 S
N333 H338 0.984 . S
N333 H339 0.985 1_655 S
C334 C328 1.379 . S
C334 C331 1.363 1_655 S
C334 N332 1.356 1_655 S
C335 C329 1.363 1_455 S
C335 C330 1.379 . S
C335 N333 1.356 1_455 S
N336 C328 1.356 . S
N336 H342 0.984 . S
N336 H343 0.984 . S
N337 C330 1.356 . S
N337 H340 0.984 . S
N337 H341 0.985 . S
H338 N333 0.984 . S
H339 N333 0.985 1_455 S
H340 N337 0.984 . S
H341 N337 0.985 . S
H342 N336 0.984 . S
H343 N336 0.984 . S
H344 N332 0.984 1_655 S
H345 N332 0.985 . S
C346 C347 1.363 1_565 S
C346 C352 1.379 . S
C346 N354 1.356 1_565 S
C347 C346 1.363 1_545 S
C347 C353 1.363 . S
C348 C349 1.363 1_545 S
C348 C353 1.379 . S
C348 N355 1.356 1_545 S
C349 C348 1.363 1_565 S
C349 C352 1.363 . S
N350 C352 1.356 . S
N350 H362 0.984 . S
N350 H363 0.985 . S
N351 C353 1.356 . S
N351 H356 0.984 . S
N351 H357 0.985 . S
C352 C346 1.379 . S
C352 C349 1.363 . S
C352 N350 1.356 . S
C353 C347 1.363 . S
C353 C348 1.379 . S
C353 N351 1.356 . S
N354 C346 1.356 1_545 S
N354 H360 0.984 1_545 S
N354 H361 0.984 . S
N355 C348 1.356 1_565 S
N355 H358 0.984 . S
N355 H359 0.985 1_565 S
H356 N351 0.984 . S
H357 N351 0.985 . S
H358 N355 0.984 . S
H359 N355 0.985 1_545 S
H360 N354 0.984 1_565 S
H361 N354 0.984 . S
H362 N350 0.984 . S
H363 N350 0.985 . S
C364 C365 1.363 . S
C364 C370 1.379 1_545 S
C364 N372 1.356 . S
C365 C364 1.363 . S
C365 C371 1.363 1_556 S
C366 C367 1.363 1_554 S
C366 C371 1.379 1_565 S
C366 N373 1.356 . S
C367 C366 1.363 1_556 S
C367 C370 1.363 . S
N368 C370 1.356 . S
N368 H380 0.984 . S
N368 H381 0.985 . S
N369 C371 1.356 . S
N369 H374 0.984 . S
N369 H375 0.985 . S
C370 C364 1.379 1_565 S
C370 C367 1.363 . S
C370 N368 1.356 . S
C371 C365 1.363 1_554 S
C371 C366 1.379 1_545 S
C371 N369 1.356 . S
N372 C364 1.356 . S
N372 H378 0.984 . S
N372 H379 0.984 . S
N373 C366 1.356 . S
N373 H376 0.984 . S
N373 H377 0.985 . S
H374 N369 0.984 . S
H375 N369 0.985 . S
H376 N373 0.984 . S
H377 N373 0.985 . S
H378 N372 0.984 . S
H379 N372 0.984 . S
H380 N368 0.984 . S
H381 N368 0.985 . S
C382 C383 1.363 1_556 S
C382 C388 1.379 1_455 S
C382 N390 1.356 . S
C383 C382 1.363 1_554 S
C383 C389 1.363 . S
C384 C385 1.363 . S
C384 C389 1.379 1_655 S
C384 N391 1.356 . S
C385 C384 1.363 . S
C385 C388 1.363 1_554 S
N386 C388 1.356 . S
N386 H398 0.995 . S
N386 H399 0.985 . S
N387 C389 1.356 . S
N387 H392 0.984 . S
N387 H393 0.995 . S
C388 C382 1.379 1_655 S
C388 C385 1.363 1_556 S
C388 N386 1.356 . S
C389 C383 1.363 . S
C389 C384 1.379 1_455 S
C389 N387 1.356 . S
N390 C382 1.356 . S
N390 H396 0.984 . S
N390 H397 0.984 . S
N391 C384 1.356 . S
N391 H394 0.984 . S
N391 H395 0.985 . S
H392 N387 0.984 . S
H393 N387 0.995 . S
H394 N391 0.984 . S
H395 N391 0.985 . S
H396 N390 0.984 . S
H397 N390 0.984 . S
H398 N386 0.995 . S
H399 N386 0.985 . S
C113 C98 1.512 . S
C115 C0 1.512 . S
C131 C25 1.553 . S
C133 C67 1.553 . S
C149 C28 1.512 . S
C151 C70 1.512 . S
C167 C95 1.553 . S
C169 C53 1.553 . S
C185 C19 1.546 . S
C187 C11 1.523 . S
C203 C14 1.472 . S
C205 C37 1.517 . S
C221 C47 1.546 . S
C223 C39 1.523 . S
C239 C42 1.472 . S
C241 C9 1.517 . S
C257 C107 1.517 . S
C259 C56 1.472 . S
C275 C81 1.523 . S
C277 C61 1.543 1_554 S
C293 C79 1.517 . S
C295 C84 1.472 . S
C311 C89 1.543 1_554 S
C313 C109 1.523 . S
C329 C33 1.246 . S
C331 C5 1.246 . S
C347 C51 1.256 . S
C349 C23 1.256 . S
C365 C93 1.256 . S
C367 C65 1.256 . S
C383 C103 1.246 . S
C385 C75 1.246 . S
