# Generated by pormake.
# Topology wne, (6)-cn, num edge types: 1
# Building blocks:
#     Node 0, Type 0, BuildingBlock: CUKXOW_clean_sbu_0, # of connection points: 6
#     Node 1, Type 0, BuildingBlock: CUKXOW_clean_sbu_0, # of connection points: 6
#     Node 2, Type 0, BuildingBlock: CUKXOW_clean_sbu_0, # of connection points: 6
#     Node 3, Type 0, BuildingBlock: CUKXOW_clean_sbu_0, # of connection points: 6
#     Node 4, Type 0, BuildingBlock: CUKXOW_clean_sbu_0, # of connection points: 6
#     Node 5, Type 0, BuildingBlock: CUKXOW_clean_sbu_0, # of connection points: 6
#     Node 6, Type 0, BuildingBlock: CUKXOW_clean_sbu_0, # of connection points: 6
#     Node 7, Type 0, BuildingBlock: CUKXOW_clean_sbu_0, # of connection points: 6
#     Node 8, Type 0, BuildingBlock: CUKXOW_clean_sbu_0, # of connection points: 6
#     Node 9, Type 0, BuildingBlock: CUKXOW_clean_sbu_0, # of connection points: 6
#     Node 10, Type 0, BuildingBlock: CUKXOW_clean_sbu_0, # of connection points: 6
#     Node 11, Type 0, BuildingBlock: CUKXOW_clean_sbu_0, # of connection points: 6
#     Node 12, Type 0, BuildingBlock: CUKXOW_clean_sbu_0, # of connection points: 6
#     Node 13, Type 0, BuildingBlock: CUKXOW_clean_sbu_0, # of connection points: 6
#     Node 14, Type 0, BuildingBlock: CUKXOW_clean_sbu_0, # of connection points: 6
#     Node 15, Type 0, BuildingBlock: CUKXOW_clean_sbu_0, # of connection points: 6
#     Node 16, Type 0, BuildingBlock: CUKXOW_clean_sbu_0, # of connection points: 6
#     Node 17, Type 0, BuildingBlock: CUKXOW_clean_sbu_0, # of connection points: 6
#     Node 18, Type 0, BuildingBlock: CUKXOW_clean_sbu_0, # of connection points: 6
#     Node 19, Type 0, BuildingBlock: CUKXOW_clean_sbu_0, # of connection points: 6
#     Node 20, Type 0, BuildingBlock: CUKXOW_clean_sbu_0, # of connection points: 6
#     Node 21, Type 0, BuildingBlock: CUKXOW_clean_sbu_0, # of connection points: 6
#     Node 22, Type 0, BuildingBlock: CUKXOW_clean_sbu_0, # of connection points: 6
#     Node 23, Type 0, BuildingBlock: CUKXOW_clean_sbu_0, # of connection points: 6
#     Node 24, Type 0, BuildingBlock: CUKXOW_clean_sbu_0, # of connection points: 6
#     Node 25, Type 0, BuildingBlock: CUKXOW_clean_sbu_0, # of connection points: 6
#     Node 26, Type 0, BuildingBlock: CUKXOW_clean_sbu_0, # of connection points: 6
#     Node 27, Type 0, BuildingBlock: CUKXOW_clean_sbu_0, # of connection points: 6
#     Node 28, Type 0, BuildingBlock: CUKXOW_clean_sbu_0, # of connection points: 6
#     Node 29, Type 0, BuildingBlock: CUKXOW_clean_sbu_0, # of connection points: 6
#     Node 30, Type 0, BuildingBlock: CUKXOW_clean_sbu_0, # of connection points: 6
#     Node 31, Type 0, BuildingBlock: CUKXOW_clean_sbu_0, # of connection points: 6
#     Node 32, Type 0, BuildingBlock: CUKXOW_clean_sbu_0, # of connection points: 6
#     Node 33, Type 0, BuildingBlock: CUKXOW_clean_sbu_0, # of connection points: 6
#     Node 34, Type 0, BuildingBlock: CUKXOW_clean_sbu_0, # of connection points: 6
#     Node 35, Type 0, BuildingBlock: CUKXOW_clean_sbu_0, # of connection points: 6
#     Edge 36, Type (0, 0), None
#     Edge 37, Type (0, 0), None
#     Edge 38, Type (0, 0), None
#     Edge 39, Type (0, 0), None
#     Edge 40, Type (0, 0), None
#     Edge 41, Type (0, 0), None
#     Edge 42, Type (0, 0), None
#     Edge 43, Type (0, 0), None
#     Edge 44, Type (0, 0), None
#     Edge 45, Type (0, 0), None
#     Edge 46, Type (0, 0), None
#     Edge 47, Type (0, 0), None
#     Edge 48, Type (0, 0), None
#     Edge 49, Type (0, 0), None
#     Edge 50, Type (0, 0), None
#     Edge 51, Type (0, 0), None
#     Edge 52, Type (0, 0), None
#     Edge 53, Type (0, 0), None
#     Edge 54, Type (0, 0), None
#     Edge 55, Type (0, 0), None
#     Edge 56, Type (0, 0), None
#     Edge 57, Type (0, 0), None
#     Edge 58, Type (0, 0), None
#     Edge 59, Type (0, 0), None
#     Edge 60, Type (0, 0), None
#     Edge 61, Type (0, 0), None
#     Edge 62, Type (0, 0), None
#     Edge 63, Type (0, 0), None
#     Edge 64, Type (0, 0), None
#     Edge 65, Type (0, 0), None
#     Edge 66, Type (0, 0), None
#     Edge 67, Type (0, 0), None
#     Edge 68, Type (0, 0), None
#     Edge 69, Type (0, 0), None
#     Edge 70, Type (0, 0), None
#     Edge 71, Type (0, 0), None
#     Edge 72, Type (0, 0), None
#     Edge 73, Type (0, 0), None
#     Edge 74, Type (0, 0), None
#     Edge 75, Type (0, 0), None
#     Edge 76, Type (0, 0), None
#     Edge 77, Type (0, 0), None
#     Edge 78, Type (0, 0), None
#     Edge 79, Type (0, 0), None
#     Edge 80, Type (0, 0), None
#     Edge 81, Type (0, 0), None
#     Edge 82, Type (0, 0), None
#     Edge 83, Type (0, 0), None
#     Edge 84, Type (0, 0), None
#     Edge 85, Type (0, 0), None
#     Edge 86, Type (0, 0), None
#     Edge 87, Type (0, 0), None
#     Edge 88, Type (0, 0), None
#     Edge 89, Type (0, 0), None
#     Edge 90, Type (0, 0), None
#     Edge 91, Type (0, 0), None
#     Edge 92, Type (0, 0), None
#     Edge 93, Type (0, 0), None
#     Edge 94, Type (0, 0), None
#     Edge 95, Type (0, 0), None
#     Edge 96, Type (0, 0), None
#     Edge 97, Type (0, 0), None
#     Edge 98, Type (0, 0), None
#     Edge 99, Type (0, 0), None
#     Edge 100, Type (0, 0), None
#     Edge 101, Type (0, 0), None
#     Edge 102, Type (0, 0), None
#     Edge 103, Type (0, 0), None
#     Edge 104, Type (0, 0), None
#     Edge 105, Type (0, 0), None
#     Edge 106, Type (0, 0), None
#     Edge 107, Type (0, 0), None
#     Edge 108, Type (0, 0), None
#     Edge 109, Type (0, 0), None
#     Edge 110, Type (0, 0), None
#     Edge 111, Type (0, 0), None
#     Edge 112, Type (0, 0), None
#     Edge 113, Type (0, 0), None
#     Edge 114, Type (0, 0), None
#     Edge 115, Type (0, 0), None
#     Edge 116, Type (0, 0), None
#     Edge 117, Type (0, 0), None
#     Edge 118, Type (0, 0), None
#     Edge 119, Type (0, 0), None
#     Edge 120, Type (0, 0), None
#     Edge 121, Type (0, 0), None
#     Edge 122, Type (0, 0), None
#     Edge 123, Type (0, 0), None
#     Edge 124, Type (0, 0), None
#     Edge 125, Type (0, 0), None
#     Edge 126, Type (0, 0), None
#     Edge 127, Type (0, 0), None
#     Edge 128, Type (0, 0), None
#     Edge 129, Type (0, 0), None
#     Edge 130, Type (0, 0), None
#     Edge 131, Type (0, 0), None
#     Edge 132, Type (0, 0), None
#     Edge 133, Type (0, 0), None
#     Edge 134, Type (0, 0), None
#     Edge 135, Type (0, 0), None
#     Edge 136, Type (0, 0), None
#     Edge 137, Type (0, 0), None
#     Edge 138, Type (0, 0), None
#     Edge 139, Type (0, 0), None
#     Edge 140, Type (0, 0), None
#     Edge 141, Type (0, 0), None
#     Edge 142, Type (0, 0), None
#     Edge 143, Type (0, 0), None
# Relax obj value: 0.143
# Max RMSD: 0.235
# Mean RMSD: 0.235
data_MOF--net-wne--node1-CUKXOW_clean_sbu_0--edge1-none
_symmetry_space_group_name_H-M    P1
_symmetry_Int_Tables_number       1
_symmetry_cell_setting            triclinic
loop_
_symmetry_equiv_pos_as_xyz
'x, y, z'
_cell_length_a     32.02912
_cell_length_b     32.026371
_cell_length_c     17.804068
_cell_angle_alpha  89.993966
_cell_angle_beta   90.012644
_cell_angle_gamma 119.99123
loop_
_atom_site_label
_atom_site_type_symbol
_atom_site_fract_x
_atom_site_fract_y
_atom_site_fract_z
_atom_type_partial_charge
Tb0 Tb 0.34423 0.2635 0.09762 0.0
C1 C 0.26806 0.24066 0.20407 0.0
Tb2 Tb 0.26592 0.25397 0.02055 0.0
O3 O 0.36055 0.33332 0.14609 0.0
O4 O 0.331 0.31553 0.0406 0.0
O5 O 0.30072 0.22942 0.19212 0.0
C6 C 0.18161 0.25197 0.99164 0.0
O7 O 0.25526 0.25933 0.14663 0.0
C8 C 0.27115 0.17581 0.00571 0.0
C9 C 0.37555 0.29632 0.94219 0.0
O10 O 0.19227 0.23569 0.05038 0.0
O11 O 0.2191 0.27055 0.94757 0.0
O12 O 0.25398 0.19173 0.9546 0.0
O13 O 0.27893 0.20054 0.06486 0.0
O14 O 0.32942 0.28796 0.9362 0.0
O15 O 0.39084 0.28723 0.00425 0.0
C16 C 0.39006 0.22411 0.14322 0.0
O17 O 0.37285 0.21782 0.0758 0.0
O18 O 0.38991 0.25924 0.18003 0.0
C19 C 0.34499 0.3476 0.08938 0.0
Tb20 Tb 0.83588 0.10061 0.09762 0.0
C21 C 0.85872 0.04726 0.20408 0.0
Tb22 Tb 0.8454 1.03182 0.02057 0.0
O23 O 0.76608 0.04712 0.14611 0.0
O24 O 0.78385 1.03536 0.04062 0.0
O25 O 0.86999 0.09116 0.19211 0.0
C26 C 0.84736 0.94949 0.99165 0.0
O27 O 0.84004 1.0158 0.14665 0.0
C28 C 0.92355 0.11519 0.00572 0.0
C29 C 0.80305 0.09912 0.94218 0.0
O30 O 0.86366 0.97642 0.05038 0.0
O31 O 0.82878 0.96842 0.94759 0.0
O32 O 0.90763 0.08211 0.95462 0.0
O33 O 0.89883 0.09824 0.06488 0.0
O34 O 0.8114 0.06134 0.93621 0.0
O35 O 0.81216 0.1235 0.00424 0.0
C36 C 0.87525 0.18582 0.14321 0.0
O37 O 0.88155 0.1749 0.07581 0.0
O38 O 0.84013 0.15053 0.18003 0.0
C39 C 0.7518 1.01729 0.08941 0.0
Tb40 Tb 0.99873 0.75514 0.09764 0.0
C41 C 1.05207 0.83136 0.20407 0.0
Tb42 Tb 0.06752 0.83348 0.02056 0.0
O43 O 1.05223 0.73882 0.14612 0.0
O44 O 0.06397 0.76838 0.04065 0.0
O45 O 1.00818 0.79871 0.1921 0.0
C46 C 0.14983 0.91776 0.99164 0.0
O47 O 0.08353 0.84415 0.14665 0.0
C48 C 0.98413 0.82824 0.00572 0.0
C49 C 1.00025 0.72384 0.94218 0.0
O50 O 0.12292 0.90712 0.05039 0.0
O51 O 0.1309 0.88026 0.94758 0.0
O52 O 1.01721 0.84543 0.95463 0.0
O53 O 1.0011 0.82046 0.06487 0.0
O54 O 1.03802 0.76997 0.93622 0.0
O55 O 0.97586 0.70856 0.00423 0.0
C56 C 0.91353 0.70931 0.14323 0.0
O57 O 0.92444 0.72652 0.07582 0.0
O58 O 0.94882 0.70947 0.18005 0.0
C59 C 0.08207 0.75439 0.08943 0.0
Tb60 Tb 0.28335 0.32437 0.39078 0.0
C61 C 0.26053 0.24819 0.28434 0.0
Tb62 Tb 0.27383 0.24604 0.46785 0.0
O63 O 0.35316 0.34068 0.34232 0.0
O64 O 0.33537 0.31113 0.44779 0.0
O65 O 0.24928 0.28084 0.29626 0.0
C66 C 0.27184 0.16174 0.49677 0.0
O67 O 0.27918 0.23537 0.34177 0.0
C68 C 0.19568 0.25127 0.48269 0.0
C69 C 0.31618 0.35569 0.54622 0.0
O70 O 0.25554 0.17238 0.43804 0.0
O71 O 0.29044 0.19925 0.54082 0.0
O72 O 0.2116 0.2341 0.53379 0.0
O73 O 0.2204 0.25905 0.42353 0.0
O74 O 0.30781 0.30955 0.5522 0.0
O75 O 0.30708 0.37098 0.48415 0.0
C76 C 0.24394 0.37017 0.34516 0.0
O77 O 0.23765 0.35296 0.41257 0.0
O78 O 0.27908 0.37003 0.30837 0.0
C79 C 0.36743 0.3251 0.39902 0.0
Tb80 Tb 0.77497 0.97885 0.39077 0.0
C81 C 0.85117 1.0322 0.28436 0.0
Tb82 Tb 0.85332 0.04766 0.46786 0.0
O83 O 0.75865 1.03236 0.34231 0.0
O84 O 0.78823 0.04411 0.44777 0.0
O85 O 0.8185 0.9883 0.29628 0.0
C86 C 0.93762 0.12996 0.49678 0.0
O87 O 0.86399 0.06367 0.34178 0.0
C88 C 0.84808 0.96426 0.4827 0.0
C89 C 0.74369 0.98038 0.54623 0.0
O90 O 0.92697 0.10303 0.43804 0.0
O91 O 0.90012 0.11105 0.54083 0.0
O92 O 0.86528 0.99735 0.53379 0.0
O93 O 0.84029 0.98122 0.42355 0.0
O94 O 0.78982 1.01815 0.5522 0.0
O95 O 0.72839 0.95599 0.48417 0.0
C96 C 0.72917 0.89364 0.34515 0.0
O97 O 0.74639 0.90456 0.41257 0.0
O98 O 0.7293 0.92892 0.30835 0.0
C99 C 0.77425 0.06221 0.399 0.0
Tb100 Tb 0.1205 0.81604 0.39076 0.0
C101 C 0.06713 0.83889 0.28434 0.0
Tb102 Tb 1.05168 0.82556 0.46785 0.0
O103 O 0.067 0.74622 0.34229 0.0
O104 O 1.05526 0.76403 0.44775 0.0
O105 O 0.11103 0.85014 0.29629 0.0
C106 C 0.96936 0.82752 0.49677 0.0
O107 O 1.03566 0.82023 0.34175 0.0
C108 C 0.13506 0.90371 0.48268 0.0
C109 C 0.11898 0.78321 0.54623 0.0
O110 O 0.99627 0.84381 0.43803 0.0
O111 O 0.9883 0.80894 0.54082 0.0
O112 O 0.10198 0.88782 0.53378 0.0
O113 O 0.1181 0.87897 0.42353 0.0
O114 O 0.0812 0.79156 0.55219 0.0
O115 O 0.14338 0.79232 0.48418 0.0
C116 C 0.2057 0.85542 0.34516 0.0
O117 O 0.19479 0.86173 0.41257 0.0
O118 O 0.17041 0.82028 0.30836 0.0
C119 C 1.03716 0.73196 0.39898 0.0
Tb120 Tb 0.85333 0.82554 0.9679 0.0
C121 C 0.74369 0.78313 0.04624 0.0
Tb122 Tb 0.7754 0.81594 0.8911 0.0
O123 O 0.86568 0.88799 0.03377 0.0
O124 O 0.84056 0.87917 0.92364 0.0
O125 O 0.78985 0.7916 0.0523 0.0
C126 C 0.7292 0.85498 0.84563 0.0
O127 O 0.72843 0.79206 0.98402 0.0
C128 C 0.77487 0.73192 0.89927 0.0
C129 C 0.85137 0.83902 0.78435 0.0
O130 O 0.7465 0.86135 0.913 0.0
O131 O 0.72952 0.81994 0.80878 0.0
O132 O 0.75966 0.74635 0.8423 0.0
O133 O 0.78835 0.76377 0.94827 0.0
O134 O 0.81861 0.8501 0.79635 0.0
O135 O 0.8642 0.82039 0.84179 0.0
C136 C 0.93745 0.82706 -0.00327 0.0
O137 O 0.9266 0.84279 0.93754 0.0
O138 O 0.90025 0.80933 0.04136 0.0
C139 C 0.84858 0.90401 0.98269 0.0
Tb140 Tb 0.27377 0.04766 0.96788 0.0
C141 C 0.31618 0.98041 0.04624 0.0
Tb142 Tb 0.28335 0.97932 0.89109 0.0
O143 O 0.21133 0.99756 0.03375 0.0
O144 O 0.22014 0.98127 0.92363 0.0
O145 O 0.30772 1.0181 0.05229 0.0
C146 C 0.24435 0.8941 0.84563 0.0
O147 O 0.30723 0.95621 0.98404 0.0
C148 C 0.36737 0.06279 0.89924 0.0
C149 C 0.26027 1.03222 0.78434 0.0
O150 O 0.23797 0.90501 0.91299 0.0
O151 O 0.27937 0.92946 0.80878 0.0
O152 O 0.35293 1.03315 0.84228 0.0
O153 O 0.33553 0.04442 0.94825 0.0
O154 O 0.24916 0.98838 0.79637 0.0
O155 O 0.27892 0.06368 0.84177 0.0
C156 C 0.27229 0.13027 -0.00328 0.0
O157 O 0.25654 0.10371 0.93754 0.0
O158 O 0.29001 0.11079 0.04134 0.0
C159 C 0.19531 0.96446 0.98268 0.0
Tb160 Tb 1.05168 0.24595 0.96789 0.0
C161 C 0.11891 0.35561 0.04625 0.0
Tb162 Tb 0.12002 0.32391 0.89107 0.0
O163 O 0.1018 0.2336 0.03374 0.0
O164 O 0.11806 0.25874 0.92363 0.0
O165 O 0.08121 0.30945 0.05229 0.0
C166 C 0.20524 0.37012 0.84562 0.0
O167 O 0.14311 0.37085 0.98405 0.0
C168 C 1.03654 0.32444 0.89922 0.0
C169 C 0.06712 0.2479 0.78435 0.0
O170 O 0.19434 0.35282 0.91298 0.0
O171 O 0.16988 0.36979 0.80876 0.0
O172 O 0.06617 0.33966 0.84227 0.0
O173 O 1.05492 0.31095 0.94821 0.0
O174 O 0.11096 0.28064 0.79638 0.0
O175 O 1.03567 0.23507 0.84177 0.0
C176 C 0.96908 0.16186 -0.00328 0.0
O177 O 0.99562 0.17268 0.93753 0.0
O178 O 0.98858 0.19906 0.04136 0.0
C179 C 0.1349 0.25071 0.98267 0.0
Tb180 Tb 0.8454 0.83346 0.52053 0.0
C181 C 0.80299 0.72381 0.44216 0.0
Tb182 Tb 0.83581 0.75555 0.59729 0.0
O183 O 0.90784 0.8458 0.45466 0.0
O184 O 0.89904 0.8207 0.56478 0.0
O185 O 0.81146 0.76997 0.4361 0.0
C186 C 0.87481 0.70931 0.64273 0.0
O187 O 0.81192 0.70856 0.50438 0.0
C188 C 0.75178 0.75499 0.58914 0.0
C189 C 0.85888 0.83149 0.70407 0.0
O190 O 0.8812 0.72663 0.57537 0.0
O191 O 0.83978 0.70964 0.67958 0.0
O192 O 0.76623 0.73981 0.6461 0.0
O193 O 0.78362 0.76848 0.54012 0.0
O194 O 0.86996 0.79873 0.69208 0.0
O195 O 0.84027 0.84435 0.64664 0.0
C196 C 0.84691 0.91757 0.49169 0.0
O197 O 0.86263 0.90674 0.55089 0.0
O198 O 0.82919 0.88037 0.44706 0.0
C199 C 0.92387 0.82872 0.50573 0.0
Tb200 Tb 0.26585 1.0318 0.52052 0.0
C201 C 0.37549 0.09902 0.44216 0.0
Tb202 Tb 0.3438 0.10013 0.5973 0.0
O203 O 0.2535 0.08192 0.45466 0.0
O204 O 0.27864 0.0982 0.56477 0.0
O205 O 0.32933 0.06134 0.43611 0.0
C206 C 0.39002 0.18536 0.64273 0.0
O207 O 0.39075 0.12321 0.50436 0.0
C208 C 0.34434 1.01665 0.58915 0.0
C209 C 0.26783 0.04727 0.70405 0.0
O210 O 0.37271 0.17445 0.57538 0.0
O211 O 0.38971 0.15001 0.67959 0.0
O212 O 0.35955 0.04628 0.64611 0.0
O213 O 0.33084 1.03502 0.54015 0.0
O214 O 0.30061 0.0911 0.69207 0.0
O215 O 0.25496 1.0158 0.64663 0.0
C216 C 0.18175 0.94922 0.49169 0.0
O217 O 0.19259 0.97576 0.55089 0.0
O218 O 0.21893 0.9687 0.44704 0.0
C219 C 0.27061 0.11503 0.50573 0.0
Tb220 Tb 0.06754 0.25389 0.52053 0.0
C221 C 1.0003 0.29631 0.44215 0.0
Tb222 Tb 0.9992 0.26349 0.59731 0.0
O223 O 1.01743 0.19142 0.45468 0.0
O224 O 1.00115 0.20027 0.56478 0.0
O225 O 1.03799 0.28785 0.43611 0.0
C226 C 0.91398 0.22452 0.64274 0.0
O227 O 0.9761 0.28736 0.50434 0.0
C228 C 0.08266 0.34751 0.58918 0.0
C229 C 1.05208 0.24038 0.70406 0.0
O230 O 0.92489 0.21811 0.57539 0.0
O231 O 0.94934 0.25954 0.6796 0.0
O232 O 1.05303 0.33307 0.64613 0.0
O233 O 0.0643 0.31565 0.54017 0.0
O234 O 1.00824 0.2293 0.69205 0.0
O235 O 0.08355 0.259 0.64665 0.0
C236 C 0.15015 0.25241 0.49169 0.0
O237 O 0.12362 0.2367 0.55089 0.0
O238 O 0.13063 0.2701 0.44705 0.0
C239 C 0.98433 0.17543 0.50574 0.0
Tb240 Tb 1.01092 0.59687 0.43096 0.0
C241 C 0.93476 0.57402 0.53746 0.0
Tb242 Tb 0.93258 0.58729 0.35393 0.0
O243 O 1.02726 0.6667 0.47945 0.0
O244 O 0.99766 0.64886 0.37388 0.0
O245 O 0.96745 0.56282 0.52552 0.0
C246 C 0.84828 0.58529 0.32504 0.0
O247 O 0.92193 0.59265 0.48001 0.0
C248 C 0.93782 0.50914 0.33911 0.0
C249 C 1.04222 0.62964 0.27553 0.0
O250 O 0.85896 0.56907 0.38381 0.0
O251 O 0.88574 0.60382 0.28093 0.0
O252 O 0.92061 0.52503 0.28802 0.0
O253 O 0.94562 0.53388 0.39826 0.0
O254 O 0.99608 0.62126 0.26956 0.0
O255 O 1.05753 0.62059 0.33761 0.0
C256 C 1.05674 0.55745 0.47654 0.0
O257 O 1.0395 0.55116 0.40914 0.0
O258 O 1.05661 0.5926 0.51335 0.0
C259 C 1.0117 0.68092 0.42268 0.0
Tb260 Tb 0.50252 0.43393 0.43097 0.0
C261 C 0.52537 0.38061 0.53748 0.0
Tb262 Tb 0.51208 0.36516 0.35395 0.0
O263 O 0.4327 0.38046 0.47947 0.0
O264 O 0.45052 0.36869 0.37391 0.0
O265 O 0.53659 0.4245 0.52552 0.0
C266 C 0.51403 0.28283 0.32505 0.0
O267 O 0.50672 0.34915 0.48004 0.0
C268 C 0.59023 0.44854 0.33913 0.0
C269 C 0.46973 0.43247 0.27553 0.0
O270 O 0.53028 0.30972 0.38382 0.0
O271 O 0.49551 0.30179 0.28094 0.0
O272 O 0.57433 0.41544 0.28804 0.0
O273 O 0.56549 0.43159 0.39828 0.0
O274 O 0.47811 0.3947 0.26957 0.0
O275 O 0.4788 0.45684 0.3376 0.0
C276 C 0.54191 0.51915 0.47654 0.0
O277 O 0.54821 0.50822 0.40914 0.0
O278 O 0.50677 0.48388 0.51335 0.0
C279 C 0.41847 0.35068 0.4227 0.0
Tb280 Tb 0.6654 0.08845 0.43098 0.0
C281 C 0.71872 0.16466 0.53745 0.0
Tb282 Tb 0.73418 0.16681 0.35393 0.0
O283 O 0.71889 0.0721 0.47947 0.0
O284 O 0.73065 0.10172 0.37393 0.0
O285 O 0.67484 0.13197 0.52549 0.0
C286 C 0.8165 0.2511 0.32503 0.0
O287 O 0.75018 0.17747 0.48003 0.0
C288 C 0.65079 0.16157 0.33912 0.0
C289 C 0.6669 0.05717 0.27552 0.0
O290 O 0.78962 0.24043 0.38381 0.0
O291 O 0.79753 0.21362 0.28092 0.0
O292 O 0.68388 0.1788 0.28804 0.0
O293 O 0.66775 0.15377 0.39826 0.0
O294 O 0.70466 0.10331 0.26957 0.0
O295 O 0.64252 0.04186 0.33758 0.0
C296 C 0.58019 0.04263 0.47655 0.0
O297 O 0.59111 0.05986 0.40915 0.0
O298 O 0.61547 0.04276 0.51336 0.0
C299 C 0.74867 0.08768 0.42272 0.0
Tb300 Tb 0.95 0.6577 0.72416 0.0
C301 C 0.92722 0.58153 0.61773 0.0
Tb302 Tb 0.94051 0.57939 0.80124 0.0
O303 O 1.01981 0.67403 0.67567 0.0
O304 O 1.00204 0.64448 0.78115 0.0
O305 O 0.91594 0.61416 0.62965 0.0
C306 C 0.93851 0.49509 0.83017 0.0
O307 O 0.94588 0.56873 0.67516 0.0
C308 C 0.86235 0.58461 0.81609 0.0
C309 C 0.98286 0.68905 0.87958 0.0
O310 O 0.92218 0.50572 0.77147 0.0
O311 O 0.95716 0.53261 0.87419 0.0
O312 O 0.87829 0.56746 0.8672 0.0
O313 O 0.88707 0.59238 0.75693 0.0
O314 O 0.9745 0.64291 0.88557 0.0
O315 O 0.97374 0.70433 0.81752 0.0
C316 C 0.9105 0.70339 0.6785 0.0
O317 O 0.90425 0.68624 0.74595 0.0
O318 O 0.94569 0.70333 0.64172 0.0
C319 C 1.0341 0.65846 0.73236 0.0
Tb320 Tb 0.44163 0.31216 0.72415 0.0
C321 C 0.51783 0.36555 0.61775 0.0
Tb322 Tb 0.51997 0.38099 0.80126 0.0
O323 O 0.4253 0.36566 0.67567 0.0
O324 O 0.45488 0.37743 0.78113 0.0
O325 O 0.48519 0.32165 0.62967 0.0
C326 C 0.60427 0.46328 0.83019 0.0
O327 O 0.53064 0.39702 0.67517 0.0
C328 C 0.51474 0.2976 0.81609 0.0
C329 C 0.41033 0.31371 0.87959 0.0
O330 O 0.59364 0.43633 0.77148 0.0
O331 O 0.56676 0.44439 0.87421 0.0
O332 O 0.53192 0.33068 0.8672 0.0
O333 O 0.50696 0.31456 0.75694 0.0
O334 O 0.45646 0.35148 0.88557 0.0
O335 O 0.39505 0.2893 0.81754 0.0
C336 C 0.39596 0.22699 0.67849 0.0
O337 O 0.41311 0.23788 0.74594 0.0
O338 O 0.39601 0.26224 0.6417 0.0
C339 C 0.44089 0.39551 0.73235 0.0
Tb340 Tb 0.78719 0.14938 0.72413 0.0
C341 C 0.73378 0.1722 0.61773 0.0
Tb342 Tb 0.71835 0.15888 0.80123 0.0
O343 O 0.73371 0.07957 0.67564 0.0
O344 O 0.72194 0.09736 0.7811 0.0
O345 O 0.77769 0.18348 0.62967 0.0
C346 C 0.63604 0.16085 0.83017 0.0
O347 O 0.70232 0.15353 0.67514 0.0
C348 C 0.80173 0.23704 0.81607 0.0
C349 C 0.78566 0.11652 0.87958 0.0
O350 O 0.66297 0.17717 0.77146 0.0
O351 O 0.65495 0.14224 0.87419 0.0
O352 O 0.76865 0.22113 0.86718 0.0
O353 O 0.78476 0.2123 0.75692 0.0
O354 O 0.74787 0.12487 0.88555 0.0
O355 O 0.81006 0.12566 0.81754 0.0
C356 C 0.87235 0.18886 0.67848 0.0
O357 O 0.86147 0.19513 0.74593 0.0
O358 O 0.8371 0.15368 0.64169 0.0
C359 C 0.70386 0.0653 0.73231 0.0
Tb360 Tb 0.51999 0.15886 0.30128 0.0
C361 C 0.41033 0.11644 0.3796 0.0
Tb362 Tb 0.44207 0.14929 0.22448 0.0
O363 O 0.53232 0.22131 0.36718 0.0
O364 O 0.50723 0.2125 0.25703 0.0
O365 O 0.45649 0.12491 0.38567 0.0
C366 C 0.39598 0.18841 0.17898 0.0
O367 O 0.39508 0.12539 0.31738 0.0
C368 C 0.44152 0.06525 0.23261 0.0
C369 C 0.51803 0.17234 0.11774 0.0
O370 O 0.41323 0.19475 0.24638 0.0
O371 O 0.39623 0.15333 0.14214 0.0
O372 O 0.42631 0.0797 0.17566 0.0
O373 O 0.45501 0.0971 0.28163 0.0
O374 O 0.48529 0.18344 0.12974 0.0
O375 O 0.53085 0.1537 0.17518 0.0
C376 C 0.6041 0.16039 0.33013 0.0
O377 O 0.59327 0.17615 0.27097 0.0
O378 O 0.56689 0.14263 0.37473 0.0
C379 C 0.51525 0.23734 0.31609 0.0
Tb380 Tb 0.94045 0.38099 0.30126 0.0
C381 C 0.98287 0.31374 0.37959 0.0
Tb382 Tb 0.95 0.31264 0.22446 0.0
O383 O 0.87801 0.33089 0.36715 0.0
O384 O 0.8868 0.31461 0.25701 0.0
O385 O 0.97441 0.35144 0.38565 0.0
C386 C 0.91092 0.22745 0.17896 0.0
O387 O 0.9739 0.28954 0.31739 0.0
C388 C 1.03403 0.3961 0.23258 0.0
C389 C 0.92696 0.36558 0.11771 0.0
O390 O 0.90457 0.23834 0.24636 0.0
O391 O 0.94598 0.26278 0.14212 0.0
O392 O 1.01958 0.36646 0.17563 0.0
O393 O 1.0022 0.37775 0.2816 0.0
O394 O 0.91582 0.32172 0.12974 0.0
O395 O 0.94561 0.39703 0.17515 0.0
C396 C 0.93896 0.4636 0.33012 0.0
O397 O 0.92317 0.43702 0.27096 0.0
O398 O 0.95672 0.44413 0.37471 0.0
C399 C 0.86198 0.2978 0.31606 0.0
Tb400 Tb 0.71834 0.57929 0.30127 0.0
C401 C 0.78557 0.68896 0.3796 0.0
Tb402 Tb 0.7867 0.65724 0.22445 0.0
O403 O 0.76847 0.56695 0.36715 0.0
O404 O 0.78472 0.59206 0.25703 0.0
O405 O 0.74788 0.64281 0.38565 0.0
C406 C 0.87189 0.70333 0.17896 0.0
O407 O 0.80978 0.7042 0.31741 0.0
C408 C 0.70323 0.65779 0.23256 0.0
C409 C 0.73377 0.58123 0.11774 0.0
O410 O 0.86101 0.68609 0.24636 0.0
O411 O 0.83656 0.70308 0.14211 0.0
O412 O 0.73287 0.673 0.17562 0.0
O413 O 0.7216 0.6443 0.28157 0.0
O414 O 0.77762 0.61396 0.12976 0.0
O415 O 0.70232 0.56842 0.17516 0.0
C416 C 0.63575 0.49521 0.33014 0.0
O417 O 0.66231 0.50601 0.27096 0.0
O418 O 0.65523 0.53243 0.37473 0.0
C419 C 0.80156 0.58404 0.31607 0.0
Tb420 Tb 0.51209 0.1668 0.85391 0.0
C421 C 0.46968 0.05714 0.7755 0.0
Tb422 Tb 0.50245 0.08887 0.93063 0.0
O423 O 0.57454 0.17917 0.78807 0.0
O424 O 0.5657 0.15402 0.89818 0.0
O425 O 0.47817 0.10331 0.76946 0.0
C426 C 0.54147 0.04264 0.97606 0.0
O427 O 0.47857 0.04187 0.83773 0.0
C428 C 0.41846 0.08828 0.92243 0.0
C429 C 0.52553 0.16479 0.03745 0.0
O430 O 0.54787 0.05997 0.90871 0.0
O431 O 0.50643 0.04294 0.0129 0.0
O432 O 0.43286 0.07309 0.97946 0.0
O433 O 0.4503 0.10182 0.8734 0.0
O434 O 0.53657 0.132 0.02547 0.0
O435 O 0.50695 0.17767 0.98002 0.0
C436 C 0.51358 0.25091 0.82509 0.0
O437 O 0.52927 0.24005 0.88431 0.0
O438 O 0.49591 0.21373 0.78042 0.0
C439 C 0.59055 0.16206 0.83913 0.0
Tb440 Tb 0.93252 0.36516 0.85389 0.0
C441 C 1.04216 0.43238 0.77549 0.0
Tb442 Tb 1.01048 0.43346 0.93065 0.0
O443 O 0.92013 0.41526 0.78807 0.0
O444 O 0.94533 0.43156 0.89816 0.0
O445 O 0.996 0.39471 0.76945 0.0
C446 C 1.05669 0.5187 0.97606 0.0
O447 O 1.05744 0.45656 0.83771 0.0
C448 C 1.01105 0.35005 0.92244 0.0
C449 C 0.93453 0.38062 0.03743 0.0
O450 O 1.03936 0.50777 0.90872 0.0
O451 O 1.0564 0.48335 0.01291 0.0
O452 O 1.02626 0.37963 0.97947 0.0
O453 O 0.9975 0.36835 0.87343 0.0
O454 O 0.96733 0.42444 0.02545 0.0
O455 O 0.92164 0.34915 0.98001 0.0
C456 C 0.84841 0.28255 0.82507 0.0
O457 O 0.85928 0.30908 0.88431 0.0
O458 O 0.88558 0.30207 0.78039 0.0
C459 C 0.93728 0.44838 0.83913 0.0
Tb460 Tb 0.73419 0.5872 0.85392 0.0
C461 C 0.66694 0.62962 0.77549 0.0
Tb462 Tb 0.66587 0.59685 0.93066 0.0
O463 O 0.68409 0.52472 0.7881 0.0
O464 O 0.6678 0.53361 0.89818 0.0
O465 O 0.70462 0.62114 0.76947 0.0
C466 C 0.58064 0.55785 0.97607 0.0
O467 O 0.64276 0.62071 0.8377 0.0
C468 C 0.74926 0.68082 0.92248 0.0
C469 C 0.71873 0.57373 0.03745 0.0
O470 O 0.59156 0.55144 0.90873 0.0
O471 O 0.61599 0.59289 0.01292 0.0
O472 O 0.71969 0.66644 0.97949 0.0
O473 O 0.73097 0.64898 0.87346 0.0
O474 O 0.6749 0.56269 0.02545 0.0
O475 O 0.75019 0.59232 0.98004 0.0
C476 C 0.81681 0.58574 0.82509 0.0
O477 O 0.7903 0.57007 0.88432 0.0
O478 O 0.79727 0.60338 0.78041 0.0
C479 C 0.65098 0.50874 0.83915 0.0
Tb480 Tb 0.67759 0.93019 0.76425 0.0
C481 C 0.60144 0.90737 0.87073 0.0
Tb482 Tb 0.59927 0.92064 0.6872 0.0
O483 O 0.69395 1.00002 0.81275 0.0
O484 O 0.66434 0.9822 0.70719 0.0
O485 O 0.63411 0.89615 0.8588 0.0
C486 C 0.51496 0.91863 0.65829 0.0
O487 O 0.58862 0.92601 0.81329 0.0
C488 C 0.60449 0.84247 0.67238 0.0
C489 C 0.70891 0.96299 0.60883 0.0
O490 O 0.52563 0.90238 0.71705 0.0
O491 O 0.55244 0.93719 0.61421 0.0
O492 O 0.58731 0.85838 0.62128 0.0
O493 O 0.61228 0.86722 0.73153 0.0
O494 O 0.66277 0.95461 0.60286 0.0
O495 O 0.72421 0.95392 0.67091 0.0
C496 C 0.72329 0.89068 0.80987 0.0
O497 O 0.70612 0.88442 0.74242 0.0
O498 O 0.72324 0.92587 0.84666 0.0
C499 C 0.67839 1.01425 0.75599 0.0
Tb500 Tb 0.1692 0.76728 0.76426 0.0
C501 C 0.19202 0.71392 0.87076 0.0
Tb502 Tb 0.17873 0.6985 0.68723 0.0
O503 O 0.09938 0.71383 0.81278 0.0
O504 O 0.11718 0.70204 0.70722 0.0
O505 O 0.20327 0.75782 0.8588 0.0
C506 C 0.1807 0.61617 0.65831 0.0
O507 O 0.17336 0.68247 0.81332 0.0
C508 C 0.2569 0.78187 0.6724 0.0
C509 C 0.13638 0.76581 0.60884 0.0
O510 O 0.19698 0.64309 0.71706 0.0
O511 O 0.16214 0.63512 0.61424 0.0
O512 O 0.24098 0.74878 0.6213 0.0
O513 O 0.23216 0.76492 0.73155 0.0
O514 O 0.14475 0.72804 0.60287 0.0
O515 O 0.14547 0.79019 0.67091 0.0
C516 C 0.20868 0.85247 0.80988 0.0
O517 O 0.21494 0.84157 0.74244 0.0
O518 O 0.1735 0.81723 0.84667 0.0
C519 C 0.08514 0.68404 0.75603 0.0
Tb520 Tb 0.33205 0.42178 0.76427 0.0
C521 C 0.38541 0.49798 0.87073 0.0
Tb522 Tb 0.40084 0.50013 0.68721 0.0
O523 O 0.38552 0.40541 0.81279 0.0
O524 O 0.3973 0.43503 0.70724 0.0
O525 O 0.34152 0.46532 0.85877 0.0
C526 C 0.48315 0.58441 0.65829 0.0
O527 O 0.41686 0.51079 0.8133 0.0
C528 C 0.31746 0.4949 0.6724 0.0
C529 C 0.33356 0.39048 0.60883 0.0
O530 O 0.45625 0.57377 0.71705 0.0
O531 O 0.4642 0.54692 0.61421 0.0
O532 O 0.35054 0.5121 0.6213 0.0
O533 O 0.33443 0.48711 0.73154 0.0
O534 O 0.37132 0.43661 0.60287 0.0
O535 O 0.30917 0.37518 0.67088 0.0
C536 C 0.24687 0.37608 0.80988 0.0
O537 O 0.25777 0.39325 0.74244 0.0
O538 O 0.28212 0.37614 0.84668 0.0
C539 C 0.41531 0.42098 0.75604 0.0
Tb540 Tb 0.6167 0.99106 0.05748 0.0
C541 C 0.5939 0.9149 0.951 0.0
Tb542 Tb 0.60716 0.91272 0.13453 0.0
O543 O 0.68652 1.00741 0.00898 0.0
O544 O 0.66871 0.9778 0.11454 0.0
O545 O 0.58266 0.94756 0.96292 0.0
C546 C 0.60517 0.82842 0.16345 0.0
O547 O 0.61254 0.90207 0.00844 0.0
C548 C 0.52901 0.91794 0.14935 0.0
C549 C 0.64951 1.02239 0.2129 0.0
O550 O 0.58889 0.83906 0.10471 0.0
O551 O 0.62376 0.86592 0.2075 0.0
O552 O 0.54492 0.90076 0.20045 0.0
O553 O 0.55374 0.92573 0.0902 0.0
O554 O 0.64113 0.97624 0.21888 0.0
O555 O 0.64043 1.03768 0.15083 0.0
C556 C 0.57718 1.03673 0.01184 0.0
O557 O 0.57092 1.01956 0.07928 0.0
O558 O 0.61238 1.03669 0.97506 0.0
C559 C 0.70075 0.99184 0.06573 0.0
Tb560 Tb 0.10828 0.64551 0.05747 0.0
C561 C 0.18446 0.69887 0.95103 0.0
Tb562 Tb 0.18665 0.71431 0.13455 0.0
O563 O 0.09192 0.69899 0.00898 0.0
O564 O 0.12156 0.71077 0.11452 0.0
O565 O 0.15179 0.65498 0.96294 0.0
C566 C 0.27094 0.79661 0.16346 0.0
O567 O 0.1973 0.73033 0.00846 0.0
C568 C 0.18141 0.63092 0.14935 0.0
C569 C 0.07699 0.64702 0.21291 0.0
O570 O 0.26028 0.7697 0.10471 0.0
O571 O 0.23345 0.77769 0.20753 0.0
O572 O 0.19862 0.66401 0.20045 0.0
O573 O 0.17361 0.64788 0.09021 0.0
O574 O 0.12313 0.68478 0.21888 0.0
O575 O 0.06169 0.62264 0.15085 0.0
C576 C 0.06261 0.56032 0.01183 0.0
O577 O 0.07979 0.57122 0.07927 0.0
O578 O 0.06264 0.59556 0.97505 0.0
C579 C 0.10751 0.72879 0.06572 0.0
Tb580 Tb 0.45384 0.48268 0.05746 0.0
C581 C 0.40046 0.50551 0.95101 0.0
Tb582 Tb 0.38503 0.49223 0.13452 0.0
O583 O 0.40038 0.41285 0.00895 0.0
O584 O 0.3886 0.4307 0.11449 0.0
O585 O 0.44436 0.51675 0.96295 0.0
C586 C 0.3027 0.49418 0.16344 0.0
O587 O 0.369 0.48687 0.00843 0.0
C588 C 0.4684 0.57038 0.14933 0.0
C589 C 0.45234 0.44987 0.21291 0.0
O590 O 0.32961 0.51046 0.10469 0.0
O591 O 0.32165 0.47563 0.20751 0.0
O592 O 0.43532 0.5545 0.20043 0.0
O593 O 0.45144 0.54563 0.09019 0.0
O594 O 0.41457 0.45824 0.21886 0.0
O595 O 0.47673 0.45896 0.15086 0.0
C596 C 0.53902 0.52218 0.01183 0.0
O597 O 0.52812 0.52846 0.07926 0.0
O598 O 0.50378 0.48698 0.97505 0.0
C599 C 0.37058 0.39864 0.06569 0.0
Tb600 Tb 0.18666 0.49222 0.63457 0.0
C601 C 0.07699 0.4498 0.71292 0.0
Tb602 Tb 0.10872 0.4826 0.5578 0.0
O603 O 0.19902 0.55468 0.70043 0.0
O604 O 0.17388 0.54584 0.5903 0.0
O605 O 0.12316 0.45829 0.71898 0.0
C606 C 0.06265 0.52174 0.51231 0.0
O607 O 0.06173 0.45871 0.65069 0.0
C608 C 0.10813 0.3986 0.56598 0.0
C609 C 0.18467 0.50566 0.45102 0.0
O610 O 0.0799 0.52809 0.5797 0.0
O611 O 0.06287 0.48665 0.47548 0.0
O612 O 0.09293 0.413 0.50896 0.0
O613 O 0.12169 0.43044 0.61501 0.0
O614 O 0.1519 0.51673 0.46301 0.0
O615 O 0.19751 0.48705 0.50846 0.0
C616 C 0.27077 0.49374 0.66341 0.0
O617 O 0.25993 0.50945 0.60421 0.0
O618 O 0.23358 0.47602 0.70804 0.0
C619 C 0.18192 0.57069 0.64935 0.0
Tb620 Tb 0.60709 0.71431 0.63455 0.0
C621 C 0.64951 0.64704 0.71292 0.0
Tb622 Tb 0.6167 0.64598 0.55779 0.0
O623 O 0.54464 0.66422 0.7004 0.0
O624 O 0.55347 0.64793 0.59029 0.0
O625 O 0.64103 0.68473 0.71896 0.0
C626 C 0.57759 0.56078 0.5123 0.0
O627 O 0.64058 0.62286 0.6507 0.0
C628 C 0.70068 0.72937 0.56595 0.0
C629 C 0.59364 0.69889 0.451 0.0
O630 O 0.57123 0.57168 0.57969 0.0
O631 O 0.61266 0.5961 0.47547 0.0
O632 O 0.68629 0.69978 0.50894 0.0
O633 O 0.66886 0.71108 0.61499 0.0
O634 O 0.58254 0.65505 0.46302 0.0
O635 O 0.61226 0.73034 0.50844 0.0
C636 C 0.60562 0.79693 0.6634 0.0
O637 O 0.58988 0.77038 0.60421 0.0
O638 O 0.62333 0.77743 0.70802 0.0
C639 C 0.52863 0.63111 0.64933 0.0
Tb640 Tb 0.38503 0.91262 0.63457 0.0
C641 C 0.45227 1.0223 0.71293 0.0
Tb642 Tb 0.45336 0.99059 0.55777 0.0
O643 O 0.43514 0.90026 0.7004 0.0
O644 O 0.45141 0.92541 0.5903 0.0
O645 O 0.41459 0.97614 0.71897 0.0
C646 C 0.53856 1.03667 0.51229 0.0
O647 O 0.47646 1.03756 0.65072 0.0
C648 C 0.36996 0.99117 0.56594 0.0
C649 C 0.40046 0.9146 0.45102 0.0
O650 O 0.52767 1.01942 0.57968 0.0
O651 O 0.50324 1.03644 0.47546 0.0
O652 O 0.39954 1.00638 0.50893 0.0
O653 O 0.38826 0.97762 0.61496 0.0
O654 O 0.44429 0.94736 0.46304 0.0
O655 O 0.36901 0.90176 0.50845 0.0
C656 C 0.30242 0.82854 0.66341 0.0
O657 O 0.32896 0.83936 0.6042 0.0
O658 O 0.32193 0.86573 0.70805 0.0
C659 C 0.46824 0.91738 0.64933 0.0
Tb660 Tb 0.17874 0.50012 0.18719 0.0
C661 C 0.13632 0.39045 0.10881 0.0
Tb662 Tb 0.16913 0.4222 0.26392 0.0
O663 O 0.24119 0.51248 0.12133 0.0
O664 O 0.23237 0.48736 0.23145 0.0
O665 O 0.14481 0.43662 0.10276 0.0
C666 C 0.20824 0.37609 0.30938 0.0
O667 O 0.14524 0.37519 0.17104 0.0
C668 C 0.08513 0.42159 0.25575 0.0
C669 C 0.19218 0.49812 0.37073 0.0
O670 O 0.2146 0.39336 0.242 0.0
O671 O 0.17316 0.37632 0.34621 0.0
O672 O 0.09954 0.40641 0.31277 0.0
O673 O 0.11696 0.43514 0.20671 0.0
O674 O 0.20324 0.46535 0.35875 0.0
O675 O 0.17359 0.51099 0.3133 0.0
C676 C 0.18024 0.58423 0.15834 0.0
O677 O 0.19596 0.57339 0.21755 0.0
O678 O 0.16254 0.54704 0.11371 0.0
C679 C 0.25721 0.49539 0.17241 0.0
Tb680 Tb 0.59919 0.69849 0.18717 0.0
C681 C 0.70885 0.76572 0.10881 0.0
Tb682 Tb 0.67715 0.76681 0.26394 0.0
O683 O 0.58682 0.7486 0.12133 0.0
O684 O 0.61198 0.76488 0.23144 0.0
O685 O 0.66268 0.72804 0.10276 0.0
C686 C 0.72324 0.85202 0.30939 0.0
O687 O 0.72412 0.7899 0.17102 0.0
C688 C 0.67774 0.6834 0.25577 0.0
C689 C 0.60119 0.71394 0.37071 0.0
O690 O 0.70597 0.84111 0.24201 0.0
O691 O 0.72303 0.8167 0.34623 0.0
O692 O 0.69294 0.71299 0.31278 0.0
O693 O 0.66417 0.70169 0.20674 0.0
O694 O 0.63398 0.75776 0.35874 0.0
O695 O 0.58832 0.68247 0.31329 0.0
C696 C 0.51509 0.61589 0.15833 0.0
O697 O 0.52594 0.64243 0.21754 0.0
O698 O 0.55227 0.63539 0.11368 0.0
C699 C 0.60394 0.7817 0.1724 0.0
Tb700 Tb 0.40085 0.92055 0.1872 0.0
C701 C 0.3336 0.96297 0.10881 0.0
Tb702 Tb 0.33252 0.93017 0.26396 0.0
O703 O 0.35075 0.85807 0.12136 0.0
O704 O 0.33448 0.86694 0.23146 0.0
O705 O 0.37129 0.95449 0.10278 0.0
C706 C 0.24733 0.89108 0.30941 0.0
O707 O 0.30942 0.95404 0.17101 0.0
C708 C 0.41591 1.01415 0.25581 0.0
C709 C 0.38541 0.90708 0.37073 0.0
O710 O 0.25822 0.88471 0.24203 0.0
O711 O 0.28265 0.92616 0.34625 0.0
O712 O 0.38633 0.99976 0.31281 0.0
O713 O 0.39762 0.98231 0.20677 0.0
O714 O 0.34158 0.89601 0.35873 0.0
O715 O 0.41688 0.92568 0.31332 0.0
C716 C 0.48347 0.91908 0.15834 0.0
O717 O 0.45694 0.90337 0.21756 0.0
O718 O 0.46395 0.93675 0.1137 0.0
C719 C 0.31765 0.84208 0.17242 0.0
loop_
_geom_bond_atom_site_label_1
_geom_bond_atom_site_label_2
_geom_bond_distance
_geom_bond_site_symmetry_2
_ccdc_geom_bond_type
Tb0 O3 2.453 . S
Tb0 O4 2.596 . S
Tb0 O5 2.374 . S
Tb0 O13 2.343 . S
Tb0 O15 2.353 1_554 S
Tb0 O17 2.427 . S
Tb0 O18 2.513 . S
C1 O5 1.251 . S
C1 O7 1.263 . S
Tb2 O4 2.343 . S
Tb2 O7 2.353 . S
Tb2 O10 2.427 . S
Tb2 O11 2.513 1_554 S
Tb2 O12 2.453 . S
Tb2 O13 2.596 . S
Tb2 O14 2.374 1_554 S
O3 Tb0 2.453 . S
O3 C19 1.245 . S
O4 Tb0 2.596 . S
O4 Tb2 2.343 . S
O4 C19 1.259 . S
O5 Tb0 2.374 . S
O5 C1 1.251 . S
C6 O10 1.275 1_556 S
C6 O11 1.246 . S
O7 C1 1.263 . S
O7 Tb2 2.353 . S
C8 O12 1.245 . S
C8 O13 1.259 . S
C9 O14 1.250 . S
C9 O15 1.263 . S
O10 Tb2 2.427 . S
O10 C6 1.275 1_554 S
O11 Tb2 2.513 1_556 S
O11 C6 1.246 . S
O12 Tb2 2.453 . S
O12 C8 1.245 . S
O13 Tb0 2.343 . S
O13 Tb2 2.596 . S
O13 C8 1.259 . S
O14 Tb2 2.374 1_556 S
O14 C9 1.250 . S
O15 Tb0 2.353 1_556 S
O15 C9 1.263 . S
C16 O17 1.275 . S
C16 O18 1.246 . S
O17 Tb0 2.427 . S
O17 C16 1.275 . S
O18 Tb0 2.513 . S
O18 C16 1.246 . S
C19 O3 1.245 . S
C19 O4 1.259 . S
Tb20 O23 2.452 1_545 S
Tb20 O24 2.596 1_545 S
Tb20 O25 2.374 . S
Tb20 O33 2.343 . S
Tb20 O35 2.353 1_554 S
Tb20 O37 2.427 . S
Tb20 O38 2.513 . S
C21 O25 1.251 . S
C21 O27 1.263 1_545 S
Tb22 O24 2.343 . S
Tb22 O27 2.353 . S
Tb22 O30 2.427 . S
Tb22 O31 2.513 1_554 S
Tb22 O32 2.453 1_565 S
Tb22 O33 2.596 1_565 S
Tb22 O34 2.374 1_564 S
O23 Tb20 2.452 1_565 S
O23 C39 1.247 . S
O24 Tb20 2.596 1_565 S
O24 Tb22 2.343 . S
O24 C39 1.259 . S
O25 Tb20 2.374 . S
O25 C21 1.251 . S
C26 O30 1.275 1_556 S
C26 O31 1.246 . S
O27 C21 1.263 1_565 S
O27 Tb22 2.353 . S
C28 O32 1.245 . S
C28 O33 1.259 . S
C29 O34 1.250 . S
C29 O35 1.263 . S
O30 Tb22 2.427 . S
O30 C26 1.275 1_554 S
O31 Tb22 2.513 1_556 S
O31 C26 1.246 . S
O32 Tb22 2.453 1_545 S
O32 C28 1.245 . S
O33 Tb20 2.343 . S
O33 Tb22 2.596 1_545 S
O33 C28 1.259 . S
O34 Tb22 2.374 1_546 S
O34 C29 1.250 . S
O35 Tb20 2.353 1_556 S
O35 C29 1.263 . S
C36 O37 1.275 . S
C36 O38 1.246 . S
O37 Tb20 2.427 . S
O37 C36 1.275 . S
O38 Tb20 2.513 . S
O38 C36 1.246 . S
C39 O23 1.247 . S
C39 O24 1.259 . S
Tb40 O43 2.450 1_655 S
Tb40 O44 2.596 1_655 S
Tb40 O45 2.374 . S
Tb40 O53 2.343 . S
Tb40 O55 2.353 1_554 S
Tb40 O57 2.427 . S
Tb40 O58 2.513 . S
C41 O45 1.251 . S
C41 O47 1.263 1_655 S
Tb42 O44 2.343 . S
Tb42 O47 2.353 . S
Tb42 O50 2.427 . S
Tb42 O51 2.513 1_554 S
Tb42 O52 2.453 1_455 S
Tb42 O53 2.596 1_455 S
Tb42 O54 2.374 1_454 S
O43 Tb40 2.450 1_455 S
O43 C59 1.245 . S
O44 Tb40 2.596 1_455 S
O44 Tb42 2.343 . S
O44 C59 1.259 . S
O45 Tb40 2.374 . S
O45 C41 1.251 . S
C46 O50 1.275 1_556 S
C46 O51 1.246 . S
O47 C41 1.263 1_455 S
O47 Tb42 2.353 . S
C48 O52 1.245 . S
C48 O53 1.259 . S
C49 O54 1.250 . S
C49 O55 1.263 . S
O50 Tb42 2.427 . S
O50 C46 1.275 1_554 S
O51 Tb42 2.513 1_556 S
O51 C46 1.246 . S
O52 Tb42 2.453 1_655 S
O52 C48 1.245 . S
O53 Tb40 2.343 . S
O53 Tb42 2.596 1_655 S
O53 C48 1.259 . S
O54 Tb42 2.374 1_656 S
O54 C49 1.250 . S
O55 Tb40 2.353 1_556 S
O55 C49 1.263 . S
C56 O57 1.275 . S
C56 O58 1.246 . S
O57 Tb40 2.427 . S
O57 C56 1.275 . S
O58 Tb40 2.513 . S
O58 C56 1.246 . S
C59 O43 1.245 . S
C59 O44 1.259 . S
Tb60 O63 2.453 . S
Tb60 O64 2.596 . S
Tb60 O65 2.374 . S
Tb60 O73 2.343 . S
Tb60 O75 2.353 . S
Tb60 O77 2.427 . S
Tb60 O78 2.513 . S
C61 O65 1.251 . S
C61 O67 1.263 . S
Tb62 O64 2.343 . S
Tb62 O67 2.353 . S
Tb62 O70 2.427 . S
Tb62 O71 2.513 . S
Tb62 O72 2.453 . S
Tb62 O73 2.596 . S
Tb62 O74 2.374 . S
O63 Tb60 2.453 . S
O63 C79 1.245 . S
O64 Tb60 2.596 . S
O64 Tb62 2.343 . S
O64 C79 1.259 . S
O65 Tb60 2.374 . S
O65 C61 1.251 . S
C66 O70 1.275 . S
C66 O71 1.246 . S
O67 C61 1.263 . S
O67 Tb62 2.353 . S
C68 O72 1.245 . S
C68 O73 1.259 . S
C69 O74 1.250 . S
C69 O75 1.263 . S
O70 Tb62 2.427 . S
O70 C66 1.275 . S
O71 Tb62 2.513 . S
O71 C66 1.246 . S
O72 Tb62 2.453 . S
O72 C68 1.245 . S
O73 Tb60 2.343 . S
O73 Tb62 2.596 . S
O73 C68 1.259 . S
O74 Tb62 2.374 . S
O74 C69 1.250 . S
O75 Tb60 2.353 . S
O75 C69 1.263 . S
C76 O77 1.275 . S
C76 O78 1.246 . S
O77 Tb60 2.427 . S
O77 C76 1.275 . S
O78 Tb60 2.513 . S
O78 C76 1.246 . S
C79 O63 1.245 . S
C79 O64 1.259 . S
Tb80 O83 2.450 1_565 S
Tb80 O84 2.596 1_565 S
Tb80 O85 2.374 . S
Tb80 O93 2.343 . S
Tb80 O95 2.353 . S
Tb80 O97 2.427 . S
Tb80 O98 2.513 . S
C81 O85 1.251 . S
C81 O87 1.263 1_565 S
Tb82 O84 2.343 . S
Tb82 O87 2.353 . S
Tb82 O90 2.427 . S
Tb82 O91 2.513 . S
Tb82 O92 2.453 1_545 S
Tb82 O93 2.596 1_545 S
Tb82 O94 2.374 1_545 S
O83 Tb80 2.450 1_545 S
O83 C99 1.245 . S
O84 Tb80 2.596 1_545 S
O84 Tb82 2.343 . S
O84 C99 1.259 . S
O85 Tb80 2.374 . S
O85 C81 1.251 . S
C86 O90 1.275 . S
C86 O91 1.246 . S
O87 C81 1.263 1_545 S
O87 Tb82 2.353 . S
C88 O92 1.245 . S
C88 O93 1.259 . S
C89 O94 1.250 . S
C89 O95 1.263 . S
O90 Tb82 2.427 . S
O90 C86 1.275 . S
O91 Tb82 2.513 . S
O91 C86 1.246 . S
O92 Tb82 2.453 1_565 S
O92 C88 1.245 . S
O93 Tb80 2.343 . S
O93 Tb82 2.596 1_565 S
O93 C88 1.259 . S
O94 Tb82 2.374 1_565 S
O94 C89 1.250 . S
O95 Tb80 2.353 . S
O95 C89 1.263 . S
C96 O97 1.275 . S
C96 O98 1.246 . S
O97 Tb80 2.427 . S
O97 C96 1.275 . S
O98 Tb80 2.513 . S
O98 C96 1.246 . S
C99 O83 1.245 . S
C99 O84 1.259 . S
Tb100 O103 2.452 1_455 S
Tb100 O104 2.596 1_455 S
Tb100 O105 2.374 . S
Tb100 O113 2.343 . S
Tb100 O115 2.353 . S
Tb100 O117 2.427 . S
Tb100 O118 2.513 . S
C101 O105 1.251 . S
C101 O107 1.263 1_455 S
Tb102 O104 2.343 . S
Tb102 O107 2.353 . S
Tb102 O110 2.427 . S
Tb102 O111 2.513 . S
Tb102 O112 2.453 1_655 S
Tb102 O113 2.596 1_655 S
Tb102 O114 2.374 1_655 S
O103 Tb100 2.452 1_655 S
O103 C119 1.247 . S
O104 Tb100 2.596 1_655 S
O104 Tb102 2.343 . S
O104 C119 1.259 . S
O105 Tb100 2.374 . S
O105 C101 1.251 . S
C106 O110 1.275 . S
C106 O111 1.246 . S
O107 C101 1.263 1_655 S
O107 Tb102 2.353 . S
C108 O112 1.245 . S
C108 O113 1.259 . S
C109 O114 1.250 . S
C109 O115 1.263 . S
O110 Tb102 2.427 . S
O110 C106 1.275 . S
O111 Tb102 2.513 . S
O111 C106 1.246 . S
O112 Tb102 2.453 1_455 S
O112 C108 1.245 . S
O113 Tb100 2.343 . S
O113 Tb102 2.596 1_455 S
O113 C108 1.259 . S
O114 Tb102 2.374 1_455 S
O114 C109 1.250 . S
O115 Tb100 2.353 . S
O115 C109 1.263 . S
C116 O117 1.275 . S
C116 O118 1.246 . S
O117 Tb100 2.427 . S
O117 C116 1.275 . S
O118 Tb100 2.513 . S
O118 C116 1.246 . S
C119 O103 1.247 . S
C119 O104 1.259 . S
Tb120 O123 2.453 . S
Tb120 O124 2.596 . S
Tb120 O125 2.374 1_556 S
Tb120 O133 2.343 . S
Tb120 O135 2.353 . S
Tb120 O137 2.427 . S
Tb120 O138 2.513 1_556 S
C121 O125 1.251 . S
C121 O127 1.263 . S
Tb122 O124 2.343 . S
Tb122 O127 2.353 1_556 S
Tb122 O130 2.427 . S
Tb122 O131 2.513 . S
Tb122 O132 2.453 . S
Tb122 O133 2.596 . S
Tb122 O134 2.374 . S
O123 Tb120 2.453 . S
O123 C139 1.245 . S
O124 Tb120 2.596 . S
O124 Tb122 2.343 . S
O124 C139 1.259 . S
O125 Tb120 2.374 1_554 S
O125 C121 1.251 . S
C126 O130 1.275 . S
C126 O131 1.246 . S
O127 C121 1.263 . S
O127 Tb122 2.353 1_554 S
C128 O132 1.245 . S
C128 O133 1.259 . S
C129 O134 1.250 . S
C129 O135 1.263 . S
O130 Tb122 2.427 . S
O130 C126 1.275 . S
O131 Tb122 2.513 . S
O131 C126 1.246 . S
O132 Tb122 2.453 . S
O132 C128 1.245 . S
O133 Tb120 2.343 . S
O133 Tb122 2.596 . S
O133 C128 1.259 . S
O134 Tb122 2.374 . S
O134 C129 1.250 . S
O135 Tb120 2.353 . S
O135 C129 1.263 . S
C136 O137 1.275 1_554 S
C136 O138 1.246 . S
O137 Tb120 2.427 . S
O137 C136 1.275 1_556 S
O138 Tb120 2.513 1_554 S
O138 C136 1.246 . S
C139 O123 1.245 . S
C139 O124 1.259 . S
Tb140 O143 2.453 1_545 S
Tb140 O144 2.596 1_545 S
Tb140 O145 2.374 1_546 S
Tb140 O153 2.343 . S
Tb140 O155 2.353 . S
Tb140 O157 2.427 . S
Tb140 O158 2.513 1_556 S
C141 O145 1.251 . S
C141 O147 1.263 . S
Tb142 O144 2.343 . S
Tb142 O147 2.353 1_556 S
Tb142 O150 2.427 . S
Tb142 O151 2.513 . S
Tb142 O152 2.452 1_565 S
Tb142 O153 2.596 1_565 S
Tb142 O154 2.374 . S
O143 Tb140 2.453 1_565 S
O143 C159 1.245 . S
O144 Tb140 2.596 1_565 S
O144 Tb142 2.343 . S
O144 C159 1.259 . S
O145 Tb140 2.374 1_564 S
O145 C141 1.251 . S
C146 O150 1.275 . S
C146 O151 1.246 . S
O147 C141 1.263 . S
O147 Tb142 2.353 1_554 S
C148 O152 1.247 . S
C148 O153 1.259 . S
C149 O154 1.250 . S
C149 O155 1.263 1_565 S
O150 Tb142 2.427 . S
O150 C146 1.275 . S
O151 Tb142 2.513 . S
O151 C146 1.246 . S
O152 Tb142 2.452 1_545 S
O152 C148 1.247 . S
O153 Tb140 2.343 . S
O153 Tb142 2.596 1_545 S
O153 C148 1.259 . S
O154 Tb142 2.374 . S
O154 C149 1.250 . S
O155 Tb140 2.353 . S
O155 C149 1.263 1_545 S
C156 O157 1.275 1_554 S
C156 O158 1.246 . S
O157 Tb140 2.427 . S
O157 C156 1.275 1_556 S
O158 Tb140 2.513 1_554 S
O158 C156 1.246 . S
C159 O143 1.245 . S
C159 O144 1.259 . S
Tb160 O163 2.453 1_655 S
Tb160 O164 2.596 1_655 S
Tb160 O165 2.374 1_656 S
Tb160 O173 2.343 . S
Tb160 O175 2.353 . S
Tb160 O177 2.427 . S
Tb160 O178 2.513 1_556 S
C161 O165 1.251 . S
C161 O167 1.263 . S
Tb162 O164 2.343 . S
Tb162 O167 2.353 1_556 S
Tb162 O170 2.427 . S
Tb162 O171 2.513 . S
Tb162 O172 2.450 1_455 S
Tb162 O173 2.596 1_455 S
Tb162 O174 2.374 . S
O163 Tb160 2.453 1_455 S
O163 C179 1.245 . S
O164 Tb160 2.596 1_455 S
O164 Tb162 2.343 . S
O164 C179 1.259 . S
O165 Tb160 2.374 1_454 S
O165 C161 1.251 . S
C166 O170 1.275 . S
C166 O171 1.246 . S
O167 C161 1.263 . S
O167 Tb162 2.353 1_554 S
C168 O172 1.245 . S
C168 O173 1.259 . S
C169 O174 1.250 . S
C169 O175 1.263 1_455 S
O170 Tb162 2.427 . S
O170 C166 1.275 . S
O171 Tb162 2.513 . S
O171 C166 1.246 . S
O172 Tb162 2.450 1_655 S
O172 C168 1.245 . S
O173 Tb160 2.343 . S
O173 Tb162 2.596 1_655 S
O173 C168 1.259 . S
O174 Tb162 2.374 . S
O174 C169 1.250 . S
O175 Tb160 2.353 . S
O175 C169 1.263 1_655 S
C176 O177 1.275 1_554 S
C176 O178 1.246 . S
O177 Tb160 2.427 . S
O177 C176 1.275 1_556 S
O178 Tb160 2.513 1_554 S
O178 C176 1.246 . S
C179 O163 1.245 . S
C179 O164 1.259 . S
Tb180 O183 2.453 . S
Tb180 O184 2.596 . S
Tb180 O185 2.374 . S
Tb180 O193 2.343 . S
Tb180 O195 2.353 . S
Tb180 O197 2.427 . S
Tb180 O198 2.513 . S
C181 O185 1.251 . S
C181 O187 1.263 . S
Tb182 O184 2.343 . S
Tb182 O187 2.353 . S
Tb182 O190 2.427 . S
Tb182 O191 2.513 . S
Tb182 O192 2.453 . S
Tb182 O193 2.596 . S
Tb182 O194 2.374 . S
O183 Tb180 2.453 . S
O183 C199 1.245 . S
O184 Tb180 2.596 . S
O184 Tb182 2.343 . S
O184 C199 1.259 . S
O185 Tb180 2.374 . S
O185 C181 1.251 . S
C186 O190 1.275 . S
C186 O191 1.246 . S
O187 C181 1.263 . S
O187 Tb182 2.353 . S
C188 O192 1.245 . S
C188 O193 1.259 . S
C189 O194 1.250 . S
C189 O195 1.263 . S
O190 Tb182 2.427 . S
O190 C186 1.275 . S
O191 Tb182 2.513 . S
O191 C186 1.246 . S
O192 Tb182 2.453 . S
O192 C188 1.245 . S
O193 Tb180 2.343 . S
O193 Tb182 2.596 . S
O193 C188 1.259 . S
O194 Tb182 2.374 . S
O194 C189 1.250 . S
O195 Tb180 2.353 . S
O195 C189 1.263 . S
C196 O197 1.275 . S
C196 O198 1.246 . S
O197 Tb180 2.427 . S
O197 C196 1.275 . S
O198 Tb180 2.513 . S
O198 C196 1.246 . S
C199 O183 1.245 . S
C199 O184 1.259 . S
Tb200 O203 2.453 1_565 S
Tb200 O204 2.596 1_565 S
Tb200 O205 2.374 1_565 S
Tb200 O213 2.343 . S
Tb200 O215 2.353 . S
Tb200 O217 2.427 . S
Tb200 O218 2.513 . S
C201 O205 1.251 . S
C201 O207 1.263 . S
Tb202 O204 2.343 . S
Tb202 O207 2.353 . S
Tb202 O210 2.427 . S
Tb202 O211 2.513 . S
Tb202 O212 2.450 1_545 S
Tb202 O213 2.596 1_545 S
Tb202 O214 2.374 . S
O203 Tb200 2.453 1_545 S
O203 C219 1.245 . S
O204 Tb200 2.596 1_545 S
O204 Tb202 2.343 . S
O204 C219 1.259 . S
O205 Tb200 2.374 1_545 S
O205 C201 1.251 . S
C206 O210 1.275 . S
C206 O211 1.246 . S
O207 C201 1.263 . S
O207 Tb202 2.353 . S
C208 O212 1.245 . S
C208 O213 1.259 . S
C209 O214 1.250 . S
C209 O215 1.263 1_545 S
O210 Tb202 2.427 . S
O210 C206 1.275 . S
O211 Tb202 2.513 . S
O211 C206 1.246 . S
O212 Tb202 2.450 1_565 S
O212 C208 1.245 . S
O213 Tb200 2.343 . S
O213 Tb202 2.596 1_565 S
O213 C208 1.259 . S
O214 Tb202 2.374 . S
O214 C209 1.250 . S
O215 Tb200 2.353 . S
O215 C209 1.263 1_565 S
C216 O217 1.275 . S
C216 O218 1.246 . S
O217 Tb200 2.427 . S
O217 C216 1.275 . S
O218 Tb200 2.513 . S
O218 C216 1.246 . S
C219 O203 1.245 . S
C219 O204 1.259 . S
Tb220 O223 2.453 1_455 S
Tb220 O224 2.596 1_455 S
Tb220 O225 2.374 1_455 S
Tb220 O233 2.343 . S
Tb220 O235 2.353 . S
Tb220 O237 2.427 . S
Tb220 O238 2.513 . S
C221 O225 1.251 . S
C221 O227 1.263 . S
Tb222 O224 2.343 . S
Tb222 O227 2.353 . S
Tb222 O230 2.427 . S
Tb222 O231 2.513 . S
Tb222 O232 2.452 1_655 S
Tb222 O233 2.596 1_655 S
Tb222 O234 2.374 . S
O223 Tb220 2.453 1_655 S
O223 C239 1.245 . S
O224 Tb220 2.596 1_655 S
O224 Tb222 2.343 . S
O224 C239 1.259 . S
O225 Tb220 2.374 1_655 S
O225 C221 1.251 . S
C226 O230 1.275 . S
C226 O231 1.246 . S
O227 C221 1.263 . S
O227 Tb222 2.353 . S
C228 O232 1.247 . S
C228 O233 1.259 . S
C229 O234 1.250 . S
C229 O235 1.263 1_655 S
O230 Tb222 2.427 . S
O230 C226 1.275 . S
O231 Tb222 2.513 . S
O231 C226 1.246 . S
O232 Tb222 2.452 1_455 S
O232 C228 1.247 . S
O233 Tb220 2.343 . S
O233 Tb222 2.596 1_455 S
O233 C228 1.259 . S
O234 Tb222 2.374 . S
O234 C229 1.250 . S
O235 Tb220 2.353 . S
O235 C229 1.263 1_455 S
C236 O237 1.275 . S
C236 O238 1.246 . S
O237 Tb220 2.427 . S
O237 C236 1.275 . S
O238 Tb220 2.513 . S
O238 C236 1.246 . S
C239 O223 1.245 . S
C239 O224 1.259 . S
Tb240 O243 2.453 . S
Tb240 O244 2.596 . S
Tb240 O245 2.374 . S
Tb240 O253 2.343 . S
Tb240 O255 2.353 . S
Tb240 O257 2.427 1_655 S
Tb240 O258 2.513 . S
C241 O245 1.251 . S
C241 O247 1.263 . S
Tb242 O244 2.343 . S
Tb242 O247 2.353 . S
Tb242 O250 2.427 . S
Tb242 O251 2.513 . S
Tb242 O252 2.453 . S
Tb242 O253 2.596 . S
Tb242 O254 2.374 . S
O243 Tb240 2.453 . S
O243 C259 1.245 . S
O244 Tb240 2.596 . S
O244 Tb242 2.343 . S
O244 C259 1.259 . S
O245 Tb240 2.374 . S
O245 C241 1.251 . S
C246 O250 1.275 . S
C246 O251 1.246 . S
O247 C241 1.263 . S
O247 Tb242 2.353 . S
C248 O252 1.245 . S
C248 O253 1.259 . S
C249 O254 1.250 . S
C249 O255 1.263 . S
O250 Tb242 2.427 . S
O250 C246 1.275 . S
O251 Tb242 2.513 . S
O251 C246 1.246 . S
O252 Tb242 2.453 . S
O252 C248 1.245 . S
O253 Tb240 2.343 . S
O253 Tb242 2.596 . S
O253 C248 1.259 . S
O254 Tb242 2.374 . S
O254 C249 1.250 . S
O255 Tb240 2.353 . S
O255 C249 1.263 . S
C256 O257 1.275 . S
C256 O258 1.246 1_455 S
O257 Tb240 2.427 1_455 S
O257 C256 1.275 . S
O258 Tb240 2.513 . S
O258 C256 1.246 1_655 S
C259 O243 1.245 . S
C259 O244 1.259 . S
Tb260 O263 2.453 . S
Tb260 O264 2.596 . S
Tb260 O265 2.374 . S
Tb260 O273 2.343 . S
Tb260 O275 2.353 . S
Tb260 O277 2.427 . S
Tb260 O278 2.513 . S
C261 O265 1.251 . S
C261 O267 1.263 . S
Tb262 O264 2.343 . S
Tb262 O267 2.353 . S
Tb262 O270 2.427 . S
Tb262 O271 2.513 . S
Tb262 O272 2.453 . S
Tb262 O273 2.596 . S
Tb262 O274 2.374 . S
O263 Tb260 2.453 . S
O263 C279 1.245 . S
O264 Tb260 2.596 . S
O264 Tb262 2.343 . S
O264 C279 1.259 . S
O265 Tb260 2.374 . S
O265 C261 1.251 . S
C266 O270 1.275 . S
C266 O271 1.246 . S
O267 C261 1.263 . S
O267 Tb262 2.353 . S
C268 O272 1.245 . S
C268 O273 1.259 . S
C269 O274 1.250 . S
C269 O275 1.263 . S
O270 Tb262 2.427 . S
O270 C266 1.275 . S
O271 Tb262 2.513 . S
O271 C266 1.246 . S
O272 Tb262 2.453 . S
O272 C268 1.245 . S
O273 Tb260 2.343 . S
O273 Tb262 2.596 . S
O273 C268 1.259 . S
O274 Tb262 2.374 . S
O274 C269 1.250 . S
O275 Tb260 2.353 . S
O275 C269 1.263 . S
C276 O277 1.275 . S
C276 O278 1.246 . S
O277 Tb260 2.427 . S
O277 C276 1.275 . S
O278 Tb260 2.513 . S
O278 C276 1.246 . S
C279 O263 1.245 . S
C279 O264 1.259 . S
Tb280 O283 2.453 . S
Tb280 O284 2.596 . S
Tb280 O285 2.374 . S
Tb280 O293 2.343 . S
Tb280 O295 2.353 . S
Tb280 O297 2.427 1_545 S
Tb280 O298 2.513 . S
C281 O285 1.251 . S
C281 O287 1.263 . S
Tb282 O284 2.343 . S
Tb282 O287 2.353 . S
Tb282 O290 2.427 . S
Tb282 O291 2.513 . S
Tb282 O292 2.453 . S
Tb282 O293 2.596 . S
Tb282 O294 2.374 . S
O283 Tb280 2.453 . S
O283 C299 1.245 . S
O284 Tb280 2.596 . S
O284 Tb282 2.343 . S
O284 C299 1.259 . S
O285 Tb280 2.374 . S
O285 C281 1.251 . S
C286 O290 1.275 . S
C286 O291 1.246 . S
O287 C281 1.263 . S
O287 Tb282 2.353 . S
C288 O292 1.245 . S
C288 O293 1.259 . S
C289 O294 1.250 . S
C289 O295 1.263 . S
O290 Tb282 2.427 . S
O290 C286 1.275 . S
O291 Tb282 2.513 . S
O291 C286 1.246 . S
O292 Tb282 2.453 . S
O292 C288 1.245 . S
O293 Tb280 2.343 . S
O293 Tb282 2.596 . S
O293 C288 1.259 . S
O294 Tb282 2.374 . S
O294 C289 1.250 . S
O295 Tb280 2.353 . S
O295 C289 1.263 . S
C296 O297 1.275 . S
C296 O298 1.246 1_565 S
O297 Tb280 2.427 1_565 S
O297 C296 1.275 . S
O298 Tb280 2.513 . S
O298 C296 1.246 1_545 S
C299 O283 1.245 . S
C299 O284 1.259 . S
Tb300 O303 2.453 . S
Tb300 O304 2.596 . S
Tb300 O305 2.374 . S
Tb300 O313 2.343 . S
Tb300 O315 2.353 . S
Tb300 O317 2.427 . S
Tb300 O318 2.513 . S
C301 O305 1.251 . S
C301 O307 1.263 . S
Tb302 O304 2.343 . S
Tb302 O307 2.353 . S
Tb302 O310 2.427 . S
Tb302 O311 2.513 . S
Tb302 O312 2.453 . S
Tb302 O313 2.596 . S
Tb302 O314 2.374 . S
O303 Tb300 2.453 . S
O303 C319 1.245 . S
O304 Tb300 2.596 . S
O304 Tb302 2.343 . S
O304 C319 1.259 . S
O305 Tb300 2.374 . S
O305 C301 1.251 . S
C306 O310 1.275 . S
C306 O311 1.246 . S
O307 C301 1.263 . S
O307 Tb302 2.353 . S
C308 O312 1.245 . S
C308 O313 1.259 . S
C309 O314 1.250 . S
C309 O315 1.263 . S
O310 Tb302 2.427 . S
O310 C306 1.275 . S
O311 Tb302 2.513 . S
O311 C306 1.246 . S
O312 Tb302 2.453 . S
O312 C308 1.245 . S
O313 Tb300 2.343 . S
O313 Tb302 2.596 . S
O313 C308 1.259 . S
O314 Tb302 2.374 . S
O314 C309 1.250 . S
O315 Tb300 2.353 . S
O315 C309 1.263 . S
C316 O317 1.275 . S
C316 O318 1.246 . S
O317 Tb300 2.427 . S
O317 C316 1.275 . S
O318 Tb300 2.513 . S
O318 C316 1.246 . S
C319 O303 1.245 . S
C319 O304 1.259 . S
Tb320 O323 2.453 . S
Tb320 O324 2.596 . S
Tb320 O325 2.374 . S
Tb320 O333 2.343 . S
Tb320 O335 2.353 . S
Tb320 O337 2.427 . S
Tb320 O338 2.513 . S
C321 O325 1.251 . S
C321 O327 1.263 . S
Tb322 O324 2.343 . S
Tb322 O327 2.353 . S
Tb322 O330 2.427 . S
Tb322 O331 2.513 . S
Tb322 O332 2.453 . S
Tb322 O333 2.596 . S
Tb322 O334 2.374 . S
O323 Tb320 2.453 . S
O323 C339 1.245 . S
O324 Tb320 2.596 . S
O324 Tb322 2.343 . S
O324 C339 1.259 . S
O325 Tb320 2.374 . S
O325 C321 1.251 . S
C326 O330 1.275 . S
C326 O331 1.246 . S
O327 C321 1.263 . S
O327 Tb322 2.353 . S
C328 O332 1.245 . S
C328 O333 1.259 . S
C329 O334 1.250 . S
C329 O335 1.263 . S
O330 Tb322 2.427 . S
O330 C326 1.275 . S
O331 Tb322 2.513 . S
O331 C326 1.246 . S
O332 Tb322 2.453 . S
O332 C328 1.245 . S
O333 Tb320 2.343 . S
O333 Tb322 2.596 . S
O333 C328 1.259 . S
O334 Tb322 2.374 . S
O334 C329 1.250 . S
O335 Tb320 2.353 . S
O335 C329 1.263 . S
C336 O337 1.275 . S
C336 O338 1.246 . S
O337 Tb320 2.427 . S
O337 C336 1.275 . S
O338 Tb320 2.513 . S
O338 C336 1.246 . S
C339 O323 1.245 . S
C339 O324 1.259 . S
Tb340 O343 2.453 . S
Tb340 O344 2.596 . S
Tb340 O345 2.374 . S
Tb340 O353 2.343 . S
Tb340 O355 2.353 . S
Tb340 O357 2.427 . S
Tb340 O358 2.513 . S
C341 O345 1.251 . S
C341 O347 1.263 . S
Tb342 O344 2.343 . S
Tb342 O347 2.353 . S
Tb342 O350 2.427 . S
Tb342 O351 2.513 . S
Tb342 O352 2.453 . S
Tb342 O353 2.596 . S
Tb342 O354 2.374 . S
O343 Tb340 2.453 . S
O343 C359 1.245 . S
O344 Tb340 2.596 . S
O344 Tb342 2.343 . S
O344 C359 1.259 . S
O345 Tb340 2.374 . S
O345 C341 1.251 . S
C346 O350 1.275 . S
C346 O351 1.246 . S
O347 C341 1.263 . S
O347 Tb342 2.353 . S
C348 O352 1.245 . S
C348 O353 1.259 . S
C349 O354 1.250 . S
C349 O355 1.263 . S
O350 Tb342 2.427 . S
O350 C346 1.275 . S
O351 Tb342 2.513 . S
O351 C346 1.246 . S
O352 Tb342 2.453 . S
O352 C348 1.245 . S
O353 Tb340 2.343 . S
O353 Tb342 2.596 . S
O353 C348 1.259 . S
O354 Tb342 2.374 . S
O354 C349 1.250 . S
O355 Tb340 2.353 . S
O355 C349 1.263 . S
C356 O357 1.275 . S
C356 O358 1.246 . S
O357 Tb340 2.427 . S
O357 C356 1.275 . S
O358 Tb340 2.513 . S
O358 C356 1.246 . S
C359 O343 1.245 . S
C359 O344 1.259 . S
Tb360 O363 2.453 . S
Tb360 O364 2.596 . S
Tb360 O365 2.374 . S
Tb360 O373 2.343 . S
Tb360 O375 2.353 . S
Tb360 O377 2.427 . S
Tb360 O378 2.513 . S
C361 O365 1.251 . S
C361 O367 1.263 . S
Tb362 O364 2.343 . S
Tb362 O367 2.353 . S
Tb362 O370 2.427 . S
Tb362 O371 2.513 . S
Tb362 O372 2.453 . S
Tb362 O373 2.596 . S
Tb362 O374 2.374 . S
O363 Tb360 2.453 . S
O363 C379 1.245 . S
O364 Tb360 2.596 . S
O364 Tb362 2.343 . S
O364 C379 1.259 . S
O365 Tb360 2.374 . S
O365 C361 1.251 . S
C366 O370 1.275 . S
C366 O371 1.246 . S
O367 C361 1.263 . S
O367 Tb362 2.353 . S
C368 O372 1.245 . S
C368 O373 1.259 . S
C369 O374 1.250 . S
C369 O375 1.263 . S
O370 Tb362 2.427 . S
O370 C366 1.275 . S
O371 Tb362 2.513 . S
O371 C366 1.246 . S
O372 Tb362 2.453 . S
O372 C368 1.245 . S
O373 Tb360 2.343 . S
O373 Tb362 2.596 . S
O373 C368 1.259 . S
O374 Tb362 2.374 . S
O374 C369 1.250 . S
O375 Tb360 2.353 . S
O375 C369 1.263 . S
C376 O377 1.275 . S
C376 O378 1.246 . S
O377 Tb360 2.427 . S
O377 C376 1.275 . S
O378 Tb360 2.513 . S
O378 C376 1.246 . S
C379 O363 1.245 . S
C379 O364 1.259 . S
Tb380 O383 2.453 . S
Tb380 O384 2.596 . S
Tb380 O385 2.374 . S
Tb380 O393 2.343 . S
Tb380 O395 2.353 . S
Tb380 O397 2.427 . S
Tb380 O398 2.513 . S
C381 O385 1.251 . S
C381 O387 1.263 . S
Tb382 O384 2.343 . S
Tb382 O387 2.353 . S
Tb382 O390 2.427 . S
Tb382 O391 2.513 . S
Tb382 O392 2.453 . S
Tb382 O393 2.596 . S
Tb382 O394 2.374 . S
O383 Tb380 2.453 . S
O383 C399 1.245 . S
O384 Tb380 2.596 . S
O384 Tb382 2.343 . S
O384 C399 1.259 . S
O385 Tb380 2.374 . S
O385 C381 1.251 . S
C386 O390 1.275 . S
C386 O391 1.246 . S
O387 C381 1.263 . S
O387 Tb382 2.353 . S
C388 O392 1.245 . S
C388 O393 1.259 . S
C389 O394 1.250 . S
C389 O395 1.263 . S
O390 Tb382 2.427 . S
O390 C386 1.275 . S
O391 Tb382 2.513 . S
O391 C386 1.246 . S
O392 Tb382 2.453 . S
O392 C388 1.245 . S
O393 Tb380 2.343 . S
O393 Tb382 2.596 . S
O393 C388 1.259 . S
O394 Tb382 2.374 . S
O394 C389 1.250 . S
O395 Tb380 2.353 . S
O395 C389 1.263 . S
C396 O397 1.275 . S
C396 O398 1.246 . S
O397 Tb380 2.427 . S
O397 C396 1.275 . S
O398 Tb380 2.513 . S
O398 C396 1.246 . S
C399 O383 1.245 . S
C399 O384 1.259 . S
Tb400 O403 2.453 . S
Tb400 O404 2.596 . S
Tb400 O405 2.374 . S
Tb400 O413 2.343 . S
Tb400 O415 2.353 . S
Tb400 O417 2.427 . S
Tb400 O418 2.513 . S
C401 O405 1.251 . S
C401 O407 1.263 . S
Tb402 O404 2.343 . S
Tb402 O407 2.353 . S
Tb402 O410 2.427 . S
Tb402 O411 2.513 . S
Tb402 O412 2.453 . S
Tb402 O413 2.596 . S
Tb402 O414 2.374 . S
O403 Tb400 2.453 . S
O403 C419 1.245 . S
O404 Tb400 2.596 . S
O404 Tb402 2.343 . S
O404 C419 1.259 . S
O405 Tb400 2.374 . S
O405 C401 1.251 . S
C406 O410 1.275 . S
C406 O411 1.246 . S
O407 C401 1.263 . S
O407 Tb402 2.353 . S
C408 O412 1.245 . S
C408 O413 1.259 . S
C409 O414 1.250 . S
C409 O415 1.263 . S
O410 Tb402 2.427 . S
O410 C406 1.275 . S
O411 Tb402 2.513 . S
O411 C406 1.246 . S
O412 Tb402 2.453 . S
O412 C408 1.245 . S
O413 Tb400 2.343 . S
O413 Tb402 2.596 . S
O413 C408 1.259 . S
O414 Tb402 2.374 . S
O414 C409 1.250 . S
O415 Tb400 2.353 . S
O415 C409 1.263 . S
C416 O417 1.275 . S
C416 O418 1.246 . S
O417 Tb400 2.427 . S
O417 C416 1.275 . S
O418 Tb400 2.513 . S
O418 C416 1.246 . S
C419 O403 1.245 . S
C419 O404 1.259 . S
Tb420 O423 2.453 . S
Tb420 O424 2.596 . S
Tb420 O425 2.374 . S
Tb420 O433 2.343 . S
Tb420 O435 2.353 . S
Tb420 O437 2.427 . S
Tb420 O438 2.513 . S
C421 O425 1.251 . S
C421 O427 1.263 . S
Tb422 O424 2.343 . S
Tb422 O427 2.353 . S
Tb422 O430 2.427 1_545 S
Tb422 O431 2.513 1_556 S
Tb422 O432 2.453 . S
Tb422 O433 2.596 . S
Tb422 O434 2.374 1_556 S
O423 Tb420 2.453 . S
O423 C439 1.245 . S
O424 Tb420 2.596 . S
O424 Tb422 2.343 . S
O424 C439 1.259 . S
O425 Tb420 2.374 . S
O425 C421 1.251 . S
C426 O430 1.275 . S
C426 O431 1.246 1_566 S
O427 C421 1.263 . S
O427 Tb422 2.353 . S
C428 O432 1.245 . S
C428 O433 1.259 . S
C429 O434 1.250 . S
C429 O435 1.263 1_554 S
O430 Tb422 2.427 1_565 S
O430 C426 1.275 . S
O431 Tb422 2.513 1_554 S
O431 C426 1.246 1_544 S
O432 Tb422 2.453 . S
O432 C428 1.245 . S
O433 Tb420 2.343 . S
O433 Tb422 2.596 . S
O433 C428 1.259 . S
O434 Tb422 2.374 1_554 S
O434 C429 1.250 . S
O435 Tb420 2.353 . S
O435 C429 1.263 1_556 S
C436 O437 1.275 . S
C436 O438 1.246 . S
O437 Tb420 2.427 . S
O437 C436 1.275 . S
O438 Tb420 2.513 . S
O438 C436 1.246 . S
C439 O423 1.245 . S
C439 O424 1.259 . S
Tb440 O443 2.453 . S
Tb440 O444 2.596 . S
Tb440 O445 2.374 . S
Tb440 O453 2.343 . S
Tb440 O455 2.353 . S
Tb440 O457 2.427 . S
Tb440 O458 2.513 . S
C441 O445 1.251 . S
C441 O447 1.263 . S
Tb442 O444 2.343 . S
Tb442 O447 2.353 . S
Tb442 O450 2.427 1_655 S
Tb442 O451 2.513 1_556 S
Tb442 O452 2.453 . S
Tb442 O453 2.596 . S
Tb442 O454 2.374 1_556 S
O443 Tb440 2.453 . S
O443 C459 1.245 . S
O444 Tb440 2.596 . S
O444 Tb442 2.343 . S
O444 C459 1.259 . S
O445 Tb440 2.374 . S
O445 C441 1.251 . S
C446 O450 1.275 . S
C446 O451 1.246 1_456 S
O447 C441 1.263 . S
O447 Tb442 2.353 . S
C448 O452 1.245 . S
C448 O453 1.259 . S
C449 O454 1.250 . S
C449 O455 1.263 1_554 S
O450 Tb442 2.427 1_455 S
O450 C446 1.275 . S
O451 Tb442 2.513 1_554 S
O451 C446 1.246 1_654 S
O452 Tb442 2.453 . S
O452 C448 1.245 . S
O453 Tb440 2.343 . S
O453 Tb442 2.596 . S
O453 C448 1.259 . S
O454 Tb442 2.374 1_554 S
O454 C449 1.250 . S
O455 Tb440 2.353 . S
O455 C449 1.263 1_556 S
C456 O457 1.275 . S
C456 O458 1.246 . S
O457 Tb440 2.427 . S
O457 C456 1.275 . S
O458 Tb440 2.513 . S
O458 C456 1.246 . S
C459 O443 1.245 . S
C459 O444 1.259 . S
Tb460 O463 2.453 . S
Tb460 O464 2.596 . S
Tb460 O465 2.374 . S
Tb460 O473 2.343 . S
Tb460 O475 2.353 . S
Tb460 O477 2.427 . S
Tb460 O478 2.513 . S
C461 O465 1.251 . S
C461 O467 1.263 . S
Tb462 O464 2.343 . S
Tb462 O467 2.353 . S
Tb462 O470 2.427 . S
Tb462 O471 2.513 1_556 S
Tb462 O472 2.453 . S
Tb462 O473 2.596 . S
Tb462 O474 2.374 1_556 S
O463 Tb460 2.453 . S
O463 C479 1.245 . S
O464 Tb460 2.596 . S
O464 Tb462 2.343 . S
O464 C479 1.259 . S
O465 Tb460 2.374 . S
O465 C461 1.251 . S
C466 O470 1.275 . S
C466 O471 1.246 1_556 S
O467 C461 1.263 . S
O467 Tb462 2.353 . S
C468 O472 1.245 . S
C468 O473 1.259 . S
C469 O474 1.250 . S
C469 O475 1.263 1_554 S
O470 Tb462 2.427 . S
O470 C466 1.275 . S
O471 Tb462 2.513 1_554 S
O471 C466 1.246 1_554 S
O472 Tb462 2.453 . S
O472 C468 1.245 . S
O473 Tb460 2.343 . S
O473 Tb462 2.596 . S
O473 C468 1.259 . S
O474 Tb462 2.374 1_554 S
O474 C469 1.250 . S
O475 Tb460 2.353 . S
O475 C469 1.263 1_556 S
C476 O477 1.275 . S
C476 O478 1.246 . S
O477 Tb460 2.427 . S
O477 C476 1.275 . S
O478 Tb460 2.513 . S
O478 C476 1.246 . S
C479 O463 1.245 . S
C479 O464 1.259 . S
Tb480 O483 2.453 . S
Tb480 O484 2.596 . S
Tb480 O485 2.374 . S
Tb480 O493 2.343 . S
Tb480 O495 2.353 . S
Tb480 O497 2.427 . S
Tb480 O498 2.513 . S
C481 O485 1.251 . S
C481 O487 1.263 . S
Tb482 O484 2.343 . S
Tb482 O487 2.353 . S
Tb482 O490 2.427 . S
Tb482 O491 2.513 . S
Tb482 O492 2.453 . S
Tb482 O493 2.596 . S
Tb482 O494 2.374 . S
O483 Tb480 2.453 . S
O483 C499 1.245 . S
O484 Tb480 2.596 . S
O484 Tb482 2.343 . S
O484 C499 1.259 . S
O485 Tb480 2.374 . S
O485 C481 1.251 . S
C486 O490 1.275 . S
C486 O491 1.246 . S
O487 C481 1.263 . S
O487 Tb482 2.353 . S
C488 O492 1.245 . S
C488 O493 1.259 . S
C489 O494 1.250 . S
C489 O495 1.263 . S
O490 Tb482 2.427 . S
O490 C486 1.275 . S
O491 Tb482 2.513 . S
O491 C486 1.246 . S
O492 Tb482 2.453 . S
O492 C488 1.245 . S
O493 Tb480 2.343 . S
O493 Tb482 2.596 . S
O493 C488 1.259 . S
O494 Tb482 2.374 . S
O494 C489 1.250 . S
O495 Tb480 2.353 . S
O495 C489 1.263 . S
C496 O497 1.275 . S
C496 O498 1.246 . S
O497 Tb480 2.427 . S
O497 C496 1.275 . S
O498 Tb480 2.513 . S
O498 C496 1.246 . S
C499 O483 1.245 . S
C499 O484 1.259 . S
Tb500 O503 2.453 . S
Tb500 O504 2.596 . S
Tb500 O505 2.374 . S
Tb500 O513 2.343 . S
Tb500 O515 2.353 . S
Tb500 O517 2.427 . S
Tb500 O518 2.513 . S
C501 O505 1.251 . S
C501 O507 1.263 . S
Tb502 O504 2.343 . S
Tb502 O507 2.353 . S
Tb502 O510 2.427 . S
Tb502 O511 2.513 . S
Tb502 O512 2.453 . S
Tb502 O513 2.596 . S
Tb502 O514 2.374 . S
O503 Tb500 2.453 . S
O503 C519 1.245 . S
O504 Tb500 2.596 . S
O504 Tb502 2.343 . S
O504 C519 1.259 . S
O505 Tb500 2.374 . S
O505 C501 1.251 . S
C506 O510 1.275 . S
C506 O511 1.246 . S
O507 C501 1.263 . S
O507 Tb502 2.353 . S
C508 O512 1.245 . S
C508 O513 1.259 . S
C509 O514 1.250 . S
C509 O515 1.263 . S
O510 Tb502 2.427 . S
O510 C506 1.275 . S
O511 Tb502 2.513 . S
O511 C506 1.246 . S
O512 Tb502 2.453 . S
O512 C508 1.245 . S
O513 Tb500 2.343 . S
O513 Tb502 2.596 . S
O513 C508 1.259 . S
O514 Tb502 2.374 . S
O514 C509 1.250 . S
O515 Tb500 2.353 . S
O515 C509 1.263 . S
C516 O517 1.275 . S
C516 O518 1.246 . S
O517 Tb500 2.427 . S
O517 C516 1.275 . S
O518 Tb500 2.513 . S
O518 C516 1.246 . S
C519 O503 1.245 . S
C519 O504 1.259 . S
Tb520 O523 2.453 . S
Tb520 O524 2.596 . S
Tb520 O525 2.374 . S
Tb520 O533 2.343 . S
Tb520 O535 2.353 . S
Tb520 O537 2.427 . S
Tb520 O538 2.513 . S
C521 O525 1.251 . S
C521 O527 1.263 . S
Tb522 O524 2.343 . S
Tb522 O527 2.353 . S
Tb522 O530 2.427 . S
Tb522 O531 2.513 . S
Tb522 O532 2.453 . S
Tb522 O533 2.596 . S
Tb522 O534 2.374 . S
O523 Tb520 2.453 . S
O523 C539 1.245 . S
O524 Tb520 2.596 . S
O524 Tb522 2.343 . S
O524 C539 1.259 . S
O525 Tb520 2.374 . S
O525 C521 1.251 . S
C526 O530 1.275 . S
C526 O531 1.246 . S
O527 C521 1.263 . S
O527 Tb522 2.353 . S
C528 O532 1.245 . S
C528 O533 1.259 . S
C529 O534 1.250 . S
C529 O535 1.263 . S
O530 Tb522 2.427 . S
O530 C526 1.275 . S
O531 Tb522 2.513 . S
O531 C526 1.246 . S
O532 Tb522 2.453 . S
O532 C528 1.245 . S
O533 Tb520 2.343 . S
O533 Tb522 2.596 . S
O533 C528 1.259 . S
O534 Tb522 2.374 . S
O534 C529 1.250 . S
O535 Tb520 2.353 . S
O535 C529 1.263 . S
C536 O537 1.275 . S
C536 O538 1.246 . S
O537 Tb520 2.427 . S
O537 C536 1.275 . S
O538 Tb520 2.513 . S
O538 C536 1.246 . S
C539 O523 1.245 . S
C539 O524 1.259 . S
Tb540 O543 2.453 . S
Tb540 O544 2.596 . S
Tb540 O545 2.374 1_554 S
Tb540 O553 2.343 . S
Tb540 O555 2.353 . S
Tb540 O557 2.427 1_565 S
Tb540 O558 2.513 1_554 S
C541 O545 1.251 . S
C541 O547 1.263 1_556 S
Tb542 O544 2.343 . S
Tb542 O547 2.353 . S
Tb542 O550 2.427 . S
Tb542 O551 2.513 . S
Tb542 O552 2.453 . S
Tb542 O553 2.596 . S
Tb542 O554 2.374 . S
O543 Tb540 2.453 . S
O543 C559 1.245 . S
O544 Tb540 2.596 . S
O544 Tb542 2.343 . S
O544 C559 1.259 . S
O545 Tb540 2.374 1_556 S
O545 C541 1.251 . S
C546 O550 1.275 . S
C546 O551 1.246 . S
O547 C541 1.263 1_554 S
O547 Tb542 2.353 . S
C548 O552 1.245 . S
C548 O553 1.259 . S
C549 O554 1.250 . S
C549 O555 1.263 . S
O550 Tb542 2.427 . S
O550 C546 1.275 . S
O551 Tb542 2.513 . S
O551 C546 1.246 . S
O552 Tb542 2.453 . S
O552 C548 1.245 . S
O553 Tb540 2.343 . S
O553 Tb542 2.596 . S
O553 C548 1.259 . S
O554 Tb542 2.374 . S
O554 C549 1.250 . S
O555 Tb540 2.353 . S
O555 C549 1.263 . S
C556 O557 1.275 . S
C556 O558 1.246 1_544 S
O557 Tb540 2.427 1_545 S
O557 C556 1.275 . S
O558 Tb540 2.513 1_556 S
O558 C556 1.246 1_566 S
C559 O543 1.245 . S
C559 O544 1.259 . S
Tb560 O563 2.453 . S
Tb560 O564 2.596 . S
Tb560 O565 2.374 1_554 S
Tb560 O573 2.343 . S
Tb560 O575 2.353 . S
Tb560 O577 2.427 1_455 S
Tb560 O578 2.513 1_554 S
C561 O565 1.251 . S
C561 O567 1.263 1_556 S
Tb562 O564 2.343 . S
Tb562 O567 2.353 . S
Tb562 O570 2.427 . S
Tb562 O571 2.513 . S
Tb562 O572 2.453 . S
Tb562 O573 2.596 . S
Tb562 O574 2.374 . S
O563 Tb560 2.453 . S
O563 C579 1.245 . S
O564 Tb560 2.596 . S
O564 Tb562 2.343 . S
O564 C579 1.259 . S
O565 Tb560 2.374 1_556 S
O565 C561 1.251 . S
C566 O570 1.275 . S
C566 O571 1.246 . S
O567 C561 1.263 1_554 S
O567 Tb562 2.353 . S
C568 O572 1.245 . S
C568 O573 1.259 . S
C569 O574 1.250 . S
C569 O575 1.263 . S
O570 Tb562 2.427 . S
O570 C566 1.275 . S
O571 Tb562 2.513 . S
O571 C566 1.246 . S
O572 Tb562 2.453 . S
O572 C568 1.245 . S
O573 Tb560 2.343 . S
O573 Tb562 2.596 . S
O573 C568 1.259 . S
O574 Tb562 2.374 . S
O574 C569 1.250 . S
O575 Tb560 2.353 . S
O575 C569 1.263 . S
C576 O577 1.275 . S
C576 O578 1.246 1_654 S
O577 Tb560 2.427 1_655 S
O577 C576 1.275 . S
O578 Tb560 2.513 1_556 S
O578 C576 1.246 1_456 S
C579 O563 1.245 . S
C579 O564 1.259 . S
Tb580 O583 2.453 . S
Tb580 O584 2.596 . S
Tb580 O585 2.374 1_554 S
Tb580 O593 2.343 . S
Tb580 O595 2.353 . S
Tb580 O597 2.427 . S
Tb580 O598 2.513 1_554 S
C581 O585 1.251 . S
C581 O587 1.263 1_556 S
Tb582 O584 2.343 . S
Tb582 O587 2.353 . S
Tb582 O590 2.427 . S
Tb582 O591 2.513 . S
Tb582 O592 2.453 . S
Tb582 O593 2.596 . S
Tb582 O594 2.374 . S
O583 Tb580 2.453 . S
O583 C599 1.245 . S
O584 Tb580 2.596 . S
O584 Tb582 2.343 . S
O584 C599 1.259 . S
O585 Tb580 2.374 1_556 S
O585 C581 1.251 . S
C586 O590 1.275 . S
C586 O591 1.246 . S
O587 C581 1.263 1_554 S
O587 Tb582 2.353 . S
C588 O592 1.245 . S
C588 O593 1.259 . S
C589 O594 1.250 . S
C589 O595 1.263 . S
O590 Tb582 2.427 . S
O590 C586 1.275 . S
O591 Tb582 2.513 . S
O591 C586 1.246 . S
O592 Tb582 2.453 . S
O592 C588 1.245 . S
O593 Tb580 2.343 . S
O593 Tb582 2.596 . S
O593 C588 1.259 . S
O594 Tb582 2.374 . S
O594 C589 1.250 . S
O595 Tb580 2.353 . S
O595 C589 1.263 . S
C596 O597 1.275 . S
C596 O598 1.246 1_554 S
O597 Tb580 2.427 . S
O597 C596 1.275 . S
O598 Tb580 2.513 1_556 S
O598 C596 1.246 1_556 S
C599 O583 1.245 . S
C599 O584 1.259 . S
Tb600 O603 2.453 . S
Tb600 O604 2.596 . S
Tb600 O605 2.374 . S
Tb600 O613 2.343 . S
Tb600 O615 2.353 . S
Tb600 O617 2.427 . S
Tb600 O618 2.513 . S
C601 O605 1.251 . S
C601 O607 1.263 . S
Tb602 O604 2.343 . S
Tb602 O607 2.353 . S
Tb602 O610 2.427 1_455 S
Tb602 O611 2.513 . S
Tb602 O612 2.453 . S
Tb602 O613 2.596 . S
Tb602 O614 2.374 . S
O603 Tb600 2.453 . S
O603 C619 1.245 . S
O604 Tb600 2.596 . S
O604 Tb602 2.343 . S
O604 C619 1.259 . S
O605 Tb600 2.374 . S
O605 C601 1.251 . S
C606 O610 1.275 . S
C606 O611 1.246 1_655 S
O607 C601 1.263 . S
O607 Tb602 2.353 . S
C608 O612 1.245 . S
C608 O613 1.259 . S
C609 O614 1.250 . S
C609 O615 1.263 . S
O610 Tb602 2.427 1_655 S
O610 C606 1.275 . S
O611 Tb602 2.513 . S
O611 C606 1.246 1_455 S
O612 Tb602 2.453 . S
O612 C608 1.245 . S
O613 Tb600 2.343 . S
O613 Tb602 2.596 . S
O613 C608 1.259 . S
O614 Tb602 2.374 . S
O614 C609 1.250 . S
O615 Tb600 2.353 . S
O615 C609 1.263 . S
C616 O617 1.275 . S
C616 O618 1.246 . S
O617 Tb600 2.427 . S
O617 C616 1.275 . S
O618 Tb600 2.513 . S
O618 C616 1.246 . S
C619 O603 1.245 . S
C619 O604 1.259 . S
Tb620 O623 2.453 . S
Tb620 O624 2.596 . S
Tb620 O625 2.374 . S
Tb620 O633 2.343 . S
Tb620 O635 2.353 . S
Tb620 O637 2.427 . S
Tb620 O638 2.513 . S
C621 O625 1.251 . S
C621 O627 1.263 . S
Tb622 O624 2.343 . S
Tb622 O627 2.353 . S
Tb622 O630 2.427 . S
Tb622 O631 2.513 . S
Tb622 O632 2.453 . S
Tb622 O633 2.596 . S
Tb622 O634 2.374 . S
O623 Tb620 2.453 . S
O623 C639 1.245 . S
O624 Tb620 2.596 . S
O624 Tb622 2.343 . S
O624 C639 1.259 . S
O625 Tb620 2.374 . S
O625 C621 1.251 . S
C626 O630 1.275 . S
C626 O631 1.246 . S
O627 C621 1.263 . S
O627 Tb622 2.353 . S
C628 O632 1.245 . S
C628 O633 1.259 . S
C629 O634 1.250 . S
C629 O635 1.263 . S
O630 Tb622 2.427 . S
O630 C626 1.275 . S
O631 Tb622 2.513 . S
O631 C626 1.246 . S
O632 Tb622 2.453 . S
O632 C628 1.245 . S
O633 Tb620 2.343 . S
O633 Tb622 2.596 . S
O633 C628 1.259 . S
O634 Tb622 2.374 . S
O634 C629 1.250 . S
O635 Tb620 2.353 . S
O635 C629 1.263 . S
C636 O637 1.275 . S
C636 O638 1.246 . S
O637 Tb620 2.427 . S
O637 C636 1.275 . S
O638 Tb620 2.513 . S
O638 C636 1.246 . S
C639 O623 1.245 . S
C639 O624 1.259 . S
Tb640 O643 2.453 . S
Tb640 O644 2.596 . S
Tb640 O645 2.374 . S
Tb640 O653 2.343 . S
Tb640 O655 2.353 . S
Tb640 O657 2.427 . S
Tb640 O658 2.513 . S
C641 O645 1.251 . S
C641 O647 1.263 . S
Tb642 O644 2.343 . S
Tb642 O647 2.353 . S
Tb642 O650 2.427 1_565 S
Tb642 O651 2.513 . S
Tb642 O652 2.453 . S
Tb642 O653 2.596 . S
Tb642 O654 2.374 . S
O643 Tb640 2.453 . S
O643 C659 1.245 . S
O644 Tb640 2.596 . S
O644 Tb642 2.343 . S
O644 C659 1.259 . S
O645 Tb640 2.374 . S
O645 C641 1.251 . S
C646 O650 1.275 . S
C646 O651 1.246 1_545 S
O647 C641 1.263 . S
O647 Tb642 2.353 . S
C648 O652 1.245 . S
C648 O653 1.259 . S
C649 O654 1.250 . S
C649 O655 1.263 . S
O650 Tb642 2.427 1_545 S
O650 C646 1.275 . S
O651 Tb642 2.513 . S
O651 C646 1.246 1_565 S
O652 Tb642 2.453 . S
O652 C648 1.245 . S
O653 Tb640 2.343 . S
O653 Tb642 2.596 . S
O653 C648 1.259 . S
O654 Tb642 2.374 . S
O654 C649 1.250 . S
O655 Tb640 2.353 . S
O655 C649 1.263 . S
C656 O657 1.275 . S
C656 O658 1.246 . S
O657 Tb640 2.427 . S
O657 C656 1.275 . S
O658 Tb640 2.513 . S
O658 C656 1.246 . S
C659 O643 1.245 . S
C659 O644 1.259 . S
Tb660 O663 2.453 . S
Tb660 O664 2.596 . S
Tb660 O665 2.374 . S
Tb660 O673 2.343 . S
Tb660 O675 2.353 . S
Tb660 O677 2.427 . S
Tb660 O678 2.513 . S
C661 O665 1.251 . S
C661 O667 1.263 . S
Tb662 O664 2.343 . S
Tb662 O667 2.353 . S
Tb662 O670 2.427 . S
Tb662 O671 2.513 . S
Tb662 O672 2.453 . S
Tb662 O673 2.596 . S
Tb662 O674 2.374 . S
O663 Tb660 2.453 . S
O663 C679 1.245 . S
O664 Tb660 2.596 . S
O664 Tb662 2.343 . S
O664 C679 1.259 . S
O665 Tb660 2.374 . S
O665 C661 1.251 . S
C666 O670 1.275 . S
C666 O671 1.246 . S
O667 C661 1.263 . S
O667 Tb662 2.353 . S
C668 O672 1.245 . S
C668 O673 1.259 . S
C669 O674 1.250 . S
C669 O675 1.263 . S
O670 Tb662 2.427 . S
O670 C666 1.275 . S
O671 Tb662 2.513 . S
O671 C666 1.246 . S
O672 Tb662 2.453 . S
O672 C668 1.245 . S
O673 Tb660 2.343 . S
O673 Tb662 2.596 . S
O673 C668 1.259 . S
O674 Tb662 2.374 . S
O674 C669 1.250 . S
O675 Tb660 2.353 . S
O675 C669 1.263 . S
C676 O677 1.275 . S
C676 O678 1.246 . S
O677 Tb660 2.427 . S
O677 C676 1.275 . S
O678 Tb660 2.513 . S
O678 C676 1.246 . S
C679 O663 1.245 . S
C679 O664 1.259 . S
Tb680 O683 2.453 . S
Tb680 O684 2.596 . S
Tb680 O685 2.374 . S
Tb680 O693 2.343 . S
Tb680 O695 2.353 . S
Tb680 O697 2.427 . S
Tb680 O698 2.513 . S
C681 O685 1.251 . S
C681 O687 1.263 . S
Tb682 O684 2.343 . S
Tb682 O687 2.353 . S
Tb682 O690 2.427 . S
Tb682 O691 2.513 . S
Tb682 O692 2.453 . S
Tb682 O693 2.596 . S
Tb682 O694 2.374 . S
O683 Tb680 2.453 . S
O683 C699 1.245 . S
O684 Tb680 2.596 . S
O684 Tb682 2.343 . S
O684 C699 1.259 . S
O685 Tb680 2.374 . S
O685 C681 1.251 . S
C686 O690 1.275 . S
C686 O691 1.246 . S
O687 C681 1.263 . S
O687 Tb682 2.353 . S
C688 O692 1.245 . S
C688 O693 1.259 . S
C689 O694 1.250 . S
C689 O695 1.263 . S
O690 Tb682 2.427 . S
O690 C686 1.275 . S
O691 Tb682 2.513 . S
O691 C686 1.246 . S
O692 Tb682 2.453 . S
O692 C688 1.245 . S
O693 Tb680 2.343 . S
O693 Tb682 2.596 . S
O693 C688 1.259 . S
O694 Tb682 2.374 . S
O694 C689 1.250 . S
O695 Tb680 2.353 . S
O695 C689 1.263 . S
C696 O697 1.275 . S
C696 O698 1.246 . S
O697 Tb680 2.427 . S
O697 C696 1.275 . S
O698 Tb680 2.513 . S
O698 C696 1.246 . S
C699 O683 1.245 . S
C699 O684 1.259 . S
Tb700 O703 2.453 . S
Tb700 O704 2.596 . S
Tb700 O705 2.374 . S
Tb700 O713 2.343 . S
Tb700 O715 2.353 . S
Tb700 O717 2.427 . S
Tb700 O718 2.513 . S
C701 O705 1.251 . S
C701 O707 1.263 . S
Tb702 O704 2.343 . S
Tb702 O707 2.353 . S
Tb702 O710 2.427 . S
Tb702 O711 2.513 . S
Tb702 O712 2.453 . S
Tb702 O713 2.596 . S
Tb702 O714 2.374 . S
O703 Tb700 2.453 . S
O703 C719 1.245 . S
O704 Tb700 2.596 . S
O704 Tb702 2.343 . S
O704 C719 1.259 . S
O705 Tb700 2.374 . S
O705 C701 1.251 . S
C706 O710 1.275 . S
C706 O711 1.246 . S
O707 C701 1.263 . S
O707 Tb702 2.353 . S
C708 O712 1.245 . S
C708 O713 1.259 . S
C709 O714 1.250 . S
C709 O715 1.263 . S
O710 Tb702 2.427 . S
O710 C706 1.275 . S
O711 Tb702 2.513 . S
O711 C706 1.246 . S
O712 Tb702 2.453 . S
O712 C708 1.245 . S
O713 Tb700 2.343 . S
O713 Tb702 2.596 . S
O713 C708 1.259 . S
O714 Tb702 2.374 . S
O714 C709 1.250 . S
O715 Tb700 2.353 . S
O715 C709 1.263 . S
C716 O717 1.275 . S
C716 O718 1.246 . S
O717 Tb700 2.427 . S
O717 C716 1.275 . S
O718 Tb700 2.513 . S
O718 C716 1.246 . S
C719 O703 1.245 . S
C719 O704 1.259 . S
C8 C156 2.573 . S
C176 C28 2.573 . S
C136 C48 2.574 . S
C236 C68 2.573 . S
C88 C196 2.574 . S
C108 C216 2.573 . S
C26 C139 2.573 . S
C159 C46 2.573 . S
C6 C179 2.574 . S
C106 C199 2.573 . S
C219 C66 2.574 . S
C239 C86 2.573 . S
C248 C396 2.574 . S
C416 C268 2.573 . S
C376 C288 2.573 . S
C308 C476 2.573 . S
C436 C328 2.574 . S
C348 C456 2.574 . S
C379 C266 2.573 . S
C286 C399 2.574 . S
C419 C246 2.574 . S
C346 C439 2.574 . S
C306 C459 2.573 . S
C479 C326 2.573 . S
C488 C636 2.573 . S
C508 C656 2.574 . S
C616 C528 2.574 . S
C716 C548 2.574 . S
C568 C676 2.573 . S
C696 C588 2.573 . S
C506 C619 2.574 . S
C639 C526 2.573 . S
C486 C659 2.573 . S
C679 C586 2.573 . S
C699 C546 2.574 . S
C719 C566 2.574 . S
C16 C366 1.373 . S
C36 C386 1.373 . S
C406 C56 1.372 . S
C666 C76 1.373 . S
C686 C96 1.372 . S
C706 C116 1.373 . S
C126 C496 1.373 . S
C516 C146 1.373 . S
C166 C536 1.372 . S
C186 C316 1.373 . S
C206 C336 1.372 . S
C226 C356 1.373 . S
C256 C606 1.373 1_455 S
C626 C276 1.372 . S
C296 C646 1.373 1_565 S
C556 C426 1.373 1_544 S
C446 C576 1.373 1_456 S
C596 C466 1.372 1_554 S
C9 C329 2.425 . S
C29 C349 2.425 . S
C309 C49 2.425 . S
C69 C529 2.425 . S
C489 C89 2.425 . S
C109 C509 2.425 . S
C681 C121 2.425 . S
C141 C701 2.425 . S
C661 C161 2.425 . S
C181 C401 2.425 . S
C201 C361 2.425 . S
C221 C381 2.425 . S
C569 C249 2.425 1_455 S
C269 C589 2.425 . S
C289 C549 2.425 1_545 S
C641 C421 2.425 1_565 S
C601 C441 2.425 1_455 S
C621 C461 2.425 . S
C61 C1 1.602 . S
C21 C81 1.602 1_545 S
C41 C101 1.602 1_655 S
C189 C129 1.602 . S
C149 C209 1.602 1_565 S
C229 C169 1.602 1_655 S
C301 C241 1.602 . S
C261 C321 1.602 . S
C281 C341 1.601 . S
C369 C429 1.602 . S
C389 C449 1.601 . S
C409 C469 1.602 . S
C481 C541 1.602 . S
C561 C501 1.601 . S
C581 C521 1.602 . S
C609 C669 1.602 . S
C689 C629 1.602 . S
C649 C709 1.601 . S
C19 C599 1.465 . S
C559 C39 1.465 . S
C59 C579 1.465 . S
C279 C79 1.465 . S
C99 C299 1.465 . S
C119 C259 1.465 . S
C468 C128 1.465 . S
C148 C428 1.465 . S
C448 C168 1.465 . S
C188 C628 1.465 . S
C648 C208 1.465 . S
C608 C228 1.465 . S
C319 C519 1.465 1_655 S
C339 C539 1.465 . S
C359 C499 1.465 1_545 S
C368 C708 1.465 1_545 S
C388 C668 1.465 1_655 S
C688 C408 1.465 . S
