# Generated by pormake.
# Topology uks, (4)-cn, num edge types: 1
# Building blocks:
#     Node 0, Type 0, BuildingBlock: NAWXER_clean_sbu_0, # of connection points: 4
#     Node 1, Type 0, BuildingBlock: NAWXER_clean_sbu_0, # of connection points: 4
#     Node 2, Type 0, BuildingBlock: NAWXER_clean_sbu_0, # of connection points: 4
#     Node 3, Type 0, BuildingBlock: NAWXER_clean_sbu_0, # of connection points: 4
#     Node 4, Type 0, BuildingBlock: NAWXER_clean_sbu_0, # of connection points: 4
#     Node 5, Type 0, BuildingBlock: NAWXER_clean_sbu_0, # of connection points: 4
#     Node 6, Type 0, BuildingBlock: NAWXER_clean_sbu_0, # of connection points: 4
#     Node 7, Type 0, BuildingBlock: NAWXER_clean_sbu_0, # of connection points: 4
#     Node 8, Type 0, BuildingBlock: NAWXER_clean_sbu_0, # of connection points: 4
#     Node 9, Type 0, BuildingBlock: NAWXER_clean_sbu_0, # of connection points: 4
#     Node 10, Type 0, BuildingBlock: NAWXER_clean_sbu_0, # of connection points: 4
#     Node 11, Type 0, BuildingBlock: NAWXER_clean_sbu_0, # of connection points: 4
#     Node 12, Type 0, BuildingBlock: NAWXER_clean_sbu_0, # of connection points: 4
#     Node 13, Type 0, BuildingBlock: NAWXER_clean_sbu_0, # of connection points: 4
#     Node 14, Type 0, BuildingBlock: NAWXER_clean_sbu_0, # of connection points: 4
#     Node 15, Type 0, BuildingBlock: NAWXER_clean_sbu_0, # of connection points: 4
#     Node 16, Type 0, BuildingBlock: NAWXER_clean_sbu_0, # of connection points: 4
#     Node 17, Type 0, BuildingBlock: NAWXER_clean_sbu_0, # of connection points: 4
#     Node 18, Type 0, BuildingBlock: NAWXER_clean_sbu_0, # of connection points: 4
#     Node 19, Type 0, BuildingBlock: NAWXER_clean_sbu_0, # of connection points: 4
#     Node 20, Type 0, BuildingBlock: NAWXER_clean_sbu_0, # of connection points: 4
#     Node 21, Type 0, BuildingBlock: NAWXER_clean_sbu_0, # of connection points: 4
#     Node 22, Type 0, BuildingBlock: NAWXER_clean_sbu_0, # of connection points: 4
#     Node 23, Type 0, BuildingBlock: NAWXER_clean_sbu_0, # of connection points: 4
#     Edge 24, Type (0, 0), BuildingBlock: TEMPAE_clean_linker_10, # of connection points: 2
#     Edge 25, Type (0, 0), BuildingBlock: TEMPAE_clean_linker_10, # of connection points: 2
#     Edge 26, Type (0, 0), BuildingBlock: TEMPAE_clean_linker_10, # of connection points: 2
#     Edge 27, Type (0, 0), BuildingBlock: TEMPAE_clean_linker_10, # of connection points: 2
#     Edge 28, Type (0, 0), BuildingBlock: TEMPAE_clean_linker_10, # of connection points: 2
#     Edge 29, Type (0, 0), BuildingBlock: TEMPAE_clean_linker_10, # of connection points: 2
#     Edge 30, Type (0, 0), BuildingBlock: TEMPAE_clean_linker_10, # of connection points: 2
#     Edge 31, Type (0, 0), BuildingBlock: TEMPAE_clean_linker_10, # of connection points: 2
#     Edge 32, Type (0, 0), BuildingBlock: TEMPAE_clean_linker_10, # of connection points: 2
#     Edge 33, Type (0, 0), BuildingBlock: TEMPAE_clean_linker_10, # of connection points: 2
#     Edge 34, Type (0, 0), BuildingBlock: TEMPAE_clean_linker_10, # of connection points: 2
#     Edge 35, Type (0, 0), BuildingBlock: TEMPAE_clean_linker_10, # of connection points: 2
#     Edge 36, Type (0, 0), BuildingBlock: TEMPAE_clean_linker_10, # of connection points: 2
#     Edge 37, Type (0, 0), BuildingBlock: TEMPAE_clean_linker_10, # of connection points: 2
#     Edge 38, Type (0, 0), BuildingBlock: TEMPAE_clean_linker_10, # of connection points: 2
#     Edge 39, Type (0, 0), BuildingBlock: TEMPAE_clean_linker_10, # of connection points: 2
#     Edge 40, Type (0, 0), BuildingBlock: TEMPAE_clean_linker_10, # of connection points: 2
#     Edge 41, Type (0, 0), BuildingBlock: TEMPAE_clean_linker_10, # of connection points: 2
#     Edge 42, Type (0, 0), BuildingBlock: TEMPAE_clean_linker_10, # of connection points: 2
#     Edge 43, Type (0, 0), BuildingBlock: TEMPAE_clean_linker_10, # of connection points: 2
#     Edge 44, Type (0, 0), BuildingBlock: TEMPAE_clean_linker_10, # of connection points: 2
#     Edge 45, Type (0, 0), BuildingBlock: TEMPAE_clean_linker_10, # of connection points: 2
#     Edge 46, Type (0, 0), BuildingBlock: TEMPAE_clean_linker_10, # of connection points: 2
#     Edge 47, Type (0, 0), BuildingBlock: TEMPAE_clean_linker_10, # of connection points: 2
#     Edge 48, Type (0, 0), BuildingBlock: TEMPAE_clean_linker_10, # of connection points: 2
#     Edge 49, Type (0, 0), BuildingBlock: TEMPAE_clean_linker_10, # of connection points: 2
#     Edge 50, Type (0, 0), BuildingBlock: TEMPAE_clean_linker_10, # of connection points: 2
#     Edge 51, Type (0, 0), BuildingBlock: TEMPAE_clean_linker_10, # of connection points: 2
#     Edge 52, Type (0, 0), BuildingBlock: TEMPAE_clean_linker_10, # of connection points: 2
#     Edge 53, Type (0, 0), BuildingBlock: TEMPAE_clean_linker_10, # of connection points: 2
#     Edge 54, Type (0, 0), BuildingBlock: TEMPAE_clean_linker_10, # of connection points: 2
#     Edge 55, Type (0, 0), BuildingBlock: TEMPAE_clean_linker_10, # of connection points: 2
#     Edge 56, Type (0, 0), BuildingBlock: TEMPAE_clean_linker_10, # of connection points: 2
#     Edge 57, Type (0, 0), BuildingBlock: TEMPAE_clean_linker_10, # of connection points: 2
#     Edge 58, Type (0, 0), BuildingBlock: TEMPAE_clean_linker_10, # of connection points: 2
#     Edge 59, Type (0, 0), BuildingBlock: TEMPAE_clean_linker_10, # of connection points: 2
#     Edge 60, Type (0, 0), BuildingBlock: TEMPAE_clean_linker_10, # of connection points: 2
#     Edge 61, Type (0, 0), BuildingBlock: TEMPAE_clean_linker_10, # of connection points: 2
#     Edge 62, Type (0, 0), BuildingBlock: TEMPAE_clean_linker_10, # of connection points: 2
#     Edge 63, Type (0, 0), BuildingBlock: TEMPAE_clean_linker_10, # of connection points: 2
#     Edge 64, Type (0, 0), BuildingBlock: TEMPAE_clean_linker_10, # of connection points: 2
#     Edge 65, Type (0, 0), BuildingBlock: TEMPAE_clean_linker_10, # of connection points: 2
#     Edge 66, Type (0, 0), BuildingBlock: TEMPAE_clean_linker_10, # of connection points: 2
#     Edge 67, Type (0, 0), BuildingBlock: TEMPAE_clean_linker_10, # of connection points: 2
#     Edge 68, Type (0, 0), BuildingBlock: TEMPAE_clean_linker_10, # of connection points: 2
#     Edge 69, Type (0, 0), BuildingBlock: TEMPAE_clean_linker_10, # of connection points: 2
#     Edge 70, Type (0, 0), BuildingBlock: TEMPAE_clean_linker_10, # of connection points: 2
#     Edge 71, Type (0, 0), BuildingBlock: TEMPAE_clean_linker_10, # of connection points: 2
# Relax obj value: 0.065
# Max RMSD: 0.064
# Mean RMSD: 0.064
data_MOF--net-uks--node1-NAWXER_clean_sbu_0--edge1-TEMPAE_clean_linker_10
_symmetry_space_group_name_H-M    P1
_symmetry_Int_Tables_number       1
_symmetry_cell_setting            triclinic
loop_
_symmetry_equiv_pos_as_xyz
'x, y, z'
_cell_length_a     54.509159
_cell_length_b     54.643495
_cell_length_c     54.530532
_cell_angle_alpha  89.936337
_cell_angle_beta   89.933348
_cell_angle_gamma 89.733754
loop_
_atom_site_label
_atom_site_type_symbol
_atom_site_fract_x
_atom_site_fract_y
_atom_site_fract_z
_atom_type_partial_charge
C0 C 0.08731 0.39123 0.70454 0.0
C1 C 0.1746 0.3905 0.72654 0.0
O2 O 0.10164 0.38459 0.68709 0.0
Zn3 Zn 0.13985 0.37902 0.68042 0.0
O4 O 0.09627 0.39696 0.72529 0.0
Zn5 Zn 0.13061 0.39152 0.71687 0.0
O6 O 0.13828 0.41973 0.69102 0.0
O7 O 0.1469 0.40332 0.65507 0.0
O8 O 0.15693 0.3967 0.74056 0.0
O9 O 0.17011 0.3838 0.70452 0.0
O10 O 0.14197 0.34373 0.67428 0.0
O11 O 0.13137 0.35281 0.71231 0.0
C12 C 0.14439 0.42225 0.66846 0.0
C13 C 0.13589 0.33682 0.69575 0.0
C14 C 0.59718 0.65636 0.18262 0.0
C15 C 0.68022 0.63153 0.20654 0.0
O16 O 0.59744 0.64602 0.20378 0.0
Zn17 Zn 0.62463 0.62926 0.22743 0.0
O18 O 0.6171 0.65813 0.17069 0.0
Zn19 Zn 0.63885 0.64342 0.19463 0.0
O20 O 0.63028 0.60471 0.19367 0.0
O21 O 0.61519 0.59541 0.22999 0.0
O22 O 0.67356 0.64261 0.18713 0.0
O23 O 0.66405 0.62584 0.22269 0.0
O24 O 0.6223 0.6487 0.25679 0.0
O25 O 0.63794 0.66878 0.22541 0.0
C26 C 0.6217 0.58874 0.20865 0.0
C27 C 0.63128 0.66826 0.24803 0.0
C28 C 0.3628 0.11455 0.77151 0.0
C29 C 0.44834 0.10806 0.74392 0.0
O30 O 0.36668 0.12287 0.74988 0.0
Zn31 Zn 0.39611 0.12724 0.72447 0.0
O32 O 0.38048 0.10513 0.78358 0.0
Zn33 Zn 0.40586 0.11081 0.75884 0.0
O34 O 0.40716 0.15008 0.75815 0.0
O35 O 0.39646 0.16262 0.72117 0.0
O36 O 0.44011 0.10196 0.76488 0.0
O37 O 0.43384 0.1175 0.728 0.0
O38 O 0.38609 0.10689 0.6972 0.0
O39 O 0.39503 0.08571 0.73054 0.0
C40 C 0.40297 0.16757 0.743 0.0
C41 C 0.38803 0.08636 0.70809 0.0
C42 C 0.92411 0.88252 0.1903 0.0
C43 C 0.8416 0.88882 0.22759 0.0
O44 O 0.91901 0.89234 0.21087 0.0
Zn45 Zn 0.88339 0.88775 0.21035 0.0
O46 O 0.90675 0.874 0.17701 0.0
Zn47 Zn 0.86795 0.86942 0.17834 0.0
O48 O 0.8555 0.8902 0.1515 0.0
O49 O 0.87045 0.91125 0.1825 0.0
O50 O 0.84265 0.87851 0.20657 0.0
O51 O 0.86107 0.89749 0.23716 0.0
O52 O 0.8811 0.84934 0.21288 0.0
O53 O 0.86472 0.83357 0.17945 0.0
C54 C 0.85989 0.91076 0.16157 0.0
C55 C 0.87386 0.8307 0.2008 0.0
C56 C 0.12634 0.09278 0.81753 0.0
C57 C 0.13603 0.17221 0.77769 0.0
O58 O 0.12101 0.09903 0.79574 0.0
Zn59 Zn 0.13066 0.1328 0.79813 0.0
O60 O 0.1349 0.10887 0.83234 0.0
Zn61 Zn 0.14421 0.14738 0.83093 0.0
O62 O 0.12259 0.16182 0.85486 0.0
O63 O 0.10315 0.14882 0.82199 0.0
O64 O 0.14273 0.1728 0.80028 0.0
O65 O 0.12776 0.15241 0.76886 0.0
O66 O 0.17009 0.12969 0.8032 0.0
O67 O 0.1786 0.14688 0.83874 0.0
C68 C 0.1027 0.15919 0.84311 0.0
C69 C 0.18584 0.13581 0.81957 0.0
C70 C 0.93185 0.62258 0.31092 0.0
C71 C 0.85089 0.61576 0.27137 0.0
O72 O 0.92727 0.61214 0.29059 0.0
Zn73 Zn 0.89159 0.6165 0.29049 0.0
O74 O 0.91419 0.63147 0.32364 0.0
Zn75 Zn 0.87543 0.63562 0.32135 0.0
O76 O 0.86307 0.61628 0.34883 0.0
O77 O 0.878 0.59342 0.31893 0.0
O78 O 0.85099 0.62606 0.29245 0.0
O79 O 0.87069 0.60658 0.26285 0.0
O80 O 0.88855 0.65509 0.28666 0.0
O81 O 0.87137 0.67122 0.31962 0.0
C82 C 0.86747 0.5952 0.33989 0.0
C83 C 0.88047 0.67383 0.29822 0.0
C84 C 0.43522 0.40014 0.81248 0.0
C85 C 0.35122 0.39061 0.78181 0.0
O86 O 0.42069 0.39016 0.82803 0.0
Zn87 Zn 0.38316 0.37878 0.83006 0.0
O88 O 0.42724 0.40592 0.79134 0.0
Zn89 Zn 0.39357 0.39516 0.79579 0.0
O90 O 0.37911 0.41966 0.82268 0.0
O91 O 0.36976 0.39921 0.85629 0.0
O92 O 0.36913 0.39993 0.7701 0.0
O93 O 0.35458 0.38223 0.80349 0.0
O94 O 0.38513 0.34335 0.83342 0.0
O95 O 0.39709 0.35621 0.79695 0.0
C96 C 0.37032 0.41932 0.84448 0.0
C97 C 0.39319 0.33863 0.81202 0.0
C98 C 0.58253 0.88202 0.32136 0.0
C99 C 0.66883 0.88713 0.29438 0.0
O100 O 0.58973 0.88735 0.29977 0.0
Zn101 Zn 0.62503 0.88518 0.30603 0.0
O102 O 0.59839 0.87762 0.33814 0.0
Zn103 Zn 0.63715 0.87538 0.34279 0.0
O104 O 0.64328 0.90196 0.36622 0.0
O105 O 0.63169 0.91512 0.32973 0.0
O106 O 0.66571 0.88132 0.31692 0.0
O107 O 0.65014 0.89092 0.28084 0.0
O108 O 0.62867 0.84721 0.31268 0.0
O109 O 0.64204 0.84038 0.3503 0.0
C110 C 0.63863 0.91966 0.35167 0.0
C111 C 0.63502 0.83223 0.32958 0.0
C112 C 0.74394 0.12945 0.36142 0.0
C113 C 0.70494 0.13282 0.44269 0.0
O114 O 0.75429 0.12453 0.38176 0.0
Zn115 Zn 0.72563 0.13005 0.40275 0.0
O116 O 0.72112 0.13518 0.36108 0.0
Zn117 Zn 0.69116 0.14003 0.38582 0.0
O118 O 0.6834 0.17469 0.38062 0.0
O119 O 0.71912 0.16832 0.3987 0.0
O120 O 0.69044 0.13747 0.42481 0.0
O121 O 0.72735 0.12761 0.43842 0.0
O122 O 0.70281 0.10001 0.3933 0.0
O123 O 0.66859 0.11392 0.37667 0.0
C124 C 0.70285 0.18311 0.39035 0.0
C125 C 0.68178 0.09595 0.3837 0.0
C126 C 0.87264 0.19488 0.93175 0.0
C127 C 0.8895 0.21018 0.84509 0.0
O128 O 0.88275 0.21577 0.92836 0.0
Zn129 Zn 0.89608 0.23669 0.89768 0.0
O130 O 0.86831 0.18129 0.91341 0.0
Zn131 Zn 0.88056 0.20268 0.88805 0.0
O132 O 0.91969 0.20217 0.89352 0.0
O133 O 0.93099 0.23956 0.90348 0.0
O134 O 0.87896 0.19163 0.85438 0.0
O135 O 0.89618 0.22781 0.85908 0.0
O136 O 0.87614 0.26605 0.89873 0.0
O137 O 0.8553 0.23341 0.88762 0.0
C138 C 0.93665 0.21744 0.89891 0.0
C139 C 0.85605 0.2565 0.89197 0.0
C140 C 0.84322 0.3639 0.42643 0.0
C141 C 0.81571 0.38362 0.34353 0.0
O142 O 0.82194 0.37407 0.42633 0.0
Zn143 Zn 0.79728 0.38957 0.39954 0.0
O144 O 0.85479 0.36135 0.40637 0.0
Zn145 Zn 0.83008 0.37487 0.38478 0.0
O146 O 0.83104 0.41367 0.39169 0.0
O147 O 0.79516 0.42407 0.4073 0.0
O148 O 0.8358 0.37347 0.34979 0.0
O149 O 0.80035 0.39036 0.36008 0.0
O150 O 0.76828 0.36964 0.40374 0.0
O151 O 0.7998 0.3496 0.38801 0.0
C152 C 0.81644 0.43015 0.40006 0.0
C153 C 0.77736 0.34993 0.39521 0.0
C154 C 0.63494 0.30855 0.84724 0.0
C155 C 0.63933 0.34425 0.92907 0.0
O156 O 0.62919 0.29821 0.86736 0.0
Zn157 Zn 0.63668 0.32566 0.88839 0.0
O158 O 0.64326 0.33045 0.84743 0.0
Zn159 Zn 0.65092 0.35898 0.87314 0.0
O160 O 0.68658 0.36223 0.86914 0.0
O161 O 0.67566 0.32732 0.88625 0.0
O162 O 0.64667 0.35895 0.91226 0.0
O163 O 0.63143 0.3232 0.92324 0.0
O164 O 0.60971 0.35109 0.87611 0.0
O165 O 0.62773 0.38431 0.86199 0.0
C166 C 0.69249 0.34177 0.87873 0.0
C167 C 0.6082 0.37226 0.86611 0.0
C168 C 0.73235 0.38384 0.18035 0.0
C169 C 0.68971 0.38285 0.10183 0.0
O170 O 0.74074 0.39021 0.15955 0.0
Zn171 Zn 0.71097 0.38478 0.14118 0.0
O172 O 0.70988 0.37715 0.18226 0.0
Zn173 Zn 0.67849 0.3724 0.15878 0.0
O174 O 0.67236 0.33761 0.16308 0.0
O175 O 0.70692 0.3457 0.14359 0.0
O176 O 0.6758 0.37636 0.11965 0.0
O177 O 0.71154 0.38961 0.10618 0.0
O178 O 0.68749 0.41342 0.15452 0.0
O179 O 0.65487 0.39626 0.17102 0.0
C180 C 0.69166 0.33011 0.15224 0.0
C181 C 0.66675 0.41545 0.16546 0.0
C182 C 0.62999 0.21749 0.68756 0.0
C183 C 0.63824 0.17375 0.60974 0.0
O184 O 0.62043 0.22425 0.66732 0.0
Zn185 Zn 0.63144 0.19584 0.6486 0.0
O186 O 0.64161 0.19712 0.68887 0.0
Zn187 Zn 0.65219 0.16698 0.66643 0.0
O188 O 0.68789 0.17017 0.66927 0.0
O189 O 0.67 0.20096 0.6499 0.0
O190 O 0.64808 0.16246 0.62786 0.0
O191 O 0.62607 0.1933 0.61355 0.0
O192 O 0.60987 0.16831 0.66515 0.0
O193 O 0.63376 0.14008 0.68158 0.0
C194 C 0.68945 0.19059 0.65803 0.0
C195 C 0.61234 0.14852 0.67749 0.0
C196 C 0.76023 0.15956 0.14079 0.0
C197 C 0.79536 0.07795 0.12893 0.0
O198 O 0.78333 0.15869 0.14528 0.0
Zn199 Zn 0.81257 0.13191 0.14477 0.0
O200 O 0.74928 0.14033 0.13372 0.0
Zn201 Zn 0.77756 0.11876 0.1347 0.0
O202 O 0.78556 0.1174 0.17348 0.0
O203 O 0.82281 0.13201 0.17879 0.0
O204 O 0.77313 0.08458 0.12651 0.0
O205 O 0.81146 0.09365 0.13555 0.0
O206 O 0.83478 0.14471 0.12035 0.0
O207 O 0.79946 0.13277 0.1048 0.0
C208 C 0.80329 0.1231 0.18782 0.0
C209 C 0.82086 0.14206 0.10187 0.0
C210 C 0.90198 0.26059 0.67112 0.0
C211 C 0.89825 0.30114 0.59093 0.0
O212 O 0.91199 0.25251 0.65159 0.0
Zn213 Zn 0.90245 0.28048 0.6311 0.0
O214 O 0.89158 0.28165 0.67112 0.0
Zn215 Zn 0.88295 0.31103 0.64679 0.0
O216 O 0.84741 0.30999 0.64974 0.0
O217 O 0.86347 0.2768 0.63296 0.0
O218 O 0.88859 0.31378 0.60823 0.0
O219 O 0.9084 0.28072 0.59586 0.0
O220 O 0.92517 0.3086 0.64593 0.0
O221 O 0.90151 0.33805 0.66051 0.0
C222 C 0.84469 0.28868 0.6407 0.0
C223 C 0.92284 0.32929 0.6568 0.0
C224 C 0.34795 0.74606 0.10628 0.0
C225 C 0.43211 0.7165 0.123 0.0
O226 O 0.36718 0.75896 0.1032 0.0
Zn227 Zn 0.39064 0.73368 0.11451 0.0
O228 O 0.34973 0.72461 0.1155 0.0
Zn229 Zn 0.37614 0.6992 0.12854 0.0
O230 O 0.36745 0.69804 0.16366 0.0
O231 O 0.38284 0.73356 0.15233 0.0
O232 O 0.41506 0.70141 0.12856 0.0
O233 O 0.42645 0.73742 0.11429 0.0
O234 O 0.38382 0.70624 0.08775 0.0
O235 O 0.36986 0.67257 0.10526 0.0
C236 C 0.37409 0.71971 0.16906 0.0
C237 C 0.37558 0.6844 0.08592 0.0
C238 C 0.34727 0.85837 0.40521 0.0
C239 C 0.35811 0.81027 0.32957 0.0
O240 O 0.34079 0.86529 0.38386 0.0
Zn241 Zn 0.35447 0.83708 0.36582 0.0
O242 O 0.36028 0.83896 0.40759 0.0
Zn243 Zn 0.37486 0.80998 0.38615 0.0
O244 O 0.41026 0.81325 0.3876 0.0
O245 O 0.39332 0.84263 0.36557 0.0
O246 O 0.36867 0.80129 0.34855 0.0
O247 O 0.34751 0.83107 0.33109 0.0
O248 O 0.33359 0.808 0.38177 0.0
O249 O 0.35821 0.78295 0.40234 0.0
C250 C 0.41256 0.83219 0.37425 0.0
C251 C 0.33679 0.78902 0.3952 0.0
C252 C 0.1887 0.83453 0.87892 0.0
C253 C 0.16175 0.9197 0.86683 0.0
O254 O 0.2056 0.8503 0.88277 0.0
Zn255 Zn 0.21015 0.88919 0.882 0.0
O256 O 0.16731 0.84179 0.87298 0.0
Zn257 Zn 0.17378 0.87692 0.87365 0.0
O258 O 0.19769 0.88086 0.8427 0.0
O259 O 0.23377 0.89379 0.85547 0.0
O260 O 0.1482 0.90082 0.86554 0.0
O261 O 0.18433 0.91728 0.87293 0.0
O262 O 0.21867 0.89667 0.91588 0.0
O263 O 0.18037 0.88454 0.91169 0.0
C264 C 0.2197 0.88752 0.83796 0.0
C265 C 0.19792 0.89195 0.92543 0.0
C266 C 0.17206 0.72057 0.39876 0.0
C267 C 0.09731 0.67907 0.37094 0.0
O268 O 0.1503 0.72754 0.4039 0.0
Zn269 Zn 0.13425 0.70153 0.38508 0.0
O270 O 0.17561 0.70255 0.3842 0.0
Zn271 Zn 0.15565 0.67589 0.36387 0.0
O272 O 0.16431 0.68513 0.33014 0.0
O273 O 0.14234 0.71336 0.34893 0.0
O274 O 0.11701 0.66929 0.36252 0.0
O275 O 0.09878 0.69779 0.38468 0.0
O276 O 0.14825 0.6706 0.40493 0.0
O277 O 0.16941 0.64682 0.37988 0.0
C278 C 0.15393 0.70605 0.32985 0.0
C279 C 0.16201 0.65181 0.40151 0.0
C280 C 0.32195 0.6424 0.91446 0.0
C281 C 0.30506 0.63074 0.82708 0.0
O282 O 0.33547 0.64802 0.89632 0.0
Zn283 Zn 0.31325 0.63794 0.87067 0.0
O284 O 0.30058 0.63343 0.9106 0.0
Zn285 Zn 0.27849 0.62306 0.87953 0.0
O286 O 0.27455 0.58813 0.88499 0.0
O287 O 0.31261 0.59909 0.87674 0.0
O288 O 0.28722 0.6239 0.84084 0.0
O289 O 0.32391 0.64025 0.83683 0.0
O290 O 0.28386 0.66437 0.87246 0.0
O291 O 0.25015 0.64458 0.88248 0.0
C292 C 0.29701 0.58242 0.8821 0.0
C293 C 0.26079 0.66454 0.87719 0.0
C294 C 0.09341 0.8304 0.13429 0.0
C295 C 0.17231 0.79043 0.11518 0.0
O296 O 0.09659 0.81037 0.12281 0.0
Zn297 Zn 0.13234 0.80898 0.12357 0.0
O298 O 0.11215 0.84245 0.14161 0.0
Zn299 Zn 0.15127 0.839 0.14141 0.0
O300 O 0.16266 0.86639 0.12061 0.0
O301 O 0.1444 0.83705 0.09981 0.0
O302 O 0.17398 0.81059 0.12692 0.0
O303 O 0.15136 0.78199 0.10928 0.0
O304 O 0.13962 0.80359 0.16126 0.0
O305 O 0.15934 0.83528 0.17648 0.0
C306 C 0.15614 0.85726 0.10013 0.0
C307 C 0.1499 0.81416 0.17943 0.0
C308 C 0.26771 0.61997 0.64678 0.0
C309 C 0.24072 0.61462 0.5608 0.0
O310 O 0.24567 0.62721 0.64291 0.0
Zn311 Zn 0.22017 0.63104 0.61351 0.0
O312 O 0.28046 0.61174 0.62899 0.0
Zn313 Zn 0.25562 0.61681 0.60338 0.0
O314 O 0.25256 0.65588 0.60289 0.0
O315 O 0.21496 0.6663 0.61393 0.0
O316 O 0.26205 0.60944 0.56878 0.0
O317 O 0.22426 0.62263 0.57555 0.0
O318 O 0.19417 0.60866 0.62286 0.0
O319 O 0.22884 0.5899 0.61331 0.0
C320 C 0.23649 0.67247 0.60741 0.0
C321 C 0.20638 0.58892 0.62026 0.0
C322 C 0.29859 0.84599 0.6163 0.0
C323 C 0.32997 0.92837 0.63325 0.0
O324 O 0.28271 0.86306 0.61316 0.0
Zn325 Zn 0.28023 0.90202 0.61581 0.0
O326 O 0.32032 0.85141 0.62279 0.0
Zn327 Zn 0.31578 0.8868 0.62409 0.0
O328 O 0.29141 0.8899 0.65456 0.0
O329 O 0.25636 0.90623 0.64242 0.0
O330 O 0.34227 0.90852 0.6339 0.0
O331 O 0.30741 0.92789 0.62668 0.0
O332 O 0.27286 0.91116 0.58188 0.0
O333 O 0.31038 0.89655 0.58655 0.0
C334 C 0.26969 0.89745 0.65951 0.0
C335 C 0.29359 0.90547 0.5727 0.0
C336 C 0.12436 0.19631 0.74019 0.0
C337 C 0.13742 0.19462 0.76232 0.0
C338 C 0.12423 0.21806 0.72636 0.0
C339 C 0.13775 0.23851 0.73465 0.0
C340 C 0.15177 0.23655 0.75644 0.0
C341 C 0.15128 0.21473 0.77009 0.0
C342 C 0.10879 0.21948 0.70343 0.0
C343 C 0.1667 0.25779 0.76579 0.0
C344 C 0.15114 0.29339 0.69342 0.0
C345 C 0.1344 0.31065 0.70258 0.0
C346 C 0.15203 0.26947 0.70311 0.0
C347 C 0.13549 0.26267 0.72201 0.0
C348 C 0.11764 0.2797 0.7302 0.0
C349 C 0.1175 0.30349 0.72058 0.0
C350 C 0.17149 0.25193 0.69407 0.0
C351 C 0.09931 0.27314 0.74992 0.0
H352 H 0.11358 0.18087 0.73405 0.0
H353 H 0.16162 0.21352 0.78701 0.0
H354 H 0.09339 0.23252 0.70636 0.0
H355 H 0.11981 0.22651 0.68786 0.0
H356 H 0.10106 0.20142 0.69829 0.0
H357 H 0.17833 0.25262 0.78171 0.0
H358 H 0.17868 0.26498 0.75101 0.0
H359 H 0.15425 0.27287 0.77148 0.0
H360 H 0.16435 0.29895 0.67965 0.0
H361 H 0.10439 0.31676 0.72757 0.0
H362 H 0.16324 0.23403 0.68934 0.0
H363 H 0.18504 0.24858 0.70888 0.0
H364 H 0.18135 0.25911 0.67775 0.0
H365 H 0.08986 0.25584 0.74522 0.0
H366 H 0.08527 0.28769 0.75262 0.0
H367 H 0.10901 0.27016 0.76756 0.0
C368 C 0.71288 0.60976 0.23033 0.0
C369 C 0.70643 0.62555 0.21105 0.0
C370 C 0.73751 0.60559 0.23652 0.0
C371 C 0.75627 0.61764 0.22326 0.0
C372 C 0.74997 0.63246 0.20285 0.0
C373 C 0.72511 0.63619 0.19693 0.0
C374 C 0.74336 0.58951 0.25831 0.0
C375 C 0.76938 0.64566 0.18825 0.0
C376 C 0.8104 0.63477 0.26285 0.0
C377 C 0.82776 0.6166 0.2571 0.0
C378 C 0.78758 0.63575 0.25123 0.0
C379 C 0.78166 0.61799 0.23338 0.0
C380 C 0.79936 0.60002 0.22677 0.0
C381 C 0.82236 0.59961 0.23866 0.0
C382 C 0.76948 0.65544 0.25872 0.0
C383 C 0.79368 0.5808 0.20781 0.0
H384 H 0.6986 0.60111 0.2411 0.0
H385 H 0.72031 0.64826 0.18188 0.0
H386 H 0.75839 0.57652 0.25379 0.0
H387 H 0.74973 0.60105 0.27375 0.0
H388 H 0.72716 0.57893 0.26456 0.0
H389 H 0.76201 0.65317 0.1708 0.0
H390 H 0.77668 0.66106 0.19927 0.0
H391 H 0.78498 0.63324 0.18404 0.0
H392 H 0.81458 0.6483 0.27675 0.0
H393 H 0.83573 0.58559 0.23408 0.0
H394 H 0.75321 0.64693 0.26744 0.0
H395 H 0.76297 0.66564 0.24235 0.0
H396 H 0.7775 0.66871 0.27184 0.0
H397 H 0.77939 0.5683 0.21502 0.0
H398 H 0.81012 0.56977 0.20287 0.0
H399 H 0.7862 0.58944 0.19096 0.0
C400 C 0.41359 0.30825 0.78451 0.0
C401 C 0.39697 0.31313 0.80358 0.0
C402 C 0.41603 0.28465 0.77462 0.0
C403 C 0.40106 0.26553 0.78361 0.0
C404 C 0.38447 0.27026 0.80311 0.0
C405 C 0.38283 0.29396 0.81307 0.0
C406 C 0.43439 0.28027 0.75432 0.0
C407 C 0.3679 0.25046 0.81294 0.0
C408 C 0.38908 0.21132 0.74144 0.0
C409 C 0.40405 0.19317 0.75185 0.0
C410 C 0.3879 0.23495 0.75161 0.0
C411 C 0.40248 0.2407 0.77232 0.0
C412 C 0.41829 0.22265 0.78232 0.0
C413 C 0.41865 0.19905 0.77216 0.0
C414 C 0.37052 0.25355 0.74063 0.0
C415 C 0.43461 0.2282 0.80395 0.0
H416 H 0.42466 0.32299 0.77719 0.0
H417 H 0.3698 0.29771 0.82763 0.0
H418 H 0.44682 0.26491 0.75927 0.0
H419 H 0.42468 0.27498 0.73728 0.0
H420 H 0.44565 0.29671 0.75041 0.0
H421 H 0.35616 0.25704 0.82825 0.0
H422 H 0.3559 0.24364 0.79803 0.0
H423 H 0.379 0.23472 0.8195 0.0
H424 H 0.37755 0.20679 0.72592 0.0
H425 H 0.43032 0.18509 0.78023 0.0
H426 H 0.38077 0.27004 0.73478 0.0
H427 H 0.35698 0.25948 0.75466 0.0
H428 H 0.36044 0.24621 0.72457 0.0
H429 H 0.44616 0.24438 0.79992 0.0
H430 H 0.44678 0.21255 0.80874 0.0
H431 H 0.42321 0.23277 0.82019 0.0
C432 C 0.71391 0.8806 0.29934 0.0
C433 C 0.69434 0.88935 0.28498 0.0
C434 C 0.73828 0.88225 0.2913 0.0
C435 C 0.74343 0.89313 0.26834 0.0
C436 C 0.72387 0.90255 0.25394 0.0
C437 C 0.69951 0.9004 0.26235 0.0
C438 C 0.75845 0.87156 0.30705 0.0
C439 C 0.72867 0.91446 0.22942 0.0
C440 C 0.81019 0.90959 0.25457 0.0
C441 C 0.81742 0.88973 0.23997 0.0
C442 C 0.786 0.91122 0.26372 0.0
C443 C 0.76898 0.89235 0.25847 0.0
C444 C 0.77655 0.872 0.24432 0.0
C445 C 0.80053 0.87105 0.23515 0.0
C446 C 0.77852 0.93329 0.27859 0.0
C447 C 0.75928 0.85117 0.23874 0.0
H448 H 0.71019 0.872 0.31687 0.0
H449 H 0.68457 0.90741 0.25125 0.0
H450 H 0.76718 0.85592 0.2974 0.0
H451 H 0.77293 0.88538 0.31029 0.0
H452 H 0.75156 0.86504 0.32508 0.0
H453 H 0.71182 0.92275 0.22146 0.0
H454 H 0.7428 0.92888 0.23132 0.0
H455 H 0.73594 0.90064 0.21638 0.0
H456 H 0.82311 0.92418 0.25809 0.0
H457 H 0.80609 0.85556 0.224 0.0
H458 H 0.77196 0.92748 0.29695 0.0
H459 H 0.76304 0.94288 0.26944 0.0
H460 H 0.79384 0.94641 0.281 0.0
H461 H 0.75245 0.843 0.25608 0.0
H462 H 0.76816 0.83653 0.2277 0.0
H463 H 0.74309 0.85812 0.22853 0.0
C464 C 0.78173 0.10554 0.22424 0.0
C465 C 0.8 0.12087 0.21475 0.0
C466 C 0.77609 0.10545 0.24937 0.0
C467 C 0.78869 0.12141 0.26541 0.0
C468 C 0.80801 0.13604 0.25614 0.0
C469 C 0.81357 0.13545 0.23093 0.0
C470 C 0.75565 0.08923 0.25849 0.0
C471 C 0.82173 0.15349 0.27253 0.0
C472 C 0.74926 0.14344 0.31835 0.0
C473 C 0.75753 0.12885 0.33786 0.0
C474 C 0.76004 0.14192 0.29506 0.0
C475 C 0.77938 0.12504 0.29092 0.0
C476 C 0.78839 0.11075 0.31072 0.0
C477 C 0.77747 0.11299 0.33409 0.0
C478 C 0.75012 0.15786 0.27466 0.0
C479 C 0.80879 0.09238 0.30699 0.0
H480 H 0.77136 0.09401 0.21189 0.0
H481 H 0.82768 0.14739 0.22373 0.0
H482 H 0.76146 0.0792 0.27522 0.0
H483 H 0.73954 0.10067 0.26349 0.0
H484 H 0.74983 0.07573 0.24445 0.0
H485 H 0.83824 0.16111 0.26338 0.0
H486 H 0.80944 0.1689 0.27769 0.0
H487 H 0.82745 0.14425 0.28973 0.0
H488 H 0.73404 0.15597 0.32122 0.0
H489 H 0.78386 0.10161 0.34909 0.0
H490 H 0.7413 0.14625 0.26054 0.0
H491 H 0.76528 0.16789 0.26559 0.0
H492 H 0.73638 0.17138 0.28135 0.0
H493 H 0.80221 0.07732 0.29509 0.0
H494 H 0.81527 0.0844 0.32458 0.0
H495 H 0.82455 0.10101 0.2975 0.0
C496 C 0.88039 0.24986 0.70945 0.0
C497 C 0.90048 0.24594 0.69384 0.0
C498 C 0.87945 0.23935 0.73278 0.0
C499 C 0.89918 0.22452 0.74086 0.0
C500 C 0.91874 0.21899 0.72455 0.0
C501 C 0.91915 0.22979 0.70105 0.0
C502 C 0.85811 0.24563 0.74939 0.0
C503 C 0.9399 0.20295 0.73241 0.0
C504 C 0.90758 0.23176 0.80911 0.0
C505 C 0.89425 0.21188 0.81837 0.0
C506 C 0.91084 0.23504 0.78386 0.0
C507 C 0.90054 0.21801 0.76732 0.0
C508 C 0.88835 0.19707 0.77651 0.0
C509 C 0.88528 0.19427 0.80199 0.0
C510 C 0.92396 0.25766 0.77488 0.0
C511 C 0.8774 0.17836 0.75945 0.0
H512 H 0.8656 0.26191 0.70369 0.0
H513 H 0.9346 0.2266 0.68892 0.0
H514 H 0.85035 0.22881 0.75766 0.0
H515 H 0.86456 0.25742 0.76462 0.0
H516 H 0.84322 0.25548 0.73952 0.0
H517 H 0.95105 0.19673 0.71651 0.0
H518 H 0.95196 0.21337 0.74497 0.0
H519 H 0.93322 0.18669 0.74258 0.0
H520 H 0.91496 0.24528 0.82159 0.0
H521 H 0.87523 0.17868 0.80899 0.0
H522 H 0.91059 0.27017 0.76594 0.0
H523 H 0.93801 0.25272 0.761 0.0
H524 H 0.93306 0.26772 0.79002 0.0
H525 H 0.86043 0.18595 0.75112 0.0
H526 H 0.87263 0.16117 0.76921 0.0
H527 H 0.89027 0.174 0.74429 0.0
C528 C 0.79136 0.40399 0.31069 0.0
C529 C 0.80892 0.38642 0.31744 0.0
C530 C 0.78192 0.40483 0.28681 0.0
C531 C 0.78992 0.38739 0.26934 0.0
C532 C 0.80863 0.37043 0.27566 0.0
C533 C 0.81807 0.37027 0.29965 0.0
C534 C 0.76234 0.42351 0.28072 0.0
C535 C 0.8175 0.35141 0.25762 0.0
C536 C 0.74102 0.37045 0.22317 0.0
C537 C 0.74814 0.38384 0.20242 0.0
C538 C 0.75502 0.37076 0.24469 0.0
C539 C 0.77654 0.38512 0.24568 0.0
C540 C 0.78416 0.39832 0.22465 0.0
C541 C 0.76993 0.39738 0.20316 0.0
C542 C 0.74641 0.35614 0.26658 0.0
C543 C 0.80685 0.41403 0.22512 0.0
H544 H 0.78445 0.41671 0.32432 0.0
H545 H 0.83161 0.35662 0.30482 0.0
H546 H 0.7666 0.4328 0.26314 0.0
H547 H 0.74445 0.41417 0.27847 0.0
H548 H 0.76035 0.43759 0.29528 0.0
H549 H 0.83418 0.3417 0.26423 0.0
H550 H 0.80283 0.33772 0.25464 0.0
H551 H 0.82157 0.35993 0.23961 0.0
H552 H 0.72436 0.35969 0.22264 0.0
H553 H 0.77552 0.40778 0.18718 0.0
H554 H 0.7414 0.36872 0.28176 0.0
H555 H 0.7614 0.3441 0.27332 0.0
H556 H 0.73024 0.34463 0.26227 0.0
H557 H 0.80411 0.4294 0.23813 0.0
H558 H 0.81128 0.42171 0.20678 0.0
H559 H 0.82283 0.40325 0.23174 0.0
C560 C 0.64703 0.22967 0.72773 0.0
C561 C 0.62882 0.23276 0.70983 0.0
C562 C 0.64625 0.24264 0.74977 0.0
C563 C 0.62657 0.25897 0.75423 0.0
C564 C 0.60813 0.26237 0.73622 0.0
C565 C 0.60958 0.24931 0.71401 0.0
C566 C 0.66656 0.23884 0.76826 0.0
C567 C 0.5868 0.27954 0.74054 0.0
C568 C 0.61879 0.274 0.8217 0.0
C569 C 0.63163 0.2961 0.82341 0.0
C570 C 0.61577 0.26232 0.79898 0.0
C571 C 0.62608 0.27288 0.7776 0.0
C572 C 0.63852 0.29546 0.77915 0.0
C573 C 0.64107 0.30681 0.80199 0.0
C574 C 0.60224 0.2383 0.79794 0.0
C575 C 0.65008 0.30713 0.75685 0.0
H576 H 0.66212 0.21708 0.72447 0.0
H577 H 0.59541 0.25158 0.70025 0.0
H578 H 0.67574 0.2565 0.77213 0.0
H579 H 0.65883 0.23207 0.78582 0.0
H580 H 0.68064 0.22555 0.76182 0.0
H581 H 0.5739 0.28 0.72479 0.0
H582 H 0.57661 0.27384 0.7572 0.0
H583 H 0.5936 0.29835 0.74386 0.0
H584 H 0.61119 0.26578 0.83812 0.0
H585 H 0.65095 0.32395 0.80308 0.0
H586 H 0.6153 0.22332 0.79346 0.0
H587 H 0.58821 0.23878 0.78322 0.0
H588 H 0.59309 0.23386 0.8156 0.0
H589 H 0.66545 0.29549 0.75022 0.0
H590 H 0.65732 0.32569 0.76078 0.0
H591 H 0.63656 0.30855 0.74173 0.0
C592 C 0.30663 0.7372 0.09 0.0
C593 C 0.32314 0.7545 0.09929 0.0
C594 C 0.28149 0.74232 0.08827 0.0
C595 C 0.27254 0.76528 0.09625 0.0
C596 C 0.28937 0.78354 0.10385 0.0
C597 C 0.31461 0.77794 0.10521 0.0
C598 C 0.26437 0.72242 0.07976 0.0
C599 C 0.28054 0.80835 0.11228 0.0
C600 C 0.20583 0.78354 0.08525 0.0
C601 C 0.19539 0.77843 0.10815 0.0
C602 C 0.23084 0.77886 0.08076 0.0
C603 C 0.24562 0.76892 0.09972 0.0
C604 C 0.23474 0.76271 0.12252 0.0
C605 C 0.20979 0.76777 0.12651 0.0
C606 C 0.2417 0.7858 0.05627 0.0
C607 C 0.2497 0.75181 0.14315 0.0
H608 H 0.31328 0.71909 0.08515 0.0
H609 H 0.32733 0.79128 0.11249 0.0
H610 H 0.25408 0.71512 0.09572 0.0
H611 H 0.25073 0.72981 0.06657 0.0
H612 H 0.2744 0.70702 0.07093 0.0
H613 H 0.2959 0.82145 0.11452 0.0
H614 H 0.26715 0.81609 0.09904 0.0
H615 H 0.271 0.80646 0.13016 0.0
H616 H 0.1948 0.79261 0.07138 0.0
H617 H 0.2018 0.76456 0.14444 0.0
H618 H 0.25253 0.77036 0.04862 0.0
H619 H 0.25442 0.8014 0.05869 0.0
H620 H 0.22738 0.79118 0.04278 0.0
H621 H 0.25932 0.73505 0.13679 0.0
H622 H 0.23824 0.74705 0.15931 0.0
H623 H 0.26392 0.76503 0.14903 0.0
C624 C 0.30599 0.77538 0.42597 0.0
C625 C 0.31498 0.77493 0.40191 0.0
C626 C 0.28217 0.76701 0.43126 0.0
C627 C 0.26734 0.75795 0.412 0.0
C628 C 0.27696 0.75655 0.38787 0.0
C629 C 0.30056 0.76533 0.38311 0.0
C630 C 0.27249 0.76906 0.45711 0.0
C631 C 0.262 0.7466 0.36682 0.0
C632 C 0.21301 0.7162 0.41727 0.0
C633 C 0.19397 0.73177 0.40965 0.0
C634 C 0.23679 0.72503 0.42079 0.0
C635 C 0.24162 0.75005 0.41641 0.0
C636 C 0.22186 0.76633 0.41141 0.0
C637 C 0.1981 0.75695 0.40805 0.0
C638 C 0.25714 0.70704 0.42644 0.0
C639 C 0.22623 0.79324 0.40713 0.0
H640 H 0.317 0.78355 0.44031 0.0
H641 H 0.30751 0.76549 0.36446 0.0
H642 H 0.25854 0.78389 0.45793 0.0
H643 H 0.26334 0.75187 0.46279 0.0
H644 H 0.28726 0.7733 0.47045 0.0
H645 H 0.27262 0.74583 0.34943 0.0
H646 H 0.25547 0.7279 0.37121 0.0
H647 H 0.24558 0.7583 0.36386 0.0
H648 H 0.20965 0.69669 0.41878 0.0
H649 H 0.18335 0.76895 0.40212 0.0
H650 H 0.27 0.71467 0.44016 0.0
H651 H 0.26776 0.70333 0.40946 0.0
H652 H 0.2499 0.68938 0.43345 0.0
H653 H 0.23924 0.8006 0.42087 0.0
H654 H 0.20889 0.80398 0.40796 0.0
H655 H 0.23453 0.79586 0.38873 0.0
C656 C 0.21345 0.80036 0.89666 0.0
C657 C 0.19493 0.80813 0.88057 0.0
C658 C 0.22171 0.77599 0.89683 0.0
C659 C 0.21171 0.75902 0.88001 0.0
C660 C 0.19248 0.76658 0.86418 0.0
C661 C 0.18409 0.79101 0.86487 0.0
C662 C 0.2418 0.76865 0.91445 0.0
C663 C 0.18164 0.74923 0.84566 0.0
C664 C 0.25576 0.70768 0.86267 0.0
C665 C 0.24702 0.68805 0.87672 0.0
C666 C 0.24378 0.7305 0.86279 0.0
C667 C 0.22284 0.73405 0.87781 0.0
C668 C 0.21368 0.71419 0.89177 0.0
C669 C 0.22571 0.69133 0.89083 0.0
C670 C 0.25391 0.75098 0.84721 0.0
C671 C 0.19175 0.71733 0.9084 0.0
H672 H 0.22175 0.8135 0.90898 0.0
H673 H 0.16991 0.797 0.85226 0.0
H674 H 0.23662 0.75177 0.92449 0.0
H675 H 0.25887 0.76455 0.9041 0.0
H676 H 0.24581 0.78325 0.92801 0.0
H677 H 0.16555 0.75729 0.83606 0.0
H678 H 0.19577 0.74442 0.83178 0.0
H679 H 0.17595 0.73197 0.85468 0.0
H680 H 0.27207 0.70522 0.85153 0.0
H681 H 0.21894 0.67626 0.90182 0.0
H682 H 0.26103 0.76572 0.85919 0.0
H683 H 0.23915 0.75908 0.83575 0.0
H684 H 0.269 0.74469 0.83501 0.0
H685 H 0.19622 0.73051 0.92318 0.0
H686 H 0.18603 0.69979 0.91696 0.0
H687 H 0.17601 0.72504 0.89804 0.0
C688 C 0.23329 0.71579 0.6222 0.0
C689 C 0.24399 0.69847 0.60651 0.0
C690 C 0.24244 0.7398 0.62348 0.0
C691 C 0.26235 0.74676 0.60827 0.0
C692 C 0.2726 0.72954 0.59176 0.0
C693 C 0.2635 0.70555 0.59131 0.0
C694 C 0.23126 0.75751 0.64159 0.0
C695 C 0.29336 0.73637 0.57476 0.0
C696 C 0.27124 0.81487 0.59731 0.0
C697 C 0.29083 0.82025 0.61306 0.0
C698 C 0.26216 0.79097 0.5952 0.0
C699 C 0.27251 0.77204 0.60964 0.0
C700 C 0.29247 0.7773 0.62542 0.0
C701 C 0.3016 0.80132 0.62672 0.0
C702 C 0.24133 0.78605 0.57767 0.0
C703 C 0.30375 0.75769 0.64139 0.0
H704 H 0.21842 0.71032 0.63419 0.0
H705 H 0.27177 0.69223 0.57907 0.0
H706 H 0.24548 0.76373 0.65469 0.0
H707 H 0.22429 0.77398 0.63188 0.0
H708 H 0.21591 0.74926 0.65212 0.0
H709 H 0.29847 0.72119 0.56218 0.0
H710 H 0.28815 0.75258 0.56361 0.0
H711 H 0.30976 0.74145 0.58562 0.0
H712 H 0.26295 0.82943 0.58659 0.0
H713 H 0.31657 0.80546 0.63909 0.0
H714 H 0.225 0.77971 0.58799 0.0
H715 H 0.24654 0.77125 0.56474 0.0
H716 H 0.23612 0.80255 0.56691 0.0
H717 H 0.28958 0.74997 0.65378 0.0
H718 H 0.3191 0.76474 0.65271 0.0
H719 H 0.31074 0.74245 0.62987 0.0
C720 C 0.85996 0.78719 0.20687 0.0
C721 C 0.87553 0.80655 0.21303 0.0
C722 C 0.85993 0.76547 0.22083 0.0
C723 C 0.87595 0.76315 0.24121 0.0
C724 C 0.89208 0.78244 0.24705 0.0
C725 C 0.89167 0.80381 0.23293 0.0
C726 C 0.84254 0.74517 0.21406 0.0
C727 C 0.9097 0.78061 0.26837 0.0
C728 C 0.8642 0.71653 0.29189 0.0
C729 C 0.88026 0.6976 0.28514 0.0
C730 C 0.86221 0.73786 0.27749 0.0
C731 C 0.87673 0.74027 0.25602 0.0
C732 C 0.89322 0.72136 0.24943 0.0
C733 C 0.89477 0.70033 0.26403 0.0
C734 C 0.84448 0.75774 0.28512 0.0
C735 C 0.9093 0.72333 0.22691 0.0
H736 H 0.84732 0.7893 0.19167 0.0
H737 H 0.90392 0.81863 0.23772 0.0
H738 H 0.85301 0.72814 0.21018 0.0
H739 H 0.83013 0.74124 0.2297 0.0
H740 H 0.83124 0.74981 0.19774 0.0
H741 H 0.92097 0.79736 0.27051 0.0
H742 H 0.8994 0.77751 0.28564 0.0
H743 H 0.92219 0.76474 0.2658 0.0
H744 H 0.85275 0.71442 0.30801 0.0
H745 H 0.90731 0.68581 0.25869 0.0
H746 H 0.83127 0.76144 0.27009 0.0
H747 H 0.85458 0.77498 0.28858 0.0
H748 H 0.83406 0.75283 0.30193 0.0
H749 H 0.89781 0.7263 0.21039 0.0
H750 H 0.92076 0.70672 0.22402 0.0
H751 H 0.9216 0.73936 0.22861 0.0
C752 C 0.21835 0.37819 0.72134 0.0
C753 C 0.20047 0.39094 0.73487 0.0
C754 C 0.24313 0.37862 0.72811 0.0
C755 C 0.25037 0.39236 0.7488 0.0
C756 C 0.23248 0.40544 0.76249 0.0
C757 C 0.20766 0.40442 0.75547 0.0
C758 C 0.26151 0.36404 0.71329 0.0
C759 C 0.23959 0.42045 0.78457 0.0
C760 C 0.30911 0.37335 0.78091 0.0
C761 C 0.32607 0.39025 0.77165 0.0
C762 C 0.2845 0.37383 0.77356 0.0
C763 C 0.27649 0.3919 0.75675 0.0
C764 C 0.29355 0.4089 0.74709 0.0
C765 C 0.31826 0.40774 0.75451 0.0
C766 C 0.26705 0.35504 0.78388 0.0
C767 C 0.28561 0.42853 0.72926 0.0
H768 H 0.21296 0.3676 0.70545 0.0
H769 H 0.19397 0.41445 0.76587 0.0
H770 H 0.27618 0.37622 0.70633 0.0
H771 H 0.27041 0.35006 0.72511 0.0
H772 H 0.25293 0.35463 0.69743 0.0
H773 H 0.2237 0.43043 0.79258 0.0
H774 H 0.24759 0.40838 0.79887 0.0
H775 H 0.25387 0.43391 0.7794 0.0
H776 H 0.31508 0.35971 0.7941 0.0
H777 H 0.33125 0.42101 0.74754 0.0
H778 H 0.25859 0.34448 0.76875 0.0
H779 H 0.25196 0.3643 0.79396 0.0
H780 H 0.2763 0.34201 0.79655 0.0
H781 H 0.27766 0.42006 0.71261 0.0
H782 H 0.30104 0.44051 0.72365 0.0
H783 H 0.27105 0.44004 0.73768 0.0
C784 C 0.65203 0.78934 0.33129 0.0
C785 C 0.63365 0.80579 0.324 0.0
C786 C 0.65269 0.7653 0.32185 0.0
C787 C 0.63437 0.75766 0.30507 0.0
C788 C 0.61496 0.77383 0.29901 0.0
C789 C 0.61495 0.79767 0.3084 0.0
C790 C 0.67371 0.74862 0.32871 0.0
C791 C 0.59482 0.76644 0.28153 0.0
C792 C 0.64637 0.71098 0.25486 0.0
C793 C 0.63378 0.69041 0.26363 0.0
C794 C 0.64785 0.73252 0.26881 0.0
C795 C 0.63627 0.73369 0.29206 0.0
C796 C 0.62427 0.71272 0.30141 0.0
C797 C 0.62322 0.69132 0.28713 0.0
C798 C 0.66098 0.75439 0.25818 0.0
C799 C 0.61158 0.71323 0.32602 0.0
H800 H 0.6666 0.79564 0.3432 0.0
H801 H 0.60057 0.81032 0.3029 0.0
H802 H 0.66684 0.73025 0.3339 0.0
H803 H 0.68597 0.74618 0.31263 0.0
H804 H 0.68469 0.75606 0.34413 0.0
H805 H 0.57995 0.78038 0.28044 0.0
H806 H 0.60259 0.76383 0.2629 0.0
H807 H 0.58669 0.74877 0.28729 0.0
H808 H 0.65482 0.71041 0.23686 0.0
H809 H 0.61354 0.67551 0.29414 0.0
H810 H 0.67424 0.76179 0.27165 0.0
H811 H 0.64749 0.76911 0.25411 0.0
H812 H 0.67098 0.74984 0.24101 0.0
H813 H 0.62398 0.72072 0.34025 0.0
H814 H 0.60542 0.69477 0.33187 0.0
H815 H 0.59531 0.72548 0.32506 0.0
C816 C 0.32948 0.10146 0.80075 0.0
C817 C 0.33779 0.11687 0.78195 0.0
C818 C 0.30509 0.10303 0.80926 0.0
C819 C 0.28892 0.12068 0.79898 0.0
C820 C 0.29757 0.13675 0.78059 0.0
C821 C 0.32176 0.13454 0.77222 0.0
C822 C 0.29644 0.08544 0.82875 0.0
C823 C 0.28112 0.15609 0.76938 0.0
C824 C 0.21971 0.11382 0.79758 0.0
C825 C 0.21226 0.13029 0.81587 0.0
C826 C 0.24467 0.10942 0.79289 0.0
C827 C 0.26268 0.12206 0.80657 0.0
C828 C 0.25529 0.13808 0.82563 0.0
C829 C 0.23017 0.14189 0.83015 0.0
C830 C 0.25176 0.09198 0.77259 0.0
C831 C 0.27389 0.15213 0.84044 0.0
H832 H 0.34178 0.08776 0.80829 0.0
H833 H 0.32814 0.14675 0.7579 0.0
H834 H 0.28833 0.09563 0.84438 0.0
H835 H 0.28182 0.07359 0.82115 0.0
H836 H 0.31152 0.0736 0.8357 0.0
H837 H 0.29105 0.16794 0.75614 0.0
H838 H 0.26565 0.14725 0.75966 0.0
H839 H 0.27315 0.16784 0.78395 0.0
H840 H 0.20599 0.10454 0.78666 0.0
H841 H 0.22458 0.15461 0.84436 0.0
H842 H 0.26581 0.07876 0.77915 0.0
H843 H 0.25996 0.10237 0.75716 0.0
H844 H 0.23577 0.08161 0.76553 0.0
H845 H 0.28831 0.13962 0.84755 0.0
H846 H 0.26535 0.16193 0.85614 0.0
H847 H 0.28308 0.16575 0.82849 0.0
C848 C 0.2427 0.91153 0.69433 0.0
C849 C 0.26099 0.89586 0.68525 0.0
C850 C 0.23599 0.91099 0.71929 0.0
C851 C 0.24753 0.89406 0.73537 0.0
C852 C 0.26562 0.87788 0.72611 0.0
C853 C 0.27224 0.87911 0.70129 0.0
C854 C 0.21681 0.92871 0.72855 0.0
C855 C 0.278 0.85918 0.74242 0.0
C856 C 0.24718 0.90375 0.80466 0.0
C857 C 0.22776 0.88866 0.81198 0.0
C858 C 0.2535 0.90611 0.77972 0.0
C859 C 0.24039 0.89272 0.76177 0.0
C860 C 0.22104 0.87719 0.76916 0.0
C861 C 0.21486 0.8755 0.79409 0.0
C862 C 0.2741 0.92305 0.77254 0.0
C863 C 0.20694 0.86218 0.75073 0.0
H864 H 0.23411 0.92464 0.68208 0.0
H865 H 0.28628 0.8668 0.69438 0.0
H866 H 0.20109 0.91854 0.73642 0.0
H867 H 0.22459 0.94008 0.74347 0.0
H868 H 0.20988 0.94101 0.71385 0.0
H869 H 0.29145 0.84768 0.73227 0.0
H870 H 0.2877 0.86852 0.75761 0.0
H871 H 0.26405 0.84704 0.75082 0.0
H872 H 0.25705 0.91416 0.81835 0.0
H873 H 0.19988 0.86372 0.79959 0.0
H874 H 0.26737 0.93678 0.7591 0.0
H875 H 0.28899 0.9125 0.76348 0.0
H876 H 0.28191 0.93282 0.78857 0.0
H877 H 0.19832 0.87436 0.73689 0.0
H878 H 0.19237 0.851 0.75947 0.0
H879 H 0.21966 0.84975 0.74079 0.0
C880 C 0.16951 0.71679 0.28757 0.0
C881 C 0.15528 0.72262 0.30822 0.0
C882 C 0.17056 0.73275 0.26727 0.0
C883 C 0.15697 0.75495 0.26759 0.0
C884 C 0.14296 0.76108 0.28855 0.0
C885 C 0.14232 0.74492 0.30854 0.0
C886 C 0.18577 0.7256 0.24525 0.0
C887 C 0.12798 0.78439 0.28961 0.0
C888 C 0.16927 0.80546 0.22059 0.0
C889 C 0.15118 0.80062 0.20301 0.0
C890 C 0.17164 0.79061 0.24165 0.0
C891 C 0.1554 0.77069 0.24524 0.0
C892 C 0.13683 0.76614 0.22776 0.0
C893 C 0.13501 0.78106 0.20694 0.0
C894 C 0.19169 0.79599 0.25989 0.0
C895 C 0.11886 0.74539 0.23098 0.0
H896 H 0.17973 0.69974 0.28721 0.0
H897 H 0.1313 0.74974 0.32438 0.0
H898 H 0.17358 0.72235 0.22931 0.0
H899 H 0.19834 0.7407 0.24017 0.0
H900 H 0.1968 0.70878 0.24859 0.0
H901 H 0.11934 0.78726 0.30786 0.0
H902 H 0.13967 0.8004 0.28535 0.0
H903 H 0.11327 0.78379 0.27558 0.0
H904 H 0.18195 0.82038 0.21757 0.0
H905 H 0.12086 0.77724 0.19354 0.0
H906 H 0.20398 0.77984 0.26168 0.0
H907 H 0.18361 0.79949 0.27824 0.0
H908 H 0.20285 0.81207 0.25446 0.0
H909 H 0.12888 0.72772 0.23219 0.0
H910 H 0.10551 0.74429 0.21564 0.0
H911 H 0.10852 0.74774 0.24836 0.0
C912 C 0.31913 0.64019 0.78414 0.0
C913 C 0.30337 0.62756 0.80007 0.0
C914 C 0.31649 0.63839 0.75852 0.0
C915 C 0.29785 0.62336 0.74859 0.0
C916 C 0.28264 0.60975 0.76461 0.0
C917 C 0.28546 0.61215 0.79008 0.0
C918 C 0.33291 0.65339 0.74212 0.0
C919 C 0.26271 0.59331 0.75485 0.0
C920 C 0.26742 0.63922 0.68809 0.0
C921 C 0.27765 0.6219 0.67203 0.0
C922 C 0.27466 0.6405 0.7127 0.0
C923 C 0.29238 0.62379 0.72176 0.0
C924 C 0.3034 0.60671 0.70549 0.0
C925 C 0.29603 0.60609 0.68069 0.0
C926 C 0.2627 0.65928 0.72921 0.0
C927 C 0.3222 0.58846 0.71449 0.0
H928 H 0.33305 0.65211 0.79169 0.0
H929 H 0.2734 0.60207 0.80222 0.0
H930 H 0.341 0.64178 0.7275 0.0
H931 H 0.32191 0.66788 0.73296 0.0
H932 H 0.348 0.66224 0.75247 0.0
H933 H 0.25408 0.58217 0.76954 0.0
H934 H 0.24824 0.60458 0.74598 0.0
H935 H 0.27026 0.5808 0.74069 0.0
H936 H 0.25344 0.65174 0.68145 0.0
H937 H 0.30395 0.59265 0.66837 0.0
H938 H 0.27687 0.67004 0.73895 0.0
H939 H 0.25147 0.64991 0.74333 0.0
H940 H 0.25065 0.67213 0.71892 0.0
H941 H 0.337 0.59793 0.72464 0.0
H942 H 0.33052 0.57781 0.69924 0.0
H943 H 0.31339 0.57552 0.72745 0.0
C944 C 0.37237 0.77417 0.30526 0.0
C945 C 0.35845 0.79587 0.30645 0.0
C946 C 0.37355 0.76017 0.28376 0.0
C947 C 0.36038 0.76787 0.26279 0.0
C948 C 0.34576 0.78939 0.26395 0.0
C949 C 0.34505 0.80321 0.28575 0.0
C950 C 0.3896 0.73756 0.28328 0.0
C951 C 0.33136 0.79812 0.24198 0.0
C952 C 0.38641 0.74974 0.20086 0.0
C953 C 0.37141 0.73008 0.19404 0.0
C954 C 0.38299 0.76202 0.22313 0.0
C955 C 0.36391 0.75469 0.23908 0.0
C956 C 0.3489 0.73456 0.23258 0.0
C957 C 0.35293 0.72234 0.21014 0.0
C958 C 0.39976 0.78304 0.22948 0.0
C959 C 0.32831 0.72629 0.24909 0.0
H960 H 0.38279 0.76821 0.32112 0.0
H961 H 0.33409 0.8198 0.28653 0.0
H962 H 0.379 0.72158 0.27672 0.0
H963 H 0.405 0.74031 0.27024 0.0
H964 H 0.39737 0.73314 0.30159 0.0
H965 H 0.31929 0.81395 0.24642 0.0
H966 H 0.34416 0.80364 0.22717 0.0
H967 H 0.31989 0.78306 0.2347 0.0
H968 H 0.40084 0.75574 0.18857 0.0
H969 H 0.34114 0.70733 0.20485 0.0
H970 H 0.40917 0.77933 0.24714 0.0
H971 H 0.38886 0.80007 0.23183 0.0
H972 H 0.4139 0.78627 0.21517 0.0
H973 H 0.33561 0.72141 0.26744 0.0
H974 H 0.31842 0.71025 0.24153 0.0
H975 H 0.315 0.74149 0.25172 0.0
C976 C 0.73636 0.34036 0.8642 0.0
C977 C 0.7184 0.33386 0.8814 0.0
C978 C 0.76008 0.32999 0.86525 0.0
C979 C 0.766 0.31315 0.8842 0.0
C980 C 0.74824 0.30764 0.90232 0.0
C981 C 0.72467 0.31786 0.90055 0.0
C982 C 0.77841 0.33613 0.84545 0.0
C983 C 0.75381 0.29018 0.92311 0.0
C984 C 0.81354 0.26273 0.87568 0.0
C985 C 0.8336 0.27175 0.88892 0.0
C986 C 0.79188 0.27652 0.8731 0.0
C987 C 0.79 0.29981 0.88435 0.0
C988 C 0.81035 0.30925 0.89736 0.0
C989 C 0.83197 0.29519 0.89933 0.0
C990 C 0.77076 0.26585 0.85882 0.0
C991 C 0.80898 0.33382 0.90993 0.0
H992 H 0.73154 0.35261 0.8493 0.0
H993 H 0.71092 0.31297 0.91407 0.0
H994 H 0.79613 0.34168 0.85368 0.0
H995 H 0.78202 0.31964 0.83413 0.0
H996 H 0.77178 0.35105 0.83326 0.0
H997 H 0.73876 0.28952 0.93684 0.0
H998 H 0.75671 0.27148 0.91573 0.0
H999 H 0.77097 0.29561 0.93254 0.0
H1000 H 0.81471 0.24476 0.86734 0.0
H1001 H 0.84738 0.30232 0.90959 0.0
H1002 H 0.76423 0.27912 0.84483 0.0
H1003 H 0.75518 0.26217 0.87138 0.0
H1004 H 0.77584 0.2485 0.84947 0.0
H1005 H 0.80281 0.34812 0.89684 0.0
H1006 H 0.8269 0.33935 0.9178 0.0
H1007 H 0.79524 0.3331 0.92494 0.0
C1008 C 0.81772 0.25443 0.62774 0.0
C1009 C 0.82081 0.27592 0.64146 0.0
C1010 C 0.79674 0.23996 0.63044 0.0
C1011 C 0.77836 0.24708 0.64733 0.0
C1012 C 0.78107 0.26904 0.66087 0.0
C1013 C 0.80226 0.28328 0.6577 0.0
C1014 C 0.79439 0.21689 0.61538 0.0
C1015 C 0.76176 0.27723 0.67899 0.0
C1016 C 0.71434 0.22253 0.63734 0.0
C1017 C 0.71304 0.2035 0.65463 0.0
C1018 C 0.73545 0.23677 0.63483 0.0
C1019 C 0.75589 0.23198 0.65003 0.0
C1020 C 0.75496 0.21254 0.66727 0.0
C1021 C 0.73351 0.19841 0.66932 0.0
C1022 C 0.73578 0.2571 0.61602 0.0
C1023 C 0.77649 0.20692 0.68374 0.0
H1024 H 0.83196 0.24863 0.6151 0.0
H1025 H 0.80467 0.29971 0.66855 0.0
H1026 H 0.79269 0.2008 0.62768 0.0
H1027 H 0.77749 0.21774 0.60408 0.0
H1028 H 0.81035 0.21395 0.60303 0.0
H1029 H 0.76665 0.29469 0.68815 0.0
H1030 H 0.7439 0.27969 0.66954 0.0
H1031 H 0.75917 0.26295 0.69323 0.0
H1032 H 0.69867 0.22649 0.62574 0.0
H1033 H 0.73255 0.18385 0.6828 0.0
H1034 H 0.75106 0.25415 0.60287 0.0
H1035 H 0.73901 0.27491 0.62518 0.0
H1036 H 0.71835 0.25835 0.60554 0.0
H1037 H 0.79296 0.20269 0.67251 0.0
H1038 H 0.77288 0.19121 0.69617 0.0
H1039 H 0.7809 0.2232 0.69503 0.0
C1040 C 0.71327 0.29581 0.13118 0.0
C1041 C 0.69725 0.30368 0.14974 0.0
C1042 C 0.72081 0.27131 0.12955 0.0
C1043 C 0.71245 0.25422 0.14717 0.0
C1044 C 0.69559 0.26183 0.16548 0.0
C1045 C 0.688 0.28649 0.16643 0.0
C1046 C 0.73848 0.26393 0.10948 0.0
C1047 C 0.68647 0.24422 0.18474 0.0
C1048 C 0.72408 0.18703 0.13235 0.0
C1049 C 0.74678 0.18302 0.1438 0.0
C1050 C 0.7122 0.20991 0.13388 0.0
C1051 C 0.72313 0.22905 0.14748 0.0
C1052 C 0.74554 0.22473 0.15989 0.0
C1053 C 0.75715 0.20188 0.15775 0.0
C1054 C 0.68848 0.21388 0.12016 0.0
C1055 C 0.75768 0.24451 0.17485 0.0
H1056 H 0.72025 0.30896 0.11803 0.0
H1057 H 0.67567 0.29249 0.18084 0.0
H1058 H 0.75646 0.25893 0.11765 0.0
H1059 H 0.73158 0.2476 0.09965 0.0
H1060 H 0.74144 0.27885 0.09595 0.0
H1061 H 0.67176 0.25236 0.19629 0.0
H1062 H 0.67939 0.22733 0.17604 0.0
H1063 H 0.70193 0.23873 0.1968 0.0
H1064 H 0.71597 0.17254 0.12153 0.0
H1065 H 0.77454 0.19884 0.16692 0.0
H1066 H 0.69145 0.22725 0.10512 0.0
H1067 H 0.67432 0.22174 0.13251 0.0
H1068 H 0.68134 0.19666 0.11212 0.0
H1069 H 0.76366 0.25958 0.1626 0.0
H1070 H 0.77395 0.23761 0.18503 0.0
H1071 H 0.74446 0.25239 0.1882 0.0
C1072 C 0.73936 0.3256 0.40463 0.0
C1073 C 0.76241 0.32737 0.39325 0.0
C1074 C 0.72586 0.30372 0.40375 0.0
C1075 C 0.73558 0.28321 0.39109 0.0
C1076 C 0.75835 0.28527 0.37875 0.0
C1077 C 0.77148 0.30723 0.38006 0.0
C1078 C 0.70169 0.30222 0.41718 0.0
C1079 C 0.76935 0.26393 0.36492 0.0
C1080 C 0.72305 0.21812 0.41092 0.0
C1081 C 0.70762 0.20969 0.39221 0.0
C1082 C 0.731 0.24244 0.41155 0.0
C1083 C 0.72358 0.2588 0.39283 0.0
C1084 C 0.7069 0.2508 0.37459 0.0
C1085 C 0.69897 0.22628 0.37457 0.0
C1086 C 0.7485 0.25019 0.43153 0.0
C1087 C 0.69859 0.2677 0.35432 0.0
H1088 H 0.73214 0.3411 0.41475 0.0
H1089 H 0.78911 0.30848 0.37093 0.0
H1090 H 0.68737 0.29436 0.40513 0.0
H1091 H 0.70363 0.28986 0.43322 0.0
H1092 H 0.69535 0.32041 0.42378 0.0
H1093 H 0.78612 0.26913 0.35459 0.0
H1094 H 0.77425 0.24912 0.37799 0.0
H1095 H 0.7558 0.25635 0.35184 0.0
H1096 H 0.72952 0.20544 0.42482 0.0
H1097 H 0.68707 0.21982 0.36007 0.0
H1098 H 0.74213 0.26745 0.44016 0.0
H1099 H 0.76686 0.2537 0.42348 0.0
H1100 H 0.7505 0.23603 0.44604 0.0
H1101 H 0.69279 0.28566 0.36189 0.0
H1102 H 0.68317 0.25987 0.34363 0.0
H1103 H 0.71413 0.27111 0.34163 0.0
C1104 C 0.16976 0.56158 0.62583 0.0
C1105 C 0.19528 0.56471 0.62537 0.0
C1106 C 0.15944 0.53848 0.6306 0.0
C1107 C 0.17502 0.51822 0.63552 0.0
C1108 C 0.20078 0.52132 0.63492 0.0
C1109 C 0.21056 0.54442 0.62964 0.0
C1110 C 0.1319 0.5358 0.63069 0.0
C1111 C 0.21807 0.50038 0.6406 0.0
C1112 C 0.15293 0.46639 0.67603 0.0
C1113 C 0.15015 0.44715 0.65921 0.0
C1114 C 0.16029 0.48972 0.66842 0.0
C1115 C 0.16464 0.49422 0.64325 0.0
C1116 C 0.16092 0.47521 0.62598 0.0
C1117 C 0.15394 0.45178 0.63419 0.0
C1118 C 0.16446 0.50928 0.68753 0.0
C1119 C 0.16494 0.47945 0.59893 0.0
H1120 H 0.15786 0.57714 0.62231 0.0
H1121 H 0.2303 0.54668 0.62942 0.0
H1122 H 0.1264 0.52047 0.61858 0.0
H1123 H 0.12548 0.53131 0.64947 0.0
H1124 H 0.12241 0.55275 0.62451 0.0
H1125 H 0.23764 0.50564 0.63865 0.0
H1126 H 0.21499 0.49393 0.65966 0.0
H1127 H 0.21441 0.48472 0.62823 0.0
H1128 H 0.15014 0.46306 0.69543 0.0
H1129 H 0.1517 0.43708 0.62106 0.0
H1130 H 0.15377 0.52598 0.68297 0.0
H1131 H 0.18413 0.51445 0.68773 0.0
H1132 H 0.15921 0.50316 0.70624 0.0
H1133 H 0.1549 0.49608 0.59285 0.0
H1134 H 0.15885 0.46366 0.58768 0.0
H1135 H 0.18472 0.48259 0.59535 0.0
C1136 C 0.46425 0.68436 0.12875 0.0
C1137 C 0.45796 0.70929 0.1279 0.0
C1138 C 0.48773 0.6766 0.136 0.0
C1139 C 0.50539 0.69414 0.14306 0.0
C1140 C 0.49943 0.71941 0.14156 0.0
C1141 C 0.47583 0.72671 0.13376 0.0
C1142 C 0.49336 0.64952 0.13682 0.0
C1143 C 0.51761 0.73868 0.14919 0.0
C1144 C 0.55363 0.67051 0.18784 0.0
C1145 C 0.57394 0.66656 0.17248 0.0
C1146 C 0.53155 0.68023 0.17863 0.0
C1147 C 0.52947 0.68579 0.15332 0.0
C1148 C 0.54995 0.68198 0.13773 0.0
C1149 C 0.57197 0.67262 0.14752 0.0
C1150 C 0.5103 0.68427 0.19598 0.0
C1151 C 0.54841 0.68725 0.11059 0.0
H1152 H 0.45059 0.67079 0.12406 0.0
H1153 H 0.47104 0.74598 0.13332 0.0
H1154 H 0.51055 0.64552 0.12664 0.0
H1155 H 0.49624 0.64368 0.1561 0.0
H1156 H 0.47835 0.63836 0.12888 0.0
H1157 H 0.51081 0.75751 0.14546 0.0
H1158 H 0.52139 0.73694 0.16911 0.0
H1159 H 0.53529 0.73599 0.13944 0.0
H1160 H 0.55502 0.66613 0.20718 0.0
H1161 H 0.58754 0.66962 0.13549 0.0
H1162 H 0.49486 0.67214 0.19088 0.0
H1163 H 0.50359 0.70341 0.19455 0.0
H1164 H 0.51534 0.68052 0.21536 0.0
H1165 H 0.53441 0.67528 0.10209 0.0
H1166 H 0.5662 0.68421 0.1011 0.0
H1167 H 0.54248 0.70645 0.10748 0.0
C1168 C 0.32489 0.97162 0.64694 0.0
C1169 C 0.34061 0.95191 0.64154 0.0
C1170 C 0.33394 0.99364 0.65637 0.0
C1171 C 0.35946 0.99631 0.66014 0.0
C1172 C 0.37558 0.97682 0.65397 0.0
C1173 C 0.36594 0.95472 0.64495 0.0
C1174 C 0.31604 0.01374 0.66311 0.0
C1175 C 0.40294 0.97917 0.65734 0.0
C1176 C 0.38044 0.06198 0.66979 0.0
C1177 C 0.38185 0.06319 0.69544 0.0
C1178 C 0.37423 0.04001 0.65792 0.0
C1179 C 0.36883 0.01894 0.67207 0.0
C1180 C 0.37052 0.02003 0.69795 0.0
C1181 C 0.37721 0.04204 0.70927 0.0
C1182 C 0.37301 0.03945 0.63028 0.0
C1183 C 0.36444 0.99816 0.71377 0.0
H1184 H 0.30527 0.96963 0.64451 0.0
H1185 H 0.3782 0.93964 0.6407 0.0
H1186 H 0.317 0.01734 0.68311 0.0
H1187 H 0.32094 0.03097 0.65357 0.0
H1188 H 0.29682 0.00903 0.65836 0.0
H1189 H 0.41313 0.96324 0.64973 0.0
H1190 H 0.40962 0.99609 0.64831 0.0
H1191 H 0.40728 0.98072 0.67715 0.0
H1192 H 0.38423 0.07819 0.65898 0.0
H1193 H 0.37819 0.04281 0.72911 0.0
H1194 H 0.35378 0.03664 0.62433 0.0
H1195 H 0.38399 0.02388 0.62309 0.0
H1196 H 0.37985 0.05666 0.62188 0.0
H1197 H 0.34492 0.99311 0.71114 0.0
H1198 H 0.36753 1.00175 0.73357 0.0
H1199 H 0.37573 0.98216 0.70825 0.0
C1200 C 0.0489 0.82296 0.14356 0.0
C1201 C 0.06841 0.83936 0.14067 0.0
C1202 C 0.02576 0.83105 0.15185 0.0
C1203 C 0.02181 0.85625 0.15678 0.0
C1204 C 0.04127 0.87297 0.15319 0.0
C1205 C 0.06437 0.86429 0.14551 0.0
C1206 C 1.00567 0.81253 0.15584 0.0
C1207 C 0.03772 0.90004 0.15753 0.0
C1208 C 0.95511 0.87743 0.15688 0.0
C1209 C 0.94983 0.87885 0.18204 0.0
C1210 C 0.97864 0.87098 0.14845 0.0
C1211 C 0.99728 0.86509 0.16556 0.0
C1212 C 0.99221 0.86697 0.19102 0.0
C1213 C 0.96862 0.87413 0.19896 0.0
C1214 C 0.98337 0.86991 0.12118 0.0
C1215 C 0.01139 0.86043 0.20989 0.0
H1216 H 0.05194 0.80365 0.14013 0.0
H1217 H 0.07934 0.87709 0.14324 0.0
H1218 H 0.99935 0.81321 0.17518 0.0
H1219 H 0.98966 0.81701 0.14411 0.0
H1220 H 0.01179 0.79357 0.15162 0.0
H1221 H 0.05438 0.91075 0.15296 0.0
H1222 H 0.02221 0.90697 0.1463 0.0
H1223 H 0.03296 0.90336 0.17703 0.0
H1224 H 0.94067 0.88112 0.14371 0.0
H1225 H 0.96456 0.87487 0.21841 0.0
H1226 H 0.98713 0.85075 0.11559 0.0
H1227 H 0.99984 0.88082 0.11645 0.0
H1228 H 0.96757 0.8769 0.11035 0.0
H1229 H 0.01671 0.8409 0.20783 0.0
H1230 H 1.00478 0.86341 0.22894 0.0
H1231 H 0.02815 0.87147 0.20697 0.0
C1232 C 0.16967 0.96275 0.85436 0.0
C1233 C 0.15262 0.9444 0.85999 0.0
C1234 C 0.16211 0.98629 0.8475 0.0
C1235 C 0.13677 0.99194 0.84654 0.0
C1236 C 0.11935 0.9736 0.85229 0.0
C1237 C 0.12749 0.94991 0.85875 0.0
C1238 C 0.18136 1.00512 0.84119 0.0
C1239 C 0.09221 0.97907 0.85178 0.0
C1240 C 0.12644 0.06047 0.85014 0.0
C1241 C 0.12476 0.06679 0.82526 0.0
C1242 C 0.12833 0.03589 0.85752 0.0
C1243 C 0.12901 0.0172 0.83955 0.0
C1244 C 0.12589 0.02338 0.81451 0.0
C1245 C 0.12362 0.0481 0.80768 0.0
C1246 C 0.13118 0.03008 0.88444 0.0
C1247 C 0.12681 1.00409 0.79473 0.0
H1248 H 0.18914 0.95865 0.85499 0.0
H1249 H 0.11422 0.93584 0.8631 0.0
H1250 H 0.17826 0.01221 0.82236 0.0
H1251 H 0.17996 0.02087 0.85393 0.0
H1252 H 0.20029 0.99757 0.84223 0.0
H1253 H 0.08102 0.96287 0.85678 0.0
H1254 H 0.08791 0.99414 0.86474 0.0
H1255 H 0.08671 0.98537 0.83324 0.0
H1256 H 0.12704 0.07479 0.86387 0.0
H1257 H 0.1223 0.0528 0.78841 0.0
H1258 H 0.15046 0.02468 0.8882 0.0
H1259 H 0.11936 0.01445 0.88968 0.0
H1260 H 0.12649 0.04601 0.89622 0.0
H1261 H 0.14587 0.99706 0.79297 0.0
H1262 H 0.12093 0.01138 0.77663 0.0
H1263 H 0.11498 0.98836 0.79961 0.0
C1264 C 0.96233 0.62693 0.34471 0.0
C1265 C 0.95733 0.62647 0.31949 0.0
C1266 C 0.98552 0.63372 0.35356 0.0
C1267 C 1.00398 0.64104 0.33683 0.0
C1268 C 0.99919 0.64012 0.31128 0.0
C1269 C 0.97601 0.63249 0.3029 0.0
C1270 C 0.99002 0.63368 0.38088 0.0
C1271 C 0.01813 0.6483 0.29284 0.0
C1272 C 0.05266 0.68461 0.36127 0.0
C1273 C 0.07313 0.66915 0.36351 0.0
C1274 C 0.03018 0.67577 0.35232 0.0
C1275 C 0.02787 0.65067 0.34615 0.0
C1276 C 0.04832 0.63485 0.34905 0.0
C1277 C 0.07078 0.64435 0.35731 0.0
C1278 C 1.00903 0.6934 0.34901 0.0
C1279 C 0.04646 0.60787 0.34347 0.0
H1280 H 0.94792 0.62225 0.35759 0.0
H1281 H 0.97209 0.6325 0.28341 0.0
H1282 H 1.00716 0.6235 0.38517 0.0
H1283 H 0.99244 0.65272 0.38744 0.0
H1284 H 0.97464 0.62528 0.39124 0.0
H1285 H 0.01188 0.64574 0.27363 0.0
H1286 H 0.02227 0.66796 0.2957 0.0
H1287 H 0.0355 0.63799 0.29547 0.0
H1288 H 0.05445 0.70384 0.36576 0.0
H1289 H 0.08653 0.63229 0.3591 0.0
H1290 H 0.9933 0.68771 0.36056 0.0
H1291 H 1.00276 0.69313 0.32965 0.0
H1292 H 0.01401 0.71247 0.35392 0.0
H1293 H 0.03136 0.59964 0.35434 0.0
H1294 H 0.06374 0.59785 0.34761 0.0
H1295 H 0.04196 0.60517 0.32383 0.0
C1296 C 0.28996 0.53727 0.87803 0.0
C1297 C 0.30556 0.55673 0.88381 0.0
C1298 C 0.29925 0.51332 0.8756 0.0
C1299 C 0.32461 0.50882 0.87941 0.0
C1300 C 0.33991 0.52811 0.88731 0.0
C1301 C 0.33025 0.55185 0.88919 0.0
C1302 C 0.28235 0.49331 0.867 0.0
C1303 C 0.36694 0.5241 0.89195 0.0
C1304 C 0.35037 0.44367 0.87852 0.0
C1305 C 0.35914 0.4421 0.85436 0.0
C1306 C 0.33892 0.46523 0.88709 0.0
C1307 C 0.33596 0.48543 0.87102 0.0
C1308 C 0.34467 0.4838 0.84663 0.0
C1309 C 0.35623 0.46232 0.8387 0.0
C1310 C 0.3301 0.46645 0.9133 0.0
C1311 C 0.34182 0.50482 0.82877 0.0
H1312 H 0.27084 0.54096 0.87391 0.0
H1313 H 0.34231 0.56679 0.89408 0.0
H1314 H 0.28631 0.48912 0.84748 0.0
H1315 H 0.28543 0.47627 0.87765 0.0
H1316 H 0.26273 0.49869 0.8686 0.0
H1317 H 0.37533 0.53977 0.90177 0.0
H1318 H 0.37 0.50721 0.90286 0.0
H1319 H 0.3766 0.52174 0.87418 0.0
H1320 H 0.35246 0.42812 0.89071 0.0
H1321 H 0.36272 0.46133 0.81993 0.0
H1322 H 0.31015 0.47051 0.91377 0.0
H1323 H 0.33947 0.48158 0.92302 0.0
H1324 H 0.33355 0.44912 0.92341 0.0
H1325 H 0.32221 0.51009 0.82719 0.0
H1326 H 0.34883 0.50026 0.81019 0.0
H1327 H 0.3519 0.52103 0.8356 0.0
C1328 C 0.45788 0.82609 0.36869 0.0
C1329 C 0.43719 0.84137 0.36718 0.0
C1330 C 0.48093 0.83395 0.36022 0.0
C1331 C 0.48349 0.85785 0.35044 0.0
C1332 C 0.46276 0.87353 0.34932 0.0
C1333 C 0.43985 0.86503 0.35747 0.0
C1334 C 0.5025 0.81656 0.36151 0.0
C1335 C 0.46481 0.8993 0.33955 0.0
C1336 C 0.54837 0.88292 0.3517 0.0
C1337 C 0.55622 0.87912 0.32749 0.0
C1338 C 0.52445 0.87705 0.35912 0.0
C1339 C 0.50804 0.86659 0.34204 0.0
C1340 C 0.51558 0.86343 0.31733 0.0
C1341 C 0.53955 0.86997 0.31027 0.0
C1342 C 0.51705 0.88127 0.38549 0.0
C1343 C 0.49874 0.85206 0.29863 0.0
H1344 H 0.45595 0.80771 0.37592 0.0
H1345 H 0.42397 0.87698 0.35628 0.0
H1346 H 0.51051 0.81404 0.34296 0.0
H1347 H 0.51704 0.82436 0.37333 0.0
H1348 H 0.49732 0.79835 0.36891 0.0
H1349 H 0.44702 0.90929 0.34017 0.0
H1350 H 0.47848 0.90966 0.3504 0.0
H1351 H 0.47141 0.89895 0.3203 0.0
H1352 H 0.56117 0.89011 0.36506 0.0
H1353 H 0.54562 0.86675 0.29161 0.0
H1354 H 0.51402 0.86343 0.39471 0.0
H1355 H 0.49951 0.89162 0.38635 0.0
H1356 H 0.53119 0.89149 0.39589 0.0
H1357 H 0.4948 0.83286 0.30394 0.0
H1358 H 0.50682 0.85211 0.27991 0.0
H1359 H 0.48096 0.86199 0.29813 0.0
C1360 C 0.64455 0.18235 0.5651 0.0
C1361 C 0.64417 0.16555 0.58453 0.0
C1362 C 0.65423 0.17578 0.54211 0.0
C1363 C 0.6633 0.15171 0.53838 0.0
C1364 C 0.66185 0.13436 0.5576 0.0
C1365 C 0.65251 0.14155 0.5805 0.0
C1366 C 0.65561 0.19486 0.52211 0.0
C1367 C 0.67077 0.10838 0.55418 0.0
C1368 C 0.67003 0.1316 0.47211 0.0
C1369 C 0.69522 0.13489 0.46795 0.0
C1370 C 0.65956 0.13623 0.49515 0.0
C1371 C 0.67455 0.14482 0.51443 0.0
C1372 C 0.70014 0.14755 0.51055 0.0
C1373 C 0.71023 0.14231 0.48737 0.0
C1374 C 0.63234 0.13254 0.49865 0.0
C1375 C 0.71667 0.15691 0.53061 0.0
H1376 H 0.63841 0.20099 0.56817 0.0
H1377 H 0.65222 0.12846 0.59546 0.0
H1378 H 0.67506 0.19795 0.51698 0.0
H1379 H 0.64598 0.18835 0.50546 0.0
H1380 H 0.64739 0.21261 0.52779 0.0
H1381 H 0.66691 0.09673 0.57043 0.0
H1382 H 0.66191 0.10008 0.53789 0.0
H1383 H 0.69084 0.10829 0.5508 0.0
H1384 H 0.65837 0.1257 0.45717 0.0
H1385 H 0.72965 0.14507 0.48415 0.0
H1386 H 0.62329 0.15041 0.5022 0.0
H1387 H 0.6289 0.12073 0.51484 0.0
H1388 H 0.62359 0.12407 0.48236 0.0
H1389 H 0.71096 0.1757 0.53587 0.0
H1390 H 0.73624 0.15731 0.52491 0.0
H1391 H 0.71498 0.14525 0.54719 0.0
C1392 C 0.81168 0.15447 0.05868 0.0
C1393 C 0.82902 0.14972 0.07709 0.0
C1394 C 0.81896 0.16191 0.03512 0.0
C1395 C 0.84425 0.16417 0.02963 0.0
C1396 C 0.86188 0.15914 0.04806 0.0
C1397 C 0.85404 0.15224 0.07165 0.0
C1398 C 0.79957 0.16758 0.01616 0.0
C1399 C 0.88901 0.16087 0.04281 0.0
C1400 C 0.86199 0.16208 0.9621 0.0
C1401 C 0.86583 0.18691 0.95685 0.0
C1402 C 0.85548 0.15437 0.98582 0.0
C1403 C 0.85219 0.17195 1.00463 0.0
C1404 C 0.85594 0.19705 0.9994 0.0
C1405 C 0.86297 0.20419 0.97566 0.0
C1406 C 0.8521 0.1274 0.99076 0.0
C1407 C 0.85215 0.21642 0.01878 0.0
H1408 H 0.7923 0.15273 0.06279 0.0
H1409 H 0.86754 0.14843 0.08575 0.0
H1410 H 0.80172 0.18663 0.00946 0.0
H1411 H 0.80181 0.1553 1.00013 0.0
H1412 H 0.78068 0.16542 0.02351 0.0
H1413 H 0.90037 0.15577 0.05894 0.0
H1414 H 0.89393 0.14865 0.0273 0.0
H1415 H 0.89373 0.1798 0.03722 0.0
H1416 H 0.86434 0.14861 0.94769 0.0
H1417 H 0.86575 0.22342 0.9717 0.0
H1418 H 0.8329 0.12382 0.99641 0.0
H1419 H 0.86412 0.12152 1.00611 0.0
H1420 H 0.85637 0.11598 0.97444 0.0
H1421 H 0.83301 0.2157 0.02571 0.0
H1422 H 0.85575 0.23515 0.01175 0.0
H1423 H 0.86443 0.21289 0.03461 0.0
C1424 C 0.89352 0.33501 0.56061 0.0
C1425 C 0.89563 0.30985 0.56534 0.0
C1426 C 0.8876 0.34372 0.53712 0.0
C1427 C 0.88303 0.32685 0.518 0.0
C1428 C 0.88604 0.30144 0.52243 0.0
C1429 C 0.8926 0.29324 0.54602 0.0
C1430 C 0.88519 0.37097 0.53308 0.0
C1431 C 0.88092 0.28283 0.50267 0.0
C1432 C 0.83807 0.34886 0.4694 0.0
C1433 C 0.85365 0.35439 0.4497 0.0
C1434 C 0.84739 0.33934 0.49145 0.0
C1435 C 0.87301 0.33577 0.49413 0.0
C1436 C 0.88887 0.34144 0.47434 0.0
C1437 C 0.87897 0.35042 0.45225 0.0
C1438 C 0.82977 0.33313 0.5119 0.0
C1439 C 0.91631 0.33842 0.47667 0.0
H1440 H 0.89601 0.34792 0.57548 0.0
H1441 H 0.894 0.27378 0.54966 0.0
H1442 H 0.89543 0.37655 0.51641 0.0
H1443 H 0.86563 0.37581 0.53012 0.0
H1444 H 0.89209 0.38166 0.54894 0.0
H1445 H 0.88606 0.26398 0.50839 0.0
H1446 H 0.86107 0.28314 0.49817 0.0
H1447 H 0.89105 0.28746 0.48566 0.0
H1448 H 0.81846 0.35162 0.46748 0.0
H1449 H 0.8911 0.35473 0.4371 0.0
H1450 H 0.8335 0.3448 0.52809 0.0
H1451 H 0.83241 0.31382 0.51768 0.0
H1452 H 0.8103 0.33577 0.50644 0.0
H1453 H 0.92319 0.35009 0.49179 0.0
H1454 H 0.92612 0.34341 0.45952 0.0
H1455 H 0.92093 0.3192 0.48141 0.0
C1456 C 0.64515 0.33308 0.97314 0.0
C1457 C 0.64243 0.35116 0.95509 0.0
C1458 C 0.65158 0.33929 0.99727 0.0
C1459 C 0.65487 0.36421 1.00356 0.0
C1460 C 0.65092 0.38261 0.98569 0.0
C1461 C 0.645 0.37585 0.9616 0.0
C1462 C 0.65594 0.31911 0.01573 0.0
C1463 C 0.65369 0.40939 0.99183 0.0
C1464 C 0.65551 0.37901 0.0716 0.0
C1465 C 0.68076 0.3805 0.07634 0.0
C1466 C 0.64676 0.37449 0.04784 0.0
C1467 C 0.66369 0.37088 0.02847 0.0
C1468 C 0.68918 0.37285 0.03305 0.0
C1469 C 0.6974 0.37789 0.0569 0.0
C1470 C 0.61944 0.37306 0.04357 0.0
C1471 C 0.70782 0.36881 0.01293 0.0
H1472 H 0.64338 0.31397 0.96816 0.0
H1473 H 0.64277 0.38991 0.94773 0.0
H1474 H 0.67543 0.31926 0.02161 0.0
H1475 H 0.64456 0.32218 0.03232 0.0
H1476 H 0.65167 0.30074 1.0082 0.0
H1477 H 0.64781 0.42147 0.9765 0.0
H1478 H 0.64272 0.41404 1.00835 0.0
H1479 H 0.67315 0.41336 0.99613 0.0
H1480 H 0.64255 0.38115 0.08655 0.0
H1481 H 0.71693 0.37883 0.06048 0.0
H1482 H 0.61442 0.3542 0.03807 0.0
H1483 H 0.61402 0.38544 0.02835 0.0
H1484 H 0.60872 0.37806 0.06018 0.0
H1485 H 0.70609 0.34995 1.00562 0.0
H1486 H 0.72695 0.37143 0.01941 0.0
H1487 H 0.70433 0.3816 0.9975 0.0
C1488 C 0.85584 0.57154 0.37789 0.0
C1489 C 0.85935 0.57253 0.35242 0.0
C1490 C 0.84869 0.54959 0.38944 0.0
C1491 C 0.8444 0.52842 0.37508 0.0
C1492 C 0.84737 0.5296 0.34931 0.0
C1493 C 0.85504 0.55148 0.33839 0.0
C1494 C 0.84616 0.5489 0.41699 0.0
C1495 C 0.84252 0.50767 0.33318 0.0
C1496 C 0.84839 0.46272 0.39713 0.0
C1497 C 0.82356 0.45626 0.39849 0.0
C1498 C 0.85546 0.48678 0.39155 0.0
C1499 C 0.83727 0.5047 0.3866 0.0
C1500 C 0.81217 0.49861 0.38933 0.0
C1501 C 0.80562 0.47451 0.39551 0.0
C1502 C 0.88243 0.49259 0.3894 0.0
C1503 C 0.79215 0.51699 0.38383 0.0
H1504 H 0.8592 0.58774 0.38881 0.0
H1505 H 0.85739 0.55218 0.31865 0.0
H1506 H 0.82746 0.54287 0.42218 0.0
H1507 H 0.85927 0.53536 0.42472 0.0
H1508 H 0.8497 0.56701 0.4255 0.0
H1509 H 0.84455 0.51197 0.31336 0.0
H1510 H 0.85547 0.49265 0.33784 0.0
H1511 H 0.82368 0.50077 0.33641 0.0
H1512 H 0.86235 0.44874 0.39964 0.0
H1513 H 0.78639 0.46962 0.39642 0.0
H1514 H 0.88661 0.51017 0.39862 0.0
H1515 H 0.88741 0.49461 0.36977 0.0
H1516 H 0.89413 0.47798 0.3975 0.0
H1517 H 0.79601 0.53474 0.39283 0.0
H1518 H 0.77384 0.51049 0.38991 0.0
H1519 H 0.79146 0.52035 0.36376 0.0
C1520 C 0.47977 0.40272 0.80112 0.0
C1521 C 0.46137 0.40343 0.81909 0.0
C1522 C 0.50472 0.40172 0.80772 0.0
C1523 C 0.51136 0.40189 0.83286 0.0
C1524 C 0.49287 0.40464 0.85092 0.0
C1525 C 0.46812 0.40509 0.84384 0.0
C1526 C 0.52378 0.39849 0.78789 0.0
C1527 C 0.49907 0.40535 0.87789 0.0
C1528 C 0.5654 0.36328 0.85354 0.0
C1529 C 0.58381 0.38074 0.85739 0.0
C1530 C 0.54213 0.36998 0.84499 0.0
C1531 C 0.53674 0.39494 0.8405 0.0
C1532 C 0.5552 0.41277 0.84422 0.0
C1533 C 0.57868 0.40542 0.8524 0.0
C1534 C 0.52322 0.35024 0.84094 0.0
C1535 C 0.55 0.43958 0.83998 0.0
H1536 H 0.47466 0.40142 0.78196 0.0
H1537 H 0.45398 0.406 0.85781 0.0
H1538 H 0.53975 0.41054 0.79119 0.0
H1539 H 0.53058 0.37931 0.78811 0.0
H1540 H 0.51625 0.40247 0.76937 0.0
H1541 H 0.48325 0.4115 0.88921 0.0
H1542 H 0.50458 0.38677 0.88409 0.0
H1543 H 0.51477 0.41774 0.88127 0.0
H1544 H 0.56925 0.34409 0.85693 0.0
H1545 H 0.59284 0.41898 0.85527 0.0
H1546 H 0.51604 0.35124 0.82193 0.0
H1547 H 0.50747 0.35305 0.85355 0.0
H1548 H 0.53076 0.33157 0.84407 0.0
H1549 H 0.54317 0.44253 0.82105 0.0
H1550 H 0.56651 0.45107 0.84285 0.0
H1551 H 0.53535 0.44584 0.85268 0.0
C1552 C 0.69117 0.05138 0.38073 0.0
C1553 C 0.67362 0.07027 0.38084 0.0
C1554 C 0.68431 0.02685 0.37794 0.0
C1555 C 0.65918 0.02088 0.37568 0.0
C1556 C 0.64127 0.03977 0.37647 0.0
C1557 C 0.64872 0.06431 0.37874 0.0
C1558 C 0.70408 1.00742 0.37653 0.0
C1559 C 0.61428 0.03407 0.37453 0.0
C1560 C 0.6457 0.96306 0.33996 0.0
C1561 C 0.64273 0.94557 0.35862 0.0
C1562 C 0.65056 0.98761 0.34535 0.0
C1563 C 0.65207 0.99516 0.37009 0.0
C1564 C 0.64847 0.97779 0.38911 0.0
C1565 C 0.64412 0.95308 0.38315 0.0
C1566 C 0.65489 1.00529 0.32447 0.0
C1567 C 0.64952 0.98528 0.41571 0.0
H1568 H 0.71047 0.05583 0.38225 0.0
H1569 H 0.63507 0.07879 0.37911 0.0
H1570 H 0.70069 0.99293 0.39036 0.0
H1571 H 0.7037 0.99859 0.35822 0.0
H1572 H 0.7227 0.01499 0.37959 0.0
H1573 H 0.6026 0.05045 0.37783 0.0
H1574 H 0.61016 0.02687 0.35598 0.0
H1575 H 0.60924 0.01965 0.38794 0.0
H1576 H 0.64488 0.95746 0.32092 0.0
H1577 H 0.64172 0.9397 0.39764 0.0
H1578 H 0.67379 0.01268 0.3256 0.0
H1579 H 0.64205 0.02103 0.32581 0.0
H1580 H 0.65253 0.99658 0.30623 0.0
H1581 H 0.66837 0.99124 0.42037 0.0
H1582 H 0.64429 0.97012 0.42823 0.0
H1583 H 0.63709 1.00109 0.41901 0.0
C1584 C 0.05864 0.17134 0.83838 0.0
C1585 C 0.07919 0.16823 0.85352 0.0
C1586 C 0.03629 0.18008 0.84784 0.0
C1587 C 0.03428 0.18546 0.87318 0.0
C1588 C 0.05492 0.18226 0.8886 0.0
C1589 C 0.07719 0.17387 0.87856 0.0
C1590 C 0.01481 0.18354 0.83068 0.0
C1591 C 0.05339 0.18741 0.91576 0.0
C1592 C 0.98087 0.22687 0.89095 0.0
C1593 C 0.96264 0.20971 0.89655 0.0
C1594 C 1.00462 0.2193 0.88418 0.0
C1595 C 0.01035 0.19399 0.88341 0.0
C1596 C 0.99245 0.1767 0.89059 0.0
C1597 C 0.96877 0.18475 0.89685 0.0
C1598 C 0.02309 0.23831 0.87643 0.0
C1599 C 0.99794 0.14959 0.8905 0.0
H1600 H 0.06007 0.16719 0.81899 0.0
H1601 H 0.09297 0.17142 0.8904 0.0
H1602 H 0.99948 0.17151 0.83634 0.0
H1603 H 1.00805 0.2027 0.83167 0.0
H1604 H 0.01963 0.17933 0.81134 0.0
H1605 H 0.07113 0.18411 0.92524 0.0
H1606 H 0.04773 0.20668 0.91888 0.0
H1607 H 0.03921 0.17561 0.92427 0.0
H1608 H 0.97622 0.24618 0.8905 0.0
H1609 H 0.9548 0.17139 0.90129 0.0
H1610 H 0.0268 0.23649 0.8565 0.0
H1611 H 0.04074 0.23542 0.88613 0.0
H1612 H 0.01654 0.25724 0.8801 0.0
H1613 H 1.00036 0.1432 0.87134 0.0
H1614 H 0.98301 0.13878 0.89912 0.0
H1615 H 0.01532 0.14575 0.90039 0.0
C1616 C 0.82674 0.04628 0.11838 0.0
C1617 C 0.80274 0.05207 0.12566 0.0
C1618 C 0.83529 0.02201 0.11872 0.0
C1619 C 0.8197 1.00319 0.12731 0.0
C1620 C 0.79492 0.00874 0.13309 0.0
C1621 C 0.78664 0.03313 0.1319 0.0
C1622 C 0.86162 0.01685 0.11175 0.0
C1623 C 0.77778 0.98938 0.14277 0.0
C1624 C 0.84063 0.93621 0.12773 0.0
C1625 C 0.8507 0.9343 0.15134 0.0
C1626 C 0.83078 0.95863 0.11927 0.0
C1627 C 0.83054 0.97929 0.13502 0.0
C1628 C 0.84075 0.97735 0.15877 0.0
C1629 C 0.85086 0.9551 0.16646 0.0
C1630 C 0.82052 0.9602 0.09364 0.0
C1631 C 0.84068 0.99874 0.17637 0.0
H1632 H 0.83913 0.06086 0.11316 0.0
H1633 H 0.76806 0.03755 0.13753 0.0
H1634 H 0.87271 0.01428 0.12862 0.0
H1635 H 0.86304 0.99977 0.10085 0.0
H1636 H 0.8697 0.03212 0.10101 0.0
H1637 H 0.75838 0.99569 0.14281 0.0
H1638 H 0.7792 0.97242 0.13171 0.0
H1639 H 0.78305 0.98466 0.16186 0.0
H1640 H 0.84041 0.92026 0.11595 0.0
H1641 H 0.8584 0.95393 0.18481 0.0
H1642 H 0.82917 0.97555 0.08355 0.0
H1643 H 0.80054 0.96406 0.09444 0.0
H1644 H 0.82348 0.94302 0.08315 0.0
H1645 H 0.85134 0.01412 0.16852 0.0
H1646 H 0.84868 0.99394 0.19448 0.0
H1647 H 0.82163 1.00538 0.17929 0.0
C1648 C 0.04463 0.3828 0.71933 0.0
C1649 C 0.06054 0.38994 0.70046 0.0
C1650 C 0.02022 0.37628 0.71418 0.0
C1651 C 0.01157 0.37731 0.68967 0.0
C1652 C 0.027 0.38665 0.67102 0.0
C1653 C 0.05134 0.39263 0.6766 0.0
C1654 C 1.00441 0.36634 0.73458 0.0
C1655 C 0.01848 0.38845 0.64473 0.0
C1656 C 0.96738 0.32904 0.66706 0.0
C1657 C 0.9451 0.34194 0.66585 0.0
C1658 C 0.98884 0.34021 0.67552 0.0
C1659 C 0.98821 0.36509 0.68272 0.0
C1660 C 0.96575 0.37822 0.68184 0.0
C1661 C 0.94438 0.36643 0.67354 0.0
C1662 C 0.01231 0.3254 0.67636 0.0
C1663 C 0.96444 0.40482 0.68915 0.0
H1664 H 0.0517 0.38062 0.73778 0.0
H1665 H 0.06354 0.39842 0.662 0.0
H1666 H 0.98555 0.37397 0.73351 0.0
H1667 H 1.00299 0.34618 0.73267 0.0
H1668 H 0.01215 0.37046 0.75295 0.0
H1669 H 0.03121 0.39944 0.63328 0.0
H1670 H 0.0173 0.36982 0.63676 0.0
H1671 H 0.99992 0.3968 0.64375 0.0
H1672 H 0.96811 0.31002 0.66146 0.0
H1673 H 0.92722 0.3765 0.67271 0.0
H1674 H 0.02042 0.32615 0.695 0.0
H1675 H 0.02591 0.33327 0.66345 0.0
H1676 H 0.0094 0.30591 0.67142 0.0
H1677 H 0.97209 0.40732 0.70782 0.0
H1678 H 0.94536 0.41204 0.68886 0.0
H1679 H 0.97577 0.4159 0.67642 0.0
C1680 C 0.63216 0.44457 0.17502 0.0
C1681 C 0.65735 0.44011 0.17196 0.0
C1682 C 0.62336 0.46821 0.18056 0.0
C1683 C 0.64019 0.48764 0.18375 0.0
C1684 C 0.66565 0.48307 0.18109 0.0
C1685 C 0.67386 0.45948 0.17494 0.0
C1686 C 0.59607 0.47247 0.18269 0.0
C1687 C 0.68431 0.50307 0.18487 0.0
C1688 C 0.62398 0.5551 0.17749 0.0
C1689 C 0.62239 0.5624 0.2021 0.0
C1690 C 0.62816 0.53048 0.1712 0.0
C1691 C 0.63149 0.51283 0.18998 0.0
C1692 C 0.62891 0.51993 0.21482 0.0
C1693 C 0.62411 0.54457 0.22057 0.0
C1694 C 0.63016 0.52359 0.14447 0.0
C1695 C 0.63281 0.50185 0.23543 0.0
H1696 H 0.61932 0.42969 0.17258 0.0
H1697 H 0.69337 0.45612 0.17282 0.0
H1698 H 0.59148 0.47947 0.20123 0.0
H1699 H 0.5902 0.48664 0.1693 0.0
H1700 H 0.58538 0.45554 0.17934 0.0
H1701 H 0.70346 0.4963 0.18296 0.0
H1702 H 0.68131 0.51795 0.17133 0.0
H1703 H 0.68208 0.51117 0.2034 0.0
H1704 H 0.62253 0.56876 0.16312 0.0
H1705 H 0.62309 0.55007 0.23963 0.0
H1706 H 0.61912 0.50703 0.14063 0.0
H1707 H 0.64953 0.51916 0.13997 0.0
H1708 H 0.62393 0.53861 0.13219 0.0
H1709 H 0.6216 0.48524 0.2325 0.0
H1710 H 0.62811 0.50974 0.25362 0.0
H1711 H 0.65233 0.49599 0.23573 0.0
C1712 C 0.48095 0.09996 0.71314 0.0
C1713 C 0.47454 0.10532 0.73746 0.0
C1714 C 0.50527 0.10189 0.70503 0.0
C1715 C 0.52356 0.11 0.72149 0.0
C1716 C 0.51752 0.11357 0.74656 0.0
C1717 C 0.49302 0.11096 0.75432 0.0
C1718 C 0.51087 0.09742 0.67828 0.0
C1719 C 0.53638 0.12242 0.76467 0.0
C1720 C 0.58965 0.11379 0.6981 0.0
C1721 C 0.59014 0.1378 0.68897 0.0
C1722 C 0.56822 0.10436 0.70911 0.0
C1723 C 0.54712 0.11948 0.71141 0.0
C1724 C 0.54786 0.14388 0.70273 0.0
C1725 C 0.56917 0.15259 0.6915 0.0
C1726 C 0.56797 0.07816 0.71783 0.0
C1727 C 0.52597 0.16084 0.70502 0.0
H1728 H 0.46668 0.09527 0.70014 0.0
H1729 H 0.48808 0.11514 0.77313 0.0
H1730 H 0.51294 0.11524 0.66873 0.0
H1731 H 0.52836 0.08719 0.67615 0.0
H1732 H 0.49602 0.08704 0.66908 0.0
H1733 H 0.53017 0.11994 0.78392 0.0
H1734 H 0.55409 0.11268 0.76212 0.0
H1735 H 0.53975 0.1422 0.76155 0.0
H1736 H 0.60582 0.10231 0.69631 0.0
H1737 H 0.56943 0.17132 0.68493 0.0
H1738 H 0.55444 0.06759 0.70702 0.0
H1739 H 0.56211 0.07728 0.7373 0.0
H1740 H 0.58622 0.06921 0.71602 0.0
H1741 H 0.51048 0.1537 0.69401 0.0
H1742 H 0.53006 0.17971 0.69866 0.0
H1743 H 0.51977 0.16176 0.72439 0.0
C1744 C 0.32954 0.89445 0.42858 0.0
C1745 C 0.33743 0.87 0.42782 0.0
C1746 C 0.32044 0.90475 0.45057 0.0
C1747 C 0.31874 0.89005 0.47199 0.0
C1748 C 0.32597 0.86517 0.47094 0.0
C1749 C 0.33537 0.8556 0.44906 0.0
C1750 C 0.31317 0.93141 0.45106 0.0
C1751 C 0.32414 0.84859 0.49308 0.0
C1752 C 0.32259 0.91094 0.53785 0.0
C1753 C 0.29849 0.90727 0.54602 0.0
C1754 C 0.32894 0.9079 0.5131 0.0
C1755 C 0.31085 0.90043 0.4961 0.0
C1756 C 0.28608 0.89853 0.5039 0.0
C1757 C 0.28014 0.90218 0.5288 0.0
C1758 C 0.35548 0.91057 0.50563 0.0
C1759 C 0.26623 0.89043 0.48649 0.0
H1760 H 0.33093 0.90562 0.4122 0.0
H1761 H 0.3409 0.83652 0.44857 0.0
H1762 H 0.29427 0.93351 0.45837 0.0
H1763 H 0.32556 0.94153 0.46355 0.0
H1764 H 0.31406 0.93996 0.43259 0.0
H1765 H 0.32907 0.82932 0.48876 0.0
H1766 H 0.33659 0.85518 0.50772 0.0
H1767 H 0.30521 0.84896 0.50056 0.0
H1768 H 0.3368 0.91518 0.55107 0.0
H1769 H 0.26149 0.89926 0.53503 0.0
H1770 H 0.35699 0.92046 0.48792 0.0
H1771 H 0.36376 0.89215 0.5031 0.0
H1772 H 0.36631 0.92049 0.51968 0.0
H1773 H 0.26808 0.89971 0.46849 0.0
H1774 H 0.24761 0.89415 0.49395 0.0
H1775 H 0.26803 0.87045 0.48326 0.0
C1776 C 0.16892 0.89187 0.07187 0.0
C1777 C 0.16497 0.86692 0.07627 0.0
C1778 C 0.17612 0.90013 0.04836 0.0
C1779 C 0.17987 0.88294 0.02917 0.0
C1780 C 0.17703 0.85769 0.03405 0.0
C1781 C 0.16947 0.85009 0.05733 0.0
C1782 C 0.17893 0.92719 0.04384 0.0
C1783 C 0.18124 0.83857 0.01444 0.0
C1784 C 0.16976 0.89454 0.96153 0.0
C1785 C 0.1938 0.89388 0.95232 0.0
C1786 C 0.16508 0.89321 0.9868 0.0
C1787 C 0.1849 0.89083 1.00341 0.0
C1788 C 0.20928 0.89176 0.99437 0.0
C1789 C 0.21346 0.8934 0.96891 0.0
C1790 C 0.13879 0.89252 0.99555 0.0
C1791 C 0.23095 0.8892 0.01138 0.0
H1792 H 0.16565 0.90491 0.08649 0.0
H1793 H 0.16704 0.83069 0.06071 0.0
H1794 H 0.19671 0.93098 0.03469 0.0
H1795 H 0.1642 0.93361 0.03133 0.0
H1796 H 0.17788 0.93795 0.06109 0.0
H1797 H 0.18 0.81963 0.02174 0.0
H1798 H 0.16738 0.84077 0.9997 0.0
H1799 H 0.19959 0.84094 1.00597 0.0
H1800 H 0.15444 0.89533 0.94888 0.0
H1801 H 0.2321 0.893 0.96197 0.0
H1802 H 0.13621 0.90467 0.01164 0.0
H1803 H 0.13418 0.87363 1.00141 0.0
H1804 H 0.1257 0.89815 0.98097 0.0
H1805 H 0.22837 0.90057 0.02803 0.0
H1806 H 0.2484 0.89451 1.00231 0.0
H1807 H 0.2326 0.86987 0.01744 0.0
C1808 C 0.24569 0.62621 0.5168 0.0
C1809 C 0.23416 0.61195 0.53471 0.0
C1810 C 0.23544 0.6286 0.49321 0.0
C1811 C 0.21349 0.61597 0.4874 0.0
C1812 C 0.20319 0.59978 0.50485 0.0
C1813 C 0.21339 0.59834 0.52845 0.0
C1814 C 0.24676 0.64645 0.4754 0.0
C1815 C 0.18021 0.5855 0.49934 0.0
C1816 C 0.16824 0.64977 0.44671 0.0
C1817 C 0.17274 0.63959 0.42347 0.0
C1818 C 0.1813 0.6421 0.46746 0.0
C1819 C 0.19895 0.62315 0.4653 0.0
C1820 C 0.20269 0.61175 0.44223 0.0
C1821 C 0.18976 0.62032 0.42147 0.0
C1822 C 0.17682 0.65504 0.49156 0.0
C1823 C 0.22081 0.59101 0.43935 0.0
H1824 H 0.26156 0.637 0.52181 0.0
H1825 H 0.20445 0.58736 0.5424 0.0
H1826 H 0.24793 0.63839 0.45678 0.0
H1827 H 0.23497 0.66302 0.47413 0.0
H1828 H 0.26541 0.65215 0.4812 0.0
H1829 H 0.17733 0.57045 0.51273 0.0
H1830 H 0.16408 0.59793 0.50014 0.0
H1831 H 0.18101 0.57764 0.4806 0.0
H1832 H 0.15523 0.6647 0.44863 0.0
H1833 H 0.19345 0.61237 0.40364 0.0
H1834 H 0.19413 0.66336 0.49818 0.0
H1835 H 0.17073 0.64176 0.50566 0.0
H1836 H 0.16272 0.66971 0.49005 0.0
H1837 H 0.23972 0.59795 0.44193 0.0
H1838 H 0.21962 0.58232 0.42099 0.0
H1839 H 0.21762 0.57686 0.4536 0.0
C1840 C 0.36632 0.65029 0.05605 0.0
C1841 C 0.36967 0.67522 0.06103 0.0
C1842 C 0.35964 0.64242 0.03234 0.0
C1843 C 0.35559 0.65996 0.01354 0.0
C1844 C 0.35892 0.68508 0.0186 0.0
C1845 C 0.36615 0.69232 0.04209 0.0
C1846 C 0.35677 0.61542 0.02743 0.0
C1847 C 0.35423 0.70449 0.99936 0.0
C1848 C 0.35589 0.64654 0.94516 0.0
C1849 C 0.33072 0.64566 0.93996 0.0
C1850 C 0.36431 0.64962 0.96932 0.0
C1851 C 0.34714 0.65254 0.98864 0.0
C1852 C 0.32171 0.65125 0.98352 0.0
C1853 C 0.31383 0.64755 0.9593 0.0
C1854 C 0.39157 0.65045 0.97407 0.0
C1855 C 0.30277 0.65492 1.00343 0.0
H1856 H 0.36898 0.63701 0.07059 0.0
H1857 H 0.3683 0.71168 0.04578 0.0
H1858 H 0.33745 0.6114 0.02261 0.0
H1859 H 0.36827 0.60996 0.01153 0.0
H1860 H 0.36201 0.60406 0.04352 0.0
H1861 H 0.35744 0.72329 1.00637 0.0
H1862 H 0.36632 0.70143 0.98328 0.0
H1863 H 0.33499 0.70334 0.99284 0.0
H1864 H 0.36904 0.64471 0.93033 0.0
H1865 H 0.29435 0.64687 0.9554 0.0
H1866 H 0.39645 0.63822 0.98959 0.0
H1867 H 0.39693 0.66929 0.9793 0.0
H1868 H 0.40244 0.64494 0.95772 0.0
H1869 H 0.30641 0.64237 0.01902 0.0
H1870 H 0.2838 0.65177 0.99676 0.0
H1871 H 0.30393 0.67389 0.01057 0.0
loop_
_geom_bond_atom_site_label_1
_geom_bond_atom_site_label_2
_geom_bond_distance
_geom_bond_site_symmetry_2
_ccdc_geom_bond_type
C0 O2 1.247 . S
C0 O4 1.258 . S
C1 O8 1.247 . S
C1 O9 1.258 . S
O2 C0 1.247 . S
O2 Zn3 2.028 . S
Zn3 O2 2.028 . S
Zn3 O7 2.035 . S
Zn3 O9 2.035 . S
Zn3 O10 2.028 . S
O4 C0 1.258 . S
O4 Zn5 2.035 . S
Zn5 O4 2.035 . S
Zn5 O6 2.028 . S
Zn5 O8 2.028 . S
Zn5 O11 2.035 . S
O6 Zn5 2.028 . S
O6 C12 1.247 . S
O7 Zn3 2.035 . S
O7 C12 1.258 . S
O8 C1 1.247 . S
O8 Zn5 2.028 . S
O9 C1 1.258 . S
O9 Zn3 2.035 . S
O10 Zn3 2.028 . S
O10 C13 1.247 . S
O11 Zn5 2.035 . S
O11 C13 1.258 . S
C12 O6 1.247 . S
C12 O7 1.258 . S
C13 O10 1.247 . S
C13 O11 1.258 . S
C14 O16 1.247 . S
C14 O18 1.258 . S
C15 O22 1.247 . S
C15 O23 1.258 . S
O16 C14 1.247 . S
O16 Zn17 2.028 . S
Zn17 O16 2.028 . S
Zn17 O21 2.035 . S
Zn17 O23 2.035 . S
Zn17 O24 2.028 . S
O18 C14 1.258 . S
O18 Zn19 2.035 . S
Zn19 O18 2.035 . S
Zn19 O20 2.028 . S
Zn19 O22 2.028 . S
Zn19 O25 2.035 . S
O20 Zn19 2.028 . S
O20 C26 1.247 . S
O21 Zn17 2.035 . S
O21 C26 1.258 . S
O22 C15 1.247 . S
O22 Zn19 2.028 . S
O23 C15 1.258 . S
O23 Zn17 2.035 . S
O24 Zn17 2.028 . S
O24 C27 1.247 . S
O25 Zn19 2.035 . S
O25 C27 1.258 . S
C26 O20 1.247 . S
C26 O21 1.258 . S
C27 O24 1.247 . S
C27 O25 1.258 . S
C28 O30 1.247 . S
C28 O32 1.258 . S
C29 O36 1.247 . S
C29 O37 1.258 . S
O30 C28 1.247 . S
O30 Zn31 2.028 . S
Zn31 O30 2.028 . S
Zn31 O35 2.035 . S
Zn31 O37 2.035 . S
Zn31 O38 2.028 . S
O32 C28 1.258 . S
O32 Zn33 2.035 . S
Zn33 O32 2.035 . S
Zn33 O34 2.028 . S
Zn33 O36 2.028 . S
Zn33 O39 2.035 . S
O34 Zn33 2.028 . S
O34 C40 1.247 . S
O35 Zn31 2.035 . S
O35 C40 1.258 . S
O36 C29 1.247 . S
O36 Zn33 2.028 . S
O37 C29 1.258 . S
O37 Zn31 2.035 . S
O38 Zn31 2.028 . S
O38 C41 1.247 . S
O39 Zn33 2.035 . S
O39 C41 1.258 . S
C40 O34 1.247 . S
C40 O35 1.258 . S
C41 O38 1.247 . S
C41 O39 1.258 . S
C42 O44 1.247 . S
C42 O46 1.258 . S
C43 O50 1.247 . S
C43 O51 1.258 . S
O44 C42 1.247 . S
O44 Zn45 2.028 . S
Zn45 O44 2.028 . S
Zn45 O49 2.035 . S
Zn45 O51 2.035 . S
Zn45 O52 2.028 . S
O46 C42 1.258 . S
O46 Zn47 2.035 . S
Zn47 O46 2.035 . S
Zn47 O48 2.028 . S
Zn47 O50 2.028 . S
Zn47 O53 2.035 . S
O48 Zn47 2.028 . S
O48 C54 1.247 . S
O49 Zn45 2.035 . S
O49 C54 1.258 . S
O50 C43 1.247 . S
O50 Zn47 2.028 . S
O51 C43 1.258 . S
O51 Zn45 2.035 . S
O52 Zn45 2.028 . S
O52 C55 1.247 . S
O53 Zn47 2.035 . S
O53 C55 1.258 . S
C54 O48 1.247 . S
C54 O49 1.258 . S
C55 O52 1.247 . S
C55 O53 1.258 . S
C56 O58 1.247 . S
C56 O60 1.258 . S
C57 O64 1.247 . S
C57 O65 1.258 . S
O58 C56 1.247 . S
O58 Zn59 2.028 . S
Zn59 O58 2.028 . S
Zn59 O63 2.035 . S
Zn59 O65 2.035 . S
Zn59 O66 2.028 . S
O60 C56 1.258 . S
O60 Zn61 2.035 . S
Zn61 O60 2.035 . S
Zn61 O62 2.028 . S
Zn61 O64 2.028 . S
Zn61 O67 2.035 . S
O62 Zn61 2.028 . S
O62 C68 1.247 . S
O63 Zn59 2.035 . S
O63 C68 1.258 . S
O64 C57 1.247 . S
O64 Zn61 2.028 . S
O65 C57 1.258 . S
O65 Zn59 2.035 . S
O66 Zn59 2.028 . S
O66 C69 1.247 . S
O67 Zn61 2.035 . S
O67 C69 1.258 . S
C68 O62 1.247 . S
C68 O63 1.258 . S
C69 O66 1.247 . S
C69 O67 1.258 . S
C70 O72 1.247 . S
C70 O74 1.258 . S
C71 O78 1.247 . S
C71 O79 1.258 . S
O72 C70 1.247 . S
O72 Zn73 2.028 . S
Zn73 O72 2.028 . S
Zn73 O77 2.035 . S
Zn73 O79 2.035 . S
Zn73 O80 2.028 . S
O74 C70 1.258 . S
O74 Zn75 2.035 . S
Zn75 O74 2.035 . S
Zn75 O76 2.028 . S
Zn75 O78 2.028 . S
Zn75 O81 2.035 . S
O76 Zn75 2.028 . S
O76 C82 1.247 . S
O77 Zn73 2.035 . S
O77 C82 1.258 . S
O78 C71 1.247 . S
O78 Zn75 2.028 . S
O79 C71 1.258 . S
O79 Zn73 2.035 . S
O80 Zn73 2.028 . S
O80 C83 1.247 . S
O81 Zn75 2.035 . S
O81 C83 1.258 . S
C82 O76 1.247 . S
C82 O77 1.258 . S
C83 O80 1.247 . S
C83 O81 1.258 . S
C84 O86 1.247 . S
C84 O88 1.258 . S
C85 O92 1.247 . S
C85 O93 1.258 . S
O86 C84 1.247 . S
O86 Zn87 2.028 . S
Zn87 O86 2.028 . S
Zn87 O91 2.035 . S
Zn87 O93 2.035 . S
Zn87 O94 2.028 . S
O88 C84 1.258 . S
O88 Zn89 2.035 . S
Zn89 O88 2.035 . S
Zn89 O90 2.028 . S
Zn89 O92 2.028 . S
Zn89 O95 2.035 . S
O90 Zn89 2.028 . S
O90 C96 1.247 . S
O91 Zn87 2.035 . S
O91 C96 1.258 . S
O92 C85 1.247 . S
O92 Zn89 2.028 . S
O93 C85 1.258 . S
O93 Zn87 2.035 . S
O94 Zn87 2.028 . S
O94 C97 1.247 . S
O95 Zn89 2.035 . S
O95 C97 1.258 . S
C96 O90 1.247 . S
C96 O91 1.258 . S
C97 O94 1.247 . S
C97 O95 1.258 . S
C98 O100 1.247 . S
C98 O102 1.258 . S
C99 O106 1.247 . S
C99 O107 1.258 . S
O100 C98 1.247 . S
O100 Zn101 2.028 . S
Zn101 O100 2.028 . S
Zn101 O105 2.035 . S
Zn101 O107 2.035 . S
Zn101 O108 2.028 . S
O102 C98 1.258 . S
O102 Zn103 2.035 . S
Zn103 O102 2.035 . S
Zn103 O104 2.028 . S
Zn103 O106 2.028 . S
Zn103 O109 2.035 . S
O104 Zn103 2.028 . S
O104 C110 1.247 . S
O105 Zn101 2.035 . S
O105 C110 1.258 . S
O106 C99 1.247 . S
O106 Zn103 2.028 . S
O107 C99 1.258 . S
O107 Zn101 2.035 . S
O108 Zn101 2.028 . S
O108 C111 1.247 . S
O109 Zn103 2.035 . S
O109 C111 1.258 . S
C110 O104 1.247 . S
C110 O105 1.258 . S
C111 O108 1.247 . S
C111 O109 1.258 . S
C112 O114 1.247 . S
C112 O116 1.258 . S
C113 O120 1.247 . S
C113 O121 1.258 . S
O114 C112 1.247 . S
O114 Zn115 2.028 . S
Zn115 O114 2.028 . S
Zn115 O119 2.035 . S
Zn115 O121 2.035 . S
Zn115 O122 2.028 . S
O116 C112 1.258 . S
O116 Zn117 2.035 . S
Zn117 O116 2.035 . S
Zn117 O118 2.028 . S
Zn117 O120 2.028 . S
Zn117 O123 2.035 . S
O118 Zn117 2.028 . S
O118 C124 1.247 . S
O119 Zn115 2.035 . S
O119 C124 1.258 . S
O120 C113 1.247 . S
O120 Zn117 2.028 . S
O121 C113 1.258 . S
O121 Zn115 2.035 . S
O122 Zn115 2.028 . S
O122 C125 1.247 . S
O123 Zn117 2.035 . S
O123 C125 1.258 . S
C124 O118 1.247 . S
C124 O119 1.258 . S
C125 O122 1.247 . S
C125 O123 1.258 . S
C126 O128 1.247 . S
C126 O130 1.258 . S
C127 O134 1.247 . S
C127 O135 1.258 . S
O128 C126 1.247 . S
O128 Zn129 2.028 . S
Zn129 O128 2.028 . S
Zn129 O133 2.035 . S
Zn129 O135 2.035 . S
Zn129 O136 2.028 . S
O130 C126 1.258 . S
O130 Zn131 2.035 . S
Zn131 O130 2.035 . S
Zn131 O132 2.028 . S
Zn131 O134 2.028 . S
Zn131 O137 2.035 . S
O132 Zn131 2.028 . S
O132 C138 1.247 . S
O133 Zn129 2.035 . S
O133 C138 1.258 . S
O134 C127 1.247 . S
O134 Zn131 2.028 . S
O135 C127 1.258 . S
O135 Zn129 2.035 . S
O136 Zn129 2.028 . S
O136 C139 1.247 . S
O137 Zn131 2.035 . S
O137 C139 1.258 . S
C138 O132 1.247 . S
C138 O133 1.258 . S
C139 O136 1.247 . S
C139 O137 1.258 . S
C140 O142 1.247 . S
C140 O144 1.258 . S
C141 O148 1.247 . S
C141 O149 1.258 . S
O142 C140 1.247 . S
O142 Zn143 2.028 . S
Zn143 O142 2.028 . S
Zn143 O147 2.035 . S
Zn143 O149 2.035 . S
Zn143 O150 2.028 . S
O144 C140 1.258 . S
O144 Zn145 2.035 . S
Zn145 O144 2.035 . S
Zn145 O146 2.028 . S
Zn145 O148 2.028 . S
Zn145 O151 2.035 . S
O146 Zn145 2.028 . S
O146 C152 1.247 . S
O147 Zn143 2.035 . S
O147 C152 1.258 . S
O148 C141 1.247 . S
O148 Zn145 2.028 . S
O149 C141 1.258 . S
O149 Zn143 2.035 . S
O150 Zn143 2.028 . S
O150 C153 1.247 . S
O151 Zn145 2.035 . S
O151 C153 1.258 . S
C152 O146 1.247 . S
C152 O147 1.258 . S
C153 O150 1.247 . S
C153 O151 1.258 . S
C154 O156 1.247 . S
C154 O158 1.258 . S
C155 O162 1.247 . S
C155 O163 1.258 . S
O156 C154 1.247 . S
O156 Zn157 2.028 . S
Zn157 O156 2.028 . S
Zn157 O161 2.035 . S
Zn157 O163 2.035 . S
Zn157 O164 2.028 . S
O158 C154 1.258 . S
O158 Zn159 2.035 . S
Zn159 O158 2.035 . S
Zn159 O160 2.028 . S
Zn159 O162 2.028 . S
Zn159 O165 2.035 . S
O160 Zn159 2.028 . S
O160 C166 1.247 . S
O161 Zn157 2.035 . S
O161 C166 1.258 . S
O162 C155 1.247 . S
O162 Zn159 2.028 . S
O163 C155 1.258 . S
O163 Zn157 2.035 . S
O164 Zn157 2.028 . S
O164 C167 1.247 . S
O165 Zn159 2.035 . S
O165 C167 1.258 . S
C166 O160 1.247 . S
C166 O161 1.258 . S
C167 O164 1.247 . S
C167 O165 1.258 . S
C168 O170 1.247 . S
C168 O172 1.258 . S
C169 O176 1.247 . S
C169 O177 1.258 . S
O170 C168 1.247 . S
O170 Zn171 2.028 . S
Zn171 O170 2.028 . S
Zn171 O175 2.035 . S
Zn171 O177 2.035 . S
Zn171 O178 2.028 . S
O172 C168 1.258 . S
O172 Zn173 2.035 . S
Zn173 O172 2.035 . S
Zn173 O174 2.028 . S
Zn173 O176 2.028 . S
Zn173 O179 2.035 . S
O174 Zn173 2.028 . S
O174 C180 1.247 . S
O175 Zn171 2.035 . S
O175 C180 1.258 . S
O176 C169 1.247 . S
O176 Zn173 2.028 . S
O177 C169 1.258 . S
O177 Zn171 2.035 . S
O178 Zn171 2.028 . S
O178 C181 1.247 . S
O179 Zn173 2.035 . S
O179 C181 1.258 . S
C180 O174 1.247 . S
C180 O175 1.258 . S
C181 O178 1.247 . S
C181 O179 1.258 . S
C182 O184 1.247 . S
C182 O186 1.258 . S
C183 O190 1.247 . S
C183 O191 1.258 . S
O184 C182 1.247 . S
O184 Zn185 2.028 . S
Zn185 O184 2.028 . S
Zn185 O189 2.035 . S
Zn185 O191 2.035 . S
Zn185 O192 2.028 . S
O186 C182 1.258 . S
O186 Zn187 2.035 . S
Zn187 O186 2.035 . S
Zn187 O188 2.028 . S
Zn187 O190 2.028 . S
Zn187 O193 2.035 . S
O188 Zn187 2.028 . S
O188 C194 1.247 . S
O189 Zn185 2.035 . S
O189 C194 1.258 . S
O190 C183 1.247 . S
O190 Zn187 2.028 . S
O191 C183 1.258 . S
O191 Zn185 2.035 . S
O192 Zn185 2.028 . S
O192 C195 1.247 . S
O193 Zn187 2.035 . S
O193 C195 1.258 . S
C194 O188 1.247 . S
C194 O189 1.258 . S
C195 O192 1.247 . S
C195 O193 1.258 . S
C196 O198 1.247 . S
C196 O200 1.258 . S
C197 O204 1.247 . S
C197 O205 1.258 . S
O198 C196 1.247 . S
O198 Zn199 2.028 . S
Zn199 O198 2.028 . S
Zn199 O203 2.035 . S
Zn199 O205 2.035 . S
Zn199 O206 2.028 . S
O200 C196 1.258 . S
O200 Zn201 2.035 . S
Zn201 O200 2.035 . S
Zn201 O202 2.028 . S
Zn201 O204 2.028 . S
Zn201 O207 2.035 . S
O202 Zn201 2.028 . S
O202 C208 1.247 . S
O203 Zn199 2.035 . S
O203 C208 1.258 . S
O204 C197 1.247 . S
O204 Zn201 2.028 . S
O205 C197 1.258 . S
O205 Zn199 2.035 . S
O206 Zn199 2.028 . S
O206 C209 1.247 . S
O207 Zn201 2.035 . S
O207 C209 1.258 . S
C208 O202 1.247 . S
C208 O203 1.258 . S
C209 O206 1.247 . S
C209 O207 1.258 . S
C210 O212 1.247 . S
C210 O214 1.258 . S
C211 O218 1.247 . S
C211 O219 1.258 . S
O212 C210 1.247 . S
O212 Zn213 2.028 . S
Zn213 O212 2.028 . S
Zn213 O217 2.035 . S
Zn213 O219 2.035 . S
Zn213 O220 2.028 . S
O214 C210 1.258 . S
O214 Zn215 2.035 . S
Zn215 O214 2.035 . S
Zn215 O216 2.028 . S
Zn215 O218 2.028 . S
Zn215 O221 2.035 . S
O216 Zn215 2.028 . S
O216 C222 1.247 . S
O217 Zn213 2.035 . S
O217 C222 1.258 . S
O218 C211 1.247 . S
O218 Zn215 2.028 . S
O219 C211 1.258 . S
O219 Zn213 2.035 . S
O220 Zn213 2.028 . S
O220 C223 1.247 . S
O221 Zn215 2.035 . S
O221 C223 1.258 . S
C222 O216 1.247 . S
C222 O217 1.258 . S
C223 O220 1.247 . S
C223 O221 1.258 . S
C224 O226 1.247 . S
C224 O228 1.258 . S
C225 O232 1.247 . S
C225 O233 1.258 . S
O226 C224 1.247 . S
O226 Zn227 2.028 . S
Zn227 O226 2.028 . S
Zn227 O231 2.035 . S
Zn227 O233 2.035 . S
Zn227 O234 2.028 . S
O228 C224 1.258 . S
O228 Zn229 2.035 . S
Zn229 O228 2.035 . S
Zn229 O230 2.028 . S
Zn229 O232 2.028 . S
Zn229 O235 2.035 . S
O230 Zn229 2.028 . S
O230 C236 1.247 . S
O231 Zn227 2.035 . S
O231 C236 1.258 . S
O232 C225 1.247 . S
O232 Zn229 2.028 . S
O233 C225 1.258 . S
O233 Zn227 2.035 . S
O234 Zn227 2.028 . S
O234 C237 1.247 . S
O235 Zn229 2.035 . S
O235 C237 1.258 . S
C236 O230 1.247 . S
C236 O231 1.258 . S
C237 O234 1.247 . S
C237 O235 1.258 . S
C238 O240 1.247 . S
C238 O242 1.258 . S
C239 O246 1.247 . S
C239 O247 1.258 . S
O240 C238 1.247 . S
O240 Zn241 2.028 . S
Zn241 O240 2.028 . S
Zn241 O245 2.035 . S
Zn241 O247 2.035 . S
Zn241 O248 2.028 . S
O242 C238 1.258 . S
O242 Zn243 2.035 . S
Zn243 O242 2.035 . S
Zn243 O244 2.028 . S
Zn243 O246 2.028 . S
Zn243 O249 2.035 . S
O244 Zn243 2.028 . S
O244 C250 1.247 . S
O245 Zn241 2.035 . S
O245 C250 1.258 . S
O246 C239 1.247 . S
O246 Zn243 2.028 . S
O247 C239 1.258 . S
O247 Zn241 2.035 . S
O248 Zn241 2.028 . S
O248 C251 1.247 . S
O249 Zn243 2.035 . S
O249 C251 1.258 . S
C250 O244 1.247 . S
C250 O245 1.258 . S
C251 O248 1.247 . S
C251 O249 1.258 . S
C252 O254 1.247 . S
C252 O256 1.258 . S
C253 O260 1.247 . S
C253 O261 1.258 . S
O254 C252 1.247 . S
O254 Zn255 2.028 . S
Zn255 O254 2.028 . S
Zn255 O259 2.035 . S
Zn255 O261 2.035 . S
Zn255 O262 2.028 . S
O256 C252 1.258 . S
O256 Zn257 2.035 . S
Zn257 O256 2.035 . S
Zn257 O258 2.028 . S
Zn257 O260 2.028 . S
Zn257 O263 2.035 . S
O258 Zn257 2.028 . S
O258 C264 1.247 . S
O259 Zn255 2.035 . S
O259 C264 1.258 . S
O260 C253 1.247 . S
O260 Zn257 2.028 . S
O261 C253 1.258 . S
O261 Zn255 2.035 . S
O262 Zn255 2.028 . S
O262 C265 1.247 . S
O263 Zn257 2.035 . S
O263 C265 1.258 . S
C264 O258 1.247 . S
C264 O259 1.258 . S
C265 O262 1.247 . S
C265 O263 1.258 . S
C266 O268 1.247 . S
C266 O270 1.258 . S
C267 O274 1.247 . S
C267 O275 1.258 . S
O268 C266 1.247 . S
O268 Zn269 2.028 . S
Zn269 O268 2.028 . S
Zn269 O273 2.035 . S
Zn269 O275 2.035 . S
Zn269 O276 2.028 . S
O270 C266 1.258 . S
O270 Zn271 2.035 . S
Zn271 O270 2.035 . S
Zn271 O272 2.028 . S
Zn271 O274 2.028 . S
Zn271 O277 2.035 . S
O272 Zn271 2.028 . S
O272 C278 1.247 . S
O273 Zn269 2.035 . S
O273 C278 1.258 . S
O274 C267 1.247 . S
O274 Zn271 2.028 . S
O275 C267 1.258 . S
O275 Zn269 2.035 . S
O276 Zn269 2.028 . S
O276 C279 1.247 . S
O277 Zn271 2.035 . S
O277 C279 1.258 . S
C278 O272 1.247 . S
C278 O273 1.258 . S
C279 O276 1.247 . S
C279 O277 1.258 . S
C280 O282 1.247 . S
C280 O284 1.258 . S
C281 O288 1.247 . S
C281 O289 1.258 . S
O282 C280 1.247 . S
O282 Zn283 2.028 . S
Zn283 O282 2.028 . S
Zn283 O287 2.035 . S
Zn283 O289 2.035 . S
Zn283 O290 2.028 . S
O284 C280 1.258 . S
O284 Zn285 2.035 . S
Zn285 O284 2.035 . S
Zn285 O286 2.028 . S
Zn285 O288 2.028 . S
Zn285 O291 2.035 . S
O286 Zn285 2.028 . S
O286 C292 1.247 . S
O287 Zn283 2.035 . S
O287 C292 1.258 . S
O288 C281 1.247 . S
O288 Zn285 2.028 . S
O289 C281 1.258 . S
O289 Zn283 2.035 . S
O290 Zn283 2.028 . S
O290 C293 1.247 . S
O291 Zn285 2.035 . S
O291 C293 1.258 . S
C292 O286 1.247 . S
C292 O287 1.258 . S
C293 O290 1.247 . S
C293 O291 1.258 . S
C294 O296 1.247 . S
C294 O298 1.258 . S
C295 O302 1.247 . S
C295 O303 1.258 . S
O296 C294 1.247 . S
O296 Zn297 2.028 . S
Zn297 O296 2.028 . S
Zn297 O301 2.035 . S
Zn297 O303 2.035 . S
Zn297 O304 2.028 . S
O298 C294 1.258 . S
O298 Zn299 2.035 . S
Zn299 O298 2.035 . S
Zn299 O300 2.028 . S
Zn299 O302 2.028 . S
Zn299 O305 2.035 . S
O300 Zn299 2.028 . S
O300 C306 1.247 . S
O301 Zn297 2.035 . S
O301 C306 1.258 . S
O302 C295 1.247 . S
O302 Zn299 2.028 . S
O303 C295 1.258 . S
O303 Zn297 2.035 . S
O304 Zn297 2.028 . S
O304 C307 1.247 . S
O305 Zn299 2.035 . S
O305 C307 1.258 . S
C306 O300 1.247 . S
C306 O301 1.258 . S
C307 O304 1.247 . S
C307 O305 1.258 . S
C308 O310 1.247 . S
C308 O312 1.258 . S
C309 O316 1.247 . S
C309 O317 1.258 . S
O310 C308 1.247 . S
O310 Zn311 2.028 . S
Zn311 O310 2.028 . S
Zn311 O315 2.035 . S
Zn311 O317 2.035 . S
Zn311 O318 2.028 . S
O312 C308 1.258 . S
O312 Zn313 2.035 . S
Zn313 O312 2.035 . S
Zn313 O314 2.028 . S
Zn313 O316 2.028 . S
Zn313 O319 2.035 . S
O314 Zn313 2.028 . S
O314 C320 1.247 . S
O315 Zn311 2.035 . S
O315 C320 1.258 . S
O316 C309 1.247 . S
O316 Zn313 2.028 . S
O317 C309 1.258 . S
O317 Zn311 2.035 . S
O318 Zn311 2.028 . S
O318 C321 1.247 . S
O319 Zn313 2.035 . S
O319 C321 1.258 . S
C320 O314 1.247 . S
C320 O315 1.258 . S
C321 O318 1.247 . S
C321 O319 1.258 . S
C322 O324 1.247 . S
C322 O326 1.258 . S
C323 O330 1.247 . S
C323 O331 1.258 . S
O324 C322 1.247 . S
O324 Zn325 2.028 . S
Zn325 O324 2.028 . S
Zn325 O329 2.035 . S
Zn325 O331 2.035 . S
Zn325 O332 2.028 . S
O326 C322 1.258 . S
O326 Zn327 2.035 . S
Zn327 O326 2.035 . S
Zn327 O328 2.028 . S
Zn327 O330 2.028 . S
Zn327 O333 2.035 . S
O328 Zn327 2.028 . S
O328 C334 1.247 . S
O329 Zn325 2.035 . S
O329 C334 1.258 . S
O330 C323 1.247 . S
O330 Zn327 2.028 . S
O331 C323 1.258 . S
O331 Zn325 2.035 . S
O332 Zn325 2.028 . S
O332 C335 1.247 . S
O333 Zn327 2.035 . S
O333 C335 1.258 . S
C334 O328 1.247 . S
C334 O329 1.258 . S
C335 O332 1.247 . S
C335 O333 1.258 . S
C336 C337 1.391 . S
C336 C338 1.394 . S
C336 H352 0.931 . S
C337 C336 1.391 . S
C337 C341 1.376 . S
C338 C336 1.394 . S
C338 C339 1.369 . S
C338 C342 1.531 . S
C339 C338 1.369 . S
C339 C340 1.410 . S
C339 C347 1.503 . S
C340 C339 1.410 . S
C340 C341 1.392 . S
C340 C343 1.511 . S
C341 C337 1.376 . S
C341 C340 1.392 . S
C341 H353 0.929 . S
C342 C338 1.531 . S
C342 H354 0.960 . S
C342 H355 0.962 . S
C342 H356 0.960 . S
C343 C340 1.511 . S
C343 H357 0.961 . S
C343 H358 0.961 . S
C343 H359 0.961 . S
C344 C345 1.370 . S
C344 C346 1.363 . S
C344 H360 0.931 . S
C345 C344 1.370 . S
C345 C349 1.408 . S
C346 C344 1.363 . S
C346 C347 1.370 . S
C346 C350 1.524 . S
C347 C339 1.503 . S
C347 C346 1.370 . S
C347 C348 1.403 . S
C348 C347 1.403 . S
C348 C349 1.404 . S
C348 C351 1.539 . S
C349 C345 1.408 . S
C349 C348 1.404 . S
C349 H361 0.930 . S
C350 C346 1.524 . S
C350 H362 0.956 . S
C350 H363 0.961 . S
C350 H364 0.961 . S
C351 C348 1.539 . S
C351 H365 0.958 . S
C351 H366 0.961 . S
C351 H367 0.960 . S
H352 C336 0.931 . S
H353 C341 0.929 . S
H354 C342 0.960 . S
H355 C342 0.962 . S
H356 C342 0.960 . S
H357 C343 0.961 . S
H358 C343 0.961 . S
H359 C343 0.961 . S
H360 C344 0.931 . S
H361 C349 0.930 . S
H362 C350 0.956 . S
H363 C350 0.961 . S
H364 C350 0.961 . S
H365 C351 0.958 . S
H366 C351 0.961 . S
H367 C351 0.960 . S
C368 C369 1.391 . S
C368 C370 1.394 . S
C368 H384 0.931 . S
C369 C368 1.391 . S
C369 C373 1.376 . S
C370 C368 1.394 . S
C370 C371 1.369 . S
C370 C374 1.531 . S
C371 C370 1.369 . S
C371 C372 1.410 . S
C371 C379 1.503 . S
C372 C371 1.410 . S
C372 C373 1.392 . S
C372 C375 1.511 . S
C373 C369 1.376 . S
C373 C372 1.392 . S
C373 H385 0.929 . S
C374 C370 1.531 . S
C374 H386 0.960 . S
C374 H387 0.962 . S
C374 H388 0.960 . S
C375 C372 1.511 . S
C375 H389 0.961 . S
C375 H390 0.961 . S
C375 H391 0.961 . S
C376 C377 1.370 . S
C376 C378 1.363 . S
C376 H392 0.931 . S
C377 C376 1.370 . S
C377 C381 1.408 . S
C378 C376 1.363 . S
C378 C379 1.370 . S
C378 C382 1.524 . S
C379 C371 1.503 . S
C379 C378 1.370 . S
C379 C380 1.403 . S
C380 C379 1.403 . S
C380 C381 1.404 . S
C380 C383 1.539 . S
C381 C377 1.408 . S
C381 C380 1.404 . S
C381 H393 0.930 . S
C382 C378 1.524 . S
C382 H394 0.956 . S
C382 H395 0.961 . S
C382 H396 0.961 . S
C383 C380 1.539 . S
C383 H397 0.958 . S
C383 H398 0.961 . S
C383 H399 0.960 . S
H384 C368 0.931 . S
H385 C373 0.929 . S
H386 C374 0.960 . S
H387 C374 0.962 . S
H388 C374 0.960 . S
H389 C375 0.961 . S
H390 C375 0.961 . S
H391 C375 0.961 . S
H392 C376 0.931 . S
H393 C381 0.930 . S
H394 C382 0.956 . S
H395 C382 0.961 . S
H396 C382 0.961 . S
H397 C383 0.958 . S
H398 C383 0.961 . S
H399 C383 0.960 . S
C400 C401 1.391 . S
C400 C402 1.394 . S
C400 H416 0.931 . S
C401 C400 1.391 . S
C401 C405 1.376 . S
C402 C400 1.394 . S
C402 C403 1.369 . S
C402 C406 1.531 . S
C403 C402 1.369 . S
C403 C404 1.410 . S
C403 C411 1.503 . S
C404 C403 1.410 . S
C404 C405 1.392 . S
C404 C407 1.511 . S
C405 C401 1.376 . S
C405 C404 1.392 . S
C405 H417 0.929 . S
C406 C402 1.531 . S
C406 H418 0.960 . S
C406 H419 0.962 . S
C406 H420 0.960 . S
C407 C404 1.511 . S
C407 H421 0.961 . S
C407 H422 0.961 . S
C407 H423 0.961 . S
C408 C409 1.370 . S
C408 C410 1.363 . S
C408 H424 0.931 . S
C409 C408 1.370 . S
C409 C413 1.408 . S
C410 C408 1.363 . S
C410 C411 1.370 . S
C410 C414 1.524 . S
C411 C403 1.503 . S
C411 C410 1.370 . S
C411 C412 1.403 . S
C412 C411 1.403 . S
C412 C413 1.404 . S
C412 C415 1.539 . S
C413 C409 1.408 . S
C413 C412 1.404 . S
C413 H425 0.930 . S
C414 C410 1.524 . S
C414 H426 0.956 . S
C414 H427 0.961 . S
C414 H428 0.961 . S
C415 C412 1.539 . S
C415 H429 0.958 . S
C415 H430 0.961 . S
C415 H431 0.960 . S
H416 C400 0.931 . S
H417 C405 0.929 . S
H418 C406 0.960 . S
H419 C406 0.962 . S
H420 C406 0.960 . S
H421 C407 0.961 . S
H422 C407 0.961 . S
H423 C407 0.961 . S
H424 C408 0.931 . S
H425 C413 0.930 . S
H426 C414 0.956 . S
H427 C414 0.961 . S
H428 C414 0.961 . S
H429 C415 0.958 . S
H430 C415 0.961 . S
H431 C415 0.960 . S
C432 C433 1.391 . S
C432 C434 1.394 . S
C432 H448 0.931 . S
C433 C432 1.391 . S
C433 C437 1.376 . S
C434 C432 1.394 . S
C434 C435 1.369 . S
C434 C438 1.531 . S
C435 C434 1.369 . S
C435 C436 1.410 . S
C435 C443 1.503 . S
C436 C435 1.410 . S
C436 C437 1.392 . S
C436 C439 1.511 . S
C437 C433 1.376 . S
C437 C436 1.392 . S
C437 H449 0.929 . S
C438 C434 1.531 . S
C438 H450 0.960 . S
C438 H451 0.962 . S
C438 H452 0.960 . S
C439 C436 1.511 . S
C439 H453 0.961 . S
C439 H454 0.961 . S
C439 H455 0.961 . S
C440 C441 1.370 . S
C440 C442 1.363 . S
C440 H456 0.931 . S
C441 C440 1.370 . S
C441 C445 1.408 . S
C442 C440 1.363 . S
C442 C443 1.370 . S
C442 C446 1.524 . S
C443 C435 1.503 . S
C443 C442 1.370 . S
C443 C444 1.403 . S
C444 C443 1.403 . S
C444 C445 1.404 . S
C444 C447 1.539 . S
C445 C441 1.408 . S
C445 C444 1.404 . S
C445 H457 0.930 . S
C446 C442 1.524 . S
C446 H458 0.956 . S
C446 H459 0.961 . S
C446 H460 0.961 . S
C447 C444 1.539 . S
C447 H461 0.958 . S
C447 H462 0.961 . S
C447 H463 0.960 . S
H448 C432 0.931 . S
H449 C437 0.929 . S
H450 C438 0.960 . S
H451 C438 0.962 . S
H452 C438 0.960 . S
H453 C439 0.961 . S
H454 C439 0.961 . S
H455 C439 0.961 . S
H456 C440 0.931 . S
H457 C445 0.930 . S
H458 C446 0.956 . S
H459 C446 0.961 . S
H460 C446 0.961 . S
H461 C447 0.958 . S
H462 C447 0.961 . S
H463 C447 0.960 . S
C464 C465 1.391 . S
C464 C466 1.394 . S
C464 H480 0.931 . S
C465 C464 1.391 . S
C465 C469 1.376 . S
C466 C464 1.394 . S
C466 C467 1.369 . S
C466 C470 1.531 . S
C467 C466 1.369 . S
C467 C468 1.410 . S
C467 C475 1.503 . S
C468 C467 1.410 . S
C468 C469 1.392 . S
C468 C471 1.511 . S
C469 C465 1.376 . S
C469 C468 1.392 . S
C469 H481 0.929 . S
C470 C466 1.531 . S
C470 H482 0.960 . S
C470 H483 0.962 . S
C470 H484 0.960 . S
C471 C468 1.511 . S
C471 H485 0.961 . S
C471 H486 0.961 . S
C471 H487 0.961 . S
C472 C473 1.370 . S
C472 C474 1.363 . S
C472 H488 0.931 . S
C473 C472 1.370 . S
C473 C477 1.408 . S
C474 C472 1.363 . S
C474 C475 1.370 . S
C474 C478 1.524 . S
C475 C467 1.503 . S
C475 C474 1.370 . S
C475 C476 1.403 . S
C476 C475 1.403 . S
C476 C477 1.404 . S
C476 C479 1.539 . S
C477 C473 1.408 . S
C477 C476 1.404 . S
C477 H489 0.930 . S
C478 C474 1.524 . S
C478 H490 0.956 . S
C478 H491 0.961 . S
C478 H492 0.961 . S
C479 C476 1.539 . S
C479 H493 0.958 . S
C479 H494 0.961 . S
C479 H495 0.960 . S
H480 C464 0.931 . S
H481 C469 0.929 . S
H482 C470 0.960 . S
H483 C470 0.962 . S
H484 C470 0.960 . S
H485 C471 0.961 . S
H486 C471 0.961 . S
H487 C471 0.961 . S
H488 C472 0.931 . S
H489 C477 0.930 . S
H490 C478 0.956 . S
H491 C478 0.961 . S
H492 C478 0.961 . S
H493 C479 0.958 . S
H494 C479 0.961 . S
H495 C479 0.960 . S
C496 C497 1.391 . S
C496 C498 1.394 . S
C496 H512 0.931 . S
C497 C496 1.391 . S
C497 C501 1.376 . S
C498 C496 1.394 . S
C498 C499 1.369 . S
C498 C502 1.531 . S
C499 C498 1.369 . S
C499 C500 1.410 . S
C499 C507 1.503 . S
C500 C499 1.410 . S
C500 C501 1.392 . S
C500 C503 1.511 . S
C501 C497 1.376 . S
C501 C500 1.392 . S
C501 H513 0.929 . S
C502 C498 1.531 . S
C502 H514 0.960 . S
C502 H515 0.962 . S
C502 H516 0.960 . S
C503 C500 1.511 . S
C503 H517 0.961 . S
C503 H518 0.961 . S
C503 H519 0.961 . S
C504 C505 1.370 . S
C504 C506 1.363 . S
C504 H520 0.931 . S
C505 C504 1.370 . S
C505 C509 1.408 . S
C506 C504 1.363 . S
C506 C507 1.370 . S
C506 C510 1.524 . S
C507 C499 1.503 . S
C507 C506 1.370 . S
C507 C508 1.403 . S
C508 C507 1.403 . S
C508 C509 1.404 . S
C508 C511 1.539 . S
C509 C505 1.408 . S
C509 C508 1.404 . S
C509 H521 0.930 . S
C510 C506 1.524 . S
C510 H522 0.956 . S
C510 H523 0.961 . S
C510 H524 0.961 . S
C511 C508 1.539 . S
C511 H525 0.958 . S
C511 H526 0.961 . S
C511 H527 0.960 . S
H512 C496 0.931 . S
H513 C501 0.929 . S
H514 C502 0.960 . S
H515 C502 0.962 . S
H516 C502 0.960 . S
H517 C503 0.961 . S
H518 C503 0.961 . S
H519 C503 0.961 . S
H520 C504 0.931 . S
H521 C509 0.930 . S
H522 C510 0.956 . S
H523 C510 0.961 . S
H524 C510 0.961 . S
H525 C511 0.958 . S
H526 C511 0.961 . S
H527 C511 0.960 . S
C528 C529 1.391 . S
C528 C530 1.394 . S
C528 H544 0.931 . S
C529 C528 1.391 . S
C529 C533 1.376 . S
C530 C528 1.394 . S
C530 C531 1.369 . S
C530 C534 1.531 . S
C531 C530 1.369 . S
C531 C532 1.410 . S
C531 C539 1.503 . S
C532 C531 1.410 . S
C532 C533 1.392 . S
C532 C535 1.511 . S
C533 C529 1.376 . S
C533 C532 1.392 . S
C533 H545 0.929 . S
C534 C530 1.531 . S
C534 H546 0.960 . S
C534 H547 0.962 . S
C534 H548 0.960 . S
C535 C532 1.511 . S
C535 H549 0.961 . S
C535 H550 0.961 . S
C535 H551 0.961 . S
C536 C537 1.370 . S
C536 C538 1.363 . S
C536 H552 0.931 . S
C537 C536 1.370 . S
C537 C541 1.408 . S
C538 C536 1.363 . S
C538 C539 1.370 . S
C538 C542 1.524 . S
C539 C531 1.503 . S
C539 C538 1.370 . S
C539 C540 1.403 . S
C540 C539 1.403 . S
C540 C541 1.404 . S
C540 C543 1.539 . S
C541 C537 1.408 . S
C541 C540 1.404 . S
C541 H553 0.930 . S
C542 C538 1.524 . S
C542 H554 0.956 . S
C542 H555 0.961 . S
C542 H556 0.961 . S
C543 C540 1.539 . S
C543 H557 0.958 . S
C543 H558 0.961 . S
C543 H559 0.960 . S
H544 C528 0.931 . S
H545 C533 0.929 . S
H546 C534 0.960 . S
H547 C534 0.962 . S
H548 C534 0.960 . S
H549 C535 0.961 . S
H550 C535 0.961 . S
H551 C535 0.961 . S
H552 C536 0.931 . S
H553 C541 0.930 . S
H554 C542 0.956 . S
H555 C542 0.961 . S
H556 C542 0.961 . S
H557 C543 0.958 . S
H558 C543 0.961 . S
H559 C543 0.960 . S
C560 C561 1.391 . S
C560 C562 1.394 . S
C560 H576 0.931 . S
C561 C560 1.391 . S
C561 C565 1.376 . S
C562 C560 1.394 . S
C562 C563 1.369 . S
C562 C566 1.531 . S
C563 C562 1.369 . S
C563 C564 1.410 . S
C563 C571 1.503 . S
C564 C563 1.410 . S
C564 C565 1.392 . S
C564 C567 1.511 . S
C565 C561 1.376 . S
C565 C564 1.392 . S
C565 H577 0.929 . S
C566 C562 1.531 . S
C566 H578 0.960 . S
C566 H579 0.962 . S
C566 H580 0.960 . S
C567 C564 1.511 . S
C567 H581 0.961 . S
C567 H582 0.961 . S
C567 H583 0.961 . S
C568 C569 1.370 . S
C568 C570 1.363 . S
C568 H584 0.931 . S
C569 C568 1.370 . S
C569 C573 1.408 . S
C570 C568 1.363 . S
C570 C571 1.370 . S
C570 C574 1.524 . S
C571 C563 1.503 . S
C571 C570 1.370 . S
C571 C572 1.403 . S
C572 C571 1.403 . S
C572 C573 1.404 . S
C572 C575 1.539 . S
C573 C569 1.408 . S
C573 C572 1.404 . S
C573 H585 0.930 . S
C574 C570 1.524 . S
C574 H586 0.956 . S
C574 H587 0.961 . S
C574 H588 0.961 . S
C575 C572 1.539 . S
C575 H589 0.958 . S
C575 H590 0.961 . S
C575 H591 0.960 . S
H576 C560 0.931 . S
H577 C565 0.929 . S
H578 C566 0.960 . S
H579 C566 0.962 . S
H580 C566 0.960 . S
H581 C567 0.961 . S
H582 C567 0.961 . S
H583 C567 0.961 . S
H584 C568 0.931 . S
H585 C573 0.930 . S
H586 C574 0.956 . S
H587 C574 0.961 . S
H588 C574 0.961 . S
H589 C575 0.958 . S
H590 C575 0.961 . S
H591 C575 0.960 . S
C592 C593 1.391 . S
C592 C594 1.394 . S
C592 H608 0.931 . S
C593 C592 1.391 . S
C593 C597 1.376 . S
C594 C592 1.394 . S
C594 C595 1.369 . S
C594 C598 1.531 . S
C595 C594 1.369 . S
C595 C596 1.410 . S
C595 C603 1.503 . S
C596 C595 1.410 . S
C596 C597 1.392 . S
C596 C599 1.511 . S
C597 C593 1.376 . S
C597 C596 1.392 . S
C597 H609 0.929 . S
C598 C594 1.531 . S
C598 H610 0.960 . S
C598 H611 0.962 . S
C598 H612 0.960 . S
C599 C596 1.511 . S
C599 H613 0.961 . S
C599 H614 0.961 . S
C599 H615 0.961 . S
C600 C601 1.370 . S
C600 C602 1.363 . S
C600 H616 0.931 . S
C601 C600 1.370 . S
C601 C605 1.408 . S
C602 C600 1.363 . S
C602 C603 1.370 . S
C602 C606 1.524 . S
C603 C595 1.503 . S
C603 C602 1.370 . S
C603 C604 1.403 . S
C604 C603 1.403 . S
C604 C605 1.404 . S
C604 C607 1.539 . S
C605 C601 1.408 . S
C605 C604 1.404 . S
C605 H617 0.930 . S
C606 C602 1.524 . S
C606 H618 0.956 . S
C606 H619 0.961 . S
C606 H620 0.961 . S
C607 C604 1.539 . S
C607 H621 0.958 . S
C607 H622 0.961 . S
C607 H623 0.960 . S
H608 C592 0.931 . S
H609 C597 0.929 . S
H610 C598 0.960 . S
H611 C598 0.962 . S
H612 C598 0.960 . S
H613 C599 0.961 . S
H614 C599 0.961 . S
H615 C599 0.961 . S
H616 C600 0.931 . S
H617 C605 0.930 . S
H618 C606 0.956 . S
H619 C606 0.961 . S
H620 C606 0.961 . S
H621 C607 0.958 . S
H622 C607 0.961 . S
H623 C607 0.960 . S
C624 C625 1.391 . S
C624 C626 1.394 . S
C624 H640 0.931 . S
C625 C624 1.391 . S
C625 C629 1.376 . S
C626 C624 1.394 . S
C626 C627 1.369 . S
C626 C630 1.531 . S
C627 C626 1.369 . S
C627 C628 1.410 . S
C627 C635 1.503 . S
C628 C627 1.410 . S
C628 C629 1.392 . S
C628 C631 1.511 . S
C629 C625 1.376 . S
C629 C628 1.392 . S
C629 H641 0.929 . S
C630 C626 1.531 . S
C630 H642 0.960 . S
C630 H643 0.962 . S
C630 H644 0.960 . S
C631 C628 1.511 . S
C631 H645 0.961 . S
C631 H646 0.961 . S
C631 H647 0.961 . S
C632 C633 1.370 . S
C632 C634 1.363 . S
C632 H648 0.931 . S
C633 C632 1.370 . S
C633 C637 1.408 . S
C634 C632 1.363 . S
C634 C635 1.370 . S
C634 C638 1.524 . S
C635 C627 1.503 . S
C635 C634 1.370 . S
C635 C636 1.403 . S
C636 C635 1.403 . S
C636 C637 1.404 . S
C636 C639 1.539 . S
C637 C633 1.408 . S
C637 C636 1.404 . S
C637 H649 0.930 . S
C638 C634 1.524 . S
C638 H650 0.956 . S
C638 H651 0.961 . S
C638 H652 0.961 . S
C639 C636 1.539 . S
C639 H653 0.958 . S
C639 H654 0.961 . S
C639 H655 0.960 . S
H640 C624 0.931 . S
H641 C629 0.929 . S
H642 C630 0.960 . S
H643 C630 0.962 . S
H644 C630 0.960 . S
H645 C631 0.961 . S
H646 C631 0.961 . S
H647 C631 0.961 . S
H648 C632 0.931 . S
H649 C637 0.930 . S
H650 C638 0.956 . S
H651 C638 0.961 . S
H652 C638 0.961 . S
H653 C639 0.958 . S
H654 C639 0.961 . S
H655 C639 0.960 . S
C656 C657 1.391 . S
C656 C658 1.394 . S
C656 H672 0.931 . S
C657 C656 1.391 . S
C657 C661 1.376 . S
C658 C656 1.394 . S
C658 C659 1.369 . S
C658 C662 1.531 . S
C659 C658 1.369 . S
C659 C660 1.410 . S
C659 C667 1.503 . S
C660 C659 1.410 . S
C660 C661 1.392 . S
C660 C663 1.511 . S
C661 C657 1.376 . S
C661 C660 1.392 . S
C661 H673 0.929 . S
C662 C658 1.531 . S
C662 H674 0.960 . S
C662 H675 0.962 . S
C662 H676 0.960 . S
C663 C660 1.511 . S
C663 H677 0.961 . S
C663 H678 0.961 . S
C663 H679 0.961 . S
C664 C665 1.370 . S
C664 C666 1.363 . S
C664 H680 0.931 . S
C665 C664 1.370 . S
C665 C669 1.408 . S
C666 C664 1.363 . S
C666 C667 1.370 . S
C666 C670 1.524 . S
C667 C659 1.503 . S
C667 C666 1.370 . S
C667 C668 1.403 . S
C668 C667 1.403 . S
C668 C669 1.404 . S
C668 C671 1.539 . S
C669 C665 1.408 . S
C669 C668 1.404 . S
C669 H681 0.930 . S
C670 C666 1.524 . S
C670 H682 0.956 . S
C670 H683 0.961 . S
C670 H684 0.961 . S
C671 C668 1.539 . S
C671 H685 0.958 . S
C671 H686 0.961 . S
C671 H687 0.960 . S
H672 C656 0.931 . S
H673 C661 0.929 . S
H674 C662 0.960 . S
H675 C662 0.962 . S
H676 C662 0.960 . S
H677 C663 0.961 . S
H678 C663 0.961 . S
H679 C663 0.961 . S
H680 C664 0.931 . S
H681 C669 0.930 . S
H682 C670 0.956 . S
H683 C670 0.961 . S
H684 C670 0.961 . S
H685 C671 0.958 . S
H686 C671 0.961 . S
H687 C671 0.960 . S
C688 C689 1.391 . S
C688 C690 1.394 . S
C688 H704 0.931 . S
C689 C688 1.391 . S
C689 C693 1.376 . S
C690 C688 1.394 . S
C690 C691 1.369 . S
C690 C694 1.531 . S
C691 C690 1.369 . S
C691 C692 1.410 . S
C691 C699 1.503 . S
C692 C691 1.410 . S
C692 C693 1.392 . S
C692 C695 1.511 . S
C693 C689 1.376 . S
C693 C692 1.392 . S
C693 H705 0.929 . S
C694 C690 1.531 . S
C694 H706 0.960 . S
C694 H707 0.962 . S
C694 H708 0.960 . S
C695 C692 1.511 . S
C695 H709 0.961 . S
C695 H710 0.961 . S
C695 H711 0.961 . S
C696 C697 1.370 . S
C696 C698 1.363 . S
C696 H712 0.931 . S
C697 C696 1.370 . S
C697 C701 1.408 . S
C698 C696 1.363 . S
C698 C699 1.370 . S
C698 C702 1.524 . S
C699 C691 1.503 . S
C699 C698 1.370 . S
C699 C700 1.403 . S
C700 C699 1.403 . S
C700 C701 1.404 . S
C700 C703 1.539 . S
C701 C697 1.408 . S
C701 C700 1.404 . S
C701 H713 0.930 . S
C702 C698 1.524 . S
C702 H714 0.956 . S
C702 H715 0.961 . S
C702 H716 0.961 . S
C703 C700 1.539 . S
C703 H717 0.958 . S
C703 H718 0.961 . S
C703 H719 0.960 . S
H704 C688 0.931 . S
H705 C693 0.929 . S
H706 C694 0.960 . S
H707 C694 0.962 . S
H708 C694 0.960 . S
H709 C695 0.961 . S
H710 C695 0.961 . S
H711 C695 0.961 . S
H712 C696 0.931 . S
H713 C701 0.930 . S
H714 C702 0.956 . S
H715 C702 0.961 . S
H716 C702 0.961 . S
H717 C703 0.958 . S
H718 C703 0.961 . S
H719 C703 0.960 . S
C720 C721 1.391 . S
C720 C722 1.394 . S
C720 H736 0.931 . S
C721 C720 1.391 . S
C721 C725 1.376 . S
C722 C720 1.394 . S
C722 C723 1.369 . S
C722 C726 1.531 . S
C723 C722 1.369 . S
C723 C724 1.410 . S
C723 C731 1.503 . S
C724 C723 1.410 . S
C724 C725 1.392 . S
C724 C727 1.511 . S
C725 C721 1.376 . S
C725 C724 1.392 . S
C725 H737 0.929 . S
C726 C722 1.531 . S
C726 H738 0.960 . S
C726 H739 0.962 . S
C726 H740 0.960 . S
C727 C724 1.511 . S
C727 H741 0.961 . S
C727 H742 0.961 . S
C727 H743 0.961 . S
C728 C729 1.370 . S
C728 C730 1.363 . S
C728 H744 0.931 . S
C729 C728 1.370 . S
C729 C733 1.408 . S
C730 C728 1.363 . S
C730 C731 1.370 . S
C730 C734 1.524 . S
C731 C723 1.503 . S
C731 C730 1.370 . S
C731 C732 1.403 . S
C732 C731 1.403 . S
C732 C733 1.404 . S
C732 C735 1.539 . S
C733 C729 1.408 . S
C733 C732 1.404 . S
C733 H745 0.930 . S
C734 C730 1.524 . S
C734 H746 0.956 . S
C734 H747 0.961 . S
C734 H748 0.961 . S
C735 C732 1.539 . S
C735 H749 0.958 . S
C735 H750 0.961 . S
C735 H751 0.960 . S
H736 C720 0.931 . S
H737 C725 0.929 . S
H738 C726 0.960 . S
H739 C726 0.962 . S
H740 C726 0.960 . S
H741 C727 0.961 . S
H742 C727 0.961 . S
H743 C727 0.961 . S
H744 C728 0.931 . S
H745 C733 0.930 . S
H746 C734 0.956 . S
H747 C734 0.961 . S
H748 C734 0.961 . S
H749 C735 0.958 . S
H750 C735 0.961 . S
H751 C735 0.960 . S
C752 C753 1.391 . S
C752 C754 1.394 . S
C752 H768 0.931 . S
C753 C752 1.391 . S
C753 C757 1.376 . S
C754 C752 1.394 . S
C754 C755 1.369 . S
C754 C758 1.531 . S
C755 C754 1.369 . S
C755 C756 1.410 . S
C755 C763 1.503 . S
C756 C755 1.410 . S
C756 C757 1.392 . S
C756 C759 1.511 . S
C757 C753 1.376 . S
C757 C756 1.392 . S
C757 H769 0.929 . S
C758 C754 1.531 . S
C758 H770 0.960 . S
C758 H771 0.962 . S
C758 H772 0.960 . S
C759 C756 1.511 . S
C759 H773 0.961 . S
C759 H774 0.961 . S
C759 H775 0.961 . S
C760 C761 1.370 . S
C760 C762 1.363 . S
C760 H776 0.931 . S
C761 C760 1.370 . S
C761 C765 1.408 . S
C762 C760 1.363 . S
C762 C763 1.370 . S
C762 C766 1.524 . S
C763 C755 1.503 . S
C763 C762 1.370 . S
C763 C764 1.403 . S
C764 C763 1.403 . S
C764 C765 1.404 . S
C764 C767 1.539 . S
C765 C761 1.408 . S
C765 C764 1.404 . S
C765 H777 0.930 . S
C766 C762 1.524 . S
C766 H778 0.956 . S
C766 H779 0.961 . S
C766 H780 0.961 . S
C767 C764 1.539 . S
C767 H781 0.958 . S
C767 H782 0.961 . S
C767 H783 0.960 . S
H768 C752 0.931 . S
H769 C757 0.929 . S
H770 C758 0.960 . S
H771 C758 0.962 . S
H772 C758 0.960 . S
H773 C759 0.961 . S
H774 C759 0.961 . S
H775 C759 0.961 . S
H776 C760 0.931 . S
H777 C765 0.930 . S
H778 C766 0.956 . S
H779 C766 0.961 . S
H780 C766 0.961 . S
H781 C767 0.958 . S
H782 C767 0.961 . S
H783 C767 0.960 . S
C784 C785 1.391 . S
C784 C786 1.394 . S
C784 H800 0.931 . S
C785 C784 1.391 . S
C785 C789 1.376 . S
C786 C784 1.394 . S
C786 C787 1.369 . S
C786 C790 1.531 . S
C787 C786 1.369 . S
C787 C788 1.410 . S
C787 C795 1.503 . S
C788 C787 1.410 . S
C788 C789 1.392 . S
C788 C791 1.511 . S
C789 C785 1.376 . S
C789 C788 1.392 . S
C789 H801 0.929 . S
C790 C786 1.531 . S
C790 H802 0.960 . S
C790 H803 0.962 . S
C790 H804 0.960 . S
C791 C788 1.511 . S
C791 H805 0.961 . S
C791 H806 0.961 . S
C791 H807 0.961 . S
C792 C793 1.370 . S
C792 C794 1.363 . S
C792 H808 0.931 . S
C793 C792 1.370 . S
C793 C797 1.408 . S
C794 C792 1.363 . S
C794 C795 1.370 . S
C794 C798 1.524 . S
C795 C787 1.503 . S
C795 C794 1.370 . S
C795 C796 1.403 . S
C796 C795 1.403 . S
C796 C797 1.404 . S
C796 C799 1.539 . S
C797 C793 1.408 . S
C797 C796 1.404 . S
C797 H809 0.930 . S
C798 C794 1.524 . S
C798 H810 0.956 . S
C798 H811 0.961 . S
C798 H812 0.961 . S
C799 C796 1.539 . S
C799 H813 0.958 . S
C799 H814 0.961 . S
C799 H815 0.960 . S
H800 C784 0.931 . S
H801 C789 0.929 . S
H802 C790 0.960 . S
H803 C790 0.962 . S
H804 C790 0.960 . S
H805 C791 0.961 . S
H806 C791 0.961 . S
H807 C791 0.961 . S
H808 C792 0.931 . S
H809 C797 0.930 . S
H810 C798 0.956 . S
H811 C798 0.961 . S
H812 C798 0.961 . S
H813 C799 0.958 . S
H814 C799 0.961 . S
H815 C799 0.960 . S
C816 C817 1.391 . S
C816 C818 1.394 . S
C816 H832 0.931 . S
C817 C816 1.391 . S
C817 C821 1.376 . S
C818 C816 1.394 . S
C818 C819 1.369 . S
C818 C822 1.531 . S
C819 C818 1.369 . S
C819 C820 1.410 . S
C819 C827 1.503 . S
C820 C819 1.410 . S
C820 C821 1.392 . S
C820 C823 1.511 . S
C821 C817 1.376 . S
C821 C820 1.392 . S
C821 H833 0.929 . S
C822 C818 1.531 . S
C822 H834 0.960 . S
C822 H835 0.962 . S
C822 H836 0.960 . S
C823 C820 1.511 . S
C823 H837 0.961 . S
C823 H838 0.961 . S
C823 H839 0.961 . S
C824 C825 1.370 . S
C824 C826 1.363 . S
C824 H840 0.931 . S
C825 C824 1.370 . S
C825 C829 1.408 . S
C826 C824 1.363 . S
C826 C827 1.370 . S
C826 C830 1.524 . S
C827 C819 1.503 . S
C827 C826 1.370 . S
C827 C828 1.403 . S
C828 C827 1.403 . S
C828 C829 1.404 . S
C828 C831 1.539 . S
C829 C825 1.408 . S
C829 C828 1.404 . S
C829 H841 0.930 . S
C830 C826 1.524 . S
C830 H842 0.956 . S
C830 H843 0.961 . S
C830 H844 0.961 . S
C831 C828 1.539 . S
C831 H845 0.958 . S
C831 H846 0.961 . S
C831 H847 0.960 . S
H832 C816 0.931 . S
H833 C821 0.929 . S
H834 C822 0.960 . S
H835 C822 0.962 . S
H836 C822 0.960 . S
H837 C823 0.961 . S
H838 C823 0.961 . S
H839 C823 0.961 . S
H840 C824 0.931 . S
H841 C829 0.930 . S
H842 C830 0.956 . S
H843 C830 0.961 . S
H844 C830 0.961 . S
H845 C831 0.958 . S
H846 C831 0.961 . S
H847 C831 0.960 . S
C848 C849 1.391 . S
C848 C850 1.394 . S
C848 H864 0.931 . S
C849 C848 1.391 . S
C849 C853 1.376 . S
C850 C848 1.394 . S
C850 C851 1.369 . S
C850 C854 1.531 . S
C851 C850 1.369 . S
C851 C852 1.410 . S
C851 C859 1.503 . S
C852 C851 1.410 . S
C852 C853 1.392 . S
C852 C855 1.511 . S
C853 C849 1.376 . S
C853 C852 1.392 . S
C853 H865 0.929 . S
C854 C850 1.531 . S
C854 H866 0.960 . S
C854 H867 0.962 . S
C854 H868 0.960 . S
C855 C852 1.511 . S
C855 H869 0.961 . S
C855 H870 0.961 . S
C855 H871 0.961 . S
C856 C857 1.370 . S
C856 C858 1.363 . S
C856 H872 0.931 . S
C857 C856 1.370 . S
C857 C861 1.408 . S
C858 C856 1.363 . S
C858 C859 1.370 . S
C858 C862 1.524 . S
C859 C851 1.503 . S
C859 C858 1.370 . S
C859 C860 1.403 . S
C860 C859 1.403 . S
C860 C861 1.404 . S
C860 C863 1.539 . S
C861 C857 1.408 . S
C861 C860 1.404 . S
C861 H873 0.930 . S
C862 C858 1.524 . S
C862 H874 0.956 . S
C862 H875 0.961 . S
C862 H876 0.961 . S
C863 C860 1.539 . S
C863 H877 0.958 . S
C863 H878 0.961 . S
C863 H879 0.960 . S
H864 C848 0.931 . S
H865 C853 0.929 . S
H866 C854 0.960 . S
H867 C854 0.962 . S
H868 C854 0.960 . S
H869 C855 0.961 . S
H870 C855 0.961 . S
H871 C855 0.961 . S
H872 C856 0.931 . S
H873 C861 0.930 . S
H874 C862 0.956 . S
H875 C862 0.961 . S
H876 C862 0.961 . S
H877 C863 0.958 . S
H878 C863 0.961 . S
H879 C863 0.960 . S
C880 C881 1.391 . S
C880 C882 1.394 . S
C880 H896 0.931 . S
C881 C880 1.391 . S
C881 C885 1.376 . S
C882 C880 1.394 . S
C882 C883 1.369 . S
C882 C886 1.531 . S
C883 C882 1.369 . S
C883 C884 1.410 . S
C883 C891 1.503 . S
C884 C883 1.410 . S
C884 C885 1.392 . S
C884 C887 1.511 . S
C885 C881 1.376 . S
C885 C884 1.392 . S
C885 H897 0.929 . S
C886 C882 1.531 . S
C886 H898 0.960 . S
C886 H899 0.962 . S
C886 H900 0.960 . S
C887 C884 1.511 . S
C887 H901 0.961 . S
C887 H902 0.961 . S
C887 H903 0.961 . S
C888 C889 1.370 . S
C888 C890 1.363 . S
C888 H904 0.931 . S
C889 C888 1.370 . S
C889 C893 1.408 . S
C890 C888 1.363 . S
C890 C891 1.370 . S
C890 C894 1.524 . S
C891 C883 1.503 . S
C891 C890 1.370 . S
C891 C892 1.403 . S
C892 C891 1.403 . S
C892 C893 1.404 . S
C892 C895 1.539 . S
C893 C889 1.408 . S
C893 C892 1.404 . S
C893 H905 0.930 . S
C894 C890 1.524 . S
C894 H906 0.956 . S
C894 H907 0.961 . S
C894 H908 0.961 . S
C895 C892 1.539 . S
C895 H909 0.958 . S
C895 H910 0.961 . S
C895 H911 0.960 . S
H896 C880 0.931 . S
H897 C885 0.929 . S
H898 C886 0.960 . S
H899 C886 0.962 . S
H900 C886 0.960 . S
H901 C887 0.961 . S
H902 C887 0.961 . S
H903 C887 0.961 . S
H904 C888 0.931 . S
H905 C893 0.930 . S
H906 C894 0.956 . S
H907 C894 0.961 . S
H908 C894 0.961 . S
H909 C895 0.958 . S
H910 C895 0.961 . S
H911 C895 0.960 . S
C912 C913 1.391 . S
C912 C914 1.394 . S
C912 H928 0.931 . S
C913 C912 1.391 . S
C913 C917 1.376 . S
C914 C912 1.394 . S
C914 C915 1.369 . S
C914 C918 1.531 . S
C915 C914 1.369 . S
C915 C916 1.410 . S
C915 C923 1.503 . S
C916 C915 1.410 . S
C916 C917 1.392 . S
C916 C919 1.511 . S
C917 C913 1.376 . S
C917 C916 1.392 . S
C917 H929 0.929 . S
C918 C914 1.531 . S
C918 H930 0.960 . S
C918 H931 0.962 . S
C918 H932 0.960 . S
C919 C916 1.511 . S
C919 H933 0.961 . S
C919 H934 0.961 . S
C919 H935 0.961 . S
C920 C921 1.370 . S
C920 C922 1.363 . S
C920 H936 0.931 . S
C921 C920 1.370 . S
C921 C925 1.408 . S
C922 C920 1.363 . S
C922 C923 1.370 . S
C922 C926 1.524 . S
C923 C915 1.503 . S
C923 C922 1.370 . S
C923 C924 1.403 . S
C924 C923 1.403 . S
C924 C925 1.404 . S
C924 C927 1.539 . S
C925 C921 1.408 . S
C925 C924 1.404 . S
C925 H937 0.930 . S
C926 C922 1.524 . S
C926 H938 0.956 . S
C926 H939 0.961 . S
C926 H940 0.961 . S
C927 C924 1.539 . S
C927 H941 0.958 . S
C927 H942 0.961 . S
C927 H943 0.960 . S
H928 C912 0.931 . S
H929 C917 0.929 . S
H930 C918 0.960 . S
H931 C918 0.962 . S
H932 C918 0.960 . S
H933 C919 0.961 . S
H934 C919 0.961 . S
H935 C919 0.961 . S
H936 C920 0.931 . S
H937 C925 0.930 . S
H938 C926 0.956 . S
H939 C926 0.961 . S
H940 C926 0.961 . S
H941 C927 0.958 . S
H942 C927 0.961 . S
H943 C927 0.960 . S
C944 C945 1.391 . S
C944 C946 1.394 . S
C944 H960 0.931 . S
C945 C944 1.391 . S
C945 C949 1.376 . S
C946 C944 1.394 . S
C946 C947 1.369 . S
C946 C950 1.531 . S
C947 C946 1.369 . S
C947 C948 1.410 . S
C947 C955 1.503 . S
C948 C947 1.410 . S
C948 C949 1.392 . S
C948 C951 1.511 . S
C949 C945 1.376 . S
C949 C948 1.392 . S
C949 H961 0.929 . S
C950 C946 1.531 . S
C950 H962 0.960 . S
C950 H963 0.962 . S
C950 H964 0.960 . S
C951 C948 1.511 . S
C951 H965 0.961 . S
C951 H966 0.961 . S
C951 H967 0.961 . S
C952 C953 1.370 . S
C952 C954 1.363 . S
C952 H968 0.931 . S
C953 C952 1.370 . S
C953 C957 1.408 . S
C954 C952 1.363 . S
C954 C955 1.370 . S
C954 C958 1.524 . S
C955 C947 1.503 . S
C955 C954 1.370 . S
C955 C956 1.403 . S
C956 C955 1.403 . S
C956 C957 1.404 . S
C956 C959 1.539 . S
C957 C953 1.408 . S
C957 C956 1.404 . S
C957 H969 0.930 . S
C958 C954 1.524 . S
C958 H970 0.956 . S
C958 H971 0.961 . S
C958 H972 0.961 . S
C959 C956 1.539 . S
C959 H973 0.958 . S
C959 H974 0.961 . S
C959 H975 0.960 . S
H960 C944 0.931 . S
H961 C949 0.929 . S
H962 C950 0.960 . S
H963 C950 0.962 . S
H964 C950 0.960 . S
H965 C951 0.961 . S
H966 C951 0.961 . S
H967 C951 0.961 . S
H968 C952 0.931 . S
H969 C957 0.930 . S
H970 C958 0.956 . S
H971 C958 0.961 . S
H972 C958 0.961 . S
H973 C959 0.958 . S
H974 C959 0.961 . S
H975 C959 0.960 . S
C976 C977 1.391 . S
C976 C978 1.394 . S
C976 H992 0.931 . S
C977 C976 1.391 . S
C977 C981 1.376 . S
C978 C976 1.394 . S
C978 C979 1.369 . S
C978 C982 1.531 . S
C979 C978 1.369 . S
C979 C980 1.410 . S
C979 C987 1.503 . S
C980 C979 1.410 . S
C980 C981 1.392 . S
C980 C983 1.511 . S
C981 C977 1.376 . S
C981 C980 1.392 . S
C981 H993 0.929 . S
C982 C978 1.531 . S
C982 H994 0.960 . S
C982 H995 0.962 . S
C982 H996 0.960 . S
C983 C980 1.511 . S
C983 H997 0.961 . S
C983 H998 0.961 . S
C983 H999 0.961 . S
C984 C985 1.370 . S
C984 C986 1.363 . S
C984 H1000 0.931 . S
C985 C984 1.370 . S
C985 C989 1.408 . S
C986 C984 1.363 . S
C986 C987 1.370 . S
C986 C990 1.524 . S
C987 C979 1.503 . S
C987 C986 1.370 . S
C987 C988 1.403 . S
C988 C987 1.403 . S
C988 C989 1.404 . S
C988 C991 1.539 . S
C989 C985 1.408 . S
C989 C988 1.404 . S
C989 H1001 0.930 . S
C990 C986 1.524 . S
C990 H1002 0.956 . S
C990 H1003 0.961 . S
C990 H1004 0.961 . S
C991 C988 1.539 . S
C991 H1005 0.958 . S
C991 H1006 0.961 . S
C991 H1007 0.960 . S
H992 C976 0.931 . S
H993 C981 0.929 . S
H994 C982 0.960 . S
H995 C982 0.962 . S
H996 C982 0.960 . S
H997 C983 0.961 . S
H998 C983 0.961 . S
H999 C983 0.961 . S
H1000 C984 0.931 . S
H1001 C989 0.930 . S
H1002 C990 0.956 . S
H1003 C990 0.961 . S
H1004 C990 0.961 . S
H1005 C991 0.958 . S
H1006 C991 0.961 . S
H1007 C991 0.960 . S
C1008 C1009 1.391 . S
C1008 C1010 1.394 . S
C1008 H1024 0.931 . S
C1009 C1008 1.391 . S
C1009 C1013 1.376 . S
C1010 C1008 1.394 . S
C1010 C1011 1.369 . S
C1010 C1014 1.531 . S
C1011 C1010 1.369 . S
C1011 C1012 1.410 . S
C1011 C1019 1.503 . S
C1012 C1011 1.410 . S
C1012 C1013 1.392 . S
C1012 C1015 1.511 . S
C1013 C1009 1.376 . S
C1013 C1012 1.392 . S
C1013 H1025 0.929 . S
C1014 C1010 1.531 . S
C1014 H1026 0.960 . S
C1014 H1027 0.962 . S
C1014 H1028 0.960 . S
C1015 C1012 1.511 . S
C1015 H1029 0.961 . S
C1015 H1030 0.961 . S
C1015 H1031 0.961 . S
C1016 C1017 1.370 . S
C1016 C1018 1.363 . S
C1016 H1032 0.931 . S
C1017 C1016 1.370 . S
C1017 C1021 1.408 . S
C1018 C1016 1.363 . S
C1018 C1019 1.370 . S
C1018 C1022 1.524 . S
C1019 C1011 1.503 . S
C1019 C1018 1.370 . S
C1019 C1020 1.403 . S
C1020 C1019 1.403 . S
C1020 C1021 1.404 . S
C1020 C1023 1.539 . S
C1021 C1017 1.408 . S
C1021 C1020 1.404 . S
C1021 H1033 0.930 . S
C1022 C1018 1.524 . S
C1022 H1034 0.956 . S
C1022 H1035 0.961 . S
C1022 H1036 0.961 . S
C1023 C1020 1.539 . S
C1023 H1037 0.958 . S
C1023 H1038 0.961 . S
C1023 H1039 0.960 . S
H1024 C1008 0.931 . S
H1025 C1013 0.929 . S
H1026 C1014 0.960 . S
H1027 C1014 0.962 . S
H1028 C1014 0.960 . S
H1029 C1015 0.961 . S
H1030 C1015 0.961 . S
H1031 C1015 0.961 . S
H1032 C1016 0.931 . S
H1033 C1021 0.930 . S
H1034 C1022 0.956 . S
H1035 C1022 0.961 . S
H1036 C1022 0.961 . S
H1037 C1023 0.958 . S
H1038 C1023 0.961 . S
H1039 C1023 0.960 . S
C1040 C1041 1.391 . S
C1040 C1042 1.394 . S
C1040 H1056 0.931 . S
C1041 C1040 1.391 . S
C1041 C1045 1.376 . S
C1042 C1040 1.394 . S
C1042 C1043 1.369 . S
C1042 C1046 1.531 . S
C1043 C1042 1.369 . S
C1043 C1044 1.410 . S
C1043 C1051 1.503 . S
C1044 C1043 1.410 . S
C1044 C1045 1.392 . S
C1044 C1047 1.511 . S
C1045 C1041 1.376 . S
C1045 C1044 1.392 . S
C1045 H1057 0.929 . S
C1046 C1042 1.531 . S
C1046 H1058 0.960 . S
C1046 H1059 0.962 . S
C1046 H1060 0.960 . S
C1047 C1044 1.511 . S
C1047 H1061 0.961 . S
C1047 H1062 0.961 . S
C1047 H1063 0.961 . S
C1048 C1049 1.370 . S
C1048 C1050 1.363 . S
C1048 H1064 0.931 . S
C1049 C1048 1.370 . S
C1049 C1053 1.408 . S
C1050 C1048 1.363 . S
C1050 C1051 1.370 . S
C1050 C1054 1.524 . S
C1051 C1043 1.503 . S
C1051 C1050 1.370 . S
C1051 C1052 1.403 . S
C1052 C1051 1.403 . S
C1052 C1053 1.404 . S
C1052 C1055 1.539 . S
C1053 C1049 1.408 . S
C1053 C1052 1.404 . S
C1053 H1065 0.930 . S
C1054 C1050 1.524 . S
C1054 H1066 0.956 . S
C1054 H1067 0.961 . S
C1054 H1068 0.961 . S
C1055 C1052 1.539 . S
C1055 H1069 0.958 . S
C1055 H1070 0.961 . S
C1055 H1071 0.960 . S
H1056 C1040 0.931 . S
H1057 C1045 0.929 . S
H1058 C1046 0.960 . S
H1059 C1046 0.962 . S
H1060 C1046 0.960 . S
H1061 C1047 0.961 . S
H1062 C1047 0.961 . S
H1063 C1047 0.961 . S
H1064 C1048 0.931 . S
H1065 C1053 0.930 . S
H1066 C1054 0.956 . S
H1067 C1054 0.961 . S
H1068 C1054 0.961 . S
H1069 C1055 0.958 . S
H1070 C1055 0.961 . S
H1071 C1055 0.960 . S
C1072 C1073 1.391 . S
C1072 C1074 1.394 . S
C1072 H1088 0.931 . S
C1073 C1072 1.391 . S
C1073 C1077 1.376 . S
C1074 C1072 1.394 . S
C1074 C1075 1.369 . S
C1074 C1078 1.531 . S
C1075 C1074 1.369 . S
C1075 C1076 1.410 . S
C1075 C1083 1.503 . S
C1076 C1075 1.410 . S
C1076 C1077 1.392 . S
C1076 C1079 1.511 . S
C1077 C1073 1.376 . S
C1077 C1076 1.392 . S
C1077 H1089 0.929 . S
C1078 C1074 1.531 . S
C1078 H1090 0.960 . S
C1078 H1091 0.962 . S
C1078 H1092 0.960 . S
C1079 C1076 1.511 . S
C1079 H1093 0.961 . S
C1079 H1094 0.961 . S
C1079 H1095 0.961 . S
C1080 C1081 1.370 . S
C1080 C1082 1.363 . S
C1080 H1096 0.931 . S
C1081 C1080 1.370 . S
C1081 C1085 1.408 . S
C1082 C1080 1.363 . S
C1082 C1083 1.370 . S
C1082 C1086 1.524 . S
C1083 C1075 1.503 . S
C1083 C1082 1.370 . S
C1083 C1084 1.403 . S
C1084 C1083 1.403 . S
C1084 C1085 1.404 . S
C1084 C1087 1.539 . S
C1085 C1081 1.408 . S
C1085 C1084 1.404 . S
C1085 H1097 0.930 . S
C1086 C1082 1.524 . S
C1086 H1098 0.956 . S
C1086 H1099 0.961 . S
C1086 H1100 0.961 . S
C1087 C1084 1.539 . S
C1087 H1101 0.958 . S
C1087 H1102 0.961 . S
C1087 H1103 0.960 . S
H1088 C1072 0.931 . S
H1089 C1077 0.929 . S
H1090 C1078 0.960 . S
H1091 C1078 0.962 . S
H1092 C1078 0.960 . S
H1093 C1079 0.961 . S
H1094 C1079 0.961 . S
H1095 C1079 0.961 . S
H1096 C1080 0.931 . S
H1097 C1085 0.930 . S
H1098 C1086 0.956 . S
H1099 C1086 0.961 . S
H1100 C1086 0.961 . S
H1101 C1087 0.958 . S
H1102 C1087 0.961 . S
H1103 C1087 0.960 . S
C1104 C1105 1.391 . S
C1104 C1106 1.394 . S
C1104 H1120 0.931 . S
C1105 C1104 1.391 . S
C1105 C1109 1.376 . S
C1106 C1104 1.394 . S
C1106 C1107 1.369 . S
C1106 C1110 1.531 . S
C1107 C1106 1.369 . S
C1107 C1108 1.410 . S
C1107 C1115 1.503 . S
C1108 C1107 1.410 . S
C1108 C1109 1.392 . S
C1108 C1111 1.511 . S
C1109 C1105 1.376 . S
C1109 C1108 1.392 . S
C1109 H1121 0.929 . S
C1110 C1106 1.531 . S
C1110 H1122 0.960 . S
C1110 H1123 0.962 . S
C1110 H1124 0.960 . S
C1111 C1108 1.511 . S
C1111 H1125 0.961 . S
C1111 H1126 0.961 . S
C1111 H1127 0.961 . S
C1112 C1113 1.370 . S
C1112 C1114 1.363 . S
C1112 H1128 0.931 . S
C1113 C1112 1.370 . S
C1113 C1117 1.408 . S
C1114 C1112 1.363 . S
C1114 C1115 1.370 . S
C1114 C1118 1.524 . S
C1115 C1107 1.503 . S
C1115 C1114 1.370 . S
C1115 C1116 1.403 . S
C1116 C1115 1.403 . S
C1116 C1117 1.404 . S
C1116 C1119 1.539 . S
C1117 C1113 1.408 . S
C1117 C1116 1.404 . S
C1117 H1129 0.930 . S
C1118 C1114 1.524 . S
C1118 H1130 0.956 . S
C1118 H1131 0.961 . S
C1118 H1132 0.961 . S
C1119 C1116 1.539 . S
C1119 H1133 0.958 . S
C1119 H1134 0.961 . S
C1119 H1135 0.960 . S
H1120 C1104 0.931 . S
H1121 C1109 0.929 . S
H1122 C1110 0.960 . S
H1123 C1110 0.962 . S
H1124 C1110 0.960 . S
H1125 C1111 0.961 . S
H1126 C1111 0.961 . S
H1127 C1111 0.961 . S
H1128 C1112 0.931 . S
H1129 C1117 0.930 . S
H1130 C1118 0.956 . S
H1131 C1118 0.961 . S
H1132 C1118 0.961 . S
H1133 C1119 0.958 . S
H1134 C1119 0.961 . S
H1135 C1119 0.960 . S
C1136 C1137 1.391 . S
C1136 C1138 1.394 . S
C1136 H1152 0.931 . S
C1137 C1136 1.391 . S
C1137 C1141 1.376 . S
C1138 C1136 1.394 . S
C1138 C1139 1.369 . S
C1138 C1142 1.531 . S
C1139 C1138 1.369 . S
C1139 C1140 1.410 . S
C1139 C1147 1.503 . S
C1140 C1139 1.410 . S
C1140 C1141 1.392 . S
C1140 C1143 1.511 . S
C1141 C1137 1.376 . S
C1141 C1140 1.392 . S
C1141 H1153 0.929 . S
C1142 C1138 1.531 . S
C1142 H1154 0.960 . S
C1142 H1155 0.962 . S
C1142 H1156 0.960 . S
C1143 C1140 1.511 . S
C1143 H1157 0.961 . S
C1143 H1158 0.961 . S
C1143 H1159 0.961 . S
C1144 C1145 1.370 . S
C1144 C1146 1.363 . S
C1144 H1160 0.931 . S
C1145 C1144 1.370 . S
C1145 C1149 1.408 . S
C1146 C1144 1.363 . S
C1146 C1147 1.370 . S
C1146 C1150 1.524 . S
C1147 C1139 1.503 . S
C1147 C1146 1.370 . S
C1147 C1148 1.403 . S
C1148 C1147 1.403 . S
C1148 C1149 1.404 . S
C1148 C1151 1.539 . S
C1149 C1145 1.408 . S
C1149 C1148 1.404 . S
C1149 H1161 0.930 . S
C1150 C1146 1.524 . S
C1150 H1162 0.956 . S
C1150 H1163 0.961 . S
C1150 H1164 0.961 . S
C1151 C1148 1.539 . S
C1151 H1165 0.958 . S
C1151 H1166 0.961 . S
C1151 H1167 0.960 . S
H1152 C1136 0.931 . S
H1153 C1141 0.929 . S
H1154 C1142 0.960 . S
H1155 C1142 0.962 . S
H1156 C1142 0.960 . S
H1157 C1143 0.961 . S
H1158 C1143 0.961 . S
H1159 C1143 0.961 . S
H1160 C1144 0.931 . S
H1161 C1149 0.930 . S
H1162 C1150 0.956 . S
H1163 C1150 0.961 . S
H1164 C1150 0.961 . S
H1165 C1151 0.958 . S
H1166 C1151 0.961 . S
H1167 C1151 0.960 . S
C1168 C1169 1.391 . S
C1168 C1170 1.394 . S
C1168 H1184 0.931 . S
C1169 C1168 1.391 . S
C1169 C1173 1.376 . S
C1170 C1168 1.394 . S
C1170 C1171 1.369 . S
C1170 C1174 1.531 . S
C1171 C1170 1.369 . S
C1171 C1172 1.410 . S
C1171 C1179 1.503 1_565 S
C1172 C1171 1.410 . S
C1172 C1173 1.392 . S
C1172 C1175 1.511 . S
C1173 C1169 1.376 . S
C1173 C1172 1.392 . S
C1173 H1185 0.929 . S
C1174 C1170 1.531 . S
C1174 H1186 0.960 1_565 S
C1174 H1187 0.962 1_565 S
C1174 H1188 0.960 . S
C1175 C1172 1.511 . S
C1175 H1189 0.961 . S
C1175 H1190 0.961 . S
C1175 H1191 0.961 . S
C1176 C1177 1.370 . S
C1176 C1178 1.363 . S
C1176 H1192 0.931 . S
C1177 C1176 1.370 . S
C1177 C1181 1.408 . S
C1178 C1176 1.363 . S
C1178 C1179 1.370 . S
C1178 C1182 1.524 . S
C1179 C1171 1.503 1_545 S
C1179 C1178 1.370 . S
C1179 C1180 1.403 . S
C1180 C1179 1.403 . S
C1180 C1181 1.404 . S
C1180 C1183 1.539 1_545 S
C1181 C1177 1.408 . S
C1181 C1180 1.404 . S
C1181 H1193 0.930 . S
C1182 C1178 1.524 . S
C1182 H1194 0.956 . S
C1182 H1195 0.961 . S
C1182 H1196 0.961 . S
C1183 C1180 1.539 1_565 S
C1183 H1197 0.958 . S
C1183 H1198 0.961 . S
C1183 H1199 0.960 . S
H1184 C1168 0.931 . S
H1185 C1173 0.929 . S
H1186 C1174 0.960 1_545 S
H1187 C1174 0.962 1_545 S
H1188 C1174 0.960 . S
H1189 C1175 0.961 . S
H1190 C1175 0.961 . S
H1191 C1175 0.961 . S
H1192 C1176 0.931 . S
H1193 C1181 0.930 . S
H1194 C1182 0.956 . S
H1195 C1182 0.961 . S
H1196 C1182 0.961 . S
H1197 C1183 0.958 . S
H1198 C1183 0.961 . S
H1199 C1183 0.960 . S
C1200 C1201 1.391 . S
C1200 C1202 1.394 . S
C1200 H1216 0.931 . S
C1201 C1200 1.391 . S
C1201 C1205 1.376 . S
C1202 C1200 1.394 . S
C1202 C1203 1.369 . S
C1202 C1206 1.531 1_455 S
C1203 C1202 1.369 . S
C1203 C1204 1.410 . S
C1203 C1211 1.503 1_455 S
C1204 C1203 1.410 . S
C1204 C1205 1.392 . S
C1204 C1207 1.511 . S
C1205 C1201 1.376 . S
C1205 C1204 1.392 . S
C1205 H1217 0.929 . S
C1206 C1202 1.531 1_655 S
C1206 H1218 0.960 . S
C1206 H1219 0.962 . S
C1206 H1220 0.960 . S
C1207 C1204 1.511 . S
C1207 H1221 0.961 . S
C1207 H1222 0.961 . S
C1207 H1223 0.961 . S
C1208 C1209 1.370 . S
C1208 C1210 1.363 . S
C1208 H1224 0.931 . S
C1209 C1208 1.370 . S
C1209 C1213 1.408 . S
C1210 C1208 1.363 . S
C1210 C1211 1.370 . S
C1210 C1214 1.524 . S
C1211 C1203 1.503 1_655 S
C1211 C1210 1.370 . S
C1211 C1212 1.403 . S
C1212 C1211 1.403 . S
C1212 C1213 1.404 . S
C1212 C1215 1.539 . S
C1213 C1209 1.408 . S
C1213 C1212 1.404 . S
C1213 H1225 0.930 . S
C1214 C1210 1.524 . S
C1214 H1226 0.956 . S
C1214 H1227 0.961 1_655 S
C1214 H1228 0.961 . S
C1215 C1212 1.539 . S
C1215 H1229 0.958 . S
C1215 H1230 0.961 . S
C1215 H1231 0.960 1_655 S
H1216 C1200 0.931 . S
H1217 C1205 0.929 . S
H1218 C1206 0.960 . S
H1219 C1206 0.962 . S
H1220 C1206 0.960 . S
H1221 C1207 0.961 . S
H1222 C1207 0.961 . S
H1223 C1207 0.961 . S
H1224 C1208 0.931 . S
H1225 C1213 0.930 . S
H1226 C1214 0.956 . S
H1227 C1214 0.961 1_455 S
H1228 C1214 0.961 . S
H1229 C1215 0.958 . S
H1230 C1215 0.961 . S
H1231 C1215 0.960 1_455 S
C1232 C1233 1.391 . S
C1232 C1234 1.394 . S
C1232 H1248 0.931 . S
C1233 C1232 1.391 . S
C1233 C1237 1.376 . S
C1234 C1232 1.394 . S
C1234 C1235 1.369 . S
C1234 C1238 1.531 . S
C1235 C1234 1.369 . S
C1235 C1236 1.410 . S
C1235 C1243 1.503 1_565 S
C1236 C1235 1.410 . S
C1236 C1237 1.392 . S
C1236 C1239 1.511 . S
C1237 C1233 1.376 . S
C1237 C1236 1.392 . S
C1237 H1249 0.929 . S
C1238 C1234 1.531 . S
C1238 H1250 0.960 1_565 S
C1238 H1251 0.962 1_565 S
C1238 H1252 0.960 . S
C1239 C1236 1.511 . S
C1239 H1253 0.961 . S
C1239 H1254 0.961 . S
C1239 H1255 0.961 . S
C1240 C1241 1.370 . S
C1240 C1242 1.363 . S
C1240 H1256 0.931 . S
C1241 C1240 1.370 . S
C1241 C1245 1.408 . S
C1242 C1240 1.363 . S
C1242 C1243 1.370 . S
C1242 C1246 1.524 . S
C1243 C1235 1.503 1_545 S
C1243 C1242 1.370 . S
C1243 C1244 1.403 . S
C1244 C1243 1.403 . S
C1244 C1245 1.404 . S
C1244 C1247 1.539 1_545 S
C1245 C1241 1.408 . S
C1245 C1244 1.404 . S
C1245 H1257 0.930 . S
C1246 C1242 1.524 . S
C1246 H1258 0.956 . S
C1246 H1259 0.961 . S
C1246 H1260 0.961 . S
C1247 C1244 1.539 1_565 S
C1247 H1261 0.958 . S
C1247 H1262 0.961 1_565 S
C1247 H1263 0.960 . S
H1248 C1232 0.931 . S
H1249 C1237 0.929 . S
H1250 C1238 0.960 1_545 S
H1251 C1238 0.962 1_545 S
H1252 C1238 0.960 . S
H1253 C1239 0.961 . S
H1254 C1239 0.961 . S
H1255 C1239 0.961 . S
H1256 C1240 0.931 . S
H1257 C1245 0.930 . S
H1258 C1246 0.956 . S
H1259 C1246 0.961 . S
H1260 C1246 0.961 . S
H1261 C1247 0.958 . S
H1262 C1247 0.961 1_545 S
H1263 C1247 0.960 . S
C1264 C1265 1.391 . S
C1264 C1266 1.394 . S
C1264 H1280 0.931 . S
C1265 C1264 1.391 . S
C1265 C1269 1.376 . S
C1266 C1264 1.394 . S
C1266 C1267 1.369 . S
C1266 C1270 1.531 . S
C1267 C1266 1.369 . S
C1267 C1268 1.410 . S
C1267 C1275 1.503 1_655 S
C1268 C1267 1.410 . S
C1268 C1269 1.392 . S
C1268 C1271 1.511 1_655 S
C1269 C1265 1.376 . S
C1269 C1268 1.392 . S
C1269 H1281 0.929 . S
C1270 C1266 1.531 . S
C1270 H1282 0.960 . S
C1270 H1283 0.962 . S
C1270 H1284 0.960 . S
C1271 C1268 1.511 1_455 S
C1271 H1285 0.961 . S
C1271 H1286 0.961 . S
C1271 H1287 0.961 . S
C1272 C1273 1.370 . S
C1272 C1274 1.363 . S
C1272 H1288 0.931 . S
C1273 C1272 1.370 . S
C1273 C1277 1.408 . S
C1274 C1272 1.363 . S
C1274 C1275 1.370 . S
C1274 C1278 1.524 . S
C1275 C1267 1.503 1_455 S
C1275 C1274 1.370 . S
C1275 C1276 1.403 . S
C1276 C1275 1.403 . S
C1276 C1277 1.404 . S
C1276 C1279 1.539 . S
C1277 C1273 1.408 . S
C1277 C1276 1.404 . S
C1277 H1289 0.930 . S
C1278 C1274 1.524 . S
C1278 H1290 0.956 1_455 S
C1278 H1291 0.955 1_455 S
C1278 H1292 0.961 . S
C1279 C1276 1.539 . S
C1279 H1293 0.958 . S
C1279 H1294 0.961 . S
C1279 H1295 0.960 . S
H1280 C1264 0.931 . S
H1281 C1269 0.929 . S
H1282 C1270 0.960 . S
H1283 C1270 0.962 . S
H1284 C1270 0.960 . S
H1285 C1271 0.961 . S
H1286 C1271 0.961 . S
H1287 C1271 0.961 . S
H1288 C1272 0.931 . S
H1289 C1277 0.930 . S
H1290 C1278 0.956 1_655 S
H1291 C1278 0.955 1_655 S
H1292 C1278 0.961 . S
H1293 C1279 0.958 . S
H1294 C1279 0.961 . S
H1295 C1279 0.960 . S
C1296 C1297 1.391 . S
C1296 C1298 1.394 . S
C1296 H1312 0.931 . S
C1297 C1296 1.391 . S
C1297 C1301 1.376 . S
C1298 C1296 1.394 . S
C1298 C1299 1.369 . S
C1298 C1302 1.531 . S
C1299 C1298 1.369 . S
C1299 C1300 1.410 . S
C1299 C1307 1.503 . S
C1300 C1299 1.410 . S
C1300 C1301 1.392 . S
C1300 C1303 1.511 . S
C1301 C1297 1.376 . S
C1301 C1300 1.392 . S
C1301 H1313 0.929 . S
C1302 C1298 1.531 . S
C1302 H1314 0.960 . S
C1302 H1315 0.962 . S
C1302 H1316 0.960 . S
C1303 C1300 1.511 . S
C1303 H1317 0.961 . S
C1303 H1318 0.961 . S
C1303 H1319 0.961 . S
C1304 C1305 1.370 . S
C1304 C1306 1.363 . S
C1304 H1320 0.931 . S
C1305 C1304 1.370 . S
C1305 C1309 1.408 . S
C1306 C1304 1.363 . S
C1306 C1307 1.370 . S
C1306 C1310 1.524 . S
C1307 C1299 1.503 . S
C1307 C1306 1.370 . S
C1307 C1308 1.403 . S
C1308 C1307 1.403 . S
C1308 C1309 1.404 . S
C1308 C1311 1.539 . S
C1309 C1305 1.408 . S
C1309 C1308 1.404 . S
C1309 H1321 0.930 . S
C1310 C1306 1.524 . S
C1310 H1322 0.956 . S
C1310 H1323 0.961 . S
C1310 H1324 0.961 . S
C1311 C1308 1.539 . S
C1311 H1325 0.958 . S
C1311 H1326 0.961 . S
C1311 H1327 0.960 . S
H1312 C1296 0.931 . S
H1313 C1301 0.929 . S
H1314 C1302 0.960 . S
H1315 C1302 0.962 . S
H1316 C1302 0.960 . S
H1317 C1303 0.961 . S
H1318 C1303 0.961 . S
H1319 C1303 0.961 . S
H1320 C1304 0.931 . S
H1321 C1309 0.930 . S
H1322 C1310 0.956 . S
H1323 C1310 0.961 . S
H1324 C1310 0.961 . S
H1325 C1311 0.958 . S
H1326 C1311 0.961 . S
H1327 C1311 0.960 . S
C1328 C1329 1.391 . S
C1328 C1330 1.394 . S
C1328 H1344 0.931 . S
C1329 C1328 1.391 . S
C1329 C1333 1.376 . S
C1330 C1328 1.394 . S
C1330 C1331 1.369 . S
C1330 C1334 1.531 . S
C1331 C1330 1.369 . S
C1331 C1332 1.410 . S
C1331 C1339 1.503 . S
C1332 C1331 1.410 . S
C1332 C1333 1.392 . S
C1332 C1335 1.511 . S
C1333 C1329 1.376 . S
C1333 C1332 1.392 . S
C1333 H1345 0.929 . S
C1334 C1330 1.531 . S
C1334 H1346 0.960 . S
C1334 H1347 0.962 . S
C1334 H1348 0.960 . S
C1335 C1332 1.511 . S
C1335 H1349 0.961 . S
C1335 H1350 0.961 . S
C1335 H1351 0.961 . S
C1336 C1337 1.370 . S
C1336 C1338 1.363 . S
C1336 H1352 0.931 . S
C1337 C1336 1.370 . S
C1337 C1341 1.408 . S
C1338 C1336 1.363 . S
C1338 C1339 1.370 . S
C1338 C1342 1.524 . S
C1339 C1331 1.503 . S
C1339 C1338 1.370 . S
C1339 C1340 1.403 . S
C1340 C1339 1.403 . S
C1340 C1341 1.404 . S
C1340 C1343 1.539 . S
C1341 C1337 1.408 . S
C1341 C1340 1.404 . S
C1341 H1353 0.930 . S
C1342 C1338 1.524 . S
C1342 H1354 0.956 . S
C1342 H1355 0.961 . S
C1342 H1356 0.961 . S
C1343 C1340 1.539 . S
C1343 H1357 0.958 . S
C1343 H1358 0.961 . S
C1343 H1359 0.960 . S
H1344 C1328 0.931 . S
H1345 C1333 0.929 . S
H1346 C1334 0.960 . S
H1347 C1334 0.962 . S
H1348 C1334 0.960 . S
H1349 C1335 0.961 . S
H1350 C1335 0.961 . S
H1351 C1335 0.961 . S
H1352 C1336 0.931 . S
H1353 C1341 0.930 . S
H1354 C1342 0.956 . S
H1355 C1342 0.961 . S
H1356 C1342 0.961 . S
H1357 C1343 0.958 . S
H1358 C1343 0.961 . S
H1359 C1343 0.960 . S
C1360 C1361 1.391 . S
C1360 C1362 1.394 . S
C1360 H1376 0.931 . S
C1361 C1360 1.391 . S
C1361 C1365 1.376 . S
C1362 C1360 1.394 . S
C1362 C1363 1.369 . S
C1362 C1366 1.531 . S
C1363 C1362 1.369 . S
C1363 C1364 1.410 . S
C1363 C1371 1.503 . S
C1364 C1363 1.410 . S
C1364 C1365 1.392 . S
C1364 C1367 1.511 . S
C1365 C1361 1.376 . S
C1365 C1364 1.392 . S
C1365 H1377 0.929 . S
C1366 C1362 1.531 . S
C1366 H1378 0.960 . S
C1366 H1379 0.962 . S
C1366 H1380 0.960 . S
C1367 C1364 1.511 . S
C1367 H1381 0.961 . S
C1367 H1382 0.961 . S
C1367 H1383 0.961 . S
C1368 C1369 1.370 . S
C1368 C1370 1.363 . S
C1368 H1384 0.931 . S
C1369 C1368 1.370 . S
C1369 C1373 1.408 . S
C1370 C1368 1.363 . S
C1370 C1371 1.370 . S
C1370 C1374 1.524 . S
C1371 C1363 1.503 . S
C1371 C1370 1.370 . S
C1371 C1372 1.403 . S
C1372 C1371 1.403 . S
C1372 C1373 1.404 . S
C1372 C1375 1.539 . S
C1373 C1369 1.408 . S
C1373 C1372 1.404 . S
C1373 H1385 0.930 . S
C1374 C1370 1.524 . S
C1374 H1386 0.956 . S
C1374 H1387 0.961 . S
C1374 H1388 0.961 . S
C1375 C1372 1.539 . S
C1375 H1389 0.958 . S
C1375 H1390 0.961 . S
C1375 H1391 0.960 . S
H1376 C1360 0.931 . S
H1377 C1365 0.929 . S
H1378 C1366 0.960 . S
H1379 C1366 0.962 . S
H1380 C1366 0.960 . S
H1381 C1367 0.961 . S
H1382 C1367 0.961 . S
H1383 C1367 0.961 . S
H1384 C1368 0.931 . S
H1385 C1373 0.930 . S
H1386 C1374 0.956 . S
H1387 C1374 0.961 . S
H1388 C1374 0.961 . S
H1389 C1375 0.958 . S
H1390 C1375 0.961 . S
H1391 C1375 0.960 . S
C1392 C1393 1.391 . S
C1392 C1394 1.394 . S
C1392 H1408 0.931 . S
C1393 C1392 1.391 . S
C1393 C1397 1.376 . S
C1394 C1392 1.394 . S
C1394 C1395 1.369 . S
C1394 C1398 1.531 . S
C1395 C1394 1.369 . S
C1395 C1396 1.410 . S
C1395 C1403 1.503 1_554 S
C1396 C1395 1.410 . S
C1396 C1397 1.392 . S
C1396 C1399 1.511 . S
C1397 C1393 1.376 . S
C1397 C1396 1.392 . S
C1397 H1409 0.929 . S
C1398 C1394 1.531 . S
C1398 H1410 0.960 . S
C1398 H1411 0.962 . S
C1398 H1412 0.960 . S
C1399 C1396 1.511 . S
C1399 H1413 0.961 . S
C1399 H1414 0.961 1_554 S
C1399 H1415 0.961 . S
C1400 C1401 1.370 . S
C1400 C1402 1.363 . S
C1400 H1416 0.931 . S
C1401 C1400 1.370 . S
C1401 C1405 1.408 . S
C1402 C1400 1.363 . S
C1402 C1403 1.370 . S
C1402 C1406 1.524 . S
C1403 C1395 1.503 1_556 S
C1403 C1402 1.370 . S
C1403 C1404 1.403 . S
C1404 C1403 1.403 . S
C1404 C1405 1.404 . S
C1404 C1407 1.539 1_556 S
C1405 C1401 1.408 . S
C1405 C1404 1.404 . S
C1405 H1417 0.930 . S
C1406 C1402 1.524 . S
C1406 H1418 0.956 . S
C1406 H1419 0.961 . S
C1406 H1420 0.961 . S
C1407 C1404 1.539 1_554 S
C1407 H1421 0.958 . S
C1407 H1422 0.961 . S
C1407 H1423 0.960 . S
H1408 C1392 0.931 . S
H1409 C1397 0.929 . S
H1410 C1398 0.960 . S
H1411 C1398 0.962 . S
H1412 C1398 0.960 . S
H1413 C1399 0.961 . S
H1414 C1399 0.961 1_556 S
H1415 C1399 0.961 . S
H1416 C1400 0.931 . S
H1417 C1405 0.930 . S
H1418 C1406 0.956 . S
H1419 C1406 0.961 . S
H1420 C1406 0.961 . S
H1421 C1407 0.958 . S
H1422 C1407 0.961 . S
H1423 C1407 0.960 . S
C1424 C1425 1.391 . S
C1424 C1426 1.394 . S
C1424 H1440 0.931 . S
C1425 C1424 1.391 . S
C1425 C1429 1.376 . S
C1426 C1424 1.394 . S
C1426 C1427 1.369 . S
C1426 C1430 1.531 . S
C1427 C1426 1.369 . S
C1427 C1428 1.410 . S
C1427 C1435 1.503 . S
C1428 C1427 1.410 . S
C1428 C1429 1.392 . S
C1428 C1431 1.511 . S
C1429 C1425 1.376 . S
C1429 C1428 1.392 . S
C1429 H1441 0.929 . S
C1430 C1426 1.531 . S
C1430 H1442 0.960 . S
C1430 H1443 0.962 . S
C1430 H1444 0.960 . S
C1431 C1428 1.511 . S
C1431 H1445 0.961 . S
C1431 H1446 0.961 . S
C1431 H1447 0.961 . S
C1432 C1433 1.370 . S
C1432 C1434 1.363 . S
C1432 H1448 0.931 . S
C1433 C1432 1.370 . S
C1433 C1437 1.408 . S
C1434 C1432 1.363 . S
C1434 C1435 1.370 . S
C1434 C1438 1.524 . S
C1435 C1427 1.503 . S
C1435 C1434 1.370 . S
C1435 C1436 1.403 . S
C1436 C1435 1.403 . S
C1436 C1437 1.404 . S
C1436 C1439 1.539 . S
C1437 C1433 1.408 . S
C1437 C1436 1.404 . S
C1437 H1449 0.930 . S
C1438 C1434 1.524 . S
C1438 H1450 0.956 . S
C1438 H1451 0.961 . S
C1438 H1452 0.961 . S
C1439 C1436 1.539 . S
C1439 H1453 0.958 . S
C1439 H1454 0.961 . S
C1439 H1455 0.960 . S
H1440 C1424 0.931 . S
H1441 C1429 0.929 . S
H1442 C1430 0.960 . S
H1443 C1430 0.962 . S
H1444 C1430 0.960 . S
H1445 C1431 0.961 . S
H1446 C1431 0.961 . S
H1447 C1431 0.961 . S
H1448 C1432 0.931 . S
H1449 C1437 0.930 . S
H1450 C1438 0.956 . S
H1451 C1438 0.961 . S
H1452 C1438 0.961 . S
H1453 C1439 0.958 . S
H1454 C1439 0.961 . S
H1455 C1439 0.960 . S
C1456 C1457 1.391 . S
C1456 C1458 1.394 . S
C1456 H1472 0.931 . S
C1457 C1456 1.391 . S
C1457 C1461 1.376 . S
C1458 C1456 1.394 . S
C1458 C1459 1.369 . S
C1458 C1462 1.531 1_556 S
C1459 C1458 1.369 . S
C1459 C1460 1.410 . S
C1459 C1467 1.503 1_556 S
C1460 C1459 1.410 . S
C1460 C1461 1.392 . S
C1460 C1463 1.511 . S
C1461 C1457 1.376 . S
C1461 C1460 1.392 . S
C1461 H1473 0.929 . S
C1462 C1458 1.531 1_554 S
C1462 H1474 0.960 . S
C1462 H1475 0.962 . S
C1462 H1476 0.960 . S
C1463 C1460 1.511 . S
C1463 H1477 0.961 . S
C1463 H1478 0.961 . S
C1463 H1479 0.961 . S
C1464 C1465 1.370 . S
C1464 C1466 1.363 . S
C1464 H1480 0.931 . S
C1465 C1464 1.370 . S
C1465 C1469 1.408 . S
C1466 C1464 1.363 . S
C1466 C1467 1.370 . S
C1466 C1470 1.524 . S
C1467 C1459 1.503 1_554 S
C1467 C1466 1.370 . S
C1467 C1468 1.403 . S
C1468 C1467 1.403 . S
C1468 C1469 1.404 . S
C1468 C1471 1.539 . S
C1469 C1465 1.408 . S
C1469 C1468 1.404 . S
C1469 H1481 0.930 . S
C1470 C1466 1.524 . S
C1470 H1482 0.956 . S
C1470 H1483 0.961 1_554 S
C1470 H1484 0.961 . S
C1471 C1468 1.539 . S
C1471 H1485 0.958 . S
C1471 H1486 0.961 . S
C1471 H1487 0.974 . S
H1472 C1456 0.931 . S
H1473 C1461 0.929 . S
H1474 C1462 0.960 . S
H1475 C1462 0.962 . S
H1476 C1462 0.960 . S
H1477 C1463 0.961 . S
H1478 C1463 0.961 . S
H1479 C1463 0.961 . S
H1480 C1464 0.931 . S
H1481 C1469 0.930 . S
H1482 C1470 0.956 . S
H1483 C1470 0.961 1_556 S
H1484 C1470 0.961 . S
H1485 C1471 0.958 . S
H1486 C1471 0.961 . S
H1487 C1471 0.974 . S
C1488 C1489 1.391 . S
C1488 C1490 1.394 . S
C1488 H1504 0.931 . S
C1489 C1488 1.391 . S
C1489 C1493 1.376 . S
C1490 C1488 1.394 . S
C1490 C1491 1.369 . S
C1490 C1494 1.531 . S
C1491 C1490 1.369 . S
C1491 C1492 1.410 . S
C1491 C1499 1.503 . S
C1492 C1491 1.410 . S
C1492 C1493 1.392 . S
C1492 C1495 1.511 . S
C1493 C1489 1.376 . S
C1493 C1492 1.392 . S
C1493 H1505 0.929 . S
C1494 C1490 1.531 . S
C1494 H1506 0.960 . S
C1494 H1507 0.962 . S
C1494 H1508 0.960 . S
C1495 C1492 1.511 . S
C1495 H1509 0.961 . S
C1495 H1510 0.961 . S
C1495 H1511 0.961 . S
C1496 C1497 1.370 . S
C1496 C1498 1.363 . S
C1496 H1512 0.931 . S
C1497 C1496 1.370 . S
C1497 C1501 1.408 . S
C1498 C1496 1.363 . S
C1498 C1499 1.370 . S
C1498 C1502 1.524 . S
C1499 C1491 1.503 . S
C1499 C1498 1.370 . S
C1499 C1500 1.403 . S
C1500 C1499 1.403 . S
C1500 C1501 1.404 . S
C1500 C1503 1.539 . S
C1501 C1497 1.408 . S
C1501 C1500 1.404 . S
C1501 H1513 0.930 . S
C1502 C1498 1.524 . S
C1502 H1514 0.956 . S
C1502 H1515 0.961 . S
C1502 H1516 0.961 . S
C1503 C1500 1.539 . S
C1503 H1517 0.958 . S
C1503 H1518 0.961 . S
C1503 H1519 0.960 . S
H1504 C1488 0.931 . S
H1505 C1493 0.929 . S
H1506 C1494 0.960 . S
H1507 C1494 0.962 . S
H1508 C1494 0.960 . S
H1509 C1495 0.961 . S
H1510 C1495 0.961 . S
H1511 C1495 0.961 . S
H1512 C1496 0.931 . S
H1513 C1501 0.930 . S
H1514 C1502 0.956 . S
H1515 C1502 0.961 . S
H1516 C1502 0.961 . S
H1517 C1503 0.958 . S
H1518 C1503 0.961 . S
H1519 C1503 0.960 . S
C1520 C1521 1.391 . S
C1520 C1522 1.394 . S
C1520 H1536 0.931 . S
C1521 C1520 1.391 . S
C1521 C1525 1.376 . S
C1522 C1520 1.394 . S
C1522 C1523 1.369 . S
C1522 C1526 1.531 . S
C1523 C1522 1.369 . S
C1523 C1524 1.410 . S
C1523 C1531 1.503 . S
C1524 C1523 1.410 . S
C1524 C1525 1.392 . S
C1524 C1527 1.511 . S
C1525 C1521 1.376 . S
C1525 C1524 1.392 . S
C1525 H1537 0.929 . S
C1526 C1522 1.531 . S
C1526 H1538 0.960 . S
C1526 H1539 0.962 . S
C1526 H1540 0.960 . S
C1527 C1524 1.511 . S
C1527 H1541 0.961 . S
C1527 H1542 0.961 . S
C1527 H1543 0.961 . S
C1528 C1529 1.370 . S
C1528 C1530 1.363 . S
C1528 H1544 0.931 . S
C1529 C1528 1.370 . S
C1529 C1533 1.408 . S
C1530 C1528 1.363 . S
C1530 C1531 1.370 . S
C1530 C1534 1.524 . S
C1531 C1523 1.503 . S
C1531 C1530 1.370 . S
C1531 C1532 1.403 . S
C1532 C1531 1.403 . S
C1532 C1533 1.404 . S
C1532 C1535 1.539 . S
C1533 C1529 1.408 . S
C1533 C1532 1.404 . S
C1533 H1545 0.930 . S
C1534 C1530 1.524 . S
C1534 H1546 0.956 . S
C1534 H1547 0.961 . S
C1534 H1548 0.961 . S
C1535 C1532 1.539 . S
C1535 H1549 0.958 . S
C1535 H1550 0.961 . S
C1535 H1551 0.960 . S
H1536 C1520 0.931 . S
H1537 C1525 0.929 . S
H1538 C1526 0.960 . S
H1539 C1526 0.962 . S
H1540 C1526 0.960 . S
H1541 C1527 0.961 . S
H1542 C1527 0.961 . S
H1543 C1527 0.961 . S
H1544 C1528 0.931 . S
H1545 C1533 0.930 . S
H1546 C1534 0.956 . S
H1547 C1534 0.961 . S
H1548 C1534 0.961 . S
H1549 C1535 0.958 . S
H1550 C1535 0.961 . S
H1551 C1535 0.960 . S
C1552 C1553 1.391 . S
C1552 C1554 1.394 . S
C1552 H1568 0.931 . S
C1553 C1552 1.391 . S
C1553 C1557 1.376 . S
C1554 C1552 1.394 . S
C1554 C1555 1.369 . S
C1554 C1558 1.531 1_545 S
C1555 C1554 1.369 . S
C1555 C1556 1.410 . S
C1555 C1563 1.503 1_545 S
C1556 C1555 1.410 . S
C1556 C1557 1.392 . S
C1556 C1559 1.511 . S
C1557 C1553 1.376 . S
C1557 C1556 1.392 . S
C1557 H1569 0.929 . S
C1558 C1554 1.531 1_565 S
C1558 H1570 0.960 . S
C1558 H1571 0.962 . S
C1558 H1572 0.961 . S
C1559 C1556 1.511 . S
C1559 H1573 0.961 . S
C1559 H1574 0.961 . S
C1559 H1575 0.961 . S
C1560 C1561 1.370 . S
C1560 C1562 1.363 . S
C1560 H1576 0.931 . S
C1561 C1560 1.370 . S
C1561 C1565 1.408 . S
C1562 C1560 1.363 . S
C1562 C1563 1.370 . S
C1562 C1566 1.524 . S
C1563 C1555 1.503 1_565 S
C1563 C1562 1.370 . S
C1563 C1564 1.403 . S
C1564 C1563 1.403 . S
C1564 C1565 1.404 . S
C1564 C1567 1.539 . S
C1565 C1561 1.408 . S
C1565 C1564 1.404 . S
C1565 H1577 0.930 . S
C1566 C1562 1.524 . S
C1566 H1578 0.956 . S
C1566 H1579 0.929 1_565 S
C1566 H1580 0.961 . S
C1567 C1564 1.539 . S
C1567 H1581 0.958 . S
C1567 H1582 0.961 . S
C1567 H1583 0.960 1_565 S
H1568 C1552 0.931 . S
H1569 C1557 0.929 . S
H1570 C1558 0.960 . S
H1571 C1558 0.962 . S
H1572 C1558 0.961 . S
H1573 C1559 0.961 . S
H1574 C1559 0.961 . S
H1575 C1559 0.961 . S
H1576 C1560 0.931 . S
H1577 C1565 0.930 . S
H1578 C1566 0.956 . S
H1579 C1566 0.929 1_545 S
H1580 C1566 0.961 . S
H1581 C1567 0.958 . S
H1582 C1567 0.961 . S
H1583 C1567 0.960 1_545 S
C1584 C1585 1.391 . S
C1584 C1586 1.394 . S
C1584 H1600 0.931 . S
C1585 C1584 1.391 . S
C1585 C1589 1.376 . S
C1586 C1584 1.394 . S
C1586 C1587 1.369 . S
C1586 C1590 1.531 1_455 S
C1587 C1586 1.369 . S
C1587 C1588 1.410 . S
C1587 C1595 1.503 1_455 S
C1588 C1587 1.410 . S
C1588 C1589 1.392 . S
C1588 C1591 1.511 . S
C1589 C1585 1.376 . S
C1589 C1588 1.392 . S
C1589 H1601 0.929 . S
C1590 C1586 1.531 1_655 S
C1590 H1602 0.960 . S
C1590 H1603 0.962 . S
C1590 H1604 0.960 . S
C1591 C1588 1.511 . S
C1591 H1605 0.961 . S
C1591 H1606 0.961 . S
C1591 H1607 0.961 . S
C1592 C1593 1.370 . S
C1592 C1594 1.363 . S
C1592 H1608 0.931 . S
C1593 C1592 1.370 . S
C1593 C1597 1.408 . S
C1594 C1592 1.363 . S
C1594 C1595 1.370 . S
C1594 C1598 1.516 1_655 S
C1595 C1587 1.503 1_655 S
C1595 C1594 1.370 . S
C1595 C1596 1.403 . S
C1596 C1595 1.403 . S
C1596 C1597 1.404 . S
C1596 C1599 1.539 . S
C1597 C1593 1.408 . S
C1597 C1596 1.404 . S
C1597 H1609 0.930 . S
C1598 C1594 1.516 1_455 S
C1598 H1610 0.958 . S
C1598 H1611 0.971 . S
C1598 H1612 0.957 1_455 S
C1599 C1596 1.539 . S
C1599 H1613 0.958 . S
C1599 H1614 0.961 . S
C1599 H1615 0.960 . S
H1600 C1584 0.931 . S
H1601 C1589 0.929 . S
H1602 C1590 0.960 . S
H1603 C1590 0.962 . S
H1604 C1590 0.960 . S
H1605 C1591 0.961 . S
H1606 C1591 0.961 . S
H1607 C1591 0.961 . S
H1608 C1592 0.931 . S
H1609 C1597 0.930 . S
H1610 C1598 0.958 . S
H1611 C1598 0.971 . S
H1612 C1598 0.957 1_655 S
H1613 C1599 0.958 . S
H1614 C1599 0.961 . S
H1615 C1599 0.960 . S
C1616 C1617 1.391 . S
C1616 C1618 1.394 . S
C1616 H1632 0.931 . S
C1617 C1616 1.391 . S
C1617 C1621 1.376 . S
C1618 C1616 1.394 . S
C1618 C1619 1.369 . S
C1618 C1622 1.530 1_545 S
C1619 C1618 1.369 . S
C1619 C1620 1.410 . S
C1619 C1627 1.503 1_545 S
C1620 C1619 1.410 . S
C1620 C1621 1.392 . S
C1620 C1623 1.511 . S
C1621 C1617 1.376 . S
C1621 C1620 1.392 . S
C1621 H1633 0.929 . S
C1622 C1618 1.530 1_565 S
C1622 H1634 0.961 . S
C1622 H1635 0.963 . S
C1622 H1636 0.960 1_565 S
C1623 C1620 1.511 . S
C1623 H1637 0.961 . S
C1623 H1638 0.961 . S
C1623 H1639 0.961 . S
C1624 C1625 1.370 . S
C1624 C1626 1.363 . S
C1624 H1640 0.931 . S
C1625 C1624 1.370 . S
C1625 C1629 1.408 . S
C1626 C1624 1.363 . S
C1626 C1627 1.370 . S
C1626 C1630 1.524 . S
C1627 C1619 1.503 1_565 S
C1627 C1626 1.370 . S
C1627 C1628 1.403 . S
C1628 C1627 1.403 . S
C1628 C1629 1.404 . S
C1628 C1631 1.507 1_565 S
C1629 C1625 1.408 . S
C1629 C1628 1.404 . S
C1629 H1641 0.930 . S
C1630 C1626 1.524 . S
C1630 H1642 0.956 . S
C1630 H1643 0.961 . S
C1630 H1644 0.961 . S
C1631 C1628 1.507 1_545 S
C1631 H1645 0.957 . S
C1631 H1646 0.952 1_545 S
C1631 H1647 1.005 . S
H1632 C1616 0.931 . S
H1633 C1621 0.929 . S
H1634 C1622 0.961 . S
H1635 C1622 0.963 . S
H1636 C1622 0.960 1_545 S
H1637 C1623 0.961 . S
H1638 C1623 0.961 . S
H1639 C1623 0.961 . S
H1640 C1624 0.931 . S
H1641 C1629 0.930 . S
H1642 C1630 0.956 . S
H1643 C1630 0.961 . S
H1644 C1630 0.961 . S
H1645 C1631 0.957 . S
H1646 C1631 0.952 1_565 S
H1647 C1631 1.005 . S
C1648 C1649 1.391 . S
C1648 C1650 1.394 . S
C1648 H1664 0.931 . S
C1649 C1648 1.391 . S
C1649 C1653 1.376 . S
C1650 C1648 1.394 . S
C1650 C1651 1.369 . S
C1650 C1654 1.531 1_455 S
C1651 C1650 1.369 . S
C1651 C1652 1.410 . S
C1651 C1659 1.503 1_455 S
C1652 C1651 1.410 . S
C1652 C1653 1.392 . S
C1652 C1655 1.511 . S
C1653 C1649 1.376 . S
C1653 C1652 1.392 . S
C1653 H1665 0.929 . S
C1654 C1650 1.531 1_655 S
C1654 H1666 0.960 . S
C1654 H1667 0.962 . S
C1654 H1668 0.960 . S
C1655 C1652 1.511 . S
C1655 H1669 0.961 . S
C1655 H1670 0.961 . S
C1655 H1671 0.961 . S
C1656 C1657 1.370 . S
C1656 C1658 1.363 . S
C1656 H1672 0.931 . S
C1657 C1656 1.370 . S
C1657 C1661 1.408 . S
C1658 C1656 1.363 . S
C1658 C1659 1.370 . S
C1658 C1662 1.524 . S
C1659 C1651 1.503 1_655 S
C1659 C1658 1.370 . S
C1659 C1660 1.403 . S
C1660 C1659 1.403 . S
C1660 C1661 1.404 . S
C1660 C1663 1.539 . S
C1661 C1657 1.408 . S
C1661 C1660 1.404 . S
C1661 H1673 0.930 . S
C1662 C1658 1.524 . S
C1662 H1674 0.956 . S
C1662 H1675 0.961 1_655 S
C1662 H1676 0.961 . S
C1663 C1660 1.539 . S
C1663 H1677 0.958 . S
C1663 H1678 0.961 . S
C1663 H1679 0.960 1_655 S
H1664 C1648 0.931 . S
H1665 C1653 0.929 . S
H1666 C1654 0.960 . S
H1667 C1654 0.962 . S
H1668 C1654 0.960 . S
H1669 C1655 0.961 . S
H1670 C1655 0.961 . S
H1671 C1655 0.961 . S
H1672 C1656 0.931 . S
H1673 C1661 0.930 . S
H1674 C1662 0.956 . S
H1675 C1662 0.961 1_455 S
H1676 C1662 0.961 . S
H1677 C1663 0.958 . S
H1678 C1663 0.961 . S
H1679 C1663 0.960 1_455 S
C1680 C1681 1.391 . S
C1680 C1682 1.394 . S
C1680 H1696 0.931 . S
C1681 C1680 1.391 . S
C1681 C1685 1.376 . S
C1682 C1680 1.394 . S
C1682 C1683 1.369 . S
C1682 C1686 1.531 . S
C1683 C1682 1.369 . S
C1683 C1684 1.410 . S
C1683 C1691 1.503 . S
C1684 C1683 1.410 . S
C1684 C1685 1.392 . S
C1684 C1687 1.511 . S
C1685 C1681 1.376 . S
C1685 C1684 1.392 . S
C1685 H1697 0.929 . S
C1686 C1682 1.531 . S
C1686 H1698 0.960 . S
C1686 H1699 0.962 . S
C1686 H1700 0.960 . S
C1687 C1684 1.511 . S
C1687 H1701 0.961 . S
C1687 H1702 0.961 . S
C1687 H1703 0.961 . S
C1688 C1689 1.370 . S
C1688 C1690 1.363 . S
C1688 H1704 0.931 . S
C1689 C1688 1.370 . S
C1689 C1693 1.408 . S
C1690 C1688 1.363 . S
C1690 C1691 1.370 . S
C1690 C1694 1.524 . S
C1691 C1683 1.503 . S
C1691 C1690 1.370 . S
C1691 C1692 1.403 . S
C1692 C1691 1.403 . S
C1692 C1693 1.404 . S
C1692 C1695 1.539 . S
C1693 C1689 1.408 . S
C1693 C1692 1.404 . S
C1693 H1705 0.930 . S
C1694 C1690 1.524 . S
C1694 H1706 0.956 . S
C1694 H1707 0.961 . S
C1694 H1708 0.961 . S
C1695 C1692 1.539 . S
C1695 H1709 0.958 . S
C1695 H1710 0.961 . S
C1695 H1711 0.960 . S
H1696 C1680 0.931 . S
H1697 C1685 0.929 . S
H1698 C1686 0.960 . S
H1699 C1686 0.962 . S
H1700 C1686 0.960 . S
H1701 C1687 0.961 . S
H1702 C1687 0.961 . S
H1703 C1687 0.961 . S
H1704 C1688 0.931 . S
H1705 C1693 0.930 . S
H1706 C1694 0.956 . S
H1707 C1694 0.961 . S
H1708 C1694 0.961 . S
H1709 C1695 0.958 . S
H1710 C1695 0.961 . S
H1711 C1695 0.960 . S
C1712 C1713 1.391 . S
C1712 C1714 1.394 . S
C1712 H1728 0.931 . S
C1713 C1712 1.391 . S
C1713 C1717 1.376 . S
C1714 C1712 1.394 . S
C1714 C1715 1.369 . S
C1714 C1718 1.531 . S
C1715 C1714 1.369 . S
C1715 C1716 1.410 . S
C1715 C1723 1.503 . S
C1716 C1715 1.410 . S
C1716 C1717 1.392 . S
C1716 C1719 1.511 . S
C1717 C1713 1.376 . S
C1717 C1716 1.392 . S
C1717 H1729 0.929 . S
C1718 C1714 1.531 . S
C1718 H1730 0.960 . S
C1718 H1731 0.962 . S
C1718 H1732 0.960 . S
C1719 C1716 1.511 . S
C1719 H1733 0.961 . S
C1719 H1734 0.961 . S
C1719 H1735 0.961 . S
C1720 C1721 1.370 . S
C1720 C1722 1.363 . S
C1720 H1736 0.931 . S
C1721 C1720 1.370 . S
C1721 C1725 1.408 . S
C1722 C1720 1.363 . S
C1722 C1723 1.370 . S
C1722 C1726 1.524 . S
C1723 C1715 1.503 . S
C1723 C1722 1.370 . S
C1723 C1724 1.403 . S
C1724 C1723 1.403 . S
C1724 C1725 1.404 . S
C1724 C1727 1.539 . S
C1725 C1721 1.408 . S
C1725 C1724 1.404 . S
C1725 H1737 0.930 . S
C1726 C1722 1.524 . S
C1726 H1738 0.956 . S
C1726 H1739 0.961 . S
C1726 H1740 0.961 . S
C1727 C1724 1.539 . S
C1727 H1741 0.958 . S
C1727 H1742 0.961 . S
C1727 H1743 0.960 . S
H1728 C1712 0.931 . S
H1729 C1717 0.929 . S
H1730 C1718 0.960 . S
H1731 C1718 0.962 . S
H1732 C1718 0.960 . S
H1733 C1719 0.961 . S
H1734 C1719 0.961 . S
H1735 C1719 0.961 . S
H1736 C1720 0.931 . S
H1737 C1725 0.930 . S
H1738 C1726 0.956 . S
H1739 C1726 0.961 . S
H1740 C1726 0.961 . S
H1741 C1727 0.958 . S
H1742 C1727 0.961 . S
H1743 C1727 0.960 . S
C1744 C1745 1.391 . S
C1744 C1746 1.394 . S
C1744 H1760 0.931 . S
C1745 C1744 1.391 . S
C1745 C1749 1.376 . S
C1746 C1744 1.394 . S
C1746 C1747 1.369 . S
C1746 C1750 1.531 . S
C1747 C1746 1.369 . S
C1747 C1748 1.410 . S
C1747 C1755 1.503 . S
C1748 C1747 1.410 . S
C1748 C1749 1.392 . S
C1748 C1751 1.511 . S
C1749 C1745 1.376 . S
C1749 C1748 1.392 . S
C1749 H1761 0.929 . S
C1750 C1746 1.531 . S
C1750 H1762 0.960 . S
C1750 H1763 0.962 . S
C1750 H1764 0.960 . S
C1751 C1748 1.511 . S
C1751 H1765 0.961 . S
C1751 H1766 0.961 . S
C1751 H1767 0.961 . S
C1752 C1753 1.370 . S
C1752 C1754 1.363 . S
C1752 H1768 0.931 . S
C1753 C1752 1.370 . S
C1753 C1757 1.408 . S
C1754 C1752 1.363 . S
C1754 C1755 1.370 . S
C1754 C1758 1.524 . S
C1755 C1747 1.503 . S
C1755 C1754 1.370 . S
C1755 C1756 1.403 . S
C1756 C1755 1.403 . S
C1756 C1757 1.404 . S
C1756 C1759 1.539 . S
C1757 C1753 1.408 . S
C1757 C1756 1.404 . S
C1757 H1769 0.930 . S
C1758 C1754 1.524 . S
C1758 H1770 0.956 . S
C1758 H1771 0.961 . S
C1758 H1772 0.961 . S
C1759 C1756 1.539 . S
C1759 H1773 0.958 . S
C1759 H1774 0.961 . S
C1759 H1775 0.960 . S
H1760 C1744 0.931 . S
H1761 C1749 0.929 . S
H1762 C1750 0.960 . S
H1763 C1750 0.962 . S
H1764 C1750 0.960 . S
H1765 C1751 0.961 . S
H1766 C1751 0.961 . S
H1767 C1751 0.961 . S
H1768 C1752 0.931 . S
H1769 C1757 0.930 . S
H1770 C1758 0.956 . S
H1771 C1758 0.961 . S
H1772 C1758 0.961 . S
H1773 C1759 0.958 . S
H1774 C1759 0.961 . S
H1775 C1759 0.960 . S
C1776 C1777 1.391 . S
C1776 C1778 1.394 . S
C1776 H1792 0.931 . S
C1777 C1776 1.391 . S
C1777 C1781 1.376 . S
C1778 C1776 1.394 . S
C1778 C1779 1.369 . S
C1778 C1782 1.531 . S
C1779 C1778 1.369 . S
C1779 C1780 1.410 . S
C1779 C1787 1.503 1_554 S
C1780 C1779 1.410 . S
C1780 C1781 1.392 . S
C1780 C1783 1.511 . S
C1781 C1777 1.376 . S
C1781 C1780 1.392 . S
C1781 H1793 0.929 . S
C1782 C1778 1.531 . S
C1782 H1794 0.960 . S
C1782 H1795 0.962 . S
C1782 H1796 0.960 . S
C1783 C1780 1.511 . S
C1783 H1797 0.961 . S
C1783 H1798 0.961 1_554 S
C1783 H1799 0.961 . S
C1784 C1785 1.370 . S
C1784 C1786 1.363 . S
C1784 H1800 0.931 . S
C1785 C1784 1.370 . S
C1785 C1789 1.408 . S
C1786 C1784 1.363 . S
C1786 C1787 1.370 . S
C1786 C1790 1.524 . S
C1787 C1779 1.503 1_556 S
C1787 C1786 1.370 . S
C1787 C1788 1.403 . S
C1788 C1787 1.403 . S
C1788 C1789 1.404 . S
C1788 C1791 1.539 1_556 S
C1789 C1785 1.408 . S
C1789 C1788 1.404 . S
C1789 H1801 0.930 . S
C1790 C1786 1.524 . S
C1790 H1802 0.956 . S
C1790 H1803 0.961 . S
C1790 H1804 0.961 . S
C1791 C1788 1.539 1_554 S
C1791 H1805 0.958 . S
C1791 H1806 0.961 1_554 S
C1791 H1807 0.960 . S
H1792 C1776 0.931 . S
H1793 C1781 0.929 . S
H1794 C1782 0.960 . S
H1795 C1782 0.962 . S
H1796 C1782 0.960 . S
H1797 C1783 0.961 . S
H1798 C1783 0.961 1_556 S
H1799 C1783 0.961 . S
H1800 C1784 0.931 . S
H1801 C1789 0.930 . S
H1802 C1790 0.956 . S
H1803 C1790 0.961 . S
H1804 C1790 0.961 . S
H1805 C1791 0.958 . S
H1806 C1791 0.961 1_556 S
H1807 C1791 0.960 . S
C1808 C1809 1.391 . S
C1808 C1810 1.394 . S
C1808 H1824 0.931 . S
C1809 C1808 1.391 . S
C1809 C1813 1.376 . S
C1810 C1808 1.394 . S
C1810 C1811 1.369 . S
C1810 C1814 1.531 . S
C1811 C1810 1.369 . S
C1811 C1812 1.410 . S
C1811 C1819 1.503 . S
C1812 C1811 1.410 . S
C1812 C1813 1.392 . S
C1812 C1815 1.511 . S
C1813 C1809 1.376 . S
C1813 C1812 1.392 . S
C1813 H1825 0.929 . S
C1814 C1810 1.531 . S
C1814 H1826 0.960 . S
C1814 H1827 0.962 . S
C1814 H1828 0.960 . S
C1815 C1812 1.511 . S
C1815 H1829 0.961 . S
C1815 H1830 0.961 . S
C1815 H1831 0.961 . S
C1816 C1817 1.370 . S
C1816 C1818 1.363 . S
C1816 H1832 0.931 . S
C1817 C1816 1.370 . S
C1817 C1821 1.408 . S
C1818 C1816 1.363 . S
C1818 C1819 1.370 . S
C1818 C1822 1.524 . S
C1819 C1811 1.503 . S
C1819 C1818 1.370 . S
C1819 C1820 1.403 . S
C1820 C1819 1.403 . S
C1820 C1821 1.404 . S
C1820 C1823 1.539 . S
C1821 C1817 1.408 . S
C1821 C1820 1.404 . S
C1821 H1833 0.930 . S
C1822 C1818 1.524 . S
C1822 H1834 0.956 . S
C1822 H1835 0.961 . S
C1822 H1836 0.961 . S
C1823 C1820 1.539 . S
C1823 H1837 0.958 . S
C1823 H1838 0.961 . S
C1823 H1839 0.960 . S
H1824 C1808 0.931 . S
H1825 C1813 0.929 . S
H1826 C1814 0.960 . S
H1827 C1814 0.962 . S
H1828 C1814 0.960 . S
H1829 C1815 0.961 . S
H1830 C1815 0.961 . S
H1831 C1815 0.961 . S
H1832 C1816 0.931 . S
H1833 C1821 0.930 . S
H1834 C1822 0.956 . S
H1835 C1822 0.961 . S
H1836 C1822 0.961 . S
H1837 C1823 0.958 . S
H1838 C1823 0.961 . S
H1839 C1823 0.960 . S
C1840 C1841 1.391 . S
C1840 C1842 1.394 . S
C1840 H1856 0.931 . S
C1841 C1840 1.391 . S
C1841 C1845 1.376 . S
C1842 C1840 1.394 . S
C1842 C1843 1.369 . S
C1842 C1846 1.531 . S
C1843 C1842 1.369 . S
C1843 C1844 1.410 . S
C1843 C1851 1.503 1_554 S
C1844 C1843 1.410 . S
C1844 C1845 1.392 . S
C1844 C1847 1.511 . S
C1845 C1841 1.376 . S
C1845 C1844 1.392 . S
C1845 H1857 0.929 . S
C1846 C1842 1.531 . S
C1846 H1858 0.960 1_554 S
C1846 H1859 0.962 1_554 S
C1846 H1860 0.960 . S
C1847 C1844 1.511 . S
C1847 H1861 0.961 . S
C1847 H1862 0.961 . S
C1847 H1863 0.961 . S
C1848 C1849 1.370 . S
C1848 C1850 1.363 . S
C1848 H1864 0.931 . S
C1849 C1848 1.370 . S
C1849 C1853 1.408 . S
C1850 C1848 1.363 . S
C1850 C1851 1.370 . S
C1850 C1854 1.524 . S
C1851 C1843 1.503 1_556 S
C1851 C1850 1.370 . S
C1851 C1852 1.403 . S
C1852 C1851 1.403 . S
C1852 C1853 1.404 . S
C1852 C1855 1.539 1_556 S
C1853 C1849 1.408 . S
C1853 C1852 1.404 . S
C1853 H1865 0.930 . S
C1854 C1850 1.524 . S
C1854 H1866 0.956 . S
C1854 H1867 0.961 . S
C1854 H1868 0.961 . S
C1855 C1852 1.539 1_554 S
C1855 H1869 0.958 . S
C1855 H1870 0.961 . S
C1855 H1871 0.960 . S
H1856 C1840 0.931 . S
H1857 C1845 0.929 . S
H1858 C1846 0.960 1_556 S
H1859 C1846 0.962 1_556 S
H1860 C1846 0.960 . S
H1861 C1847 0.961 . S
H1862 C1847 0.961 . S
H1863 C1847 0.961 . S
H1864 C1848 0.931 . S
H1865 C1853 0.930 . S
H1866 C1854 0.956 . S
H1867 C1854 0.961 . S
H1868 C1854 0.961 . S
H1869 C1855 0.958 . S
H1870 C1855 0.961 . S
H1871 C1855 0.960 . S
C337 C57 1.473 . S
C345 C13 1.464 . S
C369 C15 1.465 . S
C377 C71 1.461 . S
C401 C97 1.461 . S
C409 C40 1.460 . S
C433 C99 1.447 . S
C441 C43 1.464 . S
C465 C208 1.473 . S
C473 C112 1.471 . S
C497 C210 1.460 . S
C505 C127 1.472 . S
C529 C141 1.477 . S
C537 C168 1.469 . S
C561 C182 1.462 . S
C569 C154 1.472 . S
C593 C224 1.447 . S
C601 C295 1.465 . S
C625 C251 1.477 . S
C633 C266 1.466 . S
C657 C252 1.477 . S
C665 C293 1.468 . S
C689 C320 1.451 . S
C697 C322 1.460 . S
C721 C55 1.477 . S
C729 C83 1.470 . S
C753 C1 1.469 . S
C761 C85 1.472 . S
C785 C111 1.476 . S
C793 C27 1.467 . S
C817 C28 1.455 . S
C825 C69 1.468 . S
C849 C334 1.452 . S
C857 C264 1.467 . S
C881 C278 1.470 . S
C889 C307 1.464 . S
C913 C281 1.471 . S
C921 C308 1.472 . S
C945 C239 1.448 . S
C953 C236 1.464 . S
C977 C166 1.472 . S
C985 C139 1.472 . S
C1009 C222 1.454 . S
C1017 C194 1.460 . S
C1041 C180 1.450 . S
C1049 C196 1.460 . S
C1073 C153 1.459 . S
C1081 C124 1.470 . S
C1105 C321 1.489 . S
C1113 C12 1.491 . S
C1137 C225 1.489 . S
C1145 C14 1.490 . S
C1169 C323 1.481 . S
C1177 C41 1.491 . S
C1201 C294 1.482 . S
C1209 C42 1.488 . S
C1233 C253 1.480 . S
C1241 C56 1.490 . S
C1265 C70 1.490 . S
C1273 C267 1.490 . S
C1297 C292 1.481 . S
C1305 C96 1.489 . S
C1329 C250 1.481 . S
C1337 C98 1.489 . S
C1361 C183 1.484 . S
C1369 C113 1.487 . S
C1393 C209 1.482 . S
C1401 C126 1.491 . S
C1425 C211 1.488 . S
C1433 C140 1.491 . S
C1457 C155 1.483 . S
C1465 C169 1.488 . S
C1489 C82 1.483 . S
C1497 C152 1.491 . S
C1521 C84 1.489 . S
C1529 C167 1.491 . S
C1553 C125 1.488 . S
C1561 C110 1.491 . S
C1585 C68 1.490 . S
C1593 C138 1.490 . S
C1617 C197 1.486 . S
C1625 C54 1.491 . S
C1649 C0 1.489 . S
C1657 C223 1.491 . S
C1681 C181 1.482 . S
C1689 C26 1.488 . S
C1713 C29 1.481 . S
C1721 C195 1.488 . S
C1745 C238 1.482 . S
C1753 C335 1.491 . S
C1777 C306 1.480 . S
C1785 C265 1.489 . S
C1809 C309 1.490 . S
C1817 C279 1.491 . S
C1841 C237 1.484 . S
C1849 C280 1.491 . S
