# Generated by pormake.
# Topology wnd, (6)-cn, num edge types: 1
# Building blocks:
#     Node 0, Type 0, BuildingBlock: BETDAH_clean_sbu_0, # of connection points: 6
#     Node 1, Type 0, BuildingBlock: BETDAH_clean_sbu_0, # of connection points: 6
#     Node 2, Type 0, BuildingBlock: BETDAH_clean_sbu_0, # of connection points: 6
#     Node 3, Type 0, BuildingBlock: BETDAH_clean_sbu_0, # of connection points: 6
#     Node 4, Type 0, BuildingBlock: BETDAH_clean_sbu_0, # of connection points: 6
#     Node 5, Type 0, BuildingBlock: BETDAH_clean_sbu_0, # of connection points: 6
#     Node 6, Type 0, BuildingBlock: BETDAH_clean_sbu_0, # of connection points: 6
#     Node 7, Type 0, BuildingBlock: BETDAH_clean_sbu_0, # of connection points: 6
#     Node 8, Type 0, BuildingBlock: BETDAH_clean_sbu_0, # of connection points: 6
#     Node 9, Type 0, BuildingBlock: BETDAH_clean_sbu_0, # of connection points: 6
#     Node 10, Type 0, BuildingBlock: BETDAH_clean_sbu_0, # of connection points: 6
#     Node 11, Type 0, BuildingBlock: BETDAH_clean_sbu_0, # of connection points: 6
#     Node 12, Type 0, BuildingBlock: BETDAH_clean_sbu_0, # of connection points: 6
#     Node 13, Type 0, BuildingBlock: BETDAH_clean_sbu_0, # of connection points: 6
#     Node 14, Type 0, BuildingBlock: BETDAH_clean_sbu_0, # of connection points: 6
#     Node 15, Type 0, BuildingBlock: BETDAH_clean_sbu_0, # of connection points: 6
#     Node 16, Type 0, BuildingBlock: BETDAH_clean_sbu_0, # of connection points: 6
#     Node 17, Type 0, BuildingBlock: BETDAH_clean_sbu_0, # of connection points: 6
#     Node 18, Type 0, BuildingBlock: BETDAH_clean_sbu_0, # of connection points: 6
#     Node 19, Type 0, BuildingBlock: BETDAH_clean_sbu_0, # of connection points: 6
#     Node 20, Type 0, BuildingBlock: BETDAH_clean_sbu_0, # of connection points: 6
#     Node 21, Type 0, BuildingBlock: BETDAH_clean_sbu_0, # of connection points: 6
#     Node 22, Type 0, BuildingBlock: BETDAH_clean_sbu_0, # of connection points: 6
#     Node 23, Type 0, BuildingBlock: BETDAH_clean_sbu_0, # of connection points: 6
#     Node 24, Type 0, BuildingBlock: BETDAH_clean_sbu_0, # of connection points: 6
#     Node 25, Type 0, BuildingBlock: BETDAH_clean_sbu_0, # of connection points: 6
#     Node 26, Type 0, BuildingBlock: BETDAH_clean_sbu_0, # of connection points: 6
#     Node 27, Type 0, BuildingBlock: BETDAH_clean_sbu_0, # of connection points: 6
#     Node 28, Type 0, BuildingBlock: BETDAH_clean_sbu_0, # of connection points: 6
#     Node 29, Type 0, BuildingBlock: BETDAH_clean_sbu_0, # of connection points: 6
#     Node 30, Type 0, BuildingBlock: BETDAH_clean_sbu_0, # of connection points: 6
#     Node 31, Type 0, BuildingBlock: BETDAH_clean_sbu_0, # of connection points: 6
#     Node 32, Type 0, BuildingBlock: BETDAH_clean_sbu_0, # of connection points: 6
#     Node 33, Type 0, BuildingBlock: BETDAH_clean_sbu_0, # of connection points: 6
#     Node 34, Type 0, BuildingBlock: BETDAH_clean_sbu_0, # of connection points: 6
#     Node 35, Type 0, BuildingBlock: BETDAH_clean_sbu_0, # of connection points: 6
#     Edge 36, Type (0, 0), BuildingBlock: CIFDUS_clean_linker_0, # of connection points: 2
#     Edge 37, Type (0, 0), BuildingBlock: CIFDUS_clean_linker_0, # of connection points: 2
#     Edge 38, Type (0, 0), BuildingBlock: CIFDUS_clean_linker_0, # of connection points: 2
#     Edge 39, Type (0, 0), BuildingBlock: CIFDUS_clean_linker_0, # of connection points: 2
#     Edge 40, Type (0, 0), BuildingBlock: CIFDUS_clean_linker_0, # of connection points: 2
#     Edge 41, Type (0, 0), BuildingBlock: CIFDUS_clean_linker_0, # of connection points: 2
#     Edge 42, Type (0, 0), BuildingBlock: CIFDUS_clean_linker_0, # of connection points: 2
#     Edge 43, Type (0, 0), BuildingBlock: CIFDUS_clean_linker_0, # of connection points: 2
#     Edge 44, Type (0, 0), BuildingBlock: CIFDUS_clean_linker_0, # of connection points: 2
#     Edge 45, Type (0, 0), BuildingBlock: CIFDUS_clean_linker_0, # of connection points: 2
#     Edge 46, Type (0, 0), BuildingBlock: CIFDUS_clean_linker_0, # of connection points: 2
#     Edge 47, Type (0, 0), BuildingBlock: CIFDUS_clean_linker_0, # of connection points: 2
#     Edge 48, Type (0, 0), BuildingBlock: CIFDUS_clean_linker_0, # of connection points: 2
#     Edge 49, Type (0, 0), BuildingBlock: CIFDUS_clean_linker_0, # of connection points: 2
#     Edge 50, Type (0, 0), BuildingBlock: CIFDUS_clean_linker_0, # of connection points: 2
#     Edge 51, Type (0, 0), BuildingBlock: CIFDUS_clean_linker_0, # of connection points: 2
#     Edge 52, Type (0, 0), BuildingBlock: CIFDUS_clean_linker_0, # of connection points: 2
#     Edge 53, Type (0, 0), BuildingBlock: CIFDUS_clean_linker_0, # of connection points: 2
#     Edge 54, Type (0, 0), BuildingBlock: CIFDUS_clean_linker_0, # of connection points: 2
#     Edge 55, Type (0, 0), BuildingBlock: CIFDUS_clean_linker_0, # of connection points: 2
#     Edge 56, Type (0, 0), BuildingBlock: CIFDUS_clean_linker_0, # of connection points: 2
#     Edge 57, Type (0, 0), BuildingBlock: CIFDUS_clean_linker_0, # of connection points: 2
#     Edge 58, Type (0, 0), BuildingBlock: CIFDUS_clean_linker_0, # of connection points: 2
#     Edge 59, Type (0, 0), BuildingBlock: CIFDUS_clean_linker_0, # of connection points: 2
#     Edge 60, Type (0, 0), BuildingBlock: CIFDUS_clean_linker_0, # of connection points: 2
#     Edge 61, Type (0, 0), BuildingBlock: CIFDUS_clean_linker_0, # of connection points: 2
#     Edge 62, Type (0, 0), BuildingBlock: CIFDUS_clean_linker_0, # of connection points: 2
#     Edge 63, Type (0, 0), BuildingBlock: CIFDUS_clean_linker_0, # of connection points: 2
#     Edge 64, Type (0, 0), BuildingBlock: CIFDUS_clean_linker_0, # of connection points: 2
#     Edge 65, Type (0, 0), BuildingBlock: CIFDUS_clean_linker_0, # of connection points: 2
#     Edge 66, Type (0, 0), BuildingBlock: CIFDUS_clean_linker_0, # of connection points: 2
#     Edge 67, Type (0, 0), BuildingBlock: CIFDUS_clean_linker_0, # of connection points: 2
#     Edge 68, Type (0, 0), BuildingBlock: CIFDUS_clean_linker_0, # of connection points: 2
#     Edge 69, Type (0, 0), BuildingBlock: CIFDUS_clean_linker_0, # of connection points: 2
#     Edge 70, Type (0, 0), BuildingBlock: CIFDUS_clean_linker_0, # of connection points: 2
#     Edge 71, Type (0, 0), BuildingBlock: CIFDUS_clean_linker_0, # of connection points: 2
#     Edge 72, Type (0, 0), BuildingBlock: CIFDUS_clean_linker_0, # of connection points: 2
#     Edge 73, Type (0, 0), BuildingBlock: CIFDUS_clean_linker_0, # of connection points: 2
#     Edge 74, Type (0, 0), BuildingBlock: CIFDUS_clean_linker_0, # of connection points: 2
#     Edge 75, Type (0, 0), BuildingBlock: CIFDUS_clean_linker_0, # of connection points: 2
#     Edge 76, Type (0, 0), BuildingBlock: CIFDUS_clean_linker_0, # of connection points: 2
#     Edge 77, Type (0, 0), BuildingBlock: CIFDUS_clean_linker_0, # of connection points: 2
#     Edge 78, Type (0, 0), BuildingBlock: CIFDUS_clean_linker_0, # of connection points: 2
#     Edge 79, Type (0, 0), BuildingBlock: CIFDUS_clean_linker_0, # of connection points: 2
#     Edge 80, Type (0, 0), BuildingBlock: CIFDUS_clean_linker_0, # of connection points: 2
#     Edge 81, Type (0, 0), BuildingBlock: CIFDUS_clean_linker_0, # of connection points: 2
#     Edge 82, Type (0, 0), BuildingBlock: CIFDUS_clean_linker_0, # of connection points: 2
#     Edge 83, Type (0, 0), BuildingBlock: CIFDUS_clean_linker_0, # of connection points: 2
#     Edge 84, Type (0, 0), BuildingBlock: CIFDUS_clean_linker_0, # of connection points: 2
#     Edge 85, Type (0, 0), BuildingBlock: CIFDUS_clean_linker_0, # of connection points: 2
#     Edge 86, Type (0, 0), BuildingBlock: CIFDUS_clean_linker_0, # of connection points: 2
#     Edge 87, Type (0, 0), BuildingBlock: CIFDUS_clean_linker_0, # of connection points: 2
#     Edge 88, Type (0, 0), BuildingBlock: CIFDUS_clean_linker_0, # of connection points: 2
#     Edge 89, Type (0, 0), BuildingBlock: CIFDUS_clean_linker_0, # of connection points: 2
#     Edge 90, Type (0, 0), BuildingBlock: CIFDUS_clean_linker_0, # of connection points: 2
#     Edge 91, Type (0, 0), BuildingBlock: CIFDUS_clean_linker_0, # of connection points: 2
#     Edge 92, Type (0, 0), BuildingBlock: CIFDUS_clean_linker_0, # of connection points: 2
#     Edge 93, Type (0, 0), BuildingBlock: CIFDUS_clean_linker_0, # of connection points: 2
#     Edge 94, Type (0, 0), BuildingBlock: CIFDUS_clean_linker_0, # of connection points: 2
#     Edge 95, Type (0, 0), BuildingBlock: CIFDUS_clean_linker_0, # of connection points: 2
#     Edge 96, Type (0, 0), BuildingBlock: CIFDUS_clean_linker_0, # of connection points: 2
#     Edge 97, Type (0, 0), BuildingBlock: CIFDUS_clean_linker_0, # of connection points: 2
#     Edge 98, Type (0, 0), BuildingBlock: CIFDUS_clean_linker_0, # of connection points: 2
#     Edge 99, Type (0, 0), BuildingBlock: CIFDUS_clean_linker_0, # of connection points: 2
#     Edge 100, Type (0, 0), BuildingBlock: CIFDUS_clean_linker_0, # of connection points: 2
#     Edge 101, Type (0, 0), BuildingBlock: CIFDUS_clean_linker_0, # of connection points: 2
#     Edge 102, Type (0, 0), BuildingBlock: CIFDUS_clean_linker_0, # of connection points: 2
#     Edge 103, Type (0, 0), BuildingBlock: CIFDUS_clean_linker_0, # of connection points: 2
#     Edge 104, Type (0, 0), BuildingBlock: CIFDUS_clean_linker_0, # of connection points: 2
#     Edge 105, Type (0, 0), BuildingBlock: CIFDUS_clean_linker_0, # of connection points: 2
#     Edge 106, Type (0, 0), BuildingBlock: CIFDUS_clean_linker_0, # of connection points: 2
#     Edge 107, Type (0, 0), BuildingBlock: CIFDUS_clean_linker_0, # of connection points: 2
#     Edge 108, Type (0, 0), BuildingBlock: CIFDUS_clean_linker_0, # of connection points: 2
#     Edge 109, Type (0, 0), BuildingBlock: CIFDUS_clean_linker_0, # of connection points: 2
#     Edge 110, Type (0, 0), BuildingBlock: CIFDUS_clean_linker_0, # of connection points: 2
#     Edge 111, Type (0, 0), BuildingBlock: CIFDUS_clean_linker_0, # of connection points: 2
#     Edge 112, Type (0, 0), BuildingBlock: CIFDUS_clean_linker_0, # of connection points: 2
#     Edge 113, Type (0, 0), BuildingBlock: CIFDUS_clean_linker_0, # of connection points: 2
#     Edge 114, Type (0, 0), BuildingBlock: CIFDUS_clean_linker_0, # of connection points: 2
#     Edge 115, Type (0, 0), BuildingBlock: CIFDUS_clean_linker_0, # of connection points: 2
#     Edge 116, Type (0, 0), BuildingBlock: CIFDUS_clean_linker_0, # of connection points: 2
#     Edge 117, Type (0, 0), BuildingBlock: CIFDUS_clean_linker_0, # of connection points: 2
#     Edge 118, Type (0, 0), BuildingBlock: CIFDUS_clean_linker_0, # of connection points: 2
#     Edge 119, Type (0, 0), BuildingBlock: CIFDUS_clean_linker_0, # of connection points: 2
#     Edge 120, Type (0, 0), BuildingBlock: CIFDUS_clean_linker_0, # of connection points: 2
#     Edge 121, Type (0, 0), BuildingBlock: CIFDUS_clean_linker_0, # of connection points: 2
#     Edge 122, Type (0, 0), BuildingBlock: CIFDUS_clean_linker_0, # of connection points: 2
#     Edge 123, Type (0, 0), BuildingBlock: CIFDUS_clean_linker_0, # of connection points: 2
#     Edge 124, Type (0, 0), BuildingBlock: CIFDUS_clean_linker_0, # of connection points: 2
#     Edge 125, Type (0, 0), BuildingBlock: CIFDUS_clean_linker_0, # of connection points: 2
#     Edge 126, Type (0, 0), BuildingBlock: CIFDUS_clean_linker_0, # of connection points: 2
#     Edge 127, Type (0, 0), BuildingBlock: CIFDUS_clean_linker_0, # of connection points: 2
#     Edge 128, Type (0, 0), BuildingBlock: CIFDUS_clean_linker_0, # of connection points: 2
#     Edge 129, Type (0, 0), BuildingBlock: CIFDUS_clean_linker_0, # of connection points: 2
#     Edge 130, Type (0, 0), BuildingBlock: CIFDUS_clean_linker_0, # of connection points: 2
#     Edge 131, Type (0, 0), BuildingBlock: CIFDUS_clean_linker_0, # of connection points: 2
#     Edge 132, Type (0, 0), BuildingBlock: CIFDUS_clean_linker_0, # of connection points: 2
#     Edge 133, Type (0, 0), BuildingBlock: CIFDUS_clean_linker_0, # of connection points: 2
#     Edge 134, Type (0, 0), BuildingBlock: CIFDUS_clean_linker_0, # of connection points: 2
#     Edge 135, Type (0, 0), BuildingBlock: CIFDUS_clean_linker_0, # of connection points: 2
#     Edge 136, Type (0, 0), BuildingBlock: CIFDUS_clean_linker_0, # of connection points: 2
#     Edge 137, Type (0, 0), BuildingBlock: CIFDUS_clean_linker_0, # of connection points: 2
#     Edge 138, Type (0, 0), BuildingBlock: CIFDUS_clean_linker_0, # of connection points: 2
#     Edge 139, Type (0, 0), BuildingBlock: CIFDUS_clean_linker_0, # of connection points: 2
#     Edge 140, Type (0, 0), BuildingBlock: CIFDUS_clean_linker_0, # of connection points: 2
#     Edge 141, Type (0, 0), BuildingBlock: CIFDUS_clean_linker_0, # of connection points: 2
#     Edge 142, Type (0, 0), BuildingBlock: CIFDUS_clean_linker_0, # of connection points: 2
#     Edge 143, Type (0, 0), BuildingBlock: CIFDUS_clean_linker_0, # of connection points: 2
# Relax obj value: 0.105
# Max RMSD: 0.216
# Mean RMSD: 0.216
data_MOF--net-wnd--node1-BETDAH_clean_sbu_0--edge1-CIFDUS_clean_linker_0
_symmetry_space_group_name_H-M    P1
_symmetry_Int_Tables_number       1
_symmetry_cell_setting            triclinic
loop_
_symmetry_equiv_pos_as_xyz
'x, y, z'
_cell_length_a     36.856832
_cell_length_b     36.858508
_cell_length_c     134.87998
_cell_angle_alpha  89.93909
_cell_angle_beta   90.004072
_cell_angle_gamma 119.98801
loop_
_atom_site_label
_atom_site_type_symbol
_atom_site_fract_x
_atom_site_fract_y
_atom_site_fract_z
_atom_type_partial_charge
Ho0 Ho 0.48264 0.07501 0.05231 0.0
Ho1 Ho 0.52489 0.02162 0.05925 0.0
C2 C 0.58458 0.11889 0.05458 0.0
C3 C 0.45576 0.12749 0.05391 0.0
C4 C 0.47355 0.17334 0.05255 0.0
C5 C 0.50904 0.20266 0.05789 0.0
C6 C 0.52286 0.24562 0.05731 0.0
C7 C 0.50168 0.26043 0.05135 0.0
C8 C 0.46732 0.23112 0.04567 0.0
C9 C 0.45333 0.18816 0.04631 0.0
C10 C 0.51347 0.05501 0.03623 0.0
C11 C 0.42734 0.97384 0.05239 0.0
C12 C 0.5547 0.97173 0.06256 0.0
C13 C 0.55836 0.9345 0.05986 0.0
C14 C 0.59185 0.93112 0.06379 0.0
C15 C 0.5957 0.89568 0.06198 0.0
C16 C 0.56612 0.86235 0.05613 0.0
C17 C 0.53296 0.86635 0.05198 0.0
C18 C 0.52905 0.9019 0.05385 0.0
C19 C 0.50202 0.05985 0.07353 0.0
O20 O 0.55124 0.12385 0.05478 0.0
O21 O 0.58148 0.08165 0.05506 0.0
O22 O 0.44926 0.10446 0.04598 0.0
O23 O 0.47088 0.11615 0.06129 0.0
O24 O 0.49375 0.07594 0.03585 0.0
O25 O 0.51485 0.04546 0.0452 0.0
O26 O 0.46285 0.97293 0.05298 0.0
O27 O 0.42621 1.00942 0.05292 0.0
O28 O 0.51934 0.96594 0.06627 0.0
O29 O 0.57315 1.00499 0.0569 0.0
O30 O 0.53353 0.05359 0.07437 0.0
O31 O 0.48296 0.04205 0.06572 0.0
H32 H 0.52555 0.19242 0.06276 0.0
H33 H 0.54915 0.26699 0.06185 0.0
H34 H 0.45067 0.24129 0.04083 0.0
H35 H 0.42606 0.1664 0.04209 0.0
H36 H 0.61483 0.95574 0.06848 0.0
H37 H 0.62125 0.89396 0.06546 0.0
H38 H 0.5098 0.84192 0.0473 0.0
H39 H 0.50298 0.9037 0.05069 0.0
Ho40 Ho 0.02483 0.44972 0.05355 0.0
Ho41 Ho 0.08512 0.53439 0.06074 0.0
C42 C 0.99288 0.51693 0.05816 0.0
C43 C 0.96189 0.37364 0.05277 0.0
C44 C 0.91623 0.3484 0.0507 0.0
C45 C 0.88659 0.3518 0.05664 0.0
C46 C 0.84378 0.32225 0.05589 0.0
C47 C 0.82957 0.28856 0.04921 0.0
C48 C 0.85904 0.28692 0.04284 0.0
C49 C 0.9018 0.3163 0.04362 0.0
C50 C 0.05834 0.50357 0.0382 0.0
C51 C 0.1222 0.47966 0.05271 0.0
C52 C 0.14711 0.60939 0.06461 0.0
C53 C 0.17674 0.6517 0.06056 0.0
C54 C 0.20388 0.65752 0.05263 0.0
C55 C 0.23583 0.6979 0.05 0.0
C56 C 0.24168 0.73354 0.05526 0.0
C57 C 0.21321 0.72762 0.0629 0.0
C58 C 0.18129 0.68728 0.06552 0.0
C59 C 0.05086 0.47356 0.07535 0.0
O60 O 0.98222 0.477 0.0571 0.0
O61 O 0.0325 0.54644 0.05833 0.0
O62 O 0.98784 0.3914 0.04537 0.0
O63 O 0.97301 0.39721 0.06067 0.0
O64 O 0.04875 0.46457 0.03808 0.0
O65 O 0.04858 0.51248 0.04655 0.0
O66 O 0.12567 0.51685 0.05203 0.0
O67 O 0.08513 0.44666 0.0549 0.0
O68 O 0.15181 0.57792 0.06198 0.0
O69 O 0.10776 0.59864 0.06552 0.0
O70 O 0.06014 0.51205 0.07643 0.0
O71 O 0.06306 0.4704 0.0669 0.0
H72 H 0.89656 0.37611 0.0622 0.0
H73 H 0.82218 0.32451 0.06095 0.0
H74 H 0.84923 0.26197 0.03746 0.0
H75 H 0.92381 0.31278 0.03897 0.0
H76 H 0.20131 0.63083 0.04865 0.0
H77 H 0.25658 0.7011 0.04396 0.0
H78 H 0.21679 0.75398 0.06722 0.0
H79 H 0.16113 0.68376 0.07173 0.0
Ho80 Ho 0.65507 0.61095 0.05369 0.0
Ho81 Ho 0.56075 0.57203 0.06044 0.0
C82 C 0.59275 0.50906 0.05514 0.0
C83 C 0.73351 0.63348 0.05573 0.0
C84 C 0.76015 0.6145 0.05389 0.0
C85 C 0.74301 0.57079 0.05396 0.0
C86 C 0.76899 0.55312 0.05353 0.0
C87 C 0.81287 0.57873 0.053 0.0
C88 C 0.82974 0.62252 0.05256 0.0
C89 C 0.80369 0.64014 0.05304 0.0
C90 C 0.60558 0.58246 0.03733 0.0
C91 C 0.61223 0.66951 0.05381 0.0
C92 C 0.48172 0.54404 0.06424 0.0
C93 C 0.44076 0.53961 0.06136 0.0
C94 C 0.40617 0.51683 0.06762 0.0
C95 C 0.36641 0.5104 0.06514 0.0
C96 C 0.36001 0.52666 0.05628 0.0
C97 C 0.3949 0.54942 0.04996 0.0
C98 C 0.43479 0.55573 0.05246 0.0
C99 C 0.62079 0.59185 0.07489 0.0
O100 O 0.63176 0.54105 0.05577 0.0
O101 O 0.56014 0.51461 0.05534 0.0
O102 O 0.71908 0.64413 0.04803 0.0
O103 O 0.70532 0.61533 0.06269 0.0
O104 O 0.64621 0.60111 0.0372 0.0
O105 O 0.59368 0.5809 0.04624 0.0
O106 O 0.57533 0.63456 0.05427 0.0
O107 O 0.64831 0.66919 0.05437 0.0
O108 O 0.51186 0.58051 0.06726 0.0
O109 O 0.49565 0.52373 0.05901 0.0
O110 O 0.58364 0.55912 0.07513 0.0
O111 O 0.62311 0.61222 0.06722 0.0
H112 H 0.70955 0.5503 0.05468 0.0
H113 H 0.75466 0.51938 0.05398 0.0
H114 H 0.86322 0.64336 0.05194 0.0
H115 H 0.81771 0.67391 0.053 0.0
H116 H 0.4099 0.50387 0.07451 0.0
H117 H 0.34084 0.49337 0.07029 0.0
H118 H 0.39134 0.56214 0.04303 0.0
H119 H 0.46085 0.57302 0.04744 0.0
Ho120 Ho 0.08827 0.4919 0.46836 0.0
Ho121 Ho 0.03084 0.52276 0.46046 0.0
C122 C 0.12694 0.58822 0.46243 0.0
C123 C 0.14082 0.46531 0.47067 0.0
C124 C 0.18755 0.48786 0.47081 0.0
C125 C 0.2111 0.51876 0.46368 0.0
C126 C 0.25492 0.53823 0.46345 0.0
C127 C 0.27681 0.52798 0.47044 0.0
C128 C 0.25313 0.49808 0.4778 0.0
C129 C 0.20914 0.47814 0.47794 0.0
C130 C 0.06912 0.53336 0.48225 0.0
C131 C 0.98638 0.42802 0.46851 0.0
C132 C 0.9803 0.55129 0.4567 0.0
C133 C 0.9459 0.55921 0.45978 0.0
C134 C 0.95576 0.60061 0.46181 0.0
C135 C 0.92423 0.61084 0.46317 0.0
C136 C 0.88166 0.58001 0.46254 0.0
C137 C 0.87163 0.5382 0.46087 0.0
C138 C 0.90335 0.52796 0.45943 0.0
C139 C 0.07201 0.50197 0.44634 0.0
O140 O 0.13377 0.55624 0.4621 0.0
O141 O 0.08912 0.58224 0.46391 0.0
O142 O 0.12179 0.4714 0.47814 0.0
O143 O 0.12367 0.46517 0.46219 0.0
O144 O 0.10523 0.53594 0.48118 0.0
O145 O 0.04419 0.50853 0.47573 0.0
O146 O 0.98201 0.46035 0.46607 0.0
O147 O 0.02414 0.43152 0.46954 0.0
O148 O 0.97219 0.5136 0.45418 0.0
O149 O 1.0165 0.57279 0.46114 0.0
O150 O 0.06081 0.52979 0.44509 0.0
O151 O 0.05616 0.48407 0.45437 0.0
H152 H 0.19566 0.52758 0.45815 0.0
H153 H 0.27143 0.56052 0.45758 0.0
H154 H 0.26846 0.48985 0.48348 0.0
H155 H 0.19195 0.45484 0.48358 0.0
H156 H 0.98812 0.62562 0.462 0.0
H157 H 0.93331 0.64322 0.46457 0.0
H158 H 0.83923 0.51362 0.46026 0.0
H159 H 0.8945 0.49586 0.45775 0.0
Ho160 Ho 0.61865 0.64475 0.4657 0.0
Ho161 Ho 0.58026 0.55294 0.45835 0.0
C162 C 0.51658 0.58149 0.4654 0.0
C163 C 0.64316 0.72351 0.46375 0.0
C164 C 0.62653 0.75227 0.46542 0.0
C165 C 0.58784 0.74397 0.46139 0.0
C166 C 0.57553 0.77429 0.46171 0.0
C167 C 0.60153 0.81357 0.46609 0.0
C168 C 0.63908 0.82079 0.4706 0.0
C169 C 0.6515 0.79059 0.47022 0.0
C170 C 0.59123 0.59592 0.48194 0.0
C171 C 0.6749 0.60045 0.46652 0.0
C172 C 0.55675 0.47561 0.45375 0.0
C173 C 0.55109 0.43502 0.45739 0.0
C174 C 0.57709 0.43255 0.46466 0.0
C175 C 0.57267 0.39356 0.46728 0.0
C176 C 0.54227 0.35613 0.46268 0.0
C177 C 0.51566 0.35893 0.45561 0.0
C178 C 0.52004 0.39779 0.45302 0.0
C179 C 0.60305 0.61532 0.44434 0.0
O180 O 0.54772 0.62104 0.46459 0.0
O181 O 0.52318 0.54974 0.46443 0.0
O182 O 0.65282 0.70849 0.4715 0.0
O183 O 0.62486 0.69566 0.45675 0.0
O184 O 0.61076 0.63657 0.48206 0.0
O185 O 0.58856 0.58285 0.47306 0.0
O186 O 0.63926 0.56453 0.46584 0.0
O187 O 0.6765 0.63721 0.46545 0.0
O188 O 0.59498 0.50685 0.4526 0.0
O189 O 0.53128 0.48772 0.45715 0.0
O190 O 0.57044 0.57837 0.4436 0.0
O191 O 0.62219 0.61549 0.45202 0.0
H192 H 0.56773 0.71464 0.45764 0.0
H193 H 0.54657 0.76761 0.45812 0.0
H194 H 0.6595 0.85029 0.47424 0.0
H195 H 0.68137 0.79778 0.47339 0.0
H196 H 0.60122 0.46074 0.46818 0.0
H197 H 0.59338 0.39285 0.47287 0.0
H198 H 0.49233 0.33125 0.45178 0.0
H199 H 0.49971 0.39887 0.44737 0.0
Ho200 Ho 0.46048 0.02052 0.46799 0.0
Ho201 Ho 0.54974 0.07382 0.46097 0.0
C202 C 0.51804 0.97724 0.46339 0.0
C203 C 0.38262 0.9617 0.46903 0.0
C204 C 0.3593 0.91515 0.46817 0.0
C205 C 0.33955 0.89604 0.4592 0.0
C206 C 0.3163 0.85235 0.45836 0.0
C207 C 0.31177 0.82641 0.46649 0.0
C208 C 0.33205 0.84553 0.47543 0.0
C209 C 0.35542 0.88931 0.47627 0.0
C210 C 0.51525 0.05377 0.48323 0.0
C211 C 0.49872 0.11957 0.46747 0.0
C212 C 0.62943 0.12618 0.45801 0.0
C213 C 0.66861 0.16483 0.46122 0.0
C214 C 0.7 0.16133 0.46639 0.0
C215 C 0.73928 0.19673 0.46835 0.0
C216 C 0.74856 0.23687 0.46517 0.0
C217 C 0.71693 0.24032 0.46006 0.0
C218 C 0.67769 0.20492 0.4581 0.0
C219 C 0.48997 0.03701 0.44632 0.0
O220 O 0.47991 0.97195 0.46447 0.0
O221 O 0.55117 1.01481 0.46273 0.0
O222 O 0.40632 0.97831 0.47682 0.0
O223 O 0.4003 0.98265 0.46094 0.0
O224 O 0.47781 0.04896 0.48311 0.0
O225 O 0.52176 0.04006 0.47516 0.0
O226 O 0.53542 0.12127 0.46762 0.0
O227 O 0.46337 0.08317 0.46651 0.0
O228 O 0.59937 0.12944 0.45368 0.0
O229 O 0.6149 0.09312 0.46369 0.0
O230 O 0.52731 0.04187 0.44587 0.0
O231 O 0.48756 0.05389 0.45419 0.0
H232 H 0.34175 0.9149 0.45281 0.0
H233 H 0.30171 0.8389 0.45132 0.0
H234 H 0.32887 0.82671 0.48189 0.0
H235 H 0.36996 0.90286 0.48331 0.0
H236 H 0.69455 0.1309 0.46875 0.0
H237 H 0.76236 0.19257 0.47237 0.0
H238 H 0.72279 0.27039 0.45731 0.0
H239 H 0.65485 0.20893 0.45392 0.0
Ho240 Ho 0.5834 0.06278 0.95996 0.0
Ho241 Ho 0.62479 1.0086 0.96687 0.0
C242 C 0.68015 0.10983 0.96703 0.0
C243 C 0.55514 0.11407 0.95668 0.0
C244 C 0.55092 0.15076 0.95968 0.0
C245 C 0.58057 0.1835 0.96561 0.0
C246 C 0.57652 0.21887 0.96763 0.0
C247 C 0.54289 0.22269 0.96371 0.0
C248 C 0.51291 0.18918 0.95796 0.0
C249 C 0.51688 0.15388 0.95601 0.0
C250 C 0.6067 0.02515 0.94558 0.0
C251 C 0.5228 0.96592 0.96484 0.0
C252 C 0.65217 0.95645 0.96501 0.0
C253 C 0.63763 0.91175 0.96701 0.0
C254 C 0.59624 0.88363 0.96996 0.0
C255 C 0.58222 0.84057 0.97088 0.0
C256 C 0.60933 0.82484 0.96887 0.0
C257 C 0.65074 0.85343 0.96592 0.0
C258 C 0.66464 0.89624 0.96502 0.0
C259 C 0.59398 0.02836 0.98297 0.0
O260 O 0.64454 0.11052 0.96669 0.0
O261 O 0.68134 0.07435 0.96617 0.0
O262 O 0.59151 0.12049 0.95352 0.0
O263 O 0.53461 0.07918 0.96171 0.0
O264 O 0.57551 0.03189 0.94472 0.0
O265 O 0.6254 0.04223 0.95348 0.0
O266 O 0.55579 0.96036 0.96463 0.0
O267 O 0.52646 1.00338 0.96426 0.0
O268 O 0.66158 0.98185 0.9726 0.0
O269 O 0.63129 0.96338 0.95816 0.0
O270 O 0.61335 1.00706 0.98331 0.0
O271 O 0.59283 0.03831 0.97401 0.0
H272 H 0.60711 0.182 0.96858 0.0
H273 H 0.6 0.24336 0.97225 0.0
H274 H 0.48695 0.19069 0.95465 0.0
H275 H 0.49364 0.12922 0.95137 0.0
H276 H 0.57466 0.89487 0.97142 0.0
H277 H 0.55027 0.8197 0.97323 0.0
H278 H 0.67238 0.84265 0.96409 0.0
H279 H 0.69641 0.91719 0.96254 0.0
Ho280 Ho 0.02812 0.54936 0.96063 0.0
Ho281 Ho 0.0848 0.63681 0.96776 0.0
C282 C 0.98579 0.60115 0.96812 0.0
C283 C 0.97362 0.47038 0.95789 0.0
C284 C 0.93523 0.43155 0.96127 0.0
C285 C 0.93896 0.40051 0.96652 0.0
C286 C 0.90382 0.36102 0.96837 0.0
C287 C 0.86384 0.35126 0.96497 0.0
C288 C 0.86002 0.3827 0.9599 0.0
C289 C 0.89518 0.42217 0.95805 0.0
C290 C 0.0595 0.6095 0.94597 0.0
C291 C 0.12448 0.5772 0.96143 0.0
C292 C 0.14492 0.71422 0.96841 0.0
C293 C 0.19062 0.74012 0.97028 0.0
C294 C 0.21993 0.73451 0.96476 0.0
C295 C 0.2628 0.76406 0.96524 0.0
C296 C 0.27739 0.79985 0.97126 0.0
C297 C 0.24822 0.80378 0.97726 0.0
C298 C 0.20538 0.77442 0.97672 0.0
C299 C 0.05382 0.58209 0.98294 0.0
O300 O 0.98362 0.56436 0.96849 0.0
O301 O 1.02244 0.63566 0.96645 0.0
O302 O 0.97022 0.501 0.95394 0.0
O303 O 1.00773 0.48392 0.96316 0.0
O304 O 0.05228 0.57152 0.94492 0.0
O305 O 0.04694 0.61243 0.95443 0.0
O306 O 0.13128 0.61388 0.96482 0.0
O307 O 0.08665 0.54674 0.9593 0.0
O308 O 0.11989 0.6955 0.97592 0.0
O309 O 0.13387 0.69093 0.96047 0.0
O310 O 0.06037 0.62014 0.98313 0.0
O311 O 0.06531 0.57493 0.9746 0.0
H312 H 0.96938 0.40625 0.96897 0.0
H313 H 0.9081 0.33803 0.9724 0.0
H314 H 0.82999 0.37639 0.95703 0.0
H315 H 0.89111 0.44483 0.9538 0.0
H316 H 0.20964 0.70834 0.95972 0.0
H317 H 0.28415 0.75997 0.96049 0.0
H318 H 0.25832 0.83039 0.98215 0.0
H319 H 0.18357 0.77953 0.98105 0.0
Ho320 Ho 0.54795 0.5133 0.9604 0.0
Ho321 Ho 0.45373 0.4741 0.96706 0.0
C322 C 0.49666 0.41563 0.96687 0.0
C323 C 0.62691 0.54058 0.95662 0.0
C324 C 0.66783 0.54538 0.95971 0.0
C325 C 0.70427 0.5752 0.9548 0.0
C326 C 0.74359 0.58011 0.95713 0.0
C327 C 0.74776 0.55532 0.96449 0.0
C328 C 0.71106 0.52588 0.96956 0.0
C329 C 0.67156 0.52092 0.96719 0.0
C330 C 0.48813 0.4929 0.94586 0.0
C331 C 0.51565 0.57591 0.96575 0.0
C332 C 0.37534 0.45152 0.96489 0.0
C333 C 0.34847 0.47008 0.96678 0.0
C334 C 0.36574 0.51209 0.96973 0.0
C335 C 0.34075 0.53095 0.97015 0.0
C336 C 0.29797 0.50824 0.96758 0.0
C337 C 0.28069 0.46577 0.96494 0.0
C338 C 0.30567 0.44702 0.96452 0.0
C339 C 0.50285 0.50272 0.98348 0.0
O340 O 0.53348 0.45071 0.96656 0.0
O341 O 0.46056 0.41589 0.96627 0.0
O342 O 0.59661 0.50347 0.95403 0.0
O343 O 0.6132 0.56227 0.96136 0.0
O344 O 0.52516 0.52582 0.94564 0.0
O345 O 0.48574 0.4727 0.95356 0.0
O346 O 0.47685 0.54387 0.9648 0.0
O347 O 0.54839 0.5705 0.96576 0.0
O348 O 0.38958 0.44043 0.97255 0.0
O349 O 0.40388 0.47068 0.95806 0.0
O350 O 0.46221 0.48395 0.98357 0.0
O351 O 0.51497 0.50438 0.97459 0.0
H352 H 0.70225 0.59443 0.94899 0.0
H353 H 0.77054 0.60257 0.95292 0.0
H354 H 0.71274 0.50652 0.97538 0.0
H355 H 0.64401 0.49783 0.97113 0.0
H356 H 0.39883 0.53069 0.97141 0.0
H357 H 0.35532 0.56372 0.97215 0.0
H358 H 0.24779 0.44699 0.96309 0.0
H359 H 0.29172 0.41469 0.96216 0.0
Ho360 Ho 0.0689 0.57281 0.5606 0.0
Ho361 Ho 1.01387 0.60999 0.5541 0.0
C362 C 0.1165 0.67054 0.55429 0.0
C363 C 0.11782 0.54113 0.56314 0.0
C364 C 0.15208 0.53288 0.55995 0.0
C365 C 0.14217 0.49114 0.55843 0.0
C366 C 0.17358 0.48077 0.55686 0.0
C367 C 0.21624 0.51182 0.55672 0.0
C368 C 0.22624 0.55392 0.55789 0.0
C369 C 0.19463 0.5643 0.55957 0.0
C370 C 0.02864 0.59131 0.57547 0.0
C371 C 0.97186 0.51114 0.55739 0.0
C372 C 0.96569 0.64274 0.55388 0.0
C373 C 0.91972 0.62721 0.5544 0.0
C374 C 0.9046 0.64244 0.56193 0.0
C375 C 0.8618 0.62893 0.56275 0.0
C376 C 0.83249 0.5998 0.55601 0.0
C377 C 0.8475 0.58374 0.54857 0.0
C378 C 0.89061 0.5973 0.54776 0.0
C379 C 0.03169 0.57196 0.5391 0.0
O380 O 0.11947 0.63686 0.55616 0.0
O381 O 0.07938 0.66859 0.55333 0.0
O382 O 0.12649 0.57791 0.56654 0.0
O383 O 0.08213 0.52226 0.55838 0.0
O384 O 0.03812 0.56193 0.57606 0.0
O385 O 0.0454 0.61118 0.56771 0.0
O386 O 0.96671 0.54375 0.55904 0.0
O387 O 1.00947 0.51633 0.5559 0.0
O388 O 0.98131 0.63601 0.54582 0.0
O389 O 0.98226 0.63743 0.56191 0.0
O390 O 0.99665 0.57183 0.54017 0.0
O391 O 0.05657 0.5936 0.54601 0.0
H392 H 0.10987 0.46603 0.55878 0.0
H393 H 0.16435 0.44812 0.55587 0.0
H394 H 0.25865 0.57877 0.5579 0.0
H395 H 0.20362 0.59675 0.56082 0.0
H396 H 0.92608 0.66505 0.56723 0.0
H397 H 0.85167 0.64144 0.56871 0.0
H398 H 0.8261 0.56146 0.54321 0.0
H399 H 0.9011 0.58456 0.54193 0.0
Ho400 Ho 0.51311 0.53596 0.55924 0.0
Ho401 Ho 0.48206 0.44977 0.551 0.0
C402 C 0.42156 0.4886 0.55007 0.0
C403 C 0.53459 0.61349 0.56342 0.0
C404 C 0.5363 0.65336 0.56027 0.0
C405 C 0.57224 0.68554 0.55558 0.0
C406 C 0.57677 0.72536 0.55397 0.0
C407 C 0.54559 0.7344 0.55703 0.0
C408 C 0.50939 0.70191 0.5616 0.0
C409 C 0.50488 0.66217 0.56321 0.0
C410 C 0.47818 0.47096 0.57285 0.0
C411 C 0.58226 0.50918 0.5572 0.0
C412 C 0.46704 0.37305 0.54991 0.0
C413 C 0.49086 0.35053 0.54862 0.0
C414 C 0.52453 0.35857 0.55495 0.0
C415 C 0.54273 0.33311 0.55473 0.0
C416 C 0.52821 0.29927 0.54811 0.0
C417 C 0.49592 0.29242 0.54146 0.0
C418 C 0.47726 0.3176 0.54177 0.0
C419 C 0.50746 0.50649 0.53636 0.0
O420 O 0.45729 0.52448 0.5502 0.0
O421 O 0.42131 0.45276 0.55175 0.0
O422 O 0.49864 0.58113 0.56591 0.0
O423 O 0.55892 0.60239 0.55894 0.0
O424 O 0.51034 0.50747 0.57469 0.0
O425 O 0.46621 0.47209 0.56424 0.0
O426 O 0.55111 0.47206 0.55439 0.0
O427 O 0.57551 0.54013 0.5593 0.0
O428 O 0.46289 0.39285 0.54231 0.0
O429 O 0.47446 0.39431 0.5581 0.0
O430 O 0.4762 0.46837 0.53578 0.0
O431 O 0.52538 0.51288 0.54483 0.0
H432 H 0.59754 0.68036 0.55337 0.0
H433 H 0.60489 0.74911 0.55034 0.0
H434 H 0.48487 0.70748 0.56424 0.0
H435 H 0.47723 0.63872 0.56705 0.0
H436 H 0.53607 0.38378 0.56031 0.0
H437 H 0.56789 0.33958 0.55986 0.0
H438 H 0.48389 0.26649 0.5363 0.0
H439 H 0.45126 0.31046 0.53686 0.0
Ho440 Ho 0.55353 0.02626 0.56103 0.0
Ho441 Ho 0.64429 0.07622 0.55438 0.0
C442 C 0.60107 0.97615 0.55504 0.0
C443 C 0.47288 0.97798 0.56357 0.0
C444 C 0.43276 0.9389 0.56137 0.0
C445 C 0.39547 0.93438 0.56535 0.0
C446 C 0.35664 0.8984 0.56349 0.0
C447 C 0.3538 0.86562 0.55758 0.0
C448 C 0.39141 0.87051 0.55349 0.0
C449 C 0.4304 0.9067 0.55536 0.0
C450 C 0.61255 0.05894 0.5759 0.0
C451 C 0.59056 0.12424 0.55871 0.0
C452 C 0.72398 0.13068 0.55445 0.0
C453 C 0.75329 0.17626 0.55346 0.0
C454 C 0.73945 0.2052 0.55204 0.0
C455 C 0.76841 0.2485 0.55169 0.0
C456 C 0.81171 0.26355 0.55275 0.0
C457 C 0.825 0.23415 0.55428 0.0
C458 C 0.79622 0.19119 0.55461 0.0
C459 C 0.59022 0.04697 0.53894 0.0
O460 O 0.56524 0.97625 0.55483 0.0
O461 O 0.6373 1.01167 0.55613 0.0
O462 O 0.50111 0.97587 0.56903 0.0
O463 O 0.48961 1.00622 0.55658 0.0
O464 O 0.57608 0.05622 0.57627 0.0
O465 O 0.6146 0.04225 0.56794 0.0
O466 O 0.62696 0.12724 0.55641 0.0
O467 O 0.55671 0.08811 0.56053 0.0
O468 O 0.70373 0.10986 0.54654 0.0
O469 O 0.70039 0.11892 0.56235 0.0
O470 O 0.62713 0.05041 0.53902 0.0
O471 O 0.58433 0.06072 0.54708 0.0
H472 H 0.39638 0.9588 0.56999 0.0
H473 H 0.32894 0.89593 0.56692 0.0
H474 H 0.39079 0.84642 0.54879 0.0
H475 H 0.45858 0.90948 0.55213 0.0
H476 H 0.70635 0.19439 0.55124 0.0
H477 H 0.75699 0.27008 0.55046 0.0
H478 H 0.85785 0.24434 0.55535 0.0
H479 H 0.80756 0.16954 0.55588 0.0
Ho480 Ho 0.15634 0.41636 0.38888 0.0
Ho481 Ho 0.18709 0.35539 0.39563 0.0
C482 C 0.25651 0.44723 0.39017 0.0
C483 C 0.13959 0.47598 0.39155 0.0
C484 C 0.16095 0.52229 0.39052 0.0
C485 C 0.17648 0.54706 0.39909 0.0
C486 C 0.19629 0.59064 0.39855 0.0
C487 C 0.20056 0.61095 0.38944 0.0
C488 C 0.18525 0.58624 0.38081 0.0
C489 C 0.16561 0.54234 0.38135 0.0
C490 C 0.1826 0.39415 0.37245 0.0
C491 C 0.09223 0.31603 0.38809 0.0
C492 C 0.20647 0.29807 0.3997 0.0
C493 C 0.21462 0.26523 0.39574 0.0
C494 C 0.18959 0.23682 0.38837 0.0
C495 C 0.19577 0.2035 0.38563 0.0
C496 C 0.22694 0.19766 0.39023 0.0
C497 C 0.25275 0.22717 0.39736 0.0
C498 C 0.24663 0.26043 0.40007 0.0
C499 C 0.16693 0.39494 0.41017 0.0
O500 O 0.2274 0.45824 0.39127 0.0
O501 O 0.24619 0.40755 0.38973 0.0
O502 O 0.12794 0.4524 0.38356 0.0
O503 O 0.1556 0.46268 0.3983 0.0
O504 O 0.16662 0.41857 0.37245 0.0
O505 O 0.18288 0.38191 0.38127 0.0
O506 O 0.12579 0.31179 0.38844 0.0
O507 O 0.095 0.35344 0.3891 0.0
O508 O 0.16804 0.29124 0.39958 0.0
O509 O 0.23415 0.33713 0.39785 0.0
O510 O 0.19811 0.38821 0.4107 0.0
O511 O 0.1483 0.37946 0.40218 0.0
H512 H 0.17323 0.53267 0.4063 0.0
H513 H 0.20826 0.60843 0.40533 0.0
H514 H 0.18752 0.60072 0.37368 0.0
H515 H 0.15379 0.52419 0.37461 0.0
H516 H 0.16474 0.23981 0.38488 0.0
H517 H 0.17566 0.18193 0.37999 0.0
H518 H 0.27663 0.22366 0.40119 0.0
H519 H 0.2662 0.28178 0.40581 0.0
Ho520 Ho 0.68992 0.78688 0.38682 0.0
Ho521 Ho 0.74117 0.87738 0.3936 0.0
C522 C 0.64407 0.84256 0.3912 0.0
C523 C 0.63266 0.70829 0.38616 0.0
C524 C 0.58619 0.68359 0.38679 0.0
C525 C 0.56736 0.64775 0.39281 0.0
C526 C 0.52368 0.62314 0.39342 0.0
C527 C 0.49746 0.63356 0.388 0.0
C528 C 0.51642 0.67021 0.38216 0.0
C529 C 0.5603 0.69496 0.38156 0.0
C530 C 0.72188 0.84132 0.37151 0.0
C531 C 0.78987 0.82809 0.38777 0.0
C532 C 0.78981 0.95759 0.3966 0.0
C533 C 0.82951 0.99757 0.39475 0.0
C534 C 0.8546 1.00393 0.38636 0.0
C535 C 0.8897 0.04358 0.38442 0.0
C536 C 0.90039 0.07799 0.39078 0.0
C537 C 0.8751 0.0712 0.39918 0.0
C538 C 0.84029 0.03159 0.40113 0.0
C539 C 0.70438 0.81728 0.40814 0.0
O540 O 0.6399 0.80487 0.39008 0.0
O541 O 0.68113 0.87641 0.39182 0.0
O542 O 0.64929 0.73136 0.37826 0.0
O543 O 0.65226 0.72732 0.39427 0.0
O544 O 0.71811 0.8043 0.37168 0.0
O545 O 0.70763 0.84747 0.37954 0.0
O546 O 0.7908 0.86446 0.38774 0.0
O547 O 0.75377 0.7921 0.38849 0.0
O548 O 0.79003 0.9288 0.40225 0.0
O549 O 0.76329 0.94161 0.38926 0.0
O550 O 0.7065 0.85349 0.40839 0.0
O551 O 0.72285 0.81594 0.40046 0.0
H552 H 0.58654 0.63859 0.39702 0.0
H553 H 0.51044 0.5958 0.39818 0.0
H554 H 0.49741 0.67923 0.37785 0.0
H555 H 0.57391 0.72273 0.37694 0.0
H556 H 0.84672 0.97845 0.38123 0.0
H557 H 0.90806 0.04745 0.37783 0.0
H558 H 0.88245 0.09643 0.40434 0.0
H559 H 0.82124 0.02769 0.4076 0.0
Ho560 Ho 0.31584 0.94893 0.38674 0.0
Ho561 Ho 0.22824 0.91416 0.39482 0.0
C562 C 0.26167 0.8506 0.39378 0.0
C563 C 0.39397 0.97083 0.38433 0.0
C564 C 0.42146 0.9529 0.38643 0.0
C565 C 0.44933 0.96812 0.39447 0.0
C566 C 0.47745 0.95382 0.39621 0.0
C567 C 0.47917 0.92446 0.38984 0.0
C568 C 0.45047 0.9083 0.38194 0.0
C569 C 0.42197 0.92238 0.38024 0.0
C570 C 0.25778 0.9237 0.37216 0.0
C571 C 0.27647 1.00885 0.38685 0.0
C572 C 0.14909 0.88742 0.39831 0.0
C573 C 0.10989 0.88712 0.39521 0.0
C574 C 0.10135 0.9185 0.39834 0.0
C575 C 0.06208 0.91489 0.39655 0.0
C576 C 0.0299 0.87967 0.39162 0.0
C577 C 0.03873 0.84856 0.38839 0.0
C578 C 0.07801 0.8522 0.39018 0.0
C579 C 0.29108 0.94002 0.40881 0.0
O580 O 0.299 0.88293 0.39161 0.0
O581 O 0.22816 0.85424 0.39464 0.0
O582 O 0.36568 0.95314 0.37741 0.0
O583 O 0.3799 0.98179 0.39199 0.0
O584 O 0.29453 0.95715 0.37187 0.0
O585 O 0.25312 0.90509 0.38044 0.0
O586 O 0.24011 0.97376 0.38746 0.0
O587 O 0.31223 1.00848 0.38747 0.0
O588 O 0.17976 0.92118 0.40233 0.0
O589 O 0.16275 0.8679 0.39269 0.0
O590 O 0.25292 0.90992 0.41013 0.0
O591 O 0.29193 0.95746 0.40073 0.0
H592 H 0.44997 0.99182 0.39933 0.0
H593 H 0.49849 0.96647 0.40248 0.0
H594 H 0.45112 0.88603 0.37682 0.0
H595 H 0.40108 0.91008 0.37394 0.0
H596 H 0.12462 0.94542 0.40241 0.0
H597 H 0.0566 0.9393 0.39931 0.0
H598 H 1.01524 0.82124 0.38448 0.0
H599 H 0.08307 0.827 0.38781 0.0
Ho600 Ho 0.7487 0.81268 0.80084 0.0
Ho601 Ho 0.69723 0.85014 0.79358 0.0
C602 C 0.79388 0.91407 0.79651 0.0
C603 C 0.80425 0.78916 0.80195 0.0
C604 C 0.85035 0.80777 0.8022 0.0
C605 C 0.87748 0.84477 0.79702 0.0
C606 C 0.92061 0.85881 0.79648 0.0
C607 C 0.93724 0.83594 0.80105 0.0
C608 C 0.91013 0.80011 0.80661 0.0
C609 C 0.86726 0.78622 0.80717 0.0
C610 C 0.71605 0.83561 0.81594 0.0
C611 C 0.64921 0.75355 0.80009 0.0
C612 C 0.64732 0.87955 0.78976 0.0
C613 C 0.60795 0.87992 0.79188 0.0
C614 C 0.57961 0.85509 0.79929 0.0
C615 C 0.54377 0.85829 0.8013 0.0
C616 C 0.53564 0.88658 0.79599 0.0
C617 C 0.56434 0.91126 0.78858 0.0
C618 C 0.59988 0.90792 0.78656 0.0
C619 C 0.73477 0.82679 0.77925 0.0
O620 O 0.79872 0.88104 0.7979 0.0
O621 O 0.75654 0.90992 0.79545 0.0
O622 O 0.78624 0.79443 0.80972 0.0
O623 O 0.78815 0.7928 0.79363 0.0
O624 O 0.72014 0.80256 0.81593 0.0
O625 O 0.73019 0.85551 0.80785 0.0
O626 O 0.64824 0.78892 0.80013 0.0
O627 O 0.68527 0.75389 0.79915 0.0
O628 O 0.64544 0.84747 0.78514 0.0
O629 O 0.67643 0.89459 0.79655 0.0
O630 O 0.73219 0.86058 0.77889 0.0
O631 O 0.71625 0.80703 0.78696 0.0
H632 H 0.86518 0.86204 0.79313 0.0
H633 H 0.94056 0.88642 0.79212 0.0
H634 H 0.92196 0.78213 0.81036 0.0
H635 H 0.84704 0.75776 0.81124 0.0
H636 H 0.58532 0.83354 0.80356 0.0
H637 H 0.52272 0.83896 0.80712 0.0
H638 H 0.55906 0.93282 0.7842 0.0
H639 H 0.62138 0.92757 0.78084 0.0
Ho640 Ho 0.28502 0.97406 0.80169 0.0
Ho641 Ho 0.24668 0.88393 0.79423 0.0
C642 C 0.1839 0.91866 0.79689 0.0
C643 C 0.30843 0.05297 0.80354 0.0
C644 C 0.29001 0.08074 0.80337 0.0
C645 C 0.25565 0.07277 0.79732 0.0
C646 C 0.24141 0.10177 0.79678 0.0
C647 C 0.26142 0.13935 0.80224 0.0
C648 C 0.29463 0.14614 0.80858 0.0
C649 C 0.30871 0.11728 0.80912 0.0
C650 C 0.26324 0.91746 0.81648 0.0
C651 C 0.34435 0.93342 0.80026 0.0
C652 C 0.21609 0.804 0.79113 0.0
C653 C 0.21448 0.763 0.79258 0.0
C654 C 0.21045 0.7449 0.80202 0.0
C655 C 0.20135 0.70306 0.80299 0.0
C656 C 0.1954 0.67807 0.79456 0.0
C657 C 0.20104 0.69691 0.78516 0.0
C658 C 0.21044 0.73865 0.7842 0.0
C659 C 0.27029 0.9454 0.78005 0.0
O660 O 0.21717 0.95627 0.79838 0.0
O661 O 0.18743 0.88508 0.7958 0.0
O662 O 0.29895 0.02744 0.81106 0.0
O663 O 0.30928 0.03556 0.79517 0.0
O664 O 0.2963 0.95455 0.81651 0.0
O665 O 0.24269 0.91228 0.80851 0.0
O666 O 0.30922 0.89683 0.80006 0.0
O667 O 0.34379 0.96924 0.79979 0.0
O668 O 0.24493 0.83305 0.7855 0.0
O669 O 0.20486 0.81948 0.79845 0.0
O670 O 0.2388 0.90766 0.77912 0.0
O671 O 0.28937 0.9466 0.78786 0.0
H672 H 0.24047 0.04466 0.79284 0.0
H673 H 0.21588 0.09559 0.79181 0.0
H674 H 0.31038 0.17434 0.81301 0.0
H675 H 0.33502 0.12404 0.81389 0.0
H676 H 0.21287 0.76254 0.80864 0.0
H677 H 0.19716 0.68975 0.81035 0.0
H678 H 0.19749 0.6791 0.77849 0.0
H679 H 0.21289 0.75142 0.77683 0.0
Ho680 Ho 0.1188 0.34664 0.80081 0.0
Ho681 Ho 0.21304 0.39993 0.79369 0.0
C682 C 0.17734 0.3029 0.79783 0.0
C683 C 0.03942 0.29453 0.79919 0.0
C684 C 1.01135 0.24877 0.80035 0.0
C685 C 1.02259 0.21996 0.79668 0.0
C686 C 0.9935 0.17691 0.7966 0.0
C687 C 0.95258 0.16177 0.80018 0.0
C688 C 0.94232 0.19058 0.80435 0.0
C689 C 0.97131 0.23355 0.80439 0.0
C690 C 0.16946 0.36519 0.81687 0.0
C691 C 0.16478 0.44768 0.80139 0.0
C692 C 0.29214 0.45191 0.79034 0.0
C693 C 0.33092 0.49084 0.79352 0.0
C694 C 0.36291 0.48809 0.79858 0.0
C695 C 0.4019 0.52398 0.80041 0.0
C696 C 0.41023 0.56378 0.79719 0.0
C697 C 0.37791 0.56652 0.79226 0.0
C698 C 0.33896 0.53066 0.79043 0.0
C699 C 0.15125 0.36266 0.77952 0.0
O700 O 0.13887 0.29774 0.79808 0.0
O701 O 0.21111 0.34029 0.79727 0.0
O702 O 0.05608 0.31684 0.80721 0.0
O703 O 0.06586 0.306 0.79181 0.0
O704 O 0.12882 0.34449 0.81721 0.0
O705 O 0.18068 0.3756 0.80792 0.0
O706 O 0.20082 0.44804 0.80074 0.0
O707 O 0.12787 0.41256 0.80052 0.0
O708 O 0.26165 0.45521 0.78625 0.0
O709 O 0.27835 0.41848 0.79592 0.0
O710 O 0.18856 0.36776 0.77862 0.0
O711 O 0.15061 0.3805 0.78738 0.0
H712 H 0.05337 0.23078 0.79354 0.0
H713 H 1.00249 0.15579 0.7933 0.0
H714 H 0.91139 0.17999 0.80737 0.0
H715 H 0.96196 0.25506 0.80729 0.0
H716 H 0.35818 0.45791 0.80093 0.0
H717 H 0.4256 0.52044 0.80433 0.0
H718 H 0.38306 0.59633 0.7895 0.0
H719 H 0.31557 0.53408 0.78634 0.0
Ho720 Ho 0.25794 0.40459 0.29507 0.0
Ho721 Ho 0.29136 0.3467 0.30313 0.0
C722 C 0.35099 0.4476 0.30404 0.0
C723 C 0.23577 0.45993 0.29086 0.0
C724 C 0.2273 0.49316 0.29448 0.0
C725 C 0.25298 0.52344 0.30146 0.0
C726 C 0.24656 0.55702 0.30381 0.0
C727 C 0.21452 0.56145 0.29919 0.0
C728 C 0.18808 0.53012 0.29246 0.0
C729 C 0.19441 0.49655 0.29016 0.0
C730 C 0.29159 0.3734 0.28142 0.0
C731 C 0.19113 0.30828 0.29854 0.0
C732 C 0.31203 0.28948 0.30175 0.0
C733 C 0.29562 0.24465 0.30413 0.0
C734 C 0.25523 0.21386 0.30109 0.0
C735 C 0.24324 0.17136 0.30133 0.0
C736 C 0.27114 0.15846 0.3047 0.0
C737 C 0.31033 0.1892 0.30846 0.0
C738 C 0.32253 0.23179 0.30809 0.0
C739 C 0.25649 0.36457 0.31862 0.0
O740 O 0.31601 0.4494 0.30344 0.0
O741 O 0.35056 0.41124 0.30314 0.0
O742 O 0.27448 0.46769 0.29065 0.0
O743 O 0.20925 0.42106 0.2932 0.0
O744 O 0.26065 0.37963 0.27949 0.0
O745 O 0.30298 0.38565 0.2901 0.0
O746 O 0.22319 0.30146 0.29908 0.0
O747 O 0.19688 0.34655 0.2981 0.0
O748 O 0.32564 0.31715 0.30897 0.0
O749 O 0.29085 0.29672 0.29501 0.0
O750 O 0.27477 0.34232 0.31915 0.0
O751 O 0.25854 0.37735 0.30973 0.0
H752 H 0.27855 0.52168 0.30494 0.0
H753 H 0.26719 0.57989 0.30917 0.0
H754 H 0.16348 0.53235 0.28862 0.0
H755 H 0.1743 0.47382 0.2847 0.0
H756 H 0.23359 0.22265 0.298 0.0
H757 H 0.21295 0.14897 0.29832 0.0
H758 H 0.3323 0.18053 0.31139 0.0
H759 H 0.35377 0.2548 0.31049 0.0
Ho760 Ho 0.6964 0.88624 0.29319 0.0
Ho761 Ho 0.75291 0.97312 0.30112 0.0
C762 C 0.65346 0.93747 0.30078 0.0
C763 C 0.639 0.80905 0.28911 0.0
C764 C 0.60697 0.76754 0.29323 0.0
C765 C 0.57878 0.76364 0.30074 0.0
C766 C 0.54589 0.72391 0.30359 0.0
C767 C 0.53998 0.6869 0.29897 0.0
C768 C 0.56929 0.69105 0.2917 0.0
C769 C 0.60218 0.73072 0.28888 0.0
C770 C 0.73536 0.94848 0.27906 0.0
C771 C 0.79061 0.91091 0.29637 0.0
C772 C 0.81078 0.0512 0.30356 0.0
C773 C 0.85687 0.08023 0.3033 0.0
C774 C 0.88353 0.0756 0.29658 0.0
C775 C 0.92639 0.10612 0.29602 0.0
C776 C 0.94331 0.14205 0.30209 0.0
C777 C 0.9166 0.14563 0.309 0.0
C778 C 0.8741 0.1152 0.30959 0.0
C779 C 0.71566 0.91608 0.31584 0.0
O780 O 0.65117 0.90063 0.30085 0.0
O781 O 0.6905 0.97229 0.29976 0.0
O782 O 0.63189 0.84034 0.28967 0.0
O783 O 0.67851 0.82109 0.29041 0.0
O784 O 0.72506 0.90974 0.27778 0.0
O785 O 0.71977 0.95044 0.28716 0.0
O786 O 0.79901 0.95039 0.29705 0.0
O787 O 0.75172 0.87968 0.29642 0.0
O788 O 0.7955 0.02404 0.31079 0.0
O789 O 0.79176 0.03554 0.29516 0.0
O790 O 0.72207 0.95408 0.31593 0.0
O791 O 0.72943 0.90981 0.30774 0.0
H792 H 0.58154 0.79131 0.30426 0.0
H793 H 0.52468 0.72234 0.30934 0.0
H794 H 0.56588 0.66376 0.28785 0.0
H795 H 0.6232 0.7327 0.28302 0.0
H796 H 0.87109 0.04894 0.29163 0.0
H797 H 0.94592 0.10236 0.29059 0.0
H798 H 0.9285 0.17241 0.3139 0.0
H799 H 0.85434 0.11954 0.31484 0.0
Ho800 Ho 0.21275 0.84565 0.29411 0.0
Ho801 Ho 0.12629 0.81179 0.30248 0.0
C802 C 0.16395 0.75061 0.30179 0.0
C803 C 0.29016 0.86798 0.28938 0.0
C804 C 0.33234 0.87699 0.29294 0.0
C805 C 0.36851 0.90994 0.28856 0.0
C806 C 0.40865 0.91638 0.29077 0.0
C807 C 0.41396 0.88995 0.29745 0.0
C808 C 0.37761 0.85795 0.30214 0.0
C809 C 0.33744 0.85143 0.29989 0.0
C810 C 0.14949 0.82299 0.28024 0.0
C811 C 0.18511 0.91204 0.29834 0.0
C812 C 0.04937 0.79462 0.30503 0.0
C813 C 0.02548 0.81727 0.30379 0.0
C814 C 1.00028 0.81011 0.29538 0.0
C815 C 0.97642 0.82987 0.29427 0.0
C816 C 0.97629 0.8569 0.30165 0.0
C817 C 1.00186 0.86433 0.31005 0.0
C818 C 0.02609 0.84484 0.3111 0.0
C819 C 0.18443 0.83322 0.31701 0.0
O820 O 0.20035 0.78577 0.30144 0.0
O821 O 0.1283 0.75133 0.30118 0.0
O822 O 0.2593 0.82928 0.28952 0.0
O823 O 0.27762 0.89444 0.29156 0.0
O824 O 0.18782 0.85269 0.27907 0.0
O825 O 0.14849 0.80421 0.2881 0.0
O826 O 0.14645 0.87959 0.29856 0.0
O827 O 0.2176 0.90634 0.2981 0.0
O828 O 0.07695 0.80677 0.31217 0.0
O829 O 0.06278 0.78548 0.29696 0.0
O830 O 0.14697 0.80068 0.3172 0.0
O831 O 0.18951 0.853 0.30891 0.0
H832 H 0.36563 0.93002 0.28312 0.0
H833 H 0.43533 0.94104 0.2869 0.0
H834 H 0.38001 0.83733 0.30749 0.0
H835 H 0.31033 0.8258 0.30342 0.0
H836 H 0.99864 0.78873 0.28967 0.0
H837 H 0.9579 0.82372 0.2876 0.0
H838 H 1.00232 0.88431 0.31598 0.0
H839 H 0.04478 0.85091 0.31774 0.0
Ho840 Ho 0.74559 0.90612 0.89357 0.0
Ho841 Ho 0.69247 0.94263 0.88659 0.0
C842 C 0.79207 1.00275 0.88709 0.0
C843 C 0.79755 0.87852 0.89679 0.0
C844 C 0.83632 0.87777 0.89381 0.0
C845 C 0.8765 0.90965 0.89662 0.0
C846 C 0.91196 0.90561 0.89488 0.0
C847 C 0.90842 0.86946 0.89032 0.0
C848 C 0.86821 0.83782 0.88743 0.0
C849 C 0.83279 0.8419 0.88916 0.0
C850 C 0.70814 0.92852 0.90813 0.0
C851 C 0.64916 0.84118 0.89086 0.0
C852 C 0.63509 0.964 0.88573 0.0
C853 C 0.58871 0.94284 0.88583 0.0
C854 C 0.5636 0.90035 0.88333 0.0
C855 C 0.51969 0.88084 0.88378 0.0
C856 C 0.4999 0.90342 0.88675 0.0
C857 C 0.52544 0.94609 0.88918 0.0
C858 C 0.5692 0.96543 0.88875 0.0
C859 C 0.72544 0.92059 0.87135 0.0
O860 O 0.79329 0.96753 0.88683 0.0
O861 O 0.75581 1.00201 0.88819 0.0
O862 O 0.80057 0.91174 0.90111 0.0
O863 O 0.76505 0.86035 0.89094 0.0
O864 O 0.7121 0.89552 0.90848 0.0
O865 O 0.72565 0.94831 0.90035 0.0
O866 O 0.64364 0.87392 0.88969 0.0
O867 O 0.68681 0.84589 0.89165 0.0
O868 O 0.65282 0.9586 0.87791 0.0
O869 O 0.65273 0.9621 0.89395 0.0
O870 O 0.72055 0.95319 0.8714 0.0
O871 O 0.71169 0.90068 0.87945 0.0
H872 H 0.88052 0.93735 0.90039 0.0
H873 H 0.94213 0.9305 0.89737 0.0
H874 H 0.86398 0.80977 0.88381 0.0
H875 H 0.80231 0.81634 0.88705 0.0
H876 H 0.57795 0.88225 0.88107 0.0
H877 H 0.50129 0.84792 0.88194 0.0
H878 H 0.51164 0.96486 0.89131 0.0
H879 H 0.5879 0.99823 0.89072 0.0
Ho880 Ho 0.19133 0.86892 0.89423 0.0
Ho881 Ho 0.15967 0.78172 0.88692 0.0
C882 C 0.09712 0.81829 0.88677 0.0
C883 C 0.21607 0.94793 0.89704 0.0
C884 C 0.21597 0.9864 0.89359 0.0
C885 C 0.24975 0.01688 0.88797 0.0
C886 C 0.25358 0.05607 0.886 0.0
C887 C 0.22385 0.06608 0.88962 0.0
C888 C 0.18959 0.0352 0.89507 0.0
C889 C 0.18578 0.99604 0.89705 0.0
C890 C 0.16172 0.8083 0.90878 0.0
C891 C 0.25904 0.84006 0.89333 0.0
C892 C 0.14196 0.70422 0.88601 0.0
C893 C 0.16197 0.67854 0.88406 0.0
C894 C 0.19663 0.68377 0.88962 0.0
C895 C 0.21018 0.65441 0.88901 0.0
C896 C 0.18945 0.61918 0.88281 0.0
C897 C 0.15666 0.6157 0.87675 0.0
C898 C 0.14296 0.64486 0.87742 0.0
C899 C 0.18376 0.83703 0.87185 0.0
O900 O 0.13204 0.85481 0.88639 0.0
O901 O 0.09879 0.78348 0.88838 0.0
O902 O 0.18223 0.91731 0.90105 0.0
O903 O 0.23654 0.93435 0.89174 0.0
O904 O 0.19279 0.84609 0.9099 0.0
O905 O 0.14641 0.80585 0.90032 0.0
O906 O 0.22884 0.80371 0.88989 0.0
O907 O 0.25217 0.8708 0.89554 0.0
O908 O 0.13599 0.72348 0.87856 0.0
O909 O 0.15383 0.72693 0.89404 0.0
O910 O 0.15191 0.7992 0.87162 0.0
O911 O 0.20256 0.84366 0.88017 0.0
H912 H 0.27404 1.01094 0.88533 0.0
H913 H 0.28008 0.07863 0.88168 0.0
H914 H 0.16631 0.04175 0.89814 0.0
H915 H 0.15985 0.97384 0.90158 0.0
H916 H 0.21214 0.70948 0.8948 0.0
H917 H 0.23537 0.65815 0.8938 0.0
H918 H 0.14053 0.58955 0.87172 0.0
H919 H 0.11626 0.64006 0.87304 0.0
Ho920 Ho 0.23087 0.35521 0.89341 0.0
Ho921 Ho 0.32599 0.40808 0.88639 0.0
C922 C 0.28014 0.30691 0.88658 0.0
C923 C 0.15113 0.3042 0.8964 0.0
C924 C 0.11187 0.2653 0.89334 0.0
C925 C 0.07935 0.26839 0.88865 0.0
C926 C 0.04001 0.23266 0.88695 0.0
C927 C 0.0318 0.19261 0.88994 0.0
C928 C 0.06466 0.18956 0.89451 0.0
C929 C 0.10396 0.22527 0.8962 0.0
C930 C 0.29191 0.39381 0.9077 0.0
C931 C 0.26802 0.4522 0.88865 0.0
C932 C 0.40547 0.45997 0.888 0.0
C933 C 0.43344 0.50586 0.88703 0.0
C934 C 0.42259 0.53433 0.89111 0.0
C935 C 0.45154 0.57742 0.89123 0.0
C936 C 0.49194 0.59297 0.88725 0.0
C937 C 0.50178 0.5645 0.88272 0.0
C938 C 0.47294 0.52148 0.88265 0.0
C939 C 0.27528 0.388 0.87028 0.0
O940 O 0.24388 0.30617 0.8873 0.0
O941 O 0.3169 0.34246 0.88694 0.0
O942 O 0.18091 0.30078 0.90084 0.0
O943 O 0.16592 0.33702 0.89058 0.0
O944 O 0.25415 0.3877 0.90847 0.0
O945 O 0.2933 0.37578 0.89993 0.0
O946 O 0.30637 0.45721 0.88874 0.0
O947 O 0.23397 0.415 0.88929 0.0
O948 O 0.38857 0.43839 0.87991 0.0
O949 O 0.37924 0.44772 0.89544 0.0
O950 O 0.31593 0.4087 0.86993 0.0
O951 O 0.2642 0.37846 0.87926 0.0
H952 H 0.08397 0.29873 0.88649 0.0
H953 H 1.01599 0.23654 0.88331 0.0
H954 H 0.05972 0.15959 0.89709 0.0
H955 H 0.12778 0.22153 0.90001 0.0
H956 H 0.39223 0.52321 0.89453 0.0
H957 H 0.44287 0.59825 0.89482 0.0
H958 H 0.53226 0.57539 0.87939 0.0
H959 H 0.48199 0.50026 0.87942 0.0
Ho960 Ho 0.81505 0.74174 0.72055 0.0
Ho961 Ho 0.85376 0.68631 0.72762 0.0
C962 C 0.91649 0.78226 0.72289 0.0
C963 C 0.79008 0.7958 0.7221 0.0
C964 C 0.80808 0.8416 0.72052 0.0
C965 C 0.84217 0.87121 0.72621 0.0
C966 C 0.85589 0.91409 0.72543 0.0
C967 C 0.83598 0.92857 0.71894 0.0
C968 C 0.80308 0.89901 0.71296 0.0
C969 C 0.7892 0.85611 0.71378 0.0
C970 C 0.84575 0.72201 0.70443 0.0
C971 C 0.75768 0.64072 0.72018 0.0
C972 C 0.88042 0.63414 0.73134 0.0
C973 C 0.88542 0.59824 0.72813 0.0
C974 C 0.85671 0.56633 0.72188 0.0
C975 C 0.86127 0.53143 0.71971 0.0
C976 C 0.89447 0.52737 0.72378 0.0
C977 C 0.92358 0.5601 0.72985 0.0
C978 C 0.9191 0.59494 0.73197 0.0
C979 C 0.83122 0.725 0.74189 0.0
O980 O 0.88417 0.78887 0.72323 0.0
O981 O 0.91148 0.74426 0.7231 0.0
O982 O 0.78212 0.7718 0.71428 0.0
O983 O 0.8059 0.78488 0.72941 0.0
O984 O 0.82691 0.74379 0.70418 0.0
O985 O 0.84643 0.71116 0.71335 0.0
O986 O 0.79278 0.63915 0.72072 0.0
O987 O 0.75742 0.6767 0.72091 0.0
O988 O 0.84304 0.62718 0.73373 0.0
O989 O 0.90295 0.67018 0.72689 0.0
O990 O 0.86222 0.71804 0.74278 0.0
O991 O 0.81244 0.70773 0.73402 0.0
H992 H 0.85758 0.86128 0.73149 0.0
H993 H 0.88099 0.93567 0.73022 0.0
H994 H 0.78744 0.90893 0.70773 0.0
H995 H 0.76296 0.83415 0.7093 0.0
H996 H 0.83048 0.56807 0.7188 0.0
H997 H 0.83849 0.50745 0.71486 0.0
H998 H 0.94915 0.55826 0.73329 0.0
H999 H 0.94158 0.619 0.73685 0.0
Ho1000 Ho 0.35152 0.108 0.72215 0.0
Ho1001 Ho 0.40872 0.20373 0.72834 0.0
C1002 C 0.31122 0.16921 0.72561 0.0
C1003 C 0.29673 0.02967 0.72442 0.0
C1004 C 0.25128 1.0016 0.72247 0.0
C1005 C 0.22072 1.00669 0.72756 0.0
C1006 C 0.17804 0.97738 0.72653 0.0
C1007 C 0.1647 0.94221 0.72037 0.0
C1008 C 0.19524 0.93823 0.71494 0.0
C1009 C 0.23796 0.9674 0.71603 0.0
C1010 C 0.36943 0.1569 0.70577 0.0
C1011 C 0.45315 0.15091 0.72166 0.0
C1012 C 0.45951 0.28335 0.73099 0.0
C1013 C 0.49745 0.32334 0.72832 0.0
C1014 C 0.50404 0.36004 0.73305 0.0
C1015 C 0.53899 0.39892 0.73079 0.0
C1016 C 0.5685 0.40229 0.72369 0.0
C1017 C 0.56166 0.36527 0.7189 0.0
C1018 C 0.52644 0.32618 0.72118 0.0
C1019 C 0.3724 0.145 0.74315 0.0
O1020 O 0.30474 0.13037 0.72512 0.0
O1021 O 0.34883 0.2026 0.72581 0.0
O1022 O 0.32238 0.04369 0.7168 0.0
O1023 O 0.30613 0.05817 0.73126 0.0
O1024 O 0.34728 0.11629 0.7057 0.0
O1025 O 0.38101 0.16877 0.7146 0.0
O1026 O 0.4555 0.18799 0.72202 0.0
O1027 O 0.41672 0.115 0.72249 0.0
O1028 O 0.46376 0.25414 0.73549 0.0
O1029 O 0.42786 0.2682 0.72483 0.0
O1030 O 0.37799 0.18261 0.7436 0.0
O1031 O 0.38797 0.14178 0.73515 0.0
H1032 H 0.2297 0.03265 0.7326 0.0
H1033 H 0.15569 0.98142 0.73091 0.0
H1034 H 0.18622 0.91204 0.70997 0.0
H1035 H 0.26067 0.96263 0.712 0.0
H1036 H 0.48204 0.35861 0.73859 0.0
H1037 H 0.5433 0.42624 0.73479 0.0
H1038 H 0.58339 0.36651 0.71332 0.0
H1039 H 0.52186 0.29831 0.71738 0.0
Ho1040 Ho 0.98576 0.27857 0.72114 0.0
Ho1041 Ho 0.89176 0.23914 0.72786 0.0
C1042 C 0.92414 0.17665 0.72263 0.0
C1043 C 0.06371 0.29995 0.72347 0.0
C1044 C 0.08908 0.27882 0.72254 0.0
C1045 C 0.09865 0.26345 0.73112 0.0
C1046 C 0.12228 0.24339 0.73055 0.0
C1047 C 0.13778 0.23855 0.72141 0.0
C1048 C 0.12821 0.25391 0.71281 0.0
C1049 C 0.10417 0.27381 0.71336 0.0
C1050 C 0.93692 0.24943 0.70474 0.0
C1051 C 0.94268 0.33643 0.72092 0.0
C1052 C 0.81296 0.21212 0.73178 0.0
C1053 C 0.77196 0.20739 0.72877 0.0
C1054 C 0.73533 0.17538 0.73317 0.0
C1055 C 0.69595 0.17073 0.73104 0.0
C1056 C 0.69191 0.19798 0.72439 0.0
C1057 C 0.72881 0.22957 0.71979 0.0
C1058 C 0.76835 0.2343 0.72198 0.0
C1059 C 0.95203 0.26061 0.74233 0.0
O1060 O 0.96296 0.20887 0.72336 0.0
O1061 O 0.89131 0.18184 0.72273 0.0
O1062 O 0.04964 0.30876 0.7154 0.0
O1063 O 0.0359 0.28571 0.73058 0.0
O1064 O 0.9776 0.26917 0.70468 0.0
O1065 O 0.92434 0.24768 0.71361 0.0
O1066 O 0.90599 0.30124 0.72143 0.0
O1067 O 0.97897 0.33662 0.72153 0.0
O1068 O 0.84342 0.24921 0.73433 0.0
O1069 O 0.82641 0.19025 0.72702 0.0
O1070 O 0.91534 0.22724 0.7426 0.0
O1071 O 0.95378 0.28034 0.73459 0.0
H1072 H 0.08775 0.26687 0.73833 0.0
H1073 H 0.1282 0.23147 0.73734 0.0
H1074 H 0.13998 0.25133 0.70564 0.0
H1075 H 0.09766 0.28545 0.70661 0.0
H1076 H 0.73724 0.15427 0.73847 0.0
H1077 H 0.66885 0.14651 0.73489 0.0
H1078 H 0.72725 0.25087 0.71451 0.0
H1079 H 0.79606 0.25915 0.71844 0.0
Ho1080 Ho 0.41912 0.13618 0.13229 0.0
Ho1081 Ho 0.36374 0.17659 0.12615 0.0
C1082 C 0.46 0.23841 0.1309 0.0
C1083 C 0.47302 0.11158 0.12972 0.0
C1084 C 0.51837 0.12771 0.13139 0.0
C1085 C 0.54886 0.16801 0.1282 0.0
C1086 C 0.59156 0.18052 0.12849 0.0
C1087 C 0.6049 0.15313 0.13202 0.0
C1088 C 0.57434 0.11368 0.1357 0.0
C1089 C 0.53165 0.10108 0.13533 0.0
C1090 C 0.3996 0.16486 0.14882 0.0
C1091 C 0.3176 0.07872 0.13241 0.0
C1092 C 0.3132 0.20564 0.12302 0.0
C1093 C 0.27555 0.20821 0.12579 0.0
C1094 C 0.24972 0.18626 0.13385 0.0
C1095 C 0.21499 0.19081 0.13626 0.0
C1096 C 0.20547 0.21757 0.1307 0.0
C1097 C 0.23178 0.23949 0.12267 0.0
C1098 C 0.26623 0.23484 0.12027 0.0
C1099 C 0.40242 0.15664 0.1114 0.0
O1100 O 0.46648 0.20601 0.13031 0.0
O1101 O 0.42209 0.2336 0.13073 0.0
O1102 O 0.44814 0.10056 0.13747 0.0
O1103 O 0.46384 0.13137 0.123 0.0
O1104 O 0.42145 0.14604 0.14884 0.0
O1105 O 0.38895 0.16645 0.13996 0.0
O1106 O 0.31589 0.11383 0.13221 0.0
O1107 O 0.35372 0.07868 0.13158 0.0
O1108 O 0.30831 0.17118 0.11897 0.0
O1109 O 0.34563 0.22326 0.12893 0.0
O1110 O 0.39847 0.18968 0.1113 0.0
O1111 O 0.38485 0.13621 0.11909 0.0
H1112 H 0.53969 0.18942 0.12513 0.0
H1113 H 0.61391 0.21098 0.12553 0.0
H1114 H 0.58331 0.09204 0.1387 0.0
H1115 H 0.50888 0.06994 0.13786 0.0
H1116 H 0.25645 0.16578 0.13828 0.0
H1117 H 0.19581 0.17363 0.14256 0.0
H1118 H 0.22534 0.25975 0.11809 0.0
H1119 H 0.28576 0.2522 0.11403 0.0
Ho1120 Ho 0.95399 0.30314 0.13488 0.0
Ho1121 Ho 0.92229 0.21598 0.12769 0.0
C1122 C 0.85363 0.24282 0.13031 0.0
C1123 C 0.97207 0.38086 0.13591 0.0
C1124 C 0.95196 0.4067 0.13752 0.0
C1125 C 0.91685 0.40036 0.13197 0.0
C1126 C 0.90303 0.42961 0.13231 0.0
C1127 C 0.92399 0.46585 0.13819 0.0
C1128 C 0.95735 0.47054 0.14421 0.0
C1129 C 0.97125 0.44147 0.14384 0.0
C1130 C 0.9313 0.24853 0.15017 0.0
C1131 C 1.01603 0.26659 0.13519 0.0
C1132 C 0.90096 0.13838 0.12374 0.0
C1133 C 0.8932 0.09691 0.12739 0.0
C1134 C 0.85768 0.06046 0.12395 0.0
C1135 C 0.85173 0.02055 0.12609 0.0
C1136 C 0.8812 1.01584 0.13176 0.0
C1137 C 0.91597 0.05252 0.13556 0.0
C1138 C 0.92201 0.09252 0.13336 0.0
C1139 C 0.94952 0.27644 0.11304 0.0
O1140 O 0.88539 0.28143 0.13152 0.0
O1141 O 0.85995 0.2108 0.12967 0.0
O1142 O 0.97588 0.36067 0.14345 0.0
O1143 O 0.96214 0.35896 0.12776 0.0
O1144 O 0.96289 0.28649 0.15021 0.0
O1145 O 0.91216 0.24116 0.14191 0.0
O1146 O 0.98096 0.23028 0.13588 0.0
O1147 O 1.0145 0.30124 0.13331 0.0
O1148 O 0.93938 0.1697 0.12336 0.0
O1149 O 0.87433 0.15038 0.12616 0.0
O1150 O 0.91819 0.23878 0.11217 0.0
O1151 O 0.96608 0.2789 0.12131 0.0
H1152 H 0.90115 0.37377 0.12703 0.0
H1153 H 0.87737 0.42491 0.12755 0.0
H1154 H 0.9737 0.49751 0.14901 0.0
H1155 H 0.99828 0.44714 0.1482 0.0
H1156 H 0.83512 0.06288 0.11926 0.0
H1157 H 0.82487 0.99352 0.12291 0.0
H1158 H 0.93906 0.05047 0.14011 0.0
H1159 H 0.94971 0.11995 0.13613 0.0
Ho1160 Ho 0.78343 0.6739 0.13461 0.0
Ho1161 Ho 0.87804 0.72748 0.12737 0.0
C1162 C 0.84254 0.63086 0.13229 0.0
C1163 C 0.70434 0.62012 0.13308 0.0
C1164 C 0.67696 0.57409 0.13441 0.0
C1165 C 0.68316 0.54528 0.12883 0.0
C1166 C 0.65438 0.50219 0.12933 0.0
C1167 C 0.61869 0.48672 0.13542 0.0
C1168 C 0.61373 0.5155 0.14134 0.0
C1169 C 0.64234 0.55858 0.14079 0.0
C1170 C 0.83465 0.69513 0.15064 0.0
C1171 C 0.8283 0.7752 0.13433 0.0
C1172 C 0.95749 0.77895 0.12416 0.0
C1173 C 0.99692 0.81771 0.12717 0.0
C1174 C 1.00507 0.85775 0.12426 0.0
C1175 C 0.04455 0.89331 0.12588 0.0
C1176 C 0.07732 0.89006 0.13044 0.0
C1177 C 0.06887 0.85001 0.13348 0.0
C1178 C 0.02936 0.81444 0.13186 0.0
C1179 C 0.81638 0.68838 0.11321 0.0
O1180 O 0.80401 0.62539 0.13236 0.0
O1181 O 0.87621 0.66824 0.13148 0.0
O1182 O 0.72069 0.64318 0.14102 0.0
O1183 O 0.73068 0.63207 0.12567 0.0
O1184 O 0.79401 0.67389 0.15104 0.0
O1185 O 0.8455 0.70439 0.14163 0.0
O1186 O 0.86468 0.77622 0.13353 0.0
O1187 O 0.79167 0.73938 0.13408 0.0
O1188 O 0.92734 0.78247 0.11995 0.0
O1189 O 0.94321 0.74586 0.12987 0.0
O1190 O 0.85422 0.6948 0.11234 0.0
O1191 O 0.81531 0.70641 0.12101 0.0
H1192 H 0.70961 0.55604 0.12385 0.0
H1193 H 0.65924 0.48123 0.12461 0.0
H1194 H 0.58718 0.50482 0.14628 0.0
H1195 H 0.63679 0.57991 0.14519 0.0
H1196 H 0.98132 0.8616 0.12046 0.0
H1197 H 0.04968 0.92329 0.12326 0.0
H1198 H 0.09283 0.84601 0.13712 0.0
H1199 H 0.02455 0.78406 0.13405 0.0
Ho1200 Ho 0.91508 0.73527 0.62769 0.0
Ho1201 Ho 0.95457 0.67996 0.63424 0.0
C1202 C 1.01265 0.78108 0.63434 0.0
C1203 C 0.88823 0.78751 0.62409 0.0
C1204 C 0.88113 0.82195 0.62749 0.0
C1205 C 0.90442 0.84971 0.63514 0.0
C1206 C 0.89796 0.88319 0.63766 0.0
C1207 C 0.86825 0.88997 0.63256 0.0
C1208 C 0.84444 0.86128 0.62507 0.0
C1209 C 0.85079 0.82785 0.6226 0.0
C1210 C 0.9353 0.6962 0.61301 0.0
C1211 C 0.85275 0.64084 0.63363 0.0
C1212 C 0.97562 0.62336 0.6315 0.0
C1213 C 0.95683 0.57735 0.6326 0.0
C1214 C 0.95754 0.55448 0.62437 0.0
C1215 C 0.93791 0.51079 0.6247 0.0
C1216 C 0.91726 0.48847 0.63333 0.0
C1217 C 0.9165 0.5115 0.64161 0.0
C1218 C 0.93596 0.55549 0.64124 0.0
C1219 C 0.92666 0.70069 0.65069 0.0
O1220 O 0.97746 0.78265 0.63403 0.0
O1221 O 1.01276 0.74495 0.6336 0.0
O1222 O 0.92654 0.79579 0.62231 0.0
O1223 O 0.86503 0.75027 0.62793 0.0
O1224 O 0.90304 0.70139 0.61276 0.0
O1225 O 0.95533 0.71338 0.62077 0.0
O1226 O 0.88455 0.63369 0.63268 0.0
O1227 O 0.8583 0.67903 0.63339 0.0
O1228 O 0.9865 0.64717 0.63945 0.0
O1229 O 0.95746 0.63454 0.62483 0.0
O1230 O 0.94567 0.679 0.65076 0.0
O1231 O 0.92465 0.71108 0.6418 0.0
H1232 H 0.92787 0.84582 0.63908 0.0
H1233 H 0.91656 0.90393 0.64359 0.0
H1234 H 0.82177 0.86537 0.62084 0.0
H1235 H 0.83243 0.80695 0.61665 0.0
H1236 H 0.9728 0.5705 0.61756 0.0
H1237 H 0.93845 0.49451 0.61807 0.0
H1238 H 0.90125 0.49562 0.64842 0.0
H1239 H 0.93441 0.57228 0.64766 0.0
Ho1240 Ho 0.35681 0.22384 0.62859 0.0
Ho1241 Ho 0.41547 0.31497 0.63679 0.0
C1242 C 0.31467 0.27451 0.63772 0.0
C1243 C 0.30072 0.14656 0.62435 0.0
C1244 C 0.26817 0.10423 0.6279 0.0
C1245 C 0.26522 0.06857 0.62332 0.0
C1246 C 0.23205 0.0282 0.6255 0.0
C1247 C 0.20063 0.02214 0.63235 0.0
C1248 C 0.20467 0.05796 0.63723 0.0
C1249 C 0.23783 0.09843 0.635 0.0
C1250 C 0.38839 0.28926 0.61504 0.0
C1251 C 0.45273 0.25225 0.63207 0.0
C1252 C 0.47456 0.39225 0.63557 0.0
C1253 C 0.51942 0.41964 0.63822 0.0
C1254 C 0.55044 0.41186 0.63437 0.0
C1255 C 0.59298 0.44185 0.63517 0.0
C1256 C 0.60583 0.48037 0.63991 0.0
C1257 C 0.57482 0.48678 0.64437 0.0
C1258 C 0.53217 0.45696 0.64345 0.0
C1259 C 0.39709 0.2616 0.65217 0.0
O1260 O 0.31266 0.23764 0.63711 0.0
O1261 O 0.35116 0.31035 0.63678 0.0
O1262 O 0.29287 0.17744 0.62474 0.0
O1263 O 0.34005 0.15888 0.62614 0.0
O1264 O 0.38126 0.25188 0.61299 0.0
O1265 O 0.37651 0.28828 0.62376 0.0
O1266 O 0.45985 0.29119 0.63266 0.0
O1267 O 0.41437 0.21993 0.63163 0.0
O1268 O 0.44597 0.37887 0.64261 0.0
O1269 O 0.4671 0.36368 0.62887 0.0
O1270 O 0.41943 0.30208 0.65277 0.0
O1271 O 0.3843 0.25123 0.64328 0.0
H1272 H 0.28795 0.07206 0.61776 0.0
H1273 H 0.23016 1.00193 0.62147 0.0
H1274 H 0.1818 0.05489 0.64269 0.0
H1275 H 0.23917 0.12519 0.63868 0.0
H1276 H 0.54193 0.38343 0.63028 0.0
H1277 H 0.61552 0.43559 0.63156 0.0
H1278 H 0.58334 0.5155 0.64832 0.0
H1279 H 0.50907 0.46386 0.64649 0.0
Ho1280 Ho 0.87349 0.17474 0.62765 0.0
Ho1281 Ho 0.78704 0.14664 0.63571 0.0
C1282 C 0.82088 0.08128 0.6358 0.0
C1283 C 0.95026 0.19302 0.62354 0.0
C1284 C 0.9925 0.20492 0.62764 0.0
C1285 C 0.02859 0.23596 0.62281 0.0
C1286 C 0.06883 0.24423 0.62559 0.0
C1287 C 0.0743 0.22157 0.63329 0.0
C1288 C 0.03807 0.19164 0.63841 0.0
C1289 C 0.9978 0.18334 0.63561 0.0
C1290 C 0.8111 0.15233 0.61352 0.0
C1291 C 0.85094 0.24521 0.63055 0.0
C1292 C 0.71003 0.12992 0.63818 0.0
C1293 C 0.68153 0.14686 0.63599 0.0
C1294 C 0.64963 0.12697 0.6289 0.0
C1295 C 0.61927 0.13887 0.62755 0.0
C1296 C 0.61952 0.1708 0.63335 0.0
C1297 C 0.65233 0.19173 0.64023 0.0
C1298 C 0.68283 0.17985 0.64155 0.0
C1299 C 0.84392 0.16523 0.65038 0.0
O1300 O 0.85816 0.11513 0.63539 0.0
O1301 O 0.78638 0.0842 0.63499 0.0
O1302 O 0.91932 0.15508 0.62514 0.0
O1303 O 0.93801 0.22067 0.62377 0.0
O1304 O 0.85021 0.17957 0.61217 0.0
O1305 O 0.80875 0.13511 0.6217 0.0
O1306 O 0.81117 0.21462 0.6307 0.0
O1307 O 0.88155 0.23681 0.6313 0.0
O1308 O 0.7397 0.14937 0.64473 0.0
O1309 O 0.72232 0.116 0.63075 0.0
O1310 O 0.80522 0.13509 0.65067 0.0
O1311 O 0.85076 0.18503 0.64222 0.0
H1312 H 0.02557 0.25291 0.61659 0.0
H1313 H 0.09551 0.26714 0.62137 0.0
H1314 H 0.04068 0.17396 0.64451 0.0
H1315 H 0.97078 0.15927 0.63952 0.0
H1316 H 0.64741 0.10125 0.62454 0.0
H1317 H 0.59509 0.12244 0.62206 0.0
H1318 H 0.65351 0.21619 0.64489 0.0
H1319 H 0.70667 0.19573 0.64716 0.0
Ho1320 Ho 0.41917 0.25451 0.22571 0.0
Ho1321 Ho 0.35571 0.28043 0.21743 0.0
C1322 C 0.45598 0.34482 0.21591 0.0
C1323 C 0.47812 0.23733 0.22975 0.0
C1324 C 0.51461 0.23394 0.22611 0.0
C1325 C 0.50882 0.19678 0.22168 0.0
C1326 C 0.54308 0.19103 0.21972 0.0
C1327 C 0.58416 0.2222 0.22217 0.0
C1328 C 0.5899 0.25968 0.22642 0.0
C1329 C 0.55569 0.2654 0.22837 0.0
C1330 C 0.38507 0.28599 0.23913 0.0
C1331 C 0.32428 0.1822 0.22341 0.0
C1332 C 0.29532 0.29666 0.21881 0.0
C1333 C 0.25054 0.27816 0.21631 0.0
C1334 C 0.22612 0.23578 0.21361 0.0
C1335 C 0.18224 0.21641 0.21338 0.0
C1336 C 0.1621 0.239 0.21595 0.0
C1337 C 0.18692 0.28193 0.21814 0.0
C1338 C 0.23063 0.30124 0.21833 0.0
C1339 C 0.37581 0.24667 0.20217 0.0
O1340 O 0.45995 0.31115 0.21653 0.0
O1341 O 0.41862 0.34214 0.21707 0.0
O1342 O 0.48225 0.27447 0.23099 0.0
O1343 O 0.4407 0.20973 0.22665 0.0
O1344 O 0.39477 0.25762 0.24131 0.0
O1345 O 0.39602 0.29664 0.23034 0.0
O1346 O 0.31402 0.21133 0.22155 0.0
O1347 O 0.36338 0.19123 0.22446 0.0
O1348 O 0.3232 0.31168 0.21162 0.0
O1349 O 0.30318 0.27544 0.22542 0.0
O1350 O 0.35156 0.26272 0.20155 0.0
O1351 O 0.38982 0.25076 0.21101 0.0
H1352 H 0.47763 0.17149 0.21997 0.0
H1353 H 0.53728 0.16198 0.21635 0.0
H1354 H 0.62081 0.28424 0.22858 0.0
H1355 H 0.56137 0.29399 0.23199 0.0
H1356 H 0.24087 0.21721 0.21216 0.0
H1357 H 0.16406 0.18331 0.21169 0.0
H1358 H 0.17247 0.30043 0.21998 0.0
H1359 H 0.24882 0.3338 0.22053 0.0
Ho1360 Ho 0.86278 0.21 0.22788 0.0
Ho1361 Ho 0.82396 0.12005 0.22078 0.0
C1362 C 0.76643 0.16238 0.22097 0.0
C1363 C 0.8934 0.28992 0.23111 0.0
C1364 C 0.89458 0.33004 0.22885 0.0
C1365 C 0.8695 0.33368 0.22153 0.0
C1366 C 0.87305 0.37287 0.21948 0.0
C1367 C 0.90189 0.40939 0.22468 0.0
C1368 C 0.92692 0.40525 0.23198 0.0
C1369 C 0.92326 0.36621 0.23402 0.0
C1370 C 0.83767 0.14973 0.24243 0.0
C1371 C 0.92468 0.17441 0.22598 0.0
C1372 C 0.79945 0.04072 0.21965 0.0
C1373 C 0.81695 1.01232 0.2208 0.0
C1374 C 0.80039 0.98126 0.22816 0.0
C1375 C 0.81371 0.9519 0.22903 0.0
C1376 C 0.84388 0.95259 0.2225 0.0
C1377 C 0.86166 0.98466 0.21534 0.0
C1378 C 0.84826 1.01417 0.21447 0.0
C1379 C 0.84769 0.17564 0.20569 0.0
O1380 O 0.8021 0.19837 0.22118 0.0
O1381 O 0.76576 0.12613 0.22192 0.0
O1382 O 0.86136 0.26054 0.23595 0.0
O1383 O 0.90765 0.27472 0.22438 0.0
O1384 O 0.87087 0.1865 0.24294 0.0
O1385 O 0.81877 0.14799 0.23452 0.0
O1386 O 0.89152 0.13711 0.22419 0.0
O1387 O 0.9218 0.20832 0.22701 0.0
O1388 O 0.81084 0.06561 0.21195 0.0
O1389 O 0.79693 0.05897 0.2277 0.0
O1390 O 0.81413 0.13886 0.20573 0.0
O1391 O 0.86761 0.18103 0.21377 0.0
H1392 H 0.84738 0.30635 0.21737 0.0
H1393 H 0.85345 0.37459 0.21374 0.0
H1394 H 0.94892 0.4321 0.23628 0.0
H1395 H 0.9431 0.3643 0.23968 0.0
H1396 H 0.77641 0.97915 0.23317 0.0
H1397 H 0.79985 0.92817 0.23475 0.0
H1398 H 0.88478 0.98601 0.21017 0.0
H1399 H 0.8618 0.03781 0.20873 0.0
Ho1400 Ho 0.8943 0.69185 0.22709 0.0
Ho1401 Ho 0.9903 0.74916 0.22078 0.0
C1402 C 0.94781 0.6476 0.22081 0.0
C1403 C 0.81423 0.6406 0.22958 0.0
C1404 C 0.77378 0.60369 0.22648 0.0
C1405 C 0.73753 0.5937 0.23197 0.0
C1406 C 0.69825 0.56013 0.22923 0.0
C1407 C 0.69389 0.5353 0.2209 0.0
C1408 C 0.73044 0.54559 0.21535 0.0
C1409 C 0.76987 0.57944 0.21809 0.0
C1410 C 0.95322 0.72884 0.24193 0.0
C1411 C 0.92848 0.78916 0.22338 0.0
C1412 C 0.06868 0.80497 0.22292 0.0
C1413 C 0.09571 0.85028 0.22077 0.0
C1414 C 0.07827 0.8759 0.21888 0.0
C1415 C 0.10388 0.91958 0.21819 0.0
C1416 C 0.14769 0.93878 0.21932 0.0
C1417 C 0.16503 0.91265 0.22083 0.0
C1418 C 0.13934 0.86902 0.22159 0.0
C1419 C 0.94076 0.72887 0.20439 0.0
O1420 O 0.91062 0.64515 0.22094 0.0
O1421 O 0.98362 0.68417 0.22162 0.0
O1422 O 0.84334 0.63484 0.23361 0.0
O1423 O 0.82979 0.67417 0.22402 0.0
O1424 O 0.91527 0.72245 0.2424 0.0
O1425 O 0.95663 0.71343 0.23393 0.0
O1426 O 0.96733 0.79556 0.22337 0.0
O1427 O 0.89532 0.75129 0.22362 0.0
O1428 O 0.05461 0.77894 0.21539 0.0
O1429 O 0.04 0.79613 0.2297 0.0
O1430 O 0.98139 0.75119 0.20425 0.0
O1431 O 0.92937 0.71843 0.2133 0.0
H1432 H 0.7396 0.61203 0.23844 0.0
H1433 H 0.67139 0.55314 0.23381 0.0
H1434 H 0.72857 0.52766 0.20883 0.0
H1435 H 0.79718 0.58671 0.21365 0.0
H1436 H 0.04468 0.86219 0.21825 0.0
H1437 H 0.0891 0.93833 0.2171 0.0
H1438 H 0.19857 0.92589 0.22152 0.0
H1439 H 0.15355 0.84998 0.22307 0.0
H1440 H 0.3965 0.08025 0.10825 0.0
H1441 H 0.45995 0.20756 0.0976 0.0
H1442 H 0.49849 0.19004 0.0855 0.0
H1443 H 0.51424 0.13811 0.07779 0.0
H1444 H 0.44692 1.00982 0.08762 0.0
H1445 H 0.41103 0.02812 0.10029 0.0
C1446 C 0.41882 0.10419 0.10329 0.0
C1447 C 0.42535 0.14535 0.10391 0.0
C1448 C 0.44065 0.0937 0.09624 0.0
C1449 C 0.45419 0.17573 0.09733 0.0
C1450 C 0.47641 0.16572 0.09042 0.0
C1451 C 0.49163 0.11419 0.0827 0.0
C1452 C 0.48327 0.07253 0.08173 0.0
C1453 C 0.46995 0.12479 0.08978 0.0
C1454 C 0.45412 0.04206 0.08822 0.0
C1455 C 0.43339 0.05252 0.09544 0.0
H1456 H 1.0057 0.36124 0.11431 0.0
H1457 H 0.937 0.26314 0.09309 0.0
H1458 H 0.96649 0.31427 0.07956 0.0
H1459 H 1.01105 0.38754 0.07382 0.0
H1460 H 0.06216 0.48709 0.09533 0.0
H1461 H 0.04043 0.43535 0.10873 0.0
C1462 C 0.99571 0.35109 0.1068 0.0
C1463 C 0.96807 0.3082 0.10484 0.0
C1464 C 1.01001 0.38125 0.09909 0.0
C1465 C 0.95775 0.29579 0.09489 0.0
C1466 C 0.97464 0.32512 0.08714 0.0
C1467 C 1.01617 0.39811 0.08141 0.0
C1468 C 0.03752 0.44149 0.08348 0.0
C1469 C 1.00044 0.36807 0.08914 0.0
C1470 C 0.04554 0.4541 0.09346 0.0
C1471 C 0.03307 0.42443 0.10114 0.0
H1472 H 0.69218 0.66818 0.07794 0.0
H1473 H 0.62678 0.54132 0.08887 0.0
H1474 H 0.68215 0.55871 0.10113 0.0
H1475 H 0.74963 0.61035 0.10896 0.0
H1476 H 0.8122 0.73838 0.09892 0.0
H1477 H 0.75874 0.72021 0.08605 0.0
C1478 C 0.69008 0.6443 0.08299 0.0
C1479 C 0.65513 0.60328 0.08239 0.0
C1480 C 0.72201 0.65478 0.09018 0.0
C1481 C 0.65305 0.57303 0.0891 0.0
C1482 C 0.6849 0.58298 0.09613 0.0
C1483 C 0.75142 0.6343 0.10399 0.0
C1484 C 0.78498 0.67584 0.10497 0.0
C1485 C 0.71957 0.62378 0.09678 0.0
C1486 C 0.78693 0.70624 0.09834 0.0
C1487 C 0.75616 0.69584 0.091 0.0
H1488 H 0.14398 0.49791 0.44521 0.0
H1489 H 0.03025 0.4639 0.42931 0.0
H1490 H 0.04877 0.42736 0.41684 0.0
H1491 H 0.09631 0.40256 0.41075 0.0
H1492 H 0.2105 0.43733 0.42668 0.0
H1493 H 0.19229 0.47451 0.43897 0.0
C1494 C 0.12303 0.48201 0.4391 0.0
C1495 C 0.08539 0.48308 0.43832 0.0
C1496 C 0.13388 0.46076 0.43198 0.0
C1497 C 0.05936 0.46363 0.43011 0.0
C1498 C 0.06988 0.44249 0.423 0.0
C1499 C 0.11733 0.41843 0.41689 0.0
C1500 C 0.15499 0.41718 0.41771 0.0
C1501 C 0.10687 0.44041 0.4239 0.0
C1502 C 0.18148 0.4377 0.4258 0.0
C1503 C 0.1711 0.45915 0.43284 0.0
H1504 H 0.58635 0.67809 0.43954 0.0
H1505 H 0.66346 0.62576 0.43123 0.0
H1506 H 0.70045 0.68213 0.41909 0.0
H1507 H 0.71342 0.74865 0.41131 0.0
H1508 H 0.64123 0.80494 0.42083 0.0
H1509 H 0.60081 0.7459 0.4321 0.0
C1510 C 0.61117 0.679 0.43504 0.0
C1511 C 0.62192 0.64744 0.43627 0.0
C1512 C 0.63371 0.71281 0.42836 0.0
C1513 C 0.65427 0.6493 0.43039 0.0
C1514 C 0.67565 0.68178 0.42348 0.0
C1515 C 0.68879 0.74797 0.41584 0.0
C1516 C 0.68041 0.78138 0.41517 0.0
C1517 C 0.66609 0.71409 0.42248 0.0
C1518 C 0.64855 0.77993 0.42119 0.0
C1519 C 0.62524 0.74597 0.42762 0.0
H1520 H 0.36813 0.9453 0.40962 0.0
H1521 H 0.28757 0.97686 0.42603 0.0
H1522 H 0.34136 1.01013 0.43892 0.0
H1523 H 0.41251 0.03187 0.44545 0.0
H1524 H 0.49155 0.99691 0.42943 0.0
H1525 H 0.43788 0.96386 0.41661 0.0
C1526 C 0.36252 0.95977 0.41598 0.0
C1527 C 0.32391 0.95908 0.41675 0.0
C1528 C 0.39362 0.97845 0.42347 0.0
C1529 C 0.3169 0.97705 0.4252 0.0
C1530 C 0.3478 0.99619 0.43258 0.0
C1531 C 0.41794 0.01679 0.43918 0.0
C1532 C 0.45639 0.01699 0.4385 0.0
C1533 C 0.38645 0.99732 0.4318 0.0
C1534 C 0.46263 0.99757 0.43021 0.0
C1535 C 0.43181 0.97863 0.42282 0.0
H1536 H 0.59482 0.947 0.94132 0.0
H1537 H 0.66149 0.07514 0.93138 0.0
H1538 H 0.69755 0.05689 0.91873 0.0
H1539 H 0.71271 1.00479 0.91087 0.0
H1540 H 0.65071 0.8781 0.92193 0.0
H1541 H 0.61151 0.89546 0.93383 0.0
C1542 C 0.6175 0.97099 0.93643 0.0
C1543 C 0.62558 1.01256 0.93736 0.0
C1544 C 0.63942 0.96047 0.9294 0.0
C1545 C 0.65452 0.04297 0.93083 0.0
C1546 C 0.67536 0.03252 0.92361 0.0
C1547 C 0.69056 0.98096 0.91588 0.0
C1548 C 0.68473 0.94002 0.91544 0.0
C1549 C 0.66851 0.99146 0.92289 0.0
C1550 C 0.65604 0.90978 0.92207 0.0
C1551 C 0.63343 0.91971 0.92888 0.0
H1552 H 0.10912 0.72292 0.90713 0.0
H1553 H 0.16749 0.82106 0.92884 0.0
H1554 H 0.13589 0.76909 0.94216 0.0
H1555 H 0.09236 0.695 0.94756 0.0
H1556 H 0.05484 0.59683 0.92593 0.0
H1557 H 0.07727 0.64885 0.91258 0.0
C1558 C 0.11669 0.73301 0.91472 0.0
C1559 C 0.14196 0.77612 0.91687 0.0
C1560 C 0.10169 0.70255 0.92236 0.0
C1561 C 0.14871 0.78827 0.92689 0.0
C1562 C 0.13061 0.75846 0.93453 0.0
C1563 C 0.09081 0.68491 0.94 0.0
C1564 C 0.073 0.64177 0.93787 0.0
C1565 C 0.10749 0.71538 0.93236 0.0
C1566 C 0.06878 0.62963 0.92786 0.0
C1567 C 0.08169 0.65947 0.9202 0.0
H1568 H 0.41638 0.41665 0.94313 0.0
H1569 H 0.48243 0.54238 0.93151 0.0
H1570 H 0.42692 0.52416 0.91922 0.0
H1571 H 0.35911 0.47208 0.91158 0.0
H1572 H 0.29582 0.34513 0.92238 0.0
H1573 H 0.34946 0.36423 0.93524 0.0
C1574 C 0.41861 0.44011 0.93792 0.0
C1575 C 0.45379 0.48105 0.93833 0.0
C1576 C 0.38657 0.42916 0.93073 0.0
C1577 C 0.456 0.51075 0.93142 0.0
C1578 C 0.42406 0.50032 0.92439 0.0
C1579 C 0.3572 0.44857 0.91672 0.0
C1580 C 0.32338 0.40704 0.91596 0.0
C1581 C 0.38915 0.4596 0.92394 0.0
C1582 C 0.32127 0.37723 0.92279 0.0
C1583 C 0.35216 0.38817 0.93013 0.0
H1584 H 1.0078 0.69169 0.61141 0.0
H1585 H 0.88891 0.65055 0.59712 0.0
H1586 H 0.90592 0.61314 0.58464 0.0
H1587 H 0.9547 0.59153 0.57766 0.0
H1588 H 0.07293 0.63142 0.59206 0.0
H1589 H 0.05548 0.66795 0.60476 0.0
C1590 C 0.9854 0.67423 0.60562 0.0
C1591 C 0.94675 0.67381 0.60534 0.0
C1592 C 0.99512 0.65188 0.59851 0.0
C1593 C 0.91869 0.65146 0.59762 0.0
C1594 C 0.92838 0.62984 0.59047 0.0
C1595 C 0.97666 0.60828 0.58357 0.0
C1596 C 1.01528 0.60882 0.58385 0.0
C1597 C 0.96647 0.62969 0.59083 0.0
C1598 C 0.04295 0.63013 0.59169 0.0
C1599 C 0.03306 0.65137 0.59892 0.0
H1600 H 0.47999 0.46738 0.59345 0.0
H1601 H 0.42015 0.39034 0.56803 0.0
H1602 H 0.39528 0.32704 0.57801 0.0
H1603 H 0.39027 0.29288 0.59443 0.0
H1604 H 0.41487 0.37049 0.62011 0.0
H1605 H 0.45319 0.43362 0.61005 0.0
C1606 C 0.46181 0.43674 0.59008 0.0
C1607 C 0.45687 0.43359 0.57968 0.0
C1608 C 0.44151 0.40035 0.59616 0.0
C1609 C 0.42952 0.39368 0.57571 0.0
C1610 C 0.41393 0.35728 0.58151 0.0
C1611 C 0.40436 0.3236 0.59784 0.0
C1612 C 0.4047 0.32682 0.60827 0.0
C1613 C 0.42038 0.36008 0.59179 0.0
C1614 C 0.41928 0.36696 0.61234 0.0
C1615 C 0.44 0.40328 0.6065 0.0
H1616 H 0.73336 0.14548 0.61302 0.0
H1617 H 0.81568 0.11902 0.59579 0.0
H1618 H 0.76198 0.08679 0.58285 0.0
H1619 H 0.69042 0.0646 0.57647 0.0
H1620 H 0.60996 0.09517 0.59333 0.0
H1621 H 0.66313 0.12616 0.60632 0.0
C1622 C 0.73934 0.13218 0.6065 0.0
C1623 C 0.77843 0.13406 0.60551 0.0
C1624 C 0.7083 0.11414 0.59898 0.0
C1625 C 0.78599 0.11792 0.5968 0.0
C1626 C 0.75512 0.09933 0.58939 0.0
C1627 C 0.6846 0.07833 0.58295 0.0
C1628 C 0.64589 0.07753 0.58381 0.0
C1629 C 0.71599 0.09705 0.59039 0.0
C1630 C 0.63913 0.09514 0.59238 0.0
C1631 C 0.66969 0.11298 0.59986 0.0
H1632 H 0.84566 0.80402 0.74615 0.0
H1633 H 0.77491 0.67587 0.75593 0.0
H1634 H 0.74008 0.69569 0.76857 0.0
H1635 H 0.72732 0.74929 0.77647 0.0
H1636 H 0.7935 0.87621 0.76558 0.0
H1637 H 0.83142 0.85716 0.75369 0.0
C1638 C 0.82244 0.78042 0.75101 0.0
C1639 C 0.81282 0.73837 0.75005 0.0
C1640 C 0.80129 0.7919 0.75804 0.0
C1641 C 0.78304 0.70838 0.75652 0.0
C1642 C 0.76293 0.71974 0.76373 0.0
C1643 C 0.75011 0.7728 0.77151 0.0
C1644 C 0.7575 0.8143 0.77199 0.0
C1645 C 0.77139 0.76134 0.7645 0.0
C1646 C 0.78699 0.84412 0.76541 0.0
C1647 C 0.80886 0.83322 0.75861 0.0
H1648 H 0.27059 0.01955 0.77843 0.0
H1649 H 0.31145 0.94306 0.76351 0.0
H1650 H 0.34689 0.99763 0.75086 0.0
H1651 H 0.36854 0.06858 0.7443 0.0
H1652 H 0.32748 0.14504 0.75926 0.0
H1653 H 0.29125 0.09008 0.77173 0.0
C1654 C 0.28753 1.01503 0.77244 0.0
C1655 C 0.28869 0.97737 0.77197 0.0
C1656 C 0.30823 0.0469 0.76523 0.0
C1657 C 0.30995 0.97162 0.76403 0.0
C1658 C 0.33044 1.00298 0.75682 0.0
C1659 C 0.35146 0.07314 0.75026 0.0
C1660 C 0.35063 0.11105 0.75076 0.0
C1661 C 0.33017 0.04098 0.75738 0.0
C1662 C 0.32868 0.11636 0.75863 0.0
C1663 C 0.30778 0.08478 0.76577 0.0
H1664 H 1.02047 0.33849 0.74561 0.0
H1665 H 0.96253 0.21057 0.75569 0.0
H1666 H 1.02 0.22969 0.76746 0.0
H1667 H 0.08724 0.28325 0.77511 0.0
H1668 H 0.14178 0.41204 0.766 0.0
H1669 H 0.08636 0.39226 0.75358 0.0
C1670 C 1.02042 0.31477 0.75038 0.0
C1671 C 0.98702 0.27295 0.74968 0.0
C1672 C 0.05349 0.32622 0.75729 0.0
C1673 C 0.98755 0.24289 0.75602 0.0
C1674 C 1.02063 0.25384 0.76275 0.0
C1675 C 0.08697 0.30694 0.77039 0.0
C1676 C 0.11889 0.3492 0.77148 0.0
C1677 C 0.05386 0.29542 0.76348 0.0
C1678 C 0.11791 0.37938 0.76529 0.0
C1679 C 0.08599 0.36804 0.75821 0.0
H1680 H 0.28931 0.36788 0.26084 0.0
H1681 H 0.34978 0.35119 0.28627 0.0
H1682 H 0.37689 0.31517 0.27616 0.0
H1683 H 0.38373 0.28794 0.2597 0.0
H1684 H 0.35414 0.33708 0.234 0.0
H1685 H 0.31519 0.36072 0.24418 0.0
C1686 C 0.30813 0.35606 0.26418 0.0
C1687 C 0.31314 0.35775 0.27458 0.0
C1688 C 0.32901 0.34077 0.25806 0.0
C1689 C 0.341 0.34577 0.27854 0.0
C1690 C 0.35768 0.32619 0.27268 0.0
C1691 C 0.36847 0.3035 0.25632 0.0
C1692 C 0.36752 0.30605 0.24588 0.0
C1693 C 0.35136 0.32279 0.26239 0.0
C1694 C 0.35091 0.32989 0.24181 0.0
C1695 C 0.32967 0.34471 0.24771 0.0
H1696 H 0.80927 0.02288 0.27778 0.0
H1697 H 0.69334 0.94719 0.26226 0.0
H1698 H 0.71388 1.00223 0.24966 0.0
H1699 H 0.764 0.0736 0.24334 0.0
H1700 H 0.88063 0.14845 0.25878 0.0
H1701 H 0.86016 0.09326 0.27124 0.0
C1702 C 0.78827 0.0187 0.27172 0.0
C1703 C 0.7494 0.98113 0.27109 0.0
C1704 C 0.80038 0.05072 0.26449 0.0
C1705 C 0.72331 0.97571 0.26296 0.0
C1706 C 0.73504 1.00735 0.25577 0.0
C1707 C 0.78521 0.07765 0.24935 0.0
C1708 C 0.82415 0.11533 0.25 0.0
C1709 C 0.77338 0.04523 0.25648 0.0
C1710 C 0.8506 0.12004 0.25802 0.0
C1711 C 0.83892 0.08831 0.26516 0.0
H1712 H 0.03098 0.73475 0.24291 0.0
H1713 H 0.95044 0.76773 0.25893 0.0
H1714 H 1.00322 0.79988 0.27197 0.0
H1715 H 0.07262 0.81813 0.27916 0.0
H1716 H 0.15421 0.78753 0.26289 0.0
H1717 H 0.10148 0.75557 0.24974 0.0
C1718 C 0.02498 0.74908 0.24924 0.0
C1719 C 0.9864 0.74868 0.24985 0.0
C1720 C 0.05589 0.76787 0.25678 0.0
C1721 C 0.97949 0.7673 0.2582 0.0
C1722 C 1.00981 0.78571 0.26572 0.0
C1723 C 0.07867 0.8041 0.27278 0.0
C1724 C 0.11728 0.80472 0.27213 0.0
C1725 C 0.0481 0.78602 0.26515 0.0
C1726 C 0.12488 0.78739 0.26364 0.0
C1727 C 0.09458 0.76899 0.25611 0.0
H1728 H 0.50997 0.07786 0.01739 0.0
H1729 H 0.55652 1.01186 0.03491 0.0
H1730 H 0.58555 0.99834 0.01988 0.0
H1731 H 0.59754 1.00548 1.00181 0.0
H1732 H 0.55103 0.07156 0.9843 0.0
H1733 H 0.52201 0.08506 0.99934 0.0
C1734 C 0.52644 0.06043 0.01794 0.0
C1735 C 0.53105 0.04578 0.02728 0.0
C1736 C 0.54301 0.05296 1.00928 0.0
C1737 C 0.55251 0.02338 0.02784 0.0
C1738 C 0.56909 1.01573 0.01924 0.0
C1739 C 0.58109 0.02292 1.00127 0.0
C1740 C 0.57647 0.0376 0.99192 0.0
C1741 C 0.56454 0.03041 1.00993 0.0
C1742 C 0.55504 0.06003 0.99137 0.0
C1743 C 0.53846 0.06767 0.99997 0.0
H1744 H 0.05088 0.60755 1.00165 0.0
H1745 H 0.05563 0.50902 0.9855 0.0
H1746 H 0.05947 0.47738 1.0012 0.0
H1747 H 0.06208 0.4782 0.01949 0.0
H1748 H 0.05778 0.57712 0.03557 0.0
H1749 H 0.05416 0.60876 0.01988 0.0
C1750 C 0.05256 0.579 1.00154 0.0
C1751 C 0.05285 0.56059 0.99237 0.0
C1752 C 0.05543 0.56146 1.01058 0.0
C1753 C 0.05516 0.52371 0.99242 0.0
C1754 C 0.05759 0.50578 1.0014 0.0
C1755 C 0.06062 0.50686 0.01958 0.0
C1756 C 0.06025 0.5253 0.02873 0.0
C1757 C 0.05801 0.52453 1.01052 0.0
C1758 C 0.05831 0.56239 0.02867 0.0
C1759 C 0.05597 0.58032 0.01969 0.0
H1760 H 0.63345 0.58599 0.0186 0.0
H1761 H 0.51947 0.54024 0.03551 0.0
H1762 H 0.47823 0.51148 0.02029 0.0
H1763 H 0.47481 0.4993 1.00221 0.0
H1764 H 0.58885 0.54511 0.98532 0.0
H1765 H 0.63005 0.57391 1.00054 0.0
C1766 C 0.59953 0.56978 0.01898 0.0
C1767 C 0.57953 0.56534 0.02822 0.0
C1768 C 0.57619 0.55331 1.0102 0.0
C1769 C 0.53562 0.54418 0.02854 0.0
C1770 C 0.51211 0.52772 0.01982 0.0
C1771 C 0.50874 0.51553 1.00184 0.0
C1772 C 0.52877 0.51995 0.99261 0.0
C1773 C 0.53207 0.53205 1.01062 0.0
C1774 C 0.57268 0.54117 0.9923 0.0
C1775 C 0.59617 0.55766 1.00101 0.0
H1776 H 0.98406 0.54195 0.52244 0.0
H1777 H 0.10947 0.5871 0.53333 0.0
H1778 H 0.13223 0.581 0.51663 0.0
H1779 H 0.11673 0.56371 0.49891 0.0
H1780 H 0.99118 0.51782 0.48802 0.0
H1781 H 0.96842 0.52417 0.50471 0.0
C1782 C 1.01637 0.55026 0.52118 0.0
C1783 C 0.04504 0.56498 0.52917 0.0
C1784 C 0.02929 0.54707 0.51153 0.0
C1785 C 0.08673 0.57559 0.52737 0.0
C1786 C 0.09978 0.57231 0.5178 0.0
C1787 C 0.08439 0.55532 0.50015 0.0
C1788 C 0.0557 0.54042 0.49216 0.0
C1789 C 0.07142 0.55839 0.50981 0.0
C1790 C 1.01394 0.52954 0.49398 0.0
C1791 C 1.0009 0.53296 0.50354 0.0
H1792 H 0.61255 0.62369 0.50066 0.0
H1793 H 0.53062 0.51282 0.48391 0.0
H1794 H 0.49717 0.47596 0.49939 0.0
H1795 H 0.48962 0.47661 0.51753 0.0
H1796 H 0.57316 0.58688 0.53431 0.0
H1797 H 0.60757 0.6231 0.51887 0.0
C1798 C 0.58759 0.59127 0.50039 0.0
C1799 C 0.57398 0.57094 0.49113 0.0
C1800 C 0.56863 0.57055 0.50929 0.0
C1801 C 0.54181 0.52899 0.49092 0.0
C1802 C 0.52255 0.50812 0.49977 0.0
C1803 C 0.51534 0.50864 0.51785 0.0
C1804 C 0.52858 0.52924 0.5271 0.0
C1805 C 0.53536 0.52881 0.50897 0.0
C1806 C 0.56226 0.57047 0.52732 0.0
C1807 C 0.58194 0.59106 0.51849 0.0
H1808 H 0.61472 0.04088 0.52022 0.0
H1809 H 0.52049 0.05439 0.53606 0.0
H1810 H 0.49036 0.05964 0.52028 0.0
H1811 H 0.49102 0.0608 0.50194 0.0
H1812 H 0.58558 0.04766 0.48615 0.0
H1813 H 0.61579 0.04269 0.50193 0.0
C1814 C 0.58741 0.04473 0.52024 0.0
C1815 C 0.56979 0.04702 0.52937 0.0
C1816 C 0.57064 0.04834 0.51112 0.0
C1817 C 0.53456 0.05226 0.52919 0.0
C1818 C 0.51746 0.0555 0.52015 0.0
C1819 C 0.51845 0.05716 0.50194 0.0
C1820 C 0.53604 0.05471 0.49282 0.0
C1821 C 0.53536 0.05381 0.51107 0.0
C1822 C 0.57148 0.04983 0.49301 0.0
C1823 C 0.58863 0.04675 0.50205 0.0
H1824 H 0.25445 0.33612 0.3371 0.0
H1825 H 0.22021 0.4144 0.32041 0.0
H1826 H 0.19397 0.42974 0.33571 0.0
H1827 H 0.1818 0.42131 0.35382 0.0
H1828 H 0.21688 0.34331 0.37037 0.0
H1829 H 0.24197 0.32731 0.35504 0.0
C1830 C 0.2412 0.35657 0.33676 0.0
C1831 C 0.23934 0.37419 0.32759 0.0
C1832 C 0.22647 0.36521 0.34556 0.0
C1833 C 0.22201 0.40048 0.32734 0.0
C1834 C 0.20708 0.40921 0.33609 0.0
C1835 C 0.19488 0.40071 0.35409 0.0
C1836 C 0.19746 0.38344 0.36326 0.0
C1837 C 0.20929 0.39183 0.34524 0.0
C1838 C 0.21451 0.35691 0.36345 0.0
C1839 C 0.22884 0.34784 0.35468 0.0
H1840 H 0.72735 0.81591 0.35284 0.0
H1841 H 0.71621 0.9118 0.36854 0.0
H1842 H 0.71094 0.94168 0.35274 0.0
H1843 H 0.70892 0.9403 0.33448 0.0
H1844 H 0.72036 0.84474 0.31871 0.0
H1845 H 0.7251 0.81441 0.33452 0.0
C1846 C 0.72406 0.84354 0.35282 0.0
C1847 C 0.72236 0.86169 0.36191 0.0
C1848 C 0.72047 0.86021 0.34368 0.0
C1849 C 0.71784 0.89733 0.36169 0.0
C1850 C 0.71458 0.91427 0.35264 0.0
C1851 C 0.71215 0.91262 0.33448 0.0
C1852 C 0.71417 0.89477 0.32537 0.0
C1853 C 0.71557 0.89583 0.3436 0.0
C1854 C 0.71849 0.859 0.32556 0.0
C1855 C 0.72148 0.84183 0.33462 0.0
H1856 H 0.16097 0.80402 0.33593 0.0
H1857 H 0.25364 0.9108 0.3195 0.0
H1858 H 0.28279 0.94861 0.33504 0.0
H1859 H 0.28124 0.95197 0.35326 0.0
H1860 H 0.18897 0.84531 0.36979 0.0
H1861 H 0.1598 0.80721 0.35425 0.0
C1862 C 0.18781 0.83544 0.33573 0.0
C1863 C 0.20517 0.85443 0.32649 0.0
C1864 C 0.20404 0.85728 0.34473 0.0
C1865 C 0.23979 0.89527 0.32645 0.0
C1866 C 0.25629 0.91702 0.33535 0.0
C1867 C 0.25454 0.92046 0.35349 0.0
C1868 C 0.23722 0.90164 0.36274 0.0
C1869 C 0.23843 0.89852 0.34452 0.0
C1870 C 0.20278 0.86069 0.36283 0.0
C1871 C 0.18628 0.83881 0.35392 0.0
H1872 H 0.7115 0.80623 0.83476 0.0
H1873 H 0.72129 0.9118 0.81859 0.0
H1874 H 0.72704 0.94804 0.83424 0.0
H1875 H 0.73009 0.95012 0.85254 0.0
H1876 H 0.72048 0.84458 0.86869 0.0
H1877 H 0.71473 0.80837 0.85304 0.0
C1878 C 0.71459 0.83706 0.83464 0.0
C1879 C 0.71577 0.85616 0.82546 0.0
C1880 C 0.71852 0.85798 0.84368 0.0
C1881 C 0.72005 0.89624 0.8255 0.0
C1882 C 0.72358 0.91708 0.83447 0.0
C1883 C 0.72705 0.9193 0.85265 0.0
C1884 C 0.72587 0.90019 0.86183 0.0
C1885 C 0.72317 0.89841 0.8436 0.0
C1886 C 0.72169 0.86015 0.86178 0.0
C1887 C 0.71815 0.83932 0.85281 0.0
H1888 H 0.1529 0.81437 0.85323 0.0
H1889 H 0.26038 0.90813 0.86921 0.0
H1890 H 0.29514 0.93988 0.85345 0.0
H1891 H 0.2951 0.94041 0.83513 0.0
H1892 H 0.18733 0.84645 0.81925 0.0
H1893 H 0.1529 0.81472 0.835 0.0
C1894 C 0.18389 0.84191 0.85329 0.0
C1895 C 0.20399 0.8589 0.86243 0.0
C1896 C 0.20381 0.85954 0.84421 0.0
C1897 C 0.24413 0.89453 0.86232 0.0
C1898 C 0.26408 0.91251 0.8533 0.0
C1899 C 0.26417 0.91278 0.83509 0.0
C1900 C 0.24385 0.89574 0.82598 0.0
C1901 C 0.24433 0.8951 0.8442 0.0
C1902 C 0.20374 0.86008 0.82612 0.0
C1903 C 0.18397 0.84209 0.83513 0.0
H1904 H 0.14262 0.34189 0.8357 0.0
H1905 H 0.25569 0.4072 0.81833 0.0
H1906 H 0.29774 0.41933 0.8334 0.0
H1907 H 0.30207 0.41116 0.85145 0.0
H1908 H 0.18903 0.34602 0.86883 0.0
H1909 H 0.14696 0.33382 0.85376 0.0
C1910 C 0.17652 0.35887 0.83519 0.0
C1911 C 0.19604 0.37372 0.82586 0.0
C1912 C 0.2003 0.36558 0.84388 0.0
C1913 C 0.23992 0.39555 0.82537 0.0
C1914 C 0.26388 0.4024 0.834 0.0
C1915 C 0.26817 0.39419 0.85197 0.0
C1916 C 0.24866 0.37939 0.86129 0.0
C1917 C 0.24439 0.38751 0.84328 0.0
C1918 C 0.20478 0.35761 0.86179 0.0
C1919 C 0.18081 0.35073 0.85316 0.0
H1920 H 0.84284 0.74691 0.68578 0.0
H1921 H 0.8885 0.67852 0.70267 0.0
H1922 H 0.91783 0.66665 0.68745 0.0
H1923 H 0.93027 0.67589 0.66938 0.0
H1924 H 0.88431 0.74422 0.65256 0.0
H1925 H 0.85526 0.75619 0.66778 0.0
C1926 C 0.85917 0.7293 0.68616 0.0
C1927 C 0.86342 0.7135 0.69538 0.0
C1928 C 0.8759 0.7228 0.6774 0.0
C1929 C 0.88472 0.69089 0.69571 0.0
C1930 C 0.90149 0.68421 0.687 0.0
C1931 C 0.91397 0.69353 0.66903 0.0
C1932 C 0.90954 0.70929 0.65982 0.0
C1933 C 0.89729 0.70006 0.67781 0.0
C1934 C 0.88825 0.73191 0.65952 0.0
C1935 C 0.87162 0.73864 0.66823 0.0
H1936 H 0.4242 0.28776 0.6707 0.0
H1937 H 0.34824 0.1753 0.65383 0.0
H1938 H 0.33335 0.13337 0.66908 0.0
H1939 H 0.34204 0.1293 0.68717 0.0
H1940 H 0.41785 0.24235 0.70387 0.0
H1941 H 0.43277 0.28384 0.68862 0.0
C1942 C 0.40432 0.25401 0.67031 0.0
C1943 C 0.38728 0.23461 0.66111 0.0
C1944 C 0.39596 0.23046 0.67907 0.0
C1945 C 0.3617 0.19093 0.66079 0.0
C1946 C 0.35323 0.16708 0.66951 0.0
C1947 C 0.36187 0.16307 0.68749 0.0
C1948 C 0.37889 0.18282 0.69667 0.0
C1949 C 0.37018 0.18657 0.67869 0.0
C1950 C 0.40441 0.22649 0.69693 0.0
C1951 C 0.41291 0.25011 0.68821 0.0
H1952 H 0.81402 0.14853 0.66937 0.0
H1953 H 0.926 0.22604 0.65243 0.0
H1954 H 0.96371 0.25939 0.66776 0.0
H1955 H 0.96496 0.26625 0.6859 0.0
H1956 H 0.85274 0.19116 0.70293 0.0
H1957 H 0.81464 0.15747 0.6876 0.0
C1958 C 0.84677 0.1726 0.66902 0.0
C1959 C 0.86733 0.18451 0.65972 0.0
C1960 C 0.86795 0.19228 0.67786 0.0
C1961 C 0.90955 0.21615 0.65944 0.0
C1962 C 0.93103 0.23528 0.66821 0.0
C1963 C 0.93203 0.24267 0.68628 0.0
C1964 C 0.91168 0.23123 0.69558 0.0
C1965 C 0.91054 0.22365 0.67745 0.0
C1966 C 0.86904 0.20075 0.6959 0.0
C1967 C 0.8474 0.18134 0.68712 0.0
H1968 H 0.34895 0.24561 0.1836 0.0
H1969 H 0.42471 0.20909 0.20059 0.0
H1970 H 0.4383 0.18042 0.18546 0.0
H1971 H 0.42798 0.16564 0.16742 0.0
H1972 H 0.35258 0.20332 0.15064 0.0
H1973 H 0.33936 0.23182 0.16576 0.0
C1974 C 0.36856 0.23144 0.18404 0.0
C1975 C 0.38583 0.22949 0.19326 0.0
C1976 C 0.37612 0.21526 0.17535 0.0
C1977 C 0.41112 0.21104 0.19363 0.0
C1978 C 0.41878 0.19465 0.18497 0.0
C1979 C 0.40859 0.18008 0.16707 0.0
C1980 C 0.39111 0.18226 0.1579 0.0
C1981 C 0.40135 0.19653 0.1758 0.0
C1982 C 0.36628 0.20119 0.15757 0.0
C1983 C 0.35878 0.21746 0.16622 0.0
H1984 H 0.9617 0.27299 0.16883 0.0
H1985 H 0.8543 0.17846 0.15297 0.0
H1986 H 0.81836 0.14905 0.16874 0.0
H1987 H 0.81711 0.1509 0.18702 0.0
H1988 H 0.92468 0.24532 0.20285 0.0
H1989 H 0.96056 0.2747 0.18709 0.0
C1990 C 0.9305 0.24575 0.1688 0.0
C1991 C 0.91077 0.22789 0.15969 0.0
C1992 C 0.90986 0.22943 0.1779 0.0
C1993 C 0.87032 0.19269 0.15984 0.0
C1994 C 0.84967 0.17605 0.16886 0.0
C1995 C 0.84832 0.17811 0.18704 0.0
C1996 C 0.86812 0.19599 0.19615 0.0
C1997 C 0.869 0.19438 0.17793 0.0
C1998 C 0.90863 0.23108 0.19599 0.0
C1999 C 0.92923 0.24772 0.18696 0.0
H2000 H 0.80827 0.67224 0.16948 0.0
H2001 H 0.92093 0.74104 0.15214 0.0
H2002 H 0.96318 0.75708 0.16733 0.0
H2003 H 0.96773 0.75159 0.18551 0.0
H2004 H 0.85486 0.68242 0.20276 0.0
H2005 H 0.81279 0.66633 0.18758 0.0
C2006 C 0.84213 0.6908 0.16899 0.0
C2007 C 0.86146 0.70554 0.15965 0.0
C2008 C 0.866 0.69973 0.17774 0.0
C2009 C 0.9053 0.7294 0.1592 0.0
C2010 C 0.92937 0.73851 0.16789 0.0
C2011 C 0.93388 0.73292 0.18597 0.0
C2012 C 0.91441 0.7182 0.1953 0.0
C2013 C 0.91004 0.72386 0.1772 0.0
C2014 C 0.87059 0.6941 0.19572 0.0
C2015 C 0.8466 0.68496 0.18703 0.0
H2016 H 0.63654 0.85354 0.05455 0.0
H2017 H 0.5013 0.78116 0.05495 0.0
H2018 H 0.50407 0.71681 0.05361 0.0
H2019 H 0.544 0.68016 0.05313 0.0
H2020 H 0.67915 0.75077 0.05344 0.0
H2021 H 0.67704 0.81623 0.05379 0.0
C2022 C 0.60757 0.82377 0.0544 0.0
C2023 C 0.56867 0.82291 0.05483 0.0
C2024 C 0.60929 0.78623 0.05379 0.0
C2025 C 0.53174 0.78356 0.05445 0.0
C2026 C 0.53326 0.74641 0.05377 0.0
C2027 C 0.57323 0.70975 0.0532 0.0
C2028 C 0.61179 0.71006 0.05326 0.0
C2029 C 0.57177 0.74729 0.05352 0.0
C2030 C 0.649 0.74915 0.05337 0.0
C2031 C 0.64777 0.78673 0.0536 0.0
H2032 H 0.247 0.8111 0.05541 0.0
H2033 H 0.32168 0.75205 0.05104 0.0
H2034 H 0.38417 0.82035 0.04903 0.0
H2035 H 0.41884 0.89675 0.04948 0.0
H2036 H 0.34589 0.95733 0.05422 0.0
H2037 H 0.2819 0.88877 0.0551 0.0
C2038 C 0.27692 0.81312 0.05401 0.0
C2039 C 0.27918 0.77598 0.05336 0.0
C2040 C 0.31328 0.85292 0.05295 0.0
C2041 C 0.31842 0.77962 0.05142 0.0
C2042 C 0.35444 0.81886 0.05035 0.0
C2043 C 0.38899 0.89524 0.05063 0.0
C2044 C 0.38754 0.93255 0.05182 0.0
C2045 C 0.35237 0.85571 0.05122 0.0
C2046 C 0.34824 0.92941 0.05325 0.0
C2047 C 0.31155 0.89008 0.0538 0.0
H2048 H 0.19902 0.54079 0.04661 0.0
H2049 H 0.13566 0.41523 0.05846 0.0
H2050 H 0.20325 0.41783 0.06022 0.0
H2051 H 0.28117 0.45791 0.0594 0.0
H2052 H 0.343 0.5843 0.04795 0.0
H2053 H 0.27532 0.57895 0.045 0.0
C2054 C 0.19969 0.51364 0.04948 0.0
C2055 C 0.16192 0.47781 0.05242 0.0
C2056 C 0.23868 0.51566 0.05062 0.0
C2057 C 0.16391 0.44311 0.05608 0.0
C2058 C 0.20272 0.44476 0.05716 0.0
C2059 C 0.27993 0.48434 0.05626 0.0
C2060 C 0.31772 0.52159 0.05393 0.0
C2061 C 0.24046 0.48123 0.05464 0.0
C2062 C 0.31494 0.55507 0.04972 0.0
C2063 C 0.27606 0.55215 0.04808 0.0
H2064 H 0.80629 0.53969 0.47233 0.0
H2065 H 0.88167 0.64766 0.45402 0.0
H2066 H 0.82703 0.66673 0.45447 0.0
H2067 H 0.75508 0.65025 0.4592 0.0
H2068 H 0.68004 0.5413 0.47727 0.0
H2069 H 0.73684 0.52566 0.47784 0.0
C2070 C 0.8108 0.56738 0.46843 0.0
C2071 C 0.84826 0.59201 0.46313 0.0
C2072 C 0.77908 0.57826 0.4687 0.0
C2073 C 0.8535 0.62817 0.45824 0.0
C2074 C 0.82208 0.63909 0.45846 0.0
C2075 C 0.75161 0.62372 0.46345 0.0
C2076 C 0.71319 0.59712 0.4682 0.0
C2077 C 0.78446 0.61421 0.4636 0.0
C2078 C 0.70913 0.56238 0.47353 0.0
C2079 C 0.7416 0.55319 0.47383 0.0
H2080 H 0.5659 0.19854 0.46906 0.0
H2081 H 0.43132 0.13246 0.46605 0.0
H2082 H 0.43255 0.19939 0.46476 0.0
H2083 H 0.47235 0.27696 0.46373 0.0
H2084 H 0.60724 0.34167 0.46616 0.0
H2085 H 0.60506 0.27517 0.46857 0.0
C2086 C 0.53663 0.19852 0.46821 0.0
C2087 C 0.4985 0.1601 0.46765 0.0
C2088 C 0.53762 0.23713 0.46735 0.0
C2089 C 0.46113 0.16126 0.46654 0.0
C2090 C 0.46186 0.19965 0.46576 0.0
C2091 C 0.50135 0.27663 0.46476 0.0
C2092 C 0.53996 0.31487 0.46476 0.0
C2093 C 0.5 0.23785 0.46601 0.0
C2094 C 0.57697 0.3133 0.46628 0.0
C2095 C 0.57582 0.27506 0.46758 0.0
H2096 H 0.90855 0.41581 0.47195 0.0
H2097 H 0.97348 0.34733 0.46695 0.0
H2098 H 0.90587 0.28178 0.46585 0.0
H2099 H 0.8277 0.24487 0.46496 0.0
H2100 H 0.76496 0.31566 0.47006 0.0
H2101 H 0.83221 0.37913 0.47226 0.0
C2102 C 0.90821 0.38657 0.47071 0.0
C2103 C 0.94645 0.38685 0.46948 0.0
C2104 C 0.86933 0.34929 0.46992 0.0
C2105 C 0.94485 0.34831 0.46799 0.0
C2106 C 0.90604 0.3108 0.46727 0.0
C2107 C 0.82862 0.27402 0.46668 0.0
C2108 C 0.79068 0.27508 0.46715 0.0
C2109 C 0.86795 0.31098 0.46802 0.0
C2110 C 0.79313 0.31357 0.46936 0.0
C2111 C 0.83176 0.35005 0.47072 0.0
H2112 H 0.56499 0.40495 0.96724 0.0
H2113 H 0.42985 0.33428 0.96717 0.0
H2114 H 0.43198 0.26885 0.96657 0.0
H2115 H 0.47244 0.23153 0.96554 0.0
H2116 H 0.60767 0.304 0.96489 0.0
H2117 H 0.60491 0.36827 0.96646 0.0
C2118 C 0.53577 0.37535 0.96717 0.0
C2119 C 0.4972 0.37504 0.96727 0.0
C2120 C 0.53723 0.33779 0.9667 0.0
C2121 C 0.46001 0.33592 0.96714 0.0
C2122 C 0.46125 0.29835 0.96676 0.0
C2123 C 0.50143 0.2613 0.96569 0.0
C2124 C 0.54032 0.26213 0.96513 0.0
C2125 C 0.49971 0.29884 0.96643 0.0
C2126 C 0.57723 0.30153 0.9655 0.0
C2127 C 0.57573 0.33866 0.96631 0.0
H2128 H 0.85914 0.27419 0.964 0.0
H2129 H 0.7836 0.33148 0.96955 0.0
H2130 H 0.72146 0.26251 0.97115 0.0
H2131 H 0.68773 0.18623 0.97038 0.0
H2132 H 0.76195 0.12752 0.96491 0.0
H2133 H 0.82537 0.19664 0.96415 0.0
C2134 C 0.82924 0.2717 0.9657 0.0
C2135 C 0.82637 0.30847 0.96654 0.0
C2136 C 0.79325 0.23156 0.96666 0.0
C2137 C 0.78698 0.30413 0.96864 0.0
C2138 C 0.75131 0.26455 0.96964 0.0
C2139 C 0.71773 0.18825 0.96909 0.0
C2140 C 0.71972 0.1513 0.96767 0.0
C2141 C 0.75396 0.22808 0.96855 0.0
C2142 C 0.75921 0.15512 0.96606 0.0
C2143 C 0.79555 0.19477 0.96558 0.0
H2144 H 0.8271 0.62578 0.96421 0.0
H2145 H 0.76365 0.49202 0.96903 0.0
H2146 H 0.83073 0.49542 0.97135 0.0
H2147 H 0.90729 0.5349 0.97111 0.0
H2148 H 0.97237 0.66807 0.96562 0.0
H2149 H 0.90497 0.66615 0.96444 0.0
C2150 C 0.82779 0.59726 0.96574 0.0
C2151 C 0.78965 0.5586 0.96645 0.0
C2152 C 0.86698 0.59926 0.96692 0.0
C2153 C 0.79185 0.52234 0.9686 0.0
C2154 C 0.83045 0.52417 0.96985 0.0
C2155 C 0.90706 0.56378 0.96974 0.0
C2156 C 0.94533 0.60168 0.96845 0.0
C2157 C 0.86819 0.56231 0.96893 0.0
C2158 C 0.94374 0.63848 0.96668 0.0
C2159 C 0.90506 0.63732 0.96596 0.0
H2160 H 0.34347 0.44126 0.55889 0.0
H2161 H 0.41287 0.54472 0.5389 0.0
H2162 H 0.35651 0.5611 0.53907 0.0
H2163 H 0.28909 0.54946 0.54569 0.0
H2164 H 0.21918 0.44657 0.56579 0.0
H2165 H 0.27329 0.42689 0.56476 0.0
C2166 C 0.34574 0.46666 0.55438 0.0
C2167 C 0.38258 0.49146 0.54883 0.0
C2168 C 0.3131 0.47665 0.55464 0.0
C2169 C 0.38505 0.52489 0.54321 0.0
C2170 C 0.35281 0.53456 0.54335 0.0
C2171 C 0.28564 0.52274 0.54986 0.0
C2172 C 0.24974 0.49974 0.55583 0.0
C2173 C 0.31704 0.51133 0.54921 0.0
C2174 C 0.246 0.46483 0.56105 0.0
C2175 C 0.27716 0.45353 0.56049 0.0
H2176 H 0.6173 0.81231 0.55857 0.0
H2177 H 0.48507 0.75389 0.55215 0.0
H2178 H 0.491 0.8225 0.55071 0.0
H2179 H 0.53266 0.89906 0.55172 0.0
H2180 H 0.66509 0.95881 0.55786 0.0
H2181 H 0.66015 0.89004 0.55873 0.0
C2182 C 0.58981 0.81445 0.55673 0.0
C2183 C 0.55058 0.77731 0.5556 0.0
C2184 C 0.59344 0.85448 0.55583 0.0
C2185 C 0.51548 0.78138 0.5533 0.0
C2186 C 0.51888 0.82082 0.5524 0.0
C2187 C 0.56067 0.89731 0.55318 0.0
C2188 C 0.59928 0.93454 0.55473 0.0
C2189 C 0.55755 0.85758 0.55374 0.0
C2190 C 0.63498 0.93104 0.5566 0.0
C2191 C 0.63211 0.89155 0.55714 0.0
H2192 H 0.2744 0.85581 0.55533 0.0
H2193 H 0.33871 0.78494 0.55666 0.0
H2194 H 0.27221 0.72001 0.55508 0.0
H2195 H 0.19581 0.68253 0.55413 0.0
H2196 H 0.12952 0.75139 0.55326 0.0
H2197 H 0.19657 0.8175 0.55386 0.0
C2198 C 0.27399 0.82622 0.55531 0.0
C2199 C 0.31225 0.8259 0.55611 0.0
C2200 C 0.23508 0.78837 0.5545 0.0
C2201 C 0.31046 0.78684 0.5559 0.0
C2202 C 0.27217 0.7494 0.55507 0.0
C2203 C 0.19566 0.71187 0.55401 0.0
C2204 C 0.15708 0.71151 0.55368 0.0
C2205 C 0.2343 0.74971 0.55446 0.0
C2206 C 0.15832 0.75029 0.55348 0.0
C2207 C 0.19682 0.78823 0.55387 0.0
H2208 H 0.20832 0.01849 0.38472 0.0
H2209 H 0.34285 0.08993 0.38766 0.0
H2210 H 0.33979 0.15482 0.38841 0.0
H2211 H 0.29825 0.19089 0.38918 0.0
H2212 H 0.16346 0.11757 0.38687 0.0
H2213 H 0.16758 0.05419 0.38478 0.0
C2214 C 0.23719 0.04819 0.38544 0.0
C2215 C 0.27583 0.04903 0.38617 0.0
C2216 C 0.23514 0.08527 0.386 0.0
C2217 C 0.31268 0.08811 0.38706 0.0
C2218 C 0.3109 0.12528 0.38754 0.0
C2219 C 0.26972 0.16108 0.38823 0.0
C2220 C 0.23053 0.15948 0.38819 0.0
C2221 C 0.2722 0.1242 0.38718 0.0
C2222 C 0.19412 0.12035 0.38678 0.0
C2223 C 0.19639 0.08382 0.38567 0.0
H2224 H 0.07804 0.23866 0.38289 0.0
H2225 H 1.01289 0.30264 0.39231 0.0
H2226 H 0.94763 0.23507 0.39371 0.0
H2227 H 0.90999 0.15699 0.39323 0.0
H2228 H 0.9773 0.09472 0.38408 0.0
H2229 H 0.04043 0.1623 0.38161 0.0
C2230 C 0.04957 0.23816 0.38516 0.0
C2231 C 0.05077 0.27615 0.38752 0.0
C2232 C 1.01238 0.19918 0.38608 0.0
C2233 C 1.01317 0.27427 0.39038 0.0
C2234 C 0.97582 0.23546 0.39126 0.0
C2235 C 0.93846 0.15814 0.39071 0.0
C2236 C 0.93845 0.12025 0.38887 0.0
C2237 C 0.97519 0.19757 0.38932 0.0
C2238 C 0.97577 0.12287 0.38545 0.0
C2239 C 1.01215 0.16169 0.38408 0.0
H2240 H 0.86784 0.89604 0.38519 0.0
H2241 H 0.80545 0.76273 0.39038 0.0
H2242 H 0.8736 0.76648 0.39176 0.0
H2243 H 0.95135 0.80849 0.39236 0.0
H2244 H 1.01235 0.94171 0.38695 0.0
H2245 H 0.94446 0.93696 0.38496 0.0
C2246 C 0.86886 0.86757 0.38656 0.0
C2247 C 0.83109 0.82907 0.38769 0.0
C2248 C 0.90819 0.87002 0.38743 0.0
C2249 C 0.83367 0.79277 0.38943 0.0
C2250 C 0.87279 0.79496 0.39027 0.0
C2251 C 0.94995 0.83647 0.39062 0.0
C2252 C 0.98754 0.87559 0.38993 0.0
C2253 C 0.91035 0.83354 0.3894 0.0
C2254 C 0.98444 0.91134 0.38777 0.0
C2255 C 0.94543 0.90862 0.38654 0.0
H2256 H 0.35546 0.86587 0.80238 0.0
H2257 H 0.42487 0.99986 0.79815 0.0
H2258 H 0.48997 0.99751 0.79677 0.0
H2259 H 0.52697 0.95684 0.79609 0.0
H2260 H 0.45627 0.82268 0.80006 0.0
H2261 H 0.39233 0.82594 0.80231 0.0
C2262 C 0.38478 0.89477 0.80122 0.0
C2263 C 0.38488 0.93306 0.80034 0.0
C2264 C 0.4221 0.89314 0.80037 0.0
C2265 C 0.42353 0.96995 0.79888 0.0
C2266 C 0.46086 0.96857 0.79805 0.0
C2267 C 0.49759 0.92823 0.79742 0.0
C2268 C 0.49687 0.88947 0.79787 0.0
C2269 C 0.46049 0.93025 0.79865 0.0
C2270 C 0.45831 0.85301 0.79978 0.0
C2271 C 0.42149 0.8548 0.80101 0.0
H2272 H 0.22325 0.63936 0.80751 0.0
H2273 H 0.1361 0.61295 0.78355 0.0
H2274 H 0.11518 0.53882 0.78425 0.0
H2275 H 0.12453 0.4813 0.79098 0.0
H2276 H 0.21451 0.50873 0.81428 0.0
H2277 H 0.23048 0.58157 0.81469 0.0
C2278 C 0.19934 0.61736 0.80252 0.0
C2279 C 0.18169 0.63223 0.79542 0.0
C2280 C 0.18763 0.57446 0.80288 0.0
C2281 C 0.15094 0.6029 0.78897 0.0
C2282 C 0.13866 0.56025 0.7894 0.0
C2283 C 0.14679 0.50302 0.79631 0.0
C2284 C 0.16775 0.48928 0.80271 0.0
C2285 C 0.1571 0.54559 0.79625 0.0
C2286 C 0.19754 0.51827 0.80936 0.0
C2287 C 0.20695 0.56011 0.80955 0.0
H2288 H 0.57128 0.74302 0.80307 0.0
H2289 H 0.63438 0.67301 0.79756 0.0
H2290 H 0.56655 0.60821 0.79649 0.0
H2291 H 0.48887 0.57187 0.79621 0.0
H2292 H 0.42698 0.64298 0.80195 0.0
H2293 H 0.49465 0.70662 0.80368 0.0
C2294 C 0.57045 0.71362 0.80171 0.0
C2295 C 0.60828 0.71323 0.80038 0.0
C2296 C 0.53131 0.67651 0.80102 0.0
C2297 C 0.60605 0.67452 0.79865 0.0
C2298 C 0.56714 0.63737 0.79799 0.0
C2299 C 0.49006 0.60112 0.79798 0.0
C2300 C 0.45234 0.60224 0.79883 0.0
C2301 C 0.52946 0.63801 0.79904 0.0
C2302 C 0.45506 0.64088 0.80102 0.0
C2303 C 0.49391 0.67744 0.80209 0.0
H2304 H 0.14283 0.56823 0.2999 0.0
H2305 H 0.2777 0.64233 0.3019 0.0
H2306 H 0.27326 0.70562 0.3036 0.0
H2307 H 0.23228 0.74104 0.30364 0.0
H2308 H 0.09768 0.66912 0.30101 0.0
H2309 H 0.10103 0.6043 0.3004 0.0
C2310 C 0.17133 0.59817 0.30068 0.0
C2311 C 0.21063 0.59988 0.3008 0.0
C2312 C 0.16868 0.63512 0.30151 0.0
C2313 C 0.24694 0.63932 0.30197 0.0
C2314 C 0.24449 0.67586 0.30286 0.0
C2315 C 0.20343 0.71127 0.30301 0.0
C2316 C 0.16468 0.71033 0.30235 0.0
C2317 C 0.20565 0.67422 0.30254 0.0
C2318 C 0.12793 0.6711 0.30155 0.0
C2319 C 0.12989 0.63394 0.30116 0.0
H2320 H 0.36149 0.52595 0.30629 0.0
H2321 H 0.43218 0.46253 0.3024 0.0
H2322 H 0.49684 0.53039 0.30088 0.0
H2323 H 0.53298 0.60821 0.29972 0.0
H2324 H 0.46009 0.66978 0.30305 0.0
H2325 H 0.39728 0.60248 0.30579 0.0
C2326 C 0.391 0.52666 0.30522 0.0
C2327 C 0.39151 0.48863 0.30447 0.0
C2328 C 0.428 0.56582 0.30419 0.0
C2329 C 0.43046 0.4909 0.30307 0.0
C2330 C 0.46755 0.52988 0.30214 0.0
C2331 C 0.50341 0.60704 0.30103 0.0
C2332 C 0.50196 0.64478 0.30119 0.0
C2333 C 0.46667 0.56764 0.30251 0.0
C2334 C 0.46299 0.64196 0.30304 0.0
C2335 C 0.42669 0.6032 0.30455 0.0
H2336 H 0.49338 0.96139 0.29784 0.0
H2337 H 0.43126 0.82651 0.30024 0.0
H2338 H 0.49848 0.83017 0.30216 0.0
H2339 H 0.57477 0.87023 0.30249 0.0
H2340 H 0.63938 1.00473 0.29943 0.0
H2341 H 0.57164 1.00241 0.29844 0.0
C2342 C 0.49441 0.93271 0.29876 0.0
C2343 C 0.45641 0.89364 0.29897 0.0
C2344 C 0.53387 0.93488 0.29974 0.0
C2345 C 0.45917 0.85714 0.30027 0.0
C2346 C 0.49791 0.85912 0.30129 0.0
C2347 C 0.57444 0.89934 0.30169 0.0
C2348 C 0.61272 0.93773 0.30106 0.0
C2349 C 0.53543 0.89768 0.30098 0.0
C2350 C 0.61082 0.97473 0.29998 0.0
C2351 C 0.57191 0.97335 0.29937 0.0
H2352 H 0.08592 0.88479 0.88319 0.0
H2353 H 1.01665 0.75293 0.89018 0.0
H2354 H 0.95216 0.75662 0.89163 0.0
H2355 H 0.91615 0.79856 0.89183 0.0
H2356 H 0.98716 0.93046 0.88481 0.0
H2357 H 0.05005 0.92539 0.88264 0.0
C2358 C 0.05675 0.85656 0.88495 0.0
C2359 C 0.05651 0.81852 0.88657 0.0
C2360 C 1.01996 0.85908 0.88591 0.0
C2361 C 1.01805 0.78258 0.88884 0.0
C2362 C 0.98111 0.78477 0.88973 0.0
C2363 C 0.94521 0.82615 0.88971 0.0
C2364 C 0.9465 0.86506 0.88861 0.0
C2365 C 0.98174 0.82302 0.88841 0.0
C2366 C 0.98492 0.90032 0.88594 0.0
C2367 C 1.02104 0.8974 0.88461 0.0
H2368 H 0.21092 0.23003 0.88406 0.0
H2369 H 0.34478 0.28974 0.88811 0.0
H2370 H 0.33954 0.22085 0.88904 0.0
H2371 H 0.29612 0.14336 0.88976 0.0
H2372 H 0.16236 0.08502 0.88558 0.0
H2373 H 0.16855 0.15367 0.88381 0.0
C2374 C 0.23919 0.22827 0.88507 0.0
C2375 C 0.27827 0.26544 0.88605 0.0
C2376 C 0.23589 0.18858 0.88571 0.0
C2377 C 0.31431 0.26195 0.8873 0.0
C2378 C 0.31127 0.22244 0.88789 0.0
C2379 C 0.26834 0.14553 0.88832 0.0
C2380 C 0.22867 0.1086 0.88792 0.0
C2381 C 0.27211 0.18547 0.88725 0.0
C2382 C 0.19316 0.11254 0.88614 0.0
C2383 C 0.19669 0.15193 0.88505 0.0
H2384 H 0.87004 1.01366 0.88387 0.0
H2385 H 0.80713 0.08335 0.89 0.0
H2386 H 0.87509 0.14808 0.89116 0.0
H2387 H 0.95295 0.18445 0.89129 0.0
H2388 H 1.0144 0.11343 0.8849 0.0
H2389 H 0.94664 0.05 0.88315 0.0
C2390 C 0.8709 0.04297 0.88538 0.0
C2391 C 0.83304 0.04324 0.88685 0.0
C2392 C 0.91013 0.08003 0.88612 0.0
C2393 C 0.83542 0.08188 0.88879 0.0
C2394 C 0.87443 0.11899 0.8895 0.0
C2395 C 0.95167 0.15528 0.88939 0.0
C2396 C 0.9894 0.15419 0.88836 0.0
C2397 C 0.91212 0.11844 0.8883 0.0
C2398 C 0.98643 0.11558 0.88598 0.0
C2399 C 0.94748 0.07912 0.88489 0.0
H2400 H 0.874 0.34622 0.7201 0.0
H2401 H 1.00911 0.41783 0.72062 0.0
H2402 H 1.00634 0.48291 0.7211 0.0
H2403 H 0.96528 0.51952 0.72203 0.0
H2404 H 0.83009 0.44616 0.72225 0.0
H2405 H 0.8335 0.38223 0.72065 0.0
C2406 C 0.90307 0.37595 0.72024 0.0
C2407 C 0.94182 0.37669 0.72033 0.0
C2408 C 0.90123 0.41325 0.72064 0.0
C2409 C 0.97883 0.41593 0.72052 0.0
C2410 C 0.97723 0.45328 0.72083 0.0
C2411 C 0.93647 0.48962 0.72177 0.0
C2412 C 0.89739 0.48832 0.72224 0.0
C2413 C 0.93856 0.45235 0.72102 0.0
C2414 C 0.86065 0.44886 0.72172 0.0
C2415 C 0.86253 0.41197 0.7209 0.0
H2416 H 0.57569 0.48041 0.72266 0.0
H2417 H 0.64862 0.41856 0.72032 0.0
H2418 H 0.71222 0.48612 0.71822 0.0
H2419 H 0.74806 0.56272 0.71811 0.0
H2420 H 0.67651 0.62578 0.72102 0.0
H2421 H 0.61172 0.55788 0.72185 0.0
C2422 C 0.60547 0.4816 0.72172 0.0
C2423 C 0.60696 0.44395 0.72169 0.0
C2424 C 0.64236 0.52091 0.72064 0.0
C2425 C 0.64602 0.44655 0.72025 0.0
C2426 C 0.68263 0.48536 0.71913 0.0
C2427 C 0.71836 0.56191 0.71884 0.0
C2428 C 0.71753 0.59976 0.71954 0.0
C2429 C 0.68127 0.52275 0.71944 0.0
C2430 C 0.67841 0.59747 0.72045 0.0
C2431 C 0.64126 0.55852 0.72097 0.0
H2432 H 0.53169 0.21862 0.71968 0.0
H2433 H 0.4674 0.08399 0.72254 0.0
H2434 H 0.53505 0.08631 0.72319 0.0
H2435 H 0.61287 0.12712 0.72368 0.0
H2436 H 0.67544 0.26206 0.72153 0.0
H2437 H 0.60818 0.25869 0.71973 0.0
C2438 C 0.53212 0.18953 0.72038 0.0
C2439 C 0.49395 0.15108 0.72108 0.0
C2440 C 0.57113 0.19115 0.72088 0.0
C2441 C 0.49589 0.11403 0.72196 0.0
C2442 C 0.53473 0.11539 0.72237 0.0
C2443 C 0.61195 0.1559 0.72286 0.0
C2444 C 0.64992 0.19489 0.72273 0.0
C2445 C 0.57265 0.15387 0.72198 0.0
C2446 C 0.64741 0.23153 0.72148 0.0
C2447 C 0.6087 0.22969 0.72054 0.0
H2448 H 0.19719 0.28799 0.12985 0.0
H2449 H 0.12751 0.15575 0.13654 0.0
H2450 H 0.06448 0.16024 0.13925 0.0
H2451 H 0.02775 0.20028 0.1388 0.0
H2452 H 0.0959 0.33208 0.13168 0.0
H2453 H 0.16059 0.32905 0.13008 0.0
C2454 C 0.16823 0.26006 0.13188 0.0
C2455 C 0.16752 0.22147 0.13295 0.0
C2456 C 0.13162 0.26274 0.13335 0.0
C2457 C 0.12957 0.18597 0.13577 0.0
C2458 C 0.09325 0.18844 0.13726 0.0
C2459 C 0.05675 0.22861 0.13699 0.0
C2460 C 0.05662 0.26644 0.13535 0.0
C2461 C 0.09375 0.22651 0.13596 0.0
C2462 C 0.09481 0.30257 0.13302 0.0
C2463 C 0.13186 0.30078 0.13205 0.0
H2464 H 0.80955 0.93814 0.13416 0.0
H2465 H 0.94429 0.99701 0.13207 0.0
H2466 H 0.9395 0.92901 0.13335 0.0
H2467 H 0.89787 0.85289 0.13426 0.0
H2468 H 0.76297 0.79184 0.13561 0.0
H2469 H 0.76723 0.86045 0.13536 0.0
C2470 C 0.83793 0.93622 0.13396 0.0
C2471 C 0.87735 0.97339 0.13308 0.0
C2472 C 0.83499 0.89643 0.13453 0.0
C2473 C 0.91356 0.96965 0.13296 0.0
C2474 C 0.91087 0.9305 0.13359 0.0
C2475 C 0.86915 0.85421 0.13457 0.0
C2476 C 0.83003 0.81671 0.13495 0.0
C2477 C 0.87182 0.8937 0.1343 0.0
C2478 C 0.79352 0.81983 0.13533 0.0
C2479 C 0.79598 0.8592 0.13516 0.0
H2480 H 0.24008 0.06847 0.13597 0.0
H2481 H 0.30184 0.99773 0.12975 0.0
H2482 H 0.23359 0.93324 0.12888 0.0
H2483 H 0.15575 0.89741 0.12894 0.0
H2484 H 0.09552 0.96954 0.13539 0.0
H2485 H 0.16362 0.0327 0.13694 0.0
C2486 C 0.23893 0.039 0.13449 0.0
C2487 C 0.27654 0.03837 0.1329 0.0
C2488 C 0.19954 1.00209 0.1339 0.0
C2489 C 0.27377 0.9995 0.13104 0.0
C2490 C 0.23458 0.96251 0.13049 0.0
C2491 C 0.15739 0.92678 0.13082 0.0
C2492 C 0.1199 0.92828 0.13191 0.0
C2493 C 0.19713 0.96346 0.13178 0.0
C2494 C 0.1233 0.96709 0.13426 0.0
C2495 C 0.16244 1.0034 0.13523 0.0
H2496 H 0.7971 0.89811 0.63196 0.0
H2497 H 0.93035 0.96904 0.6375 0.0
H2498 H 0.92604 0.03208 0.63988 0.0
H2499 H 0.88633 0.06867 0.63944 0.0
H2500 H 0.75381 1.00071 0.63321 0.0
H2501 H 0.75613 0.93531 0.63209 0.0
C2502 C 0.82529 0.92731 0.63367 0.0
C2503 C 0.8641 0.92811 0.63456 0.0
C2504 C 0.8228 0.96426 0.6349 0.0
C2505 C 0.8999 0.96658 0.63693 0.0
C2506 C 0.89757 1.00304 0.63822 0.0
C2507 C 0.85763 0.03962 0.63792 0.0
C2508 C 0.81985 0.04004 0.63639 0.0
C2509 C 0.85939 1.00239 0.63712 0.0
C2510 C 0.78328 1.00165 0.63447 0.0
C2511 C 0.78472 0.9642 0.63377 0.0
H2512 H 0.19452 0.94375 0.63237 0.0
H2513 H 0.11954 1.00323 0.63545 0.0
H2514 H 0.05673 0.9351 0.63705 0.0
H2515 H 1.02184 0.85876 0.63675 0.0
H2516 H 0.0945 0.79728 0.63306 0.0
H2517 H 0.15894 0.86579 0.6325 0.0
C2518 C 0.16449 0.94195 0.63337 0.0
C2519 C 0.16246 0.97937 0.63383 0.0
C2520 C 0.12775 0.90208 0.63415 0.0
C2521 C 0.12288 0.97569 0.63526 0.0
C2522 C 0.08658 0.93645 0.63609 0.0
C2523 C 0.05168 0.85997 0.63589 0.0
C2524 C 0.05286 0.82235 0.63493 0.0
C2525 C 0.08853 0.89946 0.63545 0.0
C2526 C 0.09225 0.82533 0.63385 0.0
C2527 C 0.12922 0.86467 0.63348 0.0
H2528 H 0.23687 0.20721 0.64093 0.0
H2529 H 0.29911 0.34012 0.63523 0.0
H2530 H 0.23083 0.33613 0.63371 0.0
H2531 H 0.15281 0.29374 0.63303 0.0
H2532 H 0.09257 0.16043 0.63827 0.0
H2533 H 0.16039 0.16606 0.64098 0.0
C2534 C 0.23583 0.23561 0.63946 0.0
C2535 C 0.27363 0.27402 0.6382 0.0
C2536 C 0.19644 0.23295 0.63845 0.0
C2537 C 0.27093 0.31017 0.63631 0.0
C2538 C 0.2317 0.3078 0.63537 0.0
C2539 C 0.15441 0.26586 0.63477 0.0
C2540 C 0.11686 0.22662 0.63547 0.0
C2541 C 0.19412 0.26918 0.63625 0.0
C2542 C 0.12022 0.19117 0.63785 0.0
C2543 C 0.15928 0.19428 0.63933 0.0
H2544 H 0.58861 0.15001 0.22457 0.0
H2545 H 0.66308 0.27987 0.21594 0.0
H2546 H 0.72459 0.272 0.21438 0.0
H2547 H 0.7584 0.22972 0.21613 0.0
H2548 H 0.68518 0.09958 0.2245 0.0
H2549 H 0.62207 0.10592 0.22523 0.0
C2550 C 0.61809 0.17648 0.2222 0.0
C2551 C 0.62092 0.21574 0.22051 0.0
C2552 C 0.65373 0.1717 0.22125 0.0
C2553 C 0.65979 0.24957 0.21753 0.0
C2554 C 0.6951 0.24503 0.21656 0.0
C2555 C 0.72864 0.20249 0.21805 0.0
C2556 C 0.72684 0.16419 0.22031 0.0
C2557 C 0.69261 0.20647 0.21853 0.0
C2558 C 0.6877 0.12939 0.22269 0.0
C2559 C 0.65157 0.1331 0.22316 0.0
H2560 H 0.88076 0.56878 0.2184 0.0
H2561 H 1.01464 0.6338 0.22284 0.0
H2562 H 1.01261 0.56644 0.22408 0.0
H2563 H 0.97217 0.48864 0.22465 0.0
H2564 H 0.83802 0.42499 0.22063 0.0
H2565 H 0.84114 0.49209 0.21839 0.0
C2566 C 0.90975 0.56854 0.21956 0.0
C2567 C 0.9479 0.60687 0.22054 0.0
C2568 C 0.90829 0.52964 0.22038 0.0
C2569 C 0.98484 0.6052 0.22202 0.0
C2570 C 0.98364 0.56652 0.22278 0.0
C2571 C 0.94352 0.48932 0.22331 0.0
C2572 C 0.90481 0.45117 0.22283 0.0
C2573 C 0.94543 0.52845 0.22212 0.0
C2574 C 0.86834 0.45327 0.22092 0.0
C2575 C 0.87004 0.49185 0.2197 0.0
H2576 H 0.53407 0.35875 0.21139 0.0
H2577 H 0.46913 0.42436 0.21965 0.0
H2578 H 0.53658 0.48933 0.22154 0.0
H2579 H 0.61461 0.52646 0.22199 0.0
H2580 H 0.6779 0.45861 0.21414 0.0
H2581 H 0.61071 0.39607 0.21093 0.0
C2582 C 0.53435 0.38729 0.21349 0.0
C2583 C 0.49605 0.38623 0.21539 0.0
C2584 C 0.57328 0.42434 0.21473 0.0
C2585 C 0.49771 0.42393 0.21806 0.0
C2586 C 0.53646 0.46113 0.21923 0.0
C2587 C 0.61382 0.49803 0.21958 0.0
C2588 C 0.65194 0.49778 0.21834 0.0
C2589 C 0.57456 0.46155 0.21779 0.0
C2590 C 0.64968 0.46046 0.21505 0.0
C2591 C 0.61103 0.42436 0.21327 0.0
H2592 H 0.5169 0.43879 0.05323 0.0
H2593 H 0.64878 0.4797 0.05498 0.0
H2594 H 0.63266 0.40675 0.05373 0.0
H2595 H 0.58043 0.33084 0.05231 0.0
H2596 H 0.44882 0.29214 0.05113 0.0
H2597 H 0.46581 0.36478 0.05186 0.0
C2598 C 0.5424 0.4321 0.05334 0.0
C2599 C 0.58414 0.46508 0.05422 0.0
C2600 C 0.53289 0.39024 0.05267 0.0
C2601 C 0.6164 0.45521 0.05431 0.0
C2602 C 0.60715 0.41339 0.05361 0.0
C2603 C 0.55544 0.33826 0.05225 0.0
C2604 C 0.51329 0.30562 0.05156 0.0
C2605 C 0.56541 0.38054 0.05282 0.0
C2606 C 0.48152 0.31622 0.05142 0.0
C2607 C 0.49117 0.3579 0.05193 0.0
H2608 H 0.75659 0.2915 0.05161 0.0
H2609 H 0.80268 0.2052 0.04787 0.0
H2610 H 0.73174 0.1463 0.04901 0.0
H2611 H 0.65715 0.11863 0.05144 0.0
H2612 H 0.60888 0.20292 0.0554 0.0
H2613 H 0.68005 0.26301 0.05389 0.0
C2614 C 0.75111 0.25981 0.05105 0.0
C2615 C 0.78527 0.25311 0.04954 0.0
C2616 C 0.70982 0.22558 0.05182 0.0
C2617 C 0.77726 0.21166 0.04879 0.0
C2618 C 0.7366 0.17776 0.04954 0.0
C2619 C 0.66192 0.15007 0.05201 0.0
C2620 C 0.62745 0.15602 0.0536 0.0
C2621 C 0.70272 0.18431 0.0511 0.0
C2622 C 0.63467 0.19722 0.0542 0.0
C2623 C 0.67544 0.23165 0.05334 0.0
H2624 H 0.91329 0.47944 0.0501 0.0
H2625 H 1.00135 0.58562 0.06741 0.0
H2626 H 0.95376 0.61336 0.0675 0.0
H2627 H 0.88828 0.60915 0.06237 0.0
H2628 H 0.80065 0.5056 0.04433 0.0
H2629 H 0.84633 0.47521 0.04494 0.0
C2630 C 0.92174 0.50837 0.05398 0.0
C2631 C 0.96097 0.53037 0.05874 0.0
C2632 C 0.89433 0.52489 0.05383 0.0
C2633 C 0.97156 0.56808 0.06364 0.0
C2634 C 0.94433 0.58408 0.06369 0.0
C2635 C 0.87923 0.5802 0.05844 0.0
C2636 C 0.84094 0.56005 0.05326 0.0
C2637 C 0.90591 0.56313 0.05871 0.0
C2638 C 0.82963 0.52187 0.04846 0.0
C2639 C 0.85591 0.50446 0.04877 0.0
H2640 H 0.47458 0.62618 0.46239 0.0
H2641 H 0.45902 0.51043 0.47434 0.0
H2642 H 0.38531 0.48467 0.47709 0.0
H2643 H 0.32371 0.49168 0.47514 0.0
H2644 H 0.3366 0.60749 0.4641 0.0
H2645 H 0.41179 0.63564 0.46185 0.0
C2646 C 0.45511 0.59561 0.4657 0.0
C2647 C 0.47267 0.57019 0.46796 0.0
C2648 C 0.41174 0.58039 0.46732 0.0
C2649 C 0.44667 0.5306 0.4723 0.0
C2650 C 0.40421 0.51564 0.47392 0.0
C2651 C 0.34277 0.52346 0.47245 0.0
C2652 C 0.3237 0.54696 0.46976 0.0
C2653 C 0.38618 0.53983 0.47131 0.0
C2654 C 0.34968 0.58791 0.46607 0.0
C2655 C 0.39302 0.60432 0.46484 0.0
H2656 H 0.5246 0.80888 0.46771 0.0
H2657 H 0.65571 0.89611 0.46239 0.0
H2658 H 0.64097 0.95317 0.4609 0.0
H2659 H 0.59185 0.97887 0.46113 0.0
H2660 H 0.46029 0.89348 0.46624 0.0
H2661 H 0.47418 0.83512 0.46755 0.0
C2662 C 0.5499 0.84033 0.46617 0.0
C2663 C 0.59139 0.84803 0.46531 0.0
C2664 C 0.54115 0.87336 0.4652 0.0
C2665 C 0.62369 0.88916 0.46335 0.0
C2666 C 0.61525 0.92189 0.4624 0.0
C2667 C 0.56597 0.94754 0.4625 0.0
C2668 C 0.52502 0.94077 0.46359 0.0
C2669 C 0.57422 0.9144 0.46333 0.0
C2670 C 0.49211 0.89974 0.46534 0.0
C2671 C 0.50009 0.86634 0.46612 0.0
H2672 H 0.2367 0.78306 0.45709 0.0
H2673 H 0.32454 0.76462 0.47441 0.0
H2674 H 0.27717 0.68868 0.47398 0.0
H2675 H 0.20813 0.62715 0.46941 0.0
H2676 H 0.12112 0.64811 0.45242 0.0
H2677 H 0.17116 0.72287 0.45174 0.0
C2678 C 0.24602 0.76255 0.46062 0.0
C2679 C 0.28427 0.77984 0.46578 0.0
C2680 C 0.21863 0.71901 0.46037 0.0
C2681 C 0.2951 0.75241 0.47049 0.0
C2682 C 0.26808 0.70886 0.4702 0.0
C2683 C 0.20064 0.64811 0.46541 0.0
C2684 C 0.16094 0.63209 0.46097 0.0
C2685 C 0.22941 0.69171 0.46526 0.0
C2686 C 0.15138 0.65967 0.45593 0.0
C2687 C 0.17994 0.7025 0.45556 0.0
H2688 H 0.58587 0.64326 0.97276 0.0
H2689 H 0.46394 0.60736 0.96082 0.0
H2690 H 0.48114 0.6809 0.96108 0.0
H2691 H 0.53304 0.75632 0.9638 0.0
H2692 H 0.65378 0.78983 0.97625 0.0
H2693 H 0.63483 0.71649 0.97659 0.0
C2694 C 0.56286 0.65133 0.97022 0.0
C2695 C 0.5238 0.6197 0.96665 0.0
C2696 C 0.57294 0.6935 0.97041 0.0
C2697 C 0.49427 0.63095 0.96358 0.0
C2698 C 0.5042 0.67309 0.9637 0.0
C2699 C 0.55501 0.74757 0.96671 0.0
C2700 C 0.59524 0.77909 0.96982 0.0
C2701 C 0.54373 0.7048 0.96698 0.0
C2702 C 0.62312 0.76675 0.97355 0.0
C2703 C 0.61221 0.72464 0.97382 0.0
H2704 H 0.34981 0.79541 0.96955 0.0
H2705 H 0.30513 0.88358 0.97112 0.0
H2706 H 0.3763 0.94155 0.96944 0.0
H2707 H 0.45065 0.96776 0.96717 0.0
H2708 H 0.49756 0.88157 0.96528 0.0
H2709 H 0.42611 0.82248 0.96731 0.0
C2710 C 0.35564 0.82729 0.9695 0.0
C2711 C 0.32181 0.83483 0.97058 0.0
C2712 C 0.39705 0.86095 0.9684 0.0
C2713 C 0.33028 0.87654 0.97055 0.0
C2714 C 0.37108 0.90987 0.96949 0.0
C2715 C 0.44555 0.93612 0.96717 0.0
C2716 C 0.47971 0.92934 0.96602 0.0
C2717 C 0.40461 0.90247 0.96837 0.0
C2718 C 0.47202 0.8879 0.96612 0.0
C2719 C 0.4311 0.85405 0.96729 0.0
H2720 H 0.19298 0.60134 0.97354 0.0
H2721 H 0.13248 0.53013 0.94725 0.0
H2722 H 0.18164 0.50417 0.94659 0.0
H2723 H 0.23873 0.49774 0.95397 0.0
H2724 H 0.29802 0.56555 0.98072 0.0
H2725 H 0.2531 0.59694 0.98064 0.0
C2726 C 0.1912 0.58082 0.96757 0.0
C2727 C 0.15911 0.56779 0.96044 0.0
C2728 C 0.21911 0.56492 0.96737 0.0
C2729 C 0.1568 0.54062 0.95284 0.0
C2730 C 0.18483 0.52559 0.95247 0.0
C2731 C 0.24175 0.51915 0.95984 0.0
C2732 C 0.27159 0.52874 0.9674 0.0
C2733 C 0.21548 0.53671 0.95982 0.0
C2734 C 0.27555 0.55755 0.97478 0.0
C2735 C 0.24969 0.57545 0.97476 0.0
H2736 H 0.65354 0.58375 0.56057 0.0
H2737 H 0.61159 0.45468 0.55341 0.0
H2738 H 0.68457 0.47079 0.55232 0.0
H2739 H 0.76113 0.52229 0.55321 0.0
H2740 H 0.80105 0.65136 0.56 0.0
H2741 H 0.72847 0.63431 0.56144 0.0
C2742 C 0.6601 0.55888 0.55883 0.0
C2743 C 0.62664 0.5179 0.55711 0.0
C2744 C 0.70216 0.56844 0.55812 0.0
C2745 C 0.63637 0.48646 0.55481 0.0
C2746 C 0.67826 0.49572 0.55415 0.0
C2747 C 0.75397 0.54675 0.55495 0.0
C2748 C 0.7871 0.58814 0.55659 0.0
C2749 C 0.71156 0.53674 0.55573 0.0
C2750 C 0.77673 0.61914 0.55889 0.0
C2751 C 0.735 0.60947 0.55966 0.0
H2752 H 0.59313 0.16998 0.54269 0.0
H2753 H 0.57444 0.16008 0.5743 0.0
H2754 H 0.55614 0.21551 0.57392 0.0
H2755 H 0.54046 0.26312 0.56442 0.0
H2756 H 0.55369 0.26933 0.53262 0.0
H2757 H 0.57878 0.21908 0.53318 0.0
C2758 C 0.58594 0.18078 0.54949 0.0
C2759 C 0.58595 0.16181 0.55855 0.0
C2760 C 0.57383 0.21154 0.54914 0.0
C2761 C 0.57529 0.17488 0.56729 0.0
C2762 C 0.56456 0.20632 0.56705 0.0
C2763 C 0.54937 0.2539 0.55763 0.0
C2764 C 0.54528 0.27009 0.54849 0.0
C2765 C 0.56299 0.22436 0.558 0.0
C2766 C 0.55626 0.25717 0.53973 0.0
C2767 C 0.57075 0.22853 0.54006 0.0
H2768 H 0.96994 0.44459 0.54848 0.0
H2769 H 0.8918 0.47961 0.5649 0.0
H2770 H 0.83442 0.40643 0.56464 0.0
H2771 H 0.80791 0.33135 0.56038 0.0
H2772 H 0.88739 0.29934 0.54344 0.0
H2773 H 0.94261 0.37228 0.54334 0.0
C2774 C 0.94039 0.43641 0.55203 0.0
C2775 C 0.93548 0.46763 0.55682 0.0
C2776 C 0.90771 0.39454 0.5518 0.0
C2777 C 0.89657 0.4563 0.56118 0.0
C2778 C 0.86378 0.41438 0.56105 0.0
C2779 C 0.8371 0.34041 0.55657 0.0
C2780 C 0.84351 0.30934 0.55209 0.0
C2781 C 0.86912 0.38303 0.55646 0.0
C2782 C 0.88173 0.32202 0.54719 0.0
C2783 C 0.91339 0.36392 0.54707 0.0
H2784 H 0.19011 0.66031 0.40276 0.0
H2785 H 0.25319 0.66663 0.37532 0.0
H2786 H 0.28202 0.7426 0.37473 0.0
H2787 H 0.28607 0.80715 0.38166 0.0
H2788 H 0.22102 0.79849 0.40889 0.0
H2789 H 0.1977 0.72396 0.41013 0.0
C2790 C 0.21083 0.67823 0.39673 0.0
C2791 C 0.21939 0.65751 0.38911 0.0
C2792 C 0.22738 0.72178 0.39646 0.0
C2793 C 0.24552 0.6815 0.38124 0.0
C2794 C 0.26232 0.72506 0.38093 0.0
C2795 C 0.26773 0.78901 0.38797 0.0
C2796 C 0.25559 0.80822 0.39524 0.0
C2797 C 0.25316 0.74557 0.38847 0.0
C2798 C 0.23094 0.78431 0.40326 0.0
C2799 C 0.21734 0.74167 0.40393 0.0
H2800 H 0.45423 0.5485 0.3879 0.0
H2801 H 0.43516 0.65472 0.38842 0.0
H2802 H 0.35905 0.60746 0.389 0.0
H2803 H 0.29715 0.53468 0.3897 0.0
H2804 H 0.32013 0.43051 0.38928 0.0
H2805 H 0.39461 0.47808 0.38851 0.0
C2806 C 0.43362 0.56155 0.38826 0.0
C2807 C 0.45078 0.60528 0.38822 0.0
C2808 C 0.39006 0.53431 0.38864 0.0
C2809 C 0.42308 0.62123 0.3884 0.0
C2810 C 0.37943 0.59415 0.38879 0.0
C2811 C 0.31847 0.52247 0.38943 0.0
C2812 C 0.30232 0.47868 0.38956 0.0
C2813 C 0.36239 0.55043 0.38895 0.0
C2814 C 0.33087 0.46374 0.38918 0.0
C2815 C 0.3739 0.49103 0.38874 0.0
H2816 H 0.47473 0.84782 0.38744 0.0
H2817 H 0.56066 0.97742 0.39463 0.0
H2818 H 0.61738 0.9624 0.39628 0.0
H2819 H 0.64373 0.91421 0.39513 0.0
H2820 H 0.56086 0.78472 0.38742 0.0
H2821 H 0.50192 0.79804 0.38653 0.0
C2822 C 0.50588 0.87276 0.38934 0.0
C2823 C 0.51305 0.91371 0.391 0.0
C2824 C 0.53899 0.86402 0.39017 0.0
C2825 C 0.55371 0.94548 0.39353 0.0
C2826 C 0.58642 0.93702 0.3944 0.0
C2827 C 0.61284 0.88862 0.39327 0.0
C2828 C 0.60696 0.84851 0.39129 0.0
C2829 C 0.57949 0.89658 0.39268 0.0
C2830 C 0.56642 0.81592 0.38898 0.0
C2831 C 0.53273 0.82359 0.38844 0.0
H2832 H 0.11116 0.84576 0.79429 0.0
H2833 H 0.15866 0.97701 0.80011 0.0
H2834 H 0.08658 0.96372 0.80158 0.0
H2835 H 1.00942 0.91343 0.80191 0.0
H2836 H 0.96489 0.78251 0.79631 0.0
H2837 H 0.03644 0.79718 0.79413 0.0
C2838 C 0.10611 0.87176 0.79584 0.0
C2839 C 0.14062 0.91239 0.79711 0.0
C2840 C 0.06486 0.86381 0.7968 0.0
C2841 C 0.13287 0.9454 0.79909 0.0
C2842 C 0.09158 0.93776 0.79995 0.0
C2843 C 1.01548 0.88825 0.80015 0.0
C2844 C 0.98165 0.84675 0.79943 0.0
C2845 C 0.05722 0.89691 0.79893 0.0
C2846 C 0.99016 0.81452 0.79714 0.0
C2847 C 0.03114 0.82291 0.79583 0.0
H2848 H 0.1832 0.13302 0.80152 0.0
H2849 H 0.31559 0.22223 0.79969 0.0
H2850 H 0.30092 0.2793 0.79807 0.0
H2851 H 0.25176 0.30468 0.79749 0.0
H2852 H 0.1188 0.21814 0.79936 0.0
H2853 H 0.13245 0.15947 0.80058 0.0
C2854 C 0.20873 0.16494 0.80071 0.0
C2855 C 0.25058 0.17318 0.80087 0.0
C2856 C 0.20004 0.19819 0.7998 0.0
C2857 C 0.28322 0.21485 0.79981 0.0
C2858 C 0.27485 0.24762 0.79883 0.0
C2859 C 0.22545 0.27307 0.79814 0.0
C2860 C 0.18418 0.26616 0.79834 0.0
C2861 C 0.23353 0.23975 0.79889 0.0
C2862 C 0.15089 0.22466 0.79918 0.0
C2863 C 0.15873 0.19104 0.79989 0.0
H2864 H 0.95885 0.09062 0.80267 0.0
H2865 H 0.87201 0.13187 0.79438 0.0
H2866 H 0.81688 0.05967 0.79219 0.0
H2867 H 0.79252 0.98542 0.79282 0.0
H2868 H 0.8769 0.9412 0.80106 0.0
H2869 H 0.934 1.014 0.80282 0.0
C2870 C 0.92792 0.08376 0.80033 0.0
C2871 C 0.9196 0.11692 0.79886 0.0
C2872 C 0.89596 0.04169 0.79901 0.0
C2873 C 0.87922 0.10726 0.79584 0.0
C2874 C 0.84766 0.06588 0.79448 0.0
C2875 C 0.82336 0.99135 0.79498 0.0
C2876 C 0.83018 0.9576 0.79685 0.0
C2877 C 0.85558 0.03294 0.7961 0.0
C2878 C 0.87063 0.96642 0.79956 0.0
C2879 C 0.90325 1.0081 0.80061 0.0
H2880 H 0.2595 0.98399 0.29659 0.0
H2881 H 0.12854 0.93814 0.30249 0.0
H2882 H 0.14354 1.01004 0.30528 0.0
H2883 H 0.19451 0.08594 0.30646 0.0
H2884 H 0.32483 0.13032 0.29984 0.0
H2885 H 0.30937 0.05885 0.29724 0.0
C2886 C 0.23405 0.98954 0.29845 0.0
C2887 C 0.19292 0.95555 0.29933 0.0
C2888 C 0.2429 0.03078 0.30009 0.0
C2889 C 0.16048 0.96363 0.30171 0.0
C2890 C 0.1691 1.00477 0.30336 0.0
C2891 C 0.21955 0.08012 0.30438 0.0
C2892 C 0.261 0.11396 0.3035 0.0
C2893 C 0.2103 0.03863 0.30263 0.0
C2894 C 0.29288 0.10528 0.30088 0.0
C2895 C 0.284 0.06428 0.29925 0.0
H2896 H 0.11823 0.31063 0.29932 0.0
H2897 H 0.16443 0.2238 0.29817 0.0
H2898 H 0.09253 0.16489 0.29881 0.0
H2899 H 1.01574 0.13764 0.3001 0.0
H2900 H 0.97114 0.22575 0.30149 0.0
H2901 H 0.04275 0.28398 0.30036 0.0
C2902 C 0.11279 0.27888 0.29916 0.0
C2903 C 0.14715 0.27201 0.29868 0.0
C2904 C 0.07129 0.24505 0.29962 0.0
C2905 C 0.13893 0.23036 0.29854 0.0
C2906 C 0.09764 0.19651 0.2989 0.0
C2907 C 1.0217 0.16958 0.30009 0.0
C2908 C 0.98776 0.17704 0.30098 0.0
C2909 C 0.06345 0.2034 0.29949 0.0
C2910 C 0.99639 0.21882 0.30099 0.0
C2911 C 0.03746 0.2523 0.3003 0.0
H2912 H 0.89779 0.82127 0.29365 0.0
H2913 H 0.99104 0.93484 0.3078 0.0
H2914 H 0.94354 0.96316 0.30706 0.0
H2915 H 0.87345 0.95448 0.30284 0.0
H2916 H 0.78264 0.84036 0.28836 0.0
H2917 H 0.83153 0.81453 0.28854 0.0
C2918 C 0.90836 0.8526 0.29641 0.0
C2919 C 0.94826 0.8756 0.30079 0.0
C2920 C 0.88106 0.8689 0.29589 0.0
C2921 C 0.9604 0.91584 0.30452 0.0
C2922 C 0.93326 0.93229 0.30404 0.0
C2923 C 0.86468 0.92427 0.29962 0.0
C2924 C 0.82405 0.89938 0.29568 0.0
C2925 C 0.89321 0.90897 0.29981 0.0
C2926 C 0.81333 0.86015 0.29157 0.0
C2927 C 0.84134 0.84517 0.29165 0.0
H2928 H 0.30169 0.81317 0.88144 0.0
H2929 H 0.31543 0.88799 0.90724 0.0
H2930 H 0.39015 0.91197 0.90785 0.0
H2931 H 0.45261 0.91577 0.90051 0.0
H2932 H 0.44104 0.84482 0.8741 0.0
H2933 H 0.36501 0.81495 0.87438 0.0
C2934 C 0.32098 0.83407 0.88729 0.0
C2935 C 0.30288 0.84871 0.89429 0.0
C2936 C 0.36459 0.84884 0.88745 0.0
C2937 C 0.32849 0.87631 0.90174 0.0
C2938 C 0.37133 0.89018 0.90209 0.0
C2939 C 0.43363 0.89396 0.89476 0.0
C2940 C 0.45301 0.88306 0.88724 0.0
C2941 C 0.38993 0.87746 0.89485 0.0
C2942 C 0.42733 0.85377 0.88003 0.0
C2943 C 0.38369 0.83678 0.88015 0.0
H2944 H 0.26628 0.62345 0.88461 0.0
H2945 H 0.13353 0.53552 0.88254 0.0
H2946 H 0.14658 0.4774 0.88399 0.0
H2947 H 0.19445 0.45093 0.88618 0.0
H2948 H 0.32746 0.53659 0.88855 0.0
H2949 H 0.31537 0.59601 0.88676 0.0
C2950 C 0.24022 0.59158 0.88449 0.0
C2951 C 0.19892 0.58418 0.88334 0.0
C2952 C 0.24789 0.55779 0.88545 0.0
C2953 C 0.16567 0.54249 0.88316 0.0
C2954 C 0.17304 0.50905 0.88409 0.0
C2955 C 0.22104 0.48251 0.88634 0.0
C2956 C 0.26187 0.48905 0.88756 0.0
C2957 C 0.21389 0.5163 0.88527 0.0
C2958 C 0.29568 0.53045 0.88765 0.0
C2959 C 0.28875 0.56447 0.88662 0.0
H2960 H 0.4844 0.66368 0.88549 0.0
H2961 H 0.57372 0.62362 0.8921 0.0
H2962 H 0.6287 0.69602 0.89408 0.0
H2963 H 0.6522 0.77016 0.89374 0.0
H2964 H 0.56514 0.81305 0.88727 0.0
H2965 H 0.50841 0.74009 0.88566 0.0
C2966 C 0.51585 0.67082 0.88742 0.0
C2967 C 0.52484 0.63794 0.88848 0.0
C2968 C 0.54773 0.71301 0.88863 0.0
C2969 C 0.5659 0.648 0.89097 0.0
C2970 C 0.59741 0.68951 0.8922 0.0
C2971 C 0.62087 0.76391 0.892 0.0
C2972 C 0.61321 0.79739 0.89057 0.0
C2973 C 0.58877 0.72218 0.89099 0.0
C2974 C 0.57212 0.78811 0.88839 0.0
C2975 C 0.53968 0.74631 0.88744 0.0
H2976 H 0.91413 0.99939 0.72057 0.0
H2977 H 0.78272 0.95959 0.71757 0.0
H2978 H 0.79891 0.03203 0.71807 0.0
H2979 H 0.84916 0.10616 0.71984 0.0
H2980 H 0.98075 0.14818 0.72332 0.0
H2981 H 0.96553 0.07542 0.72224 0.0
C2982 C 0.88901 1.00653 0.72006 0.0
C2983 C 0.84717 0.97365 0.71894 0.0
C2984 C 0.89849 0.0487 0.72049 0.0
C2985 C 0.81524 0.98388 0.71821 0.0
C2986 C 0.82441 0.02544 0.71859 0.0
C2987 C 0.87476 0.09972 0.72037 0.0
C2988 C 0.91612 0.1329 0.72172 0.0
C2989 C 0.86579 0.05802 0.71978 0.0
C2990 C 0.94862 0.12345 0.7223 0.0
C2991 C 0.93989 0.08177 0.72169 0.0
H2992 H 0.98741 0.77776 0.72123 0.0
H2993 H 0.94464 0.86732 0.72292 0.0
H2994 H 1.01746 0.92487 0.72199 0.0
H2995 H 0.09364 0.94948 0.7209 0.0
H2996 H 0.13407 0.85787 0.71974 0.0
H2997 H 0.06165 0.80158 0.72009 0.0
C2998 C 0.99367 0.8098 0.7214 0.0
C2999 C 0.96029 0.81799 0.72219 0.0
C3000 C 0.03537 0.84251 0.72089 0.0
C3001 C 0.96954 0.85993 0.72234 0.0
C3002 C 1.01124 0.89288 0.72181 0.0
C3003 C 0.08664 0.91722 0.72076 0.0
C3004 C 0.1197 0.90825 0.7202 0.0
C3005 C 0.0445 0.88453 0.72112 0.0
C3006 C 0.10967 0.86608 0.71993 0.0
C3007 C 0.06812 0.83368 0.72023 0.0
H3008 H 0.24456 0.14868 0.71316 0.0
H3009 H 0.30091 0.21024 0.74071 0.0
H3010 H 0.25172 0.23607 0.74201 0.0
H3011 H 0.19698 0.24629 0.73473 0.0
H3012 H 0.13971 0.18604 0.70709 0.0
H3013 H 0.18534 0.15554 0.7063 0.0
C3014 C 0.2452 0.16687 0.71954 0.0
C3015 C 0.27593 0.17717 0.7269 0.0
C3016 C 0.21731 0.18273 0.72011 0.0
C3017 C 0.27724 0.20164 0.73501 0.0
C3018 C 0.24932 0.21668 0.73573 0.0
C3019 C 0.19372 0.22585 0.7286 0.0
C3020 C 0.16472 0.21868 0.72099 0.0
C3021 C 0.21983 0.2082 0.72823 0.0
C3022 C 0.16206 0.1928 0.71301 0.0
C3023 C 0.18797 0.175 0.71258 0.0
H3024 H 0.78281 0.16847 0.127 0.0
H3025 H 0.82502 0.29771 0.13409 0.0
H3026 H 0.75212 0.28165 0.13531 0.0
H3027 H 0.67605 0.23007 0.13484 0.0
H3028 H 0.63556 0.10151 0.12725 0.0
H3029 H 0.70804 0.11818 0.12596 0.0
C3030 C 0.77628 0.19332 0.12879 0.0
C3031 C 0.8096 0.23427 0.13048 0.0
C3032 C 0.7344 0.18386 0.12951 0.0
C3033 C 0.80016 0.26591 0.13274 0.0
C3034 C 0.7584 0.2567 0.13347 0.0
C3035 C 0.68301 0.20573 0.13283 0.0
C3036 C 0.64991 0.16433 0.13129 0.0
C3037 C 0.72518 0.21566 0.13194 0.0
C3038 C 0.65996 0.13334 0.12875 0.0
C3039 C 0.70157 0.14292 0.12791 0.0
H3040 H 0.8466 0.46072 0.13668 0.0
H3041 H 0.97934 0.54961 0.13761 0.0
H3042 H 0.96552 0.60719 0.136 0.0
H3043 H 0.91687 0.63296 0.13411 0.0
H3044 H 0.78377 0.54628 0.13294 0.0
H3045 H 0.79674 0.48743 0.13475 0.0
C3046 C 0.87248 0.49268 0.1365 0.0
C3047 C 0.91404 0.50052 0.1374 0.0
C3048 C 0.86433 0.52617 0.13548 0.0
C3049 C 0.94705 0.54233 0.13719 0.0
C3050 C 0.93922 0.57545 0.13617 0.0
C3051 C 0.89044 0.60127 0.13422 0.0
C3052 C 0.84931 0.59431 0.13334 0.0
C3053 C 0.8981 0.56778 0.1353 0.0
C3054 C 0.81577 0.55278 0.13358 0.0
C3055 C 0.8232 0.51906 0.13462 0.0
H3056 H 0.62682 0.41614 0.13391 0.0
H3057 H 0.53428 0.4552 0.13579 0.0
H3058 H 0.47846 0.38276 0.13485 0.0
H3059 H 0.45523 0.30894 0.13315 0.0
H3060 H 0.54538 0.26713 0.13081 0.0
H3061 H 0.60264 0.34002 0.13217 0.0
C3062 C 0.59445 0.40882 0.13408 0.0
C3063 C 0.5851 0.44153 0.13505 0.0
C3064 C 0.56197 0.36658 0.13341 0.0
C3065 C 0.54279 0.43107 0.13531 0.0
C3066 C 0.51065 0.3895 0.13467 0.0
C3067 C 0.48732 0.31538 0.13293 0.0
C3068 C 0.49573 0.28222 0.13184 0.0
C3069 C 0.51984 0.3571 0.13369 0.0
C3070 C 0.53778 0.29181 0.13163 0.0
C3071 C 0.57056 0.33357 0.1324 0.0
H3072 H 0.81436 0.28918 0.63824 0.0
H3073 H 0.91698 0.30239 0.6202 0.0
H3074 H 0.94613 0.37777 0.6195 0.0
H3075 H 0.94567 0.44046 0.62474 0.0
H3076 H 0.84388 0.43028 0.64259 0.0
H3077 H 0.81214 0.35389 0.64286 0.0
C3078 C 0.84264 0.30861 0.63403 0.0
C3079 C 0.86344 0.29004 0.62929 0.0
C3080 C 0.86001 0.35271 0.63378 0.0
C3081 C 0.90041 0.31577 0.62396 0.0
C3082 C 0.91727 0.35901 0.62357 0.0
C3083 C 0.91613 0.42174 0.62856 0.0
C3084 C 0.89735 0.44159 0.6336 0.0
C3085 C 0.89781 0.37791 0.62858 0.0
C3086 C 0.85957 0.41626 0.63874 0.0
C3087 C 0.84113 0.37238 0.63882 0.0
H3088 H 0.78147 0.64517 0.63465 0.0
H3089 H 0.82574 0.55675 0.6361 0.0
H3090 H 0.75373 0.49956 0.63866 0.0
H3091 H 0.67793 0.47478 0.64034 0.0
H3092 H 0.63526 0.56446 0.63801 0.0
H3093 H 0.70706 0.62092 0.63623 0.0
C3094 C 0.77565 0.61346 0.63553 0.0
C3095 C 0.80926 0.60546 0.63515 0.0
C3096 C 0.73432 0.58084 0.63696 0.0
C3097 C 0.80064 0.56397 0.63631 0.0
C3098 C 0.75941 0.53122 0.6378 0.0
C3099 C 0.68418 0.5066 0.6394 0.0
C3100 C 0.65064 0.51493 0.63941 0.0
C3101 C 0.72591 0.53927 0.6381 0.0
C3102 C 0.65996 0.55672 0.6383 0.0
C3103 C 0.70119 0.58921 0.63715 0.0
H3104 H 0.62292 0.24738 0.63421 0.0
H3105 H 0.53595 0.11498 0.63105 0.0
H3106 H 0.47778 0.12846 0.63011 0.0
H3107 H 0.4507 0.17721 0.63051 0.0
H3108 H 0.53671 0.30968 0.63387 0.0
H3109 H 0.59554 0.29666 0.63447 0.0
C3110 C 0.59125 0.22142 0.63336 0.0
C3111 C 0.58426 0.18014 0.63264 0.0
C3112 C 0.55746 0.22935 0.63288 0.0
C3113 C 0.54277 0.14713 0.63144 0.0
C3114 C 0.50924 0.15476 0.63097 0.0
C3115 C 0.48227 0.20338 0.63135 0.0
C3116 C 0.48892 0.24444 0.63214 0.0
C3117 C 0.51612 0.19569 0.6317 0.0
C3118 C 0.53033 0.27773 0.63322 0.0
C3119 C 0.56414 0.2703 0.63359 0.0
H3120 H 0.96358 0.14782 0.21295 0.0
H3121 H 0.98189 0.21659 0.24008 0.0
H3122 H 0.05669 0.24056 0.23968 0.0
H3123 H 0.11777 0.24763 0.23087 0.0
H3124 H 0.10177 0.18209 0.20333 0.0
H3125 H 0.02553 0.15099 0.20464 0.0
C3126 C 0.98391 0.16708 0.21889 0.0
C3127 C 0.96731 0.18022 0.22658 0.0
C3128 C 0.02744 0.18197 0.21843 0.0
C3129 C 0.99401 0.20594 0.23413 0.0
C3130 C 0.03682 0.2199 0.23386 0.0
C3131 C 0.09765 0.22661 0.22513 0.0
C3132 C 0.11556 0.21782 0.21693 0.0
C3133 C 0.05406 0.20919 0.2259 0.0
C3134 C 0.08886 0.18955 0.20971 0.0
C3135 C 0.04524 0.17183 0.21044 0.0
H3136 H 0.92119 0.95807 0.22092 0.0
H3137 H 0.78951 0.86921 0.22467 0.0
H3138 H 0.80434 0.81197 0.2254 0.0
H3139 H 0.85375 0.78655 0.22492 0.0
H3140 H 0.98584 0.87355 0.22122 0.0
H3141 H 0.97173 0.93181 0.22049 0.0
C3142 C 0.89578 0.92615 0.22186 0.0
C3143 C 0.85425 0.9182 0.22283 0.0
C3144 C 0.90454 0.89293 0.22227 0.0
C3145 C 0.82179 0.87655 0.22409 0.0
C3146 C 0.8302 0.84364 0.22445 0.0
C3147 C 0.87969 0.81818 0.22394 0.0
C3148 C 0.9209 0.82536 0.22309 0.0
C3149 C 0.87137 0.85143 0.22357 0.0
C3150 C 0.95382 0.86684 0.22189 0.0
C3151 C 0.94573 0.90025 0.22146 0.0
H3152 H 0.21711 0.98714 0.23059 0.0
H3153 H 0.13991 0.99681 0.20788 0.0
H3154 H 0.18482 0.07301 0.20774 0.0
H3155 H 0.24887 0.13751 0.21352 0.0
H3156 H 0.32711 0.12542 0.23554 0.0
H3157 H 0.27938 0.05018 0.23641 0.0
C3158 C 0.2102 1.00567 0.22551 0.0
C3159 C 0.17506 0.98569 0.21921 0.0
C3160 C 0.23655 0.0495 0.22534 0.0
C3161 C 0.16638 1.01092 0.21289 0.0
C3162 C 0.19226 0.05469 0.21277 0.0
C3163 C 0.25504 0.1184 0.2186 0.0
C3164 C 0.29162 0.13725 0.22446 0.0
C3165 C 0.22771 0.07444 0.21891 0.0
C3166 C 0.29937 0.11186 0.23091 0.0
C3167 C 0.27208 0.06869 0.23141 0.0
loop_
_geom_bond_atom_site_label_1
_geom_bond_atom_site_label_2
_geom_bond_distance
_geom_bond_site_symmetry_2
_ccdc_geom_bond_type
Ho0 C3 2.811 . S
Ho0 O20 2.322 . S
Ho0 O22 2.378 . S
Ho0 O23 2.524 . S
Ho0 O24 2.381 . S
Ho0 O25 2.669 . S
Ho0 O27 2.346 1_545 S
Ho0 O31 2.305 . S
Ho1 C12 2.811 1_545 S
Ho1 O21 2.346 . S
Ho1 O25 2.305 . S
Ho1 O26 2.322 1_545 S
Ho1 O28 2.378 1_545 S
Ho1 O29 2.524 1_545 S
Ho1 O30 2.381 . S
Ho1 O31 2.669 . S
C2 O20 1.259 . S
C2 O21 1.268 . S
C3 Ho0 2.811 . S
C3 C4 1.488 . S
C3 O22 1.215 . S
C3 O23 1.289 . S
C4 C3 1.488 . S
C4 C5 1.348 . S
C4 C9 1.413 . S
C5 C4 1.348 . S
C5 C6 1.442 . S
C5 H32 0.930 . S
C6 C5 1.442 . S
C6 C7 1.381 . S
C6 H33 0.931 . S
C7 C6 1.381 . S
C7 C8 1.321 . S
C8 C7 1.321 . S
C8 C9 1.403 . S
C8 H34 0.934 . S
C9 C4 1.413 . S
C9 C8 1.403 . S
C9 H35 0.930 . S
C10 O24 1.275 . S
C10 O25 1.256 . S
C11 O26 1.259 . S
C11 O27 1.268 . S
C12 Ho1 2.811 1_565 S
C12 C13 1.488 . S
C12 O28 1.215 . S
C12 O29 1.289 . S
C13 C12 1.488 . S
C13 C14 1.348 . S
C13 C18 1.413 . S
C14 C13 1.348 . S
C14 C15 1.442 . S
C14 H36 0.930 . S
C15 C14 1.442 . S
C15 C16 1.381 . S
C15 H37 0.931 . S
C16 C15 1.381 . S
C16 C17 1.321 . S
C17 C16 1.321 . S
C17 C18 1.403 . S
C17 H38 0.934 . S
C18 C13 1.413 . S
C18 C17 1.403 . S
C18 H39 0.930 . S
C19 O30 1.275 . S
C19 O31 1.256 . S
O20 Ho0 2.322 . S
O20 C2 1.259 . S
O21 Ho1 2.346 . S
O21 C2 1.268 . S
O22 Ho0 2.378 . S
O22 C3 1.215 . S
O23 Ho0 2.524 . S
O23 C3 1.289 . S
O24 Ho0 2.381 . S
O24 C10 1.275 . S
O25 Ho0 2.669 . S
O25 Ho1 2.305 . S
O25 C10 1.256 . S
O26 Ho1 2.322 1_565 S
O26 C11 1.259 . S
O27 Ho0 2.346 1_565 S
O27 C11 1.268 . S
O28 Ho1 2.378 1_565 S
O28 C12 1.215 . S
O29 Ho1 2.524 1_565 S
O29 C12 1.289 . S
O30 Ho1 2.381 . S
O30 C19 1.275 . S
O31 Ho0 2.305 . S
O31 Ho1 2.669 . S
O31 C19 1.256 . S
H32 C5 0.930 . S
H33 C6 0.931 . S
H34 C8 0.934 . S
H35 C9 0.930 . S
H36 C14 0.930 . S
H37 C15 0.931 . S
H38 C17 0.934 . S
H39 C18 0.930 . S
Ho40 C43 2.811 . S
Ho40 O60 2.322 . S
Ho40 O62 2.378 . S
Ho40 O63 2.524 . S
Ho40 O64 2.381 1_655 S
Ho40 O65 2.669 1_655 S
Ho40 O67 2.346 1_655 S
Ho40 O71 2.305 1_655 S
Ho41 C52 2.811 . S
Ho41 O61 2.346 1_455 S
Ho41 O65 2.305 . S
Ho41 O66 2.322 . S
Ho41 O68 2.378 . S
Ho41 O69 2.524 . S
Ho41 O70 2.381 . S
Ho41 O71 2.669 . S
C42 O60 1.259 . S
C42 O61 1.268 . S
C43 Ho40 2.811 . S
C43 C44 1.488 . S
C43 O62 1.215 . S
C43 O63 1.289 . S
C44 C43 1.488 . S
C44 C45 1.348 . S
C44 C49 1.413 . S
C45 C44 1.348 . S
C45 C46 1.442 . S
C45 H72 0.930 . S
C46 C45 1.442 . S
C46 C47 1.381 . S
C46 H73 0.931 . S
C47 C46 1.381 . S
C47 C48 1.321 . S
C48 C47 1.321 . S
C48 C49 1.403 . S
C48 H74 0.934 . S
C49 C44 1.413 . S
C49 C48 1.403 . S
C49 H75 0.930 . S
C50 O64 1.275 . S
C50 O65 1.256 . S
C51 O66 1.259 . S
C51 O67 1.268 . S
C52 Ho41 2.811 . S
C52 C53 1.488 . S
C52 O68 1.215 . S
C52 O69 1.289 . S
C53 C52 1.488 . S
C53 C54 1.348 . S
C53 C58 1.413 . S
C54 C53 1.348 . S
C54 C55 1.442 . S
C54 H76 0.930 . S
C55 C54 1.442 . S
C55 C56 1.381 . S
C55 H77 0.931 . S
C56 C55 1.381 . S
C56 C57 1.321 . S
C57 C56 1.321 . S
C57 C58 1.403 . S
C57 H78 0.934 . S
C58 C53 1.413 . S
C58 C57 1.403 . S
C58 H79 0.930 . S
C59 O70 1.275 . S
C59 O71 1.256 . S
O60 Ho40 2.322 . S
O60 C42 1.259 . S
O61 Ho41 2.346 1_655 S
O61 C42 1.268 . S
O62 Ho40 2.378 . S
O62 C43 1.215 . S
O63 Ho40 2.524 . S
O63 C43 1.289 . S
O64 Ho40 2.381 1_455 S
O64 C50 1.275 . S
O65 Ho40 2.669 1_455 S
O65 Ho41 2.305 . S
O65 C50 1.256 . S
O66 Ho41 2.322 . S
O66 C51 1.259 . S
O67 Ho40 2.346 1_455 S
O67 C51 1.268 . S
O68 Ho41 2.378 . S
O68 C52 1.215 . S
O69 Ho41 2.524 . S
O69 C52 1.289 . S
O70 Ho41 2.381 . S
O70 C59 1.275 . S
O71 Ho40 2.305 1_455 S
O71 Ho41 2.669 . S
O71 C59 1.256 . S
H72 C45 0.930 . S
H73 C46 0.931 . S
H74 C48 0.934 . S
H75 C49 0.930 . S
H76 C54 0.930 . S
H77 C55 0.931 . S
H78 C57 0.934 . S
H79 C58 0.930 . S
Ho80 C83 2.811 . S
Ho80 O100 2.322 . S
Ho80 O102 2.378 . S
Ho80 O103 2.524 . S
Ho80 O104 2.381 . S
Ho80 O105 2.669 . S
Ho80 O107 2.346 . S
Ho80 O111 2.305 . S
Ho81 C92 2.811 . S
Ho81 O101 2.346 . S
Ho81 O105 2.305 . S
Ho81 O106 2.322 . S
Ho81 O108 2.378 . S
Ho81 O109 2.524 . S
Ho81 O110 2.381 . S
Ho81 O111 2.669 . S
C82 O100 1.259 . S
C82 O101 1.268 . S
C83 Ho80 2.811 . S
C83 C84 1.488 . S
C83 O102 1.215 . S
C83 O103 1.289 . S
C84 C83 1.488 . S
C84 C85 1.348 . S
C84 C89 1.413 . S
C85 C84 1.348 . S
C85 C86 1.442 . S
C85 H112 0.930 . S
C86 C85 1.442 . S
C86 C87 1.381 . S
C86 H113 0.931 . S
C87 C86 1.381 . S
C87 C88 1.321 . S
C88 C87 1.321 . S
C88 C89 1.403 . S
C88 H114 0.934 . S
C89 C84 1.413 . S
C89 C88 1.403 . S
C89 H115 0.930 . S
C90 O104 1.275 . S
C90 O105 1.256 . S
C91 O106 1.259 . S
C91 O107 1.268 . S
C92 Ho81 2.811 . S
C92 C93 1.488 . S
C92 O108 1.215 . S
C92 O109 1.289 . S
C93 C92 1.488 . S
C93 C94 1.348 . S
C93 C98 1.413 . S
C94 C93 1.348 . S
C94 C95 1.442 . S
C94 H116 0.930 . S
C95 C94 1.442 . S
C95 C96 1.381 . S
C95 H117 0.931 . S
C96 C95 1.381 . S
C96 C97 1.321 . S
C97 C96 1.321 . S
C97 C98 1.403 . S
C97 H118 0.934 . S
C98 C93 1.413 . S
C98 C97 1.403 . S
C98 H119 0.930 . S
C99 O110 1.275 . S
C99 O111 1.256 . S
O100 Ho80 2.322 . S
O100 C82 1.259 . S
O101 Ho81 2.346 . S
O101 C82 1.268 . S
O102 Ho80 2.378 . S
O102 C83 1.215 . S
O103 Ho80 2.524 . S
O103 C83 1.289 . S
O104 Ho80 2.381 . S
O104 C90 1.275 . S
O105 Ho80 2.669 . S
O105 Ho81 2.305 . S
O105 C90 1.256 . S
O106 Ho81 2.322 . S
O106 C91 1.259 . S
O107 Ho80 2.346 . S
O107 C91 1.268 . S
O108 Ho81 2.378 . S
O108 C92 1.215 . S
O109 Ho81 2.524 . S
O109 C92 1.289 . S
O110 Ho81 2.381 . S
O110 C99 1.275 . S
O111 Ho80 2.305 . S
O111 Ho81 2.669 . S
O111 C99 1.256 . S
H112 C85 0.930 . S
H113 C86 0.931 . S
H114 C88 0.934 . S
H115 C89 0.930 . S
H116 C94 0.930 . S
H117 C95 0.931 . S
H118 C97 0.934 . S
H119 C98 0.930 . S
Ho120 C123 2.811 . S
Ho120 O140 2.322 . S
Ho120 O142 2.378 . S
Ho120 O143 2.524 . S
Ho120 O144 2.381 . S
Ho120 O145 2.669 . S
Ho120 O147 2.346 1_455 S
Ho120 O151 2.305 . S
Ho121 C132 2.811 1_455 S
Ho121 O141 2.346 . S
Ho121 O145 2.305 . S
Ho121 O146 2.322 1_455 S
Ho121 O148 2.378 1_455 S
Ho121 O149 2.524 1_455 S
Ho121 O150 2.381 . S
Ho121 O151 2.669 . S
C122 O140 1.259 . S
C122 O141 1.268 . S
C123 Ho120 2.811 . S
C123 C124 1.488 . S
C123 O142 1.215 . S
C123 O143 1.289 . S
C124 C123 1.488 . S
C124 C125 1.348 . S
C124 C129 1.413 . S
C125 C124 1.348 . S
C125 C126 1.442 . S
C125 H152 0.930 . S
C126 C125 1.442 . S
C126 C127 1.381 . S
C126 H153 0.931 . S
C127 C126 1.381 . S
C127 C128 1.321 . S
C128 C127 1.321 . S
C128 C129 1.403 . S
C128 H154 0.934 . S
C129 C124 1.413 . S
C129 C128 1.403 . S
C129 H155 0.930 . S
C130 O144 1.275 . S
C130 O145 1.256 . S
C131 O146 1.259 . S
C131 O147 1.268 . S
C132 Ho121 2.811 1_655 S
C132 C133 1.488 . S
C132 O148 1.215 . S
C132 O149 1.289 . S
C133 C132 1.488 . S
C133 C134 1.348 . S
C133 C138 1.413 . S
C134 C133 1.348 . S
C134 C135 1.442 . S
C134 H156 0.930 . S
C135 C134 1.442 . S
C135 C136 1.381 . S
C135 H157 0.931 . S
C136 C135 1.381 . S
C136 C137 1.321 . S
C137 C136 1.321 . S
C137 C138 1.403 . S
C137 H158 0.934 . S
C138 C133 1.413 . S
C138 C137 1.403 . S
C138 H159 0.930 . S
C139 O150 1.275 . S
C139 O151 1.256 . S
O140 Ho120 2.322 . S
O140 C122 1.259 . S
O141 Ho121 2.346 . S
O141 C122 1.268 . S
O142 Ho120 2.378 . S
O142 C123 1.215 . S
O143 Ho120 2.524 . S
O143 C123 1.289 . S
O144 Ho120 2.381 . S
O144 C130 1.275 . S
O145 Ho120 2.669 . S
O145 Ho121 2.305 . S
O145 C130 1.256 . S
O146 Ho121 2.322 1_655 S
O146 C131 1.259 . S
O147 Ho120 2.346 1_655 S
O147 C131 1.268 . S
O148 Ho121 2.378 1_655 S
O148 C132 1.215 . S
O149 Ho121 2.524 1_655 S
O149 C132 1.289 . S
O150 Ho121 2.381 . S
O150 C139 1.275 . S
O151 Ho120 2.305 . S
O151 Ho121 2.669 . S
O151 C139 1.256 . S
H152 C125 0.930 . S
H153 C126 0.931 . S
H154 C128 0.934 . S
H155 C129 0.930 . S
H156 C134 0.930 . S
H157 C135 0.931 . S
H158 C137 0.934 . S
H159 C138 0.930 . S
Ho160 C163 2.811 . S
Ho160 O180 2.322 . S
Ho160 O182 2.378 . S
Ho160 O183 2.524 . S
Ho160 O184 2.381 . S
Ho160 O185 2.669 . S
Ho160 O187 2.346 . S
Ho160 O191 2.305 . S
Ho161 C172 2.811 . S
Ho161 O181 2.346 . S
Ho161 O185 2.305 . S
Ho161 O186 2.322 . S
Ho161 O188 2.378 . S
Ho161 O189 2.524 . S
Ho161 O190 2.381 . S
Ho161 O191 2.669 . S
C162 O180 1.259 . S
C162 O181 1.268 . S
C163 Ho160 2.811 . S
C163 C164 1.488 . S
C163 O182 1.215 . S
C163 O183 1.289 . S
C164 C163 1.488 . S
C164 C165 1.348 . S
C164 C169 1.413 . S
C165 C164 1.348 . S
C165 C166 1.442 . S
C165 H192 0.930 . S
C166 C165 1.442 . S
C166 C167 1.381 . S
C166 H193 0.931 . S
C167 C166 1.381 . S
C167 C168 1.321 . S
C168 C167 1.321 . S
C168 C169 1.403 . S
C168 H194 0.934 . S
C169 C164 1.413 . S
C169 C168 1.403 . S
C169 H195 0.930 . S
C170 O184 1.275 . S
C170 O185 1.256 . S
C171 O186 1.259 . S
C171 O187 1.268 . S
C172 Ho161 2.811 . S
C172 C173 1.488 . S
C172 O188 1.215 . S
C172 O189 1.289 . S
C173 C172 1.488 . S
C173 C174 1.348 . S
C173 C178 1.413 . S
C174 C173 1.348 . S
C174 C175 1.442 . S
C174 H196 0.930 . S
C175 C174 1.442 . S
C175 C176 1.381 . S
C175 H197 0.931 . S
C176 C175 1.381 . S
C176 C177 1.321 . S
C177 C176 1.321 . S
C177 C178 1.403 . S
C177 H198 0.934 . S
C178 C173 1.413 . S
C178 C177 1.403 . S
C178 H199 0.930 . S
C179 O190 1.275 . S
C179 O191 1.256 . S
O180 Ho160 2.322 . S
O180 C162 1.259 . S
O181 Ho161 2.346 . S
O181 C162 1.268 . S
O182 Ho160 2.378 . S
O182 C163 1.215 . S
O183 Ho160 2.524 . S
O183 C163 1.289 . S
O184 Ho160 2.381 . S
O184 C170 1.275 . S
O185 Ho160 2.669 . S
O185 Ho161 2.305 . S
O185 C170 1.256 . S
O186 Ho161 2.322 . S
O186 C171 1.259 . S
O187 Ho160 2.346 . S
O187 C171 1.268 . S
O188 Ho161 2.378 . S
O188 C172 1.215 . S
O189 Ho161 2.524 . S
O189 C172 1.289 . S
O190 Ho161 2.381 . S
O190 C179 1.275 . S
O191 Ho160 2.305 . S
O191 Ho161 2.669 . S
O191 C179 1.256 . S
H192 C165 0.930 . S
H193 C166 0.931 . S
H194 C168 0.934 . S
H195 C169 0.930 . S
H196 C174 0.930 . S
H197 C175 0.931 . S
H198 C177 0.934 . S
H199 C178 0.930 . S
Ho200 C203 2.811 . S
Ho200 O220 2.322 . S
Ho200 O222 2.378 . S
Ho200 O223 2.524 . S
Ho200 O224 2.381 1_565 S
Ho200 O225 2.669 1_565 S
Ho200 O227 2.346 1_565 S
Ho200 O231 2.305 1_565 S
Ho201 C212 2.811 . S
Ho201 O221 2.346 1_545 S
Ho201 O225 2.305 . S
Ho201 O226 2.322 . S
Ho201 O228 2.378 . S
Ho201 O229 2.524 . S
Ho201 O230 2.381 . S
Ho201 O231 2.669 . S
C202 O220 1.259 . S
C202 O221 1.268 . S
C203 Ho200 2.811 . S
C203 C204 1.488 . S
C203 O222 1.215 . S
C203 O223 1.289 . S
C204 C203 1.488 . S
C204 C205 1.348 . S
C204 C209 1.413 . S
C205 C204 1.348 . S
C205 C206 1.442 . S
C205 H232 0.930 . S
C206 C205 1.442 . S
C206 C207 1.381 . S
C206 H233 0.931 . S
C207 C206 1.381 . S
C207 C208 1.321 . S
C208 C207 1.321 . S
C208 C209 1.403 . S
C208 H234 0.934 . S
C209 C204 1.413 . S
C209 C208 1.403 . S
C209 H235 0.930 . S
C210 O224 1.275 . S
C210 O225 1.256 . S
C211 O226 1.259 . S
C211 O227 1.268 . S
C212 Ho201 2.811 . S
C212 C213 1.488 . S
C212 O228 1.215 . S
C212 O229 1.289 . S
C213 C212 1.488 . S
C213 C214 1.348 . S
C213 C218 1.413 . S
C214 C213 1.348 . S
C214 C215 1.442 . S
C214 H236 0.930 . S
C215 C214 1.442 . S
C215 C216 1.381 . S
C215 H237 0.931 . S
C216 C215 1.381 . S
C216 C217 1.321 . S
C217 C216 1.321 . S
C217 C218 1.403 . S
C217 H238 0.934 . S
C218 C213 1.413 . S
C218 C217 1.403 . S
C218 H239 0.930 . S
C219 O230 1.275 . S
C219 O231 1.256 . S
O220 Ho200 2.322 . S
O220 C202 1.259 . S
O221 Ho201 2.346 1_565 S
O221 C202 1.268 . S
O222 Ho200 2.378 . S
O222 C203 1.215 . S
O223 Ho200 2.524 . S
O223 C203 1.289 . S
O224 Ho200 2.381 1_545 S
O224 C210 1.275 . S
O225 Ho200 2.669 1_545 S
O225 Ho201 2.305 . S
O225 C210 1.256 . S
O226 Ho201 2.322 . S
O226 C211 1.259 . S
O227 Ho200 2.346 1_545 S
O227 C211 1.268 . S
O228 Ho201 2.378 . S
O228 C212 1.215 . S
O229 Ho201 2.524 . S
O229 C212 1.289 . S
O230 Ho201 2.381 . S
O230 C219 1.275 . S
O231 Ho200 2.305 1_545 S
O231 Ho201 2.669 . S
O231 C219 1.256 . S
H232 C205 0.930 . S
H233 C206 0.931 . S
H234 C208 0.934 . S
H235 C209 0.930 . S
H236 C214 0.930 . S
H237 C215 0.931 . S
H238 C217 0.934 . S
H239 C218 0.930 . S
Ho240 C243 2.811 . S
Ho240 O260 2.322 . S
Ho240 O262 2.378 . S
Ho240 O263 2.524 . S
Ho240 O264 2.381 . S
Ho240 O265 2.669 . S
Ho240 O267 2.346 1_545 S
Ho240 O271 2.305 . S
Ho241 C252 2.811 . S
Ho241 O261 2.346 1_565 S
Ho241 O265 2.305 1_565 S
Ho241 O266 2.322 . S
Ho241 O268 2.378 . S
Ho241 O269 2.524 . S
Ho241 O270 2.381 1_565 S
Ho241 O271 2.669 1_565 S
C242 O260 1.259 . S
C242 O261 1.268 . S
C243 Ho240 2.811 . S
C243 C244 1.488 . S
C243 O262 1.215 . S
C243 O263 1.289 . S
C244 C243 1.488 . S
C244 C245 1.348 . S
C244 C249 1.413 . S
C245 C244 1.348 . S
C245 C246 1.442 . S
C245 H272 0.930 . S
C246 C245 1.442 . S
C246 C247 1.381 . S
C246 H273 0.931 . S
C247 C246 1.381 . S
C247 C248 1.321 . S
C248 C247 1.321 . S
C248 C249 1.403 . S
C248 H274 0.934 . S
C249 C244 1.413 . S
C249 C248 1.403 . S
C249 H275 0.930 . S
C250 O264 1.275 . S
C250 O265 1.256 . S
C251 O266 1.259 . S
C251 O267 1.268 . S
C252 Ho241 2.811 . S
C252 C253 1.488 . S
C252 O268 1.215 . S
C252 O269 1.289 . S
C253 C252 1.488 . S
C253 C254 1.348 . S
C253 C258 1.413 . S
C254 C253 1.348 . S
C254 C255 1.442 . S
C254 H276 0.930 . S
C255 C254 1.442 . S
C255 C256 1.381 . S
C255 H277 0.931 . S
C256 C255 1.381 . S
C256 C257 1.321 . S
C257 C256 1.321 . S
C257 C258 1.403 . S
C257 H278 0.934 . S
C258 C253 1.413 . S
C258 C257 1.403 . S
C258 H279 0.930 . S
C259 O270 1.275 . S
C259 O271 1.256 . S
O260 Ho240 2.322 . S
O260 C242 1.259 . S
O261 Ho241 2.346 1_545 S
O261 C242 1.268 . S
O262 Ho240 2.378 . S
O262 C243 1.215 . S
O263 Ho240 2.524 . S
O263 C243 1.289 . S
O264 Ho240 2.381 . S
O264 C250 1.275 . S
O265 Ho240 2.669 . S
O265 Ho241 2.305 1_545 S
O265 C250 1.256 . S
O266 Ho241 2.322 . S
O266 C251 1.259 . S
O267 Ho240 2.346 1_565 S
O267 C251 1.268 . S
O268 Ho241 2.378 . S
O268 C252 1.215 . S
O269 Ho241 2.524 . S
O269 C252 1.289 . S
O270 Ho241 2.381 1_545 S
O270 C259 1.275 . S
O271 Ho240 2.305 . S
O271 Ho241 2.669 1_545 S
O271 C259 1.256 . S
H272 C245 0.930 . S
H273 C246 0.931 . S
H274 C248 0.934 . S
H275 C249 0.930 . S
H276 C254 0.930 . S
H277 C255 0.931 . S
H278 C257 0.934 . S
H279 C258 0.930 . S
Ho280 C283 2.811 1_455 S
Ho280 O300 2.322 1_455 S
Ho280 O302 2.378 1_455 S
Ho280 O303 2.524 1_455 S
Ho280 O304 2.381 . S
Ho280 O305 2.669 . S
Ho280 O307 2.346 . S
Ho280 O311 2.305 . S
Ho281 C292 2.811 . S
Ho281 O301 2.346 1_455 S
Ho281 O305 2.305 . S
Ho281 O306 2.322 . S
Ho281 O308 2.378 . S
Ho281 O309 2.524 . S
Ho281 O310 2.381 . S
Ho281 O311 2.669 . S
C282 O300 1.259 . S
C282 O301 1.268 . S
C283 Ho280 2.811 1_655 S
C283 C284 1.488 . S
C283 O302 1.215 . S
C283 O303 1.289 . S
C284 C283 1.488 . S
C284 C285 1.348 . S
C284 C289 1.413 . S
C285 C284 1.348 . S
C285 C286 1.442 . S
C285 H312 0.930 . S
C286 C285 1.442 . S
C286 C287 1.381 . S
C286 H313 0.931 . S
C287 C286 1.381 . S
C287 C288 1.321 . S
C288 C287 1.321 . S
C288 C289 1.403 . S
C288 H314 0.934 . S
C289 C284 1.413 . S
C289 C288 1.403 . S
C289 H315 0.930 . S
C290 O304 1.275 . S
C290 O305 1.256 . S
C291 O306 1.259 . S
C291 O307 1.268 . S
C292 Ho281 2.811 . S
C292 C293 1.488 . S
C292 O308 1.215 . S
C292 O309 1.289 . S
C293 C292 1.488 . S
C293 C294 1.348 . S
C293 C298 1.413 . S
C294 C293 1.348 . S
C294 C295 1.442 . S
C294 H316 0.930 . S
C295 C294 1.442 . S
C295 C296 1.381 . S
C295 H317 0.931 . S
C296 C295 1.381 . S
C296 C297 1.321 . S
C297 C296 1.321 . S
C297 C298 1.403 . S
C297 H318 0.934 . S
C298 C293 1.413 . S
C298 C297 1.403 . S
C298 H319 0.930 . S
C299 O310 1.275 . S
C299 O311 1.256 . S
O300 Ho280 2.322 1_655 S
O300 C282 1.259 . S
O301 Ho281 2.346 1_655 S
O301 C282 1.268 . S
O302 Ho280 2.378 1_655 S
O302 C283 1.215 . S
O303 Ho280 2.524 1_655 S
O303 C283 1.289 . S
O304 Ho280 2.381 . S
O304 C290 1.275 . S
O305 Ho280 2.669 . S
O305 Ho281 2.305 . S
O305 C290 1.256 . S
O306 Ho281 2.322 . S
O306 C291 1.259 . S
O307 Ho280 2.346 . S
O307 C291 1.268 . S
O308 Ho281 2.378 . S
O308 C292 1.215 . S
O309 Ho281 2.524 . S
O309 C292 1.289 . S
O310 Ho281 2.381 . S
O310 C299 1.275 . S
O311 Ho280 2.305 . S
O311 Ho281 2.669 . S
O311 C299 1.256 . S
H312 C285 0.930 . S
H313 C286 0.931 . S
H314 C288 0.934 . S
H315 C289 0.930 . S
H316 C294 0.930 . S
H317 C295 0.931 . S
H318 C297 0.934 . S
H319 C298 0.930 . S
Ho320 C323 2.811 . S
Ho320 O340 2.322 . S
Ho320 O342 2.378 . S
Ho320 O343 2.524 . S
Ho320 O344 2.381 . S
Ho320 O345 2.669 . S
Ho320 O347 2.346 . S
Ho320 O351 2.305 . S
Ho321 C332 2.811 . S
Ho321 O341 2.346 . S
Ho321 O345 2.305 . S
Ho321 O346 2.322 . S
Ho321 O348 2.378 . S
Ho321 O349 2.524 . S
Ho321 O350 2.381 . S
Ho321 O351 2.669 . S
C322 O340 1.259 . S
C322 O341 1.268 . S
C323 Ho320 2.811 . S
C323 C324 1.488 . S
C323 O342 1.215 . S
C323 O343 1.289 . S
C324 C323 1.488 . S
C324 C325 1.348 . S
C324 C329 1.413 . S
C325 C324 1.348 . S
C325 C326 1.442 . S
C325 H352 0.930 . S
C326 C325 1.442 . S
C326 C327 1.381 . S
C326 H353 0.931 . S
C327 C326 1.381 . S
C327 C328 1.321 . S
C328 C327 1.321 . S
C328 C329 1.403 . S
C328 H354 0.934 . S
C329 C324 1.413 . S
C329 C328 1.403 . S
C329 H355 0.930 . S
C330 O344 1.275 . S
C330 O345 1.256 . S
C331 O346 1.259 . S
C331 O347 1.268 . S
C332 Ho321 2.811 . S
C332 C333 1.488 . S
C332 O348 1.215 . S
C332 O349 1.289 . S
C333 C332 1.488 . S
C333 C334 1.348 . S
C333 C338 1.413 . S
C334 C333 1.348 . S
C334 C335 1.442 . S
C334 H356 0.930 . S
C335 C334 1.442 . S
C335 C336 1.381 . S
C335 H357 0.931 . S
C336 C335 1.381 . S
C336 C337 1.321 . S
C337 C336 1.321 . S
C337 C338 1.403 . S
C337 H358 0.934 . S
C338 C333 1.413 . S
C338 C337 1.403 . S
C338 H359 0.930 . S
C339 O350 1.275 . S
C339 O351 1.256 . S
O340 Ho320 2.322 . S
O340 C322 1.259 . S
O341 Ho321 2.346 . S
O341 C322 1.268 . S
O342 Ho320 2.378 . S
O342 C323 1.215 . S
O343 Ho320 2.524 . S
O343 C323 1.289 . S
O344 Ho320 2.381 . S
O344 C330 1.275 . S
O345 Ho320 2.669 . S
O345 Ho321 2.305 . S
O345 C330 1.256 . S
O346 Ho321 2.322 . S
O346 C331 1.259 . S
O347 Ho320 2.346 . S
O347 C331 1.268 . S
O348 Ho321 2.378 . S
O348 C332 1.215 . S
O349 Ho321 2.524 . S
O349 C332 1.289 . S
O350 Ho321 2.381 . S
O350 C339 1.275 . S
O351 Ho320 2.305 . S
O351 Ho321 2.669 . S
O351 C339 1.256 . S
H352 C325 0.930 . S
H353 C326 0.931 . S
H354 C328 0.934 . S
H355 C329 0.930 . S
H356 C334 0.930 . S
H357 C335 0.931 . S
H358 C337 0.934 . S
H359 C338 0.930 . S
Ho360 C363 2.811 . S
Ho360 O380 2.322 . S
Ho360 O382 2.378 . S
Ho360 O383 2.524 . S
Ho360 O384 2.381 . S
Ho360 O385 2.669 . S
Ho360 O387 2.346 1_455 S
Ho360 O391 2.305 . S
Ho361 C372 2.811 . S
Ho361 O381 2.346 1_655 S
Ho361 O385 2.305 1_655 S
Ho361 O386 2.322 . S
Ho361 O388 2.378 . S
Ho361 O389 2.524 . S
Ho361 O390 2.381 1_655 S
Ho361 O391 2.669 1_655 S
C362 O380 1.259 . S
C362 O381 1.268 . S
C363 Ho360 2.811 . S
C363 C364 1.488 . S
C363 O382 1.215 . S
C363 O383 1.289 . S
C364 C363 1.488 . S
C364 C365 1.348 . S
C364 C369 1.413 . S
C365 C364 1.348 . S
C365 C366 1.442 . S
C365 H392 0.930 . S
C366 C365 1.442 . S
C366 C367 1.381 . S
C366 H393 0.931 . S
C367 C366 1.381 . S
C367 C368 1.321 . S
C368 C367 1.321 . S
C368 C369 1.403 . S
C368 H394 0.934 . S
C369 C364 1.413 . S
C369 C368 1.403 . S
C369 H395 0.930 . S
C370 O384 1.275 . S
C370 O385 1.256 . S
C371 O386 1.259 . S
C371 O387 1.268 . S
C372 Ho361 2.811 . S
C372 C373 1.488 . S
C372 O388 1.215 . S
C372 O389 1.289 . S
C373 C372 1.488 . S
C373 C374 1.348 . S
C373 C378 1.413 . S
C374 C373 1.348 . S
C374 C375 1.442 . S
C374 H396 0.930 . S
C375 C374 1.442 . S
C375 C376 1.381 . S
C375 H397 0.931 . S
C376 C375 1.381 . S
C376 C377 1.321 . S
C377 C376 1.321 . S
C377 C378 1.403 . S
C377 H398 0.934 . S
C378 C373 1.413 . S
C378 C377 1.403 . S
C378 H399 0.930 . S
C379 O390 1.275 . S
C379 O391 1.256 . S
O380 Ho360 2.322 . S
O380 C362 1.259 . S
O381 Ho361 2.346 1_455 S
O381 C362 1.268 . S
O382 Ho360 2.378 . S
O382 C363 1.215 . S
O383 Ho360 2.524 . S
O383 C363 1.289 . S
O384 Ho360 2.381 . S
O384 C370 1.275 . S
O385 Ho360 2.669 . S
O385 Ho361 2.305 1_455 S
O385 C370 1.256 . S
O386 Ho361 2.322 . S
O386 C371 1.259 . S
O387 Ho360 2.346 1_655 S
O387 C371 1.268 . S
O388 Ho361 2.378 . S
O388 C372 1.215 . S
O389 Ho361 2.524 . S
O389 C372 1.289 . S
O390 Ho361 2.381 1_455 S
O390 C379 1.275 . S
O391 Ho360 2.305 . S
O391 Ho361 2.669 1_455 S
O391 C379 1.256 . S
H392 C365 0.930 . S
H393 C366 0.931 . S
H394 C368 0.934 . S
H395 C369 0.930 . S
H396 C374 0.930 . S
H397 C375 0.931 . S
H398 C377 0.934 . S
H399 C378 0.930 . S
Ho400 C403 2.811 . S
Ho400 O420 2.322 . S
Ho400 O422 2.378 . S
Ho400 O423 2.524 . S
Ho400 O424 2.381 . S
Ho400 O425 2.669 . S
Ho400 O427 2.346 . S
Ho400 O431 2.305 . S
Ho401 C412 2.811 . S
Ho401 O421 2.346 . S
Ho401 O425 2.305 . S
Ho401 O426 2.322 . S
Ho401 O428 2.378 . S
Ho401 O429 2.524 . S
Ho401 O430 2.381 . S
Ho401 O431 2.669 . S
C402 O420 1.259 . S
C402 O421 1.268 . S
C403 Ho400 2.811 . S
C403 C404 1.488 . S
C403 O422 1.215 . S
C403 O423 1.289 . S
C404 C403 1.488 . S
C404 C405 1.348 . S
C404 C409 1.413 . S
C405 C404 1.348 . S
C405 C406 1.442 . S
C405 H432 0.930 . S
C406 C405 1.442 . S
C406 C407 1.381 . S
C406 H433 0.931 . S
C407 C406 1.381 . S
C407 C408 1.321 . S
C408 C407 1.321 . S
C408 C409 1.403 . S
C408 H434 0.934 . S
C409 C404 1.413 . S
C409 C408 1.403 . S
C409 H435 0.930 . S
C410 O424 1.275 . S
C410 O425 1.256 . S
C411 O426 1.259 . S
C411 O427 1.268 . S
C412 Ho401 2.811 . S
C412 C413 1.488 . S
C412 O428 1.215 . S
C412 O429 1.289 . S
C413 C412 1.488 . S
C413 C414 1.348 . S
C413 C418 1.413 . S
C414 C413 1.348 . S
C414 C415 1.442 . S
C414 H436 0.930 . S
C415 C414 1.442 . S
C415 C416 1.381 . S
C415 H437 0.931 . S
C416 C415 1.381 . S
C416 C417 1.321 . S
C417 C416 1.321 . S
C417 C418 1.403 . S
C417 H438 0.934 . S
C418 C413 1.413 . S
C418 C417 1.403 . S
C418 H439 0.930 . S
C419 O430 1.275 . S
C419 O431 1.256 . S
O420 Ho400 2.322 . S
O420 C402 1.259 . S
O421 Ho401 2.346 . S
O421 C402 1.268 . S
O422 Ho400 2.378 . S
O422 C403 1.215 . S
O423 Ho400 2.524 . S
O423 C403 1.289 . S
O424 Ho400 2.381 . S
O424 C410 1.275 . S
O425 Ho400 2.669 . S
O425 Ho401 2.305 . S
O425 C410 1.256 . S
O426 Ho401 2.322 . S
O426 C411 1.259 . S
O427 Ho400 2.346 . S
O427 C411 1.268 . S
O428 Ho401 2.378 . S
O428 C412 1.215 . S
O429 Ho401 2.524 . S
O429 C412 1.289 . S
O430 Ho401 2.381 . S
O430 C419 1.275 . S
O431 Ho400 2.305 . S
O431 Ho401 2.669 . S
O431 C419 1.256 . S
H432 C405 0.930 . S
H433 C406 0.931 . S
H434 C408 0.934 . S
H435 C409 0.930 . S
H436 C414 0.930 . S
H437 C415 0.931 . S
H438 C417 0.934 . S
H439 C418 0.930 . S
Ho440 C443 2.811 1_545 S
Ho440 O460 2.322 1_545 S
Ho440 O462 2.378 1_545 S
Ho440 O463 2.524 1_545 S
Ho440 O464 2.381 . S
Ho440 O465 2.669 . S
Ho440 O467 2.346 . S
Ho440 O471 2.305 . S
Ho441 C452 2.811 . S
Ho441 O461 2.346 1_545 S
Ho441 O465 2.305 . S
Ho441 O466 2.322 . S
Ho441 O468 2.378 . S
Ho441 O469 2.524 . S
Ho441 O470 2.381 . S
Ho441 O471 2.669 . S
C442 O460 1.259 . S
C442 O461 1.268 . S
C443 Ho440 2.811 1_565 S
C443 C444 1.488 . S
C443 O462 1.215 . S
C443 O463 1.289 . S
C444 C443 1.488 . S
C444 C445 1.348 . S
C444 C449 1.413 . S
C445 C444 1.348 . S
C445 C446 1.442 . S
C445 H472 0.930 . S
C446 C445 1.442 . S
C446 C447 1.381 . S
C446 H473 0.931 . S
C447 C446 1.381 . S
C447 C448 1.321 . S
C448 C447 1.321 . S
C448 C449 1.403 . S
C448 H474 0.934 . S
C449 C444 1.413 . S
C449 C448 1.403 . S
C449 H475 0.930 . S
C450 O464 1.275 . S
C450 O465 1.256 . S
C451 O466 1.259 . S
C451 O467 1.268 . S
C452 Ho441 2.811 . S
C452 C453 1.488 . S
C452 O468 1.215 . S
C452 O469 1.289 . S
C453 C452 1.488 . S
C453 C454 1.348 . S
C453 C458 1.413 . S
C454 C453 1.348 . S
C454 C455 1.442 . S
C454 H476 0.930 . S
C455 C454 1.442 . S
C455 C456 1.381 . S
C455 H477 0.931 . S
C456 C455 1.381 . S
C456 C457 1.321 . S
C457 C456 1.321 . S
C457 C458 1.403 . S
C457 H478 0.934 . S
C458 C453 1.413 . S
C458 C457 1.403 . S
C458 H479 0.930 . S
C459 O470 1.275 . S
C459 O471 1.256 . S
O460 Ho440 2.322 1_565 S
O460 C442 1.259 . S
O461 Ho441 2.346 1_565 S
O461 C442 1.268 . S
O462 Ho440 2.378 1_565 S
O462 C443 1.215 . S
O463 Ho440 2.524 1_565 S
O463 C443 1.289 . S
O464 Ho440 2.381 . S
O464 C450 1.275 . S
O465 Ho440 2.669 . S
O465 Ho441 2.305 . S
O465 C450 1.256 . S
O466 Ho441 2.322 . S
O466 C451 1.259 . S
O467 Ho440 2.346 . S
O467 C451 1.268 . S
O468 Ho441 2.378 . S
O468 C452 1.215 . S
O469 Ho441 2.524 . S
O469 C452 1.289 . S
O470 Ho441 2.381 . S
O470 C459 1.275 . S
O471 Ho440 2.305 . S
O471 Ho441 2.669 . S
O471 C459 1.256 . S
H472 C445 0.930 . S
H473 C446 0.931 . S
H474 C448 0.934 . S
H475 C449 0.930 . S
H476 C454 0.930 . S
H477 C455 0.931 . S
H478 C457 0.934 . S
H479 C458 0.930 . S
Ho480 C483 2.811 . S
Ho480 O500 2.322 . S
Ho480 O502 2.378 . S
Ho480 O503 2.524 . S
Ho480 O504 2.381 . S
Ho480 O505 2.669 . S
Ho480 O507 2.346 . S
Ho480 O511 2.305 . S
Ho481 C492 2.811 . S
Ho481 O501 2.346 . S
Ho481 O505 2.305 . S
Ho481 O506 2.322 . S
Ho481 O508 2.378 . S
Ho481 O509 2.524 . S
Ho481 O510 2.381 . S
Ho481 O511 2.669 . S
C482 O500 1.259 . S
C482 O501 1.268 . S
C483 Ho480 2.811 . S
C483 C484 1.488 . S
C483 O502 1.215 . S
C483 O503 1.289 . S
C484 C483 1.488 . S
C484 C485 1.348 . S
C484 C489 1.413 . S
C485 C484 1.348 . S
C485 C486 1.442 . S
C485 H512 0.930 . S
C486 C485 1.442 . S
C486 C487 1.381 . S
C486 H513 0.931 . S
C487 C486 1.381 . S
C487 C488 1.321 . S
C488 C487 1.321 . S
C488 C489 1.403 . S
C488 H514 0.934 . S
C489 C484 1.413 . S
C489 C488 1.403 . S
C489 H515 0.930 . S
C490 O504 1.275 . S
C490 O505 1.256 . S
C491 O506 1.259 . S
C491 O507 1.268 . S
C492 Ho481 2.811 . S
C492 C493 1.488 . S
C492 O508 1.215 . S
C492 O509 1.289 . S
C493 C492 1.488 . S
C493 C494 1.348 . S
C493 C498 1.413 . S
C494 C493 1.348 . S
C494 C495 1.442 . S
C494 H516 0.930 . S
C495 C494 1.442 . S
C495 C496 1.381 . S
C495 H517 0.931 . S
C496 C495 1.381 . S
C496 C497 1.321 . S
C497 C496 1.321 . S
C497 C498 1.403 . S
C497 H518 0.934 . S
C498 C493 1.413 . S
C498 C497 1.403 . S
C498 H519 0.930 . S
C499 O510 1.275 . S
C499 O511 1.256 . S
O500 Ho480 2.322 . S
O500 C482 1.259 . S
O501 Ho481 2.346 . S
O501 C482 1.268 . S
O502 Ho480 2.378 . S
O502 C483 1.215 . S
O503 Ho480 2.524 . S
O503 C483 1.289 . S
O504 Ho480 2.381 . S
O504 C490 1.275 . S
O505 Ho480 2.669 . S
O505 Ho481 2.305 . S
O505 C490 1.256 . S
O506 Ho481 2.322 . S
O506 C491 1.259 . S
O507 Ho480 2.346 . S
O507 C491 1.268 . S
O508 Ho481 2.378 . S
O508 C492 1.215 . S
O509 Ho481 2.524 . S
O509 C492 1.289 . S
O510 Ho481 2.381 . S
O510 C499 1.275 . S
O511 Ho480 2.305 . S
O511 Ho481 2.669 . S
O511 C499 1.256 . S
H512 C485 0.930 . S
H513 C486 0.931 . S
H514 C488 0.934 . S
H515 C489 0.930 . S
H516 C494 0.930 . S
H517 C495 0.931 . S
H518 C497 0.934 . S
H519 C498 0.930 . S
Ho520 C523 2.811 . S
Ho520 O540 2.322 . S
Ho520 O542 2.378 . S
Ho520 O543 2.524 . S
Ho520 O544 2.381 . S
Ho520 O545 2.669 . S
Ho520 O547 2.346 . S
Ho520 O551 2.305 . S
Ho521 C532 2.811 . S
Ho521 O541 2.346 . S
Ho521 O545 2.305 . S
Ho521 O546 2.322 . S
Ho521 O548 2.378 . S
Ho521 O549 2.524 . S
Ho521 O550 2.381 . S
Ho521 O551 2.669 . S
C522 O540 1.259 . S
C522 O541 1.268 . S
C523 Ho520 2.811 . S
C523 C524 1.488 . S
C523 O542 1.215 . S
C523 O543 1.289 . S
C524 C523 1.488 . S
C524 C525 1.348 . S
C524 C529 1.413 . S
C525 C524 1.348 . S
C525 C526 1.442 . S
C525 H552 0.930 . S
C526 C525 1.442 . S
C526 C527 1.381 . S
C526 H553 0.931 . S
C527 C526 1.381 . S
C527 C528 1.321 . S
C528 C527 1.321 . S
C528 C529 1.403 . S
C528 H554 0.934 . S
C529 C524 1.413 . S
C529 C528 1.403 . S
C529 H555 0.930 . S
C530 O544 1.275 . S
C530 O545 1.256 . S
C531 O546 1.259 . S
C531 O547 1.268 . S
C532 Ho521 2.811 . S
C532 C533 1.488 . S
C532 O548 1.215 . S
C532 O549 1.289 . S
C533 C532 1.488 . S
C533 C534 1.348 . S
C533 C538 1.413 1_565 S
C534 C533 1.348 . S
C534 C535 1.442 1_565 S
C534 H556 0.930 . S
C535 C534 1.442 1_545 S
C535 C536 1.381 . S
C535 H557 0.931 . S
C536 C535 1.381 . S
C536 C537 1.321 . S
C537 C536 1.321 . S
C537 C538 1.403 . S
C537 H558 0.934 . S
C538 C533 1.413 1_545 S
C538 C537 1.403 . S
C538 H559 0.930 1_545 S
C539 O550 1.275 . S
C539 O551 1.256 . S
O540 Ho520 2.322 . S
O540 C522 1.259 . S
O541 Ho521 2.346 . S
O541 C522 1.268 . S
O542 Ho520 2.378 . S
O542 C523 1.215 . S
O543 Ho520 2.524 . S
O543 C523 1.289 . S
O544 Ho520 2.381 . S
O544 C530 1.275 . S
O545 Ho520 2.669 . S
O545 Ho521 2.305 . S
O545 C530 1.256 . S
O546 Ho521 2.322 . S
O546 C531 1.259 . S
O547 Ho520 2.346 . S
O547 C531 1.268 . S
O548 Ho521 2.378 . S
O548 C532 1.215 . S
O549 Ho521 2.524 . S
O549 C532 1.289 . S
O550 Ho521 2.381 . S
O550 C539 1.275 . S
O551 Ho520 2.305 . S
O551 Ho521 2.669 . S
O551 C539 1.256 . S
H552 C525 0.930 . S
H553 C526 0.931 . S
H554 C528 0.934 . S
H555 C529 0.930 . S
H556 C534 0.930 . S
H557 C535 0.931 . S
H558 C537 0.934 . S
H559 C538 0.930 1_565 S
Ho560 C563 2.811 . S
Ho560 O580 2.322 . S
Ho560 O582 2.378 . S
Ho560 O583 2.524 . S
Ho560 O584 2.381 . S
Ho560 O585 2.669 . S
Ho560 O587 2.346 . S
Ho560 O591 2.305 . S
Ho561 C572 2.811 . S
Ho561 O581 2.346 . S
Ho561 O585 2.305 . S
Ho561 O586 2.322 . S
Ho561 O588 2.378 . S
Ho561 O589 2.524 . S
Ho561 O590 2.381 . S
Ho561 O591 2.669 . S
C562 O580 1.259 . S
C562 O581 1.268 . S
C563 Ho560 2.811 . S
C563 C564 1.488 . S
C563 O582 1.215 . S
C563 O583 1.289 . S
C564 C563 1.488 . S
C564 C565 1.348 . S
C564 C569 1.413 . S
C565 C564 1.348 . S
C565 C566 1.442 . S
C565 H592 0.930 . S
C566 C565 1.442 . S
C566 C567 1.381 . S
C566 H593 0.931 . S
C567 C566 1.381 . S
C567 C568 1.321 . S
C568 C567 1.321 . S
C568 C569 1.403 . S
C568 H594 0.934 . S
C569 C564 1.413 . S
C569 C568 1.403 . S
C569 H595 0.930 . S
C570 O584 1.275 . S
C570 O585 1.256 . S
C571 O586 1.259 . S
C571 O587 1.268 . S
C572 Ho561 2.811 . S
C572 C573 1.488 . S
C572 O588 1.215 . S
C572 O589 1.289 . S
C573 C572 1.488 . S
C573 C574 1.348 . S
C573 C578 1.413 . S
C574 C573 1.348 . S
C574 C575 1.442 . S
C574 H596 0.930 . S
C575 C574 1.442 . S
C575 C576 1.381 . S
C575 H597 0.931 . S
C576 C575 1.381 . S
C576 C577 1.321 . S
C577 C576 1.321 . S
C577 C578 1.403 . S
C577 H598 0.934 . S
C578 C573 1.413 . S
C578 C577 1.403 . S
C578 H599 0.930 . S
C579 O590 1.275 . S
C579 O591 1.256 . S
O580 Ho560 2.322 . S
O580 C562 1.259 . S
O581 Ho561 2.346 . S
O581 C562 1.268 . S
O582 Ho560 2.378 . S
O582 C563 1.215 . S
O583 Ho560 2.524 . S
O583 C563 1.289 . S
O584 Ho560 2.381 . S
O584 C570 1.275 . S
O585 Ho560 2.669 . S
O585 Ho561 2.305 . S
O585 C570 1.256 . S
O586 Ho561 2.322 . S
O586 C571 1.259 . S
O587 Ho560 2.346 . S
O587 C571 1.268 . S
O588 Ho561 2.378 . S
O588 C572 1.215 . S
O589 Ho561 2.524 . S
O589 C572 1.289 . S
O590 Ho561 2.381 . S
O590 C579 1.275 . S
O591 Ho560 2.305 . S
O591 Ho561 2.669 . S
O591 C579 1.256 . S
H592 C565 0.930 . S
H593 C566 0.931 . S
H594 C568 0.934 . S
H595 C569 0.930 . S
H596 C574 0.930 . S
H597 C575 0.931 . S
H598 C577 0.934 . S
H599 C578 0.930 . S
Ho600 C603 2.811 . S
Ho600 O620 2.322 . S
Ho600 O622 2.378 . S
Ho600 O623 2.524 . S
Ho600 O624 2.381 . S
Ho600 O625 2.669 . S
Ho600 O627 2.346 . S
Ho600 O631 2.305 . S
Ho601 C612 2.811 . S
Ho601 O621 2.346 . S
Ho601 O625 2.305 . S
Ho601 O626 2.322 . S
Ho601 O628 2.378 . S
Ho601 O629 2.524 . S
Ho601 O630 2.381 . S
Ho601 O631 2.669 . S
C602 O620 1.259 . S
C602 O621 1.268 . S
C603 Ho600 2.811 . S
C603 C604 1.488 . S
C603 O622 1.215 . S
C603 O623 1.289 . S
C604 C603 1.488 . S
C604 C605 1.348 . S
C604 C609 1.413 . S
C605 C604 1.348 . S
C605 C606 1.442 . S
C605 H632 0.930 . S
C606 C605 1.442 . S
C606 C607 1.381 . S
C606 H633 0.931 . S
C607 C606 1.381 . S
C607 C608 1.321 . S
C608 C607 1.321 . S
C608 C609 1.403 . S
C608 H634 0.934 . S
C609 C604 1.413 . S
C609 C608 1.403 . S
C609 H635 0.930 . S
C610 O624 1.275 . S
C610 O625 1.256 . S
C611 O626 1.259 . S
C611 O627 1.268 . S
C612 Ho601 2.811 . S
C612 C613 1.488 . S
C612 O628 1.215 . S
C612 O629 1.289 . S
C613 C612 1.488 . S
C613 C614 1.348 . S
C613 C618 1.413 . S
C614 C613 1.348 . S
C614 C615 1.442 . S
C614 H636 0.930 . S
C615 C614 1.442 . S
C615 C616 1.381 . S
C615 H637 0.931 . S
C616 C615 1.381 . S
C616 C617 1.321 . S
C617 C616 1.321 . S
C617 C618 1.403 . S
C617 H638 0.934 . S
C618 C613 1.413 . S
C618 C617 1.403 . S
C618 H639 0.930 . S
C619 O630 1.275 . S
C619 O631 1.256 . S
O620 Ho600 2.322 . S
O620 C602 1.259 . S
O621 Ho601 2.346 . S
O621 C602 1.268 . S
O622 Ho600 2.378 . S
O622 C603 1.215 . S
O623 Ho600 2.524 . S
O623 C603 1.289 . S
O624 Ho600 2.381 . S
O624 C610 1.275 . S
O625 Ho600 2.669 . S
O625 Ho601 2.305 . S
O625 C610 1.256 . S
O626 Ho601 2.322 . S
O626 C611 1.259 . S
O627 Ho600 2.346 . S
O627 C611 1.268 . S
O628 Ho601 2.378 . S
O628 C612 1.215 . S
O629 Ho601 2.524 . S
O629 C612 1.289 . S
O630 Ho601 2.381 . S
O630 C619 1.275 . S
O631 Ho600 2.305 . S
O631 Ho601 2.669 . S
O631 C619 1.256 . S
H632 C605 0.930 . S
H633 C606 0.931 . S
H634 C608 0.934 . S
H635 C609 0.930 . S
H636 C614 0.930 . S
H637 C615 0.931 . S
H638 C617 0.934 . S
H639 C618 0.930 . S
Ho640 C643 2.811 1_565 S
Ho640 O660 2.322 . S
Ho640 O662 2.378 . S
Ho640 O663 2.524 . S
Ho640 O664 2.381 . S
Ho640 O665 2.669 . S
Ho640 O667 2.346 . S
Ho640 O671 2.305 . S
Ho641 C652 2.811 . S
Ho641 O661 2.346 . S
Ho641 O665 2.305 . S
Ho641 O666 2.322 . S
Ho641 O668 2.378 . S
Ho641 O669 2.524 . S
Ho641 O670 2.381 . S
Ho641 O671 2.669 . S
C642 O660 1.259 . S
C642 O661 1.268 . S
C643 Ho640 2.811 1_545 S
C643 C644 1.488 . S
C643 O662 1.215 1_545 S
C643 O663 1.289 1_545 S
C644 C643 1.488 . S
C644 C645 1.348 . S
C644 C649 1.413 . S
C645 C644 1.348 . S
C645 C646 1.442 . S
C645 H672 0.930 . S
C646 C645 1.442 . S
C646 C647 1.381 . S
C646 H673 0.931 . S
C647 C646 1.381 . S
C647 C648 1.321 . S
C648 C647 1.321 . S
C648 C649 1.403 . S
C648 H674 0.934 . S
C649 C644 1.413 . S
C649 C648 1.403 . S
C649 H675 0.930 . S
C650 O664 1.275 . S
C650 O665 1.256 . S
C651 O666 1.259 . S
C651 O667 1.268 . S
C652 Ho641 2.811 . S
C652 C653 1.488 . S
C652 O668 1.215 . S
C652 O669 1.289 . S
C653 C652 1.488 . S
C653 C654 1.348 . S
C653 C658 1.413 . S
C654 C653 1.348 . S
C654 C655 1.442 . S
C654 H676 0.930 . S
C655 C654 1.442 . S
C655 C656 1.381 . S
C655 H677 0.931 . S
C656 C655 1.381 . S
C656 C657 1.321 . S
C657 C656 1.321 . S
C657 C658 1.403 . S
C657 H678 0.934 . S
C658 C653 1.413 . S
C658 C657 1.403 . S
C658 H679 0.930 . S
C659 O670 1.275 . S
C659 O671 1.256 . S
O660 Ho640 2.322 . S
O660 C642 1.259 . S
O661 Ho641 2.346 . S
O661 C642 1.268 . S
O662 Ho640 2.378 . S
O662 C643 1.215 1_565 S
O663 Ho640 2.524 . S
O663 C643 1.289 1_565 S
O664 Ho640 2.381 . S
O664 C650 1.275 . S
O665 Ho640 2.669 . S
O665 Ho641 2.305 . S
O665 C650 1.256 . S
O666 Ho641 2.322 . S
O666 C651 1.259 . S
O667 Ho640 2.346 . S
O667 C651 1.268 . S
O668 Ho641 2.378 . S
O668 C652 1.215 . S
O669 Ho641 2.524 . S
O669 C652 1.289 . S
O670 Ho641 2.381 . S
O670 C659 1.275 . S
O671 Ho640 2.305 . S
O671 Ho641 2.669 . S
O671 C659 1.256 . S
H672 C645 0.930 . S
H673 C646 0.931 . S
H674 C648 0.934 . S
H675 C649 0.930 . S
H676 C654 0.930 . S
H677 C655 0.931 . S
H678 C657 0.934 . S
H679 C658 0.930 . S
Ho680 C683 2.811 . S
Ho680 O700 2.322 . S
Ho680 O702 2.378 . S
Ho680 O703 2.524 . S
Ho680 O704 2.381 . S
Ho680 O705 2.669 . S
Ho680 O707 2.346 . S
Ho680 O711 2.305 . S
Ho681 C692 2.811 . S
Ho681 O701 2.346 . S
Ho681 O705 2.305 . S
Ho681 O706 2.322 . S
Ho681 O708 2.378 . S
Ho681 O709 2.524 . S
Ho681 O710 2.381 . S
Ho681 O711 2.669 . S
C682 O700 1.259 . S
C682 O701 1.268 . S
C683 Ho680 2.811 . S
C683 C684 1.488 . S
C683 O702 1.215 . S
C683 O703 1.289 . S
C684 C683 1.488 . S
C684 C685 1.348 . S
C684 C689 1.408 1_455 S
C685 C684 1.348 . S
C685 C686 1.442 1_455 S
C685 H712 0.930 . S
C686 C685 1.442 1_655 S
C686 C687 1.381 . S
C686 H713 0.931 . S
C687 C686 1.381 . S
C687 C688 1.321 . S
C688 C687 1.321 . S
C688 C689 1.413 . S
C688 H714 0.934 . S
C689 C684 1.408 1_655 S
C689 C688 1.413 . S
C689 H715 0.926 1_655 S
C690 O704 1.275 . S
C690 O705 1.256 . S
C691 O706 1.259 . S
C691 O707 1.268 . S
C692 Ho681 2.811 . S
C692 C693 1.488 . S
C692 O708 1.215 . S
C692 O709 1.289 . S
C693 C692 1.488 . S
C693 C694 1.348 . S
C693 C698 1.413 . S
C694 C693 1.348 . S
C694 C695 1.442 . S
C694 H716 0.930 . S
C695 C694 1.442 . S
C695 C696 1.381 . S
C695 H717 0.931 . S
C696 C695 1.381 . S
C696 C697 1.321 . S
C697 C696 1.321 . S
C697 C698 1.403 . S
C697 H718 0.934 . S
C698 C693 1.413 . S
C698 C697 1.403 . S
C698 H719 0.930 . S
C699 O710 1.275 . S
C699 O711 1.256 . S
O700 Ho680 2.322 . S
O700 C682 1.259 . S
O701 Ho681 2.346 . S
O701 C682 1.268 . S
O702 Ho680 2.378 . S
O702 C683 1.215 . S
O703 Ho680 2.524 . S
O703 C683 1.289 . S
O704 Ho680 2.381 . S
O704 C690 1.275 . S
O705 Ho680 2.669 . S
O705 Ho681 2.305 . S
O705 C690 1.256 . S
O706 Ho681 2.322 . S
O706 C691 1.259 . S
O707 Ho680 2.346 . S
O707 C691 1.268 . S
O708 Ho681 2.378 . S
O708 C692 1.215 . S
O709 Ho681 2.524 . S
O709 C692 1.289 . S
O710 Ho681 2.381 . S
O710 C699 1.275 . S
O711 Ho680 2.305 . S
O711 Ho681 2.669 . S
O711 C699 1.256 . S
H712 C685 0.930 . S
H713 C686 0.931 . S
H714 C688 0.934 . S
H715 C689 0.926 1_455 S
H716 C694 0.930 . S
H717 C695 0.931 . S
H718 C697 0.934 . S
H719 C698 0.930 . S
Ho720 C723 2.811 . S
Ho720 O740 2.322 . S
Ho720 O742 2.378 . S
Ho720 O743 2.524 . S
Ho720 O744 2.381 . S
Ho720 O745 2.669 . S
Ho720 O747 2.346 . S
Ho720 O751 2.305 . S
Ho721 C732 2.811 . S
Ho721 O741 2.346 . S
Ho721 O745 2.305 . S
Ho721 O746 2.322 . S
Ho721 O748 2.378 . S
Ho721 O749 2.524 . S
Ho721 O750 2.381 . S
Ho721 O751 2.669 . S
C722 O740 1.259 . S
C722 O741 1.268 . S
C723 Ho720 2.811 . S
C723 C724 1.488 . S
C723 O742 1.215 . S
C723 O743 1.289 . S
C724 C723 1.488 . S
C724 C725 1.348 . S
C724 C729 1.413 . S
C725 C724 1.348 . S
C725 C726 1.442 . S
C725 H752 0.930 . S
C726 C725 1.442 . S
C726 C727 1.381 . S
C726 H753 0.931 . S
C727 C726 1.381 . S
C727 C728 1.321 . S
C728 C727 1.321 . S
C728 C729 1.403 . S
C728 H754 0.934 . S
C729 C724 1.413 . S
C729 C728 1.403 . S
C729 H755 0.930 . S
C730 O744 1.275 . S
C730 O745 1.256 . S
C731 O746 1.259 . S
C731 O747 1.268 . S
C732 Ho721 2.811 . S
C732 C733 1.488 . S
C732 O748 1.215 . S
C732 O749 1.289 . S
C733 C732 1.488 . S
C733 C734 1.348 . S
C733 C738 1.413 . S
C734 C733 1.348 . S
C734 C735 1.442 . S
C734 H756 0.930 . S
C735 C734 1.442 . S
C735 C736 1.381 . S
C735 H757 0.931 . S
C736 C735 1.381 . S
C736 C737 1.321 . S
C737 C736 1.321 . S
C737 C738 1.403 . S
C737 H758 0.934 . S
C738 C733 1.413 . S
C738 C737 1.403 . S
C738 H759 0.930 . S
C739 O750 1.275 . S
C739 O751 1.256 . S
O740 Ho720 2.322 . S
O740 C722 1.259 . S
O741 Ho721 2.346 . S
O741 C722 1.268 . S
O742 Ho720 2.378 . S
O742 C723 1.215 . S
O743 Ho720 2.524 . S
O743 C723 1.289 . S
O744 Ho720 2.381 . S
O744 C730 1.275 . S
O745 Ho720 2.669 . S
O745 Ho721 2.305 . S
O745 C730 1.256 . S
O746 Ho721 2.322 . S
O746 C731 1.259 . S
O747 Ho720 2.346 . S
O747 C731 1.268 . S
O748 Ho721 2.378 . S
O748 C732 1.215 . S
O749 Ho721 2.524 . S
O749 C732 1.289 . S
O750 Ho721 2.381 . S
O750 C739 1.275 . S
O751 Ho720 2.305 . S
O751 Ho721 2.669 . S
O751 C739 1.256 . S
H752 C725 0.930 . S
H753 C726 0.931 . S
H754 C728 0.934 . S
H755 C729 0.930 . S
H756 C734 0.930 . S
H757 C735 0.931 . S
H758 C737 0.934 . S
H759 C738 0.930 . S
Ho760 C763 2.811 . S
Ho760 O780 2.322 . S
Ho760 O782 2.378 . S
Ho760 O783 2.524 . S
Ho760 O784 2.381 . S
Ho760 O785 2.669 . S
Ho760 O787 2.346 . S
Ho760 O791 2.305 . S
Ho761 C772 2.811 1_565 S
Ho761 O781 2.346 . S
Ho761 O785 2.305 . S
Ho761 O786 2.322 . S
Ho761 O788 2.378 . S
Ho761 O789 2.524 . S
Ho761 O790 2.381 . S
Ho761 O791 2.669 . S
C762 O780 1.259 . S
C762 O781 1.268 . S
C763 Ho760 2.811 . S
C763 C764 1.488 . S
C763 O782 1.215 . S
C763 O783 1.289 . S
C764 C763 1.488 . S
C764 C765 1.348 . S
C764 C769 1.413 . S
C765 C764 1.348 . S
C765 C766 1.442 . S
C765 H792 0.930 . S
C766 C765 1.442 . S
C766 C767 1.381 . S
C766 H793 0.931 . S
C767 C766 1.381 . S
C767 C768 1.321 . S
C768 C767 1.321 . S
C768 C769 1.403 . S
C768 H794 0.934 . S
C769 C764 1.413 . S
C769 C768 1.403 . S
C769 H795 0.930 . S
C770 O784 1.275 . S
C770 O785 1.256 . S
C771 O786 1.259 . S
C771 O787 1.268 . S
C772 Ho761 2.811 1_545 S
C772 C773 1.488 . S
C772 O788 1.215 1_545 S
C772 O789 1.289 1_545 S
C773 C772 1.488 . S
C773 C774 1.348 . S
C773 C778 1.413 . S
C774 C773 1.348 . S
C774 C775 1.442 . S
C774 H796 0.930 . S
C775 C774 1.442 . S
C775 C776 1.381 . S
C775 H797 0.931 . S
C776 C775 1.381 . S
C776 C777 1.321 . S
C777 C776 1.321 . S
C777 C778 1.403 . S
C777 H798 0.934 . S
C778 C773 1.413 . S
C778 C777 1.403 . S
C778 H799 0.930 . S
C779 O790 1.275 . S
C779 O791 1.256 . S
O780 Ho760 2.322 . S
O780 C762 1.259 . S
O781 Ho761 2.346 . S
O781 C762 1.268 . S
O782 Ho760 2.378 . S
O782 C763 1.215 . S
O783 Ho760 2.524 . S
O783 C763 1.289 . S
O784 Ho760 2.381 . S
O784 C770 1.275 . S
O785 Ho760 2.669 . S
O785 Ho761 2.305 . S
O785 C770 1.256 . S
O786 Ho761 2.322 . S
O786 C771 1.259 . S
O787 Ho760 2.346 . S
O787 C771 1.268 . S
O788 Ho761 2.378 . S
O788 C772 1.215 1_565 S
O789 Ho761 2.524 . S
O789 C772 1.289 1_565 S
O790 Ho761 2.381 . S
O790 C779 1.275 . S
O791 Ho760 2.305 . S
O791 Ho761 2.669 . S
O791 C779 1.256 . S
H792 C765 0.930 . S
H793 C766 0.931 . S
H794 C768 0.934 . S
H795 C769 0.930 . S
H796 C774 0.930 . S
H797 C775 0.931 . S
H798 C777 0.934 . S
H799 C778 0.930 . S
Ho800 C803 2.811 . S
Ho800 O820 2.322 . S
Ho800 O822 2.378 . S
Ho800 O823 2.524 . S
Ho800 O824 2.381 . S
Ho800 O825 2.669 . S
Ho800 O827 2.346 . S
Ho800 O831 2.305 . S
Ho801 C812 2.811 . S
Ho801 O821 2.346 . S
Ho801 O825 2.305 . S
Ho801 O826 2.322 . S
Ho801 O828 2.378 . S
Ho801 O829 2.524 . S
Ho801 O830 2.381 . S
Ho801 O831 2.669 . S
C802 O820 1.259 . S
C802 O821 1.268 . S
C803 Ho800 2.811 . S
C803 C804 1.488 . S
C803 O822 1.215 . S
C803 O823 1.289 . S
C804 C803 1.488 . S
C804 C805 1.348 . S
C804 C809 1.413 . S
C805 C804 1.348 . S
C805 C806 1.442 . S
C805 H832 0.930 . S
C806 C805 1.442 . S
C806 C807 1.381 . S
C806 H833 0.931 . S
C807 C806 1.381 . S
C807 C808 1.321 . S
C808 C807 1.321 . S
C808 C809 1.403 . S
C808 H834 0.934 . S
C809 C804 1.413 . S
C809 C808 1.403 . S
C809 H835 0.930 . S
C810 O824 1.275 . S
C810 O825 1.256 . S
C811 O826 1.259 . S
C811 O827 1.268 . S
C812 Ho801 2.811 . S
C812 C813 1.488 . S
C812 O828 1.215 . S
C812 O829 1.289 . S
C813 C812 1.488 . S
C813 C814 1.348 . S
C813 C818 1.401 1_455 S
C814 C813 1.348 . S
C814 C815 1.442 1_455 S
C814 H836 0.930 . S
C815 C814 1.442 1_655 S
C815 C816 1.381 . S
C815 H837 0.931 . S
C816 C815 1.381 . S
C816 C817 1.321 . S
C817 C816 1.321 . S
C817 C818 1.430 . S
C817 H838 0.934 . S
C818 C813 1.401 1_655 S
C818 C817 1.430 . S
C818 H839 0.915 1_655 S
C819 O830 1.275 . S
C819 O831 1.256 . S
O820 Ho800 2.322 . S
O820 C802 1.259 . S
O821 Ho801 2.346 . S
O821 C802 1.268 . S
O822 Ho800 2.378 . S
O822 C803 1.215 . S
O823 Ho800 2.524 . S
O823 C803 1.289 . S
O824 Ho800 2.381 . S
O824 C810 1.275 . S
O825 Ho800 2.669 . S
O825 Ho801 2.305 . S
O825 C810 1.256 . S
O826 Ho801 2.322 . S
O826 C811 1.259 . S
O827 Ho800 2.346 . S
O827 C811 1.268 . S
O828 Ho801 2.378 . S
O828 C812 1.215 . S
O829 Ho801 2.524 . S
O829 C812 1.289 . S
O830 Ho801 2.381 . S
O830 C819 1.275 . S
O831 Ho800 2.305 . S
O831 Ho801 2.669 . S
O831 C819 1.256 . S
H832 C805 0.930 . S
H833 C806 0.931 . S
H834 C808 0.934 . S
H835 C809 0.930 . S
H836 C814 0.930 . S
H837 C815 0.931 . S
H838 C817 0.934 . S
H839 C818 0.915 1_455 S
Ho840 C843 2.811 . S
Ho840 O860 2.322 . S
Ho840 O862 2.378 . S
Ho840 O863 2.524 . S
Ho840 O864 2.381 . S
Ho840 O865 2.669 . S
Ho840 O867 2.346 . S
Ho840 O871 2.305 . S
Ho841 C852 2.811 . S
Ho841 O861 2.346 . S
Ho841 O865 2.305 . S
Ho841 O866 2.322 . S
Ho841 O868 2.378 . S
Ho841 O869 2.524 . S
Ho841 O870 2.381 . S
Ho841 O871 2.669 . S
C842 O860 1.259 . S
C842 O861 1.268 . S
C843 Ho840 2.811 . S
C843 C844 1.488 . S
C843 O862 1.215 . S
C843 O863 1.289 . S
C844 C843 1.488 . S
C844 C845 1.348 . S
C844 C849 1.413 . S
C845 C844 1.348 . S
C845 C846 1.442 . S
C845 H872 0.930 . S
C846 C845 1.442 . S
C846 C847 1.381 . S
C846 H873 0.931 . S
C847 C846 1.381 . S
C847 C848 1.321 . S
C848 C847 1.321 . S
C848 C849 1.403 . S
C848 H874 0.934 . S
C849 C844 1.413 . S
C849 C848 1.403 . S
C849 H875 0.930 . S
C850 O864 1.275 . S
C850 O865 1.256 . S
C851 O866 1.259 . S
C851 O867 1.268 . S
C852 Ho841 2.811 . S
C852 C853 1.488 . S
C852 O868 1.215 . S
C852 O869 1.289 . S
C853 C852 1.488 . S
C853 C854 1.348 . S
C853 C858 1.413 . S
C854 C853 1.348 . S
C854 C855 1.442 . S
C854 H876 0.930 . S
C855 C854 1.442 . S
C855 C856 1.381 . S
C855 H877 0.931 . S
C856 C855 1.381 . S
C856 C857 1.321 . S
C857 C856 1.321 . S
C857 C858 1.403 . S
C857 H878 0.934 . S
C858 C853 1.413 . S
C858 C857 1.403 . S
C858 H879 0.930 . S
C859 O870 1.275 . S
C859 O871 1.256 . S
O860 Ho840 2.322 . S
O860 C842 1.259 . S
O861 Ho841 2.346 . S
O861 C842 1.268 . S
O862 Ho840 2.378 . S
O862 C843 1.215 . S
O863 Ho840 2.524 . S
O863 C843 1.289 . S
O864 Ho840 2.381 . S
O864 C850 1.275 . S
O865 Ho840 2.669 . S
O865 Ho841 2.305 . S
O865 C850 1.256 . S
O866 Ho841 2.322 . S
O866 C851 1.259 . S
O867 Ho840 2.346 . S
O867 C851 1.268 . S
O868 Ho841 2.378 . S
O868 C852 1.215 . S
O869 Ho841 2.524 . S
O869 C852 1.289 . S
O870 Ho841 2.381 . S
O870 C859 1.275 . S
O871 Ho840 2.305 . S
O871 Ho841 2.669 . S
O871 C859 1.256 . S
H872 C845 0.930 . S
H873 C846 0.931 . S
H874 C848 0.934 . S
H875 C849 0.930 . S
H876 C854 0.930 . S
H877 C855 0.931 . S
H878 C857 0.934 . S
H879 C858 0.930 . S
Ho880 C883 2.811 . S
Ho880 O900 2.322 . S
Ho880 O902 2.378 . S
Ho880 O903 2.524 . S
Ho880 O904 2.381 . S
Ho880 O905 2.669 . S
Ho880 O907 2.346 . S
Ho880 O911 2.305 . S
Ho881 C892 2.811 . S
Ho881 O901 2.346 . S
Ho881 O905 2.305 . S
Ho881 O906 2.322 . S
Ho881 O908 2.378 . S
Ho881 O909 2.524 . S
Ho881 O910 2.381 . S
Ho881 O911 2.669 . S
C882 O900 1.259 . S
C882 O901 1.268 . S
C883 Ho880 2.811 . S
C883 C884 1.488 . S
C883 O902 1.215 . S
C883 O903 1.289 . S
C884 C883 1.488 . S
C884 C885 1.348 . S
C884 C889 1.413 1_565 S
C885 C884 1.348 . S
C885 C886 1.442 1_565 S
C885 H912 0.930 . S
C886 C885 1.442 1_545 S
C886 C887 1.381 . S
C886 H913 0.931 . S
C887 C886 1.381 . S
C887 C888 1.321 . S
C888 C887 1.321 . S
C888 C889 1.403 . S
C888 H914 0.934 . S
C889 C884 1.413 1_545 S
C889 C888 1.403 . S
C889 H915 0.930 1_545 S
C890 O904 1.275 . S
C890 O905 1.256 . S
C891 O906 1.259 . S
C891 O907 1.268 . S
C892 Ho881 2.811 . S
C892 C893 1.488 . S
C892 O908 1.215 . S
C892 O909 1.289 . S
C893 C892 1.488 . S
C893 C894 1.348 . S
C893 C898 1.413 . S
C894 C893 1.348 . S
C894 C895 1.442 . S
C894 H916 0.930 . S
C895 C894 1.442 . S
C895 C896 1.381 . S
C895 H917 0.931 . S
C896 C895 1.381 . S
C896 C897 1.321 . S
C897 C896 1.321 . S
C897 C898 1.403 . S
C897 H918 0.934 . S
C898 C893 1.413 . S
C898 C897 1.403 . S
C898 H919 0.930 . S
C899 O910 1.275 . S
C899 O911 1.256 . S
O900 Ho880 2.322 . S
O900 C882 1.259 . S
O901 Ho881 2.346 . S
O901 C882 1.268 . S
O902 Ho880 2.378 . S
O902 C883 1.215 . S
O903 Ho880 2.524 . S
O903 C883 1.289 . S
O904 Ho880 2.381 . S
O904 C890 1.275 . S
O905 Ho880 2.669 . S
O905 Ho881 2.305 . S
O905 C890 1.256 . S
O906 Ho881 2.322 . S
O906 C891 1.259 . S
O907 Ho880 2.346 . S
O907 C891 1.268 . S
O908 Ho881 2.378 . S
O908 C892 1.215 . S
O909 Ho881 2.524 . S
O909 C892 1.289 . S
O910 Ho881 2.381 . S
O910 C899 1.275 . S
O911 Ho880 2.305 . S
O911 Ho881 2.669 . S
O911 C899 1.256 . S
H912 C885 0.930 . S
H913 C886 0.931 . S
H914 C888 0.934 . S
H915 C889 0.930 1_565 S
H916 C894 0.930 . S
H917 C895 0.931 . S
H918 C897 0.934 . S
H919 C898 0.930 . S
Ho920 C923 2.811 . S
Ho920 O940 2.322 . S
Ho920 O942 2.378 . S
Ho920 O943 2.524 . S
Ho920 O944 2.381 . S
Ho920 O945 2.669 . S
Ho920 O947 2.346 . S
Ho920 O951 2.305 . S
Ho921 C932 2.811 . S
Ho921 O941 2.346 . S
Ho921 O945 2.305 . S
Ho921 O946 2.322 . S
Ho921 O948 2.378 . S
Ho921 O949 2.524 . S
Ho921 O950 2.381 . S
Ho921 O951 2.669 . S
C922 O940 1.259 . S
C922 O941 1.268 . S
C923 Ho920 2.811 . S
C923 C924 1.488 . S
C923 O942 1.215 . S
C923 O943 1.289 . S
C924 C923 1.488 . S
C924 C925 1.348 . S
C924 C929 1.413 . S
C925 C924 1.348 . S
C925 C926 1.442 . S
C925 H952 0.930 . S
C926 C925 1.442 . S
C926 C927 1.381 . S
C926 H953 0.931 . S
C927 C926 1.381 . S
C927 C928 1.321 . S
C928 C927 1.321 . S
C928 C929 1.403 . S
C928 H954 0.934 . S
C929 C924 1.413 . S
C929 C928 1.403 . S
C929 H955 0.930 . S
C930 O944 1.275 . S
C930 O945 1.256 . S
C931 O946 1.259 . S
C931 O947 1.268 . S
C932 Ho921 2.811 . S
C932 C933 1.488 . S
C932 O948 1.215 . S
C932 O949 1.289 . S
C933 C932 1.488 . S
C933 C934 1.348 . S
C933 C938 1.413 . S
C934 C933 1.348 . S
C934 C935 1.442 . S
C934 H956 0.930 . S
C935 C934 1.442 . S
C935 C936 1.381 . S
C935 H957 0.931 . S
C936 C935 1.381 . S
C936 C937 1.321 . S
C937 C936 1.321 . S
C937 C938 1.403 . S
C937 H958 0.934 . S
C938 C933 1.413 . S
C938 C937 1.403 . S
C938 H959 0.930 . S
C939 O950 1.275 . S
C939 O951 1.256 . S
O940 Ho920 2.322 . S
O940 C922 1.259 . S
O941 Ho921 2.346 . S
O941 C922 1.268 . S
O942 Ho920 2.378 . S
O942 C923 1.215 . S
O943 Ho920 2.524 . S
O943 C923 1.289 . S
O944 Ho920 2.381 . S
O944 C930 1.275 . S
O945 Ho920 2.669 . S
O945 Ho921 2.305 . S
O945 C930 1.256 . S
O946 Ho921 2.322 . S
O946 C931 1.259 . S
O947 Ho920 2.346 . S
O947 C931 1.268 . S
O948 Ho921 2.378 . S
O948 C932 1.215 . S
O949 Ho921 2.524 . S
O949 C932 1.289 . S
O950 Ho921 2.381 . S
O950 C939 1.275 . S
O951 Ho920 2.305 . S
O951 Ho921 2.669 . S
O951 C939 1.256 . S
H952 C925 0.930 . S
H953 C926 0.931 . S
H954 C928 0.934 . S
H955 C929 0.930 . S
H956 C934 0.930 . S
H957 C935 0.931 . S
H958 C937 0.934 . S
H959 C938 0.930 . S
Ho960 C963 2.811 . S
Ho960 O980 2.322 . S
Ho960 O982 2.378 . S
Ho960 O983 2.524 . S
Ho960 O984 2.381 . S
Ho960 O985 2.669 . S
Ho960 O987 2.346 . S
Ho960 O991 2.305 . S
Ho961 C972 2.811 . S
Ho961 O981 2.346 . S
Ho961 O985 2.305 . S
Ho961 O986 2.322 . S
Ho961 O988 2.378 . S
Ho961 O989 2.524 . S
Ho961 O990 2.381 . S
Ho961 O991 2.669 . S
C962 O980 1.259 . S
C962 O981 1.268 . S
C963 Ho960 2.811 . S
C963 C964 1.488 . S
C963 O982 1.215 . S
C963 O983 1.289 . S
C964 C963 1.488 . S
C964 C965 1.348 . S
C964 C969 1.413 . S
C965 C964 1.348 . S
C965 C966 1.442 . S
C965 H992 0.930 . S
C966 C965 1.442 . S
C966 C967 1.381 . S
C966 H993 0.931 . S
C967 C966 1.381 . S
C967 C968 1.321 . S
C968 C967 1.321 . S
C968 C969 1.403 . S
C968 H994 0.934 . S
C969 C964 1.413 . S
C969 C968 1.403 . S
C969 H995 0.930 . S
C970 O984 1.275 . S
C970 O985 1.256 . S
C971 O986 1.259 . S
C971 O987 1.268 . S
C972 Ho961 2.811 . S
C972 C973 1.488 . S
C972 O988 1.215 . S
C972 O989 1.289 . S
C973 C972 1.488 . S
C973 C974 1.348 . S
C973 C978 1.413 . S
C974 C973 1.348 . S
C974 C975 1.442 . S
C974 H996 0.930 . S
C975 C974 1.442 . S
C975 C976 1.381 . S
C975 H997 0.931 . S
C976 C975 1.381 . S
C976 C977 1.321 . S
C977 C976 1.321 . S
C977 C978 1.403 . S
C977 H998 0.934 . S
C978 C973 1.413 . S
C978 C977 1.403 . S
C978 H999 0.930 . S
C979 O990 1.275 . S
C979 O991 1.256 . S
O980 Ho960 2.322 . S
O980 C962 1.259 . S
O981 Ho961 2.346 . S
O981 C962 1.268 . S
O982 Ho960 2.378 . S
O982 C963 1.215 . S
O983 Ho960 2.524 . S
O983 C963 1.289 . S
O984 Ho960 2.381 . S
O984 C970 1.275 . S
O985 Ho960 2.669 . S
O985 Ho961 2.305 . S
O985 C970 1.256 . S
O986 Ho961 2.322 . S
O986 C971 1.259 . S
O987 Ho960 2.346 . S
O987 C971 1.268 . S
O988 Ho961 2.378 . S
O988 C972 1.215 . S
O989 Ho961 2.524 . S
O989 C972 1.289 . S
O990 Ho961 2.381 . S
O990 C979 1.275 . S
O991 Ho960 2.305 . S
O991 Ho961 2.669 . S
O991 C979 1.256 . S
H992 C965 0.930 . S
H993 C966 0.931 . S
H994 C968 0.934 . S
H995 C969 0.930 . S
H996 C974 0.930 . S
H997 C975 0.931 . S
H998 C977 0.934 . S
H999 C978 0.930 . S
Ho1000 C1003 2.811 . S
Ho1000 O1020 2.322 . S
Ho1000 O1022 2.378 . S
Ho1000 O1023 2.524 . S
Ho1000 O1024 2.381 . S
Ho1000 O1025 2.669 . S
Ho1000 O1027 2.346 . S
Ho1000 O1031 2.305 . S
Ho1001 C1012 2.811 . S
Ho1001 O1021 2.346 . S
Ho1001 O1025 2.305 . S
Ho1001 O1026 2.322 . S
Ho1001 O1028 2.378 . S
Ho1001 O1029 2.524 . S
Ho1001 O1030 2.381 . S
Ho1001 O1031 2.669 . S
C1002 O1020 1.259 . S
C1002 O1021 1.268 . S
C1003 Ho1000 2.811 . S
C1003 C1004 1.488 . S
C1003 O1022 1.215 . S
C1003 O1023 1.289 . S
C1004 C1003 1.488 . S
C1004 C1005 1.348 . S
C1004 C1009 1.408 1_545 S
C1005 C1004 1.348 . S
C1005 C1006 1.442 1_545 S
C1005 H1032 0.930 . S
C1006 C1005 1.442 1_565 S
C1006 C1007 1.381 . S
C1006 H1033 0.931 . S
C1007 C1006 1.381 . S
C1007 C1008 1.321 . S
C1008 C1007 1.321 . S
C1008 C1009 1.413 . S
C1008 H1034 0.934 . S
C1009 C1004 1.408 1_565 S
C1009 C1008 1.413 . S
C1009 H1035 0.926 1_565 S
C1010 O1024 1.275 . S
C1010 O1025 1.256 . S
C1011 O1026 1.259 . S
C1011 O1027 1.268 . S
C1012 Ho1001 2.811 . S
C1012 C1013 1.488 . S
C1012 O1028 1.215 . S
C1012 O1029 1.289 . S
C1013 C1012 1.488 . S
C1013 C1014 1.348 . S
C1013 C1018 1.413 . S
C1014 C1013 1.348 . S
C1014 C1015 1.442 . S
C1014 H1036 0.930 . S
C1015 C1014 1.442 . S
C1015 C1016 1.381 . S
C1015 H1037 0.931 . S
C1016 C1015 1.381 . S
C1016 C1017 1.321 . S
C1017 C1016 1.321 . S
C1017 C1018 1.403 . S
C1017 H1038 0.934 . S
C1018 C1013 1.413 . S
C1018 C1017 1.403 . S
C1018 H1039 0.930 . S
C1019 O1030 1.275 . S
C1019 O1031 1.256 . S
O1020 Ho1000 2.322 . S
O1020 C1002 1.259 . S
O1021 Ho1001 2.346 . S
O1021 C1002 1.268 . S
O1022 Ho1000 2.378 . S
O1022 C1003 1.215 . S
O1023 Ho1000 2.524 . S
O1023 C1003 1.289 . S
O1024 Ho1000 2.381 . S
O1024 C1010 1.275 . S
O1025 Ho1000 2.669 . S
O1025 Ho1001 2.305 . S
O1025 C1010 1.256 . S
O1026 Ho1001 2.322 . S
O1026 C1011 1.259 . S
O1027 Ho1000 2.346 . S
O1027 C1011 1.268 . S
O1028 Ho1001 2.378 . S
O1028 C1012 1.215 . S
O1029 Ho1001 2.524 . S
O1029 C1012 1.289 . S
O1030 Ho1001 2.381 . S
O1030 C1019 1.275 . S
O1031 Ho1000 2.305 . S
O1031 Ho1001 2.669 . S
O1031 C1019 1.256 . S
H1032 C1005 0.930 . S
H1033 C1006 0.931 . S
H1034 C1008 0.934 . S
H1035 C1009 0.926 1_545 S
H1036 C1014 0.930 . S
H1037 C1015 0.931 . S
H1038 C1017 0.934 . S
H1039 C1018 0.930 . S
Ho1040 C1043 2.811 1_655 S
Ho1040 O1060 2.322 . S
Ho1040 O1062 2.378 . S
Ho1040 O1063 2.524 . S
Ho1040 O1064 2.381 . S
Ho1040 O1065 2.669 . S
Ho1040 O1067 2.346 . S
Ho1040 O1071 2.305 . S
Ho1041 C1052 2.811 . S
Ho1041 O1061 2.346 . S
Ho1041 O1065 2.305 . S
Ho1041 O1066 2.322 . S
Ho1041 O1068 2.378 . S
Ho1041 O1069 2.524 . S
Ho1041 O1070 2.381 . S
Ho1041 O1071 2.669 . S
C1042 O1060 1.259 . S
C1042 O1061 1.268 . S
C1043 Ho1040 2.811 1_455 S
C1043 C1044 1.488 . S
C1043 O1062 1.215 1_455 S
C1043 O1063 1.289 1_455 S
C1044 C1043 1.488 . S
C1044 C1045 1.348 . S
C1044 C1049 1.413 . S
C1045 C1044 1.348 . S
C1045 C1046 1.442 . S
C1045 H1072 0.930 . S
C1046 C1045 1.442 . S
C1046 C1047 1.381 . S
C1046 H1073 0.931 . S
C1047 C1046 1.381 . S
C1047 C1048 1.321 . S
C1048 C1047 1.321 . S
C1048 C1049 1.403 . S
C1048 H1074 0.934 . S
C1049 C1044 1.413 . S
C1049 C1048 1.403 . S
C1049 H1075 0.930 . S
C1050 O1064 1.275 . S
C1050 O1065 1.256 . S
C1051 O1066 1.259 . S
C1051 O1067 1.268 . S
C1052 Ho1041 2.811 . S
C1052 C1053 1.488 . S
C1052 O1068 1.215 . S
C1052 O1069 1.289 . S
C1053 C1052 1.488 . S
C1053 C1054 1.348 . S
C1053 C1058 1.413 . S
C1054 C1053 1.348 . S
C1054 C1055 1.442 . S
C1054 H1076 0.930 . S
C1055 C1054 1.442 . S
C1055 C1056 1.381 . S
C1055 H1077 0.931 . S
C1056 C1055 1.381 . S
C1056 C1057 1.321 . S
C1057 C1056 1.321 . S
C1057 C1058 1.403 . S
C1057 H1078 0.934 . S
C1058 C1053 1.413 . S
C1058 C1057 1.403 . S
C1058 H1079 0.930 . S
C1059 O1070 1.275 . S
C1059 O1071 1.256 . S
O1060 Ho1040 2.322 . S
O1060 C1042 1.259 . S
O1061 Ho1041 2.346 . S
O1061 C1042 1.268 . S
O1062 Ho1040 2.378 . S
O1062 C1043 1.215 1_655 S
O1063 Ho1040 2.524 . S
O1063 C1043 1.289 1_655 S
O1064 Ho1040 2.381 . S
O1064 C1050 1.275 . S
O1065 Ho1040 2.669 . S
O1065 Ho1041 2.305 . S
O1065 C1050 1.256 . S
O1066 Ho1041 2.322 . S
O1066 C1051 1.259 . S
O1067 Ho1040 2.346 . S
O1067 C1051 1.268 . S
O1068 Ho1041 2.378 . S
O1068 C1052 1.215 . S
O1069 Ho1041 2.524 . S
O1069 C1052 1.289 . S
O1070 Ho1041 2.381 . S
O1070 C1059 1.275 . S
O1071 Ho1040 2.305 . S
O1071 Ho1041 2.669 . S
O1071 C1059 1.256 . S
H1072 C1045 0.930 . S
H1073 C1046 0.931 . S
H1074 C1048 0.934 . S
H1075 C1049 0.930 . S
H1076 C1054 0.930 . S
H1077 C1055 0.931 . S
H1078 C1057 0.934 . S
H1079 C1058 0.930 . S
Ho1080 C1083 2.811 . S
Ho1080 O1100 2.322 . S
Ho1080 O1102 2.378 . S
Ho1080 O1103 2.524 . S
Ho1080 O1104 2.381 . S
Ho1080 O1105 2.669 . S
Ho1080 O1107 2.346 . S
Ho1080 O1111 2.305 . S
Ho1081 C1092 2.811 . S
Ho1081 O1101 2.346 . S
Ho1081 O1105 2.305 . S
Ho1081 O1106 2.322 . S
Ho1081 O1108 2.378 . S
Ho1081 O1109 2.524 . S
Ho1081 O1110 2.381 . S
Ho1081 O1111 2.669 . S
C1082 O1100 1.259 . S
C1082 O1101 1.268 . S
C1083 Ho1080 2.811 . S
C1083 C1084 1.488 . S
C1083 O1102 1.215 . S
C1083 O1103 1.289 . S
C1084 C1083 1.488 . S
C1084 C1085 1.348 . S
C1084 C1089 1.413 . S
C1085 C1084 1.348 . S
C1085 C1086 1.442 . S
C1085 H1112 0.930 . S
C1086 C1085 1.442 . S
C1086 C1087 1.381 . S
C1086 H1113 0.931 . S
C1087 C1086 1.381 . S
C1087 C1088 1.321 . S
C1088 C1087 1.321 . S
C1088 C1089 1.403 . S
C1088 H1114 0.934 . S
C1089 C1084 1.413 . S
C1089 C1088 1.403 . S
C1089 H1115 0.930 . S
C1090 O1104 1.275 . S
C1090 O1105 1.256 . S
C1091 O1106 1.259 . S
C1091 O1107 1.268 . S
C1092 Ho1081 2.811 . S
C1092 C1093 1.488 . S
C1092 O1108 1.215 . S
C1092 O1109 1.289 . S
C1093 C1092 1.488 . S
C1093 C1094 1.348 . S
C1093 C1098 1.413 . S
C1094 C1093 1.348 . S
C1094 C1095 1.442 . S
C1094 H1116 0.930 . S
C1095 C1094 1.442 . S
C1095 C1096 1.381 . S
C1095 H1117 0.931 . S
C1096 C1095 1.381 . S
C1096 C1097 1.321 . S
C1097 C1096 1.321 . S
C1097 C1098 1.403 . S
C1097 H1118 0.934 . S
C1098 C1093 1.413 . S
C1098 C1097 1.403 . S
C1098 H1119 0.930 . S
C1099 O1110 1.275 . S
C1099 O1111 1.256 . S
O1100 Ho1080 2.322 . S
O1100 C1082 1.259 . S
O1101 Ho1081 2.346 . S
O1101 C1082 1.268 . S
O1102 Ho1080 2.378 . S
O1102 C1083 1.215 . S
O1103 Ho1080 2.524 . S
O1103 C1083 1.289 . S
O1104 Ho1080 2.381 . S
O1104 C1090 1.275 . S
O1105 Ho1080 2.669 . S
O1105 Ho1081 2.305 . S
O1105 C1090 1.256 . S
O1106 Ho1081 2.322 . S
O1106 C1091 1.259 . S
O1107 Ho1080 2.346 . S
O1107 C1091 1.268 . S
O1108 Ho1081 2.378 . S
O1108 C1092 1.215 . S
O1109 Ho1081 2.524 . S
O1109 C1092 1.289 . S
O1110 Ho1081 2.381 . S
O1110 C1099 1.275 . S
O1111 Ho1080 2.305 . S
O1111 Ho1081 2.669 . S
O1111 C1099 1.256 . S
H1112 C1085 0.930 . S
H1113 C1086 0.931 . S
H1114 C1088 0.934 . S
H1115 C1089 0.930 . S
H1116 C1094 0.930 . S
H1117 C1095 0.931 . S
H1118 C1097 0.934 . S
H1119 C1098 0.930 . S
Ho1120 C1123 2.811 . S
Ho1120 O1140 2.322 . S
Ho1120 O1142 2.378 . S
Ho1120 O1143 2.524 . S
Ho1120 O1144 2.381 . S
Ho1120 O1145 2.669 . S
Ho1120 O1147 2.346 . S
Ho1120 O1151 2.305 . S
Ho1121 C1132 2.811 . S
Ho1121 O1141 2.346 . S
Ho1121 O1145 2.305 . S
Ho1121 O1146 2.322 . S
Ho1121 O1148 2.378 . S
Ho1121 O1149 2.524 . S
Ho1121 O1150 2.381 . S
Ho1121 O1151 2.669 . S
C1122 O1140 1.259 . S
C1122 O1141 1.268 . S
C1123 Ho1120 2.811 . S
C1123 C1124 1.488 . S
C1123 O1142 1.215 . S
C1123 O1143 1.289 . S
C1124 C1123 1.488 . S
C1124 C1125 1.348 . S
C1124 C1129 1.413 . S
C1125 C1124 1.348 . S
C1125 C1126 1.442 . S
C1125 H1152 0.930 . S
C1126 C1125 1.442 . S
C1126 C1127 1.381 . S
C1126 H1153 0.931 . S
C1127 C1126 1.381 . S
C1127 C1128 1.321 . S
C1128 C1127 1.321 . S
C1128 C1129 1.403 . S
C1128 H1154 0.934 . S
C1129 C1124 1.413 . S
C1129 C1128 1.403 . S
C1129 H1155 0.930 . S
C1130 O1144 1.275 . S
C1130 O1145 1.256 . S
C1131 O1146 1.259 . S
C1131 O1147 1.268 . S
C1132 Ho1121 2.811 . S
C1132 C1133 1.488 . S
C1132 O1148 1.215 . S
C1132 O1149 1.289 . S
C1133 C1132 1.488 . S
C1133 C1134 1.348 . S
C1133 C1138 1.413 . S
C1134 C1133 1.348 . S
C1134 C1135 1.442 . S
C1134 H1156 0.930 . S
C1135 C1134 1.442 . S
C1135 C1136 1.381 . S
C1135 H1157 0.931 . S
C1136 C1135 1.381 . S
C1136 C1137 1.321 . S
C1137 C1136 1.321 . S
C1137 C1138 1.403 . S
C1137 H1158 0.934 . S
C1138 C1133 1.413 . S
C1138 C1137 1.403 . S
C1138 H1159 0.930 . S
C1139 O1150 1.275 . S
C1139 O1151 1.256 . S
O1140 Ho1120 2.322 . S
O1140 C1122 1.259 . S
O1141 Ho1121 2.346 . S
O1141 C1122 1.268 . S
O1142 Ho1120 2.378 . S
O1142 C1123 1.215 . S
O1143 Ho1120 2.524 . S
O1143 C1123 1.289 . S
O1144 Ho1120 2.381 . S
O1144 C1130 1.275 . S
O1145 Ho1120 2.669 . S
O1145 Ho1121 2.305 . S
O1145 C1130 1.256 . S
O1146 Ho1121 2.322 . S
O1146 C1131 1.259 . S
O1147 Ho1120 2.346 . S
O1147 C1131 1.268 . S
O1148 Ho1121 2.378 . S
O1148 C1132 1.215 . S
O1149 Ho1121 2.524 . S
O1149 C1132 1.289 . S
O1150 Ho1121 2.381 . S
O1150 C1139 1.275 . S
O1151 Ho1120 2.305 . S
O1151 Ho1121 2.669 . S
O1151 C1139 1.256 . S
H1152 C1125 0.930 . S
H1153 C1126 0.931 . S
H1154 C1128 0.934 . S
H1155 C1129 0.930 . S
H1156 C1134 0.930 . S
H1157 C1135 0.931 . S
H1158 C1137 0.934 . S
H1159 C1138 0.930 . S
Ho1160 C1163 2.811 . S
Ho1160 O1180 2.322 . S
Ho1160 O1182 2.378 . S
Ho1160 O1183 2.524 . S
Ho1160 O1184 2.381 . S
Ho1160 O1185 2.669 . S
Ho1160 O1187 2.346 . S
Ho1160 O1191 2.305 . S
Ho1161 C1172 2.811 . S
Ho1161 O1181 2.346 . S
Ho1161 O1185 2.305 . S
Ho1161 O1186 2.322 . S
Ho1161 O1188 2.378 . S
Ho1161 O1189 2.524 . S
Ho1161 O1190 2.381 . S
Ho1161 O1191 2.669 . S
C1162 O1180 1.259 . S
C1162 O1181 1.268 . S
C1163 Ho1160 2.811 . S
C1163 C1164 1.488 . S
C1163 O1182 1.215 . S
C1163 O1183 1.289 . S
C1164 C1163 1.488 . S
C1164 C1165 1.348 . S
C1164 C1169 1.413 . S
C1165 C1164 1.348 . S
C1165 C1166 1.442 . S
C1165 H1192 0.930 . S
C1166 C1165 1.442 . S
C1166 C1167 1.381 . S
C1166 H1193 0.931 . S
C1167 C1166 1.381 . S
C1167 C1168 1.321 . S
C1168 C1167 1.321 . S
C1168 C1169 1.403 . S
C1168 H1194 0.934 . S
C1169 C1164 1.413 . S
C1169 C1168 1.403 . S
C1169 H1195 0.930 . S
C1170 O1184 1.275 . S
C1170 O1185 1.256 . S
C1171 O1186 1.259 . S
C1171 O1187 1.268 . S
C1172 Ho1161 2.811 . S
C1172 C1173 1.488 . S
C1172 O1188 1.215 . S
C1172 O1189 1.289 . S
C1173 C1172 1.488 . S
C1173 C1174 1.348 . S
C1173 C1178 1.413 1_655 S
C1174 C1173 1.348 . S
C1174 C1175 1.442 1_655 S
C1174 H1196 0.930 . S
C1175 C1174 1.442 1_455 S
C1175 C1176 1.381 . S
C1175 H1197 0.931 . S
C1176 C1175 1.381 . S
C1176 C1177 1.321 . S
C1177 C1176 1.321 . S
C1177 C1178 1.403 . S
C1177 H1198 0.934 . S
C1178 C1173 1.413 1_455 S
C1178 C1177 1.403 . S
C1178 H1199 0.930 1_455 S
C1179 O1190 1.275 . S
C1179 O1191 1.256 . S
O1180 Ho1160 2.322 . S
O1180 C1162 1.259 . S
O1181 Ho1161 2.346 . S
O1181 C1162 1.268 . S
O1182 Ho1160 2.378 . S
O1182 C1163 1.215 . S
O1183 Ho1160 2.524 . S
O1183 C1163 1.289 . S
O1184 Ho1160 2.381 . S
O1184 C1170 1.275 . S
O1185 Ho1160 2.669 . S
O1185 Ho1161 2.305 . S
O1185 C1170 1.256 . S
O1186 Ho1161 2.322 . S
O1186 C1171 1.259 . S
O1187 Ho1160 2.346 . S
O1187 C1171 1.268 . S
O1188 Ho1161 2.378 . S
O1188 C1172 1.215 . S
O1189 Ho1161 2.524 . S
O1189 C1172 1.289 . S
O1190 Ho1161 2.381 . S
O1190 C1179 1.275 . S
O1191 Ho1160 2.305 . S
O1191 Ho1161 2.669 . S
O1191 C1179 1.256 . S
H1192 C1165 0.930 . S
H1193 C1166 0.931 . S
H1194 C1168 0.934 . S
H1195 C1169 0.930 . S
H1196 C1174 0.930 . S
H1197 C1175 0.931 . S
H1198 C1177 0.934 . S
H1199 C1178 0.930 1_655 S
Ho1200 C1203 2.811 . S
Ho1200 O1220 2.322 . S
Ho1200 O1222 2.378 . S
Ho1200 O1223 2.524 . S
Ho1200 O1224 2.381 . S
Ho1200 O1225 2.669 . S
Ho1200 O1227 2.346 . S
Ho1200 O1231 2.305 . S
Ho1201 C1212 2.811 . S
Ho1201 O1221 2.346 . S
Ho1201 O1225 2.305 . S
Ho1201 O1226 2.322 . S
Ho1201 O1228 2.378 . S
Ho1201 O1229 2.524 . S
Ho1201 O1230 2.381 . S
Ho1201 O1231 2.669 . S
C1202 O1220 1.259 . S
C1202 O1221 1.268 . S
C1203 Ho1200 2.811 . S
C1203 C1204 1.488 . S
C1203 O1222 1.215 . S
C1203 O1223 1.289 . S
C1204 C1203 1.488 . S
C1204 C1205 1.348 . S
C1204 C1209 1.413 . S
C1205 C1204 1.348 . S
C1205 C1206 1.442 . S
C1205 H1232 0.930 . S
C1206 C1205 1.442 . S
C1206 C1207 1.381 . S
C1206 H1233 0.931 . S
C1207 C1206 1.381 . S
C1207 C1208 1.321 . S
C1208 C1207 1.321 . S
C1208 C1209 1.403 . S
C1208 H1234 0.934 . S
C1209 C1204 1.413 . S
C1209 C1208 1.403 . S
C1209 H1235 0.930 . S
C1210 O1224 1.275 . S
C1210 O1225 1.256 . S
C1211 O1226 1.259 . S
C1211 O1227 1.268 . S
C1212 Ho1201 2.811 . S
C1212 C1213 1.488 . S
C1212 O1228 1.215 . S
C1212 O1229 1.289 . S
C1213 C1212 1.488 . S
C1213 C1214 1.348 . S
C1213 C1218 1.413 . S
C1214 C1213 1.348 . S
C1214 C1215 1.442 . S
C1214 H1236 0.930 . S
C1215 C1214 1.442 . S
C1215 C1216 1.381 . S
C1215 H1237 0.931 . S
C1216 C1215 1.381 . S
C1216 C1217 1.321 . S
C1217 C1216 1.321 . S
C1217 C1218 1.403 . S
C1217 H1238 0.934 . S
C1218 C1213 1.413 . S
C1218 C1217 1.403 . S
C1218 H1239 0.930 . S
C1219 O1230 1.275 . S
C1219 O1231 1.256 . S
O1220 Ho1200 2.322 . S
O1220 C1202 1.259 . S
O1221 Ho1201 2.346 . S
O1221 C1202 1.268 . S
O1222 Ho1200 2.378 . S
O1222 C1203 1.215 . S
O1223 Ho1200 2.524 . S
O1223 C1203 1.289 . S
O1224 Ho1200 2.381 . S
O1224 C1210 1.275 . S
O1225 Ho1200 2.669 . S
O1225 Ho1201 2.305 . S
O1225 C1210 1.256 . S
O1226 Ho1201 2.322 . S
O1226 C1211 1.259 . S
O1227 Ho1200 2.346 . S
O1227 C1211 1.268 . S
O1228 Ho1201 2.378 . S
O1228 C1212 1.215 . S
O1229 Ho1201 2.524 . S
O1229 C1212 1.289 . S
O1230 Ho1201 2.381 . S
O1230 C1219 1.275 . S
O1231 Ho1200 2.305 . S
O1231 Ho1201 2.669 . S
O1231 C1219 1.256 . S
H1232 C1205 0.930 . S
H1233 C1206 0.931 . S
H1234 C1208 0.934 . S
H1235 C1209 0.930 . S
H1236 C1214 0.930 . S
H1237 C1215 0.931 . S
H1238 C1217 0.934 . S
H1239 C1218 0.930 . S
Ho1240 C1243 2.811 . S
Ho1240 O1260 2.322 . S
Ho1240 O1262 2.378 . S
Ho1240 O1263 2.524 . S
Ho1240 O1264 2.381 . S
Ho1240 O1265 2.669 . S
Ho1240 O1267 2.346 . S
Ho1240 O1271 2.305 . S
Ho1241 C1252 2.811 . S
Ho1241 O1261 2.346 . S
Ho1241 O1265 2.305 . S
Ho1241 O1266 2.322 . S
Ho1241 O1268 2.378 . S
Ho1241 O1269 2.524 . S
Ho1241 O1270 2.381 . S
Ho1241 O1271 2.669 . S
C1242 O1260 1.259 . S
C1242 O1261 1.268 . S
C1243 Ho1240 2.811 . S
C1243 C1244 1.488 . S
C1243 O1262 1.215 . S
C1243 O1263 1.289 . S
C1244 C1243 1.488 . S
C1244 C1245 1.348 . S
C1244 C1249 1.413 . S
C1245 C1244 1.348 . S
C1245 C1246 1.442 . S
C1245 H1272 0.930 . S
C1246 C1245 1.442 . S
C1246 C1247 1.381 . S
C1246 H1273 0.931 . S
C1247 C1246 1.381 . S
C1247 C1248 1.321 . S
C1248 C1247 1.321 . S
C1248 C1249 1.403 . S
C1248 H1274 0.934 . S
C1249 C1244 1.413 . S
C1249 C1248 1.403 . S
C1249 H1275 0.930 . S
C1250 O1264 1.275 . S
C1250 O1265 1.256 . S
C1251 O1266 1.259 . S
C1251 O1267 1.268 . S
C1252 Ho1241 2.811 . S
C1252 C1253 1.488 . S
C1252 O1268 1.215 . S
C1252 O1269 1.289 . S
C1253 C1252 1.488 . S
C1253 C1254 1.348 . S
C1253 C1258 1.413 . S
C1254 C1253 1.348 . S
C1254 C1255 1.442 . S
C1254 H1276 0.930 . S
C1255 C1254 1.442 . S
C1255 C1256 1.381 . S
C1255 H1277 0.931 . S
C1256 C1255 1.381 . S
C1256 C1257 1.321 . S
C1257 C1256 1.321 . S
C1257 C1258 1.403 . S
C1257 H1278 0.934 . S
C1258 C1253 1.413 . S
C1258 C1257 1.403 . S
C1258 H1279 0.930 . S
C1259 O1270 1.275 . S
C1259 O1271 1.256 . S
O1260 Ho1240 2.322 . S
O1260 C1242 1.259 . S
O1261 Ho1241 2.346 . S
O1261 C1242 1.268 . S
O1262 Ho1240 2.378 . S
O1262 C1243 1.215 . S
O1263 Ho1240 2.524 . S
O1263 C1243 1.289 . S
O1264 Ho1240 2.381 . S
O1264 C1250 1.275 . S
O1265 Ho1240 2.669 . S
O1265 Ho1241 2.305 . S
O1265 C1250 1.256 . S
O1266 Ho1241 2.322 . S
O1266 C1251 1.259 . S
O1267 Ho1240 2.346 . S
O1267 C1251 1.268 . S
O1268 Ho1241 2.378 . S
O1268 C1252 1.215 . S
O1269 Ho1241 2.524 . S
O1269 C1252 1.289 . S
O1270 Ho1241 2.381 . S
O1270 C1259 1.275 . S
O1271 Ho1240 2.305 . S
O1271 Ho1241 2.669 . S
O1271 C1259 1.256 . S
H1272 C1245 0.930 . S
H1273 C1246 0.931 . S
H1274 C1248 0.934 . S
H1275 C1249 0.930 . S
H1276 C1254 0.930 . S
H1277 C1255 0.931 . S
H1278 C1257 0.934 . S
H1279 C1258 0.930 . S
Ho1280 C1283 2.811 . S
Ho1280 O1300 2.322 . S
Ho1280 O1302 2.378 . S
Ho1280 O1303 2.524 . S
Ho1280 O1304 2.381 . S
Ho1280 O1305 2.669 . S
Ho1280 O1307 2.346 . S
Ho1280 O1311 2.305 . S
Ho1281 C1292 2.811 . S
Ho1281 O1301 2.346 . S
Ho1281 O1305 2.305 . S
Ho1281 O1306 2.322 . S
Ho1281 O1308 2.378 . S
Ho1281 O1309 2.524 . S
Ho1281 O1310 2.381 . S
Ho1281 O1311 2.669 . S
C1282 O1300 1.259 . S
C1282 O1301 1.268 . S
C1283 Ho1280 2.811 . S
C1283 C1284 1.488 . S
C1283 O1302 1.215 . S
C1283 O1303 1.289 . S
C1284 C1283 1.488 . S
C1284 C1285 1.348 . S
C1284 C1289 1.413 1_655 S
C1285 C1284 1.348 . S
C1285 C1286 1.442 1_655 S
C1285 H1312 0.930 . S
C1286 C1285 1.442 1_455 S
C1286 C1287 1.381 . S
C1286 H1313 0.931 . S
C1287 C1286 1.381 . S
C1287 C1288 1.321 . S
C1288 C1287 1.321 . S
C1288 C1289 1.403 . S
C1288 H1314 0.934 . S
C1289 C1284 1.413 1_455 S
C1289 C1288 1.403 . S
C1289 H1315 0.930 1_455 S
C1290 O1304 1.275 . S
C1290 O1305 1.256 . S
C1291 O1306 1.259 . S
C1291 O1307 1.268 . S
C1292 Ho1281 2.811 . S
C1292 C1293 1.488 . S
C1292 O1308 1.215 . S
C1292 O1309 1.289 . S
C1293 C1292 1.488 . S
C1293 C1294 1.348 . S
C1293 C1298 1.413 . S
C1294 C1293 1.348 . S
C1294 C1295 1.442 . S
C1294 H1316 0.930 . S
C1295 C1294 1.442 . S
C1295 C1296 1.381 . S
C1295 H1317 0.931 . S
C1296 C1295 1.381 . S
C1296 C1297 1.321 . S
C1297 C1296 1.321 . S
C1297 C1298 1.403 . S
C1297 H1318 0.934 . S
C1298 C1293 1.413 . S
C1298 C1297 1.403 . S
C1298 H1319 0.930 . S
C1299 O1310 1.275 . S
C1299 O1311 1.256 . S
O1300 Ho1280 2.322 . S
O1300 C1282 1.259 . S
O1301 Ho1281 2.346 . S
O1301 C1282 1.268 . S
O1302 Ho1280 2.378 . S
O1302 C1283 1.215 . S
O1303 Ho1280 2.524 . S
O1303 C1283 1.289 . S
O1304 Ho1280 2.381 . S
O1304 C1290 1.275 . S
O1305 Ho1280 2.669 . S
O1305 Ho1281 2.305 . S
O1305 C1290 1.256 . S
O1306 Ho1281 2.322 . S
O1306 C1291 1.259 . S
O1307 Ho1280 2.346 . S
O1307 C1291 1.268 . S
O1308 Ho1281 2.378 . S
O1308 C1292 1.215 . S
O1309 Ho1281 2.524 . S
O1309 C1292 1.289 . S
O1310 Ho1281 2.381 . S
O1310 C1299 1.275 . S
O1311 Ho1280 2.305 . S
O1311 Ho1281 2.669 . S
O1311 C1299 1.256 . S
H1312 C1285 0.930 . S
H1313 C1286 0.931 . S
H1314 C1288 0.934 . S
H1315 C1289 0.930 1_655 S
H1316 C1294 0.930 . S
H1317 C1295 0.931 . S
H1318 C1297 0.934 . S
H1319 C1298 0.930 . S
Ho1320 C1323 2.811 . S
Ho1320 O1340 2.322 . S
Ho1320 O1342 2.378 . S
Ho1320 O1343 2.524 . S
Ho1320 O1344 2.381 . S
Ho1320 O1345 2.669 . S
Ho1320 O1347 2.346 . S
Ho1320 O1351 2.305 . S
Ho1321 C1332 2.811 . S
Ho1321 O1341 2.346 . S
Ho1321 O1345 2.305 . S
Ho1321 O1346 2.322 . S
Ho1321 O1348 2.378 . S
Ho1321 O1349 2.524 . S
Ho1321 O1350 2.381 . S
Ho1321 O1351 2.669 . S
C1322 O1340 1.259 . S
C1322 O1341 1.268 . S
C1323 Ho1320 2.811 . S
C1323 C1324 1.488 . S
C1323 O1342 1.215 . S
C1323 O1343 1.289 . S
C1324 C1323 1.488 . S
C1324 C1325 1.348 . S
C1324 C1329 1.413 . S
C1325 C1324 1.348 . S
C1325 C1326 1.442 . S
C1325 H1352 0.930 . S
C1326 C1325 1.442 . S
C1326 C1327 1.381 . S
C1326 H1353 0.931 . S
C1327 C1326 1.381 . S
C1327 C1328 1.321 . S
C1328 C1327 1.321 . S
C1328 C1329 1.403 . S
C1328 H1354 0.934 . S
C1329 C1324 1.413 . S
C1329 C1328 1.403 . S
C1329 H1355 0.930 . S
C1330 O1344 1.275 . S
C1330 O1345 1.256 . S
C1331 O1346 1.259 . S
C1331 O1347 1.268 . S
C1332 Ho1321 2.811 . S
C1332 C1333 1.488 . S
C1332 O1348 1.215 . S
C1332 O1349 1.289 . S
C1333 C1332 1.488 . S
C1333 C1334 1.348 . S
C1333 C1338 1.413 . S
C1334 C1333 1.348 . S
C1334 C1335 1.442 . S
C1334 H1356 0.930 . S
C1335 C1334 1.442 . S
C1335 C1336 1.381 . S
C1335 H1357 0.931 . S
C1336 C1335 1.381 . S
C1336 C1337 1.321 . S
C1337 C1336 1.321 . S
C1337 C1338 1.403 . S
C1337 H1358 0.934 . S
C1338 C1333 1.413 . S
C1338 C1337 1.403 . S
C1338 H1359 0.930 . S
C1339 O1350 1.275 . S
C1339 O1351 1.256 . S
O1340 Ho1320 2.322 . S
O1340 C1322 1.259 . S
O1341 Ho1321 2.346 . S
O1341 C1322 1.268 . S
O1342 Ho1320 2.378 . S
O1342 C1323 1.215 . S
O1343 Ho1320 2.524 . S
O1343 C1323 1.289 . S
O1344 Ho1320 2.381 . S
O1344 C1330 1.275 . S
O1345 Ho1320 2.669 . S
O1345 Ho1321 2.305 . S
O1345 C1330 1.256 . S
O1346 Ho1321 2.322 . S
O1346 C1331 1.259 . S
O1347 Ho1320 2.346 . S
O1347 C1331 1.268 . S
O1348 Ho1321 2.378 . S
O1348 C1332 1.215 . S
O1349 Ho1321 2.524 . S
O1349 C1332 1.289 . S
O1350 Ho1321 2.381 . S
O1350 C1339 1.275 . S
O1351 Ho1320 2.305 . S
O1351 Ho1321 2.669 . S
O1351 C1339 1.256 . S
H1352 C1325 0.930 . S
H1353 C1326 0.931 . S
H1354 C1328 0.934 . S
H1355 C1329 0.930 . S
H1356 C1334 0.930 . S
H1357 C1335 0.931 . S
H1358 C1337 0.934 . S
H1359 C1338 0.930 . S
Ho1360 C1363 2.811 . S
Ho1360 O1380 2.322 . S
Ho1360 O1382 2.378 . S
Ho1360 O1383 2.524 . S
Ho1360 O1384 2.381 . S
Ho1360 O1385 2.669 . S
Ho1360 O1387 2.346 . S
Ho1360 O1391 2.305 . S
Ho1361 C1372 2.811 . S
Ho1361 O1381 2.346 . S
Ho1361 O1385 2.305 . S
Ho1361 O1386 2.322 . S
Ho1361 O1388 2.378 . S
Ho1361 O1389 2.524 . S
Ho1361 O1390 2.381 . S
Ho1361 O1391 2.669 . S
C1362 O1380 1.259 . S
C1362 O1381 1.268 . S
C1363 Ho1360 2.811 . S
C1363 C1364 1.488 . S
C1363 O1382 1.215 . S
C1363 O1383 1.289 . S
C1364 C1363 1.488 . S
C1364 C1365 1.348 . S
C1364 C1369 1.413 . S
C1365 C1364 1.348 . S
C1365 C1366 1.442 . S
C1365 H1392 0.930 . S
C1366 C1365 1.442 . S
C1366 C1367 1.381 . S
C1366 H1393 0.931 . S
C1367 C1366 1.381 . S
C1367 C1368 1.321 . S
C1368 C1367 1.321 . S
C1368 C1369 1.403 . S
C1368 H1394 0.934 . S
C1369 C1364 1.413 . S
C1369 C1368 1.403 . S
C1369 H1395 0.930 . S
C1370 O1384 1.275 . S
C1370 O1385 1.256 . S
C1371 O1386 1.259 . S
C1371 O1387 1.268 . S
C1372 Ho1361 2.811 . S
C1372 C1373 1.488 . S
C1372 O1388 1.215 . S
C1372 O1389 1.289 . S
C1373 C1372 1.488 . S
C1373 C1374 1.348 . S
C1373 C1378 1.401 1_545 S
C1374 C1373 1.348 . S
C1374 C1375 1.442 1_545 S
C1374 H1396 0.930 . S
C1375 C1374 1.442 1_565 S
C1375 C1376 1.381 . S
C1375 H1397 0.931 . S
C1376 C1375 1.381 . S
C1376 C1377 1.321 . S
C1377 C1376 1.321 . S
C1377 C1378 1.430 . S
C1377 H1398 0.934 . S
C1378 C1373 1.401 1_565 S
C1378 C1377 1.430 . S
C1378 H1399 0.915 1_565 S
C1379 O1390 1.275 . S
C1379 O1391 1.256 . S
O1380 Ho1360 2.322 . S
O1380 C1362 1.259 . S
O1381 Ho1361 2.346 . S
O1381 C1362 1.268 . S
O1382 Ho1360 2.378 . S
O1382 C1363 1.215 . S
O1383 Ho1360 2.524 . S
O1383 C1363 1.289 . S
O1384 Ho1360 2.381 . S
O1384 C1370 1.275 . S
O1385 Ho1360 2.669 . S
O1385 Ho1361 2.305 . S
O1385 C1370 1.256 . S
O1386 Ho1361 2.322 . S
O1386 C1371 1.259 . S
O1387 Ho1360 2.346 . S
O1387 C1371 1.268 . S
O1388 Ho1361 2.378 . S
O1388 C1372 1.215 . S
O1389 Ho1361 2.524 . S
O1389 C1372 1.289 . S
O1390 Ho1361 2.381 . S
O1390 C1379 1.275 . S
O1391 Ho1360 2.305 . S
O1391 Ho1361 2.669 . S
O1391 C1379 1.256 . S
H1392 C1365 0.930 . S
H1393 C1366 0.931 . S
H1394 C1368 0.934 . S
H1395 C1369 0.930 . S
H1396 C1374 0.930 . S
H1397 C1375 0.931 . S
H1398 C1377 0.934 . S
H1399 C1378 0.915 1_545 S
Ho1400 C1403 2.811 . S
Ho1400 O1420 2.322 . S
Ho1400 O1422 2.378 . S
Ho1400 O1423 2.524 . S
Ho1400 O1424 2.381 . S
Ho1400 O1425 2.669 . S
Ho1400 O1427 2.346 . S
Ho1400 O1431 2.305 . S
Ho1401 C1412 2.811 1_655 S
Ho1401 O1421 2.346 . S
Ho1401 O1425 2.305 . S
Ho1401 O1426 2.322 . S
Ho1401 O1428 2.378 . S
Ho1401 O1429 2.524 . S
Ho1401 O1430 2.381 . S
Ho1401 O1431 2.669 . S
C1402 O1420 1.259 . S
C1402 O1421 1.268 . S
C1403 Ho1400 2.811 . S
C1403 C1404 1.488 . S
C1403 O1422 1.215 . S
C1403 O1423 1.289 . S
C1404 C1403 1.488 . S
C1404 C1405 1.348 . S
C1404 C1409 1.413 . S
C1405 C1404 1.348 . S
C1405 C1406 1.442 . S
C1405 H1432 0.930 . S
C1406 C1405 1.442 . S
C1406 C1407 1.381 . S
C1406 H1433 0.931 . S
C1407 C1406 1.381 . S
C1407 C1408 1.321 . S
C1408 C1407 1.321 . S
C1408 C1409 1.403 . S
C1408 H1434 0.934 . S
C1409 C1404 1.413 . S
C1409 C1408 1.403 . S
C1409 H1435 0.930 . S
C1410 O1424 1.275 . S
C1410 O1425 1.256 . S
C1411 O1426 1.259 . S
C1411 O1427 1.268 . S
C1412 Ho1401 2.811 1_455 S
C1412 C1413 1.488 . S
C1412 O1428 1.215 1_455 S
C1412 O1429 1.289 1_455 S
C1413 C1412 1.488 . S
C1413 C1414 1.348 . S
C1413 C1418 1.413 . S
C1414 C1413 1.348 . S
C1414 C1415 1.442 . S
C1414 H1436 0.930 . S
C1415 C1414 1.442 . S
C1415 C1416 1.381 . S
C1415 H1437 0.931 . S
C1416 C1415 1.381 . S
C1416 C1417 1.321 . S
C1417 C1416 1.321 . S
C1417 C1418 1.403 . S
C1417 H1438 0.934 . S
C1418 C1413 1.413 . S
C1418 C1417 1.403 . S
C1418 H1439 0.930 . S
C1419 O1430 1.275 . S
C1419 O1431 1.256 . S
O1420 Ho1400 2.322 . S
O1420 C1402 1.259 . S
O1421 Ho1401 2.346 . S
O1421 C1402 1.268 . S
O1422 Ho1400 2.378 . S
O1422 C1403 1.215 . S
O1423 Ho1400 2.524 . S
O1423 C1403 1.289 . S
O1424 Ho1400 2.381 . S
O1424 C1410 1.275 . S
O1425 Ho1400 2.669 . S
O1425 Ho1401 2.305 . S
O1425 C1410 1.256 . S
O1426 Ho1401 2.322 . S
O1426 C1411 1.259 . S
O1427 Ho1400 2.346 . S
O1427 C1411 1.268 . S
O1428 Ho1401 2.378 . S
O1428 C1412 1.215 1_655 S
O1429 Ho1401 2.524 . S
O1429 C1412 1.289 1_655 S
O1430 Ho1401 2.381 . S
O1430 C1419 1.275 . S
O1431 Ho1400 2.305 . S
O1431 Ho1401 2.669 . S
O1431 C1419 1.256 . S
H1432 C1405 0.930 . S
H1433 C1406 0.931 . S
H1434 C1408 0.934 . S
H1435 C1409 0.930 . S
H1436 C1414 0.930 . S
H1437 C1415 0.931 . S
H1438 C1417 0.934 . S
H1439 C1418 0.930 . S
H1440 C1446 0.930 . S
H1441 C1449 0.930 . S
H1442 C1450 0.930 . S
H1443 C1451 0.930 . S
H1444 C1454 0.930 . S
H1445 C1455 0.930 . S
C1446 H1440 0.930 . S
C1446 C1447 1.355 . S
C1446 C1448 1.415 . S
C1447 C1446 1.355 . S
C1447 C1449 1.419 . S
C1448 C1446 1.415 . S
C1448 C1453 1.425 . S
C1448 C1455 1.409 . S
C1449 H1441 0.930 . S
C1449 C1447 1.419 . S
C1449 C1450 1.362 . S
C1450 H1442 0.930 . S
C1450 C1449 1.362 . S
C1450 C1453 1.409 . S
C1451 H1443 0.930 . S
C1451 C1452 1.355 . S
C1451 C1453 1.415 . S
C1452 C1451 1.355 . S
C1452 C1454 1.419 . S
C1453 C1448 1.425 . S
C1453 C1450 1.409 . S
C1453 C1451 1.415 . S
C1454 H1444 0.930 . S
C1454 C1452 1.419 . S
C1454 C1455 1.362 . S
C1455 H1445 0.930 . S
C1455 C1448 1.409 . S
C1455 C1454 1.362 . S
H1456 C1462 0.930 . S
H1457 C1465 0.930 . S
H1458 C1466 0.930 . S
H1459 C1467 0.930 . S
H1460 C1470 0.927 1_455 S
H1461 C1471 0.930 . S
C1462 H1456 0.930 . S
C1462 C1463 1.355 . S
C1462 C1464 1.415 . S
C1463 C1462 1.355 . S
C1463 C1465 1.419 . S
C1464 C1462 1.415 . S
C1464 C1469 1.425 . S
C1464 C1471 1.409 . S
C1465 H1457 0.930 . S
C1465 C1463 1.419 . S
C1465 C1466 1.362 . S
C1466 H1458 0.930 . S
C1466 C1465 1.362 . S
C1466 C1469 1.409 . S
C1467 H1459 0.930 . S
C1467 C1468 1.355 . S
C1467 C1469 1.415 . S
C1468 C1467 1.355 . S
C1468 C1470 1.424 . S
C1469 C1464 1.425 . S
C1469 C1466 1.409 . S
C1469 C1467 1.415 . S
C1470 H1460 0.927 1_655 S
C1470 C1468 1.424 . S
C1470 C1471 1.362 . S
C1471 H1461 0.930 . S
C1471 C1464 1.409 . S
C1471 C1470 1.362 . S
H1472 C1478 0.930 . S
H1473 C1481 0.930 . S
H1474 C1482 0.930 . S
H1475 C1483 0.930 . S
H1476 C1486 0.930 . S
H1477 C1487 0.930 . S
C1478 H1472 0.930 . S
C1478 C1479 1.355 . S
C1478 C1480 1.415 . S
C1479 C1478 1.355 . S
C1479 C1481 1.419 . S
C1480 C1478 1.415 . S
C1480 C1485 1.425 . S
C1480 C1487 1.409 . S
C1481 H1473 0.930 . S
C1481 C1479 1.419 . S
C1481 C1482 1.362 . S
C1482 H1474 0.930 . S
C1482 C1481 1.362 . S
C1482 C1485 1.409 . S
C1483 H1475 0.930 . S
C1483 C1484 1.355 . S
C1483 C1485 1.415 . S
C1484 C1483 1.355 . S
C1484 C1486 1.419 . S
C1485 C1480 1.425 . S
C1485 C1482 1.409 . S
C1485 C1483 1.415 . S
C1486 H1476 0.930 . S
C1486 C1484 1.419 . S
C1486 C1487 1.362 . S
C1487 H1477 0.930 . S
C1487 C1480 1.409 . S
C1487 C1486 1.362 . S
H1488 C1494 0.930 . S
H1489 C1497 0.930 . S
H1490 C1498 0.930 . S
H1491 C1499 0.930 . S
H1492 C1502 0.930 . S
H1493 C1503 0.930 . S
C1494 H1488 0.930 . S
C1494 C1495 1.355 . S
C1494 C1496 1.415 . S
C1495 C1494 1.355 . S
C1495 C1497 1.419 . S
C1496 C1494 1.415 . S
C1496 C1501 1.425 . S
C1496 C1503 1.409 . S
C1497 H1489 0.930 . S
C1497 C1495 1.419 . S
C1497 C1498 1.362 . S
C1498 H1490 0.930 . S
C1498 C1497 1.362 . S
C1498 C1501 1.409 . S
C1499 H1491 0.930 . S
C1499 C1500 1.355 . S
C1499 C1501 1.415 . S
C1500 C1499 1.355 . S
C1500 C1502 1.419 . S
C1501 C1496 1.425 . S
C1501 C1498 1.409 . S
C1501 C1499 1.415 . S
C1502 H1492 0.930 . S
C1502 C1500 1.419 . S
C1502 C1503 1.362 . S
C1503 H1493 0.930 . S
C1503 C1496 1.409 . S
C1503 C1502 1.362 . S
H1504 C1510 0.930 . S
H1505 C1513 0.930 . S
H1506 C1514 0.930 . S
H1507 C1515 0.930 . S
H1508 C1518 0.930 . S
H1509 C1519 0.930 . S
C1510 H1504 0.930 . S
C1510 C1511 1.355 . S
C1510 C1512 1.415 . S
C1511 C1510 1.355 . S
C1511 C1513 1.419 . S
C1512 C1510 1.415 . S
C1512 C1517 1.425 . S
C1512 C1519 1.409 . S
C1513 H1505 0.930 . S
C1513 C1511 1.419 . S
C1513 C1514 1.362 . S
C1514 H1506 0.930 . S
C1514 C1513 1.362 . S
C1514 C1517 1.409 . S
C1515 H1507 0.930 . S
C1515 C1516 1.355 . S
C1515 C1517 1.415 . S
C1516 C1515 1.355 . S
C1516 C1518 1.419 . S
C1517 C1512 1.425 . S
C1517 C1514 1.409 . S
C1517 C1515 1.415 . S
C1518 H1508 0.930 . S
C1518 C1516 1.419 . S
C1518 C1519 1.362 . S
C1519 H1509 0.930 . S
C1519 C1512 1.409 . S
C1519 C1518 1.362 . S
H1520 C1526 0.930 . S
H1521 C1529 0.930 . S
H1522 C1530 0.930 . S
H1523 C1531 0.930 1_545 S
H1524 C1534 0.930 . S
H1525 C1535 0.930 . S
C1526 H1520 0.930 . S
C1526 C1527 1.355 . S
C1526 C1528 1.415 . S
C1527 C1526 1.355 . S
C1527 C1529 1.419 . S
C1528 C1526 1.415 . S
C1528 C1533 1.425 . S
C1528 C1535 1.409 . S
C1529 H1521 0.930 . S
C1529 C1527 1.419 . S
C1529 C1530 1.362 . S
C1530 H1522 0.930 . S
C1530 C1529 1.362 . S
C1530 C1533 1.409 . S
C1531 H1523 0.930 1_565 S
C1531 C1532 1.355 . S
C1531 C1533 1.415 . S
C1532 C1531 1.355 . S
C1532 C1534 1.419 . S
C1533 C1528 1.425 . S
C1533 C1530 1.409 . S
C1533 C1531 1.415 . S
C1534 H1524 0.930 . S
C1534 C1532 1.419 . S
C1534 C1535 1.362 . S
C1535 H1525 0.930 . S
C1535 C1528 1.409 . S
C1535 C1534 1.362 . S
H1536 C1542 0.930 . S
H1537 C1545 0.930 . S
H1538 C1546 0.933 1_545 S
H1539 C1547 0.930 . S
H1540 C1550 0.930 . S
H1541 C1551 0.930 . S
C1542 H1536 0.930 . S
C1542 C1543 1.355 . S
C1542 C1544 1.415 . S
C1543 C1542 1.355 . S
C1543 C1545 1.419 1_565 S
C1544 C1542 1.415 . S
C1544 C1549 1.425 . S
C1544 C1551 1.409 . S
C1545 H1537 0.930 . S
C1545 C1543 1.419 1_545 S
C1545 C1546 1.362 1_545 S
C1546 H1538 0.933 1_565 S
C1546 C1545 1.362 1_565 S
C1546 C1549 1.409 . S
C1547 H1539 0.930 . S
C1547 C1548 1.355 . S
C1547 C1549 1.415 . S
C1548 C1547 1.355 . S
C1548 C1550 1.419 . S
C1549 C1544 1.425 . S
C1549 C1546 1.409 . S
C1549 C1547 1.415 . S
C1550 H1540 0.930 . S
C1550 C1548 1.419 . S
C1550 C1551 1.362 . S
C1551 H1541 0.930 . S
C1551 C1544 1.409 . S
C1551 C1550 1.362 . S
H1552 C1558 0.930 . S
H1553 C1561 0.930 . S
H1554 C1562 0.930 . S
H1555 C1563 0.930 . S
H1556 C1566 0.930 . S
H1557 C1567 0.930 . S
C1558 H1552 0.930 . S
C1558 C1559 1.355 . S
C1558 C1560 1.415 . S
C1559 C1558 1.355 . S
C1559 C1561 1.419 . S
C1560 C1558 1.415 . S
C1560 C1565 1.425 . S
C1560 C1567 1.409 . S
C1561 H1553 0.930 . S
C1561 C1559 1.419 . S
C1561 C1562 1.362 . S
C1562 H1554 0.930 . S
C1562 C1561 1.362 . S
C1562 C1565 1.409 . S
C1563 H1555 0.930 . S
C1563 C1564 1.355 . S
C1563 C1565 1.415 . S
C1564 C1563 1.355 . S
C1564 C1566 1.419 . S
C1565 C1560 1.425 . S
C1565 C1562 1.409 . S
C1565 C1563 1.415 . S
C1566 H1556 0.930 . S
C1566 C1564 1.419 . S
C1566 C1567 1.362 . S
C1567 H1557 0.930 . S
C1567 C1560 1.409 . S
C1567 C1566 1.362 . S
H1568 C1574 0.930 . S
H1569 C1577 0.930 . S
H1570 C1578 0.930 . S
H1571 C1579 0.930 . S
H1572 C1582 0.930 . S
H1573 C1583 0.930 . S
C1574 H1568 0.930 . S
C1574 C1575 1.355 . S
C1574 C1576 1.415 . S
C1575 C1574 1.355 . S
C1575 C1577 1.419 . S
C1576 C1574 1.415 . S
C1576 C1581 1.425 . S
C1576 C1583 1.409 . S
C1577 H1569 0.930 . S
C1577 C1575 1.419 . S
C1577 C1578 1.362 . S
C1578 H1570 0.930 . S
C1578 C1577 1.362 . S
C1578 C1581 1.409 . S
C1579 H1571 0.930 . S
C1579 C1580 1.355 . S
C1579 C1581 1.415 . S
C1580 C1579 1.355 . S
C1580 C1582 1.419 . S
C1581 C1576 1.425 . S
C1581 C1578 1.409 . S
C1581 C1579 1.415 . S
C1582 H1572 0.930 . S
C1582 C1580 1.419 . S
C1582 C1583 1.362 . S
C1583 H1573 0.930 . S
C1583 C1576 1.409 . S
C1583 C1582 1.362 . S
H1584 C1590 0.930 . S
H1585 C1593 0.930 . S
H1586 C1594 0.930 . S
H1587 C1595 0.930 . S
H1588 C1598 0.930 . S
H1589 C1599 0.930 . S
C1590 H1584 0.930 . S
C1590 C1591 1.355 . S
C1590 C1592 1.415 . S
C1591 C1590 1.355 . S
C1591 C1593 1.419 . S
C1592 C1590 1.415 . S
C1592 C1597 1.425 . S
C1592 C1599 1.409 1_655 S
C1593 H1585 0.930 . S
C1593 C1591 1.419 . S
C1593 C1594 1.362 . S
C1594 H1586 0.930 . S
C1594 C1593 1.362 . S
C1594 C1597 1.409 . S
C1595 H1587 0.930 . S
C1595 C1596 1.355 . S
C1595 C1597 1.415 . S
C1596 C1595 1.355 . S
C1596 C1598 1.419 1_655 S
C1597 C1592 1.425 . S
C1597 C1594 1.409 . S
C1597 C1595 1.415 . S
C1598 H1588 0.930 . S
C1598 C1596 1.419 1_455 S
C1598 C1599 1.362 . S
C1599 H1589 0.930 . S
C1599 C1592 1.409 1_455 S
C1599 C1598 1.362 . S
H1600 C1606 0.930 . S
H1601 C1609 0.930 . S
H1602 C1610 0.930 . S
H1603 C1611 0.930 . S
H1604 C1614 0.930 . S
H1605 C1615 0.930 . S
C1606 H1600 0.930 . S
C1606 C1607 1.355 . S
C1606 C1608 1.415 . S
C1607 C1606 1.355 . S
C1607 C1609 1.419 . S
C1608 C1606 1.415 . S
C1608 C1613 1.425 . S
C1608 C1615 1.409 . S
C1609 H1601 0.930 . S
C1609 C1607 1.419 . S
C1609 C1610 1.362 . S
C1610 H1602 0.930 . S
C1610 C1609 1.362 . S
C1610 C1613 1.409 . S
C1611 H1603 0.930 . S
C1611 C1612 1.355 . S
C1611 C1613 1.415 . S
C1612 C1611 1.355 . S
C1612 C1614 1.419 . S
C1613 C1608 1.425 . S
C1613 C1610 1.409 . S
C1613 C1611 1.415 . S
C1614 H1604 0.930 . S
C1614 C1612 1.419 . S
C1614 C1615 1.362 . S
C1615 H1605 0.930 . S
C1615 C1608 1.409 . S
C1615 C1614 1.362 . S
H1616 C1622 0.930 . S
H1617 C1625 0.930 . S
H1618 C1626 0.930 . S
H1619 C1627 0.930 . S
H1620 C1630 0.930 . S
H1621 C1631 0.930 . S
C1622 H1616 0.930 . S
C1622 C1623 1.355 . S
C1622 C1624 1.415 . S
C1623 C1622 1.355 . S
C1623 C1625 1.419 . S
C1624 C1622 1.415 . S
C1624 C1629 1.425 . S
C1624 C1631 1.409 . S
C1625 H1617 0.930 . S
C1625 C1623 1.419 . S
C1625 C1626 1.362 . S
C1626 H1618 0.930 . S
C1626 C1625 1.362 . S
C1626 C1629 1.409 . S
C1627 H1619 0.930 . S
C1627 C1628 1.355 . S
C1627 C1629 1.415 . S
C1628 C1627 1.355 . S
C1628 C1630 1.419 . S
C1629 C1624 1.425 . S
C1629 C1626 1.409 . S
C1629 C1627 1.415 . S
C1630 H1620 0.930 . S
C1630 C1628 1.419 . S
C1630 C1631 1.362 . S
C1631 H1621 0.930 . S
C1631 C1624 1.409 . S
C1631 C1630 1.362 . S
H1632 C1638 0.930 . S
H1633 C1641 0.930 . S
H1634 C1642 0.930 . S
H1635 C1643 0.930 . S
H1636 C1646 0.930 . S
H1637 C1647 0.930 . S
C1638 H1632 0.930 . S
C1638 C1639 1.355 . S
C1638 C1640 1.415 . S
C1639 C1638 1.355 . S
C1639 C1641 1.419 . S
C1640 C1638 1.415 . S
C1640 C1645 1.425 . S
C1640 C1647 1.409 . S
C1641 H1633 0.930 . S
C1641 C1639 1.419 . S
C1641 C1642 1.362 . S
C1642 H1634 0.930 . S
C1642 C1641 1.362 . S
C1642 C1645 1.409 . S
C1643 H1635 0.930 . S
C1643 C1644 1.355 . S
C1643 C1645 1.415 . S
C1644 C1643 1.355 . S
C1644 C1646 1.419 . S
C1645 C1640 1.425 . S
C1645 C1642 1.409 . S
C1645 C1643 1.415 . S
C1646 H1636 0.930 . S
C1646 C1644 1.419 . S
C1646 C1647 1.362 . S
C1647 H1637 0.930 . S
C1647 C1640 1.409 . S
C1647 C1646 1.362 . S
H1648 C1654 0.930 . S
H1649 C1657 0.930 . S
H1650 C1658 0.930 . S
H1651 C1659 0.930 . S
H1652 C1662 0.930 . S
H1653 C1663 0.930 . S
C1654 H1648 0.930 . S
C1654 C1655 1.355 . S
C1654 C1656 1.415 1_565 S
C1655 C1654 1.355 . S
C1655 C1657 1.419 . S
C1656 C1654 1.415 1_545 S
C1656 C1661 1.425 . S
C1656 C1663 1.409 . S
C1657 H1649 0.930 . S
C1657 C1655 1.419 . S
C1657 C1658 1.362 1_565 S
C1658 H1650 0.930 . S
C1658 C1657 1.362 1_545 S
C1658 C1661 1.409 . S
C1659 H1651 0.930 . S
C1659 C1660 1.355 . S
C1659 C1661 1.415 . S
C1660 C1659 1.355 . S
C1660 C1662 1.419 . S
C1661 C1656 1.425 . S
C1661 C1658 1.409 . S
C1661 C1659 1.415 . S
C1662 H1652 0.930 . S
C1662 C1660 1.419 . S
C1662 C1663 1.362 . S
C1663 H1653 0.930 . S
C1663 C1656 1.409 . S
C1663 C1662 1.362 . S
H1664 C1670 0.930 . S
H1665 C1673 0.930 . S
H1666 C1674 0.930 . S
H1667 C1675 0.930 . S
H1668 C1678 0.930 . S
H1669 C1679 0.930 . S
C1670 H1664 0.930 . S
C1670 C1671 1.355 . S
C1670 C1672 1.415 1_655 S
C1671 C1670 1.355 . S
C1671 C1673 1.419 . S
C1672 C1670 1.415 1_455 S
C1672 C1677 1.425 . S
C1672 C1679 1.409 . S
C1673 H1665 0.930 . S
C1673 C1671 1.419 . S
C1673 C1674 1.362 . S
C1674 H1666 0.930 . S
C1674 C1673 1.362 . S
C1674 C1677 1.409 1_655 S
C1675 H1667 0.930 . S
C1675 C1676 1.355 . S
C1675 C1677 1.415 . S
C1676 C1675 1.355 . S
C1676 C1678 1.419 . S
C1677 C1672 1.425 . S
C1677 C1674 1.409 1_455 S
C1677 C1675 1.415 . S
C1678 H1668 0.930 . S
C1678 C1676 1.419 . S
C1678 C1679 1.362 . S
C1679 H1669 0.930 . S
C1679 C1672 1.409 . S
C1679 C1678 1.362 . S
H1680 C1686 0.930 . S
H1681 C1689 0.930 . S
H1682 C1690 0.930 . S
H1683 C1691 0.930 . S
H1684 C1694 0.930 . S
H1685 C1695 0.930 . S
C1686 H1680 0.930 . S
C1686 C1687 1.355 . S
C1686 C1688 1.415 . S
C1687 C1686 1.355 . S
C1687 C1689 1.419 . S
C1688 C1686 1.415 . S
C1688 C1693 1.425 . S
C1688 C1695 1.409 . S
C1689 H1681 0.930 . S
C1689 C1687 1.419 . S
C1689 C1690 1.362 . S
C1690 H1682 0.930 . S
C1690 C1689 1.362 . S
C1690 C1693 1.409 . S
C1691 H1683 0.930 . S
C1691 C1692 1.355 . S
C1691 C1693 1.415 . S
C1692 C1691 1.355 . S
C1692 C1694 1.419 . S
C1693 C1688 1.425 . S
C1693 C1690 1.409 . S
C1693 C1691 1.415 . S
C1694 H1684 0.930 . S
C1694 C1692 1.419 . S
C1694 C1695 1.362 . S
C1695 H1685 0.930 . S
C1695 C1688 1.409 . S
C1695 C1694 1.362 . S
H1696 C1702 0.930 . S
H1697 C1705 0.930 . S
H1698 C1706 0.930 . S
H1699 C1707 0.930 . S
H1700 C1710 0.930 . S
H1701 C1711 0.930 . S
C1702 H1696 0.930 . S
C1702 C1703 1.355 . S
C1702 C1704 1.415 1_565 S
C1703 C1702 1.355 . S
C1703 C1705 1.419 . S
C1704 C1702 1.415 1_545 S
C1704 C1709 1.425 . S
C1704 C1711 1.409 . S
C1705 H1697 0.930 . S
C1705 C1703 1.419 . S
C1705 C1706 1.362 1_565 S
C1706 H1698 0.930 . S
C1706 C1705 1.362 1_545 S
C1706 C1709 1.409 . S
C1707 H1699 0.930 . S
C1707 C1708 1.355 . S
C1707 C1709 1.415 . S
C1708 C1707 1.355 . S
C1708 C1710 1.419 . S
C1709 C1704 1.425 . S
C1709 C1706 1.409 . S
C1709 C1707 1.415 . S
C1710 H1700 0.930 . S
C1710 C1708 1.419 . S
C1710 C1711 1.362 . S
C1711 H1701 0.930 . S
C1711 C1704 1.409 . S
C1711 C1710 1.362 . S
H1712 C1718 0.930 . S
H1713 C1721 0.930 . S
H1714 C1722 0.930 . S
H1715 C1723 0.930 . S
H1716 C1726 0.930 . S
H1717 C1727 0.930 . S
C1718 H1712 0.930 . S
C1718 C1719 1.355 . S
C1718 C1720 1.415 1_655 S
C1719 C1718 1.355 . S
C1719 C1721 1.419 . S
C1720 C1718 1.415 1_455 S
C1720 C1725 1.425 . S
C1720 C1727 1.409 . S
C1721 H1713 0.930 . S
C1721 C1719 1.419 . S
C1721 C1722 1.362 1_655 S
C1722 H1714 0.930 . S
C1722 C1721 1.362 1_455 S
C1722 C1725 1.409 . S
C1723 H1715 0.930 . S
C1723 C1724 1.355 . S
C1723 C1725 1.415 . S
C1724 C1723 1.355 . S
C1724 C1726 1.419 . S
C1725 C1720 1.425 . S
C1725 C1722 1.409 . S
C1725 C1723 1.415 . S
C1726 H1716 0.930 . S
C1726 C1724 1.419 . S
C1726 C1727 1.362 . S
C1727 H1717 0.930 . S
C1727 C1720 1.409 . S
C1727 C1726 1.362 . S
H1728 C1734 0.930 1_565 S
H1729 C1737 0.930 . S
H1730 C1738 0.930 . S
H1731 C1739 0.930 . S
H1732 C1742 0.930 1_565 S
H1733 C1743 0.930 . S
C1734 H1728 0.930 1_545 S
C1734 C1735 1.355 . S
C1734 C1736 1.415 . S
C1735 C1734 1.355 . S
C1735 C1737 1.419 . S
C1736 C1734 1.415 . S
C1736 C1741 1.425 1_554 S
C1736 C1743 1.409 1_544 S
C1737 H1729 0.930 . S
C1737 C1735 1.419 . S
C1737 C1738 1.362 . S
C1738 H1730 0.930 . S
C1738 C1737 1.362 . S
C1738 C1741 1.409 1_554 S
C1739 H1731 0.930 . S
C1739 C1740 1.355 . S
C1739 C1741 1.415 . S
C1740 C1739 1.355 . S
C1740 C1742 1.419 . S
C1741 C1736 1.425 1_556 S
C1741 C1738 1.409 1_556 S
C1741 C1739 1.415 . S
C1742 H1732 0.930 1_545 S
C1742 C1740 1.419 . S
C1742 C1743 1.362 1_545 S
C1743 H1733 0.930 . S
C1743 C1736 1.409 1_566 S
C1743 C1742 1.362 1_565 S
H1744 C1750 0.910 1_655 S
H1745 C1753 0.930 . S
H1746 C1754 0.930 . S
H1747 C1755 0.930 . S
H1748 C1758 0.930 . S
H1749 C1759 0.930 . S
C1750 H1744 0.910 1_455 S
C1750 C1751 1.369 . S
C1750 C1752 1.420 . S
C1751 C1750 1.369 . S
C1751 C1753 1.419 . S
C1752 C1750 1.420 . S
C1752 C1757 1.425 1_556 S
C1752 C1759 1.409 1_456 S
C1753 H1745 0.930 . S
C1753 C1751 1.419 . S
C1753 C1754 1.362 . S
C1754 H1746 0.930 . S
C1754 C1753 1.362 . S
C1754 C1757 1.409 1_556 S
C1755 H1747 0.930 . S
C1755 C1756 1.355 . S
C1755 C1757 1.415 . S
C1756 C1755 1.355 . S
C1756 C1758 1.419 1_455 S
C1757 C1752 1.425 1_554 S
C1757 C1754 1.409 1_554 S
C1757 C1755 1.415 . S
C1758 H1748 0.930 . S
C1758 C1756 1.419 1_655 S
C1758 C1759 1.362 . S
C1759 H1749 0.930 . S
C1759 C1752 1.409 1_654 S
C1759 C1758 1.362 . S
H1760 C1766 0.930 . S
H1761 C1769 0.930 . S
H1762 C1770 0.930 . S
H1763 C1771 0.930 . S
H1764 C1774 0.930 . S
H1765 C1775 0.930 . S
C1766 H1760 0.930 . S
C1766 C1767 1.355 . S
C1766 C1768 1.415 . S
C1767 C1766 1.355 . S
C1767 C1769 1.419 . S
C1768 C1766 1.415 . S
C1768 C1773 1.425 1_554 S
C1768 C1775 1.409 1_554 S
C1769 H1761 0.930 . S
C1769 C1767 1.419 . S
C1769 C1770 1.362 . S
C1770 H1762 0.930 . S
C1770 C1769 1.362 . S
C1770 C1773 1.409 1_554 S
C1771 H1763 0.930 . S
C1771 C1772 1.355 . S
C1771 C1773 1.415 . S
C1772 C1771 1.355 . S
C1772 C1774 1.419 . S
C1773 C1768 1.425 1_556 S
C1773 C1770 1.409 1_556 S
C1773 C1771 1.415 . S
C1774 H1764 0.930 . S
C1774 C1772 1.419 . S
C1774 C1775 1.362 . S
C1775 H1765 0.930 . S
C1775 C1768 1.409 1_556 S
C1775 C1774 1.362 . S
H1776 C1782 0.930 . S
H1777 C1785 0.930 . S
H1778 C1786 0.930 . S
H1779 C1787 0.930 . S
H1780 C1790 0.930 . S
H1781 C1791 0.930 . S
C1782 H1776 0.930 . S
C1782 C1783 1.355 . S
C1782 C1784 1.415 . S
C1783 C1782 1.355 . S
C1783 C1785 1.419 . S
C1784 C1782 1.415 . S
C1784 C1789 1.425 . S
C1784 C1791 1.409 . S
C1785 H1777 0.930 . S
C1785 C1783 1.419 . S
C1785 C1786 1.362 . S
C1786 H1778 0.930 . S
C1786 C1785 1.362 . S
C1786 C1789 1.409 . S
C1787 H1779 0.930 . S
C1787 C1788 1.355 . S
C1787 C1789 1.415 . S
C1788 C1787 1.355 . S
C1788 C1790 1.419 . S
C1789 C1784 1.425 . S
C1789 C1786 1.409 . S
C1789 C1787 1.415 . S
C1790 H1780 0.930 . S
C1790 C1788 1.419 . S
C1790 C1791 1.362 . S
C1791 H1781 0.930 . S
C1791 C1784 1.409 . S
C1791 C1790 1.362 . S
H1792 C1798 0.930 . S
H1793 C1801 0.930 . S
H1794 C1802 0.930 . S
H1795 C1803 0.930 . S
H1796 C1806 0.930 . S
H1797 C1807 0.930 . S
C1798 H1792 0.930 . S
C1798 C1799 1.355 . S
C1798 C1800 1.415 . S
C1799 C1798 1.355 . S
C1799 C1801 1.419 . S
C1800 C1798 1.415 . S
C1800 C1805 1.425 . S
C1800 C1807 1.409 . S
C1801 H1793 0.930 . S
C1801 C1799 1.419 . S
C1801 C1802 1.362 . S
C1802 H1794 0.930 . S
C1802 C1801 1.362 . S
C1802 C1805 1.409 . S
C1803 H1795 0.930 . S
C1803 C1804 1.355 . S
C1803 C1805 1.415 . S
C1804 C1803 1.355 . S
C1804 C1806 1.419 . S
C1805 C1800 1.425 . S
C1805 C1802 1.409 . S
C1805 C1803 1.415 . S
C1806 H1796 0.930 . S
C1806 C1804 1.419 . S
C1806 C1807 1.362 . S
C1807 H1797 0.930 . S
C1807 C1800 1.409 . S
C1807 C1806 1.362 . S
H1808 C1814 0.930 1_565 S
H1809 C1817 0.930 . S
H1810 C1818 0.930 . S
H1811 C1819 0.930 . S
H1812 C1822 0.930 1_565 S
H1813 C1823 0.930 . S
C1814 H1808 0.930 1_545 S
C1814 C1815 1.355 . S
C1814 C1816 1.415 . S
C1815 C1814 1.355 . S
C1815 C1817 1.419 . S
C1816 C1814 1.415 . S
C1816 C1821 1.425 . S
C1816 C1823 1.409 1_545 S
C1817 H1809 0.930 . S
C1817 C1815 1.419 . S
C1817 C1818 1.362 . S
C1818 H1810 0.930 . S
C1818 C1817 1.362 . S
C1818 C1821 1.409 . S
C1819 H1811 0.930 . S
C1819 C1820 1.355 . S
C1819 C1821 1.415 . S
C1820 C1819 1.355 . S
C1820 C1822 1.419 . S
C1821 C1816 1.425 . S
C1821 C1818 1.409 . S
C1821 C1819 1.415 . S
C1822 H1812 0.930 1_545 S
C1822 C1820 1.419 . S
C1822 C1823 1.362 1_545 S
C1823 H1813 0.930 . S
C1823 C1816 1.409 1_565 S
C1823 C1822 1.362 1_565 S
H1824 C1830 0.930 . S
H1825 C1833 0.930 . S
H1826 C1834 0.930 . S
H1827 C1835 0.930 . S
H1828 C1838 0.930 . S
H1829 C1839 0.930 . S
C1830 H1824 0.930 . S
C1830 C1831 1.355 . S
C1830 C1832 1.415 . S
C1831 C1830 1.355 . S
C1831 C1833 1.419 . S
C1832 C1830 1.415 . S
C1832 C1837 1.425 . S
C1832 C1839 1.409 . S
C1833 H1825 0.930 . S
C1833 C1831 1.419 . S
C1833 C1834 1.362 . S
C1834 H1826 0.930 . S
C1834 C1833 1.362 . S
C1834 C1837 1.409 . S
C1835 H1827 0.930 . S
C1835 C1836 1.355 . S
C1835 C1837 1.415 . S
C1836 C1835 1.355 . S
C1836 C1838 1.419 . S
C1837 C1832 1.425 . S
C1837 C1834 1.409 . S
C1837 C1835 1.415 . S
C1838 H1828 0.930 . S
C1838 C1836 1.419 . S
C1838 C1839 1.362 . S
C1839 H1829 0.930 . S
C1839 C1832 1.409 . S
C1839 C1838 1.362 . S
H1840 C1846 0.930 . S
H1841 C1849 0.930 . S
H1842 C1850 0.930 . S
H1843 C1851 0.930 . S
H1844 C1854 0.930 . S
H1845 C1855 0.930 . S
C1846 H1840 0.930 . S
C1846 C1847 1.355 . S
C1846 C1848 1.415 . S
C1847 C1846 1.355 . S
C1847 C1849 1.419 . S
C1848 C1846 1.415 . S
C1848 C1853 1.425 . S
C1848 C1855 1.409 . S
C1849 H1841 0.930 . S
C1849 C1847 1.419 . S
C1849 C1850 1.362 . S
C1850 H1842 0.930 . S
C1850 C1849 1.362 . S
C1850 C1853 1.409 . S
C1851 H1843 0.930 . S
C1851 C1852 1.355 . S
C1851 C1853 1.415 . S
C1852 C1851 1.355 . S
C1852 C1854 1.419 . S
C1853 C1848 1.425 . S
C1853 C1850 1.409 . S
C1853 C1851 1.415 . S
C1854 H1844 0.930 . S
C1854 C1852 1.419 . S
C1854 C1855 1.362 . S
C1855 H1845 0.930 . S
C1855 C1848 1.409 . S
C1855 C1854 1.362 . S
H1856 C1862 0.930 . S
H1857 C1865 0.930 . S
H1858 C1866 0.930 . S
H1859 C1867 0.930 . S
H1860 C1870 0.930 . S
H1861 C1871 0.930 . S
C1862 H1856 0.930 . S
C1862 C1863 1.355 . S
C1862 C1864 1.415 . S
C1863 C1862 1.355 . S
C1863 C1865 1.419 . S
C1864 C1862 1.415 . S
C1864 C1869 1.425 . S
C1864 C1871 1.409 . S
C1865 H1857 0.930 . S
C1865 C1863 1.419 . S
C1865 C1866 1.362 . S
C1866 H1858 0.930 . S
C1866 C1865 1.362 . S
C1866 C1869 1.409 . S
C1867 H1859 0.930 . S
C1867 C1868 1.355 . S
C1867 C1869 1.415 . S
C1868 C1867 1.355 . S
C1868 C1870 1.419 . S
C1869 C1864 1.425 . S
C1869 C1866 1.409 . S
C1869 C1867 1.415 . S
C1870 H1860 0.930 . S
C1870 C1868 1.419 . S
C1870 C1871 1.362 . S
C1871 H1861 0.930 . S
C1871 C1864 1.409 . S
C1871 C1870 1.362 . S
H1872 C1878 0.930 . S
H1873 C1881 0.930 . S
H1874 C1882 0.930 . S
H1875 C1883 0.930 . S
H1876 C1886 0.930 . S
H1877 C1887 0.930 . S
C1878 H1872 0.930 . S
C1878 C1879 1.355 . S
C1878 C1880 1.415 . S
C1879 C1878 1.355 . S
C1879 C1881 1.419 . S
C1880 C1878 1.415 . S
C1880 C1885 1.425 . S
C1880 C1887 1.409 . S
C1881 H1873 0.930 . S
C1881 C1879 1.419 . S
C1881 C1882 1.362 . S
C1882 H1874 0.930 . S
C1882 C1881 1.362 . S
C1882 C1885 1.409 . S
C1883 H1875 0.930 . S
C1883 C1884 1.355 . S
C1883 C1885 1.415 . S
C1884 C1883 1.355 . S
C1884 C1886 1.419 . S
C1885 C1880 1.425 . S
C1885 C1882 1.409 . S
C1885 C1883 1.415 . S
C1886 H1876 0.930 . S
C1886 C1884 1.419 . S
C1886 C1887 1.362 . S
C1887 H1877 0.930 . S
C1887 C1880 1.409 . S
C1887 C1886 1.362 . S
H1888 C1894 0.930 . S
H1889 C1897 0.930 . S
H1890 C1898 0.930 . S
H1891 C1899 0.930 . S
H1892 C1902 0.930 . S
H1893 C1903 0.930 . S
C1894 H1888 0.930 . S
C1894 C1895 1.355 . S
C1894 C1896 1.415 . S
C1895 C1894 1.355 . S
C1895 C1897 1.419 . S
C1896 C1894 1.415 . S
C1896 C1901 1.425 . S
C1896 C1903 1.409 . S
C1897 H1889 0.930 . S
C1897 C1895 1.419 . S
C1897 C1898 1.362 . S
C1898 H1890 0.930 . S
C1898 C1897 1.362 . S
C1898 C1901 1.409 . S
C1899 H1891 0.930 . S
C1899 C1900 1.355 . S
C1899 C1901 1.415 . S
C1900 C1899 1.355 . S
C1900 C1902 1.419 . S
C1901 C1896 1.425 . S
C1901 C1898 1.409 . S
C1901 C1899 1.415 . S
C1902 H1892 0.930 . S
C1902 C1900 1.419 . S
C1902 C1903 1.362 . S
C1903 H1893 0.930 . S
C1903 C1896 1.409 . S
C1903 C1902 1.362 . S
H1904 C1910 0.930 . S
H1905 C1913 0.930 . S
H1906 C1914 0.930 . S
H1907 C1915 0.930 . S
H1908 C1918 0.930 . S
H1909 C1919 0.930 . S
C1910 H1904 0.930 . S
C1910 C1911 1.355 . S
C1910 C1912 1.415 . S
C1911 C1910 1.355 . S
C1911 C1913 1.419 . S
C1912 C1910 1.415 . S
C1912 C1917 1.425 . S
C1912 C1919 1.409 . S
C1913 H1905 0.930 . S
C1913 C1911 1.419 . S
C1913 C1914 1.362 . S
C1914 H1906 0.930 . S
C1914 C1913 1.362 . S
C1914 C1917 1.409 . S
C1915 H1907 0.930 . S
C1915 C1916 1.355 . S
C1915 C1917 1.415 . S
C1916 C1915 1.355 . S
C1916 C1918 1.419 . S
C1917 C1912 1.425 . S
C1917 C1914 1.409 . S
C1917 C1915 1.415 . S
C1918 H1908 0.930 . S
C1918 C1916 1.419 . S
C1918 C1919 1.362 . S
C1919 H1909 0.930 . S
C1919 C1912 1.409 . S
C1919 C1918 1.362 . S
H1920 C1926 0.930 . S
H1921 C1929 0.930 . S
H1922 C1930 0.930 . S
H1923 C1931 0.930 . S
H1924 C1934 0.930 . S
H1925 C1935 0.930 . S
C1926 H1920 0.930 . S
C1926 C1927 1.355 . S
C1926 C1928 1.415 . S
C1927 C1926 1.355 . S
C1927 C1929 1.419 . S
C1928 C1926 1.415 . S
C1928 C1933 1.425 . S
C1928 C1935 1.409 . S
C1929 H1921 0.930 . S
C1929 C1927 1.419 . S
C1929 C1930 1.362 . S
C1930 H1922 0.930 . S
C1930 C1929 1.362 . S
C1930 C1933 1.409 . S
C1931 H1923 0.930 . S
C1931 C1932 1.355 . S
C1931 C1933 1.415 . S
C1932 C1931 1.355 . S
C1932 C1934 1.419 . S
C1933 C1928 1.425 . S
C1933 C1930 1.409 . S
C1933 C1931 1.415 . S
C1934 H1924 0.930 . S
C1934 C1932 1.419 . S
C1934 C1935 1.362 . S
C1935 H1925 0.930 . S
C1935 C1928 1.409 . S
C1935 C1934 1.362 . S
H1936 C1942 0.930 . S
H1937 C1945 0.930 . S
H1938 C1946 0.930 . S
H1939 C1947 0.930 . S
H1940 C1950 0.930 . S
H1941 C1951 0.930 . S
C1942 H1936 0.930 . S
C1942 C1943 1.355 . S
C1942 C1944 1.415 . S
C1943 C1942 1.355 . S
C1943 C1945 1.419 . S
C1944 C1942 1.415 . S
C1944 C1949 1.425 . S
C1944 C1951 1.409 . S
C1945 H1937 0.930 . S
C1945 C1943 1.419 . S
C1945 C1946 1.362 . S
C1946 H1938 0.930 . S
C1946 C1945 1.362 . S
C1946 C1949 1.409 . S
C1947 H1939 0.930 . S
C1947 C1948 1.355 . S
C1947 C1949 1.415 . S
C1948 C1947 1.355 . S
C1948 C1950 1.419 . S
C1949 C1944 1.425 . S
C1949 C1946 1.409 . S
C1949 C1947 1.415 . S
C1950 H1940 0.930 . S
C1950 C1948 1.419 . S
C1950 C1951 1.362 . S
C1951 H1941 0.930 . S
C1951 C1944 1.409 . S
C1951 C1950 1.362 . S
H1952 C1958 0.930 . S
H1953 C1961 0.930 . S
H1954 C1962 0.930 . S
H1955 C1963 0.930 . S
H1956 C1966 0.930 . S
H1957 C1967 0.930 . S
C1958 H1952 0.930 . S
C1958 C1959 1.355 . S
C1958 C1960 1.415 . S
C1959 C1958 1.355 . S
C1959 C1961 1.419 . S
C1960 C1958 1.415 . S
C1960 C1965 1.425 . S
C1960 C1967 1.409 . S
C1961 H1953 0.930 . S
C1961 C1959 1.419 . S
C1961 C1962 1.362 . S
C1962 H1954 0.930 . S
C1962 C1961 1.362 . S
C1962 C1965 1.409 . S
C1963 H1955 0.930 . S
C1963 C1964 1.355 . S
C1963 C1965 1.415 . S
C1964 C1963 1.355 . S
C1964 C1966 1.419 . S
C1965 C1960 1.425 . S
C1965 C1962 1.409 . S
C1965 C1963 1.415 . S
C1966 H1956 0.930 . S
C1966 C1964 1.419 . S
C1966 C1967 1.362 . S
C1967 H1957 0.930 . S
C1967 C1960 1.409 . S
C1967 C1966 1.362 . S
H1968 C1974 0.930 . S
H1969 C1977 0.930 . S
H1970 C1978 0.930 . S
H1971 C1979 0.930 . S
H1972 C1982 0.930 . S
H1973 C1983 0.930 . S
C1974 H1968 0.930 . S
C1974 C1975 1.355 . S
C1974 C1976 1.415 . S
C1975 C1974 1.355 . S
C1975 C1977 1.419 . S
C1976 C1974 1.415 . S
C1976 C1981 1.425 . S
C1976 C1983 1.409 . S
C1977 H1969 0.930 . S
C1977 C1975 1.419 . S
C1977 C1978 1.362 . S
C1978 H1970 0.930 . S
C1978 C1977 1.362 . S
C1978 C1981 1.409 . S
C1979 H1971 0.930 . S
C1979 C1980 1.355 . S
C1979 C1981 1.415 . S
C1980 C1979 1.355 . S
C1980 C1982 1.419 . S
C1981 C1976 1.425 . S
C1981 C1978 1.409 . S
C1981 C1979 1.415 . S
C1982 H1972 0.930 . S
C1982 C1980 1.419 . S
C1982 C1983 1.362 . S
C1983 H1973 0.930 . S
C1983 C1976 1.409 . S
C1983 C1982 1.362 . S
H1984 C1990 0.930 . S
H1985 C1993 0.930 . S
H1986 C1994 0.930 . S
H1987 C1995 0.930 . S
H1988 C1998 0.930 . S
H1989 C1999 0.930 . S
C1990 H1984 0.930 . S
C1990 C1991 1.355 . S
C1990 C1992 1.415 . S
C1991 C1990 1.355 . S
C1991 C1993 1.419 . S
C1992 C1990 1.415 . S
C1992 C1997 1.425 . S
C1992 C1999 1.409 . S
C1993 H1985 0.930 . S
C1993 C1991 1.419 . S
C1993 C1994 1.362 . S
C1994 H1986 0.930 . S
C1994 C1993 1.362 . S
C1994 C1997 1.409 . S
C1995 H1987 0.930 . S
C1995 C1996 1.355 . S
C1995 C1997 1.415 . S
C1996 C1995 1.355 . S
C1996 C1998 1.419 . S
C1997 C1992 1.425 . S
C1997 C1994 1.409 . S
C1997 C1995 1.415 . S
C1998 H1988 0.930 . S
C1998 C1996 1.419 . S
C1998 C1999 1.362 . S
C1999 H1989 0.930 . S
C1999 C1992 1.409 . S
C1999 C1998 1.362 . S
H2000 C2006 0.930 . S
H2001 C2009 0.930 . S
H2002 C2010 0.930 . S
H2003 C2011 0.930 . S
H2004 C2014 0.930 . S
H2005 C2015 0.930 . S
C2006 H2000 0.930 . S
C2006 C2007 1.355 . S
C2006 C2008 1.415 . S
C2007 C2006 1.355 . S
C2007 C2009 1.419 . S
C2008 C2006 1.415 . S
C2008 C2013 1.425 . S
C2008 C2015 1.409 . S
C2009 H2001 0.930 . S
C2009 C2007 1.419 . S
C2009 C2010 1.362 . S
C2010 H2002 0.930 . S
C2010 C2009 1.362 . S
C2010 C2013 1.409 . S
C2011 H2003 0.930 . S
C2011 C2012 1.355 . S
C2011 C2013 1.415 . S
C2012 C2011 1.355 . S
C2012 C2014 1.419 . S
C2013 C2008 1.425 . S
C2013 C2010 1.409 . S
C2013 C2011 1.415 . S
C2014 H2004 0.930 . S
C2014 C2012 1.419 . S
C2014 C2015 1.362 . S
C2015 H2005 0.930 . S
C2015 C2008 1.409 . S
C2015 C2014 1.362 . S
H2016 C2022 0.930 . S
H2017 C2025 0.930 . S
H2018 C2026 0.930 . S
H2019 C2027 0.930 . S
H2020 C2030 0.930 . S
H2021 C2031 0.930 . S
C2022 H2016 0.930 . S
C2022 C2023 1.355 . S
C2022 C2024 1.415 . S
C2023 C2022 1.355 . S
C2023 C2025 1.419 . S
C2024 C2022 1.415 . S
C2024 C2029 1.425 . S
C2024 C2031 1.409 . S
C2025 H2017 0.930 . S
C2025 C2023 1.419 . S
C2025 C2026 1.362 . S
C2026 H2018 0.930 . S
C2026 C2025 1.362 . S
C2026 C2029 1.409 . S
C2027 H2019 0.930 . S
C2027 C2028 1.355 . S
C2027 C2029 1.415 . S
C2028 C2027 1.355 . S
C2028 C2030 1.419 . S
C2029 C2024 1.425 . S
C2029 C2026 1.409 . S
C2029 C2027 1.415 . S
C2030 H2020 0.930 . S
C2030 C2028 1.419 . S
C2030 C2031 1.362 . S
C2031 H2021 0.930 . S
C2031 C2024 1.409 . S
C2031 C2030 1.362 . S
H2032 C2038 0.930 . S
H2033 C2041 0.930 . S
H2034 C2042 0.930 . S
H2035 C2043 0.930 . S
H2036 C2046 0.930 . S
H2037 C2047 0.930 . S
C2038 H2032 0.930 . S
C2038 C2039 1.355 . S
C2038 C2040 1.415 . S
C2039 C2038 1.355 . S
C2039 C2041 1.419 . S
C2040 C2038 1.415 . S
C2040 C2045 1.425 . S
C2040 C2047 1.409 . S
C2041 H2033 0.930 . S
C2041 C2039 1.419 . S
C2041 C2042 1.362 . S
C2042 H2034 0.930 . S
C2042 C2041 1.362 . S
C2042 C2045 1.409 . S
C2043 H2035 0.930 . S
C2043 C2044 1.355 . S
C2043 C2045 1.415 . S
C2044 C2043 1.355 . S
C2044 C2046 1.419 . S
C2045 C2040 1.425 . S
C2045 C2042 1.409 . S
C2045 C2043 1.415 . S
C2046 H2036 0.930 . S
C2046 C2044 1.419 . S
C2046 C2047 1.362 . S
C2047 H2037 0.930 . S
C2047 C2040 1.409 . S
C2047 C2046 1.362 . S
H2048 C2054 0.930 . S
H2049 C2057 0.930 . S
H2050 C2058 0.930 . S
H2051 C2059 0.930 . S
H2052 C2062 0.930 . S
H2053 C2063 0.930 . S
C2054 H2048 0.930 . S
C2054 C2055 1.355 . S
C2054 C2056 1.415 . S
C2055 C2054 1.355 . S
C2055 C2057 1.419 . S
C2056 C2054 1.415 . S
C2056 C2061 1.425 . S
C2056 C2063 1.409 . S
C2057 H2049 0.930 . S
C2057 C2055 1.419 . S
C2057 C2058 1.362 . S
C2058 H2050 0.930 . S
C2058 C2057 1.362 . S
C2058 C2061 1.409 . S
C2059 H2051 0.930 . S
C2059 C2060 1.355 . S
C2059 C2061 1.415 . S
C2060 C2059 1.355 . S
C2060 C2062 1.419 . S
C2061 C2056 1.425 . S
C2061 C2058 1.409 . S
C2061 C2059 1.415 . S
C2062 H2052 0.930 . S
C2062 C2060 1.419 . S
C2062 C2063 1.362 . S
C2063 H2053 0.930 . S
C2063 C2056 1.409 . S
C2063 C2062 1.362 . S
H2064 C2070 0.930 . S
H2065 C2073 0.930 . S
H2066 C2074 0.930 . S
H2067 C2075 0.930 . S
H2068 C2078 0.930 . S
H2069 C2079 0.930 . S
C2070 H2064 0.930 . S
C2070 C2071 1.355 . S
C2070 C2072 1.415 . S
C2071 C2070 1.355 . S
C2071 C2073 1.419 . S
C2072 C2070 1.415 . S
C2072 C2077 1.425 . S
C2072 C2079 1.409 . S
C2073 H2065 0.930 . S
C2073 C2071 1.419 . S
C2073 C2074 1.362 . S
C2074 H2066 0.930 . S
C2074 C2073 1.362 . S
C2074 C2077 1.409 . S
C2075 H2067 0.930 . S
C2075 C2076 1.355 . S
C2075 C2077 1.415 . S
C2076 C2075 1.355 . S
C2076 C2078 1.419 . S
C2077 C2072 1.425 . S
C2077 C2074 1.409 . S
C2077 C2075 1.415 . S
C2078 H2068 0.930 . S
C2078 C2076 1.419 . S
C2078 C2079 1.362 . S
C2079 H2069 0.930 . S
C2079 C2072 1.409 . S
C2079 C2078 1.362 . S
H2080 C2086 0.930 . S
H2081 C2089 0.930 . S
H2082 C2090 0.930 . S
H2083 C2091 0.930 . S
H2084 C2094 0.930 . S
H2085 C2095 0.930 . S
C2086 H2080 0.930 . S
C2086 C2087 1.355 . S
C2086 C2088 1.415 . S
C2087 C2086 1.355 . S
C2087 C2089 1.419 . S
C2088 C2086 1.415 . S
C2088 C2093 1.425 . S
C2088 C2095 1.409 . S
C2089 H2081 0.930 . S
C2089 C2087 1.419 . S
C2089 C2090 1.362 . S
C2090 H2082 0.930 . S
C2090 C2089 1.362 . S
C2090 C2093 1.409 . S
C2091 H2083 0.930 . S
C2091 C2092 1.355 . S
C2091 C2093 1.415 . S
C2092 C2091 1.355 . S
C2092 C2094 1.419 . S
C2093 C2088 1.425 . S
C2093 C2090 1.409 . S
C2093 C2091 1.415 . S
C2094 H2084 0.930 . S
C2094 C2092 1.419 . S
C2094 C2095 1.362 . S
C2095 H2085 0.930 . S
C2095 C2088 1.409 . S
C2095 C2094 1.362 . S
H2096 C2102 0.930 . S
H2097 C2105 0.930 . S
H2098 C2106 0.930 . S
H2099 C2107 0.930 . S
H2100 C2110 0.930 . S
H2101 C2111 0.930 . S
C2102 H2096 0.930 . S
C2102 C2103 1.355 . S
C2102 C2104 1.415 . S
C2103 C2102 1.355 . S
C2103 C2105 1.419 . S
C2104 C2102 1.415 . S
C2104 C2109 1.425 . S
C2104 C2111 1.409 . S
C2105 H2097 0.930 . S
C2105 C2103 1.419 . S
C2105 C2106 1.362 . S
C2106 H2098 0.930 . S
C2106 C2105 1.362 . S
C2106 C2109 1.409 . S
C2107 H2099 0.930 . S
C2107 C2108 1.355 . S
C2107 C2109 1.415 . S
C2108 C2107 1.355 . S
C2108 C2110 1.419 . S
C2109 C2104 1.425 . S
C2109 C2106 1.409 . S
C2109 C2107 1.415 . S
C2110 H2100 0.930 . S
C2110 C2108 1.419 . S
C2110 C2111 1.362 . S
C2111 H2101 0.930 . S
C2111 C2104 1.409 . S
C2111 C2110 1.362 . S
H2112 C2118 0.930 . S
H2113 C2121 0.930 . S
H2114 C2122 0.930 . S
H2115 C2123 0.930 . S
H2116 C2126 0.930 . S
H2117 C2127 0.930 . S
C2118 H2112 0.930 . S
C2118 C2119 1.355 . S
C2118 C2120 1.415 . S
C2119 C2118 1.355 . S
C2119 C2121 1.419 . S
C2120 C2118 1.415 . S
C2120 C2125 1.425 . S
C2120 C2127 1.409 . S
C2121 H2113 0.930 . S
C2121 C2119 1.419 . S
C2121 C2122 1.362 . S
C2122 H2114 0.930 . S
C2122 C2121 1.362 . S
C2122 C2125 1.409 . S
C2123 H2115 0.930 . S
C2123 C2124 1.355 . S
C2123 C2125 1.415 . S
C2124 C2123 1.355 . S
C2124 C2126 1.419 . S
C2125 C2120 1.425 . S
C2125 C2122 1.409 . S
C2125 C2123 1.415 . S
C2126 H2116 0.930 . S
C2126 C2124 1.419 . S
C2126 C2127 1.362 . S
C2127 H2117 0.930 . S
C2127 C2120 1.409 . S
C2127 C2126 1.362 . S
H2128 C2134 0.930 . S
H2129 C2137 0.930 . S
H2130 C2138 0.930 . S
H2131 C2139 0.930 . S
H2132 C2142 0.930 . S
H2133 C2143 0.930 . S
C2134 H2128 0.930 . S
C2134 C2135 1.355 . S
C2134 C2136 1.415 . S
C2135 C2134 1.355 . S
C2135 C2137 1.419 . S
C2136 C2134 1.415 . S
C2136 C2141 1.425 . S
C2136 C2143 1.409 . S
C2137 H2129 0.930 . S
C2137 C2135 1.419 . S
C2137 C2138 1.362 . S
C2138 H2130 0.930 . S
C2138 C2137 1.362 . S
C2138 C2141 1.409 . S
C2139 H2131 0.930 . S
C2139 C2140 1.355 . S
C2139 C2141 1.415 . S
C2140 C2139 1.355 . S
C2140 C2142 1.419 . S
C2141 C2136 1.425 . S
C2141 C2138 1.409 . S
C2141 C2139 1.415 . S
C2142 H2132 0.930 . S
C2142 C2140 1.419 . S
C2142 C2143 1.362 . S
C2143 H2133 0.930 . S
C2143 C2136 1.409 . S
C2143 C2142 1.362 . S
H2144 C2150 0.930 . S
H2145 C2153 0.930 . S
H2146 C2154 0.930 . S
H2147 C2155 0.930 . S
H2148 C2158 0.930 . S
H2149 C2159 0.930 . S
C2150 H2144 0.930 . S
C2150 C2151 1.355 . S
C2150 C2152 1.415 . S
C2151 C2150 1.355 . S
C2151 C2153 1.419 . S
C2152 C2150 1.415 . S
C2152 C2157 1.425 . S
C2152 C2159 1.409 . S
C2153 H2145 0.930 . S
C2153 C2151 1.419 . S
C2153 C2154 1.362 . S
C2154 H2146 0.930 . S
C2154 C2153 1.362 . S
C2154 C2157 1.409 . S
C2155 H2147 0.930 . S
C2155 C2156 1.355 . S
C2155 C2157 1.415 . S
C2156 C2155 1.355 . S
C2156 C2158 1.419 . S
C2157 C2152 1.425 . S
C2157 C2154 1.409 . S
C2157 C2155 1.415 . S
C2158 H2148 0.930 . S
C2158 C2156 1.419 . S
C2158 C2159 1.362 . S
C2159 H2149 0.930 . S
C2159 C2152 1.409 . S
C2159 C2158 1.362 . S
H2160 C2166 0.930 . S
H2161 C2169 0.930 . S
H2162 C2170 0.930 . S
H2163 C2171 0.930 . S
H2164 C2174 0.930 . S
H2165 C2175 0.930 . S
C2166 H2160 0.930 . S
C2166 C2167 1.355 . S
C2166 C2168 1.415 . S
C2167 C2166 1.355 . S
C2167 C2169 1.419 . S
C2168 C2166 1.415 . S
C2168 C2173 1.425 . S
C2168 C2175 1.409 . S
C2169 H2161 0.930 . S
C2169 C2167 1.419 . S
C2169 C2170 1.362 . S
C2170 H2162 0.930 . S
C2170 C2169 1.362 . S
C2170 C2173 1.409 . S
C2171 H2163 0.930 . S
C2171 C2172 1.355 . S
C2171 C2173 1.415 . S
C2172 C2171 1.355 . S
C2172 C2174 1.419 . S
C2173 C2168 1.425 . S
C2173 C2170 1.409 . S
C2173 C2171 1.415 . S
C2174 H2164 0.930 . S
C2174 C2172 1.419 . S
C2174 C2175 1.362 . S
C2175 H2165 0.930 . S
C2175 C2168 1.409 . S
C2175 C2174 1.362 . S
H2176 C2182 0.930 . S
H2177 C2185 0.930 . S
H2178 C2186 0.930 . S
H2179 C2187 0.930 . S
H2180 C2190 0.930 . S
H2181 C2191 0.930 . S
C2182 H2176 0.930 . S
C2182 C2183 1.355 . S
C2182 C2184 1.415 . S
C2183 C2182 1.355 . S
C2183 C2185 1.419 . S
C2184 C2182 1.415 . S
C2184 C2189 1.425 . S
C2184 C2191 1.409 . S
C2185 H2177 0.930 . S
C2185 C2183 1.419 . S
C2185 C2186 1.362 . S
C2186 H2178 0.930 . S
C2186 C2185 1.362 . S
C2186 C2189 1.409 . S
C2187 H2179 0.930 . S
C2187 C2188 1.355 . S
C2187 C2189 1.415 . S
C2188 C2187 1.355 . S
C2188 C2190 1.419 . S
C2189 C2184 1.425 . S
C2189 C2186 1.409 . S
C2189 C2187 1.415 . S
C2190 H2180 0.930 . S
C2190 C2188 1.419 . S
C2190 C2191 1.362 . S
C2191 H2181 0.930 . S
C2191 C2184 1.409 . S
C2191 C2190 1.362 . S
H2192 C2198 0.930 . S
H2193 C2201 0.930 . S
H2194 C2202 0.930 . S
H2195 C2203 0.930 . S
H2196 C2206 0.930 . S
H2197 C2207 0.930 . S
C2198 H2192 0.930 . S
C2198 C2199 1.355 . S
C2198 C2200 1.415 . S
C2199 C2198 1.355 . S
C2199 C2201 1.419 . S
C2200 C2198 1.415 . S
C2200 C2205 1.425 . S
C2200 C2207 1.409 . S
C2201 H2193 0.930 . S
C2201 C2199 1.419 . S
C2201 C2202 1.362 . S
C2202 H2194 0.930 . S
C2202 C2201 1.362 . S
C2202 C2205 1.409 . S
C2203 H2195 0.930 . S
C2203 C2204 1.355 . S
C2203 C2205 1.415 . S
C2204 C2203 1.355 . S
C2204 C2206 1.419 . S
C2205 C2200 1.425 . S
C2205 C2202 1.409 . S
C2205 C2203 1.415 . S
C2206 H2196 0.930 . S
C2206 C2204 1.419 . S
C2206 C2207 1.362 . S
C2207 H2197 0.930 . S
C2207 C2200 1.409 . S
C2207 C2206 1.362 . S
H2208 C2214 0.929 . S
H2209 C2217 0.930 1_565 S
H2210 C2218 0.930 . S
H2211 C2219 0.930 . S
H2212 C2222 0.930 . S
H2213 C2223 0.930 . S
C2214 H2208 0.929 . S
C2214 C2215 1.355 1_545 S
C2214 C2216 1.415 . S
C2215 C2214 1.355 1_565 S
C2215 C2217 1.419 1_565 S
C2216 C2214 1.415 . S
C2216 C2221 1.425 . S
C2216 C2223 1.409 . S
C2217 H2209 0.930 1_545 S
C2217 C2215 1.419 1_545 S
C2217 C2218 1.362 . S
C2218 H2210 0.930 . S
C2218 C2217 1.362 . S
C2218 C2221 1.409 . S
C2219 H2211 0.930 . S
C2219 C2220 1.355 . S
C2219 C2221 1.415 . S
C2220 C2219 1.355 . S
C2220 C2222 1.419 . S
C2221 C2216 1.425 . S
C2221 C2218 1.409 . S
C2221 C2219 1.415 . S
C2222 H2212 0.930 . S
C2222 C2220 1.419 . S
C2222 C2223 1.362 . S
C2223 H2213 0.930 . S
C2223 C2216 1.409 . S
C2223 C2222 1.362 . S
H2224 C2230 0.930 . S
H2225 C2233 0.930 . S
H2226 C2234 0.930 . S
H2227 C2235 0.930 . S
H2228 C2238 0.930 . S
H2229 C2239 0.929 1_455 S
C2230 H2224 0.930 . S
C2230 C2231 1.355 . S
C2230 C2232 1.415 . S
C2231 C2230 1.355 . S
C2231 C2233 1.419 . S
C2232 C2230 1.415 . S
C2232 C2237 1.425 . S
C2232 C2239 1.409 1_455 S
C2233 H2225 0.930 . S
C2233 C2231 1.419 . S
C2233 C2234 1.362 . S
C2234 H2226 0.930 . S
C2234 C2233 1.362 . S
C2234 C2237 1.409 . S
C2235 H2227 0.930 . S
C2235 C2236 1.355 . S
C2235 C2237 1.415 1_655 S
C2236 C2235 1.355 . S
C2236 C2238 1.419 . S
C2237 C2232 1.425 . S
C2237 C2234 1.409 . S
C2237 C2235 1.415 1_455 S
C2238 H2228 0.930 . S
C2238 C2236 1.419 . S
C2238 C2239 1.364 . S
C2239 H2229 0.929 1_655 S
C2239 C2232 1.409 1_655 S
C2239 C2238 1.364 . S
H2240 C2246 0.930 . S
H2241 C2249 0.930 . S
H2242 C2250 0.930 . S
H2243 C2251 0.930 . S
H2244 C2254 0.930 . S
H2245 C2255 0.930 . S
C2246 H2240 0.930 . S
C2246 C2247 1.355 . S
C2246 C2248 1.415 . S
C2247 C2246 1.355 . S
C2247 C2249 1.419 . S
C2248 C2246 1.415 . S
C2248 C2253 1.425 . S
C2248 C2255 1.409 . S
C2249 H2241 0.930 . S
C2249 C2247 1.419 . S
C2249 C2250 1.362 . S
C2250 H2242 0.930 . S
C2250 C2249 1.362 . S
C2250 C2253 1.409 . S
C2251 H2243 0.930 . S
C2251 C2252 1.355 . S
C2251 C2253 1.415 . S
C2252 C2251 1.355 . S
C2252 C2254 1.419 . S
C2253 C2248 1.425 . S
C2253 C2250 1.409 . S
C2253 C2251 1.415 . S
C2254 H2244 0.930 . S
C2254 C2252 1.419 . S
C2254 C2255 1.362 . S
C2255 H2245 0.930 . S
C2255 C2248 1.409 . S
C2255 C2254 1.362 . S
H2256 C2262 0.930 . S
H2257 C2265 0.930 . S
H2258 C2266 0.930 . S
H2259 C2267 0.930 . S
H2260 C2270 0.930 . S
H2261 C2271 0.930 . S
C2262 H2256 0.930 . S
C2262 C2263 1.355 . S
C2262 C2264 1.415 . S
C2263 C2262 1.355 . S
C2263 C2265 1.419 . S
C2264 C2262 1.415 . S
C2264 C2269 1.425 . S
C2264 C2271 1.409 . S
C2265 H2257 0.930 . S
C2265 C2263 1.419 . S
C2265 C2266 1.362 . S
C2266 H2258 0.930 . S
C2266 C2265 1.362 . S
C2266 C2269 1.409 . S
C2267 H2259 0.930 . S
C2267 C2268 1.355 . S
C2267 C2269 1.415 . S
C2268 C2267 1.355 . S
C2268 C2270 1.419 . S
C2269 C2264 1.425 . S
C2269 C2266 1.409 . S
C2269 C2267 1.415 . S
C2270 H2260 0.930 . S
C2270 C2268 1.419 . S
C2270 C2271 1.362 . S
C2271 H2261 0.930 . S
C2271 C2264 1.409 . S
C2271 C2270 1.362 . S
H2272 C2278 0.930 . S
H2273 C2281 0.930 . S
H2274 C2282 0.930 . S
H2275 C2283 0.930 . S
H2276 C2286 0.930 . S
H2277 C2287 0.930 . S
C2278 H2272 0.930 . S
C2278 C2279 1.355 . S
C2278 C2280 1.415 . S
C2279 C2278 1.355 . S
C2279 C2281 1.419 . S
C2280 C2278 1.415 . S
C2280 C2285 1.425 . S
C2280 C2287 1.409 . S
C2281 H2273 0.930 . S
C2281 C2279 1.419 . S
C2281 C2282 1.362 . S
C2282 H2274 0.930 . S
C2282 C2281 1.362 . S
C2282 C2285 1.409 . S
C2283 H2275 0.930 . S
C2283 C2284 1.355 . S
C2283 C2285 1.415 . S
C2284 C2283 1.355 . S
C2284 C2286 1.419 . S
C2285 C2280 1.425 . S
C2285 C2282 1.409 . S
C2285 C2283 1.415 . S
C2286 H2276 0.930 . S
C2286 C2284 1.419 . S
C2286 C2287 1.362 . S
C2287 H2277 0.930 . S
C2287 C2280 1.409 . S
C2287 C2286 1.362 . S
H2288 C2294 0.930 . S
H2289 C2297 0.930 . S
H2290 C2298 0.930 . S
H2291 C2299 0.930 . S
H2292 C2302 0.930 . S
H2293 C2303 0.930 . S
C2294 H2288 0.930 . S
C2294 C2295 1.355 . S
C2294 C2296 1.415 . S
C2295 C2294 1.355 . S
C2295 C2297 1.419 . S
C2296 C2294 1.415 . S
C2296 C2301 1.425 . S
C2296 C2303 1.409 . S
C2297 H2289 0.930 . S
C2297 C2295 1.419 . S
C2297 C2298 1.362 . S
C2298 H2290 0.930 . S
C2298 C2297 1.362 . S
C2298 C2301 1.409 . S
C2299 H2291 0.930 . S
C2299 C2300 1.355 . S
C2299 C2301 1.415 . S
C2300 C2299 1.355 . S
C2300 C2302 1.419 . S
C2301 C2296 1.425 . S
C2301 C2298 1.409 . S
C2301 C2299 1.415 . S
C2302 H2292 0.930 . S
C2302 C2300 1.419 . S
C2302 C2303 1.362 . S
C2303 H2293 0.930 . S
C2303 C2296 1.409 . S
C2303 C2302 1.362 . S
H2304 C2310 0.930 . S
H2305 C2313 0.930 . S
H2306 C2314 0.930 . S
H2307 C2315 0.930 . S
H2308 C2318 0.930 . S
H2309 C2319 0.930 . S
C2310 H2304 0.930 . S
C2310 C2311 1.355 . S
C2310 C2312 1.415 . S
C2311 C2310 1.355 . S
C2311 C2313 1.419 . S
C2312 C2310 1.415 . S
C2312 C2317 1.425 . S
C2312 C2319 1.409 . S
C2313 H2305 0.930 . S
C2313 C2311 1.419 . S
C2313 C2314 1.362 . S
C2314 H2306 0.930 . S
C2314 C2313 1.362 . S
C2314 C2317 1.409 . S
C2315 H2307 0.930 . S
C2315 C2316 1.355 . S
C2315 C2317 1.415 . S
C2316 C2315 1.355 . S
C2316 C2318 1.419 . S
C2317 C2312 1.425 . S
C2317 C2314 1.409 . S
C2317 C2315 1.415 . S
C2318 H2308 0.930 . S
C2318 C2316 1.419 . S
C2318 C2319 1.362 . S
C2319 H2309 0.930 . S
C2319 C2312 1.409 . S
C2319 C2318 1.362 . S
H2320 C2326 0.930 . S
H2321 C2329 0.930 . S
H2322 C2330 0.930 . S
H2323 C2331 0.930 . S
H2324 C2334 0.930 . S
H2325 C2335 0.930 . S
C2326 H2320 0.930 . S
C2326 C2327 1.355 . S
C2326 C2328 1.415 . S
C2327 C2326 1.355 . S
C2327 C2329 1.419 . S
C2328 C2326 1.415 . S
C2328 C2333 1.425 . S
C2328 C2335 1.409 . S
C2329 H2321 0.930 . S
C2329 C2327 1.419 . S
C2329 C2330 1.362 . S
C2330 H2322 0.930 . S
C2330 C2329 1.362 . S
C2330 C2333 1.409 . S
C2331 H2323 0.930 . S
C2331 C2332 1.355 . S
C2331 C2333 1.415 . S
C2332 C2331 1.355 . S
C2332 C2334 1.419 . S
C2333 C2328 1.425 . S
C2333 C2330 1.409 . S
C2333 C2331 1.415 . S
C2334 H2324 0.930 . S
C2334 C2332 1.419 . S
C2334 C2335 1.362 . S
C2335 H2325 0.930 . S
C2335 C2328 1.409 . S
C2335 C2334 1.362 . S
H2336 C2342 0.930 . S
H2337 C2345 0.930 . S
H2338 C2346 0.930 . S
H2339 C2347 0.930 . S
H2340 C2350 0.930 . S
H2341 C2351 0.930 . S
C2342 H2336 0.930 . S
C2342 C2343 1.355 . S
C2342 C2344 1.415 . S
C2343 C2342 1.355 . S
C2343 C2345 1.419 . S
C2344 C2342 1.415 . S
C2344 C2349 1.425 . S
C2344 C2351 1.409 . S
C2345 H2337 0.930 . S
C2345 C2343 1.419 . S
C2345 C2346 1.362 . S
C2346 H2338 0.930 . S
C2346 C2345 1.362 . S
C2346 C2349 1.409 . S
C2347 H2339 0.930 . S
C2347 C2348 1.355 . S
C2347 C2349 1.415 . S
C2348 C2347 1.355 . S
C2348 C2350 1.419 . S
C2349 C2344 1.425 . S
C2349 C2346 1.409 . S
C2349 C2347 1.415 . S
C2350 H2340 0.930 . S
C2350 C2348 1.419 . S
C2350 C2351 1.362 . S
C2351 H2341 0.930 . S
C2351 C2344 1.409 . S
C2351 C2350 1.362 . S
H2352 C2358 0.930 . S
H2353 C2361 0.930 . S
H2354 C2362 0.930 . S
H2355 C2363 0.930 . S
H2356 C2366 0.930 . S
H2357 C2367 0.930 . S
C2358 H2352 0.930 . S
C2358 C2359 1.355 . S
C2358 C2360 1.415 . S
C2359 C2358 1.355 . S
C2359 C2361 1.419 . S
C2360 C2358 1.415 . S
C2360 C2365 1.425 . S
C2360 C2367 1.409 1_455 S
C2361 H2353 0.930 . S
C2361 C2359 1.419 . S
C2361 C2362 1.362 . S
C2362 H2354 0.930 . S
C2362 C2361 1.362 . S
C2362 C2365 1.409 . S
C2363 H2355 0.930 . S
C2363 C2364 1.334 1_455 S
C2363 C2365 1.435 . S
C2364 C2363 1.334 1_655 S
C2364 C2366 1.419 . S
C2365 C2360 1.425 . S
C2365 C2362 1.409 . S
C2365 C2363 1.435 . S
C2366 H2356 0.930 . S
C2366 C2364 1.419 . S
C2366 C2367 1.362 . S
C2367 H2357 0.930 . S
C2367 C2360 1.409 1_655 S
C2367 C2366 1.362 . S
H2368 C2374 0.930 . S
H2369 C2377 0.930 . S
H2370 C2378 0.930 . S
H2371 C2379 0.930 . S
H2372 C2382 0.930 . S
H2373 C2383 0.930 . S
C2374 H2368 0.930 . S
C2374 C2375 1.355 . S
C2374 C2376 1.415 . S
C2375 C2374 1.355 . S
C2375 C2377 1.419 . S
C2376 C2374 1.415 . S
C2376 C2381 1.425 . S
C2376 C2383 1.409 . S
C2377 H2369 0.930 . S
C2377 C2375 1.419 . S
C2377 C2378 1.362 . S
C2378 H2370 0.930 . S
C2378 C2377 1.362 . S
C2378 C2381 1.409 . S
C2379 H2371 0.930 . S
C2379 C2380 1.355 . S
C2379 C2381 1.415 . S
C2380 C2379 1.355 . S
C2380 C2382 1.419 . S
C2381 C2376 1.425 . S
C2381 C2378 1.409 . S
C2381 C2379 1.415 . S
C2382 H2372 0.930 . S
C2382 C2380 1.419 . S
C2382 C2383 1.362 . S
C2383 H2373 0.930 . S
C2383 C2376 1.409 . S
C2383 C2382 1.362 . S
H2384 C2390 0.930 . S
H2385 C2393 0.930 . S
H2386 C2394 0.930 . S
H2387 C2395 0.930 . S
H2388 C2398 0.930 . S
H2389 C2399 0.930 1_565 S
C2390 H2384 0.930 . S
C2390 C2391 1.355 . S
C2390 C2392 1.415 1_565 S
C2391 C2390 1.355 . S
C2391 C2393 1.419 1_565 S
C2392 C2390 1.415 1_545 S
C2392 C2397 1.425 . S
C2392 C2399 1.409 . S
C2393 H2385 0.930 . S
C2393 C2391 1.419 1_545 S
C2393 C2394 1.362 . S
C2394 H2386 0.930 . S
C2394 C2393 1.362 . S
C2394 C2397 1.409 . S
C2395 H2387 0.930 . S
C2395 C2396 1.355 . S
C2395 C2397 1.415 . S
C2396 C2395 1.355 . S
C2396 C2398 1.419 . S
C2397 C2392 1.425 . S
C2397 C2394 1.409 . S
C2397 C2395 1.415 . S
C2398 H2388 0.930 . S
C2398 C2396 1.419 . S
C2398 C2399 1.362 . S
C2399 H2389 0.930 1_545 S
C2399 C2392 1.409 . S
C2399 C2398 1.362 . S
H2400 C2406 0.930 . S
H2401 C2409 0.930 . S
H2402 C2410 0.930 . S
H2403 C2411 0.930 . S
H2404 C2414 0.930 . S
H2405 C2415 0.930 . S
C2406 H2400 0.930 . S
C2406 C2407 1.355 . S
C2406 C2408 1.415 . S
C2407 C2406 1.355 . S
C2407 C2409 1.419 . S
C2408 C2406 1.415 . S
C2408 C2413 1.425 . S
C2408 C2415 1.409 . S
C2409 H2401 0.930 . S
C2409 C2407 1.419 . S
C2409 C2410 1.362 . S
C2410 H2402 0.930 . S
C2410 C2409 1.362 . S
C2410 C2413 1.409 . S
C2411 H2403 0.930 . S
C2411 C2412 1.355 . S
C2411 C2413 1.415 . S
C2412 C2411 1.355 . S
C2412 C2414 1.419 . S
C2413 C2408 1.425 . S
C2413 C2410 1.409 . S
C2413 C2411 1.415 . S
C2414 H2404 0.930 . S
C2414 C2412 1.419 . S
C2414 C2415 1.362 . S
C2415 H2405 0.930 . S
C2415 C2408 1.409 . S
C2415 C2414 1.362 . S
H2416 C2422 0.930 . S
H2417 C2425 0.930 . S
H2418 C2426 0.930 . S
H2419 C2427 0.930 . S
H2420 C2430 0.930 . S
H2421 C2431 0.930 . S
C2422 H2416 0.930 . S
C2422 C2423 1.355 . S
C2422 C2424 1.415 . S
C2423 C2422 1.355 . S
C2423 C2425 1.419 . S
C2424 C2422 1.415 . S
C2424 C2429 1.425 . S
C2424 C2431 1.409 . S
C2425 H2417 0.930 . S
C2425 C2423 1.419 . S
C2425 C2426 1.362 . S
C2426 H2418 0.930 . S
C2426 C2425 1.362 . S
C2426 C2429 1.409 . S
C2427 H2419 0.930 . S
C2427 C2428 1.355 . S
C2427 C2429 1.415 . S
C2428 C2427 1.355 . S
C2428 C2430 1.419 . S
C2429 C2424 1.425 . S
C2429 C2426 1.409 . S
C2429 C2427 1.415 . S
C2430 H2420 0.930 . S
C2430 C2428 1.419 . S
C2430 C2431 1.362 . S
C2431 H2421 0.930 . S
C2431 C2424 1.409 . S
C2431 C2430 1.362 . S
H2432 C2438 0.930 . S
H2433 C2441 0.930 . S
H2434 C2442 0.930 . S
H2435 C2443 0.930 . S
H2436 C2446 0.930 . S
H2437 C2447 0.930 . S
C2438 H2432 0.930 . S
C2438 C2439 1.355 . S
C2438 C2440 1.415 . S
C2439 C2438 1.355 . S
C2439 C2441 1.419 . S
C2440 C2438 1.415 . S
C2440 C2445 1.425 . S
C2440 C2447 1.409 . S
C2441 H2433 0.930 . S
C2441 C2439 1.419 . S
C2441 C2442 1.362 . S
C2442 H2434 0.930 . S
C2442 C2441 1.362 . S
C2442 C2445 1.409 . S
C2443 H2435 0.930 . S
C2443 C2444 1.355 . S
C2443 C2445 1.415 . S
C2444 C2443 1.355 . S
C2444 C2446 1.419 . S
C2445 C2440 1.425 . S
C2445 C2442 1.409 . S
C2445 C2443 1.415 . S
C2446 H2436 0.930 . S
C2446 C2444 1.419 . S
C2446 C2447 1.362 . S
C2447 H2437 0.930 . S
C2447 C2440 1.409 . S
C2447 C2446 1.362 . S
H2448 C2454 0.930 . S
H2449 C2457 0.930 . S
H2450 C2458 0.930 . S
H2451 C2459 0.930 . S
H2452 C2462 0.930 1_655 S
H2453 C2463 0.930 . S
C2454 H2448 0.930 . S
C2454 C2455 1.355 . S
C2454 C2456 1.415 . S
C2455 C2454 1.355 . S
C2455 C2457 1.419 . S
C2456 C2454 1.415 . S
C2456 C2461 1.425 . S
C2456 C2463 1.409 . S
C2457 H2449 0.930 . S
C2457 C2455 1.419 . S
C2457 C2458 1.362 . S
C2458 H2450 0.930 . S
C2458 C2457 1.362 . S
C2458 C2461 1.409 . S
C2459 H2451 0.930 . S
C2459 C2460 1.355 1_455 S
C2459 C2461 1.415 . S
C2460 C2459 1.355 1_655 S
C2460 C2462 1.419 1_655 S
C2461 C2456 1.425 . S
C2461 C2458 1.409 . S
C2461 C2459 1.415 . S
C2462 H2452 0.930 1_455 S
C2462 C2460 1.419 1_455 S
C2462 C2463 1.362 . S
C2463 H2453 0.930 . S
C2463 C2456 1.409 . S
C2463 C2462 1.362 . S
H2464 C2470 0.930 . S
H2465 C2473 0.930 . S
H2466 C2474 0.930 . S
H2467 C2475 0.930 . S
H2468 C2478 0.930 . S
H2469 C2479 0.930 . S
C2470 H2464 0.930 . S
C2470 C2471 1.355 . S
C2470 C2472 1.415 . S
C2471 C2470 1.355 . S
C2471 C2473 1.419 . S
C2472 C2470 1.415 . S
C2472 C2477 1.425 . S
C2472 C2479 1.409 . S
C2473 H2465 0.930 . S
C2473 C2471 1.419 . S
C2473 C2474 1.362 . S
C2474 H2466 0.930 . S
C2474 C2473 1.362 . S
C2474 C2477 1.409 . S
C2475 H2467 0.930 . S
C2475 C2476 1.355 . S
C2475 C2477 1.415 . S
C2476 C2475 1.355 . S
C2476 C2478 1.419 . S
C2477 C2472 1.425 . S
C2477 C2474 1.409 . S
C2477 C2475 1.415 . S
C2478 H2468 0.930 . S
C2478 C2476 1.419 . S
C2478 C2479 1.362 . S
C2479 H2469 0.930 . S
C2479 C2472 1.409 . S
C2479 C2478 1.362 . S
H2480 C2486 0.930 . S
H2481 C2489 0.930 . S
H2482 C2490 0.930 . S
H2483 C2491 0.930 . S
H2484 C2494 0.930 . S
H2485 C2495 0.930 . S
C2486 H2480 0.930 . S
C2486 C2487 1.355 . S
C2486 C2488 1.415 . S
C2487 C2486 1.355 . S
C2487 C2489 1.419 . S
C2488 C2486 1.415 . S
C2488 C2493 1.425 . S
C2488 C2495 1.409 1_545 S
C2489 H2481 0.930 . S
C2489 C2487 1.419 . S
C2489 C2490 1.362 . S
C2490 H2482 0.930 . S
C2490 C2489 1.362 . S
C2490 C2493 1.409 . S
C2491 H2483 0.930 . S
C2491 C2492 1.355 . S
C2491 C2493 1.415 1_565 S
C2492 C2491 1.355 . S
C2492 C2494 1.419 . S
C2493 C2488 1.425 . S
C2493 C2490 1.409 . S
C2493 C2491 1.415 1_545 S
C2494 H2484 0.930 . S
C2494 C2492 1.419 . S
C2494 C2495 1.362 . S
C2495 H2485 0.930 . S
C2495 C2488 1.409 1_565 S
C2495 C2494 1.362 . S
H2496 C2502 0.930 . S
H2497 C2505 0.930 . S
H2498 C2506 0.930 . S
H2499 C2507 0.930 . S
H2500 C2510 0.930 . S
H2501 C2511 0.930 . S
C2502 H2496 0.930 . S
C2502 C2503 1.355 . S
C2502 C2504 1.415 . S
C2503 C2502 1.355 . S
C2503 C2505 1.419 1_565 S
C2504 C2502 1.415 . S
C2504 C2509 1.425 1_565 S
C2504 C2511 1.409 . S
C2505 H2497 0.930 . S
C2505 C2503 1.419 1_545 S
C2505 C2506 1.362 . S
C2506 H2498 0.930 . S
C2506 C2505 1.362 . S
C2506 C2509 1.409 . S
C2507 H2499 0.930 . S
C2507 C2508 1.355 . S
C2507 C2509 1.415 . S
C2508 C2507 1.355 . S
C2508 C2510 1.419 . S
C2509 C2504 1.425 1_545 S
C2509 C2506 1.409 . S
C2509 C2507 1.415 . S
C2510 H2500 0.930 . S
C2510 C2508 1.419 . S
C2510 C2511 1.362 1_545 S
C2511 H2501 0.930 . S
C2511 C2504 1.409 . S
C2511 C2510 1.362 1_565 S
H2512 C2518 0.930 . S
H2513 C2521 0.930 . S
H2514 C2522 0.930 . S
H2515 C2523 0.930 . S
H2516 C2526 0.930 . S
H2517 C2527 0.930 . S
C2518 H2512 0.930 . S
C2518 C2519 1.355 . S
C2518 C2520 1.415 . S
C2519 C2518 1.355 . S
C2519 C2521 1.419 . S
C2520 C2518 1.415 . S
C2520 C2525 1.425 . S
C2520 C2527 1.409 1_455 S
C2521 H2513 0.930 . S
C2521 C2519 1.419 . S
C2521 C2522 1.362 . S
C2522 H2514 0.930 . S
C2522 C2521 1.362 . S
C2522 C2525 1.409 . S
C2523 H2515 0.930 . S
C2523 C2524 1.355 1_455 S
C2523 C2525 1.415 . S
C2524 C2523 1.355 1_655 S
C2524 C2526 1.419 . S
C2525 C2520 1.425 . S
C2525 C2522 1.409 . S
C2525 C2523 1.415 . S
C2526 H2516 0.930 . S
C2526 C2524 1.419 . S
C2526 C2527 1.362 . S
C2527 H2517 0.930 . S
C2527 C2520 1.409 1_655 S
C2527 C2526 1.362 . S
H2528 C2534 0.930 . S
H2529 C2537 0.930 . S
H2530 C2538 0.930 . S
H2531 C2539 0.930 . S
H2532 C2542 0.930 . S
H2533 C2543 0.930 . S
C2534 H2528 0.930 . S
C2534 C2535 1.355 . S
C2534 C2536 1.415 . S
C2535 C2534 1.355 . S
C2535 C2537 1.419 . S
C2536 C2534 1.415 . S
C2536 C2541 1.425 . S
C2536 C2543 1.409 . S
C2537 H2529 0.930 . S
C2537 C2535 1.419 . S
C2537 C2538 1.362 . S
C2538 H2530 0.930 . S
C2538 C2537 1.362 . S
C2538 C2541 1.409 . S
C2539 H2531 0.930 . S
C2539 C2540 1.355 . S
C2539 C2541 1.415 . S
C2540 C2539 1.355 . S
C2540 C2542 1.419 . S
C2541 C2536 1.425 . S
C2541 C2538 1.409 . S
C2541 C2539 1.415 . S
C2542 H2532 0.930 . S
C2542 C2540 1.419 . S
C2542 C2543 1.362 . S
C2543 H2533 0.930 . S
C2543 C2536 1.409 . S
C2543 C2542 1.362 . S
H2544 C2550 0.930 . S
H2545 C2553 0.930 . S
H2546 C2554 0.930 . S
H2547 C2555 0.930 . S
H2548 C2558 0.930 . S
H2549 C2559 0.930 . S
C2550 H2544 0.930 . S
C2550 C2551 1.355 . S
C2550 C2552 1.415 . S
C2551 C2550 1.355 . S
C2551 C2553 1.419 . S
C2552 C2550 1.415 . S
C2552 C2557 1.425 . S
C2552 C2559 1.409 . S
C2553 H2545 0.930 . S
C2553 C2551 1.419 . S
C2553 C2554 1.362 . S
C2554 H2546 0.930 . S
C2554 C2553 1.362 . S
C2554 C2557 1.409 . S
C2555 H2547 0.930 . S
C2555 C2556 1.355 . S
C2555 C2557 1.415 . S
C2556 C2555 1.355 . S
C2556 C2558 1.419 . S
C2557 C2552 1.425 . S
C2557 C2554 1.409 . S
C2557 C2555 1.415 . S
C2558 H2548 0.930 . S
C2558 C2556 1.419 . S
C2558 C2559 1.362 . S
C2559 H2549 0.930 . S
C2559 C2552 1.409 . S
C2559 C2558 1.362 . S
H2560 C2566 0.930 . S
H2561 C2569 0.930 . S
H2562 C2570 0.930 . S
H2563 C2571 0.930 . S
H2564 C2574 0.930 . S
H2565 C2575 0.930 . S
C2566 H2560 0.930 . S
C2566 C2567 1.355 . S
C2566 C2568 1.415 . S
C2567 C2566 1.355 . S
C2567 C2569 1.419 . S
C2568 C2566 1.415 . S
C2568 C2573 1.425 . S
C2568 C2575 1.409 . S
C2569 H2561 0.930 . S
C2569 C2567 1.419 . S
C2569 C2570 1.362 . S
C2570 H2562 0.930 . S
C2570 C2569 1.362 . S
C2570 C2573 1.409 . S
C2571 H2563 0.930 . S
C2571 C2572 1.355 . S
C2571 C2573 1.415 . S
C2572 C2571 1.355 . S
C2572 C2574 1.419 . S
C2573 C2568 1.425 . S
C2573 C2570 1.409 . S
C2573 C2571 1.415 . S
C2574 H2564 0.930 . S
C2574 C2572 1.419 . S
C2574 C2575 1.362 . S
C2575 H2565 0.930 . S
C2575 C2568 1.409 . S
C2575 C2574 1.362 . S
H2576 C2582 0.930 . S
H2577 C2585 0.930 . S
H2578 C2586 0.930 . S
H2579 C2587 0.930 . S
H2580 C2590 0.930 . S
H2581 C2591 0.930 . S
C2582 H2576 0.930 . S
C2582 C2583 1.355 . S
C2582 C2584 1.415 . S
C2583 C2582 1.355 . S
C2583 C2585 1.419 . S
C2584 C2582 1.415 . S
C2584 C2589 1.425 . S
C2584 C2591 1.409 . S
C2585 H2577 0.930 . S
C2585 C2583 1.419 . S
C2585 C2586 1.362 . S
C2586 H2578 0.930 . S
C2586 C2585 1.362 . S
C2586 C2589 1.409 . S
C2587 H2579 0.930 . S
C2587 C2588 1.355 . S
C2587 C2589 1.415 . S
C2588 C2587 1.355 . S
C2588 C2590 1.419 . S
C2589 C2584 1.425 . S
C2589 C2586 1.409 . S
C2589 C2587 1.415 . S
C2590 H2580 0.930 . S
C2590 C2588 1.419 . S
C2590 C2591 1.362 . S
C2591 H2581 0.930 . S
C2591 C2584 1.409 . S
C2591 C2590 1.362 . S
H2592 C2598 0.930 . S
H2593 C2601 0.930 . S
H2594 C2602 0.930 . S
H2595 C2603 0.930 . S
H2596 C2606 0.930 . S
H2597 C2607 0.930 . S
C2598 H2592 0.930 . S
C2598 C2599 1.355 . S
C2598 C2600 1.415 . S
C2599 C2598 1.355 . S
C2599 C2601 1.419 . S
C2600 C2598 1.415 . S
C2600 C2605 1.425 . S
C2600 C2607 1.409 . S
C2601 H2593 0.930 . S
C2601 C2599 1.419 . S
C2601 C2602 1.362 . S
C2602 H2594 0.930 . S
C2602 C2601 1.362 . S
C2602 C2605 1.409 . S
C2603 H2595 0.930 . S
C2603 C2604 1.355 . S
C2603 C2605 1.415 . S
C2604 C2603 1.355 . S
C2604 C2606 1.419 . S
C2605 C2600 1.425 . S
C2605 C2602 1.409 . S
C2605 C2603 1.415 . S
C2606 H2596 0.930 . S
C2606 C2604 1.419 . S
C2606 C2607 1.362 . S
C2607 H2597 0.930 . S
C2607 C2600 1.409 . S
C2607 C2606 1.362 . S
H2608 C2614 0.930 . S
H2609 C2617 0.930 . S
H2610 C2618 0.930 . S
H2611 C2619 0.930 . S
H2612 C2622 0.930 . S
H2613 C2623 0.930 . S
C2614 H2608 0.930 . S
C2614 C2615 1.355 . S
C2614 C2616 1.415 . S
C2615 C2614 1.355 . S
C2615 C2617 1.419 . S
C2616 C2614 1.415 . S
C2616 C2621 1.425 . S
C2616 C2623 1.409 . S
C2617 H2609 0.930 . S
C2617 C2615 1.419 . S
C2617 C2618 1.362 . S
C2618 H2610 0.930 . S
C2618 C2617 1.362 . S
C2618 C2621 1.409 . S
C2619 H2611 0.930 . S
C2619 C2620 1.355 . S
C2619 C2621 1.415 . S
C2620 C2619 1.355 . S
C2620 C2622 1.419 . S
C2621 C2616 1.425 . S
C2621 C2618 1.409 . S
C2621 C2619 1.415 . S
C2622 H2612 0.930 . S
C2622 C2620 1.419 . S
C2622 C2623 1.362 . S
C2623 H2613 0.930 . S
C2623 C2616 1.409 . S
C2623 C2622 1.362 . S
H2624 C2630 0.930 . S
H2625 C2633 0.930 . S
H2626 C2634 0.930 . S
H2627 C2635 0.930 . S
H2628 C2638 0.930 . S
H2629 C2639 0.930 . S
C2630 H2624 0.930 . S
C2630 C2631 1.355 . S
C2630 C2632 1.415 . S
C2631 C2630 1.355 . S
C2631 C2633 1.419 . S
C2632 C2630 1.415 . S
C2632 C2637 1.425 . S
C2632 C2639 1.409 . S
C2633 H2625 0.930 . S
C2633 C2631 1.419 . S
C2633 C2634 1.362 . S
C2634 H2626 0.930 . S
C2634 C2633 1.362 . S
C2634 C2637 1.409 . S
C2635 H2627 0.930 . S
C2635 C2636 1.355 . S
C2635 C2637 1.415 . S
C2636 C2635 1.355 . S
C2636 C2638 1.419 . S
C2637 C2632 1.425 . S
C2637 C2634 1.409 . S
C2637 C2635 1.415 . S
C2638 H2628 0.930 . S
C2638 C2636 1.419 . S
C2638 C2639 1.362 . S
C2639 H2629 0.930 . S
C2639 C2632 1.409 . S
C2639 C2638 1.362 . S
H2640 C2646 0.930 . S
H2641 C2649 0.930 . S
H2642 C2650 0.930 . S
H2643 C2651 0.930 . S
H2644 C2654 0.930 . S
H2645 C2655 0.930 . S
C2646 H2640 0.930 . S
C2646 C2647 1.355 . S
C2646 C2648 1.415 . S
C2647 C2646 1.355 . S
C2647 C2649 1.419 . S
C2648 C2646 1.415 . S
C2648 C2653 1.425 . S
C2648 C2655 1.409 . S
C2649 H2641 0.930 . S
C2649 C2647 1.419 . S
C2649 C2650 1.362 . S
C2650 H2642 0.930 . S
C2650 C2649 1.362 . S
C2650 C2653 1.409 . S
C2651 H2643 0.930 . S
C2651 C2652 1.355 . S
C2651 C2653 1.415 . S
C2652 C2651 1.355 . S
C2652 C2654 1.419 . S
C2653 C2648 1.425 . S
C2653 C2650 1.409 . S
C2653 C2651 1.415 . S
C2654 H2644 0.930 . S
C2654 C2652 1.419 . S
C2654 C2655 1.362 . S
C2655 H2645 0.930 . S
C2655 C2648 1.409 . S
C2655 C2654 1.362 . S
H2656 C2662 0.930 . S
H2657 C2665 0.930 . S
H2658 C2666 0.930 . S
H2659 C2667 0.930 . S
H2660 C2670 0.930 . S
H2661 C2671 0.930 . S
C2662 H2656 0.930 . S
C2662 C2663 1.355 . S
C2662 C2664 1.415 . S
C2663 C2662 1.355 . S
C2663 C2665 1.419 . S
C2664 C2662 1.415 . S
C2664 C2669 1.425 . S
C2664 C2671 1.409 . S
C2665 H2657 0.930 . S
C2665 C2663 1.419 . S
C2665 C2666 1.362 . S
C2666 H2658 0.930 . S
C2666 C2665 1.362 . S
C2666 C2669 1.409 . S
C2667 H2659 0.930 . S
C2667 C2668 1.355 . S
C2667 C2669 1.415 . S
C2668 C2667 1.355 . S
C2668 C2670 1.419 . S
C2669 C2664 1.425 . S
C2669 C2666 1.409 . S
C2669 C2667 1.415 . S
C2670 H2660 0.930 . S
C2670 C2668 1.419 . S
C2670 C2671 1.362 . S
C2671 H2661 0.930 . S
C2671 C2664 1.409 . S
C2671 C2670 1.362 . S
H2672 C2678 0.930 . S
H2673 C2681 0.930 . S
H2674 C2682 0.930 . S
H2675 C2683 0.930 . S
H2676 C2686 0.930 . S
H2677 C2687 0.930 . S
C2678 H2672 0.930 . S
C2678 C2679 1.355 . S
C2678 C2680 1.415 . S
C2679 C2678 1.355 . S
C2679 C2681 1.419 . S
C2680 C2678 1.415 . S
C2680 C2685 1.425 . S
C2680 C2687 1.409 . S
C2681 H2673 0.930 . S
C2681 C2679 1.419 . S
C2681 C2682 1.362 . S
C2682 H2674 0.930 . S
C2682 C2681 1.362 . S
C2682 C2685 1.409 . S
C2683 H2675 0.930 . S
C2683 C2684 1.355 . S
C2683 C2685 1.415 . S
C2684 C2683 1.355 . S
C2684 C2686 1.419 . S
C2685 C2680 1.425 . S
C2685 C2682 1.409 . S
C2685 C2683 1.415 . S
C2686 H2676 0.930 . S
C2686 C2684 1.419 . S
C2686 C2687 1.362 . S
C2687 H2677 0.930 . S
C2687 C2680 1.409 . S
C2687 C2686 1.362 . S
H2688 C2694 0.930 . S
H2689 C2697 0.930 . S
H2690 C2698 0.930 . S
H2691 C2699 0.930 . S
H2692 C2702 0.930 . S
H2693 C2703 0.930 . S
C2694 H2688 0.930 . S
C2694 C2695 1.355 . S
C2694 C2696 1.415 . S
C2695 C2694 1.355 . S
C2695 C2697 1.419 . S
C2696 C2694 1.415 . S
C2696 C2701 1.425 . S
C2696 C2703 1.409 . S
C2697 H2689 0.930 . S
C2697 C2695 1.419 . S
C2697 C2698 1.362 . S
C2698 H2690 0.930 . S
C2698 C2697 1.362 . S
C2698 C2701 1.409 . S
C2699 H2691 0.930 . S
C2699 C2700 1.355 . S
C2699 C2701 1.415 . S
C2700 C2699 1.355 . S
C2700 C2702 1.419 . S
C2701 C2696 1.425 . S
C2701 C2698 1.409 . S
C2701 C2699 1.415 . S
C2702 H2692 0.930 . S
C2702 C2700 1.419 . S
C2702 C2703 1.362 . S
C2703 H2693 0.930 . S
C2703 C2696 1.409 . S
C2703 C2702 1.362 . S
H2704 C2710 0.930 . S
H2705 C2713 0.930 . S
H2706 C2714 0.930 . S
H2707 C2715 0.930 . S
H2708 C2718 0.930 . S
H2709 C2719 0.930 . S
C2710 H2704 0.930 . S
C2710 C2711 1.355 . S
C2710 C2712 1.415 . S
C2711 C2710 1.355 . S
C2711 C2713 1.419 . S
C2712 C2710 1.415 . S
C2712 C2717 1.425 . S
C2712 C2719 1.409 . S
C2713 H2705 0.930 . S
C2713 C2711 1.419 . S
C2713 C2714 1.362 . S
C2714 H2706 0.930 . S
C2714 C2713 1.362 . S
C2714 C2717 1.409 . S
C2715 H2707 0.930 . S
C2715 C2716 1.355 . S
C2715 C2717 1.415 . S
C2716 C2715 1.355 . S
C2716 C2718 1.419 . S
C2717 C2712 1.425 . S
C2717 C2714 1.409 . S
C2717 C2715 1.415 . S
C2718 H2708 0.930 . S
C2718 C2716 1.419 . S
C2718 C2719 1.362 . S
C2719 H2709 0.930 . S
C2719 C2712 1.409 . S
C2719 C2718 1.362 . S
H2720 C2726 0.930 . S
H2721 C2729 0.930 . S
H2722 C2730 0.930 . S
H2723 C2731 0.930 . S
H2724 C2734 0.930 . S
H2725 C2735 0.930 . S
C2726 H2720 0.930 . S
C2726 C2727 1.355 . S
C2726 C2728 1.415 . S
C2727 C2726 1.355 . S
C2727 C2729 1.419 . S
C2728 C2726 1.415 . S
C2728 C2733 1.425 . S
C2728 C2735 1.409 . S
C2729 H2721 0.930 . S
C2729 C2727 1.419 . S
C2729 C2730 1.362 . S
C2730 H2722 0.930 . S
C2730 C2729 1.362 . S
C2730 C2733 1.409 . S
C2731 H2723 0.930 . S
C2731 C2732 1.355 . S
C2731 C2733 1.415 . S
C2732 C2731 1.355 . S
C2732 C2734 1.419 . S
C2733 C2728 1.425 . S
C2733 C2730 1.409 . S
C2733 C2731 1.415 . S
C2734 H2724 0.930 . S
C2734 C2732 1.419 . S
C2734 C2735 1.362 . S
C2735 H2725 0.930 . S
C2735 C2728 1.409 . S
C2735 C2734 1.362 . S
H2736 C2742 0.930 . S
H2737 C2745 0.930 . S
H2738 C2746 0.930 . S
H2739 C2747 0.930 . S
H2740 C2750 0.930 . S
H2741 C2751 0.930 . S
C2742 H2736 0.930 . S
C2742 C2743 1.355 . S
C2742 C2744 1.415 . S
C2743 C2742 1.355 . S
C2743 C2745 1.419 . S
C2744 C2742 1.415 . S
C2744 C2749 1.425 . S
C2744 C2751 1.409 . S
C2745 H2737 0.930 . S
C2745 C2743 1.419 . S
C2745 C2746 1.362 . S
C2746 H2738 0.930 . S
C2746 C2745 1.362 . S
C2746 C2749 1.409 . S
C2747 H2739 0.930 . S
C2747 C2748 1.355 . S
C2747 C2749 1.415 . S
C2748 C2747 1.355 . S
C2748 C2750 1.419 . S
C2749 C2744 1.425 . S
C2749 C2746 1.409 . S
C2749 C2747 1.415 . S
C2750 H2740 0.930 . S
C2750 C2748 1.419 . S
C2750 C2751 1.362 . S
C2751 H2741 0.930 . S
C2751 C2744 1.409 . S
C2751 C2750 1.362 . S
H2752 C2758 0.930 . S
H2753 C2761 0.930 . S
H2754 C2762 0.930 . S
H2755 C2763 0.930 . S
H2756 C2766 0.930 . S
H2757 C2767 0.930 . S
C2758 H2752 0.930 . S
C2758 C2759 1.355 . S
C2758 C2760 1.415 . S
C2759 C2758 1.355 . S
C2759 C2761 1.419 . S
C2760 C2758 1.415 . S
C2760 C2765 1.425 . S
C2760 C2767 1.409 . S
C2761 H2753 0.930 . S
C2761 C2759 1.419 . S
C2761 C2762 1.362 . S
C2762 H2754 0.930 . S
C2762 C2761 1.362 . S
C2762 C2765 1.409 . S
C2763 H2755 0.930 . S
C2763 C2764 1.355 . S
C2763 C2765 1.415 . S
C2764 C2763 1.355 . S
C2764 C2766 1.419 . S
C2765 C2760 1.425 . S
C2765 C2762 1.409 . S
C2765 C2763 1.415 . S
C2766 H2756 0.930 . S
C2766 C2764 1.419 . S
C2766 C2767 1.362 . S
C2767 H2757 0.930 . S
C2767 C2760 1.409 . S
C2767 C2766 1.362 . S
H2768 C2774 0.930 . S
H2769 C2777 0.930 . S
H2770 C2778 0.930 . S
H2771 C2779 0.930 . S
H2772 C2782 0.930 . S
H2773 C2783 0.930 . S
C2774 H2768 0.930 . S
C2774 C2775 1.355 . S
C2774 C2776 1.415 . S
C2775 C2774 1.355 . S
C2775 C2777 1.419 . S
C2776 C2774 1.415 . S
C2776 C2781 1.425 . S
C2776 C2783 1.409 . S
C2777 H2769 0.930 . S
C2777 C2775 1.419 . S
C2777 C2778 1.362 . S
C2778 H2770 0.930 . S
C2778 C2777 1.362 . S
C2778 C2781 1.409 . S
C2779 H2771 0.930 . S
C2779 C2780 1.355 . S
C2779 C2781 1.415 . S
C2780 C2779 1.355 . S
C2780 C2782 1.419 . S
C2781 C2776 1.425 . S
C2781 C2778 1.409 . S
C2781 C2779 1.415 . S
C2782 H2772 0.930 . S
C2782 C2780 1.419 . S
C2782 C2783 1.362 . S
C2783 H2773 0.930 . S
C2783 C2776 1.409 . S
C2783 C2782 1.362 . S
H2784 C2790 0.930 . S
H2785 C2793 0.930 . S
H2786 C2794 0.930 . S
H2787 C2795 0.930 . S
H2788 C2798 0.930 . S
H2789 C2799 0.930 . S
C2790 H2784 0.930 . S
C2790 C2791 1.355 . S
C2790 C2792 1.415 . S
C2791 C2790 1.355 . S
C2791 C2793 1.419 . S
C2792 C2790 1.415 . S
C2792 C2797 1.425 . S
C2792 C2799 1.409 . S
C2793 H2785 0.930 . S
C2793 C2791 1.419 . S
C2793 C2794 1.362 . S
C2794 H2786 0.930 . S
C2794 C2793 1.362 . S
C2794 C2797 1.409 . S
C2795 H2787 0.930 . S
C2795 C2796 1.355 . S
C2795 C2797 1.415 . S
C2796 C2795 1.355 . S
C2796 C2798 1.419 . S
C2797 C2792 1.425 . S
C2797 C2794 1.409 . S
C2797 C2795 1.415 . S
C2798 H2788 0.930 . S
C2798 C2796 1.419 . S
C2798 C2799 1.362 . S
C2799 H2789 0.930 . S
C2799 C2792 1.409 . S
C2799 C2798 1.362 . S
H2800 C2806 0.930 . S
H2801 C2809 0.930 . S
H2802 C2810 0.930 . S
H2803 C2811 0.930 . S
H2804 C2814 0.930 . S
H2805 C2815 0.930 . S
C2806 H2800 0.930 . S
C2806 C2807 1.355 . S
C2806 C2808 1.415 . S
C2807 C2806 1.355 . S
C2807 C2809 1.419 . S
C2808 C2806 1.415 . S
C2808 C2813 1.425 . S
C2808 C2815 1.409 . S
C2809 H2801 0.930 . S
C2809 C2807 1.419 . S
C2809 C2810 1.362 . S
C2810 H2802 0.930 . S
C2810 C2809 1.362 . S
C2810 C2813 1.409 . S
C2811 H2803 0.930 . S
C2811 C2812 1.355 . S
C2811 C2813 1.415 . S
C2812 C2811 1.355 . S
C2812 C2814 1.419 . S
C2813 C2808 1.425 . S
C2813 C2810 1.409 . S
C2813 C2811 1.415 . S
C2814 H2804 0.930 . S
C2814 C2812 1.419 . S
C2814 C2815 1.362 . S
C2815 H2805 0.930 . S
C2815 C2808 1.409 . S
C2815 C2814 1.362 . S
H2816 C2822 0.930 . S
H2817 C2825 0.930 . S
H2818 C2826 0.930 . S
H2819 C2827 0.930 . S
H2820 C2830 0.930 . S
H2821 C2831 0.930 . S
C2822 H2816 0.930 . S
C2822 C2823 1.355 . S
C2822 C2824 1.415 . S
C2823 C2822 1.355 . S
C2823 C2825 1.419 . S
C2824 C2822 1.415 . S
C2824 C2829 1.425 . S
C2824 C2831 1.409 . S
C2825 H2817 0.930 . S
C2825 C2823 1.419 . S
C2825 C2826 1.362 . S
C2826 H2818 0.930 . S
C2826 C2825 1.362 . S
C2826 C2829 1.409 . S
C2827 H2819 0.930 . S
C2827 C2828 1.355 . S
C2827 C2829 1.415 . S
C2828 C2827 1.355 . S
C2828 C2830 1.419 . S
C2829 C2824 1.425 . S
C2829 C2826 1.409 . S
C2829 C2827 1.415 . S
C2830 H2820 0.930 . S
C2830 C2828 1.419 . S
C2830 C2831 1.362 . S
C2831 H2821 0.930 . S
C2831 C2824 1.409 . S
C2831 C2830 1.362 . S
H2832 C2838 0.930 . S
H2833 C2841 0.930 . S
H2834 C2842 0.930 . S
H2835 C2843 0.930 . S
H2836 C2846 0.930 . S
H2837 C2847 0.930 . S
C2838 H2832 0.930 . S
C2838 C2839 1.355 . S
C2838 C2840 1.415 . S
C2839 C2838 1.355 . S
C2839 C2841 1.419 . S
C2840 C2838 1.415 . S
C2840 C2845 1.425 . S
C2840 C2847 1.409 . S
C2841 H2833 0.930 . S
C2841 C2839 1.419 . S
C2841 C2842 1.362 . S
C2842 H2834 0.930 . S
C2842 C2841 1.362 . S
C2842 C2845 1.409 . S
C2843 H2835 0.930 . S
C2843 C2844 1.355 . S
C2843 C2845 1.415 1_655 S
C2844 C2843 1.355 . S
C2844 C2846 1.419 . S
C2845 C2840 1.425 . S
C2845 C2842 1.409 . S
C2845 C2843 1.415 1_455 S
C2846 H2836 0.930 . S
C2846 C2844 1.419 . S
C2846 C2847 1.362 1_655 S
C2847 H2837 0.930 . S
C2847 C2840 1.409 . S
C2847 C2846 1.362 1_455 S
H2848 C2854 0.930 . S
H2849 C2857 0.930 . S
H2850 C2858 0.930 . S
H2851 C2859 0.930 . S
H2852 C2862 0.930 . S
H2853 C2863 0.930 . S
C2854 H2848 0.930 . S
C2854 C2855 1.355 . S
C2854 C2856 1.415 . S
C2855 C2854 1.355 . S
C2855 C2857 1.419 . S
C2856 C2854 1.415 . S
C2856 C2861 1.425 . S
C2856 C2863 1.409 . S
C2857 H2849 0.930 . S
C2857 C2855 1.419 . S
C2857 C2858 1.362 . S
C2858 H2850 0.930 . S
C2858 C2857 1.362 . S
C2858 C2861 1.409 . S
C2859 H2851 0.930 . S
C2859 C2860 1.355 . S
C2859 C2861 1.415 . S
C2860 C2859 1.355 . S
C2860 C2862 1.419 . S
C2861 C2856 1.425 . S
C2861 C2858 1.409 . S
C2861 C2859 1.415 . S
C2862 H2852 0.930 . S
C2862 C2860 1.419 . S
C2862 C2863 1.362 . S
C2863 H2853 0.930 . S
C2863 C2856 1.409 . S
C2863 C2862 1.362 . S
H2864 C2870 0.930 . S
H2865 C2873 0.930 . S
H2866 C2874 0.930 . S
H2867 C2875 0.930 . S
H2868 C2878 0.930 . S
H2869 C2879 0.930 . S
C2870 H2864 0.930 . S
C2870 C2871 1.355 . S
C2870 C2872 1.415 . S
C2871 C2870 1.355 . S
C2871 C2873 1.419 . S
C2872 C2870 1.415 . S
C2872 C2877 1.425 . S
C2872 C2879 1.409 1_545 S
C2873 H2865 0.930 . S
C2873 C2871 1.419 . S
C2873 C2874 1.362 . S
C2874 H2866 0.930 . S
C2874 C2873 1.362 . S
C2874 C2877 1.409 . S
C2875 H2867 0.930 . S
C2875 C2876 1.355 . S
C2875 C2877 1.415 1_565 S
C2876 C2875 1.355 . S
C2876 C2878 1.419 . S
C2877 C2872 1.425 . S
C2877 C2874 1.409 . S
C2877 C2875 1.415 1_545 S
C2878 H2868 0.930 . S
C2878 C2876 1.419 . S
C2878 C2879 1.362 . S
C2879 H2869 0.930 . S
C2879 C2872 1.409 1_565 S
C2879 C2878 1.362 . S
H2880 C2886 0.930 . S
H2881 C2889 0.930 . S
H2882 C2890 0.930 . S
H2883 C2891 0.930 . S
H2884 C2894 0.930 . S
H2885 C2895 0.930 . S
C2886 H2880 0.930 . S
C2886 C2887 1.355 . S
C2886 C2888 1.415 1_565 S
C2887 C2886 1.355 . S
C2887 C2889 1.419 . S
C2888 C2886 1.415 1_545 S
C2888 C2893 1.425 . S
C2888 C2895 1.409 . S
C2889 H2881 0.930 . S
C2889 C2887 1.419 . S
C2889 C2890 1.362 . S
C2890 H2882 0.930 . S
C2890 C2889 1.362 . S
C2890 C2893 1.409 1_565 S
C2891 H2883 0.930 . S
C2891 C2892 1.355 . S
C2891 C2893 1.415 . S
C2892 C2891 1.355 . S
C2892 C2894 1.419 . S
C2893 C2888 1.425 . S
C2893 C2890 1.409 1_545 S
C2893 C2891 1.415 . S
C2894 H2884 0.930 . S
C2894 C2892 1.419 . S
C2894 C2895 1.362 . S
C2895 H2885 0.930 . S
C2895 C2888 1.409 . S
C2895 C2894 1.362 . S
H2896 C2902 0.930 . S
H2897 C2905 0.930 . S
H2898 C2906 0.930 . S
H2899 C2907 0.930 . S
H2900 C2910 0.930 . S
H2901 C2911 0.930 . S
C2902 H2896 0.930 . S
C2902 C2903 1.355 . S
C2902 C2904 1.415 . S
C2903 C2902 1.355 . S
C2903 C2905 1.419 . S
C2904 C2902 1.415 . S
C2904 C2909 1.425 . S
C2904 C2911 1.409 . S
C2905 H2897 0.930 . S
C2905 C2903 1.419 . S
C2905 C2906 1.362 . S
C2906 H2898 0.930 . S
C2906 C2905 1.362 . S
C2906 C2909 1.409 . S
C2907 H2899 0.930 . S
C2907 C2908 1.355 1_455 S
C2907 C2909 1.415 . S
C2908 C2907 1.355 1_655 S
C2908 C2910 1.419 . S
C2909 C2904 1.425 . S
C2909 C2906 1.409 . S
C2909 C2907 1.415 . S
C2910 H2900 0.930 . S
C2910 C2908 1.419 . S
C2910 C2911 1.362 1_655 S
C2911 H2901 0.930 . S
C2911 C2904 1.409 . S
C2911 C2910 1.362 1_455 S
H2912 C2918 0.930 . S
H2913 C2921 0.930 . S
H2914 C2922 0.930 . S
H2915 C2923 0.930 . S
H2916 C2926 0.930 . S
H2917 C2927 0.930 . S
C2918 H2912 0.930 . S
C2918 C2919 1.355 . S
C2918 C2920 1.415 . S
C2919 C2918 1.355 . S
C2919 C2921 1.419 . S
C2920 C2918 1.415 . S
C2920 C2925 1.425 . S
C2920 C2927 1.409 . S
C2921 H2913 0.930 . S
C2921 C2919 1.419 . S
C2921 C2922 1.362 . S
C2922 H2914 0.930 . S
C2922 C2921 1.362 . S
C2922 C2925 1.409 . S
C2923 H2915 0.930 . S
C2923 C2924 1.355 . S
C2923 C2925 1.415 . S
C2924 C2923 1.355 . S
C2924 C2926 1.419 . S
C2925 C2920 1.425 . S
C2925 C2922 1.409 . S
C2925 C2923 1.415 . S
C2926 H2916 0.930 . S
C2926 C2924 1.419 . S
C2926 C2927 1.362 . S
C2927 H2917 0.930 . S
C2927 C2920 1.409 . S
C2927 C2926 1.362 . S
H2928 C2934 0.930 . S
H2929 C2937 0.930 . S
H2930 C2938 0.930 . S
H2931 C2939 0.930 . S
H2932 C2942 0.930 . S
H2933 C2943 0.930 . S
C2934 H2928 0.930 . S
C2934 C2935 1.355 . S
C2934 C2936 1.415 . S
C2935 C2934 1.355 . S
C2935 C2937 1.419 . S
C2936 C2934 1.415 . S
C2936 C2941 1.425 . S
C2936 C2943 1.409 . S
C2937 H2929 0.930 . S
C2937 C2935 1.419 . S
C2937 C2938 1.362 . S
C2938 H2930 0.930 . S
C2938 C2937 1.362 . S
C2938 C2941 1.409 . S
C2939 H2931 0.930 . S
C2939 C2940 1.355 . S
C2939 C2941 1.415 . S
C2940 C2939 1.355 . S
C2940 C2942 1.419 . S
C2941 C2936 1.425 . S
C2941 C2938 1.409 . S
C2941 C2939 1.415 . S
C2942 H2932 0.930 . S
C2942 C2940 1.419 . S
C2942 C2943 1.362 . S
C2943 H2933 0.930 . S
C2943 C2936 1.409 . S
C2943 C2942 1.362 . S
H2944 C2950 0.930 . S
H2945 C2953 0.930 . S
H2946 C2954 0.930 . S
H2947 C2955 0.930 . S
H2948 C2958 0.930 . S
H2949 C2959 0.930 . S
C2950 H2944 0.930 . S
C2950 C2951 1.355 . S
C2950 C2952 1.415 . S
C2951 C2950 1.355 . S
C2951 C2953 1.419 . S
C2952 C2950 1.415 . S
C2952 C2957 1.425 . S
C2952 C2959 1.409 . S
C2953 H2945 0.930 . S
C2953 C2951 1.419 . S
C2953 C2954 1.362 . S
C2954 H2946 0.930 . S
C2954 C2953 1.362 . S
C2954 C2957 1.409 . S
C2955 H2947 0.930 . S
C2955 C2956 1.355 . S
C2955 C2957 1.415 . S
C2956 C2955 1.355 . S
C2956 C2958 1.419 . S
C2957 C2952 1.425 . S
C2957 C2954 1.409 . S
C2957 C2955 1.415 . S
C2958 H2948 0.930 . S
C2958 C2956 1.419 . S
C2958 C2959 1.362 . S
C2959 H2949 0.930 . S
C2959 C2952 1.409 . S
C2959 C2958 1.362 . S
H2960 C2966 0.930 . S
H2961 C2969 0.930 . S
H2962 C2970 0.930 . S
H2963 C2971 0.930 . S
H2964 C2974 0.930 . S
H2965 C2975 0.930 . S
C2966 H2960 0.930 . S
C2966 C2967 1.355 . S
C2966 C2968 1.415 . S
C2967 C2966 1.355 . S
C2967 C2969 1.419 . S
C2968 C2966 1.415 . S
C2968 C2973 1.425 . S
C2968 C2975 1.409 . S
C2969 H2961 0.930 . S
C2969 C2967 1.419 . S
C2969 C2970 1.362 . S
C2970 H2962 0.930 . S
C2970 C2969 1.362 . S
C2970 C2973 1.409 . S
C2971 H2963 0.930 . S
C2971 C2972 1.355 . S
C2971 C2973 1.415 . S
C2972 C2971 1.355 . S
C2972 C2974 1.419 . S
C2973 C2968 1.425 . S
C2973 C2970 1.409 . S
C2973 C2971 1.415 . S
C2974 H2964 0.930 . S
C2974 C2972 1.419 . S
C2974 C2975 1.362 . S
C2975 H2965 0.930 . S
C2975 C2968 1.409 . S
C2975 C2974 1.362 . S
H2976 C2982 0.914 1_565 S
H2977 C2985 0.930 . S
H2978 C2986 0.930 . S
H2979 C2987 0.930 . S
H2980 C2990 0.930 . S
H2981 C2991 0.930 . S
C2982 H2976 0.914 1_545 S
C2982 C2983 1.355 1_545 S
C2982 C2984 1.415 . S
C2983 C2982 1.355 1_565 S
C2983 C2985 1.419 . S
C2984 C2982 1.415 . S
C2984 C2989 1.425 . S
C2984 C2991 1.409 . S
C2985 H2977 0.930 . S
C2985 C2983 1.419 . S
C2985 C2986 1.362 1_565 S
C2986 H2978 0.930 . S
C2986 C2985 1.362 1_545 S
C2986 C2989 1.409 . S
C2987 H2979 0.930 . S
C2987 C2988 1.355 . S
C2987 C2989 1.415 . S
C2988 C2987 1.355 . S
C2988 C2990 1.419 . S
C2989 C2984 1.425 . S
C2989 C2986 1.409 . S
C2989 C2987 1.415 . S
C2990 H2980 0.930 . S
C2990 C2988 1.419 . S
C2990 C2991 1.362 . S
C2991 H2981 0.930 . S
C2991 C2984 1.409 . S
C2991 C2990 1.362 . S
H2992 C2998 0.930 . S
H2993 C3001 0.930 . S
H2994 C3002 0.930 . S
H2995 C3003 0.930 . S
H2996 C3006 0.930 . S
H2997 C3007 0.930 . S
C2998 H2992 0.930 . S
C2998 C2999 1.355 . S
C2998 C3000 1.415 1_655 S
C2999 C2998 1.355 . S
C2999 C3001 1.419 . S
C3000 C2998 1.415 1_455 S
C3000 C3005 1.425 . S
C3000 C3007 1.409 . S
C3001 H2993 0.930 . S
C3001 C2999 1.419 . S
C3001 C3002 1.362 . S
C3002 H2994 0.930 . S
C3002 C3001 1.362 . S
C3002 C3005 1.409 1_655 S
C3003 H2995 0.930 . S
C3003 C3004 1.355 . S
C3003 C3005 1.415 . S
C3004 C3003 1.355 . S
C3004 C3006 1.419 . S
C3005 C3000 1.425 . S
C3005 C3002 1.409 1_455 S
C3005 C3003 1.415 . S
C3006 H2996 0.930 . S
C3006 C3004 1.419 . S
C3006 C3007 1.362 . S
C3007 H2997 0.930 . S
C3007 C3000 1.409 . S
C3007 C3006 1.362 . S
H3008 C3014 0.930 . S
H3009 C3017 0.930 . S
H3010 C3018 0.930 . S
H3011 C3019 0.930 . S
H3012 C3022 0.930 . S
H3013 C3023 0.930 . S
C3014 H3008 0.930 . S
C3014 C3015 1.355 . S
C3014 C3016 1.415 . S
C3015 C3014 1.355 . S
C3015 C3017 1.419 . S
C3016 C3014 1.415 . S
C3016 C3021 1.425 . S
C3016 C3023 1.409 . S
C3017 H3009 0.930 . S
C3017 C3015 1.419 . S
C3017 C3018 1.362 . S
C3018 H3010 0.930 . S
C3018 C3017 1.362 . S
C3018 C3021 1.409 . S
C3019 H3011 0.930 . S
C3019 C3020 1.355 . S
C3019 C3021 1.415 . S
C3020 C3019 1.355 . S
C3020 C3022 1.419 . S
C3021 C3016 1.425 . S
C3021 C3018 1.409 . S
C3021 C3019 1.415 . S
C3022 H3012 0.930 . S
C3022 C3020 1.419 . S
C3022 C3023 1.362 . S
C3023 H3013 0.930 . S
C3023 C3016 1.409 . S
C3023 C3022 1.362 . S
H3024 C3030 0.930 . S
H3025 C3033 0.930 . S
H3026 C3034 0.930 . S
H3027 C3035 0.930 . S
H3028 C3038 0.930 . S
H3029 C3039 0.930 . S
C3030 H3024 0.930 . S
C3030 C3031 1.355 . S
C3030 C3032 1.415 . S
C3031 C3030 1.355 . S
C3031 C3033 1.419 . S
C3032 C3030 1.415 . S
C3032 C3037 1.425 . S
C3032 C3039 1.409 . S
C3033 H3025 0.930 . S
C3033 C3031 1.419 . S
C3033 C3034 1.362 . S
C3034 H3026 0.930 . S
C3034 C3033 1.362 . S
C3034 C3037 1.409 . S
C3035 H3027 0.930 . S
C3035 C3036 1.355 . S
C3035 C3037 1.415 . S
C3036 C3035 1.355 . S
C3036 C3038 1.419 . S
C3037 C3032 1.425 . S
C3037 C3034 1.409 . S
C3037 C3035 1.415 . S
C3038 H3028 0.930 . S
C3038 C3036 1.419 . S
C3038 C3039 1.362 . S
C3039 H3029 0.930 . S
C3039 C3032 1.409 . S
C3039 C3038 1.362 . S
H3040 C3046 0.930 . S
H3041 C3049 0.930 . S
H3042 C3050 0.930 . S
H3043 C3051 0.930 . S
H3044 C3054 0.930 . S
H3045 C3055 0.930 . S
C3046 H3040 0.930 . S
C3046 C3047 1.355 . S
C3046 C3048 1.415 . S
C3047 C3046 1.355 . S
C3047 C3049 1.419 . S
C3048 C3046 1.415 . S
C3048 C3053 1.425 . S
C3048 C3055 1.409 . S
C3049 H3041 0.930 . S
C3049 C3047 1.419 . S
C3049 C3050 1.362 . S
C3050 H3042 0.930 . S
C3050 C3049 1.362 . S
C3050 C3053 1.409 . S
C3051 H3043 0.930 . S
C3051 C3052 1.355 . S
C3051 C3053 1.415 . S
C3052 C3051 1.355 . S
C3052 C3054 1.419 . S
C3053 C3048 1.425 . S
C3053 C3050 1.409 . S
C3053 C3051 1.415 . S
C3054 H3044 0.930 . S
C3054 C3052 1.419 . S
C3054 C3055 1.362 . S
C3055 H3045 0.930 . S
C3055 C3048 1.409 . S
C3055 C3054 1.362 . S
H3056 C3062 0.930 . S
H3057 C3065 0.930 . S
H3058 C3066 0.930 . S
H3059 C3067 0.930 . S
H3060 C3070 0.930 . S
H3061 C3071 0.930 . S
C3062 H3056 0.930 . S
C3062 C3063 1.355 . S
C3062 C3064 1.415 . S
C3063 C3062 1.355 . S
C3063 C3065 1.419 . S
C3064 C3062 1.415 . S
C3064 C3069 1.425 . S
C3064 C3071 1.409 . S
C3065 H3057 0.930 . S
C3065 C3063 1.419 . S
C3065 C3066 1.362 . S
C3066 H3058 0.930 . S
C3066 C3065 1.362 . S
C3066 C3069 1.409 . S
C3067 H3059 0.930 . S
C3067 C3068 1.355 . S
C3067 C3069 1.415 . S
C3068 C3067 1.355 . S
C3068 C3070 1.419 . S
C3069 C3064 1.425 . S
C3069 C3066 1.409 . S
C3069 C3067 1.415 . S
C3070 H3060 0.930 . S
C3070 C3068 1.419 . S
C3070 C3071 1.362 . S
C3071 H3061 0.930 . S
C3071 C3064 1.409 . S
C3071 C3070 1.362 . S
H3072 C3078 0.930 . S
H3073 C3081 0.930 . S
H3074 C3082 0.930 . S
H3075 C3083 0.930 . S
H3076 C3086 0.930 . S
H3077 C3087 0.930 . S
C3078 H3072 0.930 . S
C3078 C3079 1.355 . S
C3078 C3080 1.415 . S
C3079 C3078 1.355 . S
C3079 C3081 1.419 . S
C3080 C3078 1.415 . S
C3080 C3085 1.425 . S
C3080 C3087 1.409 . S
C3081 H3073 0.930 . S
C3081 C3079 1.419 . S
C3081 C3082 1.362 . S
C3082 H3074 0.930 . S
C3082 C3081 1.362 . S
C3082 C3085 1.409 . S
C3083 H3075 0.930 . S
C3083 C3084 1.355 . S
C3083 C3085 1.415 . S
C3084 C3083 1.355 . S
C3084 C3086 1.419 . S
C3085 C3080 1.425 . S
C3085 C3082 1.409 . S
C3085 C3083 1.415 . S
C3086 H3076 0.930 . S
C3086 C3084 1.419 . S
C3086 C3087 1.362 . S
C3087 H3077 0.930 . S
C3087 C3080 1.409 . S
C3087 C3086 1.362 . S
H3088 C3094 0.930 . S
H3089 C3097 0.930 . S
H3090 C3098 0.930 . S
H3091 C3099 0.930 . S
H3092 C3102 0.930 . S
H3093 C3103 0.930 . S
C3094 H3088 0.930 . S
C3094 C3095 1.355 . S
C3094 C3096 1.415 . S
C3095 C3094 1.355 . S
C3095 C3097 1.419 . S
C3096 C3094 1.415 . S
C3096 C3101 1.425 . S
C3096 C3103 1.409 . S
C3097 H3089 0.930 . S
C3097 C3095 1.419 . S
C3097 C3098 1.362 . S
C3098 H3090 0.930 . S
C3098 C3097 1.362 . S
C3098 C3101 1.409 . S
C3099 H3091 0.930 . S
C3099 C3100 1.355 . S
C3099 C3101 1.415 . S
C3100 C3099 1.355 . S
C3100 C3102 1.419 . S
C3101 C3096 1.425 . S
C3101 C3098 1.409 . S
C3101 C3099 1.415 . S
C3102 H3092 0.930 . S
C3102 C3100 1.419 . S
C3102 C3103 1.362 . S
C3103 H3093 0.930 . S
C3103 C3096 1.409 . S
C3103 C3102 1.362 . S
H3104 C3110 0.930 . S
H3105 C3113 0.930 . S
H3106 C3114 0.930 . S
H3107 C3115 0.930 . S
H3108 C3118 0.930 . S
H3109 C3119 0.930 . S
C3110 H3104 0.930 . S
C3110 C3111 1.355 . S
C3110 C3112 1.415 . S
C3111 C3110 1.355 . S
C3111 C3113 1.419 . S
C3112 C3110 1.415 . S
C3112 C3117 1.425 . S
C3112 C3119 1.409 . S
C3113 H3105 0.930 . S
C3113 C3111 1.419 . S
C3113 C3114 1.362 . S
C3114 H3106 0.930 . S
C3114 C3113 1.362 . S
C3114 C3117 1.409 . S
C3115 H3107 0.930 . S
C3115 C3116 1.355 . S
C3115 C3117 1.415 . S
C3116 C3115 1.355 . S
C3116 C3118 1.419 . S
C3117 C3112 1.425 . S
C3117 C3114 1.409 . S
C3117 C3115 1.415 . S
C3118 H3108 0.930 . S
C3118 C3116 1.419 . S
C3118 C3119 1.362 . S
C3119 H3109 0.930 . S
C3119 C3112 1.409 . S
C3119 C3118 1.362 . S
H3120 C3126 0.930 . S
H3121 C3129 0.930 . S
H3122 C3130 0.930 1_455 S
H3123 C3131 0.930 . S
H3124 C3134 0.930 . S
H3125 C3135 0.930 . S
C3126 H3120 0.930 . S
C3126 C3127 1.355 . S
C3126 C3128 1.415 1_655 S
C3127 C3126 1.355 . S
C3127 C3129 1.419 . S
C3128 C3126 1.415 1_455 S
C3128 C3133 1.425 . S
C3128 C3135 1.409 . S
C3129 H3121 0.930 . S
C3129 C3127 1.419 . S
C3129 C3130 1.362 . S
C3130 H3122 0.930 1_655 S
C3130 C3129 1.362 . S
C3130 C3133 1.409 1_655 S
C3131 H3123 0.930 . S
C3131 C3132 1.355 . S
C3131 C3133 1.415 . S
C3132 C3131 1.355 . S
C3132 C3134 1.419 . S
C3133 C3128 1.425 . S
C3133 C3130 1.409 1_455 S
C3133 C3131 1.415 . S
C3134 H3124 0.930 . S
C3134 C3132 1.419 . S
C3134 C3135 1.362 . S
C3135 H3125 0.930 . S
C3135 C3128 1.409 . S
C3135 C3134 1.362 . S
H3136 C3142 0.930 . S
H3137 C3145 0.930 . S
H3138 C3146 0.930 . S
H3139 C3147 0.930 . S
H3140 C3150 0.930 . S
H3141 C3151 0.930 . S
C3142 H3136 0.930 . S
C3142 C3143 1.355 . S
C3142 C3144 1.415 . S
C3143 C3142 1.355 . S
C3143 C3145 1.419 . S
C3144 C3142 1.415 . S
C3144 C3149 1.425 . S
C3144 C3151 1.409 . S
C3145 H3137 0.930 . S
C3145 C3143 1.419 . S
C3145 C3146 1.362 . S
C3146 H3138 0.930 . S
C3146 C3145 1.362 . S
C3146 C3149 1.409 . S
C3147 H3139 0.930 . S
C3147 C3148 1.355 . S
C3147 C3149 1.415 . S
C3148 C3147 1.355 . S
C3148 C3150 1.419 . S
C3149 C3144 1.425 . S
C3149 C3146 1.409 . S
C3149 C3147 1.415 . S
C3150 H3140 0.930 . S
C3150 C3148 1.419 . S
C3150 C3151 1.362 . S
C3151 H3141 0.930 . S
C3151 C3144 1.409 . S
C3151 C3150 1.362 . S
H3152 C3158 0.935 . S
H3153 C3161 0.930 . S
H3154 C3162 0.930 . S
H3155 C3163 0.930 . S
H3156 C3166 0.930 . S
H3157 C3167 0.930 . S
C3158 H3152 0.935 . S
C3158 C3159 1.358 . S
C3158 C3160 1.406 1_565 S
C3159 C3158 1.358 . S
C3159 C3161 1.419 . S
C3160 C3158 1.406 1_545 S
C3160 C3165 1.425 . S
C3160 C3167 1.409 . S
C3161 H3153 0.930 . S
C3161 C3159 1.419 . S
C3161 C3162 1.362 1_565 S
C3162 H3154 0.930 . S
C3162 C3161 1.362 1_545 S
C3162 C3165 1.409 . S
C3163 H3155 0.930 . S
C3163 C3164 1.355 . S
C3163 C3165 1.415 . S
C3164 C3163 1.355 . S
C3164 C3166 1.419 . S
C3165 C3160 1.425 . S
C3165 C3162 1.409 . S
C3165 C3163 1.415 . S
C3166 H3156 0.930 . S
C3166 C3164 1.419 . S
C3166 C3167 1.362 . S
C3167 H3157 0.930 . S
C3167 C3160 1.409 . S
C3167 C3166 1.362 . S
C1447 C1099 2.242 . S
C1452 C19 2.242 . S
C1463 C1139 2.268 . S
C1468 C59 2.269 1_655 S
C1479 C99 2.241 . S
C1484 C1179 2.241 . S
C1495 C139 2.252 . S
C1500 C499 2.252 . S
C1511 C179 2.262 . S
C1516 C539 2.262 . S
C1527 C579 2.268 . S
C1532 C219 2.268 1_565 S
C1543 C250 2.244 1_565 S
C1548 C850 2.244 . S
C1559 C890 2.270 . S
C1564 C290 2.270 . S
C1575 C330 2.265 . S
C1580 C930 2.265 . S
C1591 C1210 2.267 . S
C1596 C370 2.268 1_655 S
C1607 C410 2.243 . S
C1612 C1250 2.243 . S
C1623 C1290 2.254 . S
C1628 C450 2.253 . S
C1639 C979 2.248 . S
C1644 C619 2.247 . S
C1655 C659 2.249 . S
C1660 C1019 2.249 . S
C1671 C1059 2.266 . S
C1676 C699 2.266 . S
C1687 C730 2.241 . S
C1692 C1330 2.241 . S
C1703 C770 2.257 . S
C1708 C1370 2.256 . S
C1719 C1410 2.260 . S
C1724 C810 2.261 . S
C1735 C10 1.624 . S
C1740 C259 1.624 . S
C1751 C299 1.556 . S
C1756 C50 1.556 . S
C1767 C90 1.635 . S
C1772 C339 1.635 . S
C1783 C379 1.560 . S
C1788 C130 1.560 . S
C1799 C170 1.621 . S
C1804 C419 1.621 . S
C1815 C459 1.554 . S
C1820 C210 1.554 . S
C1831 C739 1.591 . S
C1836 C490 1.591 . S
C1847 C530 1.561 . S
C1852 C779 1.561 . S
C1863 C819 1.560 . S
C1868 C570 1.560 . S
C1879 C610 1.560 . S
C1884 C859 1.560 . S
C1895 C899 1.554 . S
C1900 C650 1.554 . S
C1911 C690 1.577 . S
C1916 C939 1.577 . S
C1927 C970 1.607 . S
C1932 C1219 1.607 . S
C1943 C1259 1.639 . S
C1948 C1010 1.639 . S
C1959 C1299 1.618 . S
C1964 C1050 1.618 . S
C1975 C1339 1.585 . S
C1980 C1090 1.585 . S
C1991 C1130 1.585 . S
C1996 C1379 1.585 . S
C2007 C1170 1.629 . S
C2012 C1419 1.629 . S
C2023 C16 1.865 . S
C2028 C91 1.896 . S
C2039 C56 1.893 . S
C2044 C11 1.887 . S
C2055 C51 1.887 . S
C2060 C96 1.856 . S
C2071 C136 1.853 . S
C2076 C171 1.884 . S
C2087 C211 1.898 . S
C2092 C176 1.900 . S
C2103 C131 1.904 . S
C2108 C216 1.875 . S
C2119 C322 1.886 . S
C2124 C247 1.892 . S
C2135 C287 1.879 . S
C2140 C242 1.906 . S
C2151 C327 1.870 . S
C2156 C282 1.900 . S
C2167 C402 1.884 . S
C2172 C367 1.853 . S
C2183 C407 1.893 . S
C2188 C442 1.911 . S
C2199 C447 1.860 . S
C2204 C362 1.891 . S
C2215 C571 1.872 . S
C2220 C496 1.876 . S
C2231 C491 1.869 . S
C2236 C536 1.871 . S
C2247 C531 1.863 . S
C2252 C576 1.855 1_655 S
C2263 C651 1.889 . S
C2268 C616 1.894 . S
C2279 C656 1.869 . S
C2284 C691 1.900 . S
C2295 C611 1.903 . S
C2300 C696 1.902 . S
C2311 C727 1.880 . S
C2316 C802 1.875 . S
C2327 C722 1.877 . S
C2332 C767 1.882 . S
C2343 C807 1.852 . S
C2348 C762 1.881 . S
C2359 C882 1.879 . S
C2364 C847 1.851 . S
C2375 C922 1.911 . S
C2380 C887 1.892 . S
C2391 C842 1.894 . S
C2396 C927 1.898 1_655 S
C2407 C1051 1.901 . S
C2412 C976 1.901 . S
C2423 C1016 1.892 . S
C2428 C971 1.911 . S
C2439 C1011 1.897 . S
C2444 C1056 1.865 . S
C2455 C1096 1.856 . S
C2460 C1131 1.863 . S
C2471 C1136 1.886 1_565 S
C2476 C1171 1.910 . S
C2487 C1091 1.864 . S
C2492 C1176 1.860 . S
C2503 C1207 1.898 . S
C2508 C1282 1.895 . S
C2519 C1247 1.853 1_565 S
C2524 C1202 1.883 . S
C2535 C1242 1.892 . S
C2540 C1287 1.860 . S
C2551 C1327 1.901 . S
C2556 C1362 1.908 . S
C2567 C1402 1.873 . S
C2572 C1367 1.878 . S
C2583 C1322 1.905 . S
C2588 C1407 1.876 . S
C2599 C82 1.320 . S
C2604 C7 1.337 . S
C2615 C47 1.336 . S
C2620 C2 1.319 . S
C2631 C42 1.237 . S
C2636 C87 1.307 . S
C2647 C162 1.231 . S
C2652 C127 1.294 . S
C2663 C167 1.320 . S
C2668 C202 1.298 . S
C2679 C207 1.340 . S
C2684 C122 1.289 . S
C2695 C331 1.324 . S
C2700 C256 1.347 . S
C2711 C296 1.345 . S
C2716 C251 1.325 . S
C2727 C291 1.264 . S
C2732 C336 1.327 . S
C2743 C411 1.232 . S
C2748 C376 1.294 . S
C2759 C451 1.281 . S
C2764 C416 1.336 . S
C2775 C371 1.324 . S
C2780 C456 1.348 . S
C2791 C487 1.332 . S
C2796 C562 1.272 . S
C2807 C527 1.342 . S
C2812 C482 1.294 . S
C2823 C567 1.294 . S
C2828 C522 1.231 . S
C2839 C642 1.310 . S
C2844 C607 1.348 . S
C2855 C647 1.307 . S
C2860 C682 1.276 . S
C2871 C687 1.310 . S
C2876 C602 1.281 . S
C2887 C811 1.247 . S
C2892 C736 1.295 . S
C2903 C731 1.294 . S
C2908 C776 1.317 . S
C2919 C816 1.345 . S
C2924 C771 1.300 . S
C2935 C891 1.242 . S
C2940 C856 1.312 . S
C2951 C896 1.332 . S
C2956 C931 1.314 . S
C2967 C936 1.334 . S
C2972 C851 1.316 . S
C2983 C967 1.329 . S
C2988 C1042 1.311 . S
C2999 C962 1.299 . S
C3004 C1007 1.321 . S
C3015 C1002 1.294 . S
C3020 C1047 1.342 . S
C3031 C1122 1.325 . S
C3036 C1087 1.346 . S
C3047 C1127 1.313 . S
C3052 C1162 1.287 . S
C3063 C1167 1.341 . S
C3068 C1082 1.323 . S
C3079 C1291 1.277 . S
C3084 C1216 1.334 . S
C3095 C1211 1.304 . S
C3100 C1256 1.324 . S
C3111 C1296 1.305 . S
C3116 C1251 1.272 . S
C3127 C1371 1.232 . S
C3132 C1336 1.301 . S
C3143 C1376 1.301 . S
C3148 C1411 1.262 . S
C3159 C1416 1.293 . S
C3164 C1331 1.237 . S
