# Generated by pormake.
# Topology unv, (4)-cn, num edge types: 1
# Building blocks:
#     Node 0, Type 0, BuildingBlock: AZAVOO_clean_sbu_0, # of connection points: 4
#     Node 1, Type 0, BuildingBlock: AZAVOO_clean_sbu_0, # of connection points: 4
#     Node 2, Type 0, BuildingBlock: AZAVOO_clean_sbu_0, # of connection points: 4
#     Node 3, Type 0, BuildingBlock: AZAVOO_clean_sbu_0, # of connection points: 4
#     Node 4, Type 0, BuildingBlock: AZAVOO_clean_sbu_0, # of connection points: 4
#     Node 5, Type 0, BuildingBlock: AZAVOO_clean_sbu_0, # of connection points: 4
#     Node 6, Type 0, BuildingBlock: AZAVOO_clean_sbu_0, # of connection points: 4
#     Node 7, Type 0, BuildingBlock: AZAVOO_clean_sbu_0, # of connection points: 4
#     Node 8, Type 0, BuildingBlock: AZAVOO_clean_sbu_0, # of connection points: 4
#     Node 9, Type 0, BuildingBlock: AZAVOO_clean_sbu_0, # of connection points: 4
#     Node 10, Type 0, BuildingBlock: AZAVOO_clean_sbu_0, # of connection points: 4
#     Node 11, Type 0, BuildingBlock: AZAVOO_clean_sbu_0, # of connection points: 4
#     Node 12, Type 0, BuildingBlock: AZAVOO_clean_sbu_0, # of connection points: 4
#     Node 13, Type 0, BuildingBlock: AZAVOO_clean_sbu_0, # of connection points: 4
#     Node 14, Type 0, BuildingBlock: AZAVOO_clean_sbu_0, # of connection points: 4
#     Node 15, Type 0, BuildingBlock: AZAVOO_clean_sbu_0, # of connection points: 4
#     Node 16, Type 0, BuildingBlock: AZAVOO_clean_sbu_0, # of connection points: 4
#     Node 17, Type 0, BuildingBlock: AZAVOO_clean_sbu_0, # of connection points: 4
#     Node 18, Type 0, BuildingBlock: AZAVOO_clean_sbu_0, # of connection points: 4
#     Node 19, Type 0, BuildingBlock: AZAVOO_clean_sbu_0, # of connection points: 4
#     Node 20, Type 0, BuildingBlock: AZAVOO_clean_sbu_0, # of connection points: 4
#     Node 21, Type 0, BuildingBlock: AZAVOO_clean_sbu_0, # of connection points: 4
#     Node 22, Type 0, BuildingBlock: AZAVOO_clean_sbu_0, # of connection points: 4
#     Node 23, Type 0, BuildingBlock: AZAVOO_clean_sbu_0, # of connection points: 4
#     Edge 24, Type (0, 0), BuildingBlock: ZUJKAS_clean_linker_0, # of connection points: 2
#     Edge 25, Type (0, 0), BuildingBlock: ZUJKAS_clean_linker_0, # of connection points: 2
#     Edge 26, Type (0, 0), BuildingBlock: ZUJKAS_clean_linker_0, # of connection points: 2
#     Edge 27, Type (0, 0), BuildingBlock: ZUJKAS_clean_linker_0, # of connection points: 2
#     Edge 28, Type (0, 0), BuildingBlock: ZUJKAS_clean_linker_0, # of connection points: 2
#     Edge 29, Type (0, 0), BuildingBlock: ZUJKAS_clean_linker_0, # of connection points: 2
#     Edge 30, Type (0, 0), BuildingBlock: ZUJKAS_clean_linker_0, # of connection points: 2
#     Edge 31, Type (0, 0), BuildingBlock: ZUJKAS_clean_linker_0, # of connection points: 2
#     Edge 32, Type (0, 0), BuildingBlock: ZUJKAS_clean_linker_0, # of connection points: 2
#     Edge 33, Type (0, 0), BuildingBlock: ZUJKAS_clean_linker_0, # of connection points: 2
#     Edge 34, Type (0, 0), BuildingBlock: ZUJKAS_clean_linker_0, # of connection points: 2
#     Edge 35, Type (0, 0), BuildingBlock: ZUJKAS_clean_linker_0, # of connection points: 2
#     Edge 36, Type (0, 0), BuildingBlock: ZUJKAS_clean_linker_0, # of connection points: 2
#     Edge 37, Type (0, 0), BuildingBlock: ZUJKAS_clean_linker_0, # of connection points: 2
#     Edge 38, Type (0, 0), BuildingBlock: ZUJKAS_clean_linker_0, # of connection points: 2
#     Edge 39, Type (0, 0), BuildingBlock: ZUJKAS_clean_linker_0, # of connection points: 2
#     Edge 40, Type (0, 0), BuildingBlock: ZUJKAS_clean_linker_0, # of connection points: 2
#     Edge 41, Type (0, 0), BuildingBlock: ZUJKAS_clean_linker_0, # of connection points: 2
#     Edge 42, Type (0, 0), BuildingBlock: ZUJKAS_clean_linker_0, # of connection points: 2
#     Edge 43, Type (0, 0), BuildingBlock: ZUJKAS_clean_linker_0, # of connection points: 2
#     Edge 44, Type (0, 0), BuildingBlock: ZUJKAS_clean_linker_0, # of connection points: 2
#     Edge 45, Type (0, 0), BuildingBlock: ZUJKAS_clean_linker_0, # of connection points: 2
#     Edge 46, Type (0, 0), BuildingBlock: ZUJKAS_clean_linker_0, # of connection points: 2
#     Edge 47, Type (0, 0), BuildingBlock: ZUJKAS_clean_linker_0, # of connection points: 2
#     Edge 48, Type (0, 0), BuildingBlock: ZUJKAS_clean_linker_0, # of connection points: 2
#     Edge 49, Type (0, 0), BuildingBlock: ZUJKAS_clean_linker_0, # of connection points: 2
#     Edge 50, Type (0, 0), BuildingBlock: ZUJKAS_clean_linker_0, # of connection points: 2
#     Edge 51, Type (0, 0), BuildingBlock: ZUJKAS_clean_linker_0, # of connection points: 2
#     Edge 52, Type (0, 0), BuildingBlock: ZUJKAS_clean_linker_0, # of connection points: 2
#     Edge 53, Type (0, 0), BuildingBlock: ZUJKAS_clean_linker_0, # of connection points: 2
#     Edge 54, Type (0, 0), BuildingBlock: ZUJKAS_clean_linker_0, # of connection points: 2
#     Edge 55, Type (0, 0), BuildingBlock: ZUJKAS_clean_linker_0, # of connection points: 2
#     Edge 56, Type (0, 0), BuildingBlock: ZUJKAS_clean_linker_0, # of connection points: 2
#     Edge 57, Type (0, 0), BuildingBlock: ZUJKAS_clean_linker_0, # of connection points: 2
#     Edge 58, Type (0, 0), BuildingBlock: ZUJKAS_clean_linker_0, # of connection points: 2
#     Edge 59, Type (0, 0), BuildingBlock: ZUJKAS_clean_linker_0, # of connection points: 2
#     Edge 60, Type (0, 0), BuildingBlock: ZUJKAS_clean_linker_0, # of connection points: 2
#     Edge 61, Type (0, 0), BuildingBlock: ZUJKAS_clean_linker_0, # of connection points: 2
#     Edge 62, Type (0, 0), BuildingBlock: ZUJKAS_clean_linker_0, # of connection points: 2
#     Edge 63, Type (0, 0), BuildingBlock: ZUJKAS_clean_linker_0, # of connection points: 2
#     Edge 64, Type (0, 0), BuildingBlock: ZUJKAS_clean_linker_0, # of connection points: 2
#     Edge 65, Type (0, 0), BuildingBlock: ZUJKAS_clean_linker_0, # of connection points: 2
#     Edge 66, Type (0, 0), BuildingBlock: ZUJKAS_clean_linker_0, # of connection points: 2
#     Edge 67, Type (0, 0), BuildingBlock: ZUJKAS_clean_linker_0, # of connection points: 2
#     Edge 68, Type (0, 0), BuildingBlock: ZUJKAS_clean_linker_0, # of connection points: 2
#     Edge 69, Type (0, 0), BuildingBlock: ZUJKAS_clean_linker_0, # of connection points: 2
#     Edge 70, Type (0, 0), BuildingBlock: ZUJKAS_clean_linker_0, # of connection points: 2
#     Edge 71, Type (0, 0), BuildingBlock: ZUJKAS_clean_linker_0, # of connection points: 2
# Relax obj value: 0.371
# Max RMSD: 0.348
# Mean RMSD: 0.317
data_MOF--net-unv--node1-AZAVOO_clean_sbu_0--edge1-ZUJKAS_clean_linker_0
_symmetry_space_group_name_H-M    P1
_symmetry_Int_Tables_number       1
_symmetry_cell_setting            triclinic
loop_
_symmetry_equiv_pos_as_xyz
'x, y, z'
_cell_length_a     62.988011
_cell_length_b     60.850708
_cell_length_c     61.845036
_cell_angle_alpha  89.980472
_cell_angle_beta   90.058156
_cell_angle_gamma 90.016623
loop_
_atom_site_label
_atom_site_type_symbol
_atom_site_fract_x
_atom_site_fract_y
_atom_site_fract_z
_atom_type_partial_charge
Mg0 Mg 0.98811 0.09458 0.36021 0.0
O1 O 0.96989 0.07265 0.38473 0.0
O2 O 0.95832 0.09324 0.41245 0.0
Mg3 Mg 0.96188 0.12894 0.40205 0.0
C4 C 0.96113 0.07459 0.40335 0.0
C5 C 0.0106 0.05914 0.33329 0.0
O6 O 0.02662 0.06894 0.34288 0.0
O7 O 0.9578 0.10537 0.3431 0.0
O8 O 0.94383 0.11718 0.37243 0.0
O9 O 0.01555 0.09187 0.38192 0.0
O10 O 0.99187 0.11861 0.38541 0.0
C11 C 0.95133 0.1217 0.35394 0.0
C12 C 0.0082 0.10827 0.3929 0.0
O13 O 0.99186 0.06582 0.3371 0.0
Mg14 Mg 0.98331 0.37828 0.38016 0.0
O15 O 0.00946 0.39438 0.40057 0.0
O16 O 0.01086 0.37698 0.4323 0.0
Mg17 Mg 0.98672 0.34897 0.43177 0.0
C18 C 0.01719 0.3921 0.41953 0.0
C19 C 0.98571 0.39413 0.33269 0.0
O20 O 0.97191 0.378 0.33106 0.0
O21 O 0.00424 0.34879 0.37209 0.0
O22 O 0.00386 0.33149 0.40395 0.0
O23 O 0.96008 0.40065 0.3959 0.0
O24 O 0.96781 0.36739 0.40805 0.0
C25 C 0.00931 0.33249 0.38407 0.0
C26 C 0.95801 0.38573 0.41069 0.0
O27 O 0.99442 0.39774 0.35087 0.0
Mg28 Mg 0.04679 0.88847 0.11463 0.0
O29 O 0.01645 0.90372 0.10088 0.0
O30 O 0.00524 0.8838 0.07284 0.0
Mg31 Mg 0.02824 0.85486 0.06945 0.0
C32 C 0.0034 0.90029 0.08545 0.0
C33 C 0.04782 0.90402 0.16304 0.0
O34 O 0.05566 0.88423 0.1659 0.0
O35 O 0.02841 0.86107 0.13092 0.0
O36 O 0.01834 0.84082 0.10259 0.0
O37 O 0.06504 0.90844 0.09121 0.0
O38 O 0.05369 0.87467 0.08449 0.0
C39 C 0.01914 0.84429 0.12297 0.0
C40 C 0.06258 0.89243 0.07763 0.0
O41 O 0.04302 0.91032 0.14408 0.0
Mg42 Mg 0.95496 0.59325 0.13639 0.0
O43 O 0.98263 0.58121 0.1154 0.0
O44 O 0.98475 0.60224 0.08591 0.0
Mg45 Mg 0.96 0.62942 0.08933 0.0
C46 C 0.99107 0.58596 0.09723 0.0
C47 C 0.95269 0.55963 0.17379 0.0
O48 O 0.93247 0.56232 0.16924 0.0
O49 O 0.97454 0.62186 0.14938 0.0
O50 O 0.97671 0.64267 0.11964 0.0
O51 O 0.9334 0.57254 0.11635 0.0
O52 O 0.94049 0.60742 0.10935 0.0
C53 C 0.9809 0.63909 0.13956 0.0
C54 C 0.93166 0.58929 0.10355 0.0
O55 O 0.96639 0.57056 0.16325 0.0
Mg56 Mg 0.34592 0.04386 0.1101 0.0
O57 O 0.36902 0.01501 0.11314 0.0
O58 O 0.3989 0.02692 0.12874 0.0
Mg59 Mg 0.39264 0.06195 0.14041 0.0
C60 C 0.3882 0.01198 0.11918 0.0
C61 C 0.30237 0.02684 0.09377 0.0
O62 O 0.29716 0.047 0.09922 0.0
O63 O 0.33517 0.04 0.14501 0.0
O64 O 0.36442 0.05199 0.16166 0.0
O65 O 0.36341 0.05203 0.08014 0.0
O66 O 0.37159 0.06565 0.11231 0.0
C67 C 0.34539 0.04477 0.16219 0.0
C68 C 0.3769 0.06204 0.09249 0.0
O69 O 0.321 0.0201 0.09786 0.0
Mg70 Mg 0.62158 0.52176 0.09918 0.0
O71 O 0.61234 0.5543 0.08342 0.0
O72 O 0.58763 0.57031 0.10397 0.0
Mg73 Mg 0.58379 0.54955 0.13459 0.0
C74 C 0.59908 0.56972 0.08696 0.0
C75 C 0.66513 0.50743 0.08067 0.0
O76 O 0.66649 0.49914 0.10025 0.0
O77 O 0.6428 0.53876 0.12345 0.0
O78 O 0.61872 0.55361 0.14546 0.0
O79 O 0.59435 0.5064 0.08244 0.0
O80 O 0.59246 0.52039 0.11546 0.0
C81 C 0.63802 0.54944 0.14048 0.0
C82 C 0.58298 0.51171 0.09908 0.0
O83 O 0.64868 0.51824 0.07541 0.0
Mg84 Mg 0.38153 0.99878 0.41147 0.0
O85 O 0.39094 0.03263 0.42432 0.0
O86 O 0.41624 0.04678 0.40325 0.0
Mg87 Mg 0.42148 0.02245 0.37556 0.0
C88 C 0.4042 0.04783 0.4198 0.0
C89 C 0.33647 0.98805 0.42774 0.0
O90 O 0.33734 0.97613 0.41005 0.0
O91 O 0.36205 0.01368 0.38433 0.0
O92 O 0.38739 0.02744 0.36304 0.0
O93 O 0.40799 0.98491 0.43106 0.0
O94 O 0.41109 0.99548 0.39691 0.0
C95 C 0.36785 0.02377 0.36727 0.0
C96 C 0.41993 0.98849 0.41437 0.0
O97 O 0.35265 -0.00083 0.4333 0.0
Mg98 Mg 0.637 0.51064 0.37079 0.0
O99 O 0.62967 0.47526 0.38054 0.0
O100 O 0.60529 0.46158 0.35801 0.0
Mg101 Mg 0.5995 0.4873 0.33175 0.0
C102 C 0.61723 0.45986 0.3746 0.0
C103 C 0.67439 0.52784 0.39945 0.0
O104 O 0.66973 0.54616 0.38925 0.0
O105 O 0.65853 0.49964 0.3434 0.0
O106 O 0.63421 0.48714 0.3202 0.0
O107 O 0.60908 0.52137 0.39009 0.0
O108 O 0.60749 0.5131 0.35533 0.0
C109 C 0.65349 0.49155 0.32508 0.0
C110 C 0.59774 0.51829 0.37288 0.0
O111 O 0.66418 0.51045 0.39488 0.0
Mg112 Mg 0.09199 0.3729 0.94598 0.0
O113 O 0.07923 0.4022 0.96569 0.0
O114 O 0.04663 0.40958 0.95333 0.0
Mg115 Mg 0.03773 0.38418 0.92785 0.0
C116 C 0.06226 0.41371 0.96586 0.0
C117 C 0.13377 0.38516 0.96983 0.0
O118 O 0.12968 0.40381 0.95997 0.0
O119 O 0.07178 0.34964 0.9667 0.0
O120 O 0.0394 0.35799 0.95435 0.0
O121 O 0.1025 0.39689 0.9205 0.0
O122 O 0.07143 0.37995 0.92082 0.0
C123 C 0.05161 0.34716 0.96695 0.0
C124 C 0.0837 0.39447 0.91241 0.0
O125 O 0.12051 0.36949 0.9683 0.0
Mg126 Mg 0.09897 0.61421 0.56921 0.0
O127 O 0.08655 0.58644 0.54721 0.0
O128 O 0.05398 0.57723 0.5582 0.0
Mg129 Mg 0.04437 0.60086 0.58498 0.0
C130 C 0.06992 0.57449 0.54579 0.0
C131 C 0.13909 0.60141 0.54364 0.0
O132 O 0.13271 0.58229 0.55108 0.0
O133 O 0.07908 0.6394 0.55016 0.0
O134 O 0.04656 0.62884 0.56051 0.0
O135 O 0.10881 0.58826 0.59313 0.0
O136 O 0.07784 0.60538 0.59333 0.0
C137 C 0.05884 0.6411 0.54937 0.0
C138 C 0.0899 0.59028 0.60102 0.0
O139 O 0.12794 0.61837 0.54753 0.0
Mg140 Mg 0.89751 0.85647 0.57296 0.0
O141 O 0.91084 0.88121 0.54797 0.0
O142 O 0.94362 0.89022 0.55885 0.0
Mg143 Mg 0.95183 0.87077 0.58906 0.0
C144 C 0.92811 0.89205 0.54567 0.0
C145 C 0.85706 0.86519 0.54637 0.0
O146 O 0.86302 0.88512 0.55181 0.0
O147 O 0.91764 0.82905 0.55772 0.0
O148 O 0.9499 0.83966 0.56856 0.0
O149 O 0.88666 0.8853 0.59227 0.0
O150 O 0.91788 0.86926 0.59638 0.0
C151 C 0.93779 0.82647 0.55829 0.0
C152 C 0.90562 0.88569 0.60032 0.0
O153 O 0.8689 0.84907 0.55147 0.0
Mg154 Mg 0.39039 0.61925 0.43478 0.0
O155 O 0.40425 0.59039 0.45457 0.0
O156 O 0.43651 0.58286 0.4415 0.0
Mg157 Mg 0.44431 0.60798 0.41546 0.0
C158 C 0.42123 0.57889 0.45446 0.0
C159 C 0.3516 0.60459 0.46144 0.0
O160 O 0.35798 0.58596 0.45291 0.0
O161 O 0.41082 0.64403 0.45384 0.0
O162 O 0.4429 0.63474 0.4412 0.0
O163 O 0.37966 0.59421 0.41047 0.0
O164 O 0.41031 0.61192 0.40912 0.0
C165 C 0.43103 0.64618 0.45353 0.0
C166 C 0.39815 0.59672 0.40174 0.0
O167 O 0.36243 0.62188 0.45801 0.0
Mg168 Mg 0.49749 0.59346 0.84379 0.0
O169 O 0.4724 0.57693 0.86643 0.0
O170 O 0.46972 0.59672 0.89695 0.0
Mg171 Mg 0.48017 0.63068 0.88633 0.0
C172 C 0.46619 0.57921 0.88608 0.0
C173 C 0.50918 0.55471 0.81424 0.0
O174 O 0.52743 0.55937 0.82348 0.0
O175 O 0.47477 0.61643 0.82526 0.0
O176 O 0.4615 0.62084 0.85689 0.0
O177 O 0.52133 0.58084 0.8669 0.0
O178 O 0.50748 0.61421 0.86995 0.0
C179 C 0.46532 0.62896 0.83849 0.0
C180 C 0.51934 0.59889 0.87781 0.0
O181 O 0.49294 0.56602 0.81918 0.0
Mg182 Mg 0.47843 0.8962 0.89736 0.0
O183 O 0.51081 0.90903 0.90831 0.0
O184 O 0.51931 0.89277 0.9395 0.0
Mg185 Mg 0.49309 0.86797 0.94738 0.0
C186 C 0.52328 0.90647 0.92439 0.0
C187 C 0.47709 0.90392 0.84705 0.0
O188 O 0.46657 0.88528 0.84761 0.0
O189 O 0.4927 0.86418 0.88582 0.0
O190 O 0.49977 0.84706 0.91692 0.0
O191 O 0.46351 0.92226 0.91715 0.0
O192 O 0.47048 0.88888 0.92947 0.0
C193 C 0.49921 0.84741 0.89625 0.0
C194 C 0.46425 0.90869 0.93327 0.0
O195 O 0.48389 0.91218 0.86461 0.0
Mg196 Mg 0.51659 0.37152 0.60179 0.0
O197 O 0.48966 0.38868 0.58359 0.0
O198 O 0.48415 0.37093 0.55253 0.0
Mg199 Mg 0.50798 0.34255 0.55074 0.0
C200 C 0.47984 0.38646 0.56567 0.0
C201 C 0.52227 0.39453 0.64577 0.0
O202 O 0.54144 0.38686 0.64215 0.0
O203 O 0.49559 0.34261 0.61132 0.0
O204 O 0.49323 0.32474 0.57988 0.0
O205 O 0.53934 0.39322 0.58448 0.0
O206 O 0.52953 0.36043 0.57267 0.0
C207 C 0.4895 0.32611 0.60015 0.0
C208 C 0.53987 0.37838 0.56948 0.0
O209 O 0.50771 0.39061 0.63208 0.0
Mg210 Mg 0.50921 0.09302 0.64486 0.0
O211 O 0.52303 0.06912 0.619 0.0
O212 O 0.53338 0.08826 0.58978 0.0
Mg213 Mg 0.53291 0.12432 0.59909 0.0
C214 C 0.53018 0.07005 0.59959 0.0
C215 C 0.49804 0.04722 0.66529 0.0
O216 O 0.48939 0.04429 0.64616 0.0
O217 O 0.54201 0.10227 0.65745 0.0
O218 O 0.55391 0.11254 0.62668 0.0
O219 O 0.47877 0.09243 0.62717 0.0
O220 O 0.50424 0.11616 0.6193 0.0
C221 C 0.54807 0.11798 0.64553 0.0
C222 C 0.48605 0.10762 0.61451 0.0
O223 O 0.50715 0.06536 0.66948 0.0
Mg224 Mg 0.84931 0.5104 0.61417 0.0
O225 O 0.85881 0.47652 0.60184 0.0
O226 O 0.88088 0.46066 0.62544 0.0
Mg227 Mg 0.88251 0.48332 0.65484 0.0
C228 C 0.87089 0.46072 0.60749 0.0
C229 C 0.81173 0.52733 0.58485 0.0
O230 O 0.8112 0.54319 0.59925 0.0
O231 O 0.82513 0.49576 0.63715 0.0
O232 O 0.84663 0.48059 0.66166 0.0
O233 O 0.87886 0.52378 0.59975 0.0
O234 O 0.87673 0.51165 0.6334 0.0
C235 C 0.82802 0.48527 0.65476 0.0
C236 C 0.88827 0.51891 0.61776 0.0
O237 O 0.82516 0.51193 0.58698 0.0
Mg238 Mg 0.1206 0.02394 0.59422 0.0
O239 O 0.11095 0.05872 0.5843 0.0
O240 O 0.08797 0.07149 0.60878 0.0
Mg241 Mg 0.08591 0.04622 0.63612 0.0
C242 C 0.09827 0.07351 0.59113 0.0
C243 C 0.14677 0.00955 0.55412 0.0
O244 O 0.13123 0.99518 0.5532 0.0
O245 O 0.14365 0.03668 0.61925 0.0
O246 O 0.12153 0.04861 0.64483 0.0
O247 O 0.09172 0.01148 0.57754 0.0
O248 O 0.09277 0.02037 0.61222 0.0
C249 C 0.14032 0.04495 0.63786 0.0
C250 C 0.08185 0.01417 0.59571 0.0
O251 O 0.14662 0.02402 0.56891 0.0
Mg252 Mg 0.84858 0.48941 0.87714 0.0
O253 O 0.85817 0.52134 0.89349 0.0
O254 O 0.88306 0.53851 0.87415 0.0
Mg255 Mg 0.88688 0.51831 0.8431 0.0
C256 C 0.87118 0.53711 0.8908 0.0
C257 C 0.81903 0.4717 0.91419 0.0
O258 O 0.83195 0.45479 0.91325 0.0
O259 O 0.82785 0.50757 0.85332 0.0
O260 O 0.85205 0.52375 0.83232 0.0
O261 O 0.8757 0.47304 0.89336 0.0
O262 O 0.87773 0.48826 0.86092 0.0
C263 C 0.83272 0.51938 0.83704 0.0
C264 C 0.88716 0.47885 0.87693 0.0
O265 O 0.82147 0.48754 0.90107 0.0
Mg266 Mg 0.16059 0.00339 0.87123 0.0
O267 O 0.14428 0.9706 0.87763 0.0
O268 O 0.11469 0.9683 0.85787 0.0
Mg269 Mg 0.11474 0.99801 0.83525 0.0
C270 C 0.12726 0.96068 0.87221 0.0
C271 C 0.20075 0.00521 0.89977 0.0
O272 O 0.19914 0.02591 0.89393 0.0
O273 O 0.1756 0.99091 0.84028 0.0
O274 O 0.14666 0.98892 0.81951 0.0
O275 O 0.13884 0.01812 0.89531 0.0
O276 O 0.13185 0.01674 0.86024 0.0
C277 C 0.16671 0.98692 0.82216 0.0
C278 C 0.12554 0.02101 0.87959 0.0
O279 O 0.1879 0.99132 0.89184 0.0
Mg280 Mg 0.60922 0.85243 0.43875 0.0
O281 O 0.59138 0.87635 0.46158 0.0
O282 O 0.56149 0.88674 0.44475 0.0
Mg283 Mg 0.5593 0.8686 0.41276 0.0
C284 C 0.57417 0.88753 0.46085 0.0
C285 C 0.64276 0.85971 0.47405 0.0
O286 O 0.6365 0.87981 0.46963 0.0
O287 O 0.58617 0.82492 0.44865 0.0
O288 O 0.55672 0.83689 0.43232 0.0
O289 O 0.62413 0.88179 0.42386 0.0
O290 O 0.59406 0.86706 0.41238 0.0
C291 C 0.56641 0.82301 0.44424 0.0
C292 C 0.6069 0.88356 0.4126 0.0
O293 O 0.63322 0.8437 0.46507 0.0
Mg294 Mg 0.60042 0.13666 0.04571 0.0
O295 O 0.59044 0.11138 0.01985 0.0
O296 O 0.55581 0.10475 0.02415 0.0
Mg297 Mg 0.54302 0.12792 0.04985 0.0
C298 C 0.5735 0.10102 0.01479 0.0
C299 C 0.64385 0.12262 0.02651 0.0
O300 O 0.63551 0.10329 0.0307 0.0
O301 O 0.58653 0.16487 0.02546 0.0
O302 O 0.55188 0.15712 0.0285 0.0
O303 O 0.60367 0.10826 0.06858 0.0
O304 O 0.57458 0.12829 0.06468 0.0
C305 C 0.56706 0.16869 0.02098 0.0
C306 C 0.58378 0.11137 0.07282 0.0
O307 O 0.63298 0.13981 0.03015 0.0
Mg308 Mg 0.39246 0.36254 0.05282 0.0
O309 O 0.40452 0.38941 0.02939 0.0
O310 O 0.43765 0.39788 0.03938 0.0
Mg311 Mg 0.44775 0.3749 0.06647 0.0
C312 C 0.42146 0.40081 0.02729 0.0
C313 C 0.34705 0.35042 0.04354 0.0
O314 O 0.3504 0.34433 0.06365 0.0
O315 O 0.41106 0.33659 0.03379 0.0
O316 O 0.44429 0.34626 0.04273 0.0
O317 O 0.38339 0.38932 0.07561 0.0
O318 O 0.41441 0.37225 0.076 0.0
C319 C 0.43117 0.33423 0.03237 0.0
C320 C 0.40267 0.38812 0.08277 0.0
O321 O 0.36252 0.35817 0.03278 0.0
Mg322 Mg 0.91203 0.13521 0.96487 0.0
O323 O 0.9232 0.10633 0.98635 0.0
O324 O 0.95827 0.10327 0.98173 0.0
Mg325 Mg 0.96987 0.13079 0.95993 0.0
C326 C 0.94087 0.09668 0.99007 0.0
C327 C 0.86408 0.13083 0.9667 0.0
O328 O 0.86869 0.12838 0.94613 0.0
O329 O 0.92426 0.16051 0.98954 0.0
O330 O 0.95925 0.15567 0.98527 0.0
O331 O 0.91045 0.11125 0.9373 0.0
O332 O 0.93838 0.13182 0.94508 0.0
C333 C 0.94351 0.1649 0.99453 0.0
C334 C 0.93008 0.11635 0.93377 0.0
O335 O 0.87912 0.134 0.98005 0.0
H336 H 0.05837 0.08785 0.58347 0.0
H337 H 0.0461 0.10573 0.55056 0.0
H338 H 0.11104 0.1168 0.53116 0.0
H339 H 0.12336 0.09698 0.56334 0.0
H340 H 0.04723 0.1407 0.52696 0.0
H341 H 0.09412 0.07605 0.48492 0.0
H342 H 0.09206 0.07704 0.51386 0.0
H343 H 0.10987 0.09531 0.4998 0.0
C344 C 0.07006 0.09466 0.57251 0.0
C345 C 0.0918 0.0907 0.57569 0.0
C346 C 0.06302 0.10491 0.55363 0.0
C347 C 0.07762 0.11182 0.53787 0.0
C348 C 0.09944 0.11071 0.54259 0.0
H349 H 0.01817 0.14773 0.41173 0.0
H350 H 0.0362 0.15306 0.44673 0.0
C351 C 0.1065 0.09966 0.5611 0.0
C352 C 0.06984 0.11677 0.51567 0.0
H353 H 0.07201 0.09767 0.46383 0.0
C354 C 0.05276 0.13144 0.51308 0.0
C355 C 0.07696 0.10455 0.49753 0.0
C356 C 0.0941 0.08723 0.49912 0.0
C357 C 0.04179 0.1332 0.49331 0.0
C358 C 0.04865 0.12056 0.47545 0.0
C359 C 0.06669 0.10722 0.47762 0.0
C360 C 0.03618 0.11847 0.45515 0.0
C361 C 0.02223 0.14745 0.49216 0.0
C362 C 0.03021 0.09737 0.44822 0.0
C363 C 0.02065 0.09432 0.42817 0.0
C364 C 0.01638 0.11234 0.41477 0.0
C365 C 0.02127 0.13364 0.42197 0.0
C366 C 0.03143 0.13667 0.44196 0.0
H367 H 0.01653 0.15229 0.50848 0.0
H368 H 0.026 0.16267 0.48306 0.0
H369 H 0.00916 0.13884 0.48359 0.0
H370 H 0.03349 0.08308 0.45815 0.0
H371 H 0.01679 0.07777 0.42301 0.0
H372 H 0.95284 0.42528 0.43051 0.0
H373 H 0.9357 0.43239 0.46526 0.0
H374 H 0.91933 0.36368 0.47057 0.0
H375 H 0.93774 0.35634 0.43651 0.0
H376 H 0.8974 0.42919 0.47808 0.0
H377 H 0.94488 0.37192 0.52824 0.0
H378 H 0.95156 0.37794 0.50055 0.0
H379 H 0.93115 0.35816 0.50676 0.0
C380 C 0.94562 0.41172 0.43917 0.0
C381 C 0.94667 0.39027 0.43098 0.0
C382 C 0.93583 0.41576 0.45901 0.0
C383 C 0.92656 0.3985 0.47082 0.0
C384 C 0.92698 0.37715 0.46221 0.0
H385 H 0.84483 0.44249 0.5771 0.0
H386 H 0.85602 0.42235 0.54475 0.0
C387 C 0.9373 0.37301 0.44265 0.0
C388 C 0.91614 0.40313 0.49187 0.0
H389 H 0.91545 0.38882 0.54527 0.0
C390 C 0.90138 0.42038 0.49278 0.0
C391 C 0.92143 0.39171 0.5111 0.0
C392 C 0.93828 0.37407 0.5117 0.0
C393 C 0.89231 0.42705 0.51238 0.0
C394 C 0.89718 0.41529 0.53156 0.0
C395 C 0.91147 0.39761 0.53055 0.0
C396 C 0.88945 0.42262 0.55307 0.0
C397 C 0.87859 0.44742 0.51237 0.0
C398 C 0.90417 0.42741 0.56948 0.0
C399 C 0.89766 0.43797 0.58837 0.0
C400 C 0.87638 0.44431 0.59093 0.0
C401 C 0.86137 0.43794 0.57535 0.0
C402 C 0.8678 0.42671 0.55677 0.0
H403 H 0.88125 0.45762 0.49772 0.0
H404 H 0.86162 0.44253 0.5125 0.0
H405 H 0.88177 0.45776 0.5268 0.0
H406 H 0.92094 0.42425 0.56714 0.0
H407 H 0.90958 0.44281 0.60008 0.0
H408 H 0.06889 0.93065 0.05572 0.0
H409 H 0.07891 0.93512 0.01786 0.0
H410 H 0.08036 0.86465 0.01008 0.0
H411 H 0.06934 0.86012 0.04778 0.0
H412 H 0.11394 0.92317 0.99901 0.0
H413 H 0.04703 0.8814 0.95757 0.0
H414 H 0.04647 0.88796 0.986 0.0
H415 H 0.0607 0.86419 0.97658 0.0
C416 C 0.07117 0.91611 0.04589 0.0
C417 C 0.06834 0.89505 0.05466 0.0
C418 C 0.07688 0.91867 0.02425 0.0
C419 C 0.08015 0.90023 0.011 0.0
C420 C 0.07739 0.87913 0.01977 0.0
H421 H 0.15124 0.93012 0.89345 0.0
H422 H 0.14011 0.90913 0.92528 0.0
C423 C 0.07127 0.87657 0.04136 0.0
C424 C 0.08759 0.90336 0.98844 0.0
H425 H 0.07571 0.89292 0.9355 0.0
C426 C 0.10559 0.91651 0.98513 0.0
C427 C 0.07663 0.89473 0.97033 0.0
C428 C 0.05652 0.88146 0.97273 0.0
C429 C 0.11256 0.92193 0.96431 0.0
C430 C 0.10183 0.91303 0.94614 0.0
C431 C 0.08413 0.8994 0.94942 0.0
C432 C 0.10737 0.91985 0.9238 0.0
C433 C 0.1306 0.93816 0.96211 0.0
C434 C 0.09219 0.93081 0.91114 0.0
C435 C 0.09835 0.9421 0.89251 0.0
C436 C 0.11986 0.94289 0.88652 0.0
C437 C 0.1346 0.92994 0.89787 0.0
C438 C 0.1283 0.91817 0.91617 0.0
H439 H 0.1334 0.94741 0.97734 0.0
H440 H 0.14544 0.92919 0.95817 0.0
H441 H 0.12739 0.9502 0.94902 0.0
H442 H 0.07589 0.93216 0.91657 0.0
H443 H 0.08664 0.95199 0.88412 0.0
H444 H 0.91592 0.62206 0.07826 0.0
H445 H 0.9014 0.61897 0.04168 0.0
H446 H 0.91301 0.54907 0.04276 0.0
H447 H 0.92651 0.55196 0.07971 0.0
H448 H 0.91872 0.60762 0.00566 0.0
H449 H 0.85377 0.54899 0.02135 0.0
H450 H 0.86821 0.56212 0.04297 0.0
H451 H 0.87849 0.53764 0.03029 0.0
C452 C 0.91507 0.606 0.07077 0.0
C453 C 0.92211 0.5872 0.08187 0.0
C454 C 0.90683 0.60426 0.04986 0.0
C455 C 0.90569 0.58373 0.03957 0.0
C456 C 0.91301 0.56498 0.05059 0.0
H457 H 0.90887 0.55286 0.9054 0.0
H458 H 0.91568 0.5687 0.94093 0.0
C459 C 0.92085 0.56665 0.07166 0.0
C460 C 0.89781 0.58201 0.01698 0.0
H461 H 0.8657 0.55142 0.98442 0.0
C462 C 0.90686 0.59557 0.00106 0.0
C463 C 0.88191 0.56677 0.01096 0.0
C464 C 0.86988 0.55327 0.02737 0.0
C465 C 0.90122 0.59352 0.97917 0.0
C466 C 0.88677 0.57686 0.97293 0.0
C467 C 0.87699 0.56406 0.98902 0.0
C468 C 0.8825 0.57122 0.94992 0.0
C469 C 0.91079 0.60932 0.9631 0.0
C470 C 0.86159 0.56738 0.9429 0.0
C471 C 0.85774 0.55761 0.92285 0.0
C472 C 0.87471 0.552 0.90922 0.0
C473 C 0.89549 0.55741 0.91545 0.0
C474 C 0.89938 0.5666 0.93578 0.0
H475 H 0.91395 0.62552 0.97074 0.0
H476 H 0.92624 0.60274 0.95743 0.0
H477 H 0.90028 0.61187 0.94891 0.0
H478 H 0.84827 0.57082 0.95344 0.0
H479 H 0.84158 0.55351 0.91841 0.0
H480 H 0.40688 0.08948 0.10872 0.0
H481 H 0.44534 0.08621 0.10458 0.0
H482 H 0.43663 0.03244 0.06 0.0
H483 H 0.39804 0.03582 0.06385 0.0
H484 H 0.46857 0.04653 0.11471 0.0
H485 H 0.4796 0.07376 0.02929 0.0
H486 H 0.45585 0.0803 0.04428 0.0
H487 H 0.4602 0.0528 0.03488 0.0
C488 C 0.41315 0.07733 0.09763 0.0
C489 C 0.3995 0.06308 0.08646 0.0
C490 C 0.43508 0.07535 0.09542 0.0
C491 C 0.44377 0.05907 0.08203 0.0
C492 C 0.43021 0.04529 0.0702 0.0
H493 H 0.57941 0.06994 0.05735 0.0
H494 H 0.5472 0.04761 0.06142 0.0
C495 C 0.40818 0.04737 0.0723 0.0
C496 C 0.46708 0.0564 0.08127 0.0
H497 H 0.51013 0.06878 0.05027 0.0
C498 C 0.47772 0.05096 0.1005 0.0
C499 C 0.47892 0.06171 0.0626 0.0
C500 C 0.46819 0.06757 0.04155 0.0
C501 C 0.49988 0.0524 0.10202 0.0
C502 C 0.51158 0.05972 0.08394 0.0
C503 C 0.5011 0.06317 0.06415 0.0
C504 C 0.53344 0.06835 0.08614 0.0
C505 C 0.51047 0.04715 0.12327 0.0
C506 C 0.53677 0.08677 0.09937 0.0
C507 C 0.55498 0.09953 0.09694 0.0
C508 C 0.57024 0.0939 0.08145 0.0
C509 C 0.56806 0.07422 0.06981 0.0
C510 C 0.5496 0.0616 0.07198 0.0
H511 H 0.50148 0.03435 0.13222 0.0
H512 H 0.52704 0.04141 0.12089 0.0
H513 H 0.51079 0.06216 0.13346 0.0
H514 H 0.52435 0.09261 0.11002 0.0
H515 H 0.55617 0.1149 0.1057 0.0
H516 H 0.55659 0.50937 0.06434 0.0
H517 H 0.51935 0.49809 0.06417 0.0
H518 H 0.52067 0.49275 0.13378 0.0
H519 H 0.55753 0.50523 0.13403 0.0
H520 H 0.50834 0.4595 0.07531 0.0
H521 H 0.46233 0.51635 0.12661 0.0
H522 H 0.48865 0.52293 0.11705 0.0
H523 H 0.48509 0.50633 0.14092 0.0
C524 C 0.54872 0.50632 0.07962 0.0
C525 C 0.55991 0.50792 0.09918 0.0
C526 C 0.52744 0.49996 0.07953 0.0
C527 C 0.51708 0.49467 0.09897 0.0
C528 C 0.52802 0.49728 0.11862 0.0
H529 H 0.4345 0.38702 0.11209 0.0
H530 H 0.4594 0.41692 0.11941 0.0
C531 C 0.54919 0.50418 0.11873 0.0
C532 C 0.49639 0.48303 0.09838 0.0
H533 H 0.4475 0.47961 0.12222 0.0
C534 C 0.49494 0.46426 0.08528 0.0
C535 C 0.47879 0.48915 0.11132 0.0
C536 C 0.47872 0.50994 0.12457 0.0
C537 C 0.47683 0.45102 0.08534 0.0
C538 C 0.45989 0.45627 0.09936 0.0
C539 C 0.46077 0.47548 0.11183 0.0
C540 C 0.44168 0.44119 0.10133 0.0
C541 C 0.47612 0.43118 0.07068 0.0
C542 C 0.42283 0.44548 0.09001 0.0
C543 C 0.4084 0.42845 0.08607 0.0
C544 C 0.41296 0.40702 0.09319 0.0
C545 C 0.43069 0.40342 0.10646 0.0
C546 C 0.44489 0.42045 0.11065 0.0
H547 H 0.48814 0.4322 0.05757 0.0
H548 H 0.47937 0.41616 0.08031 0.0
H549 H 0.46018 0.42939 0.06322 0.0
H550 H 0.42023 0.46138 0.08258 0.0
H551 H 0.39494 0.43156 0.07559 0.0
H552 H 0.58024 0.89446 0.37979 0.0
H553 H 0.55579 0.92563 0.38022 0.0
H554 H 0.58794 0.952 0.43604 0.0
H555 H 0.61283 0.92122 0.43531 0.0
H556 H 0.54395 0.93487 0.44079 0.0
H557 H 0.55226 0.99535 0.37421 0.0
H558 H 0.55681 0.96712 0.36689 0.0
H559 H 0.57456 0.98045 0.38545 0.0
C560 C 0.58284 0.90757 0.39135 0.0
C561 C 0.59834 0.90544 0.40751 0.0
C562 C 0.56888 0.92537 0.3916 0.0
C563 C 0.57013 0.94108 0.40815 0.0
C564 C 0.58694 0.94018 0.42298 0.0
H565 H 0.44619 0.99415 0.44917 0.0
H566 H 0.48475 0.98851 0.45031 0.0
C567 C 0.60121 0.92261 0.42245 0.0
C568 C 0.55122 0.95452 0.41288 0.0
H569 H 0.51782 0.99202 0.39023 0.0
C570 C 0.53833 0.94777 0.43011 0.0
C571 C 0.5441 0.97115 0.39879 0.0
C572 C 0.55769 0.97914 0.38036 0.0
C573 C 0.51761 0.95577 0.43251 0.0
C574 C 0.50994 0.97172 0.41771 0.0
C575 C 0.52359 0.97973 0.4015 0.0
C576 C 0.48717 0.97806 0.4169 0.0
C577 C 0.50374 0.94563 0.44976 0.0
C578 C 0.47589 0.97538 0.39746 0.0
C579 C 0.45412 0.97935 0.39663 0.0
C580 C 0.44309 0.98558 0.41533 0.0
C581 C 0.45434 0.98888 0.43466 0.0
C582 C 0.47632 0.98558 0.43533 0.0
H583 H 0.51038 0.92991 0.45589 0.0
H584 H 0.50257 0.95707 0.46367 0.0
H585 H 0.48751 0.94233 0.44355 0.0
H586 H 0.48383 0.96961 0.383 0.0
H587 H 0.44579 0.9768 0.3815 0.0
H588 H 0.41687 0.60178 0.36293 0.0
H589 H 0.44661 0.57945 0.35043 0.0
H590 H 0.43391 0.53221 0.40081 0.0
H591 H 0.40355 0.55408 0.41266 0.0
H592 H 0.47665 0.57843 0.38197 0.0
H593 H 0.46044 0.49352 0.3537 0.0
H594 H 0.44069 0.51506 0.35279 0.0
H595 H 0.44638 0.50122 0.3778 0.0
C596 C 0.41956 0.58586 0.37032 0.0
C597 C 0.40798 0.57951 0.38862 0.0
C598 C 0.43664 0.57319 0.3633 0.0
C599 C 0.44259 0.55426 0.37479 0.0
C600 C 0.42943 0.54652 0.39145 0.0
H601 H 0.57237 0.52441 0.40819 0.0
H602 H 0.53392 0.53023 0.40853 0.0
C603 C 0.41201 0.55902 0.3982 0.0
C604 C 0.46477 0.54641 0.37321 0.0
H605 H 0.4961 0.50136 0.36506 0.0
C606 C 0.48087 0.56163 0.37799 0.0
C607 C 0.47022 0.52445 0.36831 0.0
C608 C 0.45355 0.50762 0.36267 0.0
C609 C 0.50225 0.55552 0.37811 0.0
C610 C 0.50771 0.53347 0.37373 0.0
C611 C 0.49174 0.51821 0.36863 0.0
C612 C 0.53014 0.52646 0.37396 0.0
C613 C 0.51886 0.57277 0.38283 0.0
C614 C 0.54053 0.52183 0.35448 0.0
C615 C 0.56247 0.51859 0.3542 0.0
C616 C 0.57435 0.51987 0.37345 0.0
C617 C 0.5637 0.52351 0.39308 0.0
C618 C 0.54175 0.52674 0.39333 0.0
H619 H 0.51238 0.5897 0.38144 0.0
H620 H 0.52483 0.57054 0.39958 0.0
H621 H 0.53253 0.57115 0.37163 0.0
H622 H 0.5318 0.52169 0.33937 0.0
H623 H 0.57019 0.51586 0.33881 0.0
H624 H 0.09069 0.4271 0.99706 0.0
H625 H 0.08577 0.45641 0.02387 0.0
H626 H 0.0245 0.47131 0.99645 0.0
H627 H 0.0291 0.44227 0.96981 0.0
H628 H 0.07628 0.50328 0.01774 0.0
H629 H 0.01305 0.45835 0.06155 0.0
H630 H 0.03117 0.44493 0.04318 0.0
H631 H 0.00861 0.45975 0.0329 0.0
C632 C 0.0762 0.43667 0.99669 0.0
C633 C 0.06018 0.43213 0.98141 0.0
C634 C 0.07345 0.4534 0.012 0.0
C635 C 0.05463 0.46571 0.01231 0.0
C636 C 0.03898 0.4617 0.99669 0.0
H637 H 0.00781 0.58652 0.05642 0.0
H638 H 0.02824 0.55761 0.03897 0.0
C639 C 0.04169 0.44509 0.98143 0.0
C640 C 0.05084 0.48262 0.02904 0.0
H641 H 0.01492 0.49715 0.06761 0.0
C642 C 0.06312 0.50186 0.02895 0.0
C643 C 0.03396 0.48051 0.04393 0.0
C644 C 0.02106 0.45968 0.04561 0.0
C645 C 0.05801 0.51968 0.04244 0.0
C646 C 0.03999 0.51823 0.05603 0.0
C647 C 0.02864 0.4984 0.05709 0.0
C648 C 0.03121 0.5375 0.0677 0.0
C649 C 0.07174 0.53997 0.04171 0.0
C650 C 0.02613 0.53597 0.08976 0.0
C651 C 0.01412 0.55239 0.09976 0.0
C652 C 0.00689 0.57064 0.08786 0.0
C653 C 0.01312 0.57275 0.06611 0.0
C654 C 0.025 0.55627 0.05611 0.0
H655 H 0.08834 0.53578 0.03726 0.0
H656 H 0.06551 0.55133 0.02919 0.0
H657 H 0.07184 0.54866 0.0575 0.0
H658 H 0.03068 0.5216 0.099 0.0
H659 H 0.00972 0.55026 0.11656 0.0
H660 H 0.03369 0.42771 0.39805 0.0
H661 H 0.05156 0.45944 0.41409 0.0
H662 H 0.05026 0.42773 0.47646 0.0
H663 H 0.03298 0.39586 0.46058 0.0
H664 H 0.03287 0.48461 0.44301 0.0
H665 H 0.10795 0.45529 0.47863 0.0
H666 H 0.09338 0.43944 0.45887 0.0
H667 H 0.08637 0.43814 0.4871 0.0
C668 C 0.03776 0.4272 0.41507 0.0
C669 C 0.0317 0.40926 0.42805 0.0
C670 C 0.04798 0.44538 0.42421 0.0
C671 C 0.05242 0.44595 0.44646 0.0
C672 C 0.0475 0.42753 0.45917 0.0
H673 H 0.03734 0.54593 0.5382 0.0
H674 H 0.03567 0.51653 0.5116 0.0
C675 C 0.03741 0.40932 0.45005 0.0
C676 C 0.05906 0.46676 0.45703 0.0
H677 H 0.09203 0.48736 0.49594 0.0
C678 C 0.04612 0.48533 0.4542 0.0
C679 C 0.0765 0.46791 0.47143 0.0
C680 C 0.09196 0.44916 0.47399 0.0
C681 C 0.04923 0.50442 0.46647 0.0
C682 C 0.06544 0.5048 0.4823 0.0
C683 C 0.07936 0.48688 0.48406 0.0
C684 C 0.06688 0.5228 0.49836 0.0
C685 C 0.03475 0.52381 0.46278 0.0
C686 C 0.08524 0.53573 0.50015 0.0
C687 C 0.0863 0.55262 0.51549 0.0
C688 C 0.06906 0.55671 0.5294 0.0
C689 C 0.05084 0.54344 0.52769 0.0
C690 C 0.04981 0.52665 0.51239 0.0
H691 H 0.02812 0.52375 0.44612 0.0
H692 H 0.02124 0.52291 0.47426 0.0
H693 H 0.04321 0.53959 0.46547 0.0
H694 H 0.09865 0.53286 0.48958 0.0
H695 H 0.10064 0.56245 0.51645 0.0
H696 H 0.89636 0.91163 0.52212 0.0
H697 H 0.90019 0.94101 0.49529 0.0
H698 H 0.9683 0.93786 0.50201 0.0
H699 H 0.9646 0.90895 0.52902 0.0
H700 H 0.95395 0.97903 0.50602 0.0
H701 H 0.91904 0.94102 0.43261 0.0
H702 H 0.90179 0.94057 0.45569 0.0
H703 H 0.92616 0.9252 0.45623 0.0
C704 C 0.91215 0.91696 0.51759 0.0
C705 C 0.93017 0.90803 0.52776 0.0
C706 C 0.91432 0.93369 0.50219 0.0
C707 C 0.93455 0.94149 0.49648 0.0
C708 C 0.95254 0.9321 0.50615 0.0
H709 H 0.97165 0.03176 0.3944 0.0
H710 H 0.96416 -0.00072 0.4165 0.0
C711 C 0.95039 0.91557 0.52161 0.0
C712 C 0.93713 0.96055 0.48174 0.0
H713 H 0.92669 0.97931 0.43074 0.0
C714 C 0.94803 0.97905 0.48954 0.0
C715 C 0.92957 0.96048 0.46018 0.0
C716 C 0.91866 0.94069 0.45057 0.0
C717 C 0.95154 0.99749 0.47646 0.0
C718 C 0.94343 0.99772 0.45511 0.0
C719 C 0.93268 0.97917 0.44719 0.0
C720 C 0.94634 0.01701 0.44077 0.0
C721 C 0.96433 0.01637 0.4855 0.0
C722 C 0.93827 0.0376 0.44677 0.0
C723 C 0.94265 0.05618 0.43431 0.0
C724 C 0.95497 0.05452 0.41541 0.0
C725 C 0.96216 0.03366 0.40887 0.0
C726 C 0.95789 0.01507 0.42147 0.0
H727 H 0.97411 0.01122 0.49958 0.0
H728 H 0.97501 0.02344 0.47302 0.0
H729 H 0.95337 0.02949 0.49102 0.0
H730 H 0.92891 0.03937 0.46134 0.0
H731 H 0.93661 0.07192 0.43969 0.0
H732 H 0.45717 0.55667 0.46557 0.0
H733 H 0.46 0.52291 0.48655 0.0
H734 H 0.39225 0.52286 0.49652 0.0
H735 H 0.3893 0.55718 0.47591 0.0
H736 H 0.41379 0.51049 0.53303 0.0
H737 H 0.4433 0.46352 0.46282 0.0
H738 H 0.4595 0.4872 0.46784 0.0
H739 H 0.4321 0.49068 0.46017 0.0
C740 C 0.44285 0.54959 0.4723 0.0
C741 C 0.42297 0.55951 0.46886 0.0
C742 C 0.44448 0.53019 0.48419 0.0
C743 C 0.42627 0.52003 0.49257 0.0
C744 C 0.40648 0.53032 0.48999 0.0
H745 H 0.45008 0.38498 0.53335 0.0
H746 H 0.43126 0.41613 0.51729 0.0
C747 C 0.40484 0.54994 0.47824 0.0
C748 C 0.42812 0.4985 0.5037 0.0
H749 H 0.44988 0.4476 0.49774 0.0
C750 C 0.42139 0.49659 0.52526 0.0
C751 C 0.43743 0.48014 0.49338 0.0
C752 C 0.44326 0.48039 0.4697 0.0
C753 C 0.42496 0.47724 0.53716 0.0
C754 C 0.43606 0.4596 0.52738 0.0
C755 C 0.4416 0.46112 0.50543 0.0
C756 C 0.44374 0.44019 0.53976 0.0
C757 C 0.41686 0.47601 0.56006 0.0
C758 C 0.45648 0.44313 0.55819 0.0
C759 C 0.46692 0.42528 0.56763 0.0
C760 C 0.4653 0.40418 0.55851 0.0
C761 C 0.45173 0.40104 0.54071 0.0
C762 C 0.44098 0.41885 0.5315 0.0
H763 H 0.40224 0.48602 0.56203 0.0
H764 H 0.41333 0.45883 0.56494 0.0
H765 H 0.42904 0.48281 0.57117 0.0
H766 H 0.45943 0.45942 0.56455 0.0
H767 H 0.47739 0.42835 0.5812 0.0
H768 H 0.55988 0.5837 0.07543 0.0
H769 H 0.54939 0.59701 0.03986 0.0
H770 H 0.61531 0.60254 0.02161 0.0
H771 H 0.62582 0.58743 0.05678 0.0
H772 H 0.553 0.62899 0.01298 0.0
H773 H 0.59727 0.55795 0.97918 0.0
H774 H 0.59455 0.5622 0.0078 0.0
H775 H 0.61399 0.57748 0.99258 0.0
C776 C 0.57218 0.58832 0.06405 0.0
C777 C 0.59365 0.58422 0.06869 0.0
C778 C 0.56616 0.59589 0.04365 0.0
C779 C 0.58153 0.59995 0.02769 0.0
C780 C 0.60312 0.59859 0.03331 0.0
H781 H 0.53269 0.6362 0.89814 0.0
H782 H 0.54922 0.63905 0.93394 0.0
C783 C 0.60914 0.59026 0.05349 0.0
C784 C 0.5747 0.60295 0.00484 0.0
H785 H 0.57895 0.5801 0.95463 0.0
C786 C 0.55873 0.61837 0.00018 0.0
C787 C 0.58193 0.58882 0.98816 0.0
C788 C 0.59771 0.57055 0.99217 0.0
C789 C 0.54923 0.61949 0.97962 0.0
C790 C 0.55663 0.60549 0.96295 0.0
C791 C 0.57326 0.59081 0.96739 0.0
C792 C 0.54646 0.60433 0.94127 0.0
C793 C 0.53063 0.6348 0.97642 0.0
C794 C 0.54003 0.58382 0.93308 0.0
C795 C 0.53137 0.58209 0.91239 0.0
C796 C 0.52854 0.60089 0.89961 0.0
C797 C 0.5346 0.62148 0.90781 0.0
C798 C 0.54385 0.62314 0.92834 0.0
H799 H 0.52325 0.63949 0.99206 0.0
H800 H 0.53622 0.65008 0.96846 0.0
H801 H 0.51825 0.62718 0.96606 0.0
H802 H 0.54178 0.56905 0.94272 0.0
H803 H 0.52664 0.56604 0.90651 0.0
H804 H 0.43044 0.00911 0.10993 0.0
H805 H 0.4461 0.98501 0.08281 0.0
H806 H 0.38768 0.94826 0.07908 0.0
H807 H 0.37159 0.97276 0.10579 0.0
H808 H 0.45193 0.93937 0.07282 0.0
H809 H 0.39212 0.98069 0.02062 0.0
H810 H 0.3977 0.98959 0.04784 0.0
H811 H 0.3812 0.96594 0.04316 0.0
C812 C 0.42116 0.99535 0.10407 0.0
C813 C 0.39962 0.99307 0.10972 0.0
C814 C 0.43016 0.98161 0.08848 0.0
C815 C 0.41784 0.96525 0.07857 0.0
C816 C 0.39728 0.96111 0.08627 0.0
H817 H 0.45779 0.8834 0.96929 0.0
H818 H 0.4478 0.89595 0.00551 0.0
C819 C 0.38815 0.97504 0.10161 0.0
C820 C 0.42511 0.95531 0.05802 0.0
H821 H 0.41406 0.95449 0.00402 0.0
C822 C 0.44364 0.94251 0.05776 0.0
C823 C 0.41452 0.95998 0.03835 0.0
C824 C 0.39541 0.97496 0.03735 0.0
C825 C 0.45178 0.9341 0.03826 0.0
C826 C 0.44086 0.93836 0.01868 0.0
C827 C 0.42234 0.95113 0.01905 0.0
C828 C 0.44857 0.93055 0.99737 0.0
C829 C 0.47232 0.92137 0.03873 0.0
C830 C 0.45203 0.94578 0.98067 0.0
C831 C 0.45734 0.93865 0.95993 0.0
C832 C 0.45942 0.91613 0.95547 0.0
C833 C 0.45642 0.90088 0.97229 0.0
C834 C 0.45087 0.90803 0.99304 0.0
H835 H 0.48146 0.92454 0.05378 0.0
H836 H 0.46875 0.90352 0.03802 0.0
H837 H 0.48243 0.92559 0.02463 0.0
H838 H 0.4503 0.96324 0.98363 0.0
H839 H 0.45968 0.95082 0.94737 0.0
H840 H 0.55588 0.34786 0.54179 0.0
H841 H 0.57467 0.35443 0.50775 0.0
H842 H 0.5657 0.42429 0.51584 0.0
H843 H 0.54816 0.4178 0.55045 0.0
H844 H 0.56369 0.37028 0.47151 0.0
H845 H 0.62675 0.42439 0.5024 0.0
H846 H 0.60931 0.40955 0.5203 0.0
H847 H 0.60155 0.43591 0.50943 0.0
C848 C 0.55816 0.36462 0.53635 0.0
C849 C 0.55084 0.38236 0.54882 0.0
C850 C 0.56887 0.36836 0.51691 0.0
C851 C 0.57215 0.3899 0.50944 0.0
C852 C 0.5642 0.40757 0.52163 0.0
H853 H 0.57997 0.43941 0.38307 0.0
H854 H 0.57182 0.41714 0.41456 0.0
C855 C 0.55398 0.40386 0.54132 0.0
C856 C 0.583 0.39396 0.48849 0.0
H857 H 0.61838 0.42838 0.46429 0.0
C858 C 0.57596 0.3827 0.46999 0.0
C859 C 0.5996 0.40951 0.48645 0.0
C860 C 0.60989 0.42028 0.50579 0.0
C861 C 0.584 0.38767 0.44939 0.0
C862 C 0.59873 0.4051 0.4471 0.0
C863 C 0.60681 0.41527 0.46579 0.0
C864 C 0.6044 0.4147 0.42573 0.0
C865 C 0.57649 0.37416 0.43042 0.0
C866 C 0.62546 0.42088 0.42122 0.0
C867 C 0.63003 0.43443 0.40355 0.0
C868 C 0.61369 0.44154 0.38977 0.0
C869 C 0.59295 0.43385 0.3932 0.0
C870 C 0.58829 0.42092 0.41122 0.0
H871 H 0.5737 0.35684 0.43536 0.0
H872 H 0.56112 0.38077 0.42452 0.0
H873 H 0.58812 0.37431 0.41694 0.0
H874 H 0.63822 0.4163 0.43208 0.0
H875 H 0.64615 0.44019 0.40127 0.0
H876 H 0.49944 0.13425 0.58123 0.0
H877 H 0.48362 0.13723 0.54514 0.0
H878 H 0.43214 0.09519 0.56515 0.0
H879 H 0.44788 0.09189 0.60097 0.0
H880 H 0.47781 0.09934 0.51975 0.0
H881 H 0.40166 0.14318 0.53011 0.0
H882 H 0.42316 0.14519 0.54942 0.0
H883 H 0.40545 0.12197 0.54992 0.0
C884 C 0.48463 0.12588 0.57804 0.0
C885 C 0.47515 0.11247 0.59385 0.0
C886 C 0.47554 0.12773 0.55746 0.0
C887 C 0.4566 0.11662 0.55256 0.0
C888 C 0.44653 0.10427 0.5687 0.0
H889 H 0.38662 0.0515 0.46004 0.0
H890 H 0.39915 0.07449 0.48959 0.0
C891 C 0.45568 0.10223 0.58914 0.0
C892 C 0.44892 0.11498 0.52999 0.0
H893 H 0.40383 0.11836 0.49955 0.0
C894 C 0.46185 0.10404 0.51504 0.0
C895 C 0.42807 0.12107 0.52403 0.0
C896 C 0.41385 0.13371 0.53917 0.0
C897 C 0.45391 0.09731 0.49491 0.0
C898 C 0.4326 0.10227 0.48938 0.0
C899 C 0.42014 0.11457 0.50379 0.0
C900 C 0.42225 0.09207 0.47031 0.0
C901 C 0.46791 0.0834 0.48056 0.0
C902 C 0.43024 0.09517 0.44935 0.0
C903 C 0.42329 0.08178 0.43237 0.0
C904 C 0.40802 0.0653 0.43606 0.0
C905 C 0.39856 0.06384 0.45661 0.0
C906 C 0.40567 0.07704 0.47357 0.0
H907 H 0.48248 0.07776 0.48904 0.0
H908 H 0.45917 0.06872 0.47467 0.0
H909 H 0.47288 0.0932 0.4663 0.0
H910 H 0.44266 0.1071 0.44637 0.0
H911 H 0.43069 0.08358 0.41667 0.0
H912 H 0.07335 0.59428 0.64097 0.0
H913 H 0.04292 0.5731 0.65375 0.0
H914 H 0.05066 0.52817 0.60037 0.0
H915 H 0.08175 0.54871 0.58835 0.0
H916 H 0.01147 0.57611 0.62584 0.0
H917 H 0.02337 0.48804 0.64422 0.0
H918 H 0.04489 0.50769 0.64479 0.0
H919 H 0.03625 0.49594 0.61956 0.0
C920 C 0.06944 0.57898 0.63294 0.0
C921 C 0.07985 0.57296 0.61383 0.0
C922 C 0.05194 0.56697 0.64011 0.0
C923 C 0.04435 0.54913 0.62793 0.0
C924 C 0.05636 0.54158 0.6103 0.0
H925 H 0.917 0.52941 0.58641 0.0
H926 H 0.9553 0.53446 0.59062 0.0
C927 C 0.0742 0.55333 0.60342 0.0
C928 C 0.02177 0.54255 0.62999 0.0
H929 H 0.98816 0.4985 0.63182 0.0
C930 C 0.00645 0.55915 0.62764 0.0
C931 C 0.01514 0.52044 0.63211 0.0
C932 C 0.0308 0.50204 0.63552 0.0
C933 C 0.98479 0.55425 0.62663 0.0
C934 C 0.97824 0.5321 0.6276 0.0
C935 C 0.99335 0.51546 0.6308 0.0
C936 C 0.95568 0.52625 0.62464 0.0
C937 C 0.96907 0.5728 0.62408 0.0
C938 C 0.94341 0.51953 0.64232 0.0
C939 C 0.92149 0.51675 0.64002 0.0
C940 C 0.91158 0.52056 0.61996 0.0
C941 C 0.92411 0.5265 0.60211 0.0
C942 C 0.94599 0.5293 0.60444 0.0
H943 H 0.97618 0.58896 0.62828 0.0
H944 H 0.96367 0.57352 0.607 0.0
H945 H 0.95491 0.57006 0.63442 0.0
H946 H 0.95066 0.51724 0.65806 0.0
H947 H 0.91228 0.51222 0.6541 0.0
H948 H 0.89488 0.9273 0.58813 0.0
H949 H 0.91828 0.95941 0.59019 0.0
H950 H 0.9619 0.92282 0.63006 0.0
H951 H 0.93877 0.89062 0.6279 0.0
H952 H 0.95033 0.98029 0.63253 0.0
H953 H 0.98172 0.93742 0.55957 0.0
H954 H 0.95386 0.9373 0.56628 0.0
H955 H 0.97207 0.92101 0.58176 0.0
C956 C 0.90893 0.92644 0.59821 0.0
C957 C 0.91517 0.90646 0.60772 0.0
C958 C 0.92227 0.94479 0.59933 0.0
C959 C 0.94176 0.94334 0.61021 0.0
C960 C 0.94682 0.9242 0.62171 0.0
H961 H 0.05983 0.00415 0.63212 0.0
H962 H 0.02307 0.99199 0.63458 0.0
C963 C 0.93364 0.90583 0.62043 0.0
C964 C 0.95873 0.9594 0.60583 0.0
H965 H 0.00285 0.96516 0.57467 0.0
C966 C 0.96169 0.97734 0.61968 0.0
C967 C 0.97317 0.95563 0.5888 0.0
C968 C 0.97015 0.93687 0.57311 0.0
C969 C 0.97947 0.99115 0.61747 0.0
C970 C 0.99491 0.98627 0.60149 0.0
C971 C 0.99116 0.96896 0.58696 0.0
C972 C 0.01599 0.99721 0.60065 0.0
C973 C 0.9815 0.01066 0.63234 0.0
C974 C 0.02452 0.00399 0.58072 0.0
C975 C 0.04583 0.01018 0.57916 0.0
C976 C 0.05887 0.01007 0.59757 0.0
C977 C 0.05007 0.00452 0.61769 0.0
C978 C 0.02892 0.99782 0.61916 0.0
H979 H 0.96561 0.01724 0.63669 0.0
H980 H 0.98935 0.00543 0.64757 0.0
H981 H 0.99098 0.02406 0.6249 0.0
H982 H 0.01491 0.00361 0.56619 0.0
H983 H 0.05221 0.01456 0.56348 0.0
H984 H 0.06762 0.38792 0.87251 0.0
H985 H 0.03908 0.40974 0.85651 0.0
H986 H 0.04679 0.45818 0.90689 0.0
H987 H 0.07614 0.43697 0.922 0.0
H988 H 0.00569 0.41134 0.88067 0.0
H989 H 0.02568 0.49697 0.85931 0.0
H990 H 0.04573 0.47593 0.86217 0.0
H991 H 0.03569 0.49012 0.8856 0.0
C992 C 0.06411 0.40395 0.87923 0.0
C993 C 0.07409 0.41097 0.89826 0.0
C994 C 0.0477 0.41635 0.87022 0.0
C995 C 0.04065 0.43558 0.88053 0.0
C996 C 0.05215 0.44371 0.89831 0.0
H997 H 0.91195 0.46442 0.91021 0.0
H998 H 0.94986 0.45601 0.90927 0.0
C999 C 0.06896 0.43156 0.90698 0.0
C1000 C 0.01886 0.44379 0.87623 0.0
H1001 H 0.98899 0.49024 0.87002 0.0
C1002 C 0.00217 0.42856 0.87785 0.0
C1003 C 0.01411 0.46623 0.87265 0.0
C1004 C 0.03131 0.48318 0.86961 0.0
C1005 C 0.98095 0.43519 0.87684 0.0
C1006 C 0.97619 0.45776 0.87469 0.0
C1007 C 0.99275 0.47297 0.87205 0.0
C1008 C 0.95402 0.46559 0.87585 0.0
C1009 C 0.96376 0.41796 0.87844 0.0
C1010 C 0.94405 0.47447 0.85757 0.0
C1011 C 0.92236 0.47934 0.85805 0.0
C1012 C 0.91037 0.47541 0.87686 0.0
C1013 C 0.92068 0.46741 0.89541 0.0
C1014 C 0.94233 0.46262 0.89492 0.0
H1015 H 0.96982 0.40135 0.87426 0.0
H1016 H 0.95774 0.41738 0.89529 0.0
H1017 H 0.95023 0.42191 0.86758 0.0
H1018 H 0.95286 0.47685 0.84271 0.0
H1019 H 0.91488 0.48552 0.8435 0.0
H1020 H 0.10415 0.01766 0.91778 0.0
H1021 H 0.06708 0.0272 0.92477 0.0
H1022 H 0.05971 0.0473 0.85825 0.0
H1023 H 0.09649 0.037 0.85099 0.0
H1024 H 0.05011 0.06598 0.92277 0.0
H1025 H 0.00632 0.01265 0.86584 0.0
H1026 H 0.03406 0.00852 0.87198 0.0
H1027 H 0.0261 0.02851 0.85205 0.0
C1028 C 0.09455 0.02394 0.90461 0.0
C1029 C 0.10318 0.02665 0.88386 0.0
C1030 C 0.07335 0.02927 0.90859 0.0
C1031 C 0.06046 0.03757 0.89194 0.0
C1032 C 0.0691 0.04026 0.87119 0.0
H1033 H 0.96178 0.12999 0.90791 0.0
H1034 H 0.99166 0.10783 0.89538 0.0
C1035 C 0.0902 0.03462 0.86712 0.0
C1036 C 0.03874 0.0455 0.89678 0.0
H1037 H 0.98731 0.04455 0.87904 0.0
C1038 C 0.03636 0.06099 0.9134 0.0
C1039 C 0.02069 0.03881 0.88476 0.0
C1040 C 0.02188 0.02102 0.86783 0.0
C1041 C 0.01669 0.07068 0.9177 0.0
C1042 C -0.00097 0.0652 0.90464 0.0
C1043 C 0.00104 0.04898 0.8887 0.0
C1044 C 0.97877 0.07709 0.90706 0.0
C1045 C 0.01502 0.08698 0.93604 0.0
C1046 C 0.96105 0.06681 0.91638 0.0
C1047 C 0.94373 0.07944 0.9232 0.0
C1048 C 0.9442 0.1024 0.92087 0.0
C1049 C 0.96111 0.1123 0.90982 0.0
C1050 C 0.97819 0.0997 0.90276 0.0
H1051 H 0.0282 0.08502 0.94783 0.0
H1052 H 0.01582 0.10391 0.92941 0.0
H1053 H -0.0003 0.08516 0.94474 0.0
H1054 H 0.9613 0.04935 0.9198 0.0
H1055 H 0.93094 0.07154 0.93197 0.0
H1056 H 0.55219 0.0655 0.56192 0.0
H1057 H 0.55838 0.03208 0.54125 0.0
H1058 H 0.52442 0.99436 0.58907 0.0
H1059 H 0.51849 0.02785 0.6103 0.0
H1060 H 0.56078 0.97362 0.57544 0.0
H1061 H 0.51394 0.00147 0.50481 0.0
H1062 H 0.5344 0.02067 0.51188 0.0
H1063 H 0.51308 0.0154 0.53055 0.0
C1064 C 0.54599 0.05014 0.56812 0.0
C1065 C 0.53463 0.04942 0.58769 0.0
C1066 C 0.54947 0.03104 0.55619 0.0
C1067 C 0.54141 0.01083 0.56333 0.0
C1068 C 0.5306 0.00985 0.58317 0.0
H1069 H 0.53502 0.90155 0.473 0.0
H1070 H 0.52632 0.92946 0.49991 0.0
C1071 C 0.52724 0.029 0.59527 0.0
C1072 C 0.5444 0.99083 0.54997 0.0
H1073 H 0.53693 0.97081 0.49901 0.0
C1074 C 0.55539 0.97287 0.55879 0.0
C1075 C 0.53701 0.98972 0.52838 0.0
C1076 C 0.52376 0.00775 0.51842 0.0
C1077 C 0.55985 0.95412 0.54633 0.0
C1078 C 0.55358 0.95359 0.52434 0.0
C1079 C 0.54198 0.97128 0.51579 0.0
C1080 C 0.55889 0.93504 0.50972 0.0
C1081 C 0.57103 0.93502 0.55694 0.0
C1082 C 0.5801 0.92868 0.50637 0.0
C1083 C 0.58508 0.9125 0.49113 0.0
C1084 C 0.56898 0.90275 0.47866 0.0
C1085 C 0.54777 0.90887 0.4823 0.0
C1086 C 0.54278 0.92481 0.49769 0.0
H1087 H 0.5685 0.93497 0.57472 0.0
H1088 H 0.56547 0.91908 0.55028 0.0
H1089 H 0.58835 0.93643 0.55402 0.0
H1090 H 0.59287 0.93675 0.51499 0.0
H1091 H 0.60158 0.90831 0.48845 0.0
H1092 H 0.60818 0.08637 0.99183 0.0
H1093 H 0.60982 0.05454 0.96754 0.0
H1094 H 0.54314 0.04257 0.97812 0.0
H1095 H 0.54121 0.07427 0.00181 0.0
H1096 H 0.60237 0.01191 0.97684 0.0
H1097 H 0.54641 0.03768 0.91345 0.0
H1098 H 0.55753 0.05691 0.9326 0.0
H1099 H 0.53417 0.04118 0.93935 0.0
C1100 C 0.59379 0.07717 0.98866 0.0
C1101 C 0.57452 0.083 0.9987 0.0
C1102 C 0.59478 0.05898 0.97481 0.0
C1103 C 0.57651 0.04644 0.97065 0.0
C1104 C 0.5573 0.05236 0.98053 0.0
H1105 H 0.54292 0.91756 0.9621 0.0
H1106 H 0.56314 0.95074 0.96898 0.0
C1107 C 0.55627 0.07048 0.99425 0.0
C1108 C 0.57741 0.0261 0.95747 0.0
H1109 H 0.5481 0.99808 0.92035 0.0
C1110 C 0.59091 0.009 0.96406 0.0
C1111 C 0.56305 0.02244 0.94027 0.0
C1112 C 0.54968 0.04066 0.93087 0.0
C1113 C 0.58881 0.98774 0.95545 0.0
C1114 C 0.57237 0.98341 0.9404 0.0
C1115 C 0.56046 0.00109 0.93221 0.0
C1116 C 0.56497 0.96075 0.93538 0.0
C1117 C 0.60385 0.97009 0.96309 0.0
C1118 C 0.55942 0.95487 0.91413 0.0
C1119 C 0.54724 0.93606 0.91021 0.0
C1120 C 0.54058 0.92266 0.92746 0.0
C1121 C 0.54788 0.92742 0.94842 0.0
C1122 C 0.55968 0.94642 0.95237 0.0
H1123 H 0.61995 0.97701 0.96581 0.0
H1124 H 0.59821 0.9635 0.97881 0.0
H1125 H 0.60504 0.95638 0.95132 0.0
H1126 H 0.56332 0.96559 0.90072 0.0
H1127 H 0.54197 0.93275 0.89385 0.0
H1128 H 0.45424 0.57657 0.92848 0.0
H1129 H 0.44167 0.54433 0.94796 0.0
H1130 H 0.44211 0.50682 0.88882 0.0
H1131 H 0.45523 0.53898 0.86912 0.0
H1132 H 0.40684 0.51707 0.9444 0.0
H1133 H 0.48187 0.47188 0.92776 0.0
H1134 H 0.4789 0.50079 0.92214 0.0
H1135 H 0.46736 0.48075 0.90432 0.0
C1136 C 0.4515 0.56157 0.91948 0.0
C1137 C 0.45604 0.56034 0.89723 0.0
C1138 C 0.44424 0.54314 0.93068 0.0
C1139 C 0.44131 0.52308 0.91993 0.0
C1140 C 0.44469 0.52204 0.89752 0.0
H1141 H 0.39281 0.40967 0.99479 0.0
H1142 H 0.39558 0.43804 0.96675 0.0
C1143 C 0.4521 0.54048 0.88627 0.0
C1144 C 0.43605 0.50315 0.93266 0.0
H1145 H 0.45672 0.45424 0.94965 0.0
C1146 C 0.41759 0.50318 0.94538 0.0
C1147 C 0.45025 0.48517 0.93404 0.0
C1148 C 0.4708 0.4846 0.9215 0.0
C1149 C 0.41327 0.48605 0.95997 0.0
C1150 C 0.42764 0.46826 0.96157 0.0
C1151 C 0.4457 0.46787 0.9483 0.0
C1152 C 0.4255 0.451 0.97836 0.0
C1153 C 0.39397 0.48766 0.97432 0.0
C1154 C 0.44154 0.44865 0.99392 0.0
C1155 C 0.44012 0.43241 0.00975 0.0
C1156 C 0.42259 0.4181 0.01042 0.0
C1157 C 0.40647 0.42048 0.99481 0.0
C1158 C 0.40797 0.43674 0.97884 0.0
H1159 H 0.38683 0.50435 0.97399 0.0
H1160 H 0.3818 0.47578 0.96868 0.0
H1161 H 0.39808 0.48348 0.99129 0.0
H1162 H 0.45519 0.45949 0.99386 0.0
H1163 H 0.45283 0.43116 0.0215 0.0
H1164 H 0.97575 0.07497 0.005 0.0
H1165 H 0.97707 0.03959 0.02329 0.0
H1166 H 0.9087 0.03645 0.02345 0.0
H1167 H 0.90711 0.07223 0.00507 0.0
H1168 H 0.93015 0.02227 0.06372 0.0
H1169 H 0.96151 0.9821 0.99005 0.0
H1170 H 0.97588 0.00651 0.99729 0.0
H1171 H 0.94843 0.00852 0.98946 0.0
C1172 C 0.96092 0.06694 0.00902 0.0
C1173 C 0.94131 0.07637 0.00332 0.0
C1174 C 0.96173 0.04667 0.01945 0.0
C1175 C 0.94301 0.03527 0.02433 0.0
C1176 C 0.92333 0.04498 0.01965 0.0
H1177 H 0.97137 0.89869 0.05535 0.0
H1178 H 0.95003 0.92949 0.04225 0.0
C1179 C 0.92247 0.06541 0.00918 0.0
C1180 C 0.94445 0.01286 0.0335 0.0
H1181 H 0.96738 0.96322 0.02353 0.0
C1182 C 0.93791 0.00915 0.05487 0.0
C1183 C 0.95408 0.99565 0.02174 0.0
C1184 C 0.96019 0.99827 0.99828 0.0
C1185 C 0.94222 0.98909 0.06529 0.0
C1186 C 0.95368 0.97261 0.05412 0.0
C1187 C 0.95877 0.97585 0.03225 0.0
C1188 C 0.96273 0.95301 0.06511 0.0
C1189 C 0.93478 0.98596 0.08825 0.0
C1190 C 0.97648 0.95575 0.0828 0.0
C1191 C 0.98855 0.93814 0.09045 0.0
C1192 C 0.98745 0.91747 0.08031 0.0
C1193 C 0.97273 0.91441 0.06346 0.0
C1194 C 0.96049 0.93201 0.05595 0.0
H1195 H 0.91991 0.99529 0.09128 0.0
H1196 H 0.93195 0.96836 0.09201 0.0
H1197 H 0.94704 0.99239 0.09949 0.0
H1198 H 0.97896 0.97184 0.08982 0.0
H1199 H -0.00027 0.94115 0.10343 0.0
H1200 H 0.98456 0.13129 0.32642 0.0
H1201 H 0.00339 0.16636 0.3229 0.0
H1202 H 0.96401 0.19421 0.37286 0.0
H1203 H 0.94486 0.15954 0.37619 0.0
H1204 H 0.96701 0.21949 0.33459 0.0
H1205 H 0.04637 0.19457 0.36599 0.0
H1206 H 0.03456 0.17832 0.34483 0.0
H1207 H 0.02275 0.17859 0.37119 0.0
C1208 C 0.97998 0.14484 0.33675 0.0
C1209 C 0.96337 0.14252 0.35184 0.0
C1210 C 0.99085 0.16481 0.33478 0.0
C1211 C 0.98525 0.18274 0.3478 0.0
C1212 C 0.96865 0.18049 0.36274 0.0
H1213 H 0.02325 0.29555 0.40461 0.0
H1214 H 0.02363 0.25886 0.38931 0.0
C1215 C 0.95778 0.16064 0.3647 0.0
C1216 C 0.99584 0.20432 0.3456 0.0
H1217 H 0.04091 0.23216 0.35937 0.0
C1218 C 0.98331 0.22231 0.33956 0.0
C1219 C 0.01711 0.20774 0.35206 0.0
C1220 C 0.03107 0.18887 0.35901 0.0
C1221 C 0.99086 0.24389 0.34142 0.0
C1222 C 0.01186 0.24751 0.34891 0.0
C1223 C 0.02493 0.22934 0.35344 0.0
C1224 C 0.01869 0.26961 0.35631 0.0
C1225 C 0.97555 0.26252 0.33717 0.0
C1226 C 0.01769 0.28803 0.34263 0.0
C1227 C 0.01701 0.30922 0.35146 0.0
C1228 C 0.01768 0.31215 0.37402 0.0
C1229 C 0.02211 0.29387 0.38721 0.0
C1230 C 0.02246 0.27278 0.37844 0.0
H1231 H 0.95901 0.25665 0.33477 0.0
H1232 H 0.9756 0.27435 0.35084 0.0
H1233 H 0.98041 0.27141 0.32231 0.0
H1234 H 0.01553 0.28596 0.32538 0.0
H1235 H 0.01402 0.32298 0.34077 0.0
H1236 H 0.01004 0.66805 0.12465 0.0
H1237 H 0.01933 0.70317 0.14077 0.0
H1238 H 0.98329 0.68668 0.19781 0.0
H1239 H 0.9739 0.65115 0.18158 0.0
H1240 H 0.96897 0.72368 0.1784 0.0
H1241 H 0.05541 0.73122 0.18704 0.0
H1242 H 0.04968 0.71881 0.16143 0.0
H1243 H 0.04229 0.7048 0.18602 0.0
C1244 C 0.00475 0.67153 0.14096 0.0
C1245 C 0.99113 0.657 0.1518 0.0
C1246 C 0.01024 0.69157 0.15029 0.0
C1247 C 0.00216 0.69753 0.17061 0.0
C1248 C 0.98986 0.68231 0.18221 0.0
H1249 H 0.0299 0.83742 0.16541 0.0
H1250 H 0.023 0.80423 0.18674 0.0
C1251 C 0.98456 0.66202 0.17295 0.0
C1252 C 0.0031 0.72095 0.17704 0.0
H1253 H 0.03692 0.76438 0.17277 0.0
C1254 C 0.98387 0.7326 0.17805 0.0
C1255 C 0.02246 0.73269 0.17718 0.0
C1256 C 0.0436 0.72113 0.17811 0.0
C1257 C 0.98349 0.75555 0.17605 0.0
C1258 C 0.00275 0.76694 0.17268 0.0
C1259 C 0.02206 0.75561 0.17484 0.0
C1260 C 0.00318 0.78894 0.16244 0.0
C1261 C 0.96236 0.76719 0.17592 0.0
C1262 C 0.99393 0.79155 0.14193 0.0
C1263 C 0.99796 0.81031 0.12968 0.0
C1264 C 0.01137 0.82687 0.13766 0.0
C1265 C 0.01945 0.82497 0.15882 0.0
C1266 C 0.01555 0.80602 0.17104 0.0
H1267 H 0.95096 0.75886 0.18691 0.0
H1268 H 0.96398 0.78464 0.1809 0.0
H1269 H 0.95558 0.76663 0.15936 0.0
H1270 H 0.98474 0.7784 0.13473 0.0
H1271 H 0.99145 0.8113 0.11349 0.0
H1272 H 0.31112 0.0192 0.17389 0.0
H1273 H 0.2958 0.01549 0.21037 0.0
H1274 H 0.34075 0.0631 0.23442 0.0
H1275 H 0.35601 0.06674 0.19864 0.0
H1276 H 0.3198 0.00157 0.2463 0.0
H1277 H 0.2855 0.08282 0.26319 0.0
H1278 H 0.28936 0.07269 0.23597 0.0
H1279 H 0.31079 0.08592 0.25029 0.0
C1280 C 0.31746 0.02907 0.18697 0.0
C1281 C 0.33489 0.0431 0.18347 0.0
C1282 C 0.30864 0.02702 0.2077 0.0
C1283 C 0.31682 0.03942 0.22496 0.0
C1284 C 0.33378 0.05384 0.22124 0.0
H1285 H 0.37205 0.05273 0.33406 0.0
H1286 H 0.34938 0.05583 0.30233 0.0
C1287 C 0.34272 0.05564 0.20079 0.0
C1288 C 0.31027 0.03548 0.24758 0.0
H1289 H 0.30453 0.06524 0.29385 0.0
C1290 C 0.31548 0.01513 0.25679 0.0
C1291 C 0.30431 0.0531 0.26115 0.0
C1292 C 0.29694 0.07478 0.25206 0.0
C1293 C 0.3181 0.01297 0.27922 0.0
C1294 C 0.31518 0.03163 0.29256 0.0
C1295 C 0.30703 0.05104 0.28356 0.0
C1296 C 0.32566 0.03294 0.31392 0.0
C1297 C 0.32647 0.99157 0.28817 0.0
C1298 C 0.31932 0.01978 0.33138 0.0
C1299 C 0.33234 0.01797 0.34967 0.0
C1300 C 0.35189 0.02918 0.35056 0.0
C1301 C 0.35724 0.04366 0.33375 0.0
C1302 C 0.34422 0.04556 0.31565 0.0
H1303 H 0.32843 0.97886 0.27544 0.0
H1304 H 0.34207 0.9943 0.2961 0.0
H1305 H 0.31535 0.98515 0.30056 0.0
H1306 H 0.30493 0.01008 0.33039 0.0
H1307 H 0.32774 0.00673 0.36242 0.0
H1308 H 0.68126 0.54355 0.13668 0.0
H1309 H 0.70623 0.53859 0.16666 0.0
H1310 H 0.65687 0.55634 0.21177 0.0
H1311 H 0.63256 0.56268 0.18217 0.0
H1312 H 0.69362 0.56703 0.22791 0.0
H1313 H 0.70095 0.48145 0.19632 0.0
H1314 H 0.71175 0.50355 0.18059 0.0
H1315 H 0.68343 0.50083 0.18352 0.0
C1316 C 0.67598 0.54712 0.15297 0.0
C1317 C 0.65469 0.55287 0.15708 0.0
C1318 C 0.69023 0.54402 0.17013 0.0
C1319 C 0.68321 0.54605 0.19158 0.0
C1320 C 0.66272 0.55433 0.19541 0.0
H1321 H 0.64831 0.47573 0.28425 0.0
H1322 H 0.66787 0.48733 0.2527 0.0
C1323 C 0.6487 0.55791 0.17836 0.0
C1324 C 0.69517 0.53672 0.21021 0.0
H1325 H 0.7044 0.48658 0.23312 0.0
C1326 C 0.69658 0.5495 0.22905 0.0
C1327 C 0.69972 0.51392 0.21152 0.0
C1328 C 0.69888 0.49904 0.19199 0.0
C1329 C 0.69838 0.5397 0.24952 0.0
C1330 C 0.69996 0.51649 0.25099 0.0
C1331 C 0.70267 0.50428 0.23193 0.0
C1332 C 0.69247 0.50451 0.27054 0.0
C1333 C 0.69584 0.55411 0.26923 0.0
C1334 C 0.70058 0.50867 0.29132 0.0
C1335 C 0.68894 0.50243 0.30965 0.0
C1336 C 0.66931 0.49156 0.30734 0.0
C1337 C 0.66306 0.48456 0.28666 0.0
C1338 C 0.6744 0.49113 0.26848 0.0
H1339 H 0.69317 0.57163 0.26495 0.0
H1340 H 0.68218 0.54845 0.2791 0.0
H1341 H 0.71039 0.55321 0.27929 0.0
H1342 H 0.715 0.5181 0.29339 0.0
H1343 H 0.69447 0.50768 0.32541 0.0
H1344 H 0.3336 0.36604 0.00423 0.0
H1345 H 0.29683 0.37068 0.99204 0.0
H1346 H 0.27436 0.34074 0.05092 0.0
H1347 H 0.31091 0.33611 0.0633 0.0
H1348 H 0.26262 0.33913 0.98692 0.0
H1349 H 0.24598 0.40251 0.04935 0.0
H1350 H 0.2726 0.39427 0.0422 0.0
H1351 H 0.25671 0.37713 0.05944 0.0
C1352 C 0.32084 0.36022 0.01448 0.0
C1353 C 0.32517 0.35091 0.03483 0.0
C1354 C 0.29987 0.3629 0.0075 0.0
C1355 C 0.28295 0.35641 0.02078 0.0
C1356 C 0.28723 0.34621 0.04063 0.0
H1357 H 0.14911 0.34705 0.98745 0.0
H1358 H 0.18516 0.33997 0.00043 0.0
C1359 C 0.30815 0.3435 0.04761 0.0
C1360 C 0.26078 0.36092 0.01424 0.0
H1361 H 0.21683 0.39052 0.02822 0.0
C1362 C 0.25257 0.35035 0.99591 0.0
C1363 C 0.24787 0.37578 0.02592 0.0
C1364 C 0.25622 0.38826 0.04522 0.0
C1365 C 0.23161 0.35401 0.9891 0.0
C1366 C 0.21854 0.36847 0.00108 0.0
C1367 C 0.22685 0.37928 0.01923 0.0
C1368 C 0.19636 0.37306 0.99463 0.0
C1369 C 0.2237 0.34271 0.96893 0.0
C1370 C 0.19054 0.39423 0.98789 0.0
C1371 C 0.16994 0.39837 0.98055 0.0
C1372 C 0.15477 0.38143 0.97994 0.0
C1373 C 0.16043 0.36045 0.98761 0.0
C1374 C 0.18106 0.35632 0.99489 0.0
H1375 H 0.23695 0.33605 0.95906 0.0
H1376 H 0.21324 0.32881 0.97357 0.0
H1377 H 0.21427 0.3542 0.9588 0.0
H1378 H 0.20212 0.4074 0.98775 0.0
H1379 H 0.16609 0.41472 0.97484 0.0
H1380 H 0.1603 0.63901 0.5322 0.0
H1381 H 0.19623 0.64185 0.51726 0.0
H1382 H 0.20115 0.57119 0.51639 0.0
H1383 H 0.16535 0.56815 0.53116 0.0
H1384 H 0.23381 0.6244 0.53696 0.0
H1385 H 0.22004 0.58976 0.45517 0.0
H1386 H 0.19874 0.59981 0.47202 0.0
H1387 H 0.20992 0.57306 0.47679 0.0
C1388 C 0.16892 0.62407 0.52854 0.0
C1389 C 0.15996 0.60335 0.53286 0.0
C1390 C 0.18945 0.62574 0.52009 0.0
C1391 C 0.20123 0.60673 0.51556 0.0
C1392 C 0.19218 0.58605 0.51946 0.0
H1393 H 0.32579 0.57048 0.47267 0.0
H1394 H 0.28974 0.57243 0.487 0.0
C1395 C 0.17174 0.58436 0.52799 0.0
C1396 C 0.22339 0.60836 0.5078 0.0
H1397 H 0.25604 0.59304 0.46651 0.0
C1398 C 0.23869 0.61778 0.52147 0.0
C1399 C 0.22963 0.59966 0.48761 0.0
C1400 C 0.21371 0.59017 0.47193 0.0
C1401 C 0.26028 0.61798 0.5158 0.0
C1402 C 0.26659 0.60885 0.49578 0.0
C1403 C 0.25118 0.5999 0.48192 0.0
C1404 C 0.28911 0.60792 0.48896 0.0
C1405 C 0.27623 0.62723 0.53158 0.0
C1406 C 0.30083 0.62724 0.48559 0.0
C1407 C 0.32154 0.62618 0.4775 0.0
C1408 C 0.33077 0.60578 0.47242 0.0
C1409 C 0.31915 0.58646 0.47636 0.0
C1410 C 0.29853 0.58753 0.48451 0.0
H1411 H 0.26953 0.62863 0.54814 0.0
H1412 H 0.29069 0.61683 0.53226 0.0
H1413 H 0.28101 0.64391 0.52622 0.0
H1414 H 0.29373 0.64316 0.48856 0.0
H1415 H 0.33001 0.64138 0.47453 0.0
H1416 H 0.66483 0.82121 0.4797 0.0
H1417 H 0.70059 0.81704 0.49484 0.0
H1418 H 0.70209 0.88627 0.50971 0.0
H1419 H 0.66644 0.89051 0.49503 0.0
H1420 H 0.73614 0.83766 0.479 0.0
H1421 H 0.72506 0.85971 0.56497 0.0
H1422 H 0.7031 0.85269 0.54749 0.0
H1423 H 0.71402 0.88004 0.54723 0.0
C1424 C 0.67259 0.83544 0.48667 0.0
C1425 C 0.66279 0.85622 0.48612 0.0
C1426 C 0.69304 0.83304 0.49523 0.0
C1427 C 0.70393 0.8513 0.50359 0.0
C1428 C 0.69385 0.87185 0.50377 0.0
H1429 H 0.82725 0.89611 0.53656 0.0
H1430 H 0.79045 0.89007 0.52569 0.0
C1431 C 0.67347 0.87427 0.49523 0.0
C1432 C 0.72647 0.84952 0.5103 0.0
H1433 H 0.76067 0.86296 0.55105 0.0
C1434 C 0.7415 0.84278 0.49489 0.0
C1435 C 0.73342 0.85619 0.53104 0.0
C1436 C 0.71802 0.86234 0.54869 0.0
C1437 C 0.76337 0.84369 0.4993 0.0
C1438 C 0.77029 0.85137 0.51967 0.0
C1439 C 0.75527 0.85726 0.53537 0.0
C1440 C 0.79305 0.85465 0.52468 0.0
C1441 C 0.77897 0.8374 0.48188 0.0
C1442 C 0.80676 0.8367 0.5274 0.0
C1443 C 0.82789 0.84007 0.53364 0.0
C1444 C 0.83557 0.86148 0.53731 0.0
C1445 C 0.82189 0.87941 0.5339 0.0
C1446 C 0.80082 0.87601 0.52775 0.0
H1447 H 0.77109 0.83469 0.46602 0.0
H1448 H 0.79121 0.8504 0.47999 0.0
H1449 H 0.78721 0.82202 0.48661 0.0
H1450 H 0.80097 0.82007 0.52527 0.0
H1451 H 0.83799 0.82591 0.53619 0.0
H1452 H 0.49753 0.84062 0.85238 0.0
H1453 H 0.49663 0.80516 0.83377 0.0
H1454 H 0.50827 0.77195 0.89422 0.0
H1455 H 0.50963 0.80717 0.9129 0.0
H1456 H 0.52841 0.75197 0.85892 0.0
H1457 H 0.44281 0.76841 0.84284 0.0
H1458 H 0.46139 0.78796 0.83208 0.0
H1459 H 0.45837 0.78528 0.86084 0.0
C1460 C 0.50038 0.82581 0.86166 0.0
C1461 C 0.50323 0.82674 0.88424 0.0
C1462 C 0.49976 0.80556 0.85099 0.0
C1463 C 0.50184 0.78595 0.86272 0.0
C1464 C 0.50647 0.78692 0.88489 0.0
H1465 H 0.44932 0.66049 0.8648 0.0
H1466 H 0.45884 0.69933 0.86595 0.0
C1467 C 0.5072 0.80711 0.89556 0.0
C1468 C 0.49702 0.7644 0.85274 0.0
H1469 H 0.45554 0.73332 0.83452 0.0
C1470 C 0.51261 0.74794 0.85317 0.0
C1471 C 0.47628 0.75922 0.84547 0.0
C1472 C 0.45865 0.77603 0.84536 0.0
C1473 C 0.50778 0.72617 0.84743 0.0
C1474 C 0.48688 0.72089 0.84084 0.0
C1475 C 0.47157 0.73754 0.83943 0.0
C1476 C 0.47985 0.69783 0.83834 0.0
C1477 C 0.52467 0.70875 0.84974 0.0
C1478 C 0.48802 0.68429 0.82198 0.0
C1479 C 0.48259 0.66198 0.82127 0.0
C1480 C 0.46897 0.65294 0.83699 0.0
C1481 C 0.46002 0.66689 0.85262 0.0
C1482 C 0.4654 0.6891 0.85327 0.0
H1483 H 0.53918 0.71509 0.85784 0.0
H1484 H 0.51852 0.69458 0.85917 0.0
H1485 H 0.5292 0.70264 0.83348 0.0
H1486 H 0.49894 0.69085 0.8101 0.0
H1487 H 0.48965 0.65172 0.80891 0.0
H1488 H 0.48382 0.31965 0.64388 0.0
H1489 H 0.48278 0.28397 0.66212 0.0
H1490 H 0.47842 0.25148 0.60031 0.0
H1491 H 0.4784 0.28679 0.58211 0.0
H1492 H 0.45968 0.22721 0.63143 0.0
H1493 H 0.53991 0.2547 0.65852 0.0
H1494 H 0.51775 0.27018 0.66847 0.0
H1495 H 0.52412 0.27077 0.64012 0.0
C1496 C 0.48185 0.30495 0.63421 0.0
C1497 C 0.48196 0.30607 0.61146 0.0
C1498 C 0.48142 0.28454 0.64468 0.0
C1499 C 0.48147 0.26504 0.63253 0.0
C1500 C 0.47873 0.26628 0.61005 0.0
H1501 H 0.55533 0.15494 0.62235 0.0
H1502 H 0.53643 0.18983 0.62403 0.0
C1503 C 0.47883 0.28659 0.59962 0.0
C1504 C 0.48803 0.24374 0.64214 0.0
H1505 H 0.53219 0.21755 0.66124 0.0
C1506 C 0.47532 0.2251 0.63847 0.0
C1507 C 0.50858 0.24101 0.65115 0.0
C1508 C 0.52349 0.26014 0.6547 0.0
C1509 C 0.48316 0.20379 0.64212 0.0
C1510 C 0.50407 0.20117 0.64999 0.0
C1511 C 0.51614 0.21976 0.65523 0.0
C1512 C 0.51504 0.17969 0.64951 0.0
C1513 C 0.46973 0.18422 0.636 0.0
C1514 C 0.50938 0.16249 0.66346 0.0
C1515 C 0.52018 0.14238 0.6625 0.0
C1516 C 0.53667 0.1392 0.64742 0.0
C1517 C 0.54248 0.15671 0.63386 0.0
C1518 C 0.53175 0.17668 0.63485 0.0
H1519 H 0.45448 0.18913 0.62837 0.0
H1520 H 0.47854 0.17347 0.6246 0.0
H1521 H 0.46617 0.1744 0.65067 0.0
H1522 H 0.49673 0.16464 0.67511 0.0
H1523 H 0.51545 0.12931 0.67337 0.0
H1524 H 0.83748 0.53994 0.79815 0.0
H1525 H 0.8133 0.5381 0.76793 0.0
H1526 H 0.76527 0.50925 0.80884 0.0
H1527 H 0.79001 0.51018 0.83927 0.0
H1528 H 0.77064 0.48355 0.77783 0.0
H1529 H 0.764 0.56296 0.73848 0.0
H1530 H 0.79167 0.56063 0.74442 0.0
H1531 H 0.77259 0.561 0.7663 0.0
C1532 C 0.82156 0.53388 0.80102 0.0
C1533 C 0.81594 0.5247 0.82104 0.0
C1534 C 0.80749 0.53311 0.78365 0.0
C1535 C 0.78726 0.5236 0.78596 0.0
C1536 C 0.78077 0.51662 0.80657 0.0
H1537 H 0.78789 0.50289 0.65196 0.0
H1538 H 0.76359 0.50818 0.68229 0.0
C1539 C 0.79498 0.51717 0.82398 0.0
C1540 C 0.77557 0.51668 0.76618 0.0
H1541 H 0.77497 0.53142 0.71322 0.0
C1542 C 0.7707 0.49425 0.76381 0.0
C1543 C 0.77418 0.53049 0.74785 0.0
C1544 C 0.77564 0.55515 0.74958 0.0
C1545 C 0.76867 0.4848 0.74323 0.0
C1546 C 0.77252 0.49795 0.72479 0.0
C1547 C 0.77307 0.52093 0.72726 0.0
C1548 C 0.78188 0.4885 0.70475 0.0
C1549 C 0.76426 0.46052 0.74155 0.0
C1550 C 0.79947 0.4744 0.70673 0.0
C1551 C 0.8132 0.47116 0.6894 0.0
C1552 C 0.80995 0.48231 0.66981 0.0
C1553 C 0.79101 0.49425 0.66694 0.0
C1554 C 0.77708 0.49734 0.68432 0.0
H1555 H 0.75133 0.45589 0.75288 0.0
H1556 H 0.75961 0.45562 0.72491 0.0
H1557 H 0.77859 0.45115 0.74649 0.0
H1558 H 0.80401 0.46769 0.72226 0.0
H1559 H 0.82748 0.4616 0.69211 0.0
H1560 H 0.18254 0.03552 0.63077 0.0
H1561 H 0.20902 0.02736 0.65864 0.0
H1562 H 0.16468 0.0478 0.70783 0.0
H1563 H 0.13877 0.0569 0.68033 0.0
H1564 H 0.20467 0.05555 0.72036 0.0
H1565 H 0.1994 0.96993 0.68839 0.0
H1566 H 0.21062 0.99101 0.67159 0.0
H1567 H 0.18269 0.9913 0.67763 0.0
C1568 C 0.1787 0.03894 0.6475 0.0
C1569 C 0.15825 0.04622 0.65336 0.0
C1570 C 0.19382 0.03408 0.66342 0.0
C1571 C 0.18856 0.03611 0.68538 0.0
C1572 C 0.1691 0.04582 0.69101 0.0
H1573 H 0.15386 0.97334 0.78238 0.0
H1574 H 0.17133 0.98166 0.74851 0.0
C1575 C 0.15417 0.05096 0.67519 0.0
C1576 C 0.2011 0.02535 0.70276 0.0
H1577 H 0.20621 0.97427 0.72493 0.0
C1578 C 0.20576 0.03778 0.72127 0.0
C1579 C 0.20305 0.00215 0.7037 0.0
C1580 C 0.19868 0.98771 0.68435 0.0
C1581 C 0.20855 0.02767 0.74147 0.0
C1582 C 0.20743 0.00443 0.7429 0.0
C1583 C 0.20665 0.99206 0.72378 0.0
C1584 C 0.20042 0.99357 0.76319 0.0
C1585 C 0.20988 0.04208 0.7613 0.0
C1586 C 0.21152 0.9958 0.78277 0.0
C1587 C 0.20129 0.99132 0.80241 0.0
C1588 C 0.17996 0.98434 0.80257 0.0
C1589 C 0.17011 0.97916 0.78285 0.0
C1590 C 0.18019 0.98384 0.76338 0.0
H1591 H 0.20936 0.05986 0.75725 0.0
H1592 H 0.19651 0.03842 0.77243 0.0
H1593 H 0.22496 0.03882 0.76999 0.0
H1594 H 0.22742 0.00254 0.78298 0.0
H1595 H 0.20947 0.99516 0.81735 0.0
H1596 H 0.82947 0.11944 0.94278 0.0
H1597 H 0.79236 0.11945 0.9539 0.0
H1598 H 0.81056 0.14156 0.01753 0.0
H1599 H 0.84799 0.1411 0.00665 0.0
H1600 H 0.7813 0.10869 0.01905 0.0
H1601 H 0.75489 0.17284 0.96152 0.0
H1602 H 0.76793 0.1504 0.94824 0.0
H1603 H 0.78256 0.16738 0.96685 0.0
C1604 C 0.82563 0.12435 0.95915 0.0
C1605 C 0.84167 0.13042 0.9738 0.0
C1606 C 0.80437 0.12449 0.96542 0.0
C1607 C 0.79866 0.131 0.98637 0.0
C1608 C 0.81464 0.13667 0.00121 0.0
H1609 H 0.66812 0.15977 0.02341 0.0
H1610 H 0.70586 0.16218 0.01451 0.0
C1611 C 0.83599 0.13639 0.99498 0.0
C1612 C 0.77602 0.13134 0.99283 0.0
H1613 H 0.72752 0.15169 0.97841 0.0
C1614 C 0.76956 0.11823 0.01029 0.0
C1615 C 0.76077 0.14408 0.98161 0.0
C1616 C 0.76691 0.15964 0.96366 0.0
C1617 C 0.74814 0.11699 0.01643 0.0
C1618 C 0.73275 0.12877 0.00442 0.0
C1619 C 0.7393 0.1424 0.98739 0.0
C1620 C 0.70977 0.12725 0.00932 0.0
C1621 C 0.74229 0.10327 0.03586 0.0
C1622 C 0.69932 0.10688 0.00881 0.0
C1623 C 0.67779 0.10542 0.01401 0.0
C1624 C 0.66624 0.12437 0.01952 0.0
C1625 C 0.67657 0.14486 0.01926 0.0
C1626 C 0.69814 0.14627 0.01422 0.0
H1627 H 0.75609 0.10083 0.04681 0.0
H1628 H 0.72922 0.11098 0.0452 0.0
H1629 H 0.73691 0.08683 0.03036 0.0
H1630 H 0.70784 0.09207 0.00446 0.0
H1631 H 0.67025 0.08942 0.01386 0.0
H1632 H 0.02979 0.9448 0.16258 0.0
H1633 H 0.02419 0.96947 0.19314 0.0
H1634 H 0.05246 0.92187 0.23608 0.0
H1635 H 0.05788 0.89682 0.20557 0.0
H1636 H 0.01483 0.94022 0.25201 0.0
H1637 H 0.0705 0.00477 0.22385 0.0
H1638 H 0.05086 0.99741 0.20409 0.0
H1639 H 0.07019 0.97742 0.21256 0.0
C1640 C 0.03489 0.93956 0.1785 0.0
C1641 C 0.04443 0.9189 0.18162 0.0
C1642 C 0.03175 0.95373 0.19593 0.0
C1643 C 0.03825 0.94763 0.21677 0.0
C1644 C 0.04746 0.92691 0.22006 0.0
H1645 H 0.04856 0.04028 0.32303 0.0
H1646 H 0.05531 0.01171 0.29618 0.0
C1647 C 0.05057 0.91265 0.20261 0.0
C1648 C 0.03519 0.96288 0.23512 0.0
H1649 H 0.04743 0.01444 0.2528 0.0
C1650 C 0.02206 0.9564 0.2523 0.0
C1651 C 0.04488 0.98384 0.23555 0.0
C1652 C 0.06006 0.99124 0.21814 0.0
C1653 C 0.01789 0.9706 0.26966 0.0
C1654 C 0.02685 0.99191 0.2696 0.0
C1655 C 0.04042 0.99816 0.2527 0.0
C1656 C 0.02238 0.00813 0.28683 0.0
C1657 C 0.0041 0.96261 0.28799 0.0
C1658 C 0.0016 0.01558 0.29047 0.0
C1659 C 0.99766 0.03188 0.30586 0.0
C1660 C 0.01448 0.04116 0.31772 0.0
C1661 C 0.03525 0.0335 0.31415 0.0
C1662 C 0.03915 0.01717 0.29882 0.0
H1663 H 0.00344 0.94437 0.28859 0.0
H1664 H 0.00999 0.96878 0.30379 0.0
H1665 H 0.98769 0.96878 0.28561 0.0
H1666 H 0.98849 0.00915 0.28105 0.0
H1667 H 0.9815 0.03749 0.30816 0.0
H1668 H 0.96802 0.39219 0.29236 0.0
H1669 H 0.96842 0.42071 0.2646 0.0
H1670 H 0.00984 0.46026 0.30424 0.0
H1671 H 0.00938 0.43189 0.33227 0.0
H1672 H 0.97381 0.48221 0.29103 0.0
H1673 H 0.01257 0.44212 0.22104 0.0
H1674 H 0.99149 0.42596 0.23238 0.0
H1675 H 0.0148 0.43161 0.24827 0.0
C1676 C 0.97757 0.40675 0.29503 0.0
C1677 C 0.98856 0.40981 0.3146 0.0
C1678 C 0.97788 0.42299 0.27906 0.0
C1679 C 0.98931 0.44252 0.28227 0.0
C1680 C 0.00099 0.44526 0.30141 0.0
H1681 H 0.99317 0.54717 0.18457 0.0
H1682 H 0.00387 0.5198 0.21155 0.0
C1683 C 0.00072 0.429 0.3174 0.0
C1684 C 0.98715 0.46093 0.26674 0.0
H1685 H 0.99185 0.47436 0.21334 0.0
C1686 C 0.97803 0.4806 0.2741 0.0
C1687 C 0.99283 0.45888 0.24471 0.0
C1688 C 0.00366 0.43858 0.23614 0.0
C1689 C 0.9736 0.49793 0.25984 0.0
C1690 C 0.97817 0.49539 0.23761 0.0
C1691 C 0.98816 0.47614 0.23038 0.0
C1692 C 0.97181 0.51216 0.22152 0.0
C1693 C 0.96387 0.51874 0.26864 0.0
C1694 C 0.95024 0.51674 0.21811 0.0
C1695 C 0.94407 0.5323 0.20273 0.0
C1696 C 0.95936 0.54354 0.19043 0.0
C1697 C 0.98099 0.53888 0.19386 0.0
C1698 C 0.98715 0.52322 0.20921 0.0
H1699 H 0.96665 0.52042 0.28631 0.0
H1700 H 0.97039 0.53344 0.26033 0.0
H1701 H 0.94646 0.51835 0.26588 0.0
H1702 H 0.93815 0.50811 0.22721 0.0
H1703 H 0.92729 0.53541 0.20044 0.0
H1704 H 0.23046 0.03051 0.92003 0.0
H1705 H 0.24902 0.02227 0.95369 0.0
H1706 H 0.2207 0.95775 0.95499 0.0
H1707 H 0.2019 0.96588 0.92127 0.0
H1708 H 0.21439 0.98128 0.99276 0.0
H1709 H 0.29911 0.983 0.96989 0.0
H1710 H 0.28525 0.00658 0.95969 0.0
H1711 H 0.2781 0.97958 0.95025 0.0
C1712 C 0.22852 0.01438 0.92719 0.0
C1713 C 0.21463 0.9989 0.91803 0.0
C1714 C 0.23925 0.00964 0.94638 0.0
C1715 C 0.23638 0.98932 0.95671 0.0
C1716 C 0.2232 0.97347 0.94717 0.0
H1717 H 0.31052 0.9866 0.07581 0.0
H1718 H 0.29245 0.97023 0.04476 0.0
C1719 C 0.21253 0.97816 0.92789 0.0
C1720 C 0.24533 0.98585 0.97856 0.0
H1721 H 0.29113 0.99218 0.00719 0.0
C1722 C 0.23124 0.98312 0.99593 0.0
C1723 C 0.26732 0.98776 0.98266 0.0
C1724 C 0.28333 0.98915 0.96459 0.0
C1725 C 0.2384 0.98419 0.0174 0.0
C1726 C 0.2601 0.98843 0.02147 0.0
C1727 C 0.27442 0.98921 0.00409 0.0
C1728 C 0.26794 0.99507 0.04308 0.0
C1729 C 0.22254 0.98154 0.03547 0.0
C1730 C 0.2597 0.01402 0.05292 0.0
C1731 C 0.26996 0.02343 0.07066 0.0
C1732 C 0.28881 0.01417 0.07872 0.0
C1733 C 0.2961 0.99424 0.0699 0.0
C1734 C 0.28581 0.98483 0.05215 0.0
H1735 H 0.20929 0.97058 0.03052 0.0
H1736 H 0.23009 0.97473 0.05025 0.0
H1737 H 0.21564 0.99782 0.03943 0.0
H1738 H 0.24619 0.02247 0.04596 0.0
H1739 H 0.26389 0.03874 0.0771 0.0
H1740 H 0.6652 0.51889 0.03797 0.0
H1741 H 0.69212 0.51023 0.01087 0.0
H1742 H 0.72976 0.47748 0.05941 0.0
H1743 H 0.7029 0.48607 0.08675 0.0
H1744 H 0.75233 0.50816 0.03149 0.0
H1745 H 0.70372 0.44746 0.9861 0.0
H1746 H 0.69089 0.47332 0.99122 0.0
H1747 H 0.69763 0.45567 0.01347 0.0
C1748 C 0.67921 0.50988 0.04294 0.0
C1749 C 0.68187 0.50306 0.0645 0.0
C1750 C 0.69449 0.50485 0.0274 0.0
C1751 C 0.71269 0.49294 0.03313 0.0
C1752 C 0.71569 0.48655 0.0547 0.0
H1753 H 0.80695 0.43996 0.94315 0.0
H1754 H 0.78154 0.4438 0.97297 0.0
C1755 C 0.70035 0.49148 0.07027 0.0
C1756 C 0.72873 0.48751 0.01658 0.0
H1757 H 0.73576 0.4594 0.96937 0.0
C1758 C 0.74881 0.49735 0.018 0.0
C1759 C 0.72407 0.47324 -0.00083 0.0
C1760 C 0.70298 0.46163 0.9974 0.0
C1761 C 0.76416 0.49391 0.00195 0.0
C1762 C 0.75918 0.48035 0.98411 0.0
C1763 C 0.73939 0.46988 0.98306 0.0
C1764 C 0.77403 0.47772 0.96587 0.0
C1765 C 0.78551 0.50495 0.004 0.0
C1766 C 0.77777 0.49541 0.9519 0.0
C1767 C 0.79205 0.49325 0.93482 0.0
C1768 C 0.80293 0.47335 0.93148 0.0
C1769 C 0.79886 0.45551 0.94534 0.0
C1770 C 0.7844 0.45765 0.96235 0.0
H1771 H 0.78837 0.51118 0.02064 0.0
H1772 H 0.79845 0.49339 -0.00038 0.0
H1773 H 0.78624 0.51909 0.99268 0.0
H1774 H 0.7697 0.51094 0.95429 0.0
H1775 H 0.79481 0.50732 0.92447 0.0
H1776 H 0.29954 0.96541 0.42106 0.0
H1777 H 0.2662 0.96897 0.44107 0.0
H1778 H 0.29502 0.01731 0.48277 0.0
H1779 H 0.32839 0.01395 0.46288 0.0
H1780 H 0.2594 0.96291 0.48716 0.0
H1781 H 0.24028 0.04734 0.45897 0.0
H1782 H 0.25921 0.02991 0.44531 0.0
H1783 H 0.26656 0.04383 0.46981 0.0
C1784 C 0.29881 0.97678 0.4345 0.0
C1785 C 0.31658 0.98948 0.44033 0.0
C1786 C 0.27976 0.97878 0.44589 0.0
C1787 C 0.27813 0.99363 0.46314 0.0
C1788 C 0.29591 0.00603 0.46925 0.0
H1789 H 0.18317 0.03398 0.5545 0.0
H1790 H 0.21435 0.02952 0.53147 0.0
C1791 C 0.31498 0.00399 0.45794 0.0
C1792 C 0.2579 0.99599 0.47497 0.0
H1793 H 0.21887 0.03283 0.4871 0.0
C1794 C 0.25041 0.97811 0.48706 0.0
C1795 C 0.24632 0.01588 0.47473 0.0
C1796 C 0.25335 0.03532 0.46138 0.0
C1797 C 0.23189 0.97981 0.49953 0.0
C1798 C 0.22038 -0.00022 0.49946 0.0
C1799 C 0.22774 0.01755 0.4871 0.0
C1800 C 0.20106 0.00283 0.51271 0.0
C1801 C 0.22523 0.96047 0.51323 0.0
C1802 C 0.18308 0.98962 0.50946 0.0
C1803 C 0.16525 0.99204 0.52267 0.0
C1804 C 0.16504 0.00789 0.53922 0.0
C1805 C 0.18283 0.02158 0.54194 0.0
C1806 C 0.20066 0.01907 0.5288 0.0
H1807 H 0.23843 0.9486 0.51559 0.0
H1808 H 0.21957 0.96597 0.52934 0.0
H1809 H 0.21201 0.95169 0.50509 0.0
H1810 H 0.18289 0.97733 0.49679 0.0
H1811 H 0.15173 0.98136 0.52004 0.0
H1812 H 0.78062 0.55728 0.57524 0.0
H1813 H 0.75755 0.55785 0.54333 0.0
H1814 H 0.78735 0.49877 0.51974 0.0
H1815 H 0.81052 0.49807 0.55141 0.0
H1816 H 0.7834 0.53338 0.48856 0.0
H1817 H 0.70754 0.51507 0.53085 0.0
H1818 H 0.72277 0.53748 0.54175 0.0
H1819 H 0.73316 0.51004 0.54301 0.0
C1820 C 0.78221 0.54436 0.56331 0.0
C1821 C 0.79737 0.5276 0.5659 0.0
C1822 C 0.76897 0.54468 0.54514 0.0
C1823 C 0.77066 0.52825 0.52933 0.0
C1824 C 0.7858 0.51157 0.53182 0.0
H1825 H 0.68456 0.49368 0.4262 0.0
H1826 H 0.70879 0.49414 0.45707 0.0
C1827 C 0.79898 0.51119 0.54997 0.0
C1828 C 0.75688 0.52852 0.50997 0.0
H1829 H 0.70538 0.52336 0.49354 0.0
C1830 C 0.76634 0.53123 0.4896 0.0
C1831 C 0.73468 0.52547 0.51146 0.0
C1832 C 0.72387 0.52167 0.5329 0.0
C1833 C 0.75411 0.53113 0.47062 0.0
C1834 C 0.73188 0.52843 0.47215 0.0
C1835 C 0.72244 0.52557 0.4925 0.0
C1836 C 0.71811 0.52807 0.45279 0.0
C1837 C 0.76505 0.53349 0.44906 0.0
C1838 C 0.71543 0.54701 0.44015 0.0
C1839 C 0.70155 0.54685 0.42249 0.0
C1840 C 0.69012 0.52772 0.41723 0.0
C1841 C 0.69314 0.50868 0.42977 0.0
C1842 C 0.70694 0.5089 0.44745 0.0
H1843 H 0.78247 0.53091 0.45037 0.0
H1844 H 0.7585 0.52159 0.43719 0.0
H1845 H 0.76226 0.55029 0.44268 0.0
H1846 H 0.72374 0.56204 0.44421 0.0
H1847 H 0.69954 0.56179 0.4132 0.0
H1848 H 0.00939 0.34128 0.9744 0.0
H1849 H 0.99242 0.31202 0.99455 0.0
H1850 H 0.0537 0.28697 0.01361 0.0
H1851 H 0.07107 0.31622 0.99282 0.0
H1852 H 0.03045 0.25654 0.99459 0.0
H1853 H 0.97976 0.2958 0.05582 0.0
H1854 H 0.97526 0.30831 0.03 0.0
H1855 H 0.00107 0.31037 0.04251 0.0
C1856 C 0.01938 0.32982 0.98314 0.0
C1857 C 0.04166 0.33095 0.98171 0.0
C1858 C 0.00956 0.31324 0.995 0.0
C1859 C 0.02172 0.29749 0.00597 0.0
C1860 C 0.04399 0.29912 0.00547 0.0
H1861 H 0.97266 0.16586 0.02675 0.0
H1862 H 0.99143 0.19889 0.03873 0.0
C1863 C 0.0539 0.31578 0.99351 0.0
C1864 C 0.01111 0.27751 0.01447 0.0
H1865 H 0.96669 0.26057 0.04149 0.0
C1866 C 0.01692 0.25728 0.00541 0.0
C1867 C 0.99338 0.2785 0.02852 0.0
C1868 C 0.98718 0.29943 0.03992 0.0
C1869 C 0.00451 0.23845 0.00845 0.0
C1870 C 0.98596 0.23976 0.02135 0.0
C1871 C 0.98086 0.25963 0.03159 0.0
C1872 C 0.97061 0.22134 0.02182 0.0
C1873 C 0.01051 0.21773 0.99643 0.0
C1874 C 0.95148 0.22326 0.01028 0.0
C1875 C 0.94042 0.20441 0.00386 0.0
C1876 C 0.94861 0.18355 0.00874 0.0
C1877 C 0.9661 0.18182 0.02277 0.0
C1878 C 0.9769 0.20066 0.0295 0.0
H1879 H 0.02327 0.22063 0.98436 0.0
H1880 H 0.01632 0.20527 0.00812 0.0
H1881 H 0.99652 0.21078 0.98789 0.0
H1882 H 0.94632 0.23912 0.00428 0.0
H1883 H 0.92707 0.20613 0.99293 0.0
H1884 H 0.07157 0.68389 0.54558 0.0
H1885 H 0.04868 0.71473 0.53497 0.0
H1886 H 1e-05 0.66915 0.51509 0.0
H1887 H 0.02252 0.63841 0.52616 0.0
H1888 H 0.02243 0.72878 0.49775 0.0
H1889 H 0.97575 0.70066 0.56908 0.0
H1890 H 0.00207 0.69053 0.56348 0.0
H1891 H 0.97981 0.68072 0.54808 0.0
C1892 C 0.05632 0.68048 0.53818 0.0
C1893 C 0.04863 0.65887 0.53696 0.0
C1894 C 0.04324 0.69808 0.53217 0.0
C1895 C 0.0225 0.69416 0.52472 0.0
C1896 C 0.01583 0.67249 0.52115 0.0
H1897 H 0.91898 0.78892 0.54223 0.0
H1898 H 0.93714 0.75628 0.52795 0.0
C1899 C 0.02871 0.65498 0.52742 0.0
C1900 C 0.00688 0.71231 0.52415 0.0
H1901 H 0.96458 0.73284 0.55202 0.0
C1902 C 0.00961 0.72959 0.50941 0.0
C1903 C 0.99008 0.71323 0.53933 0.0
C1904 C 0.98674 0.69542 0.55602 0.0
C1905 C 0.99628 0.74811 0.50986 0.0
C1906 C 0.98016 0.74949 0.52575 0.0
C1907 C 0.97684 0.73171 0.53976 0.0
C1908 C 0.96869 0.77023 0.53043 0.0
C1909 C -0.0002 0.76615 0.49353 0.0
C1910 C 0.98034 0.78889 0.53634 0.0
C1911 C 0.9701 0.80737 0.54454 0.0
C1912 C 0.94791 0.80759 0.54721 0.0
C1913 C 0.93608 0.78925 0.5404 0.0
C1914 C 0.94643 0.77064 0.5322 0.0
H1915 H 0.00635 0.75945 0.47821 0.0
H1916 H 0.98486 0.7751 0.48989 0.0
H1917 H 0.01154 0.77803 0.50007 0.0
H1918 H 0.99752 0.78881 0.53571 0.0
H1919 H 0.97974 0.82124 0.54945 0.0
H1920 H 0.5234 0.81943 0.4451 0.0
H1921 H 0.50208 0.78887 0.4579 0.0
H1922 H 0.5588 0.7543 0.4771 0.0
H1923 H 0.58059 0.7851 0.46407 0.0
H1924 H 0.53178 0.73021 0.45063 0.0
H1925 H 0.4859 0.7666 0.51778 0.0
H1926 H 0.48507 0.78332 0.4939 0.0
H1927 H 0.50999 0.77888 0.5075 0.0
C1928 C 0.53147 0.80547 0.45222 0.0
C1929 C 0.55378 0.80467 0.45339 0.0
C1930 C 0.51916 0.78809 0.45981 0.0
C1931 C 0.5288 0.7695 0.46886 0.0
C1932 C 0.55105 0.76867 0.47043 0.0
H1933 H 0.46614 0.64212 0.47833 0.0
H1934 H 0.49026 0.67189 0.48854 0.0
C1935 C 0.56347 0.78623 0.46292 0.0
C1936 C 0.51553 0.75011 0.47408 0.0
H1937 H 0.47022 0.73477 0.50046 0.0
C1938 C 0.51863 0.73096 0.46191 0.0
C1939 C 0.49826 0.75126 0.48867 0.0
C1940 C 0.49472 0.77107 0.50286 0.0
C1941 C 0.50419 0.71345 0.46289 0.0
C1942 C 0.48643 0.71492 0.47688 0.0
C1943 C 0.48382 0.73368 0.48977 0.0
C1944 C 0.46971 0.69777 0.47682 0.0
C1945 C 0.50741 0.69414 0.4479 0.0
C1946 C 0.4494 0.70263 0.46868 0.0
C1947 C 0.43534 0.68563 0.46335 0.0
C1948 C 0.4416 0.66366 0.46595 0.0
C1949 C 0.46101 0.65898 0.47617 0.0
C1950 C 0.47485 0.67594 0.48183 0.0
H1951 H 0.51918 0.69776 0.435 0.0
H1952 H 0.51336 0.6799 0.45733 0.0
H1953 H 0.49222 0.6893 0.44011 0.0
H1954 H 0.4451 0.71941 0.46481 0.0
H1955 H 0.42055 0.6896 0.45529 0.0
H1956 H 0.54106 0.52779 0.80051 0.0
H1957 H 0.53921 0.49897 0.77312 0.0
H1958 H 0.47249 0.51194 0.76413 0.0
H1959 H 0.4742 0.54107 0.79144 0.0
H1960 H 0.51325 0.46075 0.77198 0.0
H1961 H 0.49751 0.51682 0.70265 0.0
H1962 H 0.5071 0.52665 0.72841 0.0
H1963 H 0.47971 0.5191 0.72524 0.0
C1964 C 0.52597 0.52456 0.79274 0.0
C1965 C 0.5078 0.53684 0.79806 0.0
C1966 C 0.52494 0.50804 0.77712 0.0
C1967 C 0.50579 0.50353 0.76644 0.0
C1968 C 0.4875 0.51544 0.77195 0.0
H1969 H 0.48495 0.41458 0.65714 0.0
H1970 H 0.47885 0.43947 0.68762 0.0
C1971 C 0.4885 0.532 0.78761 0.0
C1972 C 0.50519 0.48641 0.74944 0.0
H1973 H 0.49943 0.47898 0.69505 0.0
C1974 C 0.51011 0.46468 0.75517 0.0
C1975 C 0.50098 0.49162 0.72757 0.0
C1976 C 0.49617 0.51482 0.72045 0.0
C1977 C 0.51121 0.44802 0.73952 0.0
C1978 C 0.50768 0.45336 0.71755 0.0
C1979 C 0.50213 0.47496 0.71192 0.0
C1980 C 0.51091 0.43714 0.7 0.0
C1981 C 0.51614 0.42487 0.74667 0.0
C1982 C 0.53097 0.42765 0.69684 0.0
C1983 C 0.5345 0.41344 0.67949 0.0
C1984 C 0.51808 0.40857 0.66484 0.0
C1985 C 0.49793 0.41795 0.66816 0.0
C1986 C 0.49441 0.43218 0.68554 0.0
H1987 H 0.51195 0.42225 0.76393 0.0
H1988 H 0.50748 0.41264 0.73668 0.0
H1989 H 0.53342 0.42183 0.74488 0.0
H1990 H 0.54406 0.43165 0.70751 0.0
H1991 H 0.55023 0.4066 0.67736 0.0
H1992 H 0.4985 0.94239 0.84061 0.0
H1993 H 0.50256 0.96276 0.80686 0.0
H1994 H 0.46754 0.9126 0.77286 0.0
H1995 H 0.46317 0.89211 0.80668 0.0
H1996 H 0.52106 0.94942 0.76699 0.0
H1997 H 0.43531 0.96995 0.75864 0.0
H1998 H 0.44656 0.95992 0.78362 0.0
H1999 H 0.44163 0.9413 0.76167 0.0
C2000 C 0.49166 0.93563 0.82598 0.0
C2001 C 0.48035 0.9157 0.82638 0.0
C2002 C 0.49405 0.94728 0.80669 0.0
C2003 C 0.48512 0.93932 0.78746 0.0
C2004 C 0.47425 0.91919 0.78763 0.0
H2005 H 0.47854 0.00706 0.66244 0.0
H2006 H 0.47628 0.97871 0.69049 0.0
C2007 C 0.47185 0.90747 0.80695 0.0
C2008 C 0.48701 0.95242 0.76739 0.0
H2009 H 0.45829 0.98321 0.73167 0.0
C2010 C 0.50734 0.95669 0.75916 0.0
C2011 C 0.46905 0.96179 0.75719 0.0
C2012 C 0.44688 0.9582 0.76575 0.0
C2013 C 0.51024 0.9704 0.74115 0.0
C2014 C 0.49235 0.98037 0.73142 0.0
C2015 C 0.47196 0.97553 0.7392 0.0
C2016 C 0.49452 0.99699 0.71407 0.0
C2017 C 0.53243 0.97414 0.73276 0.0
C2018 C 0.50534 0.0167 0.71814 0.0
C2019 C 0.50663 0.03291 0.70222 0.0
C2020 C 0.497 0.02977 0.68193 0.0
C2021 C 0.48617 0.00997 0.67788 0.0
C2022 C 0.48486 0.99376 0.69386 0.0
H2023 H 0.54329 0.96059 0.73755 0.0
H2024 H 0.53253 0.97563 0.71486 0.0
H2025 H 0.53878 0.98963 0.73968 0.0
H2026 H 0.5125 0.01973 0.73379 0.0
H2027 H 0.51503 0.04799 0.70592 0.0
H2028 H 0.45252 0.33845 0.99469 0.0
H2029 H 0.47532 0.31067 0.97782 0.0
H2030 H 0.45545 0.26357 0.026 0.0
H2031 H 0.43182 0.29094 0.04185 0.0
H2032 H 0.50814 0.29491 0.99467 0.0
H2033 H 0.45825 0.22347 0.97648 0.0
H2034 H 0.44679 0.24998 0.98234 0.0
H2035 H 0.45317 0.23105 0.00393 0.0
C2036 C 0.45236 0.32181 0.00092 0.0
C2037 C 0.4402 0.31654 0.01919 0.0
C2038 C 0.4655 0.30601 0.99144 0.0
C2039 C 0.46701 0.28483 0.00041 0.0
C2040 C 0.4541 0.27943 0.01821 0.0
H2041 H 0.57094 0.2106 0.03437 0.0
H2042 H 0.54898 0.24109 0.0221 0.0
C2043 C 0.44062 0.2951 0.02736 0.0
C2044 C 0.48416 0.26954 0.9935 0.0
H2045 H 0.49475 0.21495 0.98834 0.0
C2046 C 0.50512 0.27748 0.99267 0.0
C2047 C 0.48045 0.24688 0.99009 0.0
C2048 C 0.45838 0.23748 0.988 0.0
C2049 C 0.52247 0.26314 0.99062 0.0
C2050 C 0.51883 0.2402 0.99035 0.0
C2051 C 0.4978 0.23248 0.98906 0.0
C2052 C 0.53606 0.22391 0.99428 0.0
C2053 C 0.54446 0.27284 0.98923 0.0
C2054 C 0.53661 0.20407 0.98264 0.0
C2055 C 0.54874 0.18639 0.99013 0.0
C2056 C 0.56096 0.18849 0.00899 0.0
C2057 C 0.56209 0.20887 0.01943 0.0
C2058 C 0.54952 0.22636 0.01232 0.0
H2059 H 0.5442 0.28842 0.97984 0.0
H2060 H 0.55016 0.27689 0.00574 0.0
H2061 H 0.55587 0.26139 0.98149 0.0
H2062 H 0.52644 0.2017 0.9687 0.0
H2063 H 0.54737 0.17063 0.9821 0.0
loop_
_geom_bond_atom_site_label_1
_geom_bond_atom_site_label_2
_geom_bond_distance
_geom_bond_site_symmetry_2
_ccdc_geom_bond_type
Mg0 O1 2.028 1_455 S
Mg0 O7 1.986 1_455 S
Mg0 O9 2.114 . S
Mg0 O10 2.251 . S
Mg0 O13 2.010 . S
O1 Mg0 2.028 1_655 S
O1 C4 1.250 . S
O2 Mg3 2.028 . S
O2 C4 1.248 . S
Mg3 O2 2.028 . S
Mg3 O8 2.032 . S
Mg3 O10 2.079 1_655 S
C4 O1 1.250 . S
C4 O2 1.248 . S
C5 O6 1.264 . S
C5 O13 1.249 . S
O6 C5 1.264 . S
O7 Mg0 1.986 1_655 S
O7 C11 1.246 . S
O8 Mg3 2.032 . S
O8 C11 1.259 . S
O9 Mg0 2.114 . S
O9 C12 1.252 . S
O10 Mg0 2.251 . S
O10 Mg3 2.079 1_455 S
O10 C12 1.273 . S
C11 O7 1.246 . S
C11 O8 1.259 . S
C12 O9 1.252 . S
C12 O10 1.273 . S
O13 Mg0 2.010 . S
O13 C5 1.249 . S
Mg14 O15 2.028 1_655 S
Mg14 O21 1.986 1_655 S
Mg14 O23 2.114 . S
Mg14 O24 2.251 . S
Mg14 O27 2.010 . S
O15 Mg14 2.028 1_455 S
O15 C18 1.250 . S
O16 Mg17 2.028 . S
O16 C18 1.248 . S
Mg17 O16 2.028 . S
Mg17 O22 2.032 . S
Mg17 O24 2.079 1_455 S
C18 O15 1.250 . S
C18 O16 1.248 . S
C19 O20 1.264 . S
C19 O27 1.249 . S
O20 C19 1.264 . S
O21 Mg14 1.986 1_455 S
O21 C25 1.246 . S
O22 Mg17 2.032 . S
O22 C25 1.259 . S
O23 Mg14 2.114 . S
O23 C26 1.252 . S
O24 Mg14 2.251 . S
O24 Mg17 2.079 1_655 S
O24 C26 1.273 . S
C25 O21 1.246 . S
C25 O22 1.259 . S
C26 O23 1.252 . S
C26 O24 1.273 . S
O27 Mg14 2.010 . S
O27 C19 1.249 . S
Mg28 O29 2.028 1_455 S
Mg28 O35 1.986 1_455 S
Mg28 O37 2.114 . S
Mg28 O38 2.251 . S
Mg28 O41 2.010 . S
O29 Mg28 2.028 1_655 S
O29 C32 1.250 . S
O30 Mg31 2.028 . S
O30 C32 1.248 . S
Mg31 O30 2.028 . S
Mg31 O36 2.032 . S
Mg31 O38 2.079 1_655 S
C32 O29 1.250 . S
C32 O30 1.248 . S
C33 O34 1.264 . S
C33 O41 1.249 . S
O34 C33 1.264 . S
O35 Mg28 1.986 1_655 S
O35 C39 1.246 . S
O36 Mg31 2.032 . S
O36 C39 1.259 . S
O37 Mg28 2.114 . S
O37 C40 1.252 . S
O38 Mg28 2.251 . S
O38 Mg31 2.079 1_455 S
O38 C40 1.273 . S
C39 O35 1.246 . S
C39 O36 1.259 . S
C40 O37 1.252 . S
C40 O38 1.273 . S
O41 Mg28 2.010 . S
O41 C33 1.249 . S
Mg42 O43 2.028 1_655 S
Mg42 O49 1.986 1_655 S
Mg42 O51 2.114 . S
Mg42 O52 2.251 . S
Mg42 O55 2.010 . S
O43 Mg42 2.028 1_455 S
O43 C46 1.250 . S
O44 Mg45 2.028 . S
O44 C46 1.248 . S
Mg45 O44 2.028 . S
Mg45 O50 2.032 . S
Mg45 O52 2.079 1_455 S
C46 O43 1.250 . S
C46 O44 1.248 . S
C47 O48 1.264 . S
C47 O55 1.249 . S
O48 C47 1.264 . S
O49 Mg42 1.986 1_455 S
O49 C53 1.246 . S
O50 Mg45 2.032 . S
O50 C53 1.259 . S
O51 Mg42 2.114 . S
O51 C54 1.252 . S
O52 Mg42 2.251 . S
O52 Mg45 2.079 1_655 S
O52 C54 1.273 . S
C53 O49 1.246 . S
C53 O50 1.259 . S
C54 O51 1.252 . S
C54 O52 1.273 . S
O55 Mg42 2.010 . S
O55 C47 1.249 . S
Mg56 O57 2.028 1_545 S
Mg56 O63 1.986 1_545 S
Mg56 O65 2.114 . S
Mg56 O66 2.251 . S
Mg56 O69 2.010 . S
O57 Mg56 2.028 1_565 S
O57 C60 1.250 . S
O58 Mg59 2.028 . S
O58 C60 1.248 . S
Mg59 O58 2.028 . S
Mg59 O64 2.032 . S
Mg59 O66 2.079 1_565 S
C60 O57 1.250 . S
C60 O58 1.248 . S
C61 O62 1.264 . S
C61 O69 1.249 . S
O62 C61 1.264 . S
O63 Mg56 1.986 1_565 S
O63 C67 1.246 . S
O64 Mg59 2.032 . S
O64 C67 1.259 . S
O65 Mg56 2.114 . S
O65 C68 1.252 . S
O66 Mg56 2.251 . S
O66 Mg59 2.079 1_545 S
O66 C68 1.273 . S
C67 O63 1.246 . S
C67 O64 1.259 . S
C68 O65 1.252 . S
C68 O66 1.273 . S
O69 Mg56 2.010 . S
O69 C61 1.249 . S
Mg70 O71 2.028 . S
Mg70 O77 1.986 . S
Mg70 O79 2.114 . S
Mg70 O80 2.251 . S
Mg70 O83 2.010 . S
O71 Mg70 2.028 . S
O71 C74 1.250 . S
O72 Mg73 2.028 . S
O72 C74 1.248 . S
Mg73 O72 2.028 . S
Mg73 O78 2.032 . S
Mg73 O80 2.079 . S
C74 O71 1.250 . S
C74 O72 1.248 . S
C75 O76 1.264 . S
C75 O83 1.249 . S
O76 C75 1.264 . S
O77 Mg70 1.986 . S
O77 C81 1.246 . S
O78 Mg73 2.032 . S
O78 C81 1.259 . S
O79 Mg70 2.114 . S
O79 C82 1.252 . S
O80 Mg70 2.251 . S
O80 Mg73 2.079 . S
O80 C82 1.273 . S
C81 O77 1.246 . S
C81 O78 1.259 . S
C82 O79 1.252 . S
C82 O80 1.273 . S
O83 Mg70 2.010 . S
O83 C75 1.249 . S
Mg84 O85 2.028 1_565 S
Mg84 O91 1.986 1_565 S
Mg84 O93 2.114 . S
Mg84 O94 2.251 . S
Mg84 O97 2.010 . S
O85 Mg84 2.028 1_545 S
O85 C88 1.250 . S
O86 Mg87 2.028 . S
O86 C88 1.248 . S
Mg87 O86 2.028 . S
Mg87 O92 2.032 . S
Mg87 O94 2.079 1_545 S
C88 O85 1.250 . S
C88 O86 1.248 . S
C89 O90 1.264 . S
C89 O97 1.249 . S
O90 C89 1.264 . S
O91 Mg84 1.986 1_545 S
O91 C95 1.246 . S
O92 Mg87 2.032 . S
O92 C95 1.259 . S
O93 Mg84 2.114 . S
O93 C96 1.252 . S
O94 Mg84 2.251 . S
O94 Mg87 2.079 1_565 S
O94 C96 1.273 . S
C95 O91 1.246 . S
C95 O92 1.259 . S
C96 O93 1.252 . S
C96 O94 1.273 . S
O97 Mg84 2.010 . S
O97 C89 1.249 . S
Mg98 O99 2.028 . S
Mg98 O105 1.986 . S
Mg98 O107 2.114 . S
Mg98 O108 2.251 . S
Mg98 O111 2.010 . S
O99 Mg98 2.028 . S
O99 C102 1.250 . S
O100 Mg101 2.028 . S
O100 C102 1.248 . S
Mg101 O100 2.028 . S
Mg101 O106 2.032 . S
Mg101 O108 2.079 . S
C102 O99 1.250 . S
C102 O100 1.248 . S
C103 O104 1.264 . S
C103 O111 1.249 . S
O104 C103 1.264 . S
O105 Mg98 1.986 . S
O105 C109 1.246 . S
O106 Mg101 2.032 . S
O106 C109 1.259 . S
O107 Mg98 2.114 . S
O107 C110 1.252 . S
O108 Mg98 2.251 . S
O108 Mg101 2.079 . S
O108 C110 1.273 . S
C109 O105 1.246 . S
C109 O106 1.259 . S
C110 O107 1.252 . S
C110 O108 1.273 . S
O111 Mg98 2.010 . S
O111 C103 1.249 . S
Mg112 O113 2.028 1_556 S
Mg112 O119 1.986 1_556 S
Mg112 O121 2.114 . S
Mg112 O122 2.251 . S
Mg112 O125 2.010 . S
O113 Mg112 2.028 1_554 S
O113 C116 1.250 . S
O114 Mg115 2.028 . S
O114 C116 1.248 . S
Mg115 O114 2.028 . S
Mg115 O120 2.032 . S
Mg115 O122 2.079 1_554 S
C116 O113 1.250 . S
C116 O114 1.248 . S
C117 O118 1.264 . S
C117 O125 1.249 . S
O118 C117 1.264 . S
O119 Mg112 1.986 1_554 S
O119 C123 1.246 . S
O120 Mg115 2.032 . S
O120 C123 1.259 . S
O121 Mg112 2.114 . S
O121 C124 1.252 . S
O122 Mg112 2.251 . S
O122 Mg115 2.079 1_556 S
O122 C124 1.273 . S
C123 O119 1.246 . S
C123 O120 1.259 . S
C124 O121 1.252 . S
C124 O122 1.273 . S
O125 Mg112 2.010 . S
O125 C117 1.249 . S
Mg126 O127 2.028 . S
Mg126 O133 1.986 . S
Mg126 O135 2.114 . S
Mg126 O136 2.251 . S
Mg126 O139 2.010 . S
O127 Mg126 2.028 . S
O127 C130 1.250 . S
O128 Mg129 2.028 . S
O128 C130 1.248 . S
Mg129 O128 2.028 . S
Mg129 O134 2.032 . S
Mg129 O136 2.079 . S
C130 O127 1.250 . S
C130 O128 1.248 . S
C131 O132 1.264 . S
C131 O139 1.249 . S
O132 C131 1.264 . S
O133 Mg126 1.986 . S
O133 C137 1.246 . S
O134 Mg129 2.032 . S
O134 C137 1.259 . S
O135 Mg126 2.114 . S
O135 C138 1.252 . S
O136 Mg126 2.251 . S
O136 Mg129 2.079 . S
O136 C138 1.273 . S
C137 O133 1.246 . S
C137 O134 1.259 . S
C138 O135 1.252 . S
C138 O136 1.273 . S
O139 Mg126 2.010 . S
O139 C131 1.249 . S
Mg140 O141 2.028 . S
Mg140 O147 1.986 . S
Mg140 O149 2.114 . S
Mg140 O150 2.251 . S
Mg140 O153 2.010 . S
O141 Mg140 2.028 . S
O141 C144 1.250 . S
O142 Mg143 2.028 . S
O142 C144 1.248 . S
Mg143 O142 2.028 . S
Mg143 O148 2.032 . S
Mg143 O150 2.079 . S
C144 O141 1.250 . S
C144 O142 1.248 . S
C145 O146 1.264 . S
C145 O153 1.249 . S
O146 C145 1.264 . S
O147 Mg140 1.986 . S
O147 C151 1.246 . S
O148 Mg143 2.032 . S
O148 C151 1.259 . S
O149 Mg140 2.114 . S
O149 C152 1.252 . S
O150 Mg140 2.251 . S
O150 Mg143 2.079 . S
O150 C152 1.273 . S
C151 O147 1.246 . S
C151 O148 1.259 . S
C152 O149 1.252 . S
C152 O150 1.273 . S
O153 Mg140 2.010 . S
O153 C145 1.249 . S
Mg154 O155 2.028 . S
Mg154 O161 1.986 . S
Mg154 O163 2.114 . S
Mg154 O164 2.251 . S
Mg154 O167 2.010 . S
O155 Mg154 2.028 . S
O155 C158 1.250 . S
O156 Mg157 2.028 . S
O156 C158 1.248 . S
Mg157 O156 2.028 . S
Mg157 O162 2.032 . S
Mg157 O164 2.079 . S
C158 O155 1.250 . S
C158 O156 1.248 . S
C159 O160 1.264 . S
C159 O167 1.249 . S
O160 C159 1.264 . S
O161 Mg154 1.986 . S
O161 C165 1.246 . S
O162 Mg157 2.032 . S
O162 C165 1.259 . S
O163 Mg154 2.114 . S
O163 C166 1.252 . S
O164 Mg154 2.251 . S
O164 Mg157 2.079 . S
O164 C166 1.273 . S
C165 O161 1.246 . S
C165 O162 1.259 . S
C166 O163 1.252 . S
C166 O164 1.273 . S
O167 Mg154 2.010 . S
O167 C159 1.249 . S
Mg168 O169 2.028 . S
Mg168 O175 1.986 . S
Mg168 O177 2.114 . S
Mg168 O178 2.251 . S
Mg168 O181 2.010 . S
O169 Mg168 2.028 . S
O169 C172 1.250 . S
O170 Mg171 2.028 . S
O170 C172 1.248 . S
Mg171 O170 2.028 . S
Mg171 O176 2.032 . S
Mg171 O178 2.079 . S
C172 O169 1.250 . S
C172 O170 1.248 . S
C173 O174 1.264 . S
C173 O181 1.249 . S
O174 C173 1.264 . S
O175 Mg168 1.986 . S
O175 C179 1.246 . S
O176 Mg171 2.032 . S
O176 C179 1.259 . S
O177 Mg168 2.114 . S
O177 C180 1.252 . S
O178 Mg168 2.251 . S
O178 Mg171 2.079 . S
O178 C180 1.273 . S
C179 O175 1.246 . S
C179 O176 1.259 . S
C180 O177 1.252 . S
C180 O178 1.273 . S
O181 Mg168 2.010 . S
O181 C173 1.249 . S
Mg182 O183 2.028 . S
Mg182 O189 1.986 . S
Mg182 O191 2.114 . S
Mg182 O192 2.251 . S
Mg182 O195 2.010 . S
O183 Mg182 2.028 . S
O183 C186 1.250 . S
O184 Mg185 2.028 . S
O184 C186 1.248 . S
Mg185 O184 2.028 . S
Mg185 O190 2.032 . S
Mg185 O192 2.079 . S
C186 O183 1.250 . S
C186 O184 1.248 . S
C187 O188 1.264 . S
C187 O195 1.249 . S
O188 C187 1.264 . S
O189 Mg182 1.986 . S
O189 C193 1.246 . S
O190 Mg185 2.032 . S
O190 C193 1.259 . S
O191 Mg182 2.114 . S
O191 C194 1.252 . S
O192 Mg182 2.251 . S
O192 Mg185 2.079 . S
O192 C194 1.273 . S
C193 O189 1.246 . S
C193 O190 1.259 . S
C194 O191 1.252 . S
C194 O192 1.273 . S
O195 Mg182 2.010 . S
O195 C187 1.249 . S
Mg196 O197 2.028 . S
Mg196 O203 1.986 . S
Mg196 O205 2.114 . S
Mg196 O206 2.251 . S
Mg196 O209 2.010 . S
O197 Mg196 2.028 . S
O197 C200 1.250 . S
O198 Mg199 2.028 . S
O198 C200 1.248 . S
Mg199 O198 2.028 . S
Mg199 O204 2.032 . S
Mg199 O206 2.079 . S
C200 O197 1.250 . S
C200 O198 1.248 . S
C201 O202 1.264 . S
C201 O209 1.249 . S
O202 C201 1.264 . S
O203 Mg196 1.986 . S
O203 C207 1.246 . S
O204 Mg199 2.032 . S
O204 C207 1.259 . S
O205 Mg196 2.114 . S
O205 C208 1.252 . S
O206 Mg196 2.251 . S
O206 Mg199 2.079 . S
O206 C208 1.273 . S
C207 O203 1.246 . S
C207 O204 1.259 . S
C208 O205 1.252 . S
C208 O206 1.273 . S
O209 Mg196 2.010 . S
O209 C201 1.249 . S
Mg210 O211 2.028 . S
Mg210 O217 1.986 . S
Mg210 O219 2.114 . S
Mg210 O220 2.251 . S
Mg210 O223 2.010 . S
O211 Mg210 2.028 . S
O211 C214 1.250 . S
O212 Mg213 2.028 . S
O212 C214 1.248 . S
Mg213 O212 2.028 . S
Mg213 O218 2.032 . S
Mg213 O220 2.079 . S
C214 O211 1.250 . S
C214 O212 1.248 . S
C215 O216 1.264 . S
C215 O223 1.249 . S
O216 C215 1.264 . S
O217 Mg210 1.986 . S
O217 C221 1.246 . S
O218 Mg213 2.032 . S
O218 C221 1.259 . S
O219 Mg210 2.114 . S
O219 C222 1.252 . S
O220 Mg210 2.251 . S
O220 Mg213 2.079 . S
O220 C222 1.273 . S
C221 O217 1.246 . S
C221 O218 1.259 . S
C222 O219 1.252 . S
C222 O220 1.273 . S
O223 Mg210 2.010 . S
O223 C215 1.249 . S
Mg224 O225 2.028 . S
Mg224 O231 1.986 . S
Mg224 O233 2.114 . S
Mg224 O234 2.251 . S
Mg224 O237 2.010 . S
O225 Mg224 2.028 . S
O225 C228 1.250 . S
O226 Mg227 2.028 . S
O226 C228 1.248 . S
Mg227 O226 2.028 . S
Mg227 O232 2.032 . S
Mg227 O234 2.079 . S
C228 O225 1.250 . S
C228 O226 1.248 . S
C229 O230 1.264 . S
C229 O237 1.249 . S
O230 C229 1.264 . S
O231 Mg224 1.986 . S
O231 C235 1.246 . S
O232 Mg227 2.032 . S
O232 C235 1.259 . S
O233 Mg224 2.114 . S
O233 C236 1.252 . S
O234 Mg224 2.251 . S
O234 Mg227 2.079 . S
O234 C236 1.273 . S
C235 O231 1.246 . S
C235 O232 1.259 . S
C236 O233 1.252 . S
C236 O234 1.273 . S
O237 Mg224 2.010 . S
O237 C229 1.249 . S
Mg238 O239 2.028 1_565 S
Mg238 O245 1.986 1_565 S
Mg238 O247 2.114 . S
Mg238 O248 2.251 . S
Mg238 O251 2.010 . S
O239 Mg238 2.028 1_545 S
O239 C242 1.250 . S
O240 Mg241 2.028 . S
O240 C242 1.248 . S
Mg241 O240 2.028 . S
Mg241 O246 2.032 . S
Mg241 O248 2.079 1_545 S
C242 O239 1.250 . S
C242 O240 1.248 . S
C243 O244 1.264 . S
C243 O251 1.249 . S
O244 C243 1.264 . S
O245 Mg238 1.986 1_545 S
O245 C249 1.246 . S
O246 Mg241 2.032 . S
O246 C249 1.259 . S
O247 Mg238 2.114 . S
O247 C250 1.252 . S
O248 Mg238 2.251 . S
O248 Mg241 2.079 1_565 S
O248 C250 1.273 . S
C249 O245 1.246 . S
C249 O246 1.259 . S
C250 O247 1.252 . S
C250 O248 1.273 . S
O251 Mg238 2.010 . S
O251 C243 1.249 . S
Mg252 O253 2.028 . S
Mg252 O259 1.986 . S
Mg252 O261 2.114 . S
Mg252 O262 2.251 . S
Mg252 O265 2.010 . S
O253 Mg252 2.028 . S
O253 C256 1.250 . S
O254 Mg255 2.028 . S
O254 C256 1.248 . S
Mg255 O254 2.028 . S
Mg255 O260 2.032 . S
Mg255 O262 2.079 . S
C256 O253 1.250 . S
C256 O254 1.248 . S
C257 O258 1.264 . S
C257 O265 1.249 . S
O258 C257 1.264 . S
O259 Mg252 1.986 . S
O259 C263 1.246 . S
O260 Mg255 2.032 . S
O260 C263 1.259 . S
O261 Mg252 2.114 . S
O261 C264 1.252 . S
O262 Mg252 2.251 . S
O262 Mg255 2.079 . S
O262 C264 1.273 . S
C263 O259 1.246 . S
C263 O260 1.259 . S
C264 O261 1.252 . S
C264 O262 1.273 . S
O265 Mg252 2.010 . S
O265 C257 1.249 . S
Mg266 O267 2.028 1_545 S
Mg266 O273 1.986 1_545 S
Mg266 O275 2.114 . S
Mg266 O276 2.251 . S
Mg266 O279 2.010 . S
O267 Mg266 2.028 1_565 S
O267 C270 1.250 . S
O268 Mg269 2.028 . S
O268 C270 1.248 . S
Mg269 O268 2.028 . S
Mg269 O274 2.032 . S
Mg269 O276 2.079 1_565 S
C270 O267 1.250 . S
C270 O268 1.248 . S
C271 O272 1.264 . S
C271 O279 1.249 . S
O272 C271 1.264 . S
O273 Mg266 1.986 1_565 S
O273 C277 1.246 . S
O274 Mg269 2.032 . S
O274 C277 1.259 . S
O275 Mg266 2.114 . S
O275 C278 1.252 . S
O276 Mg266 2.251 . S
O276 Mg269 2.079 1_545 S
O276 C278 1.273 . S
C277 O273 1.246 . S
C277 O274 1.259 . S
C278 O275 1.252 . S
C278 O276 1.273 . S
O279 Mg266 2.010 . S
O279 C271 1.249 . S
Mg280 O281 2.028 . S
Mg280 O287 1.986 . S
Mg280 O289 2.114 . S
Mg280 O290 2.251 . S
Mg280 O293 2.010 . S
O281 Mg280 2.028 . S
O281 C284 1.250 . S
O282 Mg283 2.028 . S
O282 C284 1.248 . S
Mg283 O282 2.028 . S
Mg283 O288 2.032 . S
Mg283 O290 2.079 . S
C284 O281 1.250 . S
C284 O282 1.248 . S
C285 O286 1.264 . S
C285 O293 1.249 . S
O286 C285 1.264 . S
O287 Mg280 1.986 . S
O287 C291 1.246 . S
O288 Mg283 2.032 . S
O288 C291 1.259 . S
O289 Mg280 2.114 . S
O289 C292 1.252 . S
O290 Mg280 2.251 . S
O290 Mg283 2.079 . S
O290 C292 1.273 . S
C291 O287 1.246 . S
C291 O288 1.259 . S
C292 O289 1.252 . S
C292 O290 1.273 . S
O293 Mg280 2.010 . S
O293 C285 1.249 . S
Mg294 O295 2.028 1_554 S
Mg294 O301 1.986 1_554 S
Mg294 O303 2.114 . S
Mg294 O304 2.251 . S
Mg294 O307 2.010 . S
O295 Mg294 2.028 1_556 S
O295 C298 1.250 . S
O296 Mg297 2.028 . S
O296 C298 1.248 . S
Mg297 O296 2.028 . S
Mg297 O302 2.032 . S
Mg297 O304 2.079 1_556 S
C298 O295 1.250 . S
C298 O296 1.248 . S
C299 O300 1.264 . S
C299 O307 1.249 . S
O300 C299 1.264 . S
O301 Mg294 1.986 1_556 S
O301 C305 1.246 . S
O302 Mg297 2.032 . S
O302 C305 1.259 . S
O303 Mg294 2.114 . S
O303 C306 1.252 . S
O304 Mg294 2.251 . S
O304 Mg297 2.079 1_554 S
O304 C306 1.273 . S
C305 O301 1.246 . S
C305 O302 1.259 . S
C306 O303 1.252 . S
C306 O304 1.273 . S
O307 Mg294 2.010 . S
O307 C299 1.249 . S
Mg308 O309 2.028 1_554 S
Mg308 O315 1.986 1_554 S
Mg308 O317 2.114 . S
Mg308 O318 2.251 . S
Mg308 O321 2.010 . S
O309 Mg308 2.028 1_556 S
O309 C312 1.250 . S
O310 Mg311 2.028 . S
O310 C312 1.248 . S
Mg311 O310 2.028 . S
Mg311 O316 2.032 . S
Mg311 O318 2.079 1_556 S
C312 O309 1.250 . S
C312 O310 1.248 . S
C313 O314 1.264 . S
C313 O321 1.249 . S
O314 C313 1.264 . S
O315 Mg308 1.986 1_556 S
O315 C319 1.246 . S
O316 Mg311 2.032 . S
O316 C319 1.259 . S
O317 Mg308 2.114 . S
O317 C320 1.252 . S
O318 Mg308 2.251 . S
O318 Mg311 2.079 1_554 S
O318 C320 1.273 . S
C319 O315 1.246 . S
C319 O316 1.259 . S
C320 O317 1.252 . S
C320 O318 1.273 . S
O321 Mg308 2.010 . S
O321 C313 1.249 . S
Mg322 O323 2.028 1_556 S
Mg322 O329 1.986 1_556 S
Mg322 O331 2.114 . S
Mg322 O332 2.251 . S
Mg322 O335 2.010 . S
O323 Mg322 2.028 1_554 S
O323 C326 1.250 . S
O324 Mg325 2.028 . S
O324 C326 1.248 . S
Mg325 O324 2.028 . S
Mg325 O330 2.032 . S
Mg325 O332 2.079 1_554 S
C326 O323 1.250 . S
C326 O324 1.248 . S
C327 O328 1.264 . S
C327 O335 1.249 . S
O328 C327 1.264 . S
O329 Mg322 1.986 1_554 S
O329 C333 1.246 . S
O330 Mg325 2.032 . S
O330 C333 1.259 . S
O331 Mg322 2.114 . S
O331 C334 1.252 . S
O332 Mg322 2.251 . S
O332 Mg325 2.079 1_556 S
O332 C334 1.273 . S
C333 O329 1.246 . S
C333 O330 1.259 . S
C334 O331 1.252 . S
C334 O332 1.273 . S
O335 Mg322 2.010 . S
O335 C327 1.249 . S
H336 C344 0.929 . S
H337 C346 0.930 . S
H338 C348 0.930 . S
H339 C351 0.929 . S
H340 C354 0.930 . S
H341 C356 0.960 . S
H342 C356 0.960 . S
H343 C356 0.960 . S
C344 H336 0.929 . S
C344 C345 1.377 . S
C344 C346 1.384 . S
C345 C344 1.377 . S
C345 C351 1.390 . S
C346 H337 0.930 . S
C346 C344 1.384 . S
C346 C347 1.372 . S
C347 C346 1.372 . S
C347 C348 1.400 . S
C347 C352 1.490 . S
C348 H338 0.930 . S
C348 C347 1.400 . S
C348 C351 1.386 . S
H349 C365 0.930 . S
H350 C366 0.931 . S
C351 H339 0.929 . S
C351 C345 1.390 . S
C351 C348 1.386 . S
C352 C347 1.490 . S
C352 C354 1.395 . S
C352 C355 1.403 . S
H353 C359 0.930 . S
C354 H340 0.930 . S
C354 C352 1.395 . S
C354 C357 1.403 . S
C355 C352 1.403 . S
C355 C356 1.524 . S
C355 C359 1.400 . S
C356 H341 0.960 . S
C356 H342 0.960 . S
C356 H343 0.960 . S
C356 C355 1.524 . S
C357 C354 1.403 . S
C357 C358 1.392 . S
C357 C361 1.495 . S
C358 C357 1.392 . S
C358 C359 1.385 . S
C358 C360 1.478 . S
C359 H353 0.930 . S
C359 C355 1.400 . S
C359 C358 1.385 . S
C360 C358 1.478 . S
C360 C362 1.381 . S
C360 C366 1.383 . S
C361 C357 1.495 . S
C361 H367 0.959 . S
C361 H368 0.961 . S
C361 H369 0.960 . S
C362 C360 1.381 . S
C362 C363 1.394 . S
C362 H370 0.930 . S
C363 C362 1.394 . S
C363 C364 1.383 . S
C363 H371 0.929 . S
C364 C363 1.383 . S
C364 C365 1.377 . S
C365 H349 0.930 . S
C365 C364 1.377 . S
C365 C366 1.379 . S
C366 H350 0.931 . S
C366 C360 1.383 . S
C366 C365 1.379 . S
H367 C361 0.959 . S
H368 C361 0.961 . S
H369 C361 0.960 . S
H370 C362 0.930 . S
H371 C363 0.929 . S
H372 C380 0.929 . S
H373 C382 0.930 . S
H374 C384 0.930 . S
H375 C387 0.929 . S
H376 C390 0.930 . S
H377 C392 0.960 . S
H378 C392 0.960 . S
H379 C392 0.960 . S
C380 H372 0.929 . S
C380 C381 1.377 . S
C380 C382 1.384 . S
C381 C380 1.377 . S
C381 C387 1.390 . S
C382 H373 0.930 . S
C382 C380 1.384 . S
C382 C383 1.372 . S
C383 C382 1.372 . S
C383 C384 1.400 . S
C383 C388 1.490 . S
C384 H374 0.930 . S
C384 C383 1.400 . S
C384 C387 1.386 . S
H385 C401 0.930 . S
H386 C402 0.931 . S
C387 H375 0.929 . S
C387 C381 1.390 . S
C387 C384 1.386 . S
C388 C383 1.490 . S
C388 C390 1.395 . S
C388 C391 1.403 . S
H389 C395 0.930 . S
C390 H376 0.930 . S
C390 C388 1.395 . S
C390 C393 1.403 . S
C391 C388 1.403 . S
C391 C392 1.524 . S
C391 C395 1.400 . S
C392 H377 0.960 . S
C392 H378 0.960 . S
C392 H379 0.960 . S
C392 C391 1.524 . S
C393 C390 1.403 . S
C393 C394 1.392 . S
C393 C397 1.495 . S
C394 C393 1.392 . S
C394 C395 1.385 . S
C394 C396 1.478 . S
C395 H389 0.930 . S
C395 C391 1.400 . S
C395 C394 1.385 . S
C396 C394 1.478 . S
C396 C398 1.381 . S
C396 C402 1.383 . S
C397 C393 1.495 . S
C397 H403 0.959 . S
C397 H404 0.961 . S
C397 H405 0.960 . S
C398 C396 1.381 . S
C398 C399 1.394 . S
C398 H406 0.930 . S
C399 C398 1.394 . S
C399 C400 1.383 . S
C399 H407 0.929 . S
C400 C399 1.383 . S
C400 C401 1.377 . S
C401 H385 0.930 . S
C401 C400 1.377 . S
C401 C402 1.379 . S
C402 H386 0.931 . S
C402 C396 1.383 . S
C402 C401 1.379 . S
H403 C397 0.959 . S
H404 C397 0.961 . S
H405 C397 0.960 . S
H406 C398 0.930 . S
H407 C399 0.929 . S
H408 C416 0.929 . S
H409 C418 0.930 . S
H410 C420 0.930 . S
H411 C423 0.929 . S
H412 C426 0.930 . S
H413 C428 0.960 . S
H414 C428 0.960 . S
H415 C428 0.960 . S
C416 H408 0.929 . S
C416 C417 1.377 . S
C416 C418 1.384 . S
C417 C416 1.377 . S
C417 C423 1.390 . S
C418 H409 0.930 . S
C418 C416 1.384 . S
C418 C419 1.372 . S
C419 C418 1.372 . S
C419 C420 1.400 . S
C419 C424 1.490 . S
C420 H410 0.930 . S
C420 C419 1.400 . S
C420 C423 1.386 . S
H421 C437 0.930 . S
H422 C438 0.931 . S
C423 H411 0.929 . S
C423 C417 1.390 . S
C423 C420 1.386 . S
C424 C419 1.490 . S
C424 C426 1.395 . S
C424 C427 1.403 . S
H425 C431 0.930 . S
C426 H412 0.930 . S
C426 C424 1.395 . S
C426 C429 1.403 . S
C427 C424 1.403 . S
C427 C428 1.524 . S
C427 C431 1.400 1_554 S
C428 H413 0.960 . S
C428 H414 0.960 . S
C428 H415 0.960 . S
C428 C427 1.524 . S
C429 C426 1.403 . S
C429 C430 1.392 1_554 S
C429 C433 1.495 1_554 S
C430 C429 1.392 1_556 S
C430 C431 1.385 . S
C430 C432 1.478 . S
C431 H425 0.930 . S
C431 C427 1.400 1_556 S
C431 C430 1.385 . S
C432 C430 1.478 . S
C432 C434 1.381 . S
C432 C438 1.383 . S
C433 C429 1.495 1_556 S
C433 H439 0.962 1_556 S
C433 H440 0.961 . S
C433 H441 0.960 . S
C434 C432 1.381 . S
C434 C435 1.394 . S
C434 H442 0.930 . S
C435 C434 1.394 . S
C435 C436 1.383 . S
C435 H443 0.929 . S
C436 C435 1.383 . S
C436 C437 1.377 . S
C437 H421 0.930 . S
C437 C436 1.377 . S
C437 C438 1.379 . S
C438 H422 0.931 . S
C438 C432 1.383 . S
C438 C437 1.379 . S
H439 C433 0.962 1_554 S
H440 C433 0.961 . S
H441 C433 0.960 . S
H442 C434 0.930 . S
H443 C435 0.929 . S
H444 C452 0.929 . S
H445 C454 0.930 . S
H446 C456 0.930 . S
H447 C459 0.929 . S
H448 C462 0.930 . S
H449 C464 0.960 . S
H450 C464 0.960 . S
H451 C464 0.960 . S
C452 H444 0.929 . S
C452 C453 1.377 . S
C452 C454 1.384 . S
C453 C452 1.377 . S
C453 C459 1.390 . S
C454 H445 0.930 . S
C454 C452 1.384 . S
C454 C455 1.372 . S
C455 C454 1.372 . S
C455 C456 1.400 . S
C455 C460 1.490 . S
C456 H446 0.930 . S
C456 C455 1.400 . S
C456 C459 1.386 . S
H457 C473 0.930 . S
H458 C474 0.931 . S
C459 H447 0.929 . S
C459 C453 1.390 . S
C459 C456 1.386 . S
C460 C455 1.490 . S
C460 C462 1.395 . S
C460 C463 1.403 . S
H461 C467 0.937 . S
C462 H448 0.930 . S
C462 C460 1.395 . S
C462 C465 1.403 1_554 S
C463 C460 1.403 . S
C463 C464 1.524 . S
C463 C467 1.377 1_554 S
C464 H449 0.960 . S
C464 H450 0.960 . S
C464 H451 0.960 . S
C464 C463 1.524 . S
C465 C462 1.403 1_556 S
C465 C466 1.392 . S
C465 C469 1.495 . S
C466 C465 1.392 . S
C466 C467 1.401 . S
C466 C468 1.478 . S
C467 H461 0.937 . S
C467 C463 1.377 1_556 S
C467 C466 1.401 . S
C468 C466 1.478 . S
C468 C470 1.381 . S
C468 C474 1.383 . S
C469 C465 1.495 . S
C469 H475 0.959 . S
C469 H476 0.961 . S
C469 H477 0.960 . S
C470 C468 1.381 . S
C470 C471 1.394 . S
C470 H478 0.930 . S
C471 C470 1.394 . S
C471 C472 1.383 . S
C471 H479 0.929 . S
C472 C471 1.383 . S
C472 C473 1.377 . S
C473 H457 0.930 . S
C473 C472 1.377 . S
C473 C474 1.379 . S
C474 H458 0.931 . S
C474 C468 1.383 . S
C474 C473 1.379 . S
H475 C469 0.959 . S
H476 C469 0.961 . S
H477 C469 0.960 . S
H478 C470 0.930 . S
H479 C471 0.929 . S
H480 C488 0.929 . S
H481 C490 0.930 . S
H482 C492 0.930 . S
H483 C495 0.929 . S
H484 C498 0.930 . S
H485 C500 0.960 . S
H486 C500 0.960 . S
H487 C500 0.960 . S
C488 H480 0.929 . S
C488 C489 1.377 . S
C488 C490 1.384 . S
C489 C488 1.377 . S
C489 C495 1.390 . S
C490 H481 0.930 . S
C490 C488 1.384 . S
C490 C491 1.372 . S
C491 C490 1.372 . S
C491 C492 1.400 . S
C491 C496 1.490 . S
C492 H482 0.930 . S
C492 C491 1.400 . S
C492 C495 1.386 . S
H493 C509 0.930 . S
H494 C510 0.931 . S
C495 H483 0.929 . S
C495 C489 1.390 . S
C495 C492 1.386 . S
C496 C491 1.490 . S
C496 C498 1.395 . S
C496 C499 1.403 . S
H497 C503 0.930 . S
C498 H484 0.930 . S
C498 C496 1.395 . S
C498 C501 1.403 . S
C499 C496 1.403 . S
C499 C500 1.524 . S
C499 C503 1.400 . S
C500 H485 0.960 . S
C500 H486 0.960 . S
C500 H487 0.960 . S
C500 C499 1.524 . S
C501 C498 1.403 . S
C501 C502 1.392 . S
C501 C505 1.495 . S
C502 C501 1.392 . S
C502 C503 1.385 . S
C502 C504 1.478 . S
C503 H497 0.930 . S
C503 C499 1.400 . S
C503 C502 1.385 . S
C504 C502 1.478 . S
C504 C506 1.381 . S
C504 C510 1.383 . S
C505 C501 1.495 . S
C505 H511 0.959 . S
C505 H512 0.961 . S
C505 H513 0.960 . S
C506 C504 1.381 . S
C506 C507 1.394 . S
C506 H514 0.930 . S
C507 C506 1.394 . S
C507 C508 1.383 . S
C507 H515 0.929 . S
C508 C507 1.383 . S
C508 C509 1.377 . S
C509 H493 0.930 . S
C509 C508 1.377 . S
C509 C510 1.379 . S
C510 H494 0.931 . S
C510 C504 1.383 . S
C510 C509 1.379 . S
H511 C505 0.959 . S
H512 C505 0.961 . S
H513 C505 0.960 . S
H514 C506 0.930 . S
H515 C507 0.929 . S
H516 C524 0.929 . S
H517 C526 0.930 . S
H518 C528 0.930 . S
H519 C531 0.929 . S
H520 C534 0.930 . S
H521 C536 0.960 . S
H522 C536 0.960 . S
H523 C536 0.960 . S
C524 H516 0.929 . S
C524 C525 1.377 . S
C524 C526 1.384 . S
C525 C524 1.377 . S
C525 C531 1.390 . S
C526 H517 0.930 . S
C526 C524 1.384 . S
C526 C527 1.372 . S
C527 C526 1.372 . S
C527 C528 1.400 . S
C527 C532 1.490 . S
C528 H518 0.930 . S
C528 C527 1.400 . S
C528 C531 1.386 . S
H529 C545 0.930 . S
H530 C546 0.931 . S
C531 H519 0.929 . S
C531 C525 1.390 . S
C531 C528 1.386 . S
C532 C527 1.490 . S
C532 C534 1.395 . S
C532 C535 1.403 . S
H533 C539 0.930 . S
C534 H520 0.930 . S
C534 C532 1.395 . S
C534 C537 1.403 . S
C535 C532 1.403 . S
C535 C536 1.524 . S
C535 C539 1.400 . S
C536 H521 0.960 . S
C536 H522 0.960 . S
C536 H523 0.960 . S
C536 C535 1.524 . S
C537 C534 1.403 . S
C537 C538 1.392 . S
C537 C541 1.495 . S
C538 C537 1.392 . S
C538 C539 1.385 . S
C538 C540 1.478 . S
C539 H533 0.930 . S
C539 C535 1.400 . S
C539 C538 1.385 . S
C540 C538 1.478 . S
C540 C542 1.381 . S
C540 C546 1.383 . S
C541 C537 1.495 . S
C541 H547 0.959 . S
C541 H548 0.961 . S
C541 H549 0.960 . S
C542 C540 1.381 . S
C542 C543 1.394 . S
C542 H550 0.930 . S
C543 C542 1.394 . S
C543 C544 1.383 . S
C543 H551 0.929 . S
C544 C543 1.383 . S
C544 C545 1.377 . S
C545 H529 0.930 . S
C545 C544 1.377 . S
C545 C546 1.379 . S
C546 H530 0.931 . S
C546 C540 1.383 . S
C546 C545 1.379 . S
H547 C541 0.959 . S
H548 C541 0.961 . S
H549 C541 0.960 . S
H550 C542 0.930 . S
H551 C543 0.929 . S
H552 C560 0.929 . S
H553 C562 0.930 . S
H554 C564 0.930 . S
H555 C567 0.929 . S
H556 C570 0.930 . S
H557 C572 0.960 . S
H558 C572 0.960 . S
H559 C572 0.960 . S
C560 H552 0.929 . S
C560 C561 1.377 . S
C560 C562 1.384 . S
C561 C560 1.377 . S
C561 C567 1.390 . S
C562 H553 0.930 . S
C562 C560 1.384 . S
C562 C563 1.372 . S
C563 C562 1.372 . S
C563 C564 1.400 . S
C563 C568 1.490 . S
C564 H554 0.930 . S
C564 C563 1.400 . S
C564 C567 1.386 . S
H565 C581 0.930 . S
H566 C582 0.931 . S
C567 H555 0.929 . S
C567 C561 1.390 . S
C567 C564 1.386 . S
C568 C563 1.490 . S
C568 C570 1.395 . S
C568 C571 1.403 . S
H569 C575 0.930 . S
C570 H556 0.930 . S
C570 C568 1.395 . S
C570 C573 1.403 . S
C571 C568 1.403 . S
C571 C572 1.524 . S
C571 C575 1.400 . S
C572 H557 0.960 . S
C572 H558 0.960 . S
C572 H559 0.960 . S
C572 C571 1.524 . S
C573 C570 1.403 . S
C573 C574 1.392 . S
C573 C577 1.495 . S
C574 C573 1.392 . S
C574 C575 1.385 . S
C574 C576 1.478 . S
C575 H569 0.930 . S
C575 C571 1.400 . S
C575 C574 1.385 . S
C576 C574 1.478 . S
C576 C578 1.381 . S
C576 C582 1.383 . S
C577 C573 1.495 . S
C577 H583 0.959 . S
C577 H584 0.961 . S
C577 H585 0.960 . S
C578 C576 1.381 . S
C578 C579 1.394 . S
C578 H586 0.930 . S
C579 C578 1.394 . S
C579 C580 1.383 . S
C579 H587 0.929 . S
C580 C579 1.383 . S
C580 C581 1.377 . S
C581 H565 0.930 . S
C581 C580 1.377 . S
C581 C582 1.379 . S
C582 H566 0.931 . S
C582 C576 1.383 . S
C582 C581 1.379 . S
H583 C577 0.959 . S
H584 C577 0.961 . S
H585 C577 0.960 . S
H586 C578 0.930 . S
H587 C579 0.929 . S
H588 C596 0.929 . S
H589 C598 0.930 . S
H590 C600 0.930 . S
H591 C603 0.929 . S
H592 C606 0.930 . S
H593 C608 0.960 . S
H594 C608 0.960 . S
H595 C608 0.960 . S
C596 H588 0.929 . S
C596 C597 1.377 . S
C596 C598 1.384 . S
C597 C596 1.377 . S
C597 C603 1.390 . S
C598 H589 0.930 . S
C598 C596 1.384 . S
C598 C599 1.372 . S
C599 C598 1.372 . S
C599 C600 1.400 . S
C599 C604 1.490 . S
C600 H590 0.930 . S
C600 C599 1.400 . S
C600 C603 1.386 . S
H601 C617 0.930 . S
H602 C618 0.931 . S
C603 H591 0.929 . S
C603 C597 1.390 . S
C603 C600 1.386 . S
C604 C599 1.490 . S
C604 C606 1.395 . S
C604 C607 1.403 . S
H605 C611 0.930 . S
C606 H592 0.930 . S
C606 C604 1.395 . S
C606 C609 1.403 . S
C607 C604 1.403 . S
C607 C608 1.524 . S
C607 C611 1.400 . S
C608 H593 0.960 . S
C608 H594 0.960 . S
C608 H595 0.960 . S
C608 C607 1.524 . S
C609 C606 1.403 . S
C609 C610 1.392 . S
C609 C613 1.495 . S
C610 C609 1.392 . S
C610 C611 1.385 . S
C610 C612 1.478 . S
C611 H605 0.930 . S
C611 C607 1.400 . S
C611 C610 1.385 . S
C612 C610 1.478 . S
C612 C614 1.381 . S
C612 C618 1.383 . S
C613 C609 1.495 . S
C613 H619 0.959 . S
C613 H620 0.961 . S
C613 H621 0.960 . S
C614 C612 1.381 . S
C614 C615 1.394 . S
C614 H622 0.930 . S
C615 C614 1.394 . S
C615 C616 1.383 . S
C615 H623 0.929 . S
C616 C615 1.383 . S
C616 C617 1.377 . S
C617 H601 0.930 . S
C617 C616 1.377 . S
C617 C618 1.379 . S
C618 H602 0.931 . S
C618 C612 1.383 . S
C618 C617 1.379 . S
H619 C613 0.959 . S
H620 C613 0.961 . S
H621 C613 0.960 . S
H622 C614 0.930 . S
H623 C615 0.929 . S
H624 C632 0.929 . S
H625 C634 0.930 . S
H626 C636 0.930 . S
H627 C639 0.929 . S
H628 C642 0.930 . S
H629 C644 0.960 . S
H630 C644 0.960 . S
H631 C644 0.960 . S
C632 H624 0.929 . S
C632 C633 1.377 . S
C632 C634 1.384 . S
C633 C632 1.377 . S
C633 C639 1.390 . S
C634 H625 0.930 . S
C634 C632 1.384 . S
C634 C635 1.372 . S
C635 C634 1.372 . S
C635 C636 1.400 . S
C635 C640 1.490 . S
C636 H626 0.930 . S
C636 C635 1.400 . S
C636 C639 1.386 . S
H637 C653 0.930 . S
H638 C654 0.931 . S
C639 H627 0.929 . S
C639 C633 1.390 . S
C639 C636 1.386 . S
C640 C635 1.490 . S
C640 C642 1.395 . S
C640 C643 1.403 . S
H641 C647 0.930 . S
C642 H628 0.930 . S
C642 C640 1.395 . S
C642 C645 1.403 . S
C643 C640 1.403 . S
C643 C644 1.524 . S
C643 C647 1.400 . S
C644 H629 0.960 . S
C644 H630 0.960 . S
C644 H631 0.960 . S
C644 C643 1.524 . S
C645 C642 1.403 . S
C645 C646 1.392 . S
C645 C649 1.495 . S
C646 C645 1.392 . S
C646 C647 1.385 . S
C646 C648 1.478 . S
C647 H641 0.930 . S
C647 C643 1.400 . S
C647 C646 1.385 . S
C648 C646 1.478 . S
C648 C650 1.381 . S
C648 C654 1.383 . S
C649 C645 1.495 . S
C649 H655 0.959 . S
C649 H656 0.961 . S
C649 H657 0.960 . S
C650 C648 1.381 . S
C650 C651 1.394 . S
C650 H658 0.930 . S
C651 C650 1.394 . S
C651 C652 1.383 . S
C651 H659 0.929 . S
C652 C651 1.383 . S
C652 C653 1.377 . S
C653 H637 0.930 . S
C653 C652 1.377 . S
C653 C654 1.379 . S
C654 H638 0.931 . S
C654 C648 1.383 . S
C654 C653 1.379 . S
H655 C649 0.959 . S
H656 C649 0.961 . S
H657 C649 0.960 . S
H658 C650 0.930 . S
H659 C651 0.929 . S
H660 C668 0.929 . S
H661 C670 0.930 . S
H662 C672 0.930 . S
H663 C675 0.929 . S
H664 C678 0.930 . S
H665 C680 0.960 . S
H666 C680 0.960 . S
H667 C680 0.960 . S
C668 H660 0.929 . S
C668 C669 1.377 . S
C668 C670 1.384 . S
C669 C668 1.377 . S
C669 C675 1.390 . S
C670 H661 0.930 . S
C670 C668 1.384 . S
C670 C671 1.372 . S
C671 C670 1.372 . S
C671 C672 1.400 . S
C671 C676 1.490 . S
C672 H662 0.930 . S
C672 C671 1.400 . S
C672 C675 1.386 . S
H673 C689 0.930 . S
H674 C690 0.931 . S
C675 H663 0.929 . S
C675 C669 1.390 . S
C675 C672 1.386 . S
C676 C671 1.490 . S
C676 C678 1.395 . S
C676 C679 1.403 . S
H677 C683 0.930 . S
C678 H664 0.930 . S
C678 C676 1.395 . S
C678 C681 1.403 . S
C679 C676 1.403 . S
C679 C680 1.524 . S
C679 C683 1.400 . S
C680 H665 0.960 . S
C680 H666 0.960 . S
C680 H667 0.960 . S
C680 C679 1.524 . S
C681 C678 1.403 . S
C681 C682 1.392 . S
C681 C685 1.495 . S
C682 C681 1.392 . S
C682 C683 1.385 . S
C682 C684 1.478 . S
C683 H677 0.930 . S
C683 C679 1.400 . S
C683 C682 1.385 . S
C684 C682 1.478 . S
C684 C686 1.381 . S
C684 C690 1.383 . S
C685 C681 1.495 . S
C685 H691 0.959 . S
C685 H692 0.961 . S
C685 H693 0.960 . S
C686 C684 1.381 . S
C686 C687 1.394 . S
C686 H694 0.930 . S
C687 C686 1.394 . S
C687 C688 1.383 . S
C687 H695 0.929 . S
C688 C687 1.383 . S
C688 C689 1.377 . S
C689 H673 0.930 . S
C689 C688 1.377 . S
C689 C690 1.379 . S
C690 H674 0.931 . S
C690 C684 1.383 . S
C690 C689 1.379 . S
H691 C685 0.959 . S
H692 C685 0.961 . S
H693 C685 0.960 . S
H694 C686 0.930 . S
H695 C687 0.929 . S
H696 C704 0.929 . S
H697 C706 0.930 . S
H698 C708 0.930 . S
H699 C711 0.929 . S
H700 C714 0.930 . S
H701 C716 0.960 . S
H702 C716 0.960 . S
H703 C716 0.960 . S
C704 H696 0.929 . S
C704 C705 1.377 . S
C704 C706 1.384 . S
C705 C704 1.377 . S
C705 C711 1.390 . S
C706 H697 0.930 . S
C706 C704 1.384 . S
C706 C707 1.372 . S
C707 C706 1.372 . S
C707 C708 1.400 . S
C707 C712 1.490 . S
C708 H698 0.930 . S
C708 C707 1.400 . S
C708 C711 1.386 . S
H709 C725 0.930 . S
H710 C726 0.931 . S
C711 H699 0.929 . S
C711 C705 1.390 . S
C711 C708 1.386 . S
C712 C707 1.490 . S
C712 C714 1.395 . S
C712 C715 1.403 . S
H713 C719 0.930 . S
C714 H700 0.930 . S
C714 C712 1.395 . S
C714 C717 1.403 . S
C715 C712 1.403 . S
C715 C716 1.524 . S
C715 C719 1.400 . S
C716 H701 0.960 . S
C716 H702 0.960 . S
C716 H703 0.960 . S
C716 C715 1.524 . S
C717 C714 1.403 . S
C717 C718 1.392 1_565 S
C717 C721 1.495 1_565 S
C718 C717 1.392 1_545 S
C718 C719 1.385 1_545 S
C718 C720 1.478 . S
C719 H713 0.930 . S
C719 C715 1.400 . S
C719 C718 1.385 1_565 S
C720 C718 1.478 . S
C720 C722 1.381 . S
C720 C726 1.383 . S
C721 C717 1.495 1_545 S
C721 H727 0.959 1_545 S
C721 H728 0.961 . S
C721 H729 0.960 . S
C722 C720 1.381 . S
C722 C723 1.394 . S
C722 H730 0.930 . S
C723 C722 1.394 . S
C723 C724 1.383 . S
C723 H731 0.929 . S
C724 C723 1.383 . S
C724 C725 1.377 . S
C725 H709 0.930 . S
C725 C724 1.377 . S
C725 C726 1.379 . S
C726 H710 0.931 . S
C726 C720 1.383 . S
C726 C725 1.379 . S
H727 C721 0.959 1_565 S
H728 C721 0.961 . S
H729 C721 0.960 . S
H730 C722 0.930 . S
H731 C723 0.929 . S
H732 C740 0.929 . S
H733 C742 0.930 . S
H734 C744 0.930 . S
H735 C747 0.929 . S
H736 C750 0.930 . S
H737 C752 0.960 . S
H738 C752 0.960 . S
H739 C752 0.960 . S
C740 H732 0.929 . S
C740 C741 1.377 . S
C740 C742 1.384 . S
C741 C740 1.377 . S
C741 C747 1.390 . S
C742 H733 0.930 . S
C742 C740 1.384 . S
C742 C743 1.372 . S
C743 C742 1.372 . S
C743 C744 1.400 . S
C743 C748 1.490 . S
C744 H734 0.930 . S
C744 C743 1.400 . S
C744 C747 1.386 . S
H745 C761 0.930 . S
H746 C762 0.931 . S
C747 H735 0.929 . S
C747 C741 1.390 . S
C747 C744 1.386 . S
C748 C743 1.490 . S
C748 C750 1.395 . S
C748 C751 1.403 . S
H749 C755 0.930 . S
C750 H736 0.930 . S
C750 C748 1.395 . S
C750 C753 1.403 . S
C751 C748 1.403 . S
C751 C752 1.524 . S
C751 C755 1.400 . S
C752 H737 0.960 . S
C752 H738 0.960 . S
C752 H739 0.960 . S
C752 C751 1.524 . S
C753 C750 1.403 . S
C753 C754 1.392 . S
C753 C757 1.495 . S
C754 C753 1.392 . S
C754 C755 1.385 . S
C754 C756 1.478 . S
C755 H749 0.930 . S
C755 C751 1.400 . S
C755 C754 1.385 . S
C756 C754 1.478 . S
C756 C758 1.381 . S
C756 C762 1.383 . S
C757 C753 1.495 . S
C757 H763 0.959 . S
C757 H764 0.961 . S
C757 H765 0.960 . S
C758 C756 1.381 . S
C758 C759 1.394 . S
C758 H766 0.930 . S
C759 C758 1.394 . S
C759 C760 1.383 . S
C759 H767 0.929 . S
C760 C759 1.383 . S
C760 C761 1.377 . S
C761 H745 0.930 . S
C761 C760 1.377 . S
C761 C762 1.379 . S
C762 H746 0.931 . S
C762 C756 1.383 . S
C762 C761 1.379 . S
H763 C757 0.959 . S
H764 C757 0.961 . S
H765 C757 0.960 . S
H766 C758 0.930 . S
H767 C759 0.929 . S
H768 C776 0.929 . S
H769 C778 0.930 . S
H770 C780 0.930 . S
H771 C783 0.929 . S
H772 C786 0.930 . S
H773 C788 0.960 . S
H774 C788 0.960 1_554 S
H775 C788 0.960 . S
C776 H768 0.929 . S
C776 C777 1.377 . S
C776 C778 1.384 . S
C777 C776 1.377 . S
C777 C783 1.390 . S
C778 H769 0.930 . S
C778 C776 1.384 . S
C778 C779 1.372 . S
C779 C778 1.372 . S
C779 C780 1.400 . S
C779 C784 1.490 . S
C780 H770 0.930 . S
C780 C779 1.400 . S
C780 C783 1.386 . S
H781 C797 0.930 . S
H782 C798 0.931 . S
C783 H771 0.929 . S
C783 C777 1.390 . S
C783 C780 1.386 . S
C784 C779 1.490 . S
C784 C786 1.395 . S
C784 C787 1.403 1_554 S
H785 C791 0.930 . S
C786 H772 0.930 . S
C786 C784 1.395 . S
C786 C789 1.403 1_554 S
C787 C784 1.403 1_556 S
C787 C788 1.524 . S
C787 C791 1.400 . S
C788 H773 0.960 . S
C788 H774 0.960 1_556 S
C788 H775 0.960 . S
C788 C787 1.524 . S
C789 C786 1.403 1_556 S
C789 C790 1.392 . S
C789 C793 1.495 . S
C790 C789 1.392 . S
C790 C791 1.385 . S
C790 C792 1.478 . S
C791 H785 0.930 . S
C791 C787 1.400 . S
C791 C790 1.385 . S
C792 C790 1.478 . S
C792 C794 1.381 . S
C792 C798 1.383 . S
C793 C789 1.495 . S
C793 H799 0.959 1_556 S
C793 H800 0.961 . S
C793 H801 0.960 . S
C794 C792 1.381 . S
C794 C795 1.394 . S
C794 H802 0.930 . S
C795 C794 1.394 . S
C795 C796 1.383 . S
C795 H803 0.929 . S
C796 C795 1.383 . S
C796 C797 1.377 . S
C797 H781 0.930 . S
C797 C796 1.377 . S
C797 C798 1.379 . S
C798 H782 0.931 . S
C798 C792 1.383 . S
C798 C797 1.379 . S
H799 C793 0.959 1_554 S
H800 C793 0.961 . S
H801 C793 0.960 . S
H802 C794 0.930 . S
H803 C795 0.929 . S
H804 C812 0.929 . S
H805 C814 0.930 . S
H806 C816 0.930 . S
H807 C819 0.929 . S
H808 C822 0.930 . S
H809 C824 0.960 . S
H810 C824 0.960 . S
H811 C824 0.960 . S
C812 H804 0.929 . S
C812 C813 1.377 . S
C812 C814 1.384 . S
C813 C812 1.377 . S
C813 C819 1.390 . S
C814 H805 0.930 . S
C814 C812 1.384 . S
C814 C815 1.372 . S
C815 C814 1.372 . S
C815 C816 1.400 . S
C815 C820 1.490 . S
C816 H806 0.930 . S
C816 C815 1.400 . S
C816 C819 1.386 . S
H817 C833 0.930 . S
H818 C834 0.931 . S
C819 H807 0.929 . S
C819 C813 1.390 . S
C819 C816 1.386 . S
C820 C815 1.490 . S
C820 C822 1.395 . S
C820 C823 1.403 1_554 S
H821 C827 0.930 . S
C822 H808 0.930 . S
C822 C820 1.395 . S
C822 C825 1.403 1_554 S
C823 C820 1.403 1_556 S
C823 C824 1.524 . S
C823 C827 1.400 . S
C824 H809 0.960 . S
C824 H810 0.960 . S
C824 H811 0.960 . S
C824 C823 1.524 . S
C825 C822 1.403 1_556 S
C825 C826 1.392 . S
C825 C829 1.495 . S
C826 C825 1.392 . S
C826 C827 1.385 . S
C826 C828 1.478 . S
C827 H821 0.930 . S
C827 C823 1.400 . S
C827 C826 1.385 . S
C828 C826 1.478 . S
C828 C830 1.381 . S
C828 C834 1.383 . S
C829 C825 1.495 . S
C829 H835 0.959 1_556 S
C829 H836 0.961 . S
C829 H837 0.960 . S
C830 C828 1.381 . S
C830 C831 1.394 . S
C830 H838 0.930 . S
C831 C830 1.394 . S
C831 C832 1.383 . S
C831 H839 0.929 . S
C832 C831 1.383 . S
C832 C833 1.377 . S
C833 H817 0.930 . S
C833 C832 1.377 . S
C833 C834 1.379 . S
C834 H818 0.931 . S
C834 C828 1.383 . S
C834 C833 1.379 . S
H835 C829 0.959 1_554 S
H836 C829 0.961 . S
H837 C829 0.960 . S
H838 C830 0.930 . S
H839 C831 0.929 . S
H840 C848 0.929 . S
H841 C850 0.930 . S
H842 C852 0.930 . S
H843 C855 0.929 . S
H844 C858 0.930 . S
H845 C860 0.960 . S
H846 C860 0.960 . S
H847 C860 0.960 . S
C848 H840 0.929 . S
C848 C849 1.377 . S
C848 C850 1.384 . S
C849 C848 1.377 . S
C849 C855 1.390 . S
C850 H841 0.930 . S
C850 C848 1.384 . S
C850 C851 1.372 . S
C851 C850 1.372 . S
C851 C852 1.400 . S
C851 C856 1.490 . S
C852 H842 0.930 . S
C852 C851 1.400 . S
C852 C855 1.386 . S
H853 C869 0.930 . S
H854 C870 0.931 . S
C855 H843 0.929 . S
C855 C849 1.390 . S
C855 C852 1.386 . S
C856 C851 1.490 . S
C856 C858 1.395 . S
C856 C859 1.403 . S
H857 C863 0.930 . S
C858 H844 0.930 . S
C858 C856 1.395 . S
C858 C861 1.403 . S
C859 C856 1.403 . S
C859 C860 1.524 . S
C859 C863 1.400 . S
C860 H845 0.960 . S
C860 H846 0.960 . S
C860 H847 0.960 . S
C860 C859 1.524 . S
C861 C858 1.403 . S
C861 C862 1.392 . S
C861 C865 1.495 . S
C862 C861 1.392 . S
C862 C863 1.385 . S
C862 C864 1.478 . S
C863 H857 0.930 . S
C863 C859 1.400 . S
C863 C862 1.385 . S
C864 C862 1.478 . S
C864 C866 1.381 . S
C864 C870 1.383 . S
C865 C861 1.495 . S
C865 H871 0.959 . S
C865 H872 0.961 . S
C865 H873 0.960 . S
C866 C864 1.381 . S
C866 C867 1.394 . S
C866 H874 0.930 . S
C867 C866 1.394 . S
C867 C868 1.383 . S
C867 H875 0.929 . S
C868 C867 1.383 . S
C868 C869 1.377 . S
C869 H853 0.930 . S
C869 C868 1.377 . S
C869 C870 1.379 . S
C870 H854 0.931 . S
C870 C864 1.383 . S
C870 C869 1.379 . S
H871 C865 0.959 . S
H872 C865 0.961 . S
H873 C865 0.960 . S
H874 C866 0.930 . S
H875 C867 0.929 . S
H876 C884 0.929 . S
H877 C886 0.930 . S
H878 C888 0.930 . S
H879 C891 0.929 . S
H880 C894 0.930 . S
H881 C896 0.960 . S
H882 C896 0.960 . S
H883 C896 0.960 . S
C884 H876 0.929 . S
C884 C885 1.377 . S
C884 C886 1.384 . S
C885 C884 1.377 . S
C885 C891 1.390 . S
C886 H877 0.930 . S
C886 C884 1.384 . S
C886 C887 1.372 . S
C887 C886 1.372 . S
C887 C888 1.400 . S
C887 C892 1.490 . S
C888 H878 0.930 . S
C888 C887 1.400 . S
C888 C891 1.386 . S
H889 C905 0.930 . S
H890 C906 0.931 . S
C891 H879 0.929 . S
C891 C885 1.390 . S
C891 C888 1.386 . S
C892 C887 1.490 . S
C892 C894 1.395 . S
C892 C895 1.403 . S
H893 C899 0.930 . S
C894 H880 0.930 . S
C894 C892 1.395 . S
C894 C897 1.403 . S
C895 C892 1.403 . S
C895 C896 1.524 . S
C895 C899 1.400 . S
C896 H881 0.960 . S
C896 H882 0.960 . S
C896 H883 0.960 . S
C896 C895 1.524 . S
C897 C894 1.403 . S
C897 C898 1.392 . S
C897 C901 1.495 . S
C898 C897 1.392 . S
C898 C899 1.385 . S
C898 C900 1.478 . S
C899 H893 0.930 . S
C899 C895 1.400 . S
C899 C898 1.385 . S
C900 C898 1.478 . S
C900 C902 1.381 . S
C900 C906 1.383 . S
C901 C897 1.495 . S
C901 H907 0.959 . S
C901 H908 0.961 . S
C901 H909 0.960 . S
C902 C900 1.381 . S
C902 C903 1.394 . S
C902 H910 0.930 . S
C903 C902 1.394 . S
C903 C904 1.383 . S
C903 H911 0.929 . S
C904 C903 1.383 . S
C904 C905 1.377 . S
C905 H889 0.930 . S
C905 C904 1.377 . S
C905 C906 1.379 . S
C906 H890 0.931 . S
C906 C900 1.383 . S
C906 C905 1.379 . S
H907 C901 0.959 . S
H908 C901 0.961 . S
H909 C901 0.960 . S
H910 C902 0.930 . S
H911 C903 0.929 . S
H912 C920 0.929 . S
H913 C922 0.930 . S
H914 C924 0.930 . S
H915 C927 0.929 . S
H916 C930 0.930 . S
H917 C932 0.960 . S
H918 C932 0.960 . S
H919 C932 0.960 . S
C920 H912 0.929 . S
C920 C921 1.377 . S
C920 C922 1.384 . S
C921 C920 1.377 . S
C921 C927 1.390 . S
C922 H913 0.930 . S
C922 C920 1.384 . S
C922 C923 1.372 . S
C923 C922 1.372 . S
C923 C924 1.400 . S
C923 C928 1.490 . S
C924 H914 0.930 . S
C924 C923 1.400 . S
C924 C927 1.386 . S
H925 C941 0.930 . S
H926 C942 0.931 . S
C927 H915 0.929 . S
C927 C921 1.390 . S
C927 C924 1.386 . S
C928 C923 1.490 . S
C928 C930 1.395 1_455 S
C928 C931 1.405 . S
H929 C935 0.930 . S
C930 H916 0.930 . S
C930 C928 1.395 1_655 S
C930 C933 1.403 . S
C931 C928 1.405 . S
C931 C932 1.537 . S
C931 C935 1.383 1_455 S
C932 H917 0.960 . S
C932 H918 0.960 . S
C932 H919 0.960 . S
C932 C931 1.537 . S
C933 C930 1.403 . S
C933 C934 1.392 . S
C933 C937 1.495 . S
C934 C933 1.392 . S
C934 C935 1.385 . S
C934 C936 1.478 . S
C935 H929 0.930 . S
C935 C931 1.383 1_655 S
C935 C934 1.385 . S
C936 C934 1.478 . S
C936 C938 1.381 . S
C936 C942 1.383 . S
C937 C933 1.495 . S
C937 H943 0.959 . S
C937 H944 0.961 . S
C937 H945 0.960 . S
C938 C936 1.381 . S
C938 C939 1.394 . S
C938 H946 0.930 . S
C939 C938 1.394 . S
C939 C940 1.383 . S
C939 H947 0.929 . S
C940 C939 1.383 . S
C940 C941 1.377 . S
C941 H925 0.930 . S
C941 C940 1.377 . S
C941 C942 1.379 . S
C942 H926 0.931 . S
C942 C936 1.383 . S
C942 C941 1.379 . S
H943 C937 0.959 . S
H944 C937 0.961 . S
H945 C937 0.960 . S
H946 C938 0.930 . S
H947 C939 0.929 . S
H948 C956 0.929 . S
H949 C958 0.930 . S
H950 C960 0.930 . S
H951 C963 0.929 . S
H952 C966 0.930 . S
H953 C968 0.960 . S
H954 C968 0.960 . S
H955 C968 0.960 1_655 S
C956 H948 0.929 . S
C956 C957 1.377 . S
C956 C958 1.384 . S
C957 C956 1.377 . S
C957 C963 1.390 . S
C958 H949 0.930 . S
C958 C956 1.384 . S
C958 C959 1.372 . S
C959 C958 1.372 . S
C959 C960 1.400 . S
C959 C964 1.490 . S
C960 H950 0.930 . S
C960 C959 1.400 . S
C960 C963 1.386 . S
H961 C977 0.930 . S
H962 C978 0.931 . S
C963 H951 0.929 . S
C963 C957 1.390 . S
C963 C960 1.386 . S
C964 C959 1.490 . S
C964 C966 1.395 . S
C964 C967 1.403 1_655 S
H965 C971 0.930 . S
C966 H952 0.930 . S
C966 C964 1.395 . S
C966 C969 1.403 1_655 S
C967 C964 1.403 1_455 S
C967 C968 1.524 . S
C967 C971 1.400 . S
C968 H953 0.960 . S
C968 H954 0.960 . S
C968 H955 0.960 1_455 S
C968 C967 1.524 . S
C969 C966 1.403 1_455 S
C969 C970 1.392 . S
C969 C973 1.495 . S
C970 C969 1.392 . S
C970 C971 1.385 . S
C970 C972 1.478 . S
C971 H965 0.930 . S
C971 C967 1.400 . S
C971 C970 1.385 . S
C972 C970 1.478 . S
C972 C974 1.381 . S
C972 C978 1.383 . S
C973 C969 1.495 . S
C973 H979 0.959 . S
C973 H980 0.961 . S
C973 H981 0.960 . S
C974 C972 1.381 . S
C974 C975 1.394 . S
C974 H982 0.930 . S
C975 C974 1.394 . S
C975 C976 1.383 . S
C975 H983 0.929 . S
C976 C975 1.383 . S
C976 C977 1.377 . S
C977 H961 0.930 . S
C977 C976 1.377 . S
C977 C978 1.379 . S
C978 H962 0.931 . S
C978 C972 1.383 . S
C978 C977 1.379 . S
H979 C973 0.959 . S
H980 C973 0.961 . S
H981 C973 0.960 . S
H982 C974 0.930 . S
H983 C975 0.929 . S
H984 C992 0.929 . S
H985 C994 0.930 . S
H986 C996 0.930 . S
H987 C999 0.929 . S
H988 C1002 0.930 . S
H989 C1004 0.960 . S
H990 C1004 0.960 . S
H991 C1004 0.960 . S
C992 H984 0.929 . S
C992 C993 1.377 . S
C992 C994 1.384 . S
C993 C992 1.377 . S
C993 C999 1.390 . S
C994 H985 0.930 . S
C994 C992 1.384 . S
C994 C995 1.372 . S
C995 C994 1.372 . S
C995 C996 1.400 . S
C995 C1000 1.490 . S
C996 H986 0.930 . S
C996 C995 1.400 . S
C996 C999 1.386 . S
H997 C1013 0.930 . S
H998 C1014 0.931 . S
C999 H987 0.929 . S
C999 C993 1.390 . S
C999 C996 1.386 . S
C1000 C995 1.490 . S
C1000 C1002 1.395 1_455 S
C1000 C1003 1.400 1_455 S
H1001 C1007 0.930 . S
C1002 H988 0.930 . S
C1002 C1000 1.395 1_655 S
C1002 C1005 1.403 . S
C1003 C1000 1.400 1_655 S
C1003 C1004 1.495 1_655 S
C1003 C1007 1.434 . S
C1004 H989 0.960 . S
C1004 H990 0.960 . S
C1004 H991 0.960 . S
C1004 C1003 1.495 1_455 S
C1005 C1002 1.403 . S
C1005 C1006 1.392 . S
C1005 C1009 1.495 . S
C1006 C1005 1.392 . S
C1006 C1007 1.385 . S
C1006 C1008 1.478 . S
C1007 H1001 0.930 . S
C1007 C1003 1.434 . S
C1007 C1006 1.385 . S
C1008 C1006 1.478 . S
C1008 C1010 1.381 . S
C1008 C1014 1.383 . S
C1009 C1005 1.495 . S
C1009 H1015 0.959 . S
C1009 H1016 0.961 . S
C1009 H1017 0.960 . S
C1010 C1008 1.381 . S
C1010 C1011 1.394 . S
C1010 H1018 0.930 . S
C1011 C1010 1.394 . S
C1011 C1012 1.383 . S
C1011 H1019 0.929 . S
C1012 C1011 1.383 . S
C1012 C1013 1.377 . S
C1013 H997 0.930 . S
C1013 C1012 1.377 . S
C1013 C1014 1.379 . S
C1014 H998 0.931 . S
C1014 C1008 1.383 . S
C1014 C1013 1.379 . S
H1015 C1009 0.959 . S
H1016 C1009 0.961 . S
H1017 C1009 0.960 . S
H1018 C1010 0.930 . S
H1019 C1011 0.929 . S
H1020 C1028 0.929 . S
H1021 C1030 0.930 . S
H1022 C1032 0.930 . S
H1023 C1035 0.929 . S
H1024 C1038 0.930 . S
H1025 C1040 0.960 . S
H1026 C1040 0.960 . S
H1027 C1040 0.960 . S
C1028 H1020 0.929 . S
C1028 C1029 1.377 . S
C1028 C1030 1.384 . S
C1029 C1028 1.377 . S
C1029 C1035 1.390 . S
C1030 H1021 0.930 . S
C1030 C1028 1.384 . S
C1030 C1031 1.372 . S
C1031 C1030 1.372 . S
C1031 C1032 1.400 . S
C1031 C1036 1.490 . S
C1032 H1022 0.930 . S
C1032 C1031 1.400 . S
C1032 C1035 1.386 . S
H1033 C1049 0.930 . S
H1034 C1050 0.931 . S
C1035 H1023 0.929 . S
C1035 C1029 1.390 . S
C1035 C1032 1.386 . S
C1036 C1031 1.490 . S
C1036 C1038 1.395 . S
C1036 C1039 1.403 . S
H1037 C1043 0.930 . S
C1038 H1024 0.930 . S
C1038 C1036 1.395 . S
C1038 C1041 1.403 . S
C1039 C1036 1.403 . S
C1039 C1040 1.524 . S
C1039 C1043 1.400 1_455 S
C1040 H1025 0.960 . S
C1040 H1026 0.960 . S
C1040 H1027 0.960 . S
C1040 C1039 1.524 . S
C1041 C1038 1.403 . S
C1041 C1042 1.392 1_455 S
C1041 C1045 1.495 . S
C1042 C1041 1.392 1_655 S
C1042 C1043 1.385 . S
C1042 C1044 1.478 . S
C1043 H1037 0.930 . S
C1043 C1039 1.400 1_655 S
C1043 C1042 1.385 . S
C1044 C1042 1.478 . S
C1044 C1046 1.381 . S
C1044 C1050 1.383 . S
C1045 C1041 1.495 . S
C1045 H1051 0.959 . S
C1045 H1052 0.961 . S
C1045 H1053 0.980 . S
C1046 C1044 1.381 . S
C1046 C1047 1.394 . S
C1046 H1054 0.930 . S
C1047 C1046 1.394 . S
C1047 C1048 1.383 . S
C1047 H1055 0.929 . S
C1048 C1047 1.383 . S
C1048 C1049 1.377 . S
C1049 H1033 0.930 . S
C1049 C1048 1.377 . S
C1049 C1050 1.379 . S
C1050 H1034 0.931 . S
C1050 C1044 1.383 . S
C1050 C1049 1.379 . S
H1051 C1045 0.959 . S
H1052 C1045 0.961 . S
H1053 C1045 0.980 . S
H1054 C1046 0.930 . S
H1055 C1047 0.929 . S
H1056 C1064 0.929 . S
H1057 C1066 0.930 . S
H1058 C1068 0.930 . S
H1059 C1071 0.929 . S
H1060 C1074 0.913 1_545 S
H1061 C1076 0.960 . S
H1062 C1076 0.960 . S
H1063 C1076 0.960 . S
C1064 H1056 0.929 . S
C1064 C1065 1.377 . S
C1064 C1066 1.384 . S
C1065 C1064 1.377 . S
C1065 C1071 1.390 . S
C1066 H1057 0.930 . S
C1066 C1064 1.384 . S
C1066 C1067 1.372 . S
C1067 C1066 1.372 . S
C1067 C1068 1.400 . S
C1067 C1072 1.490 . S
C1068 H1058 0.930 . S
C1068 C1067 1.400 . S
C1068 C1071 1.386 . S
H1069 C1085 0.930 . S
H1070 C1086 0.931 . S
C1071 H1059 0.929 . S
C1071 C1065 1.390 . S
C1071 C1068 1.386 . S
C1072 C1067 1.490 . S
C1072 C1074 1.392 1_545 S
C1072 C1075 1.403 1_545 S
H1073 C1079 0.930 . S
C1074 H1060 0.913 1_565 S
C1074 C1072 1.392 1_565 S
C1074 C1077 1.423 . S
C1075 C1072 1.403 1_565 S
C1075 C1076 1.524 . S
C1075 C1079 1.400 . S
C1076 H1061 0.960 . S
C1076 H1062 0.960 . S
C1076 H1063 0.960 . S
C1076 C1075 1.524 . S
C1077 C1074 1.423 . S
C1077 C1078 1.392 . S
C1077 C1081 1.495 . S
C1078 C1077 1.392 . S
C1078 C1079 1.385 . S
C1078 C1080 1.478 . S
C1079 H1073 0.930 . S
C1079 C1075 1.400 . S
C1079 C1078 1.385 . S
C1080 C1078 1.478 . S
C1080 C1082 1.381 . S
C1080 C1086 1.383 . S
C1081 C1077 1.495 . S
C1081 H1087 0.959 . S
C1081 H1088 0.961 . S
C1081 H1089 0.960 . S
C1082 C1080 1.381 . S
C1082 C1083 1.394 . S
C1082 H1090 0.930 . S
C1083 C1082 1.394 . S
C1083 C1084 1.383 . S
C1083 H1091 0.929 . S
C1084 C1083 1.383 . S
C1084 C1085 1.377 . S
C1085 H1069 0.930 . S
C1085 C1084 1.377 . S
C1085 C1086 1.379 . S
C1086 H1070 0.931 . S
C1086 C1080 1.383 . S
C1086 C1085 1.379 . S
H1087 C1081 0.959 . S
H1088 C1081 0.961 . S
H1089 C1081 0.960 . S
H1090 C1082 0.930 . S
H1091 C1083 0.929 . S
H1092 C1100 0.929 . S
H1093 C1102 0.930 . S
H1094 C1104 0.930 . S
H1095 C1107 0.929 . S
H1096 C1110 0.930 . S
H1097 C1112 0.960 . S
H1098 C1112 0.960 . S
H1099 C1112 0.960 . S
C1100 H1092 0.929 . S
C1100 C1101 1.377 . S
C1100 C1102 1.384 . S
C1101 C1100 1.377 . S
C1101 C1107 1.390 . S
C1102 H1093 0.930 . S
C1102 C1100 1.384 . S
C1102 C1103 1.372 . S
C1103 C1102 1.372 . S
C1103 C1104 1.400 . S
C1103 C1108 1.490 . S
C1104 H1094 0.930 . S
C1104 C1103 1.400 . S
C1104 C1107 1.386 . S
H1105 C1121 0.930 . S
H1106 C1122 0.931 . S
C1107 H1095 0.929 . S
C1107 C1101 1.390 . S
C1107 C1104 1.386 . S
C1108 C1103 1.490 . S
C1108 C1110 1.395 . S
C1108 C1111 1.403 . S
H1109 C1115 0.930 . S
C1110 H1096 0.930 . S
C1110 C1108 1.395 . S
C1110 C1113 1.403 1_545 S
C1111 C1108 1.403 . S
C1111 C1112 1.524 . S
C1111 C1115 1.400 . S
C1112 H1097 0.960 . S
C1112 H1098 0.960 . S
C1112 H1099 0.960 . S
C1112 C1111 1.524 . S
C1113 C1110 1.403 1_565 S
C1113 C1114 1.392 . S
C1113 C1117 1.495 . S
C1114 C1113 1.392 . S
C1114 C1115 1.385 1_565 S
C1114 C1116 1.478 . S
C1115 H1109 0.930 . S
C1115 C1111 1.400 . S
C1115 C1114 1.385 1_545 S
C1116 C1114 1.478 . S
C1116 C1118 1.381 . S
C1116 C1122 1.383 . S
C1117 C1113 1.495 . S
C1117 H1123 0.959 . S
C1117 H1124 0.961 . S
C1117 H1125 0.960 . S
C1118 C1116 1.381 . S
C1118 C1119 1.394 . S
C1118 H1126 0.930 . S
C1119 C1118 1.394 . S
C1119 C1120 1.383 . S
C1119 H1127 0.929 . S
C1120 C1119 1.383 . S
C1120 C1121 1.377 . S
C1121 H1105 0.930 . S
C1121 C1120 1.377 . S
C1121 C1122 1.379 . S
C1122 H1106 0.931 . S
C1122 C1116 1.383 . S
C1122 C1121 1.379 . S
H1123 C1117 0.959 . S
H1124 C1117 0.961 . S
H1125 C1117 0.960 . S
H1126 C1118 0.930 . S
H1127 C1119 0.929 . S
H1128 C1136 0.929 . S
H1129 C1138 0.930 . S
H1130 C1140 0.930 . S
H1131 C1143 0.929 . S
H1132 C1146 0.930 . S
H1133 C1148 0.960 . S
H1134 C1148 0.960 . S
H1135 C1148 0.960 . S
C1136 H1128 0.929 . S
C1136 C1137 1.377 . S
C1136 C1138 1.384 . S
C1137 C1136 1.377 . S
C1137 C1143 1.390 . S
C1138 H1129 0.930 . S
C1138 C1136 1.384 . S
C1138 C1139 1.372 . S
C1139 C1138 1.372 . S
C1139 C1140 1.400 . S
C1139 C1144 1.490 . S
C1140 H1130 0.930 . S
C1140 C1139 1.400 . S
C1140 C1143 1.386 . S
H1141 C1157 0.930 . S
H1142 C1158 0.931 . S
C1143 H1131 0.929 . S
C1143 C1137 1.390 . S
C1143 C1140 1.386 . S
C1144 C1139 1.490 . S
C1144 C1146 1.395 . S
C1144 C1147 1.403 . S
H1145 C1151 0.930 . S
C1146 H1132 0.930 . S
C1146 C1144 1.395 . S
C1146 C1149 1.403 . S
C1147 C1144 1.403 . S
C1147 C1148 1.524 . S
C1147 C1151 1.400 . S
C1148 H1133 0.960 . S
C1148 H1134 0.960 . S
C1148 H1135 0.960 . S
C1148 C1147 1.524 . S
C1149 C1146 1.403 . S
C1149 C1150 1.392 . S
C1149 C1153 1.495 . S
C1150 C1149 1.392 . S
C1150 C1151 1.385 . S
C1150 C1152 1.478 . S
C1151 H1145 0.930 . S
C1151 C1147 1.400 . S
C1151 C1150 1.385 . S
C1152 C1150 1.478 . S
C1152 C1154 1.381 . S
C1152 C1158 1.383 . S
C1153 C1149 1.495 . S
C1153 H1159 0.959 . S
C1153 H1160 0.961 . S
C1153 H1161 0.960 . S
C1154 C1152 1.381 . S
C1154 C1155 1.394 . S
C1154 H1162 0.930 . S
C1155 C1154 1.394 . S
C1155 C1156 1.383 . S
C1155 H1163 0.929 . S
C1156 C1155 1.383 . S
C1156 C1157 1.377 . S
C1157 H1141 0.930 . S
C1157 C1156 1.377 . S
C1157 C1158 1.379 . S
C1158 H1142 0.931 . S
C1158 C1152 1.383 . S
C1158 C1157 1.379 . S
H1159 C1153 0.959 . S
H1160 C1153 0.961 . S
H1161 C1153 0.960 . S
H1162 C1154 0.930 . S
H1163 C1155 0.929 . S
H1164 C1172 0.929 . S
H1165 C1174 0.930 . S
H1166 C1176 0.930 . S
H1167 C1179 0.929 . S
H1168 C1182 0.930 . S
H1169 C1184 0.960 . S
H1170 C1184 0.960 . S
H1171 C1184 0.960 . S
C1172 H1164 0.929 . S
C1172 C1173 1.377 . S
C1172 C1174 1.384 . S
C1173 C1172 1.377 . S
C1173 C1179 1.390 . S
C1174 H1165 0.930 . S
C1174 C1172 1.384 . S
C1174 C1175 1.372 . S
C1175 C1174 1.372 . S
C1175 C1176 1.400 . S
C1175 C1180 1.490 . S
C1176 H1166 0.930 . S
C1176 C1175 1.400 . S
C1176 C1179 1.386 . S
H1177 C1193 0.930 . S
H1178 C1194 0.931 . S
C1179 H1167 0.929 . S
C1179 C1173 1.390 . S
C1179 C1176 1.386 . S
C1180 C1175 1.490 . S
C1180 C1182 1.395 . S
C1180 C1183 1.403 . S
H1181 C1187 0.930 . S
C1182 H1168 0.930 . S
C1182 C1180 1.395 . S
C1182 C1185 1.453 . S
C1183 C1180 1.403 . S
C1183 C1184 1.524 . S
C1183 C1187 1.400 . S
C1184 H1169 0.960 . S
C1184 H1170 0.960 . S
C1184 H1171 0.960 . S
C1184 C1183 1.524 . S
C1185 C1182 1.453 . S
C1185 C1186 1.377 1_545 S
C1185 C1189 1.464 1_545 S
C1186 C1185 1.377 1_565 S
C1186 C1187 1.385 1_565 S
C1186 C1188 1.478 . S
C1187 H1181 0.930 . S
C1187 C1183 1.400 . S
C1187 C1186 1.385 1_545 S
C1188 C1186 1.478 . S
C1188 C1190 1.381 . S
C1188 C1194 1.383 . S
C1189 C1185 1.464 1_565 S
C1189 H1195 0.959 . S
C1189 H1196 0.961 . S
C1189 H1197 0.960 . S
C1190 C1188 1.381 . S
C1190 C1191 1.394 . S
C1190 H1198 0.930 . S
C1191 C1190 1.394 . S
C1191 C1192 1.383 . S
C1191 H1199 0.929 . S
C1192 C1191 1.383 . S
C1192 C1193 1.377 . S
C1193 H1177 0.930 . S
C1193 C1192 1.377 . S
C1193 C1194 1.379 . S
C1194 H1178 0.931 . S
C1194 C1188 1.383 . S
C1194 C1193 1.379 . S
H1195 C1189 0.959 . S
H1196 C1189 0.961 . S
H1197 C1189 0.960 . S
H1198 C1190 0.930 . S
H1199 C1191 0.929 . S
H1200 C1208 0.929 . S
H1201 C1210 0.930 . S
H1202 C1212 0.930 . S
H1203 C1215 0.929 . S
H1204 C1218 0.930 . S
H1205 C1220 0.960 . S
H1206 C1220 0.960 . S
H1207 C1220 0.960 . S
C1208 H1200 0.929 . S
C1208 C1209 1.377 . S
C1208 C1210 1.384 . S
C1209 C1208 1.377 . S
C1209 C1215 1.390 1_655 S
C1210 H1201 0.930 . S
C1210 C1208 1.384 . S
C1210 C1211 1.372 . S
C1211 C1210 1.372 . S
C1211 C1212 1.400 1_655 S
C1211 C1216 1.490 . S
C1212 H1202 0.930 . S
C1212 C1211 1.400 1_455 S
C1212 C1215 1.386 . S
H1213 C1229 0.930 . S
H1214 C1230 0.931 . S
C1215 H1203 0.929 . S
C1215 C1209 1.390 1_455 S
C1215 C1212 1.386 . S
C1216 C1211 1.490 . S
C1216 C1218 1.395 . S
C1216 C1219 1.403 1_655 S
H1217 C1223 0.930 . S
C1218 H1204 0.930 . S
C1218 C1216 1.395 . S
C1218 C1221 1.403 . S
C1219 C1216 1.403 1_455 S
C1219 C1220 1.524 . S
C1219 C1223 1.400 . S
C1220 H1205 0.960 . S
C1220 H1206 0.960 . S
C1220 H1207 0.960 . S
C1220 C1219 1.524 . S
C1221 C1218 1.403 . S
C1221 C1222 1.412 . S
C1221 C1225 1.495 . S
C1222 C1221 1.412 . S
C1222 C1223 1.367 1_655 S
C1222 C1224 1.475 1_655 S
C1223 H1217 0.930 . S
C1223 C1219 1.400 . S
C1223 C1222 1.367 1_455 S
C1224 C1222 1.475 1_455 S
C1224 C1226 1.381 1_455 S
C1224 C1230 1.383 . S
C1225 C1221 1.495 . S
C1225 H1231 0.959 . S
C1225 H1232 0.961 . S
C1225 H1233 0.960 . S
C1226 C1224 1.381 1_655 S
C1226 C1227 1.392 1_655 S
C1226 H1234 0.930 . S
C1227 C1226 1.392 1_455 S
C1227 C1228 1.390 . S
C1227 H1235 0.925 1_455 S
C1228 C1227 1.390 . S
C1228 C1229 1.377 . S
C1229 H1213 0.930 . S
C1229 C1228 1.377 . S
C1229 C1230 1.379 . S
C1230 H1214 0.931 . S
C1230 C1224 1.383 . S
C1230 C1229 1.379 . S
H1231 C1225 0.959 . S
H1232 C1225 0.961 . S
H1233 C1225 0.960 . S
H1234 C1226 0.930 . S
H1235 C1227 0.925 1_655 S
H1236 C1244 0.929 . S
H1237 C1246 0.930 . S
H1238 C1248 0.930 . S
H1239 C1251 0.929 . S
H1240 C1254 0.930 . S
H1241 C1256 0.960 . S
H1242 C1256 0.960 . S
H1243 C1256 0.960 . S
C1244 H1236 0.929 . S
C1244 C1245 1.377 . S
C1244 C1246 1.384 . S
C1245 C1244 1.377 . S
C1245 C1251 1.390 . S
C1246 H1237 0.930 . S
C1246 C1244 1.384 . S
C1246 C1247 1.372 . S
C1247 C1246 1.372 . S
C1247 C1248 1.400 . S
C1247 C1252 1.490 . S
C1248 H1238 0.930 . S
C1248 C1247 1.400 . S
C1248 C1251 1.386 . S
H1249 C1265 0.930 . S
H1250 C1266 0.931 . S
C1251 H1239 0.929 . S
C1251 C1245 1.390 . S
C1251 C1248 1.386 . S
C1252 C1247 1.490 . S
C1252 C1254 1.395 1_455 S
C1252 C1255 1.403 . S
H1253 C1259 0.930 . S
C1254 H1240 0.930 . S
C1254 C1252 1.395 1_655 S
C1254 C1257 1.403 . S
C1255 C1252 1.403 . S
C1255 C1256 1.524 . S
C1255 C1259 1.400 . S
C1256 H1241 0.960 . S
C1256 H1242 0.960 . S
C1256 H1243 0.960 . S
C1256 C1255 1.524 . S
C1257 C1254 1.403 . S
C1257 C1258 1.392 . S
C1257 C1261 1.495 . S
C1258 C1257 1.392 . S
C1258 C1259 1.385 1_655 S
C1258 C1260 1.478 . S
C1259 H1253 0.930 . S
C1259 C1255 1.400 . S
C1259 C1258 1.385 1_455 S
C1260 C1258 1.478 . S
C1260 C1262 1.381 . S
C1260 C1266 1.383 . S
C1261 C1257 1.495 . S
C1261 H1267 0.959 . S
C1261 H1268 0.961 . S
C1261 H1269 0.960 . S
C1262 C1260 1.381 . S
C1262 C1263 1.394 . S
C1262 H1270 0.930 . S
C1263 C1262 1.394 . S
C1263 C1264 1.383 . S
C1263 H1271 0.929 . S
C1264 C1263 1.383 . S
C1264 C1265 1.377 . S
C1265 H1249 0.930 . S
C1265 C1264 1.377 . S
C1265 C1266 1.379 . S
C1266 H1250 0.931 . S
C1266 C1260 1.383 . S
C1266 C1265 1.379 . S
H1267 C1261 0.959 . S
H1268 C1261 0.961 . S
H1269 C1261 0.960 . S
H1270 C1262 0.930 . S
H1271 C1263 0.929 . S
H1272 C1280 0.919 1_545 S
H1273 C1282 0.930 . S
H1274 C1284 0.930 . S
H1275 C1287 0.929 . S
H1276 C1290 0.930 . S
H1277 C1292 0.960 . S
H1278 C1292 0.960 . S
H1279 C1292 0.960 . S
C1280 H1272 0.919 1_565 S
C1280 C1281 1.393 . S
C1280 C1282 1.380 1_565 S
C1281 C1280 1.393 . S
C1281 C1287 1.390 . S
C1282 H1273 0.930 . S
C1282 C1280 1.380 1_545 S
C1282 C1283 1.372 1_545 S
C1283 C1282 1.372 1_565 S
C1283 C1284 1.400 . S
C1283 C1288 1.490 . S
C1284 H1274 0.930 . S
C1284 C1283 1.400 . S
C1284 C1287 1.386 . S
H1285 C1301 0.941 . S
H1286 C1302 0.931 . S
C1287 H1275 0.929 . S
C1287 C1281 1.390 . S
C1287 C1284 1.386 . S
C1288 C1283 1.490 . S
C1288 C1290 1.395 . S
C1288 C1291 1.403 1_565 S
H1289 C1295 0.930 . S
C1290 H1276 0.930 . S
C1290 C1288 1.395 . S
C1290 C1293 1.403 . S
C1291 C1288 1.403 1_545 S
C1291 C1292 1.524 . S
C1291 C1295 1.400 . S
C1292 H1277 0.960 . S
C1292 H1278 0.960 . S
C1292 H1279 0.960 . S
C1292 C1291 1.524 . S
C1293 C1290 1.403 . S
C1293 C1294 1.392 1_565 S
C1293 C1297 1.495 . S
C1294 C1293 1.392 1_545 S
C1294 C1295 1.385 . S
C1294 C1296 1.478 . S
C1295 H1289 0.930 . S
C1295 C1291 1.400 . S
C1295 C1294 1.385 . S
C1296 C1294 1.478 . S
C1296 C1298 1.381 . S
C1296 C1302 1.383 1_545 S
C1297 C1293 1.495 . S
C1297 H1303 0.959 . S
C1297 H1304 0.961 . S
C1297 H1305 0.960 . S
C1298 C1296 1.381 . S
C1298 C1299 1.394 . S
C1298 H1306 0.930 . S
C1299 C1298 1.394 . S
C1299 C1300 1.383 . S
C1299 H1307 0.929 . S
C1300 C1299 1.383 . S
C1300 C1301 1.361 1_545 S
C1301 H1285 0.941 . S
C1301 C1300 1.361 1_565 S
C1301 C1302 1.384 . S
C1302 H1286 0.931 . S
C1302 C1296 1.383 1_565 S
C1302 C1301 1.384 . S
H1303 C1297 0.959 . S
H1304 C1297 0.961 . S
H1305 C1297 0.960 . S
H1306 C1298 0.930 . S
H1307 C1299 0.929 . S
H1308 C1316 0.929 . S
H1309 C1318 0.930 . S
H1310 C1320 0.930 . S
H1311 C1323 0.929 . S
H1312 C1326 0.930 . S
H1313 C1328 0.960 . S
H1314 C1328 0.960 . S
H1315 C1328 0.960 . S
C1316 H1308 0.929 . S
C1316 C1317 1.377 . S
C1316 C1318 1.384 . S
C1317 C1316 1.377 . S
C1317 C1323 1.390 . S
C1318 H1309 0.930 . S
C1318 C1316 1.384 . S
C1318 C1319 1.372 . S
C1319 C1318 1.372 . S
C1319 C1320 1.400 . S
C1319 C1324 1.490 . S
C1320 H1310 0.930 . S
C1320 C1319 1.400 . S
C1320 C1323 1.386 . S
H1321 C1337 0.930 . S
H1322 C1338 0.931 . S
C1323 H1311 0.929 . S
C1323 C1317 1.390 . S
C1323 C1320 1.386 . S
C1324 C1319 1.490 . S
C1324 C1326 1.395 . S
C1324 C1327 1.403 . S
H1325 C1331 0.930 . S
C1326 H1312 0.930 . S
C1326 C1324 1.395 . S
C1326 C1329 1.403 . S
C1327 C1324 1.403 . S
C1327 C1328 1.524 . S
C1327 C1331 1.400 . S
C1328 H1313 0.960 . S
C1328 H1314 0.960 . S
C1328 H1315 0.960 . S
C1328 C1327 1.524 . S
C1329 C1326 1.403 . S
C1329 C1330 1.392 . S
C1329 C1333 1.495 . S
C1330 C1329 1.392 . S
C1330 C1331 1.385 . S
C1330 C1332 1.478 . S
C1331 H1325 0.930 . S
C1331 C1327 1.400 . S
C1331 C1330 1.385 . S
C1332 C1330 1.478 . S
C1332 C1334 1.381 . S
C1332 C1338 1.383 . S
C1333 C1329 1.495 . S
C1333 H1339 0.959 . S
C1333 H1340 0.961 . S
C1333 H1341 0.960 . S
C1334 C1332 1.381 . S
C1334 C1335 1.394 . S
C1334 H1342 0.930 . S
C1335 C1334 1.394 . S
C1335 C1336 1.383 . S
C1335 H1343 0.929 . S
C1336 C1335 1.383 . S
C1336 C1337 1.377 . S
C1337 H1321 0.930 . S
C1337 C1336 1.377 . S
C1337 C1338 1.379 . S
C1338 H1322 0.931 . S
C1338 C1332 1.383 . S
C1338 C1337 1.379 . S
H1339 C1333 0.959 . S
H1340 C1333 0.961 . S
H1341 C1333 0.960 . S
H1342 C1334 0.930 . S
H1343 C1335 0.929 . S
H1344 C1352 0.929 . S
H1345 C1354 0.930 . S
H1346 C1356 0.930 . S
H1347 C1359 0.929 . S
H1348 C1362 0.930 . S
H1349 C1364 0.960 . S
H1350 C1364 0.960 . S
H1351 C1364 0.960 . S
C1352 H1344 0.929 . S
C1352 C1353 1.377 1_556 S
C1352 C1354 1.384 . S
C1353 C1352 1.377 1_554 S
C1353 C1359 1.390 . S
C1354 H1345 0.930 . S
C1354 C1352 1.384 . S
C1354 C1355 1.372 1_556 S
C1355 C1354 1.372 1_554 S
C1355 C1356 1.400 . S
C1355 C1360 1.496 . S
C1356 H1346 0.930 . S
C1356 C1355 1.400 . S
C1356 C1359 1.386 . S
H1357 C1373 0.930 . S
H1358 C1374 0.931 . S
C1359 H1347 0.929 . S
C1359 C1353 1.390 . S
C1359 C1356 1.386 . S
C1360 C1355 1.496 . S
C1360 C1362 1.352 1_554 S
C1360 C1363 1.439 . S
H1361 C1367 0.930 . S
C1362 H1348 0.930 . S
C1362 C1360 1.352 1_556 S
C1362 C1365 1.403 . S
C1363 C1360 1.439 . S
C1363 C1364 1.524 . S
C1363 C1367 1.400 . S
C1364 H1349 0.960 . S
C1364 H1350 0.960 . S
C1364 H1351 0.960 . S
C1364 C1363 1.524 . S
C1365 C1362 1.403 . S
C1365 C1366 1.392 . S
C1365 C1369 1.495 . S
C1366 C1365 1.392 . S
C1366 C1367 1.385 1_556 S
C1366 C1368 1.478 . S
C1367 H1361 0.930 . S
C1367 C1363 1.400 . S
C1367 C1366 1.385 1_554 S
C1368 C1366 1.478 . S
C1368 C1370 1.381 . S
C1368 C1374 1.383 1_556 S
C1369 C1365 1.495 . S
C1369 H1375 0.959 . S
C1369 H1376 0.961 . S
C1369 H1377 0.960 . S
C1370 C1368 1.381 . S
C1370 C1371 1.394 . S
C1370 H1378 0.930 . S
C1371 C1370 1.394 . S
C1371 C1372 1.383 . S
C1371 H1379 0.929 . S
C1372 C1371 1.383 . S
C1372 C1373 1.377 1_556 S
C1373 H1357 0.930 . S
C1373 C1372 1.377 1_554 S
C1373 C1374 1.379 . S
C1374 H1358 0.931 . S
C1374 C1368 1.383 1_554 S
C1374 C1373 1.379 . S
H1375 C1369 0.959 . S
H1376 C1369 0.961 . S
H1377 C1369 0.960 . S
H1378 C1370 0.930 . S
H1379 C1371 0.929 . S
H1380 C1388 0.929 . S
H1381 C1390 0.930 . S
H1382 C1392 0.930 . S
H1383 C1395 0.929 . S
H1384 C1398 0.930 . S
H1385 C1400 0.960 . S
H1386 C1400 0.960 . S
H1387 C1400 0.960 . S
C1388 H1380 0.929 . S
C1388 C1389 1.377 . S
C1388 C1390 1.384 . S
C1389 C1388 1.377 . S
C1389 C1395 1.390 . S
C1390 H1381 0.930 . S
C1390 C1388 1.384 . S
C1390 C1391 1.372 . S
C1391 C1390 1.372 . S
C1391 C1392 1.400 . S
C1391 C1396 1.490 . S
C1392 H1382 0.930 . S
C1392 C1391 1.400 . S
C1392 C1395 1.386 . S
H1393 C1409 0.930 . S
H1394 C1410 0.931 . S
C1395 H1383 0.929 . S
C1395 C1389 1.390 . S
C1395 C1392 1.386 . S
C1396 C1391 1.490 . S
C1396 C1398 1.395 . S
C1396 C1399 1.403 . S
H1397 C1403 0.930 . S
C1398 H1384 0.930 . S
C1398 C1396 1.395 . S
C1398 C1401 1.403 . S
C1399 C1396 1.403 . S
C1399 C1400 1.524 . S
C1399 C1403 1.400 . S
C1400 H1385 0.960 . S
C1400 H1386 0.960 . S
C1400 H1387 0.960 . S
C1400 C1399 1.524 . S
C1401 C1398 1.403 . S
C1401 C1402 1.392 . S
C1401 C1405 1.495 . S
C1402 C1401 1.392 . S
C1402 C1403 1.385 . S
C1402 C1404 1.478 . S
C1403 H1397 0.930 . S
C1403 C1399 1.400 . S
C1403 C1402 1.385 . S
C1404 C1402 1.478 . S
C1404 C1406 1.381 . S
C1404 C1410 1.383 . S
C1405 C1401 1.495 . S
C1405 H1411 0.959 . S
C1405 H1412 0.961 . S
C1405 H1413 0.960 . S
C1406 C1404 1.381 . S
C1406 C1407 1.394 . S
C1406 H1414 0.930 . S
C1407 C1406 1.394 . S
C1407 C1408 1.383 . S
C1407 H1415 0.929 . S
C1408 C1407 1.383 . S
C1408 C1409 1.377 . S
C1409 H1393 0.930 . S
C1409 C1408 1.377 . S
C1409 C1410 1.379 . S
C1410 H1394 0.931 . S
C1410 C1404 1.383 . S
C1410 C1409 1.379 . S
H1411 C1405 0.959 . S
H1412 C1405 0.961 . S
H1413 C1405 0.960 . S
H1414 C1406 0.930 . S
H1415 C1407 0.929 . S
H1416 C1424 0.929 . S
H1417 C1426 0.930 . S
H1418 C1428 0.930 . S
H1419 C1431 0.929 . S
H1420 C1434 0.930 . S
H1421 C1436 0.960 . S
H1422 C1436 0.960 . S
H1423 C1436 0.960 . S
C1424 H1416 0.929 . S
C1424 C1425 1.377 . S
C1424 C1426 1.384 . S
C1425 C1424 1.377 . S
C1425 C1431 1.390 . S
C1426 H1417 0.930 . S
C1426 C1424 1.384 . S
C1426 C1427 1.372 . S
C1427 C1426 1.372 . S
C1427 C1428 1.400 . S
C1427 C1432 1.490 . S
C1428 H1418 0.930 . S
C1428 C1427 1.400 . S
C1428 C1431 1.386 . S
H1429 C1445 0.930 . S
H1430 C1446 0.931 . S
C1431 H1419 0.929 . S
C1431 C1425 1.390 . S
C1431 C1428 1.386 . S
C1432 C1427 1.490 . S
C1432 C1434 1.395 . S
C1432 C1435 1.403 . S
H1433 C1439 0.930 . S
C1434 H1420 0.930 . S
C1434 C1432 1.395 . S
C1434 C1437 1.403 . S
C1435 C1432 1.403 . S
C1435 C1436 1.524 . S
C1435 C1439 1.400 . S
C1436 H1421 0.960 . S
C1436 H1422 0.960 . S
C1436 H1423 0.960 . S
C1436 C1435 1.524 . S
C1437 C1434 1.403 . S
C1437 C1438 1.392 . S
C1437 C1441 1.495 . S
C1438 C1437 1.392 . S
C1438 C1439 1.385 . S
C1438 C1440 1.478 . S
C1439 H1433 0.930 . S
C1439 C1435 1.400 . S
C1439 C1438 1.385 . S
C1440 C1438 1.478 . S
C1440 C1442 1.381 . S
C1440 C1446 1.383 . S
C1441 C1437 1.495 . S
C1441 H1447 0.959 . S
C1441 H1448 0.961 . S
C1441 H1449 0.960 . S
C1442 C1440 1.381 . S
C1442 C1443 1.394 . S
C1442 H1450 0.930 . S
C1443 C1442 1.394 . S
C1443 C1444 1.383 . S
C1443 H1451 0.929 . S
C1444 C1443 1.383 . S
C1444 C1445 1.377 . S
C1445 H1429 0.930 . S
C1445 C1444 1.377 . S
C1445 C1446 1.379 . S
C1446 H1430 0.931 . S
C1446 C1440 1.383 . S
C1446 C1445 1.379 . S
H1447 C1441 0.959 . S
H1448 C1441 0.961 . S
H1449 C1441 0.960 . S
H1450 C1442 0.930 . S
H1451 C1443 0.929 . S
H1452 C1460 0.929 . S
H1453 C1462 0.930 . S
H1454 C1464 0.930 . S
H1455 C1467 0.929 . S
H1456 C1470 0.930 . S
H1457 C1472 0.960 . S
H1458 C1472 0.960 . S
H1459 C1472 0.960 . S
C1460 H1452 0.929 . S
C1460 C1461 1.377 . S
C1460 C1462 1.384 . S
C1461 C1460 1.377 . S
C1461 C1467 1.390 . S
C1462 H1453 0.930 . S
C1462 C1460 1.384 . S
C1462 C1463 1.372 . S
C1463 C1462 1.372 . S
C1463 C1464 1.400 . S
C1463 C1468 1.490 . S
C1464 H1454 0.930 . S
C1464 C1463 1.400 . S
C1464 C1467 1.386 . S
H1465 C1481 0.930 . S
H1466 C1482 0.931 . S
C1467 H1455 0.929 . S
C1467 C1461 1.390 . S
C1467 C1464 1.386 . S
C1468 C1463 1.490 . S
C1468 C1470 1.395 . S
C1468 C1471 1.403 . S
H1469 C1475 0.930 . S
C1470 H1456 0.930 . S
C1470 C1468 1.395 . S
C1470 C1473 1.403 . S
C1471 C1468 1.403 . S
C1471 C1472 1.524 . S
C1471 C1475 1.400 . S
C1472 H1457 0.960 . S
C1472 H1458 0.960 . S
C1472 H1459 0.960 . S
C1472 C1471 1.524 . S
C1473 C1470 1.403 . S
C1473 C1474 1.392 . S
C1473 C1477 1.495 . S
C1474 C1473 1.392 . S
C1474 C1475 1.385 . S
C1474 C1476 1.478 . S
C1475 H1469 0.930 . S
C1475 C1471 1.400 . S
C1475 C1474 1.385 . S
C1476 C1474 1.478 . S
C1476 C1478 1.381 . S
C1476 C1482 1.383 . S
C1477 C1473 1.495 . S
C1477 H1483 0.959 . S
C1477 H1484 0.961 . S
C1477 H1485 0.960 . S
C1478 C1476 1.381 . S
C1478 C1479 1.394 . S
C1478 H1486 0.930 . S
C1479 C1478 1.394 . S
C1479 C1480 1.383 . S
C1479 H1487 0.929 . S
C1480 C1479 1.383 . S
C1480 C1481 1.377 . S
C1481 H1465 0.930 . S
C1481 C1480 1.377 . S
C1481 C1482 1.379 . S
C1482 H1466 0.931 . S
C1482 C1476 1.383 . S
C1482 C1481 1.379 . S
H1483 C1477 0.959 . S
H1484 C1477 0.961 . S
H1485 C1477 0.960 . S
H1486 C1478 0.930 . S
H1487 C1479 0.929 . S
H1488 C1496 0.929 . S
H1489 C1498 0.930 . S
H1490 C1500 0.930 . S
H1491 C1503 0.929 . S
H1492 C1506 0.930 . S
H1493 C1508 0.960 . S
H1494 C1508 0.960 . S
H1495 C1508 0.960 . S
C1496 H1488 0.929 . S
C1496 C1497 1.377 . S
C1496 C1498 1.384 . S
C1497 C1496 1.377 . S
C1497 C1503 1.390 . S
C1498 H1489 0.930 . S
C1498 C1496 1.384 . S
C1498 C1499 1.372 . S
C1499 C1498 1.372 . S
C1499 C1500 1.400 . S
C1499 C1504 1.490 . S
C1500 H1490 0.930 . S
C1500 C1499 1.400 . S
C1500 C1503 1.386 . S
H1501 C1517 0.930 . S
H1502 C1518 0.931 . S
C1503 H1491 0.929 . S
C1503 C1497 1.390 . S
C1503 C1500 1.386 . S
C1504 C1499 1.490 . S
C1504 C1506 1.395 . S
C1504 C1507 1.403 . S
H1505 C1511 0.930 . S
C1506 H1492 0.930 . S
C1506 C1504 1.395 . S
C1506 C1509 1.403 . S
C1507 C1504 1.403 . S
C1507 C1508 1.524 . S
C1507 C1511 1.400 . S
C1508 H1493 0.960 . S
C1508 H1494 0.960 . S
C1508 H1495 0.960 . S
C1508 C1507 1.524 . S
C1509 C1506 1.403 . S
C1509 C1510 1.392 . S
C1509 C1513 1.495 . S
C1510 C1509 1.392 . S
C1510 C1511 1.385 . S
C1510 C1512 1.478 . S
C1511 H1505 0.930 . S
C1511 C1507 1.400 . S
C1511 C1510 1.385 . S
C1512 C1510 1.478 . S
C1512 C1514 1.381 . S
C1512 C1518 1.383 . S
C1513 C1509 1.495 . S
C1513 H1519 0.959 . S
C1513 H1520 0.961 . S
C1513 H1521 0.960 . S
C1514 C1512 1.381 . S
C1514 C1515 1.394 . S
C1514 H1522 0.930 . S
C1515 C1514 1.394 . S
C1515 C1516 1.383 . S
C1515 H1523 0.929 . S
C1516 C1515 1.383 . S
C1516 C1517 1.377 . S
C1517 H1501 0.930 . S
C1517 C1516 1.377 . S
C1517 C1518 1.379 . S
C1518 H1502 0.931 . S
C1518 C1512 1.383 . S
C1518 C1517 1.379 . S
H1519 C1513 0.959 . S
H1520 C1513 0.961 . S
H1521 C1513 0.960 . S
H1522 C1514 0.930 . S
H1523 C1515 0.929 . S
H1524 C1532 0.929 . S
H1525 C1534 0.930 . S
H1526 C1536 0.930 . S
H1527 C1539 0.929 . S
H1528 C1542 0.930 . S
H1529 C1544 0.960 . S
H1530 C1544 0.960 . S
H1531 C1544 0.960 . S
C1532 H1524 0.929 . S
C1532 C1533 1.377 . S
C1532 C1534 1.384 . S
C1533 C1532 1.377 . S
C1533 C1539 1.390 . S
C1534 H1525 0.930 . S
C1534 C1532 1.384 . S
C1534 C1535 1.372 . S
C1535 C1534 1.372 . S
C1535 C1536 1.400 . S
C1535 C1540 1.490 . S
C1536 H1526 0.930 . S
C1536 C1535 1.400 . S
C1536 C1539 1.386 . S
H1537 C1553 0.930 . S
H1538 C1554 0.931 . S
C1539 H1527 0.929 . S
C1539 C1533 1.390 . S
C1539 C1536 1.386 . S
C1540 C1535 1.490 . S
C1540 C1542 1.395 . S
C1540 C1543 1.403 . S
H1541 C1547 0.930 . S
C1542 H1528 0.930 . S
C1542 C1540 1.395 . S
C1542 C1545 1.403 . S
C1543 C1540 1.403 . S
C1543 C1544 1.524 . S
C1543 C1547 1.400 . S
C1544 H1529 0.960 . S
C1544 H1530 0.960 . S
C1544 H1531 0.960 . S
C1544 C1543 1.524 . S
C1545 C1542 1.403 . S
C1545 C1546 1.392 . S
C1545 C1549 1.495 . S
C1546 C1545 1.392 . S
C1546 C1547 1.385 . S
C1546 C1548 1.478 . S
C1547 H1541 0.930 . S
C1547 C1543 1.400 . S
C1547 C1546 1.385 . S
C1548 C1546 1.478 . S
C1548 C1550 1.381 . S
C1548 C1554 1.383 . S
C1549 C1545 1.495 . S
C1549 H1555 0.959 . S
C1549 H1556 0.961 . S
C1549 H1557 0.960 . S
C1550 C1548 1.381 . S
C1550 C1551 1.394 . S
C1550 H1558 0.930 . S
C1551 C1550 1.394 . S
C1551 C1552 1.383 . S
C1551 H1559 0.929 . S
C1552 C1551 1.383 . S
C1552 C1553 1.377 . S
C1553 H1537 0.930 . S
C1553 C1552 1.377 . S
C1553 C1554 1.379 . S
C1554 H1538 0.931 . S
C1554 C1548 1.383 . S
C1554 C1553 1.379 . S
H1555 C1549 0.959 . S
H1556 C1549 0.961 . S
H1557 C1549 0.960 . S
H1558 C1550 0.930 . S
H1559 C1551 0.929 . S
H1560 C1568 0.929 . S
H1561 C1570 0.930 1_565 S
H1562 C1572 0.930 . S
H1563 C1575 0.929 . S
H1564 C1578 0.930 . S
H1565 C1580 0.960 . S
H1566 C1580 0.960 . S
H1567 C1580 0.960 . S
C1568 H1560 0.929 . S
C1568 C1569 1.377 . S
C1568 C1570 1.384 . S
C1569 C1568 1.377 . S
C1569 C1575 1.390 . S
C1570 H1561 0.930 1_545 S
C1570 C1568 1.384 . S
C1570 C1571 1.372 . S
C1571 C1570 1.372 . S
C1571 C1572 1.400 . S
C1571 C1576 1.490 . S
C1572 H1562 0.930 . S
C1572 C1571 1.400 . S
C1572 C1575 1.386 . S
H1573 C1589 0.918 1_545 S
H1574 C1590 0.931 . S
C1575 H1563 0.929 . S
C1575 C1569 1.390 . S
C1575 C1572 1.386 . S
C1576 C1571 1.490 . S
C1576 C1578 1.395 . S
C1576 C1579 1.403 1_545 S
H1577 C1583 0.930 . S
C1578 H1564 0.930 . S
C1578 C1576 1.395 . S
C1578 C1581 1.403 . S
C1579 C1576 1.403 1_565 S
C1579 C1580 1.524 . S
C1579 C1583 1.400 . S
C1580 H1565 0.960 . S
C1580 H1566 0.960 . S
C1580 H1567 0.960 . S
C1580 C1579 1.524 . S
C1581 C1578 1.403 . S
C1581 C1582 1.386 1_545 S
C1581 C1585 1.495 . S
C1582 C1581 1.386 1_565 S
C1582 C1583 1.391 . S
C1582 C1584 1.479 . S
C1583 H1577 0.930 . S
C1583 C1579 1.400 . S
C1583 C1582 1.391 . S
C1584 C1582 1.479 . S
C1584 C1586 1.381 . S
C1584 C1590 1.383 1_565 S
C1585 C1581 1.495 . S
C1585 H1591 0.959 . S
C1585 H1592 0.961 . S
C1585 H1593 0.960 . S
C1586 C1584 1.381 . S
C1586 C1587 1.394 . S
C1586 H1594 0.930 . S
C1587 C1586 1.394 . S
C1587 C1588 1.383 . S
C1587 H1595 0.929 . S
C1588 C1587 1.383 . S
C1588 C1589 1.397 . S
C1589 H1573 0.918 1_565 S
C1589 C1588 1.397 . S
C1589 C1590 1.372 1_565 S
C1590 H1574 0.931 . S
C1590 C1584 1.383 1_545 S
C1590 C1589 1.372 1_545 S
H1591 C1585 0.959 . S
H1592 C1585 0.961 . S
H1593 C1585 0.960 . S
H1594 C1586 0.930 . S
H1595 C1587 0.929 . S
H1596 C1604 0.929 . S
H1597 C1606 0.930 . S
H1598 C1608 0.930 . S
H1599 C1611 0.929 . S
H1600 C1614 0.930 . S
H1601 C1616 0.960 . S
H1602 C1616 0.960 . S
H1603 C1616 0.960 . S
C1604 H1596 0.929 . S
C1604 C1605 1.377 . S
C1604 C1606 1.384 . S
C1605 C1604 1.377 . S
C1605 C1611 1.390 . S
C1606 H1597 0.930 . S
C1606 C1604 1.384 . S
C1606 C1607 1.372 . S
C1607 C1606 1.372 . S
C1607 C1608 1.400 . S
C1607 C1612 1.498 . S
C1608 H1598 0.930 . S
C1608 C1607 1.400 . S
C1608 C1611 1.386 . S
H1609 C1625 0.930 . S
H1610 C1626 0.931 . S
C1611 H1599 0.929 . S
C1611 C1605 1.390 . S
C1611 C1608 1.386 . S
C1612 C1607 1.498 . S
C1612 C1614 1.350 1_556 S
C1612 C1615 1.441 . S
H1613 C1619 0.930 . S
C1614 H1600 0.930 . S
C1614 C1612 1.350 1_554 S
C1614 C1617 1.403 . S
C1615 C1612 1.441 . S
C1615 C1616 1.524 . S
C1615 C1619 1.400 . S
C1616 H1601 0.960 . S
C1616 H1602 0.960 . S
C1616 H1603 0.960 . S
C1616 C1615 1.524 . S
C1617 C1614 1.403 . S
C1617 C1618 1.392 . S
C1617 C1621 1.495 . S
C1618 C1617 1.392 . S
C1618 C1619 1.385 1_554 S
C1618 C1620 1.478 . S
C1619 H1613 0.930 . S
C1619 C1615 1.400 . S
C1619 C1618 1.385 1_556 S
C1620 C1618 1.478 . S
C1620 C1622 1.381 . S
C1620 C1626 1.383 . S
C1621 C1617 1.495 . S
C1621 H1627 0.959 . S
C1621 H1628 0.961 . S
C1621 H1629 0.960 . S
C1622 C1620 1.381 . S
C1622 C1623 1.394 . S
C1622 H1630 0.930 . S
C1623 C1622 1.394 . S
C1623 C1624 1.383 . S
C1623 H1631 0.929 . S
C1624 C1623 1.383 . S
C1624 C1625 1.377 . S
C1625 H1609 0.930 . S
C1625 C1624 1.377 . S
C1625 C1626 1.379 . S
C1626 H1610 0.931 . S
C1626 C1620 1.383 . S
C1626 C1625 1.379 . S
H1627 C1621 0.959 . S
H1628 C1621 0.961 . S
H1629 C1621 0.960 . S
H1630 C1622 0.930 . S
H1631 C1623 0.929 . S
H1632 C1640 0.929 . S
H1633 C1642 0.930 . S
H1634 C1644 0.930 . S
H1635 C1647 0.929 . S
H1636 C1650 0.930 . S
H1637 C1652 0.960 . S
H1638 C1652 0.960 . S
H1639 C1652 0.960 1_565 S
C1640 H1632 0.929 . S
C1640 C1641 1.377 1_655 S
C1640 C1642 1.384 . S
C1641 C1640 1.377 1_455 S
C1641 C1647 1.390 . S
C1642 H1633 0.930 . S
C1642 C1640 1.384 . S
C1642 C1643 1.372 1_655 S
C1643 C1642 1.372 1_455 S
C1643 C1644 1.400 . S
C1643 C1648 1.490 . S
C1644 H1634 0.930 . S
C1644 C1643 1.400 . S
C1644 C1647 1.386 . S
H1645 C1661 0.930 . S
H1646 C1662 0.931 . S
C1647 H1635 0.929 . S
C1647 C1641 1.390 . S
C1647 C1644 1.386 . S
C1648 C1643 1.490 . S
C1648 C1650 1.395 1_455 S
C1648 C1651 1.403 1_565 S
H1649 C1655 0.930 . S
C1650 H1636 0.930 . S
C1650 C1648 1.395 1_655 S
C1650 C1653 1.403 . S
C1651 C1648 1.403 1_545 S
C1651 C1652 1.524 . S
C1651 C1655 1.400 . S
C1652 H1637 0.960 . S
C1652 H1638 0.960 . S
C1652 H1639 0.960 1_545 S
C1652 C1651 1.524 . S
C1653 C1650 1.403 . S
C1653 C1654 1.392 1_665 S
C1653 C1657 1.495 . S
C1654 C1653 1.392 1_445 S
C1654 C1655 1.385 . S
C1654 C1656 1.478 . S
C1655 H1649 0.930 . S
C1655 C1651 1.400 . S
C1655 C1654 1.385 . S
C1656 C1654 1.478 . S
C1656 C1658 1.381 1_455 S
C1656 C1662 1.383 . S
C1657 C1653 1.495 . S
C1657 H1663 0.959 . S
C1657 H1664 0.961 . S
C1657 H1665 0.960 . S
C1658 C1656 1.381 1_655 S
C1658 C1659 1.394 . S
C1658 H1666 0.930 . S
C1659 C1658 1.394 . S
C1659 C1660 1.383 1_655 S
C1659 H1667 0.929 . S
C1660 C1659 1.383 1_455 S
C1660 C1661 1.377 . S
C1661 H1645 0.930 . S
C1661 C1660 1.377 . S
C1661 C1662 1.379 . S
C1662 H1646 0.931 . S
C1662 C1656 1.383 . S
C1662 C1661 1.379 . S
H1663 C1657 0.959 . S
H1664 C1657 0.961 . S
H1665 C1657 0.960 . S
H1666 C1658 0.930 . S
H1667 C1659 0.929 . S
H1668 C1676 0.929 . S
H1669 C1678 0.930 . S
H1670 C1680 0.932 1_455 S
H1671 C1683 0.931 . S
H1672 C1686 0.930 . S
H1673 C1688 0.960 . S
H1674 C1688 0.960 . S
H1675 C1688 0.960 . S
C1676 H1668 0.929 . S
C1676 C1677 1.377 . S
C1676 C1678 1.384 . S
C1677 C1676 1.377 . S
C1677 C1683 1.388 1_655 S
C1678 H1669 0.930 . S
C1678 C1676 1.384 . S
C1678 C1679 1.372 . S
C1679 C1678 1.372 . S
C1679 C1680 1.398 . S
C1679 C1684 1.490 . S
C1680 H1670 0.932 1_655 S
C1680 C1679 1.398 . S
C1680 C1683 1.386 1_655 S
H1681 C1697 0.930 . S
H1682 C1698 0.931 . S
C1683 H1671 0.931 . S
C1683 C1677 1.388 1_455 S
C1683 C1680 1.386 1_455 S
C1684 C1679 1.490 . S
C1684 C1686 1.395 . S
C1684 C1687 1.403 1_655 S
H1685 C1691 0.930 . S
C1686 H1672 0.930 . S
C1686 C1684 1.395 . S
C1686 C1689 1.403 . S
C1687 C1684 1.403 1_455 S
C1687 C1688 1.524 . S
C1687 C1691 1.400 . S
C1688 H1673 0.960 . S
C1688 H1674 0.960 . S
C1688 H1675 0.960 . S
C1688 C1687 1.524 . S
C1689 C1686 1.403 . S
C1689 C1690 1.392 . S
C1689 C1693 1.495 . S
C1690 C1689 1.392 . S
C1690 C1691 1.385 1_655 S
C1690 C1692 1.478 . S
C1691 H1685 0.930 . S
C1691 C1687 1.400 . S
C1691 C1690 1.385 1_455 S
C1692 C1690 1.478 . S
C1692 C1694 1.381 . S
C1692 C1698 1.383 . S
C1693 C1689 1.495 . S
C1693 H1699 0.959 . S
C1693 H1700 0.961 . S
C1693 H1701 0.960 . S
C1694 C1692 1.381 . S
C1694 C1695 1.394 . S
C1694 H1702 0.930 . S
C1695 C1694 1.394 . S
C1695 C1696 1.383 . S
C1695 H1703 0.929 . S
C1696 C1695 1.383 . S
C1696 C1697 1.377 . S
C1697 H1681 0.930 . S
C1697 C1696 1.377 . S
C1697 C1698 1.379 . S
C1698 H1682 0.931 . S
C1698 C1692 1.383 . S
C1698 C1697 1.379 . S
H1699 C1693 0.959 . S
H1700 C1693 0.961 . S
H1701 C1693 0.960 . S
H1702 C1694 0.930 . S
H1703 C1695 0.929 . S
H1704 C1712 0.929 . S
H1705 C1714 0.930 . S
H1706 C1716 0.930 . S
H1707 C1719 0.929 . S
H1708 C1722 0.930 . S
H1709 C1724 0.960 . S
H1710 C1724 0.960 . S
H1711 C1724 0.960 . S
C1712 H1704 0.929 . S
C1712 C1713 1.377 . S
C1712 C1714 1.384 . S
C1713 C1712 1.377 . S
C1713 C1719 1.390 1_545 S
C1714 H1705 0.930 . S
C1714 C1712 1.384 . S
C1714 C1715 1.372 . S
C1715 C1714 1.372 . S
C1715 C1716 1.400 1_545 S
C1715 C1720 1.490 . S
C1716 H1706 0.930 . S
C1716 C1715 1.400 1_565 S
C1716 C1719 1.386 . S
H1717 C1733 0.930 . S
H1718 C1734 0.931 . S
C1719 H1707 0.929 . S
C1719 C1713 1.390 1_565 S
C1719 C1716 1.386 . S
C1720 C1715 1.490 . S
C1720 C1722 1.395 1_556 S
C1720 C1723 1.403 . S
H1721 C1727 0.930 . S
C1722 H1708 0.930 . S
C1722 C1720 1.395 1_554 S
C1722 C1725 1.403 . S
C1723 C1720 1.403 . S
C1723 C1724 1.524 . S
C1723 C1727 1.400 . S
C1724 H1709 0.960 . S
C1724 H1710 0.960 . S
C1724 H1711 0.960 . S
C1724 C1723 1.524 . S
C1725 C1722 1.403 . S
C1725 C1726 1.392 . S
C1725 C1729 1.495 . S
C1726 C1725 1.392 . S
C1726 C1727 1.385 1_554 S
C1726 C1728 1.478 . S
C1727 H1721 0.930 . S
C1727 C1723 1.400 . S
C1727 C1726 1.385 1_556 S
C1728 C1726 1.478 . S
C1728 C1730 1.381 . S
C1728 C1734 1.383 1_545 S
C1729 C1725 1.495 . S
C1729 H1735 0.959 . S
C1729 H1736 0.961 1_545 S
C1729 H1737 0.960 . S
C1730 C1728 1.381 . S
C1730 C1731 1.394 . S
C1730 H1738 0.930 . S
C1731 C1730 1.394 . S
C1731 C1732 1.383 . S
C1731 H1739 0.929 . S
C1732 C1731 1.383 . S
C1732 C1733 1.377 1_545 S
C1733 H1717 0.930 . S
C1733 C1732 1.377 1_565 S
C1733 C1734 1.379 . S
C1734 H1718 0.931 . S
C1734 C1728 1.383 1_565 S
C1734 C1733 1.379 . S
H1735 C1729 0.959 . S
H1736 C1729 0.961 1_565 S
H1737 C1729 0.960 . S
H1738 C1730 0.930 . S
H1739 C1731 0.929 . S
H1740 C1748 0.929 . S
H1741 C1750 0.930 . S
H1742 C1752 0.930 . S
H1743 C1755 0.929 . S
H1744 C1758 0.930 . S
H1745 C1760 0.960 . S
H1746 C1760 0.960 . S
H1747 C1760 0.960 . S
C1748 H1740 0.929 . S
C1748 C1749 1.377 . S
C1748 C1750 1.384 . S
C1749 C1748 1.377 . S
C1749 C1755 1.390 . S
C1750 H1741 0.930 . S
C1750 C1748 1.384 . S
C1750 C1751 1.372 . S
C1751 C1750 1.372 . S
C1751 C1752 1.400 . S
C1751 C1756 1.490 . S
C1752 H1742 0.930 . S
C1752 C1751 1.400 . S
C1752 C1755 1.386 . S
H1753 C1769 0.930 . S
H1754 C1770 0.931 . S
C1755 H1743 0.929 . S
C1755 C1749 1.390 . S
C1755 C1752 1.386 . S
C1756 C1751 1.490 . S
C1756 C1758 1.395 . S
C1756 C1759 1.403 1_554 S
H1757 C1763 0.930 . S
C1758 H1744 0.930 . S
C1758 C1756 1.395 . S
C1758 C1761 1.403 . S
C1759 C1756 1.403 1_556 S
C1759 C1760 1.524 . S
C1759 C1763 1.400 . S
C1760 H1745 0.960 . S
C1760 H1746 0.960 . S
C1760 H1747 0.960 . S
C1760 C1759 1.524 . S
C1761 C1758 1.403 . S
C1761 C1762 1.392 1_554 S
C1761 C1765 1.495 . S
C1762 C1761 1.392 1_556 S
C1762 C1763 1.385 . S
C1762 C1764 1.478 . S
C1763 H1757 0.930 . S
C1763 C1759 1.400 . S
C1763 C1762 1.385 . S
C1764 C1762 1.478 . S
C1764 C1766 1.381 . S
C1764 C1770 1.383 . S
C1765 C1761 1.495 . S
C1765 H1771 0.959 . S
C1765 H1772 0.961 . S
C1765 H1773 0.960 . S
C1766 C1764 1.381 . S
C1766 C1767 1.394 . S
C1766 H1774 0.930 . S
C1767 C1766 1.394 . S
C1767 C1768 1.383 . S
C1767 H1775 0.929 . S
C1768 C1767 1.383 . S
C1768 C1769 1.377 . S
C1769 H1753 0.930 . S
C1769 C1768 1.377 . S
C1769 C1770 1.379 . S
C1770 H1754 0.931 . S
C1770 C1764 1.383 . S
C1770 C1769 1.379 . S
H1771 C1765 0.959 . S
H1772 C1765 0.961 . S
H1773 C1765 0.960 . S
H1774 C1766 0.930 . S
H1775 C1767 0.929 . S
H1776 C1784 0.929 . S
H1777 C1786 0.930 . S
H1778 C1788 0.930 . S
H1779 C1791 0.929 . S
H1780 C1794 0.930 . S
H1781 C1796 0.960 . S
H1782 C1796 0.960 . S
H1783 C1796 0.960 . S
C1784 H1776 0.929 . S
C1784 C1785 1.377 . S
C1784 C1786 1.384 . S
C1785 C1784 1.377 . S
C1785 C1791 1.390 1_565 S
C1786 H1777 0.930 . S
C1786 C1784 1.384 . S
C1786 C1787 1.372 . S
C1787 C1786 1.372 . S
C1787 C1788 1.400 1_565 S
C1787 C1792 1.490 . S
C1788 H1778 0.930 . S
C1788 C1787 1.400 1_545 S
C1788 C1791 1.386 . S
H1789 C1805 0.917 1_545 S
H1790 C1806 0.931 1_545 S
C1791 H1779 0.929 . S
C1791 C1785 1.390 1_545 S
C1791 C1788 1.386 . S
C1792 C1787 1.490 . S
C1792 C1794 1.395 . S
C1792 C1795 1.403 1_565 S
H1793 C1799 0.930 . S
C1794 H1780 0.930 . S
C1794 C1792 1.395 . S
C1794 C1797 1.403 . S
C1795 C1792 1.403 1_545 S
C1795 C1796 1.524 . S
C1795 C1799 1.400 . S
C1796 H1781 0.960 . S
C1796 H1782 0.960 . S
C1796 H1783 0.960 . S
C1796 C1795 1.524 . S
C1797 C1794 1.403 . S
C1797 C1798 1.392 . S
C1797 C1801 1.495 . S
C1798 C1797 1.392 . S
C1798 C1799 1.385 1_565 S
C1798 C1800 1.478 . S
C1799 H1793 0.930 . S
C1799 C1795 1.400 . S
C1799 C1798 1.385 1_545 S
C1800 C1798 1.478 . S
C1800 C1802 1.381 . S
C1800 C1806 1.383 . S
C1801 C1797 1.495 . S
C1801 H1807 0.959 . S
C1801 H1808 0.961 . S
C1801 H1809 0.960 . S
C1802 C1800 1.381 . S
C1802 C1803 1.394 . S
C1802 H1810 0.930 . S
C1803 C1802 1.394 . S
C1803 C1804 1.383 . S
C1803 H1811 0.929 . S
C1804 C1803 1.383 . S
C1804 C1805 1.388 . S
C1805 H1789 0.917 1_565 S
C1805 C1804 1.388 . S
C1805 C1806 1.381 . S
C1806 H1790 0.931 1_565 S
C1806 C1800 1.383 . S
C1806 C1805 1.381 . S
H1807 C1801 0.959 . S
H1808 C1801 0.961 . S
H1809 C1801 0.960 . S
H1810 C1802 0.930 . S
H1811 C1803 0.929 . S
H1812 C1820 0.929 . S
H1813 C1822 0.930 . S
H1814 C1824 0.930 . S
H1815 C1827 0.929 . S
H1816 C1830 0.930 . S
H1817 C1832 0.960 . S
H1818 C1832 0.960 . S
H1819 C1832 0.960 . S
C1820 H1812 0.929 . S
C1820 C1821 1.377 . S
C1820 C1822 1.384 . S
C1821 C1820 1.377 . S
C1821 C1827 1.390 . S
C1822 H1813 0.930 . S
C1822 C1820 1.384 . S
C1822 C1823 1.372 . S
C1823 C1822 1.372 . S
C1823 C1824 1.400 . S
C1823 C1828 1.490 . S
C1824 H1814 0.930 . S
C1824 C1823 1.400 . S
C1824 C1827 1.386 . S
H1825 C1841 0.930 . S
H1826 C1842 0.931 . S
C1827 H1815 0.929 . S
C1827 C1821 1.390 . S
C1827 C1824 1.386 . S
C1828 C1823 1.490 . S
C1828 C1830 1.395 . S
C1828 C1831 1.403 . S
H1829 C1835 0.930 . S
C1830 H1816 0.930 . S
C1830 C1828 1.395 . S
C1830 C1833 1.403 . S
C1831 C1828 1.403 . S
C1831 C1832 1.524 . S
C1831 C1835 1.400 . S
C1832 H1817 0.960 . S
C1832 H1818 0.960 . S
C1832 H1819 0.960 . S
C1832 C1831 1.524 . S
C1833 C1830 1.403 . S
C1833 C1834 1.392 . S
C1833 C1837 1.495 . S
C1834 C1833 1.392 . S
C1834 C1835 1.385 . S
C1834 C1836 1.478 . S
C1835 H1829 0.930 . S
C1835 C1831 1.400 . S
C1835 C1834 1.385 . S
C1836 C1834 1.478 . S
C1836 C1838 1.381 . S
C1836 C1842 1.383 . S
C1837 C1833 1.495 . S
C1837 H1843 0.959 . S
C1837 H1844 0.961 . S
C1837 H1845 0.960 . S
C1838 C1836 1.381 . S
C1838 C1839 1.394 . S
C1838 H1846 0.930 . S
C1839 C1838 1.394 . S
C1839 C1840 1.383 . S
C1839 H1847 0.929 . S
C1840 C1839 1.383 . S
C1840 C1841 1.377 . S
C1841 H1825 0.930 . S
C1841 C1840 1.377 . S
C1841 C1842 1.379 . S
C1842 H1826 0.931 . S
C1842 C1836 1.383 . S
C1842 C1841 1.379 . S
H1843 C1837 0.959 . S
H1844 C1837 0.961 . S
H1845 C1837 0.960 . S
H1846 C1838 0.930 . S
H1847 C1839 0.929 . S
H1848 C1856 0.929 . S
H1849 C1858 0.930 . S
H1850 C1860 0.930 . S
H1851 C1863 0.929 . S
H1852 C1866 0.930 . S
H1853 C1868 0.960 . S
H1854 C1868 0.960 . S
H1855 C1868 0.960 . S
C1856 H1848 0.929 . S
C1856 C1857 1.377 1_556 S
C1856 C1858 1.384 . S
C1857 C1856 1.377 1_554 S
C1857 C1863 1.390 . S
C1858 H1849 0.930 . S
C1858 C1856 1.384 . S
C1858 C1859 1.372 1_556 S
C1859 C1858 1.372 1_554 S
C1859 C1860 1.400 . S
C1859 C1864 1.490 . S
C1860 H1850 0.930 . S
C1860 C1859 1.400 . S
C1860 C1863 1.386 . S
H1861 C1877 0.930 . S
H1862 C1878 0.931 . S
C1863 H1851 0.929 . S
C1863 C1857 1.390 . S
C1863 C1860 1.386 . S
C1864 C1859 1.490 . S
C1864 C1866 1.395 . S
C1864 C1867 1.403 1_455 S
H1865 C1871 0.930 . S
C1866 H1852 0.930 . S
C1866 C1864 1.395 . S
C1866 C1869 1.403 . S
C1867 C1864 1.403 1_655 S
C1867 C1868 1.524 . S
C1867 C1871 1.400 . S
C1868 H1853 0.960 . S
C1868 H1854 0.960 . S
C1868 H1855 0.960 . S
C1868 C1867 1.524 . S
C1869 C1866 1.403 . S
C1869 C1870 1.392 1_455 S
C1869 C1873 1.495 . S
C1870 C1869 1.392 1_655 S
C1870 C1871 1.385 . S
C1870 C1872 1.478 . S
C1871 H1865 0.930 . S
C1871 C1867 1.400 . S
C1871 C1870 1.385 . S
C1872 C1870 1.478 . S
C1872 C1874 1.381 1_554 S
C1872 C1878 1.383 . S
C1873 C1869 1.495 . S
C1873 H1879 0.959 . S
C1873 H1880 0.961 . S
C1873 H1881 0.960 1_554 S
C1874 C1872 1.381 1_556 S
C1874 C1875 1.394 . S
C1874 H1882 0.930 . S
C1875 C1874 1.394 . S
C1875 C1876 1.383 1_556 S
C1875 H1883 0.929 . S
C1876 C1875 1.383 1_554 S
C1876 C1877 1.377 . S
C1877 H1861 0.930 . S
C1877 C1876 1.377 . S
C1877 C1878 1.379 . S
C1878 H1862 0.931 . S
C1878 C1872 1.383 . S
C1878 C1877 1.379 . S
H1879 C1873 0.959 . S
H1880 C1873 0.961 . S
H1881 C1873 0.960 1_556 S
H1882 C1874 0.930 . S
H1883 C1875 0.929 . S
H1884 C1892 0.929 . S
H1885 C1894 0.930 . S
H1886 C1896 0.930 . S
H1887 C1899 0.929 . S
H1888 C1902 0.930 . S
H1889 C1904 0.960 . S
H1890 C1904 0.960 . S
H1891 C1904 0.960 . S
C1892 H1884 0.929 . S
C1892 C1893 1.377 . S
C1892 C1894 1.384 . S
C1893 C1892 1.377 . S
C1893 C1899 1.390 . S
C1894 H1885 0.930 . S
C1894 C1892 1.384 . S
C1894 C1895 1.372 . S
C1895 C1894 1.372 . S
C1895 C1896 1.400 . S
C1895 C1900 1.490 . S
C1896 H1886 0.930 . S
C1896 C1895 1.400 . S
C1896 C1899 1.386 . S
H1897 C1913 0.930 . S
H1898 C1914 0.931 . S
C1899 H1887 0.929 . S
C1899 C1893 1.390 . S
C1899 C1896 1.386 . S
C1900 C1895 1.490 . S
C1900 C1902 1.395 . S
C1900 C1903 1.403 1_455 S
H1901 C1907 0.930 . S
C1902 H1888 0.930 . S
C1902 C1900 1.395 . S
C1902 C1905 1.403 . S
C1903 C1900 1.403 1_655 S
C1903 C1904 1.524 . S
C1903 C1907 1.400 . S
C1904 H1889 0.960 . S
C1904 H1890 0.960 . S
C1904 H1891 0.960 . S
C1904 C1903 1.524 . S
C1905 C1902 1.403 . S
C1905 C1906 1.392 1_455 S
C1905 C1909 1.495 . S
C1906 C1905 1.392 1_655 S
C1906 C1907 1.385 . S
C1906 C1908 1.478 . S
C1907 H1901 0.930 . S
C1907 C1903 1.400 . S
C1907 C1906 1.385 . S
C1908 C1906 1.478 . S
C1908 C1910 1.381 . S
C1908 C1914 1.383 . S
C1909 C1905 1.495 . S
C1909 H1915 0.959 . S
C1909 H1916 0.961 . S
C1909 H1917 0.960 . S
C1910 C1908 1.381 . S
C1910 C1911 1.394 . S
C1910 H1918 0.930 . S
C1911 C1910 1.394 . S
C1911 C1912 1.383 . S
C1911 H1919 0.929 . S
C1912 C1911 1.383 . S
C1912 C1913 1.377 . S
C1913 H1897 0.930 . S
C1913 C1912 1.377 . S
C1913 C1914 1.379 . S
C1914 H1898 0.931 . S
C1914 C1908 1.383 . S
C1914 C1913 1.379 . S
H1915 C1909 0.959 . S
H1916 C1909 0.961 . S
H1917 C1909 0.960 . S
H1918 C1910 0.930 . S
H1919 C1911 0.929 . S
H1920 C1928 0.929 . S
H1921 C1930 0.930 . S
H1922 C1932 0.930 . S
H1923 C1935 0.929 . S
H1924 C1938 0.930 . S
H1925 C1940 0.960 . S
H1926 C1940 0.960 . S
H1927 C1940 0.960 . S
C1928 H1920 0.929 . S
C1928 C1929 1.377 . S
C1928 C1930 1.384 . S
C1929 C1928 1.377 . S
C1929 C1935 1.390 . S
C1930 H1921 0.930 . S
C1930 C1928 1.384 . S
C1930 C1931 1.372 . S
C1931 C1930 1.372 . S
C1931 C1932 1.400 . S
C1931 C1936 1.490 . S
C1932 H1922 0.930 . S
C1932 C1931 1.400 . S
C1932 C1935 1.386 . S
H1933 C1949 0.930 . S
H1934 C1950 0.931 . S
C1935 H1923 0.929 . S
C1935 C1929 1.390 . S
C1935 C1932 1.386 . S
C1936 C1931 1.490 . S
C1936 C1938 1.395 . S
C1936 C1939 1.403 . S
H1937 C1943 0.930 . S
C1938 H1924 0.930 . S
C1938 C1936 1.395 . S
C1938 C1941 1.403 . S
C1939 C1936 1.403 . S
C1939 C1940 1.524 . S
C1939 C1943 1.400 . S
C1940 H1925 0.960 . S
C1940 H1926 0.960 . S
C1940 H1927 0.960 . S
C1940 C1939 1.524 . S
C1941 C1938 1.403 . S
C1941 C1942 1.392 . S
C1941 C1945 1.495 . S
C1942 C1941 1.392 . S
C1942 C1943 1.385 . S
C1942 C1944 1.478 . S
C1943 H1937 0.930 . S
C1943 C1939 1.400 . S
C1943 C1942 1.385 . S
C1944 C1942 1.478 . S
C1944 C1946 1.381 . S
C1944 C1950 1.383 . S
C1945 C1941 1.495 . S
C1945 H1951 0.959 . S
C1945 H1952 0.961 . S
C1945 H1953 0.960 . S
C1946 C1944 1.381 . S
C1946 C1947 1.394 . S
C1946 H1954 0.930 . S
C1947 C1946 1.394 . S
C1947 C1948 1.383 . S
C1947 H1955 0.929 . S
C1948 C1947 1.383 . S
C1948 C1949 1.377 . S
C1949 H1933 0.930 . S
C1949 C1948 1.377 . S
C1949 C1950 1.379 . S
C1950 H1934 0.931 . S
C1950 C1944 1.383 . S
C1950 C1949 1.379 . S
H1951 C1945 0.959 . S
H1952 C1945 0.961 . S
H1953 C1945 0.960 . S
H1954 C1946 0.930 . S
H1955 C1947 0.929 . S
H1956 C1964 0.929 . S
H1957 C1966 0.930 . S
H1958 C1968 0.930 . S
H1959 C1971 0.929 . S
H1960 C1974 0.930 . S
H1961 C1976 0.960 . S
H1962 C1976 0.960 . S
H1963 C1976 0.960 . S
C1964 H1956 0.929 . S
C1964 C1965 1.377 . S
C1964 C1966 1.384 . S
C1965 C1964 1.377 . S
C1965 C1971 1.390 . S
C1966 H1957 0.930 . S
C1966 C1964 1.384 . S
C1966 C1967 1.372 . S
C1967 C1966 1.372 . S
C1967 C1968 1.400 . S
C1967 C1972 1.490 . S
C1968 H1958 0.930 . S
C1968 C1967 1.400 . S
C1968 C1971 1.386 . S
H1969 C1985 0.930 . S
H1970 C1986 0.931 . S
C1971 H1959 0.929 . S
C1971 C1965 1.390 . S
C1971 C1968 1.386 . S
C1972 C1967 1.490 . S
C1972 C1974 1.395 . S
C1972 C1975 1.403 . S
H1973 C1979 0.930 . S
C1974 H1960 0.930 . S
C1974 C1972 1.395 . S
C1974 C1977 1.403 . S
C1975 C1972 1.403 . S
C1975 C1976 1.524 . S
C1975 C1979 1.400 . S
C1976 H1961 0.960 . S
C1976 H1962 0.960 . S
C1976 H1963 0.960 . S
C1976 C1975 1.524 . S
C1977 C1974 1.403 . S
C1977 C1978 1.392 . S
C1977 C1981 1.495 . S
C1978 C1977 1.392 . S
C1978 C1979 1.385 . S
C1978 C1980 1.478 . S
C1979 H1973 0.930 . S
C1979 C1975 1.400 . S
C1979 C1978 1.385 . S
C1980 C1978 1.478 . S
C1980 C1982 1.381 . S
C1980 C1986 1.383 . S
C1981 C1977 1.495 . S
C1981 H1987 0.959 . S
C1981 H1988 0.961 . S
C1981 H1989 0.960 . S
C1982 C1980 1.381 . S
C1982 C1983 1.394 . S
C1982 H1990 0.930 . S
C1983 C1982 1.394 . S
C1983 C1984 1.383 . S
C1983 H1991 0.929 . S
C1984 C1983 1.383 . S
C1984 C1985 1.377 . S
C1985 H1969 0.930 . S
C1985 C1984 1.377 . S
C1985 C1986 1.379 . S
C1986 H1970 0.931 . S
C1986 C1980 1.383 . S
C1986 C1985 1.379 . S
H1987 C1981 0.959 . S
H1988 C1981 0.961 . S
H1989 C1981 0.960 . S
H1990 C1982 0.930 . S
H1991 C1983 0.929 . S
H1992 C2000 0.929 . S
H1993 C2002 0.930 . S
H1994 C2004 0.930 . S
H1995 C2007 0.929 . S
H1996 C2010 0.930 . S
H1997 C2012 0.952 1_545 S
H1998 C2012 0.955 1_545 S
H1999 C2012 0.972 . S
C2000 H1992 0.929 . S
C2000 C2001 1.377 . S
C2000 C2002 1.384 . S
C2001 C2000 1.377 . S
C2001 C2007 1.390 . S
C2002 H1993 0.930 . S
C2002 C2000 1.384 . S
C2002 C2003 1.372 . S
C2003 C2002 1.372 . S
C2003 C2004 1.400 . S
C2003 C2008 1.490 . S
C2004 H1994 0.930 . S
C2004 C2003 1.400 . S
C2004 C2007 1.386 . S
H2005 C2021 0.930 . S
H2006 C2022 0.931 . S
C2007 H1995 0.929 . S
C2007 C2001 1.390 . S
C2007 C2004 1.386 . S
C2008 C2003 1.490 . S
C2008 C2010 1.395 . S
C2008 C2011 1.403 . S
H2009 C2015 0.930 . S
C2010 H1996 0.930 . S
C2010 C2008 1.395 . S
C2010 C2013 1.403 . S
C2011 C2008 1.403 . S
C2011 C2012 1.525 . S
C2011 C2015 1.400 1_565 S
C2012 H1997 0.952 1_565 S
C2012 H1998 0.955 1_565 S
C2012 H1999 0.972 . S
C2012 C2011 1.525 . S
C2013 C2010 1.403 . S
C2013 C2014 1.392 1_565 S
C2013 C2017 1.495 . S
C2014 C2013 1.392 1_545 S
C2014 C2015 1.385 . S
C2014 C2016 1.478 . S
C2015 H2009 0.930 . S
C2015 C2011 1.400 1_545 S
C2015 C2014 1.385 . S
C2016 C2014 1.478 . S
C2016 C2018 1.381 . S
C2016 C2022 1.383 . S
C2017 C2013 1.495 . S
C2017 H2023 0.959 . S
C2017 H2024 0.961 . S
C2017 H2025 0.960 1_565 S
C2018 C2016 1.381 . S
C2018 C2019 1.394 . S
C2018 H2026 0.930 . S
C2019 C2018 1.394 . S
C2019 C2020 1.383 . S
C2019 H2027 0.929 . S
C2020 C2019 1.383 . S
C2020 C2021 1.377 . S
C2021 H2005 0.930 . S
C2021 C2020 1.377 . S
C2021 C2022 1.379 . S
C2022 H2006 0.931 . S
C2022 C2016 1.383 . S
C2022 C2021 1.379 . S
H2023 C2017 0.959 . S
H2024 C2017 0.961 . S
H2025 C2017 0.960 1_545 S
H2026 C2018 0.930 . S
H2027 C2019 0.929 . S
H2028 C2036 0.929 . S
H2029 C2038 0.930 . S
H2030 C2040 0.930 1_554 S
H2031 C2043 0.929 1_554 S
H2032 C2046 0.930 1_554 S
H2033 C2048 0.960 . S
H2034 C2048 0.960 . S
H2035 C2048 0.960 . S
C2036 H2028 0.929 . S
C2036 C2037 1.377 . S
C2036 C2038 1.384 . S
C2037 C2036 1.377 . S
C2037 C2043 1.390 . S
C2038 H2029 0.930 . S
C2038 C2036 1.384 . S
C2038 C2039 1.372 . S
C2039 C2038 1.372 . S
C2039 C2040 1.400 . S
C2039 C2044 1.490 . S
C2040 H2030 0.930 1_556 S
C2040 C2039 1.400 . S
C2040 C2043 1.386 . S
H2041 C2057 0.913 1_554 S
H2042 C2058 0.935 . S
C2043 H2031 0.929 1_556 S
C2043 C2037 1.390 . S
C2043 C2040 1.386 . S
C2044 C2039 1.490 . S
C2044 C2046 1.395 . S
C2044 C2047 1.403 . S
H2045 C2051 0.930 . S
C2046 H2032 0.930 1_556 S
C2046 C2044 1.395 . S
C2046 C2049 1.403 . S
C2047 C2044 1.403 . S
C2047 C2048 1.524 . S
C2047 C2051 1.400 . S
C2048 H2033 0.960 . S
C2048 H2034 0.960 . S
C2048 H2035 0.960 . S
C2048 C2047 1.524 . S
C2049 C2046 1.403 . S
C2049 C2050 1.392 . S
C2049 C2053 1.495 1_556 S
C2050 C2049 1.392 . S
C2050 C2051 1.385 . S
C2050 C2052 1.478 . S
C2051 H2045 0.930 . S
C2051 C2047 1.400 . S
C2051 C2050 1.385 . S
C2052 C2050 1.478 . S
C2052 C2054 1.381 . S
C2052 C2058 1.379 1_556 S
C2053 C2049 1.495 1_554 S
C2053 H2059 0.959 . S
C2053 H2060 0.961 . S
C2053 H2061 0.985 . S
C2054 C2052 1.381 . S
C2054 C2055 1.394 . S
C2054 H2062 0.930 . S
C2055 C2054 1.394 . S
C2055 C2056 1.383 . S
C2055 H2063 0.929 . S
C2056 C2055 1.383 . S
C2056 C2057 1.395 . S
C2057 H2041 0.913 1_556 S
C2057 C2056 1.395 . S
C2057 C2058 1.378 1_556 S
C2058 H2042 0.935 . S
C2058 C2052 1.379 1_554 S
C2058 C2057 1.378 1_554 S
H2059 C2053 0.959 . S
H2060 C2053 0.961 . S
H2061 C2053 0.985 . S
H2062 C2054 0.930 . S
H2063 C2055 0.929 . S
C345 C242 0.452 . S
C364 C12 0.330 . S
C381 C26 0.321 . S
C400 C228 0.539 . S
C417 C40 0.352 . S
C436 C270 0.404 . S
C453 C54 0.404 . S
C472 C256 0.623 . S
C489 C68 0.374 . S
C508 C306 0.526 . S
C525 C82 0.330 . S
C544 C320 0.363 . S
C561 C292 0.534 . S
C580 C96 0.441 . S
C597 C166 0.521 . S
C616 C110 0.433 . S
C633 C116 0.537 . S
C652 C46 0.537 . S
C669 C18 0.503 . S
C688 C130 0.537 . S
C705 C144 0.603 . S
C724 C4 0.511 . S
C741 C158 0.501 . S
C760 C200 0.615 . S
C777 C74 0.558 . S
C796 C180 0.380 . S
C813 C60 0.495 . S
C832 C194 0.349 . S
C849 C208 0.369 . S
C868 C102 0.626 . S
C885 C222 0.321 . S
C904 C88 0.394 . S
C921 C138 0.555 . S
C940 C236 0.508 . S
C957 C152 0.490 . S
C976 C250 0.283 . S
C993 C124 0.486 . S
C1012 C264 0.466 . S
C1029 C278 0.354 . S
C1048 C334 0.338 . S
C1065 C214 0.586 . S
C1084 C284 0.629 . S
C1101 C298 0.557 . S
C1120 C186 0.600 . S
C1137 C172 0.476 . S
C1156 C312 0.540 . S
C1173 C326 0.562 . S
C1192 C32 0.598 . S
C1209 C11 1.497 . S
C1228 C25 1.459 . S
C1245 C53 1.417 . S
C1264 C39 1.435 . S
C1281 C67 1.410 . S
C1300 C95 1.406 . S
C1317 C81 1.634 . S
C1336 C109 1.589 . S
C1353 C313 1.411 . S
C1372 C117 1.343 . S
C1389 C131 1.572 . S
C1408 C159 1.588 . S
C1425 C285 1.497 . S
C1444 C145 1.511 . S
C1461 C193 1.524 . S
C1480 C179 1.515 . S
C1497 C207 1.578 . S
C1516 C221 1.573 . S
C1533 C263 1.585 . S
C1552 C235 1.602 . S
C1569 C249 1.351 . S
C1588 C277 1.360 . S
C1605 C327 1.317 . S
C1624 C299 1.303 . S
C1641 C33 1.137 . S
C1660 C5 1.171 . S
C1677 C19 1.236 . S
C1696 C47 1.205 . S
C1713 C271 1.101 . S
C1732 C61 1.088 . S
C1749 C75 1.192 . S
C1768 C257 1.210 . S
C1785 C89 1.205 . S
C1804 C243 1.167 . S
C1821 C229 1.291 . S
C1840 C103 1.266 . S
C1857 C123 1.263 . S
C1876 C333 1.225 . S
C1893 C137 1.337 . S
C1912 C151 1.307 . S
C1929 C291 1.406 . S
C1948 C165 1.392 . S
C1965 C173 1.283 . S
C1984 C201 1.234 . S
C2001 C187 1.174 . S
C2020 C215 1.209 . S
C2037 C319 1.344 . S
C2056 C305 1.358 . S
