# Generated by pormake.
# Topology wfy, (7)-cn, num edge types: 1
# Building blocks:
#     Node 0, Type 0, BuildingBlock: HICVOG_clean_sbu_0, # of connection points: 7
#     Node 1, Type 0, BuildingBlock: HICVOG_clean_sbu_0, # of connection points: 7
#     Node 2, Type 0, BuildingBlock: HICVOG_clean_sbu_0, # of connection points: 7
#     Node 3, Type 0, BuildingBlock: HICVOG_clean_sbu_0, # of connection points: 7
#     Node 4, Type 0, BuildingBlock: HICVOG_clean_sbu_0, # of connection points: 7
#     Node 5, Type 0, BuildingBlock: HICVOG_clean_sbu_0, # of connection points: 7
#     Node 6, Type 0, BuildingBlock: HICVOG_clean_sbu_0, # of connection points: 7
#     Node 7, Type 0, BuildingBlock: HICVOG_clean_sbu_0, # of connection points: 7
#     Edge 8, Type (0, 0), BuildingBlock: MIFKUJ_clean_linker_0, # of connection points: 2
#     Edge 9, Type (0, 0), BuildingBlock: MIFKUJ_clean_linker_0, # of connection points: 2
#     Edge 10, Type (0, 0), BuildingBlock: MIFKUJ_clean_linker_0, # of connection points: 2
#     Edge 11, Type (0, 0), BuildingBlock: MIFKUJ_clean_linker_0, # of connection points: 2
#     Edge 12, Type (0, 0), BuildingBlock: MIFKUJ_clean_linker_0, # of connection points: 2
#     Edge 13, Type (0, 0), BuildingBlock: MIFKUJ_clean_linker_0, # of connection points: 2
#     Edge 14, Type (0, 0), BuildingBlock: MIFKUJ_clean_linker_0, # of connection points: 2
#     Edge 15, Type (0, 0), BuildingBlock: MIFKUJ_clean_linker_0, # of connection points: 2
#     Edge 16, Type (0, 0), BuildingBlock: MIFKUJ_clean_linker_0, # of connection points: 2
#     Edge 17, Type (0, 0), BuildingBlock: MIFKUJ_clean_linker_0, # of connection points: 2
#     Edge 18, Type (0, 0), BuildingBlock: MIFKUJ_clean_linker_0, # of connection points: 2
#     Edge 19, Type (0, 0), BuildingBlock: MIFKUJ_clean_linker_0, # of connection points: 2
#     Edge 20, Type (0, 0), BuildingBlock: MIFKUJ_clean_linker_0, # of connection points: 2
#     Edge 21, Type (0, 0), BuildingBlock: MIFKUJ_clean_linker_0, # of connection points: 2
#     Edge 22, Type (0, 0), BuildingBlock: MIFKUJ_clean_linker_0, # of connection points: 2
#     Edge 23, Type (0, 0), BuildingBlock: MIFKUJ_clean_linker_0, # of connection points: 2
#     Edge 24, Type (0, 0), BuildingBlock: MIFKUJ_clean_linker_0, # of connection points: 2
#     Edge 25, Type (0, 0), BuildingBlock: MIFKUJ_clean_linker_0, # of connection points: 2
#     Edge 26, Type (0, 0), BuildingBlock: MIFKUJ_clean_linker_0, # of connection points: 2
#     Edge 27, Type (0, 0), BuildingBlock: MIFKUJ_clean_linker_0, # of connection points: 2
#     Edge 28, Type (0, 0), BuildingBlock: MIFKUJ_clean_linker_0, # of connection points: 2
#     Edge 29, Type (0, 0), BuildingBlock: MIFKUJ_clean_linker_0, # of connection points: 2
#     Edge 30, Type (0, 0), BuildingBlock: MIFKUJ_clean_linker_0, # of connection points: 2
#     Edge 31, Type (0, 0), BuildingBlock: MIFKUJ_clean_linker_0, # of connection points: 2
#     Edge 32, Type (0, 0), BuildingBlock: MIFKUJ_clean_linker_0, # of connection points: 2
#     Edge 33, Type (0, 0), BuildingBlock: MIFKUJ_clean_linker_0, # of connection points: 2
#     Edge 34, Type (0, 0), BuildingBlock: MIFKUJ_clean_linker_0, # of connection points: 2
#     Edge 35, Type (0, 0), BuildingBlock: MIFKUJ_clean_linker_0, # of connection points: 2
# Relax obj value: 0.128
# Max RMSD: 0.241
# Mean RMSD: 0.241
data_MOF--net-wfy--node1-HICVOG_clean_sbu_0--edge1-MIFKUJ_clean_linker_0
_symmetry_space_group_name_H-M    P1
_symmetry_Int_Tables_number       1
_symmetry_cell_setting            triclinic
loop_
_symmetry_equiv_pos_as_xyz
'x, y, z'
_cell_length_a     48.827462
_cell_length_b     48.812923
_cell_length_c     31.532259
_cell_angle_alpha  89.952638
_cell_angle_beta   90.019377
_cell_angle_gamma 90.123153
loop_
_atom_site_label
_atom_site_type_symbol
_atom_site_fract_x
_atom_site_fract_y
_atom_site_fract_z
_atom_type_partial_charge
Zn0 Zn 0.32007 0.08958 0.0617 0.0
C1 C 0.29741 0.16785 0.06508 0.0
N2 N 0.32136 0.16974 0.0859 0.0
C3 C 0.33289 0.1453 0.07877 0.0
N4 N 0.31676 0.12886 0.05545 0.0
N5 N 0.2943 0.143 0.04649 0.0
C6 C 0.21232 0.14712 0.02883 0.0
O7 O 0.21412 0.12328 0.048 0.0
O8 O 0.35807 0.07365 0.04933 0.0
Zn9 Zn 0.26755 0.13272 1.0033 0.0
N10 N 0.31417 0.08337 0.12154 0.0
C11 C 0.28903 0.09472 0.18351 0.0
C12 C 0.29332 0.09727 0.14009 0.0
C13 C 0.3309 0.06673 0.14457 0.0
N14 N 0.30559 0.07811 0.20653 0.0
C15 C 0.32657 0.06386 0.18853 0.0
O16 O 0.25677 0.09178 1.00387 0.0
C17 C 0.26803 0.0689 0.0131 0.0
O18 O 0.29109 0.06766 0.03185 0.0
H19 H 0.28034 0.11046 0.12128 0.0
H20 H 0.34697 0.05565 0.12849 0.0
C21 C 0.27915 0.16003 0.92061 0.0
C22 C 0.29476 0.16282 0.88292 0.0
C23 C 0.32143 0.12435 0.90395 0.0
C24 C 0.30607 0.12175 0.94082 0.0
N25 N 0.28531 0.1395 0.94863 0.0
N26 N 0.31548 0.14467 0.87617 0.0
H27 H 0.26282 0.17415 0.92807 0.0
C28 C 0.37454 0.07669 0.01838 0.0
O29 O 0.36789 0.09305 0.98695 0.0
O30 O 0.2329 0.15594 0.00807 0.0
H31 H 0.31075 0.10578 0.96347 0.0
H32 H 0.27261 0.10578 0.19885 0.0
H33 H 0.33808 0.11037 0.89747 0.0
Zn34 Zn 0.12828 0.74584 0.99216 0.0
C35 C 0.14837 0.67471 0.93859 0.0
N36 N 0.173 0.68636 0.9329 0.0
C37 C 0.16876 0.71261 0.9442 0.0
N38 N 0.14242 0.71674 0.95605 0.0
N39 N 0.12963 0.69296 0.95151 0.0
C40 C 0.07842 0.63435 0.98082 0.0
O41 O 0.09036 0.64375 0.01522 0.0
O42 O 0.14927 0.78198 0.98523 0.0
Zn43 Zn 0.09159 0.68814 0.9369 0.0
N44 N 0.13231 0.73275 0.05036 0.0
C45 C 0.11191 0.70492 0.10375 0.0
C46 C 0.11206 0.71535 0.0627 0.0
C47 C 0.15305 0.73971 0.07746 0.0
N48 N 0.13216 0.71214 0.13096 0.0
C49 C 0.15297 0.72915 0.11925 0.0
O50 O 0.06553 0.71607 0.9608 0.0
C51 C 0.06503 0.74036 0.9755 0.0
O52 O 0.08701 0.75329 0.98479 0.0
H53 H 0.09604 0.7097 0.0407 0.0
H54 H 0.16897 0.7536 0.06693 0.0
C55 C 0.07103 0.67726 0.85435 0.0
C56 C 0.06921 0.67992 0.81005 0.0
C57 C 0.10539 0.71256 0.81199 0.0
C58 C 0.10654 0.71035 0.85601 0.0
N59 N 0.08952 0.69257 0.87621 0.0
N60 N 0.08675 0.69745 0.79013 0.0
H61 H 0.05812 0.66308 0.87154 0.0
C62 C 0.13689 0.80406 0.99499 0.0
O63 O 0.11159 0.80251 0.0089 0.0
O64 O 0.07745 0.64936 0.94786 0.0
H65 H 0.12113 0.72236 0.87386 0.0
H66 H 0.09578 0.69122 0.11399 0.0
H67 H 0.11905 0.72633 0.79532 0.0
Zn68 Zn 0.6908 0.92218 0.06466 0.0
C69 C 0.7117 0.84414 0.05853 0.0
N70 N 0.68595 0.84133 0.07334 0.0
C71 C 0.67527 0.86636 0.06785 0.0
N72 N 0.69366 0.88393 0.05178 0.0
N73 N 0.71656 0.87012 0.04511 0.0
C74 C 0.80034 0.87005 0.02264 0.0
O75 O 0.79909 0.89466 0.03934 0.0
O76 O 0.65176 0.93638 0.05532 0.0
Zn77 Zn 0.74344 0.8822 1.00316 0.0
N78 N 0.69921 0.9251 0.12412 0.0
C79 C 0.72641 0.91069 0.18253 0.0
C80 C 0.71919 0.90867 0.13997 0.0
C81 C 0.68641 0.94386 0.14892 0.0
N82 N 0.71374 0.92945 0.20737 0.0
C83 C 0.69402 0.94637 0.19175 0.0
O84 O 0.75299 0.92349 0.00546 0.0
C85 C 0.74172 0.94579 0.01748 0.0
O86 O 0.71888 0.946 0.03687 0.0
H87 H 0.72954 0.89426 0.11965 0.0
H88 H 0.6707 0.9567 0.1352 0.0
C89 C 0.73277 0.85637 0.92009 0.0
C90 C 0.71623 0.85214 0.88392 0.0
C91 C 0.68682 0.88789 0.90681 0.0
C92 C 0.70308 0.89191 0.94253 0.0
N93 N 0.72555 0.87603 0.94878 0.0
N94 N 0.69363 0.86807 0.87863 0.0
H95 H 0.7505 0.84367 0.92605 0.0
C96 C 0.64619 0.95906 0.0373 0.0
O97 O 0.66633 0.97407 0.02225 0.0
O98 O 0.77878 0.85982 0.0062 0.0
H99 H 0.69756 0.90724 0.96574 0.0
H100 H 0.74229 0.89776 0.19557 0.0
H101 H 0.66874 0.90022 0.90172 0.0
Zn102 Zn 0.91832 0.32086 0.95722 0.0
C103 C 0.84256 0.29136 0.96934 0.0
N104 N 0.86708 0.30779 0.9698 0.0
C105 C 0.86163 0.33658 0.97198 0.0
N106 N 0.87917 0.31628 0.96955 0.0
N107 N 0.86911 0.29283 0.97302 0.0
C108 C 0.86658 0.21417 0.98326 0.0
O109 O 0.88215 0.22087 0.95088 0.0
O110 O 0.92972 0.36115 0.95828 0.0
Zn111 Zn 0.88437 0.26765 0.01511 0.0
N112 N 0.92614 0.30628 0.90159 0.0
C113 C 0.91954 0.2727 0.84796 0.0
C114 C 0.91386 0.2828 0.88833 0.0
C115 C 0.94468 0.31956 0.87684 0.0
N116 N 0.9379 0.28606 0.82304 0.0
C117 C 0.95095 0.30916 0.8365 0.0
O118 O 0.92542 0.25981 0.00948 0.0
C119 C 0.9466 0.27502 0.00582 0.0
O120 O 0.9448 0.29986 0.99383 0.0
H121 H 0.89969 0.2721 0.90882 0.0
H122 H 0.9542 0.3381 0.88852 0.0
C123 C 0.85885 0.27671 0.09861 0.0
C124 C 0.85764 0.28921 0.13893 0.0
C125 C 0.89596 0.3168 0.12063 0.0
C126 C 0.89713 0.3044 0.08095 0.0
N127 N 0.87894 0.28435 0.07079 0.0
N128 N 0.87648 0.30881 0.14868 0.0
H129 H 0.84451 0.26075 0.08989 0.0
C130 C 0.94166 0.3713 0.99057 0.0
O131 O 0.9449 0.35591 0.0244 0.0
O132 O 0.86402 0.23109 0.01373 0.0
H133 H 0.91258 0.31059 0.05842 0.0
H134 H 0.90963 0.25426 0.83665 0.0
H135 H 0.91052 0.33259 0.12918 0.0
Zn136 Zn 0.81526 0.58403 0.55028 0.0
C137 C 0.79586 0.66202 0.57779 0.0
N138 N 0.81912 0.6606 0.60062 0.0
C139 C 0.82901 0.63599 0.58985 0.0
N140 N 0.81274 0.62284 0.56218 0.0
N141 N 0.79173 0.63924 0.55412 0.0
C142 C 0.70945 0.64349 0.52665 0.0
O143 O 0.71124 0.6177 0.53819 0.0
O144 O 0.85435 0.56889 0.55168 0.0
Zn145 Zn 0.76666 0.6337 0.50648 0.0
N146 N 0.7958 0.56618 0.59607 0.0
C147 C 0.75453 0.56125 0.63526 0.0
C148 C 0.76911 0.57296 0.60196 0.0
C149 C 0.80875 0.5484 0.62265 0.0
N150 N 0.76736 0.54353 0.66174 0.0
C151 C 0.7942 0.53665 0.6567 0.0
O152 O 0.75657 0.5932 0.49925 0.0
C153 C 0.77099 0.57197 0.49178 0.0
O154 O 0.79692 0.57264 0.49567 0.0
H155 H 0.75935 0.58765 0.58131 0.0
H156 H 0.83024 0.54417 0.61781 0.0
C157 C 0.77676 0.66297 0.42531 0.0
C158 C 0.79433 0.67176 0.39235 0.0
C159 C 0.83007 0.64477 0.42147 0.0
C160 C 0.81279 0.63623 0.45397 0.0
N161 N 0.78662 0.64563 0.45578 0.0
N162 N 0.82055 0.66241 0.39174 0.0
H163 H 0.75594 0.67042 0.42736 0.0
C164 C 0.87317 0.57225 0.52421 0.0
O165 O 0.86857 0.58798 0.49116 0.0
O166 O 0.73091 0.65556 0.51299 0.0
H167 H 0.82034 0.62247 0.47808 0.0
H168 H 0.73324 0.56639 0.64032 0.0
H169 H 0.851 0.63761 0.42006 0.0
Zn170 Zn 0.6285 0.25054 0.5006 0.0
C171 C 0.6491 0.17912 0.44779 0.0
N172 N 0.67383 0.19094 0.44432 0.0
C173 C 0.66912 0.21697 0.45614 0.0
N174 N 0.6425 0.22079 0.46628 0.0
N175 N 0.62983 0.19708 0.46029 0.0
C176 C 0.5811 0.134 0.47813 0.0
O177 O 0.60049 0.13636 0.50675 0.0
O178 O 0.64964 0.2858 0.49005 0.0
Zn179 Zn 0.59118 0.19309 0.44759 0.0
N180 N 0.63423 0.23911 0.55883 0.0
C181 C 0.61872 0.20934 0.61343 0.0
C182 C 0.61644 0.2196 0.57249 0.0
C183 C 0.65461 0.24874 0.58449 0.0
N184 N 0.63889 0.21885 0.63905 0.0
C185 C 0.65718 0.23828 0.62614 0.0
O186 O 0.56562 0.21993 0.47575 0.0
C187 C 0.56526 0.24448 0.48942 0.0
O188 O 0.5873 0.25806 0.4955 0.0
H189 H 0.60066 0.21201 0.55147 0.0
H190 H 0.66828 0.26439 0.57255 0.0
C191 C 0.56794 0.18761 0.3661 0.0
C192 C 0.56485 0.19256 0.32256 0.0
C193 C 0.60199 0.22396 0.32533 0.0
C194 C 0.60455 0.21938 0.36881 0.0
N195 N 0.58769 0.20104 0.38813 0.0
N196 N 0.58225 0.21049 0.30323 0.0
H197 H 0.55497 0.17306 0.38245 0.0
C198 C 0.63994 0.30803 0.50469 0.0
O199 O 0.61673 0.30722 0.52574 0.0
O200 O 0.5755 0.15421 0.45414 0.0
H201 H 0.62005 0.23001 0.38685 0.0
H202 H 0.60466 0.19383 0.62479 0.0
H203 H 0.61549 0.23819 0.30931 0.0
Zn204 Zn 0.19149 0.42225 0.56742 0.0
C205 C 0.21298 0.34399 0.56262 0.0
N206 N 0.18816 0.3409 0.58068 0.0
C207 C 0.17694 0.36578 0.57629 0.0
N208 N 0.19404 0.38352 0.55737 0.0
N209 N 0.21667 0.36987 0.548 0.0
C210 C 0.29977 0.37334 0.52083 0.0
O211 O 0.29772 0.3987 0.53434 0.0
O212 O 0.15182 0.43655 0.56884 0.0
Zn213 Zn 0.24206 0.38193 0.50392 0.0
N214 N 0.20789 0.42737 0.62249 0.0
C215 C 0.24653 0.41988 0.66704 0.0
C216 C 0.23279 0.41563 0.62889 0.0
C217 C 0.19602 0.44311 0.65287 0.0
N218 N 0.23506 0.43615 0.697 0.0
C219 C 0.21007 0.44785 0.69105 0.0
O220 O 0.24992 0.42365 0.5031 0.0
C221 C 0.2371 0.446 0.51026 0.0
O222 O 0.21414 0.44633 0.52941 0.0
H223 H 0.24212 0.40352 0.60417 0.0
H224 H 0.17643 0.45264 0.64665 0.0
C225 C 0.23098 0.35498 0.42059 0.0
C226 C 0.21466 0.35142 0.38371 0.0
C227 C 0.18449 0.38601 0.4091 0.0
C228 C 0.20056 0.38936 0.44507 0.0
N229 N 0.22343 0.37396 0.4503 0.0
N230 N 0.19189 0.3673 0.37955 0.0
H231 H 0.24943 0.34322 0.42559 0.0
C232 C 0.13351 0.4315 0.54107 0.0
O233 O 0.13962 0.41545 0.50902 0.0
O234 O 0.27838 0.36129 0.507 0.0
H235 H 0.19484 0.40414 0.46899 0.0
H236 H 0.26639 0.41075 0.67251 0.0
H237 H 0.16622 0.39817 0.40463 0.0
Zn238 Zn 0.37967 0.76736 0.49495 0.0
C239 C 0.37073 0.83581 0.42576 0.0
N240 N 0.34563 0.82582 0.41786 0.0
C241 C 0.34667 0.80038 0.43419 0.0
N242 N 0.3714 0.79513 0.45179 0.0
N243 N 0.38664 0.81733 0.4459 0.0
C244 C 0.43122 0.87851 0.47501 0.0
O245 O 0.40671 0.87692 0.49198 0.0
O246 O 0.35591 0.73265 0.48866 0.0
Zn247 Zn 0.42609 0.81849 0.45351 0.0
N248 N 0.37154 0.78506 0.54947 0.0
C249 C 0.38122 0.82419 0.59198 0.0
C250 C 0.38479 0.80932 0.55487 0.0
C251 C 0.35394 0.77536 0.5798 0.0
N252 N 0.36412 0.81449 0.62228 0.0
C253 C 0.35009 0.79055 0.6176 0.0
O254 O 0.44119 0.79617 0.50206 0.0
C255 C 0.442 0.77013 0.50346 0.0
O256 O 0.42051 0.75586 0.49615 0.0
H257 H 0.398 0.81721 0.53033 0.0
H258 H 0.34343 0.7561 0.57475 0.0
C259 C 0.4588 0.81541 0.37786 0.0
C260 C 0.46763 0.80334 0.33992 0.0
C261 C 0.44169 0.76354 0.35632 0.0
C262 C 0.43215 0.77605 0.39312 0.0
N263 N 0.44096 0.80165 0.40323 0.0
N264 N 0.45905 0.77748 0.33049 0.0
H265 H 0.46552 0.83574 0.3868 0.0
C266 C 0.36322 0.71266 0.46523 0.0
O267 O 0.38573 0.7151 0.44272 0.0
O268 O 0.44199 0.85729 0.45854 0.0
H269 H 0.41766 0.76555 0.41332 0.0
H270 H 0.39184 0.84343 0.59662 0.0
H271 H 0.43501 0.74311 0.34794 0.0
H272 H 0.31067 0.04026 0.26241 0.0
H273 H 0.33523 0.00768 0.30615 0.0
H274 H 0.40429 0.01141 0.22108 0.0
H275 H 0.37985 0.04458 0.17682 0.0
H276 H 0.39089 0.95931 0.23874 0.0
H277 H 0.40873 0.03772 0.31876 0.0
H278 H 0.39988 0.08152 0.35491 0.0
H279 H 0.3483 0.04066 0.44518 0.0
H280 H 0.35529 0.99688 0.40824 0.0
H281 H 0.41635 0.84829 0.3793 0.0
H282 H 0.42786 0.89223 0.34601 0.0
H283 H 0.35307 0.92648 0.39597 0.0
H284 H 0.34313 0.88327 0.43178 0.0
H285 H 0.39149 0.96439 0.39583 0.0
H286 H 0.36115 0.89309 0.29081 0.0
H287 H 0.3697 0.84923 0.25417 0.0
H288 H 0.44858 0.87835 0.21392 0.0
H289 H 0.4406 0.92222 0.25081 0.0
C290 C 0.33122 0.03456 0.25303 0.0
C291 C 0.34294 0.0449 0.21554 0.0
C292 C 0.34534 0.01594 0.27834 0.0
C293 C 0.37177 0.00728 0.26726 0.0
C294 C 0.38392 0.01782 0.23027 0.0
C295 C 0.36973 0.03662 0.20476 0.0
C296 C 0.38519 0.98556 0.29297 0.0
C297 C 0.39169 0.96069 0.27306 0.0
C298 C 0.38679 0.98739 0.33778 0.0
C299 C 0.38256 0.01382 0.36048 0.0
C300 C 0.39525 0.03802 0.34604 0.0
C301 C 0.39056 0.0629 0.3667 0.0
C302 C 0.37377 0.06383 0.4025 0.0
C303 C 0.36139 0.0399 0.4175 0.0
C304 C 0.36561 0.01504 0.39657 0.0
C305 C 0.40324 0.86558 0.38463 0.0
C306 C 0.37944 0.86267 0.40907 0.0
C307 C 0.40946 0.89059 0.365 0.0
C308 C 0.39117 0.9127 0.36795 0.0
C309 C 0.36767 0.90988 0.39333 0.0
C310 C 0.36185 0.88512 0.41356 0.0
C311 C 0.3943 0.93786 0.34167 0.0
C312 C 0.39138 0.96343 0.36147 0.0
C313 C 0.39605 0.93678 0.29685 0.0
C314 C 0.40037 0.91076 0.27374 0.0
C315 C 0.3803 0.89008 0.27413 0.0
C316 C 0.38509 0.86522 0.25343 0.0
C317 C 0.40973 0.86097 0.23187 0.0
C318 C 0.42956 0.88163 0.23076 0.0
C319 C 0.42493 0.90649 0.25153 0.0
H320 H 0.41343 0.84169 0.21594 0.0
H321 H 0.37028 0.0831 0.41854 0.0
H322 H 0.07218 0.66488 0.72692 0.0
H323 H 0.03584 0.64534 0.68285 0.0
H324 H 0.98217 0.64249 0.7913 0.0
H325 H 0.01799 0.66218 0.83543 0.0
H326 H 0.97642 0.59641 0.73833 0.0
H327 H 0.97918 0.69587 0.72804 0.0
H328 H 1.00167 0.74019 0.71354 0.0
H329 H 0.01932 0.71439 0.58629 0.0
H330 H 0.99722 0.66974 0.60029 0.0
H331 H 0.84082 0.62114 0.6704 0.0
H332 H 0.88665 0.61529 0.70059 0.0
H333 H 0.92196 0.62413 0.57577 0.0
H334 H 0.8761 0.63121 0.54617 0.0
H335 H 0.94255 0.65998 0.62736 0.0
H336 H 0.92964 0.56389 0.63384 0.0
H337 H 0.90573 0.52039 0.64907 0.0
H338 H 0.90596 0.539 0.78202 0.0
H339 H 0.92943 0.58281 0.76772 0.0
C340 C 0.05275 0.65983 0.74153 0.0
C341 C 0.04816 0.66512 0.78481 0.0
C342 C 0.03206 0.64856 0.71632 0.0
C343 C 0.0063 0.64259 0.73382 0.0
C344 C 1.00199 0.64672 0.77729 0.0
C345 C 0.02265 0.65795 0.80255 0.0
C346 C 0.98296 0.63484 0.7063 0.0
C347 C 0.9689 0.6102 0.714 0.0
C348 C 0.97372 0.65254 0.67384 0.0
C349 C 0.98689 0.67938 0.66537 0.0
C350 C 0.98806 0.69958 0.69709 0.0
C351 C 1.0007 0.72477 0.68895 0.0
C352 C 0.012 0.73007 0.64906 0.0
C353 C 0.01061 0.71023 0.6172 0.0
C354 C 0.99804 0.68499 0.62521 0.0
C355 C 0.85838 0.62083 0.64942 0.0
C356 C 0.85517 0.62582 0.60596 0.0
C357 C 0.88453 0.61734 0.66654 0.0
C358 C 0.9078 0.61892 0.64037 0.0
C359 C 0.90433 0.62258 0.5965 0.0
C360 C 0.8782 0.62633 0.57953 0.0
C361 C 0.93538 0.62165 0.65968 0.0
C362 C 0.95029 0.64558 0.65068 0.0
C363 C 0.94525 0.60324 0.69082 0.0
C364 C 0.93122 0.57678 0.69965 0.0
C365 C 0.92442 0.55883 0.66631 0.0
C366 C 0.91097 0.5341 0.67477 0.0
C367 C 0.90433 0.52697 0.71644 0.0
C368 C 0.91114 0.54455 0.74976 0.0
C369 C 0.92456 0.56932 0.74151 0.0
H370 H 0.894 0.5078 0.72294 0.0
H371 H 0.02177 0.74958 0.64281 0.0
H372 H 0.63606 0.17183 0.36576 0.0
H373 H 0.63648 0.12893 0.32646 0.0
H374 H 0.6525 0.08476 0.4426 0.0
H375 H 0.65347 0.12829 0.48147 0.0
H376 H 0.68661 0.06948 0.38683 0.0
H377 H 0.59026 0.08073 0.38456 0.0
H378 H 0.54539 0.10266 0.37306 0.0
H379 H 0.56216 0.11004 0.24028 0.0
H380 H 0.60739 0.08881 0.25059 0.0
H381 H 0.68449 0.94305 0.27652 0.0
H382 H 0.67028 0.97992 0.3242 0.0
H383 H 0.66465 0.03526 0.21784 0.0
H384 H 0.67859 0.99859 0.17001 0.0
H385 H 0.62208 0.04144 0.27334 0.0
H386 H 0.72053 0.03589 0.27919 0.0
H387 H 0.76476 0.01256 0.28979 0.0
H388 H 0.74214 0.99286 0.41784 0.0
H389 H 0.69758 0.01576 0.40778 0.0
C390 C 0.63843 0.15284 0.38307 0.0
C391 C 0.64342 0.15304 0.42679 0.0
C392 C 0.63883 0.12828 0.3606 0.0
C393 C 0.64397 0.10343 0.38163 0.0
C394 C 0.64826 0.10362 0.42572 0.0
C395 C 0.64847 0.12834 0.448 0.0
C396 C 0.64779 0.07789 0.35685 0.0
C397 C 0.67207 0.06299 0.36282 0.0
C398 C 0.6293 0.0698 0.32458 0.0
C399 C 0.60243 0.0834 0.31846 0.0
C400 C 0.58465 0.08747 0.353 0.0
C401 C 0.55916 0.09972 0.34674 0.0
C402 C 0.55118 0.1079 0.30627 0.0
C403 C 0.56853 0.10383 0.27172 0.0
C404 C 0.59409 0.09167 0.27771 0.0
C405 C 0.67997 0.96302 0.26328 0.0
C406 C 0.68254 0.96785 0.21952 0.0
C407 C 0.67194 0.98404 0.29054 0.0
C408 C 0.6668 0.01036 0.27455 0.0
C409 C 0.66851 0.01505 0.23074 0.0
C410 C 0.67632 0.99399 0.20342 0.0
C411 C 0.66067 0.03333 0.30355 0.0
C412 C 0.63621 0.04784 0.29798 0.0
C413 C 0.67882 0.04093 0.33645 0.0
C414 C 0.70562 0.02726 0.34258 0.0
C415 C 0.7249 0.02638 0.30949 0.0
C416 C 0.75004 0.01328 0.31542 0.0
C417 C 0.75622 1.00116 0.35442 0.0
C418 C 0.7373 1.0022 0.38762 0.0
C419 C 0.71211 0.01525 0.38183 0.0
H420 H 0.7757 0.99103 0.35895 0.0
H421 H 0.53138 0.11716 0.30174 0.0
H422 H 0.95029 0.31288 0.7505 0.0
H423 H 0.98598 0.33137 0.70415 0.0
H424 H 0.03468 0.35241 0.81363 0.0
H425 H 0.99896 0.33437 0.86013 0.0
H426 H 0.03868 0.39145 0.75452 0.0
H427 H 0.04712 0.29402 0.75935 0.0
H428 H 0.0313 0.24615 0.75374 0.0
H429 H 0.0115 0.25866 0.62246 0.0
H430 H 0.02688 0.30675 0.62743 0.0
H431 H 0.17257 0.38434 0.65689 0.0
H432 H 0.13069 0.38494 0.69978 0.0
H433 H 0.08324 0.36425 0.58866 0.0
H434 H 0.12532 0.36236 0.54657 0.0
H435 H 0.07677 0.32763 0.64776 0.0
H436 H 0.08023 0.42617 0.64596 0.0
H437 H 0.09419 0.47397 0.65972 0.0
H438 H 0.09551 0.45833 0.79329 0.0
H439 H 0.08247 0.41044 0.78093 0.0
C440 C 0.9685 0.32168 0.76467 0.0
C441 C 0.97174 0.32225 0.80892 0.0
C442 C 0.98887 0.33223 0.73819 0.0
C443 C 0.01313 0.34299 0.75544 0.0
C444 C 0.01607 0.34435 0.79965 0.0
C445 C 0.99558 0.33405 0.82619 0.0
C446 C 0.03612 0.35119 0.72741 0.0
C447 C 0.0474 0.37751 0.73142 0.0
C448 C 0.04704 0.33299 0.69703 0.0
C449 C 0.03787 0.30406 0.69388 0.0
C450 C 0.0392 0.28662 0.72937 0.0
C451 C 0.03034 0.25944 0.7263 0.0
C452 C 0.02033 0.2494 0.68781 0.0
C453 C 0.01922 0.26649 0.65227 0.0
C454 C 0.02802 0.2937 0.65518 0.0
C455 C 0.15302 0.3808 0.64161 0.0
C456 C 0.15186 0.37341 0.59868 0.0
C457 C 0.1291 0.38127 0.66599 0.0
C458 C 0.10377 0.3746 0.64747 0.0
C459 C 0.10255 0.36938 0.60365 0.0
C460 C 0.12649 0.36841 0.57958 0.0
C461 C 0.07964 0.36826 0.67437 0.0
C462 C 0.06818 0.34193 0.67046 0.0
C463 C 0.06935 0.3863 0.70574 0.0
C464 C 0.08038 0.41443 0.71243 0.0
C465 C 0.08426 0.4326 0.67823 0.0
C466 C 0.09187 0.45981 0.68576 0.0
C467 C 0.09562 0.46917 0.72713 0.0
C468 C 0.09244 0.45118 0.76119 0.0
C469 C 0.08502 0.42396 0.75396 0.0
H470 H 0.10097 0.49039 0.73277 0.0
H471 H 0.01348 0.22835 0.68549 0.0
H472 H 0.83856 0.50167 0.64563 0.0
H473 H 0.85689 0.46888 0.69687 0.0
H474 H 0.7965 0.49437 0.78837 0.0
H475 H 0.77842 0.52748 0.73802 0.0
H476 H 0.84542 0.48858 0.82509 0.0
H477 H 0.78854 0.43623 0.72826 0.0
H478 H 0.77501 0.41865 0.65797 0.0
H479 H 0.85393 0.3812 0.64335 0.0
H480 H 0.86808 0.39891 0.71333 0.0
H481 H 0.83135 0.38154 0.9728 0.0
H482 H 0.8257 0.41627 0.91786 0.0
H483 H 0.88432 0.37406 0.8392 0.0
H484 H 0.88834 0.33851 0.89302 0.0
H485 H 0.84445 0.38923 0.79243 0.0
H486 H 0.89777 0.43656 0.8976 0.0
H487 H 0.90869 0.45406 0.96911 0.0
H488 H 0.83511 0.50182 0.96903 0.0
H489 H 0.82315 0.48403 0.89831 0.0
C490 C 0.82942 0.50071 0.67684 0.0
C491 C 0.80695 0.51742 0.6876 0.0
C492 C 0.8398 0.48169 0.706 0.0
C493 C 0.82797 0.47903 0.74642 0.0
C494 C 0.80602 0.49607 0.75745 0.0
C495 C 0.79559 0.51492 0.72841 0.0
C496 C 0.83764 0.45814 0.77731 0.0
C497 C 0.84515 0.46682 0.81809 0.0
C498 C 0.83802 0.42982 0.76776 0.0
C499 C 0.82948 0.41917 0.72577 0.0
C500 C 0.80309 0.42445 0.70989 0.0
C501 C 0.79531 0.41445 0.67015 0.0
C502 C 0.81364 0.3989 0.64619 0.0
C503 C 0.83979 0.3933 0.66192 0.0
C504 C 0.8477 0.40331 0.70161 0.0
C505 C 0.84315 0.37975 0.94383 0.0
C506 C 0.86058 0.35733 0.9376 0.0
C507 C 0.84009 0.39978 0.91252 0.0
C508 C 0.85513 0.39834 0.8746 0.0
C509 C 0.87264 0.3759 0.86826 0.0
C510 C 0.87517 0.35553 0.89931 0.0
C511 C 0.85154 0.41955 0.84097 0.0
C512 C 0.84526 0.41096 0.79952 0.0
C513 C 0.85211 0.44801 0.85006 0.0
C514 C 0.85951 0.45884 0.8926 0.0
C515 C 0.88382 0.45065 0.91291 0.0
C516 C 0.89021 0.46063 0.9533 0.0
C517 C 0.8727 0.47908 0.97343 0.0
C518 C 0.84868 0.48755 0.95336 0.0
C519 C 0.84206 0.4775 0.91316 0.0
H520 H 0.87772 0.48684 0.00459 0.0
H521 H 0.80753 0.39106 0.61551 0.0
H522 H 0.51268 0.18012 0.3483 0.0
H523 H 0.47603 0.16009 0.30606 0.0
H524 H 0.53025 0.15513 0.19832 0.0
H525 H 0.5671 0.17568 0.24042 0.0
H526 H 0.48413 0.17913 0.17809 0.0
H527 H 0.50054 0.08645 0.23419 0.0
H528 H 0.51251 0.05407 0.29149 0.0
H529 H 0.44892 0.08751 0.36967 0.0
H530 H 0.43578 0.11929 0.31199 0.0
H531 H 0.38249 0.12957 0.04932 0.0
H532 H 0.42412 0.1228 0.09146 0.0
H533 H 0.37793 0.13707 0.20602 0.0
H534 H 0.3361 0.14195 0.16391 0.0
H535 H 0.4225 0.10281 0.22041 0.0
H536 H 0.40267 0.18977 0.15309 0.0
H537 H 0.39178 0.21924 0.09174 0.0
H538 H 0.46712 0.19585 0.03179 0.0
H539 H 0.47817 0.16581 0.09243 0.0
C540 C 0.51706 0.1742 0.31593 0.0
C541 C 0.54292 0.17915 0.29778 0.0
C542 C 0.49607 0.16258 0.29186 0.0
C543 C 0.5006 0.1554 0.24937 0.0
C544 C 0.52643 0.1602 0.23123 0.0
C545 C 0.54738 0.17208 0.25519 0.0
C546 C 0.47741 0.14631 0.22266 0.0
C547 C 0.47113 0.16194 0.18669 0.0
C548 C 0.46001 0.12439 0.23448 0.0
C549 C 0.46739 0.10532 0.26908 0.0
C550 C 0.48902 0.08675 0.26355 0.0
C551 C 0.49583 0.06836 0.2959 0.0
C552 C 0.48141 0.06871 0.33417 0.0
C553 C 0.45991 0.08718 0.33989 0.0
C554 C 0.45261 0.10519 0.30726 0.0
C555 C 0.38109 0.12964 0.08356 0.0
C556 C 0.35634 0.13589 0.10361 0.0
C557 C 0.40481 0.12609 0.1076 0.0
C558 C 0.40411 0.12999 0.15176 0.0
C559 C 0.3789 0.134 0.17203 0.0
C560 C 0.35514 0.13706 0.148 0.0
C561 C 0.42968 0.13533 0.17541 0.0
C562 C 0.43596 0.11953 0.21131 0.0
C563 C 0.44745 0.15687 0.16309 0.0
C564 C 0.44112 0.1754 0.12708 0.0
C565 C 0.41684 0.19085 0.12673 0.0
C566 C 0.41064 0.20763 0.0921 0.0
C567 C 0.42874 0.2094 0.0579 0.0
C568 C 0.45311 0.19443 0.05829 0.0
C569 C 0.45934 0.17752 0.09276 0.0
H570 H 0.42391 0.2224 0.03111 0.0
H571 H 0.48687 0.05471 0.3594 0.0
H572 H 0.23728 0.48936 0.72919 0.0
H573 H 0.21914 0.52277 0.77965 0.0
H574 H 0.14126 0.48119 0.77857 0.0
H575 H 0.15871 0.44869 0.72553 0.0
H576 H 0.13318 0.53314 0.76985 0.0
H577 H 0.18388 0.47799 0.86538 0.0
H578 H 0.22398 0.45272 0.89226 0.0
H579 H 0.26973 0.52777 0.90005 0.0
H580 H 0.23003 0.55345 0.87265 0.0
H581 H 0.14268 0.62564 0.97841 0.0
H582 H 0.14142 0.58043 0.94418 0.0
H583 H 0.14098 0.61974 0.82137 0.0
H584 H 0.14119 0.6644 0.85577 0.0
H585 H 0.18092 0.56181 0.90126 0.0
H586 H 0.1176 0.57782 0.74285 0.0
H587 H 0.07191 0.59314 0.71984 0.0
H588 H 0.0425 0.58733 0.84757 0.0
H589 H 0.08794 0.5719 0.87172 0.0
C590 C 0.21626 0.48737 0.7398 0.0
C591 C 0.19925 0.46675 0.7233 0.0
C592 C 0.20597 0.50632 0.76878 0.0
C593 C 0.17873 0.50443 0.78275 0.0
C594 C 0.16205 0.48323 0.76735 0.0
C595 C 0.17207 0.4647 0.7374 0.0
C596 C 0.16721 0.52552 0.81148 0.0
C597 C 0.14352 0.53947 0.79868 0.0
C598 C 0.18012 0.53291 0.84992 0.0
C599 C 0.20401 0.51761 0.86672 0.0
C600 C 0.20254 0.48908 0.87259 0.0
C601 C 0.2252 0.47469 0.88795 0.0
C602 C 0.2494 0.48862 0.8978 0.0
C603 C 0.25097 0.517 0.8924 0.0
C604 C 0.22839 0.53149 0.87702 0.0
C605 C 0.14122 0.62439 0.94418 0.0
C606 C 0.14171 0.64822 0.91944 0.0
C607 C 0.14066 0.59868 0.92464 0.0
C608 C 0.14106 0.5966 0.88013 0.0
C609 C 0.14006 0.62063 0.85566 0.0
C610 C 0.14038 0.64619 0.87523 0.0
C611 C 0.14709 0.5701 0.85913 0.0
C612 C 0.17013 0.55534 0.87291 0.0
C613 C 0.13288 0.56133 0.82243 0.0
C614 C 0.10634 0.57357 0.80911 0.0
C615 C 0.10148 0.57993 0.7662 0.0
C616 C 0.0756 0.58862 0.75296 0.0
C617 C 0.05435 0.591 0.78229 0.0
C618 C 0.05908 0.58547 0.82508 0.0
C619 C 0.08495 0.57689 0.83858 0.0
H620 H 0.03414 0.59693 0.77185 0.0
H621 H 0.26692 0.47744 0.90967 0.0
H622 H 0.46601 0.85781 0.31772 0.0
H623 H 0.49398 0.88095 0.26395 0.0
H624 H 0.53694 0.8053 0.2402 0.0
H625 H 0.50877 0.78208 0.29298 0.0
H626 H 0.54568 0.89178 0.25382 0.0
H627 H 0.55145 0.79618 0.14075 0.0
H628 H 0.52083 0.75878 0.11784 0.0
H629 H 0.45062 0.80701 0.15114 0.0
H630 H 0.48077 0.84487 0.17356 0.0
H631 H 0.66919 0.87548 0.15137 0.0
H632 H 0.62627 0.88005 0.19016 0.0
H633 H 0.58179 0.88054 0.07163 0.0
H634 H 0.62516 0.8752 0.033 0.0
H635 H 0.56099 0.84453 0.11669 0.0
H636 H 0.57647 0.93594 0.14446 0.0
H637 H 0.59827 0.97999 0.16251 0.0
H638 H 0.61448 0.95086 0.28853 0.0
H639 H 0.59344 0.90633 0.27086 0.0
C640 C 0.48166 0.84624 0.30133 0.0
C641 C 0.48536 0.81814 0.30961 0.0
C642 C 0.49751 0.85946 0.27048 0.0
C643 C 0.51718 0.84475 0.24744 0.0
C644 C 0.52136 0.81691 0.25671 0.0
C645 C 0.50538 0.80367 0.28705 0.0
C646 C 0.53376 0.85809 0.21381 0.0
C647 C 0.54899 0.88165 0.22367 0.0
C648 C 0.53667 0.84595 0.17335 0.0
C649 C 0.51842 0.82336 0.15901 0.0
C650 C 0.52948 0.79892 0.14286 0.0
C651 C 0.5122 0.7776 0.13003 0.0
C652 C 0.4838 0.7805 0.13308 0.0
C653 C 0.47262 0.80476 0.14886 0.0
C654 C 0.4898 0.82615 0.16166 0.0
C655 C 0.65024 0.87725 0.13377 0.0
C656 C 0.65018 0.87483 0.08955 0.0
C657 C 0.6257 0.8802 0.15583 0.0
C658 C 0.60062 0.88079 0.13393 0.0
C659 C 0.60082 0.88008 0.08929 0.0
C660 C 0.62549 0.8771 0.06723 0.0
C661 C 0.57468 0.87705 0.15795 0.0
C662 C 0.55746 0.85522 0.1463 0.0
C663 C 0.56911 0.89167 0.19576 0.0
C664 C 0.58346 0.91769 0.20616 0.0
C665 C 0.58515 0.93873 0.17575 0.0
C666 C 0.59726 0.96383 0.18598 0.0
C667 C 0.6076 0.96825 0.22672 0.0
C668 C 0.60634 0.94741 0.25704 0.0
C669 C 0.59432 0.92222 0.24691 0.0
H670 H 0.61638 0.98789 0.23486 0.0
H671 H 0.47047 0.76396 0.1232 0.0
H672 H 0.39028 0.03326 0.06756 0.0
H673 H 0.43477 0.01057 0.06952 0.0
H674 H 0.46528 0.06672 0.97481 0.0
H675 H 0.42028 0.08863 0.97125 0.0
H676 H 0.48436 0.01898 0.95789 0.0
H677 H 0.48199 0.07196 0.08638 0.0
H678 H 0.4611 0.08772 0.15265 0.0
H679 H 0.46116 1.00547 0.20116 0.0
H680 H 0.48231 0.98915 0.13464 0.0
H681 H 0.62691 1.0033 0.99315 0.0
H682 H 0.57997 0.0204 0.98966 0.0
H683 H 0.55325 0.95492 0.07179 0.0
H684 H 0.60038 0.93778 0.07555 0.0
H685 H 0.53142 1.00419 0.0955 0.0
H686 H 0.53895 0.95265 0.96707 0.0
H687 H 0.55988 0.93848 0.89943 0.0
H688 H 0.5504 0.02001 0.85041 0.0
H689 H 0.52976 0.03478 0.91801 0.0
C690 C 0.40643 0.04076 0.04703 0.0
C691 C 0.40167 0.06282 0.01926 0.0
C692 C 0.43202 0.02785 0.0484 0.0
C693 C 0.45381 0.03716 0.02294 0.0
C694 C 0.44896 0.05905 0.99485 0.0
C695 C 0.42318 0.07164 0.99289 0.0
C696 C 0.48159 0.02421 0.02558 0.0
C697 C 0.49473 0.01611 0.98798 0.0
C698 C 0.49508 0.01961 0.06482 0.0
C699 C 0.48343 0.02933 0.10544 0.0
C700 C 0.47752 0.05722 0.11116 0.0
C701 C 0.46559 0.06625 0.14882 0.0
C702 C 0.4595 0.04761 0.18115 0.0
C703 C 0.46578 0.01989 0.17604 0.0
C704 C 0.47784 0.01074 0.1384 0.0
C705 C 0.61107 0.99243 0.01037 0.0
C706 C 0.61743 0.96901 0.03446 0.0
C707 C 0.58416 1.0022 0.00821 0.0
C708 C 0.56291 0.98881 0.03006 0.0
C709 C 0.56922 0.96557 0.0545 0.0
C710 C 0.59615 0.95568 0.05645 0.0
C711 C 0.53427 0.99943 0.02776 0.0
C712 C 0.52097 0.007 0.06543 0.0
C713 C 0.52075 1.00372 0.98855 0.0
C714 C 0.53302 0.99487 0.94776 0.0
C715 C 0.54151 0.96761 0.94199 0.0
C716 C 0.5533 0.95946 0.90363 0.0
C717 C 0.55652 0.97835 0.87068 0.0
C718 C 0.54791 1.00541 0.87598 0.0
C719 C 0.53614 0.01367 0.9143 0.0
H720 H 0.56565 0.972 0.84101 0.0
H721 H 0.44997 0.05461 0.21015 0.0
H722 H 0.96972 0.39776 0.05342 0.0
H723 H 0.99209 0.44236 0.05031 0.0
H724 H 0.96333 0.4533 0.92202 0.0
H725 H 0.94156 0.40808 0.92448 0.0
H726 H 0.01415 0.46796 0.92625 0.0
H727 H 0.93564 0.48915 0.01147 0.0
H728 H 0.90346 0.48317 0.07117 0.0
H729 H 0.96882 0.49665 0.15979 0.0
H730 H 1.00149 0.50213 0.10073 0.0
H731 H 0.04975 0.61021 0.91628 0.0
H732 H 0.0273 0.56536 0.91597 0.0
H733 H 0.05624 0.55045 0.0431 0.0
H734 H 0.07849 0.59543 0.04377 0.0
H735 H 1.0041 0.53845 0.03817 0.0
H736 H 0.0828 0.51519 0.95362 0.0
H737 H 0.11619 0.51402 0.89487 0.0
H738 H 0.05086 0.50316 0.80529 0.0
H739 H 0.01706 0.50443 0.86337 0.0
C740 C 0.96793 0.40969 0.02458 0.0
C741 C 0.95369 0.39931 0.98925 0.0
C742 C 0.98063 0.43539 0.02296 0.0
C743 C 0.97908 0.45161 0.9862 0.0
C744 C 0.96482 0.4413 0.95084 0.0
C745 C 0.95224 0.41546 0.95234 0.0
C746 C 0.99343 0.47868 0.98406 0.0
C747 C 0.01151 0.48361 0.9503 0.0
C748 C 0.99073 0.49885 0.0161 0.0
C749 C 0.97105 0.49577 0.05165 0.0
C750 C 0.94318 0.49059 0.04369 0.0
C751 C 0.92485 0.48734 0.07739 0.0
C752 C 0.9341 0.48949 0.11919 0.0
C753 C 0.96169 0.49496 0.12739 0.0
C754 C 0.98012 0.49814 0.09382 0.0
C755 C 0.05158 0.59728 0.94404 0.0
C756 C 0.0659 0.60651 0.98009 0.0
C757 C 0.03885 0.57152 0.9437 0.0
C758 C 0.04023 0.55427 0.97932 0.0
C759 C 0.05485 0.5633 0.01516 0.0
C760 C 0.06758 0.58907 0.01552 0.0
C761 C 0.02497 0.52771 0.98035 0.0
C762 C 0.00661 0.52291 0.01391 0.0
C763 C 0.02737 0.50768 0.94804 0.0
C764 C 0.04739 0.51008 0.91285 0.0
C765 C 0.07551 0.51304 0.92134 0.0
C766 C 0.09452 0.51211 0.8882 0.0
C767 C 0.0856 0.50828 0.84651 0.0
C768 C 0.05768 0.50598 0.83766 0.0
C769 C 0.03862 0.50681 0.87065 0.0
H770 H 0.10025 0.50699 0.82097 0.0
H771 H 0.91987 0.48698 0.14522 0.0
H772 H 0.9227 0.58728 0.49076 0.0
H773 H 0.96661 0.56364 0.49781 0.0
H774 H 0.92801 0.50167 0.57523 0.0
H775 H 0.88446 0.52609 0.57006 0.0
H776 H 0.97472 0.50978 0.60603 0.0
H777 H 0.94412 0.49331 0.46415 0.0
H778 H 0.928 0.50546 0.39242 0.0
H779 H 1.00258 0.54981 0.36944 0.0
H780 H 0.019 0.53819 0.44126 0.0
H781 H 0.08715 0.4173 0.49728 0.0
H782 H 0.04221 0.43933 0.49937 0.0
H783 H 0.07184 0.49619 0.5934 0.0
H784 H 0.11697 0.47424 0.59125 0.0
H785 H 0.02898 0.48911 0.47712 0.0
H786 H 0.02178 0.51691 0.65532 0.0
H787 H 0.02689 0.49649 0.72658 0.0
H788 H 0.01693 0.41604 0.67363 0.0
H789 H 0.01256 0.43597 0.60206 0.0
C790 C 0.92362 0.56864 0.50936 0.0
C791 C 0.90004 0.55841 0.52949 0.0
C792 C 0.94875 0.55502 0.51323 0.0
C793 C 0.95073 0.53039 0.53627 0.0
C794 C 0.92722 0.52053 0.55715 0.0
C795 C 0.90224 0.53448 0.55407 0.0
C796 C 0.97704 0.51466 0.53822 0.0
C797 C 0.98662 0.50544 0.57777 0.0
C798 C 0.99242 0.50816 0.50142 0.0
C799 C 0.98266 0.51511 0.4582 0.0
C800 C 0.957 0.5058 0.44388 0.0
C801 C 0.94782 0.51257 0.40321 0.0
C802 C 0.96423 0.52846 0.37643 0.0
C803 C 0.98988 0.53754 0.39024 0.0
C804 C 0.99914 0.53085 0.43091 0.0
C805 C 0.0841 0.43438 0.51865 0.0
C806 C 0.10572 0.44395 0.5442 0.0
C807 C 0.05831 0.44695 0.51989 0.0
C808 C 0.05339 0.46936 0.54682 0.0
C809 C 0.07483 0.47865 0.57292 0.0
C810 C 0.10069 0.46611 0.57159 0.0
C811 C 0.02669 0.48433 0.54495 0.0
C812 C 0.01717 0.49362 0.50539 0.0
C813 C 0.01082 0.48999 0.5815 0.0
C814 C 0.01719 0.4779 0.62339 0.0
C815 C 0.02115 0.49485 0.65889 0.0
C816 C 0.02382 0.48337 0.69932 0.0
C817 C 0.0221 0.45499 0.70467 0.0
C818 C 0.01827 0.43801 0.66948 0.0
C819 C 0.01607 0.44936 0.62891 0.0
H820 H 0.02392 0.44615 0.73603 0.0
H821 H 0.95709 0.53368 0.34496 0.0
H822 H 0.59903 0.08187 0.49422 0.0
H823 H 0.57336 0.03889 0.48649 0.0
H824 H 0.50293 0.0841 0.44301 0.0
H825 H 0.52853 0.12704 0.45065 0.0
H826 H 0.48886 0.04872 0.50396 0.0
H827 H 0.53477 0.03689 0.3664 0.0
H828 H 0.57185 0.03123 0.31396 0.0
H829 H 0.61283 0.975 0.39716 0.0
H830 H 0.57536 0.97947 0.44928 0.0
H831 H 0.40922 0.92926 0.46231 0.0
H832 H 0.43351 0.97301 0.45653 0.0
H833 H 0.51017 0.93159 0.4798 0.0
H834 H 0.48604 0.88767 0.48193 0.0
H835 H 0.51961 0.96665 0.42494 0.0
H836 H 0.471 0.97416 0.55861 0.0
H837 H 0.42994 0.97356 0.60422 0.0
H838 H 0.39393 0.03759 0.5293 0.0
H839 H 0.43472 0.03842 0.48311 0.0
C840 C 0.57808 0.0826 0.48297 0.0
C841 C 0.56576 0.10785 0.47324 0.0
C842 C 0.56352 0.05799 0.47803 0.0
C843 C 0.53622 0.05811 0.4637 0.0
C844 C 0.52395 0.08337 0.45398 0.0
C845 C 0.53859 0.10793 0.45845 0.0
C846 C 0.51977 0.03229 0.46247 0.0
C847 C 0.49544 0.03088 0.48621 0.0
C848 C 0.52843 0.0087 0.44023 0.0
C849 C 0.55252 0.0088 0.41186 0.0
C850 C 0.5519 0.02365 0.37372 0.0
C851 C 0.57284 0.02043 0.3439 0.0
C852 C 0.59476 1.00289 0.35237 0.0
C853 C 0.59587 0.98863 0.39072 0.0
C854 C 0.57471 0.99134 0.42026 0.0
C855 C 0.43126 0.9296 0.46625 0.0
C856 C 0.44575 0.90513 0.47293 0.0
C857 C 0.44518 0.95468 0.46331 0.0
C858 C 0.47378 0.95601 0.46889 0.0
C859 C 0.48817 0.93139 0.47544 0.0
C860 C 0.47436 0.90624 0.47687 0.0
C861 C 0.48897 0.98273 0.46727 0.0
C862 C 0.51301 0.9844 0.4429 0.0
C863 C 0.48014 0.00647 0.48928 0.0
C864 C 0.4558 0.00623 0.51732 0.0
C865 C 0.45428 0.98804 0.55184 0.0
C866 C 0.43107 0.98767 0.57779 0.0
C867 C 0.40933 1.0055 0.56964 0.0
C868 C 0.41079 0.0238 0.5356 0.0
C869 C 0.43396 0.02427 0.50958 0.0
H870 H 0.39137 1.00516 0.58974 0.0
H871 H 0.61074 1.00006 0.32906 0.0
H872 H 0.21118 0.28886 0.55632 0.0
H873 H 0.23397 0.25775 0.60554 0.0
H874 H 0.28536 0.324 0.64878 0.0
H875 H 0.26233 0.35528 0.59957 0.0
H876 H 0.2832 0.2382 0.63425 0.0
H877 H 0.2801 0.32648 0.75297 0.0
H878 H 0.25738 0.37144 0.76038 0.0
H879 H 0.18753 0.34113 0.69201 0.0
H880 H 0.20984 0.2962 0.6842 0.0
H881 H 0.33188 0.18367 0.82711 0.0
H882 H 0.32437 0.21512 0.76837 0.0
H883 H 0.2395 0.22278 0.80383 0.0
H884 H 0.24676 0.19103 0.86305 0.0
H885 H 0.26024 0.27211 0.77838 0.0
H886 H 0.25707 0.18098 0.7236 0.0
H887 H 0.2734 0.13382 0.71186 0.0
H888 H 0.34521 0.16488 0.64949 0.0
H889 H 0.32947 0.21219 0.66147 0.0
C890 C 0.22843 0.29643 0.57453 0.0
C891 C 0.23494 0.3245 0.57404 0.0
C892 C 0.24133 0.27864 0.60301 0.0
C893 C 0.26087 0.28865 0.63178 0.0
C894 C 0.27002 0.31588 0.62735 0.0
C895 C 0.25714 0.33371 0.59864 0.0
C896 C 0.26764 0.27217 0.67033 0.0
C897 C 0.27861 0.24578 0.66579 0.0
C898 C 0.26066 0.28151 0.7115 0.0
C899 C 0.24668 0.3081 0.71788 0.0
C900 C 0.25983 0.32943 0.73979 0.0
C901 C 0.24706 0.35494 0.74389 0.0
C902 C 0.22107 0.35921 0.72652 0.0
C903 C 0.20771 0.33793 0.70524 0.0
C904 C 0.2204 0.31245 0.70096 0.0
C905 C 0.31156 0.19207 0.82279 0.0
C906 C 0.28994 0.18452 0.8501 0.0
C907 C 0.30733 0.21013 0.78898 0.0
C908 C 0.28129 0.2211 0.7811 0.0
C909 C 0.25982 0.21461 0.80919 0.0
C910 C 0.26405 0.19645 0.84327 0.0
C911 C 0.27641 0.23826 0.74248 0.0
C912 C 0.2655 0.2647 0.747 0.0
C913 C 0.28273 0.22861 0.70116 0.0
C914 C 0.29222 0.20016 0.69374 0.0
C915 C 0.27644 0.17775 0.70765 0.0
C916 C 0.28557 0.15098 0.70093 0.0
C917 C 0.31036 0.14635 0.68003 0.0
C918 C 0.32603 0.16848 0.66572 0.0
C919 C 0.317 0.19529 0.67243 0.0
H920 H 0.3174 0.12561 0.67485 0.0
H921 H 0.21125 0.37897 0.72961 0.0
H922 H 0.14507 0.73816 0.20311 0.0
H923 H 0.17941 0.74574 0.25826 0.0
H924 H 0.2435 0.7418 0.16453 0.0
H925 H 0.20897 0.73455 0.10863 0.0
H926 H 0.25148 0.70847 0.24416 0.0
H927 H 0.23196 0.80027 0.19705 0.0
H928 H 0.20178 0.83885 0.17821 0.0
H929 H 0.16851 0.83892 0.30426 0.0
H930 H 0.19822 0.80004 0.32366 0.0
H931 H 0.35863 0.76225 0.37568 0.0
H932 H 0.32616 0.74596 0.32266 0.0
H933 H 0.25928 0.77702 0.39807 0.0
H934 H 0.29222 0.79534 0.44928 0.0
H935 H 0.25334 0.79562 0.32483 0.0
H936 H 0.27511 0.70651 0.37495 0.0
H937 H 0.30538 0.66877 0.39528 0.0
H938 H 0.33312 0.66124 0.2667 0.0
H939 H 0.30357 0.69984 0.24562 0.0
C940 C 0.16646 0.7391 0.19407 0.0
C941 C 0.17425 0.736 0.15139 0.0
C942 C 0.18606 0.74337 0.22569 0.0
C943 C 0.21402 0.74423 0.21558 0.0
C944 C 0.22202 0.74111 0.17302 0.0
C945 C 0.20227 0.7373 0.14108 0.0
C946 C 0.23454 0.74893 0.24978 0.0
C947 C 0.25229 0.72762 0.26152 0.0
C948 C 0.23491 0.7736 0.27319 0.0
C949 C 0.21712 0.79707 0.26167 0.0
C950 C 0.21803 0.80835 0.22064 0.0
C951 C 0.20105 0.8303 0.20988 0.0
C952 C 0.18319 0.84128 0.23999 0.0
C953 C 0.18233 0.83037 0.28095 0.0
C954 C 0.19925 0.80839 0.29186 0.0
C955 C 0.33691 0.76428 0.38202 0.0
C956 C 0.32788 0.77958 0.417 0.0
C957 C 0.31824 0.75519 0.35134 0.0
C958 C 0.29002 0.76025 0.35591 0.0
C959 C 0.28088 0.77303 0.39332 0.0
C960 C 0.29965 0.78294 0.42323 0.0
C961 C 0.27046 0.755 0.32014 0.0
C962 C 0.25275 0.7763 0.30788 0.0
C963 C 0.27008 0.73019 0.2966 0.0
C964 C 0.28728 0.70637 0.30878 0.0
C965 C 0.28791 0.69711 0.35101 0.0
C966 C 0.3051 0.6756 0.36274 0.0
C967 C 0.32137 0.66264 0.33243 0.0
C968 C 0.32053 0.6713 0.29021 0.0
C969 C 0.30359 0.69308 0.27835 0.0
H970 H 0.33449 0.64581 0.34162 0.0
H971 H 0.17006 0.85829 0.2316 0.0
H972 H 0.80668 0.71588 0.57313 0.0
H973 H 0.78526 0.75015 0.6185 0.0
H974 H 0.72122 0.6928 0.65006 0.0
H975 H 0.74302 0.65814 0.60497 0.0
H976 H 0.70967 0.75862 0.64769 0.0
H977 H 0.76381 0.6846 0.71111 0.0
H978 H 0.80443 0.65466 0.70977 0.0
H979 H 0.85702 0.72516 0.71613 0.0
H980 H 0.81665 0.75555 0.71654 0.0
H981 H 0.68002 0.81697 0.8479 0.0
H982 H 0.68793 0.78465 0.79014 0.0
H983 H 0.77312 0.80847 0.78667 0.0
H984 H 0.76544 0.83969 0.84636 0.0
H985 H 0.77141 0.7579 0.77289 0.0
H986 H 0.71971 0.83232 0.71351 0.0
H987 H 0.6811 0.86449 0.70627 0.0
H988 H 0.62585 0.79711 0.68659 0.0
H989 H 0.66408 0.76452 0.69429 0.0
C990 C 0.78712 0.71113 0.58763 0.0
C991 C 0.77638 0.68447 0.58531 0.0
C992 C 0.775 0.73068 0.61384 0.0
C993 C 0.75191 0.72387 0.63808 0.0
C994 C 0.739 0.69847 0.63145 0.0
C995 C 0.75128 0.67875 0.60525 0.0
C996 C 0.74536 0.74064 0.67598 0.0
C997 C 0.72278 0.75824 0.67547 0.0
C998 C 0.76301 0.74059 0.71157 0.0
C999 C 0.78724 0.72233 0.71346 0.0
C1000 C 0.78404 0.69371 0.71198 0.0
C1001 C 0.80701 0.67666 0.71138 0.0
C1002 C 0.8333 0.688 0.71275 0.0
C1003 C 0.83665 0.71641 0.715 0.0
C1004 C 0.81373 0.73355 0.71543 0.0
C1005 C 0.70051 0.81505 0.83508 0.0
C1006 C 0.72212 0.83082 0.85166 0.0
C1007 C 0.70497 0.79677 0.80166 0.0
C1008 C 0.73097 0.79455 0.78285 0.0
C1009 C 0.7528 0.80979 0.80027 0.0
C1010 C 0.74846 0.8276 0.83451 0.0
C1011 C 0.73545 0.77638 0.74523 0.0
C1012 C 0.7579 0.75838 0.74559 0.0
C1013 C 0.71775 0.77638 0.70933 0.0
C1014 C 0.69472 0.79597 0.70496 0.0
C1015 C 0.69929 0.82435 0.70799 0.0
C1016 C 0.67748 0.84267 0.70374 0.0
C1017 C 0.65103 0.83285 0.69609 0.0
C1018 C 0.64634 0.80469 0.69258 0.0
C1019 C 0.66807 0.78629 0.69688 0.0
H1020 H 0.63417 0.84706 0.69277 0.0
H1021 H 0.85106 0.67477 0.71216 0.0
H1022 H 0.80178 0.28386 0.13007 0.0
H1023 H 0.76801 0.27692 0.18726 0.0
H1024 H 0.83354 0.27084 0.27834 0.0
H1025 H 0.86713 0.27865 0.2219 0.0
H1026 H 0.78413 0.22678 0.27512 0.0
H1027 H 0.81042 0.3243 0.28586 0.0
H1028 H 0.81531 0.37047 0.25488 0.0
H1029 H 0.72973 0.37103 0.22345 0.0
H1030 H 0.72447 0.32464 0.25366 0.0
H1031 H 0.7238 0.22008 0.46903 0.0
H1032 H 0.75592 0.23941 0.41771 0.0
H1033 H 0.68902 0.27881 0.35265 0.0
H1034 H 0.65703 0.26054 0.4053 0.0
H1035 H 0.73589 0.30655 0.33782 0.0
H1036 H 0.70562 0.21476 0.3264 0.0
H1037 H 0.6956 0.16785 0.351 0.0
H1038 H 0.78122 0.15414 0.37343 0.0
H1039 H 0.79173 0.20119 0.3496 0.0
C1040 C 0.80892 0.28065 0.16222 0.0
C1041 C 0.83708 0.28163 0.17157 0.0
C1042 C 0.78965 0.27689 0.19483 0.0
C1043 C 0.79833 0.27352 0.23702 0.0
C1044 C 0.82644 0.27348 0.24604 0.0
C1045 C 0.84558 0.2779 0.21378 0.0
C1046 C 0.7783 0.27039 0.27218 0.0
C1047 C 0.7738 0.24422 0.28913 0.0
C1048 C 0.76397 0.293 0.28928 0.0
C1049 C 0.76715 0.32089 0.27148 0.0
C1050 C 0.79273 0.33415 0.27191 0.0
C1051 C 0.79555 0.36038 0.2546 0.0
C1052 C 0.77286 0.37364 0.23707 0.0
C1053 C 0.74729 0.36071 0.23695 0.0
C1054 C 0.74439 0.33446 0.25417 0.0
C1055 C 0.71617 0.23424 0.44534 0.0
C1056 C 0.6879 0.2386 0.44098 0.0
C1057 C 0.73449 0.24493 0.41552 0.0
C1058 C 0.72475 0.2596 0.38023 0.0
C1059 C 0.69702 0.26721 0.37919 0.0
C1060 C 0.67871 0.2569 0.4096 0.0
C1061 C 0.74245 0.26299 0.34197 0.0
C1062 C 0.74628 0.28907 0.32406 0.0
C1063 C 0.75553 0.24012 0.32298 0.0
C1064 C 0.74944 0.2116 0.33658 0.0
C1065 C 0.72231 0.2018 0.33681 0.0
C1066 C 0.71653 0.17519 0.35062 0.0
C1067 C 0.73775 0.15805 0.36388 0.0
C1068 C 0.7648 0.16747 0.3632 0.0
C1069 C 0.77069 0.1941 0.34952 0.0
H1070 H 0.73323 0.13746 0.37458 0.0
H1071 H 0.77508 0.39395 0.22369 0.0
H1072 H 0.74981 0.66832 0.33929 0.0
H1073 H 0.74057 0.69702 0.27652 0.0
H1074 H 0.81076 0.74711 0.30635 0.0
H1075 H 0.82059 0.71803 0.36794 0.0
H1076 H 0.75265 0.77382 0.28247 0.0
H1077 H 0.82607 0.71156 0.23845 0.0
H1078 H 0.84556 0.66536 0.2295 0.0
H1079 H 0.77677 0.64198 0.15264 0.0
H1080 H 0.75666 0.68796 0.16175 0.0
H1081 H 0.75886 0.85553 0.10163 0.0
H1082 H 0.77838 0.82489 0.15518 0.0
H1083 H 0.72969 0.75818 0.1065 0.0
H1084 H 0.7098 0.78888 0.05362 0.0
H1085 H 0.77804 0.73924 0.13977 0.0
H1086 H 0.70258 0.79332 0.18221 0.0
H1087 H 0.67414 0.83413 0.19434 0.0
H1088 H 0.73669 0.86846 0.27411 0.0
H1089 H 0.76555 0.82764 0.26249 0.0
C1090 C 0.76292 0.68575 0.33278 0.0
C1091 C 0.78578 0.69112 0.3586 0.0
C1092 C 0.75778 0.70197 0.29683 0.0
C1093 C 0.77511 0.72408 0.28672 0.0
C1094 C 0.7972 0.73013 0.31354 0.0
C1095 C 0.80273 0.71357 0.34873 0.0
C1096 C 0.77068 0.74058 0.24768 0.0
C1097 C 0.75869 0.76652 0.25136 0.0
C1098 C 0.77753 0.73056 0.20695 0.0
C1099 C 0.78972 0.70306 0.20121 0.0
C1100 C 0.81497 0.69647 0.22003 0.0
C1101 C 0.82616 0.67035 0.21484 0.0
C1102 C 0.81237 0.65071 0.19063 0.0
C1103 C 0.7874 0.65719 0.17145 0.0
C1104 C 0.77611 0.68328 0.17659 0.0
C1105 C 0.75341 0.83403 0.10086 0.0
C1106 C 0.73271 0.82463 0.0735 0.0
C1107 C 0.76429 0.81658 0.13196 0.0
C1108 C 0.75495 0.78937 0.13561 0.0
C1109 C 0.73709 0.77908 0.10458 0.0
C1110 C 0.72595 0.7966 0.07396 0.0
C1111 C 0.76063 0.77294 0.17456 0.0
C1112 C 0.77253 0.74688 0.17091 0.0
C1113 C 0.75292 0.78248 0.21532 0.0
C1114 C 0.73638 0.80764 0.22096 0.0
C1115 C 0.71044 0.80974 0.20185 0.0
C1116 C 0.6942 0.83283 0.20877 0.0
C1117 C 0.70366 0.85399 0.23477 0.0
C1118 C 0.7294 0.85206 0.25395 0.0
C1119 C 0.74571 0.82894 0.24724 0.0
H1120 H 0.69101 0.87184 0.24012 0.0
H1121 H 0.82107 0.6305 0.18663 0.0
H1122 H 0.7918 0.27131 0.9616 0.0
H1123 H 0.76518 0.26307 0.89691 0.0
H1124 H 0.83211 0.29371 0.82126 0.0
H1125 H 0.85911 0.30087 0.88562 0.0
H1126 H 0.77959 0.31499 0.79687 0.0
H1127 H 0.82433 0.23164 0.81962 0.0
H1128 H 0.84158 0.19002 0.85462 0.0
H1129 H 0.75916 0.16167 0.87322 0.0
H1130 H 0.74132 0.20372 0.84017 0.0
H1131 H 0.70811 0.26251 0.61023 0.0
H1132 H 0.74381 0.27341 0.66209 0.0
H1133 H 0.69186 0.24411 0.76293 0.0
H1134 H 0.65602 0.23363 0.71201 0.0
H1135 H 0.74421 0.22186 0.76528 0.0
H1136 H 0.70243 0.3137 0.75258 0.0
H1137 H 0.68796 0.35298 0.70861 0.0
H1138 H 0.76958 0.36073 0.65946 0.0
H1139 H 0.78465 0.32192 0.7038 0.0
C1140 C 0.80083 0.27627 0.93115 0.0
C1141 C 0.82743 0.28705 0.92891 0.0
C1142 C 0.78563 0.27156 0.89424 0.0
C1143 C 0.79663 0.27786 0.85424 0.0
C1144 C 0.82314 0.28889 0.85179 0.0
C1145 C 0.83856 0.29306 0.88873 0.0
C1146 C 0.78032 0.27244 0.81527 0.0
C1147 C 0.77218 0.29455 0.78966 0.0
C1148 C 0.77089 0.24575 0.80541 0.0
C1149 C 0.78144 0.22111 0.82779 0.0
C1150 C 0.80982 0.21688 0.83205 0.0
C1151 C 0.81973 0.19316 0.85153 0.0
C1152 C 0.80149 0.17326 0.8663 0.0
C1153 C 0.77329 0.17718 0.86203 0.0
C1154 C 0.76325 0.20102 0.84307 0.0
C1155 C 0.70392 0.25888 0.64344 0.0
C1156 C 0.67888 0.2472 0.65666 0.0
C1157 C 0.72452 0.26502 0.6731 0.0
C1158 C 0.72052 0.25954 0.71644 0.0
C1159 C 0.6955 0.24836 0.72967 0.0
C1160 C 0.67497 0.24237 0.7003 0.0
C1161 C 0.7424 0.26451 0.74843 0.0
C1162 C 0.75175 0.24224 0.77256 0.0
C1163 C 0.75334 0.29086 0.75635 0.0
C1164 C 0.74461 0.31495 0.73135 0.0
C1165 C 0.7173 0.32394 0.73255 0.0
C1166 C 0.70903 0.34617 0.70769 0.0
C1167 C 0.7279 0.35948 0.68144 0.0
C1168 C 0.75509 0.35067 0.68019 0.0
C1169 C 0.76354 0.32864 0.70531 0.0
H1170 H 0.72144 0.37657 0.66198 0.0
H1171 H 0.80922 0.15471 0.8807 0.0
H1172 H 0.19547 0.35236 0.30249 0.0
H1173 H 0.20338 0.31999 0.2454 0.0
H1174 H 0.25557 0.27227 0.32714 0.0
H1175 H 0.24766 0.30457 0.38507 0.0
H1176 H 0.27859 0.27764 0.25224 0.0
H1177 H 0.19032 0.25028 0.29955 0.0
H1178 H 0.14165 0.25406 0.31947 0.0
H1179 H 0.12188 0.28164 0.19382 0.0
H1180 H 0.1705 0.2785 0.17334 0.0
H1181 H 0.25075 0.15615 0.10817 0.0
H1182 H 0.23021 0.18792 0.15905 0.0
H1183 H 0.27612 0.25448 0.10372 0.0
H1184 H 0.29699 0.22264 0.05354 0.0
H1185 H 0.20305 0.23617 0.1686 0.0
H1186 H 0.30853 0.2891 0.18277 0.0
H1187 H 0.35721 0.27974 0.16779 0.0
H1188 H 0.34241 0.19336 0.17935 0.0
H1189 H 0.2937 0.20217 0.19488 0.0
C1190 C 0.20859 0.33497 0.30878 0.0
C1191 C 0.22097 0.33145 0.34888 0.0
C1192 C 0.21297 0.3163 0.27585 0.0
C1193 C 0.22975 0.29335 0.28188 0.0
C1194 C 0.24246 0.28979 0.3216 0.0
C1195 C 0.23805 0.30851 0.35478 0.0
C1196 C 0.23484 0.27388 0.2461 0.0
C1197 C 0.262 0.26861 0.2341 0.0
C1198 C 0.21328 0.26163 0.22247 0.0
C1199 C 0.18414 0.26446 0.23507 0.0
C1200 C 0.17566 0.25751 0.27632 0.0
C1201 C 0.14806 0.25946 0.28768 0.0
C1202 C 0.1287 0.26817 0.25798 0.0
C1203 C 0.13691 0.27499 0.21686 0.0
C1204 C 0.16449 0.27315 0.20537 0.0
C1205 C 0.2551 0.17783 0.10512 0.0
C1206 C 0.27532 0.18696 0.07667 0.0
C1207 C 0.24368 0.19597 0.13474 0.0
C1208 C 0.25234 0.22345 0.1362 0.0
C1209 C 0.26958 0.23326 0.10388 0.0
C1210 C 0.28112 0.21513 0.07459 0.0
C1211 C 0.24666 0.24066 0.17433 0.0
C1212 C 0.21951 0.24539 0.18679 0.0
C1213 C 0.26819 0.25198 0.19901 0.0
C1214 C 0.29742 0.24632 0.18962 0.0
C1215 C 0.31568 0.26811 0.18219 0.0
C1216 C 0.34326 0.26289 0.17358 0.0
C1217 C 0.35286 0.23596 0.17253 0.0
C1218 C 0.3349 0.21417 0.18002 0.0
C1219 C 0.30729 0.21927 0.18869 0.0
H1220 H 0.37424 0.23203 0.16613 0.0
H1221 H 0.10733 0.26957 0.26679 0.0
H1222 H 0.15622 0.7587 0.89856 0.0
H1223 H 0.18669 0.77863 0.84475 0.0
H1224 H 0.25408 0.7319 0.89497 0.0
H1225 H 0.22389 0.71213 0.9486 0.0
H1226 H 0.24368 0.80438 0.83791 0.0
H1227 H 0.27133 0.69172 0.81651 0.0
H1228 H 0.25043 0.64604 0.82696 0.0
H1229 H 0.1708 0.67969 0.80223 0.0
H1230 H 0.19114 0.7255 0.79279 0.0
H1231 H 0.35688 0.79992 0.70169 0.0
H1232 H 0.32476 0.79159 0.7593 0.0
H1233 H 0.268 0.75474 0.6713 0.0
H1234 H 0.3005 0.7627 0.61311 0.0
H1235 H 0.26761 0.72683 0.74297 0.0
H1236 H 0.25649 0.82152 0.70941 0.0
H1237 H 0.27187 0.8686 0.69359 0.0
H1238 H 0.31008 0.87376 0.816 0.0
H1239 H 0.29489 0.82667 0.83253 0.0
C1240 C 0.17787 0.75397 0.89974 0.0
C1241 C 0.18769 0.73383 0.92783 0.0
C1242 C 0.19522 0.76514 0.86861 0.0
C1243 C 0.22252 0.7563 0.86535 0.0
C1244 C 0.23304 0.73884 0.89669 0.0
C1245 C 0.21582 0.72778 0.92768 0.0
C1246 C 0.23875 0.76128 0.8261 0.0
C1247 C 0.24892 0.78751 0.81711 0.0
C1248 C 0.24495 0.73945 0.7982 0.0
C1249 C 0.23272 0.71195 0.80417 0.0
C1250 C 0.24936 0.6893 0.81347 0.0
C1251 C 0.23758 0.66342 0.81948 0.0
C1252 C 0.20925 0.65997 0.81572 0.0
C1253 C 0.19265 0.68239 0.8059 0.0
C1254 C 0.20428 0.70832 0.80038 0.0
C1255 C 0.33764 0.78986 0.69446 0.0
C1256 C 0.33134 0.78204 0.6526 0.0
C1257 C 0.31915 0.78529 0.72753 0.0
C1258 C 0.29356 0.77318 0.71969 0.0
C1259 C 0.28753 0.76431 0.67822 0.0
C1260 C 0.30623 0.7687 0.64495 0.0
C1261 C 0.27335 0.76993 0.75499 0.0
C1262 C 0.26239 0.74389 0.76344 0.0
C1263 C 0.2658 0.79218 0.78155 0.0
C1264 C 0.27467 0.82058 0.77211 0.0
C1265 C 0.26823 0.83269 0.7329 0.0
C1266 C 0.27687 0.85938 0.72384 0.0
C1267 C 0.29195 0.87416 0.75378 0.0
C1268 C 0.29838 0.86229 0.79285 0.0
C1269 C 0.28969 0.83564 0.80215 0.0
H1270 H 0.29864 0.89482 0.7467 0.0
H1271 H 0.20018 0.63992 0.82018 0.0
H1272 H 0.21306 0.05978 0.99869 0.0
H1273 H 0.18999 0.01534 0.98994 0.0
H1274 H 0.26788 0.9742 0.99771 0.0
H1275 H 0.29094 0.01821 0.00665 0.0
H1276 H 0.23443 0.95211 0.93505 0.0
H1277 H 0.22902 0.97687 0.08286 0.0
H1278 H 0.21734 0.00701 0.14287 0.0
H1279 H 0.13254 1.00458 0.10686 0.0
H1280 H 0.14381 0.97472 0.04621 0.0
H1281 H 0.19166 0.8157 0.98387 0.0
H1282 H 0.21344 0.86098 0.98223 0.0
H1283 H 0.13428 0.89919 0.99548 0.0
H1284 H 0.11268 0.85421 0.99877 0.0
H1285 H 0.16764 0.92372 0.04521 0.0
H1286 H 0.17229 0.89838 0.89784 0.0
H1287 H 0.18382 0.86845 0.83742 0.0
H1288 H 0.26885 0.8718 0.87192 0.0
H1289 H 0.25783 0.90169 0.9324 0.0
C1290 C 0.22528 0.04129 0.99801 0.0
C1291 C 0.25383 0.04259 1.00368 0.0
C1292 C 0.21207 0.0159 0.99317 0.0
C1293 C 0.22719 0.99138 0.9935 0.0
C1294 C 0.25577 0.99278 0.99736 0.0
C1295 C 0.2689 0.01801 1.00269 0.0
C1296 C 0.21335 0.96415 0.992 0.0
C1297 C 0.21992 0.94582 0.95924 0.0
C1298 C 0.19413 0.95602 0.02317 0.0
C1299 C 0.1873 0.97383 0.05974 0.0
C1300 C 0.20792 0.98295 0.08753 0.0
C1301 C 0.20137 0.99995 0.1217 0.0
C1302 C 0.17422 0.00778 0.1286 0.0
C1303 C 0.15357 0.99854 0.10142 0.0
C1304 C 0.16002 0.98157 0.06716 0.0
C1305 C 0.17892 0.83377 0.98622 0.0
C1306 C 0.15043 0.83129 0.99154 0.0
C1307 C 0.19137 0.85972 0.98504 0.0
C1308 C 0.17553 0.88373 0.98825 0.0
C1309 C 0.14705 0.88114 0.99306 0.0
C1310 C 0.13469 0.85531 0.99482 0.0
C1311 C 0.18847 0.91153 0.98797 0.0
C1312 C 0.18187 0.92999 0.02062 0.0
C1313 C 0.20752 0.91981 0.95652 0.0
C1314 C 0.21422 0.90214 0.91976 0.0
C1315 C 0.19344 0.89266 0.89255 0.0
C1316 C 0.19989 0.87574 0.85823 0.0
C1317 C 0.22706 0.86825 0.85071 0.0
C1318 C 0.24783 0.87769 0.87752 0.0
C1319 C 0.24151 0.89468 0.91178 0.0
H1320 H 0.23199 0.85519 0.8241 0.0
H1321 H 0.16919 0.02093 0.15507 0.0
H1322 H 0.05392 0.79226 0.00544 0.0
H1323 H 0.00903 0.81369 0.01478 0.0
H1324 H 0.96967 0.74018 0.9694 0.0
H1325 H 0.01425 0.71881 0.95933 0.0
H1326 H 0.94653 0.78369 0.93443 0.0
H1327 H 0.97125 0.75701 0.07608 0.0
H1328 H 1.00078 0.75505 0.13948 0.0
H1329 H 0.99693 0.84259 0.15125 0.0
H1330 H 0.96766 0.84511 0.08755 0.0
H1331 H 0.81052 0.81747 0.99559 0.0
H1332 H 0.85499 0.79464 0.98971 0.0
H1333 H 0.89504 0.86697 0.03825 0.0
H1334 H 0.85076 0.88956 0.04525 0.0
H1335 H 0.91774 0.82362 0.07192 0.0
H1336 H 0.89362 0.85048 0.9299 0.0
H1337 H 0.86407 0.85262 0.86654 0.0
H1338 H 0.86697 0.76502 0.8552 0.0
H1339 H 0.89626 0.76233 0.91887 0.0
C1340 C 0.03574 0.78062 0.99747 0.0
C1341 C 0.03786 0.75373 0.9817 0.0
C1342 C 0.01002 0.79288 1.00301 0.0
C1343 C 0.98583 0.77849 0.99321 0.0
C1344 C 0.98794 0.75176 0.9772 0.0
C1345 C 0.01357 0.73952 0.97159 0.0
C1346 C 0.9583 0.79121 0.99924 0.0
C1347 C 0.94013 0.7921 0.96468 0.0
C1348 C 0.95001 0.80274 0.03839 0.0
C1349 C 0.96749 0.80127 0.0768 0.0
C1350 C 0.97687 0.77586 0.092 0.0
C1351 C 0.99353 0.77465 0.12802 0.0
C1352 C 1.00078 0.79869 0.14931 0.0
C1353 C 0.99132 0.82399 0.13469 0.0
C1354 C 0.97468 0.82532 0.09865 0.0
C1355 C 0.82879 0.82846 0.00519 0.0
C1356 C 0.82702 0.85542 0.02067 0.0
C1357 C 0.85426 0.81543 1.00161 0.0
C1358 C 0.87856 0.8292 0.01286 0.0
C1359 C 0.8767 0.85586 0.02927 0.0
C1360 C 0.85128 0.8688 0.03316 0.0
C1361 C 0.90597 0.81613 0.00709 0.0
C1362 C 0.92412 0.81519 0.04168 0.0
C1363 C 0.91428 0.80459 0.96792 0.0
C1364 C 0.89691 0.80619 0.92939 0.0
C1365 C 0.88781 0.83166 0.91405 0.0
C1366 C 0.87112 0.83298 0.87807 0.0
C1367 C 0.86358 0.80897 0.85693 0.0
C1368 C 0.87279 0.7836 0.87165 0.0
C1369 C 0.88945 0.78217 0.90766 0.0
H1370 H 0.85064 0.81003 0.8291 0.0
H1371 H 0.01368 0.7977 0.17719 0.0
H1372 H 0.77899 0.96116 0.95598 0.0
H1373 H 0.80039 0.00638 0.94687 0.0
H1374 H 0.75897 0.0352 0.05921 0.0
H1375 H 0.73661 0.99095 0.06686 0.0
H1376 H 0.75566 0.07268 0.00606 0.0
H1377 H 0.83122 0.01761 0.05277 0.0
H1378 H 0.86339 0.97874 0.05075 0.0
H1379 H 0.89101 1.00382 0.92739 0.0
H1380 H 0.85873 0.04265 0.92844 0.0
H1381 H 0.83437 0.1928 0.04657 0.0
H1382 H 0.81393 0.14707 0.05028 0.0
H1383 H 0.84816 0.12752 0.92796 0.0
H1384 H 0.86898 0.17306 0.92428 0.0
H1385 H 0.8552 0.08572 0.98232 0.0
H1386 H 0.77977 0.14376 0.94204 0.0
H1387 H 0.74848 0.18313 0.94976 0.0
H1388 H 0.72143 0.15202 0.07008 0.0
H1389 H 0.75296 0.11284 0.06334 0.0
C1390 C 0.77455 0.9772 0.97867 0.0
C1391 C 0.756 0.97248 0.01198 0.0
C1392 C 0.78691 1.00304 0.97364 0.0
C1393 C 0.78161 0.02439 1.0026 0.0
C1394 C 0.76336 0.01937 0.03614 0.0
C1395 C 0.75059 0.99392 0.04056 0.0
C1396 C 0.7944 0.05218 0.99804 0.0
C1397 C 0.77751 0.0754 1.00144 0.0
C1398 C 0.82284 0.05609 0.99113 0.0
C1399 C 0.84235 0.03285 0.99049 0.0
C1400 C 0.84402 0.01472 0.02509 0.0
C1401 C 0.86229 0.99272 0.02414 0.0
C1402 C 0.87917 0.98877 0.98891 0.0
C1403 C 0.87788 0.00687 0.95462 0.0
C1404 C 0.85962 0.02889 0.95538 0.0
C1405 C 0.83747 0.17884 0.02035 0.0
C1406 C 0.85328 0.18672 0.98506 0.0
C1407 C 0.82569 0.15266 0.02246 0.0
C1408 C 0.82921 0.13383 0.98918 0.0
C1409 C 0.84511 0.14161 0.95405 0.0
C1410 C 0.85691 0.16777 0.95191 0.0
C1411 C 0.81649 0.10599 0.99106 0.0
C1412 C 0.83336 0.08285 0.98697 0.0
C1413 C 0.78811 0.10213 0.99834 0.0
C1414 C 0.76891 0.12553 1.00225 0.0
C1415 C 0.76728 0.14547 0.97019 0.0
C1416 C 0.7495 0.16772 0.9744 0.0
C1417 C 0.73301 0.17008 0.0104 0.0
C1418 C 0.73424 0.15018 0.04222 0.0
C1419 C 0.75207 0.12795 0.0382 0.0
H1420 H 0.71925 0.18731 0.01361 0.0
H1421 H 0.8933 0.97172 0.98823 0.0
H1422 H 0.99607 0.29983 0.99167 0.0
H1423 H 0.04172 0.28028 0.99925 0.0
H1424 H 0.00648 0.20459 0.0441 0.0
H1425 H 0.96041 0.224 0.03656 0.0
H1426 H 0.05328 0.2224 0.09105 0.0
H1427 H 0.02637 0.20888 0.94429 0.0
H1428 H 0.00957 0.22534 0.87504 0.0
H1429 H 0.07882 0.27927 0.8646 0.0
H1430 H 0.09584 0.26342 0.93412 0.0
H1431 H 0.16368 0.13114 0.06387 0.0
H1432 H 0.12015 0.15543 0.06349 0.0
H1433 H 0.15786 0.223 0.99714 0.0
H1434 H 0.20158 0.19838 0.99656 0.0
H1435 H 0.1107 0.21235 0.9622 0.0
H1436 H 0.13975 0.22694 0.10369 0.0
H1437 H 0.1569 0.21572 0.17515 0.0
H1438 H 0.08571 0.16629 0.19852 0.0
H1439 H 0.06836 0.17664 0.12683 0.0
C1440 C 0.99788 0.27907 1.00348 0.0
C1441 C 0.9744 0.26346 0.01333 0.0
C1442 C 0.02409 0.2679 0.00766 0.0
C1443 C 0.02754 0.24088 0.02182 0.0
C1444 C 1.00429 0.22548 0.03302 0.0
C1445 C 0.97795 0.23659 0.02859 0.0
C1446 C 0.05537 0.22849 0.02359 0.0
C1447 C 0.06574 0.21981 0.06285 0.0
C1448 C 0.07204 0.22624 0.98701 0.0
C1449 C 0.06225 0.23513 0.9446 0.0
C1450 C 0.03795 0.22434 0.92733 0.0
C1451 C 0.02839 0.23356 0.88802 0.0
C1452 C 0.04307 0.2534 0.86549 0.0
C1453 C 0.06745 0.26393 0.88211 0.0
C1454 C 0.07708 0.25481 0.92144 0.0
C1455 C 0.16285 0.15124 0.04939 0.0
C1456 C 0.18621 0.16277 0.03021 0.0
C1457 C 0.13788 0.16523 0.04941 0.0
C1458 C 0.13563 0.19128 0.03075 0.0
C1459 C 0.15899 0.20295 0.01178 0.0
C1460 C 0.18402 0.18887 0.01156 0.0
C1461 C 0.10867 0.20571 0.02975 0.0
C1462 C 0.0984 0.21488 0.99057 0.0
C1463 C 0.09232 0.20895 0.06661 0.0
C1464 C 0.10286 0.20237 0.10963 0.0
C1465 C 0.12786 0.21344 0.12386 0.0
C1466 C 0.13761 0.20729 0.16446 0.0
C1467 C 0.12242 0.19034 0.19134 0.0
C1468 C 0.09747 0.17942 0.17765 0.0
C1469 C 0.08767 0.1854 0.13702 0.0
H1470 H 0.12997 0.18569 0.22281 0.0
H1471 H 0.03559 0.2606 0.83516 0.0
H1472 H 0.62145 0.35909 0.52463 0.0
H1473 H 0.64502 0.40282 0.51572 0.0
H1474 H 0.71479 0.36118 0.46253 0.0
H1475 H 0.69121 0.31703 0.47125 0.0
H1476 H 0.72894 0.40059 0.52387 0.0
H1477 H 0.67419 0.39523 0.3979 0.0
H1478 H 0.63165 0.3882 0.35714 0.0
H1479 H 0.59432 0.45605 0.4214 0.0
H1480 H 0.63651 0.46325 0.46301 0.0
H1481 H 0.79448 0.52413 0.46506 0.0
H1482 H 0.7732 0.47891 0.4605 0.0
H1483 H 0.69584 0.51339 0.49903 0.0
H1484 H 0.7168 0.55886 0.50246 0.0
H1485 H 0.68741 0.47606 0.4403 0.0
H1486 H 0.7383 0.47851 0.57139 0.0
H1487 H 0.77943 0.48598 0.61524 0.0
H1488 H 0.82263 0.42472 0.54439 0.0
H1489 H 0.78163 0.41675 0.50018 0.0
C1490 C 0.64179 0.35913 0.51094 0.0
C1491 C 0.65442 0.33452 0.49861 0.0
C1492 C 0.6552 0.38422 0.50574 0.0
C1493 C 0.68157 0.38532 0.48813 0.0
C1494 C 0.69442 0.36079 0.47611 0.0
C1495 C 0.68089 0.33561 0.481 0.0
C1496 C 0.69563 0.41217 0.48288 0.0
C1497 C 0.72014 0.41693 0.50496 0.0
C1498 C 0.68378 0.43374 0.45911 0.0
C1499 C 0.65846 0.42964 0.43382 0.0
C1500 C 0.65685 0.40853 0.40357 0.0
C1501 C 0.6328 0.40454 0.38027 0.0
C1502 C 0.61027 0.42163 0.38674 0.0
C1503 C 0.61178 0.44281 0.41644 0.0
C1504 C 0.63577 0.44688 0.43985 0.0
C1505 C 0.77285 0.52218 0.47207 0.0
C1506 C 0.75739 0.54516 0.48429 0.0
C1507 C 0.76074 0.49623 0.46974 0.0
C1508 C 0.73302 0.49255 0.48032 0.0
C1509 C 0.71728 0.51563 0.49087 0.0
C1510 C 0.72931 0.54166 0.49277 0.0
C1511 C 0.72062 0.46462 0.48162 0.0
C1512 C 0.69638 0.45965 0.45889 0.0
C1513 C 0.73255 0.44294 0.50517 0.0
C1514 C 0.75702 0.44725 0.53222 0.0
C1515 C 0.75661 0.46672 0.56506 0.0
C1516 C 0.7799 0.47105 0.58997 0.0
C1517 C 0.80373 0.45605 0.58234 0.0
C1518 C 0.80421 0.43645 0.55008 0.0
C1519 C 0.78091 0.43191 0.52522 0.0
H1520 H 0.82174 0.45942 0.60166 0.0
H1521 H 0.59167 0.4185 0.3687 0.0
H1522 H 0.31144 0.31937 0.50382 0.0
H1523 H 0.35667 0.29764 0.50139 0.0
H1524 H 0.39471 0.37467 0.53359 0.0
H1525 H 0.34977 0.39648 0.53604 0.0
H1526 H 0.42144 0.34931 0.46849 0.0
H1527 H 0.38943 0.3264 0.60709 0.0
H1528 H 0.35536 0.30894 0.65812 0.0
H1529 H 0.35951 0.22929 0.6008 0.0
H1530 H 0.39331 0.24642 0.54893 0.0
H1531 H 0.55454 0.29779 0.51262 0.0
H1532 H 0.50975 0.31949 0.52167 0.0
H1533 H 0.4698 0.24298 0.49225 0.0
H1534 H 0.51432 0.22107 0.48355 0.0
H1535 H 0.44417 0.26863 0.55758 0.0
H1536 H 0.47582 0.2928 0.41763 0.0
H1537 H 0.5086 0.31158 0.36565 0.0
H1538 H 0.50477 0.39015 0.42649 0.0
H1539 H 0.47221 0.37172 0.4792 0.0
C1540 C 0.32943 0.33166 0.51044 0.0
C1541 C 0.32694 0.35967 0.52016 0.0
C1542 C 0.35528 0.31921 0.50914 0.0
C1543 C 0.37913 0.3345 0.51747 0.0
C1544 C 0.37665 0.36246 0.52697 0.0
C1545 C 0.35087 0.37486 0.52856 0.0
C1546 C 0.40669 0.32143 0.5163 0.0
C1547 C 0.42652 0.3319 0.48839 0.0
C1548 C 0.41324 0.29847 0.54179 0.0
C1549 C 0.39372 0.28775 0.57388 0.0
C1550 C 0.38299 0.30518 0.60525 0.0
C1551 C 0.36373 0.29536 0.63432 0.0
C1552 C 0.35522 0.26805 0.63265 0.0
C1553 C 0.36609 0.25046 0.60205 0.0
C1554 C 0.38534 0.2602 0.57281 0.0
C1555 C 0.53625 0.2855 0.50831 0.0
C1556 C 0.53818 0.25767 0.49705 0.0
C1557 C 0.51061 0.29798 0.51339 0.0
C1558 C 0.48631 0.28296 0.50721 0.0
C1559 C 0.48819 0.25503 0.4972 0.0
C1560 C 0.51376 0.24255 0.49203 0.0
C1561 C 0.45896 0.29648 0.50964 0.0
C1562 C 0.43913 0.28609 0.53777 0.0
C1563 C 0.45242 0.31963 0.48447 0.0
C1564 C 0.4718 0.33081 0.4526 0.0
C1565 C 0.48212 0.31403 0.4201 0.0
C1566 C 0.50063 0.32462 0.39048 0.0
C1567 C 0.50882 0.35202 0.39284 0.0
C1568 C 0.49844 0.36892 0.42474 0.0
C1569 C 0.47994 0.35842 0.45447 0.0
H1570 H 0.52317 0.36018 0.36989 0.0
H1571 H 0.34023 0.26059 0.65515 0.0
H1572 H 0.29038 0.45718 0.48619 0.0
H1573 H 0.31129 0.50238 0.47463 0.0
H1574 H 0.23348 0.54094 0.49876 0.0
H1575 H 0.21249 0.49621 0.5098 0.0
H1576 H 0.25782 0.5655 0.4343 0.0
H1577 H 0.28345 0.53803 0.57491 0.0
H1578 H 0.30365 0.50759 0.6289 0.0
H1579 H 0.38223 0.51467 0.56871 0.0
H1580 H 0.36238 0.54486 0.51397 0.0
H1581 H 0.31697 0.69893 0.51067 0.0
H1582 H 0.29414 0.65414 0.51439 0.0
H1583 H 0.35193 0.62136 0.42472 0.0
H1584 H 0.37509 0.66583 0.42109 0.0
H1585 H 0.33747 0.59448 0.52113 0.0
H1586 H 0.28407 0.5941 0.36317 0.0
H1587 H 0.25752 0.62258 0.3132 0.0
H1588 H 0.22871 0.6719 0.41663 0.0
H1589 H 0.2548 0.64345 0.46714 0.0
C1590 C 0.27766 0.47526 0.48852 0.0
C1591 C 0.24973 0.47293 0.49911 0.0
C1592 C 0.28969 0.50114 0.48221 0.0
C1593 C 0.27407 0.52521 0.48632 0.0
C1594 C 0.24604 0.52279 0.49544 0.0
C1595 C 0.23406 0.49708 0.50188 0.0
C1596 C 0.28672 0.55301 0.48213 0.0
C1597 C 0.27524 0.57174 0.45337 0.0
C1598 C 0.30935 0.56147 0.50713 0.0
C1599 C 0.32137 0.54345 0.54008 0.0
C1600 C 0.30499 0.53292 0.57299 0.0
C1601 C 0.31638 0.51574 0.60376 0.0
C1602 C 0.34419 0.50913 0.60216 0.0
C1603 C 0.36068 0.51976 0.56986 0.0
C1604 C 0.34937 0.53692 0.53896 0.0
C1605 C 0.32468 0.68231 0.49137 0.0
C1606 C 0.34792 0.68612 0.46555 0.0
C1607 C 0.31152 0.65672 0.49341 0.0
C1608 C 0.32105 0.6345 0.4693 0.0
C1609 C 0.34405 0.63827 0.44328 0.0
C1610 C 0.35728 0.66377 0.44131 0.0
C1611 C 0.30841 0.60684 0.47353 0.0
C1612 C 0.32013 0.58808 0.50202 0.0
C1613 C 0.28562 0.5985 0.449 0.0
C1614 C 0.27186 0.61708 0.41874 0.0
C1615 C 0.27225 0.61118 0.37513 0.0
C1616 C 0.2571 0.62715 0.34677 0.0
C1617 C 0.24135 0.64897 0.36175 0.0
C1618 C 0.24091 0.65499 0.40508 0.0
C1619 C 0.25602 0.63906 0.43356 0.0
H1620 H 0.22966 0.66134 0.33976 0.0
H1621 H 0.35297 0.49583 0.62602 0.0
H1622 H 0.65944 0.62031 0.54125 0.0
H1623 H 0.61456 0.64213 0.54007 0.0
H1624 H 0.65252 0.72005 0.51318 0.0
H1625 H 0.69785 0.69821 0.51418 0.0
H1626 H 0.61101 0.72333 0.57484 0.0
H1627 H 0.6224 0.68636 0.43488 0.0
H1628 H 0.63242 0.65028 0.38247 0.0
H1629 H 0.56511 0.60233 0.42945 0.0
H1630 H 0.55493 0.63797 0.48258 0.0
H1631 H 0.4922 0.79473 0.50923 0.0
H1632 H 0.53686 0.77336 0.51665 0.0
H1633 H 0.49853 0.69376 0.52274 0.0
H1634 H 0.45343 0.71511 0.5139 0.0
H1635 H 0.54059 0.69092 0.47301 0.0
H1636 H 0.52802 0.72759 0.6119 0.0
H1637 H 0.51851 0.76236 0.66659 0.0
H1638 H 0.58781 0.80951 0.62497 0.0
H1639 H 0.5975 0.77525 0.56955 0.0
C1640 C 0.65839 0.64213 0.53522 0.0
C1641 C 0.68235 0.65746 0.52756 0.0
C1642 C 0.63261 0.65456 0.5344 0.0
C1643 C 0.63005 0.68269 0.52606 0.0
C1644 C 0.65395 0.69828 0.51953 0.0
C1645 C 0.67984 0.68577 0.51997 0.0
C1646 C 0.60236 0.69554 0.52368 0.0
C1647 C 0.5957 0.71656 0.55218 0.0
C1648 C 0.58208 0.68612 0.49503 0.0
C1649 C 0.58807 0.66472 0.46298 0.0
C1650 C 0.60987 0.66802 0.43427 0.0
C1651 C 0.61556 0.64767 0.40439 0.0
C1652 C 0.59945 0.624 0.40271 0.0
C1653 C 0.57759 0.62067 0.43083 0.0
C1654 C 0.57184 0.64094 0.4608 0.0
C1655 C 0.49308 0.77266 0.5126 0.0
C1656 C 0.469 0.7567 0.51122 0.0
C1657 C 0.5188 0.76044 0.51708 0.0
C1658 C 0.52129 0.73189 0.52103 0.0
C1659 C 0.49729 0.71584 0.51993 0.0
C1660 C 0.47144 0.72808 0.51505 0.0
C1661 C 0.54899 0.71887 0.52427 0.0
C1662 C 0.55574 0.69777 0.49584 0.0
C1663 C 0.56929 0.72813 0.55325 0.0
C1664 C 0.5633 0.74897 0.58623 0.0
C1665 C 0.54107 0.74551 0.61411 0.0
C1666 C 0.53568 0.7651 0.6453 0.0
C1667 C 0.5525 0.78816 0.64918 0.0
C1668 C 0.57477 0.79166 0.62188 0.0
C1669 C 0.58022 0.77216 0.59058 0.0
H1670 H 0.54831 0.80329 0.67339 0.0
H1671 H 0.60389 0.60827 0.37955 0.0
loop_
_geom_bond_atom_site_label_1
_geom_bond_atom_site_label_2
_geom_bond_distance
_geom_bond_site_symmetry_2
_ccdc_geom_bond_type
Zn0 N4 2.020 . S
Zn0 O8 2.019 . S
Zn0 N10 2.119 . S
Zn0 O18 1.975 . S
C1 N2 1.334 . S
C1 N5 1.336 . S
N2 C1 1.334 . S
N2 C3 1.334 . S
C3 N2 1.334 . S
C3 N4 1.336 . S
N4 Zn0 2.020 . S
N4 C3 1.336 . S
N4 N5 1.354 . S
N5 C1 1.336 . S
N5 N4 1.354 . S
N5 Zn9 2.020 . S
C6 O7 1.244 . S
C6 O30 1.257 . S
O7 C6 1.244 . S
O8 Zn0 2.019 . S
O8 C28 1.257 . S
Zn9 N5 2.020 . S
Zn9 O16 1.975 . S
Zn9 N25 2.119 1_554 S
Zn9 O30 2.019 . S
N10 Zn0 2.119 . S
N10 C12 1.334 . S
N10 C13 1.328 . S
C11 C12 1.391 . S
C11 N14 1.329 . S
C11 H32 0.930 . S
C12 N10 1.334 . S
C12 C11 1.391 . S
C12 H19 0.930 . S
C13 N10 1.328 . S
C13 C15 1.392 . S
C13 H20 0.930 . S
N14 C11 1.329 . S
N14 C15 1.331 . S
C15 C13 1.392 . S
C15 N14 1.331 . S
O16 Zn9 1.975 . S
O16 C17 1.252 . S
C17 O16 1.252 . S
C17 O18 1.252 . S
O18 Zn0 1.975 . S
O18 C17 1.252 . S
H19 C12 0.930 . S
H20 C13 0.930 . S
C21 C22 1.392 . S
C21 N25 1.328 . S
C21 H27 0.930 . S
C22 C21 1.392 . S
C22 N26 1.331 . S
C23 C24 1.391 . S
C23 N26 1.329 . S
C23 H33 0.930 . S
C24 C23 1.391 . S
C24 N25 1.334 . S
C24 H31 0.930 . S
N25 Zn9 2.119 1_556 S
N25 C21 1.328 . S
N25 C24 1.334 . S
N26 C22 1.331 . S
N26 C23 1.329 . S
H27 C21 0.930 . S
C28 O8 1.257 . S
C28 O29 1.244 . S
O29 C28 1.244 . S
O30 C6 1.257 . S
O30 Zn9 2.019 . S
H31 C24 0.930 . S
H32 C11 0.930 . S
H33 C23 0.930 . S
Zn34 N38 2.020 . S
Zn34 O42 2.019 . S
Zn34 N44 2.119 1_556 S
Zn34 O52 1.975 . S
C35 N36 1.334 . S
C35 N39 1.336 . S
N36 C35 1.334 . S
N36 C37 1.334 . S
C37 N36 1.334 . S
C37 N38 1.336 . S
N38 Zn34 2.020 . S
N38 C37 1.336 . S
N38 N39 1.354 . S
N39 C35 1.336 . S
N39 N38 1.354 . S
N39 Zn43 2.020 . S
C40 O41 1.244 . S
C40 O64 1.257 . S
O41 C40 1.244 . S
O42 Zn34 2.019 . S
O42 C62 1.257 . S
Zn43 N39 2.020 . S
Zn43 O50 1.975 . S
Zn43 N59 2.119 . S
Zn43 O64 2.019 . S
N44 Zn34 2.119 1_554 S
N44 C46 1.334 . S
N44 C47 1.328 . S
C45 C46 1.391 . S
C45 N48 1.329 . S
C45 H66 0.930 . S
C46 N44 1.334 . S
C46 C45 1.391 . S
C46 H53 0.930 . S
C47 N44 1.328 . S
C47 C49 1.392 . S
C47 H54 0.930 . S
N48 C45 1.329 . S
N48 C49 1.331 . S
C49 C47 1.392 . S
C49 N48 1.331 . S
O50 Zn43 1.975 . S
O50 C51 1.252 . S
C51 O50 1.252 . S
C51 O52 1.252 . S
O52 Zn34 1.975 . S
O52 C51 1.252 . S
H53 C46 0.930 . S
H54 C47 0.930 . S
C55 C56 1.392 . S
C55 N59 1.328 . S
C55 H61 0.930 . S
C56 C55 1.392 . S
C56 N60 1.331 . S
C57 C58 1.391 . S
C57 N60 1.329 . S
C57 H67 0.930 . S
C58 C57 1.391 . S
C58 N59 1.334 . S
C58 H65 0.930 . S
N59 Zn43 2.119 . S
N59 C55 1.328 . S
N59 C58 1.334 . S
N60 C56 1.331 . S
N60 C57 1.329 . S
H61 C55 0.930 . S
C62 O42 1.257 . S
C62 O63 1.244 . S
O63 C62 1.244 . S
O64 C40 1.257 . S
O64 Zn43 2.019 . S
H65 C58 0.930 . S
H66 C45 0.930 . S
H67 C57 0.930 . S
Zn68 N72 2.020 . S
Zn68 O76 2.019 . S
Zn68 N78 2.119 . S
Zn68 O86 1.975 . S
C69 N70 1.334 . S
C69 N73 1.336 . S
N70 C69 1.334 . S
N70 C71 1.334 . S
C71 N70 1.334 . S
C71 N72 1.336 . S
N72 Zn68 2.020 . S
N72 C71 1.336 . S
N72 N73 1.354 . S
N73 C69 1.336 . S
N73 N72 1.354 . S
N73 Zn77 2.020 . S
C74 O75 1.244 . S
C74 O98 1.257 . S
O75 C74 1.244 . S
O76 Zn68 2.019 . S
O76 C96 1.257 . S
Zn77 N73 2.020 . S
Zn77 O84 1.975 . S
Zn77 N93 2.119 1_554 S
Zn77 O98 2.019 . S
N78 Zn68 2.119 . S
N78 C80 1.334 . S
N78 C81 1.328 . S
C79 C80 1.391 . S
C79 N82 1.329 . S
C79 H100 0.930 . S
C80 N78 1.334 . S
C80 C79 1.391 . S
C80 H87 0.930 . S
C81 N78 1.328 . S
C81 C83 1.392 . S
C81 H88 0.930 . S
N82 C79 1.329 . S
N82 C83 1.331 . S
C83 C81 1.392 . S
C83 N82 1.331 . S
O84 Zn77 1.975 . S
O84 C85 1.252 . S
C85 O84 1.252 . S
C85 O86 1.252 . S
O86 Zn68 1.975 . S
O86 C85 1.252 . S
H87 C80 0.930 . S
H88 C81 0.930 . S
C89 C90 1.392 . S
C89 N93 1.328 . S
C89 H95 0.930 . S
C90 C89 1.392 . S
C90 N94 1.331 . S
C91 C92 1.391 . S
C91 N94 1.329 . S
C91 H101 0.930 . S
C92 C91 1.391 . S
C92 N93 1.334 . S
C92 H99 0.930 . S
N93 Zn77 2.119 1_556 S
N93 C89 1.328 . S
N93 C92 1.334 . S
N94 C90 1.331 . S
N94 C91 1.329 . S
H95 C89 0.930 . S
C96 O76 1.257 . S
C96 O97 1.244 . S
O97 C96 1.244 . S
O98 C74 1.257 . S
O98 Zn77 2.019 . S
H99 C92 0.930 . S
H100 C79 0.930 . S
H101 C91 0.930 . S
Zn102 N106 2.020 . S
Zn102 O110 2.019 . S
Zn102 N112 2.119 . S
Zn102 O120 1.975 . S
C103 N104 1.334 . S
C103 N107 1.336 . S
N104 C103 1.334 . S
N104 C105 1.334 . S
C105 N104 1.334 . S
C105 N106 1.336 . S
N106 Zn102 2.020 . S
N106 C105 1.336 . S
N106 N107 1.354 . S
N107 C103 1.336 . S
N107 N106 1.354 . S
N107 Zn111 2.020 . S
C108 O109 1.244 . S
C108 O132 1.257 . S
O109 C108 1.244 . S
O110 Zn102 2.019 . S
O110 C130 1.257 . S
Zn111 N107 2.020 . S
Zn111 O118 1.975 . S
Zn111 N127 2.119 1_556 S
Zn111 O132 2.019 . S
N112 Zn102 2.119 . S
N112 C114 1.334 . S
N112 C115 1.328 . S
C113 C114 1.391 . S
C113 N116 1.329 . S
C113 H134 0.930 . S
C114 N112 1.334 . S
C114 C113 1.391 . S
C114 H121 0.930 . S
C115 N112 1.328 . S
C115 C117 1.392 . S
C115 H122 0.930 . S
N116 C113 1.329 . S
N116 C117 1.331 . S
C117 C115 1.392 . S
C117 N116 1.331 . S
O118 Zn111 1.975 . S
O118 C119 1.252 . S
C119 O118 1.252 . S
C119 O120 1.252 . S
O120 Zn102 1.975 . S
O120 C119 1.252 . S
H121 C114 0.930 . S
H122 C115 0.930 . S
C123 C124 1.392 . S
C123 N127 1.328 . S
C123 H129 0.930 . S
C124 C123 1.392 . S
C124 N128 1.331 . S
C125 C126 1.391 . S
C125 N128 1.329 . S
C125 H135 0.930 . S
C126 C125 1.391 . S
C126 N127 1.334 . S
C126 H133 0.930 . S
N127 Zn111 2.119 1_554 S
N127 C123 1.328 . S
N127 C126 1.334 . S
N128 C124 1.331 . S
N128 C125 1.329 . S
H129 C123 0.930 . S
C130 O110 1.257 . S
C130 O131 1.244 . S
O131 C130 1.244 . S
O132 C108 1.257 . S
O132 Zn111 2.019 . S
H133 C126 0.930 . S
H134 C113 0.930 . S
H135 C125 0.930 . S
Zn136 N140 2.020 . S
Zn136 O144 2.019 . S
Zn136 N146 2.119 . S
Zn136 O154 1.975 . S
C137 N138 1.334 . S
C137 N141 1.336 . S
N138 C137 1.334 . S
N138 C139 1.334 . S
C139 N138 1.334 . S
C139 N140 1.336 . S
N140 Zn136 2.020 . S
N140 C139 1.336 . S
N140 N141 1.354 . S
N141 C137 1.336 . S
N141 N140 1.354 . S
N141 Zn145 2.020 . S
C142 O143 1.244 . S
C142 O166 1.257 . S
O143 C142 1.244 . S
O144 Zn136 2.019 . S
O144 C164 1.257 . S
Zn145 N141 2.020 . S
Zn145 O152 1.975 . S
Zn145 N161 2.119 . S
Zn145 O166 2.019 . S
N146 Zn136 2.119 . S
N146 C148 1.334 . S
N146 C149 1.328 . S
C147 C148 1.391 . S
C147 N150 1.329 . S
C147 H168 0.930 . S
C148 N146 1.334 . S
C148 C147 1.391 . S
C148 H155 0.930 . S
C149 N146 1.328 . S
C149 C151 1.392 . S
C149 H156 0.930 . S
N150 C147 1.329 . S
N150 C151 1.331 . S
C151 C149 1.392 . S
C151 N150 1.331 . S
O152 Zn145 1.975 . S
O152 C153 1.252 . S
C153 O152 1.252 . S
C153 O154 1.252 . S
O154 Zn136 1.975 . S
O154 C153 1.252 . S
H155 C148 0.930 . S
H156 C149 0.930 . S
C157 C158 1.392 . S
C157 N161 1.328 . S
C157 H163 0.930 . S
C158 C157 1.392 . S
C158 N162 1.331 . S
C159 C160 1.391 . S
C159 N162 1.329 . S
C159 H169 0.930 . S
C160 C159 1.391 . S
C160 N161 1.334 . S
C160 H167 0.930 . S
N161 Zn145 2.119 . S
N161 C157 1.328 . S
N161 C160 1.334 . S
N162 C158 1.331 . S
N162 C159 1.329 . S
H163 C157 0.930 . S
C164 O144 1.257 . S
C164 O165 1.244 . S
O165 C164 1.244 . S
O166 C142 1.257 . S
O166 Zn145 2.019 . S
H167 C160 0.930 . S
H168 C147 0.930 . S
H169 C159 0.930 . S
Zn170 N174 2.020 . S
Zn170 O178 2.019 . S
Zn170 N180 2.119 . S
Zn170 O188 1.975 . S
C171 N172 1.334 . S
C171 N175 1.336 . S
N172 C171 1.334 . S
N172 C173 1.334 . S
C173 N172 1.334 . S
C173 N174 1.336 . S
N174 Zn170 2.020 . S
N174 C173 1.336 . S
N174 N175 1.354 . S
N175 C171 1.336 . S
N175 N174 1.354 . S
N175 Zn179 2.020 . S
C176 O177 1.244 . S
C176 O200 1.257 . S
O177 C176 1.244 . S
O178 Zn170 2.019 . S
O178 C198 1.257 . S
Zn179 N175 2.020 . S
Zn179 O186 1.975 . S
Zn179 N195 2.119 . S
Zn179 O200 2.019 . S
N180 Zn170 2.119 . S
N180 C182 1.334 . S
N180 C183 1.328 . S
C181 C182 1.391 . S
C181 N184 1.329 . S
C181 H202 0.930 . S
C182 N180 1.334 . S
C182 C181 1.391 . S
C182 H189 0.930 . S
C183 N180 1.328 . S
C183 C185 1.392 . S
C183 H190 0.930 . S
N184 C181 1.329 . S
N184 C185 1.331 . S
C185 C183 1.392 . S
C185 N184 1.331 . S
O186 Zn179 1.975 . S
O186 C187 1.252 . S
C187 O186 1.252 . S
C187 O188 1.252 . S
O188 Zn170 1.975 . S
O188 C187 1.252 . S
H189 C182 0.930 . S
H190 C183 0.930 . S
C191 C192 1.392 . S
C191 N195 1.328 . S
C191 H197 0.930 . S
C192 C191 1.392 . S
C192 N196 1.331 . S
C193 C194 1.391 . S
C193 N196 1.329 . S
C193 H203 0.930 . S
C194 C193 1.391 . S
C194 N195 1.334 . S
C194 H201 0.930 . S
N195 Zn179 2.119 . S
N195 C191 1.328 . S
N195 C194 1.334 . S
N196 C192 1.331 . S
N196 C193 1.329 . S
H197 C191 0.930 . S
C198 O178 1.257 . S
C198 O199 1.244 . S
O199 C198 1.244 . S
O200 C176 1.257 . S
O200 Zn179 2.019 . S
H201 C194 0.930 . S
H202 C181 0.930 . S
H203 C193 0.930 . S
Zn204 N208 2.020 . S
Zn204 O212 2.019 . S
Zn204 N214 2.119 . S
Zn204 O222 1.975 . S
C205 N206 1.334 . S
C205 N209 1.336 . S
N206 C205 1.334 . S
N206 C207 1.334 . S
C207 N206 1.334 . S
C207 N208 1.336 . S
N208 Zn204 2.020 . S
N208 C207 1.336 . S
N208 N209 1.354 . S
N209 C205 1.336 . S
N209 N208 1.354 . S
N209 Zn213 2.020 . S
C210 O211 1.244 . S
C210 O234 1.257 . S
O211 C210 1.244 . S
O212 Zn204 2.019 . S
O212 C232 1.257 . S
Zn213 N209 2.020 . S
Zn213 O220 1.975 . S
Zn213 N229 2.119 . S
Zn213 O234 2.019 . S
N214 Zn204 2.119 . S
N214 C216 1.334 . S
N214 C217 1.328 . S
C215 C216 1.391 . S
C215 N218 1.329 . S
C215 H236 0.930 . S
C216 N214 1.334 . S
C216 C215 1.391 . S
C216 H223 0.930 . S
C217 N214 1.328 . S
C217 C219 1.392 . S
C217 H224 0.930 . S
N218 C215 1.329 . S
N218 C219 1.331 . S
C219 C217 1.392 . S
C219 N218 1.331 . S
O220 Zn213 1.975 . S
O220 C221 1.252 . S
C221 O220 1.252 . S
C221 O222 1.252 . S
O222 Zn204 1.975 . S
O222 C221 1.252 . S
H223 C216 0.930 . S
H224 C217 0.930 . S
C225 C226 1.392 . S
C225 N229 1.328 . S
C225 H231 0.930 . S
C226 C225 1.392 . S
C226 N230 1.331 . S
C227 C228 1.391 . S
C227 N230 1.329 . S
C227 H237 0.930 . S
C228 C227 1.391 . S
C228 N229 1.334 . S
C228 H235 0.930 . S
N229 Zn213 2.119 . S
N229 C225 1.328 . S
N229 C228 1.334 . S
N230 C226 1.331 . S
N230 C227 1.329 . S
H231 C225 0.930 . S
C232 O212 1.257 . S
C232 O233 1.244 . S
O233 C232 1.244 . S
O234 C210 1.257 . S
O234 Zn213 2.019 . S
H235 C228 0.930 . S
H236 C215 0.930 . S
H237 C227 0.930 . S
Zn238 N242 2.020 . S
Zn238 O246 2.019 . S
Zn238 N248 2.119 . S
Zn238 O256 1.975 . S
C239 N240 1.334 . S
C239 N243 1.336 . S
N240 C239 1.334 . S
N240 C241 1.334 . S
C241 N240 1.334 . S
C241 N242 1.336 . S
N242 Zn238 2.020 . S
N242 C241 1.336 . S
N242 N243 1.354 . S
N243 C239 1.336 . S
N243 N242 1.354 . S
N243 Zn247 2.020 . S
C244 O245 1.244 . S
C244 O268 1.257 . S
O245 C244 1.244 . S
O246 Zn238 2.019 . S
O246 C266 1.257 . S
Zn247 N243 2.020 . S
Zn247 O254 1.975 . S
Zn247 N263 2.119 . S
Zn247 O268 2.019 . S
N248 Zn238 2.119 . S
N248 C250 1.334 . S
N248 C251 1.328 . S
C249 C250 1.391 . S
C249 N252 1.329 . S
C249 H270 0.930 . S
C250 N248 1.334 . S
C250 C249 1.391 . S
C250 H257 0.930 . S
C251 N248 1.328 . S
C251 C253 1.392 . S
C251 H258 0.930 . S
N252 C249 1.329 . S
N252 C253 1.331 . S
C253 C251 1.392 . S
C253 N252 1.331 . S
O254 Zn247 1.975 . S
O254 C255 1.252 . S
C255 O254 1.252 . S
C255 O256 1.252 . S
O256 Zn238 1.975 . S
O256 C255 1.252 . S
H257 C250 0.930 . S
H258 C251 0.930 . S
C259 C260 1.392 . S
C259 N263 1.328 . S
C259 H265 0.930 . S
C260 C259 1.392 . S
C260 N264 1.331 . S
C261 C262 1.391 . S
C261 N264 1.329 . S
C261 H271 0.930 . S
C262 C261 1.391 . S
C262 N263 1.334 . S
C262 H269 0.930 . S
N263 Zn247 2.119 . S
N263 C259 1.328 . S
N263 C262 1.334 . S
N264 C260 1.331 . S
N264 C261 1.329 . S
H265 C259 0.930 . S
C266 O246 1.257 . S
C266 O267 1.244 . S
O267 C266 1.244 . S
O268 C244 1.257 . S
O268 Zn247 2.019 . S
H269 C262 0.930 . S
H270 C249 0.930 . S
H271 C261 0.930 . S
H272 C290 0.951 . S
H273 C292 0.951 . S
H274 C294 0.950 . S
H275 C295 0.950 1_545 S
H276 C297 0.950 . S
H277 C300 0.950 . S
H278 C301 0.950 1_545 S
H279 C303 0.950 . S
H280 C304 0.950 . S
H281 C305 0.951 . S
H282 C307 0.951 . S
H283 C309 0.950 . S
H284 C310 0.950 . S
H285 C312 0.950 . S
H286 C315 0.950 . S
H287 C316 0.950 . S
H288 C318 0.950 . S
H289 C319 0.950 . S
C290 H272 0.951 . S
C290 C291 1.381 . S
C290 C292 1.388 . S
C291 C290 1.381 . S
C291 C295 1.384 . S
C292 H273 0.951 . S
C292 C290 1.388 . S
C292 C293 1.366 . S
C293 C292 1.366 . S
C293 C294 1.414 . S
C293 C296 1.499 . S
C294 H274 0.950 . S
C294 C293 1.414 . S
C294 C295 1.373 . S
C295 H275 0.950 1_565 S
C295 C291 1.384 . S
C295 C294 1.373 . S
C296 C293 1.499 . S
C296 C297 1.373 . S
C296 C298 1.389 . S
C297 H276 0.950 . S
C297 C296 1.373 . S
C297 C313 1.377 . S
C298 C296 1.389 . S
C298 C299 1.524 . S
C298 C312 1.377 . S
C299 C298 1.524 . S
C299 C300 1.397 . S
C299 C304 1.363 . S
C300 H277 0.950 . S
C300 C299 1.397 . S
C300 C301 1.334 . S
C301 H278 0.950 1_565 S
C301 C300 1.334 . S
C301 C302 1.287 . S
C302 C301 1.287 . S
C302 C303 1.524 . S
C302 H321 0.913 . S
C303 H279 0.950 . S
C303 C302 1.524 . S
C303 C304 1.415 . S
C304 H280 0.950 . S
C304 C299 1.363 . S
C304 C303 1.415 . S
C305 H281 0.951 . S
C305 C306 1.366 . S
C305 C307 1.388 . S
C306 C305 1.366 . S
C306 C310 1.385 . S
C307 H282 0.951 . S
C307 C305 1.388 . S
C307 C308 1.366 . S
C308 C307 1.366 . S
C308 C309 1.414 . S
C308 C311 1.499 . S
C309 H283 0.950 . S
C309 C308 1.414 . S
C309 C310 1.374 . S
C310 H284 0.950 . S
C310 C306 1.385 . S
C310 C309 1.374 . S
C311 C308 1.499 . S
C311 C312 1.373 . S
C311 C313 1.389 . S
C312 H285 0.950 . S
C312 C298 1.377 . S
C312 C311 1.373 . S
C313 C297 1.377 . S
C313 C311 1.389 . S
C313 C314 1.524 . S
C314 C313 1.524 . S
C314 C315 1.397 . S
C314 C319 1.363 . S
C315 H286 0.950 . S
C315 C314 1.397 . S
C315 C316 1.334 . S
C316 H287 0.950 . S
C316 C315 1.334 . S
C316 C317 1.287 . S
C317 C316 1.287 . S
C317 C318 1.524 . S
C317 H320 0.999 . S
C318 H288 0.950 . S
C318 C317 1.524 . S
C318 C319 1.415 . S
C319 H289 0.950 . S
C319 C314 1.363 . S
C319 C318 1.415 . S
H320 C317 0.999 . S
H321 C302 0.913 . S
H322 C340 0.951 . S
H323 C342 0.951 . S
H324 C344 0.950 . S
H325 C345 0.950 . S
H326 C347 0.950 . S
H327 C350 0.950 . S
H328 C351 0.950 . S
H329 C353 0.950 . S
H330 C354 0.950 . S
H331 C355 0.951 . S
H332 C357 0.951 . S
H333 C359 0.950 . S
H334 C360 0.950 . S
H335 C362 0.950 . S
H336 C365 0.950 . S
H337 C366 0.950 . S
H338 C368 0.950 . S
H339 C369 0.950 . S
C340 H322 0.951 . S
C340 C341 1.364 1_455 S
C340 C342 1.388 1_455 S
C341 C340 1.364 1_655 S
C341 C345 1.401 . S
C342 H323 0.951 . S
C342 C340 1.388 1_655 S
C342 C343 1.366 . S
C343 C342 1.366 . S
C343 C344 1.414 . S
C343 C346 1.499 . S
C344 H324 0.950 . S
C344 C343 1.414 . S
C344 C345 1.374 . S
C345 H325 0.950 . S
C345 C341 1.401 . S
C345 C344 1.374 . S
C346 C343 1.499 . S
C346 C347 1.373 . S
C346 C348 1.389 . S
C347 H326 0.950 . S
C347 C346 1.373 . S
C347 C363 1.377 . S
C348 C346 1.389 . S
C348 C349 1.524 . S
C348 C362 1.377 . S
C349 C348 1.524 . S
C349 C350 1.397 . S
C349 C354 1.363 . S
C350 H327 0.950 . S
C350 C349 1.397 . S
C350 C351 1.334 . S
C351 H328 0.950 . S
C351 C350 1.334 . S
C351 C352 1.287 . S
C352 C351 1.287 . S
C352 C353 1.524 . S
C352 H371 0.913 . S
C353 H329 0.950 . S
C353 C352 1.524 . S
C353 C354 1.415 . S
C354 H330 0.950 . S
C354 C349 1.363 . S
C354 C353 1.415 . S
C355 H331 0.951 . S
C355 C356 1.366 . S
C355 C357 1.388 . S
C356 C355 1.366 . S
C356 C360 1.385 . S
C357 H332 0.951 . S
C357 C355 1.388 . S
C357 C358 1.366 . S
C358 C357 1.366 . S
C358 C359 1.414 . S
C358 C361 1.499 . S
C359 H333 0.950 . S
C359 C358 1.414 . S
C359 C360 1.374 . S
C360 H334 0.950 . S
C360 C356 1.385 . S
C360 C359 1.374 . S
C361 C358 1.499 . S
C361 C362 1.373 . S
C361 C363 1.389 . S
C362 H335 0.950 . S
C362 C348 1.377 . S
C362 C361 1.373 . S
C363 C347 1.377 . S
C363 C361 1.389 . S
C363 C364 1.524 . S
C364 C363 1.524 . S
C364 C365 1.397 . S
C364 C369 1.363 . S
C365 H336 0.950 . S
C365 C364 1.397 . S
C365 C366 1.334 . S
C366 H337 0.950 . S
C366 C365 1.334 . S
C366 C367 1.287 . S
C367 C366 1.287 . S
C367 C368 1.524 . S
C367 H370 0.999 . S
C368 H338 0.950 . S
C368 C367 1.524 . S
C368 C369 1.415 . S
C369 H339 0.950 . S
C369 C364 1.363 . S
C369 C368 1.415 . S
H370 C367 0.999 . S
H371 C352 0.913 . S
H372 C390 0.951 . S
H373 C392 0.951 . S
H374 C394 0.950 . S
H375 C395 0.950 . S
H376 C397 0.950 . S
H377 C400 0.950 . S
H378 C401 0.950 . S
H379 C403 0.950 . S
H380 C404 0.950 . S
H381 C405 0.951 1_565 S
H382 C407 0.951 . S
H383 C409 0.950 . S
H384 C410 0.950 . S
H385 C412 0.950 . S
H386 C415 0.950 . S
H387 C416 0.950 . S
H388 C418 0.950 . S
H389 C419 0.950 . S
C390 H372 0.951 . S
C390 C391 1.366 . S
C390 C392 1.388 . S
C391 C390 1.366 . S
C391 C395 1.385 . S
C392 H373 0.951 . S
C392 C390 1.388 . S
C392 C393 1.366 . S
C393 C392 1.366 . S
C393 C394 1.414 . S
C393 C396 1.499 . S
C394 H374 0.950 . S
C394 C393 1.414 . S
C394 C395 1.374 . S
C395 H375 0.950 . S
C395 C391 1.385 . S
C395 C394 1.374 . S
C396 C393 1.499 . S
C396 C397 1.373 . S
C396 C398 1.389 . S
C397 H376 0.950 . S
C397 C396 1.373 . S
C397 C413 1.377 . S
C398 C396 1.389 . S
C398 C399 1.524 . S
C398 C412 1.377 . S
C399 C398 1.524 . S
C399 C400 1.397 . S
C399 C404 1.363 . S
C400 H377 0.950 . S
C400 C399 1.397 . S
C400 C401 1.334 . S
C401 H378 0.950 . S
C401 C400 1.334 . S
C401 C402 1.287 . S
C402 C401 1.287 . S
C402 C403 1.524 . S
C402 H421 0.913 . S
C403 H379 0.950 . S
C403 C402 1.524 . S
C403 C404 1.415 . S
C404 H380 0.950 . S
C404 C399 1.363 . S
C404 C403 1.415 . S
C405 H381 0.951 1_545 S
C405 C406 1.370 . S
C405 C407 1.388 . S
C406 C405 1.370 . S
C406 C410 1.394 . S
C407 H382 0.951 . S
C407 C405 1.388 . S
C407 C408 1.366 . S
C408 C407 1.366 . S
C408 C409 1.414 . S
C408 C411 1.499 . S
C409 H383 0.950 . S
C409 C408 1.414 . S
C409 C410 1.374 . S
C410 H384 0.950 . S
C410 C406 1.394 . S
C410 C409 1.374 . S
C411 C408 1.499 . S
C411 C412 1.373 . S
C411 C413 1.389 . S
C412 H385 0.950 . S
C412 C398 1.377 . S
C412 C411 1.373 . S
C413 C397 1.377 . S
C413 C411 1.389 . S
C413 C414 1.524 . S
C414 C413 1.524 . S
C414 C415 1.397 . S
C414 C419 1.363 . S
C415 H386 0.950 . S
C415 C414 1.397 . S
C415 C416 1.334 . S
C416 H387 0.950 . S
C416 C415 1.334 . S
C416 C417 1.287 . S
C417 C416 1.287 . S
C417 C418 1.524 . S
C417 H420 0.999 . S
C418 H388 0.950 . S
C418 C417 1.524 . S
C418 C419 1.415 . S
C419 H389 0.950 . S
C419 C414 1.363 . S
C419 C418 1.415 . S
H420 C417 0.999 . S
H421 C402 0.913 . S
H422 C440 0.951 . S
H423 C442 0.951 . S
H424 C444 0.950 . S
H425 C445 0.950 . S
H426 C447 0.950 . S
H427 C450 0.950 . S
H428 C451 0.950 . S
H429 C453 0.950 . S
H430 C454 0.950 . S
H431 C455 0.951 . S
H432 C457 0.951 . S
H433 C459 0.950 . S
H434 C460 0.950 . S
H435 C462 0.950 . S
H436 C465 0.950 . S
H437 C466 0.950 . S
H438 C468 0.950 . S
H439 C469 0.950 . S
C440 H422 0.951 . S
C440 C441 1.363 1_655 S
C440 C442 1.388 1_655 S
C441 C440 1.363 1_455 S
C441 C445 1.402 . S
C442 H423 0.951 . S
C442 C440 1.388 1_455 S
C442 C443 1.366 . S
C443 C442 1.366 . S
C443 C444 1.414 . S
C443 C446 1.499 . S
C444 H424 0.950 . S
C444 C443 1.414 . S
C444 C445 1.374 . S
C445 H425 0.950 . S
C445 C441 1.402 . S
C445 C444 1.374 . S
C446 C443 1.499 . S
C446 C447 1.373 . S
C446 C448 1.389 . S
C447 H426 0.950 . S
C447 C446 1.373 . S
C447 C463 1.377 . S
C448 C446 1.389 . S
C448 C449 1.524 . S
C448 C462 1.377 . S
C449 C448 1.524 . S
C449 C450 1.397 . S
C449 C454 1.363 . S
C450 H427 0.950 . S
C450 C449 1.397 . S
C450 C451 1.334 . S
C451 H428 0.950 . S
C451 C450 1.334 . S
C451 C452 1.287 . S
C452 C451 1.287 . S
C452 C453 1.524 . S
C452 H471 0.913 . S
C453 H429 0.950 . S
C453 C452 1.524 . S
C453 C454 1.415 . S
C454 H430 0.950 . S
C454 C449 1.363 . S
C454 C453 1.415 . S
C455 H431 0.951 . S
C455 C456 1.366 . S
C455 C457 1.388 . S
C456 C455 1.366 . S
C456 C460 1.385 . S
C457 H432 0.951 . S
C457 C455 1.388 . S
C457 C458 1.366 . S
C458 C457 1.366 . S
C458 C459 1.414 . S
C458 C461 1.499 . S
C459 H433 0.950 . S
C459 C458 1.414 . S
C459 C460 1.374 . S
C460 H434 0.950 . S
C460 C456 1.385 . S
C460 C459 1.374 . S
C461 C458 1.499 . S
C461 C462 1.373 . S
C461 C463 1.389 . S
C462 H435 0.950 . S
C462 C448 1.377 . S
C462 C461 1.373 . S
C463 C447 1.377 . S
C463 C461 1.389 . S
C463 C464 1.524 . S
C464 C463 1.524 . S
C464 C465 1.397 . S
C464 C469 1.363 . S
C465 H436 0.950 . S
C465 C464 1.397 . S
C465 C466 1.334 . S
C466 H437 0.950 . S
C466 C465 1.334 . S
C466 C467 1.287 . S
C467 C466 1.287 . S
C467 C468 1.524 . S
C467 H470 0.999 . S
C468 H438 0.950 . S
C468 C467 1.524 . S
C468 C469 1.415 . S
C469 H439 0.950 . S
C469 C464 1.363 . S
C469 C468 1.415 . S
H470 C467 0.999 . S
H471 C452 0.913 . S
H472 C490 0.951 . S
H473 C492 0.951 . S
H474 C494 0.950 . S
H475 C495 0.950 . S
H476 C497 0.950 . S
H477 C500 0.950 . S
H478 C501 0.950 . S
H479 C503 0.950 . S
H480 C504 0.950 . S
H481 C505 0.951 . S
H482 C507 0.951 . S
H483 C509 0.950 . S
H484 C510 0.950 . S
H485 C512 0.950 . S
H486 C515 0.950 . S
H487 C516 0.950 . S
H488 C518 0.950 . S
H489 C519 0.950 . S
C490 H472 0.951 . S
C490 C491 1.366 . S
C490 C492 1.388 . S
C491 C490 1.366 . S
C491 C495 1.385 . S
C492 H473 0.951 . S
C492 C490 1.388 . S
C492 C493 1.366 . S
C493 C492 1.366 . S
C493 C494 1.414 . S
C493 C496 1.499 . S
C494 H474 0.950 . S
C494 C493 1.414 . S
C494 C495 1.374 . S
C495 H475 0.950 . S
C495 C491 1.385 . S
C495 C494 1.374 . S
C496 C493 1.499 . S
C496 C497 1.373 . S
C496 C498 1.389 . S
C497 H476 0.950 . S
C497 C496 1.373 . S
C497 C513 1.377 . S
C498 C496 1.389 . S
C498 C499 1.524 . S
C498 C512 1.377 . S
C499 C498 1.524 . S
C499 C500 1.397 . S
C499 C504 1.363 . S
C500 H477 0.950 . S
C500 C499 1.397 . S
C500 C501 1.334 . S
C501 H478 0.950 . S
C501 C500 1.334 . S
C501 C502 1.287 . S
C502 C501 1.287 . S
C502 C503 1.524 . S
C502 H521 0.913 . S
C503 H479 0.950 . S
C503 C502 1.524 . S
C503 C504 1.415 . S
C504 H480 0.950 . S
C504 C499 1.363 . S
C504 C503 1.415 . S
C505 H481 0.951 . S
C505 C506 1.366 . S
C505 C507 1.388 . S
C506 C505 1.366 . S
C506 C510 1.385 . S
C507 H482 0.951 . S
C507 C505 1.388 . S
C507 C508 1.366 . S
C508 C507 1.366 . S
C508 C509 1.414 . S
C508 C511 1.499 . S
C509 H483 0.950 . S
C509 C508 1.414 . S
C509 C510 1.374 . S
C510 H484 0.950 . S
C510 C506 1.385 . S
C510 C509 1.374 . S
C511 C508 1.499 . S
C511 C512 1.373 . S
C511 C513 1.389 . S
C512 H485 0.950 . S
C512 C498 1.377 . S
C512 C511 1.373 . S
C513 C497 1.377 . S
C513 C511 1.389 . S
C513 C514 1.524 . S
C514 C513 1.524 . S
C514 C515 1.397 . S
C514 C519 1.363 . S
C515 H486 0.950 . S
C515 C514 1.397 . S
C515 C516 1.334 . S
C516 H487 0.950 . S
C516 C515 1.334 . S
C516 C517 1.287 . S
C517 C516 1.287 . S
C517 C518 1.524 . S
C517 H520 0.999 . S
C518 H488 0.950 . S
C518 C517 1.524 . S
C518 C519 1.415 . S
C519 H489 0.950 . S
C519 C514 1.363 . S
C519 C518 1.415 . S
H520 C517 0.999 . S
H521 C502 0.913 . S
H522 C540 0.951 . S
H523 C542 0.951 . S
H524 C544 0.950 . S
H525 C545 0.950 . S
H526 C547 0.950 . S
H527 C550 0.950 . S
H528 C551 0.950 . S
H529 C553 0.950 . S
H530 C554 0.950 . S
H531 C555 0.951 . S
H532 C557 0.951 . S
H533 C559 0.950 . S
H534 C560 0.950 . S
H535 C562 0.950 . S
H536 C565 0.950 . S
H537 C566 0.950 . S
H538 C568 0.950 . S
H539 C569 0.950 . S
C540 H522 0.951 . S
C540 C541 1.366 . S
C540 C542 1.388 . S
C541 C540 1.366 . S
C541 C545 1.385 . S
C542 H523 0.951 . S
C542 C540 1.388 . S
C542 C543 1.366 . S
C543 C542 1.366 . S
C543 C544 1.414 . S
C543 C546 1.499 . S
C544 H524 0.950 . S
C544 C543 1.414 . S
C544 C545 1.374 . S
C545 H525 0.950 . S
C545 C541 1.385 . S
C545 C544 1.374 . S
C546 C543 1.499 . S
C546 C547 1.373 . S
C546 C548 1.389 . S
C547 H526 0.950 . S
C547 C546 1.373 . S
C547 C563 1.377 . S
C548 C546 1.389 . S
C548 C549 1.524 . S
C548 C562 1.377 . S
C549 C548 1.524 . S
C549 C550 1.397 . S
C549 C554 1.363 . S
C550 H527 0.950 . S
C550 C549 1.397 . S
C550 C551 1.334 . S
C551 H528 0.950 . S
C551 C550 1.334 . S
C551 C552 1.287 . S
C552 C551 1.287 . S
C552 C553 1.524 . S
C552 H571 0.913 . S
C553 H529 0.950 . S
C553 C552 1.524 . S
C553 C554 1.415 . S
C554 H530 0.950 . S
C554 C549 1.363 . S
C554 C553 1.415 . S
C555 H531 0.951 . S
C555 C556 1.366 . S
C555 C557 1.388 . S
C556 C555 1.366 . S
C556 C560 1.385 . S
C557 H532 0.951 . S
C557 C555 1.388 . S
C557 C558 1.366 . S
C558 C557 1.366 . S
C558 C559 1.414 . S
C558 C561 1.499 . S
C559 H533 0.950 . S
C559 C558 1.414 . S
C559 C560 1.374 . S
C560 H534 0.950 . S
C560 C556 1.385 . S
C560 C559 1.374 . S
C561 C558 1.499 . S
C561 C562 1.373 . S
C561 C563 1.389 . S
C562 H535 0.950 . S
C562 C548 1.377 . S
C562 C561 1.373 . S
C563 C547 1.377 . S
C563 C561 1.389 . S
C563 C564 1.524 . S
C564 C563 1.524 . S
C564 C565 1.397 . S
C564 C569 1.363 . S
C565 H536 0.950 . S
C565 C564 1.397 . S
C565 C566 1.334 . S
C566 H537 0.950 . S
C566 C565 1.334 . S
C566 C567 1.287 . S
C567 C566 1.287 . S
C567 C568 1.524 . S
C567 H570 0.999 . S
C568 H538 0.950 . S
C568 C567 1.524 . S
C568 C569 1.415 . S
C569 H539 0.950 . S
C569 C564 1.363 . S
C569 C568 1.415 . S
H570 C567 0.999 . S
H571 C552 0.913 . S
H572 C590 0.951 . S
H573 C592 0.951 . S
H574 C594 0.950 . S
H575 C595 0.950 . S
H576 C597 0.950 . S
H577 C600 0.950 . S
H578 C601 0.950 . S
H579 C603 0.950 . S
H580 C604 0.950 . S
H581 C605 0.951 . S
H582 C607 0.951 . S
H583 C609 0.950 . S
H584 C610 0.950 . S
H585 C612 0.950 . S
H586 C615 0.950 . S
H587 C616 0.950 . S
H588 C618 0.950 . S
H589 C619 0.950 . S
C590 H572 0.951 . S
C590 C591 1.366 . S
C590 C592 1.388 . S
C591 C590 1.366 . S
C591 C595 1.385 . S
C592 H573 0.951 . S
C592 C590 1.388 . S
C592 C593 1.366 . S
C593 C592 1.366 . S
C593 C594 1.414 . S
C593 C596 1.499 . S
C594 H574 0.950 . S
C594 C593 1.414 . S
C594 C595 1.374 . S
C595 H575 0.950 . S
C595 C591 1.385 . S
C595 C594 1.374 . S
C596 C593 1.499 . S
C596 C597 1.373 . S
C596 C598 1.389 . S
C597 H576 0.950 . S
C597 C596 1.373 . S
C597 C613 1.377 . S
C598 C596 1.389 . S
C598 C599 1.524 . S
C598 C612 1.377 . S
C599 C598 1.524 . S
C599 C600 1.397 . S
C599 C604 1.363 . S
C600 H577 0.950 . S
C600 C599 1.397 . S
C600 C601 1.334 . S
C601 H578 0.950 . S
C601 C600 1.334 . S
C601 C602 1.287 . S
C602 C601 1.287 . S
C602 C603 1.524 . S
C602 H621 0.913 . S
C603 H579 0.950 . S
C603 C602 1.524 . S
C603 C604 1.415 . S
C604 H580 0.950 . S
C604 C599 1.363 . S
C604 C603 1.415 . S
C605 H581 0.951 . S
C605 C606 1.366 . S
C605 C607 1.388 . S
C606 C605 1.366 . S
C606 C610 1.385 . S
C607 H582 0.951 . S
C607 C605 1.388 . S
C607 C608 1.366 . S
C608 C607 1.366 . S
C608 C609 1.414 . S
C608 C611 1.499 . S
C609 H583 0.950 . S
C609 C608 1.414 . S
C609 C610 1.374 . S
C610 H584 0.950 . S
C610 C606 1.385 . S
C610 C609 1.374 . S
C611 C608 1.499 . S
C611 C612 1.373 . S
C611 C613 1.389 . S
C612 H585 0.950 . S
C612 C598 1.377 . S
C612 C611 1.373 . S
C613 C597 1.377 . S
C613 C611 1.389 . S
C613 C614 1.524 . S
C614 C613 1.524 . S
C614 C615 1.397 . S
C614 C619 1.363 . S
C615 H586 0.950 . S
C615 C614 1.397 . S
C615 C616 1.334 . S
C616 H587 0.950 . S
C616 C615 1.334 . S
C616 C617 1.287 . S
C617 C616 1.287 . S
C617 C618 1.524 . S
C617 H620 0.999 . S
C618 H588 0.950 . S
C618 C617 1.524 . S
C618 C619 1.415 . S
C619 H589 0.950 . S
C619 C614 1.363 . S
C619 C618 1.415 . S
H620 C617 0.999 . S
H621 C602 0.913 . S
H622 C640 0.951 . S
H623 C642 0.951 . S
H624 C644 0.950 . S
H625 C645 0.950 . S
H626 C647 0.950 . S
H627 C650 0.950 . S
H628 C651 0.950 . S
H629 C653 0.950 . S
H630 C654 0.950 . S
H631 C655 0.951 . S
H632 C657 0.951 . S
H633 C659 0.950 . S
H634 C660 0.950 . S
H635 C662 0.950 . S
H636 C665 0.950 . S
H637 C666 0.950 . S
H638 C668 0.950 . S
H639 C669 0.950 . S
C640 H622 0.951 . S
C640 C641 1.366 . S
C640 C642 1.388 . S
C641 C640 1.366 . S
C641 C645 1.385 . S
C642 H623 0.951 . S
C642 C640 1.388 . S
C642 C643 1.366 . S
C643 C642 1.366 . S
C643 C644 1.414 . S
C643 C646 1.499 . S
C644 H624 0.950 . S
C644 C643 1.414 . S
C644 C645 1.374 . S
C645 H625 0.950 . S
C645 C641 1.385 . S
C645 C644 1.374 . S
C646 C643 1.499 . S
C646 C647 1.373 . S
C646 C648 1.389 . S
C647 H626 0.950 . S
C647 C646 1.373 . S
C647 C663 1.377 . S
C648 C646 1.389 . S
C648 C649 1.524 . S
C648 C662 1.377 . S
C649 C648 1.524 . S
C649 C650 1.397 . S
C649 C654 1.363 . S
C650 H627 0.950 . S
C650 C649 1.397 . S
C650 C651 1.334 . S
C651 H628 0.950 . S
C651 C650 1.334 . S
C651 C652 1.287 . S
C652 C651 1.287 . S
C652 C653 1.524 . S
C652 H671 0.913 . S
C653 H629 0.950 . S
C653 C652 1.524 . S
C653 C654 1.415 . S
C654 H630 0.950 . S
C654 C649 1.363 . S
C654 C653 1.415 . S
C655 H631 0.951 . S
C655 C656 1.366 . S
C655 C657 1.388 . S
C656 C655 1.366 . S
C656 C660 1.385 . S
C657 H632 0.951 . S
C657 C655 1.388 . S
C657 C658 1.366 . S
C658 C657 1.366 . S
C658 C659 1.414 . S
C658 C661 1.499 . S
C659 H633 0.950 . S
C659 C658 1.414 . S
C659 C660 1.374 . S
C660 H634 0.950 . S
C660 C656 1.385 . S
C660 C659 1.374 . S
C661 C658 1.499 . S
C661 C662 1.373 . S
C661 C663 1.389 . S
C662 H635 0.950 . S
C662 C648 1.377 . S
C662 C661 1.373 . S
C663 C647 1.377 . S
C663 C661 1.389 . S
C663 C664 1.524 . S
C664 C663 1.524 . S
C664 C665 1.397 . S
C664 C669 1.363 . S
C665 H636 0.950 . S
C665 C664 1.397 . S
C665 C666 1.334 . S
C666 H637 0.950 . S
C666 C665 1.334 . S
C666 C667 1.287 . S
C667 C666 1.287 . S
C667 C668 1.524 . S
C667 H670 0.999 . S
C668 H638 0.950 . S
C668 C667 1.524 . S
C668 C669 1.415 . S
C669 H639 0.950 . S
C669 C664 1.363 . S
C669 C668 1.415 . S
H670 C667 0.999 . S
H671 C652 0.913 . S
H672 C690 0.951 . S
H673 C692 0.951 1_565 S
H674 C694 0.950 1_556 S
H675 C695 0.950 1_556 S
H676 C697 0.950 1_556 S
H677 C700 0.950 . S
H678 C701 0.950 . S
H679 C703 0.950 1_565 S
H680 C704 0.950 . S
H681 C705 0.939 1_556 S
H682 C707 0.951 1_546 S
H683 C709 0.950 . S
H684 C710 0.950 . S
H685 C712 0.950 . S
H686 C715 0.950 . S
H687 C716 0.950 . S
H688 C718 0.950 1_545 S
H689 C719 0.950 . S
C690 H672 0.951 . S
C690 C691 1.366 . S
C690 C692 1.388 . S
C691 C690 1.366 . S
C691 C695 1.385 . S
C692 H673 0.951 1_545 S
C692 C690 1.388 . S
C692 C693 1.366 . S
C693 C692 1.366 . S
C693 C694 1.414 . S
C693 C696 1.499 . S
C694 H674 0.950 1_554 S
C694 C693 1.414 . S
C694 C695 1.374 . S
C695 H675 0.950 1_554 S
C695 C691 1.385 . S
C695 C694 1.374 . S
C696 C693 1.499 . S
C696 C697 1.373 . S
C696 C698 1.389 . S
C697 H676 0.950 1_554 S
C697 C696 1.373 . S
C697 C713 1.377 1_545 S
C698 C696 1.389 . S
C698 C699 1.524 . S
C698 C712 1.377 1_545 S
C699 C698 1.524 . S
C699 C700 1.397 . S
C699 C704 1.363 1_545 S
C700 H677 0.950 . S
C700 C699 1.397 . S
C700 C701 1.334 . S
C701 H678 0.950 . S
C701 C700 1.334 . S
C701 C702 1.287 . S
C702 C701 1.287 . S
C702 C703 1.524 . S
C702 H721 0.913 . S
C703 H679 0.950 1_545 S
C703 C702 1.524 . S
C703 C704 1.415 1_545 S
C704 H680 0.950 . S
C704 C699 1.363 1_565 S
C704 C703 1.415 1_565 S
C705 H681 0.939 1_554 S
C705 C706 1.366 . S
C705 C707 1.388 . S
C706 C705 1.366 . S
C706 C710 1.385 . S
C707 H682 0.951 1_564 S
C707 C705 1.388 . S
C707 C708 1.366 . S
C708 C707 1.366 . S
C708 C709 1.414 . S
C708 C711 1.499 . S
C709 H683 0.950 . S
C709 C708 1.414 . S
C709 C710 1.374 . S
C710 H684 0.950 . S
C710 C706 1.385 . S
C710 C709 1.374 . S
C711 C708 1.499 . S
C711 C712 1.373 . S
C711 C713 1.389 . S
C712 H685 0.950 . S
C712 C698 1.377 1_565 S
C712 C711 1.373 . S
C713 C697 1.377 1_565 S
C713 C711 1.389 . S
C713 C714 1.524 1_554 S
C714 C713 1.524 1_556 S
C714 C715 1.397 . S
C714 C719 1.363 1_565 S
C715 H686 0.950 . S
C715 C714 1.397 . S
C715 C716 1.334 . S
C716 H687 0.950 . S
C716 C715 1.334 . S
C716 C717 1.287 . S
C717 C716 1.287 . S
C717 C718 1.524 . S
C717 H720 0.999 . S
C718 H688 0.950 1_565 S
C718 C717 1.524 . S
C718 C719 1.415 1_565 S
C719 H689 0.950 . S
C719 C714 1.363 1_545 S
C719 C718 1.415 1_545 S
H720 C717 0.999 . S
H721 C702 0.913 . S
H722 C740 0.951 1_554 S
H723 C742 0.951 1_554 S
H724 C744 0.950 . S
H725 C745 0.950 . S
H726 C747 0.950 . S
H727 C750 0.950 . S
H728 C751 0.950 1_556 S
H729 C753 0.950 . S
H730 C754 0.950 . S
H731 C755 0.951 . S
H732 C757 0.951 . S
H733 C759 0.950 1_554 S
H734 C760 0.950 1_554 S
H735 C762 0.950 1_554 S
H736 C765 0.950 . S
H737 C766 0.950 . S
H738 C768 0.950 . S
H739 C769 0.950 . S
C740 H722 0.951 1_556 S
C740 C741 1.366 . S
C740 C742 1.388 . S
C741 C740 1.366 . S
C741 C745 1.385 . S
C742 H723 0.951 1_556 S
C742 C740 1.388 . S
C742 C743 1.366 . S
C743 C742 1.366 . S
C743 C744 1.414 . S
C743 C746 1.499 . S
C744 H724 0.950 . S
C744 C743 1.414 . S
C744 C745 1.374 . S
C745 H725 0.950 . S
C745 C741 1.385 . S
C745 C744 1.374 . S
C746 C743 1.499 . S
C746 C747 1.373 1_655 S
C746 C748 1.389 . S
C747 H726 0.950 . S
C747 C746 1.373 1_455 S
C747 C763 1.377 . S
C748 C746 1.389 . S
C748 C749 1.524 1_556 S
C748 C762 1.377 . S
C749 C748 1.524 1_554 S
C749 C750 1.397 1_554 S
C749 C754 1.363 . S
C750 H727 0.950 . S
C750 C749 1.397 1_556 S
C750 C751 1.334 1_556 S
C751 H728 0.950 1_554 S
C751 C750 1.334 1_554 S
C751 C752 1.287 . S
C752 C751 1.287 . S
C752 C753 1.524 . S
C752 H771 0.913 . S
C753 H729 0.950 . S
C753 C752 1.524 . S
C753 C754 1.415 . S
C754 H730 0.950 . S
C754 C749 1.363 . S
C754 C753 1.415 . S
C755 H731 0.951 . S
C755 C756 1.366 . S
C755 C757 1.388 . S
C756 C755 1.366 . S
C756 C760 1.385 . S
C757 H732 0.951 . S
C757 C755 1.388 . S
C757 C758 1.366 . S
C758 C757 1.366 . S
C758 C759 1.414 . S
C758 C761 1.499 . S
C759 H733 0.950 1_556 S
C759 C758 1.414 . S
C759 C760 1.374 . S
C760 H734 0.950 1_556 S
C760 C756 1.385 . S
C760 C759 1.374 . S
C761 C758 1.499 . S
C761 C762 1.373 1_455 S
C761 C763 1.389 . S
C762 H735 0.950 1_556 S
C762 C748 1.377 . S
C762 C761 1.373 1_655 S
C763 C747 1.377 . S
C763 C761 1.389 . S
C763 C764 1.524 . S
C764 C763 1.524 . S
C764 C765 1.397 . S
C764 C769 1.363 . S
C765 H736 0.950 . S
C765 C764 1.397 . S
C765 C766 1.334 . S
C766 H737 0.950 . S
C766 C765 1.334 . S
C766 C767 1.287 . S
C767 C766 1.287 . S
C767 C768 1.524 . S
C767 H770 0.999 . S
C768 H738 0.950 . S
C768 C767 1.524 . S
C768 C769 1.415 . S
C769 H739 0.950 . S
C769 C764 1.363 . S
C769 C768 1.415 . S
H770 C767 0.999 . S
H771 C752 0.913 . S
H772 C790 0.951 . S
H773 C792 0.951 . S
H774 C794 0.950 . S
H775 C795 0.950 . S
H776 C797 0.950 . S
H777 C800 0.950 . S
H778 C801 0.950 . S
H779 C803 0.950 1_455 S
H780 C804 0.966 . S
H781 C805 0.951 . S
H782 C807 0.951 . S
H783 C809 0.950 . S
H784 C810 0.950 . S
H785 C812 0.950 . S
H786 C815 0.950 . S
H787 C816 0.950 . S
H788 C818 0.950 1_655 S
H789 C819 0.966 . S
C790 H772 0.951 . S
C790 C791 1.366 . S
C790 C792 1.388 . S
C791 C790 1.366 . S
C791 C795 1.385 . S
C792 H773 0.951 . S
C792 C790 1.388 . S
C792 C793 1.366 . S
C793 C792 1.366 . S
C793 C794 1.414 . S
C793 C796 1.499 . S
C794 H774 0.950 . S
C794 C793 1.414 . S
C794 C795 1.374 . S
C795 H775 0.950 . S
C795 C791 1.385 . S
C795 C794 1.374 . S
C796 C793 1.499 . S
C796 C797 1.373 . S
C796 C798 1.389 . S
C797 H776 0.950 . S
C797 C796 1.373 . S
C797 C813 1.377 1_655 S
C798 C796 1.389 . S
C798 C799 1.524 . S
C798 C812 1.377 1_655 S
C799 C798 1.524 . S
C799 C800 1.397 . S
C799 C804 1.351 1_655 S
C800 H777 0.950 . S
C800 C799 1.397 . S
C800 C801 1.334 . S
C801 H778 0.950 . S
C801 C800 1.334 . S
C801 C802 1.287 . S
C802 C801 1.287 . S
C802 C803 1.524 . S
C802 H821 0.913 . S
C803 H779 0.950 1_655 S
C803 C802 1.524 . S
C803 C804 1.411 1_655 S
C804 H780 0.966 . S
C804 C799 1.351 1_455 S
C804 C803 1.411 1_455 S
C805 H781 0.951 . S
C805 C806 1.366 . S
C805 C807 1.388 . S
C806 C805 1.366 . S
C806 C810 1.385 . S
C807 H782 0.951 . S
C807 C805 1.388 . S
C807 C808 1.366 . S
C808 C807 1.366 . S
C808 C809 1.414 . S
C808 C811 1.499 . S
C809 H783 0.950 . S
C809 C808 1.414 . S
C809 C810 1.374 . S
C810 H784 0.950 . S
C810 C806 1.385 . S
C810 C809 1.374 . S
C811 C808 1.499 . S
C811 C812 1.373 . S
C811 C813 1.389 . S
C812 H785 0.950 . S
C812 C798 1.377 1_455 S
C812 C811 1.373 . S
C813 C797 1.377 1_455 S
C813 C811 1.389 . S
C813 C814 1.524 . S
C814 C813 1.524 . S
C814 C815 1.397 . S
C814 C819 1.351 1_455 S
C815 H786 0.950 . S
C815 C814 1.397 . S
C815 C816 1.334 . S
C816 H787 0.950 . S
C816 C815 1.334 . S
C816 C817 1.287 . S
C817 C816 1.287 . S
C817 C818 1.524 . S
C817 H820 0.999 . S
C818 H788 0.950 1_455 S
C818 C817 1.524 . S
C818 C819 1.411 1_455 S
C819 H789 0.966 . S
C819 C814 1.351 1_655 S
C819 C818 1.411 1_655 S
H820 C817 0.999 . S
H821 C802 0.913 . S
H822 C840 0.951 . S
H823 C842 0.951 . S
H824 C844 0.950 . S
H825 C845 0.950 . S
H826 C847 0.950 . S
H827 C850 0.950 . S
H828 C851 0.950 . S
H829 C853 0.950 . S
H830 C854 0.950 . S
H831 C855 0.951 . S
H832 C857 0.951 . S
H833 C859 0.950 . S
H834 C860 0.950 . S
H835 C862 0.950 . S
H836 C865 0.950 . S
H837 C866 0.950 . S
H838 C868 0.950 . S
H839 C869 0.950 . S
C840 H822 0.951 . S
C840 C841 1.366 . S
C840 C842 1.388 . S
C841 C840 1.366 . S
C841 C845 1.385 . S
C842 H823 0.951 . S
C842 C840 1.388 . S
C842 C843 1.366 . S
C843 C842 1.366 . S
C843 C844 1.414 . S
C843 C846 1.499 . S
C844 H824 0.950 . S
C844 C843 1.414 . S
C844 C845 1.374 . S
C845 H825 0.950 . S
C845 C841 1.385 . S
C845 C844 1.374 . S
C846 C843 1.499 . S
C846 C847 1.373 . S
C846 C848 1.389 . S
C847 H826 0.950 . S
C847 C846 1.373 . S
C847 C863 1.377 1_545 S
C848 C846 1.389 . S
C848 C849 1.524 . S
C848 C862 1.377 1_545 S
C849 C848 1.524 . S
C849 C850 1.397 . S
C849 C854 1.363 1_545 S
C850 H827 0.950 . S
C850 C849 1.397 . S
C850 C851 1.334 . S
C851 H828 0.950 . S
C851 C850 1.334 . S
C851 C852 1.287 . S
C852 C851 1.287 . S
C852 C853 1.524 1_545 S
C852 H871 0.913 . S
C853 H829 0.950 . S
C853 C852 1.524 1_565 S
C853 C854 1.415 . S
C854 H830 0.950 . S
C854 C849 1.363 1_565 S
C854 C853 1.415 . S
C855 H831 0.951 . S
C855 C856 1.366 . S
C855 C857 1.388 . S
C856 C855 1.366 . S
C856 C860 1.385 . S
C857 H832 0.951 . S
C857 C855 1.388 . S
C857 C858 1.366 . S
C858 C857 1.366 . S
C858 C859 1.414 . S
C858 C861 1.499 . S
C859 H833 0.950 . S
C859 C858 1.414 . S
C859 C860 1.374 . S
C860 H834 0.950 . S
C860 C856 1.385 . S
C860 C859 1.374 . S
C861 C858 1.499 . S
C861 C862 1.373 . S
C861 C863 1.389 . S
C862 H835 0.950 . S
C862 C848 1.377 1_565 S
C862 C861 1.373 . S
C863 C847 1.377 1_565 S
C863 C861 1.389 . S
C863 C864 1.524 . S
C864 C863 1.524 . S
C864 C865 1.397 . S
C864 C869 1.363 1_565 S
C865 H836 0.950 . S
C865 C864 1.397 . S
C865 C866 1.334 . S
C866 H837 0.950 . S
C866 C865 1.334 . S
C866 C867 1.287 . S
C867 C866 1.287 . S
C867 C868 1.524 1_565 S
C867 H870 0.999 . S
C868 H838 0.950 . S
C868 C867 1.524 1_545 S
C868 C869 1.415 . S
C869 H839 0.950 . S
C869 C864 1.363 1_545 S
C869 C868 1.415 . S
H870 C867 0.999 . S
H871 C852 0.913 . S
H872 C890 0.951 . S
H873 C892 0.951 . S
H874 C894 0.950 . S
H875 C895 0.950 . S
H876 C897 0.950 . S
H877 C900 0.950 . S
H878 C901 0.950 . S
H879 C903 0.950 . S
H880 C904 0.950 . S
H881 C905 0.951 . S
H882 C907 0.951 . S
H883 C909 0.950 . S
H884 C910 0.950 . S
H885 C912 0.950 . S
H886 C915 0.950 . S
H887 C916 0.950 . S
H888 C918 0.950 . S
H889 C919 0.950 . S
C890 H872 0.951 . S
C890 C891 1.366 . S
C890 C892 1.388 . S
C891 C890 1.366 . S
C891 C895 1.385 . S
C892 H873 0.951 . S
C892 C890 1.388 . S
C892 C893 1.366 . S
C893 C892 1.366 . S
C893 C894 1.414 . S
C893 C896 1.499 . S
C894 H874 0.950 . S
C894 C893 1.414 . S
C894 C895 1.374 . S
C895 H875 0.950 . S
C895 C891 1.385 . S
C895 C894 1.374 . S
C896 C893 1.499 . S
C896 C897 1.373 . S
C896 C898 1.389 . S
C897 H876 0.950 . S
C897 C896 1.373 . S
C897 C913 1.377 . S
C898 C896 1.389 . S
C898 C899 1.524 . S
C898 C912 1.377 . S
C899 C898 1.524 . S
C899 C900 1.397 . S
C899 C904 1.363 . S
C900 H877 0.950 . S
C900 C899 1.397 . S
C900 C901 1.334 . S
C901 H878 0.950 . S
C901 C900 1.334 . S
C901 C902 1.287 . S
C902 C901 1.287 . S
C902 C903 1.524 . S
C902 H921 0.913 . S
C903 H879 0.950 . S
C903 C902 1.524 . S
C903 C904 1.415 . S
C904 H880 0.950 . S
C904 C899 1.363 . S
C904 C903 1.415 . S
C905 H881 0.951 . S
C905 C906 1.366 . S
C905 C907 1.388 . S
C906 C905 1.366 . S
C906 C910 1.385 . S
C907 H882 0.951 . S
C907 C905 1.388 . S
C907 C908 1.366 . S
C908 C907 1.366 . S
C908 C909 1.414 . S
C908 C911 1.499 . S
C909 H883 0.950 . S
C909 C908 1.414 . S
C909 C910 1.374 . S
C910 H884 0.950 . S
C910 C906 1.385 . S
C910 C909 1.374 . S
C911 C908 1.499 . S
C911 C912 1.373 . S
C911 C913 1.389 . S
C912 H885 0.950 . S
C912 C898 1.377 . S
C912 C911 1.373 . S
C913 C897 1.377 . S
C913 C911 1.389 . S
C913 C914 1.524 . S
C914 C913 1.524 . S
C914 C915 1.397 . S
C914 C919 1.363 . S
C915 H886 0.950 . S
C915 C914 1.397 . S
C915 C916 1.334 . S
C916 H887 0.950 . S
C916 C915 1.334 . S
C916 C917 1.287 . S
C917 C916 1.287 . S
C917 C918 1.524 . S
C917 H920 0.999 . S
C918 H888 0.950 . S
C918 C917 1.524 . S
C918 C919 1.415 . S
C919 H889 0.950 . S
C919 C914 1.363 . S
C919 C918 1.415 . S
H920 C917 0.999 . S
H921 C902 0.913 . S
H922 C940 0.951 . S
H923 C942 0.951 . S
H924 C944 0.950 . S
H925 C945 0.950 . S
H926 C947 0.950 . S
H927 C950 0.950 . S
H928 C951 0.950 . S
H929 C953 0.950 . S
H930 C954 0.950 . S
H931 C955 0.951 . S
H932 C957 0.951 . S
H933 C959 0.950 . S
H934 C960 0.950 . S
H935 C962 0.950 . S
H936 C965 0.950 . S
H937 C966 0.950 . S
H938 C968 0.950 . S
H939 C969 0.950 . S
C940 H922 0.951 . S
C940 C941 1.366 . S
C940 C942 1.388 . S
C941 C940 1.366 . S
C941 C945 1.385 . S
C942 H923 0.951 . S
C942 C940 1.388 . S
C942 C943 1.366 . S
C943 C942 1.366 . S
C943 C944 1.414 . S
C943 C946 1.499 . S
C944 H924 0.950 . S
C944 C943 1.414 . S
C944 C945 1.374 . S
C945 H925 0.950 . S
C945 C941 1.385 . S
C945 C944 1.374 . S
C946 C943 1.499 . S
C946 C947 1.373 . S
C946 C948 1.389 . S
C947 H926 0.950 . S
C947 C946 1.373 . S
C947 C963 1.377 . S
C948 C946 1.389 . S
C948 C949 1.524 . S
C948 C962 1.377 . S
C949 C948 1.524 . S
C949 C950 1.397 . S
C949 C954 1.363 . S
C950 H927 0.950 . S
C950 C949 1.397 . S
C950 C951 1.334 . S
C951 H928 0.950 . S
C951 C950 1.334 . S
C951 C952 1.287 . S
C952 C951 1.287 . S
C952 C953 1.524 . S
C952 H971 0.913 . S
C953 H929 0.950 . S
C953 C952 1.524 . S
C953 C954 1.415 . S
C954 H930 0.950 . S
C954 C949 1.363 . S
C954 C953 1.415 . S
C955 H931 0.951 . S
C955 C956 1.366 . S
C955 C957 1.388 . S
C956 C955 1.366 . S
C956 C960 1.385 . S
C957 H932 0.951 . S
C957 C955 1.388 . S
C957 C958 1.366 . S
C958 C957 1.366 . S
C958 C959 1.414 . S
C958 C961 1.499 . S
C959 H933 0.950 . S
C959 C958 1.414 . S
C959 C960 1.374 . S
C960 H934 0.950 . S
C960 C956 1.385 . S
C960 C959 1.374 . S
C961 C958 1.499 . S
C961 C962 1.373 . S
C961 C963 1.389 . S
C962 H935 0.950 . S
C962 C948 1.377 . S
C962 C961 1.373 . S
C963 C947 1.377 . S
C963 C961 1.389 . S
C963 C964 1.524 . S
C964 C963 1.524 . S
C964 C965 1.397 . S
C964 C969 1.363 . S
C965 H936 0.950 . S
C965 C964 1.397 . S
C965 C966 1.334 . S
C966 H937 0.950 . S
C966 C965 1.334 . S
C966 C967 1.287 . S
C967 C966 1.287 . S
C967 C968 1.524 . S
C967 H970 0.999 . S
C968 H938 0.950 . S
C968 C967 1.524 . S
C968 C969 1.415 . S
C969 H939 0.950 . S
C969 C964 1.363 . S
C969 C968 1.415 . S
H970 C967 0.999 . S
H971 C952 0.913 . S
H972 C990 0.951 . S
H973 C992 0.951 . S
H974 C994 0.950 . S
H975 C995 0.950 . S
H976 C997 0.950 . S
H977 C1000 0.950 . S
H978 C1001 0.950 . S
H979 C1003 0.950 . S
H980 C1004 0.950 . S
H981 C1005 0.951 . S
H982 C1007 0.951 . S
H983 C1009 0.950 . S
H984 C1010 0.950 . S
H985 C1012 0.950 . S
H986 C1015 0.950 . S
H987 C1016 0.950 . S
H988 C1018 0.950 . S
H989 C1019 0.950 . S
C990 H972 0.951 . S
C990 C991 1.366 . S
C990 C992 1.388 . S
C991 C990 1.366 . S
C991 C995 1.385 . S
C992 H973 0.951 . S
C992 C990 1.388 . S
C992 C993 1.366 . S
C993 C992 1.366 . S
C993 C994 1.414 . S
C993 C996 1.499 . S
C994 H974 0.950 . S
C994 C993 1.414 . S
C994 C995 1.374 . S
C995 H975 0.950 . S
C995 C991 1.385 . S
C995 C994 1.374 . S
C996 C993 1.499 . S
C996 C997 1.373 . S
C996 C998 1.389 . S
C997 H976 0.950 . S
C997 C996 1.373 . S
C997 C1013 1.377 . S
C998 C996 1.389 . S
C998 C999 1.524 . S
C998 C1012 1.377 . S
C999 C998 1.524 . S
C999 C1000 1.397 . S
C999 C1004 1.363 . S
C1000 H977 0.950 . S
C1000 C999 1.397 . S
C1000 C1001 1.334 . S
C1001 H978 0.950 . S
C1001 C1000 1.334 . S
C1001 C1002 1.287 . S
C1002 C1001 1.287 . S
C1002 C1003 1.524 . S
C1002 H1021 0.913 . S
C1003 H979 0.950 . S
C1003 C1002 1.524 . S
C1003 C1004 1.415 . S
C1004 H980 0.950 . S
C1004 C999 1.363 . S
C1004 C1003 1.415 . S
C1005 H981 0.951 . S
C1005 C1006 1.366 . S
C1005 C1007 1.388 . S
C1006 C1005 1.366 . S
C1006 C1010 1.385 . S
C1007 H982 0.951 . S
C1007 C1005 1.388 . S
C1007 C1008 1.366 . S
C1008 C1007 1.366 . S
C1008 C1009 1.414 . S
C1008 C1011 1.499 . S
C1009 H983 0.950 . S
C1009 C1008 1.414 . S
C1009 C1010 1.374 . S
C1010 H984 0.950 . S
C1010 C1006 1.385 . S
C1010 C1009 1.374 . S
C1011 C1008 1.499 . S
C1011 C1012 1.373 . S
C1011 C1013 1.389 . S
C1012 H985 0.950 . S
C1012 C998 1.377 . S
C1012 C1011 1.373 . S
C1013 C997 1.377 . S
C1013 C1011 1.389 . S
C1013 C1014 1.524 . S
C1014 C1013 1.524 . S
C1014 C1015 1.397 . S
C1014 C1019 1.363 . S
C1015 H986 0.950 . S
C1015 C1014 1.397 . S
C1015 C1016 1.334 . S
C1016 H987 0.950 . S
C1016 C1015 1.334 . S
C1016 C1017 1.287 . S
C1017 C1016 1.287 . S
C1017 C1018 1.524 . S
C1017 H1020 0.999 . S
C1018 H988 0.950 . S
C1018 C1017 1.524 . S
C1018 C1019 1.415 . S
C1019 H989 0.950 . S
C1019 C1014 1.363 . S
C1019 C1018 1.415 . S
H1020 C1017 0.999 . S
H1021 C1002 0.913 . S
H1022 C1040 0.951 . S
H1023 C1042 0.951 . S
H1024 C1044 0.950 . S
H1025 C1045 0.950 . S
H1026 C1047 0.950 . S
H1027 C1050 0.950 . S
H1028 C1051 0.950 . S
H1029 C1053 0.950 . S
H1030 C1054 0.950 . S
H1031 C1055 0.951 . S
H1032 C1057 0.951 . S
H1033 C1059 0.950 . S
H1034 C1060 0.950 . S
H1035 C1062 0.950 . S
H1036 C1065 0.950 . S
H1037 C1066 0.950 . S
H1038 C1068 0.950 . S
H1039 C1069 0.950 . S
C1040 H1022 0.951 . S
C1040 C1041 1.366 . S
C1040 C1042 1.388 . S
C1041 C1040 1.366 . S
C1041 C1045 1.385 . S
C1042 H1023 0.951 . S
C1042 C1040 1.388 . S
C1042 C1043 1.366 . S
C1043 C1042 1.366 . S
C1043 C1044 1.414 . S
C1043 C1046 1.499 . S
C1044 H1024 0.950 . S
C1044 C1043 1.414 . S
C1044 C1045 1.374 . S
C1045 H1025 0.950 . S
C1045 C1041 1.385 . S
C1045 C1044 1.374 . S
C1046 C1043 1.499 . S
C1046 C1047 1.373 . S
C1046 C1048 1.389 . S
C1047 H1026 0.950 . S
C1047 C1046 1.373 . S
C1047 C1063 1.377 . S
C1048 C1046 1.389 . S
C1048 C1049 1.524 . S
C1048 C1062 1.377 . S
C1049 C1048 1.524 . S
C1049 C1050 1.397 . S
C1049 C1054 1.363 . S
C1050 H1027 0.950 . S
C1050 C1049 1.397 . S
C1050 C1051 1.334 . S
C1051 H1028 0.950 . S
C1051 C1050 1.334 . S
C1051 C1052 1.287 . S
C1052 C1051 1.287 . S
C1052 C1053 1.524 . S
C1052 H1071 0.913 . S
C1053 H1029 0.950 . S
C1053 C1052 1.524 . S
C1053 C1054 1.415 . S
C1054 H1030 0.950 . S
C1054 C1049 1.363 . S
C1054 C1053 1.415 . S
C1055 H1031 0.951 . S
C1055 C1056 1.366 . S
C1055 C1057 1.388 . S
C1056 C1055 1.366 . S
C1056 C1060 1.385 . S
C1057 H1032 0.951 . S
C1057 C1055 1.388 . S
C1057 C1058 1.366 . S
C1058 C1057 1.366 . S
C1058 C1059 1.414 . S
C1058 C1061 1.499 . S
C1059 H1033 0.950 . S
C1059 C1058 1.414 . S
C1059 C1060 1.374 . S
C1060 H1034 0.950 . S
C1060 C1056 1.385 . S
C1060 C1059 1.374 . S
C1061 C1058 1.499 . S
C1061 C1062 1.373 . S
C1061 C1063 1.389 . S
C1062 H1035 0.950 . S
C1062 C1048 1.377 . S
C1062 C1061 1.373 . S
C1063 C1047 1.377 . S
C1063 C1061 1.389 . S
C1063 C1064 1.524 . S
C1064 C1063 1.524 . S
C1064 C1065 1.397 . S
C1064 C1069 1.363 . S
C1065 H1036 0.950 . S
C1065 C1064 1.397 . S
C1065 C1066 1.334 . S
C1066 H1037 0.950 . S
C1066 C1065 1.334 . S
C1066 C1067 1.287 . S
C1067 C1066 1.287 . S
C1067 C1068 1.524 . S
C1067 H1070 0.999 . S
C1068 H1038 0.950 . S
C1068 C1067 1.524 . S
C1068 C1069 1.415 . S
C1069 H1039 0.950 . S
C1069 C1064 1.363 . S
C1069 C1068 1.415 . S
H1070 C1067 0.999 . S
H1071 C1052 0.913 . S
H1072 C1090 0.951 . S
H1073 C1092 0.951 . S
H1074 C1094 0.950 . S
H1075 C1095 0.950 . S
H1076 C1097 0.950 . S
H1077 C1100 0.950 . S
H1078 C1101 0.950 . S
H1079 C1103 0.950 . S
H1080 C1104 0.950 . S
H1081 C1105 0.951 . S
H1082 C1107 0.951 . S
H1083 C1109 0.950 . S
H1084 C1110 0.950 . S
H1085 C1112 0.950 . S
H1086 C1115 0.950 . S
H1087 C1116 0.950 . S
H1088 C1118 0.950 . S
H1089 C1119 0.950 . S
C1090 H1072 0.951 . S
C1090 C1091 1.366 . S
C1090 C1092 1.388 . S
C1091 C1090 1.366 . S
C1091 C1095 1.385 . S
C1092 H1073 0.951 . S
C1092 C1090 1.388 . S
C1092 C1093 1.366 . S
C1093 C1092 1.366 . S
C1093 C1094 1.414 . S
C1093 C1096 1.499 . S
C1094 H1074 0.950 . S
C1094 C1093 1.414 . S
C1094 C1095 1.374 . S
C1095 H1075 0.950 . S
C1095 C1091 1.385 . S
C1095 C1094 1.374 . S
C1096 C1093 1.499 . S
C1096 C1097 1.373 . S
C1096 C1098 1.389 . S
C1097 H1076 0.950 . S
C1097 C1096 1.373 . S
C1097 C1113 1.377 . S
C1098 C1096 1.389 . S
C1098 C1099 1.524 . S
C1098 C1112 1.377 . S
C1099 C1098 1.524 . S
C1099 C1100 1.397 . S
C1099 C1104 1.363 . S
C1100 H1077 0.950 . S
C1100 C1099 1.397 . S
C1100 C1101 1.334 . S
C1101 H1078 0.950 . S
C1101 C1100 1.334 . S
C1101 C1102 1.287 . S
C1102 C1101 1.287 . S
C1102 C1103 1.524 . S
C1102 H1121 0.913 . S
C1103 H1079 0.950 . S
C1103 C1102 1.524 . S
C1103 C1104 1.415 . S
C1104 H1080 0.950 . S
C1104 C1099 1.363 . S
C1104 C1103 1.415 . S
C1105 H1081 0.951 . S
C1105 C1106 1.366 . S
C1105 C1107 1.388 . S
C1106 C1105 1.366 . S
C1106 C1110 1.385 . S
C1107 H1082 0.951 . S
C1107 C1105 1.388 . S
C1107 C1108 1.366 . S
C1108 C1107 1.366 . S
C1108 C1109 1.414 . S
C1108 C1111 1.499 . S
C1109 H1083 0.950 . S
C1109 C1108 1.414 . S
C1109 C1110 1.374 . S
C1110 H1084 0.950 . S
C1110 C1106 1.385 . S
C1110 C1109 1.374 . S
C1111 C1108 1.499 . S
C1111 C1112 1.373 . S
C1111 C1113 1.389 . S
C1112 H1085 0.950 . S
C1112 C1098 1.377 . S
C1112 C1111 1.373 . S
C1113 C1097 1.377 . S
C1113 C1111 1.389 . S
C1113 C1114 1.524 . S
C1114 C1113 1.524 . S
C1114 C1115 1.397 . S
C1114 C1119 1.363 . S
C1115 H1086 0.950 . S
C1115 C1114 1.397 . S
C1115 C1116 1.334 . S
C1116 H1087 0.950 . S
C1116 C1115 1.334 . S
C1116 C1117 1.287 . S
C1117 C1116 1.287 . S
C1117 C1118 1.524 . S
C1117 H1120 0.999 . S
C1118 H1088 0.950 . S
C1118 C1117 1.524 . S
C1118 C1119 1.415 . S
C1119 H1089 0.950 . S
C1119 C1114 1.363 . S
C1119 C1118 1.415 . S
H1120 C1117 0.999 . S
H1121 C1102 0.913 . S
H1122 C1140 0.951 . S
H1123 C1142 0.951 . S
H1124 C1144 0.950 . S
H1125 C1145 0.950 . S
H1126 C1147 0.950 . S
H1127 C1150 0.950 . S
H1128 C1151 0.950 . S
H1129 C1153 0.950 . S
H1130 C1154 0.950 . S
H1131 C1155 0.951 . S
H1132 C1157 0.951 . S
H1133 C1159 0.950 . S
H1134 C1160 0.950 . S
H1135 C1162 0.950 . S
H1136 C1165 0.950 . S
H1137 C1166 0.950 . S
H1138 C1168 0.950 . S
H1139 C1169 0.950 . S
C1140 H1122 0.951 . S
C1140 C1141 1.366 . S
C1140 C1142 1.388 . S
C1141 C1140 1.366 . S
C1141 C1145 1.385 . S
C1142 H1123 0.951 . S
C1142 C1140 1.388 . S
C1142 C1143 1.366 . S
C1143 C1142 1.366 . S
C1143 C1144 1.414 . S
C1143 C1146 1.499 . S
C1144 H1124 0.950 . S
C1144 C1143 1.414 . S
C1144 C1145 1.374 . S
C1145 H1125 0.950 . S
C1145 C1141 1.385 . S
C1145 C1144 1.374 . S
C1146 C1143 1.499 . S
C1146 C1147 1.373 . S
C1146 C1148 1.389 . S
C1147 H1126 0.950 . S
C1147 C1146 1.373 . S
C1147 C1163 1.377 . S
C1148 C1146 1.389 . S
C1148 C1149 1.524 . S
C1148 C1162 1.377 . S
C1149 C1148 1.524 . S
C1149 C1150 1.397 . S
C1149 C1154 1.363 . S
C1150 H1127 0.950 . S
C1150 C1149 1.397 . S
C1150 C1151 1.334 . S
C1151 H1128 0.950 . S
C1151 C1150 1.334 . S
C1151 C1152 1.287 . S
C1152 C1151 1.287 . S
C1152 C1153 1.524 . S
C1152 H1171 0.913 . S
C1153 H1129 0.950 . S
C1153 C1152 1.524 . S
C1153 C1154 1.415 . S
C1154 H1130 0.950 . S
C1154 C1149 1.363 . S
C1154 C1153 1.415 . S
C1155 H1131 0.951 . S
C1155 C1156 1.366 . S
C1155 C1157 1.388 . S
C1156 C1155 1.366 . S
C1156 C1160 1.385 . S
C1157 H1132 0.951 . S
C1157 C1155 1.388 . S
C1157 C1158 1.366 . S
C1158 C1157 1.366 . S
C1158 C1159 1.414 . S
C1158 C1161 1.499 . S
C1159 H1133 0.950 . S
C1159 C1158 1.414 . S
C1159 C1160 1.374 . S
C1160 H1134 0.950 . S
C1160 C1156 1.385 . S
C1160 C1159 1.374 . S
C1161 C1158 1.499 . S
C1161 C1162 1.373 . S
C1161 C1163 1.389 . S
C1162 H1135 0.950 . S
C1162 C1148 1.377 . S
C1162 C1161 1.373 . S
C1163 C1147 1.377 . S
C1163 C1161 1.389 . S
C1163 C1164 1.524 . S
C1164 C1163 1.524 . S
C1164 C1165 1.397 . S
C1164 C1169 1.363 . S
C1165 H1136 0.950 . S
C1165 C1164 1.397 . S
C1165 C1166 1.334 . S
C1166 H1137 0.950 . S
C1166 C1165 1.334 . S
C1166 C1167 1.287 . S
C1167 C1166 1.287 . S
C1167 C1168 1.524 . S
C1167 H1170 0.999 . S
C1168 H1138 0.950 . S
C1168 C1167 1.524 . S
C1168 C1169 1.415 . S
C1169 H1139 0.950 . S
C1169 C1164 1.363 . S
C1169 C1168 1.415 . S
H1170 C1167 0.999 . S
H1171 C1152 0.913 . S
H1172 C1190 0.951 . S
H1173 C1192 0.951 . S
H1174 C1194 0.950 . S
H1175 C1195 0.950 . S
H1176 C1197 0.950 . S
H1177 C1200 0.950 . S
H1178 C1201 0.950 . S
H1179 C1203 0.950 . S
H1180 C1204 0.950 . S
H1181 C1205 0.951 . S
H1182 C1207 0.951 . S
H1183 C1209 0.950 . S
H1184 C1210 0.950 . S
H1185 C1212 0.950 . S
H1186 C1215 0.950 . S
H1187 C1216 0.950 . S
H1188 C1218 0.950 . S
H1189 C1219 0.950 . S
C1190 H1172 0.951 . S
C1190 C1191 1.366 . S
C1190 C1192 1.388 . S
C1191 C1190 1.366 . S
C1191 C1195 1.385 . S
C1192 H1173 0.951 . S
C1192 C1190 1.388 . S
C1192 C1193 1.366 . S
C1193 C1192 1.366 . S
C1193 C1194 1.414 . S
C1193 C1196 1.499 . S
C1194 H1174 0.950 . S
C1194 C1193 1.414 . S
C1194 C1195 1.374 . S
C1195 H1175 0.950 . S
C1195 C1191 1.385 . S
C1195 C1194 1.374 . S
C1196 C1193 1.499 . S
C1196 C1197 1.373 . S
C1196 C1198 1.389 . S
C1197 H1176 0.950 . S
C1197 C1196 1.373 . S
C1197 C1213 1.377 . S
C1198 C1196 1.389 . S
C1198 C1199 1.524 . S
C1198 C1212 1.377 . S
C1199 C1198 1.524 . S
C1199 C1200 1.397 . S
C1199 C1204 1.363 . S
C1200 H1177 0.950 . S
C1200 C1199 1.397 . S
C1200 C1201 1.334 . S
C1201 H1178 0.950 . S
C1201 C1200 1.334 . S
C1201 C1202 1.287 . S
C1202 C1201 1.287 . S
C1202 C1203 1.524 . S
C1202 H1221 0.913 . S
C1203 H1179 0.950 . S
C1203 C1202 1.524 . S
C1203 C1204 1.415 . S
C1204 H1180 0.950 . S
C1204 C1199 1.363 . S
C1204 C1203 1.415 . S
C1205 H1181 0.951 . S
C1205 C1206 1.366 . S
C1205 C1207 1.388 . S
C1206 C1205 1.366 . S
C1206 C1210 1.385 . S
C1207 H1182 0.951 . S
C1207 C1205 1.388 . S
C1207 C1208 1.366 . S
C1208 C1207 1.366 . S
C1208 C1209 1.414 . S
C1208 C1211 1.499 . S
C1209 H1183 0.950 . S
C1209 C1208 1.414 . S
C1209 C1210 1.374 . S
C1210 H1184 0.950 . S
C1210 C1206 1.385 . S
C1210 C1209 1.374 . S
C1211 C1208 1.499 . S
C1211 C1212 1.373 . S
C1211 C1213 1.389 . S
C1212 H1185 0.950 . S
C1212 C1198 1.377 . S
C1212 C1211 1.373 . S
C1213 C1197 1.377 . S
C1213 C1211 1.389 . S
C1213 C1214 1.524 . S
C1214 C1213 1.524 . S
C1214 C1215 1.397 . S
C1214 C1219 1.363 . S
C1215 H1186 0.950 . S
C1215 C1214 1.397 . S
C1215 C1216 1.334 . S
C1216 H1187 0.950 . S
C1216 C1215 1.334 . S
C1216 C1217 1.287 . S
C1217 C1216 1.287 . S
C1217 C1218 1.524 . S
C1217 H1220 0.999 . S
C1218 H1188 0.950 . S
C1218 C1217 1.524 . S
C1218 C1219 1.415 . S
C1219 H1189 0.950 . S
C1219 C1214 1.363 . S
C1219 C1218 1.415 . S
H1220 C1217 0.999 . S
H1221 C1202 0.913 . S
H1222 C1240 0.951 . S
H1223 C1242 0.951 . S
H1224 C1244 0.950 . S
H1225 C1245 0.950 . S
H1226 C1247 0.950 . S
H1227 C1250 0.950 . S
H1228 C1251 0.950 . S
H1229 C1253 0.950 . S
H1230 C1254 0.950 . S
H1231 C1255 0.951 . S
H1232 C1257 0.951 . S
H1233 C1259 0.950 . S
H1234 C1260 0.950 . S
H1235 C1262 0.950 . S
H1236 C1265 0.950 . S
H1237 C1266 0.950 . S
H1238 C1268 0.950 . S
H1239 C1269 0.950 . S
C1240 H1222 0.951 . S
C1240 C1241 1.366 . S
C1240 C1242 1.388 . S
C1241 C1240 1.366 . S
C1241 C1245 1.385 . S
C1242 H1223 0.951 . S
C1242 C1240 1.388 . S
C1242 C1243 1.366 . S
C1243 C1242 1.366 . S
C1243 C1244 1.414 . S
C1243 C1246 1.499 . S
C1244 H1224 0.950 . S
C1244 C1243 1.414 . S
C1244 C1245 1.374 . S
C1245 H1225 0.950 . S
C1245 C1241 1.385 . S
C1245 C1244 1.374 . S
C1246 C1243 1.499 . S
C1246 C1247 1.373 . S
C1246 C1248 1.389 . S
C1247 H1226 0.950 . S
C1247 C1246 1.373 . S
C1247 C1263 1.377 . S
C1248 C1246 1.389 . S
C1248 C1249 1.524 . S
C1248 C1262 1.377 . S
C1249 C1248 1.524 . S
C1249 C1250 1.397 . S
C1249 C1254 1.363 . S
C1250 H1227 0.950 . S
C1250 C1249 1.397 . S
C1250 C1251 1.334 . S
C1251 H1228 0.950 . S
C1251 C1250 1.334 . S
C1251 C1252 1.287 . S
C1252 C1251 1.287 . S
C1252 C1253 1.524 . S
C1252 H1271 0.913 . S
C1253 H1229 0.950 . S
C1253 C1252 1.524 . S
C1253 C1254 1.415 . S
C1254 H1230 0.950 . S
C1254 C1249 1.363 . S
C1254 C1253 1.415 . S
C1255 H1231 0.951 . S
C1255 C1256 1.366 . S
C1255 C1257 1.388 . S
C1256 C1255 1.366 . S
C1256 C1260 1.385 . S
C1257 H1232 0.951 . S
C1257 C1255 1.388 . S
C1257 C1258 1.366 . S
C1258 C1257 1.366 . S
C1258 C1259 1.414 . S
C1258 C1261 1.499 . S
C1259 H1233 0.950 . S
C1259 C1258 1.414 . S
C1259 C1260 1.374 . S
C1260 H1234 0.950 . S
C1260 C1256 1.385 . S
C1260 C1259 1.374 . S
C1261 C1258 1.499 . S
C1261 C1262 1.373 . S
C1261 C1263 1.389 . S
C1262 H1235 0.950 . S
C1262 C1248 1.377 . S
C1262 C1261 1.373 . S
C1263 C1247 1.377 . S
C1263 C1261 1.389 . S
C1263 C1264 1.524 . S
C1264 C1263 1.524 . S
C1264 C1265 1.397 . S
C1264 C1269 1.363 . S
C1265 H1236 0.950 . S
C1265 C1264 1.397 . S
C1265 C1266 1.334 . S
C1266 H1237 0.950 . S
C1266 C1265 1.334 . S
C1266 C1267 1.287 . S
C1267 C1266 1.287 . S
C1267 C1268 1.524 . S
C1267 H1270 0.999 . S
C1268 H1238 0.950 . S
C1268 C1267 1.524 . S
C1268 C1269 1.415 . S
C1269 H1239 0.950 . S
C1269 C1264 1.363 . S
C1269 C1268 1.415 . S
H1270 C1267 0.999 . S
H1271 C1252 0.913 . S
H1272 C1290 0.951 . S
H1273 C1292 0.951 . S
H1274 C1294 0.950 . S
H1275 C1295 0.950 . S
H1276 C1297 0.950 . S
H1277 C1300 0.950 . S
H1278 C1301 0.950 . S
H1279 C1303 0.950 . S
H1280 C1304 0.950 . S
H1281 C1305 0.951 . S
H1282 C1307 0.951 . S
H1283 C1309 0.950 . S
H1284 C1310 0.950 . S
H1285 C1312 0.958 . S
H1286 C1315 0.950 . S
H1287 C1316 0.950 . S
H1288 C1318 0.950 . S
H1289 C1319 0.950 . S
C1290 H1272 0.951 . S
C1290 C1291 1.366 1_554 S
C1290 C1292 1.388 1_545 S
C1291 C1290 1.366 1_556 S
C1291 C1295 1.385 . S
C1292 H1273 0.951 . S
C1292 C1290 1.388 1_565 S
C1292 C1293 1.366 1_554 S
C1293 C1292 1.366 1_556 S
C1293 C1294 1.414 . S
C1293 C1296 1.499 . S
C1294 H1274 0.950 . S
C1294 C1293 1.414 . S
C1294 C1295 1.374 1_565 S
C1295 H1275 0.950 . S
C1295 C1291 1.385 . S
C1295 C1294 1.374 1_545 S
C1296 C1293 1.499 . S
C1296 C1297 1.373 . S
C1296 C1298 1.389 1_556 S
C1297 H1276 0.950 . S
C1297 C1296 1.373 . S
C1297 C1313 1.377 . S
C1298 C1296 1.389 1_554 S
C1298 C1299 1.524 . S
C1298 C1312 1.379 . S
C1299 C1298 1.524 . S
C1299 C1300 1.397 . S
C1299 C1304 1.363 . S
C1300 H1277 0.950 . S
C1300 C1299 1.397 . S
C1300 C1301 1.334 . S
C1301 H1278 0.950 . S
C1301 C1300 1.334 . S
C1301 C1302 1.287 . S
C1302 C1301 1.287 . S
C1302 C1303 1.524 . S
C1302 H1321 0.913 . S
C1303 H1279 0.950 . S
C1303 C1302 1.524 . S
C1303 C1304 1.415 . S
C1304 H1280 0.950 . S
C1304 C1299 1.363 . S
C1304 C1303 1.415 . S
C1305 H1281 0.951 . S
C1305 C1306 1.366 . S
C1305 C1307 1.388 . S
C1306 C1305 1.366 . S
C1306 C1310 1.385 . S
C1307 H1282 0.951 . S
C1307 C1305 1.388 . S
C1307 C1308 1.366 . S
C1308 C1307 1.366 . S
C1308 C1309 1.414 . S
C1308 C1311 1.499 . S
C1309 H1283 0.950 . S
C1309 C1308 1.414 . S
C1309 C1310 1.374 . S
C1310 H1284 0.950 . S
C1310 C1306 1.385 . S
C1310 C1309 1.374 . S
C1311 C1308 1.499 . S
C1311 C1312 1.364 1_556 S
C1311 C1313 1.389 . S
C1312 H1285 0.958 . S
C1312 C1298 1.379 . S
C1312 C1311 1.364 1_554 S
C1313 C1297 1.377 . S
C1313 C1311 1.389 . S
C1313 C1314 1.524 . S
C1314 C1313 1.524 . S
C1314 C1315 1.397 . S
C1314 C1319 1.363 . S
C1315 H1286 0.950 . S
C1315 C1314 1.397 . S
C1315 C1316 1.334 . S
C1316 H1287 0.950 . S
C1316 C1315 1.334 . S
C1316 C1317 1.287 . S
C1317 C1316 1.287 . S
C1317 C1318 1.524 . S
C1317 H1320 0.999 . S
C1318 H1288 0.950 . S
C1318 C1317 1.524 . S
C1318 C1319 1.415 . S
C1319 H1289 0.950 . S
C1319 C1314 1.363 . S
C1319 C1318 1.415 . S
H1320 C1317 0.999 . S
H1321 C1302 0.913 . S
H1322 C1340 0.951 . S
H1323 C1342 0.951 . S
H1324 C1344 0.950 . S
H1325 C1345 0.950 1_655 S
H1326 C1347 0.950 . S
H1327 C1350 0.950 . S
H1328 C1351 0.950 . S
H1329 C1353 0.950 . S
H1330 C1354 0.950 . S
H1331 C1355 0.951 . S
H1332 C1357 0.951 . S
H1333 C1359 0.950 . S
H1334 C1360 0.950 . S
H1335 C1362 0.950 . S
H1336 C1365 0.950 . S
H1337 C1366 0.950 . S
H1338 C1368 0.950 . S
H1339 C1369 0.950 . S
C1340 H1322 0.951 . S
C1340 C1341 1.366 . S
C1340 C1342 1.388 . S
C1341 C1340 1.366 . S
C1341 C1345 1.390 1_554 S
C1342 H1323 0.951 . S
C1342 C1340 1.388 . S
C1342 C1343 1.366 1_455 S
C1343 C1342 1.366 1_655 S
C1343 C1344 1.414 1_554 S
C1343 C1346 1.499 . S
C1344 H1324 0.950 . S
C1344 C1343 1.414 1_556 S
C1344 C1345 1.368 1_655 S
C1345 H1325 0.950 1_455 S
C1345 C1341 1.390 1_556 S
C1345 C1344 1.368 1_455 S
C1346 C1343 1.499 . S
C1346 C1347 1.373 1_554 S
C1346 C1348 1.389 . S
C1347 H1326 0.950 . S
C1347 C1346 1.373 1_556 S
C1347 C1363 1.377 . S
C1348 C1346 1.389 . S
C1348 C1349 1.524 . S
C1348 C1362 1.377 . S
C1349 C1348 1.524 . S
C1349 C1350 1.397 . S
C1349 C1354 1.363 . S
C1350 H1327 0.950 . S
C1350 C1349 1.397 . S
C1350 C1351 1.334 . S
C1351 H1328 0.950 . S
C1351 C1350 1.334 . S
C1351 C1352 1.287 . S
C1352 C1351 1.287 . S
C1352 C1353 1.524 . S
C1352 H1371 0.913 . S
C1353 H1329 0.950 . S
C1353 C1352 1.524 . S
C1353 C1354 1.415 . S
C1354 H1330 0.950 . S
C1354 C1349 1.363 . S
C1354 C1353 1.415 . S
C1355 H1331 0.951 . S
C1355 C1356 1.366 . S
C1355 C1357 1.388 . S
C1356 C1355 1.366 . S
C1356 C1360 1.385 . S
C1357 H1332 0.951 . S
C1357 C1355 1.388 . S
C1357 C1358 1.366 . S
C1358 C1357 1.366 . S
C1358 C1359 1.414 . S
C1358 C1361 1.499 . S
C1359 H1333 0.950 . S
C1359 C1358 1.414 . S
C1359 C1360 1.374 . S
C1360 H1334 0.950 . S
C1360 C1356 1.385 . S
C1360 C1359 1.374 . S
C1361 C1358 1.499 . S
C1361 C1362 1.373 . S
C1361 C1363 1.389 1_554 S
C1362 H1335 0.950 . S
C1362 C1348 1.377 . S
C1362 C1361 1.373 . S
C1363 C1347 1.377 . S
C1363 C1361 1.389 1_556 S
C1363 C1364 1.524 . S
C1364 C1363 1.524 . S
C1364 C1365 1.397 . S
C1364 C1369 1.363 . S
C1365 H1336 0.950 . S
C1365 C1364 1.397 . S
C1365 C1366 1.334 . S
C1366 H1337 0.950 . S
C1366 C1365 1.334 . S
C1366 C1367 1.287 . S
C1367 C1366 1.287 . S
C1367 C1368 1.524 . S
C1367 H1370 0.999 . S
C1368 H1338 0.950 . S
C1368 C1367 1.524 . S
C1368 C1369 1.415 . S
C1369 H1339 0.950 . S
C1369 C1364 1.363 . S
C1369 C1368 1.415 . S
H1370 C1367 0.999 . S
H1371 C1352 0.913 . S
H1372 C1390 0.951 . S
H1373 C1392 0.951 . S
H1374 C1394 0.950 . S
H1375 C1395 0.950 . S
H1376 C1397 0.950 . S
H1377 C1400 0.950 1_554 S
H1378 C1401 0.950 1_554 S
H1379 C1403 0.950 . S
H1380 C1404 0.950 . S
H1381 C1405 0.951 . S
H1382 C1407 0.951 1_554 S
H1383 C1409 0.950 . S
H1384 C1410 0.950 . S
H1385 C1412 0.950 . S
H1386 C1415 0.950 . S
H1387 C1416 0.950 . S
H1388 C1418 0.950 . S
H1389 C1419 0.950 . S
C1390 H1372 0.951 . S
C1390 C1391 1.366 . S
C1390 C1392 1.388 1_565 S
C1391 C1390 1.366 . S
C1391 C1395 1.385 1_556 S
C1392 H1373 0.951 . S
C1392 C1390 1.388 1_545 S
C1392 C1393 1.366 . S
C1393 C1392 1.366 . S
C1393 C1394 1.414 1_556 S
C1393 C1396 1.499 . S
C1394 H1374 0.950 . S
C1394 C1393 1.414 1_554 S
C1394 C1395 1.374 1_545 S
C1395 H1375 0.950 . S
C1395 C1391 1.385 1_554 S
C1395 C1394 1.374 1_565 S
C1396 C1393 1.499 . S
C1396 C1397 1.373 . S
C1396 C1398 1.389 . S
C1397 H1376 0.950 . S
C1397 C1396 1.373 . S
C1397 C1413 1.377 . S
C1398 C1396 1.389 . S
C1398 C1399 1.524 . S
C1398 C1412 1.377 . S
C1399 C1398 1.524 . S
C1399 C1400 1.397 . S
C1399 C1404 1.363 . S
C1400 H1377 0.950 1_556 S
C1400 C1399 1.397 . S
C1400 C1401 1.334 1_545 S
C1401 H1378 0.950 1_556 S
C1401 C1400 1.334 1_565 S
C1401 C1402 1.287 . S
C1402 C1401 1.287 . S
C1402 C1403 1.524 . S
C1402 H1421 0.913 . S
C1403 H1379 0.950 . S
C1403 C1402 1.524 . S
C1403 C1404 1.415 1_565 S
C1404 H1380 0.950 . S
C1404 C1399 1.363 . S
C1404 C1403 1.415 1_545 S
C1405 H1381 0.951 . S
C1405 C1406 1.366 . S
C1405 C1407 1.388 . S
C1406 C1405 1.366 . S
C1406 C1410 1.385 . S
C1407 H1382 0.951 1_556 S
C1407 C1405 1.388 . S
C1407 C1408 1.366 . S
C1408 C1407 1.366 . S
C1408 C1409 1.414 . S
C1408 C1411 1.499 . S
C1409 H1383 0.950 . S
C1409 C1408 1.414 . S
C1409 C1410 1.374 . S
C1410 H1384 0.950 . S
C1410 C1406 1.385 . S
C1410 C1409 1.374 . S
C1411 C1408 1.499 . S
C1411 C1412 1.373 . S
C1411 C1413 1.389 . S
C1412 H1385 0.950 . S
C1412 C1398 1.377 . S
C1412 C1411 1.373 . S
C1413 C1397 1.377 . S
C1413 C1411 1.389 . S
C1413 C1414 1.524 . S
C1414 C1413 1.524 . S
C1414 C1415 1.397 . S
C1414 C1419 1.363 1_556 S
C1415 H1386 0.950 . S
C1415 C1414 1.397 . S
C1415 C1416 1.334 . S
C1416 H1387 0.950 . S
C1416 C1415 1.334 . S
C1416 C1417 1.287 . S
C1417 C1416 1.287 . S
C1417 C1418 1.524 1_556 S
C1417 H1420 0.999 . S
C1418 H1388 0.950 . S
C1418 C1417 1.524 1_554 S
C1418 C1419 1.415 . S
C1419 H1389 0.950 . S
C1419 C1414 1.363 1_554 S
C1419 C1418 1.415 . S
H1420 C1417 0.999 . S
H1421 C1402 0.913 . S
H1422 C1440 0.951 . S
H1423 C1442 0.951 . S
H1424 C1444 0.950 1_455 S
H1425 C1445 0.950 . S
H1426 C1447 0.950 . S
H1427 C1450 0.950 . S
H1428 C1451 0.950 . S
H1429 C1453 0.950 . S
H1430 C1454 0.950 1_554 S
H1431 C1455 0.951 . S
H1432 C1457 0.951 . S
H1433 C1459 0.950 . S
H1434 C1460 0.950 . S
H1435 C1462 0.950 . S
H1436 C1465 0.950 . S
H1437 C1466 0.950 . S
H1438 C1468 0.950 . S
H1439 C1469 0.950 . S
C1440 H1422 0.951 . S
C1440 C1441 1.366 . S
C1440 C1442 1.388 1_655 S
C1441 C1440 1.366 . S
C1441 C1445 1.385 1_554 S
C1442 H1423 0.951 . S
C1442 C1440 1.388 1_455 S
C1442 C1443 1.366 . S
C1443 C1442 1.366 . S
C1443 C1444 1.405 1_454 S
C1443 C1446 1.499 . S
C1444 H1424 0.950 1_655 S
C1444 C1443 1.405 1_656 S
C1444 C1445 1.383 . S
C1445 H1425 0.950 . S
C1445 C1441 1.385 1_556 S
C1445 C1444 1.383 . S
C1446 C1443 1.499 . S
C1446 C1447 1.373 . S
C1446 C1448 1.389 . S
C1447 H1426 0.950 . S
C1447 C1446 1.373 . S
C1447 C1463 1.377 . S
C1448 C1446 1.389 . S
C1448 C1449 1.524 1_554 S
C1448 C1462 1.377 . S
C1449 C1448 1.524 1_556 S
C1449 C1450 1.397 . S
C1449 C1454 1.363 . S
C1450 H1427 0.950 . S
C1450 C1449 1.397 . S
C1450 C1451 1.334 . S
C1451 H1428 0.950 . S
C1451 C1450 1.334 . S
C1451 C1452 1.287 . S
C1452 C1451 1.287 . S
C1452 C1453 1.524 . S
C1452 H1471 0.913 . S
C1453 H1429 0.950 . S
C1453 C1452 1.524 . S
C1453 C1454 1.415 . S
C1454 H1430 0.950 1_556 S
C1454 C1449 1.363 . S
C1454 C1453 1.415 . S
C1455 H1431 0.951 . S
C1455 C1456 1.366 . S
C1455 C1457 1.388 . S
C1456 C1455 1.366 . S
C1456 C1460 1.385 . S
C1457 H1432 0.951 . S
C1457 C1455 1.388 . S
C1457 C1458 1.366 . S
C1458 C1457 1.366 . S
C1458 C1459 1.414 . S
C1458 C1461 1.499 . S
C1459 H1433 0.950 . S
C1459 C1458 1.414 . S
C1459 C1460 1.374 . S
C1460 H1434 0.950 . S
C1460 C1456 1.385 . S
C1460 C1459 1.374 . S
C1461 C1458 1.499 . S
C1461 C1462 1.373 . S
C1461 C1463 1.389 . S
C1462 H1435 0.950 . S
C1462 C1448 1.377 . S
C1462 C1461 1.373 . S
C1463 C1447 1.377 . S
C1463 C1461 1.389 . S
C1463 C1464 1.524 . S
C1464 C1463 1.524 . S
C1464 C1465 1.397 . S
C1464 C1469 1.363 . S
C1465 H1436 0.950 . S
C1465 C1464 1.397 . S
C1465 C1466 1.334 . S
C1466 H1437 0.950 . S
C1466 C1465 1.334 . S
C1466 C1467 1.287 . S
C1467 C1466 1.287 . S
C1467 C1468 1.524 . S
C1467 H1470 0.999 . S
C1468 H1438 0.950 . S
C1468 C1467 1.524 . S
C1468 C1469 1.415 . S
C1469 H1439 0.950 . S
C1469 C1464 1.363 . S
C1469 C1468 1.415 . S
H1470 C1467 0.999 . S
H1471 C1452 0.913 . S
H1472 C1490 0.951 . S
H1473 C1492 0.951 . S
H1474 C1494 0.950 . S
H1475 C1495 0.950 . S
H1476 C1497 0.950 . S
H1477 C1500 0.950 . S
H1478 C1501 0.950 . S
H1479 C1503 0.950 . S
H1480 C1504 0.950 . S
H1481 C1505 0.951 . S
H1482 C1507 0.951 . S
H1483 C1509 0.950 . S
H1484 C1510 0.950 . S
H1485 C1512 0.950 . S
H1486 C1515 0.950 . S
H1487 C1516 0.950 . S
H1488 C1518 0.950 . S
H1489 C1519 0.950 . S
C1490 H1472 0.951 . S
C1490 C1491 1.366 . S
C1490 C1492 1.388 . S
C1491 C1490 1.366 . S
C1491 C1495 1.385 . S
C1492 H1473 0.951 . S
C1492 C1490 1.388 . S
C1492 C1493 1.366 . S
C1493 C1492 1.366 . S
C1493 C1494 1.414 . S
C1493 C1496 1.499 . S
C1494 H1474 0.950 . S
C1494 C1493 1.414 . S
C1494 C1495 1.374 . S
C1495 H1475 0.950 . S
C1495 C1491 1.385 . S
C1495 C1494 1.374 . S
C1496 C1493 1.499 . S
C1496 C1497 1.373 . S
C1496 C1498 1.389 . S
C1497 H1476 0.950 . S
C1497 C1496 1.373 . S
C1497 C1513 1.377 . S
C1498 C1496 1.389 . S
C1498 C1499 1.524 . S
C1498 C1512 1.377 . S
C1499 C1498 1.524 . S
C1499 C1500 1.397 . S
C1499 C1504 1.363 . S
C1500 H1477 0.950 . S
C1500 C1499 1.397 . S
C1500 C1501 1.334 . S
C1501 H1478 0.950 . S
C1501 C1500 1.334 . S
C1501 C1502 1.287 . S
C1502 C1501 1.287 . S
C1502 C1503 1.524 . S
C1502 H1521 0.913 . S
C1503 H1479 0.950 . S
C1503 C1502 1.524 . S
C1503 C1504 1.415 . S
C1504 H1480 0.950 . S
C1504 C1499 1.363 . S
C1504 C1503 1.415 . S
C1505 H1481 0.951 . S
C1505 C1506 1.366 . S
C1505 C1507 1.388 . S
C1506 C1505 1.366 . S
C1506 C1510 1.385 . S
C1507 H1482 0.951 . S
C1507 C1505 1.388 . S
C1507 C1508 1.366 . S
C1508 C1507 1.366 . S
C1508 C1509 1.414 . S
C1508 C1511 1.499 . S
C1509 H1483 0.950 . S
C1509 C1508 1.414 . S
C1509 C1510 1.374 . S
C1510 H1484 0.950 . S
C1510 C1506 1.385 . S
C1510 C1509 1.374 . S
C1511 C1508 1.499 . S
C1511 C1512 1.373 . S
C1511 C1513 1.389 . S
C1512 H1485 0.950 . S
C1512 C1498 1.377 . S
C1512 C1511 1.373 . S
C1513 C1497 1.377 . S
C1513 C1511 1.389 . S
C1513 C1514 1.524 . S
C1514 C1513 1.524 . S
C1514 C1515 1.397 . S
C1514 C1519 1.363 . S
C1515 H1486 0.950 . S
C1515 C1514 1.397 . S
C1515 C1516 1.334 . S
C1516 H1487 0.950 . S
C1516 C1515 1.334 . S
C1516 C1517 1.287 . S
C1517 C1516 1.287 . S
C1517 C1518 1.524 . S
C1517 H1520 0.999 . S
C1518 H1488 0.950 . S
C1518 C1517 1.524 . S
C1518 C1519 1.415 . S
C1519 H1489 0.950 . S
C1519 C1514 1.363 . S
C1519 C1518 1.415 . S
H1520 C1517 0.999 . S
H1521 C1502 0.913 . S
H1522 C1540 0.951 . S
H1523 C1542 0.951 . S
H1524 C1544 0.950 . S
H1525 C1545 0.950 . S
H1526 C1547 0.950 . S
H1527 C1550 0.950 . S
H1528 C1551 0.950 . S
H1529 C1553 0.950 . S
H1530 C1554 0.950 . S
H1531 C1555 0.951 . S
H1532 C1557 0.951 . S
H1533 C1559 0.950 . S
H1534 C1560 0.950 . S
H1535 C1562 0.950 . S
H1536 C1565 0.950 . S
H1537 C1566 0.950 . S
H1538 C1568 0.950 . S
H1539 C1569 0.950 . S
C1540 H1522 0.951 . S
C1540 C1541 1.366 . S
C1540 C1542 1.388 . S
C1541 C1540 1.366 . S
C1541 C1545 1.385 . S
C1542 H1523 0.951 . S
C1542 C1540 1.388 . S
C1542 C1543 1.366 . S
C1543 C1542 1.366 . S
C1543 C1544 1.414 . S
C1543 C1546 1.499 . S
C1544 H1524 0.950 . S
C1544 C1543 1.414 . S
C1544 C1545 1.374 . S
C1545 H1525 0.950 . S
C1545 C1541 1.385 . S
C1545 C1544 1.374 . S
C1546 C1543 1.499 . S
C1546 C1547 1.373 . S
C1546 C1548 1.389 . S
C1547 H1526 0.950 . S
C1547 C1546 1.373 . S
C1547 C1563 1.377 . S
C1548 C1546 1.389 . S
C1548 C1549 1.524 . S
C1548 C1562 1.377 . S
C1549 C1548 1.524 . S
C1549 C1550 1.397 . S
C1549 C1554 1.363 . S
C1550 H1527 0.950 . S
C1550 C1549 1.397 . S
C1550 C1551 1.334 . S
C1551 H1528 0.950 . S
C1551 C1550 1.334 . S
C1551 C1552 1.287 . S
C1552 C1551 1.287 . S
C1552 C1553 1.524 . S
C1552 H1571 0.913 . S
C1553 H1529 0.950 . S
C1553 C1552 1.524 . S
C1553 C1554 1.415 . S
C1554 H1530 0.950 . S
C1554 C1549 1.363 . S
C1554 C1553 1.415 . S
C1555 H1531 0.951 . S
C1555 C1556 1.366 . S
C1555 C1557 1.388 . S
C1556 C1555 1.366 . S
C1556 C1560 1.385 . S
C1557 H1532 0.951 . S
C1557 C1555 1.388 . S
C1557 C1558 1.366 . S
C1558 C1557 1.366 . S
C1558 C1559 1.414 . S
C1558 C1561 1.499 . S
C1559 H1533 0.950 . S
C1559 C1558 1.414 . S
C1559 C1560 1.374 . S
C1560 H1534 0.950 . S
C1560 C1556 1.385 . S
C1560 C1559 1.374 . S
C1561 C1558 1.499 . S
C1561 C1562 1.373 . S
C1561 C1563 1.389 . S
C1562 H1535 0.950 . S
C1562 C1548 1.377 . S
C1562 C1561 1.373 . S
C1563 C1547 1.377 . S
C1563 C1561 1.389 . S
C1563 C1564 1.524 . S
C1564 C1563 1.524 . S
C1564 C1565 1.397 . S
C1564 C1569 1.363 . S
C1565 H1536 0.950 . S
C1565 C1564 1.397 . S
C1565 C1566 1.334 . S
C1566 H1537 0.950 . S
C1566 C1565 1.334 . S
C1566 C1567 1.287 . S
C1567 C1566 1.287 . S
C1567 C1568 1.524 . S
C1567 H1570 0.999 . S
C1568 H1538 0.950 . S
C1568 C1567 1.524 . S
C1568 C1569 1.415 . S
C1569 H1539 0.950 . S
C1569 C1564 1.363 . S
C1569 C1568 1.415 . S
H1570 C1567 0.999 . S
H1571 C1552 0.913 . S
H1572 C1590 0.951 . S
H1573 C1592 0.951 . S
H1574 C1594 0.950 . S
H1575 C1595 0.950 . S
H1576 C1597 0.950 . S
H1577 C1600 0.950 . S
H1578 C1601 0.950 . S
H1579 C1603 0.950 . S
H1580 C1604 0.950 . S
H1581 C1605 0.951 . S
H1582 C1607 0.951 . S
H1583 C1609 0.950 . S
H1584 C1610 0.950 . S
H1585 C1612 0.950 . S
H1586 C1615 0.950 . S
H1587 C1616 0.950 . S
H1588 C1618 0.950 . S
H1589 C1619 0.950 . S
C1590 H1572 0.951 . S
C1590 C1591 1.366 . S
C1590 C1592 1.388 . S
C1591 C1590 1.366 . S
C1591 C1595 1.385 . S
C1592 H1573 0.951 . S
C1592 C1590 1.388 . S
C1592 C1593 1.366 . S
C1593 C1592 1.366 . S
C1593 C1594 1.414 . S
C1593 C1596 1.499 . S
C1594 H1574 0.950 . S
C1594 C1593 1.414 . S
C1594 C1595 1.374 . S
C1595 H1575 0.950 . S
C1595 C1591 1.385 . S
C1595 C1594 1.374 . S
C1596 C1593 1.499 . S
C1596 C1597 1.373 . S
C1596 C1598 1.389 . S
C1597 H1576 0.950 . S
C1597 C1596 1.373 . S
C1597 C1613 1.377 . S
C1598 C1596 1.389 . S
C1598 C1599 1.524 . S
C1598 C1612 1.377 . S
C1599 C1598 1.524 . S
C1599 C1600 1.397 . S
C1599 C1604 1.363 . S
C1600 H1577 0.950 . S
C1600 C1599 1.397 . S
C1600 C1601 1.334 . S
C1601 H1578 0.950 . S
C1601 C1600 1.334 . S
C1601 C1602 1.287 . S
C1602 C1601 1.287 . S
C1602 C1603 1.524 . S
C1602 H1621 0.913 . S
C1603 H1579 0.950 . S
C1603 C1602 1.524 . S
C1603 C1604 1.415 . S
C1604 H1580 0.950 . S
C1604 C1599 1.363 . S
C1604 C1603 1.415 . S
C1605 H1581 0.951 . S
C1605 C1606 1.366 . S
C1605 C1607 1.388 . S
C1606 C1605 1.366 . S
C1606 C1610 1.385 . S
C1607 H1582 0.951 . S
C1607 C1605 1.388 . S
C1607 C1608 1.366 . S
C1608 C1607 1.366 . S
C1608 C1609 1.414 . S
C1608 C1611 1.499 . S
C1609 H1583 0.950 . S
C1609 C1608 1.414 . S
C1609 C1610 1.374 . S
C1610 H1584 0.950 . S
C1610 C1606 1.385 . S
C1610 C1609 1.374 . S
C1611 C1608 1.499 . S
C1611 C1612 1.373 . S
C1611 C1613 1.389 . S
C1612 H1585 0.950 . S
C1612 C1598 1.377 . S
C1612 C1611 1.373 . S
C1613 C1597 1.377 . S
C1613 C1611 1.389 . S
C1613 C1614 1.524 . S
C1614 C1613 1.524 . S
C1614 C1615 1.397 . S
C1614 C1619 1.363 . S
C1615 H1586 0.950 . S
C1615 C1614 1.397 . S
C1615 C1616 1.334 . S
C1616 H1587 0.950 . S
C1616 C1615 1.334 . S
C1616 C1617 1.287 . S
C1617 C1616 1.287 . S
C1617 C1618 1.524 . S
C1617 H1620 0.999 . S
C1618 H1588 0.950 . S
C1618 C1617 1.524 . S
C1618 C1619 1.415 . S
C1619 H1589 0.950 . S
C1619 C1614 1.363 . S
C1619 C1618 1.415 . S
H1620 C1617 0.999 . S
H1621 C1602 0.913 . S
H1622 C1640 0.951 . S
H1623 C1642 0.951 . S
H1624 C1644 0.950 . S
H1625 C1645 0.950 . S
H1626 C1647 0.950 . S
H1627 C1650 0.950 . S
H1628 C1651 0.950 . S
H1629 C1653 0.950 . S
H1630 C1654 0.950 . S
H1631 C1655 0.951 . S
H1632 C1657 0.951 . S
H1633 C1659 0.950 . S
H1634 C1660 0.950 . S
H1635 C1662 0.950 . S
H1636 C1665 0.950 . S
H1637 C1666 0.950 . S
H1638 C1668 0.950 . S
H1639 C1669 0.950 . S
C1640 H1622 0.951 . S
C1640 C1641 1.366 . S
C1640 C1642 1.388 . S
C1641 C1640 1.366 . S
C1641 C1645 1.385 . S
C1642 H1623 0.951 . S
C1642 C1640 1.388 . S
C1642 C1643 1.366 . S
C1643 C1642 1.366 . S
C1643 C1644 1.414 . S
C1643 C1646 1.499 . S
C1644 H1624 0.950 . S
C1644 C1643 1.414 . S
C1644 C1645 1.374 . S
C1645 H1625 0.950 . S
C1645 C1641 1.385 . S
C1645 C1644 1.374 . S
C1646 C1643 1.499 . S
C1646 C1647 1.373 . S
C1646 C1648 1.389 . S
C1647 H1626 0.950 . S
C1647 C1646 1.373 . S
C1647 C1663 1.377 . S
C1648 C1646 1.389 . S
C1648 C1649 1.524 . S
C1648 C1662 1.377 . S
C1649 C1648 1.524 . S
C1649 C1650 1.397 . S
C1649 C1654 1.363 . S
C1650 H1627 0.950 . S
C1650 C1649 1.397 . S
C1650 C1651 1.334 . S
C1651 H1628 0.950 . S
C1651 C1650 1.334 . S
C1651 C1652 1.287 . S
C1652 C1651 1.287 . S
C1652 C1653 1.524 . S
C1652 H1671 0.913 . S
C1653 H1629 0.950 . S
C1653 C1652 1.524 . S
C1653 C1654 1.415 . S
C1654 H1630 0.950 . S
C1654 C1649 1.363 . S
C1654 C1653 1.415 . S
C1655 H1631 0.951 . S
C1655 C1656 1.366 . S
C1655 C1657 1.388 . S
C1656 C1655 1.366 . S
C1656 C1660 1.385 . S
C1657 H1632 0.951 . S
C1657 C1655 1.388 . S
C1657 C1658 1.366 . S
C1658 C1657 1.366 . S
C1658 C1659 1.414 . S
C1658 C1661 1.499 . S
C1659 H1633 0.950 . S
C1659 C1658 1.414 . S
C1659 C1660 1.374 . S
C1660 H1634 0.950 . S
C1660 C1656 1.385 . S
C1660 C1659 1.374 . S
C1661 C1658 1.499 . S
C1661 C1662 1.373 . S
C1661 C1663 1.389 . S
C1662 H1635 0.950 . S
C1662 C1648 1.377 . S
C1662 C1661 1.373 . S
C1663 C1647 1.377 . S
C1663 C1661 1.389 . S
C1663 C1664 1.524 . S
C1664 C1663 1.524 . S
C1664 C1665 1.397 . S
C1664 C1669 1.363 . S
C1665 H1636 0.950 . S
C1665 C1664 1.397 . S
C1665 C1666 1.334 . S
C1666 H1637 0.950 . S
C1666 C1665 1.334 . S
C1666 C1667 1.287 . S
C1667 C1666 1.287 . S
C1667 C1668 1.524 . S
C1667 H1670 0.999 . S
C1668 H1638 0.950 . S
C1668 C1667 1.524 . S
C1668 C1669 1.415 . S
C1669 H1639 0.950 . S
C1669 C1664 1.363 . S
C1669 C1668 1.415 . S
H1670 C1667 0.999 . S
H1671 C1652 0.913 . S
C291 C15 0.386 1_565 S
C306 C239 0.550 . S
C341 C56 0.388 1_655 S
C356 C139 0.548 . S
C391 C171 0.548 . S
C406 C83 0.388 1_545 S
C441 C117 0.388 1_455 S
C456 C207 0.549 . S
C491 C151 0.398 . S
C506 C105 0.551 . S
C541 C192 0.398 . S
C556 C3 0.552 . S
C591 C219 0.399 . S
C606 C35 0.549 . S
C641 C260 0.399 . S
C656 C71 0.550 . S
C691 C28 1.599 . S
C706 C96 1.598 . S
C741 C130 1.599 . S
C756 C40 1.599 . S
C791 C164 1.598 . S
C806 C232 1.599 . S
C841 C176 1.599 . S
C856 C244 1.599 . S
C891 C205 1.593 . S
C906 C22 1.742 . S
C941 C49 1.742 . S
C956 C241 1.592 . S
C991 C137 1.593 . S
C1006 C90 1.743 . S
C1041 C124 1.742 . S
C1056 C173 1.592 . S
C1091 C158 1.743 . S
C1106 C69 1.593 . S
C1141 C103 1.591 . S
C1156 C185 1.742 . S
C1191 C226 1.742 . S
C1206 C1 1.592 . S
C1241 C37 1.593 . S
C1256 C253 1.742 . S
C1291 C17 1.890 1_556 S
C1306 C62 1.911 . S
C1341 C51 1.889 1_554 S
C1356 C74 1.912 . S
C1391 C85 1.889 1_556 S
C1406 C108 1.912 . S
C1441 C119 1.890 1_554 S
C1456 C6 1.911 . S
C1491 C198 1.911 . S
C1506 C153 1.889 . S
C1541 C210 1.912 . S
C1556 C187 1.890 . S
C1591 C221 1.890 . S
C1606 C266 1.911 . S
C1641 C142 1.912 . S
C1656 C255 1.889 . S
