# Generated by pormake.
# Topology wne, (6)-cn, num edge types: 1
# Building blocks:
#     Node 0, Type 0, BuildingBlock: INOVEN_clean_sbu_0, # of connection points: 6
#     Node 1, Type 0, BuildingBlock: INOVEN_clean_sbu_0, # of connection points: 6
#     Node 2, Type 0, BuildingBlock: INOVEN_clean_sbu_0, # of connection points: 6
#     Node 3, Type 0, BuildingBlock: INOVEN_clean_sbu_0, # of connection points: 6
#     Node 4, Type 0, BuildingBlock: INOVEN_clean_sbu_0, # of connection points: 6
#     Node 5, Type 0, BuildingBlock: INOVEN_clean_sbu_0, # of connection points: 6
#     Node 6, Type 0, BuildingBlock: INOVEN_clean_sbu_0, # of connection points: 6
#     Node 7, Type 0, BuildingBlock: INOVEN_clean_sbu_0, # of connection points: 6
#     Node 8, Type 0, BuildingBlock: INOVEN_clean_sbu_0, # of connection points: 6
#     Node 9, Type 0, BuildingBlock: INOVEN_clean_sbu_0, # of connection points: 6
#     Node 10, Type 0, BuildingBlock: INOVEN_clean_sbu_0, # of connection points: 6
#     Node 11, Type 0, BuildingBlock: INOVEN_clean_sbu_0, # of connection points: 6
#     Node 12, Type 0, BuildingBlock: INOVEN_clean_sbu_0, # of connection points: 6
#     Node 13, Type 0, BuildingBlock: INOVEN_clean_sbu_0, # of connection points: 6
#     Node 14, Type 0, BuildingBlock: INOVEN_clean_sbu_0, # of connection points: 6
#     Node 15, Type 0, BuildingBlock: INOVEN_clean_sbu_0, # of connection points: 6
#     Node 16, Type 0, BuildingBlock: INOVEN_clean_sbu_0, # of connection points: 6
#     Node 17, Type 0, BuildingBlock: INOVEN_clean_sbu_0, # of connection points: 6
#     Node 18, Type 0, BuildingBlock: INOVEN_clean_sbu_0, # of connection points: 6
#     Node 19, Type 0, BuildingBlock: INOVEN_clean_sbu_0, # of connection points: 6
#     Node 20, Type 0, BuildingBlock: INOVEN_clean_sbu_0, # of connection points: 6
#     Node 21, Type 0, BuildingBlock: INOVEN_clean_sbu_0, # of connection points: 6
#     Node 22, Type 0, BuildingBlock: INOVEN_clean_sbu_0, # of connection points: 6
#     Node 23, Type 0, BuildingBlock: INOVEN_clean_sbu_0, # of connection points: 6
#     Node 24, Type 0, BuildingBlock: INOVEN_clean_sbu_0, # of connection points: 6
#     Node 25, Type 0, BuildingBlock: INOVEN_clean_sbu_0, # of connection points: 6
#     Node 26, Type 0, BuildingBlock: INOVEN_clean_sbu_0, # of connection points: 6
#     Node 27, Type 0, BuildingBlock: INOVEN_clean_sbu_0, # of connection points: 6
#     Node 28, Type 0, BuildingBlock: INOVEN_clean_sbu_0, # of connection points: 6
#     Node 29, Type 0, BuildingBlock: INOVEN_clean_sbu_0, # of connection points: 6
#     Node 30, Type 0, BuildingBlock: INOVEN_clean_sbu_0, # of connection points: 6
#     Node 31, Type 0, BuildingBlock: INOVEN_clean_sbu_0, # of connection points: 6
#     Node 32, Type 0, BuildingBlock: INOVEN_clean_sbu_0, # of connection points: 6
#     Node 33, Type 0, BuildingBlock: INOVEN_clean_sbu_0, # of connection points: 6
#     Node 34, Type 0, BuildingBlock: INOVEN_clean_sbu_0, # of connection points: 6
#     Node 35, Type 0, BuildingBlock: INOVEN_clean_sbu_0, # of connection points: 6
#     Edge 36, Type (0, 0), BuildingBlock: AJUNOK_clean_linker_0, # of connection points: 2
#     Edge 37, Type (0, 0), BuildingBlock: AJUNOK_clean_linker_0, # of connection points: 2
#     Edge 38, Type (0, 0), BuildingBlock: AJUNOK_clean_linker_0, # of connection points: 2
#     Edge 39, Type (0, 0), BuildingBlock: AJUNOK_clean_linker_0, # of connection points: 2
#     Edge 40, Type (0, 0), BuildingBlock: AJUNOK_clean_linker_0, # of connection points: 2
#     Edge 41, Type (0, 0), BuildingBlock: AJUNOK_clean_linker_0, # of connection points: 2
#     Edge 42, Type (0, 0), BuildingBlock: AJUNOK_clean_linker_0, # of connection points: 2
#     Edge 43, Type (0, 0), BuildingBlock: AJUNOK_clean_linker_0, # of connection points: 2
#     Edge 44, Type (0, 0), BuildingBlock: AJUNOK_clean_linker_0, # of connection points: 2
#     Edge 45, Type (0, 0), BuildingBlock: AJUNOK_clean_linker_0, # of connection points: 2
#     Edge 46, Type (0, 0), BuildingBlock: AJUNOK_clean_linker_0, # of connection points: 2
#     Edge 47, Type (0, 0), BuildingBlock: AJUNOK_clean_linker_0, # of connection points: 2
#     Edge 48, Type (0, 0), BuildingBlock: AJUNOK_clean_linker_0, # of connection points: 2
#     Edge 49, Type (0, 0), BuildingBlock: AJUNOK_clean_linker_0, # of connection points: 2
#     Edge 50, Type (0, 0), BuildingBlock: AJUNOK_clean_linker_0, # of connection points: 2
#     Edge 51, Type (0, 0), BuildingBlock: AJUNOK_clean_linker_0, # of connection points: 2
#     Edge 52, Type (0, 0), BuildingBlock: AJUNOK_clean_linker_0, # of connection points: 2
#     Edge 53, Type (0, 0), BuildingBlock: AJUNOK_clean_linker_0, # of connection points: 2
#     Edge 54, Type (0, 0), BuildingBlock: AJUNOK_clean_linker_0, # of connection points: 2
#     Edge 55, Type (0, 0), BuildingBlock: AJUNOK_clean_linker_0, # of connection points: 2
#     Edge 56, Type (0, 0), BuildingBlock: AJUNOK_clean_linker_0, # of connection points: 2
#     Edge 57, Type (0, 0), BuildingBlock: AJUNOK_clean_linker_0, # of connection points: 2
#     Edge 58, Type (0, 0), BuildingBlock: AJUNOK_clean_linker_0, # of connection points: 2
#     Edge 59, Type (0, 0), BuildingBlock: AJUNOK_clean_linker_0, # of connection points: 2
#     Edge 60, Type (0, 0), BuildingBlock: AJUNOK_clean_linker_0, # of connection points: 2
#     Edge 61, Type (0, 0), BuildingBlock: AJUNOK_clean_linker_0, # of connection points: 2
#     Edge 62, Type (0, 0), BuildingBlock: AJUNOK_clean_linker_0, # of connection points: 2
#     Edge 63, Type (0, 0), BuildingBlock: AJUNOK_clean_linker_0, # of connection points: 2
#     Edge 64, Type (0, 0), BuildingBlock: AJUNOK_clean_linker_0, # of connection points: 2
#     Edge 65, Type (0, 0), BuildingBlock: AJUNOK_clean_linker_0, # of connection points: 2
#     Edge 66, Type (0, 0), BuildingBlock: AJUNOK_clean_linker_0, # of connection points: 2
#     Edge 67, Type (0, 0), BuildingBlock: AJUNOK_clean_linker_0, # of connection points: 2
#     Edge 68, Type (0, 0), BuildingBlock: AJUNOK_clean_linker_0, # of connection points: 2
#     Edge 69, Type (0, 0), BuildingBlock: AJUNOK_clean_linker_0, # of connection points: 2
#     Edge 70, Type (0, 0), BuildingBlock: AJUNOK_clean_linker_0, # of connection points: 2
#     Edge 71, Type (0, 0), BuildingBlock: AJUNOK_clean_linker_0, # of connection points: 2
#     Edge 72, Type (0, 0), BuildingBlock: AJUNOK_clean_linker_0, # of connection points: 2
#     Edge 73, Type (0, 0), BuildingBlock: AJUNOK_clean_linker_0, # of connection points: 2
#     Edge 74, Type (0, 0), BuildingBlock: AJUNOK_clean_linker_0, # of connection points: 2
#     Edge 75, Type (0, 0), BuildingBlock: AJUNOK_clean_linker_0, # of connection points: 2
#     Edge 76, Type (0, 0), BuildingBlock: AJUNOK_clean_linker_0, # of connection points: 2
#     Edge 77, Type (0, 0), BuildingBlock: AJUNOK_clean_linker_0, # of connection points: 2
#     Edge 78, Type (0, 0), BuildingBlock: AJUNOK_clean_linker_0, # of connection points: 2
#     Edge 79, Type (0, 0), BuildingBlock: AJUNOK_clean_linker_0, # of connection points: 2
#     Edge 80, Type (0, 0), BuildingBlock: AJUNOK_clean_linker_0, # of connection points: 2
#     Edge 81, Type (0, 0), BuildingBlock: AJUNOK_clean_linker_0, # of connection points: 2
#     Edge 82, Type (0, 0), BuildingBlock: AJUNOK_clean_linker_0, # of connection points: 2
#     Edge 83, Type (0, 0), BuildingBlock: AJUNOK_clean_linker_0, # of connection points: 2
#     Edge 84, Type (0, 0), BuildingBlock: AJUNOK_clean_linker_0, # of connection points: 2
#     Edge 85, Type (0, 0), BuildingBlock: AJUNOK_clean_linker_0, # of connection points: 2
#     Edge 86, Type (0, 0), BuildingBlock: AJUNOK_clean_linker_0, # of connection points: 2
#     Edge 87, Type (0, 0), BuildingBlock: AJUNOK_clean_linker_0, # of connection points: 2
#     Edge 88, Type (0, 0), BuildingBlock: AJUNOK_clean_linker_0, # of connection points: 2
#     Edge 89, Type (0, 0), BuildingBlock: AJUNOK_clean_linker_0, # of connection points: 2
#     Edge 90, Type (0, 0), BuildingBlock: AJUNOK_clean_linker_0, # of connection points: 2
#     Edge 91, Type (0, 0), BuildingBlock: AJUNOK_clean_linker_0, # of connection points: 2
#     Edge 92, Type (0, 0), BuildingBlock: AJUNOK_clean_linker_0, # of connection points: 2
#     Edge 93, Type (0, 0), BuildingBlock: AJUNOK_clean_linker_0, # of connection points: 2
#     Edge 94, Type (0, 0), BuildingBlock: AJUNOK_clean_linker_0, # of connection points: 2
#     Edge 95, Type (0, 0), BuildingBlock: AJUNOK_clean_linker_0, # of connection points: 2
#     Edge 96, Type (0, 0), BuildingBlock: AJUNOK_clean_linker_0, # of connection points: 2
#     Edge 97, Type (0, 0), BuildingBlock: AJUNOK_clean_linker_0, # of connection points: 2
#     Edge 98, Type (0, 0), BuildingBlock: AJUNOK_clean_linker_0, # of connection points: 2
#     Edge 99, Type (0, 0), BuildingBlock: AJUNOK_clean_linker_0, # of connection points: 2
#     Edge 100, Type (0, 0), BuildingBlock: AJUNOK_clean_linker_0, # of connection points: 2
#     Edge 101, Type (0, 0), BuildingBlock: AJUNOK_clean_linker_0, # of connection points: 2
#     Edge 102, Type (0, 0), BuildingBlock: AJUNOK_clean_linker_0, # of connection points: 2
#     Edge 103, Type (0, 0), BuildingBlock: AJUNOK_clean_linker_0, # of connection points: 2
#     Edge 104, Type (0, 0), BuildingBlock: AJUNOK_clean_linker_0, # of connection points: 2
#     Edge 105, Type (0, 0), BuildingBlock: AJUNOK_clean_linker_0, # of connection points: 2
#     Edge 106, Type (0, 0), BuildingBlock: AJUNOK_clean_linker_0, # of connection points: 2
#     Edge 107, Type (0, 0), BuildingBlock: AJUNOK_clean_linker_0, # of connection points: 2
#     Edge 108, Type (0, 0), BuildingBlock: AJUNOK_clean_linker_0, # of connection points: 2
#     Edge 109, Type (0, 0), BuildingBlock: AJUNOK_clean_linker_0, # of connection points: 2
#     Edge 110, Type (0, 0), BuildingBlock: AJUNOK_clean_linker_0, # of connection points: 2
#     Edge 111, Type (0, 0), BuildingBlock: AJUNOK_clean_linker_0, # of connection points: 2
#     Edge 112, Type (0, 0), BuildingBlock: AJUNOK_clean_linker_0, # of connection points: 2
#     Edge 113, Type (0, 0), BuildingBlock: AJUNOK_clean_linker_0, # of connection points: 2
#     Edge 114, Type (0, 0), BuildingBlock: AJUNOK_clean_linker_0, # of connection points: 2
#     Edge 115, Type (0, 0), BuildingBlock: AJUNOK_clean_linker_0, # of connection points: 2
#     Edge 116, Type (0, 0), BuildingBlock: AJUNOK_clean_linker_0, # of connection points: 2
#     Edge 117, Type (0, 0), BuildingBlock: AJUNOK_clean_linker_0, # of connection points: 2
#     Edge 118, Type (0, 0), BuildingBlock: AJUNOK_clean_linker_0, # of connection points: 2
#     Edge 119, Type (0, 0), BuildingBlock: AJUNOK_clean_linker_0, # of connection points: 2
#     Edge 120, Type (0, 0), BuildingBlock: AJUNOK_clean_linker_0, # of connection points: 2
#     Edge 121, Type (0, 0), BuildingBlock: AJUNOK_clean_linker_0, # of connection points: 2
#     Edge 122, Type (0, 0), BuildingBlock: AJUNOK_clean_linker_0, # of connection points: 2
#     Edge 123, Type (0, 0), BuildingBlock: AJUNOK_clean_linker_0, # of connection points: 2
#     Edge 124, Type (0, 0), BuildingBlock: AJUNOK_clean_linker_0, # of connection points: 2
#     Edge 125, Type (0, 0), BuildingBlock: AJUNOK_clean_linker_0, # of connection points: 2
#     Edge 126, Type (0, 0), BuildingBlock: AJUNOK_clean_linker_0, # of connection points: 2
#     Edge 127, Type (0, 0), BuildingBlock: AJUNOK_clean_linker_0, # of connection points: 2
#     Edge 128, Type (0, 0), BuildingBlock: AJUNOK_clean_linker_0, # of connection points: 2
#     Edge 129, Type (0, 0), BuildingBlock: AJUNOK_clean_linker_0, # of connection points: 2
#     Edge 130, Type (0, 0), BuildingBlock: AJUNOK_clean_linker_0, # of connection points: 2
#     Edge 131, Type (0, 0), BuildingBlock: AJUNOK_clean_linker_0, # of connection points: 2
#     Edge 132, Type (0, 0), BuildingBlock: AJUNOK_clean_linker_0, # of connection points: 2
#     Edge 133, Type (0, 0), BuildingBlock: AJUNOK_clean_linker_0, # of connection points: 2
#     Edge 134, Type (0, 0), BuildingBlock: AJUNOK_clean_linker_0, # of connection points: 2
#     Edge 135, Type (0, 0), BuildingBlock: AJUNOK_clean_linker_0, # of connection points: 2
#     Edge 136, Type (0, 0), BuildingBlock: AJUNOK_clean_linker_0, # of connection points: 2
#     Edge 137, Type (0, 0), BuildingBlock: AJUNOK_clean_linker_0, # of connection points: 2
#     Edge 138, Type (0, 0), BuildingBlock: AJUNOK_clean_linker_0, # of connection points: 2
#     Edge 139, Type (0, 0), BuildingBlock: AJUNOK_clean_linker_0, # of connection points: 2
#     Edge 140, Type (0, 0), BuildingBlock: AJUNOK_clean_linker_0, # of connection points: 2
#     Edge 141, Type (0, 0), BuildingBlock: AJUNOK_clean_linker_0, # of connection points: 2
#     Edge 142, Type (0, 0), BuildingBlock: AJUNOK_clean_linker_0, # of connection points: 2
#     Edge 143, Type (0, 0), BuildingBlock: AJUNOK_clean_linker_0, # of connection points: 2
# Relax obj value: 0.453
# Max RMSD: 0.279
# Mean RMSD: 0.279
data_MOF--net-wne--node1-INOVEN_clean_sbu_0--edge1-AJUNOK_clean_linker_0
_symmetry_space_group_name_H-M    P1
_symmetry_Int_Tables_number       1
_symmetry_cell_setting            triclinic
loop_
_symmetry_equiv_pos_as_xyz
'x, y, z'
_cell_length_a     68.367853
_cell_length_b     68.182302
_cell_length_c     22.367848
_cell_angle_alpha  89.709898
_cell_angle_beta   90.155566
_cell_angle_gamma 119.97571
loop_
_atom_site_label
_atom_site_type_symbol
_atom_site_fract_x
_atom_site_fract_y
_atom_site_fract_z
_atom_type_partial_charge
Gd0 Gd 0.31898 0.21954 0.09903 0.0
Gd1 Gd 0.35023 0.26412 0.12472 0.0
C2 C 0.36642 0.22769 0.15737 0.0
C3 C 0.29711 0.1762 0.07071 0.0
C4 C 0.29809 0.1546 0.05983 0.0
C5 C 0.29037 0.13738 0.10384 0.0
C6 C 0.30399 0.14951 1.00376 0.0
C7 C 0.29337 0.11057 0.03557 0.0
C8 C 0.30186 0.12804 0.99209 0.0
C9 C 0.28813 0.11595 0.09209 0.0
C10 C 0.30166 0.2378 0.18522 0.0
C11 C 0.30572 0.2556 0.05103 0.0
C12 C 0.37442 0.30199 0.17952 0.0
C13 C 0.36797 0.31855 0.19708 0.0
C14 C 0.38419 0.34155 0.19748 0.0
C15 C 0.34497 0.31186 0.20037 0.0
C16 C 0.35426 0.35074 0.18795 0.0
C17 C 0.33824 0.32801 0.19762 0.0
C18 C 0.37736 0.35766 0.19303 0.0
C19 C 0.36101 0.25578 0.01284 0.0
O20 O 0.34507 0.21284 0.14574 0.0
O21 O 0.37301 0.24946 0.15127 0.0
O22 O 0.29936 0.18387 0.12536 0.0
O23 O 0.30556 0.19272 0.03125 0.0
O24 O 0.29048 0.22391 0.14236 0.0
O25 O 0.32152 0.2402 0.1825 0.0
O26 O 0.32099 0.26868 0.09106 0.0
O27 O 0.30501 0.2364 0.036 0.0
O28 O 0.37504 0.2998 0.12183 0.0
O29 O 0.36405 0.28253 0.20729 0.0
O30 O 0.35889 0.27301 0.02759 0.0
O31 O 0.35429 0.242 0.05776 0.0
H32 H 0.28543 0.14025 0.14742 0.0
H33 H 0.30973 0.16195 0.96809 0.0
H34 H 0.30614 0.12487 0.94799 0.0
H35 H 0.28207 0.10345 0.12762 0.0
H36 H 0.402 0.34695 0.19476 0.0
H37 H 0.33217 0.29411 0.20062 0.0
H38 H 0.32051 0.32263 0.19685 0.0
H39 H 0.39016 0.37517 0.18552 0.0
Gd40 Gd 0.89701 0.12544 0.09341 0.0
Gd41 Gd 0.85247 0.11158 0.11417 0.0
C42 C 0.88775 0.16414 0.1493 0.0
C43 C 0.94055 0.14674 0.06879 0.0
C44 C 0.96235 0.1687 0.05536 0.0
C45 C 0.97226 0.18705 0.09576 0.0
C46 C 0.97496 0.17038 1.00384 0.0
C47 C 1.00703 0.20727 0.03481 0.0
C48 C 0.99673 0.18921 0.99369 0.0
C49 C 0.99407 0.20602 0.08541 0.0
C50 C 0.87841 0.08962 0.18026 0.0
C51 C 0.86262 0.07634 0.04416 0.0
C52 C 0.81214 0.0945 0.15443 0.0
C53 C 0.79559 0.07011 0.15114 0.0
C54 C 0.78455 0.06055 0.09704 0.0
C55 C 0.79459 0.05573 0.19736 0.0
C56 C 0.77389 1.02283 0.13402 0.0
C57 C 0.7843 1.03246 0.18853 0.0
C58 C 0.77379 1.03724 0.08862 0.0
C59 C 0.86099 0.12995 1.00208 0.0
O60 O 0.90311 0.15859 0.13557 0.0
O61 O 0.8662 0.14827 0.14551 0.0
O62 O 0.93216 0.14299 0.12295 0.0
O63 O 0.92469 0.13756 0.02798 0.0
O64 O 0.89371 0.09338 0.14067 0.0
O65 O 0.87523 0.10664 0.17566 0.0
O66 O 0.84897 0.07826 0.08238 0.0
O67 O 0.88182 0.09492 0.03021 0.0
O68 O 0.81823 0.10502 0.10327 0.0
O69 O 0.8294 0.10002 0.18954 0.0
O70 O 0.8457 0.1094 0.01569 0.0
O71 O 0.87457 0.1379 0.04726 0.0
H72 H 0.96337 0.18656 0.13624 0.0
H73 H 0.96819 0.15671 0.9717 0.0
H74 H 1.00557 0.18952 0.95331 0.0
H75 H 1.0011 0.21944 0.11824 0.0
H76 H 0.78483 0.07111 0.06031 0.0
H77 H 0.80331 0.06271 0.23883 0.0
H78 H 0.78444 1.02188 0.22431 0.0
H79 H 0.76504 1.03066 0.04672 0.0
Gd80 Gd 0.98959 0.79673 0.09832 0.0
Gd81 Gd 1.00572 0.76356 0.11274 0.0
C82 C 0.9535 0.74758 0.15692 0.0
C83 C 0.9678 0.81803 0.06726 0.0
C84 C 0.94547 0.81744 0.05523 0.0
C85 C 0.93487 0.82305 0.10093 0.0
C86 C 0.93586 0.81415 0.99749 0.0
C87 C 0.90651 0.82283 0.03166 0.0
C88 C 0.91667 0.81658 0.9861 0.0
C89 C 0.91588 0.82563 0.0895 0.0
C90 C 1.02519 0.81391 0.18687 0.0
C91 C 1.03937 0.81209 0.04789 0.0
C92 C 1.0225 0.74017 0.15588 0.0
C93 C 1.04648 0.74841 0.16613 0.0
C94 C 1.05529 0.73395 0.16032 0.0
C95 C 1.06112 0.77183 0.16808 0.0
C96 C 0.09266 0.76674 0.14463 0.0
C97 C 0.08414 0.7811 0.15743 0.0
C98 C 0.07838 0.7431 0.15043 0.0
C99 C 0.98362 0.75512 1.00662 0.0
O100 O 0.95837 0.76857 0.14495 0.0
O101 O 0.96936 0.7419 0.14955 0.0
O102 O 0.97245 0.8152 0.12242 0.0
O103 O 0.97655 0.81016 0.02827 0.0
O104 O 1.0131 0.82296 0.17124 0.0
O105 O 1.01595 0.79556 0.15711 0.0
O106 O 1.03787 0.79494 0.08005 0.0
O107 O 1.02096 0.8137 0.03859 0.0
O108 O 1.01749 0.73982 0.09933 0.0
O109 O 1.01338 0.74911 0.18972 0.0
O110 O 1.00313 0.75666 0.01512 0.0
O111 O 0.97791 0.76135 0.05522 0.0
H112 H 0.94163 0.82605 0.14591 0.0
H113 H 0.94347 0.81019 0.96054 0.0
H114 H 0.91022 0.81424 0.94087 0.0
H115 H 0.90854 0.82991 0.12647 0.0
H116 H 1.04417 0.71579 0.15812 0.0
H117 H 1.05413 0.78275 0.17286 0.0
H118 H 0.09473 0.79928 0.1529 0.0
H119 H 0.08448 0.73159 0.13986 0.0
Gd120 Gd 0.23967 0.29825 0.42918 0.0
Gd121 Gd 0.2875 0.33171 0.42501 0.0
C122 C 0.25151 0.34718 0.37444 0.0
C123 C 0.19618 0.27584 0.4542 0.0
C124 C 0.17438 0.27633 0.46506 0.0
C125 C 0.15896 0.27206 0.41788 0.0
C126 C 0.16723 0.27816 0.52297 0.0
C127 C 0.12989 0.27063 0.48612 0.0
C128 C 0.14555 0.27557 0.53317 0.0
C129 C 0.13729 0.26933 0.42811 0.0
C130 C 0.2604 0.28259 0.34288 0.0
C131 C 0.2728 0.28318 0.48868 0.0
C132 C 0.32828 0.35567 0.39059 0.0
C133 C 0.34359 0.34659 0.38347 0.0
C134 C 0.36098 0.35265 0.42508 0.0
C135 C 0.33792 0.32827 0.3449 0.0
C136 C 0.36534 0.321 0.39323 0.0
C137 C 0.34934 0.31615 0.34844 0.0
C138 C 0.37152 0.3398 0.43052 0.0
C139 C 0.27182 0.33869 0.52864 0.0
O140 O 0.23613 0.32567 0.38098 0.0
O141 O 0.27291 0.35369 0.38766 0.0
O142 O 0.20458 0.2799 0.40003 0.0
O143 O 0.21209 0.28295 0.49519 0.0
O144 O 0.23899 0.27323 0.35518 0.0
O145 O 0.26882 0.30043 0.37469 0.0
O146 O 0.28901 0.30084 0.4596 0.0
O147 O 0.25242 0.28093 0.49266 0.0
O148 O 0.32223 0.35572 0.44598 0.0
O149 O 0.31137 0.34829 0.35285 0.0
O150 O 0.28924 0.33603 0.52367 0.0
O151 O 0.2609 0.33316 0.47817 0.0
H152 H 0.16342 0.27026 0.37263 0.0
H153 H 0.1782 0.28107 0.56092 0.0
H154 H 0.14078 0.27674 0.57857 0.0
H155 H 0.12626 0.26613 0.39013 0.0
H156 H 0.36554 0.36654 0.45573 0.0
H157 H 0.32406 0.32267 0.31368 0.0
H158 H 0.34534 0.3026 0.31734 0.0
H159 H 0.38472 0.34481 0.46362 0.0
Gd160 Gd 0.81702 0.9677 0.42804 0.0
Gd161 Gd 0.78671 0.98145 0.4013 0.0
C162 C 0.77016 0.92864 0.36881 0.0
C163 C 0.83953 0.94698 0.45817 0.0
C164 C 0.84068 0.92579 0.47302 0.0
C165 C 0.82361 0.90366 0.45809 0.0
C166 C 0.86033 0.92805 0.50013 0.0
C167 C 0.84645 0.88698 0.4947 0.0
C168 C 0.86315 0.90915 0.51084 0.0
C169 C 0.82639 0.88459 0.46902 0.0
C170 C 0.83549 1.00355 0.34084 0.0
C171 C 0.83141 1.01695 0.47478 0.0
C172 C 0.76333 0.99694 0.34974 0.0
C173 C 0.77066 1.02087 0.34067 0.0
C174 C 0.79369 1.03676 0.34663 0.0
C175 C 0.75494 1.02826 0.33836 0.0
C176 C 0.78498 0.06657 0.3606 0.0
C177 C 0.76208 0.0511 0.34811 0.0
C178 C 0.80079 0.05946 0.35595 0.0
C179 C 0.77532 0.96355 0.51398 0.0
O180 O 0.79133 0.93493 0.38167 0.0
O181 O 0.76374 0.94398 0.37416 0.0
O182 O 0.83546 0.95042 0.40307 0.0
O183 O 0.83138 0.95538 0.49703 0.0
O184 O 0.84624 0.99993 0.38336 0.0
O185 O 0.81533 0.98647 0.34359 0.0
O186 O 0.81635 1.01496 0.43441 0.0
O187 O 0.83161 0.99831 0.49091 0.0
O188 O 0.7609 0.99097 0.40577 0.0
O189 O 0.77454 0.98934 0.32 0.0
O190 O 0.77999 0.98377 0.49812 0.0
O191 O 0.78163 0.95536 0.47079 0.0
H192 H 0.80818 0.9011 0.43752 0.0
H193 H 0.87386 0.9447 0.51255 0.0
H194 H 0.87857 0.91199 0.53225 0.0
H195 H 0.81297 0.86798 0.45607 0.0
H196 H 0.80602 1.03135 0.34864 0.0
H197 H 0.73706 1.0162 0.33434 0.0
H198 H 0.74938 0.05608 0.35236 0.0
H199 H 0.81832 0.0712 0.36467 0.0
Gd200 Gd 0.14736 0.87601 0.42775 0.0
Gd201 Gd 0.13392 0.83226 0.39947 0.0
C202 C 0.18655 0.86787 0.37199 0.0
C203 C 0.16908 0.91932 0.45696 0.0
C204 C 0.19162 0.94097 0.46743 0.0
C205 C 0.20317 0.95627 0.42013 0.0
C206 C 0.20044 0.94817 0.52552 0.0
C207 C 0.23081 0.98534 0.48871 0.0
C208 C 0.21969 0.96977 0.53585 0.0
C209 C 0.22231 0.97787 0.43048 0.0
C210 C 0.11218 0.85959 0.34042 0.0
C211 C 0.09763 0.84011 0.47171 0.0
C212 C 0.12125 0.79546 0.34053 0.0
C213 C 0.09879 0.78076 0.3165 0.0
C214 C 0.09067 0.75758 0.31093 0.0
C215 C 0.08382 0.78915 0.31311 0.0
C216 C 1.05236 0.75115 0.31163 0.0
C217 C 1.0607 0.77442 0.30939 0.0
C218 C 1.06745 0.74276 0.30876 0.0
C219 C 0.15047 0.83767 0.51294 0.0
O220 O 0.17997 0.88279 0.38116 0.0
O221 O 0.17146 0.84625 0.37907 0.0
O222 O 0.16348 0.91171 0.40236 0.0
O223 O 0.16116 0.90274 0.49624 0.0
O224 O 0.11519 0.87314 0.38439 0.0
O225 O 0.12928 0.85655 0.34247 0.0
O226 O 0.09996 0.82749 0.43065 0.0
O227 O 0.11607 0.85899 0.48867 0.0
O228 O 0.12172 0.79627 0.39875 0.0
O229 O 0.13229 0.8155 0.31595 0.0
O230 O 0.13087 0.82165 0.4953 0.0
O231 O 0.15921 0.85261 0.47072 0.0
H232 H 0.19709 0.95178 0.37471 0.0
H233 H 0.19208 0.93731 0.56355 0.0
H234 H 0.22542 0.97456 0.58141 0.0
H235 H 0.23044 0.98879 0.3924 0.0
H236 H 0.10202 0.75084 0.31428 0.0
H237 H 0.08987 0.80693 0.31947 0.0
H238 H 1.04933 0.78105 0.30929 0.0
H239 H 1.0613 0.72472 0.31088 0.0
Gd240 Gd 0.78608 0.82965 0.89413 0.0
Gd241 Gd 0.81656 0.87421 0.91941 0.0
C242 C 0.82992 0.83883 0.97118 0.0
C243 C 0.76441 0.792 0.83703 0.0
C244 C 0.77391 0.77789 0.81907 0.0
C245 C 0.75987 0.75467 0.81091 0.0
C246 C 0.79734 0.78689 0.82391 0.0
C247 C 0.79206 0.74918 0.82791 0.0
C248 C 0.80644 0.77267 0.82797 0.0
C249 C 0.76892 0.74035 0.8149 0.0
C250 C 0.77414 0.83757 1.00483 0.0
C251 C 0.76865 0.86514 0.86134 0.0
C252 C 0.83973 0.91765 0.94467 0.0
C253 C 0.84042 0.93986 0.95708 0.0
C254 C 0.8422 0.95477 0.91047 0.0
C255 C 0.84242 0.94785 0.01608 0.0
C256 C 0.84745 0.98455 0.98164 0.0
C257 C 0.84584 0.96967 0.02809 0.0
C258 C 0.84564 0.97667 0.92252 0.0
C259 C 0.83495 0.85619 0.83645 0.0
O260 O 0.81516 0.82554 0.93072 0.0
O261 O 0.8301 0.85785 0.98504 0.0
O262 O 0.763 0.79345 0.89483 0.0
O263 O 0.77307 0.81168 0.81054 0.0
O264 O 0.77644 0.82039 0.9906 0.0
O265 O 0.78114 0.85165 0.96058 0.0
O266 O 0.78967 0.88047 0.87512 0.0
O267 O 0.7628 0.84349 0.86594 0.0
O268 O 0.83561 0.90952 0.89027 0.0
O269 O 0.83178 0.90153 0.98531 0.0
O270 O 0.84557 0.87026 0.87923 0.0
O271 O 0.81499 0.8535 0.83721 0.0
H272 H 0.74175 0.74743 0.80738 0.0
H273 H 0.80828 0.80473 0.83119 0.0
H274 H 0.82422 0.77989 0.83829 0.0
H275 H 0.7573 0.72226 0.81527 0.0
H276 H 0.84131 0.94967 0.86431 0.0
H277 H 0.84187 0.93738 0.05334 0.0
H278 H 0.84772 0.97507 0.07421 0.0
H279 H 0.84677 0.98743 0.88535 0.0
Gd280 Gd 0.28963 0.98274 0.90611 0.0
Gd281 Gd 0.24153 0.96838 0.92431 0.0
C282 C 0.27698 1.01796 0.97232 0.0
C283 C 0.32777 0.99726 0.85326 0.0
C284 C 0.34282 1.0207 0.83489 0.0
C285 C 0.3337 1.03506 0.83156 0.0
C286 C 0.36621 1.02997 0.83715 0.0
C287 C 0.37056 0.06751 0.84768 0.0
C288 C 0.38008 0.05336 0.84281 0.0
C289 C 0.3474 0.05833 0.83894 0.0
C290 C 0.27802 0.96318 0.01551 0.0
C291 C 0.25139 0.93005 0.86816 0.0
C292 C 0.19877 0.94807 0.95612 0.0
C293 C 0.17677 0.92606 0.96727 0.0
C294 C 0.15988 0.91729 0.92261 0.0
C295 C 0.17105 0.91498 0.02337 0.0
C296 C 0.13219 0.88783 0.99001 0.0
C297 C 0.14926 0.89609 0.03431 0.0
C298 C 0.13815 0.89863 0.93365 0.0
C299 C 0.25965 1.0034 0.8337 0.0
O300 O 0.29192 1.01599 0.93827 0.0
O301 O 0.2571 0.99969 0.98349 0.0
O302 O 0.32543 0.99473 0.91133 0.0
O303 O 0.30847 0.98679 0.82471 0.0
O304 O 0.29604 0.9823 1.00312 0.0
O305 O 0.2649 0.95625 0.96879 0.0
O306 O 0.23635 0.9364 0.8782 0.0
O307 O 0.27319 0.94512 0.87576 0.0
O308 O 0.20604 0.95284 0.90095 0.0
O309 O 0.21549 0.95592 0.9949 0.0
O310 O 0.23881 0.99226 0.8517 0.0
O311 O 0.26848 0.99379 0.86306 0.0
H312 H 0.31566 1.02779 0.82979 0.0
H313 H 0.37352 1.01911 0.84055 0.0
H314 H 0.39794 0.05998 0.85072 0.0
H315 H 0.33979 0.06885 0.84363 0.0
H316 H 0.16326 0.92527 0.87896 0.0
H317 H 0.18325 0.92119 0.05941 0.0
H318 H 0.14554 0.88839 0.07832 0.0
H319 H 0.12592 0.8927 0.89769 0.0
Gd320 Gd 0.13196 0.33293 0.91341 0.0
Gd321 Gd 0.14796 0.2999 0.92143 0.0
C322 C 0.09936 0.28438 0.97983 0.0
C323 C 0.11636 0.35656 0.86471 0.0
C324 C 0.09346 0.34899 0.84333 0.0
C325 C 0.08423 0.3631 0.84965 0.0
C326 C 0.07938 0.32612 0.82854 0.0
C327 C 1.04658 0.33035 0.84042 0.0
C328 C 1.05603 0.31689 0.82681 0.0
C329 C 1.06086 0.35382 0.84804 0.0
C330 C 0.15503 0.34132 0.01789 0.0
C331 C 0.1842 0.34954 0.86692 0.0
C332 C 0.16885 0.27728 0.94732 0.0
C333 C 0.19044 0.27673 0.96116 0.0
C334 C 0.20442 0.27631 0.91514 0.0
C335 C 0.19572 0.27347 0.02007 0.0
C336 C 0.22834 0.26995 0.98665 0.0
C337 C 0.21423 0.27019 0.03252 0.0
C338 C 0.22294 0.27298 0.9276 0.0
C339 C 0.11176 0.28377 0.8344 0.0
O340 O 0.10019 0.30177 0.95015 0.0
O341 O 0.11779 0.28259 0.98427 0.0
O342 O 0.11784 0.35493 0.92272 0.0
O343 O 0.12764 0.349 0.83474 0.0
O344 O 0.13567 0.34028 1.01074 0.0
O345 O 0.16036 0.335 0.96859 0.0
O346 O 0.1792 0.32837 0.87613 0.0
O347 O 0.16855 0.35525 0.87776 0.0
O348 O 0.16574 0.28248 0.89298 0.0
O349 O 0.15939 0.2838 0.98783 0.0
O350 O 0.1239 0.27452 0.84728 0.0
O351 O 0.1212 0.30159 0.86601 0.0
H352 H 0.09486 0.38076 0.86136 0.0
H353 H 0.08633 0.31507 0.82285 0.0
H354 H 1.04523 0.29904 0.81898 0.0
H355 H 1.05394 0.36458 0.85935 0.0
H356 H 0.20085 0.27818 0.86894 0.0
H357 H 0.1852 0.27294 0.05683 0.0
H358 H 0.21718 0.26736 0.07851 0.0
H359 H 0.23316 0.27294 0.89078 0.0
Gd360 Gd 0.84773 0.76049 0.61255 0.0
Gd361 Gd 0.89628 0.79432 0.60022 0.0
C362 C 0.86166 0.80925 0.54906 0.0
C363 C 0.80835 0.73613 0.6586 0.0
C364 C 0.79274 0.74409 0.67384 0.0
C365 C 0.76956 0.7299 0.66593 0.0
C366 C 0.80157 0.76748 0.67955 0.0
C367 C 0.76543 0.76311 0.65314 0.0
C368 C 0.78807 0.77708 0.66854 0.0
C369 C 0.75586 0.73939 0.65642 0.0
C370 C 0.86177 0.7519 0.50708 0.0
C371 C 0.885 0.74529 0.65577 0.0
C372 C 0.93929 0.81769 0.57193 0.0
C373 C 0.96138 0.81834 0.55814 0.0
C374 C 0.97497 0.81689 0.60389 0.0
C375 C 0.97067 0.82352 0.50012 0.0
C376 C 1.00601 0.82532 0.53373 0.0
C377 C 0.99246 0.8269 0.48816 0.0
C378 C 0.99683 0.82034 0.59192 0.0
C379 C 0.87701 0.81033 0.68888 0.0
O380 O 0.84611 0.79185 0.58076 0.0
O381 O 0.88161 0.81085 0.53971 0.0
O382 O 0.81216 0.73679 0.60112 0.0
O383 O 0.82688 0.74462 0.69057 0.0
O384 O 0.84374 0.75344 0.51472 0.0
O385 O 0.87368 0.75879 0.55582 0.0
O386 O 0.90071 0.7663 0.64309 0.0
O387 O 0.86335 0.7394 0.64957 0.0
O388 O 0.93152 0.81291 0.62673 0.0
O389 O 0.92296 0.81044 0.53201 0.0
O390 O 0.89818 0.81977 0.67432 0.0
O391 O 0.86836 0.79223 0.65838 0.0
H392 H 0.76251 0.71181 0.66092 0.0
H393 H 0.81944 0.7783 0.68614 0.0
H394 H 0.79573 0.79531 0.66585 0.0
H395 H 0.7384 0.72825 0.64388 0.0
H396 H 0.96889 0.81345 0.64952 0.0
H397 H 0.96124 0.82548 0.46386 0.0
H398 H 0.99887 0.83122 0.44296 0.0
H399 H 1.00651 0.81893 0.62839 0.0
Gd400 Gd 0.35042 0.11343 0.62567 0.0
Gd401 Gd 0.32001 0.12694 0.59727 0.0
C402 C 0.30695 0.0782 0.54789 0.0
C403 C 0.37235 0.09804 0.68427 0.0
C404 C 0.36417 0.07414 0.69648 0.0
C405 C 0.37944 0.06624 0.69718 0.0
C406 C 0.3409 0.05866 0.69182 0.0
C407 C 0.34883 1.02856 0.67253 0.0
C408 C 0.3332 1.03588 0.68045 0.0
C409 C 0.3718 1.0435 0.68585 0.0
C410 C 0.36154 0.13089 0.51259 0.0
C411 C 0.36715 0.16629 0.65544 0.0
C412 C 0.2972 0.14759 0.57171 0.0
C413 C 0.29657 0.1694 0.56515 0.0
C414 C 0.28092 0.17232 0.59933 0.0
C415 C 0.30954 0.18643 0.52282 0.0
C416 C 0.29025 0.20787 0.54745 0.0
C417 C 0.30655 0.20544 0.51449 0.0
C418 C 0.27783 0.19111 0.59075 0.0
C419 C 0.30144 0.09076 0.68154 0.0
O420 O 0.32168 0.07993 0.58914 0.0
O421 O 0.30647 0.09685 0.53306 0.0
O422 O 0.37573 0.10323 0.62762 0.0
O423 O 0.36136 0.10663 0.7106 0.0
O424 O 0.35877 0.11146 0.52977 0.0
O425 O 0.35527 0.13922 0.55539 0.0
O426 O 0.34586 0.15977 0.64334 0.0
O427 O 0.37364 0.15102 0.6505 0.0
O428 O 0.29915 0.14113 0.62547 0.0
O429 O 0.30707 0.1416 0.53123 0.0
O430 O 0.29102 0.09378 0.63719 0.0
O431 O 0.32132 0.10826 0.68126 0.0
H432 H 0.39743 0.07796 0.70029 0.0
H433 H 0.32889 0.06454 0.69075 0.0
H434 H 0.31546 1.02466 0.6711 0.0
H435 H 0.38434 1.03839 0.67995 0.0
H436 H 0.27054 0.15965 0.63218 0.0
H437 H 0.3217 0.18489 0.49531 0.0
H438 H 0.31651 0.21789 0.48075 0.0
H439 H 0.26547 0.19241 0.61804 0.0
Gd440 Gd 1.00265 0.26357 0.62074 0.0
Gd441 Gd 0.98915 0.21865 0.59654 0.0
C442 C 1.03719 0.25408 0.54367 0.0
C443 C 1.01976 0.3022 0.67323 0.0
C444 C 1.04385 0.31681 0.68602 0.0
C445 C 1.05323 0.34027 0.68859 0.0
C446 C 1.05814 0.30752 0.68425 0.0
C447 C 0.09077 0.34497 0.67592 0.0
C448 C 0.08147 0.32147 0.67945 0.0
C449 C 0.07659 0.35428 0.68403 0.0
C450 C 0.98208 0.25458 0.51025 0.0
C451 C 0.95023 0.22771 0.65475 0.0
C452 C 0.96883 0.17504 0.57287 0.0
C453 C 0.94728 0.15288 0.56024 0.0
C454 C 0.93079 0.14071 0.60452 0.0
C455 C 0.94437 0.14223 0.50447 0.0
C456 C 0.90906 0.10837 0.53671 0.0
C457 C 0.92578 0.12051 0.49301 0.0
C458 C 0.91204 0.1189 0.59293 0.0
C459 C 1.02534 0.23768 0.68032 0.0
O460 O 1.03561 0.26741 0.5838 0.0
O461 O 1.01857 0.23488 0.53025 0.0
O462 O 1.01502 0.29965 0.61632 0.0
O463 O 1.00972 0.28304 0.70251 0.0
O464 O 1.0013 0.2721 0.5241 0.0
O465 O 0.97581 0.24085 0.55523 0.0
O466 O 0.95629 0.21265 0.64078 0.0
O467 O 0.96565 0.2495 0.65031 0.0
O468 O 0.97278 0.18345 0.62696 0.0
O469 O 0.97718 0.19095 0.53172 0.0
O470 O 1.02261 0.22375 0.63776 0.0
O471 O 1.00773 0.2398 0.67845 0.0
H472 H 1.04248 0.34773 0.68962 0.0
H473 H 1.05114 0.28945 0.68228 0.0
H474 H 0.092 0.3139 0.67371 0.0
H475 H 0.08328 0.37239 0.68086 0.0
H476 H 0.93248 0.14791 0.64855 0.0
H477 H 0.95687 0.15055 0.46965 0.0
H478 H 0.92477 0.11302 0.44973 0.0
H479 H 0.89973 0.11033 0.628 0.0
Gd480 Gd 0.98478 0.54832 0.4422 0.0
Gd481 Gd 1.01918 0.59677 0.44852 0.0
C482 C 1.03443 0.55994 0.49346 0.0
C483 C 0.96039 0.50489 0.41985 0.0
C484 C 0.95921 0.48269 0.40468 0.0
C485 C 0.95657 0.46702 0.45001 0.0
C486 C 0.95775 0.47557 0.34498 0.0
C487 C 0.95158 0.43815 0.37645 0.0
C488 C 0.95406 0.45379 0.33117 0.0
C489 C 0.95281 0.44517 0.43617 0.0
C490 C 0.97077 0.56953 0.53151 0.0
C491 C 0.97015 0.58157 0.38506 0.0
C492 C 1.04275 0.63883 0.47353 0.0
C493 C 1.03448 0.65414 0.45644 0.0
C494 C 1.03975 0.67361 0.48864 0.0
C495 C 1.0189 0.64749 0.40948 0.0
C496 C 1.01371 0.67967 0.42552 0.0
C497 C 1.00779 0.65925 0.39648 0.0
C498 C 1.03002 0.68669 0.47217 0.0
C499 C 1.02477 0.58092 0.3426 0.0
O500 O 1.01366 0.54431 0.47903 0.0
O501 O 1.04008 0.58173 0.49066 0.0
O502 O 0.96732 0.51337 0.47333 0.0
O503 O 0.96613 0.52071 0.37871 0.0
O504 O 0.96072 0.54815 0.51828 0.0
O505 O 0.98832 0.57733 0.49893 0.0
O506 O 0.9872 0.59703 0.41714 0.0
O507 O 0.96839 0.56153 0.37753 0.0
O508 O 1.04751 0.62996 0.42819 0.0
O509 O 1.03051 0.62376 0.51404 0.0
O510 O 1.02198 0.59828 0.34899 0.0
O511 O 1.01944 0.5699 0.39294 0.0
H512 H 0.95704 0.47148 0.49659 0.0
H513 H 0.95904 0.4867 0.30862 0.0
H514 H 0.95277 0.44904 0.2846 0.0
H515 H 0.95104 0.4338 0.47239 0.0
H516 H 1.05176 0.67901 0.52513 0.0
H517 H 1.01526 0.63309 0.38209 0.0
H518 H 0.99518 0.65253 0.36164 0.0
H519 H 1.03622 0.70263 0.49486 0.0
Gd520 Gd 0.56602 0.45988 0.42989 0.0
Gd521 Gd 0.52131 0.44659 0.44974 0.0
C522 C 0.55647 0.49869 0.48697 0.0
C523 C 0.60973 0.47996 0.40934 0.0
C524 C 0.63203 0.50149 0.39768 0.0
C525 C 0.64771 0.51266 0.44427 0.0
C526 C 0.63925 0.50945 0.339 0.0
C527 C 0.67677 0.53912 0.37392 0.0
C528 C 0.66109 0.52785 0.32741 0.0
C529 C 0.66964 0.53108 0.43263 0.0
C530 C 0.54667 0.42467 0.51694 0.0
C531 C 0.53152 0.4109 0.38054 0.0
C532 C 0.48008 0.4283 0.48379 0.0
C533 C 0.46378 0.40497 0.46707 0.0
C534 C 0.46815 0.3959 0.41609 0.0
C535 C 0.44654 0.39066 0.50583 0.0
C536 C 0.43937 0.35796 0.44486 0.0
C537 C 0.43425 0.36741 0.4946 0.0
C538 C 0.45657 0.37275 0.40591 0.0
C539 C 0.53156 0.46531 0.33749 0.0
O540 O 0.57164 0.49326 0.46969 0.0
O541 O 0.53488 0.48271 0.48602 0.0
O542 O 0.60078 0.47616 0.46283 0.0
O543 O 0.59429 0.47162 0.36725 0.0
O544 O 0.56098 0.42717 0.47576 0.0
O545 O 0.54419 0.44211 0.51239 0.0
O546 O 0.51816 0.41328 0.4186 0.0
O547 O 0.55083 0.42932 0.36633 0.0
O548 O 0.48794 0.44271 0.43953 0.0
O549 O 0.49604 0.43 0.51917 0.0
O550 O 0.51546 0.44505 0.35015 0.0
O551 O 0.54436 0.47294 0.38383 0.0
H552 H 0.64319 0.50688 0.48999 0.0
H553 H 0.62815 0.50112 0.3015 0.0
H554 H 0.66587 0.53298 0.2814 0.0
H555 H 0.68101 0.53914 0.46982 0.0
H556 H 0.48099 0.40666 0.38442 0.0
H557 H 0.4426 0.39748 0.54452 0.0
H558 H 0.4203 0.35717 0.52413 0.0
H559 H 0.46121 0.36658 0.36709 0.0
Gd560 Gd 0.65419 0.12752 0.43376 0.0
Gd561 Gd 0.66766 0.09294 0.44901 0.0
C562 C 0.61581 0.07946 0.49057 0.0
C563 C 0.63439 0.15077 0.4038 0.0
C564 C 0.61253 0.15088 0.39122 0.0
C565 C 0.59958 0.15262 0.43805 0.0
C566 C 0.60587 0.15228 0.33234 0.0
C567 C 0.57408 0.15683 0.36755 0.0
C568 C 0.58706 0.15513 0.32077 0.0
C569 C 0.58081 0.15557 0.42646 0.0
C570 C 0.68969 0.14378 0.52245 0.0
C571 C 0.70289 0.1406 0.38222 0.0
C572 C 0.68161 0.06837 0.50004 0.0
C573 C 0.70483 0.07682 0.51944 0.0
C574 C 0.71409 0.06265 0.52146 0.0
C575 C 0.71904 0.10033 0.52081 0.0
C576 C 0.75163 0.09577 0.51203 0.0
C577 C 0.74233 0.10983 0.51636 0.0
C578 C 0.7375 0.07213 0.51866 0.0
C579 C 0.64553 0.08431 0.34259 0.0
O580 O 0.62229 0.10093 0.48042 0.0
O581 O 0.63058 0.0724 0.48237 0.0
O582 O 0.63836 0.14709 0.45883 0.0
O583 O 0.64285 0.14274 0.36443 0.0
O584 O 0.67844 0.15359 0.50587 0.0
O585 O 0.67988 0.12533 0.4932 0.0
O586 O 0.70082 0.12345 0.41568 0.0
O587 O 0.68485 0.1427 0.37235 0.0
O588 O 0.67966 0.06912 0.44193 0.0
O589 O 0.67076 0.07666 0.5291 0.0
O590 O 0.6647 0.08511 0.35181 0.0
O591 O 0.64051 0.09165 0.39049 0.0
H592 H 0.60418 0.15211 0.48415 0.0
H593 H 0.61554 0.15167 0.29486 0.0
H594 H 0.58298 0.15649 0.27469 0.0
H595 H 0.57144 0.15673 0.46391 0.0
H596 H 0.70332 1.04444 0.51953 0.0
H597 H 0.71175 0.11113 0.51923 0.0
H598 H 0.75289 0.1279 0.51017 0.0
H599 H 0.74424 0.06082 0.51409 0.0
Gd600 Gd 0.90851 0.631 0.76523 0.0
Gd601 Gd 0.95152 0.66168 0.73105 0.0
C602 C 0.91496 0.67693 0.70061 0.0
C603 C 0.8648 0.60852 0.78837 0.0
C604 C 0.84291 0.60884 0.79812 0.0
C605 C 0.82673 0.60225 0.75188 0.0
C606 C 0.83651 0.61285 0.85476 0.0
C607 C 0.79835 0.6028 0.81887 0.0
C608 C 0.81478 0.61007 0.86476 0.0
C609 C 0.805 0.59936 0.76194 0.0
C610 C 0.92551 0.61268 0.67843 0.0
C611 C 0.94269 0.61798 0.81808 0.0
C612 C 0.99166 0.67949 0.68652 0.0
C613 C 1.00545 0.66931 0.67114 0.0
C614 C 1.02808 0.68316 0.65561 0.0
C615 C 0.9971 0.64615 0.68164 0.0
C616 C 1.03505 0.65217 0.67801 0.0
C617 C 1.01175 0.6375 0.68411 0.0
C618 C 1.04284 0.67463 0.65874 0.0
C619 C 0.9425 0.68233 0.82317 0.0
O620 O 0.90267 0.65978 0.73635 0.0
O621 O 0.93493 0.68 0.68404 0.0
O622 O 0.87349 0.6124 0.73463 0.0
O623 O 0.88049 0.616 0.82974 0.0
O624 O 0.91269 0.6022 0.72373 0.0
O625 O 0.92726 0.63236 0.67824 0.0
O626 O 0.95615 0.63403 0.77975 0.0
O627 O 0.92265 0.61558 0.82904 0.0
O628 O 0.98771 0.67943 0.74368 0.0
O629 O 0.97367 0.6733 0.65391 0.0
O630 O 0.95297 0.69162 0.77407 0.0
O631 O 0.93589 0.6608 0.82179 0.0
H632 H 0.83065 0.59873 0.70773 0.0
H633 H 0.84813 0.61761 0.89202 0.0
H634 H 0.81058 0.61295 0.90929 0.0
H635 H 0.79334 0.59432 0.72474 0.0
H636 H 1.03477 0.70104 0.64681 0.0
H637 H 0.9796 0.63515 0.69303 0.0
H638 H 1.00527 0.62013 0.69835 0.0
H639 H 1.06071 0.68652 0.65381 0.0
Gd640 Gd 0.48339 0.30197 0.76027 0.0
Gd641 Gd 0.45 0.31726 0.74457 0.0
C642 C 0.43492 0.26449 0.7045 0.0
C643 C 0.50539 0.28098 0.79148 0.0
C644 C 0.50523 0.25882 0.80266 0.0
C645 C 0.51316 0.24988 0.7581 0.0
C646 C 0.49989 0.24772 0.85878 0.0
C647 C 0.51122 0.22021 0.82558 0.0
C648 C 0.50263 0.22867 0.86981 0.0
C649 C 0.51603 0.23104 0.76921 0.0
C650 C 0.50028 0.33809 0.67214 0.0
C651 C 0.49768 0.35123 0.81398 0.0
C652 C 0.42508 0.32863 0.68385 0.0
C653 C 0.42918 0.34993 0.65735 0.0
C654 C 0.41199 0.35533 0.66049 0.0
C655 C 0.45149 0.36715 0.64697 0.0
C656 C 0.44056 0.39458 0.67261 0.0
C657 C 0.45711 0.38968 0.65379 0.0
C658 C 0.41771 0.37789 0.66695 0.0
C659 C 0.44102 0.29598 0.85165 0.0
O660 O 0.45633 0.27039 0.71233 0.0
O661 O 0.42861 0.27967 0.71571 0.0
O662 O 0.50288 0.28593 0.73635 0.0
O663 O 0.49677 0.28899 0.83042 0.0
O664 O 0.50976 0.3264 0.6879 0.0
O665 O 0.48199 0.32818 0.70168 0.0
O666 O 0.4802 0.34972 0.78299 0.0
O667 O 0.49996 0.33305 0.82038 0.0
O668 O 0.42578 0.32876 0.74247 0.0
O669 O 0.43597 0.31943 0.65967 0.0
O670 O 0.4415 0.31499 0.84074 0.0
O671 O 0.4479 0.28998 0.80435 0.0
H672 H 0.51776 0.25786 0.71446 0.0
H673 H 0.49405 0.25405 0.89481 0.0
H674 H 0.49867 0.221 0.91385 0.0
H675 H 0.52218 0.22499 0.73324 0.0
H676 H 0.3946 0.34218 0.66721 0.0
H677 H 0.46487 0.36318 0.64204 0.0
H678 H 0.47455 0.40282 0.65364 0.0
H679 H 0.40456 0.38149 0.67991 0.0
Gd680 Gd 0.81369 0.20715 0.75702 0.0
Gd681 Gd 0.79932 0.16246 0.73164 0.0
C682 C 0.85219 0.19794 0.69973 0.0
C683 C 0.83535 0.25069 0.78338 0.0
C684 C 0.85758 0.27277 0.79258 0.0
C685 C 0.86566 0.2899 0.74828 0.0
C686 C 0.86956 0.27837 0.84731 0.0
C687 C 0.89616 0.31755 0.81354 0.0
C688 C 0.88855 0.30021 0.85734 0.0
C689 C 0.88449 0.3117 0.7584 0.0
C690 C 0.77756 0.18949 0.67235 0.0
C691 C 0.76416 0.17196 0.8054 0.0
C692 C 0.78503 0.12427 0.67777 0.0
C693 C 0.76184 0.10719 0.66327 0.0
C694 C 0.74532 0.11361 0.65838 0.0
C695 C 0.7553 0.08426 0.66757 0.0
C696 C 0.71616 0.07491 0.67578 0.0
C697 C 0.73251 0.06814 0.67369 0.0
C698 C 0.72254 0.09742 0.66331 0.0
C699 C 0.81781 0.16967 0.84323 0.0
O700 O 0.84629 0.21329 0.7108 0.0
O701 O 0.83658 0.17635 0.70598 0.0
O702 O 0.82958 0.24262 0.72918 0.0
O703 O 0.82791 0.23446 0.82367 0.0
O704 O 0.78111 0.20374 0.71485 0.0
O705 O 0.7947 0.18652 0.67407 0.0
O706 O 0.76594 0.15851 0.76584 0.0
O707 O 0.78287 0.19106 0.81986 0.0
O708 O 0.78909 0.1269 0.73495 0.0
O709 O 0.79311 0.14352 0.6493 0.0
O710 O 0.79778 0.15355 0.82871 0.0
O711 O 0.82577 0.18386 0.79922 0.0
H712 H 0.857 0.28665 0.70574 0.0
H713 H 0.86394 0.26602 0.88318 0.0
H714 H 0.89684 0.30375 0.90045 0.0
H715 H 0.88983 0.32408 0.72266 0.0
H716 H 0.75006 0.13127 0.65534 0.0
H717 H 0.76784 0.07906 0.67214 0.0
H718 H 0.72801 0.05083 0.68386 0.0
H719 H 0.71007 0.10267 0.66202 0.0
Gd720 Gd 0.45203 0.16201 0.233 0.0
Gd721 Gd 0.48276 0.20666 0.2596 0.0
C722 C 0.49628 0.17066 0.307 0.0
C723 C 0.42819 0.1244 0.1763 0.0
C724 C 0.43466 0.10805 0.15658 0.0
C725 C 0.41844 0.08505 0.15454 0.0
C726 C 0.45765 0.11474 0.15313 0.0
C727 C 0.44833 0.07567 0.16109 0.0
C728 C 0.4644 0.09857 0.154 0.0
C729 C 0.42524 0.06888 0.15678 0.0
C730 C 0.4407 0.16926 0.34535 0.0
C731 C 0.43475 0.19779 0.20299 0.0
C732 C 0.50563 0.2501 0.28627 0.0
C733 C 0.50637 0.27245 0.29858 0.0
C734 C 0.50848 0.28747 0.25188 0.0
C735 C 0.50816 0.28048 0.3575 0.0
C736 C 0.5138 0.31749 0.32272 0.0
C737 C 0.51176 0.30244 0.3693 0.0
C738 C 0.51212 0.30949 0.2637 0.0
C739 C 0.50093 0.18903 0.17476 0.0
O740 O 0.48121 0.1576 0.26667 0.0
O741 O 0.49674 0.18973 0.32241 0.0
O742 O 0.42782 0.12613 0.23423 0.0
O743 O 0.43835 0.14409 0.14966 0.0
O744 O 0.4434 0.15247 0.32949 0.0
O745 O 0.44756 0.1836 0.30154 0.0
O746 O 0.45592 0.21305 0.2155 0.0
O747 O 0.42881 0.17615 0.2077 0.0
O748 O 0.50188 0.24213 0.23172 0.0
O749 O 0.49751 0.23382 0.32646 0.0
O750 O 0.51169 0.2031 0.21749 0.0
O751 O 0.48089 0.1862 0.1763 0.0
H752 H 0.40063 0.07963 0.15748 0.0
H753 H 0.47042 0.13244 0.15508 0.0
H754 H 0.48215 0.10398 0.15462 0.0
H755 H 0.41241 0.05128 0.16264 0.0
H756 H 0.50776 0.2824 0.20577 0.0
H757 H 0.50735 0.26996 0.39491 0.0
H758 H 0.51357 0.30783 0.4154 0.0
H759 H 0.51357 0.32029 0.2263 0.0
Gd760 Gd 0.95283 0.31312 0.24798 0.0
Gd761 Gd 0.90433 0.29832 0.25557 0.0
C762 C 0.93743 0.34737 0.3077 0.0
C763 C 0.9951 0.33156 0.22749 0.0
C764 C 1.00999 0.35513 0.24509 0.0
C765 C 1.00319 0.3636 0.29287 0.0
C766 C 1.02808 0.37008 0.20945 0.0
C767 C 1.03115 0.40215 0.2669 0.0
C768 C 1.0388 0.39334 0.22072 0.0
C769 C 1.01316 0.38667 0.30267 0.0
C770 C 0.93729 0.29196 0.35441 0.0
C771 C 0.91686 0.26187 0.19831 0.0
C772 C 0.86104 0.27707 0.28192 0.0
C773 C 0.83945 0.2548 0.29445 0.0
C774 C 0.82256 0.24503 0.25006 0.0
C775 C 0.83409 0.24438 0.35148 0.0
C776 C 0.79545 0.21599 0.31955 0.0
C777 C 0.81259 0.22523 0.36359 0.0
C778 C 0.80111 0.22608 0.26225 0.0
C779 C 0.92447 0.33336 0.16468 0.0
O780 O 0.95296 0.34561 0.27633 0.0
O781 O 0.9175 0.32902 0.3167 0.0
O782 O 0.98555 0.31765 0.27224 0.0
O783 O 0.98075 0.32884 0.18503 0.0
O784 O 0.9539 0.31245 0.34774 0.0
O785 O 0.92644 0.28567 0.30415 0.0
O786 O 0.90109 0.2668 0.21248 0.0
O787 O 0.93851 0.27775 0.20395 0.0
O788 O 0.86913 0.28099 0.22738 0.0
O789 O 0.87712 0.28632 0.32234 0.0
O790 O 0.90326 0.32209 0.17979 0.0
O791 O 0.9328 0.32402 0.19738 0.0
H792 H 0.98939 0.35239 0.32171 0.0
H793 H 1.03338 0.36393 0.17179 0.0
H794 H 1.05283 0.40423 0.19211 0.0
H795 H 1.0062 0.39209 0.33786 0.0
H796 H 0.82569 0.25245 0.20573 0.0
H797 H 0.84632 0.25135 0.38735 0.0
H798 H 0.80911 0.21811 0.40829 0.0
H799 H 0.78881 0.21941 0.22647 0.0
Gd800 Gd 0.80417 0.6627 0.24473 0.0
Gd801 Gd 0.81664 0.63043 0.25683 0.0
C802 C 0.76843 0.61594 0.31094 0.0
C803 C 0.78883 0.68918 0.21921 0.0
C804 C 0.7664 0.68368 0.23967 0.0
C805 C 0.75774 0.67015 0.29113 0.0
C806 C 0.75199 0.6872 0.20264 0.0
C807 C 0.71991 0.66097 0.26419 0.0
C808 C 0.72894 0.67628 0.21548 0.0
C809 C 0.73478 0.65872 0.30289 0.0
C810 C 0.82342 0.66908 0.35507 0.0
C811 C 0.8558 0.67859 0.20279 0.0
C812 C 0.83657 0.60656 0.27731 0.0
C813 C 0.85833 0.60637 0.28974 0.0
C814 C 0.86802 0.59919 0.24542 0.0
C815 C 0.86816 0.61054 0.34725 0.0
C816 C 0.89591 0.59945 0.31612 0.0
C817 C 0.88666 0.60731 0.36003 0.0
C818 C 0.88644 0.59587 0.25824 0.0
C819 C 0.78075 0.61598 0.17195 0.0
O820 O 0.77059 0.6326 0.27592 0.0
O821 O 0.78676 0.61456 0.32174 0.0
O822 O 0.80355 0.69373 0.26158 0.0
O823 O 0.7887 0.67486 0.18063 0.0
O824 O 0.803 0.66476 0.34505 0.0
O825 O 0.83056 0.66449 0.30685 0.0
O826 O 0.8498 0.65741 0.2154 0.0
O827 O 0.84037 0.68484 0.20809 0.0
O828 O 0.833 0.61201 0.22372 0.0
O829 O 0.82775 0.61315 0.3192 0.0
O830 O 0.7844 0.60335 0.20842 0.0
O831 O 0.79801 0.636 0.17783 0.0
H832 H 0.76852 0.66728 0.32088 0.0
H833 H 0.7583 0.69739 0.16242 0.0
H834 H 0.71824 0.67935 0.18582 0.0
H835 H 0.72869 0.64763 0.3415 0.0
H836 H 0.86097 0.59556 0.20074 0.0
H837 H 0.8612 0.61579 0.38309 0.0
H838 H 0.89329 0.6103 0.40515 0.0
H839 H 0.89322 0.5904 0.22249 0.0
Gd840 Gd 0.51424 0.09514 0.94535 0.0
Gd841 Gd 0.56295 0.12904 0.93298 0.0
C842 C 0.52807 0.14391 0.883 0.0
C843 C 0.47479 0.0703 0.99098 0.0
C844 C 0.45912 0.07801 1.00765 0.0
C845 C 0.43583 0.06349 1.0041 0.0
C846 C 0.46773 0.10134 0.01299 0.0
C847 C 0.43055 0.09626 0.99812 0.0
C848 C 0.45363 0.11054 1.00805 0.0
C849 C 0.42155 0.07257 1.00002 0.0
C850 C 0.52806 0.08714 0.83898 0.0
C851 C 0.55161 0.08004 0.98778 0.0
C852 C 0.60609 0.15209 0.90427 0.0
C853 C 0.62825 0.15256 0.89136 0.0
C854 C 0.64408 0.15671 0.93749 0.0
C855 C 0.63527 0.15184 0.83252 0.0
C856 C 0.67275 0.15881 0.86668 0.0
C857 C 0.65696 0.15483 0.82049 0.0
C858 C 0.66581 0.15979 0.92543 0.0
C859 C 0.54358 0.14468 0.02269 0.0
O860 O 0.51262 0.12651 0.91484 0.0
O861 O 0.54811 0.1457 0.87342 0.0
O862 O 0.47864 0.07152 0.93344 0.0
O863 O 0.49333 0.07864 0.02288 0.0
O864 O 0.51029 0.08907 0.8473 0.0
O865 O 0.54009 0.09365 0.88763 0.0
O866 O 0.56729 0.10124 0.97729 0.0
O867 O 0.52999 0.07393 0.97974 0.0
O868 O 0.59832 0.14787 0.95911 0.0
O869 O 0.58968 0.1445 0.86453 0.0
O870 O 0.56474 0.15433 1.0076 0.0
O871 O 0.53503 0.12671 0.99167 0.0
H872 H 0.42891 1.04541 0.9991 0.0
H873 H 0.4857 0.11235 0.01597 0.0
H874 H 0.46093 0.12875 1.00635 0.0
H875 H 0.40379 0.06112 0.99135 0.0
H876 H 0.63983 0.15799 0.98336 0.0
H877 H 0.62412 0.14938 0.79531 0.0
H878 H 0.66153 0.15449 0.77437 0.0
H879 H 0.67718 0.16279 0.96249 0.0
Gd880 Gd 1.01624 0.44479 0.95669 0.0
Gd881 Gd 0.98588 0.45795 0.92876 0.0
C882 C 0.97119 0.41104 0.87263 0.0
C883 C 1.03401 0.42088 0.99056 0.0
C884 C 1.02338 0.39643 1.00111 0.0
C885 C 1.03678 0.38661 1.01083 0.0
C886 C 1.00007 0.38243 0.99166 0.0
C887 C 1.00478 0.34973 0.98553 0.0
C888 C 0.99072 0.35915 0.98488 0.0
C889 C 1.02751 0.36332 1.00351 0.0
C890 C 1.03659 0.47522 0.86605 0.0
C891 C 1.03242 0.49659 0.99124 0.0
C892 C 0.96432 0.48046 0.90893 0.0
C893 C 0.96546 0.50313 0.8984 0.0
C894 C 0.96108 0.51415 0.94547 0.0
C895 C 0.96798 0.51263 0.84064 0.0
C896 C 0.96061 0.54255 0.87722 0.0
C897 C 0.96579 0.53202 0.83038 0.0
C898 C 0.95879 0.53342 0.93519 0.0
C899 C 0.96805 0.42204 0.01538 0.0
O900 O 0.9878 0.41324 0.90803 0.0
O901 O 0.9688 0.42887 0.86453 0.0
O902 O 1.03336 0.42635 0.9349 0.0
O903 O 1.02882 0.43226 0.02777 0.0
O904 O 1.04599 0.47354 0.9143 0.0
O905 O 1.01498 0.46072 0.86817 0.0
O906 O 1.01503 0.49215 0.95722 0.0
O907 O 1.03547 0.47935 1.00559 0.0
O908 O 0.96899 0.4758 0.9621 0.0
O909 O 0.97035 0.47131 0.86667 0.0
O910 O 0.9572 0.42512 0.97214 0.0
O911 O 0.9879 0.43968 0.01418 0.0
H912 H 1.05477 0.3971 0.01851 0.0
H913 H 0.98929 0.38959 0.98575 0.0
H914 H 0.97317 0.34901 0.97193 0.0
H915 H 1.03893 0.35663 1.0041 0.0
H916 H 0.9588 0.5075 0.99055 0.0
H917 H 0.97104 0.50471 0.80277 0.0
H918 H 0.96736 0.5383 0.78506 0.0
H919 H 0.9554 0.5411 0.97304 0.0
Gd920 Gd 0.67223 0.59846 0.94947 0.0
Gd921 Gd 0.6576 0.55291 0.93208 0.0
C922 C 0.70591 0.58641 0.87745 0.0
C923 C 0.68953 0.63883 0.9925 0.0
C924 C 0.71371 0.65461 1.00128 0.0
C925 C 0.72192 0.67787 1.00517 0.0
C926 C 0.72901 0.64671 0.99412 0.0
C927 C 0.75976 0.68491 0.98205 0.0
C928 C 0.75194 0.66171 0.98617 0.0
C929 C 0.74487 0.69299 0.99563 0.0
C930 C 0.6522 0.58811 0.83933 0.0
C931 C 0.61941 0.56324 0.98657 0.0
C932 C 0.63642 0.50906 0.91018 0.0
C933 C 0.61472 0.48673 0.89995 0.0
C934 C 0.61175 0.46686 0.92821 0.0
C935 C 0.59778 0.48422 0.85936 0.0
C936 C 0.57574 0.44268 0.87586 0.0
C937 C 0.57865 0.46266 0.84772 0.0
C938 C 0.59278 0.44534 0.91631 0.0
C939 C 0.69436 0.57256 0.01537 0.0
O940 O 0.70469 0.60068 0.91486 0.0
O941 O 0.68709 0.56716 0.86596 0.0
O942 O 0.68376 0.63413 0.93664 0.0
O943 O 0.6806 0.62073 0.02607 0.0
O944 O 0.67223 0.6048 0.85081 0.0
O945 O 0.64509 0.57527 0.88612 0.0
O946 O 0.62518 0.54771 0.97673 0.0
O947 O 0.6351 0.58486 0.97882 0.0
O948 O 0.64125 0.51772 0.96398 0.0
O949 O 0.64405 0.52478 0.86855 0.0
O950 O 0.69022 0.55692 0.97651 0.0
O951 O 0.67737 0.57575 1.01149 0.0
H952 H 0.7104 0.68433 1.01015 0.0
H953 H 0.7231 0.62888 0.99089 0.0
H954 H 0.76308 0.6551 0.97674 0.0
H955 H 0.75041 0.71088 0.9923 0.0
H956 H 0.62444 0.4679 0.95918 0.0
H957 H 0.59942 0.4989 0.83586 0.0
H958 H 0.56638 0.4616 0.81531 0.0
H959 H 0.59143 0.4307 0.93927 0.0
Gd960 Gd 0.65194 0.88619 0.76271 0.0
Gd961 Gd 0.68248 0.9305 0.79075 0.0
C962 C 0.69982 0.89465 0.81891 0.0
C963 C 0.62919 0.84264 0.73723 0.0
C964 C 0.62862 0.82036 0.7254 0.0
C965 C 0.62892 0.80645 0.77225 0.0
C966 C 0.62468 0.81124 0.66725 0.0
C967 C 0.62186 0.7755 0.7028 0.0
C968 C 0.62139 0.78937 0.6562 0.0
C969 C 0.6256 0.78449 0.76117 0.0
C970 C 0.63338 0.90354 0.84767 0.0
C971 C 0.63852 0.92172 0.71427 0.0
C972 C 0.70448 0.96802 0.84857 0.0
C973 C 0.69604 0.98327 0.86424 0.0
C974 C 0.71111 1.00643 0.86994 0.0
C975 C 0.67288 0.97552 0.85769 0.0
C976 C 0.6808 1.01386 0.84381 0.0
C977 C 0.66516 0.99075 0.84925 0.0
C978 C 0.70351 1.02173 0.85997 0.0
C979 C 0.69405 0.92437 0.67826 0.0
O980 O 0.67867 0.87968 0.80578 0.0
O981 O 0.70595 0.9164 0.81575 0.0
O982 O 0.63311 0.85084 0.79151 0.0
O983 O 0.63704 0.85875 0.69657 0.0
O984 O 0.62274 0.88973 0.80438 0.0
O985 O 0.65337 0.90623 0.84631 0.0
O986 O 0.65326 0.93467 0.75535 0.0
O987 O 0.63834 0.90286 0.69868 0.0
O988 O 0.70664 0.96644 0.79118 0.0
O989 O 0.69453 0.94829 0.87496 0.0
O990 O 0.69086 0.94078 0.69478 0.0
O991 O 0.6874 0.90954 0.721 0.0
H992 H 0.63141 0.8124 0.81795 0.0
H993 H 0.62362 0.82087 0.62999 0.0
H994 H 0.61806 0.78316 0.61074 0.0
H995 H 0.62617 0.7746 0.79846 0.0
H996 H 0.72904 1.01272 0.87494 0.0
H997 H 0.66111 0.95776 0.85152 0.0
H998 H 0.64758 0.98429 0.8379 0.0
H999 H 0.71602 1.03954 0.85658 0.0
Gd1000 Gd 0.22818 0.7921 0.76248 0.0
Gd1001 Gd 0.18416 0.77819 0.79039 0.0
C1002 C 0.21979 0.83127 0.82069 0.0
C1003 C 0.27157 0.81246 0.73631 0.0
C1004 C 0.29373 0.8342 0.72437 0.0
C1005 C 0.3111 0.84303 0.76776 0.0
C1006 C 0.29904 0.84482 0.6677 0.0
C1007 C 0.33808 0.87243 0.69867 0.0
C1008 C 0.3207 0.86351 0.65519 0.0
C1009 C 0.33278 0.8617 0.7552 0.0
C1010 C 0.21035 0.75615 0.84875 0.0
C1011 C 0.19327 0.74381 0.7113 0.0
C1012 C 0.14554 0.76042 0.8428 0.0
C1013 C 0.12991 0.736 0.84809 0.0
C1014 C 0.10665 0.72749 0.84494 0.0
C1015 C 0.13837 0.72096 0.84555 0.0
C1016 C 0.10085 0.68978 0.82654 0.0
C1017 C 0.12393 0.69796 0.83497 0.0
C1018 C 0.09217 0.70447 0.83486 0.0
C1019 C 0.19036 0.79646 0.67812 0.0
O1020 O 0.23486 0.82554 0.80476 0.0
O1021 O 0.19814 0.81538 0.81909 0.0
O1022 O 0.26351 0.80792 0.7908 0.0
O1023 O 0.25542 0.80465 0.69613 0.0
O1024 O 0.22341 0.75856 0.80415 0.0
O1025 O 0.20835 0.77384 0.847 0.0
O1026 O 0.18034 0.74517 0.75309 0.0
O1027 O 0.21209 0.76264 0.69671 0.0
O1028 O 0.14863 0.76805 0.78813 0.0
O1029 O 0.16445 0.76819 0.87227 0.0
O1030 O 0.17468 0.77636 0.69401 0.0
O1031 O 0.20499 0.80449 0.72103 0.0
H1032 H 0.30807 0.83518 0.81153 0.0
H1033 H 0.28657 0.83839 0.6323 0.0
H1034 H 0.32395 0.87066 0.61055 0.0
H1035 H 0.34544 0.86781 0.79014 0.0
H1036 H 0.09983 0.73881 0.84598 0.0
H1037 H 0.15629 0.72719 0.84823 0.0
H1038 H 0.13094 0.68695 0.82894 0.0
H1039 H 0.07442 0.69862 0.82767 0.0
Gd1040 Gd 0.32289 0.46461 0.76492 0.0
Gd1041 Gd 0.33414 0.43245 0.79203 0.0
C1042 C 0.28206 0.4181 0.82261 0.0
C1043 C 0.30408 0.48903 0.73837 0.0
C1044 C 0.28261 0.48996 0.72981 0.0
C1045 C 0.28245 0.5098 0.74608 0.0
C1046 C 0.26269 0.47224 0.70462 0.0
C1047 C 0.24333 0.49465 0.71125 0.0
C1048 C 0.24336 0.47454 0.69559 0.0
C1049 C 0.26331 0.51214 0.7369 0.0
C1050 C 0.35911 0.48186 0.84871 0.0
C1051 C 0.37137 0.47571 0.71694 0.0
C1052 C 0.34472 0.40647 0.85078 0.0
C1053 C 0.36679 0.41076 0.87018 0.0
C1054 C 0.37107 0.39283 0.86991 0.0
C1055 C 0.38477 0.43314 0.87248 0.0
C1056 C 0.41112 0.41971 0.85852 0.0
C1057 C 0.40691 0.43756 0.86779 0.0
C1058 C 0.3931 0.39723 0.86402 0.0
C1059 C 0.31488 0.4213 0.68053 0.0
O1060 O 0.28926 0.4396 0.81016 0.0
O1061 O 0.29672 0.41093 0.818 0.0
O1062 O 0.30944 0.48622 0.79267 0.0
O1063 O 0.31017 0.47914 0.6982 0.0
O1064 O 0.35629 0.4928 0.80523 0.0
O1065 O 0.34126 0.46217 0.84846 0.0
O1066 O 0.36854 0.46022 0.7574 0.0
O1067 O 0.35334 0.47722 0.70153 0.0
O1068 O 0.34248 0.40583 0.79282 0.0
O1069 O 0.33719 0.41851 0.87657 0.0
O1070 O 0.33398 0.42295 0.69578 0.0
O1071 O 0.30835 0.42892 0.72432 0.0
H1072 H 0.29742 0.5238 0.76559 0.0
H1073 H 0.2621 0.4567 0.69139 0.0
H1074 H 0.22861 0.46073 0.67487 0.0
H1075 H 0.26418 0.5278 0.75021 0.0
H1076 H 0.35732 0.3755 0.86688 0.0
H1077 H 0.38166 0.4472 0.87171 0.0
H1078 H 0.4205 0.4549 0.86514 0.0
H1079 H 0.39539 0.38288 0.85577 0.0
Gd1080 Gd 0.57001 0.96288 0.08817 0.0
Gd1081 Gd 0.61823 0.99693 0.08184 0.0
C1082 C 0.58169 1.01181 0.03228 0.0
C1083 C 0.52675 0.94011 0.11434 0.0
C1084 C 0.50516 0.94063 0.1271 0.0
C1085 C 0.48941 0.93649 0.08095 0.0
C1086 C 0.49858 0.94243 0.18571 0.0
C1087 C 0.4611 0.93512 0.15154 0.0
C1088 C 0.47707 0.93992 0.1976 0.0
C1089 C 0.46792 0.93384 0.09286 0.0
C1090 C 0.5907 0.94839 0.99879 0.0
C1091 C 0.60329 0.94746 0.14349 0.0
C1092 C 0.65994 1.02087 0.05477 0.0
C1093 C 0.67565 1.01278 0.06815 0.0
C1094 C 0.67114 0.99844 0.11772 0.0
C1095 C 0.69268 1.0161 0.02817 0.0
C1096 C 0.69983 0.98978 0.08622 0.0
C1097 C 0.70503 1.0051 0.03779 0.0
C1098 C 0.68277 0.98684 0.12611 0.0
C1099 C 0.60255 1.00264 0.18737 0.0
O1100 O 0.56613 0.99075 0.04427 0.0
O1101 O 0.60339 1.01802 0.03974 0.0
O1102 O 0.53486 0.94466 0.05983 0.0
O1103 O 0.54282 0.94689 0.1548 0.0
O1104 O 0.56936 0.93851 0.0123 0.0
O1105 O 0.59884 0.96599 0.03136 0.0
O1106 O 0.61923 0.96541 0.11458 0.0
O1107 O 0.58299 0.9452 0.14952 0.0
O1108 O 0.65142 1.02511 0.10185 0.0
O1109 O 0.64466 1.00893 0.01463 0.0
O1110 O 0.61974 0.99963 0.18124 0.0
O1111 O 0.59159 0.99769 0.13704 0.0
H1112 H 0.49348 0.93472 0.03525 0.0
H1113 H 0.50987 0.94524 0.22285 0.0
H1114 H 0.47268 0.94105 0.24343 0.0
H1115 H 0.45655 0.93071 0.05571 0.0
H1116 H 0.65808 0.9956 0.14953 0.0
H1117 H 0.69629 1.02702 0.98954 0.0
H1118 H 0.71881 1.009 1.00753 0.0
H1119 H 0.67813 0.97544 0.16391 0.0
Gd1120 Gd 0.14871 0.63335 0.09311 0.0
Gd1121 Gd 0.11447 0.64751 0.08025 0.0
C1122 C 0.10014 0.59504 0.03831 0.0
C1123 C 0.17246 0.614 0.12214 0.0
C1124 C 0.17349 0.59263 0.13581 0.0
C1125 C 0.17967 0.58221 0.09091 0.0
C1126 C 0.1712 0.58398 0.19443 0.0
C1127 C 0.18089 0.55515 0.16237 0.0
C1128 C 0.17475 0.56561 0.20737 0.0
C1129 C 0.18332 0.56393 0.10388 0.0
C1130 C 0.1645 0.66936 1.00453 0.0
C1131 C 0.16188 0.6818 0.14911 0.0
C1132 C 0.09027 0.66141 0.02668 0.0
C1133 C 0.0975 0.68392 1.00204 0.0
C1134 C 0.08298 0.69278 1.00416 0.0
C1135 C 0.12041 0.69824 0.98856 0.0
C1136 C 0.11531 0.73077 0.99446 0.0
C1137 C 0.12924 0.72156 0.98487 0.0
C1138 C 0.09183 0.71614 1.00002 0.0
C1139 C 0.10584 0.62496 0.18608 0.0
O1140 O 0.12135 0.60081 0.04943 0.0
O1141 O 0.09376 0.61041 0.04615 0.0
O1142 O 0.16805 0.61731 0.06716 0.0
O1143 O 0.16459 0.62256 0.16168 0.0
O1144 O 0.17424 0.65784 0.0194 0.0
O1145 O 0.1464 0.65936 0.03503 0.0
O1146 O 0.14451 0.6801 0.11763 0.0
O1147 O 0.16461 0.66391 0.15493 0.0
O1148 O 0.09175 0.66092 0.08502 0.0
O1149 O 0.09833 0.65 0.99951 0.0
O1150 O 0.1059 0.64382 0.17698 0.0
O1151 O 0.11306 0.6199 0.1379 0.0
H1152 H 0.18216 0.5885 0.0454 0.0
H1153 H 0.16708 0.5917 0.23081 0.0
H1154 H 0.17319 0.55995 0.25332 0.0
H1155 H 0.18798 0.55657 0.06773 0.0
H1156 H 1.06527 0.68196 0.01477 0.0
H1157 H 0.1318 0.69158 0.98605 0.0
H1158 H 0.14712 0.73257 0.97882 0.0
H1159 H 0.08067 0.72282 1.00847 0.0
Gd1160 Gd 0.48207 0.54112 0.08791 0.0
Gd1161 Gd 0.46841 0.49342 0.07205 0.0
C1162 C 0.52075 0.53193 0.03154 0.0
C1163 C 0.50098 0.58397 0.11845 0.0
C1164 C 0.52213 0.60644 0.1316 0.0
C1165 C 0.53315 0.62264 0.08568 0.0
C1166 C 0.52987 0.61329 0.19049 0.0
C1167 C 0.55907 0.65146 0.15684 0.0
C1168 C 0.548 0.63528 0.20281 0.0
C1169 C 0.55119 0.64467 0.09804 0.0
C1170 C 0.44677 0.52262 0.9986 0.0
C1171 C 0.43301 0.50564 0.138 0.0
C1172 C 0.45414 0.45469 0.02276 0.0
C1173 C 0.4306 0.43932 1.00705 0.0
C1174 C 0.42172 0.41593 1.00926 0.0
C1175 C 0.41602 0.44818 1.00658 0.0
C1176 C 0.3843 0.41104 0.02533 0.0
C1177 C 0.39298 0.43421 0.01643 0.0
C1178 C 0.39855 0.40178 0.01751 0.0
C1179 C 0.48958 0.50558 0.17943 0.0
O1180 O 0.51441 0.54696 0.04252 0.0
O1181 O 0.5057 0.51004 0.039 0.0
O1182 O 0.49758 0.57662 0.06331 0.0
O1183 O 0.49283 0.56726 0.15763 0.0
O1184 O 0.45821 0.54359 0.01538 0.0
O1185 O 0.45634 0.51368 0.02774 0.0
O1186 O 0.43507 0.49068 0.1044 0.0
O1187 O 0.45122 0.52556 0.14867 0.0
O1188 O 0.45728 0.45778 0.08045 0.0
O1189 O 0.46406 0.47368 0.99228 0.0
O1190 O 0.46983 0.48804 0.1696 0.0
O1191 O 0.49539 0.51851 0.13206 0.0
H1192 H 0.52756 0.61845 0.0398 0.0
H1193 H 0.52164 0.60176 0.22747 0.0
H1194 H 0.55309 0.63977 0.24889 0.0
H1195 H 0.55913 0.65638 0.06124 0.0
H1196 H 0.43279 0.40884 1.01063 0.0
H1197 H 0.42303 0.46624 1.00467 0.0
H1198 H 0.38238 0.44165 0.02284 0.0
H1199 H 0.39234 0.38392 0.02531 0.0
Gd1200 Gd 0.1227 0.49798 0.56739 0.0
Gd1201 Gd 0.15179 0.54178 0.59536 0.0
C1202 C 0.16684 0.50999 0.65431 0.0
C1203 C 0.10705 0.45728 0.52879 0.0
C1204 C 0.11714 0.44292 0.52099 0.0
C1205 C 0.10309 0.41997 0.50891 0.0
C1206 C 0.14006 0.45119 0.53396 0.0
C1207 C 0.13333 0.41274 0.53699 0.0
C1208 C 0.14811 0.43614 0.54243 0.0
C1209 C 0.1112 0.405 0.51594 0.0
C1210 C 0.10096 0.50624 0.65698 0.0
C1211 C 0.10464 0.53223 0.53382 0.0
C1212 C 0.17309 0.58582 0.61504 0.0
C1213 C 0.17222 0.6074 0.62627 0.0
C1214 C 0.17689 0.62324 0.57975 0.0
C1215 C 0.1697 0.61397 0.68428 0.0
C1216 C 0.17738 0.65163 0.64896 0.0
C1217 C 0.17205 0.63553 0.69528 0.0
C1218 C 0.17932 0.64479 0.59076 0.0
C1219 C 0.17039 0.52431 0.51013 0.0
O1220 O 0.15034 0.49502 0.61998 0.0
O1221 O 0.16939 0.53036 0.65966 0.0
O1222 O 0.1052 0.46195 0.58427 0.0
O1223 O 0.11436 0.47483 0.49334 0.0
O1224 O 0.09201 0.49475 0.60898 0.0
O1225 O 0.12285 0.51475 0.6555 0.0
O1226 O 0.12197 0.54583 0.56711 0.0
O1227 O 0.10249 0.51237 0.51935 0.0
O1228 O 0.16817 0.57666 0.56184 0.0
O1229 O 0.16721 0.5705 0.65727 0.0
O1230 O 0.18079 0.53793 0.55398 0.0
O1231 O 0.15057 0.52204 0.51041 0.0
H1232 H 0.08541 0.41333 0.49853 0.0
H1233 H 0.1513 0.469 0.54207 0.0
H1234 H 0.16515 0.44254 0.55888 0.0
H1235 H 0.09922 0.38707 0.51208 0.0
H1236 H 0.17924 0.6192 0.53454 0.0
H1237 H 0.16646 0.60264 0.72177 0.0
H1238 H 0.17041 0.63986 0.74078 0.0
H1239 H 0.18282 0.65617 0.55327 0.0
Gd1240 Gd 0.61959 0.6491 0.57131 0.0
Gd1241 Gd 0.57442 0.63446 0.59373 0.0
C1242 C 0.60904 0.68404 0.64235 0.0
C1243 C 0.65819 0.66367 0.51975 0.0
C1244 C 0.67391 0.68673 0.50026 0.0
C1245 C 0.69686 0.69404 0.49348 0.0
C1246 C 0.6665 0.70251 0.49915 0.0
C1247 C 0.70511 0.73312 0.49813 0.0
C1248 C 0.68202 0.72553 0.49644 0.0
C1249 C 0.71246 0.7172 0.4924 0.0
C1250 C 0.61082 0.62909 0.68234 0.0
C1251 C 0.58452 0.59627 0.53686 0.0
C1252 C 0.53085 0.61284 0.61941 0.0
C1253 C 0.50882 0.59078 0.63182 0.0
C1254 C 0.49354 0.57835 0.58543 0.0
C1255 C 0.50128 0.5835 0.69083 0.0
C1256 C 0.4643 0.55216 0.6566 0.0
C1257 C 0.47961 0.56469 0.70292 0.0
C1258 C 0.47181 0.55952 0.59752 0.0
C1259 C 0.59285 0.67089 0.50906 0.0
O1260 O 0.62277 0.68236 0.60371 0.0
O1261 O 0.59004 0.66522 0.6568 0.0
O1262 O 0.65548 0.66157 0.57752 0.0
O1263 O 0.63906 0.65352 0.49089 0.0
O1264 O 0.6275 0.64895 0.66877 0.0
O1265 O 0.59728 0.62215 0.63703 0.0
O1266 O 0.56896 0.60185 0.54841 0.0
O1267 O 0.60598 0.61202 0.54361 0.0
O1268 O 0.53906 0.61742 0.56501 0.0
O1269 O 0.54694 0.62132 0.65983 0.0
O1270 O 0.57779 0.66687 0.54961 0.0
O1271 O 0.59606 0.65386 0.51209 0.0
H1272 H 0.70282 0.682 0.49462 0.0
H1273 H 0.64886 0.69711 0.50509 0.0
H1274 H 0.67618 0.73751 0.49811 0.0
H1275 H 0.73024 0.72246 0.49448 0.0
H1276 H 0.49818 0.58346 0.53934 0.0
H1277 H 0.51196 0.59276 0.72822 0.0
H1278 H 0.47464 0.56038 0.74917 0.0
H1279 H 0.46085 0.55064 0.56023 0.0
Gd1280 Gd 0.46525 0.99836 0.57294 0.0
Gd1281 Gd 0.47966 0.96421 0.58999 0.0
C1282 C 0.42982 0.95013 0.6377 0.0
C1283 C 0.45267 1.02377 0.51922 0.0
C1284 C 0.4303 1.01806 0.49741 0.0
C1285 C 0.42342 1.03419 0.49958 0.0
C1286 C 0.41417 0.99516 0.49055 0.0
C1287 C 0.38446 1.00382 0.50704 0.0
C1288 C 0.39128 0.98794 0.49626 0.0
C1289 C 0.40047 1.02708 0.50355 0.0
C1290 C 0.48626 1.00656 0.68073 0.0
C1291 C 0.51746 1.01244 0.53267 0.0
C1292 C 0.50028 0.94198 0.62261 0.0
C1293 C 0.52262 0.94268 0.6348 0.0
C1294 C 0.53502 0.94024 0.58776 0.0
C1295 C 0.53043 0.94287 0.69347 0.0
C1296 C 0.56158 0.93733 0.65747 0.0
C1297 C 0.54959 0.94044 0.70453 0.0
C1298 C 0.55405 0.9377 0.59881 0.0
C1299 C 0.44495 0.94814 0.49908 0.0
O1300 O 0.43206 0.96751 0.60473 0.0
O1301 O 0.44787 0.94799 0.64826 0.0
O1302 O 0.45375 1.02262 0.5775 0.0
O1303 O 0.46236 1.01402 0.49138 0.0
O1304 O 0.46723 1.00591 0.67017 0.0
O1305 O 0.4922 0.99989 0.63321 0.0
O1306 O 0.51161 0.99117 0.5437 0.0
O1307 O 0.50231 1.019 0.54051 0.0
O1308 O 0.49568 0.94461 0.56727 0.0
O1309 O 0.49181 0.95031 0.66106 0.0
O1310 O 0.4561 0.93829 0.51639 0.0
O1311 O 0.45447 0.96637 0.52907 0.0
H1312 H 0.43571 0.05198 0.50499 0.0
H1313 H 0.41956 0.98283 0.48759 0.0
H1314 H 0.37922 0.96999 0.49831 0.0
H1315 H 0.39558 1.03966 0.51244 0.0
H1316 H 0.52973 0.93974 0.54186 0.0
H1317 H 0.52136 0.94431 0.73124 0.0
H1318 H 0.5546 0.94028 0.75042 0.0
H1319 H 0.56287 0.93597 0.56089 0.0
Gd1320 Gd 0.18404 0.42978 0.28243 0.0
Gd1321 Gd 0.23239 0.46362 0.26912 0.0
C1322 C 0.19721 0.47855 0.22109 0.0
C1323 C 0.14415 0.40526 0.32432 0.0
C1324 C 0.12724 0.4123 0.33275 0.0
C1325 C 0.10974 0.40515 0.291 0.0
C1326 C 0.13109 0.42972 0.37282 0.0
C1327 C 0.10277 0.43515 0.32235 0.0
C1328 C 0.11888 0.44107 0.36755 0.0
C1329 C 0.09779 0.41657 0.28554 0.0
C1330 C 0.1978 0.422 0.17566 0.0
C1331 C 0.22125 0.41505 0.32699 0.0
C1332 C 0.2752 0.48559 0.23704 0.0
C1333 C 0.29677 0.48484 0.2245 0.0
C1334 C 0.31396 0.49236 0.26823 0.0
C1335 C 0.30182 0.47927 0.16795 0.0
C1336 C 0.34064 0.48963 0.19916 0.0
C1337 C 0.32323 0.48142 0.15575 0.0
C1338 C 0.33529 0.49464 0.25597 0.0
C1339 C 0.21332 0.47926 0.36005 0.0
O1340 O 0.18202 0.46089 0.25255 0.0
O1341 O 0.21743 0.48077 0.2111 0.0
O1342 O 0.14921 0.40456 0.2683 0.0
O1343 O 0.16199 0.41479 0.35898 0.0
O1344 O 0.18025 0.42429 0.18395 0.0
O1345 O 0.20971 0.42821 0.22446 0.0
O1346 O 0.23687 0.43622 0.31567 0.0
O1347 O 0.19962 0.40883 0.31899 0.0
O1348 O 0.26804 0.48283 0.29241 0.0
O1349 O 0.25838 0.47751 0.19853 0.0
O1350 O 0.2344 0.48904 0.34376 0.0
O1351 O 0.20471 0.46128 0.32899 0.0
H1352 H 0.10625 0.39163 0.25993 0.0
H1353 H 0.14427 0.43536 0.4062 0.0
H1354 H 0.12231 0.45475 0.39759 0.0
H1355 H 0.08475 0.41092 0.25188 0.0
H1356 H 0.31113 0.49709 0.31215 0.0
H1357 H 0.28939 0.47371 0.13249 0.0
H1358 H 0.32642 0.47734 0.11142 0.0
H1359 H 0.34775 0.50051 0.29139 0.0
Gd1360 Gd 0.68609 0.77862 0.26987 0.0
Gd1361 Gd 0.65327 0.7933 0.26484 0.0
C1362 C 0.63658 0.74344 0.2146 0.0
C1363 C 0.71046 0.76143 0.2987 0.0
C1364 C 0.70147 0.73695 0.30495 0.0
C1365 C 0.70547 0.72544 0.25933 0.0
C1366 C 0.6848 0.72444 0.34775 0.0
C1367 C 0.67555 0.68937 0.29793 0.0
C1368 C 0.67219 0.70088 0.34475 0.0
C1369 C 0.69244 0.70203 0.25523 0.0
C1370 C 0.69294 0.80063 0.16422 0.0
C1371 C 0.70245 0.83052 0.31804 0.0
C1372 C 0.62988 0.81328 0.23837 0.0
C1373 C 0.62887 0.83472 0.22645 0.0
C1374 C 0.61879 0.84211 0.26912 0.0
C1375 C 0.63546 0.8467 0.17168 0.0
C1376 C 0.62126 0.87217 0.20251 0.0
C1377 C 0.63192 0.86521 0.1602 0.0
C1378 C 0.61511 0.8604 0.25752 0.0
C1379 C 0.63823 0.7586 0.35625 0.0
O1380 O 0.65426 0.7455 0.24469 0.0
O1381 O 0.63486 0.7618 0.20577 0.0
O1382 O 0.70954 0.76776 0.24408 0.0
O1383 O 0.70381 0.77094 0.33846 0.0
O1384 O 0.68853 0.77991 0.17046 0.0
O1385 O 0.6878 0.80655 0.21429 0.0
O1386 O 0.68129 0.82526 0.3087 0.0
O1387 O 0.70823 0.81483 0.30809 0.0
O1388 O 0.63447 0.80967 0.29283 0.0
O1389 O 0.63747 0.80481 0.19785 0.0
O1390 O 0.62905 0.77071 0.3423 0.0
O1391 O 0.65568 0.76701 0.32309 0.0
H1392 H 0.71795 0.73465 0.22501 0.0
H1393 H 0.68076 0.73297 0.38186 0.0
H1394 H 0.65965 0.69155 0.37853 0.0
H1395 H 0.69603 0.69395 0.21891 0.0
H1396 H 0.61323 0.83335 0.3116 0.0
H1397 H 0.64301 0.84155 0.13716 0.0
H1398 H 0.63697 0.8737 0.11727 0.0
H1399 H 0.60736 0.86532 0.29205 0.0
Gd1400 Gd 0.33626 0.93013 0.2931 0.0
Gd1401 Gd 0.32069 0.8846 0.26642 0.0
C1402 C 0.36948 0.91945 0.21494 0.0
C1403 C 0.35388 0.96837 0.34779 0.0
C1404 C 0.37803 0.98409 0.35547 0.0
C1405 C 0.38607 1.00735 0.35501 0.0
C1406 C 0.3933 0.97607 0.34919 0.0
C1407 C 0.42313 1.01391 0.32589 0.0
C1408 C 0.41583 0.99095 0.33483 0.0
C1409 C 0.40861 1.02225 0.34094 0.0
C1410 C 0.31681 0.92267 0.18162 0.0
C1411 C 0.28361 0.89573 0.32651 0.0
C1412 C 0.29866 0.84112 0.23978 0.0
C1413 C 0.27672 0.81925 0.2268 0.0
C1414 C 0.25789 0.81005 0.26567 0.0
C1415 C 0.27548 0.80588 0.1774 0.0
C1416 C 0.23772 0.77472 0.20659 0.0
C1417 C 0.25651 0.78415 0.1676 0.0
C1418 C 0.23876 0.7883 0.25561 0.0
C1419 C 0.35711 0.90224 0.34995 0.0
O1420 O 0.36856 0.93305 0.25535 0.0
O1421 O 0.35054 0.90054 0.2013 0.0
O1422 O 0.34719 0.9659 0.2923 0.0
O1423 O 0.34584 0.94908 0.37603 0.0
O1424 O 0.33654 0.93927 0.19654 0.0
O1425 O 0.3094 0.9086 0.22598 0.0
O1426 O 0.2885 0.87992 0.31151 0.0
O1427 O 0.29974 0.91721 0.3229 0.0
O1428 O 0.30293 0.8491 0.29434 0.0
O1429 O 0.30745 0.85734 0.19953 0.0
O1430 O 0.35335 0.88782 0.30777 0.0
O1431 O 0.34001 0.9052 0.34852 0.0
H1432 H 0.37455 1.01381 0.35971 0.0
H1433 H 0.38737 0.95813 0.34943 0.0
H1434 H 0.42677 0.98422 0.32405 0.0
H1435 H 0.4138 1.03994 0.33429 0.0
H1436 H 0.25811 0.81947 0.30475 0.0
H1437 H 0.28959 0.81203 0.14673 0.0
H1438 H 0.25662 0.77463 0.12912 0.0
H1439 H 0.22507 0.78184 0.28761 0.0
C1440 C 0.3055 0.08343 0.99082 0.0
C1441 C 0.28935 0.08678 0.02167 0.0
C1442 C 0.30182 0.06144 0.97716 0.0
C1443 C 0.28156 1.04137 0.9925 0.0
H1444 H 0.32133 0.09799 0.9773 0.0
H1445 H 0.31497 0.06024 0.95348 0.0
S1446 S 0.23327 1.04037 0.07204 0.0
N1447 N 0.25196 0.06759 0.0662 0.0
N1448 N 0.24502 1.02693 0.04061 0.0
C1449 C 0.26531 1.04454 0.02352 0.0
C1450 C 0.26916 0.06689 0.03791 0.0
C1451 C 1.0589 0.2682 0.02005 0.0
C1452 C 0.07665 0.2648 1.00047 0.0
C1453 C 1.03688 0.24979 0.0328 0.0
C1454 C 1.03116 0.22692 0.0251 0.0
H1455 H 1.06195 0.2853 0.02459 0.0
H1456 H 1.02398 0.25355 0.04684 0.0
S1457 S 0.07155 0.20843 0.97768 0.0
N1458 N 0.08682 0.23634 0.97665 0.0
N1459 N 1.04606 0.2023 0.99953 0.0
C1460 C 1.04895 0.22336 1.0069 0.0
C1461 C 0.07139 0.24203 0.99502 0.0
C1462 C 0.84974 0.81526 0.97005 0.0
C1463 C 0.84868 0.83423 0.99174 0.0
C1464 C 0.86813 0.81169 0.98301 0.0
C1465 C 0.88661 0.82675 0.01896 0.0
H1466 H 0.83641 0.80317 0.94142 0.0
H1467 H 0.86782 0.7969 0.96446 0.0
S1468 S 0.89295 0.87946 0.08619 0.0
N1469 N 0.86849 0.86846 0.05093 0.0
N1470 N 0.90255 0.86185 0.075 0.0
C1471 C 0.88569 0.84568 0.04137 0.0
C1472 C 0.86701 0.84937 0.02792 0.0
C1473 C 0.08035 0.27707 0.54863 0.0
C1474 C 1.06057 0.25885 0.52363 0.0
C1475 C 0.10232 0.28074 0.53642 0.0
C1476 C 0.10603 0.2666 0.49763 0.0
H1477 H 0.07886 0.28838 0.57963 0.0
H1478 H 0.11659 0.29491 0.55772 0.0
S1479 S 1.06036 0.21621 0.42023 0.0
N1480 N 1.04663 0.22635 0.45786 0.0
N1481 N 0.08742 0.23323 0.43468 0.0
C1482 C 0.08644 0.24848 0.47158 0.0
C1483 C 1.06401 0.24462 0.48453 0.0
C1484 C 0.83316 0.84614 0.52999 0.0
C1485 C 0.85012 0.86674 0.50481 0.0
C1486 C 0.83684 0.82774 0.54271 0.0
C1487 C 0.85754 0.82856 0.53018 0.0
H1488 H 0.817 0.84438 0.54174 0.0
H1489 H 0.8234 0.81286 0.56399 0.0
S1490 S 0.90718 0.87786 0.45995 0.0
N1491 N 0.88828 0.8861 0.46498 0.0
N1492 N 0.89505 0.85202 0.48832 0.0
C1493 C 0.87443 0.84886 0.50346 0.0
C1494 C 0.87078 0.86766 0.49103 0.0
C1495 C 0.2681 1.01286 0.54134 0.0
C1496 C 0.25077 1.00921 0.50046 0.0
C1497 C 0.28629 1.03487 0.55444 0.0
C1498 C 0.28842 0.05473 0.52768 0.0
H1499 H 0.26757 0.99854 0.564 0.0
H1500 H 0.29849 1.03633 0.58756 0.0
S1501 S 0.24748 0.05516 0.41859 0.0
N1502 N 0.23704 1.02803 0.43409 0.0
N1503 N 0.27093 0.06881 0.4581 0.0
C1504 C 0.2713 0.05134 0.48643 0.0
C1505 C 0.25274 1.0289 0.47298 0.0
C1506 C 0.87045 0.04963 0.98019 0.0
C1507 C 0.85768 0.0528 0.02488 0.0
C1508 C 0.86682 1.02775 0.96527 0.0
C1509 C 0.85061 1.00789 0.99528 0.0
H1510 H 0.88354 0.06419 0.95669 0.0
H1511 H 0.87727 1.02647 0.93096 0.0
S1512 S 0.81249 1.00621 0.11527 0.0
N1513 N 0.82745 1.03328 0.09742 0.0
N1514 N 0.82142 0.9931 0.07099 0.0
C1515 C 0.83767 1.01082 0.03946 0.0
C1516 C 0.84097 1.03289 0.05373 0.0
C1517 C 0.10449 0.84838 0.03181 0.0
C1518 C 0.10828 0.8684 1.00254 0.0
C1519 C 0.08241 0.83023 0.04398 0.0
C1520 C 1.0627 0.83104 0.02861 0.0
H1521 H 0.11876 0.84661 0.04519 0.0
H1522 H 0.08086 0.81548 0.06673 0.0
S1523 S 1.06293 0.8798 0.95257 0.0
N1524 N 0.08997 0.88782 0.95905 0.0
N1525 N 1.04898 0.8542 0.98225 0.0
C1526 C 1.06626 0.85096 0.99912 0.0
C1527 C 0.08876 0.86938 0.98615 0.0
C1528 C 0.27186 0.24861 0.98438 0.0
C1529 C 0.28704 0.26058 0.0315 0.0
C1530 C 0.25343 0.25195 0.969 0.0
C1531 C 0.24873 0.26706 1.00082 0.0
H1532 H 0.27408 0.23633 0.95924 0.0
H1533 H 0.2424 0.24212 0.93277 0.0
S1534 S 0.2826 0.30274 0.12742 0.0
N1535 N 0.29564 0.28877 0.10882 0.0
N1536 N 0.26133 0.29441 0.08069 0.0
C1537 C 0.26382 0.27922 0.04733 0.0
C1538 C 0.28276 0.2762 0.06232 0.0
C1539 C 0.07045 0.84584 0.53961 0.0
C1540 C 0.07399 0.83505 0.49026 0.0
C1541 C 1.04865 0.84234 0.55451 0.0
C1542 C 1.02924 0.82829 0.51998 0.0
H1543 H 0.08469 0.85727 0.56695 0.0
H1544 H 1.04712 0.85122 0.59258 0.0
S1545 S 1.02853 0.79634 0.38596 0.0
N1546 N 1.05525 0.80937 0.40723 0.0
N1547 N 1.0152 0.80338 0.43477 0.0
C1548 C 1.0325 0.81733 0.47112 0.0
C1549 C 1.05448 0.82051 0.45649 0.0
C1550 C 0.30318 0.24995 0.53147 0.0
C1551 C 0.28555 0.22719 0.53563 0.0
C1552 C 0.29893 0.26797 0.51919 0.0
C1553 C 0.27683 0.26422 0.50979 0.0
H1554 H 0.3205 0.25391 0.53744 0.0
H1555 H 0.31322 0.28497 0.51541 0.0
S1556 S 0.2246 0.2078 0.51445 0.0
N1557 N 0.24499 0.20217 0.5288 0.0
N1558 N 0.2371 0.23553 0.50578 0.0
C1559 C 0.25906 0.24158 0.51482 0.0
C1560 C 0.26338 0.22329 0.52749 0.0
C1561 C 0.88104 0.06635 0.56165 0.0
C1562 C 0.8886 0.08522 0.52264 0.0
C1563 C 0.86268 1.04452 0.54666 0.0
C1564 C 0.85045 1.04048 0.49259 0.0
H1565 H 0.88975 0.06829 0.6036 0.0
H1566 H 0.85803 1.03068 0.57783 0.0
S1567 S 0.86334 0.08416 0.37491 0.0
N1568 N 0.882 0.09804 0.4276 0.0
N1569 N 0.84802 0.05795 0.39993 0.0
C1570 C 0.85773 0.05939 0.45391 0.0
C1571 C 0.87654 0.08136 0.46871 0.0
C1572 C 0.93136 0.39473 0.38722 0.0
C1573 C 0.94843 0.41503 0.36099 0.0
C1574 C 0.92798 0.37311 0.37047 0.0
C1575 C 0.94175 0.37065 0.32742 0.0
H1576 H 0.92016 0.39548 0.42009 0.0
H1577 H 0.91437 0.3582 0.39146 0.0
S1578 S 0.9894 0.41879 0.24737 0.0
N1579 N 0.97968 0.43114 0.29162 0.0
N1580 N 0.97339 0.39133 0.2597 0.0
C1581 C 0.95907 0.391 0.30191 0.0
C1582 C 0.96237 0.41284 0.31872 0.0
C1583 C 0.74197 0.57959 0.37 0.0
C1584 C 0.74496 0.59721 0.33054 0.0
C1585 C 0.72017 0.56127 0.3851 0.0
C1586 C 0.70012 0.55932 0.36081 0.0
H1587 H 0.75664 0.57978 0.38905 0.0
H1588 H 0.71907 0.54819 0.41491 0.0
S1589 S 0.6977 0.60079 0.258 0.0
N1590 N 0.72499 0.61113 0.26924 0.0
N1591 N 0.68487 0.57738 0.29793 0.0
C1592 C 0.70283 0.57694 0.32252 0.0
C1593 C 0.72487 0.59557 0.3074 0.0
C1594 C 0.53138 0.17905 0.36972 0.0
C1595 C 0.51503 0.16581 0.32617 0.0
C1596 C 0.54996 0.17585 0.384 0.0
C1597 C 0.55354 0.15954 0.3547 0.0
H1598 H 0.53002 0.19227 0.39264 0.0
H1599 H 0.56198 0.18674 0.41724 0.0
S1600 S 0.51625 0.12019 0.23806 0.0
N1601 N 0.50412 0.13519 0.2548 0.0
N1602 N 0.53858 0.1296 0.28147 0.0
C1603 C 0.53722 0.14603 0.31202 0.0
C1604 C 0.51821 0.14902 0.2979 0.0
C1605 C 0.77094 0.61395 0.86486 0.0
C1606 C 0.77449 0.59863 0.83062 0.0
C1607 C 0.749 0.6102 0.87755 0.0
C1608 C 0.72911 0.59079 0.85735 0.0
H1609 H 0.78533 0.62914 0.88208 0.0
H1610 H 0.74768 0.6226 0.90457 0.0
S1611 S 0.7285 0.54483 0.76717 0.0
N1612 N 0.75565 0.56285 0.77737 0.0
N1613 N 0.71487 0.5559 0.80112 0.0
C1614 C 0.73238 0.57536 0.82276 0.0
C1615 C 0.75478 0.57925 0.80949 0.0
C1616 C 0.50333 0.16242 0.88023 0.0
C1617 C 0.52363 0.16295 0.86415 0.0
C1618 C 0.49949 0.18072 0.86812 0.0
C1619 C 0.51557 0.20061 0.83821 0.0
H1620 H 0.49027 0.14779 0.90344 0.0
H1621 H 0.4836 0.17914 0.88203 0.0
S1622 S 0.57176 0.21129 0.7864 0.0
N1623 N 0.56015 0.18574 0.81646 0.0
N1624 N 0.55297 0.21959 0.79356 0.0
C1625 C 0.53584 0.2013 0.82123 0.0
C1626 C 0.53984 0.18275 0.83408 0.0
C1627 C 0.93586 0.34561 0.8539 0.0
C1628 C 0.91565 0.34163 0.82563 0.0
C1629 C 0.95391 0.36784 0.86614 0.0
C1630 C 0.95282 0.38754 0.85189 0.0
H1631 H 0.93787 0.33136 0.86653 0.0
H1632 H 0.96883 0.36956 0.88776 0.0
S1633 S 0.90357 0.38696 0.7786 0.0
N1634 N 0.89588 0.3599 0.78426 0.0
N1635 N 0.92921 0.40102 0.80734 0.0
C1636 C 0.93276 0.38379 0.82316 0.0
C1637 C 0.91447 0.36118 0.8102 0.0
C1638 C 0.53378 0.36069 0.30407 0.0
C1639 C 0.51767 0.34123 0.33586 0.0
C1640 C 0.5381 0.38293 0.3178 0.0
C1641 C 0.52626 0.387 0.36339 0.0
H1642 H 0.54359 0.35882 0.26897 0.0
H1643 H 0.55094 0.39708 0.29251 0.0
S1644 S 0.48173 0.34192 0.45929 0.0
N1645 N 0.48939 0.32791 0.41421 0.0
N1646 N 0.4974 0.36881 0.44022 0.0
C1647 C 0.50985 0.36755 0.39476 0.0
C1648 C 0.50563 0.34507 0.38109 0.0
C1649 C 0.74608 0.15868 0.37779 0.0
C1650 C 0.72627 0.15922 0.36191 0.0
C1651 C 0.76811 0.17684 0.36451 0.0
C1652 C 0.77169 0.19649 0.33342 0.0
H1653 H 0.74466 0.14417 0.40169 0.0
H1654 H 0.7825 0.17537 0.37845 0.0
S1655 S 0.726 0.20698 0.28114 0.0
N1656 N 0.71228 0.18172 0.31284 0.0
N1657 N 0.75308 0.2152 0.28766 0.0
C1658 C 0.75207 0.19712 0.31647 0.0
C1659 C 0.72967 0.17878 0.33058 0.0
C1660 C 0.93365 0.61006 0.36607 0.0
C1661 C 0.91505 0.5948 0.33098 0.0
C1662 C 0.95139 0.6059 0.38149 0.0
C1663 C 0.95161 0.58616 0.36348 0.0
H1664 H 0.93462 0.62553 0.38175 0.0
H1665 H 0.96492 0.61825 0.40881 0.0
S1666 S 0.90672 0.54019 0.27214 0.0
N1667 N 0.89799 0.55869 0.27937 0.0
N1668 N 0.93101 0.551 0.30818 0.0
C1669 C 0.93313 0.57075 0.3282 0.0
C1670 C 0.91508 0.57503 0.31208 0.0
C1671 C 0.73787 0.18182 0.86515 0.0
C1672 C 0.74068 0.1674 0.82494 0.0
C1673 C 0.7162 0.17884 0.87944 0.0
C1674 C 0.696 0.16149 0.85359 0.0
H1675 H 0.75262 0.19584 0.88531 0.0
H1676 H 0.71534 0.19067 0.90995 0.0
S1677 S 0.69303 0.11866 0.74726 0.0
N1678 N 0.72033 0.13449 0.76081 0.0
N1679 N 0.68047 0.12922 0.78767 0.0
C1680 C 0.69852 0.14679 0.81442 0.0
C1681 C 0.72044 0.14962 0.80021 0.0
C1682 C 0.96682 0.59881 0.81467 0.0
C1683 C 0.94821 0.59985 0.83872 0.0
C1684 C 0.97076 0.58059 0.82727 0.0
C1685 C 0.95651 0.56239 0.86544 0.0
H1686 H 0.97828 0.61197 0.78453 0.0
H1687 H 0.98521 0.58083 0.80677 0.0
S1688 S 0.90528 0.5564 0.94049 0.0
N1689 N 0.91536 0.5805 0.90328 0.0
N1690 N 0.92271 0.5468 0.92678 0.0
C1691 C 0.93805 0.56339 0.89057 0.0
C1692 C 0.93394 0.58184 0.87736 0.0
C1693 C 0.55787 0.40006 0.85395 0.0
C1694 C 0.55537 0.41924 0.86283 0.0
C1695 C 0.53924 0.37832 0.84035 0.0
C1696 C 0.51687 0.3743 0.83497 0.0
H1697 H 0.57453 0.40191 0.85608 0.0
H1698 H 0.5426 0.36462 0.83233 0.0
S1699 S 0.50048 0.41801 0.86089 0.0
N1700 N 0.52811 0.43197 0.86991 0.0
N1701 N 0.4936 0.39171 0.84463 0.0
C1702 C 0.5141 0.39317 0.84594 0.0
C1703 C 0.53307 0.41533 0.85955 0.0
C1704 C 0.60436 0.73243 0.72233 0.0
C1705 C 0.61919 0.75223 0.68968 0.0
C1706 C 0.60129 0.71068 0.70774 0.0
C1707 C 0.6133 0.70755 0.66065 0.0
H1708 H 0.59458 0.73363 0.75865 0.0
H1709 H 0.58929 0.69616 0.73357 0.0
S1710 S 0.65466 0.75416 0.56259 0.0
N1711 N 0.64622 0.76705 0.60898 0.0
N1712 N 0.64102 0.72717 0.58208 0.0
C1713 C 0.62852 0.72744 0.62876 0.0
C1714 C 0.63128 0.74935 0.64304 0.0
C1715 C 0.38162 0.89327 0.70245 0.0
C1716 C 0.36143 0.89277 0.68522 0.0
C1717 C 0.40335 0.91184 0.68834 0.0
C1718 C 0.4063 0.93131 0.65723 0.0
H1719 H 0.38066 0.87886 0.7258 0.0
H1720 H 0.41802 0.91071 0.7014 0.0
S1721 S 0.35882 0.93925 0.60591 0.0
N1722 N 0.34607 0.914 0.63725 0.0
N1723 N 0.38618 0.94893 0.61342 0.0
C1724 C 0.38614 0.93129 0.64189 0.0
C1725 C 0.36408 0.91215 0.65504 0.0
C1726 C 0.20841 0.52275 0.66488 0.0
C1727 C 0.18569 0.50583 0.67401 0.0
C1728 C 0.22659 0.51893 0.67665 0.0
C1729 C 0.22322 0.49804 0.69919 0.0
H1730 H 0.21223 0.53902 0.64653 0.0
H1731 H 0.24352 0.53248 0.66686 0.0
S1732 S 0.16727 0.44936 0.74085 0.0
N1733 N 0.16103 0.46791 0.71187 0.0
N1734 N 0.195 0.46104 0.73651 0.0
C1735 C 0.20057 0.48123 0.71072 0.0
C1736 C 0.18197 0.48503 0.69761 0.0
C1737 C 0.41255 0.94215 0.21741 0.0
C1738 C 0.39253 0.92386 0.19368 0.0
C1739 C 0.43432 0.94568 0.20362 0.0
C1740 C 0.43749 0.93124 0.16475 0.0
H1741 H 0.41145 0.95369 0.24834 0.0
H1742 H 0.44884 0.95994 0.22379 0.0
S1743 S 0.39103 0.88043 0.09099 0.0
N1744 N 0.37775 0.89091 0.1293 0.0
N1745 N 0.41823 0.89746 0.10348 0.0
C1746 C 0.41767 0.91298 0.1402 0.0
C1747 C 0.39544 0.90931 0.15458 0.0
C1748 C 0.20333 0.53411 0.15308 0.0
C1749 C 0.18462 0.53523 0.17612 0.0
C1750 C 0.20715 0.51586 0.16676 0.0
C1751 C 0.19219 0.49732 0.20307 0.0
H1752 H 0.21551 0.54778 0.12519 0.0
H1753 H 0.22212 0.51641 0.14886 0.0
S1754 S 0.14 0.49133 0.27248 0.0
N1755 N 0.15078 0.51564 0.23632 0.0
N1756 N 0.15714 0.48134 0.25961 0.0
C1757 C 0.17307 0.49801 0.22482 0.0
C1758 C 0.16954 0.51683 0.21211 0.0
C1759 C 0.59923 0.7169 0.16015 0.0
C1760 C 0.61746 0.7199 0.19678 0.0
C1761 C 0.58074 0.69502 0.14643 0.0
C1762 C 0.57909 0.67492 0.17004 0.0
H1763 H 0.59914 0.73159 0.14193 0.0
H1764 H 0.56734 0.6939 0.11816 0.0
S1765 S 0.62171 0.67262 0.26749 0.0
N1766 N 0.63247 0.69989 0.25382 0.0
N1767 N 0.59759 0.65971 0.23117 0.0
C1768 C 0.59711 0.67768 0.20634 0.0
C1769 C 0.6162 0.69976 0.21879 0.0
C1770 C 0.17049 0.70054 0.71455 0.0
C1771 C 0.18864 0.72058 0.6902 0.0
C1772 C 0.16693 0.67866 0.70095 0.0
C1773 C 0.18119 0.67537 0.66159 0.0
H1774 H 0.1591 0.70171 0.74584 0.0
H1775 H 0.15275 0.66414 0.72164 0.0
S1776 S 0.23155 0.72194 0.58583 0.0
N1777 N 0.2212 0.73527 0.62442 0.0
N1778 N 0.21465 0.69468 0.5991 0.0
C1779 C 0.19928 0.69525 0.63632 0.0
C1780 C 0.20296 0.71757 0.65047 0.0
C1781 C 0.42111 0.52858 0.63958 0.0
C1782 C 0.44075 0.53183 0.66991 0.0
C1783 C 0.39907 0.51038 0.65365 0.0
C1784 C 0.39529 0.49398 0.69814 0.0
H1785 H 0.42265 0.54062 0.60554 0.0
H1786 H 0.38481 0.50936 0.62974 0.0
S1787 S 0.4409 0.49415 0.79016 0.0
N1788 N 0.45455 0.51631 0.74592 0.0
N1789 N 0.41397 0.48263 0.772 0.0
C1790 C 0.41491 0.49678 0.72774 0.0
C1791 C 0.43723 0.51543 0.71386 0.0
C1792 C 0.61673 0.94303 0.72471 0.0
C1793 C 0.61964 0.92628 0.69537 0.0
C1794 C 0.59826 0.94648 0.71237 0.0
C1795 C 0.58154 0.93351 0.6695 0.0
H1796 H 0.62863 0.95338 0.75883 0.0
H1797 H 0.59716 0.95957 0.73675 0.0
S1798 S 0.5803 0.88681 0.58094 0.0
N1799 N 0.60342 0.89623 0.62172 0.0
N1800 N 0.56911 0.90257 0.59875 0.0
C1801 C 0.58424 0.91673 0.63964 0.0
C1802 C 0.60302 0.91314 0.65249 0.0
C1803 C 0.36769 0.47733 0.15501 0.0
C1804 C 0.36433 0.49362 0.18524 0.0
C1805 C 0.38964 0.4809 0.14211 0.0
C1806 C 0.40964 0.50115 0.15759 0.0
H1807 H 0.35317 0.4615 0.14153 0.0
H1808 H 0.39086 0.46765 0.11897 0.0
S1809 S 0.41057 0.54975 0.23557 0.0
N1810 N 0.38342 0.53111 0.2293 0.0
N1811 N 0.42401 0.53785 0.205 0.0
C1812 C 0.40645 0.51754 0.18791 0.0
C1813 C 0.38415 0.51381 0.20155 0.0
C1814 C 0.633 0.91204 0.16397 0.0
C1815 C 0.61641 0.89137 0.18943 0.0
C1816 C 0.62882 0.93006 0.15171 0.0
C1817 C 0.60774 0.92851 0.16295 0.0
H1818 H 0.64955 0.91446 0.15381 0.0
H1819 H 0.6423 0.94535 0.13242 0.0
S1820 S 0.55806 0.87784 0.2281 0.0
N1821 N 0.57768 0.8705 0.22502 0.0
N1822 N 0.56989 0.90392 0.20146 0.0
C1823 C 0.59098 0.90792 0.18862 0.0
C1824 C 0.59529 0.8896 0.2018 0.0
C1825 C 0.22144 0.73283 0.17947 0.0
C1826 C 0.21776 0.75071 0.19645 0.0
C1827 C 0.20343 0.71063 0.16745 0.0
C1828 C 0.18052 0.70493 0.17047 0.0
H1829 H 0.23855 0.73599 0.17523 0.0
H1830 H 0.2076 0.69798 0.15342 0.0
S1831 S 0.16095 0.74483 0.21387 0.0
N1832 N 0.18875 0.76046 0.21699 0.0
N1833 N 0.15531 0.71929 0.19333 0.0
C1834 C 0.17648 0.72246 0.18828 0.0
C1835 C 0.19486 0.74504 0.20155 0.0
C1836 C 0.40689 0.23527 0.17764 0.0
C1837 C 0.3835 0.21972 0.17081 0.0
C1838 C 0.42311 0.22817 0.18701 0.0
C1839 C 0.4171 0.20503 0.18983 0.0
H1840 H 0.41289 0.25326 0.17546 0.0
H1841 H 0.44064 0.24112 0.19224 0.0
S1842 S 0.35819 0.157 0.17476 0.0
N1843 N 0.35547 0.17964 0.16775 0.0
N1844 N 0.3854 0.16656 0.185 0.0
C1845 C 0.39375 0.1893 0.18302 0.0
C1846 C 0.37724 0.19651 0.17366 0.0
C1847 C 0.91801 0.20619 0.16408 0.0
C1848 C 0.89493 0.18893 0.16302 0.0
C1849 C 0.92501 0.22949 0.1738 0.0
C1850 C 0.9094 0.23711 0.18278 0.0
H1851 H 0.93097 0.20172 0.15721 0.0
H1852 H 0.94293 0.24161 0.17481 0.0
S1853 S 0.84679 0.1992 0.18354 0.0
N1854 N 0.85652 0.18176 0.17157 0.0
N1855 N 0.86926 0.22462 0.18921 0.0
C1856 C 0.88624 0.21997 0.18137 0.0
C1857 C 0.87917 0.19632 0.17175 0.0
C1858 C 0.88855 0.71932 0.18441 0.0
C1859 C 0.88071 0.69583 0.18921 0.0
C1860 C 0.91179 0.73564 0.17555 0.0
C1861 C 0.92887 0.72966 0.17119 0.0
H1862 H 0.87661 0.7253 0.18793 0.0
H1863 H 0.91634 0.75325 0.17173 0.0
S1864 S 0.91797 0.6705 0.18048 0.0
N1865 N 0.8927 0.66768 0.18864 0.0
N1866 N 0.93562 0.6979 0.17225 0.0
C1867 C 0.92129 0.70622 0.176 0.0
C1868 C 0.89761 0.68958 0.18489 0.0
C1869 C 0.2516 0.40399 0.34886 0.0
C1870 C 0.22851 0.39752 0.34141 0.0
C1871 C 0.25895 0.38795 0.35819 0.0
C1872 C 0.24372 0.36432 0.36001 0.0
H1873 H 0.26432 0.42176 0.34732 0.0
H1874 H 0.27682 0.39424 0.36436 0.0
S1875 S 0.18128 0.33785 0.34263 0.0
N1876 N 0.1905 0.36523 0.3366 0.0
N1877 N 0.20394 0.33555 0.35331 0.0
C1878 C 0.22056 0.35763 0.35241 0.0
C1879 C 0.2131 0.37396 0.34338 0.0
C1880 C 0.71363 0.87168 0.34459 0.0
C1881 C 0.72014 0.85525 0.33316 0.0
C1882 C 0.72958 0.89501 0.35478 0.0
C1883 C 0.75321 0.90365 0.354 0.0
H1884 H 0.69587 0.86652 0.34553 0.0
H1885 H 0.72319 0.90637 0.36391 0.0
S1886 S 0.77989 0.86857 0.32335 0.0
N1887 N 0.75257 0.85015 0.32027 0.0
N1888 N 0.78205 0.89326 0.33848 0.0
C1889 C 0.75998 0.88747 0.34203 0.0
C1890 C 0.74373 0.86368 0.33192 0.0
C1891 C 0.24171 0.86617 0.34126 0.0
C1892 C 0.25914 0.88915 0.34073 0.0
C1893 C 0.21864 0.85956 0.3506 0.0
C1894 C 0.2114 0.87549 0.35961 0.0
H1895 H 0.24585 0.85298 0.33396 0.0
H1896 H 0.20633 0.84166 0.35072 0.0
S1897 S 0.24987 0.93796 0.36381 0.0
N1898 N 0.267 0.9279 0.35122 0.0
N1899 N 0.22426 0.91568 0.36839 0.0
C1900 C 0.22865 0.89854 0.35957 0.0
C1901 C 0.25218 0.90527 0.35029 0.0
C1902 C 0.75655 0.89539 0.85061 0.0
C1903 C 0.75099 0.87237 0.84795 0.0
C1904 C 0.7402 0.90237 0.84211 0.0
C1905 C 0.71711 0.88681 0.83078 0.0
H1906 H 0.7738 0.90831 0.85985 0.0
H1907 H 0.74583 0.92028 0.84442 0.0
S1908 S 0.69312 0.82442 0.81809 0.0
N1909 N 0.72014 0.83406 0.83187 0.0
N1910 N 0.68993 0.84687 0.81667 0.0
C1911 C 0.71134 0.86374 0.82771 0.0
C1912 C 0.72801 0.85666 0.836 0.0
C1913 C 0.25067 0.87324 0.83488 0.0
C1914 C 0.22746 0.85628 0.83455 0.0
C1915 C 0.25823 0.89667 0.84471 0.0
C1916 C 0.24311 0.90488 0.85438 0.0
H1917 H 0.26333 0.86841 0.82731 0.0
H1918 H 0.27623 0.90847 0.84491 0.0
S1919 S 0.18041 0.86799 0.85866 0.0
N1920 N 0.18946 0.85006 0.84553 0.0
N1921 N 0.20326 0.89321 0.86338 0.0
C1922 C 0.21982 0.88806 0.85419 0.0
C1923 C 0.21217 0.86422 0.84451 0.0
C1924 C 0.22623 0.36193 0.85627 0.0
C1925 C 0.20881 0.36745 0.85257 0.0
C1926 C 0.24943 0.37823 0.84763 0.0
C1927 C 0.25695 0.40128 0.83484 0.0
H1928 H 0.222 0.34473 0.86675 0.0
H1929 H 0.26163 0.37256 0.85106 0.0
S1930 S 0.21864 0.42508 0.81697 0.0
N1931 N 0.20126 0.39812 0.83284 0.0
N1932 N 0.24428 0.42839 0.81697 0.0
C1933 C 0.23973 0.40706 0.83028 0.0
C1934 C 0.21601 0.39038 0.83896 0.0
C1935 C 0.91497 0.73286 0.66124 0.0
C1936 C 0.8922 0.72759 0.66896 0.0
C1937 C 0.92208 0.71657 0.66947 0.0
C1938 C 0.90694 0.69391 0.68645 0.0
H1939 H 0.9276 0.74985 0.64808 0.0
H1940 H 0.93977 0.72199 0.66343 0.0
S1941 S 0.84532 0.67057 0.71215 0.0
N1942 N 0.85454 0.6973 0.69413 0.0
N1943 N 0.86763 0.66724 0.71012 0.0
C1944 C 0.88411 0.68838 0.69426 0.0
C1945 C 0.87686 0.70492 0.6854 0.0
C1946 C 0.40742 0.1993 0.67755 0.0
C1947 C 0.3841 0.19137 0.6691 0.0
C1948 C 0.42348 0.22261 0.68762 0.0
C1949 C 0.41738 0.23969 0.68985 0.0
H1950 H 0.41349 0.18736 0.6762 0.0
H1951 H 0.44095 0.22722 0.69425 0.0
S1952 S 0.35869 0.22868 0.66909 0.0
N1953 N 0.35608 0.20337 0.66281 0.0
N1954 N 0.38575 0.24637 0.68161 0.0
C1955 C 0.39413 0.23202 0.68115 0.0
C1956 C 0.37777 0.20829 0.67086 0.0
C1957 C 0.91733 0.2354 0.67387 0.0
C1958 C 0.92528 0.21986 0.66846 0.0
C1959 C 0.89404 0.22829 0.68291 0.0
C1960 C 0.87704 0.20514 0.68683 0.0
H1961 H 0.92921 0.25338 0.67061 0.0
H1962 H 0.88935 0.24123 0.68699 0.0
S1963 S 0.88829 0.15716 0.67698 0.0
N1964 N 0.9135 0.17978 0.66886 0.0
N1965 N 0.87054 0.16671 0.68536 0.0
C1966 C 0.88477 0.18943 0.68175 0.0
C1967 C 0.90847 0.19665 0.67275 0.0
C1968 C 0.07456 0.56803 0.52177 0.0
C1969 C 1.05205 0.5525 0.50508 0.0
C1970 C 0.09118 0.5614 0.52964 0.0
C1971 C 0.08661 0.53888 0.52033 0.0
H1972 H 0.07949 0.58559 0.529 0.0
H1973 H 0.10794 0.57426 0.54333 0.0
S1974 S 1.03061 0.49118 0.47544 0.0
N1975 N 1.02643 0.51299 0.4793 0.0
N1976 N 1.05737 0.50105 0.49318 0.0
C1977 C 1.06427 0.52321 0.50311 0.0
C1978 C 1.04723 0.52984 0.4958 0.0
C1979 C 0.55475 0.55402 0.52205 0.0
C1980 C 0.5777 0.57155 0.52256 0.0
C1981 C 0.54809 0.53083 0.51191 0.0
C1982 C 0.56391 0.52354 0.50162 0.0
H1983 H 0.54163 0.55819 0.52987 0.0
H1984 H 0.53023 0.51851 0.51161 0.0
S1985 S 0.62629 0.5622 0.49814 0.0
N1986 N 0.61627 0.57931 0.51163 0.0
N1987 N 0.60404 0.53658 0.4928 0.0
C1988 C 0.58693 0.54092 0.50204 0.0
C1989 C 0.59369 0.56449 0.51238 0.0
C1990 C 0.5827 1.03951 0.515 0.0
C1991 C 0.59072 0.06269 0.50296 0.0
C1992 C 0.55931 1.02358 0.52311 0.0
C1993 C 0.54231 1.02969 0.51917 0.0
H1994 H 0.59463 1.03348 0.51823 0.0
H1995 H 0.55458 1.00621 0.53318 0.0
S1996 S 0.55354 0.08789 0.48509 0.0
N1997 N 0.57889 0.09055 0.48571 0.0
N1998 N 0.53569 0.06098 0.49997 0.0
C1999 C 0.55004 0.05274 0.50622 0.0
C2000 C 0.57385 0.06901 0.49845 0.0
C2001 C 0.5893 0.05241 1.01107 0.0
C2002 C 0.5739 1.02897 0.01787 0.0
C2003 C 0.58203 0.06857 1.00285 0.0
C2004 C 0.55887 0.06241 1.0009 0.0
H2005 H 0.60726 0.05848 0.01272 0.0
H2006 H 0.59488 0.08619 0.99765 0.0
S2007 S 0.5112 1.0033 0.01545 0.0
N2008 N 0.53386 1.0007 0.02131 0.0
N2009 N 0.52062 1.0306 1.00596 0.0
C2010 C 0.54331 1.03903 1.00727 0.0
C2011 C 0.55066 1.02258 0.0156 0.0
C2012 C 0.07186 0.52906 0.02445 0.0
C2013 C 1.04942 0.52159 1.00588 0.0
C2014 C 0.08799 0.55248 0.03334 0.0
C2015 C 0.08278 0.57006 0.02459 0.0
H2016 H 0.07722 0.51672 0.03139 0.0
H2017 H 0.10479 0.5568 0.04789 0.0
S2018 S 1.02651 0.56022 0.97588 0.0
N2019 N 1.02315 0.53452 0.97917 0.0
N2020 N 1.05294 0.57761 0.99564 0.0
C2021 C 1.06039 0.5628 1.00614 0.0
C2022 C 1.04401 0.53902 0.99692 0.0
C2023 C 0.55426 0.52502 0.01259 0.0
C2024 C 0.54587 0.54021 0.01778 0.0
C2025 C 0.57767 0.53255 1.00367 0.0
C2026 C 0.59445 0.55581 0.99963 0.0
H2027 H 0.54262 0.50698 0.01586 0.0
H2028 H 0.5826 0.51979 0.99969 0.0
S2029 S 0.58219 0.60308 1.01016 0.0
N2030 N 0.55715 0.5802 0.01789 0.0
N2031 N 0.60029 0.59396 1.00151 0.0
C2032 C 0.58633 0.57119 1.00472 0.0
C2033 C 0.56249 0.56355 0.01364 0.0
C2034 C 0.37953 0.25872 0.90965 0.0
C2035 C 0.38137 0.26076 0.97279 0.0
C2036 C 0.39886 0.26785 0.87103 0.0
C2037 C 0.42139 0.2799 0.89282 0.0
H2038 H 0.36292 0.25093 0.88946 0.0
H2039 H 0.39605 0.26678 0.82319 0.0
S2040 S 0.4361 0.29071 0.05405 0.0
N2041 N 0.40822 0.27593 0.05443 0.0
N2042 N 0.4438 0.29327 0.98317 0.0
C2043 C 0.4234 0.28165 0.95584 0.0
C2044 C 0.40377 0.27211 0.99511 0.0
C2045 C 0.82968 0.13811 0.9706 0.0
C2046 C 0.85255 0.14363 0.96513 0.0
C2047 C 0.8196 0.14768 0.93371 0.0
C2048 C 0.83141 0.16358 0.88773 0.0
H2049 H 0.81895 0.12563 1.00327 0.0
H2050 H 0.80183 0.14186 0.94033 0.0
S2051 S 0.89198 0.18471 0.85266 0.0
N2052 N 0.88696 0.16699 0.909 0.0
N2053 N 0.86813 0.18469 0.83979 0.0
C2054 C 0.85456 0.1699 0.88226 0.0
C2055 C 0.86499 0.16009 0.92052 0.0
C2056 C 0.95286 0.72114 0.86473 0.0
C2057 C 0.94768 0.69848 0.87667 0.0
C2058 C 0.9625 0.73882 0.90792 0.0
C2059 C 0.96738 0.73515 0.96684 0.0
H2060 H 0.95048 0.72566 0.81989 0.0
H2061 H 0.96728 0.75586 0.89384 0.0
S2062 S 0.95629 0.67916 0.02491 0.0
N2063 N 0.94762 0.67365 0.95473 0.0
N2064 N 0.96526 0.70635 0.03529 0.0
C2065 C 0.96133 0.71238 0.98058 0.0
C2066 C 0.95158 0.6943 0.93622 0.0
C2067 C 0.28758 0.38159 0.54256 0.0
C2068 C 0.27647 0.35933 0.56696 0.0
C2069 C 0.29854 0.40151 0.579 0.0
C2070 C 0.29886 0.40055 0.64237 0.0
H2071 H 0.28922 0.38368 0.49447 0.0
H2072 H 0.30779 0.41782 0.557 0.0
S2073 S 0.27256 0.34685 0.72992 0.0
N2074 N 0.26697 0.33815 0.6599 0.0
N2075 N 0.28658 0.3748 0.72706 0.0
C2076 C 0.28719 0.37845 0.6672 0.0
C2077 C 0.27636 0.35824 0.63018 0.0
C2078 C 0.71703 0.94625 0.5867 0.0
C2079 C 0.71326 0.93026 0.63234 0.0
C2080 C 0.73626 0.95566 0.54853 0.0
C2081 C 0.75357 0.94995 0.55232 0.0
H2082 H 0.70514 0.95225 0.58129 0.0
H2083 H 0.73775 0.96815 0.516 0.0
S2084 S 0.75268 0.90858 0.66323 0.0
N2085 N 0.72913 0.90886 0.67803 0.0
N2086 N 0.76489 0.92628 0.60664 0.0
C2087 C 0.74985 0.93339 0.59658 0.0
C2088 C 0.73001 0.92372 0.6361 0.0
C2089 C 0.15015 0.81402 0.60182 0.0
C2090 C 0.16309 0.83112 0.55941 0.0
C2091 C 0.15945 0.80405 0.63996 0.0
C2092 C 0.18261 0.81032 0.6395 0.0
H2093 H 0.13213 0.8076 0.60456 0.0
H2094 H 0.14794 0.79075 0.66987 0.0
S2095 S 0.22497 0.85494 0.53894 0.0
N2096 N 0.2012 0.85434 0.52085 0.0
N2097 N 0.21862 0.83595 0.59275 0.0
C2098 C 0.19616 0.82805 0.5989 0.0
C2099 C 0.18653 0.83826 0.55919 0.0
C2100 C 0.7347 0.81445 0.1436 0.0
C2101 C 0.71505 0.81559 0.12916 0.0
C2102 C 0.75384 0.82278 0.1051 0.0
C2103 C 0.75517 0.83342 0.04954 0.0
H2104 H 0.7349 0.80587 0.18422 0.0
H2105 H 0.76756 0.82005 0.11829 0.0
S2106 S 0.70922 0.84226 0.98989 0.0
N2107 N 0.69885 0.82911 0.05423 0.0
N2108 N 0.73473 0.84541 0.98373 0.0
C2109 C 0.73615 0.83579 0.03558 0.0
C2110 C 0.71632 0.82681 0.07455 0.0
C2111 C 0.29205 0.95865 0.11713 0.0
C2112 C 0.28168 0.94856 0.06209 0.0
C2113 C 0.30173 0.94927 0.15622 0.0
C2114 C 0.30197 0.92907 0.14336 0.0
H2115 H 0.29379 0.97483 0.12895 0.0
H2116 H 0.31011 0.95865 0.1962 0.0
S2117 S 0.27673 0.89493 1.00614 0.0
N2118 N 0.27189 0.91627 0.99804 0.0
N2119 N 0.28994 0.89881 0.07083 0.0
C2120 C 0.29089 0.91816 0.08961 0.0
C2121 C 0.28087 0.92777 0.04949 0.0
C2122 C 0.17511 0.37912 0.15921 0.0
C2123 C 0.19253 0.40064 0.13962 0.0
C2124 C 0.16481 0.35976 0.12117 0.0
C2125 C 0.17131 0.36024 0.06077 0.0
H2126 H 0.16823 0.37753 0.20369 0.0
H2127 H 0.15055 0.34444 0.13856 0.0
S2128 S 0.21675 0.41191 0.98637 0.0
N2129 N 0.21611 0.42072 0.05466 0.0
N2130 N 0.19744 0.38473 0.98451 0.0
C2131 C 0.1895 0.38137 0.04132 0.0
C2132 C 0.19982 0.40127 0.08004 0.0
C2133 C 0.86205 0.73136 0.40984 0.0
C2134 C 0.85738 0.73063 0.47191 0.0
C2135 C 0.85284 0.7114 0.37342 0.0
C2136 C 0.83788 0.68939 0.39634 0.0
H2137 H 0.87206 0.74768 0.38836 0.0
H2138 H 0.85634 0.71345 0.3259 0.0
S2139 S 0.81954 0.67756 0.55512 0.0
N2140 N 0.83661 0.70527 0.55369 0.0
N2141 N 0.81911 0.66867 0.4863 0.0
C2142 C 0.83343 0.68846 0.45834 0.0
C2143 C 0.84312 0.70863 0.49548 0.0
C2144 C 0.40153 0.16332 0.48113 0.0
C2145 C 0.38026 0.14433 0.46606 0.0
C2146 C 0.42064 0.17236 0.44138 0.0
C2147 C 0.41962 0.16312 0.38388 0.0
H2148 H 0.40387 0.17049 0.52543 0.0
H2149 H 0.43663 0.18607 0.45707 0.0
S2150 S 0.36787 0.11431 0.32054 0.0
N2151 N 0.35976 0.11738 0.38766 0.0
N2152 N 0.39458 0.13433 0.31406 0.0
C2153 C 0.39819 0.1448 0.36779 0.0
C2154 C 0.37899 0.13549 0.40822 0.0
C2155 C 0.95834 0.2738 0.49413 0.0
C2156 C 0.96586 0.25919 0.47245 0.0
C2157 C 0.94741 0.28255 0.45697 0.0
C2158 C 0.94284 0.27711 0.39551 0.0
H2159 H 0.96203 0.27957 0.53997 0.0
H2160 H 0.94347 0.29473 0.47617 0.0
S2161 S 0.95894 0.23962 0.31493 0.0
N2162 N 0.96771 0.23979 0.38398 0.0
N2163 N 0.94709 0.25564 0.31536 0.0
C2164 C 0.9496 0.26189 0.37363 0.0
C2165 C 0.96104 0.25317 0.41145 0.0
C2166 C 0.08726 0.6131 0.2895 0.0
C2167 C 0.08668 0.60815 0.22776 0.0
C2168 C 1.06777 0.60244 0.32723 0.0
C2169 C 1.04603 0.58631 0.3059 0.0
H2170 H 0.10283 0.62643 0.30846 0.0
H2171 H 0.06952 0.60812 0.37307 0.0
S2172 S 1.0343 0.56678 0.14823 0.0
N2173 N 1.06172 0.58505 0.1481 0.0
N2174 N 1.02558 0.56587 0.21755 0.0
C2175 C 1.04524 0.58069 0.24472 0.0
C2176 C 1.06523 0.59128 0.20639 0.0
C2177 C 0.51538 0.46967 0.23806 0.0
C2178 C 0.52597 0.47936 0.29315 0.0
C2179 C 0.50574 0.47948 0.20013 0.0
C2180 C 0.50555 0.49967 0.21446 0.0
H2181 H 0.51368 0.45362 0.22491 0.0
H2182 H 0.4972 0.47036 0.16 0.0
S2183 S 0.53122 0.53268 0.353 0.0
N2184 N 0.53614 0.51134 0.35882 0.0
N2185 N 0.51766 0.5292 0.28907 0.0
C2186 C 0.51668 0.51003 0.26863 0.0
C2187 C 0.52688 0.50012 0.3072 0.0
C2188 C 0.6227 1.04132 0.32745 0.0
C2189 C 0.6285 0.06328 0.30675 0.0
C2190 C 0.61251 1.02175 0.29009 0.0
C2191 C 0.60696 1.02246 0.22925 0.0
H2192 H 0.62747 1.03942 0.3724 0.0
H2193 H 0.61007 1.00595 0.30846 0.0
S2194 S 0.61793 0.07542 0.15148 0.0
N2195 N 0.62737 0.08409 0.21992 0.0
N2196 N 0.60797 0.04778 0.15105 0.0
C2197 C 0.61175 1.04414 0.20852 0.0
C2198 C 0.62249 0.06423 0.24655 0.0
C2199 C 0.49471 1.02505 0.78386 0.0
C2200 C 0.50207 1.02534 0.72451 0.0
C2201 C 0.50483 1.04437 0.82199 0.0
C2202 C 0.52291 0.0657 0.80349 0.0
H2203 H 0.47997 1.00992 0.80023 0.0
H2204 H 0.49732 1.04294 0.86553 0.0
S2205 S 0.54953 0.07637 0.65327 0.0
N2206 N 0.52974 0.04938 0.65047 0.0
N2207 N 0.54808 0.08536 0.72072 0.0
C2208 C 0.53106 0.06613 0.74504 0.0
C2209 C 0.52092 1.04623 0.70627 0.0
C2210 C 1.06129 0.48588 0.70389 0.0
C2211 C 0.08505 0.50074 0.71124 0.0
C2212 C 1.04547 0.47847 0.75213 0.0
C2213 C 1.05225 0.48563 0.81134 0.0
H2214 H 1.05464 0.47926 0.65998 0.0
H2215 H 1.02791 0.46645 0.74301 0.0
S2216 S 0.11175 0.52645 0.8562 0.0
N2217 N 0.1138 0.52334 0.78369 0.0
N2218 N 0.08476 0.51033 0.87315 0.0
C2219 C 0.07581 0.50136 0.81897 0.0
C2220 C 0.09191 0.50865 0.7698 0.0
C2221 C 0.61124 0.60855 0.78057 0.0
C2222 C 0.61707 0.61379 0.71934 0.0
C2223 C 0.62099 0.59844 0.81795 0.0
C2224 C 0.63749 0.59328 0.79677 0.0
H2225 H 0.59976 0.6132 0.80068 0.0
H2226 H 0.61652 0.59593 0.86489 0.0
S2227 S 0.6588 0.6033 0.64042 0.0
N2228 N 0.64032 0.61219 0.64001 0.0
N2229 N 0.65872 0.59426 0.70915 0.0
C2230 C 0.64304 0.59805 0.73551 0.0
C2231 C 0.63291 0.60793 0.69745 0.0
C2232 C 0.26397 0.26304 0.24549 0.0
C2233 C 0.27222 0.27215 0.3033 0.0
C2234 C 0.27338 0.25229 0.2092 0.0
C2235 C 0.29203 0.24969 0.22695 0.0
H2236 H 0.24985 0.26418 0.22756 0.0
H2237 H 0.26578 0.24589 0.16595 0.0
S2238 S 0.31562 0.26313 0.3807 0.0
N2239 N 0.29786 0.27296 0.3799 0.0
N2240 N 0.31506 0.25342 0.31292 0.0
C2241 C 0.29963 0.25745 0.28585 0.0
C2242 C 0.28999 0.26837 0.32313 0.0
C2243 C 0.84373 0.05254 0.22563 0.0
C2244 C 0.86731 0.06836 0.2238 0.0
C2245 C 0.83367 1.03167 0.2602 0.0
C2246 C 0.84626 1.02519 0.29824 0.0
H2247 H 0.83296 0.05599 0.1978 0.0
H2248 H 0.81566 1.02044 0.25721 0.0
S2249 S 0.90902 0.06001 0.31141 0.0
N2250 N 0.90299 0.07469 0.26327 0.0
N2251 N 0.8847 1.03759 0.32986 0.0
C2252 C 0.86996 1.04097 0.29678 0.0
C2253 C 0.88019 0.06169 0.25981 0.0
C2254 C 1.06796 0.82577 0.20973 0.0
C2255 C 1.0476 0.8255 0.22546 0.0
C2256 C 0.08839 0.83644 0.2453 0.0
C2257 C 0.09048 0.84848 0.29902 0.0
H2258 H 0.06863 0.8186 0.16765 0.0
H2259 H 0.10281 0.83535 0.22992 0.0
S2260 S 1.04447 0.85806 0.35472 0.0
N2261 N 1.03288 0.84177 0.29581 0.0
N2262 N 0.07028 0.86197 0.35995 0.0
C2263 C 0.07084 0.84993 0.31248 0.0
C2264 C 1.05001 0.83872 0.27679 0.0
C2265 C 0.84608 0.82226 0.70837 0.0
C2266 C 0.86561 0.82134 0.72684 0.0
C2267 C 0.83612 0.83299 0.74266 0.0
C2268 C 0.84534 0.84439 0.79759 0.0
H2269 H 0.83865 0.81519 0.66567 0.0
H2270 H 0.82113 0.83257 0.72526 0.0
S2271 S 0.89813 0.8501 0.8639 0.0
N2272 N 0.89449 0.83489 0.80335 0.0
N2273 N 0.87693 0.8552 0.86531 0.0
C2274 C 0.86548 0.84448 0.81503 0.0
C2275 C 0.87529 0.83324 0.78063 0.0
C2276 C 0.29036 1.04628 0.81227 0.0
C2277 C 0.27083 1.02571 0.79469 0.0
C2278 C 0.30032 0.06681 0.77677 0.0
C2279 C 0.29105 0.06871 0.72149 0.0
H2280 H 0.29789 0.04682 0.85503 0.0
H2281 H 0.31532 0.08151 0.79354 0.0
S2282 S 0.23803 1.02132 0.6574 0.0
N2283 N 0.24178 1.01 0.71871 0.0
N2284 N 0.25928 0.04763 0.65461 0.0
C2285 C 0.27084 0.04858 0.70499 0.0
C2286 C 0.26106 1.02767 0.74059 0.0
C2287 C 0.06873 0.25499 0.69975 0.0
C2288 C 1.04703 0.25003 0.72069 0.0
C2289 C 0.08901 0.26609 0.73542 0.0
C2290 C 0.08946 0.27319 0.7954 0.0
H2291 H 0.07015 0.25012 0.65473 0.0
H2292 H 0.10466 0.26904 0.7154 0.0
S2293 S 1.03665 0.25958 0.87778 0.0
N2294 N 1.02738 0.2506 0.80955 0.0
N2295 N 1.06437 0.27076 0.87537 0.0
C2296 C 1.06763 0.26743 0.81754 0.0
C2297 C 1.04699 0.25622 0.78098 0.0
C2298 C 0.93282 0.5799 0.64705 0.0
C2299 C 0.93723 0.60248 0.6382 0.0
C2300 C 0.94356 0.5699 0.6133 0.0
C2301 C 0.96041 0.58178 0.56903 0.0
H2302 H 0.92066 0.56951 0.68079 0.0
H2303 H 0.93864 0.55245 0.62277 0.0
S2304 S 0.97897 0.64156 0.52711 0.0
N2305 N 0.95941 0.63589 0.5779 0.0
N2306 N 0.98099 0.61851 0.52039 0.0
C2307 C 0.9653 0.60455 0.56038 0.0
C2308 C 0.95349 0.61437 0.59288 0.0
C2309 C 0.53316 0.38226 0.54203 0.0
C2310 C 0.53415 0.40299 0.55769 0.0
C2311 C 0.5221 0.36195 0.5779 0.0
C2312 C 0.51103 0.36046 0.6329 0.0
H2313 H 0.54105 0.38158 0.5008 0.0
H2314 H 0.52224 0.34706 0.56186 0.0
S2315 S 0.51413 0.41142 0.70401 0.0
N2316 N 0.52609 0.4212 0.6384 0.0
N2317 N 0.50591 0.38414 0.70478 0.0
C2318 C 0.51296 0.3815 0.65053 0.0
C2319 C 0.5242 0.4022 0.61368 0.0
C2320 C 0.73242 0.15529 0.54395 0.0
C2321 C 0.71205 0.15472 0.5612 0.0
C2322 C 0.753 0.16579 0.57899 0.0
C2323 C 0.75529 0.17755 0.63331 0.0
H2324 H 0.7328 0.14817 0.5014 0.0
H2325 H 0.76749 0.1651 0.56232 0.0
S2326 S 0.70873 0.18493 0.69559 0.0
N2327 N 0.69707 0.16928 0.63571 0.0
N2328 N 0.73482 0.18949 0.69841 0.0
C2329 C 0.73541 0.1782 0.64926 0.0
C2330 C 0.7144 0.16702 0.61434 0.0
C2331 C 0.50189 0.16591 0.08044 0.0
C2332 C 0.51138 0.1775 0.13494 0.0
C2333 C 0.5121 0.15572 0.04489 0.0
C2334 C 0.53208 0.15537 0.06176 0.0
H2335 H 0.48658 0.16508 0.0641 0.0
H2336 H 0.50458 0.14881 1.00221 0.0
S2337 S 0.56574 0.18543 0.19623 0.0
N2338 N 0.54399 0.18964 0.19971 0.0
N2339 N 0.56181 0.17001 0.13594 0.0
C2340 C 0.54206 0.16755 0.115 0.0
C2341 C 0.53208 0.1784 0.15047 0.0
C2342 C 0.92379 0.36341 0.09143 0.0
C2343 C 0.93636 0.35602 0.12652 0.0
C2344 C 0.93397 0.38424 0.05721 0.0
C2345 C 0.95761 0.4002 0.05689 0.0
H2346 H 0.90561 0.35275 0.08954 0.0
H2347 H 0.92293 0.3879 0.03059 0.0
S2348 S 0.99889 0.38976 0.13847 0.0
N2349 N 0.9747 0.36669 0.15348 0.0
N2350 N 0.99288 0.40634 0.09809 0.0
C2351 C 0.97023 0.39332 0.09315 0.0
C2352 C 0.96002 0.37142 0.12505 0.0
C2353 C 0.75228 0.58646 0.09451 0.0
C2354 C 0.75969 0.60664 0.12837 0.0
C2355 C 0.73186 0.57611 0.05894 0.0
C2356 C 0.71616 0.58413 0.05664 0.0
H2357 H 0.76256 0.57849 0.09495 0.0
H2358 H 0.7282 0.56121 0.03339 0.0
S2359 S 0.72563 0.63521 0.13926 0.0
N2360 N 0.74859 0.63403 0.15514 0.0
N2361 N 0.70963 0.61308 0.09729 0.0
C2362 C 0.72285 0.60363 0.0924 0.0
C2363 C 0.74441 0.61507 0.12548 0.0
C2364 C 0.6012 0.9122 0.87693 0.0
C2365 C 0.62308 0.91514 0.88795 0.0
C2366 C 0.59134 0.92283 0.9119 0.0
C2367 C 0.60271 0.93806 0.95987 0.0
H2368 H 0.59132 0.90136 0.84047 0.0
H2369 H 0.57444 0.91915 0.90048 0.0
S2370 S 0.66002 0.95127 1.0099 0.0
N2371 N 0.65488 0.93351 0.95463 0.0
N2372 N 0.63796 0.95492 0.01518 0.0
C2373 C 0.6247 0.94128 0.97089 0.0
C2374 C 0.63429 0.92958 0.93687 0.0
C2375 C 0.18261 0.69233 0.90546 0.0
C2376 C 0.17489 0.69171 0.96492 0.0
C2377 C 0.19358 0.71266 0.86939 0.0
C2378 C 0.19795 0.73433 0.88944 0.0
H2379 H 0.18022 0.67676 0.88614 0.0
H2380 H 0.19879 0.71129 0.82469 0.0
S2381 S 0.18579 0.7443 0.04466 0.0
N2382 N 0.1755 0.71662 0.04312 0.0
N2383 N 0.19559 0.75371 0.97688 0.0
C2384 C 0.19099 0.7342 0.94917 0.0
C2385 C 0.17981 0.71348 0.98603 0.0
C2386 C 0.40405 0.49151 0.97674 0.0
C2387 C 0.42441 0.51153 0.96002 0.0
C2388 C 0.38346 0.48178 0.94183 0.0
C2389 C 0.38123 0.49178 0.8881 0.0
H2390 H 0.40361 0.48358 0.01882 0.0
H2391 H 0.36897 0.4664 0.95802 0.0
S2392 S 0.42796 0.54619 0.827 0.0
N2393 N 0.43953 0.54172 0.88659 0.0
N2394 N 0.40184 0.52471 0.82383 0.0
C2395 C 0.40116 0.51244 0.8726 0.0
C2396 C 0.42213 0.52197 0.90749 0.0
C2397 C 0.1689 0.49564 0.42672 0.0
C2398 C 0.18091 0.51267 0.47044 0.0
C2399 C 0.17887 0.48463 0.39317 0.0
C2400 C 0.2018 0.49002 0.39923 0.0
H2401 H 0.15149 0.49072 0.41817 0.0
H2402 H 0.16853 0.47196 0.36096 0.0
S2403 S 0.2415 0.53336 0.50656 0.0
N2404 N 0.21784 0.53384 0.51688 0.0
N2405 N 0.23602 0.5143 0.45421 0.0
C2406 C 0.21399 0.50716 0.44226 0.0
C2407 C 0.20383 0.51801 0.47717 0.0
C2408 C 0.63127 0.71802 0.3879 0.0
C2409 C 0.6274 0.73649 0.39648 0.0
C2410 C 0.62015 0.6971 0.42201 0.0
C2411 C 0.60464 0.69312 0.46921 0.0
H2412 H 0.64281 0.71962 0.35321 0.0
H2413 H 0.62386 0.68385 0.41131 0.0
S2414 S 0.5886 0.73593 0.51397 0.0
N2415 N 0.60632 0.74857 0.45808 0.0
N2416 N 0.58667 0.71093 0.52217 0.0
C2417 C 0.60079 0.71162 0.47859 0.0
C2418 C 0.61173 0.7326 0.44298 0.0
C2419 C 0.40289 0.93809 0.47512 0.0
C2420 C 0.42273 0.93731 0.45992 0.0
C2421 C 0.3822 0.9273 0.44072 0.0
C2422 C 0.37946 0.91437 0.38836 0.0
H2423 H 0.40309 0.94671 0.51532 0.0
H2424 H 0.36808 0.92894 0.45602 0.0
S2425 S 0.42545 0.90571 0.32784 0.0
N2426 N 0.43723 0.92154 0.3874 0.0
N2427 N 0.39949 0.90152 0.32456 0.0
C2428 C 0.39909 0.91315 0.37319 0.0
C2429 C 0.42009 0.92426 0.40809 0.0
C2430 C 0.35776 0.38802 0.16674 0.0
C2431 C 0.34818 0.36506 0.15191 0.0
C2432 C 0.36523 0.40444 0.1215 0.0
C2433 C 0.36368 0.39801 0.06113 0.0
H2434 H 0.36283 0.39345 0.21241 0.0
H2435 H 0.37599 0.42197 0.13426 0.0
S2436 S 0.33158 0.34025 1.00024 0.0
N2437 N 0.33116 0.33679 0.07338 0.0
N2438 N 0.345 0.36789 0.98916 0.0
C2439 C 0.34916 0.37536 0.0465 0.0
C2440 C 0.34158 0.35863 0.09216 0.0
C2441 C 0.72038 0.9796 0.16046 0.0
C2442 C 0.71422 0.97967 0.10018 0.0
C2443 C 0.74304 0.98802 0.17482 0.0
C2444 C 0.75918 0.99786 0.12905 0.0
H2445 H 0.70915 0.97741 0.19701 0.0
H2446 H 0.74777 0.99198 0.22126 0.0
S2447 S 0.74839 0.98167 0.97003 0.0
N2448 N 0.72331 0.97429 0.99838 0.0
N2449 N 0.76645 0.9918 0.02633 0.0
C2450 C 0.75205 0.98864 0.07184 0.0
C2451 C 0.72896 0.97954 0.05673 0.0
C2452 C 0.12787 0.76706 0.12081 0.0
C2453 C 0.11282 0.77475 0.1066 0.0
C2454 C 0.13416 0.75679 0.0767 0.0
C2455 C 0.12505 0.75384 0.0187 0.0
H2456 H 0.13094 0.76482 0.16719 0.0
H2457 H 0.14203 0.74717 0.09109 0.0
S2458 S 0.096 0.78243 0.9548 0.0
N2459 N 0.09781 0.7879 0.02709 0.0
N2460 N 0.10886 0.76765 0.94472 0.0
C2461 C 0.11581 0.76724 1.0014 0.0
C2462 C 0.1099 0.77815 0.0459 0.0
C2463 C 0.41785 0.32977 0.36572 0.0
C2464 C 0.42389 0.33401 0.42678 0.0
C2465 C 0.39511 0.31684 0.34987 0.0
C2466 C 0.37877 0.30952 0.39501 0.0
H2467 H 0.42947 0.33955 0.33042 0.0
H2468 H 0.39057 0.3179 0.30411 0.0
S2469 S 0.38775 0.29982 0.55259 0.0
N2470 N 0.41335 0.31703 0.52617 0.0
N2471 N 0.37021 0.29418 0.49579 0.0
C2472 C 0.38521 0.30581 0.45159 0.0
C2473 C 0.40834 0.31841 0.46806 0.0
C2474 C 0.78135 0.10043 0.37682 0.0
C2475 C 0.79065 0.08711 0.39501 0.0
C2476 C 0.77299 0.10924 0.41954 0.0
C2477 C 0.7732 0.10404 0.48049 0.0
H2478 H 0.7771 0.10078 0.33026 0.0
H2479 H 0.76244 0.11592 0.40395 0.0
S2480 S 0.80584 0.08023 0.54993 0.0
N2481 N 0.80775 0.07732 0.47728 0.0
N2482 N 0.79112 0.09327 0.55719 0.0
C2483 C 0.78773 0.09632 0.49882 0.0
C2484 C 0.79663 0.08772 0.4556 0.0
C2485 C 1.01657 0.71542 0.30275 0.0
C2486 C 1.02937 0.73586 0.33301 0.0
C2487 C 1.00486 0.69532 0.33507 0.0
C2488 C 1.007 0.69552 0.39809 0.0
H2489 H 1.01889 0.71431 0.25538 0.0
H2490 H 0.99825 0.67996 0.30931 0.0
S2491 S 1.02496 0.74557 0.49407 0.0
N2492 N 1.03427 0.75589 0.42656 0.0
N2493 N 1.01059 0.71777 0.48646 0.0
C2494 C 1.01277 0.71599 0.42665 0.0
C2495 C 1.02501 0.73653 0.39409 0.0
C2496 C 0.79399 0.7222 0.96513 0.0
C2497 C 0.78028 0.69966 0.94697 0.0
C2498 C 0.80333 0.73957 0.92252 0.0
C2499 C 0.79856 0.73459 0.86132 0.0
H2500 H 0.79439 0.72668 0.0117 0.0
H2501 H 0.81045 0.75681 0.93832 0.0
S2502 S 0.77323 0.67811 0.79181 0.0
N2503 N 0.76986 0.67302 0.86442 0.0
N2504 N 0.78715 0.70595 0.78469 0.0
C2505 C 0.7901 0.71218 0.84308 0.0
C2506 C 0.78079 0.69446 0.88626 0.0
C2507 C 0.37767 0.08804 0.94125 0.0
C2508 C 0.38342 0.08891 0.88048 0.0
C2509 C 0.39458 0.09588 0.98493 0.0
C2510 C 0.41723 0.10497 0.96777 0.0
H2511 H 0.36036 0.07727 0.95565 0.0
H2512 H 0.38967 0.09083 0.03098 0.0
S2513 S 0.44026 0.12225 0.81478 0.0
N2514 N 0.41259 0.10775 0.80574 0.0
N2515 N 0.44457 0.12323 0.88766 0.0
C2516 C 0.42296 0.11201 0.90798 0.0
C2517 C 0.40577 0.1037 0.8637 0.0
C2518 C 0.99724 0.33322 0.88581 0.0
C2519 C 0.99913 0.32995 0.94742 0.0
C2520 C 1.00975 0.32866 0.84441 0.0
C2521 C 1.02344 0.31999 0.86415 0.0
H2522 H 0.99025 0.3436 0.87088 0.0
H2523 H 1.01186 0.3356 0.79966 0.0
S2524 S 1.02315 0.29721 0.01493 0.0
N2525 N 1.00742 0.30919 0.02162 0.0
N2526 N 1.03066 0.30004 0.9439 0.0
C2527 C 1.01974 0.31059 0.92199 0.0
C2528 C 1.00725 0.31552 0.96402 0.0
C2529 C 0.73145 0.76541 0.63084 0.0
C2530 C 0.75376 0.77188 0.61576 0.0
C2531 C 0.71478 0.7572 0.58659 0.0
C2532 C 0.7203 0.75493 0.52723 0.0
H2533 H 0.72624 0.7627 0.67729 0.0
H2534 H 0.69734 0.74858 0.60124 0.0
S2535 S 0.77752 0.78023 0.4631 0.0
N2536 N 0.78153 0.78392 0.53597 0.0
N2537 N 0.74995 0.76799 0.45293 0.0
C2538 C 0.74299 0.76706 0.51025 0.0
C2539 C 0.75998 0.77571 0.55509 0.0
C2540 C 0.36453 0.99109 0.60233 0.0
C2541 C 0.36401 0.99722 0.54244 0.0
C2542 C 0.35366 0.99625 0.64707 0.0
C2543 C 0.34353 1.00922 0.63316 0.0
H2544 H 0.3765 0.986 0.61632 0.0
H2545 H 0.35732 0.99437 0.69325 0.0
S2546 S 0.33104 1.02209 0.48113 0.0
N2547 N 0.34687 1.01045 0.46978 0.0
N2548 N 0.32749 1.02162 0.55423 0.0
C2549 C 0.3389 1.01111 0.57259 0.0
C2550 C 0.3494 1.00518 0.52687 0.0
C2551 C 0.13911 0.39959 0.63374 0.0
C2552 C 0.1374 0.39653 0.57139 0.0
C2553 C 0.12695 0.3812 0.67226 0.0
C2554 C 0.11324 0.35944 0.64883 0.0
H2555 H 0.14598 0.41637 0.65204 0.0
H2556 H 0.12524 0.38457 0.71869 0.0
S2557 S 0.11305 0.34194 0.49206 0.0
N2558 N 0.12865 0.36983 0.49067 0.0
N2559 N 0.10569 0.33499 0.56263 0.0
C2560 C 0.11649 0.35571 0.58872 0.0
C2561 C 0.12887 0.37449 0.54974 0.0
C2562 C 1.04682 0.64358 0.77387 0.0
C2563 C 1.05095 0.64752 0.71196 0.0
C2564 C 1.06457 0.65418 0.81479 0.0
C2565 C 0.08668 0.66839 0.7944 0.0
H2566 H 1.02978 0.63598 0.79124 0.0
H2567 H 1.06052 0.6543 0.86156 0.0
S2568 S 0.10672 0.67416 0.63809 0.0
N2569 N 0.07892 0.65898 0.63322 0.0
N2570 N 0.11247 0.67884 0.71011 0.0
C2571 C 0.09135 0.66734 0.73366 0.0
C2572 C 0.07326 0.65668 0.69207 0.0
C2573 C 0.44206 0.42815 0.71906 0.0
C2574 C 0.44582 0.40984 0.72361 0.0
C2575 C 0.4351 0.43522 0.76922 0.0
C2576 C 0.43128 0.42371 0.82441 0.0
H2577 H 0.44139 0.43482 0.67551 0.0
H2578 H 0.42895 0.44688 0.76166 0.0
S2579 S 0.44288 0.37776 0.86093 0.0
N2580 N 0.44875 0.38282 0.78902 0.0
N2581 N 0.43687 0.39711 0.88361 0.0
C2582 C 0.43941 0.40864 0.83172 0.0
C2583 C 0.44609 0.40113 0.7807 0.0
C2584 C 0.69532 0.06731 0.76978 0.0
C2585 C 0.69551 0.06068 0.71036 0.0
C2586 C 0.68564 0.05112 0.81527 0.0
C2587 C 0.67626 1.02804 0.80215 0.0
H2588 H 0.70596 0.0848 0.78285 0.0
H2589 H 0.68899 0.05678 0.86127 0.0
S2590 S 0.66489 1.00254 0.65073 0.0
N2591 N 0.67967 1.03012 0.6387 0.0
N2592 N 0.66136 0.9994 0.72385 0.0
C2593 C 0.67193 1.02137 0.74168 0.0
C2594 C 0.68181 1.03789 0.69552 0.0
C2595 C 0.46237 0.06686 0.25251 0.0
C2596 C 0.45449 0.06064 0.19349 0.0
C2597 C 0.45613 0.05042 0.29725 0.0
C2598 C 0.44167 1.02751 0.2838 0.0
H2599 H 0.46988 0.08432 0.26649 0.0
H2600 H 0.45918 0.05588 0.34345 0.0
S2601 S 0.42474 1.00266 0.13244 0.0
N2602 N 0.43801 1.0303 0.12108 0.0
N2603 N 0.4261 0.99917 0.20515 0.0
C2604 C 0.43829 1.02106 0.22322 0.0
C2605 C 0.44463 1.03782 0.17774 0.0
C2606 C 1.06082 0.44124 0.24256 0.0
C2607 C 1.04407 0.42674 0.28322 0.0
C2608 C 0.08348 0.44989 0.25863 0.0
C2609 C 0.08876 0.44591 0.31683 0.0
H2610 H 1.05682 0.44059 0.19544 0.0
H2611 H 0.09588 0.45513 0.22319 0.0
S2612 S 1.05103 0.43123 0.44762 0.0
N2613 N 1.03431 0.42519 0.38892 0.0
N2614 N 0.07675 0.44134 0.42048 0.0
C2615 C 0.07252 0.44083 0.36113 0.0
C2616 C 1.04966 0.4318 0.34397 0.0
C2617 C 0.67303 0.65729 0.3492 0.0
C2618 C 0.66515 0.66436 0.30031 0.0
C2619 C 0.68964 0.6515 0.33862 0.0
C2620 C 0.69559 0.65002 0.27915 0.0
H2621 H 0.67175 0.66243 0.39394 0.0
H2622 H 0.70012 0.65238 0.376 0.0
S2623 S 0.6611 0.64411 0.1457 0.0
N2624 N 0.65137 0.65384 0.19859 0.0
N2625 N 0.68083 0.64037 0.17762 0.0
C2626 C 0.67969 0.64658 0.23452 0.0
C2627 C 0.66362 0.65346 0.246 0.0
loop_
_geom_bond_atom_site_label_1
_geom_bond_atom_site_label_2
_geom_bond_distance
_geom_bond_site_symmetry_2
_ccdc_geom_bond_type
Gd0 C3 2.818 . S
Gd0 O20 2.377 . S
Gd0 O22 2.448 . S
Gd0 O23 2.506 . S
Gd0 O24 2.435 . S
Gd0 O25 2.717 . S
Gd0 O27 2.395 . S
Gd0 O31 2.327 . S
Gd1 C12 2.818 . S
Gd1 O21 2.395 . S
Gd1 O25 2.327 . S
Gd1 O26 2.377 . S
Gd1 O28 2.448 . S
Gd1 O29 2.506 . S
Gd1 O30 2.435 . S
Gd1 O31 2.717 . S
C2 O20 1.240 . S
C2 O21 1.240 . S
C3 Gd0 2.818 . S
C3 C4 1.510 . S
C3 O22 1.249 . S
C3 O23 1.252 . S
C4 C3 1.510 . S
C4 C5 1.404 . S
C4 C6 1.352 . S
C5 C4 1.404 . S
C5 C9 1.389 . S
C5 H32 0.930 . S
C6 C4 1.352 . S
C6 C8 1.374 . S
C6 H33 0.931 . S
C7 C8 1.359 . S
C7 C9 1.364 . S
C8 C6 1.374 . S
C8 C7 1.359 . S
C8 H34 0.931 . S
C9 C5 1.389 . S
C9 C7 1.364 . S
C9 H35 0.931 . S
C10 O24 1.256 . S
C10 O25 1.257 . S
C11 O26 1.240 . S
C11 O27 1.240 . S
C12 Gd1 2.818 . S
C12 C13 1.510 . S
C12 O28 1.249 . S
C12 O29 1.252 . S
C13 C12 1.510 . S
C13 C14 1.404 . S
C13 C15 1.352 . S
C14 C13 1.404 . S
C14 C18 1.389 . S
C14 H36 0.930 . S
C15 C13 1.352 . S
C15 C17 1.374 . S
C15 H37 0.931 . S
C16 C17 1.359 . S
C16 C18 1.364 . S
C17 C15 1.374 . S
C17 C16 1.359 . S
C17 H38 0.931 . S
C18 C14 1.389 . S
C18 C16 1.364 . S
C18 H39 0.931 . S
C19 O30 1.256 . S
C19 O31 1.257 . S
O20 Gd0 2.377 . S
O20 C2 1.240 . S
O21 Gd1 2.395 . S
O21 C2 1.240 . S
O22 Gd0 2.448 . S
O22 C3 1.249 . S
O23 Gd0 2.506 . S
O23 C3 1.252 . S
O24 Gd0 2.435 . S
O24 C10 1.256 . S
O25 Gd0 2.717 . S
O25 Gd1 2.327 . S
O25 C10 1.257 . S
O26 Gd1 2.377 . S
O26 C11 1.240 . S
O27 Gd0 2.395 . S
O27 C11 1.240 . S
O28 Gd1 2.448 . S
O28 C12 1.249 . S
O29 Gd1 2.506 . S
O29 C12 1.252 . S
O30 Gd1 2.435 . S
O30 C19 1.256 . S
O31 Gd0 2.327 . S
O31 Gd1 2.717 . S
O31 C19 1.257 . S
H32 C5 0.930 . S
H33 C6 0.931 . S
H34 C8 0.931 . S
H35 C9 0.931 . S
H36 C14 0.930 . S
H37 C15 0.931 . S
H38 C17 0.931 . S
H39 C18 0.931 . S
Gd40 C43 2.818 . S
Gd40 O60 2.377 . S
Gd40 O62 2.448 . S
Gd40 O63 2.506 . S
Gd40 O64 2.435 . S
Gd40 O65 2.717 . S
Gd40 O67 2.395 . S
Gd40 O71 2.327 . S
Gd41 C52 2.818 . S
Gd41 O61 2.395 . S
Gd41 O65 2.327 . S
Gd41 O66 2.377 . S
Gd41 O68 2.448 . S
Gd41 O69 2.506 . S
Gd41 O70 2.435 . S
Gd41 O71 2.717 . S
C42 O60 1.240 . S
C42 O61 1.240 . S
C43 Gd40 2.818 . S
C43 C44 1.510 . S
C43 O62 1.249 . S
C43 O63 1.252 . S
C44 C43 1.510 . S
C44 C45 1.404 . S
C44 C46 1.352 . S
C45 C44 1.404 . S
C45 C49 1.389 . S
C45 H72 0.930 . S
C46 C44 1.352 . S
C46 C48 1.374 . S
C46 H73 0.931 . S
C47 C48 1.359 . S
C47 C49 1.364 . S
C48 C46 1.374 . S
C48 C47 1.359 . S
C48 H74 0.931 . S
C49 C45 1.389 . S
C49 C47 1.364 . S
C49 H75 0.931 . S
C50 O64 1.256 . S
C50 O65 1.257 . S
C51 O66 1.240 . S
C51 O67 1.240 . S
C52 Gd41 2.818 . S
C52 C53 1.510 . S
C52 O68 1.249 . S
C52 O69 1.252 . S
C53 C52 1.510 . S
C53 C54 1.404 . S
C53 C55 1.352 . S
C54 C53 1.404 . S
C54 C58 1.389 . S
C54 H76 0.930 . S
C55 C53 1.352 . S
C55 C57 1.374 1_545 S
C55 H77 0.931 . S
C56 C57 1.359 . S
C56 C58 1.364 1_565 S
C57 C55 1.374 1_565 S
C57 C56 1.359 . S
C57 H78 0.931 . S
C58 C54 1.389 . S
C58 C56 1.364 1_545 S
C58 H79 0.931 . S
C59 O70 1.256 . S
C59 O71 1.257 . S
O60 Gd40 2.377 . S
O60 C42 1.240 . S
O61 Gd41 2.395 . S
O61 C42 1.240 . S
O62 Gd40 2.448 . S
O62 C43 1.249 . S
O63 Gd40 2.506 . S
O63 C43 1.252 . S
O64 Gd40 2.435 . S
O64 C50 1.256 . S
O65 Gd40 2.717 . S
O65 Gd41 2.327 . S
O65 C50 1.257 . S
O66 Gd41 2.377 . S
O66 C51 1.240 . S
O67 Gd40 2.395 . S
O67 C51 1.240 . S
O68 Gd41 2.448 . S
O68 C52 1.249 . S
O69 Gd41 2.506 . S
O69 C52 1.252 . S
O70 Gd41 2.435 . S
O70 C59 1.256 . S
O71 Gd40 2.327 . S
O71 Gd41 2.717 . S
O71 C59 1.257 . S
H72 C45 0.930 . S
H73 C46 0.931 . S
H74 C48 0.931 . S
H75 C49 0.931 . S
H76 C54 0.930 . S
H77 C55 0.931 . S
H78 C57 0.931 . S
H79 C58 0.931 . S
Gd80 C83 2.818 . S
Gd80 O100 2.377 . S
Gd80 O102 2.448 . S
Gd80 O103 2.506 . S
Gd80 O104 2.435 . S
Gd80 O105 2.717 . S
Gd80 O107 2.395 . S
Gd80 O111 2.327 . S
Gd81 C92 2.818 . S
Gd81 O101 2.395 . S
Gd81 O105 2.327 . S
Gd81 O106 2.377 . S
Gd81 O108 2.448 . S
Gd81 O109 2.506 . S
Gd81 O110 2.435 . S
Gd81 O111 2.717 . S
C82 O100 1.240 . S
C82 O101 1.240 . S
C83 Gd80 2.818 . S
C83 C84 1.510 . S
C83 O102 1.249 . S
C83 O103 1.252 . S
C84 C83 1.510 . S
C84 C85 1.404 . S
C84 C86 1.352 . S
C85 C84 1.404 . S
C85 C89 1.389 . S
C85 H112 0.930 . S
C86 C84 1.352 . S
C86 C88 1.374 . S
C86 H113 0.931 . S
C87 C88 1.359 . S
C87 C89 1.364 . S
C88 C86 1.374 . S
C88 C87 1.359 . S
C88 H114 0.931 . S
C89 C85 1.389 . S
C89 C87 1.364 . S
C89 H115 0.931 . S
C90 O104 1.256 . S
C90 O105 1.257 . S
C91 O106 1.240 . S
C91 O107 1.240 . S
C92 Gd81 2.818 . S
C92 C93 1.510 . S
C92 O108 1.249 . S
C92 O109 1.252 . S
C93 C92 1.510 . S
C93 C94 1.404 . S
C93 C95 1.352 . S
C94 C93 1.404 . S
C94 C98 1.389 . S
C94 H116 0.930 . S
C95 C93 1.352 . S
C95 C97 1.374 1_655 S
C95 H117 0.931 . S
C96 C97 1.359 . S
C96 C98 1.364 1_455 S
C97 C95 1.374 1_455 S
C97 C96 1.359 . S
C97 H118 0.931 . S
C98 C94 1.389 . S
C98 C96 1.364 1_655 S
C98 H119 0.931 . S
C99 O110 1.256 . S
C99 O111 1.257 . S
O100 Gd80 2.377 . S
O100 C82 1.240 . S
O101 Gd81 2.395 . S
O101 C82 1.240 . S
O102 Gd80 2.448 . S
O102 C83 1.249 . S
O103 Gd80 2.506 . S
O103 C83 1.252 . S
O104 Gd80 2.435 . S
O104 C90 1.256 . S
O105 Gd80 2.717 . S
O105 Gd81 2.327 . S
O105 C90 1.257 . S
O106 Gd81 2.377 . S
O106 C91 1.240 . S
O107 Gd80 2.395 . S
O107 C91 1.240 . S
O108 Gd81 2.448 . S
O108 C92 1.249 . S
O109 Gd81 2.506 . S
O109 C92 1.252 . S
O110 Gd81 2.435 . S
O110 C99 1.256 . S
O111 Gd80 2.327 . S
O111 Gd81 2.717 . S
O111 C99 1.257 . S
H112 C85 0.930 . S
H113 C86 0.931 . S
H114 C88 0.931 . S
H115 C89 0.931 . S
H116 C94 0.930 . S
H117 C95 0.931 . S
H118 C97 0.931 . S
H119 C98 0.931 . S
Gd120 C123 2.818 . S
Gd120 O140 2.377 . S
Gd120 O142 2.448 . S
Gd120 O143 2.506 . S
Gd120 O144 2.435 . S
Gd120 O145 2.717 . S
Gd120 O147 2.395 . S
Gd120 O151 2.327 . S
Gd121 C132 2.818 . S
Gd121 O141 2.395 . S
Gd121 O145 2.327 . S
Gd121 O146 2.377 . S
Gd121 O148 2.448 . S
Gd121 O149 2.506 . S
Gd121 O150 2.435 . S
Gd121 O151 2.717 . S
C122 O140 1.240 . S
C122 O141 1.240 . S
C123 Gd120 2.818 . S
C123 C124 1.510 . S
C123 O142 1.249 . S
C123 O143 1.252 . S
C124 C123 1.510 . S
C124 C125 1.404 . S
C124 C126 1.352 . S
C125 C124 1.404 . S
C125 C129 1.389 . S
C125 H152 0.930 . S
C126 C124 1.352 . S
C126 C128 1.374 . S
C126 H153 0.931 . S
C127 C128 1.359 . S
C127 C129 1.364 . S
C128 C126 1.374 . S
C128 C127 1.359 . S
C128 H154 0.931 . S
C129 C125 1.389 . S
C129 C127 1.364 . S
C129 H155 0.931 . S
C130 O144 1.256 . S
C130 O145 1.257 . S
C131 O146 1.240 . S
C131 O147 1.240 . S
C132 Gd121 2.818 . S
C132 C133 1.510 . S
C132 O148 1.249 . S
C132 O149 1.252 . S
C133 C132 1.510 . S
C133 C134 1.404 . S
C133 C135 1.352 . S
C134 C133 1.404 . S
C134 C138 1.389 . S
C134 H156 0.930 . S
C135 C133 1.352 . S
C135 C137 1.374 . S
C135 H157 0.931 . S
C136 C137 1.359 . S
C136 C138 1.364 . S
C137 C135 1.374 . S
C137 C136 1.359 . S
C137 H158 0.931 . S
C138 C134 1.389 . S
C138 C136 1.364 . S
C138 H159 0.931 . S
C139 O150 1.256 . S
C139 O151 1.257 . S
O140 Gd120 2.377 . S
O140 C122 1.240 . S
O141 Gd121 2.395 . S
O141 C122 1.240 . S
O142 Gd120 2.448 . S
O142 C123 1.249 . S
O143 Gd120 2.506 . S
O143 C123 1.252 . S
O144 Gd120 2.435 . S
O144 C130 1.256 . S
O145 Gd120 2.717 . S
O145 Gd121 2.327 . S
O145 C130 1.257 . S
O146 Gd121 2.377 . S
O146 C131 1.240 . S
O147 Gd120 2.395 . S
O147 C131 1.240 . S
O148 Gd121 2.448 . S
O148 C132 1.249 . S
O149 Gd121 2.506 . S
O149 C132 1.252 . S
O150 Gd121 2.435 . S
O150 C139 1.256 . S
O151 Gd120 2.327 . S
O151 Gd121 2.717 . S
O151 C139 1.257 . S
H152 C125 0.930 . S
H153 C126 0.931 . S
H154 C128 0.931 . S
H155 C129 0.931 . S
H156 C134 0.930 . S
H157 C135 0.931 . S
H158 C137 0.931 . S
H159 C138 0.931 . S
Gd160 C163 2.818 . S
Gd160 O180 2.377 . S
Gd160 O182 2.448 . S
Gd160 O183 2.506 . S
Gd160 O184 2.435 . S
Gd160 O185 2.717 . S
Gd160 O187 2.395 . S
Gd160 O191 2.327 . S
Gd161 C172 2.818 . S
Gd161 O181 2.395 . S
Gd161 O185 2.327 . S
Gd161 O186 2.377 . S
Gd161 O188 2.448 . S
Gd161 O189 2.506 . S
Gd161 O190 2.435 . S
Gd161 O191 2.717 . S
C162 O180 1.240 . S
C162 O181 1.240 . S
C163 Gd160 2.818 . S
C163 C164 1.510 . S
C163 O182 1.249 . S
C163 O183 1.252 . S
C164 C163 1.510 . S
C164 C165 1.404 . S
C164 C166 1.352 . S
C165 C164 1.404 . S
C165 C169 1.389 . S
C165 H192 0.930 . S
C166 C164 1.352 . S
C166 C168 1.374 . S
C166 H193 0.931 . S
C167 C168 1.359 . S
C167 C169 1.364 . S
C168 C166 1.374 . S
C168 C167 1.359 . S
C168 H194 0.931 . S
C169 C165 1.389 . S
C169 C167 1.364 . S
C169 H195 0.931 . S
C170 O184 1.256 . S
C170 O185 1.257 . S
C171 O186 1.240 . S
C171 O187 1.240 . S
C172 Gd161 2.818 . S
C172 C173 1.510 . S
C172 O188 1.249 . S
C172 O189 1.252 . S
C173 C172 1.510 . S
C173 C174 1.404 . S
C173 C175 1.352 . S
C174 C173 1.404 . S
C174 C178 1.389 . S
C174 H196 0.930 . S
C175 C173 1.352 . S
C175 C177 1.374 1_565 S
C175 H197 0.931 . S
C176 C177 1.359 . S
C176 C178 1.364 1_545 S
C177 C175 1.374 1_545 S
C177 C176 1.359 . S
C177 H198 0.931 . S
C178 C174 1.389 . S
C178 C176 1.364 1_565 S
C178 H199 0.931 . S
C179 O190 1.256 . S
C179 O191 1.257 . S
O180 Gd160 2.377 . S
O180 C162 1.240 . S
O181 Gd161 2.395 . S
O181 C162 1.240 . S
O182 Gd160 2.448 . S
O182 C163 1.249 . S
O183 Gd160 2.506 . S
O183 C163 1.252 . S
O184 Gd160 2.435 . S
O184 C170 1.256 . S
O185 Gd160 2.717 . S
O185 Gd161 2.327 . S
O185 C170 1.257 . S
O186 Gd161 2.377 . S
O186 C171 1.240 . S
O187 Gd160 2.395 . S
O187 C171 1.240 . S
O188 Gd161 2.448 . S
O188 C172 1.249 . S
O189 Gd161 2.506 . S
O189 C172 1.252 . S
O190 Gd161 2.435 . S
O190 C179 1.256 . S
O191 Gd160 2.327 . S
O191 Gd161 2.717 . S
O191 C179 1.257 . S
H192 C165 0.930 . S
H193 C166 0.931 . S
H194 C168 0.931 . S
H195 C169 0.931 . S
H196 C174 0.930 . S
H197 C175 0.931 . S
H198 C177 0.931 . S
H199 C178 0.931 . S
Gd200 C203 2.818 . S
Gd200 O220 2.377 . S
Gd200 O222 2.448 . S
Gd200 O223 2.506 . S
Gd200 O224 2.435 . S
Gd200 O225 2.717 . S
Gd200 O227 2.395 . S
Gd200 O231 2.327 . S
Gd201 C212 2.818 . S
Gd201 O221 2.395 . S
Gd201 O225 2.327 . S
Gd201 O226 2.377 . S
Gd201 O228 2.448 . S
Gd201 O229 2.506 . S
Gd201 O230 2.435 . S
Gd201 O231 2.717 . S
C202 O220 1.240 . S
C202 O221 1.240 . S
C203 Gd200 2.818 . S
C203 C204 1.510 . S
C203 O222 1.249 . S
C203 O223 1.252 . S
C204 C203 1.510 . S
C204 C205 1.404 . S
C204 C206 1.352 . S
C205 C204 1.404 . S
C205 C209 1.389 . S
C205 H232 0.930 . S
C206 C204 1.352 . S
C206 C208 1.374 . S
C206 H233 0.931 . S
C207 C208 1.359 . S
C207 C209 1.364 . S
C208 C206 1.374 . S
C208 C207 1.359 . S
C208 H234 0.931 . S
C209 C205 1.389 . S
C209 C207 1.364 . S
C209 H235 0.931 . S
C210 O224 1.256 . S
C210 O225 1.257 . S
C211 O226 1.240 . S
C211 O227 1.240 . S
C212 Gd201 2.818 . S
C212 C213 1.510 . S
C212 O228 1.249 . S
C212 O229 1.252 . S
C213 C212 1.510 . S
C213 C214 1.404 . S
C213 C215 1.352 . S
C214 C213 1.404 . S
C214 C218 1.389 . S
C214 H236 0.930 . S
C215 C213 1.352 . S
C215 C217 1.374 1_455 S
C215 H237 0.931 . S
C216 C217 1.359 . S
C216 C218 1.364 1_655 S
C217 C215 1.374 1_655 S
C217 C216 1.359 . S
C217 H238 0.931 . S
C218 C214 1.389 . S
C218 C216 1.364 1_455 S
C218 H239 0.931 . S
C219 O230 1.256 . S
C219 O231 1.257 . S
O220 Gd200 2.377 . S
O220 C202 1.240 . S
O221 Gd201 2.395 . S
O221 C202 1.240 . S
O222 Gd200 2.448 . S
O222 C203 1.249 . S
O223 Gd200 2.506 . S
O223 C203 1.252 . S
O224 Gd200 2.435 . S
O224 C210 1.256 . S
O225 Gd200 2.717 . S
O225 Gd201 2.327 . S
O225 C210 1.257 . S
O226 Gd201 2.377 . S
O226 C211 1.240 . S
O227 Gd200 2.395 . S
O227 C211 1.240 . S
O228 Gd201 2.448 . S
O228 C212 1.249 . S
O229 Gd201 2.506 . S
O229 C212 1.252 . S
O230 Gd201 2.435 . S
O230 C219 1.256 . S
O231 Gd200 2.327 . S
O231 Gd201 2.717 . S
O231 C219 1.257 . S
H232 C205 0.930 . S
H233 C206 0.931 . S
H234 C208 0.931 . S
H235 C209 0.931 . S
H236 C214 0.930 . S
H237 C215 0.931 . S
H238 C217 0.931 . S
H239 C218 0.931 . S
Gd240 C243 2.818 . S
Gd240 O260 2.377 . S
Gd240 O262 2.448 . S
Gd240 O263 2.506 . S
Gd240 O264 2.435 . S
Gd240 O265 2.717 . S
Gd240 O267 2.395 . S
Gd240 O271 2.327 . S
Gd241 C252 2.818 . S
Gd241 O261 2.395 . S
Gd241 O265 2.327 . S
Gd241 O266 2.377 . S
Gd241 O268 2.448 . S
Gd241 O269 2.506 . S
Gd241 O270 2.435 . S
Gd241 O271 2.717 . S
C242 O260 1.240 . S
C242 O261 1.240 . S
C243 Gd240 2.818 . S
C243 C244 1.510 . S
C243 O262 1.249 . S
C243 O263 1.252 . S
C244 C243 1.510 . S
C244 C245 1.404 . S
C244 C246 1.352 . S
C245 C244 1.404 . S
C245 C249 1.389 . S
C245 H272 0.930 . S
C246 C244 1.352 . S
C246 C248 1.374 . S
C246 H273 0.931 . S
C247 C248 1.359 . S
C247 C249 1.364 . S
C248 C246 1.374 . S
C248 C247 1.359 . S
C248 H274 0.931 . S
C249 C245 1.389 . S
C249 C247 1.364 . S
C249 H275 0.931 . S
C250 O264 1.256 . S
C250 O265 1.257 . S
C251 O266 1.240 . S
C251 O267 1.240 . S
C252 Gd241 2.818 . S
C252 C253 1.510 . S
C252 O268 1.249 . S
C252 O269 1.252 . S
C253 C252 1.510 . S
C253 C254 1.404 . S
C253 C255 1.352 . S
C254 C253 1.404 . S
C254 C258 1.389 . S
C254 H276 0.930 . S
C255 C253 1.352 . S
C255 C257 1.374 . S
C255 H277 0.931 . S
C256 C257 1.359 . S
C256 C258 1.364 . S
C257 C255 1.374 . S
C257 C256 1.359 . S
C257 H278 0.931 . S
C258 C254 1.389 . S
C258 C256 1.364 . S
C258 H279 0.931 . S
C259 O270 1.256 . S
C259 O271 1.257 . S
O260 Gd240 2.377 . S
O260 C242 1.240 . S
O261 Gd241 2.395 . S
O261 C242 1.240 . S
O262 Gd240 2.448 . S
O262 C243 1.249 . S
O263 Gd240 2.506 . S
O263 C243 1.252 . S
O264 Gd240 2.435 . S
O264 C250 1.256 . S
O265 Gd240 2.717 . S
O265 Gd241 2.327 . S
O265 C250 1.257 . S
O266 Gd241 2.377 . S
O266 C251 1.240 . S
O267 Gd240 2.395 . S
O267 C251 1.240 . S
O268 Gd241 2.448 . S
O268 C252 1.249 . S
O269 Gd241 2.506 . S
O269 C252 1.252 . S
O270 Gd241 2.435 . S
O270 C259 1.256 . S
O271 Gd240 2.327 . S
O271 Gd241 2.717 . S
O271 C259 1.257 . S
H272 C245 0.930 . S
H273 C246 0.931 . S
H274 C248 0.931 . S
H275 C249 0.931 . S
H276 C254 0.930 . S
H277 C255 0.931 . S
H278 C257 0.931 . S
H279 C258 0.931 . S
Gd280 C283 2.818 . S
Gd280 O300 2.377 . S
Gd280 O302 2.448 . S
Gd280 O303 2.506 . S
Gd280 O304 2.435 . S
Gd280 O305 2.717 . S
Gd280 O307 2.395 . S
Gd280 O311 2.327 . S
Gd281 C292 2.818 . S
Gd281 O301 2.395 . S
Gd281 O305 2.327 . S
Gd281 O306 2.377 . S
Gd281 O308 2.448 . S
Gd281 O309 2.506 . S
Gd281 O310 2.435 . S
Gd281 O311 2.717 . S
C282 O300 1.240 . S
C282 O301 1.240 . S
C283 Gd280 2.818 . S
C283 C284 1.510 . S
C283 O302 1.249 . S
C283 O303 1.252 . S
C284 C283 1.510 . S
C284 C285 1.404 . S
C284 C286 1.352 . S
C285 C284 1.404 . S
C285 C289 1.389 . S
C285 H312 0.930 . S
C286 C284 1.352 . S
C286 C288 1.374 1_565 S
C286 H313 0.931 . S
C287 C288 1.359 . S
C287 C289 1.364 1_545 S
C288 C286 1.374 1_545 S
C288 C287 1.359 . S
C288 H314 0.931 . S
C289 C285 1.389 . S
C289 C287 1.364 1_565 S
C289 H315 0.931 . S
C290 O304 1.256 . S
C290 O305 1.257 . S
C291 O306 1.240 . S
C291 O307 1.240 . S
C292 Gd281 2.818 . S
C292 C293 1.510 . S
C292 O308 1.249 . S
C292 O309 1.252 . S
C293 C292 1.510 . S
C293 C294 1.404 . S
C293 C295 1.352 . S
C294 C293 1.404 . S
C294 C298 1.389 . S
C294 H316 0.930 . S
C295 C293 1.352 . S
C295 C297 1.374 . S
C295 H317 0.931 . S
C296 C297 1.359 . S
C296 C298 1.364 . S
C297 C295 1.374 . S
C297 C296 1.359 . S
C297 H318 0.931 . S
C298 C294 1.389 . S
C298 C296 1.364 . S
C298 H319 0.931 . S
C299 O310 1.256 . S
C299 O311 1.257 . S
O300 Gd280 2.377 . S
O300 C282 1.240 . S
O301 Gd281 2.395 . S
O301 C282 1.240 . S
O302 Gd280 2.448 . S
O302 C283 1.249 . S
O303 Gd280 2.506 . S
O303 C283 1.252 . S
O304 Gd280 2.435 . S
O304 C290 1.256 . S
O305 Gd280 2.717 . S
O305 Gd281 2.327 . S
O305 C290 1.257 . S
O306 Gd281 2.377 . S
O306 C291 1.240 . S
O307 Gd280 2.395 . S
O307 C291 1.240 . S
O308 Gd281 2.448 . S
O308 C292 1.249 . S
O309 Gd281 2.506 . S
O309 C292 1.252 . S
O310 Gd281 2.435 . S
O310 C299 1.256 . S
O311 Gd280 2.327 . S
O311 Gd281 2.717 . S
O311 C299 1.257 . S
H312 C285 0.930 . S
H313 C286 0.931 . S
H314 C288 0.931 . S
H315 C289 0.931 . S
H316 C294 0.930 . S
H317 C295 0.931 . S
H318 C297 0.931 . S
H319 C298 0.931 . S
Gd320 C323 2.818 . S
Gd320 O340 2.377 . S
Gd320 O342 2.448 . S
Gd320 O343 2.506 . S
Gd320 O344 2.435 . S
Gd320 O345 2.717 . S
Gd320 O347 2.395 . S
Gd320 O351 2.327 . S
Gd321 C332 2.818 . S
Gd321 O341 2.395 . S
Gd321 O345 2.327 . S
Gd321 O346 2.377 . S
Gd321 O348 2.448 . S
Gd321 O349 2.506 . S
Gd321 O350 2.435 . S
Gd321 O351 2.717 . S
C322 O340 1.240 . S
C322 O341 1.240 . S
C323 Gd320 2.818 . S
C323 C324 1.510 . S
C323 O342 1.249 . S
C323 O343 1.252 . S
C324 C323 1.510 . S
C324 C325 1.404 . S
C324 C326 1.352 . S
C325 C324 1.404 . S
C325 C329 1.389 . S
C325 H352 0.930 . S
C326 C324 1.352 . S
C326 C328 1.374 1_455 S
C326 H353 0.931 . S
C327 C328 1.359 . S
C327 C329 1.364 1_655 S
C328 C326 1.374 1_655 S
C328 C327 1.359 . S
C328 H354 0.931 . S
C329 C325 1.389 . S
C329 C327 1.364 1_455 S
C329 H355 0.931 . S
C330 O344 1.256 . S
C330 O345 1.257 . S
C331 O346 1.240 . S
C331 O347 1.240 . S
C332 Gd321 2.818 . S
C332 C333 1.510 . S
C332 O348 1.249 . S
C332 O349 1.252 . S
C333 C332 1.510 . S
C333 C334 1.404 . S
C333 C335 1.352 . S
C334 C333 1.404 . S
C334 C338 1.389 . S
C334 H356 0.930 . S
C335 C333 1.352 . S
C335 C337 1.374 . S
C335 H357 0.931 . S
C336 C337 1.359 . S
C336 C338 1.364 . S
C337 C335 1.374 . S
C337 C336 1.359 . S
C337 H358 0.931 . S
C338 C334 1.389 . S
C338 C336 1.364 . S
C338 H359 0.931 . S
C339 O350 1.256 . S
C339 O351 1.257 . S
O340 Gd320 2.377 . S
O340 C322 1.240 . S
O341 Gd321 2.395 . S
O341 C322 1.240 . S
O342 Gd320 2.448 . S
O342 C323 1.249 . S
O343 Gd320 2.506 . S
O343 C323 1.252 . S
O344 Gd320 2.435 . S
O344 C330 1.256 . S
O345 Gd320 2.717 . S
O345 Gd321 2.327 . S
O345 C330 1.257 . S
O346 Gd321 2.377 . S
O346 C331 1.240 . S
O347 Gd320 2.395 . S
O347 C331 1.240 . S
O348 Gd321 2.448 . S
O348 C332 1.249 . S
O349 Gd321 2.506 . S
O349 C332 1.252 . S
O350 Gd321 2.435 . S
O350 C339 1.256 . S
O351 Gd320 2.327 . S
O351 Gd321 2.717 . S
O351 C339 1.257 . S
H352 C325 0.930 . S
H353 C326 0.931 . S
H354 C328 0.931 . S
H355 C329 0.931 . S
H356 C334 0.930 . S
H357 C335 0.931 . S
H358 C337 0.931 . S
H359 C338 0.931 . S
Gd360 C363 2.818 . S
Gd360 O380 2.377 . S
Gd360 O382 2.448 . S
Gd360 O383 2.506 . S
Gd360 O384 2.435 . S
Gd360 O385 2.717 . S
Gd360 O387 2.395 . S
Gd360 O391 2.327 . S
Gd361 C372 2.818 . S
Gd361 O381 2.395 . S
Gd361 O385 2.327 . S
Gd361 O386 2.377 . S
Gd361 O388 2.448 . S
Gd361 O389 2.506 . S
Gd361 O390 2.435 . S
Gd361 O391 2.717 . S
C362 O380 1.240 . S
C362 O381 1.240 . S
C363 Gd360 2.818 . S
C363 C364 1.510 . S
C363 O382 1.249 . S
C363 O383 1.252 . S
C364 C363 1.510 . S
C364 C365 1.404 . S
C364 C366 1.352 . S
C365 C364 1.404 . S
C365 C369 1.389 . S
C365 H392 0.930 . S
C366 C364 1.352 . S
C366 C368 1.374 . S
C366 H393 0.931 . S
C367 C368 1.359 . S
C367 C369 1.364 . S
C368 C366 1.374 . S
C368 C367 1.359 . S
C368 H394 0.931 . S
C369 C365 1.389 . S
C369 C367 1.364 . S
C369 H395 0.931 . S
C370 O384 1.256 . S
C370 O385 1.257 . S
C371 O386 1.240 . S
C371 O387 1.240 . S
C372 Gd361 2.818 . S
C372 C373 1.510 . S
C372 O388 1.249 . S
C372 O389 1.252 . S
C373 C372 1.510 . S
C373 C374 1.404 . S
C373 C375 1.352 . S
C374 C373 1.404 . S
C374 C378 1.389 . S
C374 H396 0.930 . S
C375 C373 1.352 . S
C375 C377 1.374 . S
C375 H397 0.931 . S
C376 C377 1.359 . S
C376 C378 1.364 . S
C377 C375 1.374 . S
C377 C376 1.359 . S
C377 H398 0.931 . S
C378 C374 1.389 . S
C378 C376 1.364 . S
C378 H399 0.931 . S
C379 O390 1.256 . S
C379 O391 1.257 . S
O380 Gd360 2.377 . S
O380 C362 1.240 . S
O381 Gd361 2.395 . S
O381 C362 1.240 . S
O382 Gd360 2.448 . S
O382 C363 1.249 . S
O383 Gd360 2.506 . S
O383 C363 1.252 . S
O384 Gd360 2.435 . S
O384 C370 1.256 . S
O385 Gd360 2.717 . S
O385 Gd361 2.327 . S
O385 C370 1.257 . S
O386 Gd361 2.377 . S
O386 C371 1.240 . S
O387 Gd360 2.395 . S
O387 C371 1.240 . S
O388 Gd361 2.448 . S
O388 C372 1.249 . S
O389 Gd361 2.506 . S
O389 C372 1.252 . S
O390 Gd361 2.435 . S
O390 C379 1.256 . S
O391 Gd360 2.327 . S
O391 Gd361 2.717 . S
O391 C379 1.257 . S
H392 C365 0.930 . S
H393 C366 0.931 . S
H394 C368 0.931 . S
H395 C369 0.931 . S
H396 C374 0.930 . S
H397 C375 0.931 . S
H398 C377 0.931 . S
H399 C378 0.931 . S
Gd400 C403 2.818 . S
Gd400 O420 2.377 . S
Gd400 O422 2.448 . S
Gd400 O423 2.506 . S
Gd400 O424 2.435 . S
Gd400 O425 2.717 . S
Gd400 O427 2.395 . S
Gd400 O431 2.327 . S
Gd401 C412 2.818 . S
Gd401 O421 2.395 . S
Gd401 O425 2.327 . S
Gd401 O426 2.377 . S
Gd401 O428 2.448 . S
Gd401 O429 2.506 . S
Gd401 O430 2.435 . S
Gd401 O431 2.717 . S
C402 O420 1.240 . S
C402 O421 1.240 . S
C403 Gd400 2.818 . S
C403 C404 1.510 . S
C403 O422 1.249 . S
C403 O423 1.252 . S
C404 C403 1.510 . S
C404 C405 1.404 . S
C404 C406 1.352 . S
C405 C404 1.404 . S
C405 C409 1.389 . S
C405 H432 0.930 . S
C406 C404 1.352 . S
C406 C408 1.374 1_545 S
C406 H433 0.931 . S
C407 C408 1.359 . S
C407 C409 1.364 1_565 S
C408 C406 1.374 1_565 S
C408 C407 1.359 . S
C408 H434 0.931 . S
C409 C405 1.389 . S
C409 C407 1.364 1_545 S
C409 H435 0.931 . S
C410 O424 1.256 . S
C410 O425 1.257 . S
C411 O426 1.240 . S
C411 O427 1.240 . S
C412 Gd401 2.818 . S
C412 C413 1.510 . S
C412 O428 1.249 . S
C412 O429 1.252 . S
C413 C412 1.510 . S
C413 C414 1.404 . S
C413 C415 1.352 . S
C414 C413 1.404 . S
C414 C418 1.389 . S
C414 H436 0.930 . S
C415 C413 1.352 . S
C415 C417 1.374 . S
C415 H437 0.931 . S
C416 C417 1.359 . S
C416 C418 1.364 . S
C417 C415 1.374 . S
C417 C416 1.359 . S
C417 H438 0.931 . S
C418 C414 1.389 . S
C418 C416 1.364 . S
C418 H439 0.931 . S
C419 O430 1.256 . S
C419 O431 1.257 . S
O420 Gd400 2.377 . S
O420 C402 1.240 . S
O421 Gd401 2.395 . S
O421 C402 1.240 . S
O422 Gd400 2.448 . S
O422 C403 1.249 . S
O423 Gd400 2.506 . S
O423 C403 1.252 . S
O424 Gd400 2.435 . S
O424 C410 1.256 . S
O425 Gd400 2.717 . S
O425 Gd401 2.327 . S
O425 C410 1.257 . S
O426 Gd401 2.377 . S
O426 C411 1.240 . S
O427 Gd400 2.395 . S
O427 C411 1.240 . S
O428 Gd401 2.448 . S
O428 C412 1.249 . S
O429 Gd401 2.506 . S
O429 C412 1.252 . S
O430 Gd401 2.435 . S
O430 C419 1.256 . S
O431 Gd400 2.327 . S
O431 Gd401 2.717 . S
O431 C419 1.257 . S
H432 C405 0.930 . S
H433 C406 0.931 . S
H434 C408 0.931 . S
H435 C409 0.931 . S
H436 C414 0.930 . S
H437 C415 0.931 . S
H438 C417 0.931 . S
H439 C418 0.931 . S
Gd440 C443 2.818 . S
Gd440 O460 2.377 . S
Gd440 O462 2.448 . S
Gd440 O463 2.506 . S
Gd440 O464 2.435 . S
Gd440 O465 2.717 . S
Gd440 O467 2.395 . S
Gd440 O471 2.327 . S
Gd441 C452 2.818 . S
Gd441 O461 2.395 . S
Gd441 O465 2.327 . S
Gd441 O466 2.377 . S
Gd441 O468 2.448 . S
Gd441 O469 2.506 . S
Gd441 O470 2.435 . S
Gd441 O471 2.717 . S
C442 O460 1.240 . S
C442 O461 1.240 . S
C443 Gd440 2.818 . S
C443 C444 1.510 . S
C443 O462 1.249 . S
C443 O463 1.252 . S
C444 C443 1.510 . S
C444 C445 1.404 . S
C444 C446 1.352 . S
C445 C444 1.404 . S
C445 C449 1.389 . S
C445 H472 0.930 . S
C446 C444 1.352 . S
C446 C448 1.374 1_655 S
C446 H473 0.931 . S
C447 C448 1.359 . S
C447 C449 1.364 1_455 S
C448 C446 1.374 1_455 S
C448 C447 1.359 . S
C448 H474 0.931 . S
C449 C445 1.389 . S
C449 C447 1.364 1_655 S
C449 H475 0.931 . S
C450 O464 1.256 . S
C450 O465 1.257 . S
C451 O466 1.240 . S
C451 O467 1.240 . S
C452 Gd441 2.818 . S
C452 C453 1.510 . S
C452 O468 1.249 . S
C452 O469 1.252 . S
C453 C452 1.510 . S
C453 C454 1.404 . S
C453 C455 1.352 . S
C454 C453 1.404 . S
C454 C458 1.389 . S
C454 H476 0.930 . S
C455 C453 1.352 . S
C455 C457 1.374 . S
C455 H477 0.931 . S
C456 C457 1.359 . S
C456 C458 1.364 . S
C457 C455 1.374 . S
C457 C456 1.359 . S
C457 H478 0.931 . S
C458 C454 1.389 . S
C458 C456 1.364 . S
C458 H479 0.931 . S
C459 O470 1.256 . S
C459 O471 1.257 . S
O460 Gd440 2.377 . S
O460 C442 1.240 . S
O461 Gd441 2.395 . S
O461 C442 1.240 . S
O462 Gd440 2.448 . S
O462 C443 1.249 . S
O463 Gd440 2.506 . S
O463 C443 1.252 . S
O464 Gd440 2.435 . S
O464 C450 1.256 . S
O465 Gd440 2.717 . S
O465 Gd441 2.327 . S
O465 C450 1.257 . S
O466 Gd441 2.377 . S
O466 C451 1.240 . S
O467 Gd440 2.395 . S
O467 C451 1.240 . S
O468 Gd441 2.448 . S
O468 C452 1.249 . S
O469 Gd441 2.506 . S
O469 C452 1.252 . S
O470 Gd441 2.435 . S
O470 C459 1.256 . S
O471 Gd440 2.327 . S
O471 Gd441 2.717 . S
O471 C459 1.257 . S
H472 C445 0.930 . S
H473 C446 0.931 . S
H474 C448 0.931 . S
H475 C449 0.931 . S
H476 C454 0.930 . S
H477 C455 0.931 . S
H478 C457 0.931 . S
H479 C458 0.931 . S
Gd480 C483 2.818 . S
Gd480 O500 2.377 . S
Gd480 O502 2.448 . S
Gd480 O503 2.506 . S
Gd480 O504 2.435 . S
Gd480 O505 2.717 . S
Gd480 O507 2.395 . S
Gd480 O511 2.327 . S
Gd481 C492 2.818 . S
Gd481 O501 2.395 . S
Gd481 O505 2.327 . S
Gd481 O506 2.377 . S
Gd481 O508 2.448 . S
Gd481 O509 2.506 . S
Gd481 O510 2.435 . S
Gd481 O511 2.717 . S
C482 O500 1.240 . S
C482 O501 1.240 . S
C483 Gd480 2.818 . S
C483 C484 1.510 . S
C483 O502 1.249 . S
C483 O503 1.252 . S
C484 C483 1.510 . S
C484 C485 1.404 . S
C484 C486 1.352 . S
C485 C484 1.404 . S
C485 C489 1.389 . S
C485 H512 0.930 . S
C486 C484 1.352 . S
C486 C488 1.374 . S
C486 H513 0.931 . S
C487 C488 1.359 . S
C487 C489 1.364 . S
C488 C486 1.374 . S
C488 C487 1.359 . S
C488 H514 0.931 . S
C489 C485 1.389 . S
C489 C487 1.364 . S
C489 H515 0.931 . S
C490 O504 1.256 . S
C490 O505 1.257 . S
C491 O506 1.240 . S
C491 O507 1.240 . S
C492 Gd481 2.818 . S
C492 C493 1.510 . S
C492 O508 1.249 . S
C492 O509 1.252 . S
C493 C492 1.510 . S
C493 C494 1.404 . S
C493 C495 1.352 . S
C494 C493 1.404 . S
C494 C498 1.389 . S
C494 H516 0.930 . S
C495 C493 1.352 . S
C495 C497 1.374 . S
C495 H517 0.931 . S
C496 C497 1.359 . S
C496 C498 1.364 . S
C497 C495 1.374 . S
C497 C496 1.359 . S
C497 H518 0.931 . S
C498 C494 1.389 . S
C498 C496 1.364 . S
C498 H519 0.931 . S
C499 O510 1.256 . S
C499 O511 1.257 . S
O500 Gd480 2.377 . S
O500 C482 1.240 . S
O501 Gd481 2.395 . S
O501 C482 1.240 . S
O502 Gd480 2.448 . S
O502 C483 1.249 . S
O503 Gd480 2.506 . S
O503 C483 1.252 . S
O504 Gd480 2.435 . S
O504 C490 1.256 . S
O505 Gd480 2.717 . S
O505 Gd481 2.327 . S
O505 C490 1.257 . S
O506 Gd481 2.377 . S
O506 C491 1.240 . S
O507 Gd480 2.395 . S
O507 C491 1.240 . S
O508 Gd481 2.448 . S
O508 C492 1.249 . S
O509 Gd481 2.506 . S
O509 C492 1.252 . S
O510 Gd481 2.435 . S
O510 C499 1.256 . S
O511 Gd480 2.327 . S
O511 Gd481 2.717 . S
O511 C499 1.257 . S
H512 C485 0.930 . S
H513 C486 0.931 . S
H514 C488 0.931 . S
H515 C489 0.931 . S
H516 C494 0.930 . S
H517 C495 0.931 . S
H518 C497 0.931 . S
H519 C498 0.931 . S
Gd520 C523 2.818 . S
Gd520 O540 2.377 . S
Gd520 O542 2.448 . S
Gd520 O543 2.506 . S
Gd520 O544 2.435 . S
Gd520 O545 2.717 . S
Gd520 O547 2.395 . S
Gd520 O551 2.327 . S
Gd521 C532 2.818 . S
Gd521 O541 2.395 . S
Gd521 O545 2.327 . S
Gd521 O546 2.377 . S
Gd521 O548 2.448 . S
Gd521 O549 2.506 . S
Gd521 O550 2.435 . S
Gd521 O551 2.717 . S
C522 O540 1.240 . S
C522 O541 1.240 . S
C523 Gd520 2.818 . S
C523 C524 1.510 . S
C523 O542 1.249 . S
C523 O543 1.252 . S
C524 C523 1.510 . S
C524 C525 1.404 . S
C524 C526 1.352 . S
C525 C524 1.404 . S
C525 C529 1.389 . S
C525 H552 0.930 . S
C526 C524 1.352 . S
C526 C528 1.374 . S
C526 H553 0.931 . S
C527 C528 1.359 . S
C527 C529 1.364 . S
C528 C526 1.374 . S
C528 C527 1.359 . S
C528 H554 0.931 . S
C529 C525 1.389 . S
C529 C527 1.364 . S
C529 H555 0.931 . S
C530 O544 1.256 . S
C530 O545 1.257 . S
C531 O546 1.240 . S
C531 O547 1.240 . S
C532 Gd521 2.818 . S
C532 C533 1.510 . S
C532 O548 1.249 . S
C532 O549 1.252 . S
C533 C532 1.510 . S
C533 C534 1.404 . S
C533 C535 1.352 . S
C534 C533 1.404 . S
C534 C538 1.389 . S
C534 H556 0.930 . S
C535 C533 1.352 . S
C535 C537 1.374 . S
C535 H557 0.931 . S
C536 C537 1.359 . S
C536 C538 1.364 . S
C537 C535 1.374 . S
C537 C536 1.359 . S
C537 H558 0.931 . S
C538 C534 1.389 . S
C538 C536 1.364 . S
C538 H559 0.931 . S
C539 O550 1.256 . S
C539 O551 1.257 . S
O540 Gd520 2.377 . S
O540 C522 1.240 . S
O541 Gd521 2.395 . S
O541 C522 1.240 . S
O542 Gd520 2.448 . S
O542 C523 1.249 . S
O543 Gd520 2.506 . S
O543 C523 1.252 . S
O544 Gd520 2.435 . S
O544 C530 1.256 . S
O545 Gd520 2.717 . S
O545 Gd521 2.327 . S
O545 C530 1.257 . S
O546 Gd521 2.377 . S
O546 C531 1.240 . S
O547 Gd520 2.395 . S
O547 C531 1.240 . S
O548 Gd521 2.448 . S
O548 C532 1.249 . S
O549 Gd521 2.506 . S
O549 C532 1.252 . S
O550 Gd521 2.435 . S
O550 C539 1.256 . S
O551 Gd520 2.327 . S
O551 Gd521 2.717 . S
O551 C539 1.257 . S
H552 C525 0.930 . S
H553 C526 0.931 . S
H554 C528 0.931 . S
H555 C529 0.931 . S
H556 C534 0.930 . S
H557 C535 0.931 . S
H558 C537 0.931 . S
H559 C538 0.931 . S
Gd560 C563 2.818 . S
Gd560 O580 2.377 . S
Gd560 O582 2.448 . S
Gd560 O583 2.506 . S
Gd560 O584 2.435 . S
Gd560 O585 2.717 . S
Gd560 O587 2.395 . S
Gd560 O591 2.327 . S
Gd561 C572 2.818 . S
Gd561 O581 2.395 . S
Gd561 O585 2.327 . S
Gd561 O586 2.377 . S
Gd561 O588 2.448 . S
Gd561 O589 2.506 . S
Gd561 O590 2.435 . S
Gd561 O591 2.717 . S
C562 O580 1.240 . S
C562 O581 1.240 . S
C563 Gd560 2.818 . S
C563 C564 1.510 . S
C563 O582 1.249 . S
C563 O583 1.252 . S
C564 C563 1.510 . S
C564 C565 1.404 . S
C564 C566 1.352 . S
C565 C564 1.404 . S
C565 C569 1.389 . S
C565 H592 0.930 . S
C566 C564 1.352 . S
C566 C568 1.374 . S
C566 H593 0.931 . S
C567 C568 1.359 . S
C567 C569 1.364 . S
C568 C566 1.374 . S
C568 C567 1.359 . S
C568 H594 0.931 . S
C569 C565 1.389 . S
C569 C567 1.364 . S
C569 H595 0.931 . S
C570 O584 1.256 . S
C570 O585 1.257 . S
C571 O586 1.240 . S
C571 O587 1.240 . S
C572 Gd561 2.818 . S
C572 C573 1.510 . S
C572 O588 1.249 . S
C572 O589 1.252 . S
C573 C572 1.510 . S
C573 C574 1.404 . S
C573 C575 1.352 . S
C574 C573 1.404 . S
C574 C578 1.389 . S
C574 H596 0.930 . S
C575 C573 1.352 . S
C575 C577 1.374 . S
C575 H597 0.931 . S
C576 C577 1.359 . S
C576 C578 1.364 . S
C577 C575 1.374 . S
C577 C576 1.359 . S
C577 H598 0.931 . S
C578 C574 1.389 . S
C578 C576 1.364 . S
C578 H599 0.931 . S
C579 O590 1.256 . S
C579 O591 1.257 . S
O580 Gd560 2.377 . S
O580 C562 1.240 . S
O581 Gd561 2.395 . S
O581 C562 1.240 . S
O582 Gd560 2.448 . S
O582 C563 1.249 . S
O583 Gd560 2.506 . S
O583 C563 1.252 . S
O584 Gd560 2.435 . S
O584 C570 1.256 . S
O585 Gd560 2.717 . S
O585 Gd561 2.327 . S
O585 C570 1.257 . S
O586 Gd561 2.377 . S
O586 C571 1.240 . S
O587 Gd560 2.395 . S
O587 C571 1.240 . S
O588 Gd561 2.448 . S
O588 C572 1.249 . S
O589 Gd561 2.506 . S
O589 C572 1.252 . S
O590 Gd561 2.435 . S
O590 C579 1.256 . S
O591 Gd560 2.327 . S
O591 Gd561 2.717 . S
O591 C579 1.257 . S
H592 C565 0.930 . S
H593 C566 0.931 . S
H594 C568 0.931 . S
H595 C569 0.931 . S
H596 C574 0.930 . S
H597 C575 0.931 . S
H598 C577 0.931 . S
H599 C578 0.931 . S
Gd600 C603 2.818 . S
Gd600 O620 2.377 . S
Gd600 O622 2.448 . S
Gd600 O623 2.506 . S
Gd600 O624 2.435 . S
Gd600 O625 2.717 . S
Gd600 O627 2.395 . S
Gd600 O631 2.327 . S
Gd601 C612 2.818 . S
Gd601 O621 2.395 . S
Gd601 O625 2.327 . S
Gd601 O626 2.377 . S
Gd601 O628 2.448 . S
Gd601 O629 2.506 . S
Gd601 O630 2.435 . S
Gd601 O631 2.717 . S
C602 O620 1.240 . S
C602 O621 1.240 . S
C603 Gd600 2.818 . S
C603 C604 1.510 . S
C603 O622 1.249 . S
C603 O623 1.252 . S
C604 C603 1.510 . S
C604 C605 1.404 . S
C604 C606 1.352 . S
C605 C604 1.404 . S
C605 C609 1.389 . S
C605 H632 0.930 . S
C606 C604 1.352 . S
C606 C608 1.374 . S
C606 H633 0.931 . S
C607 C608 1.359 . S
C607 C609 1.364 . S
C608 C606 1.374 . S
C608 C607 1.359 . S
C608 H634 0.931 . S
C609 C605 1.389 . S
C609 C607 1.364 . S
C609 H635 0.931 . S
C610 O624 1.256 . S
C610 O625 1.257 . S
C611 O626 1.240 . S
C611 O627 1.240 . S
C612 Gd601 2.818 . S
C612 C613 1.510 . S
C612 O628 1.249 . S
C612 O629 1.252 . S
C613 C612 1.510 . S
C613 C614 1.404 . S
C613 C615 1.352 . S
C614 C613 1.404 . S
C614 C618 1.389 . S
C614 H636 0.930 . S
C615 C613 1.352 . S
C615 C617 1.374 . S
C615 H637 0.931 . S
C616 C617 1.359 . S
C616 C618 1.364 . S
C617 C615 1.374 . S
C617 C616 1.359 . S
C617 H638 0.931 . S
C618 C614 1.389 . S
C618 C616 1.364 . S
C618 H639 0.931 . S
C619 O630 1.256 . S
C619 O631 1.257 . S
O620 Gd600 2.377 . S
O620 C602 1.240 . S
O621 Gd601 2.395 . S
O621 C602 1.240 . S
O622 Gd600 2.448 . S
O622 C603 1.249 . S
O623 Gd600 2.506 . S
O623 C603 1.252 . S
O624 Gd600 2.435 . S
O624 C610 1.256 . S
O625 Gd600 2.717 . S
O625 Gd601 2.327 . S
O625 C610 1.257 . S
O626 Gd601 2.377 . S
O626 C611 1.240 . S
O627 Gd600 2.395 . S
O627 C611 1.240 . S
O628 Gd601 2.448 . S
O628 C612 1.249 . S
O629 Gd601 2.506 . S
O629 C612 1.252 . S
O630 Gd601 2.435 . S
O630 C619 1.256 . S
O631 Gd600 2.327 . S
O631 Gd601 2.717 . S
O631 C619 1.257 . S
H632 C605 0.930 . S
H633 C606 0.931 . S
H634 C608 0.931 . S
H635 C609 0.931 . S
H636 C614 0.930 . S
H637 C615 0.931 . S
H638 C617 0.931 . S
H639 C618 0.931 . S
Gd640 C643 2.818 . S
Gd640 O660 2.377 . S
Gd640 O662 2.448 . S
Gd640 O663 2.506 . S
Gd640 O664 2.435 . S
Gd640 O665 2.717 . S
Gd640 O667 2.395 . S
Gd640 O671 2.327 . S
Gd641 C652 2.818 . S
Gd641 O661 2.395 . S
Gd641 O665 2.327 . S
Gd641 O666 2.377 . S
Gd641 O668 2.448 . S
Gd641 O669 2.506 . S
Gd641 O670 2.435 . S
Gd641 O671 2.717 . S
C642 O660 1.240 . S
C642 O661 1.240 . S
C643 Gd640 2.818 . S
C643 C644 1.510 . S
C643 O662 1.249 . S
C643 O663 1.252 . S
C644 C643 1.510 . S
C644 C645 1.404 . S
C644 C646 1.352 . S
C645 C644 1.404 . S
C645 C649 1.389 . S
C645 H672 0.930 . S
C646 C644 1.352 . S
C646 C648 1.374 . S
C646 H673 0.931 . S
C647 C648 1.359 . S
C647 C649 1.364 . S
C648 C646 1.374 . S
C648 C647 1.359 . S
C648 H674 0.931 . S
C649 C645 1.389 . S
C649 C647 1.364 . S
C649 H675 0.931 . S
C650 O664 1.256 . S
C650 O665 1.257 . S
C651 O666 1.240 . S
C651 O667 1.240 . S
C652 Gd641 2.818 . S
C652 C653 1.510 . S
C652 O668 1.249 . S
C652 O669 1.252 . S
C653 C652 1.510 . S
C653 C654 1.404 . S
C653 C655 1.352 . S
C654 C653 1.404 . S
C654 C658 1.389 . S
C654 H676 0.930 . S
C655 C653 1.352 . S
C655 C657 1.374 . S
C655 H677 0.931 . S
C656 C657 1.359 . S
C656 C658 1.364 . S
C657 C655 1.374 . S
C657 C656 1.359 . S
C657 H678 0.931 . S
C658 C654 1.389 . S
C658 C656 1.364 . S
C658 H679 0.931 . S
C659 O670 1.256 . S
C659 O671 1.257 . S
O660 Gd640 2.377 . S
O660 C642 1.240 . S
O661 Gd641 2.395 . S
O661 C642 1.240 . S
O662 Gd640 2.448 . S
O662 C643 1.249 . S
O663 Gd640 2.506 . S
O663 C643 1.252 . S
O664 Gd640 2.435 . S
O664 C650 1.256 . S
O665 Gd640 2.717 . S
O665 Gd641 2.327 . S
O665 C650 1.257 . S
O666 Gd641 2.377 . S
O666 C651 1.240 . S
O667 Gd640 2.395 . S
O667 C651 1.240 . S
O668 Gd641 2.448 . S
O668 C652 1.249 . S
O669 Gd641 2.506 . S
O669 C652 1.252 . S
O670 Gd641 2.435 . S
O670 C659 1.256 . S
O671 Gd640 2.327 . S
O671 Gd641 2.717 . S
O671 C659 1.257 . S
H672 C645 0.930 . S
H673 C646 0.931 . S
H674 C648 0.931 . S
H675 C649 0.931 . S
H676 C654 0.930 . S
H677 C655 0.931 . S
H678 C657 0.931 . S
H679 C658 0.931 . S
Gd680 C683 2.818 . S
Gd680 O700 2.377 . S
Gd680 O702 2.448 . S
Gd680 O703 2.506 . S
Gd680 O704 2.435 . S
Gd680 O705 2.717 . S
Gd680 O707 2.395 . S
Gd680 O711 2.327 . S
Gd681 C692 2.818 . S
Gd681 O701 2.395 . S
Gd681 O705 2.327 . S
Gd681 O706 2.377 . S
Gd681 O708 2.448 . S
Gd681 O709 2.506 . S
Gd681 O710 2.435 . S
Gd681 O711 2.717 . S
C682 O700 1.240 . S
C682 O701 1.240 . S
C683 Gd680 2.818 . S
C683 C684 1.510 . S
C683 O702 1.249 . S
C683 O703 1.252 . S
C684 C683 1.510 . S
C684 C685 1.404 . S
C684 C686 1.352 . S
C685 C684 1.404 . S
C685 C689 1.389 . S
C685 H712 0.930 . S
C686 C684 1.352 . S
C686 C688 1.374 . S
C686 H713 0.931 . S
C687 C688 1.359 . S
C687 C689 1.364 . S
C688 C686 1.374 . S
C688 C687 1.359 . S
C688 H714 0.931 . S
C689 C685 1.389 . S
C689 C687 1.364 . S
C689 H715 0.931 . S
C690 O704 1.256 . S
C690 O705 1.257 . S
C691 O706 1.240 . S
C691 O707 1.240 . S
C692 Gd681 2.818 . S
C692 C693 1.510 . S
C692 O708 1.249 . S
C692 O709 1.252 . S
C693 C692 1.510 . S
C693 C694 1.404 . S
C693 C695 1.352 . S
C694 C693 1.404 . S
C694 C698 1.389 . S
C694 H716 0.930 . S
C695 C693 1.352 . S
C695 C697 1.374 . S
C695 H717 0.931 . S
C696 C697 1.359 . S
C696 C698 1.364 . S
C697 C695 1.374 . S
C697 C696 1.359 . S
C697 H718 0.931 . S
C698 C694 1.389 . S
C698 C696 1.364 . S
C698 H719 0.931 . S
C699 O710 1.256 . S
C699 O711 1.257 . S
O700 Gd680 2.377 . S
O700 C682 1.240 . S
O701 Gd681 2.395 . S
O701 C682 1.240 . S
O702 Gd680 2.448 . S
O702 C683 1.249 . S
O703 Gd680 2.506 . S
O703 C683 1.252 . S
O704 Gd680 2.435 . S
O704 C690 1.256 . S
O705 Gd680 2.717 . S
O705 Gd681 2.327 . S
O705 C690 1.257 . S
O706 Gd681 2.377 . S
O706 C691 1.240 . S
O707 Gd680 2.395 . S
O707 C691 1.240 . S
O708 Gd681 2.448 . S
O708 C692 1.249 . S
O709 Gd681 2.506 . S
O709 C692 1.252 . S
O710 Gd681 2.435 . S
O710 C699 1.256 . S
O711 Gd680 2.327 . S
O711 Gd681 2.717 . S
O711 C699 1.257 . S
H712 C685 0.930 . S
H713 C686 0.931 . S
H714 C688 0.931 . S
H715 C689 0.931 . S
H716 C694 0.930 . S
H717 C695 0.931 . S
H718 C697 0.931 . S
H719 C698 0.931 . S
Gd720 C723 2.818 . S
Gd720 O740 2.377 . S
Gd720 O742 2.448 . S
Gd720 O743 2.506 . S
Gd720 O744 2.435 . S
Gd720 O745 2.717 . S
Gd720 O747 2.395 . S
Gd720 O751 2.327 . S
Gd721 C732 2.818 . S
Gd721 O741 2.395 . S
Gd721 O745 2.327 . S
Gd721 O746 2.377 . S
Gd721 O748 2.448 . S
Gd721 O749 2.506 . S
Gd721 O750 2.435 . S
Gd721 O751 2.717 . S
C722 O740 1.240 . S
C722 O741 1.240 . S
C723 Gd720 2.818 . S
C723 C724 1.510 . S
C723 O742 1.249 . S
C723 O743 1.252 . S
C724 C723 1.510 . S
C724 C725 1.404 . S
C724 C726 1.352 . S
C725 C724 1.404 . S
C725 C729 1.389 . S
C725 H752 0.930 . S
C726 C724 1.352 . S
C726 C728 1.374 . S
C726 H753 0.931 . S
C727 C728 1.359 . S
C727 C729 1.364 . S
C728 C726 1.374 . S
C728 C727 1.359 . S
C728 H754 0.931 . S
C729 C725 1.389 . S
C729 C727 1.364 . S
C729 H755 0.931 . S
C730 O744 1.256 . S
C730 O745 1.257 . S
C731 O746 1.240 . S
C731 O747 1.240 . S
C732 Gd721 2.818 . S
C732 C733 1.510 . S
C732 O748 1.249 . S
C732 O749 1.252 . S
C733 C732 1.510 . S
C733 C734 1.404 . S
C733 C735 1.352 . S
C734 C733 1.404 . S
C734 C738 1.389 . S
C734 H756 0.930 . S
C735 C733 1.352 . S
C735 C737 1.374 . S
C735 H757 0.931 . S
C736 C737 1.359 . S
C736 C738 1.364 . S
C737 C735 1.374 . S
C737 C736 1.359 . S
C737 H758 0.931 . S
C738 C734 1.389 . S
C738 C736 1.364 . S
C738 H759 0.931 . S
C739 O750 1.256 . S
C739 O751 1.257 . S
O740 Gd720 2.377 . S
O740 C722 1.240 . S
O741 Gd721 2.395 . S
O741 C722 1.240 . S
O742 Gd720 2.448 . S
O742 C723 1.249 . S
O743 Gd720 2.506 . S
O743 C723 1.252 . S
O744 Gd720 2.435 . S
O744 C730 1.256 . S
O745 Gd720 2.717 . S
O745 Gd721 2.327 . S
O745 C730 1.257 . S
O746 Gd721 2.377 . S
O746 C731 1.240 . S
O747 Gd720 2.395 . S
O747 C731 1.240 . S
O748 Gd721 2.448 . S
O748 C732 1.249 . S
O749 Gd721 2.506 . S
O749 C732 1.252 . S
O750 Gd721 2.435 . S
O750 C739 1.256 . S
O751 Gd720 2.327 . S
O751 Gd721 2.717 . S
O751 C739 1.257 . S
H752 C725 0.930 . S
H753 C726 0.931 . S
H754 C728 0.931 . S
H755 C729 0.931 . S
H756 C734 0.930 . S
H757 C735 0.931 . S
H758 C737 0.931 . S
H759 C738 0.931 . S
Gd760 C763 2.818 . S
Gd760 O780 2.377 . S
Gd760 O782 2.448 . S
Gd760 O783 2.506 . S
Gd760 O784 2.435 . S
Gd760 O785 2.717 . S
Gd760 O787 2.395 . S
Gd760 O791 2.327 . S
Gd761 C772 2.818 . S
Gd761 O781 2.395 . S
Gd761 O785 2.327 . S
Gd761 O786 2.377 . S
Gd761 O788 2.448 . S
Gd761 O789 2.506 . S
Gd761 O790 2.435 . S
Gd761 O791 2.717 . S
C762 O780 1.240 . S
C762 O781 1.240 . S
C763 Gd760 2.818 . S
C763 C764 1.510 . S
C763 O782 1.249 . S
C763 O783 1.252 . S
C764 C763 1.510 . S
C764 C765 1.404 . S
C764 C766 1.352 . S
C765 C764 1.404 . S
C765 C769 1.389 . S
C765 H792 0.930 . S
C766 C764 1.352 . S
C766 C768 1.374 . S
C766 H793 0.931 . S
C767 C768 1.359 . S
C767 C769 1.364 . S
C768 C766 1.374 . S
C768 C767 1.359 . S
C768 H794 0.931 . S
C769 C765 1.389 . S
C769 C767 1.364 . S
C769 H795 0.931 . S
C770 O784 1.256 . S
C770 O785 1.257 . S
C771 O786 1.240 . S
C771 O787 1.240 . S
C772 Gd761 2.818 . S
C772 C773 1.510 . S
C772 O788 1.249 . S
C772 O789 1.252 . S
C773 C772 1.510 . S
C773 C774 1.404 . S
C773 C775 1.352 . S
C774 C773 1.404 . S
C774 C778 1.389 . S
C774 H796 0.930 . S
C775 C773 1.352 . S
C775 C777 1.374 . S
C775 H797 0.931 . S
C776 C777 1.359 . S
C776 C778 1.364 . S
C777 C775 1.374 . S
C777 C776 1.359 . S
C777 H798 0.931 . S
C778 C774 1.389 . S
C778 C776 1.364 . S
C778 H799 0.931 . S
C779 O790 1.256 . S
C779 O791 1.257 . S
O780 Gd760 2.377 . S
O780 C762 1.240 . S
O781 Gd761 2.395 . S
O781 C762 1.240 . S
O782 Gd760 2.448 . S
O782 C763 1.249 . S
O783 Gd760 2.506 . S
O783 C763 1.252 . S
O784 Gd760 2.435 . S
O784 C770 1.256 . S
O785 Gd760 2.717 . S
O785 Gd761 2.327 . S
O785 C770 1.257 . S
O786 Gd761 2.377 . S
O786 C771 1.240 . S
O787 Gd760 2.395 . S
O787 C771 1.240 . S
O788 Gd761 2.448 . S
O788 C772 1.249 . S
O789 Gd761 2.506 . S
O789 C772 1.252 . S
O790 Gd761 2.435 . S
O790 C779 1.256 . S
O791 Gd760 2.327 . S
O791 Gd761 2.717 . S
O791 C779 1.257 . S
H792 C765 0.930 . S
H793 C766 0.931 . S
H794 C768 0.931 . S
H795 C769 0.931 . S
H796 C774 0.930 . S
H797 C775 0.931 . S
H798 C777 0.931 . S
H799 C778 0.931 . S
Gd800 C803 2.818 . S
Gd800 O820 2.377 . S
Gd800 O822 2.448 . S
Gd800 O823 2.506 . S
Gd800 O824 2.435 . S
Gd800 O825 2.717 . S
Gd800 O827 2.395 . S
Gd800 O831 2.327 . S
Gd801 C812 2.818 . S
Gd801 O821 2.395 . S
Gd801 O825 2.327 . S
Gd801 O826 2.377 . S
Gd801 O828 2.448 . S
Gd801 O829 2.506 . S
Gd801 O830 2.435 . S
Gd801 O831 2.717 . S
C802 O820 1.240 . S
C802 O821 1.240 . S
C803 Gd800 2.818 . S
C803 C804 1.510 . S
C803 O822 1.249 . S
C803 O823 1.252 . S
C804 C803 1.510 . S
C804 C805 1.404 . S
C804 C806 1.352 . S
C805 C804 1.404 . S
C805 C809 1.389 . S
C805 H832 0.930 . S
C806 C804 1.352 . S
C806 C808 1.374 . S
C806 H833 0.931 . S
C807 C808 1.359 . S
C807 C809 1.364 . S
C808 C806 1.374 . S
C808 C807 1.359 . S
C808 H834 0.931 . S
C809 C805 1.389 . S
C809 C807 1.364 . S
C809 H835 0.931 . S
C810 O824 1.256 . S
C810 O825 1.257 . S
C811 O826 1.240 . S
C811 O827 1.240 . S
C812 Gd801 2.818 . S
C812 C813 1.510 . S
C812 O828 1.249 . S
C812 O829 1.252 . S
C813 C812 1.510 . S
C813 C814 1.404 . S
C813 C815 1.352 . S
C814 C813 1.404 . S
C814 C818 1.389 . S
C814 H836 0.930 . S
C815 C813 1.352 . S
C815 C817 1.374 . S
C815 H837 0.931 . S
C816 C817 1.359 . S
C816 C818 1.364 . S
C817 C815 1.374 . S
C817 C816 1.359 . S
C817 H838 0.931 . S
C818 C814 1.389 . S
C818 C816 1.364 . S
C818 H839 0.931 . S
C819 O830 1.256 . S
C819 O831 1.257 . S
O820 Gd800 2.377 . S
O820 C802 1.240 . S
O821 Gd801 2.395 . S
O821 C802 1.240 . S
O822 Gd800 2.448 . S
O822 C803 1.249 . S
O823 Gd800 2.506 . S
O823 C803 1.252 . S
O824 Gd800 2.435 . S
O824 C810 1.256 . S
O825 Gd800 2.717 . S
O825 Gd801 2.327 . S
O825 C810 1.257 . S
O826 Gd801 2.377 . S
O826 C811 1.240 . S
O827 Gd800 2.395 . S
O827 C811 1.240 . S
O828 Gd801 2.448 . S
O828 C812 1.249 . S
O829 Gd801 2.506 . S
O829 C812 1.252 . S
O830 Gd801 2.435 . S
O830 C819 1.256 . S
O831 Gd800 2.327 . S
O831 Gd801 2.717 . S
O831 C819 1.257 . S
H832 C805 0.930 . S
H833 C806 0.931 . S
H834 C808 0.931 . S
H835 C809 0.931 . S
H836 C814 0.930 . S
H837 C815 0.931 . S
H838 C817 0.931 . S
H839 C818 0.931 . S
Gd840 C843 2.818 . S
Gd840 O860 2.377 . S
Gd840 O862 2.448 . S
Gd840 O863 2.506 . S
Gd840 O864 2.435 . S
Gd840 O865 2.717 . S
Gd840 O867 2.395 . S
Gd840 O871 2.327 . S
Gd841 C852 2.818 . S
Gd841 O861 2.395 . S
Gd841 O865 2.327 . S
Gd841 O866 2.377 . S
Gd841 O868 2.448 . S
Gd841 O869 2.506 . S
Gd841 O870 2.453 . S
Gd841 O871 2.717 . S
C842 O860 1.240 . S
C842 O861 1.240 . S
C843 Gd840 2.818 . S
C843 C844 1.510 . S
C843 O862 1.249 . S
C843 O863 1.252 . S
C844 C843 1.510 . S
C844 C845 1.404 . S
C844 C846 1.352 . S
C845 C844 1.404 . S
C845 C849 1.389 . S
C845 H872 0.930 . S
C846 C844 1.352 . S
C846 C848 1.374 . S
C846 H873 0.931 . S
C847 C848 1.359 . S
C847 C849 1.364 . S
C848 C846 1.374 . S
C848 C847 1.359 . S
C848 H874 0.931 . S
C849 C845 1.389 . S
C849 C847 1.364 . S
C849 H875 0.931 . S
C850 O864 1.256 . S
C850 O865 1.257 . S
C851 O866 1.240 . S
C851 O867 1.240 . S
C852 Gd841 2.818 . S
C852 C853 1.510 . S
C852 O868 1.249 . S
C852 O869 1.252 . S
C853 C852 1.510 . S
C853 C854 1.404 . S
C853 C855 1.352 . S
C854 C853 1.404 . S
C854 C858 1.389 . S
C854 H876 0.930 . S
C855 C853 1.352 . S
C855 C857 1.374 . S
C855 H877 0.931 . S
C856 C857 1.359 . S
C856 C858 1.364 . S
C857 C855 1.374 . S
C857 C856 1.359 . S
C857 H878 0.931 . S
C858 C854 1.389 . S
C858 C856 1.364 . S
C858 H879 0.931 . S
C859 O870 1.252 1_554 S
C859 O871 1.257 1_554 S
O860 Gd840 2.377 . S
O860 C842 1.240 . S
O861 Gd841 2.395 . S
O861 C842 1.240 . S
O862 Gd840 2.448 . S
O862 C843 1.249 . S
O863 Gd840 2.506 . S
O863 C843 1.252 . S
O864 Gd840 2.435 . S
O864 C850 1.256 . S
O865 Gd840 2.717 . S
O865 Gd841 2.327 . S
O865 C850 1.257 . S
O866 Gd841 2.377 . S
O866 C851 1.240 . S
O867 Gd840 2.395 . S
O867 C851 1.240 . S
O868 Gd841 2.448 . S
O868 C852 1.249 . S
O869 Gd841 2.506 . S
O869 C852 1.252 . S
O870 Gd841 2.453 . S
O870 C859 1.252 1_556 S
O871 Gd840 2.327 . S
O871 Gd841 2.717 . S
O871 C859 1.257 1_556 S
H872 C845 0.930 . S
H873 C846 0.931 . S
H874 C848 0.931 . S
H875 C849 0.931 . S
H876 C854 0.930 . S
H877 C855 0.931 . S
H878 C857 0.931 . S
H879 C858 0.931 . S
Gd880 C883 2.818 . S
Gd880 O900 2.377 . S
Gd880 O902 2.448 . S
Gd880 O903 2.506 . S
Gd880 O904 2.435 . S
Gd880 O905 2.717 . S
Gd880 O907 2.395 . S
Gd880 O911 2.327 . S
Gd881 C892 2.818 . S
Gd881 O901 2.395 . S
Gd881 O905 2.327 . S
Gd881 O906 2.377 . S
Gd881 O908 2.448 . S
Gd881 O909 2.506 . S
Gd881 O910 2.453 . S
Gd881 O911 2.717 . S
C882 O900 1.240 . S
C882 O901 1.240 . S
C883 Gd880 2.818 . S
C883 C884 1.510 . S
C883 O902 1.249 . S
C883 O903 1.252 . S
C884 C883 1.510 . S
C884 C885 1.404 . S
C884 C886 1.352 . S
C885 C884 1.404 . S
C885 C889 1.389 . S
C885 H912 0.930 . S
C886 C884 1.352 . S
C886 C888 1.374 . S
C886 H913 0.931 . S
C887 C888 1.359 . S
C887 C889 1.364 . S
C888 C886 1.374 . S
C888 C887 1.359 . S
C888 H914 0.931 . S
C889 C885 1.389 . S
C889 C887 1.364 . S
C889 H915 0.931 . S
C890 O904 1.256 . S
C890 O905 1.257 . S
C891 O906 1.240 . S
C891 O907 1.240 . S
C892 Gd881 2.818 . S
C892 C893 1.510 . S
C892 O908 1.249 . S
C892 O909 1.252 . S
C893 C892 1.510 . S
C893 C894 1.404 . S
C893 C895 1.352 . S
C894 C893 1.404 . S
C894 C898 1.389 . S
C894 H916 0.930 . S
C895 C893 1.352 . S
C895 C897 1.374 . S
C895 H917 0.931 . S
C896 C897 1.359 . S
C896 C898 1.364 . S
C897 C895 1.374 . S
C897 C896 1.359 . S
C897 H918 0.931 . S
C898 C894 1.389 . S
C898 C896 1.364 . S
C898 H919 0.931 . S
C899 O910 1.252 1_554 S
C899 O911 1.257 1_554 S
O900 Gd880 2.377 . S
O900 C882 1.240 . S
O901 Gd881 2.395 . S
O901 C882 1.240 . S
O902 Gd880 2.448 . S
O902 C883 1.249 . S
O903 Gd880 2.506 . S
O903 C883 1.252 . S
O904 Gd880 2.435 . S
O904 C890 1.256 . S
O905 Gd880 2.717 . S
O905 Gd881 2.327 . S
O905 C890 1.257 . S
O906 Gd881 2.377 . S
O906 C891 1.240 . S
O907 Gd880 2.395 . S
O907 C891 1.240 . S
O908 Gd881 2.448 . S
O908 C892 1.249 . S
O909 Gd881 2.506 . S
O909 C892 1.252 . S
O910 Gd881 2.453 . S
O910 C899 1.252 1_556 S
O911 Gd880 2.327 . S
O911 Gd881 2.717 . S
O911 C899 1.257 1_556 S
H912 C885 0.930 . S
H913 C886 0.931 . S
H914 C888 0.931 . S
H915 C889 0.931 . S
H916 C894 0.930 . S
H917 C895 0.931 . S
H918 C897 0.931 . S
H919 C898 0.931 . S
Gd920 C923 2.818 . S
Gd920 O940 2.377 . S
Gd920 O942 2.448 . S
Gd920 O943 2.506 . S
Gd920 O944 2.435 . S
Gd920 O945 2.717 . S
Gd920 O947 2.395 . S
Gd920 O951 2.327 . S
Gd921 C932 2.818 . S
Gd921 O941 2.395 . S
Gd921 O945 2.327 . S
Gd921 O946 2.377 . S
Gd921 O948 2.448 . S
Gd921 O949 2.506 . S
Gd921 O950 2.453 . S
Gd921 O951 2.717 . S
C922 O940 1.240 . S
C922 O941 1.240 . S
C923 Gd920 2.818 . S
C923 C924 1.510 . S
C923 O942 1.249 . S
C923 O943 1.252 . S
C924 C923 1.510 . S
C924 C925 1.404 . S
C924 C926 1.352 . S
C925 C924 1.404 . S
C925 C929 1.389 . S
C925 H952 0.930 . S
C926 C924 1.352 . S
C926 C928 1.374 . S
C926 H953 0.931 . S
C927 C928 1.359 . S
C927 C929 1.364 . S
C928 C926 1.374 . S
C928 C927 1.359 . S
C928 H954 0.931 . S
C929 C925 1.389 . S
C929 C927 1.364 . S
C929 H955 0.931 . S
C930 O944 1.256 . S
C930 O945 1.257 . S
C931 O946 1.240 . S
C931 O947 1.240 . S
C932 Gd921 2.818 . S
C932 C933 1.510 . S
C932 O948 1.249 . S
C932 O949 1.252 . S
C933 C932 1.510 . S
C933 C934 1.404 . S
C933 C935 1.352 . S
C934 C933 1.404 . S
C934 C938 1.389 . S
C934 H956 0.930 . S
C935 C933 1.352 . S
C935 C937 1.374 . S
C935 H957 0.931 . S
C936 C937 1.359 . S
C936 C938 1.364 . S
C937 C935 1.374 . S
C937 C936 1.359 . S
C937 H958 0.931 . S
C938 C934 1.389 . S
C938 C936 1.364 . S
C938 H959 0.931 . S
C939 O950 1.252 1_554 S
C939 O951 1.257 1_554 S
O940 Gd920 2.377 . S
O940 C922 1.240 . S
O941 Gd921 2.395 . S
O941 C922 1.240 . S
O942 Gd920 2.448 . S
O942 C923 1.249 . S
O943 Gd920 2.506 . S
O943 C923 1.252 . S
O944 Gd920 2.435 . S
O944 C930 1.256 . S
O945 Gd920 2.717 . S
O945 Gd921 2.327 . S
O945 C930 1.257 . S
O946 Gd921 2.377 . S
O946 C931 1.240 . S
O947 Gd920 2.395 . S
O947 C931 1.240 . S
O948 Gd921 2.448 . S
O948 C932 1.249 . S
O949 Gd921 2.506 . S
O949 C932 1.252 . S
O950 Gd921 2.453 . S
O950 C939 1.252 1_556 S
O951 Gd920 2.327 . S
O951 Gd921 2.717 . S
O951 C939 1.257 1_556 S
H952 C925 0.930 . S
H953 C926 0.931 . S
H954 C928 0.931 . S
H955 C929 0.931 . S
H956 C934 0.930 . S
H957 C935 0.931 . S
H958 C937 0.931 . S
H959 C938 0.931 . S
Gd960 C963 2.818 . S
Gd960 O980 2.377 . S
Gd960 O982 2.448 . S
Gd960 O983 2.506 . S
Gd960 O984 2.435 . S
Gd960 O985 2.717 . S
Gd960 O987 2.395 . S
Gd960 O991 2.327 . S
Gd961 C972 2.818 . S
Gd961 O981 2.395 . S
Gd961 O985 2.327 . S
Gd961 O986 2.377 . S
Gd961 O988 2.448 . S
Gd961 O989 2.506 . S
Gd961 O990 2.435 . S
Gd961 O991 2.717 . S
C962 O980 1.240 . S
C962 O981 1.240 . S
C963 Gd960 2.818 . S
C963 C964 1.510 . S
C963 O982 1.249 . S
C963 O983 1.252 . S
C964 C963 1.510 . S
C964 C965 1.404 . S
C964 C966 1.352 . S
C965 C964 1.404 . S
C965 C969 1.389 . S
C965 H992 0.930 . S
C966 C964 1.352 . S
C966 C968 1.374 . S
C966 H993 0.931 . S
C967 C968 1.359 . S
C967 C969 1.364 . S
C968 C966 1.374 . S
C968 C967 1.359 . S
C968 H994 0.931 . S
C969 C965 1.389 . S
C969 C967 1.364 . S
C969 H995 0.931 . S
C970 O984 1.256 . S
C970 O985 1.257 . S
C971 O986 1.240 . S
C971 O987 1.240 . S
C972 Gd961 2.818 . S
C972 C973 1.510 . S
C972 O988 1.249 . S
C972 O989 1.252 . S
C973 C972 1.510 . S
C973 C974 1.404 . S
C973 C975 1.352 . S
C974 C973 1.404 . S
C974 C978 1.389 . S
C974 H996 0.930 . S
C975 C973 1.352 . S
C975 C977 1.374 . S
C975 H997 0.931 . S
C976 C977 1.359 . S
C976 C978 1.364 . S
C977 C975 1.374 . S
C977 C976 1.359 . S
C977 H998 0.931 . S
C978 C974 1.389 . S
C978 C976 1.364 . S
C978 H999 0.931 . S
C979 O990 1.256 . S
C979 O991 1.257 . S
O980 Gd960 2.377 . S
O980 C962 1.240 . S
O981 Gd961 2.395 . S
O981 C962 1.240 . S
O982 Gd960 2.448 . S
O982 C963 1.249 . S
O983 Gd960 2.506 . S
O983 C963 1.252 . S
O984 Gd960 2.435 . S
O984 C970 1.256 . S
O985 Gd960 2.717 . S
O985 Gd961 2.327 . S
O985 C970 1.257 . S
O986 Gd961 2.377 . S
O986 C971 1.240 . S
O987 Gd960 2.395 . S
O987 C971 1.240 . S
O988 Gd961 2.448 . S
O988 C972 1.249 . S
O989 Gd961 2.506 . S
O989 C972 1.252 . S
O990 Gd961 2.435 . S
O990 C979 1.256 . S
O991 Gd960 2.327 . S
O991 Gd961 2.717 . S
O991 C979 1.257 . S
H992 C965 0.930 . S
H993 C966 0.931 . S
H994 C968 0.931 . S
H995 C969 0.931 . S
H996 C974 0.930 . S
H997 C975 0.931 . S
H998 C977 0.931 . S
H999 C978 0.931 . S
Gd1000 C1003 2.818 . S
Gd1000 O1020 2.377 . S
Gd1000 O1022 2.448 . S
Gd1000 O1023 2.506 . S
Gd1000 O1024 2.435 . S
Gd1000 O1025 2.717 . S
Gd1000 O1027 2.395 . S
Gd1000 O1031 2.327 . S
Gd1001 C1012 2.818 . S
Gd1001 O1021 2.395 . S
Gd1001 O1025 2.327 . S
Gd1001 O1026 2.377 . S
Gd1001 O1028 2.448 . S
Gd1001 O1029 2.506 . S
Gd1001 O1030 2.435 . S
Gd1001 O1031 2.717 . S
C1002 O1020 1.240 . S
C1002 O1021 1.240 . S
C1003 Gd1000 2.818 . S
C1003 C1004 1.510 . S
C1003 O1022 1.249 . S
C1003 O1023 1.252 . S
C1004 C1003 1.510 . S
C1004 C1005 1.404 . S
C1004 C1006 1.352 . S
C1005 C1004 1.404 . S
C1005 C1009 1.389 . S
C1005 H1032 0.930 . S
C1006 C1004 1.352 . S
C1006 C1008 1.374 . S
C1006 H1033 0.931 . S
C1007 C1008 1.359 . S
C1007 C1009 1.364 . S
C1008 C1006 1.374 . S
C1008 C1007 1.359 . S
C1008 H1034 0.931 . S
C1009 C1005 1.389 . S
C1009 C1007 1.364 . S
C1009 H1035 0.931 . S
C1010 O1024 1.256 . S
C1010 O1025 1.257 . S
C1011 O1026 1.240 . S
C1011 O1027 1.240 . S
C1012 Gd1001 2.818 . S
C1012 C1013 1.510 . S
C1012 O1028 1.249 . S
C1012 O1029 1.252 . S
C1013 C1012 1.510 . S
C1013 C1014 1.404 . S
C1013 C1015 1.352 . S
C1014 C1013 1.404 . S
C1014 C1018 1.389 . S
C1014 H1036 0.930 . S
C1015 C1013 1.352 . S
C1015 C1017 1.374 . S
C1015 H1037 0.931 . S
C1016 C1017 1.359 . S
C1016 C1018 1.364 . S
C1017 C1015 1.374 . S
C1017 C1016 1.359 . S
C1017 H1038 0.931 . S
C1018 C1014 1.389 . S
C1018 C1016 1.364 . S
C1018 H1039 0.931 . S
C1019 O1030 1.256 . S
C1019 O1031 1.257 . S
O1020 Gd1000 2.377 . S
O1020 C1002 1.240 . S
O1021 Gd1001 2.395 . S
O1021 C1002 1.240 . S
O1022 Gd1000 2.448 . S
O1022 C1003 1.249 . S
O1023 Gd1000 2.506 . S
O1023 C1003 1.252 . S
O1024 Gd1000 2.435 . S
O1024 C1010 1.256 . S
O1025 Gd1000 2.717 . S
O1025 Gd1001 2.327 . S
O1025 C1010 1.257 . S
O1026 Gd1001 2.377 . S
O1026 C1011 1.240 . S
O1027 Gd1000 2.395 . S
O1027 C1011 1.240 . S
O1028 Gd1001 2.448 . S
O1028 C1012 1.249 . S
O1029 Gd1001 2.506 . S
O1029 C1012 1.252 . S
O1030 Gd1001 2.435 . S
O1030 C1019 1.256 . S
O1031 Gd1000 2.327 . S
O1031 Gd1001 2.717 . S
O1031 C1019 1.257 . S
H1032 C1005 0.930 . S
H1033 C1006 0.931 . S
H1034 C1008 0.931 . S
H1035 C1009 0.931 . S
H1036 C1014 0.930 . S
H1037 C1015 0.931 . S
H1038 C1017 0.931 . S
H1039 C1018 0.931 . S
Gd1040 C1043 2.818 . S
Gd1040 O1060 2.377 . S
Gd1040 O1062 2.448 . S
Gd1040 O1063 2.506 . S
Gd1040 O1064 2.435 . S
Gd1040 O1065 2.717 . S
Gd1040 O1067 2.395 . S
Gd1040 O1071 2.327 . S
Gd1041 C1052 2.818 . S
Gd1041 O1061 2.395 . S
Gd1041 O1065 2.327 . S
Gd1041 O1066 2.377 . S
Gd1041 O1068 2.448 . S
Gd1041 O1069 2.506 . S
Gd1041 O1070 2.435 . S
Gd1041 O1071 2.717 . S
C1042 O1060 1.240 . S
C1042 O1061 1.240 . S
C1043 Gd1040 2.818 . S
C1043 C1044 1.510 . S
C1043 O1062 1.249 . S
C1043 O1063 1.252 . S
C1044 C1043 1.510 . S
C1044 C1045 1.404 . S
C1044 C1046 1.352 . S
C1045 C1044 1.404 . S
C1045 C1049 1.389 . S
C1045 H1072 0.930 . S
C1046 C1044 1.352 . S
C1046 C1048 1.374 . S
C1046 H1073 0.931 . S
C1047 C1048 1.359 . S
C1047 C1049 1.364 . S
C1048 C1046 1.374 . S
C1048 C1047 1.359 . S
C1048 H1074 0.931 . S
C1049 C1045 1.389 . S
C1049 C1047 1.364 . S
C1049 H1075 0.931 . S
C1050 O1064 1.256 . S
C1050 O1065 1.257 . S
C1051 O1066 1.240 . S
C1051 O1067 1.240 . S
C1052 Gd1041 2.818 . S
C1052 C1053 1.510 . S
C1052 O1068 1.249 . S
C1052 O1069 1.252 . S
C1053 C1052 1.510 . S
C1053 C1054 1.404 . S
C1053 C1055 1.352 . S
C1054 C1053 1.404 . S
C1054 C1058 1.389 . S
C1054 H1076 0.930 . S
C1055 C1053 1.352 . S
C1055 C1057 1.374 . S
C1055 H1077 0.931 . S
C1056 C1057 1.359 . S
C1056 C1058 1.364 . S
C1057 C1055 1.374 . S
C1057 C1056 1.359 . S
C1057 H1078 0.931 . S
C1058 C1054 1.389 . S
C1058 C1056 1.364 . S
C1058 H1079 0.931 . S
C1059 O1070 1.256 . S
C1059 O1071 1.257 . S
O1060 Gd1040 2.377 . S
O1060 C1042 1.240 . S
O1061 Gd1041 2.395 . S
O1061 C1042 1.240 . S
O1062 Gd1040 2.448 . S
O1062 C1043 1.249 . S
O1063 Gd1040 2.506 . S
O1063 C1043 1.252 . S
O1064 Gd1040 2.435 . S
O1064 C1050 1.256 . S
O1065 Gd1040 2.717 . S
O1065 Gd1041 2.327 . S
O1065 C1050 1.257 . S
O1066 Gd1041 2.377 . S
O1066 C1051 1.240 . S
O1067 Gd1040 2.395 . S
O1067 C1051 1.240 . S
O1068 Gd1041 2.448 . S
O1068 C1052 1.249 . S
O1069 Gd1041 2.506 . S
O1069 C1052 1.252 . S
O1070 Gd1041 2.435 . S
O1070 C1059 1.256 . S
O1071 Gd1040 2.327 . S
O1071 Gd1041 2.717 . S
O1071 C1059 1.257 . S
H1072 C1045 0.930 . S
H1073 C1046 0.931 . S
H1074 C1048 0.931 . S
H1075 C1049 0.931 . S
H1076 C1054 0.930 . S
H1077 C1055 0.931 . S
H1078 C1057 0.931 . S
H1079 C1058 0.931 . S
Gd1080 C1083 2.818 . S
Gd1080 O1100 2.377 . S
Gd1080 O1102 2.448 . S
Gd1080 O1103 2.506 . S
Gd1080 O1104 2.453 . S
Gd1080 O1105 2.717 . S
Gd1080 O1107 2.395 . S
Gd1080 O1111 2.327 . S
Gd1081 C1092 2.818 . S
Gd1081 O1101 2.395 . S
Gd1081 O1105 2.327 . S
Gd1081 O1106 2.377 . S
Gd1081 O1108 2.448 . S
Gd1081 O1109 2.506 . S
Gd1081 O1110 2.435 . S
Gd1081 O1111 2.717 . S
C1082 O1100 1.240 . S
C1082 O1101 1.240 . S
C1083 Gd1080 2.818 . S
C1083 C1084 1.510 . S
C1083 O1102 1.249 . S
C1083 O1103 1.252 . S
C1084 C1083 1.510 . S
C1084 C1085 1.404 . S
C1084 C1086 1.352 . S
C1085 C1084 1.404 . S
C1085 C1089 1.389 . S
C1085 H1112 0.930 . S
C1086 C1084 1.352 . S
C1086 C1088 1.374 . S
C1086 H1113 0.931 . S
C1087 C1088 1.359 . S
C1087 C1089 1.364 . S
C1088 C1086 1.374 . S
C1088 C1087 1.359 . S
C1088 H1114 0.931 . S
C1089 C1085 1.389 . S
C1089 C1087 1.364 . S
C1089 H1115 0.931 . S
C1090 O1104 1.252 1_556 S
C1090 O1105 1.257 1_556 S
C1091 O1106 1.240 . S
C1091 O1107 1.240 . S
C1092 Gd1081 2.818 . S
C1092 C1093 1.510 . S
C1092 O1108 1.249 . S
C1092 O1109 1.252 . S
C1093 C1092 1.510 . S
C1093 C1094 1.404 . S
C1093 C1095 1.352 . S
C1094 C1093 1.404 . S
C1094 C1098 1.389 . S
C1094 H1116 0.930 . S
C1095 C1093 1.352 . S
C1095 C1097 1.374 . S
C1095 H1117 0.931 . S
C1096 C1097 1.359 . S
C1096 C1098 1.364 . S
C1097 C1095 1.374 . S
C1097 C1096 1.359 . S
C1097 H1118 0.931 . S
C1098 C1094 1.389 . S
C1098 C1096 1.364 . S
C1098 H1119 0.931 . S
C1099 O1110 1.256 . S
C1099 O1111 1.257 . S
O1100 Gd1080 2.377 . S
O1100 C1082 1.240 . S
O1101 Gd1081 2.395 . S
O1101 C1082 1.240 . S
O1102 Gd1080 2.448 . S
O1102 C1083 1.249 . S
O1103 Gd1080 2.506 . S
O1103 C1083 1.252 . S
O1104 Gd1080 2.453 . S
O1104 C1090 1.252 1_554 S
O1105 Gd1080 2.717 . S
O1105 Gd1081 2.327 . S
O1105 C1090 1.257 1_554 S
O1106 Gd1081 2.377 . S
O1106 C1091 1.240 . S
O1107 Gd1080 2.395 . S
O1107 C1091 1.240 . S
O1108 Gd1081 2.448 . S
O1108 C1092 1.249 . S
O1109 Gd1081 2.506 . S
O1109 C1092 1.252 . S
O1110 Gd1081 2.435 . S
O1110 C1099 1.256 . S
O1111 Gd1080 2.327 . S
O1111 Gd1081 2.717 . S
O1111 C1099 1.257 . S
H1112 C1085 0.930 . S
H1113 C1086 0.931 . S
H1114 C1088 0.931 . S
H1115 C1089 0.931 . S
H1116 C1094 0.930 . S
H1117 C1095 0.931 . S
H1118 C1097 0.931 . S
H1119 C1098 0.931 . S
Gd1120 C1123 2.818 . S
Gd1120 O1140 2.377 . S
Gd1120 O1142 2.448 . S
Gd1120 O1143 2.506 . S
Gd1120 O1144 2.453 . S
Gd1120 O1145 2.717 . S
Gd1120 O1147 2.395 . S
Gd1120 O1151 2.327 . S
Gd1121 C1132 2.818 . S
Gd1121 O1141 2.395 . S
Gd1121 O1145 2.327 . S
Gd1121 O1146 2.377 . S
Gd1121 O1148 2.448 . S
Gd1121 O1149 2.506 . S
Gd1121 O1150 2.435 . S
Gd1121 O1151 2.717 . S
C1122 O1140 1.240 . S
C1122 O1141 1.240 . S
C1123 Gd1120 2.818 . S
C1123 C1124 1.510 . S
C1123 O1142 1.249 . S
C1123 O1143 1.252 . S
C1124 C1123 1.510 . S
C1124 C1125 1.404 . S
C1124 C1126 1.352 . S
C1125 C1124 1.404 . S
C1125 C1129 1.389 . S
C1125 H1152 0.930 . S
C1126 C1124 1.352 . S
C1126 C1128 1.374 . S
C1126 H1153 0.931 . S
C1127 C1128 1.359 . S
C1127 C1129 1.364 . S
C1128 C1126 1.374 . S
C1128 C1127 1.359 . S
C1128 H1154 0.931 . S
C1129 C1125 1.389 . S
C1129 C1127 1.364 . S
C1129 H1155 0.931 . S
C1130 O1144 1.252 1_556 S
C1130 O1145 1.257 1_556 S
C1131 O1146 1.240 . S
C1131 O1147 1.240 . S
C1132 Gd1121 2.818 . S
C1132 C1133 1.510 . S
C1132 O1148 1.249 . S
C1132 O1149 1.252 . S
C1133 C1132 1.510 . S
C1133 C1134 1.404 . S
C1133 C1135 1.352 . S
C1134 C1133 1.404 . S
C1134 C1138 1.389 . S
C1134 H1156 0.930 . S
C1135 C1133 1.352 . S
C1135 C1137 1.374 . S
C1135 H1157 0.931 . S
C1136 C1137 1.359 . S
C1136 C1138 1.364 . S
C1137 C1135 1.374 . S
C1137 C1136 1.359 . S
C1137 H1158 0.931 . S
C1138 C1134 1.389 . S
C1138 C1136 1.364 . S
C1138 H1159 0.931 . S
C1139 O1150 1.256 . S
C1139 O1151 1.257 . S
O1140 Gd1120 2.377 . S
O1140 C1122 1.240 . S
O1141 Gd1121 2.395 . S
O1141 C1122 1.240 . S
O1142 Gd1120 2.448 . S
O1142 C1123 1.249 . S
O1143 Gd1120 2.506 . S
O1143 C1123 1.252 . S
O1144 Gd1120 2.453 . S
O1144 C1130 1.252 1_554 S
O1145 Gd1120 2.717 . S
O1145 Gd1121 2.327 . S
O1145 C1130 1.257 1_554 S
O1146 Gd1121 2.377 . S
O1146 C1131 1.240 . S
O1147 Gd1120 2.395 . S
O1147 C1131 1.240 . S
O1148 Gd1121 2.448 . S
O1148 C1132 1.249 . S
O1149 Gd1121 2.506 . S
O1149 C1132 1.252 . S
O1150 Gd1121 2.435 . S
O1150 C1139 1.256 . S
O1151 Gd1120 2.327 . S
O1151 Gd1121 2.717 . S
O1151 C1139 1.257 . S
H1152 C1125 0.930 . S
H1153 C1126 0.931 . S
H1154 C1128 0.931 . S
H1155 C1129 0.931 . S
H1156 C1134 0.930 . S
H1157 C1135 0.931 . S
H1158 C1137 0.931 . S
H1159 C1138 0.931 . S
Gd1160 C1163 2.818 . S
Gd1160 O1180 2.377 . S
Gd1160 O1182 2.448 . S
Gd1160 O1183 2.506 . S
Gd1160 O1184 2.453 . S
Gd1160 O1185 2.717 . S
Gd1160 O1187 2.395 . S
Gd1160 O1191 2.327 . S
Gd1161 C1172 2.818 . S
Gd1161 O1181 2.395 . S
Gd1161 O1185 2.327 . S
Gd1161 O1186 2.377 . S
Gd1161 O1188 2.448 . S
Gd1161 O1189 2.506 . S
Gd1161 O1190 2.435 . S
Gd1161 O1191 2.717 . S
C1162 O1180 1.240 . S
C1162 O1181 1.240 . S
C1163 Gd1160 2.818 . S
C1163 C1164 1.510 . S
C1163 O1182 1.249 . S
C1163 O1183 1.252 . S
C1164 C1163 1.510 . S
C1164 C1165 1.404 . S
C1164 C1166 1.352 . S
C1165 C1164 1.404 . S
C1165 C1169 1.389 . S
C1165 H1192 0.930 . S
C1166 C1164 1.352 . S
C1166 C1168 1.374 . S
C1166 H1193 0.931 . S
C1167 C1168 1.359 . S
C1167 C1169 1.364 . S
C1168 C1166 1.374 . S
C1168 C1167 1.359 . S
C1168 H1194 0.931 . S
C1169 C1165 1.389 . S
C1169 C1167 1.364 . S
C1169 H1195 0.931 . S
C1170 O1184 1.252 1_556 S
C1170 O1185 1.257 1_556 S
C1171 O1186 1.240 . S
C1171 O1187 1.240 . S
C1172 Gd1161 2.818 . S
C1172 C1173 1.510 . S
C1172 O1188 1.249 . S
C1172 O1189 1.252 . S
C1173 C1172 1.510 . S
C1173 C1174 1.404 . S
C1173 C1175 1.352 . S
C1174 C1173 1.404 . S
C1174 C1178 1.389 . S
C1174 H1196 0.930 . S
C1175 C1173 1.352 . S
C1175 C1177 1.374 . S
C1175 H1197 0.931 . S
C1176 C1177 1.359 . S
C1176 C1178 1.364 . S
C1177 C1175 1.374 . S
C1177 C1176 1.359 . S
C1177 H1198 0.931 . S
C1178 C1174 1.389 . S
C1178 C1176 1.364 . S
C1178 H1199 0.931 . S
C1179 O1190 1.256 . S
C1179 O1191 1.257 . S
O1180 Gd1160 2.377 . S
O1180 C1162 1.240 . S
O1181 Gd1161 2.395 . S
O1181 C1162 1.240 . S
O1182 Gd1160 2.448 . S
O1182 C1163 1.249 . S
O1183 Gd1160 2.506 . S
O1183 C1163 1.252 . S
O1184 Gd1160 2.453 . S
O1184 C1170 1.252 1_554 S
O1185 Gd1160 2.717 . S
O1185 Gd1161 2.327 . S
O1185 C1170 1.257 1_554 S
O1186 Gd1161 2.377 . S
O1186 C1171 1.240 . S
O1187 Gd1160 2.395 . S
O1187 C1171 1.240 . S
O1188 Gd1161 2.448 . S
O1188 C1172 1.249 . S
O1189 Gd1161 2.506 . S
O1189 C1172 1.252 . S
O1190 Gd1161 2.435 . S
O1190 C1179 1.256 . S
O1191 Gd1160 2.327 . S
O1191 Gd1161 2.717 . S
O1191 C1179 1.257 . S
H1192 C1165 0.930 . S
H1193 C1166 0.931 . S
H1194 C1168 0.931 . S
H1195 C1169 0.931 . S
H1196 C1174 0.930 . S
H1197 C1175 0.931 . S
H1198 C1177 0.931 . S
H1199 C1178 0.931 . S
Gd1200 C1203 2.818 . S
Gd1200 O1220 2.377 . S
Gd1200 O1222 2.448 . S
Gd1200 O1223 2.506 . S
Gd1200 O1224 2.435 . S
Gd1200 O1225 2.717 . S
Gd1200 O1227 2.395 . S
Gd1200 O1231 2.327 . S
Gd1201 C1212 2.818 . S
Gd1201 O1221 2.395 . S
Gd1201 O1225 2.327 . S
Gd1201 O1226 2.377 . S
Gd1201 O1228 2.448 . S
Gd1201 O1229 2.506 . S
Gd1201 O1230 2.435 . S
Gd1201 O1231 2.717 . S
C1202 O1220 1.240 . S
C1202 O1221 1.240 . S
C1203 Gd1200 2.818 . S
C1203 C1204 1.510 . S
C1203 O1222 1.249 . S
C1203 O1223 1.252 . S
C1204 C1203 1.510 . S
C1204 C1205 1.404 . S
C1204 C1206 1.352 . S
C1205 C1204 1.404 . S
C1205 C1209 1.389 . S
C1205 H1232 0.930 . S
C1206 C1204 1.352 . S
C1206 C1208 1.374 . S
C1206 H1233 0.931 . S
C1207 C1208 1.359 . S
C1207 C1209 1.364 . S
C1208 C1206 1.374 . S
C1208 C1207 1.359 . S
C1208 H1234 0.931 . S
C1209 C1205 1.389 . S
C1209 C1207 1.364 . S
C1209 H1235 0.931 . S
C1210 O1224 1.256 . S
C1210 O1225 1.257 . S
C1211 O1226 1.240 . S
C1211 O1227 1.240 . S
C1212 Gd1201 2.818 . S
C1212 C1213 1.510 . S
C1212 O1228 1.249 . S
C1212 O1229 1.252 . S
C1213 C1212 1.510 . S
C1213 C1214 1.404 . S
C1213 C1215 1.352 . S
C1214 C1213 1.404 . S
C1214 C1218 1.389 . S
C1214 H1236 0.930 . S
C1215 C1213 1.352 . S
C1215 C1217 1.374 . S
C1215 H1237 0.931 . S
C1216 C1217 1.359 . S
C1216 C1218 1.364 . S
C1217 C1215 1.374 . S
C1217 C1216 1.359 . S
C1217 H1238 0.931 . S
C1218 C1214 1.389 . S
C1218 C1216 1.364 . S
C1218 H1239 0.931 . S
C1219 O1230 1.256 . S
C1219 O1231 1.257 . S
O1220 Gd1200 2.377 . S
O1220 C1202 1.240 . S
O1221 Gd1201 2.395 . S
O1221 C1202 1.240 . S
O1222 Gd1200 2.448 . S
O1222 C1203 1.249 . S
O1223 Gd1200 2.506 . S
O1223 C1203 1.252 . S
O1224 Gd1200 2.435 . S
O1224 C1210 1.256 . S
O1225 Gd1200 2.717 . S
O1225 Gd1201 2.327 . S
O1225 C1210 1.257 . S
O1226 Gd1201 2.377 . S
O1226 C1211 1.240 . S
O1227 Gd1200 2.395 . S
O1227 C1211 1.240 . S
O1228 Gd1201 2.448 . S
O1228 C1212 1.249 . S
O1229 Gd1201 2.506 . S
O1229 C1212 1.252 . S
O1230 Gd1201 2.435 . S
O1230 C1219 1.256 . S
O1231 Gd1200 2.327 . S
O1231 Gd1201 2.717 . S
O1231 C1219 1.257 . S
H1232 C1205 0.930 . S
H1233 C1206 0.931 . S
H1234 C1208 0.931 . S
H1235 C1209 0.931 . S
H1236 C1214 0.930 . S
H1237 C1215 0.931 . S
H1238 C1217 0.931 . S
H1239 C1218 0.931 . S
Gd1240 C1243 2.818 . S
Gd1240 O1260 2.377 . S
Gd1240 O1262 2.448 . S
Gd1240 O1263 2.506 . S
Gd1240 O1264 2.435 . S
Gd1240 O1265 2.717 . S
Gd1240 O1267 2.395 . S
Gd1240 O1271 2.327 . S
Gd1241 C1252 2.818 . S
Gd1241 O1261 2.395 . S
Gd1241 O1265 2.327 . S
Gd1241 O1266 2.377 . S
Gd1241 O1268 2.448 . S
Gd1241 O1269 2.506 . S
Gd1241 O1270 2.435 . S
Gd1241 O1271 2.717 . S
C1242 O1260 1.240 . S
C1242 O1261 1.240 . S
C1243 Gd1240 2.818 . S
C1243 C1244 1.510 . S
C1243 O1262 1.249 . S
C1243 O1263 1.252 . S
C1244 C1243 1.510 . S
C1244 C1245 1.404 . S
C1244 C1246 1.352 . S
C1245 C1244 1.404 . S
C1245 C1249 1.389 . S
C1245 H1272 0.930 . S
C1246 C1244 1.352 . S
C1246 C1248 1.374 . S
C1246 H1273 0.931 . S
C1247 C1248 1.359 . S
C1247 C1249 1.364 . S
C1248 C1246 1.374 . S
C1248 C1247 1.359 . S
C1248 H1274 0.931 . S
C1249 C1245 1.389 . S
C1249 C1247 1.364 . S
C1249 H1275 0.931 . S
C1250 O1264 1.256 . S
C1250 O1265 1.257 . S
C1251 O1266 1.240 . S
C1251 O1267 1.240 . S
C1252 Gd1241 2.818 . S
C1252 C1253 1.510 . S
C1252 O1268 1.249 . S
C1252 O1269 1.252 . S
C1253 C1252 1.510 . S
C1253 C1254 1.404 . S
C1253 C1255 1.352 . S
C1254 C1253 1.404 . S
C1254 C1258 1.389 . S
C1254 H1276 0.930 . S
C1255 C1253 1.352 . S
C1255 C1257 1.374 . S
C1255 H1277 0.931 . S
C1256 C1257 1.359 . S
C1256 C1258 1.364 . S
C1257 C1255 1.374 . S
C1257 C1256 1.359 . S
C1257 H1278 0.931 . S
C1258 C1254 1.389 . S
C1258 C1256 1.364 . S
C1258 H1279 0.931 . S
C1259 O1270 1.256 . S
C1259 O1271 1.257 . S
O1260 Gd1240 2.377 . S
O1260 C1242 1.240 . S
O1261 Gd1241 2.395 . S
O1261 C1242 1.240 . S
O1262 Gd1240 2.448 . S
O1262 C1243 1.249 . S
O1263 Gd1240 2.506 . S
O1263 C1243 1.252 . S
O1264 Gd1240 2.435 . S
O1264 C1250 1.256 . S
O1265 Gd1240 2.717 . S
O1265 Gd1241 2.327 . S
O1265 C1250 1.257 . S
O1266 Gd1241 2.377 . S
O1266 C1251 1.240 . S
O1267 Gd1240 2.395 . S
O1267 C1251 1.240 . S
O1268 Gd1241 2.448 . S
O1268 C1252 1.249 . S
O1269 Gd1241 2.506 . S
O1269 C1252 1.252 . S
O1270 Gd1241 2.435 . S
O1270 C1259 1.256 . S
O1271 Gd1240 2.327 . S
O1271 Gd1241 2.717 . S
O1271 C1259 1.257 . S
H1272 C1245 0.930 . S
H1273 C1246 0.931 . S
H1274 C1248 0.931 . S
H1275 C1249 0.931 . S
H1276 C1254 0.930 . S
H1277 C1255 0.931 . S
H1278 C1257 0.931 . S
H1279 C1258 0.931 . S
Gd1280 C1283 2.818 . S
Gd1280 O1300 2.377 . S
Gd1280 O1302 2.448 . S
Gd1280 O1303 2.506 . S
Gd1280 O1304 2.435 . S
Gd1280 O1305 2.717 . S
Gd1280 O1307 2.395 . S
Gd1280 O1311 2.327 . S
Gd1281 C1292 2.818 . S
Gd1281 O1301 2.395 . S
Gd1281 O1305 2.327 . S
Gd1281 O1306 2.377 . S
Gd1281 O1308 2.448 . S
Gd1281 O1309 2.506 . S
Gd1281 O1310 2.435 . S
Gd1281 O1311 2.717 . S
C1282 O1300 1.240 . S
C1282 O1301 1.240 . S
C1283 Gd1280 2.818 . S
C1283 C1284 1.510 . S
C1283 O1302 1.249 . S
C1283 O1303 1.252 . S
C1284 C1283 1.510 . S
C1284 C1285 1.404 . S
C1284 C1286 1.352 . S
C1285 C1284 1.404 . S
C1285 C1289 1.389 . S
C1285 H1312 0.930 . S
C1286 C1284 1.352 . S
C1286 C1288 1.374 . S
C1286 H1313 0.931 . S
C1287 C1288 1.359 . S
C1287 C1289 1.364 . S
C1288 C1286 1.374 . S
C1288 C1287 1.359 . S
C1288 H1314 0.931 . S
C1289 C1285 1.389 . S
C1289 C1287 1.364 . S
C1289 H1315 0.931 . S
C1290 O1304 1.256 . S
C1290 O1305 1.257 . S
C1291 O1306 1.240 . S
C1291 O1307 1.240 . S
C1292 Gd1281 2.818 . S
C1292 C1293 1.510 . S
C1292 O1308 1.249 . S
C1292 O1309 1.252 . S
C1293 C1292 1.510 . S
C1293 C1294 1.404 . S
C1293 C1295 1.352 . S
C1294 C1293 1.404 . S
C1294 C1298 1.389 . S
C1294 H1316 0.930 . S
C1295 C1293 1.352 . S
C1295 C1297 1.374 . S
C1295 H1317 0.931 . S
C1296 C1297 1.359 . S
C1296 C1298 1.364 . S
C1297 C1295 1.374 . S
C1297 C1296 1.359 . S
C1297 H1318 0.931 . S
C1298 C1294 1.389 . S
C1298 C1296 1.364 . S
C1298 H1319 0.931 . S
C1299 O1310 1.256 . S
C1299 O1311 1.257 . S
O1300 Gd1280 2.377 . S
O1300 C1282 1.240 . S
O1301 Gd1281 2.395 . S
O1301 C1282 1.240 . S
O1302 Gd1280 2.448 . S
O1302 C1283 1.249 . S
O1303 Gd1280 2.506 . S
O1303 C1283 1.252 . S
O1304 Gd1280 2.435 . S
O1304 C1290 1.256 . S
O1305 Gd1280 2.717 . S
O1305 Gd1281 2.327 . S
O1305 C1290 1.257 . S
O1306 Gd1281 2.377 . S
O1306 C1291 1.240 . S
O1307 Gd1280 2.395 . S
O1307 C1291 1.240 . S
O1308 Gd1281 2.448 . S
O1308 C1292 1.249 . S
O1309 Gd1281 2.506 . S
O1309 C1292 1.252 . S
O1310 Gd1281 2.435 . S
O1310 C1299 1.256 . S
O1311 Gd1280 2.327 . S
O1311 Gd1281 2.717 . S
O1311 C1299 1.257 . S
H1312 C1285 0.930 . S
H1313 C1286 0.931 . S
H1314 C1288 0.931 . S
H1315 C1289 0.931 . S
H1316 C1294 0.930 . S
H1317 C1295 0.931 . S
H1318 C1297 0.931 . S
H1319 C1298 0.931 . S
Gd1320 C1323 2.818 . S
Gd1320 O1340 2.377 . S
Gd1320 O1342 2.448 . S
Gd1320 O1343 2.506 . S
Gd1320 O1344 2.435 . S
Gd1320 O1345 2.717 . S
Gd1320 O1347 2.395 . S
Gd1320 O1351 2.327 . S
Gd1321 C1332 2.818 . S
Gd1321 O1341 2.395 . S
Gd1321 O1345 2.327 . S
Gd1321 O1346 2.377 . S
Gd1321 O1348 2.448 . S
Gd1321 O1349 2.506 . S
Gd1321 O1350 2.435 . S
Gd1321 O1351 2.717 . S
C1322 O1340 1.240 . S
C1322 O1341 1.240 . S
C1323 Gd1320 2.818 . S
C1323 C1324 1.510 . S
C1323 O1342 1.249 . S
C1323 O1343 1.252 . S
C1324 C1323 1.510 . S
C1324 C1325 1.404 . S
C1324 C1326 1.352 . S
C1325 C1324 1.404 . S
C1325 C1329 1.389 . S
C1325 H1352 0.930 . S
C1326 C1324 1.352 . S
C1326 C1328 1.374 . S
C1326 H1353 0.931 . S
C1327 C1328 1.359 . S
C1327 C1329 1.364 . S
C1328 C1326 1.374 . S
C1328 C1327 1.359 . S
C1328 H1354 0.931 . S
C1329 C1325 1.389 . S
C1329 C1327 1.364 . S
C1329 H1355 0.931 . S
C1330 O1344 1.256 . S
C1330 O1345 1.257 . S
C1331 O1346 1.240 . S
C1331 O1347 1.240 . S
C1332 Gd1321 2.818 . S
C1332 C1333 1.510 . S
C1332 O1348 1.249 . S
C1332 O1349 1.252 . S
C1333 C1332 1.510 . S
C1333 C1334 1.404 . S
C1333 C1335 1.352 . S
C1334 C1333 1.404 . S
C1334 C1338 1.389 . S
C1334 H1356 0.930 . S
C1335 C1333 1.352 . S
C1335 C1337 1.374 . S
C1335 H1357 0.931 . S
C1336 C1337 1.359 . S
C1336 C1338 1.364 . S
C1337 C1335 1.374 . S
C1337 C1336 1.359 . S
C1337 H1358 0.931 . S
C1338 C1334 1.389 . S
C1338 C1336 1.364 . S
C1338 H1359 0.931 . S
C1339 O1350 1.256 . S
C1339 O1351 1.257 . S
O1340 Gd1320 2.377 . S
O1340 C1322 1.240 . S
O1341 Gd1321 2.395 . S
O1341 C1322 1.240 . S
O1342 Gd1320 2.448 . S
O1342 C1323 1.249 . S
O1343 Gd1320 2.506 . S
O1343 C1323 1.252 . S
O1344 Gd1320 2.435 . S
O1344 C1330 1.256 . S
O1345 Gd1320 2.717 . S
O1345 Gd1321 2.327 . S
O1345 C1330 1.257 . S
O1346 Gd1321 2.377 . S
O1346 C1331 1.240 . S
O1347 Gd1320 2.395 . S
O1347 C1331 1.240 . S
O1348 Gd1321 2.448 . S
O1348 C1332 1.249 . S
O1349 Gd1321 2.506 . S
O1349 C1332 1.252 . S
O1350 Gd1321 2.435 . S
O1350 C1339 1.256 . S
O1351 Gd1320 2.327 . S
O1351 Gd1321 2.717 . S
O1351 C1339 1.257 . S
H1352 C1325 0.930 . S
H1353 C1326 0.931 . S
H1354 C1328 0.931 . S
H1355 C1329 0.931 . S
H1356 C1334 0.930 . S
H1357 C1335 0.931 . S
H1358 C1337 0.931 . S
H1359 C1338 0.931 . S
Gd1360 C1363 2.818 . S
Gd1360 O1380 2.377 . S
Gd1360 O1382 2.448 . S
Gd1360 O1383 2.506 . S
Gd1360 O1384 2.435 . S
Gd1360 O1385 2.717 . S
Gd1360 O1387 2.395 . S
Gd1360 O1391 2.327 . S
Gd1361 C1372 2.818 . S
Gd1361 O1381 2.395 . S
Gd1361 O1385 2.327 . S
Gd1361 O1386 2.377 . S
Gd1361 O1388 2.448 . S
Gd1361 O1389 2.506 . S
Gd1361 O1390 2.435 . S
Gd1361 O1391 2.717 . S
C1362 O1380 1.240 . S
C1362 O1381 1.240 . S
C1363 Gd1360 2.818 . S
C1363 C1364 1.510 . S
C1363 O1382 1.249 . S
C1363 O1383 1.252 . S
C1364 C1363 1.510 . S
C1364 C1365 1.404 . S
C1364 C1366 1.352 . S
C1365 C1364 1.404 . S
C1365 C1369 1.389 . S
C1365 H1392 0.930 . S
C1366 C1364 1.352 . S
C1366 C1368 1.374 . S
C1366 H1393 0.931 . S
C1367 C1368 1.359 . S
C1367 C1369 1.364 . S
C1368 C1366 1.374 . S
C1368 C1367 1.359 . S
C1368 H1394 0.931 . S
C1369 C1365 1.389 . S
C1369 C1367 1.364 . S
C1369 H1395 0.931 . S
C1370 O1384 1.256 . S
C1370 O1385 1.257 . S
C1371 O1386 1.240 . S
C1371 O1387 1.240 . S
C1372 Gd1361 2.818 . S
C1372 C1373 1.510 . S
C1372 O1388 1.249 . S
C1372 O1389 1.252 . S
C1373 C1372 1.510 . S
C1373 C1374 1.404 . S
C1373 C1375 1.352 . S
C1374 C1373 1.404 . S
C1374 C1378 1.389 . S
C1374 H1396 0.930 . S
C1375 C1373 1.352 . S
C1375 C1377 1.374 . S
C1375 H1397 0.931 . S
C1376 C1377 1.359 . S
C1376 C1378 1.364 . S
C1377 C1375 1.374 . S
C1377 C1376 1.359 . S
C1377 H1398 0.931 . S
C1378 C1374 1.389 . S
C1378 C1376 1.364 . S
C1378 H1399 0.931 . S
C1379 O1390 1.256 . S
C1379 O1391 1.257 . S
O1380 Gd1360 2.377 . S
O1380 C1362 1.240 . S
O1381 Gd1361 2.395 . S
O1381 C1362 1.240 . S
O1382 Gd1360 2.448 . S
O1382 C1363 1.249 . S
O1383 Gd1360 2.506 . S
O1383 C1363 1.252 . S
O1384 Gd1360 2.435 . S
O1384 C1370 1.256 . S
O1385 Gd1360 2.717 . S
O1385 Gd1361 2.327 . S
O1385 C1370 1.257 . S
O1386 Gd1361 2.377 . S
O1386 C1371 1.240 . S
O1387 Gd1360 2.395 . S
O1387 C1371 1.240 . S
O1388 Gd1361 2.448 . S
O1388 C1372 1.249 . S
O1389 Gd1361 2.506 . S
O1389 C1372 1.252 . S
O1390 Gd1361 2.435 . S
O1390 C1379 1.256 . S
O1391 Gd1360 2.327 . S
O1391 Gd1361 2.717 . S
O1391 C1379 1.257 . S
H1392 C1365 0.930 . S
H1393 C1366 0.931 . S
H1394 C1368 0.931 . S
H1395 C1369 0.931 . S
H1396 C1374 0.930 . S
H1397 C1375 0.931 . S
H1398 C1377 0.931 . S
H1399 C1378 0.931 . S
Gd1400 C1403 2.818 . S
Gd1400 O1420 2.377 . S
Gd1400 O1422 2.448 . S
Gd1400 O1423 2.506 . S
Gd1400 O1424 2.435 . S
Gd1400 O1425 2.717 . S
Gd1400 O1427 2.395 . S
Gd1400 O1431 2.327 . S
Gd1401 C1412 2.818 . S
Gd1401 O1421 2.395 . S
Gd1401 O1425 2.327 . S
Gd1401 O1426 2.377 . S
Gd1401 O1428 2.448 . S
Gd1401 O1429 2.506 . S
Gd1401 O1430 2.435 . S
Gd1401 O1431 2.717 . S
C1402 O1420 1.240 . S
C1402 O1421 1.240 . S
C1403 Gd1400 2.818 . S
C1403 C1404 1.510 . S
C1403 O1422 1.249 . S
C1403 O1423 1.252 . S
C1404 C1403 1.510 . S
C1404 C1405 1.404 . S
C1404 C1406 1.352 . S
C1405 C1404 1.404 . S
C1405 C1409 1.389 . S
C1405 H1432 0.930 . S
C1406 C1404 1.352 . S
C1406 C1408 1.374 . S
C1406 H1433 0.931 . S
C1407 C1408 1.359 . S
C1407 C1409 1.364 . S
C1408 C1406 1.374 . S
C1408 C1407 1.359 . S
C1408 H1434 0.931 . S
C1409 C1405 1.389 . S
C1409 C1407 1.364 . S
C1409 H1435 0.931 . S
C1410 O1424 1.256 . S
C1410 O1425 1.257 . S
C1411 O1426 1.240 . S
C1411 O1427 1.240 . S
C1412 Gd1401 2.818 . S
C1412 C1413 1.510 . S
C1412 O1428 1.249 . S
C1412 O1429 1.252 . S
C1413 C1412 1.510 . S
C1413 C1414 1.404 . S
C1413 C1415 1.352 . S
C1414 C1413 1.404 . S
C1414 C1418 1.389 . S
C1414 H1436 0.930 . S
C1415 C1413 1.352 . S
C1415 C1417 1.374 . S
C1415 H1437 0.931 . S
C1416 C1417 1.359 . S
C1416 C1418 1.364 . S
C1417 C1415 1.374 . S
C1417 C1416 1.359 . S
C1417 H1438 0.931 . S
C1418 C1414 1.389 . S
C1418 C1416 1.364 . S
C1418 H1439 0.931 . S
C1419 O1430 1.256 . S
C1419 O1431 1.257 . S
O1420 Gd1400 2.377 . S
O1420 C1402 1.240 . S
O1421 Gd1401 2.395 . S
O1421 C1402 1.240 . S
O1422 Gd1400 2.448 . S
O1422 C1403 1.249 . S
O1423 Gd1400 2.506 . S
O1423 C1403 1.252 . S
O1424 Gd1400 2.435 . S
O1424 C1410 1.256 . S
O1425 Gd1400 2.717 . S
O1425 Gd1401 2.327 . S
O1425 C1410 1.257 . S
O1426 Gd1401 2.377 . S
O1426 C1411 1.240 . S
O1427 Gd1400 2.395 . S
O1427 C1411 1.240 . S
O1428 Gd1401 2.448 . S
O1428 C1412 1.249 . S
O1429 Gd1401 2.506 . S
O1429 C1412 1.252 . S
O1430 Gd1401 2.435 . S
O1430 C1419 1.256 . S
O1431 Gd1400 2.327 . S
O1431 Gd1401 2.717 . S
O1431 C1419 1.257 . S
H1432 C1405 0.930 . S
H1433 C1406 0.931 . S
H1434 C1408 0.931 . S
H1435 C1409 0.931 . S
H1436 C1414 0.930 . S
H1437 C1415 0.931 . S
H1438 C1417 0.931 . S
H1439 C1418 0.931 . S
C1440 C1441 1.369 . S
C1440 C1442 1.419 1_554 S
C1440 H1444 0.930 1_554 S
C1441 C1440 1.369 . S
C1441 C1450 1.429 . S
C1442 C1440 1.419 1_556 S
C1442 C1443 1.363 1_545 S
C1442 H1445 0.954 . S
C1443 C1442 1.363 1_565 S
C1443 C1449 1.428 1_556 S
H1444 C1440 0.930 1_556 S
H1445 C1442 0.954 . S
S1446 N1447 1.613 1_565 S
S1446 N1448 1.610 . S
N1447 S1446 1.613 1_545 S
N1447 C1450 1.350 . S
N1448 S1446 1.610 . S
N1448 C1449 1.351 . S
C1449 C1443 1.428 1_554 S
C1449 N1448 1.351 . S
C1449 C1450 1.434 1_565 S
C1450 C1441 1.429 . S
C1450 N1447 1.350 . S
C1450 C1449 1.434 1_545 S
C1451 C1452 1.369 1_554 S
C1451 C1453 1.419 1_455 S
C1451 H1455 0.930 . S
C1452 C1451 1.369 1_556 S
C1452 C1461 1.429 1_455 S
C1453 C1451 1.419 1_655 S
C1453 C1454 1.363 . S
C1453 H1456 0.929 . S
C1454 C1453 1.363 . S
C1454 C1460 1.428 1_554 S
H1455 C1451 0.930 . S
H1456 C1453 0.929 . S
S1457 N1458 1.611 . S
S1457 N1459 1.610 . S
N1458 S1457 1.611 . S
N1458 C1461 1.350 . S
N1459 S1457 1.610 . S
N1459 C1460 1.351 . S
C1460 C1454 1.428 1_556 S
C1460 N1459 1.351 . S
C1460 C1461 1.434 . S
C1461 C1452 1.429 1_655 S
C1461 N1458 1.350 . S
C1461 C1460 1.434 . S
C1462 C1463 1.369 1_554 S
C1462 C1464 1.419 . S
C1462 H1466 0.930 . S
C1463 C1462 1.369 1_556 S
C1463 C1472 1.429 . S
C1464 C1462 1.419 . S
C1464 C1465 1.363 . S
C1464 H1467 0.929 . S
C1465 C1464 1.363 . S
C1465 C1471 1.428 1_554 S
H1466 C1462 0.930 . S
H1467 C1464 0.929 . S
S1468 N1469 1.613 . S
S1468 N1470 1.610 . S
N1469 S1468 1.613 . S
N1469 C1472 1.350 . S
N1470 S1468 1.610 . S
N1470 C1471 1.351 . S
C1471 C1465 1.428 1_556 S
C1471 N1470 1.351 . S
C1471 C1472 1.434 . S
C1472 C1463 1.429 . S
C1472 N1469 1.350 . S
C1472 C1471 1.434 . S
C1473 C1474 1.369 . S
C1473 C1475 1.419 1_655 S
C1473 H1477 0.930 . S
C1474 C1473 1.369 . S
C1474 C1483 1.429 . S
C1475 C1473 1.419 1_455 S
C1475 C1476 1.363 . S
C1475 H1478 0.929 . S
C1476 C1475 1.363 . S
C1476 C1482 1.428 . S
H1477 C1473 0.930 . S
H1478 C1475 0.929 . S
S1479 N1480 1.613 1_455 S
S1479 N1481 1.610 . S
N1480 S1479 1.613 1_655 S
N1480 C1483 1.350 . S
N1481 S1479 1.610 . S
N1481 C1482 1.351 . S
C1482 C1476 1.428 . S
C1482 N1481 1.351 . S
C1482 C1483 1.434 1_455 S
C1483 C1474 1.429 . S
C1483 N1480 1.350 . S
C1483 C1482 1.434 1_655 S
C1484 C1485 1.369 . S
C1484 C1486 1.419 . S
C1484 H1488 0.930 . S
C1485 C1484 1.369 . S
C1485 C1494 1.429 . S
C1486 C1484 1.419 . S
C1486 C1487 1.363 . S
C1486 H1489 0.929 . S
C1487 C1486 1.363 . S
C1487 C1493 1.428 . S
H1488 C1484 0.930 . S
H1489 C1486 0.929 . S
S1490 N1491 1.613 . S
S1490 N1492 1.610 . S
N1491 S1490 1.613 . S
N1491 C1494 1.350 . S
N1492 S1490 1.610 . S
N1492 C1493 1.351 . S
C1493 C1487 1.428 . S
C1493 N1492 1.351 . S
C1493 C1494 1.434 . S
C1494 C1485 1.429 . S
C1494 N1491 1.350 . S
C1494 C1493 1.434 . S
C1495 C1496 1.369 . S
C1495 C1497 1.416 . S
C1495 H1499 0.930 . S
C1496 C1495 1.369 . S
C1496 C1505 1.429 . S
C1497 C1495 1.416 . S
C1497 C1498 1.367 1_565 S
C1497 H1500 0.928 1_565 S
C1498 C1497 1.367 1_545 S
C1498 C1504 1.428 . S
H1499 C1495 0.930 . S
H1500 C1497 0.928 1_545 S
S1501 N1502 1.613 1_545 S
S1501 N1503 1.610 . S
N1502 S1501 1.613 1_565 S
N1502 C1505 1.350 . S
N1503 S1501 1.610 . S
N1503 C1504 1.351 . S
C1504 C1498 1.428 . S
C1504 N1503 1.351 . S
C1504 C1505 1.434 1_545 S
C1505 C1496 1.429 . S
C1505 N1502 1.350 . S
C1505 C1504 1.434 1_565 S
C1506 C1507 1.369 1_556 S
C1506 C1508 1.419 1_545 S
C1506 H1510 0.930 1_556 S
C1507 C1506 1.369 1_554 S
C1507 C1516 1.429 1_554 S
C1508 C1506 1.419 1_565 S
C1508 C1509 1.363 . S
C1508 H1511 0.929 . S
C1509 C1508 1.363 . S
C1509 C1515 1.428 . S
H1510 C1506 0.930 1_554 S
H1511 C1508 0.929 . S
S1512 N1513 1.613 1_565 S
S1512 N1514 1.610 . S
N1513 S1512 1.613 1_545 S
N1513 C1516 1.350 . S
N1514 S1512 1.610 . S
N1514 C1515 1.351 . S
C1515 C1509 1.428 . S
C1515 N1514 1.351 . S
C1515 C1516 1.434 1_565 S
C1516 C1507 1.429 1_556 S
C1516 N1513 1.350 . S
C1516 C1515 1.434 1_545 S
C1517 C1518 1.369 . S
C1517 C1519 1.419 1_455 S
C1517 H1521 0.930 . S
C1518 C1517 1.369 . S
C1518 C1527 1.429 . S
C1519 C1517 1.419 1_655 S
C1519 C1520 1.363 1_556 S
C1519 H1522 0.929 . S
C1520 C1519 1.363 1_554 S
C1520 C1526 1.428 . S
H1521 C1517 0.930 . S
H1522 C1519 0.929 . S
S1523 N1524 1.613 1_654 S
S1523 N1525 1.610 . S
N1524 S1523 1.613 1_456 S
N1524 C1527 1.350 . S
N1525 S1523 1.610 . S
N1525 C1526 1.351 . S
C1526 C1520 1.428 . S
C1526 N1525 1.351 . S
C1526 C1527 1.434 1_654 S
C1527 C1518 1.429 . S
C1527 N1524 1.350 . S
C1527 C1526 1.434 1_456 S
C1528 C1529 1.369 . S
C1528 C1530 1.427 . S
C1528 H1532 0.930 . S
C1529 C1528 1.369 . S
C1529 C1538 1.429 1_554 S
C1530 C1528 1.427 . S
C1530 C1531 1.345 1_554 S
C1530 H1533 0.939 . S
C1531 C1530 1.345 1_556 S
C1531 C1537 1.428 . S
H1532 C1528 0.930 . S
H1533 C1530 0.939 . S
S1534 N1535 1.613 . S
S1534 N1536 1.610 . S
N1535 S1534 1.613 . S
N1535 C1538 1.350 . S
N1536 S1534 1.610 . S
N1536 C1537 1.351 . S
C1537 C1531 1.428 . S
C1537 N1536 1.351 . S
C1537 C1538 1.434 . S
C1538 C1529 1.429 1_556 S
C1538 N1535 1.350 . S
C1538 C1537 1.434 . S
C1539 C1540 1.369 . S
C1539 C1541 1.419 1_455 S
C1539 H1543 0.930 . S
C1540 C1539 1.369 . S
C1540 C1549 1.429 1_455 S
C1541 C1539 1.419 1_655 S
C1541 C1542 1.363 . S
C1541 H1544 0.929 . S
C1542 C1541 1.363 . S
C1542 C1548 1.428 . S
H1543 C1539 0.930 . S
H1544 C1541 0.929 . S
S1545 N1546 1.613 . S
S1545 N1547 1.610 . S
N1546 S1545 1.613 . S
N1546 C1549 1.350 . S
N1547 S1545 1.610 . S
N1547 C1548 1.351 . S
C1548 C1542 1.428 . S
C1548 N1547 1.351 . S
C1548 C1549 1.434 . S
C1549 C1540 1.429 1_655 S
C1549 N1546 1.350 . S
C1549 C1548 1.434 . S
C1550 C1551 1.369 . S
C1550 C1552 1.419 . S
C1550 H1554 0.930 . S
C1551 C1550 1.369 . S
C1551 C1560 1.429 . S
C1552 C1550 1.419 . S
C1552 C1553 1.363 . S
C1552 H1555 0.929 . S
C1553 C1552 1.363 . S
C1553 C1559 1.428 . S
H1554 C1550 0.930 . S
H1555 C1552 0.929 . S
S1556 N1557 1.613 . S
S1556 N1558 1.610 . S
N1557 S1556 1.613 . S
N1557 C1560 1.350 . S
N1558 S1556 1.610 . S
N1558 C1559 1.351 . S
C1559 C1553 1.428 . S
C1559 N1558 1.351 . S
C1559 C1560 1.434 . S
C1560 C1551 1.429 . S
C1560 N1557 1.350 . S
C1560 C1559 1.434 . S
C1561 C1562 1.369 . S
C1561 C1563 1.419 1_545 S
C1561 H1565 0.930 . S
C1562 C1561 1.369 . S
C1562 C1571 1.429 . S
C1563 C1561 1.419 1_565 S
C1563 C1564 1.363 . S
C1563 H1566 0.929 . S
C1564 C1563 1.363 . S
C1564 C1570 1.425 1_565 S
H1565 C1561 0.930 . S
H1566 C1563 0.929 . S
S1567 N1568 1.613 . S
S1567 N1569 1.599 1_545 S
N1568 S1567 1.613 . S
N1568 C1571 1.350 . S
N1569 S1567 1.599 1_565 S
N1569 C1570 1.357 1_565 S
C1570 C1564 1.425 1_545 S
C1570 N1569 1.357 1_545 S
C1570 C1571 1.436 . S
C1571 C1562 1.429 . S
C1571 N1568 1.350 . S
C1571 C1570 1.436 . S
C1572 C1573 1.369 . S
C1572 C1574 1.419 . S
C1572 H1576 0.930 . S
C1573 C1572 1.369 . S
C1573 C1582 1.429 . S
C1574 C1572 1.419 . S
C1574 C1575 1.363 . S
C1574 H1577 0.929 . S
C1575 C1574 1.363 . S
C1575 C1581 1.428 . S
H1576 C1572 0.930 . S
H1577 C1574 0.929 . S
S1578 N1579 1.613 . S
S1578 N1580 1.610 . S
N1579 S1578 1.613 . S
N1579 C1582 1.350 . S
N1580 S1578 1.610 . S
N1580 C1581 1.351 . S
C1581 C1575 1.428 . S
C1581 N1580 1.351 . S
C1581 C1582 1.434 . S
C1582 C1573 1.429 . S
C1582 N1579 1.350 . S
C1582 C1581 1.434 . S
C1583 C1584 1.369 . S
C1583 C1585 1.419 . S
C1583 H1587 0.930 . S
C1584 C1583 1.369 . S
C1584 C1593 1.429 . S
C1585 C1583 1.419 . S
C1585 C1586 1.363 . S
C1585 H1588 0.929 . S
C1586 C1585 1.363 . S
C1586 C1592 1.428 . S
H1587 C1583 0.930 . S
H1588 C1585 0.929 . S
S1589 N1590 1.613 . S
S1589 N1591 1.610 . S
N1590 S1589 1.613 . S
N1590 C1593 1.350 . S
N1591 S1589 1.610 . S
N1591 C1592 1.351 . S
C1592 C1586 1.428 . S
C1592 N1591 1.351 . S
C1592 C1593 1.434 . S
C1593 C1584 1.429 . S
C1593 N1590 1.350 . S
C1593 C1592 1.434 . S
C1594 C1595 1.369 . S
C1594 C1596 1.419 . S
C1594 H1598 0.930 . S
C1595 C1594 1.369 . S
C1595 C1604 1.429 . S
C1596 C1594 1.419 . S
C1596 C1597 1.363 . S
C1596 H1599 0.929 . S
C1597 C1596 1.363 . S
C1597 C1603 1.428 . S
H1598 C1594 0.930 . S
H1599 C1596 0.929 . S
S1600 N1601 1.613 . S
S1600 N1602 1.610 . S
N1601 S1600 1.613 . S
N1601 C1604 1.350 . S
N1602 S1600 1.610 . S
N1602 C1603 1.351 . S
C1603 C1597 1.428 . S
C1603 N1602 1.351 . S
C1603 C1604 1.434 . S
C1604 C1595 1.429 . S
C1604 N1601 1.350 . S
C1604 C1603 1.434 . S
C1605 C1606 1.369 . S
C1605 C1607 1.419 . S
C1605 H1609 0.930 . S
C1606 C1605 1.369 . S
C1606 C1615 1.429 . S
C1607 C1605 1.419 . S
C1607 C1608 1.363 . S
C1607 H1610 0.929 . S
C1608 C1607 1.363 . S
C1608 C1614 1.428 . S
H1609 C1605 0.930 . S
H1610 C1607 0.929 . S
S1611 N1612 1.613 . S
S1611 N1613 1.610 . S
N1612 S1611 1.613 . S
N1612 C1615 1.350 . S
N1613 S1611 1.610 . S
N1613 C1614 1.351 . S
C1614 C1608 1.428 . S
C1614 N1613 1.351 . S
C1614 C1615 1.434 . S
C1615 C1606 1.429 . S
C1615 N1612 1.350 . S
C1615 C1614 1.434 . S
C1616 C1617 1.369 . S
C1616 C1618 1.419 . S
C1616 H1620 0.930 . S
C1617 C1616 1.369 . S
C1617 C1626 1.429 . S
C1618 C1616 1.419 . S
C1618 C1619 1.363 . S
C1618 H1621 0.929 . S
C1619 C1618 1.363 . S
C1619 C1625 1.428 . S
H1620 C1616 0.930 . S
H1621 C1618 0.929 . S
S1622 N1623 1.613 . S
S1622 N1624 1.610 . S
N1623 S1622 1.613 . S
N1623 C1626 1.350 . S
N1624 S1622 1.610 . S
N1624 C1625 1.351 . S
C1625 C1619 1.428 . S
C1625 N1624 1.351 . S
C1625 C1626 1.434 . S
C1626 C1617 1.429 . S
C1626 N1623 1.350 . S
C1626 C1625 1.434 . S
C1627 C1628 1.369 . S
C1627 C1629 1.419 . S
C1627 H1631 0.930 . S
C1628 C1627 1.369 . S
C1628 C1637 1.429 . S
C1629 C1627 1.419 . S
C1629 C1630 1.363 . S
C1629 H1632 0.929 . S
C1630 C1629 1.363 . S
C1630 C1636 1.428 . S
H1631 C1627 0.930 . S
H1632 C1629 0.929 . S
S1633 N1634 1.613 . S
S1633 N1635 1.610 . S
N1634 S1633 1.613 . S
N1634 C1637 1.350 . S
N1635 S1633 1.610 . S
N1635 C1636 1.351 . S
C1636 C1630 1.428 . S
C1636 N1635 1.351 . S
C1636 C1637 1.434 . S
C1637 C1628 1.429 . S
C1637 N1634 1.350 . S
C1637 C1636 1.434 . S
C1638 C1639 1.369 . S
C1638 C1640 1.419 . S
C1638 H1642 0.930 . S
C1639 C1638 1.369 . S
C1639 C1648 1.429 . S
C1640 C1638 1.419 . S
C1640 C1641 1.363 . S
C1640 H1643 0.929 . S
C1641 C1640 1.363 . S
C1641 C1647 1.428 . S
H1642 C1638 0.930 . S
H1643 C1640 0.929 . S
S1644 N1645 1.613 . S
S1644 N1646 1.610 . S
N1645 S1644 1.613 . S
N1645 C1648 1.350 . S
N1646 S1644 1.610 . S
N1646 C1647 1.351 . S
C1647 C1641 1.428 . S
C1647 N1646 1.351 . S
C1647 C1648 1.434 . S
C1648 C1639 1.429 . S
C1648 N1645 1.350 . S
C1648 C1647 1.434 . S
C1649 C1650 1.369 . S
C1649 C1651 1.419 . S
C1649 H1653 0.930 . S
C1650 C1649 1.369 . S
C1650 C1659 1.429 . S
C1651 C1649 1.419 . S
C1651 C1652 1.363 . S
C1651 H1654 0.929 . S
C1652 C1651 1.363 . S
C1652 C1658 1.428 . S
H1653 C1649 0.930 . S
H1654 C1651 0.929 . S
S1655 N1656 1.613 . S
S1655 N1657 1.610 . S
N1656 S1655 1.613 . S
N1656 C1659 1.350 . S
N1657 S1655 1.610 . S
N1657 C1658 1.351 . S
C1658 C1652 1.428 . S
C1658 N1657 1.351 . S
C1658 C1659 1.434 . S
C1659 C1650 1.429 . S
C1659 N1656 1.350 . S
C1659 C1658 1.434 . S
C1660 C1661 1.369 . S
C1660 C1662 1.419 . S
C1660 H1664 0.930 . S
C1661 C1660 1.369 . S
C1661 C1670 1.429 . S
C1662 C1660 1.419 . S
C1662 C1663 1.363 . S
C1662 H1665 0.929 . S
C1663 C1662 1.363 . S
C1663 C1669 1.428 . S
H1664 C1660 0.930 . S
H1665 C1662 0.929 . S
S1666 N1667 1.613 . S
S1666 N1668 1.610 . S
N1667 S1666 1.613 . S
N1667 C1670 1.350 . S
N1668 S1666 1.610 . S
N1668 C1669 1.351 . S
C1669 C1663 1.428 . S
C1669 N1668 1.351 . S
C1669 C1670 1.434 . S
C1670 C1661 1.429 . S
C1670 N1667 1.350 . S
C1670 C1669 1.434 . S
C1671 C1672 1.369 . S
C1671 C1673 1.419 . S
C1671 H1675 0.930 . S
C1672 C1671 1.369 . S
C1672 C1681 1.429 . S
C1673 C1671 1.419 . S
C1673 C1674 1.363 . S
C1673 H1676 0.929 . S
C1674 C1673 1.363 . S
C1674 C1680 1.428 . S
H1675 C1671 0.930 . S
H1676 C1673 0.929 . S
S1677 N1678 1.613 . S
S1677 N1679 1.610 . S
N1678 S1677 1.613 . S
N1678 C1681 1.350 . S
N1679 S1677 1.610 . S
N1679 C1680 1.351 . S
C1680 C1674 1.428 . S
C1680 N1679 1.351 . S
C1680 C1681 1.434 . S
C1681 C1672 1.429 . S
C1681 N1678 1.350 . S
C1681 C1680 1.434 . S
C1682 C1683 1.369 . S
C1682 C1684 1.419 . S
C1682 H1686 0.930 . S
C1683 C1682 1.369 . S
C1683 C1692 1.429 . S
C1684 C1682 1.419 . S
C1684 C1685 1.363 . S
C1684 H1687 0.929 . S
C1685 C1684 1.363 . S
C1685 C1691 1.428 . S
H1686 C1682 0.930 . S
H1687 C1684 0.929 . S
S1688 N1689 1.613 . S
S1688 N1690 1.610 . S
N1689 S1688 1.613 . S
N1689 C1692 1.350 . S
N1690 S1688 1.610 . S
N1690 C1691 1.351 . S
C1691 C1685 1.428 . S
C1691 N1690 1.351 . S
C1691 C1692 1.434 . S
C1692 C1683 1.429 . S
C1692 N1689 1.350 . S
C1692 C1691 1.434 . S
C1693 C1694 1.369 . S
C1693 C1695 1.419 . S
C1693 H1697 0.930 . S
C1694 C1693 1.369 . S
C1694 C1703 1.429 . S
C1695 C1693 1.419 . S
C1695 C1696 1.363 . S
C1695 H1698 0.929 . S
C1696 C1695 1.363 . S
C1696 C1702 1.428 . S
H1697 C1693 0.930 . S
H1698 C1695 0.929 . S
S1699 N1700 1.613 . S
S1699 N1701 1.610 . S
N1700 S1699 1.613 . S
N1700 C1703 1.350 . S
N1701 S1699 1.610 . S
N1701 C1702 1.351 . S
C1702 C1696 1.428 . S
C1702 N1701 1.351 . S
C1702 C1703 1.434 . S
C1703 C1694 1.429 . S
C1703 N1700 1.350 . S
C1703 C1702 1.434 . S
C1704 C1705 1.369 . S
C1704 C1706 1.419 . S
C1704 H1708 0.930 . S
C1705 C1704 1.369 . S
C1705 C1714 1.429 . S
C1706 C1704 1.419 . S
C1706 C1707 1.363 . S
C1706 H1709 0.929 . S
C1707 C1706 1.363 . S
C1707 C1713 1.428 . S
H1708 C1704 0.930 . S
H1709 C1706 0.929 . S
S1710 N1711 1.613 . S
S1710 N1712 1.610 . S
N1711 S1710 1.613 . S
N1711 C1714 1.350 . S
N1712 S1710 1.610 . S
N1712 C1713 1.351 . S
C1713 C1707 1.428 . S
C1713 N1712 1.351 . S
C1713 C1714 1.434 . S
C1714 C1705 1.429 . S
C1714 N1711 1.350 . S
C1714 C1713 1.434 . S
C1715 C1716 1.369 . S
C1715 C1717 1.419 . S
C1715 H1719 0.930 . S
C1716 C1715 1.369 . S
C1716 C1725 1.429 . S
C1717 C1715 1.419 . S
C1717 C1718 1.363 . S
C1717 H1720 0.929 . S
C1718 C1717 1.363 . S
C1718 C1724 1.428 . S
H1719 C1715 0.930 . S
H1720 C1717 0.929 . S
S1721 N1722 1.613 . S
S1721 N1723 1.610 . S
N1722 S1721 1.613 . S
N1722 C1725 1.350 . S
N1723 S1721 1.610 . S
N1723 C1724 1.351 . S
C1724 C1718 1.428 . S
C1724 N1723 1.351 . S
C1724 C1725 1.434 . S
C1725 C1716 1.429 . S
C1725 N1722 1.350 . S
C1725 C1724 1.434 . S
C1726 C1727 1.369 . S
C1726 C1728 1.419 . S
C1726 H1730 0.930 . S
C1727 C1726 1.369 . S
C1727 C1736 1.429 . S
C1728 C1726 1.419 . S
C1728 C1729 1.363 . S
C1728 H1731 0.929 . S
C1729 C1728 1.363 . S
C1729 C1735 1.428 . S
H1730 C1726 0.930 . S
H1731 C1728 0.929 . S
S1732 N1733 1.613 . S
S1732 N1734 1.610 . S
N1733 S1732 1.613 . S
N1733 C1736 1.350 . S
N1734 S1732 1.610 . S
N1734 C1735 1.351 . S
C1735 C1729 1.428 . S
C1735 N1734 1.351 . S
C1735 C1736 1.434 . S
C1736 C1727 1.429 . S
C1736 N1733 1.350 . S
C1736 C1735 1.434 . S
C1737 C1738 1.369 . S
C1737 C1739 1.419 . S
C1737 H1741 0.930 . S
C1738 C1737 1.369 . S
C1738 C1747 1.429 . S
C1739 C1737 1.419 . S
C1739 C1740 1.363 . S
C1739 H1742 0.929 . S
C1740 C1739 1.363 . S
C1740 C1746 1.428 . S
H1741 C1737 0.930 . S
H1742 C1739 0.929 . S
S1743 N1744 1.613 . S
S1743 N1745 1.610 . S
N1744 S1743 1.613 . S
N1744 C1747 1.350 . S
N1745 S1743 1.610 . S
N1745 C1746 1.351 . S
C1746 C1740 1.428 . S
C1746 N1745 1.351 . S
C1746 C1747 1.434 . S
C1747 C1738 1.429 . S
C1747 N1744 1.350 . S
C1747 C1746 1.434 . S
C1748 C1749 1.369 . S
C1748 C1750 1.419 . S
C1748 H1752 0.930 . S
C1749 C1748 1.369 . S
C1749 C1758 1.429 . S
C1750 C1748 1.419 . S
C1750 C1751 1.363 . S
C1750 H1753 0.929 . S
C1751 C1750 1.363 . S
C1751 C1757 1.428 . S
H1752 C1748 0.930 . S
H1753 C1750 0.929 . S
S1754 N1755 1.613 . S
S1754 N1756 1.610 . S
N1755 S1754 1.613 . S
N1755 C1758 1.350 . S
N1756 S1754 1.610 . S
N1756 C1757 1.351 . S
C1757 C1751 1.428 . S
C1757 N1756 1.351 . S
C1757 C1758 1.434 . S
C1758 C1749 1.429 . S
C1758 N1755 1.350 . S
C1758 C1757 1.434 . S
C1759 C1760 1.369 . S
C1759 C1761 1.419 . S
C1759 H1763 0.930 . S
C1760 C1759 1.369 . S
C1760 C1769 1.429 . S
C1761 C1759 1.419 . S
C1761 C1762 1.363 . S
C1761 H1764 0.929 . S
C1762 C1761 1.363 . S
C1762 C1768 1.428 . S
H1763 C1759 0.930 . S
H1764 C1761 0.929 . S
S1765 N1766 1.613 . S
S1765 N1767 1.610 . S
N1766 S1765 1.613 . S
N1766 C1769 1.350 . S
N1767 S1765 1.610 . S
N1767 C1768 1.351 . S
C1768 C1762 1.428 . S
C1768 N1767 1.351 . S
C1768 C1769 1.434 . S
C1769 C1760 1.429 . S
C1769 N1766 1.350 . S
C1769 C1768 1.434 . S
C1770 C1771 1.369 . S
C1770 C1772 1.419 . S
C1770 H1774 0.930 . S
C1771 C1770 1.369 . S
C1771 C1780 1.429 . S
C1772 C1770 1.419 . S
C1772 C1773 1.363 . S
C1772 H1775 0.929 . S
C1773 C1772 1.363 . S
C1773 C1779 1.428 . S
H1774 C1770 0.930 . S
H1775 C1772 0.929 . S
S1776 N1777 1.613 . S
S1776 N1778 1.610 . S
N1777 S1776 1.613 . S
N1777 C1780 1.350 . S
N1778 S1776 1.610 . S
N1778 C1779 1.351 . S
C1779 C1773 1.428 . S
C1779 N1778 1.351 . S
C1779 C1780 1.434 . S
C1780 C1771 1.429 . S
C1780 N1777 1.350 . S
C1780 C1779 1.434 . S
C1781 C1782 1.369 . S
C1781 C1783 1.419 . S
C1781 H1785 0.930 . S
C1782 C1781 1.369 . S
C1782 C1791 1.429 . S
C1783 C1781 1.419 . S
C1783 C1784 1.363 . S
C1783 H1786 0.929 . S
C1784 C1783 1.363 . S
C1784 C1790 1.428 . S
H1785 C1781 0.930 . S
H1786 C1783 0.929 . S
S1787 N1788 1.613 . S
S1787 N1789 1.610 . S
N1788 S1787 1.613 . S
N1788 C1791 1.350 . S
N1789 S1787 1.610 . S
N1789 C1790 1.351 . S
C1790 C1784 1.428 . S
C1790 N1789 1.351 . S
C1790 C1791 1.434 . S
C1791 C1782 1.429 . S
C1791 N1788 1.350 . S
C1791 C1790 1.434 . S
C1792 C1793 1.369 . S
C1792 C1794 1.419 . S
C1792 H1796 0.930 . S
C1793 C1792 1.369 . S
C1793 C1802 1.429 . S
C1794 C1792 1.419 . S
C1794 C1795 1.363 . S
C1794 H1797 0.929 . S
C1795 C1794 1.363 . S
C1795 C1801 1.428 . S
H1796 C1792 0.930 . S
H1797 C1794 0.929 . S
S1798 N1799 1.613 . S
S1798 N1800 1.610 . S
N1799 S1798 1.613 . S
N1799 C1802 1.350 . S
N1800 S1798 1.610 . S
N1800 C1801 1.351 . S
C1801 C1795 1.428 . S
C1801 N1800 1.351 . S
C1801 C1802 1.434 . S
C1802 C1793 1.429 . S
C1802 N1799 1.350 . S
C1802 C1801 1.434 . S
C1803 C1804 1.369 . S
C1803 C1805 1.419 . S
C1803 H1807 0.930 . S
C1804 C1803 1.369 . S
C1804 C1813 1.429 . S
C1805 C1803 1.419 . S
C1805 C1806 1.363 . S
C1805 H1808 0.929 . S
C1806 C1805 1.363 . S
C1806 C1812 1.428 . S
H1807 C1803 0.930 . S
H1808 C1805 0.929 . S
S1809 N1810 1.613 . S
S1809 N1811 1.610 . S
N1810 S1809 1.613 . S
N1810 C1813 1.350 . S
N1811 S1809 1.610 . S
N1811 C1812 1.351 . S
C1812 C1806 1.428 . S
C1812 N1811 1.351 . S
C1812 C1813 1.434 . S
C1813 C1804 1.429 . S
C1813 N1810 1.350 . S
C1813 C1812 1.434 . S
C1814 C1815 1.369 . S
C1814 C1816 1.419 . S
C1814 H1818 0.930 . S
C1815 C1814 1.369 . S
C1815 C1824 1.429 . S
C1816 C1814 1.419 . S
C1816 C1817 1.363 . S
C1816 H1819 0.929 . S
C1817 C1816 1.363 . S
C1817 C1823 1.428 . S
H1818 C1814 0.930 . S
H1819 C1816 0.929 . S
S1820 N1821 1.613 . S
S1820 N1822 1.610 . S
N1821 S1820 1.613 . S
N1821 C1824 1.350 . S
N1822 S1820 1.610 . S
N1822 C1823 1.351 . S
C1823 C1817 1.428 . S
C1823 N1822 1.351 . S
C1823 C1824 1.434 . S
C1824 C1815 1.429 . S
C1824 N1821 1.350 . S
C1824 C1823 1.434 . S
C1825 C1826 1.369 . S
C1825 C1827 1.419 . S
C1825 H1829 0.930 . S
C1826 C1825 1.369 . S
C1826 C1835 1.429 . S
C1827 C1825 1.419 . S
C1827 C1828 1.363 . S
C1827 H1830 0.929 . S
C1828 C1827 1.363 . S
C1828 C1834 1.428 . S
H1829 C1825 0.930 . S
H1830 C1827 0.929 . S
S1831 N1832 1.613 . S
S1831 N1833 1.610 . S
N1832 S1831 1.613 . S
N1832 C1835 1.350 . S
N1833 S1831 1.610 . S
N1833 C1834 1.351 . S
C1834 C1828 1.428 . S
C1834 N1833 1.351 . S
C1834 C1835 1.434 . S
C1835 C1826 1.429 . S
C1835 N1832 1.350 . S
C1835 C1834 1.434 . S
C1836 C1837 1.369 . S
C1836 C1838 1.419 . S
C1836 H1840 0.930 . S
C1837 C1836 1.369 . S
C1837 C1846 1.429 . S
C1838 C1836 1.419 . S
C1838 C1839 1.363 . S
C1838 H1841 0.929 . S
C1839 C1838 1.363 . S
C1839 C1845 1.428 . S
H1840 C1836 0.930 . S
H1841 C1838 0.929 . S
S1842 N1843 1.613 . S
S1842 N1844 1.610 . S
N1843 S1842 1.613 . S
N1843 C1846 1.350 . S
N1844 S1842 1.610 . S
N1844 C1845 1.351 . S
C1845 C1839 1.428 . S
C1845 N1844 1.351 . S
C1845 C1846 1.434 . S
C1846 C1837 1.429 . S
C1846 N1843 1.350 . S
C1846 C1845 1.434 . S
C1847 C1848 1.369 . S
C1847 C1849 1.419 . S
C1847 H1851 0.930 . S
C1848 C1847 1.369 . S
C1848 C1857 1.429 . S
C1849 C1847 1.419 . S
C1849 C1850 1.363 . S
C1849 H1852 0.929 . S
C1850 C1849 1.363 . S
C1850 C1856 1.428 . S
H1851 C1847 0.930 . S
H1852 C1849 0.929 . S
S1853 N1854 1.613 . S
S1853 N1855 1.610 . S
N1854 S1853 1.613 . S
N1854 C1857 1.350 . S
N1855 S1853 1.610 . S
N1855 C1856 1.351 . S
C1856 C1850 1.428 . S
C1856 N1855 1.351 . S
C1856 C1857 1.434 . S
C1857 C1848 1.429 . S
C1857 N1854 1.350 . S
C1857 C1856 1.434 . S
C1858 C1859 1.369 . S
C1858 C1860 1.419 . S
C1858 H1862 0.930 . S
C1859 C1858 1.369 . S
C1859 C1868 1.429 . S
C1860 C1858 1.419 . S
C1860 C1861 1.363 . S
C1860 H1863 0.929 . S
C1861 C1860 1.363 . S
C1861 C1867 1.428 . S
H1862 C1858 0.930 . S
H1863 C1860 0.929 . S
S1864 N1865 1.613 . S
S1864 N1866 1.610 . S
N1865 S1864 1.613 . S
N1865 C1868 1.350 . S
N1866 S1864 1.610 . S
N1866 C1867 1.351 . S
C1867 C1861 1.428 . S
C1867 N1866 1.351 . S
C1867 C1868 1.434 . S
C1868 C1859 1.429 . S
C1868 N1865 1.350 . S
C1868 C1867 1.434 . S
C1869 C1870 1.369 . S
C1869 C1871 1.419 . S
C1869 H1873 0.930 . S
C1870 C1869 1.369 . S
C1870 C1879 1.429 . S
C1871 C1869 1.419 . S
C1871 C1872 1.363 . S
C1871 H1874 0.929 . S
C1872 C1871 1.363 . S
C1872 C1878 1.428 . S
H1873 C1869 0.930 . S
H1874 C1871 0.929 . S
S1875 N1876 1.613 . S
S1875 N1877 1.610 . S
N1876 S1875 1.613 . S
N1876 C1879 1.350 . S
N1877 S1875 1.610 . S
N1877 C1878 1.351 . S
C1878 C1872 1.428 . S
C1878 N1877 1.351 . S
C1878 C1879 1.434 . S
C1879 C1870 1.429 . S
C1879 N1876 1.350 . S
C1879 C1878 1.434 . S
C1880 C1881 1.369 . S
C1880 C1882 1.419 . S
C1880 H1884 0.930 . S
C1881 C1880 1.369 . S
C1881 C1890 1.429 . S
C1882 C1880 1.419 . S
C1882 C1883 1.363 . S
C1882 H1885 0.929 . S
C1883 C1882 1.363 . S
C1883 C1889 1.428 . S
H1884 C1880 0.930 . S
H1885 C1882 0.929 . S
S1886 N1887 1.613 . S
S1886 N1888 1.610 . S
N1887 S1886 1.613 . S
N1887 C1890 1.350 . S
N1888 S1886 1.610 . S
N1888 C1889 1.351 . S
C1889 C1883 1.428 . S
C1889 N1888 1.351 . S
C1889 C1890 1.434 . S
C1890 C1881 1.429 . S
C1890 N1887 1.350 . S
C1890 C1889 1.434 . S
C1891 C1892 1.369 . S
C1891 C1893 1.419 . S
C1891 H1895 0.930 . S
C1892 C1891 1.369 . S
C1892 C1901 1.429 . S
C1893 C1891 1.419 . S
C1893 C1894 1.363 . S
C1893 H1896 0.929 . S
C1894 C1893 1.363 . S
C1894 C1900 1.428 . S
H1895 C1891 0.930 . S
H1896 C1893 0.929 . S
S1897 N1898 1.613 . S
S1897 N1899 1.610 . S
N1898 S1897 1.613 . S
N1898 C1901 1.350 . S
N1899 S1897 1.610 . S
N1899 C1900 1.351 . S
C1900 C1894 1.428 . S
C1900 N1899 1.351 . S
C1900 C1901 1.434 . S
C1901 C1892 1.429 . S
C1901 N1898 1.350 . S
C1901 C1900 1.434 . S
C1902 C1903 1.369 . S
C1902 C1904 1.419 . S
C1902 H1906 0.930 . S
C1903 C1902 1.369 . S
C1903 C1912 1.429 . S
C1904 C1902 1.419 . S
C1904 C1905 1.363 . S
C1904 H1907 0.929 . S
C1905 C1904 1.363 . S
C1905 C1911 1.428 . S
H1906 C1902 0.930 . S
H1907 C1904 0.929 . S
S1908 N1909 1.613 . S
S1908 N1910 1.610 . S
N1909 S1908 1.613 . S
N1909 C1912 1.350 . S
N1910 S1908 1.610 . S
N1910 C1911 1.351 . S
C1911 C1905 1.428 . S
C1911 N1910 1.351 . S
C1911 C1912 1.434 . S
C1912 C1903 1.429 . S
C1912 N1909 1.350 . S
C1912 C1911 1.434 . S
C1913 C1914 1.369 . S
C1913 C1915 1.419 . S
C1913 H1917 0.930 . S
C1914 C1913 1.369 . S
C1914 C1923 1.429 . S
C1915 C1913 1.419 . S
C1915 C1916 1.363 . S
C1915 H1918 0.929 . S
C1916 C1915 1.363 . S
C1916 C1922 1.428 . S
H1917 C1913 0.930 . S
H1918 C1915 0.929 . S
S1919 N1920 1.613 . S
S1919 N1921 1.610 . S
N1920 S1919 1.613 . S
N1920 C1923 1.350 . S
N1921 S1919 1.610 . S
N1921 C1922 1.351 . S
C1922 C1916 1.428 . S
C1922 N1921 1.351 . S
C1922 C1923 1.434 . S
C1923 C1914 1.429 . S
C1923 N1920 1.350 . S
C1923 C1922 1.434 . S
C1924 C1925 1.369 . S
C1924 C1926 1.419 . S
C1924 H1928 0.930 . S
C1925 C1924 1.369 . S
C1925 C1934 1.429 . S
C1926 C1924 1.419 . S
C1926 C1927 1.363 . S
C1926 H1929 0.929 . S
C1927 C1926 1.363 . S
C1927 C1933 1.428 . S
H1928 C1924 0.930 . S
H1929 C1926 0.929 . S
S1930 N1931 1.613 . S
S1930 N1932 1.610 . S
N1931 S1930 1.613 . S
N1931 C1934 1.350 . S
N1932 S1930 1.610 . S
N1932 C1933 1.351 . S
C1933 C1927 1.428 . S
C1933 N1932 1.351 . S
C1933 C1934 1.434 . S
C1934 C1925 1.429 . S
C1934 N1931 1.350 . S
C1934 C1933 1.434 . S
C1935 C1936 1.369 . S
C1935 C1937 1.419 . S
C1935 H1939 0.930 . S
C1936 C1935 1.369 . S
C1936 C1945 1.429 . S
C1937 C1935 1.419 . S
C1937 C1938 1.363 . S
C1937 H1940 0.929 . S
C1938 C1937 1.363 . S
C1938 C1944 1.428 . S
H1939 C1935 0.930 . S
H1940 C1937 0.929 . S
S1941 N1942 1.613 . S
S1941 N1943 1.610 . S
N1942 S1941 1.613 . S
N1942 C1945 1.350 . S
N1943 S1941 1.610 . S
N1943 C1944 1.351 . S
C1944 C1938 1.428 . S
C1944 N1943 1.351 . S
C1944 C1945 1.434 . S
C1945 C1936 1.429 . S
C1945 N1942 1.350 . S
C1945 C1944 1.434 . S
C1946 C1947 1.369 . S
C1946 C1948 1.419 . S
C1946 H1950 0.930 . S
C1947 C1946 1.369 . S
C1947 C1956 1.429 . S
C1948 C1946 1.419 . S
C1948 C1949 1.363 . S
C1948 H1951 0.929 . S
C1949 C1948 1.363 . S
C1949 C1955 1.428 . S
H1950 C1946 0.930 . S
H1951 C1948 0.929 . S
S1952 N1953 1.613 . S
S1952 N1954 1.610 . S
N1953 S1952 1.613 . S
N1953 C1956 1.350 . S
N1954 S1952 1.610 . S
N1954 C1955 1.351 . S
C1955 C1949 1.428 . S
C1955 N1954 1.351 . S
C1955 C1956 1.434 . S
C1956 C1947 1.429 . S
C1956 N1953 1.350 . S
C1956 C1955 1.434 . S
C1957 C1958 1.369 . S
C1957 C1959 1.419 . S
C1957 H1961 0.930 . S
C1958 C1957 1.369 . S
C1958 C1967 1.429 . S
C1959 C1957 1.419 . S
C1959 C1960 1.363 . S
C1959 H1962 0.929 . S
C1960 C1959 1.363 . S
C1960 C1966 1.428 . S
H1961 C1957 0.930 . S
H1962 C1959 0.929 . S
S1963 N1964 1.613 . S
S1963 N1965 1.610 . S
N1964 S1963 1.613 . S
N1964 C1967 1.350 . S
N1965 S1963 1.610 . S
N1965 C1966 1.351 . S
C1966 C1960 1.428 . S
C1966 N1965 1.351 . S
C1966 C1967 1.434 . S
C1967 C1958 1.429 . S
C1967 N1964 1.350 . S
C1967 C1966 1.434 . S
C1968 C1969 1.369 . S
C1968 C1970 1.419 1_655 S
C1968 H1972 0.930 . S
C1969 C1968 1.369 . S
C1969 C1978 1.429 . S
C1970 C1968 1.419 1_455 S
C1970 C1971 1.363 . S
C1970 H1973 0.929 . S
C1971 C1970 1.363 . S
C1971 C1977 1.428 . S
H1972 C1968 0.930 . S
H1973 C1970 0.929 . S
S1974 N1975 1.613 . S
S1974 N1976 1.610 1_655 S
N1975 S1974 1.613 . S
N1975 C1978 1.350 . S
N1976 S1974 1.610 1_455 S
N1976 C1977 1.351 . S
C1977 C1971 1.428 . S
C1977 N1976 1.351 . S
C1977 C1978 1.434 1_455 S
C1978 C1969 1.429 . S
C1978 N1975 1.350 . S
C1978 C1977 1.434 1_655 S
C1979 C1980 1.369 . S
C1979 C1981 1.419 . S
C1979 H1983 0.930 . S
C1980 C1979 1.369 . S
C1980 C1989 1.429 . S
C1981 C1979 1.419 . S
C1981 C1982 1.363 . S
C1981 H1984 0.929 . S
C1982 C1981 1.363 . S
C1982 C1988 1.428 . S
H1983 C1979 0.930 . S
H1984 C1981 0.929 . S
S1985 N1986 1.613 . S
S1985 N1987 1.610 . S
N1986 S1985 1.613 . S
N1986 C1989 1.350 . S
N1987 S1985 1.610 . S
N1987 C1988 1.351 . S
C1988 C1982 1.428 . S
C1988 N1987 1.351 . S
C1988 C1989 1.434 . S
C1989 C1980 1.429 . S
C1989 N1986 1.350 . S
C1989 C1988 1.434 . S
C1990 C1991 1.369 . S
C1990 C1992 1.419 1_545 S
C1990 H1994 0.930 . S
C1991 C1990 1.369 . S
C1991 C2000 1.429 . S
C1992 C1990 1.419 1_565 S
C1992 C1993 1.363 . S
C1992 H1995 0.929 . S
C1993 C1992 1.363 . S
C1993 C1999 1.428 . S
H1994 C1990 0.930 . S
H1995 C1992 0.929 . S
S1996 N1997 1.613 . S
S1996 N1998 1.610 1_545 S
N1997 S1996 1.613 . S
N1997 C2000 1.350 . S
N1998 S1996 1.610 1_565 S
N1998 C1999 1.351 . S
C1999 C1993 1.428 . S
C1999 N1998 1.351 . S
C1999 C2000 1.434 1_565 S
C2000 C1991 1.429 . S
C2000 N1997 1.350 . S
C2000 C1999 1.434 1_545 S
C2001 C2002 1.369 . S
C2001 C2003 1.419 1_565 S
C2001 H2005 0.930 . S
C2002 C2001 1.369 . S
C2002 C2011 1.429 1_554 S
C2003 C2001 1.419 1_545 S
C2003 C2004 1.363 1_554 S
C2003 H2006 0.929 . S
C2004 C2003 1.363 1_556 S
C2004 C2010 1.428 . S
H2005 C2001 0.930 . S
H2006 C2003 0.929 . S
S2007 N2008 1.613 . S
S2007 N2009 1.610 1_565 S
N2008 S2007 1.613 . S
N2008 C2011 1.350 . S
N2009 S2007 1.610 1_545 S
N2009 C2010 1.351 . S
C2010 C2004 1.428 . S
C2010 N2009 1.351 . S
C2010 C2011 1.434 1_545 S
C2011 C2002 1.429 1_556 S
C2011 N2008 1.350 . S
C2011 C2010 1.434 1_565 S
C2012 C2013 1.369 1_554 S
C2012 C2014 1.419 1_655 S
C2012 H2016 0.930 . S
C2013 C2012 1.369 1_556 S
C2013 C2022 1.429 . S
C2014 C2012 1.419 1_455 S
C2014 C2015 1.363 . S
C2014 H2017 0.929 . S
C2015 C2014 1.363 . S
C2015 C2021 1.428 1_554 S
H2016 C2012 0.930 . S
H2017 C2014 0.929 . S
S2018 N2019 1.613 1_455 S
S2018 N2020 1.610 . S
N2019 S2018 1.613 1_655 S
N2019 C2022 1.350 . S
N2020 S2018 1.610 . S
N2020 C2021 1.351 . S
C2021 C2015 1.428 1_556 S
C2021 N2020 1.351 . S
C2021 C2022 1.434 1_455 S
C2022 C2013 1.429 . S
C2022 N2019 1.350 . S
C2022 C2021 1.434 1_655 S
C2023 C2024 1.369 1_556 S
C2023 C2025 1.419 . S
C2023 H2027 0.930 . S
C2024 C2023 1.369 1_554 S
C2024 C2033 1.429 . S
C2025 C2023 1.419 . S
C2025 C2026 1.363 . S
C2025 H2028 0.929 . S
C2026 C2025 1.363 . S
C2026 C2032 1.428 1_556 S
H2027 C2023 0.930 . S
H2028 C2025 0.929 . S
S2029 N2030 1.613 . S
S2029 N2031 1.610 . S
N2030 S2029 1.613 . S
N2030 C2033 1.350 . S
N2031 S2029 1.610 . S
N2031 C2032 1.351 . S
C2032 C2026 1.428 1_554 S
C2032 N2031 1.351 . S
C2032 C2033 1.434 . S
C2033 C2024 1.429 . S
C2033 N2030 1.350 . S
C2033 C2032 1.434 . S
C2034 C2035 1.369 . S
C2034 C2036 1.419 . S
C2034 H2038 0.930 . S
C2035 C2034 1.369 . S
C2035 C2044 1.429 . S
C2036 C2034 1.419 . S
C2036 C2037 1.363 . S
C2036 H2039 0.929 . S
C2037 C2036 1.363 . S
C2037 C2043 1.428 . S
H2038 C2034 0.930 . S
H2039 C2036 0.929 . S
S2040 N2041 1.613 . S
S2040 N2042 1.610 . S
N2041 S2040 1.613 . S
N2041 C2044 1.350 . S
N2042 S2040 1.610 . S
N2042 C2043 1.351 . S
C2043 C2037 1.428 . S
C2043 N2042 1.351 . S
C2043 C2044 1.434 . S
C2044 C2035 1.429 . S
C2044 N2041 1.350 . S
C2044 C2043 1.434 . S
C2045 C2046 1.369 . S
C2045 C2047 1.419 . S
C2045 H2049 0.930 1_556 S
C2046 C2045 1.369 . S
C2046 C2055 1.429 . S
C2047 C2045 1.419 . S
C2047 C2048 1.363 . S
C2047 H2050 0.929 . S
C2048 C2047 1.363 . S
C2048 C2054 1.428 . S
H2049 C2045 0.930 1_554 S
H2050 C2047 0.929 . S
S2051 N2052 1.613 . S
S2051 N2053 1.610 . S
N2052 S2051 1.613 . S
N2052 C2055 1.350 . S
N2053 S2051 1.610 . S
N2053 C2054 1.351 . S
C2054 C2048 1.428 . S
C2054 N2053 1.351 . S
C2054 C2055 1.434 . S
C2055 C2046 1.429 . S
C2055 N2052 1.350 . S
C2055 C2054 1.434 . S
C2056 C2057 1.369 . S
C2056 C2058 1.419 . S
C2056 H2060 0.930 . S
C2057 C2056 1.369 . S
C2057 C2066 1.429 . S
C2058 C2056 1.419 . S
C2058 C2059 1.363 . S
C2058 H2061 0.929 . S
C2059 C2058 1.363 . S
C2059 C2065 1.428 . S
H2060 C2056 0.930 . S
H2061 C2058 0.929 . S
S2062 N2063 1.613 . S
S2062 N2064 1.610 . S
N2063 S2062 1.613 . S
N2063 C2066 1.350 . S
N2064 S2062 1.610 . S
N2064 C2065 1.351 . S
C2065 C2059 1.428 . S
C2065 N2064 1.351 . S
C2065 C2066 1.434 . S
C2066 C2057 1.429 . S
C2066 N2063 1.350 . S
C2066 C2065 1.434 . S
C2067 C2068 1.369 . S
C2067 C2069 1.419 . S
C2067 H2071 0.930 . S
C2068 C2067 1.369 . S
C2068 C2077 1.429 . S
C2069 C2067 1.419 . S
C2069 C2070 1.363 . S
C2069 H2072 0.929 . S
C2070 C2069 1.363 . S
C2070 C2076 1.428 . S
H2071 C2067 0.930 . S
H2072 C2069 0.929 . S
S2073 N2074 1.613 . S
S2073 N2075 1.610 . S
N2074 S2073 1.613 . S
N2074 C2077 1.350 . S
N2075 S2073 1.610 . S
N2075 C2076 1.351 . S
C2076 C2070 1.428 . S
C2076 N2075 1.351 . S
C2076 C2077 1.434 . S
C2077 C2068 1.429 . S
C2077 N2074 1.350 . S
C2077 C2076 1.434 . S
C2078 C2079 1.369 . S
C2078 C2080 1.419 . S
C2078 H2082 0.930 . S
C2079 C2078 1.369 . S
C2079 C2088 1.429 . S
C2080 C2078 1.419 . S
C2080 C2081 1.363 . S
C2080 H2083 0.929 . S
C2081 C2080 1.363 . S
C2081 C2087 1.428 . S
H2082 C2078 0.930 . S
H2083 C2080 0.929 . S
S2084 N2085 1.613 . S
S2084 N2086 1.610 . S
N2085 S2084 1.613 . S
N2085 C2088 1.350 . S
N2086 S2084 1.610 . S
N2086 C2087 1.351 . S
C2087 C2081 1.428 . S
C2087 N2086 1.351 . S
C2087 C2088 1.434 . S
C2088 C2079 1.429 . S
C2088 N2085 1.350 . S
C2088 C2087 1.434 . S
C2089 C2090 1.369 . S
C2089 C2091 1.419 . S
C2089 H2093 0.930 . S
C2090 C2089 1.369 . S
C2090 C2099 1.429 . S
C2091 C2089 1.419 . S
C2091 C2092 1.363 . S
C2091 H2094 0.929 . S
C2092 C2091 1.363 . S
C2092 C2098 1.428 . S
H2093 C2089 0.930 . S
H2094 C2091 0.929 . S
S2095 N2096 1.613 . S
S2095 N2097 1.610 . S
N2096 S2095 1.613 . S
N2096 C2099 1.350 . S
N2097 S2095 1.610 . S
N2097 C2098 1.351 . S
C2098 C2092 1.428 . S
C2098 N2097 1.351 . S
C2098 C2099 1.434 . S
C2099 C2090 1.429 . S
C2099 N2096 1.350 . S
C2099 C2098 1.434 . S
C2100 C2101 1.369 . S
C2100 C2102 1.419 . S
C2100 H2104 0.930 . S
C2101 C2100 1.369 . S
C2101 C2110 1.429 . S
C2102 C2100 1.419 . S
C2102 C2103 1.363 . S
C2102 H2105 0.929 . S
C2103 C2102 1.363 . S
C2103 C2109 1.428 . S
H2104 C2100 0.930 . S
H2105 C2102 0.929 . S
S2106 N2107 1.613 1_556 S
S2106 N2108 1.610 . S
N2107 S2106 1.613 1_554 S
N2107 C2110 1.350 . S
N2108 S2106 1.610 . S
N2108 C2109 1.351 1_556 S
C2109 C2103 1.428 . S
C2109 N2108 1.351 1_554 S
C2109 C2110 1.434 . S
C2110 C2101 1.429 . S
C2110 N2107 1.350 . S
C2110 C2109 1.434 . S
C2111 C2112 1.369 . S
C2111 C2113 1.419 . S
C2111 H2115 0.930 . S
C2112 C2111 1.369 . S
C2112 C2121 1.429 . S
C2113 C2111 1.419 . S
C2113 C2114 1.363 . S
C2113 H2116 0.929 . S
C2114 C2113 1.363 . S
C2114 C2120 1.428 . S
H2115 C2111 0.930 . S
H2116 C2113 0.929 . S
S2117 N2118 1.613 . S
S2117 N2119 1.610 1_556 S
N2118 S2117 1.613 . S
N2118 C2121 1.350 1_556 S
N2119 S2117 1.610 1_554 S
N2119 C2120 1.351 . S
C2120 C2114 1.428 . S
C2120 N2119 1.351 . S
C2120 C2121 1.434 . S
C2121 C2112 1.429 . S
C2121 N2118 1.350 1_554 S
C2121 C2120 1.434 . S
C2122 C2123 1.369 . S
C2122 C2124 1.419 . S
C2122 H2126 0.930 . S
C2123 C2122 1.369 . S
C2123 C2132 1.429 . S
C2124 C2122 1.419 . S
C2124 C2125 1.363 . S
C2124 H2127 0.929 . S
C2125 C2124 1.363 . S
C2125 C2131 1.428 . S
H2126 C2122 0.930 . S
H2127 C2124 0.929 . S
S2128 N2129 1.613 1_556 S
S2128 N2130 1.610 . S
N2129 S2128 1.613 1_554 S
N2129 C2132 1.350 . S
N2130 S2128 1.610 . S
N2130 C2131 1.351 1_556 S
C2131 C2125 1.428 . S
C2131 N2130 1.351 1_554 S
C2131 C2132 1.434 . S
C2132 C2123 1.429 . S
C2132 N2129 1.350 . S
C2132 C2131 1.434 . S
C2133 C2134 1.369 . S
C2133 C2135 1.419 . S
C2133 H2137 0.930 . S
C2134 C2133 1.369 . S
C2134 C2143 1.429 . S
C2135 C2133 1.419 . S
C2135 C2136 1.363 . S
C2135 H2138 0.929 . S
C2136 C2135 1.363 . S
C2136 C2142 1.428 . S
H2137 C2133 0.930 . S
H2138 C2135 0.929 . S
S2139 N2140 1.613 . S
S2139 N2141 1.610 . S
N2140 S2139 1.613 . S
N2140 C2143 1.350 . S
N2141 S2139 1.610 . S
N2141 C2142 1.351 . S
C2142 C2136 1.428 . S
C2142 N2141 1.351 . S
C2142 C2143 1.434 . S
C2143 C2134 1.429 . S
C2143 N2140 1.350 . S
C2143 C2142 1.434 . S
C2144 C2145 1.369 . S
C2144 C2146 1.419 . S
C2144 H2148 0.930 . S
C2145 C2144 1.369 . S
C2145 C2154 1.429 . S
C2146 C2144 1.419 . S
C2146 C2147 1.363 . S
C2146 H2149 0.929 . S
C2147 C2146 1.363 . S
C2147 C2153 1.428 . S
H2148 C2144 0.930 . S
H2149 C2146 0.929 . S
S2150 N2151 1.613 . S
S2150 N2152 1.610 . S
N2151 S2150 1.613 . S
N2151 C2154 1.350 . S
N2152 S2150 1.610 . S
N2152 C2153 1.351 . S
C2153 C2147 1.428 . S
C2153 N2152 1.351 . S
C2153 C2154 1.434 . S
C2154 C2145 1.429 . S
C2154 N2151 1.350 . S
C2154 C2153 1.434 . S
C2155 C2156 1.369 . S
C2155 C2157 1.419 . S
C2155 H2159 0.930 . S
C2156 C2155 1.369 . S
C2156 C2165 1.429 . S
C2157 C2155 1.419 . S
C2157 C2158 1.363 . S
C2157 H2160 0.929 . S
C2158 C2157 1.363 . S
C2158 C2164 1.428 . S
H2159 C2155 0.930 . S
H2160 C2157 0.929 . S
S2161 N2162 1.613 . S
S2161 N2163 1.610 . S
N2162 S2161 1.613 . S
N2162 C2165 1.350 . S
N2163 S2161 1.610 . S
N2163 C2164 1.351 . S
C2164 C2158 1.428 . S
C2164 N2163 1.351 . S
C2164 C2165 1.434 . S
C2165 C2156 1.429 . S
C2165 N2162 1.350 . S
C2165 C2164 1.434 . S
C2166 C2167 1.369 . S
C2166 C2168 1.419 1_455 S
C2166 H2170 0.930 . S
C2167 C2166 1.369 . S
C2167 C2176 1.429 . S
C2168 C2166 1.419 1_655 S
C2168 C2169 1.363 . S
C2168 H2171 0.929 . S
C2169 C2168 1.363 . S
C2169 C2175 1.428 . S
H2170 C2166 0.930 . S
H2171 C2168 0.929 . S
S2172 N2173 1.613 1_655 S
S2172 N2174 1.610 . S
N2173 S2172 1.613 1_455 S
N2173 C2176 1.350 . S
N2174 S2172 1.610 . S
N2174 C2175 1.351 . S
C2175 C2169 1.428 . S
C2175 N2174 1.351 . S
C2175 C2176 1.434 1_655 S
C2176 C2167 1.429 . S
C2176 N2173 1.350 . S
C2176 C2175 1.434 1_455 S
C2177 C2178 1.369 . S
C2177 C2179 1.419 . S
C2177 H2181 0.930 . S
C2178 C2177 1.369 . S
C2178 C2187 1.429 . S
C2179 C2177 1.419 . S
C2179 C2180 1.363 . S
C2179 H2182 0.929 . S
C2180 C2179 1.363 . S
C2180 C2186 1.428 . S
H2181 C2177 0.930 . S
H2182 C2179 0.929 . S
S2183 N2184 1.613 . S
S2183 N2185 1.610 . S
N2184 S2183 1.613 . S
N2184 C2187 1.350 . S
N2185 S2183 1.610 . S
N2185 C2186 1.351 . S
C2186 C2180 1.428 . S
C2186 N2185 1.351 . S
C2186 C2187 1.434 . S
C2187 C2178 1.429 . S
C2187 N2184 1.350 . S
C2187 C2186 1.434 . S
C2188 C2189 1.369 . S
C2188 C2190 1.419 1_545 S
C2188 H2192 0.930 . S
C2189 C2188 1.369 . S
C2189 C2198 1.429 . S
C2190 C2188 1.419 1_565 S
C2190 C2191 1.363 . S
C2190 H2193 0.929 . S
C2191 C2190 1.363 . S
C2191 C2197 1.428 . S
H2192 C2188 0.930 . S
H2193 C2190 0.929 . S
S2194 N2195 1.631 . S
S2194 N2196 1.554 1_545 S
N2195 S2194 1.631 . S
N2195 C2198 1.350 . S
N2196 S2194 1.554 1_565 S
N2196 C2197 1.351 . S
C2197 C2191 1.428 . S
C2197 N2196 1.351 . S
C2197 C2198 1.434 1_565 S
C2198 C2189 1.429 . S
C2198 N2195 1.350 . S
C2198 C2197 1.434 1_545 S
C2199 C2200 1.369 . S
C2199 C2201 1.419 1_565 S
C2199 H2203 0.930 . S
C2200 C2199 1.369 . S
C2200 C2209 1.429 . S
C2201 C2199 1.419 1_545 S
C2201 C2202 1.363 . S
C2201 H2204 0.929 . S
C2202 C2201 1.363 . S
C2202 C2208 1.428 . S
H2203 C2199 0.930 . S
H2204 C2201 0.929 . S
S2205 N2206 1.613 1_545 S
S2205 N2207 1.610 . S
N2206 S2205 1.613 1_565 S
N2206 C2209 1.350 . S
N2207 S2205 1.610 . S
N2207 C2208 1.351 . S
C2208 C2202 1.428 . S
C2208 N2207 1.351 . S
C2208 C2209 1.434 1_545 S
C2209 C2200 1.429 . S
C2209 N2206 1.350 . S
C2209 C2208 1.434 1_565 S
C2210 C2211 1.369 . S
C2210 C2212 1.419 1_455 S
C2210 H2214 0.930 . S
C2211 C2210 1.369 . S
C2211 C2220 1.429 . S
C2212 C2210 1.419 1_655 S
C2212 C2213 1.363 . S
C2212 H2215 0.929 . S
C2213 C2212 1.363 . S
C2213 C2219 1.428 . S
H2214 C2210 0.930 . S
H2215 C2212 0.929 . S
S2216 N2217 1.606 1_655 S
S2216 N2218 1.634 . S
N2217 S2216 1.606 1_455 S
N2217 C2220 1.350 . S
N2218 S2216 1.634 . S
N2218 C2219 1.351 . S
C2219 C2213 1.428 . S
C2219 N2218 1.351 . S
C2219 C2220 1.434 1_655 S
C2220 C2211 1.429 . S
C2220 N2217 1.350 . S
C2220 C2219 1.434 1_455 S
C2221 C2222 1.369 . S
C2221 C2223 1.419 . S
C2221 H2225 0.930 . S
C2222 C2221 1.369 . S
C2222 C2231 1.429 . S
C2223 C2221 1.419 . S
C2223 C2224 1.363 . S
C2223 H2226 0.929 . S
C2224 C2223 1.363 . S
C2224 C2230 1.428 . S
H2225 C2221 0.930 . S
H2226 C2223 0.929 . S
S2227 N2228 1.613 . S
S2227 N2229 1.610 . S
N2228 S2227 1.613 . S
N2228 C2231 1.350 . S
N2229 S2227 1.610 . S
N2229 C2230 1.351 . S
C2230 C2224 1.428 . S
C2230 N2229 1.351 . S
C2230 C2231 1.434 . S
C2231 C2222 1.429 . S
C2231 N2228 1.350 . S
C2231 C2230 1.434 . S
C2232 C2233 1.369 . S
C2232 C2234 1.419 . S
C2232 H2236 0.930 . S
C2233 C2232 1.369 . S
C2233 C2242 1.429 . S
C2234 C2232 1.419 . S
C2234 C2235 1.363 . S
C2234 H2237 0.929 . S
C2235 C2234 1.363 . S
C2235 C2241 1.428 . S
H2236 C2232 0.930 . S
H2237 C2234 0.929 . S
S2238 N2239 1.613 . S
S2238 N2240 1.610 . S
N2239 S2238 1.613 . S
N2239 C2242 1.350 . S
N2240 S2238 1.610 . S
N2240 C2241 1.351 . S
C2241 C2235 1.428 . S
C2241 N2240 1.351 . S
C2241 C2242 1.434 . S
C2242 C2233 1.429 . S
C2242 N2239 1.350 . S
C2242 C2241 1.434 . S
C2243 C2244 1.369 . S
C2243 C2245 1.419 1_545 S
C2243 H2247 0.930 . S
C2244 C2243 1.369 . S
C2244 C2253 1.429 . S
C2245 C2243 1.419 1_565 S
C2245 C2246 1.363 . S
C2245 H2248 0.929 . S
C2246 C2245 1.363 . S
C2246 C2252 1.428 . S
H2247 C2243 0.930 . S
H2248 C2245 0.929 . S
S2249 N2250 1.613 1_565 S
S2249 N2251 1.610 . S
N2250 S2249 1.613 1_545 S
N2250 C2253 1.350 . S
N2251 S2249 1.610 . S
N2251 C2252 1.351 . S
C2252 C2246 1.428 . S
C2252 N2251 1.351 . S
C2252 C2253 1.434 1_565 S
C2253 C2244 1.429 . S
C2253 N2250 1.350 . S
C2253 C2252 1.434 1_545 S
C2254 C2255 1.369 . S
C2254 C2256 1.419 1_655 S
C2254 H2258 0.930 . S
C2255 C2254 1.369 . S
C2255 C2264 1.429 . S
C2256 C2254 1.419 1_455 S
C2256 C2257 1.363 . S
C2256 H2259 0.929 . S
C2257 C2256 1.363 . S
C2257 C2263 1.428 . S
H2258 C2254 0.930 . S
H2259 C2256 0.929 . S
S2260 N2261 1.613 . S
S2260 N2262 1.610 1_655 S
N2261 S2260 1.613 . S
N2261 C2264 1.350 . S
N2262 S2260 1.610 1_455 S
N2262 C2263 1.351 . S
C2263 C2257 1.428 . S
C2263 N2262 1.351 . S
C2263 C2264 1.434 1_455 S
C2264 C2255 1.429 . S
C2264 N2261 1.350 . S
C2264 C2263 1.434 1_655 S
C2265 C2266 1.369 . S
C2265 C2267 1.419 . S
C2265 H2269 0.930 . S
C2266 C2265 1.369 . S
C2266 C2275 1.429 . S
C2267 C2265 1.419 . S
C2267 C2268 1.363 . S
C2267 H2270 0.929 . S
C2268 C2267 1.363 . S
C2268 C2274 1.428 . S
H2269 C2265 0.930 . S
H2270 C2267 0.929 . S
S2271 N2272 1.613 . S
S2271 N2273 1.610 . S
N2272 S2271 1.613 . S
N2272 C2275 1.350 . S
N2273 S2271 1.610 . S
N2273 C2274 1.351 . S
C2274 C2268 1.428 . S
C2274 N2273 1.351 . S
C2274 C2275 1.434 . S
C2275 C2266 1.429 . S
C2275 N2272 1.350 . S
C2275 C2274 1.434 . S
C2276 C2277 1.369 . S
C2276 C2278 1.419 1_565 S
C2276 H2280 0.930 . S
C2277 C2276 1.369 . S
C2277 C2286 1.429 . S
C2278 C2276 1.419 1_545 S
C2278 C2279 1.363 . S
C2278 H2281 0.929 . S
C2279 C2278 1.363 . S
C2279 C2285 1.428 . S
H2280 C2276 0.930 . S
H2281 C2278 0.929 . S
S2282 N2283 1.613 . S
S2282 N2284 1.610 1_565 S
N2283 S2282 1.613 . S
N2283 C2286 1.350 . S
N2284 S2282 1.610 1_545 S
N2284 C2285 1.351 . S
C2285 C2279 1.428 . S
C2285 N2284 1.351 . S
C2285 C2286 1.434 1_545 S
C2286 C2277 1.429 . S
C2286 N2283 1.350 . S
C2286 C2285 1.434 1_565 S
C2287 C2288 1.369 . S
C2287 C2289 1.419 1_655 S
C2287 H2291 0.930 . S
C2288 C2287 1.369 . S
C2288 C2297 1.429 . S
C2289 C2287 1.419 1_455 S
C2289 C2290 1.363 . S
C2289 H2292 0.929 . S
C2290 C2289 1.363 . S
C2290 C2296 1.428 . S
H2291 C2287 0.930 . S
H2292 C2289 0.929 . S
S2293 N2294 1.613 . S
S2293 N2295 1.610 1_655 S
N2294 S2293 1.613 . S
N2294 C2297 1.350 . S
N2295 S2293 1.610 1_455 S
N2295 C2296 1.351 . S
C2296 C2290 1.428 . S
C2296 N2295 1.351 . S
C2296 C2297 1.434 1_455 S
C2297 C2288 1.429 . S
C2297 N2294 1.350 . S
C2297 C2296 1.434 1_655 S
C2298 C2299 1.369 . S
C2298 C2300 1.419 . S
C2298 H2302 0.930 . S
C2299 C2298 1.369 . S
C2299 C2308 1.429 . S
C2300 C2298 1.419 . S
C2300 C2301 1.363 . S
C2300 H2303 0.929 . S
C2301 C2300 1.363 . S
C2301 C2307 1.428 . S
H2302 C2298 0.930 . S
H2303 C2300 0.929 . S
S2304 N2305 1.613 . S
S2304 N2306 1.610 . S
N2305 S2304 1.613 . S
N2305 C2308 1.350 . S
N2306 S2304 1.610 . S
N2306 C2307 1.351 . S
C2307 C2301 1.428 . S
C2307 N2306 1.351 . S
C2307 C2308 1.434 . S
C2308 C2299 1.429 . S
C2308 N2305 1.350 . S
C2308 C2307 1.434 . S
C2309 C2310 1.369 . S
C2309 C2311 1.419 . S
C2309 H2313 0.930 . S
C2310 C2309 1.369 . S
C2310 C2319 1.429 . S
C2311 C2309 1.419 . S
C2311 C2312 1.363 . S
C2311 H2314 0.929 . S
C2312 C2311 1.363 . S
C2312 C2318 1.428 . S
H2313 C2309 0.930 . S
H2314 C2311 0.929 . S
S2315 N2316 1.613 . S
S2315 N2317 1.610 . S
N2316 S2315 1.613 . S
N2316 C2319 1.350 . S
N2317 S2315 1.610 . S
N2317 C2318 1.351 . S
C2318 C2312 1.428 . S
C2318 N2317 1.351 . S
C2318 C2319 1.434 . S
C2319 C2310 1.429 . S
C2319 N2316 1.350 . S
C2319 C2318 1.434 . S
C2320 C2321 1.369 . S
C2320 C2322 1.419 . S
C2320 H2324 0.930 . S
C2321 C2320 1.369 . S
C2321 C2330 1.429 . S
C2322 C2320 1.419 . S
C2322 C2323 1.363 . S
C2322 H2325 0.929 . S
C2323 C2322 1.363 . S
C2323 C2329 1.428 . S
H2324 C2320 0.930 . S
H2325 C2322 0.929 . S
S2326 N2327 1.613 . S
S2326 N2328 1.610 . S
N2327 S2326 1.613 . S
N2327 C2330 1.350 . S
N2328 S2326 1.610 . S
N2328 C2329 1.351 . S
C2329 C2323 1.428 . S
C2329 N2328 1.351 . S
C2329 C2330 1.434 . S
C2330 C2321 1.429 . S
C2330 N2327 1.350 . S
C2330 C2329 1.434 . S
C2331 C2332 1.369 . S
C2331 C2333 1.419 . S
C2331 H2335 0.930 . S
C2332 C2331 1.369 . S
C2332 C2341 1.429 . S
C2333 C2331 1.419 . S
C2333 C2334 1.363 . S
C2333 H2336 0.929 . S
C2334 C2333 1.363 . S
C2334 C2340 1.428 . S
H2335 C2331 0.930 . S
H2336 C2333 0.929 . S
S2337 N2338 1.613 . S
S2337 N2339 1.610 . S
N2338 S2337 1.613 . S
N2338 C2341 1.350 . S
N2339 S2337 1.610 . S
N2339 C2340 1.351 . S
C2340 C2334 1.428 . S
C2340 N2339 1.351 . S
C2340 C2341 1.434 . S
C2341 C2332 1.429 . S
C2341 N2338 1.350 . S
C2341 C2340 1.434 . S
C2342 C2343 1.369 . S
C2342 C2344 1.419 . S
C2342 H2346 0.930 . S
C2343 C2342 1.369 . S
C2343 C2352 1.429 . S
C2344 C2342 1.419 . S
C2344 C2345 1.363 . S
C2344 H2347 0.929 . S
C2345 C2344 1.363 . S
C2345 C2351 1.428 . S
H2346 C2342 0.930 . S
H2347 C2344 0.929 . S
S2348 N2349 1.613 . S
S2348 N2350 1.610 . S
N2349 S2348 1.613 . S
N2349 C2352 1.350 . S
N2350 S2348 1.610 . S
N2350 C2351 1.351 . S
C2351 C2345 1.428 . S
C2351 N2350 1.351 . S
C2351 C2352 1.434 . S
C2352 C2343 1.429 . S
C2352 N2349 1.350 . S
C2352 C2351 1.434 . S
C2353 C2354 1.369 . S
C2353 C2355 1.419 . S
C2353 H2357 0.930 . S
C2354 C2353 1.369 . S
C2354 C2363 1.429 . S
C2355 C2353 1.419 . S
C2355 C2356 1.363 . S
C2355 H2358 0.929 . S
C2356 C2355 1.363 . S
C2356 C2362 1.428 . S
H2357 C2353 0.930 . S
H2358 C2355 0.929 . S
S2359 N2360 1.613 . S
S2359 N2361 1.610 . S
N2360 S2359 1.613 . S
N2360 C2363 1.350 1_556 S
N2361 S2359 1.610 . S
N2361 C2362 1.351 1_556 S
C2362 C2356 1.428 . S
C2362 N2361 1.351 1_554 S
C2362 C2363 1.434 . S
C2363 C2354 1.429 . S
C2363 N2360 1.350 1_554 S
C2363 C2362 1.434 . S
C2364 C2365 1.369 . S
C2364 C2366 1.419 . S
C2364 H2368 0.930 . S
C2365 C2364 1.369 . S
C2365 C2374 1.429 . S
C2366 C2364 1.419 . S
C2366 C2367 1.363 . S
C2366 H2369 0.929 . S
C2367 C2366 1.363 . S
C2367 C2373 1.428 . S
H2368 C2364 0.930 . S
H2369 C2366 0.929 . S
S2370 N2371 1.613 . S
S2370 N2372 1.610 . S
N2371 S2370 1.613 . S
N2371 C2374 1.350 . S
N2372 S2370 1.610 . S
N2372 C2373 1.351 . S
C2373 C2367 1.428 . S
C2373 N2372 1.351 . S
C2373 C2374 1.434 . S
C2374 C2365 1.429 . S
C2374 N2371 1.350 . S
C2374 C2373 1.434 . S
C2375 C2376 1.369 . S
C2375 C2377 1.419 . S
C2375 H2379 0.930 . S
C2376 C2375 1.369 . S
C2376 C2385 1.429 . S
C2377 C2375 1.419 . S
C2377 C2378 1.363 . S
C2377 H2380 0.929 . S
C2378 C2377 1.363 . S
C2378 C2384 1.428 . S
H2379 C2375 0.930 . S
H2380 C2377 0.929 . S
S2381 N2382 1.613 . S
S2381 N2383 1.610 1_554 S
N2382 S2381 1.613 . S
N2382 C2385 1.350 1_554 S
N2383 S2381 1.610 1_556 S
N2383 C2384 1.351 . S
C2384 C2378 1.428 . S
C2384 N2383 1.351 . S
C2384 C2385 1.434 . S
C2385 C2376 1.429 . S
C2385 N2382 1.350 1_556 S
C2385 C2384 1.434 . S
C2386 C2387 1.369 . S
C2386 C2388 1.419 . S
C2386 H2390 0.930 1_556 S
C2387 C2386 1.369 . S
C2387 C2396 1.429 . S
C2388 C2386 1.419 . S
C2388 C2389 1.363 . S
C2388 H2391 0.929 . S
C2389 C2388 1.363 . S
C2389 C2395 1.428 . S
H2390 C2386 0.930 1_554 S
H2391 C2388 0.929 . S
S2392 N2393 1.613 . S
S2392 N2394 1.610 . S
N2393 S2392 1.613 . S
N2393 C2396 1.350 . S
N2394 S2392 1.610 . S
N2394 C2395 1.351 . S
C2395 C2389 1.428 . S
C2395 N2394 1.351 . S
C2395 C2396 1.434 . S
C2396 C2387 1.429 . S
C2396 N2393 1.350 . S
C2396 C2395 1.434 . S
C2397 C2398 1.369 . S
C2397 C2399 1.419 . S
C2397 H2401 0.930 . S
C2398 C2397 1.369 . S
C2398 C2407 1.429 . S
C2399 C2397 1.419 . S
C2399 C2400 1.363 . S
C2399 H2402 0.929 . S
C2400 C2399 1.363 . S
C2400 C2406 1.428 . S
H2401 C2397 0.930 . S
H2402 C2399 0.929 . S
S2403 N2404 1.613 . S
S2403 N2405 1.610 . S
N2404 S2403 1.613 . S
N2404 C2407 1.350 . S
N2405 S2403 1.610 . S
N2405 C2406 1.351 . S
C2406 C2400 1.428 . S
C2406 N2405 1.351 . S
C2406 C2407 1.434 . S
C2407 C2398 1.429 . S
C2407 N2404 1.350 . S
C2407 C2406 1.434 . S
C2408 C2409 1.369 . S
C2408 C2410 1.419 . S
C2408 H2412 0.930 . S
C2409 C2408 1.369 . S
C2409 C2418 1.429 . S
C2410 C2408 1.419 . S
C2410 C2411 1.363 . S
C2410 H2413 0.929 . S
C2411 C2410 1.363 . S
C2411 C2417 1.428 . S
H2412 C2408 0.930 . S
H2413 C2410 0.929 . S
S2414 N2415 1.613 . S
S2414 N2416 1.610 . S
N2415 S2414 1.613 . S
N2415 C2418 1.350 . S
N2416 S2414 1.610 . S
N2416 C2417 1.351 . S
C2417 C2411 1.428 . S
C2417 N2416 1.351 . S
C2417 C2418 1.434 . S
C2418 C2409 1.429 . S
C2418 N2415 1.350 . S
C2418 C2417 1.434 . S
C2419 C2420 1.369 . S
C2419 C2421 1.419 . S
C2419 H2423 0.930 . S
C2420 C2419 1.369 . S
C2420 C2429 1.429 . S
C2421 C2419 1.419 . S
C2421 C2422 1.363 . S
C2421 H2424 0.929 . S
C2422 C2421 1.363 . S
C2422 C2428 1.428 . S
H2423 C2419 0.930 . S
H2424 C2421 0.929 . S
S2425 N2426 1.613 . S
S2425 N2427 1.610 . S
N2426 S2425 1.613 . S
N2426 C2429 1.350 . S
N2427 S2425 1.610 . S
N2427 C2428 1.351 . S
C2428 C2422 1.428 . S
C2428 N2427 1.351 . S
C2428 C2429 1.434 . S
C2429 C2420 1.429 . S
C2429 N2426 1.350 . S
C2429 C2428 1.434 . S
C2430 C2431 1.369 . S
C2430 C2432 1.419 . S
C2430 H2434 0.930 . S
C2431 C2430 1.369 . S
C2431 C2440 1.429 . S
C2432 C2430 1.419 . S
C2432 C2433 1.363 . S
C2432 H2435 0.929 . S
C2433 C2432 1.363 . S
C2433 C2439 1.428 . S
H2434 C2430 0.930 . S
H2435 C2432 0.929 . S
S2436 N2437 1.613 1_556 S
S2436 N2438 1.610 . S
N2437 S2436 1.613 1_554 S
N2437 C2440 1.350 . S
N2438 S2436 1.610 . S
N2438 C2439 1.351 1_556 S
C2439 C2433 1.428 . S
C2439 N2438 1.351 1_554 S
C2439 C2440 1.434 . S
C2440 C2431 1.429 . S
C2440 N2437 1.350 . S
C2440 C2439 1.434 . S
C2441 C2442 1.369 . S
C2441 C2443 1.419 . S
C2441 H2445 0.930 . S
C2442 C2441 1.369 . S
C2442 C2451 1.429 . S
C2443 C2441 1.419 . S
C2443 C2444 1.363 . S
C2443 H2446 0.929 . S
C2444 C2443 1.363 . S
C2444 C2450 1.428 . S
H2445 C2441 0.930 . S
H2446 C2443 0.929 . S
S2447 N2448 1.613 . S
S2447 N2449 1.610 . S
N2448 S2447 1.613 . S
N2448 C2451 1.350 . S
N2449 S2447 1.610 . S
N2449 C2450 1.351 . S
C2450 C2444 1.428 . S
C2450 N2449 1.351 . S
C2450 C2451 1.434 . S
C2451 C2442 1.429 . S
C2451 N2448 1.350 . S
C2451 C2450 1.434 . S
C2452 C2453 1.369 . S
C2452 C2454 1.419 . S
C2452 H2456 0.930 . S
C2453 C2452 1.369 . S
C2453 C2462 1.429 . S
C2454 C2452 1.419 . S
C2454 C2455 1.363 . S
C2454 H2457 0.929 . S
C2455 C2454 1.363 . S
C2455 C2461 1.428 . S
H2456 C2452 0.930 . S
H2457 C2454 0.929 . S
S2458 N2459 1.613 1_556 S
S2458 N2460 1.610 . S
N2459 S2458 1.613 1_554 S
N2459 C2462 1.350 . S
N2460 S2458 1.610 . S
N2460 C2461 1.351 1_556 S
C2461 C2455 1.428 . S
C2461 N2460 1.351 1_554 S
C2461 C2462 1.434 . S
C2462 C2453 1.429 . S
C2462 N2459 1.350 . S
C2462 C2461 1.434 . S
C2463 C2464 1.369 . S
C2463 C2465 1.419 . S
C2463 H2467 0.930 . S
C2464 C2463 1.369 . S
C2464 C2473 1.429 . S
C2465 C2463 1.419 . S
C2465 C2466 1.363 . S
C2465 H2468 0.929 . S
C2466 C2465 1.363 . S
C2466 C2472 1.428 . S
H2467 C2463 0.930 . S
H2468 C2465 0.929 . S
S2469 N2470 1.613 . S
S2469 N2471 1.610 . S
N2470 S2469 1.613 . S
N2470 C2473 1.350 . S
N2471 S2469 1.610 . S
N2471 C2472 1.351 . S
C2472 C2466 1.428 . S
C2472 N2471 1.351 . S
C2472 C2473 1.434 . S
C2473 C2464 1.429 . S
C2473 N2470 1.350 . S
C2473 C2472 1.434 . S
C2474 C2475 1.369 . S
C2474 C2476 1.419 . S
C2474 H2478 0.930 . S
C2475 C2474 1.369 . S
C2475 C2484 1.429 . S
C2476 C2474 1.419 . S
C2476 C2477 1.363 . S
C2476 H2479 0.929 . S
C2477 C2476 1.363 . S
C2477 C2483 1.428 . S
H2478 C2474 0.930 . S
H2479 C2476 0.929 . S
S2480 N2481 1.613 . S
S2480 N2482 1.610 1_565 S
N2481 S2480 1.613 . S
N2481 C2484 1.350 1_565 S
N2482 S2480 1.610 1_545 S
N2482 C2483 1.351 . S
C2483 C2477 1.428 . S
C2483 N2482 1.351 . S
C2483 C2484 1.434 . S
C2484 C2475 1.429 . S
C2484 N2481 1.350 1_545 S
C2484 C2483 1.434 . S
C2485 C2486 1.369 . S
C2485 C2487 1.419 . S
C2485 H2489 0.930 . S
C2486 C2485 1.369 . S
C2486 C2495 1.429 . S
C2487 C2485 1.419 . S
C2487 C2488 1.363 . S
C2487 H2490 0.929 . S
C2488 C2487 1.363 . S
C2488 C2494 1.428 . S
H2489 C2485 0.930 . S
H2490 C2487 0.929 . S
S2491 N2492 1.613 . S
S2491 N2493 1.610 . S
N2492 S2491 1.613 . S
N2492 C2495 1.350 . S
N2493 S2491 1.610 . S
N2493 C2494 1.351 . S
C2494 C2488 1.428 . S
C2494 N2493 1.351 . S
C2494 C2495 1.434 . S
C2495 C2486 1.429 . S
C2495 N2492 1.350 . S
C2495 C2494 1.434 . S
C2496 C2497 1.369 . S
C2496 C2498 1.419 . S
C2496 H2500 0.930 . S
C2497 C2496 1.369 . S
C2497 C2506 1.429 . S
C2498 C2496 1.419 . S
C2498 C2499 1.363 . S
C2498 H2501 0.929 . S
C2499 C2498 1.363 . S
C2499 C2505 1.428 . S
H2500 C2496 0.930 . S
H2501 C2498 0.929 . S
S2502 N2503 1.613 . S
S2502 N2504 1.610 . S
N2503 S2502 1.613 . S
N2503 C2506 1.350 . S
N2504 S2502 1.610 . S
N2504 C2505 1.351 . S
C2505 C2499 1.428 . S
C2505 N2504 1.351 . S
C2505 C2506 1.434 . S
C2506 C2497 1.429 . S
C2506 N2503 1.350 . S
C2506 C2505 1.434 . S
C2507 C2508 1.369 . S
C2507 C2509 1.419 . S
C2507 H2511 0.930 1_545 S
C2508 C2507 1.369 . S
C2508 C2517 1.429 . S
C2509 C2507 1.419 . S
C2509 C2510 1.363 . S
C2509 H2512 0.929 . S
C2510 C2509 1.363 . S
C2510 C2516 1.428 . S
H2511 C2507 0.930 1_565 S
H2512 C2509 0.929 . S
S2513 N2514 1.613 . S
S2513 N2515 1.610 . S
N2514 S2513 1.613 . S
N2514 C2517 1.350 . S
N2515 S2513 1.610 . S
N2515 C2516 1.351 . S
C2516 C2510 1.428 . S
C2516 N2515 1.351 . S
C2516 C2517 1.434 . S
C2517 C2508 1.429 . S
C2517 N2514 1.350 . S
C2517 C2516 1.434 . S
C2518 C2519 1.369 . S
C2518 C2520 1.419 . S
C2518 H2522 0.930 . S
C2519 C2518 1.369 . S
C2519 C2528 1.429 . S
C2520 C2518 1.419 . S
C2520 C2521 1.363 . S
C2520 H2523 0.929 . S
C2521 C2520 1.363 . S
C2521 C2527 1.428 . S
H2522 C2518 0.930 . S
H2523 C2520 0.929 . S
S2524 N2525 1.613 . S
S2524 N2526 1.610 . S
N2525 S2524 1.613 . S
N2525 C2528 1.350 . S
N2526 S2524 1.610 . S
N2526 C2527 1.351 . S
C2527 C2521 1.428 . S
C2527 N2526 1.351 . S
C2527 C2528 1.434 . S
C2528 C2519 1.429 . S
C2528 N2525 1.350 . S
C2528 C2527 1.434 . S
C2529 C2530 1.369 . S
C2529 C2531 1.419 . S
C2529 H2533 0.930 . S
C2530 C2529 1.369 . S
C2530 C2539 1.429 . S
C2531 C2529 1.419 . S
C2531 C2532 1.363 . S
C2531 H2534 0.929 . S
C2532 C2531 1.363 . S
C2532 C2538 1.428 . S
H2533 C2529 0.930 . S
H2534 C2531 0.929 . S
S2535 N2536 1.613 . S
S2535 N2537 1.610 . S
N2536 S2535 1.613 . S
N2536 C2539 1.350 . S
N2537 S2535 1.610 . S
N2537 C2538 1.351 . S
C2538 C2532 1.428 . S
C2538 N2537 1.351 . S
C2538 C2539 1.434 . S
C2539 C2530 1.429 . S
C2539 N2536 1.350 . S
C2539 C2538 1.434 . S
C2540 C2541 1.369 . S
C2540 C2542 1.419 . S
C2540 H2544 0.930 . S
C2541 C2540 1.369 . S
C2541 C2550 1.429 . S
C2542 C2540 1.419 . S
C2542 C2543 1.363 . S
C2542 H2545 0.929 . S
C2543 C2542 1.363 . S
C2543 C2549 1.428 . S
H2544 C2540 0.930 . S
H2545 C2542 0.929 . S
S2546 N2547 1.613 . S
S2546 N2548 1.610 . S
N2547 S2546 1.613 . S
N2547 C2550 1.350 . S
N2548 S2546 1.610 . S
N2548 C2549 1.351 . S
C2549 C2543 1.428 . S
C2549 N2548 1.351 . S
C2549 C2550 1.434 . S
C2550 C2541 1.429 . S
C2550 N2547 1.350 . S
C2550 C2549 1.434 . S
C2551 C2552 1.369 . S
C2551 C2553 1.419 . S
C2551 H2555 0.930 . S
C2552 C2551 1.369 . S
C2552 C2561 1.429 . S
C2553 C2551 1.419 . S
C2553 C2554 1.363 . S
C2553 H2556 0.929 . S
C2554 C2553 1.363 . S
C2554 C2560 1.428 . S
H2555 C2551 0.930 . S
H2556 C2553 0.929 . S
S2557 N2558 1.613 . S
S2557 N2559 1.610 . S
N2558 S2557 1.613 . S
N2558 C2561 1.350 . S
N2559 S2557 1.610 . S
N2559 C2560 1.351 . S
C2560 C2554 1.428 . S
C2560 N2559 1.351 . S
C2560 C2561 1.434 . S
C2561 C2552 1.429 . S
C2561 N2558 1.350 . S
C2561 C2560 1.434 . S
C2562 C2563 1.369 . S
C2562 C2564 1.419 1_655 S
C2562 H2566 0.930 . S
C2563 C2562 1.369 . S
C2563 C2572 1.429 . S
C2564 C2562 1.419 1_455 S
C2564 C2565 1.363 . S
C2564 H2567 0.929 . S
C2565 C2564 1.363 . S
C2565 C2571 1.428 . S
H2566 C2562 0.930 . S
H2567 C2564 0.929 . S
S2568 N2569 1.613 1_455 S
S2568 N2570 1.610 . S
N2569 S2568 1.613 1_655 S
N2569 C2572 1.350 . S
N2570 S2568 1.610 . S
N2570 C2571 1.351 . S
C2571 C2565 1.428 . S
C2571 N2570 1.351 . S
C2571 C2572 1.434 1_455 S
C2572 C2563 1.429 . S
C2572 N2569 1.350 . S
C2572 C2571 1.434 1_655 S
C2573 C2574 1.369 . S
C2573 C2575 1.419 . S
C2573 H2577 0.930 . S
C2574 C2573 1.369 . S
C2574 C2583 1.429 . S
C2575 C2573 1.419 . S
C2575 C2576 1.363 . S
C2575 H2578 0.929 . S
C2576 C2575 1.363 . S
C2576 C2582 1.428 . S
H2577 C2573 0.930 . S
H2578 C2575 0.929 . S
S2579 N2580 1.613 . S
S2579 N2581 1.610 . S
N2580 S2579 1.613 . S
N2580 C2583 1.350 . S
N2581 S2579 1.610 . S
N2581 C2582 1.351 . S
C2582 C2576 1.428 . S
C2582 N2581 1.351 . S
C2582 C2583 1.434 . S
C2583 C2574 1.429 . S
C2583 N2580 1.350 . S
C2583 C2582 1.434 . S
C2584 C2585 1.369 . S
C2584 C2586 1.419 1_545 S
C2584 H2588 0.930 . S
C2585 C2584 1.369 . S
C2585 C2594 1.429 . S
C2586 C2584 1.419 1_565 S
C2586 C2587 1.363 . S
C2586 H2589 0.929 . S
C2587 C2586 1.363 . S
C2587 C2593 1.428 . S
H2588 C2584 0.930 . S
H2589 C2586 0.929 . S
S2590 N2591 1.613 1_565 S
S2590 N2592 1.610 . S
N2591 S2590 1.613 1_545 S
N2591 C2594 1.350 . S
N2592 S2590 1.610 . S
N2592 C2593 1.351 . S
C2593 C2587 1.428 . S
C2593 N2592 1.351 . S
C2593 C2594 1.434 1_565 S
C2594 C2585 1.429 . S
C2594 N2591 1.350 . S
C2594 C2593 1.434 1_545 S
C2595 C2596 1.369 . S
C2595 C2597 1.419 1_545 S
C2595 H2599 0.930 . S
C2596 C2595 1.369 . S
C2596 C2605 1.429 . S
C2597 C2595 1.419 1_565 S
C2597 C2598 1.363 . S
C2597 H2600 0.929 . S
C2598 C2597 1.363 . S
C2598 C2604 1.428 . S
H2599 C2595 0.930 . S
H2600 C2597 0.929 . S
S2601 N2602 1.613 1_565 S
S2601 N2603 1.610 . S
N2602 S2601 1.613 1_545 S
N2602 C2605 1.350 . S
N2603 S2601 1.610 . S
N2603 C2604 1.351 . S
C2604 C2598 1.428 . S
C2604 N2603 1.351 . S
C2604 C2605 1.434 1_565 S
C2605 C2596 1.429 . S
C2605 N2602 1.350 . S
C2605 C2604 1.434 1_545 S
C2606 C2607 1.369 . S
C2606 C2608 1.419 1_655 S
C2606 H2610 0.930 . S
C2607 C2606 1.369 . S
C2607 C2616 1.429 . S
C2608 C2606 1.419 1_455 S
C2608 C2609 1.363 . S
C2608 H2611 0.929 . S
C2609 C2608 1.363 . S
C2609 C2615 1.428 . S
H2610 C2606 0.930 . S
H2611 C2608 0.929 . S
S2612 N2613 1.613 . S
S2612 N2614 1.610 1_655 S
N2613 S2612 1.613 . S
N2613 C2616 1.350 . S
N2614 S2612 1.610 1_455 S
N2614 C2615 1.351 . S
C2615 C2609 1.428 . S
C2615 N2614 1.351 . S
C2615 C2616 1.434 1_455 S
C2616 C2607 1.429 . S
C2616 N2613 1.350 . S
C2616 C2615 1.434 1_655 S
C2617 C2618 1.369 . S
C2617 C2619 1.419 . S
C2617 H2621 0.930 . S
C2618 C2617 1.369 . S
C2618 C2627 1.429 . S
C2619 C2617 1.419 . S
C2619 C2620 1.363 . S
C2619 H2622 0.929 . S
C2620 C2619 1.363 . S
C2620 C2626 1.428 . S
H2621 C2617 0.930 . S
H2622 C2619 0.929 . S
S2623 N2624 1.613 . S
S2623 N2625 1.610 . S
N2624 S2623 1.613 . S
N2624 C2627 1.350 . S
N2625 S2623 1.610 . S
N2625 C2626 1.351 . S
C2626 C2620 1.428 . S
C2626 N2625 1.351 . S
C2626 C2627 1.434 . S
C2627 C2618 1.429 . S
C2627 N2624 1.350 . S
C2627 C2626 1.434 . S
C1441 C7 1.887 . S
C1443 C282 1.918 . S
C1452 C322 1.920 . S
C1454 C47 1.882 . S
C1463 C242 1.919 . S
C1465 C87 1.882 . S
C1474 C442 1.919 . S
C1476 C127 1.883 . S
C1485 C167 1.882 . S
C1487 C362 1.919 . S
C1496 C207 1.887 . S
C1498 C402 1.917 . S
C1507 C51 1.921 . S
C1509 C256 1.884 . S
C1518 C296 1.882 . S
C1520 C91 1.918 . S
C1529 C11 1.919 . S
C1531 C336 1.886 . S
C1540 C211 1.920 . S
C1542 C376 1.882 . S
C1551 C416 1.885 . S
C1553 C131 1.917 . S
C1562 C456 1.885 . S
C1564 C171 1.920 . S
C1573 C487 1.882 . S
C1575 C762 1.920 . S
C1584 C802 1.921 . S
C1586 C527 1.883 . S
C1595 C722 1.920 . S
C1597 C567 1.883 . S
C1606 C607 1.884 . S
C1608 C922 1.918 . S
C1617 C842 1.918 . S
C1619 C647 1.884 . S
C1628 C687 1.888 . S
C1630 C882 1.918 . S
C1639 C736 1.882 . S
C1641 C531 1.920 . S
C1650 C571 1.917 . S
C1652 C776 1.885 . S
C1661 C816 1.888 . S
C1663 C491 1.918 . S
C1672 C691 1.920 . S
C1674 C856 1.882 . S
C1683 C611 1.917 . S
C1685 C896 1.886 . S
C1694 C936 1.888 . S
C1696 C651 1.919 . S
C1705 C967 1.882 . S
C1707 C1242 1.919 . S
C1716 C1007 1.883 . S
C1718 C1282 1.920 . S
C1727 C1202 1.919 . S
C1729 C1047 1.886 . S
C1738 C1402 1.917 . S
C1740 C1087 1.886 . S
C1749 C1127 1.886 . S
C1751 C1322 1.919 . S
C1760 C1362 1.921 . S
C1762 C1167 1.883 . S
C1771 C1011 1.917 . S
C1773 C1216 1.885 . S
C1782 C1256 1.888 . S
C1784 C1051 1.919 . S
C1793 C971 1.918 . S
C1795 C1296 1.883 . S
C1804 C1336 1.882 . S
C1806 C1171 1.919 . S
C1815 C1376 1.884 . S
C1817 C1091 1.918 . S
C1826 C1416 1.887 . S
C1828 C1131 1.918 . S
C1837 C2 2.386 . S
C1839 C731 2.382 . S
C1848 C42 2.380 . S
C1850 C771 2.387 . S
C1859 C811 2.387 . S
C1861 C82 2.382 . S
C1870 C1331 2.380 . S
C1872 C122 2.387 . S
C1881 C1371 2.381 . S
C1883 C162 2.386 . S
C1892 C1411 2.384 . S
C1894 C202 2.385 . S
C1903 C251 2.381 . S
C1905 C962 2.387 . S
C1914 C1002 2.381 . S
C1916 C291 2.387 . S
C1925 C331 2.381 . S
C1927 C1042 2.387 . S
C1936 C371 2.380 . S
C1938 C602 2.387 . S
C1947 C411 2.388 . S
C1949 C642 2.381 . S
C1958 C451 2.386 . S
C1960 C682 2.383 . S
C1969 C482 2.387 . S
C1971 C1211 2.382 . S
C1980 C1251 2.380 . S
C1982 C522 2.387 . S
C1991 C562 2.387 . S
C1993 C1291 2.382 . S
C2002 C1082 2.386 . S
C2004 C851 2.382 . S
C2013 C891 2.382 . S
C2015 C1122 2.386 . S
C2024 C1162 2.388 . S
C2026 C931 2.381 . S
C2035 C19 2.323 1_556 S
C2037 C659 2.325 . S
C2046 C59 2.331 1_556 S
C2048 C699 2.324 . S
C2057 C619 2.327 . S
C2059 C99 2.323 1_556 S
C2068 C139 2.331 . S
C2070 C1059 2.325 . S
C2079 C979 2.322 . S
C2081 C179 2.329 . S
C2090 C219 2.325 . S
C2092 C1019 2.330 . S
C2101 C1370 2.331 . S
C2103 C250 2.325 1_554 S
C2112 C290 2.328 1_554 S
C2114 C1410 2.330 . S
C2123 C1330 2.332 . S
C2125 C330 2.325 1_554 S
C2134 C370 2.324 . S
C2136 C810 2.330 . S
C2145 C410 2.326 . S
C2147 C730 2.324 . S
C2156 C450 2.325 . S
C2158 C770 2.323 . S
C2167 C1139 2.324 . S
C2169 C499 2.330 . S
C2178 C539 2.326 . S
C2180 C1179 2.330 . S
C2189 C579 2.329 . S
C2191 C1099 2.330 . S
C2200 C1290 2.327 . S
C2202 C850 2.331 . S
C2211 C1210 2.323 . S
C2213 C890 2.326 . S
C2222 C1250 2.325 . S
C2224 C930 2.330 . S
C2233 C130 2.997 . S
C2235 C10 3.000 . S
C2244 C50 2.995 . S
C2246 C170 3.000 . S
C2255 C90 2.999 . S
C2257 C210 2.997 . S
C2266 C379 3.000 . S
C2268 C259 2.997 . S
C2277 C299 3.000 . S
C2279 C419 2.996 . S
C2288 C459 3.001 . S
C2290 C339 2.997 . S
C2299 C610 3.000 . S
C2301 C490 2.998 . S
C2310 C530 3.001 . S
C2312 C650 2.996 . S
C2321 C570 2.999 . S
C2323 C690 2.997 . S
C2332 C739 2.996 . S
C2334 C859 2.999 . S
C2343 C779 2.996 . S
C2345 C899 3.001 . S
C2354 C819 3.001 . S
C2356 C939 2.996 . S
C2365 C970 3.001 . S
C2367 C1090 2.998 . S
C2376 C1130 2.997 . S
C2378 C1010 3.000 . S
C2387 C1170 3.000 . S
C2389 C1050 2.996 . S
C2398 C1219 2.997 . S
C2400 C1339 2.999 . S
C2409 C1379 3.001 . S
C2411 C1259 2.996 . S
C2420 C1299 3.001 . S
C2422 C1419 2.996 . S
C2431 C16 0.474 . S
C2433 C1176 0.487 . S
C2442 C1096 0.495 . S
C2444 C56 0.491 . S
C2453 C96 0.474 . S
C2455 C1136 0.497 . S
C2464 C536 0.490 . S
C2466 C136 0.494 . S
C2475 C176 0.479 . S
C2477 C576 0.481 . S
C2486 C216 0.477 . S
C2488 C496 0.498 . S
C2497 C927 0.472 . S
C2499 C247 0.493 . S
C2508 C287 0.500 . S
C2510 C847 0.486 . S
C2519 C887 0.501 . S
C2521 C327 0.483 . S
C2530 C367 0.492 . S
C2532 C1247 0.495 . S
C2541 C1287 0.500 . S
C2543 C407 0.478 . S
C2552 C1207 0.494 . S
C2554 C447 0.475 . S
C2563 C616 0.498 . S
C2565 C1016 0.488 . S
C2574 C656 0.472 . S
C2576 C1056 0.491 . S
C2585 C696 0.496 . S
C2587 C976 0.490 . S
C2596 C727 0.482 . S
C2598 C1407 0.478 . S
C2607 C767 0.473 . S
C2609 C1327 0.486 . S
C2618 C1367 0.497 . S
C2620 C807 0.490 . S
