# Generated by pormake.
# Topology mok, (4)-cn, num edge types: 1
# Building blocks:
#     Node 0, Type 0, BuildingBlock: AZAVOO_clean_sbu_0, # of connection points: 4
#     Node 1, Type 0, BuildingBlock: AZAVOO_clean_sbu_0, # of connection points: 4
#     Node 2, Type 0, BuildingBlock: AZAVOO_clean_sbu_0, # of connection points: 4
#     Node 3, Type 0, BuildingBlock: AZAVOO_clean_sbu_0, # of connection points: 4
#     Node 4, Type 0, BuildingBlock: AZAVOO_clean_sbu_0, # of connection points: 4
#     Node 5, Type 0, BuildingBlock: AZAVOO_clean_sbu_0, # of connection points: 4
#     Node 6, Type 0, BuildingBlock: AZAVOO_clean_sbu_0, # of connection points: 4
#     Node 7, Type 0, BuildingBlock: AZAVOO_clean_sbu_0, # of connection points: 4
#     Edge 8, Type (0, 0), BuildingBlock: UKIBIB_clean_linker_0, # of connection points: 2
#     Edge 9, Type (0, 0), BuildingBlock: UKIBIB_clean_linker_0, # of connection points: 2
#     Edge 10, Type (0, 0), BuildingBlock: UKIBIB_clean_linker_0, # of connection points: 2
#     Edge 11, Type (0, 0), BuildingBlock: UKIBIB_clean_linker_0, # of connection points: 2
#     Edge 12, Type (0, 0), BuildingBlock: UKIBIB_clean_linker_0, # of connection points: 2
#     Edge 13, Type (0, 0), BuildingBlock: UKIBIB_clean_linker_0, # of connection points: 2
#     Edge 14, Type (0, 0), BuildingBlock: UKIBIB_clean_linker_0, # of connection points: 2
#     Edge 15, Type (0, 0), BuildingBlock: UKIBIB_clean_linker_0, # of connection points: 2
#     Edge 16, Type (0, 0), BuildingBlock: UKIBIB_clean_linker_0, # of connection points: 2
#     Edge 17, Type (0, 0), BuildingBlock: UKIBIB_clean_linker_0, # of connection points: 2
#     Edge 18, Type (0, 0), BuildingBlock: UKIBIB_clean_linker_0, # of connection points: 2
#     Edge 19, Type (0, 0), BuildingBlock: UKIBIB_clean_linker_0, # of connection points: 2
#     Edge 20, Type (0, 0), BuildingBlock: UKIBIB_clean_linker_0, # of connection points: 2
#     Edge 21, Type (0, 0), BuildingBlock: UKIBIB_clean_linker_0, # of connection points: 2
#     Edge 22, Type (0, 0), BuildingBlock: UKIBIB_clean_linker_0, # of connection points: 2
#     Edge 23, Type (0, 0), BuildingBlock: UKIBIB_clean_linker_0, # of connection points: 2
# Relax obj value: 0.034
# Max RMSD: 0.042
# Mean RMSD: 0.042
data_MOF--net-mok--node1-AZAVOO_clean_sbu_0--edge1-UKIBIB_clean_linker_0
_symmetry_space_group_name_H-M    P1
_symmetry_Int_Tables_number       1
_symmetry_cell_setting            triclinic
loop_
_symmetry_equiv_pos_as_xyz
'x, y, z'
_cell_length_a     59.429782
_cell_length_b     29.369036
_cell_length_c     36.485476
_cell_angle_alpha  89.942973
_cell_angle_beta   90.176092
_cell_angle_gamma 90.121087
loop_
_atom_site_label
_atom_site_type_symbol
_atom_site_fract_x
_atom_site_fract_y
_atom_site_fract_z
_atom_type_partial_charge
Mg0 Mg 0.56661 0.31967 -0.00603 0.0
O1 O 0.60464 0.30338 0.98377 0.0
O2 O 0.61025 0.26445 0.03483 0.0
Mg3 Mg 0.58344 0.25588 0.07682 0.0
C4 C 0.61742 0.28 0.0046 0.0
C5 C 0.56082 0.37679 0.92044 0.0
O6 O 0.54349 0.3992 0.93351 0.0
O7 O 0.55505 0.24758 0.98196 0.0
O8 O 0.56356 0.21418 0.03571 0.0
O9 O 0.57559 0.38204 0.02435 0.0
O10 O 0.56863 0.31654 0.05191 0.0
C11 C 0.55474 0.21358 0.00382 0.0
C12 C 0.57384 0.3589 0.05447 0.0
O13 O 0.56737 0.33991 0.93484 0.0
Mg14 Mg 0.4194 0.65523 -0.00744 0.0
O15 O 0.38212 0.67287 0.98437 0.0
O16 O 0.37691 0.71138 0.03556 0.0
Mg17 Mg 0.40472 0.71716 0.07669 0.0
C18 C 0.36962 0.6961 0.00526 0.0
C19 C 0.4256 0.60225 0.92206 0.0
O20 O 0.4414 0.58518 0.94324 0.0
O21 O 0.43237 0.72691 0.97998 0.0
O22 O 0.4239 0.75679 0.03471 0.0
O23 O 0.41009 0.59322 0.02448 0.0
O24 O 0.42005 0.65744 0.05124 0.0
C25 C 0.43282 0.75961 0.00311 0.0
C26 C 0.41389 0.61574 0.05434 0.0
O27 O 0.41453 0.63606 0.93335 0.0
Mg28 Mg 0.56762 0.65593 0.48084 0.0
O29 O 0.60483 0.67334 0.4887 0.0
O30 O 0.61185 0.71424 0.43888 0.0
Mg31 Mg 0.58406 0.71919 0.39777 0.0
C32 C 0.61799 0.69734 0.46932 0.0
C33 C 0.55903 0.60805 0.55768 0.0
O34 O 0.53819 0.60168 0.54661 0.0
O35 O 0.55617 0.72833 0.49463 0.0
O36 O 0.56465 0.75794 0.43978 0.0
O37 O 0.57633 0.59387 0.44961 0.0
O38 O 0.56815 0.6587 0.42218 0.0
C39 C 0.55574 0.76096 0.47136 0.0
C40 C 0.5736 0.61648 0.41948 0.0
O41 O 0.57231 0.6325 0.53913 0.0
Mg42 Mg 0.42054 0.3194 0.48048 0.0
O43 O 0.38269 0.30308 0.48909 0.0
O44 O 0.37549 0.26538 0.43771 0.0
Mg45 Mg 0.40292 0.25781 0.39688 0.0
C46 C 0.36928 0.28087 0.46849 0.0
C47 C 0.42512 0.3777 0.55231 0.0
O48 O 0.4399 0.40296 0.53481 0.0
O49 O 0.43228 0.2466 0.49495 0.0
O50 O 0.42212 0.22016 0.44028 0.0
O51 O 0.41215 0.38219 0.44954 0.0
O52 O 0.41885 0.31673 0.42209 0.0
C53 C 0.43169 0.21463 0.47118 0.0
C54 C 0.41368 0.35896 0.41956 0.0
O55 O 0.4182 0.34055 0.53893 0.0
Mg56 Mg 0.06698 0.81922 -0.00555 0.0
O57 O 0.1043 0.80089 0.98579 0.0
O58 O 0.11178 0.75914 0.0351 0.0
Mg59 Mg 0.08369 0.75454 0.07621 0.0
C60 C 0.11765 0.77648 0.00466 0.0
C61 C 0.06256 0.87712 0.92237 0.0
O62 O 0.04851 0.90277 0.94087 0.0
O63 O 0.05476 0.74772 0.98182 0.0
O64 O 0.06384 0.7136 0.035 0.0
O65 O 0.07641 0.88105 0.02504 0.0
O66 O 0.06812 0.81572 0.05212 0.0
C67 C 0.05475 0.71337 0.00334 0.0
C68 C 0.07376 0.85789 0.05496 0.0
O69 O 0.06959 0.83991 0.93554 0.0
Mg70 Mg 0.92146 0.15418 -0.00549 0.0
O71 O 0.88382 0.17336 0.98591 0.0
O72 O 0.87462 0.21338 0.03549 0.0
Mg73 Mg 0.9032 0.21793 0.07627 0.0
C74 C 0.86972 0.19653 0.00441 0.0
C75 C 0.92717 0.09812 0.91976 0.0
O76 O 0.94542 0.07755 0.93158 0.0
O77 O 0.93375 0.22566 0.98197 0.0
O78 O 0.923 0.25815 0.03468 0.0
O79 O 0.91164 0.0918 0.02522 0.0
O80 O 0.91928 0.15755 0.05211 0.0
C81 C 0.93282 0.25967 0.0037 0.0
C82 C 0.9135 0.11557 0.05493 0.0
O83 O 0.91981 0.13373 0.93512 0.0
Mg84 Mg 0.06738 0.15531 0.48042 0.0
O85 O 0.10426 0.1742 0.48709 0.0
O86 O 0.11377 0.21392 0.43744 0.0
Mg87 Mg 0.08458 0.21781 0.39748 0.0
C88 C 0.1184 0.197 0.46862 0.0
C89 C 0.06269 0.09955 0.55118 0.0
O90 O 0.04885 0.07727 0.52947 0.0
O91 O 0.05455 0.22681 0.49326 0.0
O92 O 0.06469 0.25707 0.4395 0.0
O93 O 0.07631 0.09254 0.44988 0.0
O94 O 0.06863 0.15751 0.42213 0.0
C95 C 0.05498 0.25991 0.4705 0.0
C96 C 0.07403 0.11533 0.41972 0.0
O97 O 0.07153 0.13619 0.54005 0.0
Mg98 Mg 0.92021 0.81949 0.48022 0.0
O99 O 0.88265 0.80225 0.48907 0.0
O100 O 0.87686 0.76071 0.43942 0.0
Mg101 Mg 0.90434 0.75464 0.39792 0.0
C102 C 0.86993 0.77753 0.46934 0.0
C103 C 0.92883 0.86707 0.55813 0.0
O104 O 0.94939 0.87685 0.54747 0.0
O105 O 0.932 0.74721 0.49309 0.0
O106 O 0.9242 0.71383 0.43903 0.0
O107 O 0.91138 0.88138 0.44846 0.0
O108 O 0.91973 0.81575 0.4221 0.0
C109 C 0.93277 0.71333 0.47107 0.0
C110 C 0.91388 0.85765 0.41892 0.0
O111 O 0.91621 0.84212 0.53873 0.0
C112 C 0.83094 0.17725 0.02054 0.0
C113 C 0.84567 0.19673 -0.0051 0.0
C114 C 0.808 0.18665 0.0194 0.0
C115 C 0.65394 0.29262 0.96857 0.0
C116 C 0.64166 0.27173 -0.00295 0.0
C117 C 0.6774 0.28578 0.9662 0.0
H118 H 0.84806 0.24053 0.94719 0.0
H119 H 0.80715 0.25557 0.94416 0.0
H120 H 0.64464 0.22622 0.0442 0.0
H121 H 0.68455 0.21604 0.04017 0.0
C122 C 0.83693 0.22421 0.96669 0.0
C123 C 0.81373 0.23336 0.96537 0.0
C124 C 0.65326 0.24347 0.02204 0.0
C125 C 0.6763 0.23736 0.01993 0.0
C126 C 0.79931 0.21515 -0.00783 0.0
C127 C 0.7756 0.22551 -0.00783 0.0
C128 C 0.75571 0.23363 -0.00721 0.0
C129 C 0.68854 0.2584 -0.00775 0.0
C130 C 0.7125 0.25099 -0.00877 0.0
C131 C 0.7324 0.24308 -0.00769 0.0
H132 H 0.83744 0.15665 0.04286 0.0
H133 H 0.79713 0.17241 0.04032 0.0
H134 H 0.64566 0.3146 0.94887 0.0
H135 H 0.68684 0.30213 0.94447 0.0
C136 C 0.15618 0.78202 0.02748 0.0
C137 C 0.14196 0.77563 -0.00289 0.0
C138 C 0.17901 0.77308 0.02521 0.0
C139 C 0.33452 0.69477 0.96445 0.0
C140 C 0.3452 0.70115 -0.00133 0.0
C141 C 0.31115 0.70204 0.96131 0.0
H142 H 0.14067 0.75799 0.93933 0.0
H143 H 0.18174 0.74393 0.93492 0.0
H144 H 0.33939 0.71728 0.05621 0.0
H145 H 0.29979 0.7302 0.05012 0.0
C146 C 0.1513 0.7632 0.96316 0.0
C147 C 0.17457 0.75469 0.96078 0.0
C148 C 0.33207 0.71319 0.02919 0.0
C149 C 0.30922 0.72044 0.02598 0.0
C150 C 0.18828 0.75883 -0.00786 0.0
C151 C 0.21192 0.74873 -0.0089 0.0
C152 C 0.23178 0.74073 -0.00824 0.0
C153 C 0.29864 0.71528 -0.00778 0.0
C154 C 0.27488 0.72381 -0.00962 0.0
C155 C 0.25503 0.73163 -0.00862 0.0
H156 H 0.14942 0.79232 0.05376 0.0
H157 H 0.18936 0.77677 0.04955 0.0
H158 H 0.34409 0.68503 0.94047 0.0
H159 H 0.30292 0.69768 0.93499 0.0
C160 C 0.83197 0.7656 0.44469 0.0
C161 C 0.84544 0.77361 0.47584 0.0
C162 C 0.80913 0.75773 0.44765 0.0
C163 C 0.65184 0.70727 0.5112 0.0
C164 C 0.64227 0.69867 0.47656 0.0
C165 C 0.67511 0.71559 0.51393 0.0
H166 H 0.84491 0.78251 0.53503 0.0
H167 H 0.80372 0.76941 0.54008 0.0
H168 H 0.64937 0.68802 0.41883 0.0
H169 H 0.6892 0.70356 0.42373 0.0
C170 C 0.83508 0.77597 0.51052 0.0
C171 C 0.81171 0.7683 0.51342 0.0
C172 C 0.65625 0.69572 0.44569 0.0
C173 C 0.67904 0.70454 0.44835 0.0
C174 C 0.79889 0.75864 0.48183 0.0
C175 C 0.77516 0.74968 0.4835 0.0
C176 C 0.75528 0.74185 0.4827 0.0
C177 C 0.68855 0.71503 0.48222 0.0
C178 C 0.71217 0.72494 0.48358 0.0
C179 C 0.73202 0.73288 0.48272 0.0
H180 H 0.83911 0.76491 0.4174 0.0
H181 H 0.79947 0.75082 0.42301 0.0
H182 H 0.64139 0.70952 0.53543 0.0
H183 H 0.68251 0.72335 0.54039 0.0
C184 C 0.15027 0.2339 0.50129 0.0
C185 C 0.14196 0.19804 0.47977 0.0
C186 C 0.17343 0.24259 0.50236 0.0
C187 C 0.33526 0.23422 0.46085 0.0
C188 C 0.34565 0.27144 0.47842 0.0
C189 C 0.31216 0.22817 0.46204 0.0
H190 H 0.1506 0.14246 0.44361 0.0
H191 H 0.19118 0.15731 0.44589 0.0
H192 H 0.33993 0.3299 0.51359 0.0
H193 H 0.29874 0.3174 0.51738 0.0
C194 C 0.15691 0.16966 0.46093 0.0
C195 C 0.17995 0.17849 0.46181 0.0
C196 C 0.33243 0.30088 0.49984 0.0
C197 C 0.30899 0.29414 0.50157 0.0
C198 C 0.18823 0.21544 0.482 0.0
C199 C 0.21191 0.22558 0.48143 0.0
C200 C 0.23179 0.23346 0.48057 0.0
C201 C 0.29887 0.25819 0.482 0.0
C202 C 0.27492 0.2511 0.4821 0.0
C203 C 0.25504 0.24309 0.48094 0.0
H204 H 0.13885 0.2567 0.5153 0.0
H205 H 0.1797 0.27128 0.51805 0.0
H206 H 0.34497 0.21039 0.44468 0.0
H207 H 0.30467 0.20011 0.44702 0.0
C208 C 0.5781 0.35822 0.12323 0.0
C209 C 0.5742 0.38205 0.09032 0.0
C210 C 0.57739 0.38123 0.15691 0.0
C211 C 0.5687 0.61618 0.35086 0.0
C212 C 0.57425 0.59312 0.38355 0.0
C213 C 0.56777 0.59255 0.31747 0.0
H214 H 0.56494 0.44736 0.06702 0.0
H215 H 0.56364 0.48713 0.1257 0.0
H216 H 0.58246 0.52715 0.40684 0.0
H217 H 0.581 0.48638 0.34856 0.0
C218 C 0.56876 0.42852 0.09182 0.0
C219 C 0.56781 0.45123 0.12535 0.0
C220 C 0.57854 0.54608 0.38214 0.0
C221 C 0.57758 0.52261 0.34887 0.0
C222 C 0.57243 0.42796 0.15802 0.0
C223 C 0.5724 0.45252 0.19239 0.0
C224 C 0.57223 0.47408 0.22064 0.0
C225 C 0.57235 0.54569 0.31634 0.0
C226 C 0.57213 0.5212 0.28191 0.0
C227 C 0.57209 0.49968 0.25363 0.0
H228 H 0.58188 0.32216 0.12296 0.0
H229 H 0.5808 0.36267 0.182 0.0
H230 H 0.56487 0.65223 0.3511 0.0
H231 H 0.56352 0.61084 0.29259 0.0
C232 C 0.42701 0.60886 0.11947 0.0
C233 C 0.41324 0.59324 0.09056 0.0
C234 C 0.42798 0.58486 0.15268 0.0
C235 C 0.40094 0.3654 0.35411 0.0
C236 C 0.41363 0.38187 0.38382 0.0
C237 C 0.40125 0.3887 0.3205 0.0
H238 H 0.38978 0.54073 0.07371 0.0
H239 H 0.39103 0.49956 0.13222 0.0
H240 H 0.43782 0.43257 0.40146 0.0
H241 H 0.43873 0.47262 0.34252 0.0
C242 C 0.40038 0.5536 0.09561 0.0
C243 C 0.40116 0.53 0.12892 0.0
C244 C 0.42741 0.42025 0.3791 0.0
C245 C 0.42803 0.44293 0.34548 0.0
C246 C 0.41497 0.54541 0.1576 0.0
C247 C 0.41545 0.52094 0.19208 0.0
C248 C 0.41545 0.49968 0.22053 0.0
C249 C 0.4147 0.42778 0.31618 0.0
C250 C 0.41473 0.45282 0.28199 0.0
C251 C 0.41507 0.47438 0.2537 0.0
H252 H 0.43745 0.63888 0.11609 0.0
H253 H 0.43887 0.59708 0.17446 0.0
H254 H 0.39047 0.33535 0.35712 0.0
H255 H 0.39096 0.3764 0.29801 0.0
C256 C 0.43796 0.55629 0.8693 0.0
C257 C 0.42102 0.58213 0.88578 0.0
C258 C 0.43444 0.53596 0.83543 0.0
C259 C 0.39864 0.41051 0.59778 0.0
C260 C 0.41915 0.38896 0.58971 0.0
C261 C 0.39591 0.4316 0.63188 0.0
H262 H 0.38659 0.6064 0.8801 0.0
H263 H 0.38043 0.56998 0.81973 0.0
H264 H 0.45126 0.36673 0.61063 0.0
H265 H 0.44673 0.40429 0.66992 0.0
C266 C 0.40009 0.58703 0.86773 0.0
C267 C 0.39651 0.56617 0.83351 0.0
C268 C 0.43567 0.38425 0.61659 0.0
C269 C 0.4331 0.40575 0.65016 0.0
C270 C 0.41387 0.54078 0.81734 0.0
C271 C 0.41138 0.51961 0.78204 0.0
C272 C 0.41168 0.50025 0.75297 0.0
C273 C 0.41363 0.43075 0.65744 0.0
C274 C 0.41244 0.4562 0.69088 0.0
C275 C 0.41232 0.4769 0.71931 0.0
H276 H 0.45417 0.55204 0.88248 0.0
H277 H 0.44796 0.51649 0.82324 0.0
H278 H 0.38556 0.41367 0.57713 0.0
H279 H 0.38057 0.45018 0.63761 0.0
C280 C 0.58461 0.42593 0.88135 0.0
C281 C 0.56963 0.38912 0.88485 0.0
C282 C 0.587 0.44717 0.84731 0.0
C283 C 0.55926 0.53801 0.5947 0.0
C284 C 0.56783 0.58182 0.58875 0.0
C285 C 0.56208 0.51711 0.62855 0.0
H286 H 0.54835 0.34091 0.85665 0.0
H287 H 0.55216 0.37855 0.79705 0.0
H288 H 0.59028 0.63426 0.60962 0.0
H289 H 0.59602 0.59618 0.66934 0.0
C290 C 0.55956 0.36989 0.85399 0.0
C291 C 0.56159 0.39152 0.82027 0.0
C292 C 0.58271 0.60118 0.61448 0.0
C293 C 0.58581 0.57978 0.6485 0.0
C294 C 0.57451 0.43127 0.81721 0.0
C295 C 0.57408 0.45649 0.78358 0.0
C296 C 0.57341 0.47696 0.75504 0.0
C297 C 0.57441 0.53889 0.6561 0.0
C298 C 0.57452 0.51928 0.69216 0.0
C299 C 0.57366 0.50044 0.72141 0.0
H300 H 0.59289 0.44036 0.90521 0.0
H301 H 0.59743 0.47737 0.84497 0.0
H302 H 0.54888 0.52143 0.57418 0.0
H303 H 0.55376 0.48487 0.63373 0.0
C304 C 0.08412 0.92412 0.09424 0.0
C305 C 0.07445 0.88063 0.09098 0.0
C306 C 0.08314 0.94774 0.12743 0.0
C307 C 0.06319 0.04961 0.38096 0.0
C308 C 0.07398 0.09202 0.384 0.0
C309 C 0.06237 0.02687 0.34736 0.0
H310 H 0.05546 0.82826 0.11955 0.0
H311 H 0.05387 0.86992 0.17786 0.0
H312 H 0.09148 0.1452 0.3542 0.0
H313 H 0.0907 0.10433 0.29516 0.0
C314 C 0.06354 0.8613 0.12151 0.0
C315 C 0.06243 0.88519 0.1547 0.0
C316 C 0.0834 0.11216 0.35259 0.0
C317 C 0.08291 0.08893 0.31898 0.0
C318 C 0.07238 0.9284 0.15785 0.0
C319 C 0.07198 0.95278 0.19231 0.0
C320 C 0.07197 0.97414 0.22067 0.0
C321 C 0.07254 0.04599 0.31632 0.0
C322 C 0.07252 0.02109 0.28207 0.0
C323 C 0.07226 -0.00044 0.25377 0.0
H324 H 0.09235 0.94004 0.07105 0.0
H325 H 0.0908 0.98117 0.12932 0.0
H326 H 0.05519 0.03418 0.40458 0.0
H327 H 0.05402 -0.0059 0.34574 0.0
C328 C 0.93424 0.89622 0.36865 0.0
C329 C 0.91387 0.8799 0.383 0.0
C330 C 0.93447 0.92048 0.33562 0.0
C331 C 0.89363 0.07565 0.10592 0.0
C332 C 0.91346 0.09339 0.09091 0.0
C333 C 0.89435 0.05191 0.13925 0.0
H334 H 0.87792 0.87499 0.37471 0.0
H335 H 0.87829 0.91726 0.31626 0.0
H336 H 0.94948 0.10082 0.09806 0.0
H337 H 0.95077 0.05853 0.15625 0.0
C338 C 0.89375 0.88735 0.36385 0.0
C339 C 0.89399 0.91151 0.3307 0.0
C340 C 0.93397 0.08756 0.10954 0.0
C341 C 0.93473 0.06332 0.14255 0.0
C342 C 0.91431 0.9284 0.31654 0.0
C343 C 0.91454 0.95363 0.28242 0.0
C344 C 0.91515 0.9748 0.25394 0.0
C345 C 0.91491 0.04531 0.15757 0.0
C346 C 0.91559 0.02028 0.19178 0.0
C347 C 0.91564 -0.00077 0.22033 0.0
H348 H 0.9499 0.89086 0.38333 0.0
H349 H 0.95032 0.93323 0.32512 0.0
H350 H 0.8777 0.07992 0.09182 0.0
H351 H 0.87888 0.03833 0.15054 0.0
C352 C 0.90746 0.86876 0.61705 0.0
C353 C 0.91901 0.8917 0.58899 0.0
C354 C 0.90456 0.89031 0.65095 0.0
C355 C 0.92397 0.10708 0.85343 0.0
C356 C 0.91732 0.08422 0.88513 0.0
C357 C 0.92205 0.08542 0.81967 0.0
H358 H 0.93164 0.95685 0.57035 0.0
H359 H 0.92695 -0.00581 0.62965 0.0
H360 H 0.89981 0.0255 0.90733 0.0
H361 H 0.89546 -0.01192 0.84731 0.0
C362 C 0.92391 0.93812 0.59263 0.0
C363 C 0.92124 0.95936 0.62634 0.0
C364 C 0.90549 0.04288 0.88278 0.0
C365 C 0.90323 0.02146 0.84882 0.0
C366 C 0.91271 0.93482 0.65608 0.0
C367 C 0.91328 0.95526 0.69183 0.0
C368 C 0.91423 0.97427 0.721 0.0
C369 C 0.91261 0.04173 0.81755 0.0
C370 C 0.91343 0.01721 0.78359 0.0
C371 C 0.91432 -0.00264 0.75481 0.0
H372 H 0.90271 0.8333 0.614 0.0
H373 H 0.89724 0.87151 0.67357 0.0
H374 H 0.93274 0.1394 0.85521 0.0
H375 H 0.92901 0.10172 0.79557 0.0
C376 C 0.08919 0.90613 0.87507 0.0
C377 C 0.06791 0.88878 0.88465 0.0
C378 C 0.09205 0.92739 0.84099 0.0
C379 C 0.04851 0.06405 0.60755 0.0
C380 C 0.06667 0.08306 0.58864 0.0
C381 C 0.05174 0.04318 0.64131 0.0
H382 H 0.03411 0.87463 0.86621 0.0
H383 H 0.03893 0.91233 0.80699 0.0
H384 H 0.1026 0.09721 0.59052 0.0
H385 H 0.10821 0.06066 0.65109 0.0
C386 C 0.05039 0.88879 0.85918 0.0
C387 C 0.05313 0.91038 0.82562 0.0
C388 C 0.08829 0.08273 0.60478 0.0
C389 C 0.09153 0.06163 0.63899 0.0
C390 C 0.07366 0.93092 0.81687 0.0
C391 C 0.07531 0.95601 0.78325 0.0
C392 C 0.07538 0.97639 0.75464 0.0
C393 C 0.07317 0.04138 0.65699 0.0
C394 C 0.07562 0.0189 0.69176 0.0
C395 C 0.07562 -0.00069 0.72075 0.0
H396 H 0.103 0.90583 0.89459 0.0
H397 H 0.10815 0.94255 0.83412 0.0
H398 H 0.03175 0.06463 0.59583 0.0
H399 H 0.03742 0.02805 0.65506 0.0
C400 C 0.4666 0.80389 0.98251 0.0
C401 C 0.44434 0.80263 -0.00463 0.0
C402 C 0.47856 0.8452 0.98276 0.0
C403 C 0.51941 0.17005 0.00782 0.0
C404 C 0.54157 0.17332 -0.00521 0.0
C405 C 0.50838 0.12796 0.00807 0.0
H406 H 0.4173 0.84225 0.01899 0.0
H407 H 0.43802 0.9139 0.01889 0.0
H408 H 0.56984 0.1365 0.9726 0.0
H409 H 0.55026 0.06265 0.97205 0.0
C410 C 0.43428 0.84274 0.00819 0.0
C411 C 0.44614 0.88355 0.0085 0.0
C412 C 0.55248 0.13459 0.98151 0.0
C413 C 0.54145 0.09255 0.98173 0.0
C414 C 0.46829 0.8851 -0.00414 0.0
C415 C 0.47999 0.92816 -0.00386 0.0
C416 C 0.48881 0.96521 -0.00288 0.0
C417 C 0.51948 0.08897 -0.00465 0.0
C418 C 0.50845 0.04521 -0.00361 0.0
C419 C 0.49917 0.00862 -0.0027 0.0
H420 H 0.47494 0.77295 0.97381 0.0
H421 H 0.4958 0.84594 0.97317 0.0
H422 H 0.5111 0.19954 0.0194 0.0
H423 H 0.49145 0.12568 0.01891 0.0
C424 C 0.54089 0.82563 0.50942 0.0
C425 C 0.54131 0.80081 0.47666 0.0
C426 C 0.52968 0.86765 0.51048 0.0
C427 C 0.44665 0.14352 0.44432 0.0
C428 C 0.44464 0.17185 0.4754 0.0
C429 C 0.45843 0.10285 0.44592 0.0
H430 H 0.52899 0.79771 0.42052 0.0
H431 H 0.5097 0.87063 0.42263 0.0
H432 H 0.45494 0.18058 0.53208 0.0
H433 H 0.47579 0.10777 0.53485 0.0
C434 C 0.52928 0.81682 0.44595 0.0
C435 C 0.51824 0.85844 0.44702 0.0
C436 C 0.4557 0.15913 0.50797 0.0
C437 C 0.46763 0.11776 0.5095 0.0
C438 C 0.51873 0.88449 0.47903 0.0
C439 C 0.50818 0.92867 0.47911 0.0
C440 C 0.49922 0.96553 0.47843 0.0
C441 C 0.46868 0.0893 0.47851 0.0
C442 C 0.47979 0.04564 0.47961 0.0
C443 C 0.48878 0.00881 0.47874 0.0
H444 H 0.55 0.81377 0.53334 0.0
H445 H 0.52999 0.88746 0.5355 0.0
H446 H 0.43902 0.15241 0.41829 0.0
H447 H 0.45928 0.08169 0.42162 0.0
C448 C 0.05358 0.63222 -0.01286 0.0
C449 C 0.04197 0.67269 -0.00588 0.0
C450 C 0.04219 0.59063 -0.01224 0.0
C451 C 0.93327 0.34318 0.00234 0.0
C452 C 0.94448 0.30219 -0.00477 0.0
C453 C 0.94502 0.38425 0.00258 0.0
H454 H 0.00987 0.70233 0.00868 0.0
H455 H 0.98965 0.62899 0.00903 0.0
H456 H 0.97675 0.27111 0.98371 0.0
H457 H -0.00254 0.34407 0.98319 0.0
C458 C 0.01882 0.67141 0.00164 0.0
C459 C 0.00742 0.62968 0.00248 0.0
C460 C 0.96767 0.30266 -0.01211 0.0
C461 C 0.9795 0.34404 -0.01177 0.0
C462 C 0.01915 0.5891 -0.00425 0.0
C463 C 0.00775 0.54571 -0.00312 0.0
C464 C -0.00094 0.50851 -0.00253 0.0
C465 C 0.96817 0.38492 -0.00427 0.0
C466 C 0.98002 0.42785 -0.00375 0.0
C467 C 0.98903 0.46475 -0.00294 0.0
H468 H 0.07161 0.63267 0.98274 0.0
H469 H 0.05148 0.55956 0.98277 0.0
H470 H 0.91549 0.3432 0.00893 0.0
H471 H 0.93605 0.41543 0.00861 0.0
C472 C 0.02127 0.30379 0.49214 0.0
C473 C 0.0432 0.30287 0.47774 0.0
C474 C 0.00913 0.34482 0.49243 0.0
C475 C 0.96784 0.66964 0.46524 0.0
C476 C 0.9461 0.67324 0.47996 0.0
C477 C 0.97877 0.62757 0.46464 0.0
H478 H 0.06944 0.34311 0.45213 0.0
H479 H 0.0485 0.41429 0.45345 0.0
H480 H 0.91837 0.63663 0.5044 0.0
H481 H 0.93785 0.5627 0.50442 0.0
C482 C 0.05273 0.34317 0.46398 0.0
C483 C 0.04075 0.38377 0.46445 0.0
C484 C 0.93548 0.63459 0.49433 0.0
C485 C 0.94643 0.59246 0.49374 0.0
C486 C 0.01896 0.38494 0.47865 0.0
C487 C 0.00715 0.4278 0.47883 0.0
C488 C -0.00146 0.465 0.47788 0.0
C489 C 0.96803 0.58874 0.47852 0.0
C490 C 0.9793 0.54527 0.47735 0.0
C491 C 0.98827 0.50842 0.47679 0.0
H492 H 0.0133 0.27279 0.50176 0.0
H493 H 0.99213 0.34519 0.5031 0.0
H494 H 0.9759 0.69889 0.45267 0.0
H495 H -0.00461 0.62517 0.45266 0.0
loop_
_geom_bond_atom_site_label_1
_geom_bond_atom_site_label_2
_geom_bond_distance
_geom_bond_site_symmetry_2
_ccdc_geom_bond_type
Mg0 O1 2.028 1_554 S
Mg0 O7 1.986 1_554 S
Mg0 O9 2.114 . S
Mg0 O10 2.251 . S
Mg0 O13 2.010 1_554 S
O1 Mg0 2.028 1_556 S
O1 C4 1.250 1_556 S
O2 Mg3 2.028 . S
O2 C4 1.248 . S
Mg3 O2 2.028 . S
Mg3 O8 2.032 . S
Mg3 O10 2.079 . S
C4 O1 1.250 1_554 S
C4 O2 1.248 . S
C5 O6 1.264 . S
C5 O13 1.249 . S
O6 C5 1.264 . S
O7 Mg0 1.986 1_556 S
O7 C11 1.246 1_556 S
O8 Mg3 2.032 . S
O8 C11 1.259 . S
O9 Mg0 2.114 . S
O9 C12 1.252 . S
O10 Mg0 2.251 . S
O10 Mg3 2.079 . S
O10 C12 1.273 . S
C11 O7 1.246 1_554 S
C11 O8 1.259 . S
C12 O9 1.252 . S
C12 O10 1.273 . S
O13 Mg0 2.010 1_556 S
O13 C5 1.249 . S
Mg14 O15 2.028 1_554 S
Mg14 O21 1.986 1_554 S
Mg14 O23 2.114 . S
Mg14 O24 2.251 . S
Mg14 O27 2.010 1_554 S
O15 Mg14 2.028 1_556 S
O15 C18 1.250 1_556 S
O16 Mg17 2.028 . S
O16 C18 1.248 . S
Mg17 O16 2.028 . S
Mg17 O22 2.032 . S
Mg17 O24 2.079 . S
C18 O15 1.250 1_554 S
C18 O16 1.248 . S
C19 O20 1.264 . S
C19 O27 1.249 . S
O20 C19 1.264 . S
O21 Mg14 1.986 1_556 S
O21 C25 1.246 1_556 S
O22 Mg17 2.032 . S
O22 C25 1.259 . S
O23 Mg14 2.114 . S
O23 C26 1.252 . S
O24 Mg14 2.251 . S
O24 Mg17 2.079 . S
O24 C26 1.273 . S
C25 O21 1.246 1_554 S
C25 O22 1.259 . S
C26 O23 1.252 . S
C26 O24 1.273 . S
O27 Mg14 2.010 1_556 S
O27 C19 1.249 . S
Mg28 O29 2.028 . S
Mg28 O35 1.986 . S
Mg28 O37 2.114 . S
Mg28 O38 2.251 . S
Mg28 O41 2.010 . S
O29 Mg28 2.028 . S
O29 C32 1.250 . S
O30 Mg31 2.028 . S
O30 C32 1.248 . S
Mg31 O30 2.028 . S
Mg31 O36 2.032 . S
Mg31 O38 2.079 . S
C32 O29 1.250 . S
C32 O30 1.248 . S
C33 O34 1.264 . S
C33 O41 1.249 . S
O34 C33 1.264 . S
O35 Mg28 1.986 . S
O35 C39 1.246 . S
O36 Mg31 2.032 . S
O36 C39 1.259 . S
O37 Mg28 2.114 . S
O37 C40 1.252 . S
O38 Mg28 2.251 . S
O38 Mg31 2.079 . S
O38 C40 1.273 . S
C39 O35 1.246 . S
C39 O36 1.259 . S
C40 O37 1.252 . S
C40 O38 1.273 . S
O41 Mg28 2.010 . S
O41 C33 1.249 . S
Mg42 O43 2.028 . S
Mg42 O49 1.986 . S
Mg42 O51 2.114 . S
Mg42 O52 2.251 . S
Mg42 O55 2.010 . S
O43 Mg42 2.028 . S
O43 C46 1.250 . S
O44 Mg45 2.028 . S
O44 C46 1.248 . S
Mg45 O44 2.028 . S
Mg45 O50 2.032 . S
Mg45 O52 2.079 . S
C46 O43 1.250 . S
C46 O44 1.248 . S
C47 O48 1.264 . S
C47 O55 1.249 . S
O48 C47 1.264 . S
O49 Mg42 1.986 . S
O49 C53 1.246 . S
O50 Mg45 2.032 . S
O50 C53 1.259 . S
O51 Mg42 2.114 . S
O51 C54 1.252 . S
O52 Mg42 2.251 . S
O52 Mg45 2.079 . S
O52 C54 1.273 . S
C53 O49 1.246 . S
C53 O50 1.259 . S
C54 O51 1.252 . S
C54 O52 1.273 . S
O55 Mg42 2.010 . S
O55 C47 1.249 . S
Mg56 O57 2.028 1_554 S
Mg56 O63 1.986 1_554 S
Mg56 O65 2.114 . S
Mg56 O66 2.251 . S
Mg56 O69 2.010 1_554 S
O57 Mg56 2.028 1_556 S
O57 C60 1.250 1_556 S
O58 Mg59 2.028 . S
O58 C60 1.248 . S
Mg59 O58 2.028 . S
Mg59 O64 2.032 . S
Mg59 O66 2.079 . S
C60 O57 1.250 1_554 S
C60 O58 1.248 . S
C61 O62 1.264 . S
C61 O69 1.249 . S
O62 C61 1.264 . S
O63 Mg56 1.986 1_556 S
O63 C67 1.246 1_556 S
O64 Mg59 2.032 . S
O64 C67 1.259 . S
O65 Mg56 2.114 . S
O65 C68 1.252 . S
O66 Mg56 2.251 . S
O66 Mg59 2.079 . S
O66 C68 1.273 . S
C67 O63 1.246 1_554 S
C67 O64 1.259 . S
C68 O65 1.252 . S
C68 O66 1.273 . S
O69 Mg56 2.010 1_556 S
O69 C61 1.249 . S
Mg70 O71 2.028 1_554 S
Mg70 O77 1.986 1_554 S
Mg70 O79 2.114 . S
Mg70 O80 2.251 . S
Mg70 O83 2.010 1_554 S
O71 Mg70 2.028 1_556 S
O71 C74 1.250 1_556 S
O72 Mg73 2.028 . S
O72 C74 1.248 . S
Mg73 O72 2.028 . S
Mg73 O78 2.032 . S
Mg73 O80 2.079 . S
C74 O71 1.250 1_554 S
C74 O72 1.248 . S
C75 O76 1.264 . S
C75 O83 1.249 . S
O76 C75 1.264 . S
O77 Mg70 1.986 1_556 S
O77 C81 1.246 1_556 S
O78 Mg73 2.032 . S
O78 C81 1.259 . S
O79 Mg70 2.114 . S
O79 C82 1.252 . S
O80 Mg70 2.251 . S
O80 Mg73 2.079 . S
O80 C82 1.273 . S
C81 O77 1.246 1_554 S
C81 O78 1.259 . S
C82 O79 1.252 . S
C82 O80 1.273 . S
O83 Mg70 2.010 1_556 S
O83 C75 1.249 . S
Mg84 O85 2.028 . S
Mg84 O91 1.986 . S
Mg84 O93 2.114 . S
Mg84 O94 2.251 . S
Mg84 O97 2.010 . S
O85 Mg84 2.028 . S
O85 C88 1.250 . S
O86 Mg87 2.028 . S
O86 C88 1.248 . S
Mg87 O86 2.028 . S
Mg87 O92 2.032 . S
Mg87 O94 2.079 . S
C88 O85 1.250 . S
C88 O86 1.248 . S
C89 O90 1.264 . S
C89 O97 1.249 . S
O90 C89 1.264 . S
O91 Mg84 1.986 . S
O91 C95 1.246 . S
O92 Mg87 2.032 . S
O92 C95 1.259 . S
O93 Mg84 2.114 . S
O93 C96 1.252 . S
O94 Mg84 2.251 . S
O94 Mg87 2.079 . S
O94 C96 1.273 . S
C95 O91 1.246 . S
C95 O92 1.259 . S
C96 O93 1.252 . S
C96 O94 1.273 . S
O97 Mg84 2.010 . S
O97 C89 1.249 . S
Mg98 O99 2.028 . S
Mg98 O105 1.986 . S
Mg98 O107 2.114 . S
Mg98 O108 2.251 . S
Mg98 O111 2.010 . S
O99 Mg98 2.028 . S
O99 C102 1.250 . S
O100 Mg101 2.028 . S
O100 C102 1.248 . S
Mg101 O100 2.028 . S
Mg101 O106 2.032 . S
Mg101 O108 2.079 . S
C102 O99 1.250 . S
C102 O100 1.248 . S
C103 O104 1.264 . S
C103 O111 1.249 . S
O104 C103 1.264 . S
O105 Mg98 1.986 . S
O105 C109 1.246 . S
O106 Mg101 2.032 . S
O106 C109 1.259 . S
O107 Mg98 2.114 . S
O107 C110 1.252 . S
O108 Mg98 2.251 . S
O108 Mg101 2.079 . S
O108 C110 1.273 . S
C109 O105 1.246 . S
C109 O106 1.259 . S
C110 O107 1.252 . S
C110 O108 1.273 . S
O111 Mg98 2.010 . S
O111 C103 1.249 . S
C112 C113 1.332 . S
C112 C114 1.345 . S
C112 H132 0.932 . S
C113 C112 1.332 . S
C113 C122 1.332 1_554 S
C114 C112 1.345 . S
C114 C126 1.334 . S
C114 H133 0.928 . S
C115 C116 1.332 1_556 S
C115 C117 1.345 . S
C115 H134 0.932 . S
C116 C115 1.332 1_554 S
C116 C124 1.332 . S
C117 C115 1.345 . S
C117 C129 1.334 1_556 S
C117 H135 0.928 . S
H118 C122 0.932 . S
H119 C123 0.928 . S
H120 C124 0.932 . S
H121 C125 0.928 . S
C122 C113 1.332 1_556 S
C122 H118 0.932 . S
C122 C123 1.345 . S
C123 H119 0.928 . S
C123 C122 1.345 . S
C123 C126 1.334 1_556 S
C124 C116 1.332 . S
C124 H120 0.932 . S
C124 C125 1.345 . S
C125 H121 0.928 . S
C125 C124 1.345 . S
C125 C129 1.334 . S
C126 C114 1.334 . S
C126 C123 1.334 1_554 S
C126 C127 1.487 . S
C127 C126 1.487 . S
C127 C128 1.185 . S
C128 C127 1.185 . S
C128 C131 1.482 . S
C129 C117 1.334 1_554 S
C129 C125 1.334 . S
C129 C130 1.487 . S
C130 C129 1.487 . S
C130 C131 1.185 . S
C131 C128 1.482 . S
C131 C130 1.185 . S
H132 C112 0.932 . S
H133 C114 0.928 . S
H134 C115 0.932 . S
H135 C117 0.928 . S
C136 C137 1.332 . S
C136 C138 1.345 . S
C136 H156 0.932 . S
C137 C136 1.332 . S
C137 C146 1.332 1_554 S
C138 C136 1.345 . S
C138 C150 1.334 . S
C138 H157 0.928 . S
C139 C140 1.332 1_556 S
C139 C141 1.345 . S
C139 H158 0.932 . S
C140 C139 1.332 1_554 S
C140 C148 1.332 . S
C141 C139 1.345 . S
C141 C153 1.334 1_556 S
C141 H159 0.928 . S
H142 C146 0.932 . S
H143 C147 0.928 . S
H144 C148 0.932 . S
H145 C149 0.928 . S
C146 C137 1.332 1_556 S
C146 H142 0.932 . S
C146 C147 1.345 . S
C147 H143 0.928 . S
C147 C146 1.345 . S
C147 C150 1.334 1_556 S
C148 C140 1.332 . S
C148 H144 0.932 . S
C148 C149 1.345 . S
C149 H145 0.928 . S
C149 C148 1.345 . S
C149 C153 1.334 . S
C150 C138 1.334 . S
C150 C147 1.334 1_554 S
C150 C151 1.487 . S
C151 C150 1.487 . S
C151 C152 1.185 . S
C152 C151 1.185 . S
C152 C155 1.482 . S
C153 C141 1.334 1_554 S
C153 C149 1.334 . S
C153 C154 1.487 . S
C154 C153 1.487 . S
C154 C155 1.185 . S
C155 C152 1.482 . S
C155 C154 1.185 . S
H156 C136 0.932 . S
H157 C138 0.928 . S
H158 C139 0.932 . S
H159 C141 0.928 . S
C160 C161 1.332 . S
C160 C162 1.345 . S
C160 H180 0.932 . S
C161 C160 1.332 . S
C161 C170 1.332 . S
C162 C160 1.345 . S
C162 C174 1.334 . S
C162 H181 0.928 . S
C163 C164 1.332 . S
C163 C165 1.345 . S
C163 H182 0.932 . S
C164 C163 1.332 . S
C164 C172 1.332 . S
C165 C163 1.345 . S
C165 C177 1.334 . S
C165 H183 0.928 . S
H166 C170 0.932 . S
H167 C171 0.928 . S
H168 C172 0.932 . S
H169 C173 0.928 . S
C170 C161 1.332 . S
C170 H166 0.932 . S
C170 C171 1.345 . S
C171 H167 0.928 . S
C171 C170 1.345 . S
C171 C174 1.334 . S
C172 C164 1.332 . S
C172 H168 0.932 . S
C172 C173 1.345 . S
C173 H169 0.928 . S
C173 C172 1.345 . S
C173 C177 1.334 . S
C174 C162 1.334 . S
C174 C171 1.334 . S
C174 C175 1.487 . S
C175 C174 1.487 . S
C175 C176 1.185 . S
C176 C175 1.185 . S
C176 C179 1.482 . S
C177 C165 1.334 . S
C177 C173 1.334 . S
C177 C178 1.487 . S
C178 C177 1.487 . S
C178 C179 1.185 . S
C179 C176 1.482 . S
C179 C178 1.185 . S
H180 C160 0.932 . S
H181 C162 0.928 . S
H182 C163 0.932 . S
H183 C165 0.928 . S
C184 C185 1.332 . S
C184 C186 1.345 . S
C184 H204 0.932 . S
C185 C184 1.332 . S
C185 C194 1.332 . S
C186 C184 1.345 . S
C186 C198 1.334 . S
C186 H205 0.928 . S
C187 C188 1.332 . S
C187 C189 1.345 . S
C187 H206 0.932 . S
C188 C187 1.332 . S
C188 C196 1.332 . S
C189 C187 1.345 . S
C189 C201 1.334 . S
C189 H207 0.928 . S
H190 C194 0.932 . S
H191 C195 0.928 . S
H192 C196 0.932 . S
H193 C197 0.928 . S
C194 C185 1.332 . S
C194 H190 0.932 . S
C194 C195 1.345 . S
C195 H191 0.928 . S
C195 C194 1.345 . S
C195 C198 1.334 . S
C196 C188 1.332 . S
C196 H192 0.932 . S
C196 C197 1.345 . S
C197 H193 0.928 . S
C197 C196 1.345 . S
C197 C201 1.334 . S
C198 C186 1.334 . S
C198 C195 1.334 . S
C198 C199 1.487 . S
C199 C198 1.487 . S
C199 C200 1.185 . S
C200 C199 1.185 . S
C200 C203 1.482 . S
C201 C189 1.334 . S
C201 C197 1.334 . S
C201 C202 1.487 . S
C202 C201 1.487 . S
C202 C203 1.185 . S
C203 C200 1.482 . S
C203 C202 1.185 . S
H204 C184 0.932 . S
H205 C186 0.928 . S
H206 C187 0.932 . S
H207 C189 0.928 . S
C208 C209 1.332 . S
C208 C210 1.345 . S
C208 H228 0.932 . S
C209 C208 1.332 . S
C209 C218 1.332 . S
C210 C208 1.345 . S
C210 C222 1.334 . S
C210 H229 0.928 . S
C211 C212 1.332 . S
C211 C213 1.345 . S
C211 H230 0.932 . S
C212 C211 1.332 . S
C212 C220 1.332 . S
C213 C211 1.345 . S
C213 C225 1.334 . S
C213 H231 0.928 . S
H214 C218 0.932 . S
H215 C219 0.928 . S
H216 C220 0.932 . S
H217 C221 0.928 . S
C218 C209 1.332 . S
C218 H214 0.932 . S
C218 C219 1.345 . S
C219 H215 0.928 . S
C219 C218 1.345 . S
C219 C222 1.334 . S
C220 C212 1.332 . S
C220 H216 0.932 . S
C220 C221 1.345 . S
C221 H217 0.928 . S
C221 C220 1.345 . S
C221 C225 1.334 . S
C222 C210 1.334 . S
C222 C219 1.334 . S
C222 C223 1.487 . S
C223 C222 1.487 . S
C223 C224 1.185 . S
C224 C223 1.185 . S
C224 C227 1.482 . S
C225 C213 1.334 . S
C225 C221 1.334 . S
C225 C226 1.487 . S
C226 C225 1.487 . S
C226 C227 1.185 . S
C227 C224 1.482 . S
C227 C226 1.185 . S
H228 C208 0.932 . S
H229 C210 0.928 . S
H230 C211 0.932 . S
H231 C213 0.928 . S
C232 C233 1.332 . S
C232 C234 1.345 . S
C232 H252 0.932 . S
C233 C232 1.332 . S
C233 C242 1.332 . S
C234 C232 1.345 . S
C234 C246 1.334 . S
C234 H253 0.928 . S
C235 C236 1.332 . S
C235 C237 1.345 . S
C235 H254 0.932 . S
C236 C235 1.332 . S
C236 C244 1.332 . S
C237 C235 1.345 . S
C237 C249 1.334 . S
C237 H255 0.928 . S
H238 C242 0.932 . S
H239 C243 0.928 . S
H240 C244 0.932 . S
H241 C245 0.928 . S
C242 C233 1.332 . S
C242 H238 0.932 . S
C242 C243 1.345 . S
C243 H239 0.928 . S
C243 C242 1.345 . S
C243 C246 1.334 . S
C244 C236 1.332 . S
C244 H240 0.932 . S
C244 C245 1.345 . S
C245 H241 0.928 . S
C245 C244 1.345 . S
C245 C249 1.334 . S
C246 C234 1.334 . S
C246 C243 1.334 . S
C246 C247 1.487 . S
C247 C246 1.487 . S
C247 C248 1.185 . S
C248 C247 1.185 . S
C248 C251 1.482 . S
C249 C237 1.334 . S
C249 C245 1.334 . S
C249 C250 1.487 . S
C250 C249 1.487 . S
C250 C251 1.185 . S
C251 C248 1.482 . S
C251 C250 1.185 . S
H252 C232 0.932 . S
H253 C234 0.928 . S
H254 C235 0.932 . S
H255 C237 0.928 . S
C256 C257 1.332 . S
C256 C258 1.345 . S
C256 H276 0.932 . S
C257 C256 1.332 . S
C257 C266 1.332 . S
C258 C256 1.345 . S
C258 C270 1.334 . S
C258 H277 0.928 . S
C259 C260 1.332 . S
C259 C261 1.345 . S
C259 H278 0.932 . S
C260 C259 1.332 . S
C260 C268 1.332 . S
C261 C259 1.345 . S
C261 C273 1.334 . S
C261 H279 0.928 . S
H262 C266 0.932 . S
H263 C267 0.928 . S
H264 C268 0.932 . S
H265 C269 0.928 . S
C266 C257 1.332 . S
C266 H262 0.932 . S
C266 C267 1.345 . S
C267 H263 0.928 . S
C267 C266 1.345 . S
C267 C270 1.334 . S
C268 C260 1.332 . S
C268 H264 0.932 . S
C268 C269 1.345 . S
C269 H265 0.928 . S
C269 C268 1.345 . S
C269 C273 1.334 . S
C270 C258 1.334 . S
C270 C267 1.334 . S
C270 C271 1.487 . S
C271 C270 1.487 . S
C271 C272 1.185 . S
C272 C271 1.185 . S
C272 C275 1.482 . S
C273 C261 1.334 . S
C273 C269 1.334 . S
C273 C274 1.487 . S
C274 C273 1.487 . S
C274 C275 1.185 . S
C275 C272 1.482 . S
C275 C274 1.185 . S
H276 C256 0.932 . S
H277 C258 0.928 . S
H278 C259 0.932 . S
H279 C261 0.928 . S
C280 C281 1.332 . S
C280 C282 1.345 . S
C280 H300 0.932 . S
C281 C280 1.332 . S
C281 C290 1.332 . S
C282 C280 1.345 . S
C282 C294 1.334 . S
C282 H301 0.928 . S
C283 C284 1.332 . S
C283 C285 1.345 . S
C283 H302 0.932 . S
C284 C283 1.332 . S
C284 C292 1.332 . S
C285 C283 1.345 . S
C285 C297 1.334 . S
C285 H303 0.928 . S
H286 C290 0.932 . S
H287 C291 0.928 . S
H288 C292 0.932 . S
H289 C293 0.928 . S
C290 C281 1.332 . S
C290 H286 0.932 . S
C290 C291 1.345 . S
C291 H287 0.928 . S
C291 C290 1.345 . S
C291 C294 1.334 . S
C292 C284 1.332 . S
C292 H288 0.932 . S
C292 C293 1.345 . S
C293 H289 0.928 . S
C293 C292 1.345 . S
C293 C297 1.334 . S
C294 C282 1.334 . S
C294 C291 1.334 . S
C294 C295 1.487 . S
C295 C294 1.487 . S
C295 C296 1.185 . S
C296 C295 1.185 . S
C296 C299 1.482 . S
C297 C285 1.334 . S
C297 C293 1.334 . S
C297 C298 1.487 . S
C298 C297 1.487 . S
C298 C299 1.185 . S
C299 C296 1.482 . S
C299 C298 1.185 . S
H300 C280 0.932 . S
H301 C282 0.928 . S
H302 C283 0.932 . S
H303 C285 0.928 . S
C304 C305 1.332 . S
C304 C306 1.345 . S
C304 H324 0.932 . S
C305 C304 1.332 . S
C305 C314 1.332 . S
C306 C304 1.345 . S
C306 C318 1.334 . S
C306 H325 0.928 . S
C307 C308 1.332 . S
C307 C309 1.345 . S
C307 H326 0.932 . S
C308 C307 1.332 . S
C308 C316 1.332 . S
C309 C307 1.345 . S
C309 C321 1.334 . S
C309 H327 0.928 . S
H310 C314 0.932 . S
H311 C315 0.928 . S
H312 C316 0.932 . S
H313 C317 0.928 . S
C314 C305 1.332 . S
C314 H310 0.932 . S
C314 C315 1.345 . S
C315 H311 0.928 . S
C315 C314 1.345 . S
C315 C318 1.334 . S
C316 C308 1.332 . S
C316 H312 0.932 . S
C316 C317 1.345 . S
C317 H313 0.928 . S
C317 C316 1.345 . S
C317 C321 1.334 . S
C318 C306 1.334 . S
C318 C315 1.334 . S
C318 C319 1.487 . S
C319 C318 1.487 . S
C319 C320 1.185 . S
C320 C319 1.185 . S
C320 C323 1.482 1_565 S
C321 C309 1.334 . S
C321 C317 1.334 . S
C321 C322 1.487 . S
C322 C321 1.487 . S
C322 C323 1.185 . S
C323 C320 1.482 1_545 S
C323 C322 1.185 . S
H324 C304 0.932 . S
H325 C306 0.928 . S
H326 C307 0.932 . S
H327 C309 0.928 . S
C328 C329 1.332 . S
C328 C330 1.345 . S
C328 H348 0.932 . S
C329 C328 1.332 . S
C329 C338 1.332 . S
C330 C328 1.345 . S
C330 C342 1.334 . S
C330 H349 0.928 . S
C331 C332 1.332 . S
C331 C333 1.345 . S
C331 H350 0.932 . S
C332 C331 1.332 . S
C332 C340 1.332 . S
C333 C331 1.345 . S
C333 C345 1.334 . S
C333 H351 0.928 . S
H334 C338 0.932 . S
H335 C339 0.928 . S
H336 C340 0.932 . S
H337 C341 0.928 . S
C338 C329 1.332 . S
C338 H334 0.932 . S
C338 C339 1.345 . S
C339 H335 0.928 . S
C339 C338 1.345 . S
C339 C342 1.334 . S
C340 C332 1.332 . S
C340 H336 0.932 . S
C340 C341 1.345 . S
C341 H337 0.928 . S
C341 C340 1.345 . S
C341 C345 1.334 . S
C342 C330 1.334 . S
C342 C339 1.334 . S
C342 C343 1.487 . S
C343 C342 1.487 . S
C343 C344 1.185 . S
C344 C343 1.185 . S
C344 C347 1.482 1_565 S
C345 C333 1.334 . S
C345 C341 1.334 . S
C345 C346 1.487 . S
C346 C345 1.487 . S
C346 C347 1.185 . S
C347 C344 1.482 1_545 S
C347 C346 1.185 . S
H348 C328 0.932 . S
H349 C330 0.928 . S
H350 C331 0.932 . S
H351 C333 0.928 . S
C352 C353 1.332 . S
C352 C354 1.345 . S
C352 H372 0.932 . S
C353 C352 1.332 . S
C353 C362 1.332 . S
C354 C352 1.345 . S
C354 C366 1.334 . S
C354 H373 0.928 . S
C355 C356 1.332 . S
C355 C357 1.345 . S
C355 H374 0.932 . S
C356 C355 1.332 . S
C356 C364 1.332 . S
C357 C355 1.345 . S
C357 C369 1.334 . S
C357 H375 0.928 . S
H358 C362 0.932 . S
H359 C363 0.928 . S
H360 C364 0.932 . S
H361 C365 0.928 . S
C362 C353 1.332 . S
C362 H358 0.932 . S
C362 C363 1.345 . S
C363 H359 0.928 . S
C363 C362 1.345 . S
C363 C366 1.334 . S
C364 C356 1.332 . S
C364 H360 0.932 . S
C364 C365 1.345 . S
C365 H361 0.928 . S
C365 C364 1.345 . S
C365 C369 1.334 . S
C366 C354 1.334 . S
C366 C363 1.334 . S
C366 C367 1.487 . S
C367 C366 1.487 . S
C367 C368 1.185 . S
C368 C367 1.185 . S
C368 C371 1.482 1_565 S
C369 C357 1.334 . S
C369 C365 1.334 . S
C369 C370 1.487 . S
C370 C369 1.487 . S
C370 C371 1.185 . S
C371 C368 1.482 1_545 S
C371 C370 1.185 . S
H372 C352 0.932 . S
H373 C354 0.928 . S
H374 C355 0.932 . S
H375 C357 0.928 . S
C376 C377 1.332 . S
C376 C378 1.345 . S
C376 H396 0.932 . S
C377 C376 1.332 . S
C377 C386 1.332 . S
C378 C376 1.345 . S
C378 C390 1.334 . S
C378 H397 0.928 . S
C379 C380 1.332 . S
C379 C381 1.345 . S
C379 H398 0.932 . S
C380 C379 1.332 . S
C380 C388 1.332 . S
C381 C379 1.345 . S
C381 C393 1.334 . S
C381 H399 0.928 . S
H382 C386 0.932 . S
H383 C387 0.928 . S
H384 C388 0.932 . S
H385 C389 0.928 . S
C386 C377 1.332 . S
C386 H382 0.932 . S
C386 C387 1.345 . S
C387 H383 0.928 . S
C387 C386 1.345 . S
C387 C390 1.334 . S
C388 C380 1.332 . S
C388 H384 0.932 . S
C388 C389 1.345 . S
C389 H385 0.928 . S
C389 C388 1.345 . S
C389 C393 1.334 . S
C390 C378 1.334 . S
C390 C387 1.334 . S
C390 C391 1.487 . S
C391 C390 1.487 . S
C391 C392 1.185 . S
C392 C391 1.185 . S
C392 C395 1.482 1_565 S
C393 C381 1.334 . S
C393 C389 1.334 . S
C393 C394 1.487 . S
C394 C393 1.487 . S
C394 C395 1.185 . S
C395 C392 1.482 1_545 S
C395 C394 1.185 . S
H396 C376 0.932 . S
H397 C378 0.928 . S
H398 C379 0.932 . S
H399 C381 0.928 . S
C400 C401 1.332 1_556 S
C400 C402 1.345 . S
C400 H420 0.932 . S
C401 C400 1.332 1_554 S
C401 C410 1.332 . S
C402 C400 1.345 . S
C402 C414 1.334 1_556 S
C402 H421 0.928 . S
C403 C404 1.332 . S
C403 C405 1.345 . S
C403 H422 0.932 . S
C404 C403 1.332 . S
C404 C412 1.332 1_554 S
C405 C403 1.345 . S
C405 C417 1.334 . S
C405 H423 0.928 . S
H406 C410 0.932 . S
H407 C411 0.928 . S
H408 C412 0.932 . S
H409 C413 0.928 . S
C410 C401 1.332 . S
C410 H406 0.932 . S
C410 C411 1.345 . S
C411 H407 0.928 . S
C411 C410 1.345 . S
C411 C414 1.334 . S
C412 C404 1.332 1_556 S
C412 H408 0.932 . S
C412 C413 1.345 . S
C413 H409 0.928 . S
C413 C412 1.345 . S
C413 C417 1.334 1_556 S
C414 C402 1.334 1_554 S
C414 C411 1.334 . S
C414 C415 1.487 . S
C415 C414 1.487 . S
C415 C416 1.185 . S
C416 C415 1.185 . S
C416 C419 1.482 1_565 S
C417 C405 1.334 . S
C417 C413 1.334 1_554 S
C417 C418 1.487 . S
C418 C417 1.487 . S
C418 C419 1.185 . S
C419 C416 1.482 1_545 S
C419 C418 1.185 . S
H420 C400 0.932 . S
H421 C402 0.928 . S
H422 C403 0.932 . S
H423 C405 0.928 . S
C424 C425 1.332 . S
C424 C426 1.345 . S
C424 H444 0.932 . S
C425 C424 1.332 . S
C425 C434 1.332 . S
C426 C424 1.345 . S
C426 C438 1.334 . S
C426 H445 0.928 . S
C427 C428 1.332 . S
C427 C429 1.345 . S
C427 H446 0.932 . S
C428 C427 1.332 . S
C428 C436 1.332 . S
C429 C427 1.345 . S
C429 C441 1.334 . S
C429 H447 0.928 . S
H430 C434 0.932 . S
H431 C435 0.928 . S
H432 C436 0.932 . S
H433 C437 0.928 . S
C434 C425 1.332 . S
C434 H430 0.932 . S
C434 C435 1.345 . S
C435 H431 0.928 . S
C435 C434 1.345 . S
C435 C438 1.334 . S
C436 C428 1.332 . S
C436 H432 0.932 . S
C436 C437 1.345 . S
C437 H433 0.928 . S
C437 C436 1.345 . S
C437 C441 1.334 . S
C438 C426 1.334 . S
C438 C435 1.334 . S
C438 C439 1.487 . S
C439 C438 1.487 . S
C439 C440 1.185 . S
C440 C439 1.185 . S
C440 C443 1.482 1_565 S
C441 C429 1.334 . S
C441 C437 1.334 . S
C441 C442 1.487 . S
C442 C441 1.487 . S
C442 C443 1.185 . S
C443 C440 1.482 1_545 S
C443 C442 1.185 . S
H444 C424 0.932 . S
H445 C426 0.928 . S
H446 C427 0.932 . S
H447 C429 0.928 . S
C448 C449 1.332 . S
C448 C450 1.345 . S
C448 H468 0.932 1_554 S
C449 C448 1.332 . S
C449 C458 1.332 . S
C450 C448 1.345 . S
C450 C462 1.334 . S
C450 H469 0.928 1_554 S
C451 C452 1.332 . S
C451 C453 1.345 . S
C451 H470 0.932 . S
C452 C451 1.332 . S
C452 C460 1.332 . S
C453 C451 1.345 . S
C453 C465 1.334 . S
C453 H471 0.928 . S
H454 C458 0.932 . S
H455 C459 0.884 1_655 S
H456 C460 0.932 1_556 S
H457 C461 0.884 1_456 S
C458 C449 1.332 . S
C458 H454 0.932 . S
C458 C459 1.345 . S
C459 H455 0.884 1_455 S
C459 C458 1.345 . S
C459 C462 1.334 . S
C460 C452 1.332 . S
C460 H456 0.932 1_554 S
C460 C461 1.345 . S
C461 H457 0.884 1_654 S
C461 C460 1.345 . S
C461 C465 1.334 . S
C462 C450 1.334 . S
C462 C459 1.334 . S
C462 C463 1.487 . S
C463 C462 1.487 . S
C463 C464 1.185 . S
C464 C463 1.185 . S
C464 C467 1.482 1_455 S
C465 C453 1.334 . S
C465 C461 1.334 . S
C465 C466 1.487 . S
C466 C465 1.487 . S
C466 C467 1.185 . S
C467 C464 1.482 1_655 S
C467 C466 1.185 . S
H468 C448 0.932 1_556 S
H469 C450 0.928 1_556 S
H470 C451 0.932 . S
H471 C453 0.928 . S
C472 C473 1.332 . S
C472 C474 1.345 . S
C472 H492 0.932 . S
C473 C472 1.332 . S
C473 C482 1.332 . S
C474 C472 1.345 . S
C474 C486 1.334 . S
C474 H493 0.928 . S
C475 C476 1.332 . S
C475 C477 1.345 . S
C475 H494 0.932 . S
C476 C475 1.332 . S
C476 C484 1.332 . S
C477 C475 1.345 . S
C477 C489 1.334 . S
C477 H495 0.928 . S
H478 C482 0.932 . S
H479 C483 0.928 . S
H480 C484 0.932 . S
H481 C485 0.928 . S
C482 C473 1.332 . S
C482 H478 0.932 . S
C482 C483 1.345 . S
C483 H479 0.928 . S
C483 C482 1.345 . S
C483 C486 1.334 . S
C484 C476 1.332 . S
C484 H480 0.932 . S
C484 C485 1.345 . S
C485 H481 0.928 . S
C485 C484 1.345 . S
C485 C489 1.334 . S
C486 C474 1.334 . S
C486 C483 1.334 . S
C486 C487 1.487 . S
C487 C486 1.487 . S
C487 C488 1.185 . S
C488 C487 1.185 . S
C488 C491 1.482 1_455 S
C489 C477 1.334 . S
C489 C485 1.334 . S
C489 C490 1.487 . S
C490 C489 1.487 . S
C490 C491 1.185 . S
C491 C488 1.482 1_655 S
C491 C490 1.185 . S
H492 C472 0.932 . S
H493 C474 0.928 . S
H494 C475 0.932 . S
H495 C477 0.928 . S
C113 C74 1.483 . S
C116 C4 1.483 . S
C137 C60 1.483 . S
C140 C18 1.483 . S
C161 C102 1.483 . S
C164 C32 1.483 . S
C185 C88 1.483 . S
C188 C46 1.483 . S
C209 C12 1.360 . S
C212 C40 1.360 . S
C233 C26 1.360 . S
C236 C54 1.360 . S
C257 C19 1.213 . S
C260 C47 1.213 . S
C281 C5 1.213 . S
C284 C33 1.213 . S
C305 C68 1.360 . S
C308 C96 1.360 . S
C329 C110 1.360 . S
C332 C82 1.360 . S
C353 C103 1.213 . S
C356 C75 1.213 . S
C377 C61 1.213 . S
C380 C89 1.213 . S
C401 C25 1.512 . S
C404 C11 1.512 . S
C425 C39 1.512 . S
C428 C53 1.512 . S
C449 C67 1.512 . S
C452 C81 1.512 . S
C473 C95 1.512 . S
C476 C109 1.512 . S
