# Generated by pormake.
# Topology umk, (4)-cn, num edge types: 1
# Building blocks:
#     Node 0, Type 0, BuildingBlock: KUFVIS_clean_sbu_0, # of connection points: 4
#     Node 1, Type 0, BuildingBlock: KUFVIS_clean_sbu_0, # of connection points: 4
#     Node 2, Type 0, BuildingBlock: KUFVIS_clean_sbu_0, # of connection points: 4
#     Node 3, Type 0, BuildingBlock: KUFVIS_clean_sbu_0, # of connection points: 4
#     Node 4, Type 0, BuildingBlock: KUFVIS_clean_sbu_0, # of connection points: 4
#     Node 5, Type 0, BuildingBlock: KUFVIS_clean_sbu_0, # of connection points: 4
#     Node 6, Type 0, BuildingBlock: KUFVIS_clean_sbu_0, # of connection points: 4
#     Node 7, Type 0, BuildingBlock: KUFVIS_clean_sbu_0, # of connection points: 4
#     Node 8, Type 0, BuildingBlock: KUFVIS_clean_sbu_0, # of connection points: 4
#     Node 9, Type 0, BuildingBlock: KUFVIS_clean_sbu_0, # of connection points: 4
#     Node 10, Type 0, BuildingBlock: KUFVIS_clean_sbu_0, # of connection points: 4
#     Node 11, Type 0, BuildingBlock: KUFVIS_clean_sbu_0, # of connection points: 4
#     Node 12, Type 0, BuildingBlock: KUFVIS_clean_sbu_0, # of connection points: 4
#     Node 13, Type 0, BuildingBlock: KUFVIS_clean_sbu_0, # of connection points: 4
#     Node 14, Type 0, BuildingBlock: KUFVIS_clean_sbu_0, # of connection points: 4
#     Node 15, Type 0, BuildingBlock: KUFVIS_clean_sbu_0, # of connection points: 4
#     Node 16, Type 0, BuildingBlock: KUFVIS_clean_sbu_0, # of connection points: 4
#     Node 17, Type 0, BuildingBlock: KUFVIS_clean_sbu_0, # of connection points: 4
#     Node 18, Type 0, BuildingBlock: KUFVIS_clean_sbu_0, # of connection points: 4
#     Node 19, Type 0, BuildingBlock: KUFVIS_clean_sbu_0, # of connection points: 4
#     Node 20, Type 0, BuildingBlock: KUFVIS_clean_sbu_0, # of connection points: 4
#     Node 21, Type 0, BuildingBlock: KUFVIS_clean_sbu_0, # of connection points: 4
#     Node 22, Type 0, BuildingBlock: KUFVIS_clean_sbu_0, # of connection points: 4
#     Node 23, Type 0, BuildingBlock: KUFVIS_clean_sbu_0, # of connection points: 4
#     Edge 24, Type (0, 0), BuildingBlock: TEMPAE_clean_linker_10, # of connection points: 2
#     Edge 25, Type (0, 0), BuildingBlock: TEMPAE_clean_linker_10, # of connection points: 2
#     Edge 26, Type (0, 0), BuildingBlock: TEMPAE_clean_linker_10, # of connection points: 2
#     Edge 27, Type (0, 0), BuildingBlock: TEMPAE_clean_linker_10, # of connection points: 2
#     Edge 28, Type (0, 0), BuildingBlock: TEMPAE_clean_linker_10, # of connection points: 2
#     Edge 29, Type (0, 0), BuildingBlock: TEMPAE_clean_linker_10, # of connection points: 2
#     Edge 30, Type (0, 0), BuildingBlock: TEMPAE_clean_linker_10, # of connection points: 2
#     Edge 31, Type (0, 0), BuildingBlock: TEMPAE_clean_linker_10, # of connection points: 2
#     Edge 32, Type (0, 0), BuildingBlock: TEMPAE_clean_linker_10, # of connection points: 2
#     Edge 33, Type (0, 0), BuildingBlock: TEMPAE_clean_linker_10, # of connection points: 2
#     Edge 34, Type (0, 0), BuildingBlock: TEMPAE_clean_linker_10, # of connection points: 2
#     Edge 35, Type (0, 0), BuildingBlock: TEMPAE_clean_linker_10, # of connection points: 2
#     Edge 36, Type (0, 0), BuildingBlock: TEMPAE_clean_linker_10, # of connection points: 2
#     Edge 37, Type (0, 0), BuildingBlock: TEMPAE_clean_linker_10, # of connection points: 2
#     Edge 38, Type (0, 0), BuildingBlock: TEMPAE_clean_linker_10, # of connection points: 2
#     Edge 39, Type (0, 0), BuildingBlock: TEMPAE_clean_linker_10, # of connection points: 2
#     Edge 40, Type (0, 0), BuildingBlock: TEMPAE_clean_linker_10, # of connection points: 2
#     Edge 41, Type (0, 0), BuildingBlock: TEMPAE_clean_linker_10, # of connection points: 2
#     Edge 42, Type (0, 0), BuildingBlock: TEMPAE_clean_linker_10, # of connection points: 2
#     Edge 43, Type (0, 0), BuildingBlock: TEMPAE_clean_linker_10, # of connection points: 2
#     Edge 44, Type (0, 0), BuildingBlock: TEMPAE_clean_linker_10, # of connection points: 2
#     Edge 45, Type (0, 0), BuildingBlock: TEMPAE_clean_linker_10, # of connection points: 2
#     Edge 46, Type (0, 0), BuildingBlock: TEMPAE_clean_linker_10, # of connection points: 2
#     Edge 47, Type (0, 0), BuildingBlock: TEMPAE_clean_linker_10, # of connection points: 2
#     Edge 48, Type (0, 0), BuildingBlock: TEMPAE_clean_linker_10, # of connection points: 2
#     Edge 49, Type (0, 0), BuildingBlock: TEMPAE_clean_linker_10, # of connection points: 2
#     Edge 50, Type (0, 0), BuildingBlock: TEMPAE_clean_linker_10, # of connection points: 2
#     Edge 51, Type (0, 0), BuildingBlock: TEMPAE_clean_linker_10, # of connection points: 2
#     Edge 52, Type (0, 0), BuildingBlock: TEMPAE_clean_linker_10, # of connection points: 2
#     Edge 53, Type (0, 0), BuildingBlock: TEMPAE_clean_linker_10, # of connection points: 2
#     Edge 54, Type (0, 0), BuildingBlock: TEMPAE_clean_linker_10, # of connection points: 2
#     Edge 55, Type (0, 0), BuildingBlock: TEMPAE_clean_linker_10, # of connection points: 2
#     Edge 56, Type (0, 0), BuildingBlock: TEMPAE_clean_linker_10, # of connection points: 2
#     Edge 57, Type (0, 0), BuildingBlock: TEMPAE_clean_linker_10, # of connection points: 2
#     Edge 58, Type (0, 0), BuildingBlock: TEMPAE_clean_linker_10, # of connection points: 2
#     Edge 59, Type (0, 0), BuildingBlock: TEMPAE_clean_linker_10, # of connection points: 2
#     Edge 60, Type (0, 0), BuildingBlock: TEMPAE_clean_linker_10, # of connection points: 2
#     Edge 61, Type (0, 0), BuildingBlock: TEMPAE_clean_linker_10, # of connection points: 2
#     Edge 62, Type (0, 0), BuildingBlock: TEMPAE_clean_linker_10, # of connection points: 2
#     Edge 63, Type (0, 0), BuildingBlock: TEMPAE_clean_linker_10, # of connection points: 2
#     Edge 64, Type (0, 0), BuildingBlock: TEMPAE_clean_linker_10, # of connection points: 2
#     Edge 65, Type (0, 0), BuildingBlock: TEMPAE_clean_linker_10, # of connection points: 2
#     Edge 66, Type (0, 0), BuildingBlock: TEMPAE_clean_linker_10, # of connection points: 2
#     Edge 67, Type (0, 0), BuildingBlock: TEMPAE_clean_linker_10, # of connection points: 2
#     Edge 68, Type (0, 0), BuildingBlock: TEMPAE_clean_linker_10, # of connection points: 2
#     Edge 69, Type (0, 0), BuildingBlock: TEMPAE_clean_linker_10, # of connection points: 2
#     Edge 70, Type (0, 0), BuildingBlock: TEMPAE_clean_linker_10, # of connection points: 2
#     Edge 71, Type (0, 0), BuildingBlock: TEMPAE_clean_linker_10, # of connection points: 2
# Relax obj value: 0.071
# Max RMSD: 0.061
# Mean RMSD: 0.061
data_MOF--net-umk--node1-KUFVIS_clean_sbu_0--edge1-TEMPAE_clean_linker_10
_symmetry_space_group_name_H-M    P1
_symmetry_Int_Tables_number       1
_symmetry_cell_setting            triclinic
loop_
_symmetry_equiv_pos_as_xyz
'x, y, z'
_cell_length_a     67.213064
_cell_length_b     67.232511
_cell_length_c     43.279204
_cell_angle_alpha  89.95091
_cell_angle_beta   90.001405
_cell_angle_gamma 120.00683
loop_
_atom_site_label
_atom_site_type_symbol
_atom_site_fract_x
_atom_site_fract_y
_atom_site_fract_z
_atom_type_partial_charge
Mn0 Mn 0.34914 0.47591 0.07424 0.0
Mn1 Mn 0.39673 0.50509 0.11828 0.0
C2 C 0.38301 0.50508 0.05248 0.0
C3 C 0.31442 0.47132 0.05493 0.0
C4 C 0.38164 0.4578 0.09202 0.0
O5 O 0.336 0.46723 0.11806 0.0
O6 O 0.36891 0.48834 0.144 0.0
C7 C 0.38495 0.53872 0.144 0.0
N8 N 0.40009 0.53412 0.12926 0.0
C9 C 0.42939 0.57398 0.1298 0.0
C10 C 0.41414 0.5792 0.14502 0.0
C11 C 0.39177 0.56151 0.15195 0.0
C12 C 0.42142 0.55106 0.1218 0.0
H13 H 0.36788 0.52509 0.14976 0.0
C14 C 0.34726 0.47446 0.14322 0.0
O15 O 0.31846 0.45434 0.05555 0.0
O16 O 0.33028 0.49072 0.06606 0.0
N17 N 0.42556 0.52242 0.09771 0.0
C18 C 0.43796 0.5145 0.08253 0.0
C19 C 0.46119 0.52963 0.07587 0.0
C20 C 0.47139 0.55273 0.08488 0.0
C21 C 0.45803 0.56076 0.09911 0.0
C22 C 0.43513 0.54475 0.10585 0.0
H23 H 0.43029 0.49671 0.076 0.0
O24 O 0.36689 0.48958 0.03538 0.0
O25 O 0.37868 0.50366 0.08195 0.0
O26 O 0.36349 0.45495 0.07835 0.0
O27 O 0.39495 0.47581 0.1075 0.0
C28 C 0.46664 0.58389 0.10752 0.0
C29 C 0.45222 0.59056 0.12246 0.0
H30 H 0.41943 0.59671 0.15154 0.0
H31 H 0.3799 0.56539 0.1637 0.0
H32 H 0.47131 0.52343 0.06432 0.0
H33 H 0.48952 0.56414 0.08072 0.0
H34 H 0.48427 0.5967 0.10243 0.0
H35 H 0.45894 0.60843 0.1285 0.0
Mn36 Mn 0.86559 0.3355 0.58249 0.0
Mn37 Mn 0.88425 0.38185 0.62873 0.0
C38 C 0.87155 0.37011 0.56195 0.0
C39 C 0.83527 0.30153 0.56227 0.0
C40 C 0.91521 0.3646 0.60389 0.0
O41 O 0.86087 0.32185 0.62627 0.0
O42 O 0.86859 0.35344 0.65348 0.0
C43 C 0.83923 0.37517 0.64896 0.0
N44 N 0.86034 0.38872 0.63623 0.0
C45 C 0.85423 0.42099 0.63378 0.0
C46 C 0.83246 0.40745 0.64707 0.0
C47 C 0.82486 0.38438 0.65446 0.0
C48 C 0.86758 0.41072 0.6283 0.0
H49 H 0.83345 0.35749 0.65487 0.0
C50 C 0.86152 0.33194 0.6516 0.0
O51 O 0.85612 0.30512 0.563 0.0
O52 O 0.8319 0.31733 0.57412 0.0
N53 N 0.89986 0.41096 0.60836 0.0
C54 C 0.92098 0.42141 0.59475 0.0
C55 C 0.93124 0.44461 0.58625 0.0
C56 C 0.91987 0.45693 0.59233 0.0
C57 C 0.89801 0.44575 0.60596 0.0
C58 C 0.88868 0.42263 0.614 0.0
H59 H 0.93012 0.41223 0.59089 0.0
O60 O 0.87019 0.35398 0.54414 0.0
O61 O 0.86841 0.3652 0.59124 0.0
O62 O 0.9005 0.34904 0.58611 0.0
O63 O 0.91039 0.37662 0.62196 0.0
C64 C 0.88523 0.45671 0.61228 0.0
C65 C 0.86323 0.44425 0.62578 0.0
H66 H 0.82142 0.41457 0.65161 0.0
H67 H 0.80805 0.3738 0.66461 0.0
H68 H 0.94806 0.45311 0.5756 0.0
H69 H 0.92814 0.47499 0.58649 0.0
H70 H 0.89208 0.47466 0.60664 0.0
H71 H 0.85341 0.45275 0.63001 0.0
Mn72 Mn 0.53673 0.86653 0.07953 0.0
Mn73 Mn 0.50873 0.8838 0.12759 0.0
C74 C 0.50729 0.87191 0.0604 0.0
C75 C 0.54105 0.837 0.0578 0.0
C76 C 0.55661 0.91589 0.10201 0.0
O77 O 0.54611 0.86127 0.12263 0.0
O78 O 0.52219 0.86818 0.15122 0.0
C79 C 0.47103 0.83828 0.14757 0.0
N80 N 0.47821 0.85957 0.13573 0.0
C81 C 0.4397 0.85327 0.1359 0.0
C82 C 0.4319 0.83137 0.14854 0.0
C83 C 0.44762 0.82377 0.15411 0.0
C84 C 0.46316 0.86678 0.12942 0.0
H85 H 0.4831 0.83246 0.15188 0.0
C86 C 0.53675 0.86134 0.14829 0.0
O87 O 0.55799 0.85801 0.05887 0.0
O88 O 0.52177 0.83303 0.07004 0.0
N89 N 0.49452 0.89917 0.10844 0.0
C90 C 0.50465 0.92015 0.09447 0.0
C91 C 0.49133 0.93022 0.08705 0.0
C92 C 0.46785 0.91879 0.09449 0.0
C93 C 0.45771 0.89704 0.10837 0.0
C94 C 0.47186 0.88791 0.11532 0.0
H95 H 0.52281 0.92931 0.08948 0.0
O96 O 0.52225 0.87137 0.04201 0.0
O97 O 0.50943 0.86847 0.08947 0.0
O98 O 0.55777 0.90145 0.08406 0.0
O99 O 0.53973 0.91043 0.12033 0.0
C100 C 0.43416 0.88413 0.1158 0.0
C101 C 0.42511 0.86215 0.12925 0.0
H102 H 0.41388 0.8202 0.15379 0.0
H103 H 0.44172 0.80682 0.1636 0.0
H104 H 0.49923 0.94694 0.07613 0.0
H105 H 0.45778 0.9269 0.08939 0.0
H106 H 0.42278 0.8908 0.11092 0.0
H107 H 0.4069 0.85219 0.13426 0.0
Mn108 Mn 0.66442 0.53023 0.56618 0.0
Mn109 Mn 0.61695 0.50453 0.61111 0.0
C110 C 0.62929 0.50298 0.54468 0.0
C111 C 0.69812 0.53239 0.54692 0.0
C112 C 0.6374 0.55328 0.58673 0.0
O113 O 0.67756 0.53779 0.61041 0.0
O114 O 0.64483 0.51558 0.63652 0.0
C115 C 0.62043 0.4644 0.6319 0.0
N116 N 0.60804 0.47323 0.61896 0.0
C117 C 0.5739 0.43606 0.61775 0.0
C118 C 0.5862 0.42655 0.63134 0.0
C119 C 0.60963 0.44075 0.63817 0.0
C120 C 0.58572 0.45963 0.61144 0.0
H121 H 0.63838 0.47534 0.63741 0.0
C122 C 0.66664 0.52851 0.63538 0.0
O123 O 0.69546 0.55022 0.54773 0.0
O124 O 0.68139 0.51335 0.55787 0.0
N125 N 0.58822 0.49261 0.59015 0.0
C126 C 0.57916 0.50435 0.57587 0.0
C127 C 0.55583 0.49277 0.56772 0.0
C128 C 0.542 0.46935 0.57481 0.0
C129 C 0.55179 0.4575 0.58897 0.0
C130 C 0.57511 0.46998 0.5966 0.0
H131 H 0.5895 0.52252 0.57135 0.0
O132 O 0.6461 0.51742 0.52736 0.0
O133 O 0.63371 0.5043 0.57409 0.0
O134 O 0.6528 0.55324 0.56956 0.0
O135 O 0.62416 0.53657 0.60426 0.0
C136 C 0.53927 0.4339 0.59624 0.0
C137 C 0.5504 0.42312 0.61021 0.0
H138 H 0.57786 0.40836 0.63649 0.0
H139 H 0.61928 0.43353 0.6485 0.0
H140 H 0.5484 0.50197 0.55661 0.0
H141 H 0.52387 0.46064 0.56921 0.0
H142 H 0.52113 0.42382 0.59096 0.0
H143 H 0.5407 0.40489 0.61511 0.0
Mn144 Mn 0.13957 0.66468 0.08042 0.0
Mn145 Mn 0.12157 0.61697 0.12425 0.0
C146 C 0.13475 0.6308 0.05829 0.0
C147 C 0.16962 0.69946 0.06077 0.0
C148 C 0.08928 0.63273 0.09972 0.0
O149 O 0.14453 0.67761 0.1245 0.0
O150 O 0.13425 0.64482 0.15014 0.0
C151 C 0.16697 0.62689 0.14797 0.0
N152 N 0.14671 0.61239 0.13382 0.0
C153 C 0.1553 0.58169 0.13401 0.0
C154 C 0.17627 0.59627 0.14863 0.0
C155 C 0.18221 0.61903 0.15542 0.0
C156 C 0.1411 0.59067 0.12651 0.0
H157 H 0.17137 0.64426 0.15367 0.0
C158 C 0.14205 0.66648 0.1495 0.0
O159 O 0.14862 0.69544 0.06191 0.0
O160 O 0.17323 0.68357 0.07165 0.0
N161 N 0.10877 0.58824 0.1032 0.0
C162 C 0.08845 0.57681 0.08774 0.0
C163 C 0.0794 0.55352 0.08057 0.0
C164 C 0.09135 0.54226 0.08936 0.0
C165 C 0.1128 0.55466 0.10384 0.0
C166 C 0.12071 0.5777 0.11094 0.0
H167 H 0.0791 0.58533 0.08131 0.0
O168 O 0.13513 0.64692 0.04141 0.0
O169 O 0.13782 0.63508 0.08773 0.0
O170 O 0.10432 0.65049 0.08509 0.0
O171 O 0.09428 0.61968 0.1153 0.0
C172 C 0.12648 0.545 0.11193 0.0
C173 C 0.14787 0.5586 0.12664 0.0
H174 H 0.18794 0.59019 0.15473 0.0
H175 H 0.19836 0.63039 0.1667 0.0
H176 H 0.06308 0.54417 0.06875 0.0
H177 H 0.08394 0.52411 0.08465 0.0
H178 H 0.12084 0.52721 0.10666 0.0
H179 H 0.1584 0.55109 0.13233 0.0
Mn180 Mn 0.47343 0.14246 0.57834 0.0
Mn181 Mn 0.50046 0.12348 0.6255 0.0
C182 C 0.50411 0.13917 0.55987 0.0
C183 C 0.46842 0.17191 0.55742 0.0
C184 C 0.45753 0.09119 0.59107 0.0
O185 O 0.46174 0.14548 0.62064 0.0
O186 O 0.47729 0.12813 0.64748 0.0
C187 C 0.52445 0.16715 0.66054 0.0
N188 N 0.52523 0.15038 0.64381 0.0
C189 C 0.56601 0.16792 0.65159 0.0
C190 C 0.56564 0.18536 0.66887 0.0
C191 C 0.54477 0.18501 0.67326 0.0
C192 C 0.54528 0.15081 0.63897 0.0
H193 H 0.50847 0.16691 0.66428 0.0
C194 C 0.46424 0.1368 0.64543 0.0
O195 O 0.45203 0.15061 0.55696 0.0
O196 O 0.48741 0.17616 0.57079 0.0
N197 N 0.5237 0.11782 0.60959 0.0
C198 C 0.52081 0.09872 0.59471 0.0
C199 C 0.53967 0.09542 0.59066 0.0
C200 C 0.56136 0.11181 0.6019 0.0
C201 C 0.56393 0.13119 0.61749 0.0
C202 C 0.54437 0.13326 0.62153 0.0
H203 H 0.50415 0.08587 0.58654 0.0
O204 O 0.48932 0.13982 0.54132 0.0
O205 O 0.50137 0.1416 0.58926 0.0
O206 O 0.45351 0.1068 0.58095 0.0
O207 O 0.47547 0.09549 0.60656 0.0
C208 C 0.58498 0.14815 0.63003 0.0
C209 C 0.58608 0.16666 0.64677 0.0
H210 H 0.58125 0.19902 0.67903 0.0
H211 H 0.54431 0.19836 0.68665 0.0
H212 H 0.53735 0.08003 0.57946 0.0
H213 H 0.57582 0.10908 0.59921 0.0
H214 H 0.60042 0.14707 0.62705 0.0
H215 H 0.60236 0.1796 0.65631 0.0
Mn216 Mn 0.54125 0.67409 0.92235 0.0
Mn217 Mn 0.51609 0.62827 0.87465 0.0
C218 C 0.51114 0.63947 0.94011 0.0
C219 C 0.54477 0.70783 0.94334 0.0
C220 C 0.5591 0.64039 0.9099 0.0
O221 O 0.55293 0.68927 0.88034 0.0
O222 O 0.53848 0.65669 0.853 0.0
C223 C 0.49068 0.64631 0.8393 0.0
N224 N 0.49068 0.62917 0.85616 0.0
C225 C 0.45006 0.6046 0.84844 0.0
C226 C 0.44962 0.62198 0.83104 0.0
C227 C 0.47002 0.64296 0.82654 0.0
C228 C 0.47109 0.60911 0.86108 0.0
H229 H 0.50629 0.66239 0.83547 0.0
C230 C 0.55087 0.67847 0.85535 0.0
O231 O 0.56166 0.70367 0.94411 0.0
O232 O 0.5261 0.69273 0.92965 0.0
N233 N 0.4937 0.5989 0.89035 0.0
C234 C 0.49748 0.58313 0.90492 0.0
C235 C 0.47924 0.56063 0.90898 0.0
C236 C 0.45729 0.55449 0.89783 0.0
C237 C 0.45383 0.57085 0.88249 0.0
C238 C 0.47279 0.59288 0.87852 0.0
H239 H 0.51443 0.58752 0.91268 0.0
O240 O 0.52539 0.655 0.95902 0.0
O241 O 0.51409 0.64486 0.91082 0.0
O242 O 0.5623 0.65966 0.92019 0.0
O243 O 0.54166 0.62646 0.89387 0.0
C244 C 0.43247 0.56589 0.87 0.0
C245 C 0.43053 0.58286 0.85329 0.0
H246 H 0.43376 0.61935 0.82086 0.0
H247 H 0.46986 0.65644 0.81305 0.0
H248 H 0.48222 0.54793 0.92005 0.0
H249 H 0.44335 0.53699 0.90027 0.0
H250 H 0.41747 0.54904 0.87295 0.0
H251 H 0.41404 0.57885 0.84374 0.0
Mn252 Mn 0.86538 0.52938 0.42755 0.0
Mn253 Mn 0.88589 0.50267 0.38235 0.0
C254 C 0.86996 0.49983 0.44775 0.0
C255 C 0.83465 0.53304 0.44662 0.0
C256 C 0.91701 0.54745 0.41458 0.0
O257 O 0.86215 0.53999 0.38448 0.0
O258 O 0.87864 0.52327 0.35837 0.0
C259 C 0.84182 0.47437 0.34952 0.0
N260 N 0.85979 0.47592 0.36607 0.0
C261 C 0.84541 0.43535 0.36113 0.0
C262 C 0.82677 0.43331 0.34398 0.0
C263 C 0.82491 0.45289 0.3383 0.0
C264 C 0.86146 0.45713 0.37224 0.0
H265 H 0.84042 0.48939 0.34484 0.0
C266 C 0.8698 0.5362 0.35961 0.0
O267 O 0.85564 0.55008 0.44745 0.0
O268 O 0.83148 0.51416 0.43413 0.0
N269 N 0.89406 0.48184 0.40054 0.0
C270 C 0.91362 0.48694 0.41618 0.0
C271 C 0.91897 0.4696 0.42179 0.0
C272 C 0.90411 0.44715 0.41138 0.0
C273 C 0.88405 0.44225 0.39543 0.0
C274 C 0.87993 0.46037 0.38979 0.0
H275 H 0.92523 0.50419 0.42389 0.0
O276 O 0.86847 0.51451 0.46555 0.0
O277 O 0.86764 0.50202 0.4182 0.0
O278 O 0.90091 0.55044 0.42545 0.0
O279 O 0.91327 0.52972 0.39905 0.0
C280 C 0.86829 0.42021 0.38419 0.0
C281 C 0.84882 0.4167 0.36737 0.0
H282 H 0.81384 0.41681 0.33499 0.0
H283 H 0.81059 0.45147 0.32507 0.0
H284 H 0.93468 0.47362 0.43374 0.0
H285 H 0.90849 0.43389 0.41517 0.0
H286 H 0.87098 0.40583 0.38838 0.0
H287 H 0.83676 0.39967 0.35898 0.0
Mn288 Mn 0.33796 0.86292 0.93184 0.0
Mn289 Mn 0.38388 0.87887 0.88527 0.0
C290 C 0.37255 0.86867 0.95272 0.0
C291 C 0.30364 0.83327 0.95314 0.0
C292 C 0.36849 0.91196 0.90799 0.0
O293 O 0.32389 0.85693 0.88829 0.0
O294 O 0.35512 0.86336 0.86123 0.0
C295 C 0.37539 0.83277 0.86729 0.0
N296 N 0.38966 0.85414 0.87874 0.0
C297 C 0.42164 0.84749 0.87929 0.0
C298 C 0.40734 0.82542 0.86735 0.0
C299 C 0.38406 0.81796 0.86158 0.0
C300 C 0.41189 0.86125 0.88516 0.0
H301 H 0.35758 0.82716 0.86247 0.0
C302 C 0.3337 0.85664 0.86314 0.0
O303 O 0.3076 0.85423 0.95147 0.0
O304 O 0.31936 0.82949 0.94201 0.0
N305 N 0.41337 0.89423 0.90456 0.0
C306 C 0.42455 0.91565 0.91721 0.0
C307 C 0.44812 0.92599 0.92356 0.0
C308 C 0.45997 0.9143 0.91655 0.0
C309 C 0.44798 0.89198 0.90449 0.0
C310 C 0.42457 0.88269 0.8983 0.0
H311 H 0.41569 0.92499 0.92181 0.0
O312 O 0.35673 0.86839 0.97017 0.0
O313 O 0.36738 0.86462 0.92359 0.0
O314 O 0.35223 0.89801 0.92575 0.0
O315 O 0.37997 0.9058 0.89093 0.0
C316 C 0.45838 0.87874 0.89788 0.0
C317 C 0.44516 0.8564 0.88564 0.0
H318 H 0.41403 0.81404 0.86261 0.0
H319 H 0.3729 0.80093 0.85244 0.0
H320 H 0.45724 0.94311 0.93323 0.0
H321 H 0.4783 0.92264 0.92061 0.0
H322 H 0.47649 0.88547 0.90242 0.0
H323 H 0.45325 0.84623 0.88114 0.0
Mn324 Mn 0.46454 0.33448 0.42407 0.0
Mn325 Mn 0.48712 0.37974 0.37473 0.0
C326 C 0.49384 0.37032 0.44041 0.0
C327 C 0.46321 0.30173 0.44556 0.0
C328 C 0.44196 0.36325 0.40781 0.0
O329 O 0.45327 0.31874 0.38196 0.0
O330 O 0.46975 0.35045 0.35222 0.0
C331 C 0.52035 0.36941 0.34419 0.0
N332 N 0.51586 0.38431 0.35983 0.0
C333 C 0.55517 0.41459 0.3554 0.0
C334 C 0.56026 0.39959 0.33926 0.0
C335 C 0.54278 0.37687 0.33376 0.0
C336 C 0.53261 0.40605 0.36572 0.0
H337 H 0.50689 0.35203 0.33961 0.0
C338 C 0.45748 0.32873 0.35572 0.0
O339 O 0.44565 0.30482 0.44647 0.0
O340 O 0.48141 0.31738 0.4315 0.0
N341 N 0.50449 0.40966 0.39234 0.0
C342 C 0.49656 0.42204 0.40762 0.0
C343 C 0.51152 0.44543 0.41342 0.0
C344 C 0.53434 0.45593 0.40302 0.0
C345 C 0.54224 0.4428 0.38781 0.0
C346 C 0.52646 0.41963 0.38233 0.0
H347 H 0.47884 0.41423 0.41477 0.0
O348 O 0.48052 0.35483 0.46014 0.0
O349 O 0.49019 0.36429 0.41148 0.0
O350 O 0.44176 0.34665 0.4225 0.0
O351 O 0.45797 0.37657 0.38945 0.0
C352 C 0.565 0.4519 0.37725 0.0
C353 C 0.57153 0.43772 0.3614 0.0
H354 H 0.57749 0.40535 0.33091 0.0
H355 H 0.54655 0.3652 0.32126 0.0
H356 H 0.50535 0.45547 0.42529 0.0
H357 H 0.54558 0.47417 0.40655 0.0
H358 H 0.57762 0.46976 0.38126 0.0
H359 H 0.58911 0.44486 0.3536 0.0
Mn360 Mn 0.14838 0.47321 0.92985 0.0
Mn361 Mn 0.12983 0.49992 0.88144 0.0
C362 C 0.1424 0.50233 0.94867 0.0
C363 C 0.17895 0.46996 0.95048 0.0
C364 C 0.09877 0.45215 0.90804 0.0
O365 O 0.15292 0.46324 0.88675 0.0
O366 O 0.146 0.48707 0.85798 0.0
C367 C 0.17478 0.53827 0.861 0.0
N368 N 0.15349 0.53066 0.87314 0.0
C369 C 0.15884 0.56879 0.873 0.0
C370 C 0.18078 0.57707 0.86027 0.0
C371 C 0.18886 0.56176 0.85448 0.0
C372 C 0.1458 0.5453 0.87956 0.0
H373 H 0.18091 0.52649 0.85632 0.0
C374 C 0.15276 0.47247 0.86102 0.0
O375 O 0.15805 0.45275 0.95052 0.0
O376 O 0.18216 0.48889 0.93796 0.0
N377 N 0.11374 0.51346 0.90033 0.0
C378 C 0.09251 0.5028 0.91362 0.0
C379 C 0.08173 0.51555 0.92041 0.0
C380 C 0.09272 0.53902 0.913 0.0
C381 C 0.11474 0.54973 0.89988 0.0
C382 C 0.12456 0.53611 0.89347 0.0
H383 H 0.08364 0.48462 0.91845 0.0
O384 O 0.14392 0.48803 0.96729 0.0
O385 O 0.14549 0.4999 0.91958 0.0
O386 O 0.11339 0.45172 0.9265 0.0
O387 O 0.10385 0.46856 0.88899 0.0
C388 C 0.12722 0.57331 0.8925 0.0
C389 C 0.14937 0.58289 0.87945 0.0
H390 H 0.19159 0.59514 0.85495 0.0
H391 H 0.20581 0.56802 0.84478 0.0
H392 H 0.06479 0.50722 0.93073 0.0
H393 H 0.08404 0.54862 0.91746 0.0
H394 H 0.12003 0.58428 0.89701 0.0
H395 H 0.15895 0.60111 0.87438 0.0
Mn396 Mn 0.66873 0.14208 0.42713 0.0
Mn397 Mn 0.62224 0.12451 0.38125 0.0
C398 C 0.63424 0.13632 0.44806 0.0
C399 C 0.70286 0.17172 0.4481 0.0
C400 C 0.63845 0.09247 0.40544 0.0
O401 O 0.68255 0.14764 0.38345 0.0
O402 O 0.6507 0.13918 0.35645 0.0
C403 C 0.63077 0.17013 0.36067 0.0
N404 N 0.61659 0.1492 0.37347 0.0
C405 C 0.5852 0.15672 0.37529 0.0
C406 C 0.5994 0.17834 0.36199 0.0
C407 C 0.62235 0.18515 0.35487 0.0
C408 C 0.5947 0.14272 0.38113 0.0
H409 H 0.64832 0.17528 0.35488 0.0
C410 C 0.67228 0.14659 0.35813 0.0
O411 O 0.69899 0.15079 0.44652 0.0
O412 O 0.68723 0.17556 0.43675 0.0
N413 N 0.59305 0.10986 0.4014 0.0
C414 C 0.58183 0.08867 0.41479 0.0
C415 C 0.55853 0.07899 0.42251 0.0
C416 C 0.54694 0.09101 0.41597 0.0
C417 C 0.55895 0.113 0.40282 0.0
C418 C 0.58209 0.12168 0.39538 0.0
H419 H 0.59044 0.07902 0.41896 0.0
O420 O 0.65019 0.13692 0.46556 0.0
O421 O 0.63918 0.13994 0.41881 0.0
O422 O 0.65494 0.10717 0.42212 0.0
O423 O 0.62616 0.09766 0.38843 0.0
C424 C 0.54878 0.12649 0.39631 0.0
C425 C 0.56198 0.14846 0.38293 0.0
H426 H 0.5929 0.18987 0.35719 0.0
H427 H 0.63344 0.20183 0.34467 0.0
H428 H 0.54939 0.06208 0.43287 0.0
H429 H 0.52879 0.08315 0.42109 0.0
H430 H 0.53088 0.12021 0.4017 0.0
H431 H 0.55408 0.15881 0.37848 0.0
Mn432 Mn 0.67223 0.53336 0.92197 0.0
Mn433 Mn 0.62611 0.50766 0.87453 0.0
C434 C 0.6369 0.50495 0.9411 0.0
C435 C 0.70535 0.53574 0.9434 0.0
C436 C 0.64298 0.55475 0.90228 0.0
O437 O 0.68701 0.54249 0.879 0.0
O438 O 0.65485 0.52381 0.85041 0.0
C439 C 0.63591 0.47277 0.84845 0.0
N440 N 0.62128 0.47816 0.86303 0.0
C441 C 0.59079 0.43879 0.86213 0.0
C442 C 0.60551 0.43276 0.84709 0.0
C443 C 0.62821 0.44982 0.84037 0.0
C444 C 0.59958 0.46186 0.87012 0.0
H445 H 0.65327 0.4859 0.84293 0.0
C446 C 0.67657 0.53669 0.8531 0.0
O447 O 0.70269 0.55355 0.94205 0.0
O448 O 0.68916 0.51675 0.93174 0.0
N449 N 0.59661 0.49136 0.89368 0.0
C450 C 0.58469 0.50013 0.90818 0.0
C451 C 0.56141 0.48558 0.91527 0.0
C452 C 0.55058 0.4623 0.90697 0.0
C453 C 0.5633 0.45356 0.89259 0.0
C454 C 0.58636 0.46894 0.88577 0.0
H455 H 0.59275 0.51818 0.91371 0.0
O456 O 0.65274 0.51949 0.95947 0.0
O457 O 0.64231 0.50697 0.91192 0.0
O458 O 0.65982 0.55587 0.91756 0.0
O459 O 0.62955 0.53757 0.88558 0.0
C460 C 0.5539 0.43031 0.88423 0.0
C461 C 0.56772 0.42288 0.86934 0.0
H462 H 0.59956 0.41512 0.84055 0.0
H463 H 0.63966 0.44531 0.82875 0.0
H464 H 0.5517 0.49239 0.92652 0.0
H465 H 0.53243 0.45133 0.91155 0.0
H466 H 0.53611 0.41799 0.88927 0.0
H467 H 0.56038 0.40493 0.86332 0.0
Mn468 Mn 0.13689 0.67352 0.43297 0.0
Mn469 Mn 0.11612 0.62955 0.38189 0.0
C470 C 0.1311 0.63784 0.44833 0.0
C471 C 0.16808 0.70635 0.45438 0.0
C472 C 0.08623 0.64512 0.41425 0.0
O473 O 0.14081 0.68967 0.3913 0.0
O474 O 0.12943 0.65917 0.35982 0.0
C475 C 0.16031 0.63912 0.35422 0.0
N476 N 0.14033 0.62443 0.36888 0.0
C477 C 0.14871 0.59365 0.36606 0.0
C478 C 0.16941 0.60844 0.35095 0.0
C479 C 0.17528 0.63131 0.34513 0.0
C480 C 0.13469 0.60253 0.37503 0.0
H481 H 0.16472 0.65663 0.34943 0.0
C482 C 0.13738 0.68058 0.36453 0.0
O483 O 0.14729 0.70287 0.45598 0.0
O484 O 0.17082 0.69101 0.43986 0.0
N485 N 0.10238 0.59945 0.39934 0.0
C486 C 0.08166 0.58739 0.4138 0.0
C487 C 0.07281 0.564 0.42024 0.0
C488 C 0.08514 0.55317 0.41125 0.0
C489 C 0.10651 0.56596 0.39664 0.0
C490 C 0.11437 0.58917 0.39063 0.0
H491 H 0.0718 0.59546 0.41997 0.0
O492 O 0.13307 0.65294 0.46854 0.0
O493 O 0.13345 0.64431 0.41957 0.0
O494 O 0.10178 0.6604 0.43155 0.0
O495 O 0.09003 0.63334 0.39443 0.0
C496 C 0.12013 0.55651 0.38732 0.0
C497 C 0.14134 0.57041 0.37236 0.0
H498 H 0.1809 0.60241 0.34365 0.0
H499 H 0.1912 0.64282 0.33343 0.0
H500 H 0.05633 0.55423 0.43157 0.0
H501 H 0.07789 0.53497 0.41539 0.0
H502 H 0.11449 0.53859 0.39159 0.0
H503 H 0.15176 0.56301 0.36557 0.0
Mn504 Mn 0.47678 0.1335 0.93184 0.0
Mn505 Mn 0.50214 0.11156 0.88659 0.0
C506 C 0.50493 0.12666 0.95251 0.0
C507 C 0.47489 0.16518 0.95091 0.0
C508 C 0.45417 0.08291 0.91346 0.0
O509 O 0.46791 0.13802 0.88795 0.0
O510 O 0.48917 0.1267 0.86112 0.0
C511 C 0.54041 0.15542 0.8629 0.0
N512 N 0.53283 0.13467 0.87675 0.0
C513 C 0.57091 0.13984 0.87721 0.0
C514 C 0.57912 0.16117 0.8626 0.0
C515 C 0.56383 0.16909 0.85568 0.0
C516 C 0.54749 0.12721 0.88435 0.0
H517 H 0.52867 0.16148 0.85747 0.0
C518 C 0.47611 0.13542 0.8626 0.0
O519 O 0.45709 0.14465 0.95103 0.0
O520 O 0.49363 0.16744 0.939 0.0
N521 N 0.51583 0.09634 0.90747 0.0
C522 C 0.50529 0.07586 0.92271 0.0
C523 C 0.51807 0.0654 0.93112 0.0
C524 C 0.54144 0.07591 0.9233 0.0
C525 C 0.55204 0.09718 0.90808 0.0
C526 C 0.5384 0.10671 0.90018 0.0
H527 H 0.48717 0.06732 0.92783 0.0
O528 O 0.49065 0.12893 0.97026 0.0
O529 O 0.50286 0.12915 0.9231 0.0
O530 O 0.45399 0.09871 0.92957 0.0
O531 O 0.47079 0.08615 0.89588 0.0
C532 C 0.57552 0.10916 0.90005 0.0
C533 C 0.58502 0.13063 0.88502 0.0
H534 H 0.59714 0.17166 0.85676 0.0
H535 H 0.57006 0.1856 0.84461 0.0
H536 H 0.50982 0.04905 0.94303 0.0
H537 H 0.55108 0.06747 0.92912 0.0
H538 H 0.58649 0.10213 0.90558 0.0
H539 H 0.60317 0.13988 0.87952 0.0
Mn540 Mn 0.33084 0.47175 0.42623 0.0
Mn541 Mn 0.37524 0.49981 0.37674 0.0
C542 C 0.36575 0.50159 0.44436 0.0
C543 C 0.29701 0.46755 0.44809 0.0
C544 C 0.36079 0.45247 0.40326 0.0
O545 O 0.31563 0.46149 0.38371 0.0
O546 O 0.34578 0.48539 0.35403 0.0
C547 C 0.36591 0.53638 0.35617 0.0
N548 N 0.38057 0.52994 0.36812 0.0
C549 C 0.41208 0.56882 0.36686 0.0
C550 C 0.39736 0.5759 0.35439 0.0
C551 C 0.37413 0.55962 0.34925 0.0
C552 C 0.40279 0.54551 0.37384 0.0
H553 H 0.34813 0.52385 0.3519 0.0
C554 C 0.32456 0.47049 0.35771 0.0
O555 O 0.3012 0.45068 0.44769 0.0
O556 O 0.31222 0.48664 0.43539 0.0
N557 N 0.40521 0.51488 0.39473 0.0
C558 C 0.41689 0.50532 0.40786 0.0
C559 C 0.44047 0.51909 0.41376 0.0
C560 C 0.45183 0.54246 0.40578 0.0
C561 C 0.43936 0.55208 0.39307 0.0
C562 C 0.41595 0.53745 0.38741 0.0
H563 H 0.4084 0.48725 0.41327 0.0
O564 O 0.3505 0.48683 0.4632 0.0
O565 O 0.35979 0.49913 0.41541 0.0
O566 O 0.34518 0.45102 0.42158 0.0
O567 O 0.37169 0.46927 0.38462 0.0
C568 C 0.44928 0.57552 0.3854 0.0
C569 C 0.43558 0.58394 0.37264 0.0
H570 H 0.40368 0.59377 0.34876 0.0
H571 H 0.36264 0.56495 0.3397 0.0
H572 H 0.44997 0.51163 0.42388 0.0
H573 H 0.47017 0.55285 0.40952 0.0
H574 H 0.46736 0.58727 0.3895 0.0
H575 H 0.44332 0.60205 0.36729 0.0
Mn576 Mn 0.87695 0.33938 0.93316 0.0
Mn577 Mn 0.89862 0.38467 0.88407 0.0
C578 C 0.88229 0.37476 0.9495 0.0
C579 C 0.84585 0.30602 0.95427 0.0
C580 C 0.9287 0.37121 0.91934 0.0
O581 O 0.87307 0.32358 0.89147 0.0
O582 O 0.89051 0.3556 0.86273 0.0
C583 C 0.85497 0.36884 0.85006 0.0
N584 N 0.87302 0.3855 0.86622 0.0
C585 C 0.85965 0.41225 0.85799 0.0
C586 C 0.84093 0.39539 0.84127 0.0
C587 C 0.83853 0.37356 0.83741 0.0
C588 C 0.87522 0.40639 0.87059 0.0
H589 H 0.85316 0.3521 0.84672 0.0
C590 C 0.88092 0.33384 0.86582 0.0
O591 O 0.86674 0.30974 0.95567 0.0
O592 O 0.84299 0.32149 0.94029 0.0
N593 N 0.90755 0.41455 0.89973 0.0
C594 C 0.92732 0.4293 0.91478 0.0
C595 C 0.9332 0.45231 0.91859 0.0
C596 C 0.91889 0.46004 0.90648 0.0
C597 C 0.8986 0.44461 0.89121 0.0
C598 C 0.89382 0.42195 0.88765 0.0
H599 H 0.93877 0.42367 0.92316 0.0
O600 O 0.88067 0.35946 0.96916 0.0
O601 O 0.87992 0.36879 0.9205 0.0
O602 O 0.91232 0.35277 0.93117 0.0
O603 O 0.92559 0.38498 0.90236 0.0
C604 C 0.88328 0.45099 0.87856 0.0
C605 C 0.86365 0.43473 0.86228 0.0
H606 H 0.82836 0.39906 0.83116 0.0
H607 H 0.82417 0.36046 0.82446 0.0
H608 H 0.94899 0.46419 0.93025 0.0
H609 H 0.92393 0.478 0.9084 0.0
H610 H 0.88646 0.46836 0.88117 0.0
H611 H 0.85196 0.43981 0.85273 0.0
Mn612 Mn 0.53575 0.87126 0.4338 0.0
Mn613 Mn 0.51031 0.8939 0.38965 0.0
C614 C 0.5068 0.87689 0.45458 0.0
C615 C 0.53843 0.83968 0.45184 0.0
C616 C 0.55669 0.92278 0.41975 0.0
O617 O 0.54571 0.86807 0.39009 0.0
O618 O 0.52729 0.88302 0.36423 0.0
C619 C 0.47656 0.85028 0.3598 0.0
N620 N 0.48131 0.86956 0.37587 0.0
C621 C 0.44191 0.86048 0.37324 0.0
C622 C 0.43655 0.8405 0.35664 0.0
C623 C 0.45393 0.8353 0.35009 0.0
C624 C 0.46463 0.87439 0.38301 0.0
H625 H 0.48997 0.84644 0.35435 0.0
C626 C 0.54027 0.87421 0.36504 0.0
O627 O 0.55582 0.86043 0.45274 0.0
O628 O 0.5196 0.83716 0.43986 0.0
N629 N 0.49313 0.90571 0.4098 0.0
C630 C 0.50137 0.92601 0.42515 0.0
C631 C 0.48671 0.93474 0.43128 0.0
C632 C 0.4638 0.92265 0.42125 0.0
C633 C 0.45548 0.90149 0.40628 0.0
C634 C 0.47104 0.8939 0.40022 0.0
H635 H 0.5192 0.93587 0.43174 0.0
O636 O 0.52112 0.8746 0.47221 0.0
O637 O 0.50918 0.87506 0.42505 0.0
O638 O 0.55807 0.90636 0.43255 0.0
O639 O 0.53968 0.92002 0.40345 0.0
C640 C 0.43257 0.88799 0.39625 0.0
C641 C 0.4257 0.8673 0.38016 0.0
H642 H 0.41918 0.82908 0.34873 0.0
H643 H 0.44994 0.81993 0.33727 0.0
H644 H 0.49319 0.95104 0.44301 0.0
H645 H 0.4528 0.92991 0.42496 0.0
H646 H 0.4201 0.89333 0.40084 0.0
H647 H 0.40801 0.85696 0.37277 0.0
Mn648 Mn 0.47895 0.33537 0.07198 0.0
Mn649 Mn 0.50463 0.38221 0.11779 0.0
C650 C 0.50688 0.37039 0.05121 0.0
C651 C 0.47659 0.30163 0.05282 0.0
C652 C 0.4563 0.36269 0.09225 0.0
O653 O 0.47011 0.32201 0.11599 0.0
O654 O 0.49302 0.35408 0.14292 0.0
C655 C 0.54431 0.37827 0.13937 0.0
N656 N 0.5358 0.39081 0.126 0.0
C657 C 0.57324 0.4246 0.12459 0.0
C658 C 0.58244 0.41211 0.13847 0.0
C659 C 0.56793 0.38879 0.14567 0.0
C660 C 0.54967 0.41306 0.1183 0.0
H661 H 0.53312 0.36043 0.14526 0.0
C662 C 0.47922 0.33243 0.14129 0.0
O663 O 0.45894 0.30459 0.05296 0.0
O664 O 0.4955 0.318 0.06453 0.0
N665 N 0.51692 0.41109 0.09706 0.0
C666 C 0.50542 0.4204 0.08273 0.0
C667 C 0.51733 0.44368 0.07434 0.0
C668 C 0.54081 0.45721 0.08122 0.0
C669 C 0.55238 0.44717 0.09549 0.0
C670 C 0.53959 0.42391 0.1034 0.0
H671 H 0.48721 0.41029 0.07829 0.0
O672 O 0.49267 0.35377 0.03351 0.0
O673 O 0.50505 0.36575 0.08061 0.0
O674 O 0.45647 0.34766 0.07447 0.0
O675 O 0.47271 0.37526 0.11059 0.0
C676 C 0.57601 0.45937 0.10259 0.0
C677 C 0.5865 0.44802 0.11675 0.0
H678 H 0.60062 0.42023 0.14364 0.0
H679 H 0.57491 0.37902 0.15633 0.0
H680 H 0.50832 0.4513 0.06318 0.0
H681 H 0.54977 0.4753 0.07544 0.0
H682 H 0.58635 0.47745 0.09704 0.0
H683 H 0.60475 0.45749 0.12159 0.0
Mn684 Mn 0.136 0.47567 0.57699 0.0
Mn685 Mn 0.11842 0.50529 0.62142 0.0
C686 C 0.13176 0.50507 0.55526 0.0
C687 C 0.16523 0.46998 0.557 0.0
C688 C 0.08526 0.45956 0.59306 0.0
O689 O 0.14056 0.46658 0.62034 0.0
O690 O 0.12576 0.48501 0.64609 0.0
C691 C 0.16388 0.53362 0.65099 0.0
N692 N 0.14551 0.5321 0.63553 0.0
C693 C 0.16081 0.57289 0.63911 0.0
C694 C 0.17985 0.57491 0.65518 0.0
C695 C 0.18146 0.55519 0.66096 0.0
C696 C 0.14409 0.551 0.62918 0.0
H697 H 0.16509 0.51851 0.65577 0.0
C698 C 0.1341 0.47163 0.64531 0.0
O699 O 0.14402 0.4534 0.55802 0.0
O700 O 0.16948 0.48963 0.56808 0.0
N701 N 0.11051 0.52618 0.60276 0.0
C702 C 0.09067 0.52119 0.58797 0.0
C703 C 0.08564 0.53874 0.5823 0.0
C704 C 0.10115 0.56133 0.5916 0.0
C705 C 0.12147 0.56611 0.60674 0.0
C706 C 0.12525 0.54779 0.61255 0.0
H707 H 0.0786 0.50389 0.58109 0.0
O708 O 0.1319 0.48924 0.53837 0.0
O709 O 0.1351 0.50401 0.58481 0.0
O710 O 0.10061 0.45553 0.58198 0.0
O711 O 0.08994 0.47817 0.60705 0.0
C712 C 0.13785 0.58826 0.61696 0.0
C713 C 0.15766 0.59169 0.6328 0.0
H714 H 0.19331 0.59148 0.66321 0.0
H715 H 0.19611 0.55659 0.67331 0.0
H716 H 0.06967 0.5348 0.57114 0.0
H717 H 0.09713 0.57481 0.58753 0.0
H718 H 0.13542 0.60277 0.61264 0.0
H719 H 0.17024 0.60882 0.64032 0.0
Mn720 Mn 0.67648 0.13753 0.07526 0.0
Mn721 Mn 0.63083 0.11515 0.12401 0.0
C722 C 0.64078 0.13106 0.05819 0.0
C723 C 0.70966 0.1691 0.05461 0.0
C724 C 0.64656 0.08601 0.09077 0.0
O725 O 0.69197 0.14174 0.11741 0.0
O726 O 0.65998 0.12592 0.14649 0.0
C727 C 0.64286 0.15899 0.15507 0.0
N728 N 0.6274 0.13989 0.1394 0.0
C729 C 0.59805 0.15014 0.14483 0.0
C730 C 0.61365 0.16996 0.16098 0.0
C731 C 0.63619 0.17445 0.16599 0.0
C732 C 0.60585 0.13565 0.13391 0.0
H733 H 0.6601 0.16234 0.1593 0.0
C734 C 0.68172 0.13533 0.14336 0.0
O735 O 0.70643 0.1484 0.0534 0.0
O736 O 0.69379 0.17154 0.06818 0.0
N737 N 0.60087 0.10355 0.10688 0.0
C738 C 0.58766 0.08308 0.09235 0.0
C739 C 0.5642 0.07505 0.08779 0.0
C740 C 0.55449 0.08798 0.09862 0.0
C741 C 0.56844 0.10918 0.11299 0.0
C742 C 0.59162 0.11609 0.11741 0.0
H743 H 0.59482 0.07263 0.08506 0.0
O744 O 0.65651 0.13333 0.03883 0.0
O745 O 0.64655 0.13353 0.08726 0.0
O746 O 0.6639 0.10239 0.07705 0.0
O747 O 0.63301 0.08884 0.10849 0.0
C748 C 0.5601 0.12337 0.12399 0.0
C749 C 0.57499 0.14401 0.13953 0.0
H750 H 0.60847 0.18177 0.16978 0.0
H751 H 0.64831 0.18966 0.17852 0.0
H752 H 0.55351 0.05868 0.07663 0.0
H753 H 0.5362 0.08126 0.09621 0.0
H754 H 0.54228 0.11855 0.12065 0.0
H755 H 0.56842 0.15482 0.14778 0.0
Mn756 Mn 0.53079 0.6672 0.57164 0.0
Mn757 Mn 0.50106 0.62083 0.61761 0.0
C758 C 0.50113 0.63317 0.55083 0.0
C759 C 0.53559 0.70188 0.55166 0.0
C760 C 0.54881 0.63549 0.59249 0.0
O761 O 0.53989 0.68081 0.61521 0.0
O762 O 0.5159 0.64929 0.64239 0.0
C763 C 0.46513 0.63075 0.63936 0.0
N764 N 0.47117 0.61608 0.62638 0.0
C765 C 0.43203 0.58506 0.62705 0.0
C766 C 0.42535 0.59978 0.64054 0.0
C767 C 0.44196 0.62278 0.64649 0.0
C768 C 0.45527 0.59413 0.61985 0.0
H769 H 0.47794 0.64833 0.64433 0.0
C770 C 0.53066 0.6707 0.64059 0.0
O771 O 0.55243 0.69762 0.55214 0.0
O772 O 0.51622 0.68626 0.56322 0.0
N773 N 0.48547 0.59162 0.59767 0.0
C774 C 0.49463 0.58005 0.58323 0.0
C775 C 0.48058 0.55661 0.57668 0.0
C776 C 0.4573 0.54534 0.58516 0.0
C777 C 0.44801 0.55781 0.59879 0.0
C778 C 0.46295 0.58102 0.60522 0.0
H779 H 0.5126 0.58852 0.57725 0.0
O780 O 0.5166 0.64896 0.53327 0.0
O781 O 0.50287 0.63801 0.58014 0.0
O782 O 0.55133 0.65243 0.576 0.0
O783 O 0.53124 0.62369 0.60955 0.0
C784 C 0.42462 0.54807 0.60667 0.0
C785 C 0.41658 0.56177 0.62045 0.0
H786 H 0.40753 0.59364 0.64637 0.0
H787 H 0.43694 0.63426 0.65684 0.0
H788 H 0.48775 0.54717 0.56565 0.0
H789 H 0.44669 0.5271 0.58091 0.0
H790 H 0.41263 0.53015 0.60194 0.0
H791 H 0.3985 0.55419 0.62594 0.0
Mn792 Mn 0.86976 0.53385 0.07309 0.0
Mn793 Mn 0.89001 0.50791 0.12016 0.0
C794 C 0.87884 0.50724 0.05271 0.0
C795 C 0.83862 0.5355 0.05151 0.0
C796 C 0.91896 0.55703 0.09728 0.0
O797 O 0.86251 0.54079 0.11665 0.0
O798 O 0.87197 0.51833 0.14425 0.0
C799 C 0.84585 0.46717 0.13792 0.0
N800 N 0.86758 0.47641 0.12655 0.0
C801 C 0.86495 0.43942 0.12516 0.0
C802 C 0.84263 0.42949 0.13723 0.0
C803 C 0.83295 0.4434 0.14334 0.0
C804 C 0.87678 0.46311 0.1197 0.0
H805 H 0.83848 0.47787 0.14277 0.0
C806 C 0.8633 0.53139 0.14195 0.0
O807 O 0.85869 0.55376 0.05414 0.0
O808 O 0.83645 0.51643 0.06198 0.0
N809 N 0.90785 0.49661 0.1005 0.0
C810 C 0.92904 0.50871 0.08731 0.0
C811 C 0.94108 0.49736 0.07947 0.0
C812 C 0.93139 0.47382 0.08579 0.0
C813 C 0.90942 0.46165 0.09899 0.0
C814 C 0.89825 0.47387 0.10625 0.0
H815 H 0.93688 0.52695 0.0833 0.0
O816 O 0.87705 0.52182 0.03494 0.0
O817 O 0.87456 0.50813 0.0818 0.0
O818 O 0.90414 0.5571 0.07892 0.0
O819 O 0.91486 0.54015 0.11489 0.0
C820 C 0.89826 0.43793 0.10555 0.0
C821 C 0.87592 0.42677 0.11824 0.0
H822 H 0.83271 0.4112 0.14168 0.0
H823 H 0.81568 0.43586 0.15244 0.0
H824 H 0.95797 0.50683 0.06915 0.0
H825 H 0.94098 0.46527 0.08035 0.0
H826 H 0.90659 0.42805 0.10068 0.0
H827 H 0.86733 0.40845 0.12255 0.0
Mn828 Mn 0.33776 0.87058 0.57947 0.0
Mn829 Mn 0.38324 0.89149 0.6281 0.0
C830 C 0.37298 0.87615 0.56192 0.0
C831 C 0.30419 0.83965 0.5591 0.0
C832 C 0.36702 0.92138 0.59734 0.0
O833 O 0.32274 0.86677 0.62204 0.0
O834 O 0.35428 0.87876 0.65156 0.0
C835 C 0.37381 0.84727 0.65551 0.0
N836 N 0.38837 0.86721 0.64068 0.0
C837 C 0.41922 0.8589 0.64302 0.0
C838 C 0.40458 0.83824 0.65832 0.0
C839 C 0.38173 0.83235 0.66444 0.0
C840 C 0.41021 0.87283 0.63414 0.0
H841 H 0.35634 0.84287 0.66058 0.0
C842 C 0.33272 0.8708 0.64826 0.0
O843 O 0.30789 0.86052 0.55809 0.0
O844 O 0.31977 0.83664 0.5725 0.0
N845 N 0.41291 0.90485 0.60945 0.0
C846 C 0.42478 0.92548 0.59474 0.0
C847 C 0.44821 0.93453 0.58838 0.0
C848 C 0.45924 0.92246 0.59761 0.0
C849 C 0.44659 0.90104 0.61213 0.0
C850 C 0.42337 0.89303 0.61822 0.0
H851 H 0.41656 0.93521 0.58854 0.0
O852 O 0.35732 0.87426 0.54273 0.0
O853 O 0.36736 0.87388 0.59102 0.0
O854 O 0.351 0.90569 0.58104 0.0
O855 O 0.3795 0.91768 0.61603 0.0
C856 C 0.4562 0.88754 0.6214 0.0
C857 C 0.44245 0.86634 0.63646 0.0
H858 H 0.4107 0.82681 0.66554 0.0
H859 H 0.37033 0.81645 0.67627 0.0
H860 H 0.45786 0.95102 0.577 0.0
H861 H 0.4775 0.9299 0.59361 0.0
H862 H 0.47413 0.89326 0.61695 0.0
H863 H 0.44996 0.85601 0.64318 0.0
C864 C 0.34892 0.47128 0.20026 0.0
C865 C 0.33547 0.46707 0.17363 0.0
C866 C 0.33927 0.46696 0.22977 0.0
C867 C 0.31529 0.45786 0.23315 0.0
C868 C 0.30128 0.45228 0.20643 0.0
C869 C 0.31156 0.45708 0.17687 0.0
C870 C 0.35509 0.47316 0.25742 0.0
C871 C 0.27563 0.44218 0.20886 0.0
C872 C 0.30507 0.44149 0.31662 0.0
C873 C 0.31089 0.4629 0.32918 0.0
C874 C 0.30243 0.43795 0.28448 0.0
C875 C 0.30607 0.4564 0.26493 0.0
C876 C 0.30805 0.47657 0.27816 0.0
C877 C 0.31059 0.47963 0.31024 0.0
C878 C 0.29919 0.41577 0.27135 0.0
C879 C 0.31129 0.49644 0.25833 0.0
H880 H 0.36735 0.47855 0.19816 0.0
H881 H 0.30098 0.45363 0.15647 0.0
H882 H 0.35433 0.48663 0.27132 0.0
H883 H 0.34958 0.45794 0.27249 0.0
H884 H 0.37326 0.47967 0.25066 0.0
H885 H 0.26677 0.43198 0.18797 0.0
H886 H 0.26853 0.43107 0.22957 0.0
H887 H 0.27169 0.4563 0.21075 0.0
H888 H 0.3053 0.42852 0.33129 0.0
H889 H 0.31493 0.49614 0.32007 0.0
H890 H 0.31622 0.41792 0.26538 0.0
H891 H 0.28872 0.41102 0.24994 0.0
H892 H 0.29081 0.40152 0.28832 0.0
H893 H 0.32922 0.50579 0.24961 0.0
H894 H 0.30808 0.50872 0.27157 0.0
H895 H 0.29964 0.49026 0.23808 0.0
C896 C 0.86119 0.30234 0.68772 0.0
C897 C 0.85553 0.31938 0.6814 0.0
C898 C 0.86181 0.29564 0.71845 0.0
C899 C 0.85711 0.3066 0.74308 0.0
C900 C 0.84875 0.32173 0.73633 0.0
C901 C 0.84787 0.32771 0.70562 0.0
C902 C 0.86941 0.27835 0.72444 0.0
C903 C 0.8433 0.33382 0.76159 0.0
C904 C 0.85603 0.30148 0.82999 0.0
C905 C 0.87732 0.32079 0.83689 0.0
C906 C 0.85006 0.29419 0.79913 0.0
C907 C 0.86558 0.30686 0.77503 0.0
C908 C 0.88817 0.32431 0.78257 0.0
C909 C 0.89376 0.33093 0.81343 0.0
C910 C 0.82636 0.27449 0.79224 0.0
C911 C 0.90556 0.33813 0.75788 0.0
H912 H 0.86685 0.29558 0.66908 0.0
H913 H 0.8429 0.34045 0.70078 0.0
H914 H 0.88844 0.28728 0.72524 0.0
H915 H 0.86263 0.26926 0.74674 0.0
H916 H 0.86367 0.2655 0.70552 0.0
H917 H 0.83559 0.34387 0.75239 0.0
H918 H 0.83121 0.32123 0.77856 0.0
H919 H 0.85928 0.34576 0.77417 0.0
H920 H 0.84332 0.29339 0.84812 0.0
H921 H 0.91043 0.34556 0.81888 0.0
H922 H 0.82627 0.26535 0.77084 0.0
H923 H 0.81437 0.28113 0.78894 0.0
H924 H 0.81981 0.26206 0.81174 0.0
H925 H 0.90686 0.3266 0.74074 0.0
H926 H 0.92292 0.34957 0.76765 0.0
H927 H 0.89995 0.34893 0.74542 0.0
C928 C 0.55311 0.85336 0.32855 0.0
C929 C 0.54875 0.87132 0.33466 0.0
C930 C 0.55671 0.84855 0.29795 0.0
C931 C 0.55551 0.86179 0.27319 0.0
C932 C 0.55314 0.88113 0.2798 0.0
C933 C 0.55006 0.88572 0.31034 0.0
C934 C 0.5603 0.82846 0.29224 0.0
C935 C 0.55179 0.89593 0.25445 0.0
C936 C 0.56587 0.86515 0.18745 0.0
C937 C 0.54305 0.85415 0.17718 0.0
C938 C 0.57084 0.86489 0.21906 0.0
C939 C 0.55252 0.85379 0.24048 0.0
C940 C 0.52985 0.8399 0.22931 0.0
C941 C 0.52544 0.84028 0.19778 0.0
C942 C 0.59539 0.87863 0.22986 0.0
C943 C 0.50975 0.82727 0.25103 0.0
H944 H 0.55246 0.84233 0.34727 0.0
H945 H 0.5474 0.90008 0.31498 0.0
H946 H 0.54337 0.81247 0.29094 0.0
H947 H 0.56967 0.83037 0.27032 0.0
H948 H 0.57 0.82643 0.3116 0.0
H949 H 0.55075 0.9108 0.26369 0.0
H950 H 0.56705 0.90259 0.23922 0.0
H951 H 0.53636 0.8855 0.23999 0.0
H952 H 0.57959 0.87575 0.17151 0.0
H953 H 0.50782 0.83138 0.18973 0.0
H954 H 0.59835 0.87052 0.25036 0.0
H955 H 0.59919 0.89612 0.23655 0.0
H956 H 0.60755 0.88039 0.21124 0.0
H957 H 0.51357 0.81763 0.26858 0.0
H958 H 0.4938 0.81504 0.23859 0.0
H959 H 0.50653 0.83985 0.2634 0.0
C960 C 0.70431 0.53952 0.81229 0.0
C961 C 0.68905 0.54614 0.8239 0.0
C962 C 0.70948 0.54154 0.78046 0.0
C963 C 0.69861 0.54976 0.76013 0.0
C964 C 0.68571 0.55924 0.77266 0.0
C965 C 0.68111 0.5573 0.8044 0.0
C966 C 0.72453 0.53262 0.76824 0.0
C967 C 0.67401 0.56851 0.75218 0.0
C968 C 0.69905 0.55318 0.6722 0.0
C969 C 0.67881 0.53261 0.66541 0.0
C970 C 0.70737 0.55833 0.70283 0.0
C971 C 0.69492 0.54269 0.72698 0.0
C972 C 0.67573 0.52107 0.71955 0.0
C973 C 0.66814 0.51629 0.68898 0.0
C974 C 0.72855 0.5811 0.70937 0.0
C975 C 0.66177 0.50365 0.74422 0.0
H976 H 0.71052 0.53094 0.82741 0.0
H977 H 0.66943 0.56257 0.81356 0.0
H978 H 0.71366 0.51442 0.76118 0.0
H979 H 0.73439 0.54257 0.7477 0.0
H980 H 0.73671 0.5334 0.7862 0.0
H981 H 0.66696 0.57767 0.76562 0.0
H982 H 0.68619 0.58049 0.73474 0.0
H983 H 0.65964 0.55409 0.73962 0.0
H984 H 0.70762 0.56578 0.65408 0.0
H985 H 0.65283 0.50008 0.68387 0.0
H986 H 0.73755 0.58043 0.7305 0.0
H987 H 0.72356 0.59438 0.71273 0.0
H988 H 0.74066 0.58657 0.68955 0.0
H989 H 0.67298 0.49969 0.75863 0.0
H990 H 0.64794 0.4873 0.73434 0.0
H991 H 0.65371 0.51079 0.75968 0.0
C992 C 0.12316 0.68873 0.31677 0.0
C993 C 0.14178 0.69449 0.33646 0.0
C994 C 0.12643 0.69252 0.28487 0.0
C995 C 0.14892 0.70228 0.27254 0.0
C996 C 0.16796 0.71161 0.29297 0.0
C997 C 0.16417 0.70727 0.32489 0.0
C998 C 0.10559 0.68275 0.26417 0.0
C999 C 0.19223 0.72345 0.28084 0.0
C1000 C 0.14952 0.6666 0.20576 0.0
C1001 C 0.14769 0.67827 0.17998 0.0
C1002 C 0.15121 0.675 0.23573 0.0
C1003 C 0.15162 0.69606 0.24035 0.0
C1004 C 0.15176 0.709 0.21435 0.0
C1005 C 0.14959 0.69985 0.18436 0.0
C1006 C 0.15107 0.66043 0.26253 0.0
C1007 C 0.15308 0.73193 0.21798 0.0
H1008 H 0.10584 0.67881 0.32585 0.0
H1009 H 0.1786 0.7117 0.34013 0.0
H1010 H 0.10813 0.69483 0.24514 0.0
H1011 H 0.1029 0.66652 0.25368 0.0
H1012 H 0.0898 0.67897 0.27712 0.0
H1013 H 0.20457 0.73499 0.29855 0.0
H1014 H 0.19701 0.71038 0.27461 0.0
H1015 H 0.19383 0.73359 0.25978 0.0
H1016 H 0.14871 0.65021 0.20271 0.0
H1017 H 0.14849 0.70918 0.16461 0.0
H1018 H 0.1357 0.65532 0.27719 0.0
H1019 H 0.16645 0.67037 0.2772 0.0
H1020 H 0.15087 0.64457 0.25482 0.0
H1021 H 0.13543 0.7293 0.21884 0.0
H1022 H 0.16198 0.74326 0.19792 0.0
H1023 H 0.16217 0.7408 0.23949 0.0
C1024 C 0.48626 0.14812 0.80823 0.0
C1025 C 0.47055 0.14224 0.83262 0.0
C1026 C 0.48034 0.15017 0.77792 0.0
C1027 C 0.45803 0.14638 0.77158 0.0
C1028 C 0.44276 0.1426 0.79645 0.0
C1029 C 0.44918 0.14048 0.82683 0.0
C1030 C 0.49745 0.15449 0.75241 0.0
C1031 C 0.41915 0.13928 0.79097 0.0
C1032 C 0.45852 0.15929 0.68685 0.0
C1033 C 0.4536 0.13801 0.67463 0.0
C1034 C 0.45674 0.16184 0.71888 0.0
C1035 C 0.45022 0.14276 0.73873 0.0
C1036 C 0.44202 0.12069 0.72572 0.0
C1037 C 0.44389 0.11863 0.6938 0.0
C1038 C 0.46448 0.18544 0.7317 0.0
C1039 C 0.43443 0.09972 0.74575 0.0
H1040 H 0.503 0.15 0.81257 0.0
H1041 H 0.437 0.13612 0.84558 0.0
H1042 H 0.49082 0.13913 0.73732 0.0
H1043 H 0.49995 0.16912 0.73779 0.0
H1044 H 0.51447 0.15834 0.76149 0.0
H1045 H 0.41313 0.1448 0.81141 0.0
H1046 H 0.41879 0.14895 0.77038 0.0
H1047 H 0.40684 0.12078 0.78708 0.0
H1048 H 0.46602 0.17432 0.67204 0.0
H1049 H 0.4399 0.10213 0.68422 0.0
H1050 H 0.48285 0.19364 0.73833 0.0
H1051 H 0.45449 0.18445 0.75264 0.0
H1052 H 0.46268 0.19657 0.71426 0.0
H1053 H 0.44971 0.10051 0.75684 0.0
H1054 H 0.42543 0.08357 0.73218 0.0
H1055 H 0.42283 0.09913 0.76437 0.0
C1056 C 0.55993 0.70173 0.67527 0.0
C1057 C 0.53764 0.68329 0.67034 0.0
C1058 C 0.56774 0.7098 0.70543 0.0
C1059 C 0.55299 0.69891 0.73097 0.0
C1060 C 0.5298 0.68192 0.72561 0.0
C1061 C 0.52244 0.67452 0.69543 0.0
C1062 C 0.59223 0.72875 0.70987 0.0
C1063 C 0.51321 0.66983 0.75191 0.0
C1064 C 0.56839 0.6808 0.80446 0.0
C1065 C 0.56069 0.69088 0.82615 0.0
C1066 C 0.56915 0.68582 0.77296 0.0
C1067 C 0.56211 0.70142 0.763 0.0
C1068 C 0.55797 0.71439 0.78527 0.0
C1069 C 0.55709 0.70881 0.81683 0.0
C1070 C 0.57426 0.67193 0.75023 0.0
C1071 C 0.55186 0.73223 0.77567 0.0
H1072 H 0.57171 0.70884 0.65595 0.0
H1073 H 0.50499 0.66068 0.69171 0.0
H1074 H 0.59439 0.73842 0.73157 0.0
H1075 H 0.60362 0.72124 0.7109 0.0
H1076 H 0.59796 0.74092 0.69009 0.0
H1077 H 0.49549 0.65793 0.74365 0.0
H1078 H 0.51908 0.65976 0.76562 0.0
H1079 H 0.5126 0.68251 0.76764 0.0
H1080 H 0.57158 0.6672 0.81181 0.0
H1081 H 0.55132 0.71681 0.83359 0.0
H1082 H 0.58604 0.68314 0.73189 0.0
H1083 H 0.55805 0.65902 0.73896 0.0
H1084 H 0.58215 0.66271 0.76161 0.0
H1085 H 0.56105 0.74113 0.7542 0.0
H1086 H 0.55606 0.74515 0.79421 0.0
H1087 H 0.53314 0.72378 0.77111 0.0
C1088 C 0.88484 0.55105 0.30744 0.0
C1089 C 0.8678 0.54579 0.32975 0.0
C1090 C 0.88106 0.55368 0.27632 0.0
C1091 C 0.85968 0.55118 0.26717 0.0
C1092 C 0.84355 0.54878 0.29013 0.0
C1093 C 0.84773 0.54593 0.32133 0.0
C1094 C 0.899 0.55649 0.25293 0.0
C1095 C 0.82105 0.54718 0.28164 0.0
C1096 C 0.86179 0.55861 0.18034 0.0
C1097 C 0.85509 0.53612 0.17123 0.0
C1098 C 0.8606 0.5637 0.21169 0.0
C1099 C 0.85288 0.54592 0.23406 0.0
C1100 C 0.84338 0.52286 0.22412 0.0
C1101 C 0.84456 0.5183 0.19286 0.0
C1102 C 0.86971 0.58834 0.22108 0.0
C1103 C 0.83462 0.50318 0.24687 0.0
H1104 H 0.90059 0.55143 0.31405 0.0
H1105 H 0.83457 0.54206 0.33855 0.0
H1106 H 0.89249 0.54048 0.23922 0.0
H1107 H 0.90261 0.57063 0.23665 0.0
H1108 H 0.9154 0.56019 0.26403 0.0
H1109 H 0.81462 0.55344 0.30081 0.0
H1110 H 0.82271 0.55722 0.26046 0.0
H1111 H 0.80802 0.52897 0.27723 0.0
H1112 H 0.86979 0.57245 0.16365 0.0
H1113 H 0.83898 0.50083 0.18576 0.0
H1114 H 0.88823 0.59631 0.22675 0.0
H1115 H 0.86064 0.58953 0.24182 0.0
H1116 H 0.86792 0.59839 0.20198 0.0
H1117 H 0.84926 0.50434 0.26024 0.0
H1118 H 0.82569 0.48619 0.23521 0.0
H1119 H 0.82256 0.50406 0.26353 0.0
C1120 C 0.30105 0.84554 0.68492 0.0
C1121 C 0.31978 0.86703 0.67726 0.0
C1122 C 0.29405 0.84007 0.716 0.0
C1123 C 0.3065 0.85629 0.73952 0.0
C1124 C 0.32337 0.87893 0.73109 0.0
C1125 C 0.32967 0.88399 0.70006 0.0
C1126 C 0.27488 0.81627 0.72376 0.0
C1127 C 0.33698 0.89704 0.75507 0.0
C1128 C 0.30322 0.85448 0.82694 0.0
C1129 C 0.32084 0.84971 0.83357 0.0
C1130 C 0.29586 0.8538 0.79622 0.0
C1131 C 0.30678 0.84875 0.77187 0.0
C1132 C 0.32253 0.84126 0.77911 0.0
C1133 C 0.32914 0.84162 0.80983 0.0
C1134 C 0.27786 0.86038 0.7898 0.0
C1135 C 0.33459 0.83544 0.7542 0.0
H1136 H 0.2932 0.83244 0.66724 0.0
H1137 H 0.34391 0.90076 0.69394 0.0
H1138 H 0.28199 0.80465 0.72683 0.0
H1139 H 0.26603 0.81618 0.74547 0.0
H1140 H 0.26209 0.80927 0.70473 0.0
H1141 H 0.34811 0.91421 0.74457 0.0
H1142 H 0.32529 0.89846 0.77183 0.0
H1143 H 0.34807 0.8921 0.76812 0.0
H1144 H 0.29641 0.86037 0.84524 0.0
H1145 H 0.34228 0.83725 0.81493 0.0
H1146 H 0.26862 0.85279 0.76785 0.0
H1147 H 0.28618 0.87934 0.78807 0.0
H1148 H 0.26521 0.85475 0.80899 0.0
H1149 H 0.3219 0.8225 0.73814 0.0
H1150 H 0.34528 0.82859 0.76386 0.0
H1151 H 0.3459 0.85107 0.74053 0.0
C1152 C 0.44078 0.32423 0.30382 0.0
C1153 C 0.44893 0.31547 0.32682 0.0
C1154 C 0.44081 0.31859 0.27271 0.0
C1155 C 0.44905 0.30362 0.26443 0.0
C1156 C 0.45388 0.29198 0.28804 0.0
C1157 C 0.45404 0.29826 0.31918 0.0
C1158 C 0.43503 0.33117 0.24859 0.0
C1159 C 0.46121 0.27474 0.28032 0.0
C1160 C 0.45111 0.30108 0.17683 0.0
C1161 C 0.47299 0.32002 0.17129 0.0
C1162 C 0.44364 0.29349 0.20731 0.0
C1163 C 0.45827 0.30545 0.23252 0.0
C1164 C 0.48118 0.32294 0.22661 0.0
C1165 C 0.48826 0.32975 0.19616 0.0
C1166 C 0.41956 0.27388 0.21235 0.0
C1167 C 0.49761 0.33627 0.25251 0.0
H1168 H 0.43651 0.33731 0.30987 0.0
H1169 H 0.46021 0.29132 0.33696 0.0
H1170 H 0.45101 0.34397 0.2367 0.0
H1171 H 0.42338 0.31904 0.2309 0.0
H1172 H 0.42671 0.34035 0.25881 0.0
H1173 H 0.45716 0.26234 0.29956 0.0
H1174 H 0.4527 0.26515 0.25892 0.0
H1175 H 0.48005 0.2838 0.2765 0.0
H1176 H 0.43928 0.29322 0.15774 0.0
H1177 H 0.50544 0.34398 0.192 0.0
H1178 H 0.40745 0.28055 0.21251 0.0
H1179 H 0.4179 0.26498 0.23463 0.0
H1180 H 0.41434 0.2612 0.19325 0.0
H1181 H 0.4911 0.34613 0.2654 0.0
H1182 H 0.51514 0.34854 0.24392 0.0
H1183 H 0.49893 0.3244 0.26906 0.0
C1184 C 0.15379 0.45647 0.6801 0.0
C1185 C 0.13727 0.46315 0.67558 0.0
C1186 C 0.15919 0.45241 0.71013 0.0
C1187 C 0.14801 0.45543 0.736 0.0
C1188 C 0.13011 0.46043 0.73117 0.0
C1189 C 0.1249 0.46401 0.70115 0.0
C1190 C 0.17775 0.44626 0.714 0.0
C1191 C 0.11752 0.46376 0.75785 0.0
C1192 C 0.14588 0.4431 0.82102 0.0
C1193 C 0.15913 0.4656 0.83202 0.0
C1194 C 0.14472 0.43854 0.7891 0.0
C1195 C 0.15672 0.457 0.76814 0.0
C1196 C 0.17275 0.47897 0.77975 0.0
C1197 C 0.17374 0.48298 0.81161 0.0
C1198 C 0.12847 0.41459 0.77769 0.0
C1199 C 0.18633 0.49913 0.75845 0.0
H1200 H 0.16329 0.45552 0.66047 0.0
H1201 H 0.11169 0.46858 0.69786 0.0
H1202 H 0.19466 0.46224 0.71567 0.0
H1203 H 0.1752 0.43599 0.73525 0.0
H1204 H 0.17836 0.43644 0.69374 0.0
H1205 H 0.10347 0.46672 0.75001 0.0
H1206 H 0.10999 0.44847 0.77314 0.0
H1207 H 0.12973 0.47875 0.77188 0.0
H1208 H 0.13459 0.42959 0.83679 0.0
H1209 H 0.18419 0.50034 0.82022 0.0
H1210 H 0.13516 0.41081 0.75638 0.0
H1211 H 0.11165 0.41305 0.77209 0.0
H1212 H 0.12557 0.40154 0.79557 0.0
H1213 H 0.19397 0.49425 0.73928 0.0
H1214 H 0.20032 0.51403 0.77085 0.0
H1215 H 0.17468 0.50458 0.74816 0.0
C1216 C 0.70451 0.15103 0.32336 0.0
C1217 C 0.68488 0.15292 0.32828 0.0
C1218 C 0.71299 0.15211 0.29318 0.0
C1219 C 0.70127 0.15471 0.2676 0.0
C1220 C 0.68287 0.15887 0.27294 0.0
C1221 C 0.67514 0.15816 0.30312 0.0
C1222 C 0.73343 0.14886 0.28881 0.0
C1223 C 0.66975 0.16186 0.24662 0.0
C1224 C 0.71102 0.16141 0.18166 0.0
C1225 C 0.69466 0.13919 0.17235 0.0
C1226 C 0.71639 0.16639 0.21323 0.0
C1227 C 0.70467 0.14884 0.23552 0.0
C1228 C 0.69078 0.12584 0.22554 0.0
C1229 C 0.68601 0.12133 0.19403 0.0
C1230 C 0.73255 0.19084 0.22284 0.0
C1231 C 0.67824 0.1064 0.24825 0.0
H1232 H 0.7124 0.14733 0.34269 0.0
H1233 H 0.66037 0.16033 0.30677 0.0
H1234 H 0.72755 0.13023 0.2882 0.0
H1235 H 0.7427 0.15675 0.26697 0.0
H1236 H 0.74558 0.15642 0.30846 0.0
H1237 H 0.65651 0.1659 0.25485 0.0
H1238 H 0.68166 0.17589 0.23106 0.0
H1239 H 0.66106 0.14586 0.23273 0.0
H1240 H 0.71785 0.17525 0.16488 0.0
H1241 H 0.67356 0.10407 0.18666 0.0
H1242 H 0.74194 0.19148 0.24427 0.0
H1243 H 0.72261 0.19962 0.22748 0.0
H1244 H 0.74517 0.20048 0.20427 0.0
H1245 H 0.69011 0.10698 0.26645 0.0
H1246 H 0.67031 0.08933 0.23683 0.0
H1247 H 0.66442 0.10817 0.25971 0.0
C1248 C 0.22088 0.48319 0.95571 0.0
C1249 C 0.19814 0.46842 0.96504 0.0
C1250 C 0.23933 0.48248 0.96998 0.0
C1251 C 0.23504 0.46713 0.99489 0.0
C1252 C 0.21208 0.45219 0.00441 0.0
C1253 C 0.1939 0.45278 0.98907 0.0
C1254 C 0.26345 0.49828 0.95851 0.0
C1255 C 0.20675 0.43603 0.03137 0.0
C1256 C 0.28152 0.45299 0.0176 0.0
C1257 C 0.29323 0.46913 0.04097 0.0
C1258 C 0.26254 0.45209 0.00243 0.0
C1259 C 0.25465 0.46723 0.01146 0.0
C1260 C 0.26597 0.48301 0.03582 0.0
C1261 C 0.28531 0.484 0.04991 0.0
C1262 C 0.25138 0.43543 0.97609 0.0
C1263 C 0.25779 0.49901 0.04682 0.0
H1264 H 0.22425 0.49523 0.93703 0.0
H1265 H 0.17637 0.44147 0.99656 0.0
H1266 H 0.27374 0.51067 0.97688 0.0
H1267 H 0.27196 0.48822 0.9529 0.0
H1268 H 0.26376 0.50808 0.93765 0.0
H1269 H 0.188 0.42542 0.03581 0.0
H1270 H 0.21371 0.42441 0.02707 0.0
H1271 H 0.21522 0.44601 0.05252 0.0
H1272 H 0.28769 0.4416 0.0104 0.0
H1273 H 0.29423 0.49642 0.06808 0.0
H1274 H 0.25281 0.44504 0.95456 0.0
H1275 H 0.23282 0.42401 0.98077 0.0
H1276 H 0.25937 0.42464 0.9721 0.0
H1277 H 0.25985 0.51117 0.02809 0.0
H1278 H 0.26742 0.50908 0.06742 0.0
H1279 H 0.23924 0.48909 0.05266 0.0
C1280 C 0.73429 0.18471 0.48734 0.0
C1281 C 0.72351 0.19013 0.46371 0.0
C1282 C 0.75275 0.20209 0.50407 0.0
C1283 C 0.76108 0.22544 0.49635 0.0
C1284 C 0.7507 0.23093 0.47179 0.0
C1285 C 0.73181 0.21323 0.45612 0.0
C1286 C 0.76287 0.1955 0.5306 0.0
C1287 C 0.75944 0.25553 0.4622 0.0
C1288 C 0.79348 0.27309 0.55518 0.0
C1289 C 0.81642 0.28109 0.54688 0.0
C1290 C 0.77536 0.25451 0.53959 0.0
C1291 C 0.78025 0.24416 0.51441 0.0
C1292 C 0.80342 0.25216 0.50601 0.0
C1293 C 0.82123 0.27029 0.52266 0.0
C1294 C 0.75097 0.24611 0.5499 0.0
C1295 C 0.80938 0.24206 0.47882 0.0
H1296 H 0.72777 0.16688 0.4935 0.0
H1297 H 0.72358 0.21748 0.43777 0.0
H1298 H 0.78153 0.20252 0.5269 0.0
H1299 H 0.7609 0.20306 0.55237 0.0
H1300 H 0.75454 0.17658 0.53356 0.0
H1301 H 0.75051 0.25683 0.44135 0.0
H1302 H 0.75696 0.26505 0.48131 0.0
H1303 H 0.77815 0.26416 0.45734 0.0
H1304 H 0.7897 0.28133 0.57398 0.0
H1305 H 0.83893 0.27658 0.51595 0.0
H1306 H 0.74206 0.22733 0.55429 0.0
H1307 H 0.74138 0.2491 0.53135 0.0
H1308 H 0.75016 0.25488 0.57121 0.0
H1309 H 0.802 0.22331 0.48204 0.0
H1310 H 0.82823 0.25005 0.47544 0.0
H1311 H 0.80173 0.24451 0.45745 0.0
C1312 C 0.52827 0.79548 0.04922 0.0
C1313 C 0.54322 0.81862 0.04197 0.0
C1314 C 0.52955 0.77784 0.03351 0.0
C1315 C 0.54572 0.78345 0.00932 0.0
C1316 C 0.56086 0.80682 1.00191 0.0
C1317 C 0.55964 0.82413 0.01862 0.0
C1318 C 0.51349 0.75319 0.0427 0.0
C1319 C 0.57793 0.81354 0.97579 0.0
C1320 C 0.56128 0.73867 0.98362 0.0
C1321 C 0.54613 0.72813 0.95886 0.0
C1322 C 0.56137 0.7567 1.00023 0.0
C1323 C 0.54639 0.76481 0.99134 0.0
C1324 C 0.5316 0.7547 0.96568 0.0
C1325 C 0.53141 0.73628 0.95005 0.0
C1326 C 0.57701 0.7666 0.02786 0.0
C1327 C 0.51579 0.76321 0.9549 0.0
H1328 H 0.51562 0.79114 0.06735 0.0
H1329 H 0.5711 0.84199 0.01271 0.0
H1330 H 0.50183 0.74379 0.02322 0.0
H1331 H 0.52345 0.74452 0.048 0.0
H1332 H 0.50288 0.75178 0.06318 0.0
H1333 H 0.58854 0.83247 0.97299 0.0
H1334 H 0.58953 0.80652 0.97987 0.0
H1335 H 0.5687 0.80606 0.95381 0.0
H1336 H 0.57254 0.73229 0.99071 0.0
H1337 H 0.51974 0.72826 0.93084 0.0
H1338 H 0.56659 0.76406 0.04894 0.0
H1339 H 0.58849 0.78536 0.02489 0.0
H1340 H 0.58777 0.75854 0.03162 0.0
H1341 H 0.50299 0.76018 0.97314 0.0
H1342 H 0.50647 0.75453 0.9334 0.0
H1343 H 0.52577 0.782 0.95066 0.0
C1344 C 0.72582 0.51784 0.54168 0.0
C1345 C 0.7189 0.53357 0.53307 0.0
C1346 C 0.74526 0.51858 0.52824 0.0
C1347 C 0.75767 0.53497 0.50488 0.0
C1348 C 0.75064 0.55082 0.496 0.0
C1349 C 0.73158 0.55015 0.51053 0.0
C1350 C 0.7525 0.50178 0.53903 0.0
C1351 C 0.76291 0.56813 0.47062 0.0
C1352 C 0.81889 0.54938 0.48527 0.0
C1353 C 0.81523 0.53455 0.46045 0.0
C1354 C 0.80034 0.54961 0.50009 0.0
C1355 C 0.77764 0.53517 0.48922 0.0
C1356 C 0.77398 0.52067 0.46353 0.0
C1357 C 0.79275 0.52027 0.4498 0.0
C1358 C 0.80498 0.56487 0.52789 0.0
C1359 C 0.7502 0.5055 0.45056 0.0
H1360 H 0.71617 0.50508 0.55922 0.0
H1361 H 0.72619 0.56223 0.50358 0.0
H1362 H 0.75101 0.49026 0.51975 0.0
H1363 H 0.7708 0.51116 0.54625 0.0
H1364 H 0.74192 0.49107 0.55867 0.0
H1365 H 0.75524 0.57916 0.46628 0.0
H1366 H 0.78128 0.5793 0.47667 0.0
H1367 H 0.76229 0.55909 0.44888 0.0
H1368 H 0.8362 0.56028 0.49379 0.0
H1369 H 0.78984 0.50884 0.43053 0.0
H1370 H 0.79558 0.55425 0.54823 0.0
H1371 H 0.79858 0.57697 0.52369 0.0
H1372 H 0.82357 0.57495 0.53361 0.0
H1373 H 0.73919 0.49266 0.46811 0.0
H1374 H 0.75041 0.49625 0.42942 0.0
H1375 H 0.74212 0.51597 0.44489 0.0
C1376 C 0.2714 0.81935 0.99164 0.0
C1377 C 0.28263 0.81455 0.96797 0.0
C1378 C 0.25258 0.80152 0.00747 0.0
C1379 C 0.24433 0.77834 0.9988 0.0
C1380 C 0.25515 0.77352 0.97414 0.0
C1381 C 0.27436 0.79161 0.95941 0.0
C1382 C 0.24202 0.80744 0.03415 0.0
C1383 C 0.24658 0.74919 0.96347 0.0
C1384 C 0.21137 0.72876 0.05518 0.0
C1385 C 0.18849 0.72063 0.04644 0.0
C1386 C 0.22958 0.74803 0.04069 0.0
C1387 C 0.22492 0.75905 0.01609 0.0
C1388 C 0.20179 0.75096 0.00731 0.0
C1389 C 0.18385 0.73209 0.0229 0.0
C1390 C 0.25386 0.75641 0.05148 0.0
C1391 C 0.19604 0.76173 0.98069 0.0
H1392 H 0.27784 0.83702 0.99854 0.0
H1393 H 0.28289 0.7878 0.94101 0.0
H1394 H 0.22338 0.80032 0.03016 0.0
H1395 H 0.24384 0.7995 0.05567 0.0
H1396 H 0.25017 0.82627 0.03774 0.0
H1397 H 0.25575 0.74845 0.94253 0.0
H1398 H 0.2489 0.73921 0.98212 0.0
H1399 H 0.22793 0.74064 0.9583 0.0
H1400 H 0.21506 0.72005 0.07348 0.0
H1401 H 0.16622 0.72576 0.01585 0.0
H1402 H 0.26256 0.77507 0.05659 0.0
H1403 H 0.26379 0.75395 0.0329 0.0
H1404 H 0.25446 0.7472 0.07247 0.0
H1405 H 0.20337 0.78039 0.98472 0.0
H1406 H 0.17721 0.7538 0.97713 0.0
H1407 H 0.20386 0.75981 0.95914 0.0
C1408 C 0.45044 0.18527 0.51776 0.0
C1409 C 0.46614 0.19042 0.54199 0.0
C1410 C 0.44936 0.20282 0.5014 0.0
C1411 C 0.46388 0.22608 0.51 0.0
C1412 C 0.47931 0.23129 0.53504 0.0
C1413 C 0.48047 0.21345 0.55042 0.0
C1414 C 0.43306 0.19652 0.47443 0.0
C1415 C 0.49467 0.25575 0.54554 0.0
C1416 C 0.47837 0.27463 0.4526 0.0
C1417 C 0.4628 0.2818 0.46108 0.0
C1418 C 0.47851 0.25617 0.46779 0.0
C1419 C 0.46316 0.24499 0.49266 0.0
C1420 C 0.44744 0.25222 0.50133 0.0
C1421 C 0.44724 0.27031 0.48519 0.0
C1422 C 0.49516 0.24867 0.45726 0.0
C1423 C 0.43117 0.24121 0.52815 0.0
H1424 H 0.43948 0.16753 0.51092 0.0
H1425 H 0.49258 0.21754 0.5692 0.0
H1426 H 0.42093 0.20292 0.47833 0.0
H1427 H 0.44286 0.20487 0.45308 0.0
H1428 H 0.423 0.17767 0.47056 0.0
H1429 H 0.50484 0.25683 0.56636 0.0
H1430 H 0.50673 0.26589 0.52674 0.0
H1431 H 0.4842 0.26388 0.55084 0.0
H1432 H 0.49035 0.28336 0.4339 0.0
H1433 H 0.43529 0.27588 0.49204 0.0
H1434 H 0.48576 0.23004 0.45182 0.0
H1435 H 0.50744 0.25133 0.4761 0.0
H1436 H 0.50507 0.25826 0.43652 0.0
H1437 H 0.42004 0.22253 0.52402 0.0
H1438 H 0.42005 0.24885 0.53205 0.0
H1439 H 0.44109 0.2432 0.54955 0.0
C1440 C 0.81465 0.55385 0.04194 0.0
C1441 C 0.81932 0.53611 0.03597 0.0
C1442 C 0.79609 0.55429 0.02749 0.0
C1443 C 0.78258 0.53718 0.00547 0.0
C1444 C 0.7877 0.51958 0.99884 0.0
C1445 C 0.80566 0.51897 0.01468 0.0
C1446 C 0.79067 0.5728 0.03623 0.0
C1447 C 0.77438 0.50151 0.97473 0.0
C1448 C 0.72166 0.52333 0.98585 0.0
C1449 C 0.72519 0.53656 0.95927 0.0
C1450 C 0.74024 0.52393 1.00163 0.0
C1451 C 0.76282 0.53737 0.98978 0.0
C1452 C 0.76637 0.55055 0.96258 0.0
C1453 C 0.74753 0.55035 0.94799 0.0
C1454 C 0.73571 0.51027 0.03109 0.0
C1455 C 0.78998 0.56444 0.9485 0.0
H1456 H 0.82515 0.56703 0.05854 0.0
H1457 H 0.80945 0.50539 0.00982 0.0
H1458 H 0.79213 0.58332 0.01569 0.0
H1459 H 0.77268 0.56484 0.0446 0.0
H1460 H 0.8023 0.58434 0.05452 0.0
H1461 H 0.78149 0.48994 0.97082 0.0
H1462 H 0.75618 0.49094 0.98194 0.0
H1463 H 0.77456 0.50984 0.95249 0.0
H1464 H 0.70433 0.5128 0.99461 0.0
H1465 H 0.75015 0.56047 0.9273 0.0
H1466 H 0.74666 0.52161 0.04999 0.0
H1467 H 0.74026 0.49666 0.0279 0.0
H1468 H 0.71744 0.50204 0.03839 0.0
H1469 H 0.80182 0.57755 0.96515 0.0
H1470 H 0.78976 0.57326 0.92689 0.0
H1471 H 0.79709 0.55305 0.94325 0.0
C1472 C 0.18401 0.7378 0.4939 0.0
C1473 C 0.18771 0.72648 0.46928 0.0
C1474 C 0.20254 0.75617 0.50925 0.0
C1475 C 0.22532 0.76383 0.49922 0.0
C1476 C 0.2291 0.75275 0.47391 0.0
C1477 C 0.21028 0.73403 0.45954 0.0
C1478 C 0.19776 0.76711 0.53656 0.0
C1479 C 0.25302 0.76071 0.46195 0.0
C1480 C 0.27179 0.82449 0.52106 0.0
C1481 C 0.28357 0.8203 0.54461 0.0
C1482 C 0.25292 0.80631 0.50599 0.0
C1483 C 0.24522 0.78336 0.51523 0.0
C1484 C 0.25674 0.77908 0.53952 0.0
C1485 C 0.27596 0.79757 0.55361 0.0
C1486 C 0.24151 0.81163 0.47975 0.0
C1487 C 0.24878 0.75495 0.55062 0.0
H1488 H 0.16661 0.73191 0.50171 0.0
H1489 H 0.21324 0.72541 0.44043 0.0
H1490 H 0.20677 0.76582 0.55731 0.0
H1491 H 0.20451 0.78564 0.53206 0.0
H1492 H 0.17912 0.75891 0.54181 0.0
H1493 H 0.25298 0.7509 0.44129 0.0
H1494 H 0.26157 0.77921 0.45583 0.0
H1495 H 0.26351 0.75879 0.48023 0.0
H1496 H 0.27771 0.84202 0.51382 0.0
H1497 H 0.28493 0.79424 0.5719 0.0
H1498 H 0.22309 0.80489 0.48505 0.0
H1499 H 0.24233 0.80296 0.45837 0.0
H1500 H 0.2497 0.83036 0.47515 0.0
H1501 H 0.23039 0.74644 0.55731 0.0
H1502 H 0.25889 0.75459 0.5707 0.0
H1503 H 0.25028 0.74468 0.53167 0.0
C1504 C 0.48948 0.20744 0.95538 0.0
C1505 C 0.47418 0.18493 0.96503 0.0
C1506 C 0.4894 0.22634 0.96922 0.0
C1507 C 0.47417 0.22271 0.99404 0.0
C1508 C 0.45879 0.19997 0.004 0.0
C1509 C 0.45874 0.18136 0.98906 0.0
C1510 C 0.50558 0.2502 0.95723 0.0
C1511 C 0.44273 0.19533 0.03089 0.0
C1512 C 0.49061 0.27349 0.048 0.0
C1513 C 0.47548 0.281 0.03864 0.0
C1514 C 0.49001 0.25425 0.03419 0.0
C1515 C 0.47444 0.24269 0.00969 0.0
C1516 C 0.45926 0.25036 1.00001 0.0
C1517 C 0.45972 0.26917 0.01493 0.0
C1518 C 0.50602 0.24626 0.04586 0.0
C1519 C 0.44285 0.23899 0.97346 0.0
H1520 H 0.50139 0.21028 0.93672 0.0
H1521 H 0.44703 0.164 0.99682 0.0
H1522 H 0.49578 0.25884 0.95078 0.0
H1523 H 0.51787 0.26067 0.97561 0.0
H1524 H 0.51549 0.25003 0.93678 0.0
H1525 H 0.43215 0.17671 0.03619 0.0
H1526 H 0.45277 0.20436 0.05177 0.0
H1527 H 0.43106 0.20212 0.02586 0.0
H1528 H 0.50275 0.28252 0.06642 0.0
H1529 H 0.44814 0.27505 0.00739 0.0
H1530 H 0.51803 0.24775 0.02724 0.0
H1531 H 0.49603 0.22788 0.05254 0.0
H1532 H 0.51624 0.25636 0.0661 0.0
H1533 H 0.45259 0.23969 0.95238 0.0
H1534 H 0.43248 0.24729 0.96834 0.0
H1535 H 0.43099 0.22061 0.97875 0.0
C1536 C 0.20668 0.48161 0.5511 0.0
C1537 C 0.18369 0.4671 0.54267 0.0
C1538 C 0.22456 0.48013 0.53647 0.0
C1539 C 0.21943 0.4642 0.51211 0.0
C1540 C 0.19619 0.44932 0.50373 0.0
C1541 C 0.17858 0.45073 0.51941 0.0
C1542 C 0.24901 0.49589 0.54675 0.0
C1543 C 0.18998 0.4325 0.47743 0.0
C1544 C 0.268 0.48018 0.45452 0.0
C1545 C 0.27628 0.46556 0.46324 0.0
C1546 C 0.24905 0.47934 0.46954 0.0
C1547 C 0.23848 0.46396 0.49455 0.0
C1548 C 0.24671 0.44905 0.50335 0.0
C1549 C 0.2653 0.4498 0.4873 0.0
C1550 C 0.2405 0.49514 0.45885 0.0
C1551 C 0.23635 0.43282 0.53035 0.0
H1552 H 0.21071 0.4942 0.56921 0.0
H1553 H 0.16084 0.43959 0.51264 0.0
H1554 H 0.25758 0.48579 0.55183 0.0
H1555 H 0.25883 0.50808 0.52791 0.0
H1556 H 0.24997 0.50593 0.56764 0.0
H1557 H 0.1711 0.42164 0.47438 0.0
H1558 H 0.19752 0.44199 0.45561 0.0
H1559 H 0.1973 0.42115 0.48143 0.0
H1560 H 0.27633 0.4923 0.43581 0.0
H1561 H 0.27176 0.43859 0.49429 0.0
H1562 H 0.2431 0.5076 0.47737 0.0
H1563 H 0.2218 0.4851 0.45404 0.0
H1564 H 0.2495 0.50486 0.4377 0.0
H1565 H 0.23856 0.44279 0.55176 0.0
H1566 H 0.24435 0.42199 0.53385 0.0
H1567 H 0.21763 0.42143 0.52682 0.0
C1568 C 0.82986 0.27366 0.99269 0.0
C1569 C 0.82622 0.28541 0.96854 0.0
C1570 C 0.8113 0.25474 0.00732 0.0
C1571 C 0.78855 0.24694 0.99701 0.0
C1572 C 0.78485 0.25847 0.97216 0.0
C1573 C 0.80367 0.27772 0.95855 0.0
C1574 C 0.81602 0.24336 0.03418 0.0
C1575 C 0.761 0.25043 0.95987 0.0
C1576 C 0.74239 0.18548 0.01681 0.0
C1577 C 0.73019 0.18893 0.04051 0.0
C1578 C 0.76127 0.20415 0.00233 0.0
C1579 C 0.76859 0.22686 0.01234 0.0
C1580 C 0.75662 0.23039 0.03675 0.0
C1581 C 0.7374 0.21144 0.05021 0.0
C1582 C 0.77312 0.1996 0.97592 0.0
C1583 C 0.76414 0.2542 0.0487 0.0
H1584 H 0.84722 0.27961 1.00071 0.0
H1585 H 0.80073 0.28663 0.93979 0.0
H1586 H 0.80669 0.24401 0.05497 0.0
H1587 H 0.80959 0.22499 0.02896 0.0
H1588 H 0.83462 0.25169 0.03973 0.0
H1589 H 0.76111 0.2606 0.93955 0.0
H1590 H 0.75277 0.23208 0.95309 0.0
H1591 H 0.75018 0.25176 0.97818 0.0
H1592 H 0.73681 0.16815 0.00902 0.0
H1593 H 0.72814 0.21423 0.06863 0.0
H1594 H 0.79151 0.20642 0.98149 0.0
H1595 H 0.77242 0.20867 0.95487 0.0
H1596 H 0.76517 0.181 0.97063 0.0
H1597 H 0.78246 0.26278 0.05573 0.0
H1598 H 0.75372 0.25398 0.06877 0.0
H1599 H 0.76268 0.26477 0.03011 0.0
C1600 C 0.55566 0.82346 0.48838 0.0
C1601 C 0.53967 0.81993 0.46513 0.0
C1602 C 0.55605 0.80484 0.50268 0.0
C1603 C 0.54052 0.78211 0.49291 0.0
C1604 C 0.52484 0.77852 0.46871 0.0
C1605 C 0.52437 0.79743 0.45546 0.0
C1606 C 0.57262 0.80946 0.5289 0.0
C1607 C 0.5084 0.75468 0.45696 0.0
C1608 C 0.55361 0.73454 0.51377 0.0
C1609 C 0.53788 0.72312 0.5377 0.0
C1610 C 0.55462 0.75368 0.49886 0.0
C1611 C 0.54003 0.76204 0.50875 0.0
C1612 C 0.52462 0.75095 0.53358 0.0
C1613 C 0.52348 0.73145 0.54738 0.0
C1614 C 0.57084 0.76456 0.47199 0.0
C1615 C 0.50923 0.75961 0.54551 0.0
H1616 H 0.56741 0.8408 0.49614 0.0
H1617 H 0.51207 0.79459 0.43738 0.0
H1618 H 0.56291 0.80099 0.55026 0.0
H1619 H 0.58371 0.80203 0.52364 0.0
H1620 H 0.58376 0.8281 0.53353 0.0
H1621 H 0.4985 0.75491 0.43655 0.0
H1622 H 0.51796 0.74578 0.45056 0.0
H1623 H 0.4961 0.74441 0.47548 0.0
H1624 H 0.56462 0.72805 0.50599 0.0
H1625 H 0.51137 0.72276 0.56597 0.0
H1626 H 0.58284 0.783 0.4767 0.0
H1627 H 0.56095 0.76361 0.45096 0.0
H1628 H 0.58105 0.75606 0.46711 0.0
H1629 H 0.51965 0.77807 0.55163 0.0
H1630 H 0.49924 0.74995 0.56616 0.0
H1631 H 0.497 0.75811 0.52721 0.0
C1632 C 0.37283 0.41709 0.08186 0.0
C1633 C 0.38859 0.44001 0.0894 0.0
C1634 C 0.37972 0.4004 0.08066 0.0
C1635 C 0.40302 0.40698 0.08623 0.0
C1636 C 0.41903 0.4302 0.09298 0.0
C1637 C 0.41156 0.4462 0.09508 0.0
C1638 C 0.36204 0.3757 0.07424 0.0
C1639 C 0.44417 0.43823 0.09838 0.0
C1640 C 0.42734 0.3707 0.1161 0.0
C1641 C 0.43766 0.36814 0.08946 0.0
C1642 C 0.41365 0.38104 0.11473 0.0
C1643 C 0.41104 0.38989 0.08624 0.0
C1644 C 0.4202 0.38594 0.05892 0.0
C1645 C 0.43318 0.37482 0.06082 0.0
C1646 C 0.40366 0.38424 0.14429 0.0
C1647 C 0.41842 0.39556 0.02819 0.0
H1648 H 0.35502 0.41207 0.0777 0.0
H1649 H 0.42395 0.46373 0.10117 0.0
H1650 H 0.36755 0.36907 0.05453 0.0
H1651 H 0.36045 0.365 0.09466 0.0
H1652 H 0.34487 0.37351 0.06898 0.0
H1653 H 0.45469 0.45719 0.10085 0.0
H1654 H 0.44615 0.43022 0.11971 0.0
H1655 H 0.45118 0.43287 0.07893 0.0
H1656 H 0.43084 0.36554 0.13826 0.0
H1657 H 0.44148 0.37315 0.04028 0.0
H1658 H 0.38597 0.381 0.14044 0.0
H1659 H 0.41429 0.40223 0.15233 0.0
H1660 H 0.40326 0.37265 0.16291 0.0
H1661 H 0.40087 0.39277 0.02456 0.0
H1662 H 0.42281 0.38776 0.00863 0.0
H1663 H 0.43049 0.41437 0.02791 0.0
C1664 C 0.05309 0.41839 0.59195 0.0
C1665 C 0.06059 0.44194 0.59007 0.0
C1666 C 0.02944 0.40197 0.59276 0.0
C1667 C 0.01303 0.40932 0.59098 0.0
C1668 C 0.02062 0.43299 0.58741 0.0
C1669 C 0.0442 0.44893 0.58739 0.0
C1670 C 0.02206 0.37695 0.59701 0.0
C1671 C 1.00381 0.44165 0.58474 0.0
C1672 C 0.94954 0.37171 0.57274 0.0
C1673 C 0.93971 0.37108 0.60156 0.0
C1674 C 0.97355 0.38271 0.56916 0.0
C1675 C 0.98796 0.39291 0.59514 0.0
C1676 C 0.97796 0.39044 0.62473 0.0
C1677 C 0.95399 0.37983 0.62751 0.0
C1678 C 0.98345 0.38516 0.53717 0.0
C1679 C 0.9926 0.40057 0.65318 0.0
H1680 H 0.06567 0.41287 0.59422 0.0
H1681 H 0.04977 0.467 0.58564 0.0
H1682 H 0.0146 0.37132 0.62043 0.0
H1683 H 0.0085 0.3662 0.58011 0.0
H1684 H 0.03664 0.37371 0.59442 0.0
H1685 H 0.01247 0.4603 0.57937 0.0
H1686 H 0.991 0.43215 0.56639 0.0
H1687 H 0.99429 0.43862 0.60679 0.0
H1688 H 0.93858 0.36514 0.55256 0.0
H1689 H 0.94643 0.37921 0.64988 0.0
H1690 H 0.99816 0.38204 0.53743 0.0
H1691 H 0.98995 0.40297 0.52884 0.0
H1692 H 0.9704 0.37315 0.52049 0.0
H1693 H 0.00673 0.39657 0.65374 0.0
H1694 H 0.98241 0.3941 0.67478 0.0
H1695 H 1.00053 0.41955 0.65264 0.0
C1696 C 0.57292 0.95677 0.11897 0.0
C1697 C 0.57458 0.94067 0.1001 0.0
C1698 C 0.58787 0.98044 0.11533 0.0
C1699 C 0.60521 0.98845 0.09239 0.0
C1700 C 0.60772 0.97236 0.07413 0.0
C1701 C 0.59234 0.94866 0.07811 0.0
C1702 C 0.58447 0.99694 0.13531 0.0
C1703 C 0.62612 0.98019 0.04967 0.0
C1704 C 0.62169 0.04851 0.06585 0.0
C1705 C 0.64042 0.06203 0.08504 0.0
C1706 C 0.61109 0.02445 0.06627 0.0
C1707 C 0.61944 0.01368 0.08649 0.0
C1708 C 0.63947 0.02743 0.10423 0.0
C1709 C 0.64964 0.05151 0.10347 0.0
C1710 C 0.58978 0.01059 0.04703 0.0
C1711 C 0.64906 0.0167 0.12586 0.0
H1712 H 0.55939 0.95096 0.13613 0.0
H1713 H 0.59388 0.93647 0.06341 0.0
H1714 H 0.60071 0.00893 0.14726 0.0
H1715 H 0.57966 0.00742 0.12063 0.0
H1716 H 0.57085 0.98795 0.15299 0.0
H1717 H 0.62746 0.96567 0.03976 0.0
H1718 H 0.62221 0.98881 0.03069 0.0
H1719 H 0.64305 0.99293 0.05939 0.0
H1720 H 0.61444 0.05673 0.05189 0.0
H1721 H 0.6639 0.06202 0.11871 0.0
H1722 H 0.57452 1.0024 0.06238 0.0
H1723 H 0.59073 0.99666 0.03462 0.0
H1724 H 0.58718 0.02138 0.02986 0.0
H1725 H 0.63774 0.00972 0.14639 0.0
H1726 H 0.66663 0.02936 0.13387 0.0
H1727 H 0.64958 1.00219 0.11447 0.0
C1728 C 0.63458 0.58586 0.60942 0.0
C1729 C 0.63231 0.57215 0.58385 0.0
C1730 C 0.62515 0.60042 0.60911 0.0
C1731 C 0.61227 0.60043 0.58316 0.0
C1732 C 0.61104 0.58746 0.55665 0.0
C1733 C 0.62135 0.57369 0.55721 0.0
C1734 C 0.62751 0.61445 0.6375 0.0
C1735 C 0.59693 0.58628 0.52885 0.0
C1736 C 0.55991 0.60562 0.60195 0.0
C1737 C 0.56597 0.62758 0.59074 0.0
C1738 C 0.57471 0.5967 0.59921 0.0
C1739 C 0.59672 0.61029 0.58593 0.0
C1740 C 0.60339 0.63276 0.57536 0.0
C1741 C 0.5878 0.64103 0.57745 0.0
C1742 C 0.56653 0.57245 0.61019 0.0
C1743 C 0.62696 0.64802 0.56191 0.0
H1744 H 0.64294 0.58451 0.6301 0.0
H1745 H 0.61926 0.56273 0.53766 0.0
H1746 H 0.63095 0.63185 0.63097 0.0
H1747 H 0.6112 0.606 0.65078 0.0
H1748 H 0.64153 0.61616 0.65286 0.0
H1749 H 0.60028 0.57814 0.50871 0.0
H1750 H 0.5784 0.57602 0.53477 0.0
H1751 H 0.60049 0.60366 0.52208 0.0
H1752 H 0.54322 0.59497 0.61244 0.0
H1753 H 0.59276 0.65805 0.5689 0.0
H1754 H 0.57761 0.57264 0.6293 0.0
H1755 H 0.5678 0.56208 0.59115 0.0
H1756 H 0.54848 0.56374 0.61851 0.0
H1757 H 0.64031 0.64974 0.57854 0.0
H1758 H 0.62997 0.66542 0.55616 0.0
H1759 H 0.62915 0.64015 0.54062 0.0
C1760 C 0.95549 0.58581 0.12257 0.0
C1761 C 0.94311 0.57579 0.09548 0.0
C1762 C 0.97956 0.5996 0.12202 0.0
C1763 C 0.9916 0.60253 0.09394 0.0
C1764 C 0.979 0.59354 0.06621 0.0
C1765 C 0.95486 0.58054 0.06728 0.0
C1766 C 0.99216 0.60946 0.15197 0.0
C1767 C 0.99099 0.59552 0.03592 0.0
C1768 C 0.05707 0.64127 0.09003 0.0
C1769 C 0.06445 0.6257 0.09778 0.0
C1770 C 0.03342 0.63419 0.08896 0.0
C1771 C 0.01682 0.61087 0.0947 0.0
C1772 C 0.02425 0.59508 0.10184 0.0
C1773 C 0.04779 0.60277 0.10399 0.0
C1774 C 0.02619 0.65169 0.08231 0.0
C1775 C 0.00731 0.56991 0.10731 0.0
H1776 H 0.94639 0.58206 0.14441 0.0
H1777 H 0.94531 0.57243 0.0464 0.0
H1778 H 0.99944 0.59885 0.16047 0.0
H1779 H 0.00665 0.62719 0.14847 0.0
H1780 H 0.9806 0.60972 0.17011 0.0
H1781 H 0.97911 0.59097 0.01595 0.0
H1782 H 0.00562 0.61317 0.03252 0.0
H1783 H 0.99802 0.58369 0.03619 0.0
H1784 H 0.06974 0.65905 0.08551 0.0
H1785 H 0.05308 0.59053 0.11031 0.0
H1786 H 0.01628 0.65266 0.10219 0.0
H1787 H 0.01469 0.64639 0.06189 0.0
H1788 H 0.04111 0.66907 0.07798 0.0
H1789 H 0.99712 0.56786 0.12845 0.0
H1790 H 0.01591 0.55957 0.11014 0.0
H1791 H 0.99509 0.56274 0.08771 0.0
C1792 C 0.41694 0.05843 0.58489 0.0
C1793 C 0.44067 0.06662 0.58525 0.0
C1794 C 0.40107 0.03465 0.58373 0.0
C1795 C 0.40919 0.01884 0.5825 0.0
C1796 C 0.43312 0.0272 0.58084 0.0
C1797 C 0.44847 0.05087 0.58246 0.0
C1798 C 0.37571 0.02645 0.58563 0.0
C1799 C 0.44265 0.01108 0.579 0.0
C1800 C 0.38012 0.96006 0.61955 0.0
C1801 C 0.37279 0.94558 0.59371 0.0
C1802 C 0.3901 0.98391 0.61633 0.0
C1803 C 0.39331 0.99364 0.58643 0.0
C1804 C 0.38446 0.97897 0.56039 0.0
C1805 C 0.37412 0.95501 0.56437 0.0
C1806 C 0.39887 0.99879 0.64482 0.0
C1807 C 0.3876 0.98859 0.52813 0.0
H1808 H 0.41078 0.07051 0.58708 0.0
H1809 H 0.46672 0.05702 0.58222 0.0
H1810 H 0.36602 0.01266 0.56849 0.0
H1811 H 0.36925 0.01908 0.60889 0.0
H1812 H 0.37202 0.04062 0.58167 0.0
H1813 H 0.46148 0.02034 0.57484 0.0
H1814 H 0.43915 1.00136 0.60097 0.0
H1815 H 0.43411 0.99839 0.5602 0.0
H1816 H 0.37892 0.95276 0.64231 0.0
H1817 H 0.36859 0.94386 0.54433 0.0
H1818 H 0.39398 0.01229 0.6444 0.0
H1819 H 0.41792 0.00754 0.64534 0.0
H1820 H 0.39216 0.98863 0.66642 0.0
H1821 H 0.38403 0.003 0.52737 0.0
H1822 H 0.3763 0.97528 0.51122 0.0
H1823 H 0.40571 0.99545 0.52086 0.0
C1824 C 0.56844 0.61105 0.92809 0.0
C1825 C 0.57612 0.63321 0.91668 0.0
C1826 C 0.58303 0.60179 0.92917 0.0
C1827 C 0.60589 0.61495 0.91822 0.0
C1828 C 0.61424 0.638 0.90876 0.0
C1829 C 0.59921 0.64693 0.90821 0.0
C1830 C 0.57341 0.57727 0.93988 0.0
C1831 C 0.63847 0.65263 0.89705 0.0
C1832 C 0.64211 0.58661 0.93177 0.0
C1833 C 0.63746 0.57348 0.90475 0.0
C1834 C 0.63317 0.60145 0.93591 0.0
C1835 C 0.61943 0.60324 0.91242 0.0
C1836 C 0.61616 0.59126 0.88428 0.0
C1837 C 0.62513 0.57654 0.88086 0.0
C1838 C 0.63718 0.61401 0.96616 0.0
C1839 C 0.60185 0.59277 0.85843 0.0
H1840 H 0.55068 0.60061 0.93519 0.0
H1841 H 0.60512 0.66407 0.89929 0.0
H1842 H 0.5716 0.56624 0.91979 0.0
H1843 H 0.58528 0.57601 0.95653 0.0
H1844 H 0.55631 0.57037 0.951 0.0
H1845 H 0.64356 0.67108 0.89591 0.0
H1846 H 0.65081 0.65071 0.912 0.0
H1847 H 0.63981 0.64689 0.87349 0.0
H1848 H 0.6516 0.58433 0.95035 0.0
H1849 H 0.62174 0.56671 0.85972 0.0
H1850 H 0.62126 0.60545 0.98025 0.0
H1851 H 0.6413 0.63199 0.96223 0.0
H1852 H 0.65132 0.61415 0.97962 0.0
H1853 H 0.58359 0.58436 0.86573 0.0
H1854 H 0.60292 0.58431 0.83696 0.0
H1855 H 0.60748 0.61097 0.85312 0.0
C1856 C 0.95854 0.55902 0.41699 0.0
C1857 C 0.94149 0.56516 0.41987 0.0
C1858 C 0.98191 0.5753 0.41971 0.0
C1859 C 0.9887 0.59864 0.42482 0.0
C1860 C 0.97167 0.60501 0.4286 0.0
C1861 C 0.94821 0.58814 0.42634 0.0
C1862 C 0.99938 0.56755 0.416 0.0
C1863 C 0.97823 0.62973 0.43376 0.0
C1864 C 0.05165 0.6331 0.44744 0.0
C1865 C 0.06202 0.63903 0.41825 0.0
C1866 C 0.02755 0.62151 0.4504 0.0
C1867 C 0.01368 0.61615 0.42356 0.0
C1868 C 0.02431 0.62419 0.3944 0.0
C1869 C 0.04832 0.63522 0.39206 0.0
C1870 C 0.017 0.61309 0.48187 0.0
C1871 C 0.01031 0.6193 0.36523 0.0
H1872 H 0.9537 0.54138 0.41212 0.0
H1873 H 0.93521 0.59309 0.42851 0.0
H1874 H 0.00941 0.57496 0.39451 0.0
H1875 H 0.01167 0.5738 0.43559 0.0
H1876 H 0.99124 0.54856 0.41478 0.0
H1877 H 0.96316 0.63154 0.43983 0.0
H1878 H 0.9912 0.63743 0.45243 0.0
H1879 H 0.98615 0.63974 0.4124 0.0
H1880 H 0.06223 0.63581 0.46766 0.0
H1881 H 0.05638 0.63987 0.36948 0.0
H1882 H 0.01095 0.59446 0.48378 0.0
H1883 H 1.00189 0.61535 0.48522 0.0
H1884 H 0.02955 0.62215 0.50071 0.0
H1885 H 1.00288 0.60094 0.35896 0.0
H1886 H 0.02088 0.62993 0.34552 0.0
H1887 H 0.99584 0.62256 0.3688 0.0
C1888 C 0.41858 0.04841 0.89451 0.0
C1889 C 0.43547 0.05897 0.91728 0.0
C1890 C 0.40361 0.02447 0.89466 0.0
C1891 C 0.40621 0.01078 0.9175 0.0
C1892 C 0.42252 0.02167 0.94146 0.0
C1893 C 0.43681 0.04567 0.94119 0.0
C1894 C 0.38613 0.0137 0.86913 0.0
C1895 C 0.42634 0.00787 0.96586 0.0
C1896 C 0.36506 0.94605 0.92612 0.0
C1897 C 0.37633 0.93706 0.90856 0.0
C1898 C 0.37402 0.97001 0.92842 0.0
C1899 C 0.39497 0.98531 0.91341 0.0
C1900 C 0.40609 0.97629 0.8952 0.0
C1901 C 0.39653 0.95246 0.89269 0.0
C1902 C 0.36135 0.97895 0.94741 0.0
C1903 C 0.42863 0.99184 0.87913 0.0
H1904 H 0.41771 0.05875 0.87589 0.0
H1905 H 0.45009 0.0539 0.95858 0.0
H1906 H 0.39222 0.00562 0.85207 0.0
H1907 H 0.36948 1.00002 0.87845 0.0
H1908 H 0.38329 0.0266 0.85688 0.0
H1909 H 0.43768 0.01887 0.98477 0.0
H1910 H 0.40976 0.99472 0.97597 0.0
H1911 H 0.43445 0.99867 0.95513 0.0
H1912 H 0.34943 0.93442 0.93838 0.0
H1913 H 0.4055 0.94596 0.87893 0.0
H1914 H 0.35918 0.99181 0.93398 0.0
H1915 H 0.37152 0.98774 0.96829 0.0
H1916 H 0.34416 0.96499 0.95485 0.0
H1917 H 0.42661 0.00349 0.86293 0.0
H1918 H 0.43514 0.98208 0.86594 0.0
H1919 H 0.44182 1.00273 0.8964 0.0
C1920 C 0.38774 0.43862 0.3881 0.0
C1921 C 0.36825 0.43499 0.40481 0.0
C1922 C 0.39668 0.42384 0.39102 0.0
C1923 C 0.38571 0.40448 0.41072 0.0
C1924 C 0.36557 0.40013 0.42688 0.0
C1925 C 0.35717 0.41553 0.42393 0.0
C1926 C 0.41835 0.42938 0.37358 0.0
C1927 C 0.35318 0.37946 0.44768 0.0
C1928 C 0.40572 0.36207 0.39257 0.0
C1929 C 0.42381 0.36893 0.41356 0.0
C1930 C 0.39161 0.37201 0.39321 0.0
C1931 C 0.39616 0.38959 0.41489 0.0
C1932 C 0.41358 0.39546 0.43737 0.0
C1933 C 0.42719 0.38502 0.43643 0.0
C1934 C 0.37309 0.36501 0.36909 0.0
C1935 C 0.41927 0.41427 0.46066 0.0
H1936 H 0.39655 0.45351 0.3732 0.0
H1937 H 0.34209 0.41246 0.43689 0.0
H1938 H 0.43208 0.43201 0.3901 0.0
H1939 H 0.4152 0.41481 0.3584 0.0
H1940 H 0.42474 0.44506 0.35911 0.0
H1941 H 0.33682 0.37748 0.45674 0.0
H1942 H 0.34941 0.36362 0.43498 0.0
H1943 H 0.36434 0.38106 0.46752 0.0
H1944 H 0.4034 0.34986 0.3746 0.0
H1945 H 0.4415 0.39057 0.45229 0.0
H1946 H 0.37891 0.37854 0.35108 0.0
H1947 H 0.35716 0.36317 0.3795 0.0
H1948 H 0.369 0.34858 0.35773 0.0
H1949 H 0.42779 0.43115 0.44871 0.0
H1950 H 0.43096 0.41458 0.47904 0.0
H1951 H 0.40342 0.41216 0.4716 0.0
C1952 C 0.06521 0.42076 0.93717 0.0
C1953 C 0.0741 0.43409 0.91032 0.0
C1954 C 0.04132 0.40667 0.94145 0.0
C1955 C 0.02599 0.40587 0.91833 0.0
C1956 C 0.03497 0.41808 0.89037 0.0
C1957 C 0.05881 0.43199 0.88674 0.0
C1958 C 0.03249 0.3938 0.97149 0.0
C1959 C 0.01935 0.41767 0.86497 0.0
C1960 C 0.96151 0.3636 0.9154 0.0
C1961 C 0.95283 0.37762 0.92529 0.0
C1962 C 0.98539 0.37198 0.91483 0.0
C1963 C 1.00077 0.39483 0.92446 0.0
C1964 C 0.99183 0.40833 0.93658 0.0
C1965 C 0.96801 0.39957 0.93674 0.0
C1966 C 0.99416 0.35696 0.90195 0.0
C1967 C 0.00746 0.43266 0.94742 0.0
H1968 H 0.07681 0.42223 0.95556 0.0
H1969 H 0.06544 0.44197 0.86573 0.0
H1970 H 0.02548 0.40251 0.98591 0.0
H1971 H 0.01832 0.37603 0.96724 0.0
H1972 H 0.04625 0.39306 0.98476 0.0
H1973 H 0.02896 0.42622 0.84355 0.0
H1974 H 0.0062 0.39972 0.85933 0.0
H1975 H 0.01015 0.42658 0.87292 0.0
H1976 H 0.94976 0.34666 0.90634 0.0
H1977 H 0.96127 0.41026 0.94487 0.0
H1978 H 0.0083 0.35808 0.91644 0.0
H1979 H 1.0012 0.36303 0.87845 0.0
H1980 H 0.98035 0.3387 0.90036 0.0
H1981 H 0.02049 0.43332 0.96374 0.0
H1982 H 0.99782 0.44002 0.95897 0.0
H1983 H 0.0168 0.44369 0.92735 0.0
C1984 C 0.57086 0.9607 0.44426 0.0
C1985 C 0.57503 0.94668 0.4246 0.0
C1986 C 0.58477 0.9847 0.44328 0.0
C1987 C 0.6033 0.99487 0.42205 0.0
C1988 C 0.60863 0.9806 0.40388 0.0
C1989 C 0.59427 0.95659 0.4052 0.0
C1990 C 0.57836 0.99914 0.46303 0.0
C1991 C 0.62833 0.99069 0.38122 0.0
C1992 C 0.61336 0.05152 0.38931 0.0
C1993 C 0.63168 0.06773 0.40737 0.0
C1994 C 0.6046 0.02788 0.3932 0.0
C1995 C 0.61447 0.02002 0.41554 0.0
C1996 C 0.63368 0.0362 0.43283 0.0
C1997 C 0.64203 0.05988 0.42864 0.0
C1998 C 0.58406 0.01128 0.37423 0.0
C1999 C 0.64485 0.0285 0.45658 0.0
H2000 H 0.55586 0.95293 0.45913 0.0
H2001 H 0.59724 0.94568 0.38969 0.0
H2002 H 0.59377 0.01301 0.47467 0.0
H2003 H 0.57114 0.00744 0.44815 0.0
H2004 H 0.56539 0.98876 0.48088 0.0
H2005 H 0.63272 0.97769 0.37308 0.0
H2006 H 0.62356 0.99744 0.36085 0.0
H2007 H 0.64381 0.00525 0.39176 0.0
H2008 H 0.60524 0.05723 0.37265 0.0
H2009 H 0.65621 0.07217 0.44269 0.0
H2010 H 0.56916 1.00114 0.38968 0.0
H2011 H 0.58777 0.99899 0.36205 0.0
H2012 H 0.57909 0.02015 0.35682 0.0
H2013 H 0.63303 0.02052 0.47643 0.0
H2014 H 0.66125 0.04301 0.46531 0.0
H2015 H 0.64828 0.01529 0.44668 0.0
C2016 C 0.4989 0.60697 0.97624 0.0
C2017 C 0.49299 0.61745 0.95292 0.0
C2018 C 0.48207 0.58785 0.99235 0.0
C2019 C 0.45854 0.57884 0.98515 0.0
C2020 C 0.45253 0.58892 0.96068 0.0
C2021 C 0.4698 0.6085 0.94538 0.0
C2022 C 0.48972 0.57846 0.01835 0.0
C2023 C 0.42784 0.57913 0.95087 0.0
C2024 C 0.41458 0.51894 0.01408 0.0
C2025 C 0.40368 0.52397 0.03777 0.0
C2026 C 0.43293 0.53647 0.99752 0.0
C2027 C 0.44024 0.5598 0.00415 0.0
C2028 C 0.42957 0.56493 0.02877 0.0
C2029 C 0.41112 0.54695 0.04488 0.0
C2030 C 0.44373 0.52954 0.97245 0.0
C2031 C 0.43763 0.58942 0.0381 0.0
H2032 H 0.51684 0.61417 0.98249 0.0
H2033 H 0.46516 0.61703 0.92793 0.0
H2034 H 0.4885 0.58657 0.04 0.0
H2035 H 0.47879 0.55957 0.02032 0.0
H2036 H 0.50787 0.58272 0.01552 0.0
H2037 H 0.42617 0.58794 0.93015 0.0
H2038 H 0.42021 0.56055 0.94566 0.0
H2039 H 0.41773 0.58072 0.96997 0.0
H2040 H 0.40863 0.50113 0.00834 0.0
H2041 H 0.40226 0.55085 0.06268 0.0
H2042 H 0.46179 0.54282 0.96804 0.0
H2043 H 0.43355 0.52646 0.95107 0.0
H2044 H 0.44326 0.51323 0.97843 0.0
H2045 H 0.45641 0.59858 0.04252 0.0
H2046 H 0.42875 0.59046 0.05916 0.0
H2047 H 0.4345 0.59855 0.01904 0.0
C2048 C 0.85891 0.39905 0.55449 0.0
C2049 C 0.87448 0.3915 0.54821 0.0
C2050 C 0.86025 0.41799 0.53868 0.0
C2051 C 0.87697 0.42905 0.51514 0.0
C2052 C 0.89315 0.42174 0.5096 0.0
C2053 C 0.89147 0.40292 0.52588 0.0
C2054 C 0.84365 0.42607 0.54704 0.0
C2055 C 0.91202 0.43295 0.48603 0.0
C2056 C 0.85914 0.45852 0.45456 0.0
C2057 C 0.87331 0.48173 0.46197 0.0
C2058 C 0.86106 0.44128 0.47058 0.0
C2059 C 0.87664 0.44735 0.49566 0.0
C2060 C 0.89103 0.47087 0.50293 0.0
C2061 C 0.88914 0.48769 0.48609 0.0
C2062 C 0.84636 0.41658 0.46073 0.0
C2063 C 0.90772 0.47838 0.52937 0.0
H2064 H 0.84539 0.38982 0.57129 0.0
H2065 H 0.90342 0.39693 0.52086 0.0
H2066 H 0.85321 0.44481 0.55174 0.0
H2067 H 0.8319 0.42315 0.5274 0.0
H2068 H 0.83315 0.41704 0.56766 0.0
H2069 H 0.92824 0.43469 0.49528 0.0
H2070 H 0.90724 0.42162 0.46552 0.0
H2071 H 0.91534 0.45014 0.47901 0.0
H2072 H 0.84637 0.45383 0.43654 0.0
H2073 H 0.89983 0.50565 0.4922 0.0
H2074 H 0.83413 0.40652 0.4794 0.0
H2075 H 0.85738 0.40889 0.45653 0.0
H2076 H 0.83642 0.41489 0.43941 0.0
H2077 H 0.91996 0.49718 0.52918 0.0
H2078 H 0.91767 0.4693 0.52892 0.0
H2079 H 0.89783 0.47397 0.55118 0.0
C2080 C 0.40472 0.88769 0.99011 0.0
C2081 C 0.39382 0.8714 0.96677 0.0
C2082 C 0.42364 0.8893 0.00612 0.0
C2083 C 0.43193 0.87421 0.99872 0.0
C2084 C 0.42113 0.85792 0.97472 0.0
C2085 C 0.40182 0.85632 0.95961 0.0
C2086 C 0.434 0.90654 0.03183 0.0
C2087 C 0.42991 0.84214 0.96505 0.0
C2088 C 0.49247 0.88976 0.02373 0.0
C2089 C 0.48807 0.87397 0.04743 0.0
C2090 C 0.4745 0.89049 0.00831 0.0
C2091 C 0.45139 0.87492 0.01659 0.0
C2092 C 0.4469 0.85926 0.04118 0.0
C2093 C 0.46529 0.85858 0.05576 0.0
C2094 C 0.48051 0.9071 0.98196 0.0
C2095 C 0.42267 0.84307 0.0519 0.0
H2096 H 0.39817 0.899 0.99618 0.0
H2097 H 0.39274 0.84302 0.94253 0.0
H2098 H 0.42838 0.89721 0.05408 0.0
H2099 H 0.45302 0.91559 0.03093 0.0
H2100 H 0.42838 0.91952 0.03117 0.0
H2101 H 0.42034 0.83126 0.94499 0.0
H2102 H 0.4484 0.85243 0.95895 0.0
H2103 H 0.42844 0.83073 0.98449 0.0
H2104 H 0.5101 0.90132 0.01678 0.0
H2105 H 0.46183 0.84569 0.07323 0.0
H2106 H 0.46858 0.91394 0.98047 0.0
H2107 H 0.47934 0.89781 0.96029 0.0
H2108 H 0.49833 0.92179 0.98394 0.0
H2109 H 0.42217 0.83288 0.07239 0.0
H2110 H 0.41263 0.83102 0.03309 0.0
H2111 H 0.41402 0.85297 0.05775 0.0
C2112 C 0.53574 0.39973 0.44263 0.0
C2113 C 0.51308 0.39231 0.45165 0.0
C2114 C 0.5543 0.41925 0.45623 0.0
C2115 C 0.55011 0.43121 0.48003 0.0
C2116 C 0.52706 0.42412 0.48816 0.0
C2117 C 0.50893 0.40459 0.47429 0.0
C2118 C 0.57841 0.42675 0.44557 0.0
C2119 C 0.52126 0.43622 0.51264 0.0
C2120 C 0.59867 0.46174 0.53865 0.0
C2121 C 0.60788 0.48483 0.53032 0.0
C2122 C 0.57941 0.44425 0.52318 0.0
C2123 C 0.56974 0.44988 0.49784 0.0
C2124 C 0.57926 0.47327 0.48931 0.0
C2125 C 0.59817 0.49039 0.50558 0.0
C2126 C 0.56955 0.41971 0.53376 0.0
C2127 C 0.57006 0.48025 0.46233 0.0
H2128 H 0.53899 0.38993 0.42552 0.0
H2129 H 0.49139 0.39871 0.48147 0.0
H2130 H 0.58762 0.44536 0.44001 0.0
H2131 H 0.58804 0.42408 0.46439 0.0
H2132 H 0.57863 0.41711 0.42486 0.0
H2133 H 0.50371 0.4336 0.50941 0.0
H2134 H 0.52173 0.42885 0.53531 0.0
H2135 H 0.53367 0.45492 0.51292 0.0
H2136 H 0.60682 0.45731 0.55686 0.0
H2137 H 0.60564 0.50822 0.49866 0.0
H2138 H 0.57099 0.40927 0.51501 0.0
H2139 H 0.55101 0.41223 0.53909 0.0
H2140 H 0.57842 0.41827 0.55458 0.0
H2141 H 0.57458 0.4745 0.4408 0.0
H2142 H 0.57735 0.49914 0.46101 0.0
H2143 H 0.55109 0.47191 0.46372 0.0
C2144 C 0.15349 0.54378 0.95386 0.0
C2145 C 0.13875 0.52066 0.9613 0.0
C2146 C 0.15132 0.56131 0.96852 0.0
C2147 C 0.13466 0.55561 0.99213 0.0
C2148 C 0.11961 0.53214 0.99924 0.0
C2149 C 0.12195 0.51505 0.98393 0.0
C2150 C 0.16706 0.58594 0.95907 0.0
C2151 C 0.10188 0.52481 0.02433 0.0
C2152 C 0.14883 0.60285 0.0516 0.0
C2153 C 0.13357 0.61044 0.04339 0.0
C2154 C 0.14877 0.58448 0.03588 0.0
C2155 C 0.13383 0.57416 0.01037 0.0
C2156 C 0.11849 0.58198 0.00205 0.0
C2157 C 0.11863 0.60003 0.01854 0.0
C2158 C 0.16474 0.57616 0.04651 0.0
C2159 C 0.10245 0.57192 0.97505 0.0
H2160 H 0.16704 0.54817 0.93708 0.0
H2161 H 0.11084 0.49716 0.99012 0.0
H2162 H 0.15677 0.59416 0.95312 0.0
H2163 H 0.17843 0.59572 0.97861 0.0
H2164 H 0.17796 0.58739 0.93893 0.0
H2165 H 0.11042 0.52559 0.04655 0.0
H2166 H 0.09439 0.53619 0.0256 0.0
H2167 H 0.08771 0.50686 0.02098 0.0
H2168 H 0.16107 0.61153 0.07003 0.0
H2169 H 0.10714 0.60621 0.01177 0.0
H2170 H 0.17725 0.57885 0.02801 0.0
H2171 H 0.15475 0.55744 0.05131 0.0
H2172 H 0.17439 0.58518 0.06766 0.0
H2173 H 0.08932 0.57734 0.97442 0.0
H2174 H 0.09355 0.5529 0.97563 0.0
H2175 H 0.11274 0.57791 0.95358 0.0
C2176 C 0.5457 0.15047 0.55414 0.0
C2177 C 0.52257 0.13598 0.54655 0.0
C2178 C 0.5632 0.1486 0.53877 0.0
C2179 C 0.55747 0.13277 0.51405 0.0
C2180 C 0.53403 0.11818 0.50648 0.0
C2181 C 0.51697 0.11995 0.5228 0.0
C2182 C 0.58779 0.16356 0.54893 0.0
C2183 C 0.52679 0.10149 0.48007 0.0
C2184 C 0.60589 0.14972 0.45557 0.0
C2185 C 0.61319 0.134 0.46218 0.0
C2186 C 0.58711 0.14881 0.47131 0.0
C2187 C 0.576 0.1324 0.49518 0.0
C2188 C 0.58318 0.1162 0.50132 0.0
C2189 C 0.60182 0.11741 0.48503 0.0
C2190 C 0.57917 0.16543 0.46239 0.0
C2191 C 0.57198 0.09785 0.52561 0.0
H2192 H 0.55011 0.16344 0.5718 0.0
H2193 H 0.49908 0.10905 0.51645 0.0
H2194 H 0.59547 0.15267 0.55422 0.0
H2195 H 0.59805 0.17541 0.53002 0.0
H2196 H 0.58925 0.17393 0.56967 0.0
H2197 H 0.50826 0.08833 0.48119 0.0
H2198 H 0.52986 0.11128 0.45831 0.0
H2199 H 0.53693 0.09261 0.47949 0.0
H2200 H 0.61514 0.16301 0.4385 0.0
H2201 H 0.60767 0.10542 0.49041 0.0
H2202 H 0.58191 0.17724 0.48186 0.0
H2203 H 0.56047 0.15588 0.45735 0.0
H2204 H 0.58842 0.17586 0.44183 0.0
H2205 H 0.57245 0.08213 0.51896 0.0
H2206 H 0.55389 0.09305 0.52979 0.0
H2207 H 0.58184 0.10432 0.54735 0.0
C2208 C 0.54808 0.40121 0.04506 0.0
C2209 C 0.52491 0.39204 0.03722 0.0
C2210 C 0.56542 0.4205 0.02942 0.0
C2211 C 0.55953 0.43022 0.00438 0.0
C2212 C 0.53605 0.42087 0.99655 0.0
C2213 C 0.51911 0.40192 0.01296 0.0
C2214 C 0.59008 0.43029 0.03938 0.0
C2215 C 0.52872 0.43003 0.96986 0.0
C2216 C 0.60405 0.49053 0.97761 0.0
C2217 C 0.61552 0.4859 0.95425 0.0
C2218 C 0.58529 0.47268 0.99322 0.0
C2219 C 0.578 0.44949 0.98581 0.0
C2220 C 0.5892 0.44478 0.9615 0.0
C2221 C 0.60811 0.46304 0.94643 0.0
C2222 C 0.57415 0.47885 0.01867 0.0
C2223 C 0.58146 0.42045 0.95173 0.0
H2224 H 0.55268 0.39297 0.06297 0.0
H2225 H 0.50121 0.39449 0.0064 0.0
H2226 H 0.60021 0.42853 0.02044 0.0
H2227 H 0.59779 0.4489 0.04435 0.0
H2228 H 0.5917 0.42158 0.06027 0.0
H2229 H 0.51001 0.42393 0.97032 0.0
H2230 H 0.53823 0.44907 0.96976 0.0
H2231 H 0.53264 0.42395 0.94816 0.0
H2232 H 0.61004 0.50822 0.98403 0.0
H2233 H 0.61744 0.45942 0.92899 0.0
H2234 H 0.57818 0.49699 0.01704 0.0
H2235 H 0.58079 0.47659 0.041 0.0
H2236 H 0.55523 0.46753 0.01843 0.0
H2237 H 0.58427 0.41112 0.97082 0.0
H2238 H 0.5908 0.41974 0.93095 0.0
H2239 H 0.56277 0.41125 0.94663 0.0
C2240 C 0.11082 0.60256 0.48004 0.0
C2241 C 0.12823 0.61569 0.45894 0.0
C2242 C 0.1092 0.5829 0.49374 0.0
C2243 C 0.12608 0.57667 0.48724 0.0
C2244 C 0.14305 0.5893 0.46454 0.0
C2245 C 0.14416 0.60892 0.45103 0.0
C2246 C 0.08929 0.5694 0.51523 0.0
C2247 C 0.16009 0.58218 0.45458 0.0
C2248 C 0.14377 0.54664 0.54725 0.0
C2249 C 0.12935 0.52345 0.53994 0.0
C2250 C 0.14232 0.56404 0.53097 0.0
C2251 C 0.12709 0.5582 0.5055 0.0
C2252 C 0.11308 0.53476 0.4975 0.0
C2253 C 0.11424 0.51775 0.51493 0.0
C2254 C 0.15701 0.58867 0.54116 0.0
C2255 C 0.09729 0.52761 0.47005 0.0
H2256 H 0.0984 0.60776 0.48601 0.0
H2257 H 0.15779 0.61925 0.43485 0.0
H2258 H 0.08777 0.55302 0.52281 0.0
H2259 H 0.09104 0.58013 0.53561 0.0
H2260 H 0.07303 0.56551 0.50352 0.0
H2261 H 0.17015 0.59193 0.43402 0.0
H2262 H 0.17223 0.58504 0.47368 0.0
H2263 H 0.151 0.56356 0.44905 0.0
H2264 H 0.1563 0.55117 0.56556 0.0
H2265 H 0.10352 0.49983 0.50865 0.0
H2266 H 0.14594 0.59626 0.54579 0.0
H2267 H 0.16915 0.59896 0.52255 0.0
H2268 H 0.16707 0.59023 0.56229 0.0
H2269 H 0.08538 0.53446 0.47211 0.0
H2270 H 0.08698 0.50866 0.46742 0.0
H2271 H 0.10776 0.53494 0.44893 0.0
C2272 C 0.61016 0.14192 0.0547 0.0
C2273 C 0.61855 0.12735 0.04634 0.0
C2274 C 0.59036 0.13995 0.04054 0.0
C2275 C 0.57914 0.12352 0.01678 0.0
C2276 C 0.5873 0.10835 0.00916 0.0
C2277 C 0.60702 0.11066 0.02368 0.0
C2278 C 0.5817 0.15574 0.05063 0.0
C2279 C 0.57602 0.09034 0.98459 0.0
C2280 C 0.51895 0.10929 0.99128 0.0
C2281 C 0.52373 0.12426 0.96638 0.0
C2282 C 0.53665 0.10847 0.00742 0.0
C2283 C 0.55987 0.12316 0.99873 0.0
C2284 C 0.56472 0.13806 0.97308 0.0
C2285 C 0.54663 0.13877 0.95763 0.0
C2286 C 0.53032 0.09267 0.03474 0.0
C2287 C 0.58906 0.15352 0.96223 0.0
H2288 H 0.61939 0.15518 0.07179 0.0
H2289 H 0.61367 0.09955 0.01698 0.0
H2290 H 0.58367 0.16756 0.03147 0.0
H2291 H 0.56313 0.14558 0.05629 0.0
H2292 H 0.59108 0.16613 0.07114 0.0
H2293 H 0.55705 0.08208 0.98576 0.0
H2294 H 0.58182 0.09879 0.96182 0.0
H2295 H 0.58082 0.07679 0.98641 0.0
H2296 H 0.50125 0.09844 0.99853 0.0
H2297 H 0.55042 0.15105 0.93917 0.0
H2298 H 0.53328 0.10304 0.05593 0.0
H2299 H 0.54105 0.08443 0.03577 0.0
H2300 H 0.51195 0.07899 0.0343 0.0
H2301 H 0.59918 0.16593 0.98069 0.0
H2302 H 0.58988 0.16327 0.94108 0.0
H2303 H 0.59736 0.14314 0.95734 0.0
C2304 C 0.4591 0.60481 0.54506 0.0
C2305 C 0.48193 0.61242 0.53674 0.0
C2306 C 0.44079 0.58608 0.52985 0.0
C2307 C 0.4454 0.57552 0.50463 0.0
C2308 C 0.46853 0.58347 0.49606 0.0
C2309 C 0.48644 0.60177 0.51216 0.0
C2310 C 0.41653 0.57766 0.5407 0.0
C2311 C 0.4745 0.57342 0.46904 0.0
C2312 C 0.39913 0.51561 0.47952 0.0
C2313 C 0.38748 0.5205 0.45673 0.0
C2314 C 0.4183 0.53322 0.49462 0.0
C2315 C 0.42605 0.55648 0.48701 0.0
C2316 C 0.41461 0.56147 0.46331 0.0
C2317 C 0.3951 0.54342 0.44898 0.0
C2318 C 0.42918 0.52667 0.52001 0.0
C2319 C 0.42283 0.58587 0.45331 0.0
H2320 H 0.45556 0.61374 0.56312 0.0
H2321 H 0.5041 0.60805 0.5052 0.0
H2322 H 0.40638 0.57971 0.52207 0.0
H2323 H 0.4081 0.55906 0.54624 0.0
H2324 H 0.41592 0.58705 0.56144 0.0
H2325 H 0.46416 0.5544 0.46927 0.0
H2326 H 0.47056 0.57976 0.44759 0.0
H2327 H 0.493 0.57859 0.46867 0.0
H2328 H 0.3929 0.49787 0.48602 0.0
H2329 H 0.38552 0.54725 0.43219 0.0
H2330 H 0.42565 0.50876 0.5174 0.0
H2331 H 0.42159 0.52783 0.54219 0.0
H2332 H 0.44803 0.53831 0.52087 0.0
H2333 H 0.42124 0.59576 0.47269 0.0
H2334 H 0.41294 0.58677 0.43332 0.0
H2335 H 0.44128 0.59438 0.44692 0.0
C2336 C 0.87025 0.40454 0.9516 0.0
C2337 C 0.8851 0.39673 0.96096 0.0
C2338 C 0.87146 0.42419 0.96511 0.0
C2339 C 0.88728 0.43572 0.98942 0.0
C2340 C 0.90277 0.42818 0.99808 0.0
C2341 C 0.90128 0.40866 0.98406 0.0
C2342 C 0.85565 0.43244 0.95364 0.0
C2343 C 0.92025 0.43986 0.02321 0.0
C2344 C 0.89872 0.49489 0.0155 0.0
C2345 C 0.88247 0.48917 0.03898 0.0
C2346 C 0.90094 0.47787 0.99968 0.0
C2347 C 0.88634 0.45438 0.00724 0.0
C2348 C 0.87014 0.4486 0.03148 0.0
C2349 C 0.86805 0.46602 0.04655 0.0
C2350 C 0.91818 0.48534 0.97389 0.0
C2351 C 0.8548 0.42396 0.04128 0.0
H2352 H 0.85739 0.39502 0.93414 0.0
H2353 H 0.91265 0.40248 0.99151 0.0
H2354 H 0.84315 0.43019 0.97196 0.0
H2355 H 0.86573 0.45105 0.94813 0.0
H2356 H 0.84598 0.42301 0.9327 0.0
H2357 H 0.92757 0.45874 0.02266 0.0
H2358 H 0.91159 0.43328 0.04567 0.0
H2359 H 0.93454 0.4361 0.02151 0.0
H2360 H 0.90953 0.51279 0.00913 0.0
H2361 H 0.8548 0.46149 0.06382 0.0
H2362 H 0.93278 0.50299 0.97779 0.0
H2363 H 0.90946 0.48558 0.95228 0.0
H2364 H 0.92511 0.47359 0.97102 0.0
H2365 H 0.84331 0.41393 0.02196 0.0
H2366 H 0.84401 0.42243 0.06158 0.0
H2367 H 0.86542 0.41607 0.04709 0.0
C2368 C 0.46514 0.86517 0.45989 0.0
C2369 C 0.48808 0.87936 0.46869 0.0
C2370 C 0.44718 0.86609 0.47546 0.0
C2371 C 0.45222 0.88092 0.50121 0.0
C2372 C 0.47548 0.89532 0.50988 0.0
C2373 C 0.49304 0.89425 0.4937 0.0
C2374 C 0.42281 0.85105 0.46452 0.0
C2375 C 0.48191 0.91135 0.53692 0.0
C2376 C 0.40639 0.89526 0.52667 0.0
C2377 C 0.39484 0.87901 0.54981 0.0
C2378 C 0.42552 0.89666 0.51159 0.0
C2379 C 0.43317 0.88108 0.51925 0.0
C2380 C 0.42187 0.86497 0.54339 0.0
C2381 C 0.40258 0.86388 0.55804 0.0
C2382 C 0.43643 0.91399 0.48615 0.0
C2383 C 0.42984 0.84859 0.55332 0.0
H2384 H 0.46121 0.85304 0.4412 0.0
H2385 H 0.51076 0.90495 0.50087 0.0
H2386 H 0.41251 0.83861 0.48289 0.0
H2387 H 0.41482 0.86173 0.45976 0.0
H2388 H 0.42186 0.84137 0.44325 0.0
H2389 H 0.47285 0.9213 0.53571 0.0
H2390 H 0.4766 0.90096 0.55837 0.0
H2391 H 0.50069 0.92358 0.53814 0.0
H2392 H 0.40013 0.9067 0.5199 0.0
H2393 H 0.39322 0.85082 0.57535 0.0
H2394 H 0.42861 0.90525 0.46406 0.0
H2395 H 0.45524 0.92094 0.48518 0.0
H2396 H 0.43318 0.92855 0.48885 0.0
H2397 H 0.4203 0.83829 0.57385 0.0
H2398 H 0.44844 0.85827 0.5589 0.0
H2399 H 0.42748 0.8367 0.5341 0.0
loop_
_geom_bond_atom_site_label_1
_geom_bond_atom_site_label_2
_geom_bond_distance
_geom_bond_site_symmetry_2
_ccdc_geom_bond_type
Mn0 O5 2.095 . S
Mn0 O15 2.162 . S
Mn0 O16 2.297 . S
Mn0 O24 2.385 . S
Mn0 O25 2.209 . S
Mn0 O26 2.094 . S
Mn1 O6 2.121 . S
Mn1 N8 2.257 . S
Mn1 N17 2.282 . S
Mn1 O25 2.215 . S
Mn1 O27 2.117 . S
C2 O24 1.234 . S
C2 O25 1.283 . S
C3 O15 1.281 . S
C3 O16 1.236 . S
C4 O26 1.240 . S
C4 O27 1.264 . S
O5 Mn0 2.095 . S
O5 C14 1.250 . S
O6 Mn1 2.121 . S
O6 C14 1.258 . S
C7 N8 1.326 . S
C7 C11 1.460 . S
C7 H13 0.929 . S
N8 Mn1 2.257 . S
N8 C7 1.326 . S
N8 C12 1.362 . S
C9 C10 1.258 . S
C9 C12 1.431 . S
C9 C29 1.449 . S
C10 C9 1.258 . S
C10 C11 1.477 . S
C10 H30 0.931 . S
C11 C7 1.460 . S
C11 C10 1.477 . S
C11 H31 0.930 . S
C12 N8 1.362 . S
C12 C9 1.431 . S
C12 C22 1.476 . S
H13 C7 0.929 . S
C14 O5 1.250 . S
C14 O6 1.258 . S
O15 Mn0 2.162 . S
O15 C3 1.281 . S
O16 Mn0 2.297 . S
O16 C3 1.236 . S
N17 Mn1 2.282 . S
N17 C18 1.328 . S
N17 C22 1.318 . S
C18 N17 1.328 . S
C18 C19 1.457 . S
C18 H23 0.929 . S
C19 C18 1.457 . S
C19 C20 1.291 . S
C19 H32 0.931 . S
C20 C19 1.291 . S
C20 C21 1.373 . S
C20 H33 0.929 . S
C21 C20 1.373 . S
C21 C22 1.396 . S
C21 C28 1.403 . S
C22 C12 1.476 . S
C22 N17 1.318 . S
C22 C21 1.396 . S
H23 C18 0.929 . S
O24 Mn0 2.385 . S
O24 C2 1.234 . S
O25 Mn0 2.209 . S
O25 Mn1 2.215 . S
O25 C2 1.283 . S
O26 Mn0 2.094 . S
O26 C4 1.240 . S
O27 Mn1 2.117 . S
O27 C4 1.264 . S
C28 C21 1.403 . S
C28 C29 1.399 . S
C28 H34 0.929 . S
C29 C9 1.449 . S
C29 C28 1.399 . S
C29 H35 0.930 . S
H30 C10 0.931 . S
H31 C11 0.930 . S
H32 C19 0.931 . S
H33 C20 0.929 . S
H34 C28 0.929 . S
H35 C29 0.930 . S
Mn36 O41 2.095 . S
Mn36 O51 2.162 . S
Mn36 O52 2.297 . S
Mn36 O60 2.385 . S
Mn36 O61 2.209 . S
Mn36 O62 2.094 . S
Mn37 O42 2.121 . S
Mn37 N44 2.257 . S
Mn37 N53 2.282 . S
Mn37 O61 2.215 . S
Mn37 O63 2.117 . S
C38 O60 1.234 . S
C38 O61 1.283 . S
C39 O51 1.281 . S
C39 O52 1.236 . S
C40 O62 1.240 . S
C40 O63 1.264 . S
O41 Mn36 2.095 . S
O41 C50 1.250 . S
O42 Mn37 2.121 . S
O42 C50 1.258 . S
C43 N44 1.326 . S
C43 C47 1.460 . S
C43 H49 0.929 . S
N44 Mn37 2.257 . S
N44 C43 1.326 . S
N44 C48 1.362 . S
C45 C46 1.258 . S
C45 C48 1.431 . S
C45 C65 1.449 . S
C46 C45 1.258 . S
C46 C47 1.477 . S
C46 H66 0.931 . S
C47 C43 1.460 . S
C47 C46 1.477 . S
C47 H67 0.930 . S
C48 N44 1.362 . S
C48 C45 1.431 . S
C48 C58 1.476 . S
H49 C43 0.929 . S
C50 O41 1.250 . S
C50 O42 1.258 . S
O51 Mn36 2.162 . S
O51 C39 1.281 . S
O52 Mn36 2.297 . S
O52 C39 1.236 . S
N53 Mn37 2.282 . S
N53 C54 1.328 . S
N53 C58 1.318 . S
C54 N53 1.328 . S
C54 C55 1.457 . S
C54 H59 0.929 . S
C55 C54 1.457 . S
C55 C56 1.291 . S
C55 H68 0.931 . S
C56 C55 1.291 . S
C56 C57 1.373 . S
C56 H69 0.929 . S
C57 C56 1.373 . S
C57 C58 1.396 . S
C57 C64 1.403 . S
C58 C48 1.476 . S
C58 N53 1.318 . S
C58 C57 1.396 . S
H59 C54 0.929 . S
O60 Mn36 2.385 . S
O60 C38 1.234 . S
O61 Mn36 2.209 . S
O61 Mn37 2.215 . S
O61 C38 1.283 . S
O62 Mn36 2.094 . S
O62 C40 1.240 . S
O63 Mn37 2.117 . S
O63 C40 1.264 . S
C64 C57 1.403 . S
C64 C65 1.399 . S
C64 H70 0.929 . S
C65 C45 1.449 . S
C65 C64 1.399 . S
C65 H71 0.930 . S
H66 C46 0.931 . S
H67 C47 0.930 . S
H68 C55 0.931 . S
H69 C56 0.929 . S
H70 C64 0.929 . S
H71 C65 0.930 . S
Mn72 O77 2.095 . S
Mn72 O87 2.162 . S
Mn72 O88 2.297 . S
Mn72 O96 2.385 . S
Mn72 O97 2.209 . S
Mn72 O98 2.094 . S
Mn73 O78 2.121 . S
Mn73 N80 2.257 . S
Mn73 N89 2.282 . S
Mn73 O97 2.215 . S
Mn73 O99 2.117 . S
C74 O96 1.234 . S
C74 O97 1.283 . S
C75 O87 1.281 . S
C75 O88 1.236 . S
C76 O98 1.240 . S
C76 O99 1.264 . S
O77 Mn72 2.095 . S
O77 C86 1.250 . S
O78 Mn73 2.121 . S
O78 C86 1.258 . S
C79 N80 1.326 . S
C79 C83 1.460 . S
C79 H85 0.929 . S
N80 Mn73 2.257 . S
N80 C79 1.326 . S
N80 C84 1.362 . S
C81 C82 1.258 . S
C81 C84 1.431 . S
C81 C101 1.449 . S
C82 C81 1.258 . S
C82 C83 1.477 . S
C82 H102 0.931 . S
C83 C79 1.460 . S
C83 C82 1.477 . S
C83 H103 0.930 . S
C84 N80 1.362 . S
C84 C81 1.431 . S
C84 C94 1.476 . S
H85 C79 0.929 . S
C86 O77 1.250 . S
C86 O78 1.258 . S
O87 Mn72 2.162 . S
O87 C75 1.281 . S
O88 Mn72 2.297 . S
O88 C75 1.236 . S
N89 Mn73 2.282 . S
N89 C90 1.328 . S
N89 C94 1.318 . S
C90 N89 1.328 . S
C90 C91 1.457 . S
C90 H95 0.929 . S
C91 C90 1.457 . S
C91 C92 1.291 . S
C91 H104 0.931 . S
C92 C91 1.291 . S
C92 C93 1.373 . S
C92 H105 0.929 . S
C93 C92 1.373 . S
C93 C94 1.396 . S
C93 C100 1.403 . S
C94 C84 1.476 . S
C94 N89 1.318 . S
C94 C93 1.396 . S
H95 C90 0.929 . S
O96 Mn72 2.385 . S
O96 C74 1.234 . S
O97 Mn72 2.209 . S
O97 Mn73 2.215 . S
O97 C74 1.283 . S
O98 Mn72 2.094 . S
O98 C76 1.240 . S
O99 Mn73 2.117 . S
O99 C76 1.264 . S
C100 C93 1.403 . S
C100 C101 1.399 . S
C100 H106 0.929 . S
C101 C81 1.449 . S
C101 C100 1.399 . S
C101 H107 0.930 . S
H102 C82 0.931 . S
H103 C83 0.930 . S
H104 C91 0.931 . S
H105 C92 0.929 . S
H106 C100 0.929 . S
H107 C101 0.930 . S
Mn108 O113 2.095 . S
Mn108 O123 2.162 . S
Mn108 O124 2.297 . S
Mn108 O132 2.385 . S
Mn108 O133 2.209 . S
Mn108 O134 2.094 . S
Mn109 O114 2.121 . S
Mn109 N116 2.257 . S
Mn109 N125 2.282 . S
Mn109 O133 2.215 . S
Mn109 O135 2.117 . S
C110 O132 1.234 . S
C110 O133 1.283 . S
C111 O123 1.281 . S
C111 O124 1.236 . S
C112 O134 1.240 . S
C112 O135 1.264 . S
O113 Mn108 2.095 . S
O113 C122 1.250 . S
O114 Mn109 2.121 . S
O114 C122 1.258 . S
C115 N116 1.326 . S
C115 C119 1.460 . S
C115 H121 0.929 . S
N116 Mn109 2.257 . S
N116 C115 1.326 . S
N116 C120 1.362 . S
C117 C118 1.258 . S
C117 C120 1.431 . S
C117 C137 1.449 . S
C118 C117 1.258 . S
C118 C119 1.477 . S
C118 H138 0.931 . S
C119 C115 1.460 . S
C119 C118 1.477 . S
C119 H139 0.930 . S
C120 N116 1.362 . S
C120 C117 1.431 . S
C120 C130 1.476 . S
H121 C115 0.929 . S
C122 O113 1.250 . S
C122 O114 1.258 . S
O123 Mn108 2.162 . S
O123 C111 1.281 . S
O124 Mn108 2.297 . S
O124 C111 1.236 . S
N125 Mn109 2.282 . S
N125 C126 1.328 . S
N125 C130 1.318 . S
C126 N125 1.328 . S
C126 C127 1.457 . S
C126 H131 0.929 . S
C127 C126 1.457 . S
C127 C128 1.291 . S
C127 H140 0.931 . S
C128 C127 1.291 . S
C128 C129 1.373 . S
C128 H141 0.929 . S
C129 C128 1.373 . S
C129 C130 1.396 . S
C129 C136 1.403 . S
C130 C120 1.476 . S
C130 N125 1.318 . S
C130 C129 1.396 . S
H131 C126 0.929 . S
O132 Mn108 2.385 . S
O132 C110 1.234 . S
O133 Mn108 2.209 . S
O133 Mn109 2.215 . S
O133 C110 1.283 . S
O134 Mn108 2.094 . S
O134 C112 1.240 . S
O135 Mn109 2.117 . S
O135 C112 1.264 . S
C136 C129 1.403 . S
C136 C137 1.399 . S
C136 H142 0.929 . S
C137 C117 1.449 . S
C137 C136 1.399 . S
C137 H143 0.930 . S
H138 C118 0.931 . S
H139 C119 0.930 . S
H140 C127 0.931 . S
H141 C128 0.929 . S
H142 C136 0.929 . S
H143 C137 0.930 . S
Mn144 O149 2.095 . S
Mn144 O159 2.162 . S
Mn144 O160 2.297 . S
Mn144 O168 2.385 . S
Mn144 O169 2.209 . S
Mn144 O170 2.094 . S
Mn145 O150 2.121 . S
Mn145 N152 2.257 . S
Mn145 N161 2.282 . S
Mn145 O169 2.215 . S
Mn145 O171 2.117 . S
C146 O168 1.234 . S
C146 O169 1.283 . S
C147 O159 1.281 . S
C147 O160 1.236 . S
C148 O170 1.240 . S
C148 O171 1.264 . S
O149 Mn144 2.095 . S
O149 C158 1.250 . S
O150 Mn145 2.121 . S
O150 C158 1.258 . S
C151 N152 1.326 . S
C151 C155 1.460 . S
C151 H157 0.929 . S
N152 Mn145 2.257 . S
N152 C151 1.326 . S
N152 C156 1.362 . S
C153 C154 1.258 . S
C153 C156 1.431 . S
C153 C173 1.449 . S
C154 C153 1.258 . S
C154 C155 1.477 . S
C154 H174 0.931 . S
C155 C151 1.460 . S
C155 C154 1.477 . S
C155 H175 0.930 . S
C156 N152 1.362 . S
C156 C153 1.431 . S
C156 C166 1.476 . S
H157 C151 0.929 . S
C158 O149 1.250 . S
C158 O150 1.258 . S
O159 Mn144 2.162 . S
O159 C147 1.281 . S
O160 Mn144 2.297 . S
O160 C147 1.236 . S
N161 Mn145 2.282 . S
N161 C162 1.328 . S
N161 C166 1.318 . S
C162 N161 1.328 . S
C162 C163 1.457 . S
C162 H167 0.929 . S
C163 C162 1.457 . S
C163 C164 1.291 . S
C163 H176 0.931 . S
C164 C163 1.291 . S
C164 C165 1.373 . S
C164 H177 0.929 . S
C165 C164 1.373 . S
C165 C166 1.396 . S
C165 C172 1.403 . S
C166 C156 1.476 . S
C166 N161 1.318 . S
C166 C165 1.396 . S
H167 C162 0.929 . S
O168 Mn144 2.385 . S
O168 C146 1.234 . S
O169 Mn144 2.209 . S
O169 Mn145 2.215 . S
O169 C146 1.283 . S
O170 Mn144 2.094 . S
O170 C148 1.240 . S
O171 Mn145 2.117 . S
O171 C148 1.264 . S
C172 C165 1.403 . S
C172 C173 1.399 . S
C172 H178 0.929 . S
C173 C153 1.449 . S
C173 C172 1.399 . S
C173 H179 0.930 . S
H174 C154 0.931 . S
H175 C155 0.930 . S
H176 C163 0.931 . S
H177 C164 0.929 . S
H178 C172 0.929 . S
H179 C173 0.930 . S
Mn180 O185 2.095 . S
Mn180 O195 2.162 . S
Mn180 O196 2.297 . S
Mn180 O204 2.385 . S
Mn180 O205 2.209 . S
Mn180 O206 2.094 . S
Mn181 O186 2.121 . S
Mn181 N188 2.257 . S
Mn181 N197 2.282 . S
Mn181 O205 2.215 . S
Mn181 O207 2.117 . S
C182 O204 1.234 . S
C182 O205 1.283 . S
C183 O195 1.281 . S
C183 O196 1.236 . S
C184 O206 1.240 . S
C184 O207 1.264 . S
O185 Mn180 2.095 . S
O185 C194 1.250 . S
O186 Mn181 2.121 . S
O186 C194 1.258 . S
C187 N188 1.326 . S
C187 C191 1.460 . S
C187 H193 0.929 . S
N188 Mn181 2.257 . S
N188 C187 1.326 . S
N188 C192 1.362 . S
C189 C190 1.258 . S
C189 C192 1.431 . S
C189 C209 1.449 . S
C190 C189 1.258 . S
C190 C191 1.477 . S
C190 H210 0.931 . S
C191 C187 1.460 . S
C191 C190 1.477 . S
C191 H211 0.930 . S
C192 N188 1.362 . S
C192 C189 1.431 . S
C192 C202 1.476 . S
H193 C187 0.929 . S
C194 O185 1.250 . S
C194 O186 1.258 . S
O195 Mn180 2.162 . S
O195 C183 1.281 . S
O196 Mn180 2.297 . S
O196 C183 1.236 . S
N197 Mn181 2.282 . S
N197 C198 1.328 . S
N197 C202 1.318 . S
C198 N197 1.328 . S
C198 C199 1.457 . S
C198 H203 0.929 . S
C199 C198 1.457 . S
C199 C200 1.291 . S
C199 H212 0.931 . S
C200 C199 1.291 . S
C200 C201 1.373 . S
C200 H213 0.929 . S
C201 C200 1.373 . S
C201 C202 1.396 . S
C201 C208 1.403 . S
C202 C192 1.476 . S
C202 N197 1.318 . S
C202 C201 1.396 . S
H203 C198 0.929 . S
O204 Mn180 2.385 . S
O204 C182 1.234 . S
O205 Mn180 2.209 . S
O205 Mn181 2.215 . S
O205 C182 1.283 . S
O206 Mn180 2.094 . S
O206 C184 1.240 . S
O207 Mn181 2.117 . S
O207 C184 1.264 . S
C208 C201 1.403 . S
C208 C209 1.399 . S
C208 H214 0.929 . S
C209 C189 1.449 . S
C209 C208 1.399 . S
C209 H215 0.930 . S
H210 C190 0.931 . S
H211 C191 0.930 . S
H212 C199 0.931 . S
H213 C200 0.929 . S
H214 C208 0.929 . S
H215 C209 0.930 . S
Mn216 O221 2.095 . S
Mn216 O231 2.162 . S
Mn216 O232 2.297 . S
Mn216 O240 2.385 . S
Mn216 O241 2.209 . S
Mn216 O242 2.094 . S
Mn217 O222 2.121 . S
Mn217 N224 2.257 . S
Mn217 N233 2.282 . S
Mn217 O241 2.215 . S
Mn217 O243 2.117 . S
C218 O240 1.234 . S
C218 O241 1.283 . S
C219 O231 1.281 . S
C219 O232 1.236 . S
C220 O242 1.240 . S
C220 O243 1.264 . S
O221 Mn216 2.095 . S
O221 C230 1.250 . S
O222 Mn217 2.121 . S
O222 C230 1.258 . S
C223 N224 1.326 . S
C223 C227 1.460 . S
C223 H229 0.929 . S
N224 Mn217 2.257 . S
N224 C223 1.326 . S
N224 C228 1.362 . S
C225 C226 1.258 . S
C225 C228 1.431 . S
C225 C245 1.449 . S
C226 C225 1.258 . S
C226 C227 1.477 . S
C226 H246 0.931 . S
C227 C223 1.460 . S
C227 C226 1.477 . S
C227 H247 0.930 . S
C228 N224 1.362 . S
C228 C225 1.431 . S
C228 C238 1.476 . S
H229 C223 0.929 . S
C230 O221 1.250 . S
C230 O222 1.258 . S
O231 Mn216 2.162 . S
O231 C219 1.281 . S
O232 Mn216 2.297 . S
O232 C219 1.236 . S
N233 Mn217 2.282 . S
N233 C234 1.328 . S
N233 C238 1.318 . S
C234 N233 1.328 . S
C234 C235 1.457 . S
C234 H239 0.929 . S
C235 C234 1.457 . S
C235 C236 1.291 . S
C235 H248 0.931 . S
C236 C235 1.291 . S
C236 C237 1.373 . S
C236 H249 0.929 . S
C237 C236 1.373 . S
C237 C238 1.396 . S
C237 C244 1.403 . S
C238 C228 1.476 . S
C238 N233 1.318 . S
C238 C237 1.396 . S
H239 C234 0.929 . S
O240 Mn216 2.385 . S
O240 C218 1.234 . S
O241 Mn216 2.209 . S
O241 Mn217 2.215 . S
O241 C218 1.283 . S
O242 Mn216 2.094 . S
O242 C220 1.240 . S
O243 Mn217 2.117 . S
O243 C220 1.264 . S
C244 C237 1.403 . S
C244 C245 1.399 . S
C244 H250 0.929 . S
C245 C225 1.449 . S
C245 C244 1.399 . S
C245 H251 0.930 . S
H246 C226 0.931 . S
H247 C227 0.930 . S
H248 C235 0.931 . S
H249 C236 0.929 . S
H250 C244 0.929 . S
H251 C245 0.930 . S
Mn252 O257 2.095 . S
Mn252 O267 2.162 . S
Mn252 O268 2.297 . S
Mn252 O276 2.385 . S
Mn252 O277 2.209 . S
Mn252 O278 2.094 . S
Mn253 O258 2.121 . S
Mn253 N260 2.257 . S
Mn253 N269 2.282 . S
Mn253 O277 2.215 . S
Mn253 O279 2.117 . S
C254 O276 1.234 . S
C254 O277 1.283 . S
C255 O267 1.281 . S
C255 O268 1.236 . S
C256 O278 1.240 . S
C256 O279 1.264 . S
O257 Mn252 2.095 . S
O257 C266 1.250 . S
O258 Mn253 2.121 . S
O258 C266 1.258 . S
C259 N260 1.326 . S
C259 C263 1.460 . S
C259 H265 0.929 . S
N260 Mn253 2.257 . S
N260 C259 1.326 . S
N260 C264 1.362 . S
C261 C262 1.258 . S
C261 C264 1.431 . S
C261 C281 1.449 . S
C262 C261 1.258 . S
C262 C263 1.477 . S
C262 H282 0.931 . S
C263 C259 1.460 . S
C263 C262 1.477 . S
C263 H283 0.930 . S
C264 N260 1.362 . S
C264 C261 1.431 . S
C264 C274 1.476 . S
H265 C259 0.929 . S
C266 O257 1.250 . S
C266 O258 1.258 . S
O267 Mn252 2.162 . S
O267 C255 1.281 . S
O268 Mn252 2.297 . S
O268 C255 1.236 . S
N269 Mn253 2.282 . S
N269 C270 1.328 . S
N269 C274 1.318 . S
C270 N269 1.328 . S
C270 C271 1.457 . S
C270 H275 0.929 . S
C271 C270 1.457 . S
C271 C272 1.291 . S
C271 H284 0.931 . S
C272 C271 1.291 . S
C272 C273 1.373 . S
C272 H285 0.929 . S
C273 C272 1.373 . S
C273 C274 1.396 . S
C273 C280 1.403 . S
C274 C264 1.476 . S
C274 N269 1.318 . S
C274 C273 1.396 . S
H275 C270 0.929 . S
O276 Mn252 2.385 . S
O276 C254 1.234 . S
O277 Mn252 2.209 . S
O277 Mn253 2.215 . S
O277 C254 1.283 . S
O278 Mn252 2.094 . S
O278 C256 1.240 . S
O279 Mn253 2.117 . S
O279 C256 1.264 . S
C280 C273 1.403 . S
C280 C281 1.399 . S
C280 H286 0.929 . S
C281 C261 1.449 . S
C281 C280 1.399 . S
C281 H287 0.930 . S
H282 C262 0.931 . S
H283 C263 0.930 . S
H284 C271 0.931 . S
H285 C272 0.929 . S
H286 C280 0.929 . S
H287 C281 0.930 . S
Mn288 O293 2.095 . S
Mn288 O303 2.162 . S
Mn288 O304 2.297 . S
Mn288 O312 2.385 . S
Mn288 O313 2.209 . S
Mn288 O314 2.094 . S
Mn289 O294 2.121 . S
Mn289 N296 2.257 . S
Mn289 N305 2.282 . S
Mn289 O313 2.215 . S
Mn289 O315 2.117 . S
C290 O312 1.234 . S
C290 O313 1.283 . S
C291 O303 1.281 . S
C291 O304 1.236 . S
C292 O314 1.240 . S
C292 O315 1.264 . S
O293 Mn288 2.095 . S
O293 C302 1.250 . S
O294 Mn289 2.121 . S
O294 C302 1.258 . S
C295 N296 1.326 . S
C295 C299 1.460 . S
C295 H301 0.929 . S
N296 Mn289 2.257 . S
N296 C295 1.326 . S
N296 C300 1.362 . S
C297 C298 1.258 . S
C297 C300 1.431 . S
C297 C317 1.449 . S
C298 C297 1.258 . S
C298 C299 1.477 . S
C298 H318 0.931 . S
C299 C295 1.460 . S
C299 C298 1.477 . S
C299 H319 0.930 . S
C300 N296 1.362 . S
C300 C297 1.431 . S
C300 C310 1.476 . S
H301 C295 0.929 . S
C302 O293 1.250 . S
C302 O294 1.258 . S
O303 Mn288 2.162 . S
O303 C291 1.281 . S
O304 Mn288 2.297 . S
O304 C291 1.236 . S
N305 Mn289 2.282 . S
N305 C306 1.328 . S
N305 C310 1.318 . S
C306 N305 1.328 . S
C306 C307 1.457 . S
C306 H311 0.929 . S
C307 C306 1.457 . S
C307 C308 1.291 . S
C307 H320 0.931 . S
C308 C307 1.291 . S
C308 C309 1.373 . S
C308 H321 0.929 . S
C309 C308 1.373 . S
C309 C310 1.396 . S
C309 C316 1.403 . S
C310 C300 1.476 . S
C310 N305 1.318 . S
C310 C309 1.396 . S
H311 C306 0.929 . S
O312 Mn288 2.385 . S
O312 C290 1.234 . S
O313 Mn288 2.209 . S
O313 Mn289 2.215 . S
O313 C290 1.283 . S
O314 Mn288 2.094 . S
O314 C292 1.240 . S
O315 Mn289 2.117 . S
O315 C292 1.264 . S
C316 C309 1.403 . S
C316 C317 1.399 . S
C316 H322 0.929 . S
C317 C297 1.449 . S
C317 C316 1.399 . S
C317 H323 0.930 . S
H318 C298 0.931 . S
H319 C299 0.930 . S
H320 C307 0.931 . S
H321 C308 0.929 . S
H322 C316 0.929 . S
H323 C317 0.930 . S
Mn324 O329 2.095 . S
Mn324 O339 2.162 . S
Mn324 O340 2.297 . S
Mn324 O348 2.385 . S
Mn324 O349 2.209 . S
Mn324 O350 2.094 . S
Mn325 O330 2.121 . S
Mn325 N332 2.257 . S
Mn325 N341 2.282 . S
Mn325 O349 2.215 . S
Mn325 O351 2.117 . S
C326 O348 1.234 . S
C326 O349 1.283 . S
C327 O339 1.281 . S
C327 O340 1.236 . S
C328 O350 1.240 . S
C328 O351 1.264 . S
O329 Mn324 2.095 . S
O329 C338 1.250 . S
O330 Mn325 2.121 . S
O330 C338 1.258 . S
C331 N332 1.326 . S
C331 C335 1.460 . S
C331 H337 0.929 . S
N332 Mn325 2.257 . S
N332 C331 1.326 . S
N332 C336 1.362 . S
C333 C334 1.258 . S
C333 C336 1.431 . S
C333 C353 1.449 . S
C334 C333 1.258 . S
C334 C335 1.477 . S
C334 H354 0.931 . S
C335 C331 1.460 . S
C335 C334 1.477 . S
C335 H355 0.930 . S
C336 N332 1.362 . S
C336 C333 1.431 . S
C336 C346 1.476 . S
H337 C331 0.929 . S
C338 O329 1.250 . S
C338 O330 1.258 . S
O339 Mn324 2.162 . S
O339 C327 1.281 . S
O340 Mn324 2.297 . S
O340 C327 1.236 . S
N341 Mn325 2.282 . S
N341 C342 1.328 . S
N341 C346 1.318 . S
C342 N341 1.328 . S
C342 C343 1.457 . S
C342 H347 0.929 . S
C343 C342 1.457 . S
C343 C344 1.291 . S
C343 H356 0.931 . S
C344 C343 1.291 . S
C344 C345 1.373 . S
C344 H357 0.929 . S
C345 C344 1.373 . S
C345 C346 1.396 . S
C345 C352 1.403 . S
C346 C336 1.476 . S
C346 N341 1.318 . S
C346 C345 1.396 . S
H347 C342 0.929 . S
O348 Mn324 2.385 . S
O348 C326 1.234 . S
O349 Mn324 2.209 . S
O349 Mn325 2.215 . S
O349 C326 1.283 . S
O350 Mn324 2.094 . S
O350 C328 1.240 . S
O351 Mn325 2.117 . S
O351 C328 1.264 . S
C352 C345 1.403 . S
C352 C353 1.399 . S
C352 H358 0.929 . S
C353 C333 1.449 . S
C353 C352 1.399 . S
C353 H359 0.930 . S
H354 C334 0.931 . S
H355 C335 0.930 . S
H356 C343 0.931 . S
H357 C344 0.929 . S
H358 C352 0.929 . S
H359 C353 0.930 . S
Mn360 O365 2.095 . S
Mn360 O375 2.162 . S
Mn360 O376 2.297 . S
Mn360 O384 2.385 . S
Mn360 O385 2.209 . S
Mn360 O386 2.094 . S
Mn361 O366 2.121 . S
Mn361 N368 2.257 . S
Mn361 N377 2.282 . S
Mn361 O385 2.215 . S
Mn361 O387 2.117 . S
C362 O384 1.234 . S
C362 O385 1.283 . S
C363 O375 1.281 . S
C363 O376 1.236 . S
C364 O386 1.240 . S
C364 O387 1.264 . S
O365 Mn360 2.095 . S
O365 C374 1.250 . S
O366 Mn361 2.121 . S
O366 C374 1.258 . S
C367 N368 1.326 . S
C367 C371 1.460 . S
C367 H373 0.929 . S
N368 Mn361 2.257 . S
N368 C367 1.326 . S
N368 C372 1.362 . S
C369 C370 1.258 . S
C369 C372 1.431 . S
C369 C389 1.449 . S
C370 C369 1.258 . S
C370 C371 1.477 . S
C370 H390 0.931 . S
C371 C367 1.460 . S
C371 C370 1.477 . S
C371 H391 0.930 . S
C372 N368 1.362 . S
C372 C369 1.431 . S
C372 C382 1.476 . S
H373 C367 0.929 . S
C374 O365 1.250 . S
C374 O366 1.258 . S
O375 Mn360 2.162 . S
O375 C363 1.281 . S
O376 Mn360 2.297 . S
O376 C363 1.236 . S
N377 Mn361 2.282 . S
N377 C378 1.328 . S
N377 C382 1.318 . S
C378 N377 1.328 . S
C378 C379 1.457 . S
C378 H383 0.929 . S
C379 C378 1.457 . S
C379 C380 1.291 . S
C379 H392 0.931 . S
C380 C379 1.291 . S
C380 C381 1.373 . S
C380 H393 0.929 . S
C381 C380 1.373 . S
C381 C382 1.396 . S
C381 C388 1.403 . S
C382 C372 1.476 . S
C382 N377 1.318 . S
C382 C381 1.396 . S
H383 C378 0.929 . S
O384 Mn360 2.385 . S
O384 C362 1.234 . S
O385 Mn360 2.209 . S
O385 Mn361 2.215 . S
O385 C362 1.283 . S
O386 Mn360 2.094 . S
O386 C364 1.240 . S
O387 Mn361 2.117 . S
O387 C364 1.264 . S
C388 C381 1.403 . S
C388 C389 1.399 . S
C388 H394 0.929 . S
C389 C369 1.449 . S
C389 C388 1.399 . S
C389 H395 0.930 . S
H390 C370 0.931 . S
H391 C371 0.930 . S
H392 C379 0.931 . S
H393 C380 0.929 . S
H394 C388 0.929 . S
H395 C389 0.930 . S
Mn396 O401 2.095 . S
Mn396 O411 2.162 . S
Mn396 O412 2.297 . S
Mn396 O420 2.385 . S
Mn396 O421 2.209 . S
Mn396 O422 2.094 . S
Mn397 O402 2.121 . S
Mn397 N404 2.257 . S
Mn397 N413 2.282 . S
Mn397 O421 2.215 . S
Mn397 O423 2.117 . S
C398 O420 1.234 . S
C398 O421 1.283 . S
C399 O411 1.281 . S
C399 O412 1.236 . S
C400 O422 1.240 . S
C400 O423 1.264 . S
O401 Mn396 2.095 . S
O401 C410 1.250 . S
O402 Mn397 2.121 . S
O402 C410 1.258 . S
C403 N404 1.326 . S
C403 C407 1.460 . S
C403 H409 0.929 . S
N404 Mn397 2.257 . S
N404 C403 1.326 . S
N404 C408 1.362 . S
C405 C406 1.258 . S
C405 C408 1.431 . S
C405 C425 1.449 . S
C406 C405 1.258 . S
C406 C407 1.477 . S
C406 H426 0.931 . S
C407 C403 1.460 . S
C407 C406 1.477 . S
C407 H427 0.930 . S
C408 N404 1.362 . S
C408 C405 1.431 . S
C408 C418 1.476 . S
H409 C403 0.929 . S
C410 O401 1.250 . S
C410 O402 1.258 . S
O411 Mn396 2.162 . S
O411 C399 1.281 . S
O412 Mn396 2.297 . S
O412 C399 1.236 . S
N413 Mn397 2.282 . S
N413 C414 1.328 . S
N413 C418 1.318 . S
C414 N413 1.328 . S
C414 C415 1.457 . S
C414 H419 0.929 . S
C415 C414 1.457 . S
C415 C416 1.291 . S
C415 H428 0.931 . S
C416 C415 1.291 . S
C416 C417 1.373 . S
C416 H429 0.929 . S
C417 C416 1.373 . S
C417 C418 1.396 . S
C417 C424 1.403 . S
C418 C408 1.476 . S
C418 N413 1.318 . S
C418 C417 1.396 . S
H419 C414 0.929 . S
O420 Mn396 2.385 . S
O420 C398 1.234 . S
O421 Mn396 2.209 . S
O421 Mn397 2.215 . S
O421 C398 1.283 . S
O422 Mn396 2.094 . S
O422 C400 1.240 . S
O423 Mn397 2.117 . S
O423 C400 1.264 . S
C424 C417 1.403 . S
C424 C425 1.399 . S
C424 H430 0.929 . S
C425 C405 1.449 . S
C425 C424 1.399 . S
C425 H431 0.930 . S
H426 C406 0.931 . S
H427 C407 0.930 . S
H428 C415 0.931 . S
H429 C416 0.929 . S
H430 C424 0.929 . S
H431 C425 0.930 . S
Mn432 O437 2.095 . S
Mn432 O447 2.162 . S
Mn432 O448 2.297 . S
Mn432 O456 2.385 . S
Mn432 O457 2.209 . S
Mn432 O458 2.094 . S
Mn433 O438 2.121 . S
Mn433 N440 2.257 . S
Mn433 N449 2.282 . S
Mn433 O457 2.215 . S
Mn433 O459 2.117 . S
C434 O456 1.234 . S
C434 O457 1.283 . S
C435 O447 1.281 . S
C435 O448 1.236 . S
C436 O458 1.240 . S
C436 O459 1.264 . S
O437 Mn432 2.095 . S
O437 C446 1.250 . S
O438 Mn433 2.121 . S
O438 C446 1.258 . S
C439 N440 1.326 . S
C439 C443 1.460 . S
C439 H445 0.929 . S
N440 Mn433 2.257 . S
N440 C439 1.326 . S
N440 C444 1.362 . S
C441 C442 1.258 . S
C441 C444 1.431 . S
C441 C461 1.449 . S
C442 C441 1.258 . S
C442 C443 1.477 . S
C442 H462 0.931 . S
C443 C439 1.460 . S
C443 C442 1.477 . S
C443 H463 0.930 . S
C444 N440 1.362 . S
C444 C441 1.431 . S
C444 C454 1.476 . S
H445 C439 0.929 . S
C446 O437 1.250 . S
C446 O438 1.258 . S
O447 Mn432 2.162 . S
O447 C435 1.281 . S
O448 Mn432 2.297 . S
O448 C435 1.236 . S
N449 Mn433 2.282 . S
N449 C450 1.328 . S
N449 C454 1.318 . S
C450 N449 1.328 . S
C450 C451 1.457 . S
C450 H455 0.929 . S
C451 C450 1.457 . S
C451 C452 1.291 . S
C451 H464 0.931 . S
C452 C451 1.291 . S
C452 C453 1.373 . S
C452 H465 0.929 . S
C453 C452 1.373 . S
C453 C454 1.396 . S
C453 C460 1.403 . S
C454 C444 1.476 . S
C454 N449 1.318 . S
C454 C453 1.396 . S
H455 C450 0.929 . S
O456 Mn432 2.385 . S
O456 C434 1.234 . S
O457 Mn432 2.209 . S
O457 Mn433 2.215 . S
O457 C434 1.283 . S
O458 Mn432 2.094 . S
O458 C436 1.240 . S
O459 Mn433 2.117 . S
O459 C436 1.264 . S
C460 C453 1.403 . S
C460 C461 1.399 . S
C460 H466 0.929 . S
C461 C441 1.449 . S
C461 C460 1.399 . S
C461 H467 0.930 . S
H462 C442 0.931 . S
H463 C443 0.930 . S
H464 C451 0.931 . S
H465 C452 0.929 . S
H466 C460 0.929 . S
H467 C461 0.930 . S
Mn468 O473 2.095 . S
Mn468 O483 2.162 . S
Mn468 O484 2.297 . S
Mn468 O492 2.385 . S
Mn468 O493 2.209 . S
Mn468 O494 2.094 . S
Mn469 O474 2.121 . S
Mn469 N476 2.257 . S
Mn469 N485 2.282 . S
Mn469 O493 2.215 . S
Mn469 O495 2.117 . S
C470 O492 1.234 . S
C470 O493 1.283 . S
C471 O483 1.281 . S
C471 O484 1.236 . S
C472 O494 1.240 . S
C472 O495 1.264 . S
O473 Mn468 2.095 . S
O473 C482 1.250 . S
O474 Mn469 2.121 . S
O474 C482 1.258 . S
C475 N476 1.326 . S
C475 C479 1.460 . S
C475 H481 0.929 . S
N476 Mn469 2.257 . S
N476 C475 1.326 . S
N476 C480 1.362 . S
C477 C478 1.258 . S
C477 C480 1.431 . S
C477 C497 1.449 . S
C478 C477 1.258 . S
C478 C479 1.477 . S
C478 H498 0.931 . S
C479 C475 1.460 . S
C479 C478 1.477 . S
C479 H499 0.930 . S
C480 N476 1.362 . S
C480 C477 1.431 . S
C480 C490 1.476 . S
H481 C475 0.929 . S
C482 O473 1.250 . S
C482 O474 1.258 . S
O483 Mn468 2.162 . S
O483 C471 1.281 . S
O484 Mn468 2.297 . S
O484 C471 1.236 . S
N485 Mn469 2.282 . S
N485 C486 1.328 . S
N485 C490 1.318 . S
C486 N485 1.328 . S
C486 C487 1.457 . S
C486 H491 0.929 . S
C487 C486 1.457 . S
C487 C488 1.291 . S
C487 H500 0.931 . S
C488 C487 1.291 . S
C488 C489 1.373 . S
C488 H501 0.929 . S
C489 C488 1.373 . S
C489 C490 1.396 . S
C489 C496 1.403 . S
C490 C480 1.476 . S
C490 N485 1.318 . S
C490 C489 1.396 . S
H491 C486 0.929 . S
O492 Mn468 2.385 . S
O492 C470 1.234 . S
O493 Mn468 2.209 . S
O493 Mn469 2.215 . S
O493 C470 1.283 . S
O494 Mn468 2.094 . S
O494 C472 1.240 . S
O495 Mn469 2.117 . S
O495 C472 1.264 . S
C496 C489 1.403 . S
C496 C497 1.399 . S
C496 H502 0.929 . S
C497 C477 1.449 . S
C497 C496 1.399 . S
C497 H503 0.930 . S
H498 C478 0.931 . S
H499 C479 0.930 . S
H500 C487 0.931 . S
H501 C488 0.929 . S
H502 C496 0.929 . S
H503 C497 0.930 . S
Mn504 O509 2.095 . S
Mn504 O519 2.162 . S
Mn504 O520 2.297 . S
Mn504 O528 2.385 . S
Mn504 O529 2.209 . S
Mn504 O530 2.094 . S
Mn505 O510 2.121 . S
Mn505 N512 2.257 . S
Mn505 N521 2.282 . S
Mn505 O529 2.215 . S
Mn505 O531 2.117 . S
C506 O528 1.234 . S
C506 O529 1.283 . S
C507 O519 1.281 . S
C507 O520 1.236 . S
C508 O530 1.240 . S
C508 O531 1.264 . S
O509 Mn504 2.095 . S
O509 C518 1.250 . S
O510 Mn505 2.121 . S
O510 C518 1.258 . S
C511 N512 1.326 . S
C511 C515 1.460 . S
C511 H517 0.929 . S
N512 Mn505 2.257 . S
N512 C511 1.326 . S
N512 C516 1.362 . S
C513 C514 1.258 . S
C513 C516 1.431 . S
C513 C533 1.449 . S
C514 C513 1.258 . S
C514 C515 1.477 . S
C514 H534 0.931 . S
C515 C511 1.460 . S
C515 C514 1.477 . S
C515 H535 0.930 . S
C516 N512 1.362 . S
C516 C513 1.431 . S
C516 C526 1.476 . S
H517 C511 0.929 . S
C518 O509 1.250 . S
C518 O510 1.258 . S
O519 Mn504 2.162 . S
O519 C507 1.281 . S
O520 Mn504 2.297 . S
O520 C507 1.236 . S
N521 Mn505 2.282 . S
N521 C522 1.328 . S
N521 C526 1.318 . S
C522 N521 1.328 . S
C522 C523 1.457 . S
C522 H527 0.929 . S
C523 C522 1.457 . S
C523 C524 1.291 . S
C523 H536 0.931 . S
C524 C523 1.291 . S
C524 C525 1.373 . S
C524 H537 0.929 . S
C525 C524 1.373 . S
C525 C526 1.396 . S
C525 C532 1.403 . S
C526 C516 1.476 . S
C526 N521 1.318 . S
C526 C525 1.396 . S
H527 C522 0.929 . S
O528 Mn504 2.385 . S
O528 C506 1.234 . S
O529 Mn504 2.209 . S
O529 Mn505 2.215 . S
O529 C506 1.283 . S
O530 Mn504 2.094 . S
O530 C508 1.240 . S
O531 Mn505 2.117 . S
O531 C508 1.264 . S
C532 C525 1.403 . S
C532 C533 1.399 . S
C532 H538 0.929 . S
C533 C513 1.449 . S
C533 C532 1.399 . S
C533 H539 0.930 . S
H534 C514 0.931 . S
H535 C515 0.930 . S
H536 C523 0.931 . S
H537 C524 0.929 . S
H538 C532 0.929 . S
H539 C533 0.930 . S
Mn540 O545 2.095 . S
Mn540 O555 2.162 . S
Mn540 O556 2.297 . S
Mn540 O564 2.385 . S
Mn540 O565 2.209 . S
Mn540 O566 2.094 . S
Mn541 O546 2.121 . S
Mn541 N548 2.257 . S
Mn541 N557 2.282 . S
Mn541 O565 2.215 . S
Mn541 O567 2.117 . S
C542 O564 1.234 . S
C542 O565 1.283 . S
C543 O555 1.281 . S
C543 O556 1.236 . S
C544 O566 1.240 . S
C544 O567 1.264 . S
O545 Mn540 2.095 . S
O545 C554 1.250 . S
O546 Mn541 2.121 . S
O546 C554 1.258 . S
C547 N548 1.326 . S
C547 C551 1.460 . S
C547 H553 0.929 . S
N548 Mn541 2.257 . S
N548 C547 1.326 . S
N548 C552 1.362 . S
C549 C550 1.258 . S
C549 C552 1.431 . S
C549 C569 1.449 . S
C550 C549 1.258 . S
C550 C551 1.477 . S
C550 H570 0.931 . S
C551 C547 1.460 . S
C551 C550 1.477 . S
C551 H571 0.930 . S
C552 N548 1.362 . S
C552 C549 1.431 . S
C552 C562 1.476 . S
H553 C547 0.929 . S
C554 O545 1.250 . S
C554 O546 1.258 . S
O555 Mn540 2.162 . S
O555 C543 1.281 . S
O556 Mn540 2.297 . S
O556 C543 1.236 . S
N557 Mn541 2.282 . S
N557 C558 1.328 . S
N557 C562 1.318 . S
C558 N557 1.328 . S
C558 C559 1.457 . S
C558 H563 0.929 . S
C559 C558 1.457 . S
C559 C560 1.291 . S
C559 H572 0.931 . S
C560 C559 1.291 . S
C560 C561 1.373 . S
C560 H573 0.929 . S
C561 C560 1.373 . S
C561 C562 1.396 . S
C561 C568 1.403 . S
C562 C552 1.476 . S
C562 N557 1.318 . S
C562 C561 1.396 . S
H563 C558 0.929 . S
O564 Mn540 2.385 . S
O564 C542 1.234 . S
O565 Mn540 2.209 . S
O565 Mn541 2.215 . S
O565 C542 1.283 . S
O566 Mn540 2.094 . S
O566 C544 1.240 . S
O567 Mn541 2.117 . S
O567 C544 1.264 . S
C568 C561 1.403 . S
C568 C569 1.399 . S
C568 H574 0.929 . S
C569 C549 1.449 . S
C569 C568 1.399 . S
C569 H575 0.930 . S
H570 C550 0.931 . S
H571 C551 0.930 . S
H572 C559 0.931 . S
H573 C560 0.929 . S
H574 C568 0.929 . S
H575 C569 0.930 . S
Mn576 O581 2.095 . S
Mn576 O591 2.162 . S
Mn576 O592 2.297 . S
Mn576 O600 2.385 . S
Mn576 O601 2.209 . S
Mn576 O602 2.094 . S
Mn577 O582 2.121 . S
Mn577 N584 2.257 . S
Mn577 N593 2.282 . S
Mn577 O601 2.215 . S
Mn577 O603 2.117 . S
C578 O600 1.234 . S
C578 O601 1.283 . S
C579 O591 1.281 . S
C579 O592 1.236 . S
C580 O602 1.240 . S
C580 O603 1.264 . S
O581 Mn576 2.095 . S
O581 C590 1.250 . S
O582 Mn577 2.121 . S
O582 C590 1.258 . S
C583 N584 1.326 . S
C583 C587 1.460 . S
C583 H589 0.929 . S
N584 Mn577 2.257 . S
N584 C583 1.326 . S
N584 C588 1.362 . S
C585 C586 1.258 . S
C585 C588 1.431 . S
C585 C605 1.449 . S
C586 C585 1.258 . S
C586 C587 1.477 . S
C586 H606 0.931 . S
C587 C583 1.460 . S
C587 C586 1.477 . S
C587 H607 0.930 . S
C588 N584 1.362 . S
C588 C585 1.431 . S
C588 C598 1.476 . S
H589 C583 0.929 . S
C590 O581 1.250 . S
C590 O582 1.258 . S
O591 Mn576 2.162 . S
O591 C579 1.281 . S
O592 Mn576 2.297 . S
O592 C579 1.236 . S
N593 Mn577 2.282 . S
N593 C594 1.328 . S
N593 C598 1.318 . S
C594 N593 1.328 . S
C594 C595 1.457 . S
C594 H599 0.929 . S
C595 C594 1.457 . S
C595 C596 1.291 . S
C595 H608 0.931 . S
C596 C595 1.291 . S
C596 C597 1.373 . S
C596 H609 0.929 . S
C597 C596 1.373 . S
C597 C598 1.396 . S
C597 C604 1.403 . S
C598 C588 1.476 . S
C598 N593 1.318 . S
C598 C597 1.396 . S
H599 C594 0.929 . S
O600 Mn576 2.385 . S
O600 C578 1.234 . S
O601 Mn576 2.209 . S
O601 Mn577 2.215 . S
O601 C578 1.283 . S
O602 Mn576 2.094 . S
O602 C580 1.240 . S
O603 Mn577 2.117 . S
O603 C580 1.264 . S
C604 C597 1.403 . S
C604 C605 1.399 . S
C604 H610 0.929 . S
C605 C585 1.449 . S
C605 C604 1.399 . S
C605 H611 0.930 . S
H606 C586 0.931 . S
H607 C587 0.930 . S
H608 C595 0.931 . S
H609 C596 0.929 . S
H610 C604 0.929 . S
H611 C605 0.930 . S
Mn612 O617 2.095 . S
Mn612 O627 2.162 . S
Mn612 O628 2.297 . S
Mn612 O636 2.385 . S
Mn612 O637 2.209 . S
Mn612 O638 2.094 . S
Mn613 O618 2.121 . S
Mn613 N620 2.257 . S
Mn613 N629 2.282 . S
Mn613 O637 2.215 . S
Mn613 O639 2.117 . S
C614 O636 1.234 . S
C614 O637 1.283 . S
C615 O627 1.281 . S
C615 O628 1.236 . S
C616 O638 1.240 . S
C616 O639 1.264 . S
O617 Mn612 2.095 . S
O617 C626 1.250 . S
O618 Mn613 2.121 . S
O618 C626 1.258 . S
C619 N620 1.326 . S
C619 C623 1.460 . S
C619 H625 0.929 . S
N620 Mn613 2.257 . S
N620 C619 1.326 . S
N620 C624 1.362 . S
C621 C622 1.258 . S
C621 C624 1.431 . S
C621 C641 1.449 . S
C622 C621 1.258 . S
C622 C623 1.477 . S
C622 H642 0.931 . S
C623 C619 1.460 . S
C623 C622 1.477 . S
C623 H643 0.930 . S
C624 N620 1.362 . S
C624 C621 1.431 . S
C624 C634 1.476 . S
H625 C619 0.929 . S
C626 O617 1.250 . S
C626 O618 1.258 . S
O627 Mn612 2.162 . S
O627 C615 1.281 . S
O628 Mn612 2.297 . S
O628 C615 1.236 . S
N629 Mn613 2.282 . S
N629 C630 1.328 . S
N629 C634 1.318 . S
C630 N629 1.328 . S
C630 C631 1.457 . S
C630 H635 0.929 . S
C631 C630 1.457 . S
C631 C632 1.291 . S
C631 H644 0.931 . S
C632 C631 1.291 . S
C632 C633 1.373 . S
C632 H645 0.929 . S
C633 C632 1.373 . S
C633 C634 1.396 . S
C633 C640 1.403 . S
C634 C624 1.476 . S
C634 N629 1.318 . S
C634 C633 1.396 . S
H635 C630 0.929 . S
O636 Mn612 2.385 . S
O636 C614 1.234 . S
O637 Mn612 2.209 . S
O637 Mn613 2.215 . S
O637 C614 1.283 . S
O638 Mn612 2.094 . S
O638 C616 1.240 . S
O639 Mn613 2.117 . S
O639 C616 1.264 . S
C640 C633 1.403 . S
C640 C641 1.399 . S
C640 H646 0.929 . S
C641 C621 1.449 . S
C641 C640 1.399 . S
C641 H647 0.930 . S
H642 C622 0.931 . S
H643 C623 0.930 . S
H644 C631 0.931 . S
H645 C632 0.929 . S
H646 C640 0.929 . S
H647 C641 0.930 . S
Mn648 O653 2.095 . S
Mn648 O663 2.162 . S
Mn648 O664 2.297 . S
Mn648 O672 2.385 . S
Mn648 O673 2.209 . S
Mn648 O674 2.094 . S
Mn649 O654 2.121 . S
Mn649 N656 2.257 . S
Mn649 N665 2.282 . S
Mn649 O673 2.215 . S
Mn649 O675 2.117 . S
C650 O672 1.234 . S
C650 O673 1.283 . S
C651 O663 1.281 . S
C651 O664 1.236 . S
C652 O674 1.240 . S
C652 O675 1.264 . S
O653 Mn648 2.095 . S
O653 C662 1.250 . S
O654 Mn649 2.121 . S
O654 C662 1.258 . S
C655 N656 1.326 . S
C655 C659 1.460 . S
C655 H661 0.929 . S
N656 Mn649 2.257 . S
N656 C655 1.326 . S
N656 C660 1.362 . S
C657 C658 1.258 . S
C657 C660 1.431 . S
C657 C677 1.449 . S
C658 C657 1.258 . S
C658 C659 1.477 . S
C658 H678 0.931 . S
C659 C655 1.460 . S
C659 C658 1.477 . S
C659 H679 0.930 . S
C660 N656 1.362 . S
C660 C657 1.431 . S
C660 C670 1.476 . S
H661 C655 0.929 . S
C662 O653 1.250 . S
C662 O654 1.258 . S
O663 Mn648 2.162 . S
O663 C651 1.281 . S
O664 Mn648 2.297 . S
O664 C651 1.236 . S
N665 Mn649 2.282 . S
N665 C666 1.328 . S
N665 C670 1.318 . S
C666 N665 1.328 . S
C666 C667 1.457 . S
C666 H671 0.929 . S
C667 C666 1.457 . S
C667 C668 1.291 . S
C667 H680 0.931 . S
C668 C667 1.291 . S
C668 C669 1.373 . S
C668 H681 0.929 . S
C669 C668 1.373 . S
C669 C670 1.396 . S
C669 C676 1.403 . S
C670 C660 1.476 . S
C670 N665 1.318 . S
C670 C669 1.396 . S
H671 C666 0.929 . S
O672 Mn648 2.385 . S
O672 C650 1.234 . S
O673 Mn648 2.209 . S
O673 Mn649 2.215 . S
O673 C650 1.283 . S
O674 Mn648 2.094 . S
O674 C652 1.240 . S
O675 Mn649 2.117 . S
O675 C652 1.264 . S
C676 C669 1.403 . S
C676 C677 1.399 . S
C676 H682 0.929 . S
C677 C657 1.449 . S
C677 C676 1.399 . S
C677 H683 0.930 . S
H678 C658 0.931 . S
H679 C659 0.930 . S
H680 C667 0.931 . S
H681 C668 0.929 . S
H682 C676 0.929 . S
H683 C677 0.930 . S
Mn684 O689 2.095 . S
Mn684 O699 2.162 . S
Mn684 O700 2.297 . S
Mn684 O708 2.385 . S
Mn684 O709 2.209 . S
Mn684 O710 2.094 . S
Mn685 O690 2.121 . S
Mn685 N692 2.257 . S
Mn685 N701 2.282 . S
Mn685 O709 2.215 . S
Mn685 O711 2.117 . S
C686 O708 1.234 . S
C686 O709 1.283 . S
C687 O699 1.281 . S
C687 O700 1.236 . S
C688 O710 1.240 . S
C688 O711 1.264 . S
O689 Mn684 2.095 . S
O689 C698 1.250 . S
O690 Mn685 2.121 . S
O690 C698 1.258 . S
C691 N692 1.326 . S
C691 C695 1.460 . S
C691 H697 0.929 . S
N692 Mn685 2.257 . S
N692 C691 1.326 . S
N692 C696 1.362 . S
C693 C694 1.258 . S
C693 C696 1.431 . S
C693 C713 1.449 . S
C694 C693 1.258 . S
C694 C695 1.477 . S
C694 H714 0.931 . S
C695 C691 1.460 . S
C695 C694 1.477 . S
C695 H715 0.930 . S
C696 N692 1.362 . S
C696 C693 1.431 . S
C696 C706 1.476 . S
H697 C691 0.929 . S
C698 O689 1.250 . S
C698 O690 1.258 . S
O699 Mn684 2.162 . S
O699 C687 1.281 . S
O700 Mn684 2.297 . S
O700 C687 1.236 . S
N701 Mn685 2.282 . S
N701 C702 1.328 . S
N701 C706 1.318 . S
C702 N701 1.328 . S
C702 C703 1.457 . S
C702 H707 0.929 . S
C703 C702 1.457 . S
C703 C704 1.291 . S
C703 H716 0.931 . S
C704 C703 1.291 . S
C704 C705 1.373 . S
C704 H717 0.929 . S
C705 C704 1.373 . S
C705 C706 1.396 . S
C705 C712 1.403 . S
C706 C696 1.476 . S
C706 N701 1.318 . S
C706 C705 1.396 . S
H707 C702 0.929 . S
O708 Mn684 2.385 . S
O708 C686 1.234 . S
O709 Mn684 2.209 . S
O709 Mn685 2.215 . S
O709 C686 1.283 . S
O710 Mn684 2.094 . S
O710 C688 1.240 . S
O711 Mn685 2.117 . S
O711 C688 1.264 . S
C712 C705 1.403 . S
C712 C713 1.399 . S
C712 H718 0.929 . S
C713 C693 1.449 . S
C713 C712 1.399 . S
C713 H719 0.930 . S
H714 C694 0.931 . S
H715 C695 0.930 . S
H716 C703 0.931 . S
H717 C704 0.929 . S
H718 C712 0.929 . S
H719 C713 0.930 . S
Mn720 O725 2.095 . S
Mn720 O735 2.162 . S
Mn720 O736 2.297 . S
Mn720 O744 2.385 . S
Mn720 O745 2.209 . S
Mn720 O746 2.094 . S
Mn721 O726 2.121 . S
Mn721 N728 2.257 . S
Mn721 N737 2.282 . S
Mn721 O745 2.215 . S
Mn721 O747 2.117 . S
C722 O744 1.234 . S
C722 O745 1.283 . S
C723 O735 1.281 . S
C723 O736 1.236 . S
C724 O746 1.240 . S
C724 O747 1.264 . S
O725 Mn720 2.095 . S
O725 C734 1.250 . S
O726 Mn721 2.121 . S
O726 C734 1.258 . S
C727 N728 1.326 . S
C727 C731 1.460 . S
C727 H733 0.929 . S
N728 Mn721 2.257 . S
N728 C727 1.326 . S
N728 C732 1.362 . S
C729 C730 1.258 . S
C729 C732 1.431 . S
C729 C749 1.449 . S
C730 C729 1.258 . S
C730 C731 1.477 . S
C730 H750 0.931 . S
C731 C727 1.460 . S
C731 C730 1.477 . S
C731 H751 0.930 . S
C732 N728 1.362 . S
C732 C729 1.431 . S
C732 C742 1.476 . S
H733 C727 0.929 . S
C734 O725 1.250 . S
C734 O726 1.258 . S
O735 Mn720 2.162 . S
O735 C723 1.281 . S
O736 Mn720 2.297 . S
O736 C723 1.236 . S
N737 Mn721 2.282 . S
N737 C738 1.328 . S
N737 C742 1.318 . S
C738 N737 1.328 . S
C738 C739 1.457 . S
C738 H743 0.929 . S
C739 C738 1.457 . S
C739 C740 1.291 . S
C739 H752 0.931 . S
C740 C739 1.291 . S
C740 C741 1.373 . S
C740 H753 0.929 . S
C741 C740 1.373 . S
C741 C742 1.396 . S
C741 C748 1.403 . S
C742 C732 1.476 . S
C742 N737 1.318 . S
C742 C741 1.396 . S
H743 C738 0.929 . S
O744 Mn720 2.385 . S
O744 C722 1.234 . S
O745 Mn720 2.209 . S
O745 Mn721 2.215 . S
O745 C722 1.283 . S
O746 Mn720 2.094 . S
O746 C724 1.240 . S
O747 Mn721 2.117 . S
O747 C724 1.264 . S
C748 C741 1.403 . S
C748 C749 1.399 . S
C748 H754 0.929 . S
C749 C729 1.449 . S
C749 C748 1.399 . S
C749 H755 0.930 . S
H750 C730 0.931 . S
H751 C731 0.930 . S
H752 C739 0.931 . S
H753 C740 0.929 . S
H754 C748 0.929 . S
H755 C749 0.930 . S
Mn756 O761 2.095 . S
Mn756 O771 2.162 . S
Mn756 O772 2.297 . S
Mn756 O780 2.385 . S
Mn756 O781 2.209 . S
Mn756 O782 2.094 . S
Mn757 O762 2.121 . S
Mn757 N764 2.257 . S
Mn757 N773 2.282 . S
Mn757 O781 2.215 . S
Mn757 O783 2.117 . S
C758 O780 1.234 . S
C758 O781 1.283 . S
C759 O771 1.281 . S
C759 O772 1.236 . S
C760 O782 1.240 . S
C760 O783 1.264 . S
O761 Mn756 2.095 . S
O761 C770 1.250 . S
O762 Mn757 2.121 . S
O762 C770 1.258 . S
C763 N764 1.326 . S
C763 C767 1.460 . S
C763 H769 0.929 . S
N764 Mn757 2.257 . S
N764 C763 1.326 . S
N764 C768 1.362 . S
C765 C766 1.258 . S
C765 C768 1.431 . S
C765 C785 1.449 . S
C766 C765 1.258 . S
C766 C767 1.477 . S
C766 H786 0.931 . S
C767 C763 1.460 . S
C767 C766 1.477 . S
C767 H787 0.930 . S
C768 N764 1.362 . S
C768 C765 1.431 . S
C768 C778 1.476 . S
H769 C763 0.929 . S
C770 O761 1.250 . S
C770 O762 1.258 . S
O771 Mn756 2.162 . S
O771 C759 1.281 . S
O772 Mn756 2.297 . S
O772 C759 1.236 . S
N773 Mn757 2.282 . S
N773 C774 1.328 . S
N773 C778 1.318 . S
C774 N773 1.328 . S
C774 C775 1.457 . S
C774 H779 0.929 . S
C775 C774 1.457 . S
C775 C776 1.291 . S
C775 H788 0.931 . S
C776 C775 1.291 . S
C776 C777 1.373 . S
C776 H789 0.929 . S
C777 C776 1.373 . S
C777 C778 1.396 . S
C777 C784 1.403 . S
C778 C768 1.476 . S
C778 N773 1.318 . S
C778 C777 1.396 . S
H779 C774 0.929 . S
O780 Mn756 2.385 . S
O780 C758 1.234 . S
O781 Mn756 2.209 . S
O781 Mn757 2.215 . S
O781 C758 1.283 . S
O782 Mn756 2.094 . S
O782 C760 1.240 . S
O783 Mn757 2.117 . S
O783 C760 1.264 . S
C784 C777 1.403 . S
C784 C785 1.399 . S
C784 H790 0.929 . S
C785 C765 1.449 . S
C785 C784 1.399 . S
C785 H791 0.930 . S
H786 C766 0.931 . S
H787 C767 0.930 . S
H788 C775 0.931 . S
H789 C776 0.929 . S
H790 C784 0.929 . S
H791 C785 0.930 . S
Mn792 O797 2.095 . S
Mn792 O807 2.162 . S
Mn792 O808 2.297 . S
Mn792 O816 2.385 . S
Mn792 O817 2.209 . S
Mn792 O818 2.094 . S
Mn793 O798 2.121 . S
Mn793 N800 2.257 . S
Mn793 N809 2.282 . S
Mn793 O817 2.215 . S
Mn793 O819 2.117 . S
C794 O816 1.234 . S
C794 O817 1.283 . S
C795 O807 1.281 . S
C795 O808 1.236 . S
C796 O818 1.240 . S
C796 O819 1.264 . S
O797 Mn792 2.095 . S
O797 C806 1.250 . S
O798 Mn793 2.121 . S
O798 C806 1.258 . S
C799 N800 1.326 . S
C799 C803 1.460 . S
C799 H805 0.929 . S
N800 Mn793 2.257 . S
N800 C799 1.326 . S
N800 C804 1.362 . S
C801 C802 1.258 . S
C801 C804 1.431 . S
C801 C821 1.449 . S
C802 C801 1.258 . S
C802 C803 1.477 . S
C802 H822 0.931 . S
C803 C799 1.460 . S
C803 C802 1.477 . S
C803 H823 0.930 . S
C804 N800 1.362 . S
C804 C801 1.431 . S
C804 C814 1.476 . S
H805 C799 0.929 . S
C806 O797 1.250 . S
C806 O798 1.258 . S
O807 Mn792 2.162 . S
O807 C795 1.281 . S
O808 Mn792 2.297 . S
O808 C795 1.236 . S
N809 Mn793 2.282 . S
N809 C810 1.328 . S
N809 C814 1.318 . S
C810 N809 1.328 . S
C810 C811 1.457 . S
C810 H815 0.929 . S
C811 C810 1.457 . S
C811 C812 1.291 . S
C811 H824 0.931 . S
C812 C811 1.291 . S
C812 C813 1.373 . S
C812 H825 0.929 . S
C813 C812 1.373 . S
C813 C814 1.396 . S
C813 C820 1.403 . S
C814 C804 1.476 . S
C814 N809 1.318 . S
C814 C813 1.396 . S
H815 C810 0.929 . S
O816 Mn792 2.385 . S
O816 C794 1.234 . S
O817 Mn792 2.209 . S
O817 Mn793 2.215 . S
O817 C794 1.283 . S
O818 Mn792 2.094 . S
O818 C796 1.240 . S
O819 Mn793 2.117 . S
O819 C796 1.264 . S
C820 C813 1.403 . S
C820 C821 1.399 . S
C820 H826 0.929 . S
C821 C801 1.449 . S
C821 C820 1.399 . S
C821 H827 0.930 . S
H822 C802 0.931 . S
H823 C803 0.930 . S
H824 C811 0.931 . S
H825 C812 0.929 . S
H826 C820 0.929 . S
H827 C821 0.930 . S
Mn828 O833 2.095 . S
Mn828 O843 2.162 . S
Mn828 O844 2.297 . S
Mn828 O852 2.385 . S
Mn828 O853 2.209 . S
Mn828 O854 2.094 . S
Mn829 O834 2.121 . S
Mn829 N836 2.257 . S
Mn829 N845 2.282 . S
Mn829 O853 2.215 . S
Mn829 O855 2.117 . S
C830 O852 1.234 . S
C830 O853 1.283 . S
C831 O843 1.281 . S
C831 O844 1.236 . S
C832 O854 1.240 . S
C832 O855 1.264 . S
O833 Mn828 2.095 . S
O833 C842 1.250 . S
O834 Mn829 2.121 . S
O834 C842 1.258 . S
C835 N836 1.326 . S
C835 C839 1.460 . S
C835 H841 0.929 . S
N836 Mn829 2.257 . S
N836 C835 1.326 . S
N836 C840 1.362 . S
C837 C838 1.258 . S
C837 C840 1.431 . S
C837 C857 1.449 . S
C838 C837 1.258 . S
C838 C839 1.477 . S
C838 H858 0.931 . S
C839 C835 1.460 . S
C839 C838 1.477 . S
C839 H859 0.930 . S
C840 N836 1.362 . S
C840 C837 1.431 . S
C840 C850 1.476 . S
H841 C835 0.929 . S
C842 O833 1.250 . S
C842 O834 1.258 . S
O843 Mn828 2.162 . S
O843 C831 1.281 . S
O844 Mn828 2.297 . S
O844 C831 1.236 . S
N845 Mn829 2.282 . S
N845 C846 1.328 . S
N845 C850 1.318 . S
C846 N845 1.328 . S
C846 C847 1.457 . S
C846 H851 0.929 . S
C847 C846 1.457 . S
C847 C848 1.291 . S
C847 H860 0.931 . S
C848 C847 1.291 . S
C848 C849 1.373 . S
C848 H861 0.929 . S
C849 C848 1.373 . S
C849 C850 1.396 . S
C849 C856 1.403 . S
C850 C840 1.476 . S
C850 N845 1.318 . S
C850 C849 1.396 . S
H851 C846 0.929 . S
O852 Mn828 2.385 . S
O852 C830 1.234 . S
O853 Mn828 2.209 . S
O853 Mn829 2.215 . S
O853 C830 1.283 . S
O854 Mn828 2.094 . S
O854 C832 1.240 . S
O855 Mn829 2.117 . S
O855 C832 1.264 . S
C856 C849 1.403 . S
C856 C857 1.399 . S
C856 H862 0.929 . S
C857 C837 1.449 . S
C857 C856 1.399 . S
C857 H863 0.930 . S
H858 C838 0.931 . S
H859 C839 0.930 . S
H860 C847 0.931 . S
H861 C848 0.929 . S
H862 C856 0.929 . S
H863 C857 0.930 . S
C864 C865 1.391 . S
C864 C866 1.394 . S
C864 H880 0.931 . S
C865 C864 1.391 . S
C865 C869 1.376 . S
C866 C864 1.394 . S
C866 C867 1.369 . S
C866 C870 1.531 . S
C867 C866 1.369 . S
C867 C868 1.410 . S
C867 C875 1.503 . S
C868 C867 1.410 . S
C868 C869 1.392 . S
C868 C871 1.511 . S
C869 C865 1.376 . S
C869 C868 1.392 . S
C869 H881 0.929 . S
C870 C866 1.531 . S
C870 H882 0.960 . S
C870 H883 0.962 . S
C870 H884 0.960 . S
C871 C868 1.511 . S
C871 H885 0.961 . S
C871 H886 0.961 . S
C871 H887 0.961 . S
C872 C873 1.370 . S
C872 C874 1.363 . S
C872 H888 0.931 . S
C873 C872 1.370 . S
C873 C877 1.408 . S
C874 C872 1.363 . S
C874 C875 1.370 . S
C874 C878 1.524 . S
C875 C867 1.503 . S
C875 C874 1.370 . S
C875 C876 1.403 . S
C876 C875 1.403 . S
C876 C877 1.404 . S
C876 C879 1.539 . S
C877 C873 1.408 . S
C877 C876 1.404 . S
C877 H889 0.930 . S
C878 C874 1.524 . S
C878 H890 0.956 . S
C878 H891 0.961 . S
C878 H892 0.961 . S
C879 C876 1.539 . S
C879 H893 0.958 . S
C879 H894 0.961 . S
C879 H895 0.960 . S
H880 C864 0.931 . S
H881 C869 0.929 . S
H882 C870 0.960 . S
H883 C870 0.962 . S
H884 C870 0.960 . S
H885 C871 0.961 . S
H886 C871 0.961 . S
H887 C871 0.961 . S
H888 C872 0.931 . S
H889 C877 0.930 . S
H890 C878 0.956 . S
H891 C878 0.961 . S
H892 C878 0.961 . S
H893 C879 0.958 . S
H894 C879 0.961 . S
H895 C879 0.960 . S
C896 C897 1.391 . S
C896 C898 1.394 . S
C896 H912 0.931 . S
C897 C896 1.391 . S
C897 C901 1.376 . S
C898 C896 1.394 . S
C898 C899 1.369 . S
C898 C902 1.531 . S
C899 C898 1.369 . S
C899 C900 1.410 . S
C899 C907 1.503 . S
C900 C899 1.410 . S
C900 C901 1.392 . S
C900 C903 1.511 . S
C901 C897 1.376 . S
C901 C900 1.392 . S
C901 H913 0.929 . S
C902 C898 1.531 . S
C902 H914 0.960 . S
C902 H915 0.962 . S
C902 H916 0.960 . S
C903 C900 1.511 . S
C903 H917 0.961 . S
C903 H918 0.961 . S
C903 H919 0.961 . S
C904 C905 1.370 . S
C904 C906 1.363 . S
C904 H920 0.931 . S
C905 C904 1.370 . S
C905 C909 1.408 . S
C906 C904 1.363 . S
C906 C907 1.370 . S
C906 C910 1.524 . S
C907 C899 1.503 . S
C907 C906 1.370 . S
C907 C908 1.403 . S
C908 C907 1.403 . S
C908 C909 1.404 . S
C908 C911 1.539 . S
C909 C905 1.408 . S
C909 C908 1.404 . S
C909 H921 0.930 . S
C910 C906 1.524 . S
C910 H922 0.956 . S
C910 H923 0.961 . S
C910 H924 0.961 . S
C911 C908 1.539 . S
C911 H925 0.958 . S
C911 H926 0.961 . S
C911 H927 0.960 . S
H912 C896 0.931 . S
H913 C901 0.929 . S
H914 C902 0.960 . S
H915 C902 0.962 . S
H916 C902 0.960 . S
H917 C903 0.961 . S
H918 C903 0.961 . S
H919 C903 0.961 . S
H920 C904 0.931 . S
H921 C909 0.930 . S
H922 C910 0.956 . S
H923 C910 0.961 . S
H924 C910 0.961 . S
H925 C911 0.958 . S
H926 C911 0.961 . S
H927 C911 0.960 . S
C928 C929 1.391 . S
C928 C930 1.394 . S
C928 H944 0.931 . S
C929 C928 1.391 . S
C929 C933 1.376 . S
C930 C928 1.394 . S
C930 C931 1.369 . S
C930 C934 1.531 . S
C931 C930 1.369 . S
C931 C932 1.410 . S
C931 C939 1.503 . S
C932 C931 1.410 . S
C932 C933 1.392 . S
C932 C935 1.511 . S
C933 C929 1.376 . S
C933 C932 1.392 . S
C933 H945 0.929 . S
C934 C930 1.531 . S
C934 H946 0.960 . S
C934 H947 0.962 . S
C934 H948 0.960 . S
C935 C932 1.511 . S
C935 H949 0.961 . S
C935 H950 0.961 . S
C935 H951 0.961 . S
C936 C937 1.370 . S
C936 C938 1.363 . S
C936 H952 0.931 . S
C937 C936 1.370 . S
C937 C941 1.408 . S
C938 C936 1.363 . S
C938 C939 1.370 . S
C938 C942 1.524 . S
C939 C931 1.503 . S
C939 C938 1.370 . S
C939 C940 1.403 . S
C940 C939 1.403 . S
C940 C941 1.404 . S
C940 C943 1.539 . S
C941 C937 1.408 . S
C941 C940 1.404 . S
C941 H953 0.930 . S
C942 C938 1.524 . S
C942 H954 0.956 . S
C942 H955 0.961 . S
C942 H956 0.961 . S
C943 C940 1.539 . S
C943 H957 0.958 . S
C943 H958 0.961 . S
C943 H959 0.960 . S
H944 C928 0.931 . S
H945 C933 0.929 . S
H946 C934 0.960 . S
H947 C934 0.962 . S
H948 C934 0.960 . S
H949 C935 0.961 . S
H950 C935 0.961 . S
H951 C935 0.961 . S
H952 C936 0.931 . S
H953 C941 0.930 . S
H954 C942 0.956 . S
H955 C942 0.961 . S
H956 C942 0.961 . S
H957 C943 0.958 . S
H958 C943 0.961 . S
H959 C943 0.960 . S
C960 C961 1.391 . S
C960 C962 1.394 . S
C960 H976 0.931 . S
C961 C960 1.391 . S
C961 C965 1.376 . S
C962 C960 1.394 . S
C962 C963 1.369 . S
C962 C966 1.531 . S
C963 C962 1.369 . S
C963 C964 1.410 . S
C963 C971 1.503 . S
C964 C963 1.410 . S
C964 C965 1.392 . S
C964 C967 1.511 . S
C965 C961 1.376 . S
C965 C964 1.392 . S
C965 H977 0.929 . S
C966 C962 1.531 . S
C966 H978 0.960 . S
C966 H979 0.962 . S
C966 H980 0.960 . S
C967 C964 1.511 . S
C967 H981 0.961 . S
C967 H982 0.961 . S
C967 H983 0.961 . S
C968 C969 1.370 . S
C968 C970 1.363 . S
C968 H984 0.931 . S
C969 C968 1.370 . S
C969 C973 1.408 . S
C970 C968 1.363 . S
C970 C971 1.370 . S
C970 C974 1.524 . S
C971 C963 1.503 . S
C971 C970 1.370 . S
C971 C972 1.403 . S
C972 C971 1.403 . S
C972 C973 1.404 . S
C972 C975 1.539 . S
C973 C969 1.408 . S
C973 C972 1.404 . S
C973 H985 0.930 . S
C974 C970 1.524 . S
C974 H986 0.956 . S
C974 H987 0.961 . S
C974 H988 0.961 . S
C975 C972 1.539 . S
C975 H989 0.958 . S
C975 H990 0.961 . S
C975 H991 0.960 . S
H976 C960 0.931 . S
H977 C965 0.929 . S
H978 C966 0.960 . S
H979 C966 0.962 . S
H980 C966 0.960 . S
H981 C967 0.961 . S
H982 C967 0.961 . S
H983 C967 0.961 . S
H984 C968 0.931 . S
H985 C973 0.930 . S
H986 C974 0.956 . S
H987 C974 0.961 . S
H988 C974 0.961 . S
H989 C975 0.958 . S
H990 C975 0.961 . S
H991 C975 0.960 . S
C992 C993 1.391 . S
C992 C994 1.394 . S
C992 H1008 0.931 . S
C993 C992 1.391 . S
C993 C997 1.376 . S
C994 C992 1.394 . S
C994 C995 1.369 . S
C994 C998 1.531 . S
C995 C994 1.369 . S
C995 C996 1.410 . S
C995 C1003 1.503 . S
C996 C995 1.410 . S
C996 C997 1.392 . S
C996 C999 1.511 . S
C997 C993 1.376 . S
C997 C996 1.392 . S
C997 H1009 0.929 . S
C998 C994 1.531 . S
C998 H1010 0.960 . S
C998 H1011 0.962 . S
C998 H1012 0.960 . S
C999 C996 1.511 . S
C999 H1013 0.961 . S
C999 H1014 0.961 . S
C999 H1015 0.961 . S
C1000 C1001 1.370 . S
C1000 C1002 1.363 . S
C1000 H1016 0.931 . S
C1001 C1000 1.370 . S
C1001 C1005 1.408 . S
C1002 C1000 1.363 . S
C1002 C1003 1.370 . S
C1002 C1006 1.524 . S
C1003 C995 1.503 . S
C1003 C1002 1.370 . S
C1003 C1004 1.403 . S
C1004 C1003 1.403 . S
C1004 C1005 1.404 . S
C1004 C1007 1.539 . S
C1005 C1001 1.408 . S
C1005 C1004 1.404 . S
C1005 H1017 0.930 . S
C1006 C1002 1.524 . S
C1006 H1018 0.956 . S
C1006 H1019 0.961 . S
C1006 H1020 0.961 . S
C1007 C1004 1.539 . S
C1007 H1021 0.958 . S
C1007 H1022 0.961 . S
C1007 H1023 0.960 . S
H1008 C992 0.931 . S
H1009 C997 0.929 . S
H1010 C998 0.960 . S
H1011 C998 0.962 . S
H1012 C998 0.960 . S
H1013 C999 0.961 . S
H1014 C999 0.961 . S
H1015 C999 0.961 . S
H1016 C1000 0.931 . S
H1017 C1005 0.930 . S
H1018 C1006 0.956 . S
H1019 C1006 0.961 . S
H1020 C1006 0.961 . S
H1021 C1007 0.958 . S
H1022 C1007 0.961 . S
H1023 C1007 0.960 . S
C1024 C1025 1.391 . S
C1024 C1026 1.394 . S
C1024 H1040 0.931 . S
C1025 C1024 1.391 . S
C1025 C1029 1.376 . S
C1026 C1024 1.394 . S
C1026 C1027 1.369 . S
C1026 C1030 1.531 . S
C1027 C1026 1.369 . S
C1027 C1028 1.410 . S
C1027 C1035 1.503 . S
C1028 C1027 1.410 . S
C1028 C1029 1.392 . S
C1028 C1031 1.511 . S
C1029 C1025 1.376 . S
C1029 C1028 1.392 . S
C1029 H1041 0.929 . S
C1030 C1026 1.531 . S
C1030 H1042 0.960 . S
C1030 H1043 0.962 . S
C1030 H1044 0.960 . S
C1031 C1028 1.511 . S
C1031 H1045 0.961 . S
C1031 H1046 0.961 . S
C1031 H1047 0.961 . S
C1032 C1033 1.370 . S
C1032 C1034 1.363 . S
C1032 H1048 0.931 . S
C1033 C1032 1.370 . S
C1033 C1037 1.408 . S
C1034 C1032 1.363 . S
C1034 C1035 1.370 . S
C1034 C1038 1.524 . S
C1035 C1027 1.503 . S
C1035 C1034 1.370 . S
C1035 C1036 1.403 . S
C1036 C1035 1.403 . S
C1036 C1037 1.404 . S
C1036 C1039 1.539 . S
C1037 C1033 1.408 . S
C1037 C1036 1.404 . S
C1037 H1049 0.930 . S
C1038 C1034 1.524 . S
C1038 H1050 0.956 . S
C1038 H1051 0.961 . S
C1038 H1052 0.961 . S
C1039 C1036 1.539 . S
C1039 H1053 0.958 . S
C1039 H1054 0.961 . S
C1039 H1055 0.960 . S
H1040 C1024 0.931 . S
H1041 C1029 0.929 . S
H1042 C1030 0.960 . S
H1043 C1030 0.962 . S
H1044 C1030 0.960 . S
H1045 C1031 0.961 . S
H1046 C1031 0.961 . S
H1047 C1031 0.961 . S
H1048 C1032 0.931 . S
H1049 C1037 0.930 . S
H1050 C1038 0.956 . S
H1051 C1038 0.961 . S
H1052 C1038 0.961 . S
H1053 C1039 0.958 . S
H1054 C1039 0.961 . S
H1055 C1039 0.960 . S
C1056 C1057 1.391 . S
C1056 C1058 1.394 . S
C1056 H1072 0.931 . S
C1057 C1056 1.391 . S
C1057 C1061 1.376 . S
C1058 C1056 1.394 . S
C1058 C1059 1.369 . S
C1058 C1062 1.531 . S
C1059 C1058 1.369 . S
C1059 C1060 1.410 . S
C1059 C1067 1.503 . S
C1060 C1059 1.410 . S
C1060 C1061 1.392 . S
C1060 C1063 1.511 . S
C1061 C1057 1.376 . S
C1061 C1060 1.392 . S
C1061 H1073 0.929 . S
C1062 C1058 1.531 . S
C1062 H1074 0.960 . S
C1062 H1075 0.962 . S
C1062 H1076 0.960 . S
C1063 C1060 1.511 . S
C1063 H1077 0.961 . S
C1063 H1078 0.961 . S
C1063 H1079 0.961 . S
C1064 C1065 1.370 . S
C1064 C1066 1.363 . S
C1064 H1080 0.931 . S
C1065 C1064 1.370 . S
C1065 C1069 1.408 . S
C1066 C1064 1.363 . S
C1066 C1067 1.370 . S
C1066 C1070 1.524 . S
C1067 C1059 1.503 . S
C1067 C1066 1.370 . S
C1067 C1068 1.403 . S
C1068 C1067 1.403 . S
C1068 C1069 1.404 . S
C1068 C1071 1.539 . S
C1069 C1065 1.408 . S
C1069 C1068 1.404 . S
C1069 H1081 0.930 . S
C1070 C1066 1.524 . S
C1070 H1082 0.956 . S
C1070 H1083 0.961 . S
C1070 H1084 0.961 . S
C1071 C1068 1.539 . S
C1071 H1085 0.958 . S
C1071 H1086 0.961 . S
C1071 H1087 0.960 . S
H1072 C1056 0.931 . S
H1073 C1061 0.929 . S
H1074 C1062 0.960 . S
H1075 C1062 0.962 . S
H1076 C1062 0.960 . S
H1077 C1063 0.961 . S
H1078 C1063 0.961 . S
H1079 C1063 0.961 . S
H1080 C1064 0.931 . S
H1081 C1069 0.930 . S
H1082 C1070 0.956 . S
H1083 C1070 0.961 . S
H1084 C1070 0.961 . S
H1085 C1071 0.958 . S
H1086 C1071 0.961 . S
H1087 C1071 0.960 . S
C1088 C1089 1.391 . S
C1088 C1090 1.394 . S
C1088 H1104 0.931 . S
C1089 C1088 1.391 . S
C1089 C1093 1.376 . S
C1090 C1088 1.394 . S
C1090 C1091 1.369 . S
C1090 C1094 1.531 . S
C1091 C1090 1.369 . S
C1091 C1092 1.410 . S
C1091 C1099 1.503 . S
C1092 C1091 1.410 . S
C1092 C1093 1.392 . S
C1092 C1095 1.511 . S
C1093 C1089 1.376 . S
C1093 C1092 1.392 . S
C1093 H1105 0.929 . S
C1094 C1090 1.531 . S
C1094 H1106 0.960 . S
C1094 H1107 0.962 . S
C1094 H1108 0.960 . S
C1095 C1092 1.511 . S
C1095 H1109 0.961 . S
C1095 H1110 0.961 . S
C1095 H1111 0.961 . S
C1096 C1097 1.370 . S
C1096 C1098 1.363 . S
C1096 H1112 0.931 . S
C1097 C1096 1.370 . S
C1097 C1101 1.408 . S
C1098 C1096 1.363 . S
C1098 C1099 1.370 . S
C1098 C1102 1.524 . S
C1099 C1091 1.503 . S
C1099 C1098 1.370 . S
C1099 C1100 1.403 . S
C1100 C1099 1.403 . S
C1100 C1101 1.404 . S
C1100 C1103 1.539 . S
C1101 C1097 1.408 . S
C1101 C1100 1.404 . S
C1101 H1113 0.930 . S
C1102 C1098 1.524 . S
C1102 H1114 0.956 . S
C1102 H1115 0.961 . S
C1102 H1116 0.961 . S
C1103 C1100 1.539 . S
C1103 H1117 0.958 . S
C1103 H1118 0.961 . S
C1103 H1119 0.960 . S
H1104 C1088 0.931 . S
H1105 C1093 0.929 . S
H1106 C1094 0.960 . S
H1107 C1094 0.962 . S
H1108 C1094 0.960 . S
H1109 C1095 0.961 . S
H1110 C1095 0.961 . S
H1111 C1095 0.961 . S
H1112 C1096 0.931 . S
H1113 C1101 0.930 . S
H1114 C1102 0.956 . S
H1115 C1102 0.961 . S
H1116 C1102 0.961 . S
H1117 C1103 0.958 . S
H1118 C1103 0.961 . S
H1119 C1103 0.960 . S
C1120 C1121 1.391 . S
C1120 C1122 1.394 . S
C1120 H1136 0.931 . S
C1121 C1120 1.391 . S
C1121 C1125 1.376 . S
C1122 C1120 1.394 . S
C1122 C1123 1.369 . S
C1122 C1126 1.531 . S
C1123 C1122 1.369 . S
C1123 C1124 1.410 . S
C1123 C1131 1.503 . S
C1124 C1123 1.410 . S
C1124 C1125 1.392 . S
C1124 C1127 1.511 . S
C1125 C1121 1.376 . S
C1125 C1124 1.392 . S
C1125 H1137 0.929 . S
C1126 C1122 1.531 . S
C1126 H1138 0.960 . S
C1126 H1139 0.962 . S
C1126 H1140 0.960 . S
C1127 C1124 1.511 . S
C1127 H1141 0.961 . S
C1127 H1142 0.961 . S
C1127 H1143 0.961 . S
C1128 C1129 1.370 . S
C1128 C1130 1.363 . S
C1128 H1144 0.931 . S
C1129 C1128 1.370 . S
C1129 C1133 1.408 . S
C1130 C1128 1.363 . S
C1130 C1131 1.370 . S
C1130 C1134 1.524 . S
C1131 C1123 1.503 . S
C1131 C1130 1.370 . S
C1131 C1132 1.403 . S
C1132 C1131 1.403 . S
C1132 C1133 1.404 . S
C1132 C1135 1.539 . S
C1133 C1129 1.408 . S
C1133 C1132 1.404 . S
C1133 H1145 0.930 . S
C1134 C1130 1.524 . S
C1134 H1146 0.956 . S
C1134 H1147 0.961 . S
C1134 H1148 0.961 . S
C1135 C1132 1.539 . S
C1135 H1149 0.958 . S
C1135 H1150 0.961 . S
C1135 H1151 0.960 . S
H1136 C1120 0.931 . S
H1137 C1125 0.929 . S
H1138 C1126 0.960 . S
H1139 C1126 0.962 . S
H1140 C1126 0.960 . S
H1141 C1127 0.961 . S
H1142 C1127 0.961 . S
H1143 C1127 0.961 . S
H1144 C1128 0.931 . S
H1145 C1133 0.930 . S
H1146 C1134 0.956 . S
H1147 C1134 0.961 . S
H1148 C1134 0.961 . S
H1149 C1135 0.958 . S
H1150 C1135 0.961 . S
H1151 C1135 0.960 . S
C1152 C1153 1.391 . S
C1152 C1154 1.394 . S
C1152 H1168 0.931 . S
C1153 C1152 1.391 . S
C1153 C1157 1.376 . S
C1154 C1152 1.394 . S
C1154 C1155 1.369 . S
C1154 C1158 1.531 . S
C1155 C1154 1.369 . S
C1155 C1156 1.410 . S
C1155 C1163 1.503 . S
C1156 C1155 1.410 . S
C1156 C1157 1.392 . S
C1156 C1159 1.511 . S
C1157 C1153 1.376 . S
C1157 C1156 1.392 . S
C1157 H1169 0.929 . S
C1158 C1154 1.531 . S
C1158 H1170 0.960 . S
C1158 H1171 0.962 . S
C1158 H1172 0.960 . S
C1159 C1156 1.511 . S
C1159 H1173 0.961 . S
C1159 H1174 0.961 . S
C1159 H1175 0.961 . S
C1160 C1161 1.370 . S
C1160 C1162 1.363 . S
C1160 H1176 0.931 . S
C1161 C1160 1.370 . S
C1161 C1165 1.408 . S
C1162 C1160 1.363 . S
C1162 C1163 1.370 . S
C1162 C1166 1.524 . S
C1163 C1155 1.503 . S
C1163 C1162 1.370 . S
C1163 C1164 1.403 . S
C1164 C1163 1.403 . S
C1164 C1165 1.404 . S
C1164 C1167 1.539 . S
C1165 C1161 1.408 . S
C1165 C1164 1.404 . S
C1165 H1177 0.930 . S
C1166 C1162 1.524 . S
C1166 H1178 0.956 . S
C1166 H1179 0.961 . S
C1166 H1180 0.961 . S
C1167 C1164 1.539 . S
C1167 H1181 0.958 . S
C1167 H1182 0.961 . S
C1167 H1183 0.960 . S
H1168 C1152 0.931 . S
H1169 C1157 0.929 . S
H1170 C1158 0.960 . S
H1171 C1158 0.962 . S
H1172 C1158 0.960 . S
H1173 C1159 0.961 . S
H1174 C1159 0.961 . S
H1175 C1159 0.961 . S
H1176 C1160 0.931 . S
H1177 C1165 0.930 . S
H1178 C1166 0.956 . S
H1179 C1166 0.961 . S
H1180 C1166 0.961 . S
H1181 C1167 0.958 . S
H1182 C1167 0.961 . S
H1183 C1167 0.960 . S
C1184 C1185 1.391 . S
C1184 C1186 1.394 . S
C1184 H1200 0.931 . S
C1185 C1184 1.391 . S
C1185 C1189 1.376 . S
C1186 C1184 1.394 . S
C1186 C1187 1.369 . S
C1186 C1190 1.531 . S
C1187 C1186 1.369 . S
C1187 C1188 1.410 . S
C1187 C1195 1.503 . S
C1188 C1187 1.410 . S
C1188 C1189 1.392 . S
C1188 C1191 1.511 . S
C1189 C1185 1.376 . S
C1189 C1188 1.392 . S
C1189 H1201 0.929 . S
C1190 C1186 1.531 . S
C1190 H1202 0.960 . S
C1190 H1203 0.962 . S
C1190 H1204 0.960 . S
C1191 C1188 1.511 . S
C1191 H1205 0.961 . S
C1191 H1206 0.961 . S
C1191 H1207 0.961 . S
C1192 C1193 1.370 . S
C1192 C1194 1.363 . S
C1192 H1208 0.931 . S
C1193 C1192 1.370 . S
C1193 C1197 1.408 . S
C1194 C1192 1.363 . S
C1194 C1195 1.370 . S
C1194 C1198 1.524 . S
C1195 C1187 1.503 . S
C1195 C1194 1.370 . S
C1195 C1196 1.403 . S
C1196 C1195 1.403 . S
C1196 C1197 1.404 . S
C1196 C1199 1.539 . S
C1197 C1193 1.408 . S
C1197 C1196 1.404 . S
C1197 H1209 0.930 . S
C1198 C1194 1.524 . S
C1198 H1210 0.956 . S
C1198 H1211 0.961 . S
C1198 H1212 0.961 . S
C1199 C1196 1.539 . S
C1199 H1213 0.958 . S
C1199 H1214 0.961 . S
C1199 H1215 0.960 . S
H1200 C1184 0.931 . S
H1201 C1189 0.929 . S
H1202 C1190 0.960 . S
H1203 C1190 0.962 . S
H1204 C1190 0.960 . S
H1205 C1191 0.961 . S
H1206 C1191 0.961 . S
H1207 C1191 0.961 . S
H1208 C1192 0.931 . S
H1209 C1197 0.930 . S
H1210 C1198 0.956 . S
H1211 C1198 0.961 . S
H1212 C1198 0.961 . S
H1213 C1199 0.958 . S
H1214 C1199 0.961 . S
H1215 C1199 0.960 . S
C1216 C1217 1.391 . S
C1216 C1218 1.394 . S
C1216 H1232 0.931 . S
C1217 C1216 1.391 . S
C1217 C1221 1.376 . S
C1218 C1216 1.394 . S
C1218 C1219 1.369 . S
C1218 C1222 1.531 . S
C1219 C1218 1.369 . S
C1219 C1220 1.410 . S
C1219 C1227 1.503 . S
C1220 C1219 1.410 . S
C1220 C1221 1.392 . S
C1220 C1223 1.511 . S
C1221 C1217 1.376 . S
C1221 C1220 1.392 . S
C1221 H1233 0.929 . S
C1222 C1218 1.531 . S
C1222 H1234 0.960 . S
C1222 H1235 0.962 . S
C1222 H1236 0.960 . S
C1223 C1220 1.511 . S
C1223 H1237 0.961 . S
C1223 H1238 0.961 . S
C1223 H1239 0.961 . S
C1224 C1225 1.370 . S
C1224 C1226 1.363 . S
C1224 H1240 0.931 . S
C1225 C1224 1.370 . S
C1225 C1229 1.408 . S
C1226 C1224 1.363 . S
C1226 C1227 1.370 . S
C1226 C1230 1.524 . S
C1227 C1219 1.503 . S
C1227 C1226 1.370 . S
C1227 C1228 1.403 . S
C1228 C1227 1.403 . S
C1228 C1229 1.404 . S
C1228 C1231 1.539 . S
C1229 C1225 1.408 . S
C1229 C1228 1.404 . S
C1229 H1241 0.930 . S
C1230 C1226 1.524 . S
C1230 H1242 0.956 . S
C1230 H1243 0.961 . S
C1230 H1244 0.961 . S
C1231 C1228 1.539 . S
C1231 H1245 0.958 . S
C1231 H1246 0.961 . S
C1231 H1247 0.960 . S
H1232 C1216 0.931 . S
H1233 C1221 0.929 . S
H1234 C1222 0.960 . S
H1235 C1222 0.962 . S
H1236 C1222 0.960 . S
H1237 C1223 0.961 . S
H1238 C1223 0.961 . S
H1239 C1223 0.961 . S
H1240 C1224 0.931 . S
H1241 C1229 0.930 . S
H1242 C1230 0.956 . S
H1243 C1230 0.961 . S
H1244 C1230 0.961 . S
H1245 C1231 0.958 . S
H1246 C1231 0.961 . S
H1247 C1231 0.960 . S
C1248 C1249 1.391 . S
C1248 C1250 1.394 . S
C1248 H1264 0.931 . S
C1249 C1248 1.391 . S
C1249 C1253 1.376 . S
C1250 C1248 1.394 . S
C1250 C1251 1.369 . S
C1250 C1254 1.531 . S
C1251 C1250 1.369 . S
C1251 C1252 1.410 . S
C1251 C1259 1.503 1_556 S
C1252 C1251 1.410 . S
C1252 C1253 1.392 . S
C1252 C1255 1.511 1_556 S
C1253 C1249 1.376 . S
C1253 C1252 1.392 . S
C1253 H1265 0.929 . S
C1254 C1250 1.531 . S
C1254 H1266 0.960 1_556 S
C1254 H1267 0.962 . S
C1254 H1268 0.958 1_556 S
C1255 C1252 1.511 1_554 S
C1255 H1269 0.961 1_554 S
C1255 H1270 0.961 . S
C1255 H1271 0.961 . S
C1256 C1257 1.370 . S
C1256 C1258 1.363 1_554 S
C1256 H1272 0.931 1_554 S
C1257 C1256 1.370 . S
C1257 C1261 1.408 . S
C1258 C1256 1.363 1_556 S
C1258 C1259 1.370 1_556 S
C1258 C1262 1.524 . S
C1259 C1251 1.503 1_554 S
C1259 C1258 1.370 1_554 S
C1259 C1260 1.403 . S
C1260 C1259 1.403 . S
C1260 C1261 1.404 . S
C1260 C1263 1.539 . S
C1261 C1257 1.408 . S
C1261 C1260 1.404 . S
C1261 H1273 0.930 . S
C1262 C1258 1.524 . S
C1262 H1274 0.956 . S
C1262 H1275 0.961 . S
C1262 H1276 0.961 . S
C1263 C1260 1.539 . S
C1263 H1277 0.958 . S
C1263 H1278 0.961 . S
C1263 H1279 0.960 . S
H1264 C1248 0.931 . S
H1265 C1253 0.929 . S
H1266 C1254 0.960 1_554 S
H1267 C1254 0.962 . S
H1268 C1254 0.958 1_554 S
H1269 C1255 0.961 1_556 S
H1270 C1255 0.961 . S
H1271 C1255 0.961 . S
H1272 C1256 0.931 1_556 S
H1273 C1261 0.930 . S
H1274 C1262 0.956 . S
H1275 C1262 0.961 . S
H1276 C1262 0.961 . S
H1277 C1263 0.958 . S
H1278 C1263 0.961 . S
H1279 C1263 0.960 . S
C1280 C1281 1.391 . S
C1280 C1282 1.394 . S
C1280 H1296 0.931 . S
C1281 C1280 1.391 . S
C1281 C1285 1.376 . S
C1282 C1280 1.394 . S
C1282 C1283 1.369 . S
C1282 C1286 1.531 . S
C1283 C1282 1.369 . S
C1283 C1284 1.410 . S
C1283 C1291 1.503 . S
C1284 C1283 1.410 . S
C1284 C1285 1.392 . S
C1284 C1287 1.511 . S
C1285 C1281 1.376 . S
C1285 C1284 1.392 . S
C1285 H1297 0.929 . S
C1286 C1282 1.531 . S
C1286 H1298 0.960 . S
C1286 H1299 0.962 . S
C1286 H1300 0.960 . S
C1287 C1284 1.511 . S
C1287 H1301 0.961 . S
C1287 H1302 0.961 . S
C1287 H1303 0.961 . S
C1288 C1289 1.370 . S
C1288 C1290 1.363 . S
C1288 H1304 0.931 . S
C1289 C1288 1.370 . S
C1289 C1293 1.408 . S
C1290 C1288 1.363 . S
C1290 C1291 1.370 . S
C1290 C1294 1.524 . S
C1291 C1283 1.503 . S
C1291 C1290 1.370 . S
C1291 C1292 1.403 . S
C1292 C1291 1.403 . S
C1292 C1293 1.404 . S
C1292 C1295 1.539 . S
C1293 C1289 1.408 . S
C1293 C1292 1.404 . S
C1293 H1305 0.930 . S
C1294 C1290 1.524 . S
C1294 H1306 0.956 . S
C1294 H1307 0.961 . S
C1294 H1308 0.961 . S
C1295 C1292 1.539 . S
C1295 H1309 0.958 . S
C1295 H1310 0.961 . S
C1295 H1311 0.960 . S
H1296 C1280 0.931 . S
H1297 C1285 0.929 . S
H1298 C1286 0.960 . S
H1299 C1286 0.962 . S
H1300 C1286 0.960 . S
H1301 C1287 0.961 . S
H1302 C1287 0.961 . S
H1303 C1287 0.961 . S
H1304 C1288 0.931 . S
H1305 C1293 0.930 . S
H1306 C1294 0.956 . S
H1307 C1294 0.961 . S
H1308 C1294 0.961 . S
H1309 C1295 0.958 . S
H1310 C1295 0.961 . S
H1311 C1295 0.960 . S
C1312 C1313 1.391 . S
C1312 C1314 1.394 . S
C1312 H1328 0.931 . S
C1313 C1312 1.391 . S
C1313 C1317 1.376 . S
C1314 C1312 1.394 . S
C1314 C1315 1.369 . S
C1314 C1318 1.531 . S
C1315 C1314 1.369 . S
C1315 C1316 1.410 . S
C1315 C1323 1.503 1_554 S
C1316 C1315 1.410 . S
C1316 C1317 1.392 . S
C1316 C1319 1.511 1_554 S
C1317 C1313 1.376 . S
C1317 C1316 1.392 . S
C1317 H1329 0.929 . S
C1318 C1314 1.531 . S
C1318 H1330 0.960 1_554 S
C1318 H1331 0.962 . S
C1318 H1332 0.960 . S
C1319 C1316 1.511 1_556 S
C1319 H1333 0.961 1_556 S
C1319 H1334 0.961 . S
C1319 H1335 0.961 . S
C1320 C1321 1.370 . S
C1320 C1322 1.363 1_556 S
C1320 H1336 0.931 1_556 S
C1321 C1320 1.370 . S
C1321 C1325 1.408 . S
C1322 C1320 1.363 1_554 S
C1322 C1323 1.370 1_554 S
C1322 C1326 1.524 . S
C1323 C1315 1.503 1_556 S
C1323 C1322 1.370 1_556 S
C1323 C1324 1.403 . S
C1324 C1323 1.403 . S
C1324 C1325 1.404 . S
C1324 C1327 1.539 . S
C1325 C1321 1.408 . S
C1325 C1324 1.404 . S
C1325 H1337 0.930 . S
C1326 C1322 1.524 . S
C1326 H1338 0.956 . S
C1326 H1339 0.961 . S
C1326 H1340 0.961 . S
C1327 C1324 1.539 . S
C1327 H1341 0.958 . S
C1327 H1342 0.961 . S
C1327 H1343 0.960 . S
H1328 C1312 0.931 . S
H1329 C1317 0.929 . S
H1330 C1318 0.960 1_556 S
H1331 C1318 0.962 . S
H1332 C1318 0.960 . S
H1333 C1319 0.961 1_554 S
H1334 C1319 0.961 . S
H1335 C1319 0.961 . S
H1336 C1320 0.931 1_554 S
H1337 C1325 0.930 . S
H1338 C1326 0.956 . S
H1339 C1326 0.961 . S
H1340 C1326 0.961 . S
H1341 C1327 0.958 . S
H1342 C1327 0.961 . S
H1343 C1327 0.960 . S
C1344 C1345 1.391 . S
C1344 C1346 1.394 . S
C1344 H1360 0.931 . S
C1345 C1344 1.391 . S
C1345 C1349 1.376 . S
C1346 C1344 1.394 . S
C1346 C1347 1.369 . S
C1346 C1350 1.531 . S
C1347 C1346 1.369 . S
C1347 C1348 1.410 . S
C1347 C1355 1.503 . S
C1348 C1347 1.410 . S
C1348 C1349 1.392 . S
C1348 C1351 1.511 . S
C1349 C1345 1.376 . S
C1349 C1348 1.392 . S
C1349 H1361 0.929 . S
C1350 C1346 1.531 . S
C1350 H1362 0.960 . S
C1350 H1363 0.962 . S
C1350 H1364 0.960 . S
C1351 C1348 1.511 . S
C1351 H1365 0.961 . S
C1351 H1366 0.961 . S
C1351 H1367 0.961 . S
C1352 C1353 1.370 . S
C1352 C1354 1.363 . S
C1352 H1368 0.931 . S
C1353 C1352 1.370 . S
C1353 C1357 1.408 . S
C1354 C1352 1.363 . S
C1354 C1355 1.370 . S
C1354 C1358 1.524 . S
C1355 C1347 1.503 . S
C1355 C1354 1.370 . S
C1355 C1356 1.403 . S
C1356 C1355 1.403 . S
C1356 C1357 1.404 . S
C1356 C1359 1.539 . S
C1357 C1353 1.408 . S
C1357 C1356 1.404 . S
C1357 H1369 0.930 . S
C1358 C1354 1.524 . S
C1358 H1370 0.956 . S
C1358 H1371 0.961 . S
C1358 H1372 0.961 . S
C1359 C1356 1.539 . S
C1359 H1373 0.958 . S
C1359 H1374 0.961 . S
C1359 H1375 0.960 . S
H1360 C1344 0.931 . S
H1361 C1349 0.929 . S
H1362 C1350 0.960 . S
H1363 C1350 0.962 . S
H1364 C1350 0.960 . S
H1365 C1351 0.961 . S
H1366 C1351 0.961 . S
H1367 C1351 0.961 . S
H1368 C1352 0.931 . S
H1369 C1357 0.930 . S
H1370 C1358 0.956 . S
H1371 C1358 0.961 . S
H1372 C1358 0.961 . S
H1373 C1359 0.958 . S
H1374 C1359 0.961 . S
H1375 C1359 0.960 . S
C1376 C1377 1.391 . S
C1376 C1378 1.394 . S
C1376 H1392 0.931 . S
C1377 C1376 1.391 . S
C1377 C1381 1.376 . S
C1378 C1376 1.394 . S
C1378 C1379 1.369 . S
C1378 C1382 1.531 1_556 S
C1379 C1378 1.369 . S
C1379 C1380 1.410 . S
C1379 C1387 1.503 1_556 S
C1380 C1379 1.410 . S
C1380 C1381 1.392 . S
C1380 C1383 1.511 . S
C1381 C1377 1.376 . S
C1381 C1380 1.392 . S
C1381 H1393 0.929 . S
C1382 C1378 1.531 1_554 S
C1382 H1394 0.960 . S
C1382 H1395 0.962 . S
C1382 H1396 0.960 . S
C1383 C1380 1.511 . S
C1383 H1397 0.961 . S
C1383 H1398 0.961 . S
C1383 H1399 0.961 . S
C1384 C1385 1.370 . S
C1384 C1386 1.363 . S
C1384 H1400 0.931 . S
C1385 C1384 1.370 . S
C1385 C1389 1.408 . S
C1386 C1384 1.363 . S
C1386 C1387 1.370 . S
C1386 C1390 1.524 . S
C1387 C1379 1.503 1_554 S
C1387 C1386 1.370 . S
C1387 C1388 1.403 1_554 S
C1388 C1387 1.403 1_556 S
C1388 C1389 1.404 1_556 S
C1388 C1391 1.539 . S
C1389 C1385 1.408 . S
C1389 C1388 1.404 1_554 S
C1389 H1401 0.930 . S
C1390 C1386 1.524 . S
C1390 H1402 0.956 . S
C1390 H1403 0.961 . S
C1390 H1404 0.961 . S
C1391 C1388 1.539 . S
C1391 H1405 0.958 . S
C1391 H1406 0.961 . S
C1391 H1407 0.960 . S
H1392 C1376 0.931 . S
H1393 C1381 0.929 . S
H1394 C1382 0.960 . S
H1395 C1382 0.962 . S
H1396 C1382 0.960 . S
H1397 C1383 0.961 . S
H1398 C1383 0.961 . S
H1399 C1383 0.961 . S
H1400 C1384 0.931 . S
H1401 C1389 0.930 . S
H1402 C1390 0.956 . S
H1403 C1390 0.961 . S
H1404 C1390 0.961 . S
H1405 C1391 0.958 . S
H1406 C1391 0.961 . S
H1407 C1391 0.960 . S
C1408 C1409 1.391 . S
C1408 C1410 1.394 . S
C1408 H1424 0.931 . S
C1409 C1408 1.391 . S
C1409 C1413 1.376 . S
C1410 C1408 1.394 . S
C1410 C1411 1.369 . S
C1410 C1414 1.531 . S
C1411 C1410 1.369 . S
C1411 C1412 1.410 . S
C1411 C1419 1.503 . S
C1412 C1411 1.410 . S
C1412 C1413 1.392 . S
C1412 C1415 1.511 . S
C1413 C1409 1.376 . S
C1413 C1412 1.392 . S
C1413 H1425 0.929 . S
C1414 C1410 1.531 . S
C1414 H1426 0.960 . S
C1414 H1427 0.962 . S
C1414 H1428 0.960 . S
C1415 C1412 1.511 . S
C1415 H1429 0.961 . S
C1415 H1430 0.961 . S
C1415 H1431 0.961 . S
C1416 C1417 1.370 . S
C1416 C1418 1.363 . S
C1416 H1432 0.931 . S
C1417 C1416 1.370 . S
C1417 C1421 1.408 . S
C1418 C1416 1.363 . S
C1418 C1419 1.370 . S
C1418 C1422 1.524 . S
C1419 C1411 1.503 . S
C1419 C1418 1.370 . S
C1419 C1420 1.403 . S
C1420 C1419 1.403 . S
C1420 C1421 1.404 . S
C1420 C1423 1.539 . S
C1421 C1417 1.408 . S
C1421 C1420 1.404 . S
C1421 H1433 0.930 . S
C1422 C1418 1.524 . S
C1422 H1434 0.956 . S
C1422 H1435 0.961 . S
C1422 H1436 0.961 . S
C1423 C1420 1.539 . S
C1423 H1437 0.958 . S
C1423 H1438 0.961 . S
C1423 H1439 0.960 . S
H1424 C1408 0.931 . S
H1425 C1413 0.929 . S
H1426 C1414 0.960 . S
H1427 C1414 0.962 . S
H1428 C1414 0.960 . S
H1429 C1415 0.961 . S
H1430 C1415 0.961 . S
H1431 C1415 0.961 . S
H1432 C1416 0.931 . S
H1433 C1421 0.930 . S
H1434 C1422 0.956 . S
H1435 C1422 0.961 . S
H1436 C1422 0.961 . S
H1437 C1423 0.958 . S
H1438 C1423 0.961 . S
H1439 C1423 0.960 . S
C1440 C1441 1.391 . S
C1440 C1442 1.394 . S
C1440 H1456 0.931 . S
C1441 C1440 1.391 . S
C1441 C1445 1.376 . S
C1442 C1440 1.394 . S
C1442 C1443 1.369 . S
C1442 C1446 1.531 . S
C1443 C1442 1.369 . S
C1443 C1444 1.410 1_554 S
C1443 C1451 1.503 1_554 S
C1444 C1443 1.410 1_556 S
C1444 C1445 1.392 1_556 S
C1444 C1447 1.511 . S
C1445 C1441 1.376 . S
C1445 C1444 1.392 1_554 S
C1445 H1457 0.929 . S
C1446 C1442 1.531 . S
C1446 H1458 0.960 . S
C1446 H1459 0.962 . S
C1446 H1460 0.960 . S
C1447 C1444 1.511 . S
C1447 H1461 0.961 . S
C1447 H1462 0.961 . S
C1447 H1463 0.961 . S
C1448 C1449 1.370 . S
C1448 C1450 1.375 . S
C1448 H1464 0.931 . S
C1449 C1448 1.370 . S
C1449 C1453 1.408 . S
C1450 C1448 1.375 . S
C1450 C1451 1.380 . S
C1450 C1454 1.503 1_556 S
C1451 C1443 1.503 1_556 S
C1451 C1450 1.380 . S
C1451 C1452 1.403 . S
C1452 C1451 1.403 . S
C1452 C1453 1.404 . S
C1452 C1455 1.539 . S
C1453 C1449 1.408 . S
C1453 C1452 1.404 . S
C1453 H1465 0.930 . S
C1454 C1450 1.503 1_554 S
C1454 H1466 0.956 . S
C1454 H1467 0.961 . S
C1454 H1468 0.961 . S
C1455 C1452 1.539 . S
C1455 H1469 0.958 . S
C1455 H1470 0.961 . S
C1455 H1471 0.960 . S
H1456 C1440 0.931 . S
H1457 C1445 0.929 . S
H1458 C1446 0.960 . S
H1459 C1446 0.962 . S
H1460 C1446 0.960 . S
H1461 C1447 0.961 . S
H1462 C1447 0.961 . S
H1463 C1447 0.961 . S
H1464 C1448 0.931 . S
H1465 C1453 0.930 . S
H1466 C1454 0.956 . S
H1467 C1454 0.961 . S
H1468 C1454 0.961 . S
H1469 C1455 0.958 . S
H1470 C1455 0.961 . S
H1471 C1455 0.960 . S
C1472 C1473 1.391 . S
C1472 C1474 1.394 . S
C1472 H1488 0.931 . S
C1473 C1472 1.391 . S
C1473 C1477 1.376 . S
C1474 C1472 1.394 . S
C1474 C1475 1.369 . S
C1474 C1478 1.531 . S
C1475 C1474 1.369 . S
C1475 C1476 1.410 . S
C1475 C1483 1.503 . S
C1476 C1475 1.410 . S
C1476 C1477 1.392 . S
C1476 C1479 1.511 . S
C1477 C1473 1.376 . S
C1477 C1476 1.392 . S
C1477 H1489 0.929 . S
C1478 C1474 1.531 . S
C1478 H1490 0.960 . S
C1478 H1491 0.962 . S
C1478 H1492 0.960 . S
C1479 C1476 1.511 . S
C1479 H1493 0.961 . S
C1479 H1494 0.961 . S
C1479 H1495 0.961 . S
C1480 C1481 1.370 . S
C1480 C1482 1.363 . S
C1480 H1496 0.931 . S
C1481 C1480 1.370 . S
C1481 C1485 1.408 . S
C1482 C1480 1.363 . S
C1482 C1483 1.370 . S
C1482 C1486 1.524 . S
C1483 C1475 1.503 . S
C1483 C1482 1.370 . S
C1483 C1484 1.403 . S
C1484 C1483 1.403 . S
C1484 C1485 1.404 . S
C1484 C1487 1.539 . S
C1485 C1481 1.408 . S
C1485 C1484 1.404 . S
C1485 H1497 0.930 . S
C1486 C1482 1.524 . S
C1486 H1498 0.956 . S
C1486 H1499 0.961 . S
C1486 H1500 0.961 . S
C1487 C1484 1.539 . S
C1487 H1501 0.958 . S
C1487 H1502 0.961 . S
C1487 H1503 0.960 . S
H1488 C1472 0.931 . S
H1489 C1477 0.929 . S
H1490 C1478 0.960 . S
H1491 C1478 0.962 . S
H1492 C1478 0.960 . S
H1493 C1479 0.961 . S
H1494 C1479 0.961 . S
H1495 C1479 0.961 . S
H1496 C1480 0.931 . S
H1497 C1485 0.930 . S
H1498 C1486 0.956 . S
H1499 C1486 0.961 . S
H1500 C1486 0.961 . S
H1501 C1487 0.958 . S
H1502 C1487 0.961 . S
H1503 C1487 0.960 . S
C1504 C1505 1.391 . S
C1504 C1506 1.394 . S
C1504 H1520 0.931 . S
C1505 C1504 1.391 . S
C1505 C1509 1.376 . S
C1506 C1504 1.394 . S
C1506 C1507 1.369 . S
C1506 C1510 1.531 . S
C1507 C1506 1.369 . S
C1507 C1508 1.410 . S
C1507 C1515 1.503 1_556 S
C1508 C1507 1.410 . S
C1508 C1509 1.392 . S
C1508 C1511 1.511 1_556 S
C1509 C1505 1.376 . S
C1509 C1508 1.392 . S
C1509 H1521 0.929 . S
C1510 C1506 1.531 . S
C1510 H1522 0.960 . S
C1510 H1523 0.962 . S
C1510 H1524 0.960 . S
C1511 C1508 1.511 1_554 S
C1511 H1525 0.961 . S
C1511 H1526 0.961 . S
C1511 H1527 0.961 1_554 S
C1512 C1513 1.370 . S
C1512 C1514 1.363 . S
C1512 H1528 0.931 . S
C1513 C1512 1.370 . S
C1513 C1517 1.408 . S
C1514 C1512 1.363 . S
C1514 C1515 1.370 . S
C1514 C1518 1.524 . S
C1515 C1507 1.503 1_554 S
C1515 C1514 1.370 . S
C1515 C1516 1.403 1_554 S
C1516 C1515 1.403 1_556 S
C1516 C1517 1.404 1_556 S
C1516 C1519 1.539 . S
C1517 C1513 1.408 . S
C1517 C1516 1.404 1_554 S
C1517 H1529 0.918 1_554 S
C1518 C1514 1.524 . S
C1518 H1530 0.956 . S
C1518 H1531 0.961 . S
C1518 H1532 0.961 . S
C1519 C1516 1.539 . S
C1519 H1533 0.958 . S
C1519 H1534 0.961 . S
C1519 H1535 0.960 . S
H1520 C1504 0.931 . S
H1521 C1509 0.929 . S
H1522 C1510 0.960 . S
H1523 C1510 0.962 . S
H1524 C1510 0.960 . S
H1525 C1511 0.961 . S
H1526 C1511 0.961 . S
H1527 C1511 0.961 1_556 S
H1528 C1512 0.931 . S
H1529 C1517 0.918 1_556 S
H1530 C1518 0.956 . S
H1531 C1518 0.961 . S
H1532 C1518 0.961 . S
H1533 C1519 0.958 . S
H1534 C1519 0.961 . S
H1535 C1519 0.960 . S
C1536 C1537 1.391 . S
C1536 C1538 1.394 . S
C1536 H1552 0.931 . S
C1537 C1536 1.391 . S
C1537 C1541 1.376 . S
C1538 C1536 1.394 . S
C1538 C1539 1.369 . S
C1538 C1542 1.531 . S
C1539 C1538 1.369 . S
C1539 C1540 1.410 . S
C1539 C1547 1.503 . S
C1540 C1539 1.410 . S
C1540 C1541 1.392 . S
C1540 C1543 1.511 . S
C1541 C1537 1.376 . S
C1541 C1540 1.392 . S
C1541 H1553 0.929 . S
C1542 C1538 1.531 . S
C1542 H1554 0.960 . S
C1542 H1555 0.962 . S
C1542 H1556 0.960 . S
C1543 C1540 1.511 . S
C1543 H1557 0.961 . S
C1543 H1558 0.961 . S
C1543 H1559 0.961 . S
C1544 C1545 1.370 . S
C1544 C1546 1.363 . S
C1544 H1560 0.931 . S
C1545 C1544 1.370 . S
C1545 C1549 1.408 . S
C1546 C1544 1.363 . S
C1546 C1547 1.370 . S
C1546 C1550 1.524 . S
C1547 C1539 1.503 . S
C1547 C1546 1.370 . S
C1547 C1548 1.403 . S
C1548 C1547 1.403 . S
C1548 C1549 1.404 . S
C1548 C1551 1.539 . S
C1549 C1545 1.408 . S
C1549 C1548 1.404 . S
C1549 H1561 0.930 . S
C1550 C1546 1.524 . S
C1550 H1562 0.956 . S
C1550 H1563 0.961 . S
C1550 H1564 0.961 . S
C1551 C1548 1.539 . S
C1551 H1565 0.958 . S
C1551 H1566 0.961 . S
C1551 H1567 0.960 . S
H1552 C1536 0.931 . S
H1553 C1541 0.929 . S
H1554 C1542 0.960 . S
H1555 C1542 0.962 . S
H1556 C1542 0.960 . S
H1557 C1543 0.961 . S
H1558 C1543 0.961 . S
H1559 C1543 0.961 . S
H1560 C1544 0.931 . S
H1561 C1549 0.930 . S
H1562 C1550 0.956 . S
H1563 C1550 0.961 . S
H1564 C1550 0.961 . S
H1565 C1551 0.958 . S
H1566 C1551 0.961 . S
H1567 C1551 0.960 . S
C1568 C1569 1.391 . S
C1568 C1570 1.392 . S
C1568 H1584 0.931 . S
C1569 C1568 1.391 . S
C1569 C1573 1.376 . S
C1570 C1568 1.392 . S
C1570 C1571 1.369 . S
C1570 C1574 1.532 1_556 S
C1571 C1570 1.369 . S
C1571 C1572 1.410 . S
C1571 C1579 1.503 1_556 S
C1572 C1571 1.410 . S
C1572 C1573 1.392 . S
C1572 C1575 1.511 . S
C1573 C1569 1.376 . S
C1573 C1572 1.392 . S
C1573 H1585 0.929 . S
C1574 C1570 1.532 1_554 S
C1574 H1586 0.960 . S
C1574 H1587 0.962 . S
C1574 H1588 0.960 . S
C1575 C1572 1.511 . S
C1575 H1589 0.961 . S
C1575 H1590 0.961 . S
C1575 H1591 0.961 . S
C1576 C1577 1.370 . S
C1576 C1578 1.363 1_554 S
C1576 H1592 0.920 1_554 S
C1577 C1576 1.370 . S
C1577 C1581 1.408 . S
C1578 C1576 1.363 1_556 S
C1578 C1579 1.370 1_556 S
C1578 C1582 1.524 . S
C1579 C1571 1.503 1_554 S
C1579 C1578 1.370 1_554 S
C1579 C1580 1.403 . S
C1580 C1579 1.403 . S
C1580 C1581 1.404 . S
C1580 C1583 1.539 . S
C1581 C1577 1.408 . S
C1581 C1580 1.404 . S
C1581 H1593 0.930 . S
C1582 C1578 1.524 . S
C1582 H1594 0.956 . S
C1582 H1595 0.961 . S
C1582 H1596 0.961 . S
C1583 C1580 1.539 . S
C1583 H1597 0.958 . S
C1583 H1598 0.961 . S
C1583 H1599 0.960 . S
H1584 C1568 0.931 . S
H1585 C1573 0.929 . S
H1586 C1574 0.960 . S
H1587 C1574 0.962 . S
H1588 C1574 0.960 . S
H1589 C1575 0.961 . S
H1590 C1575 0.961 . S
H1591 C1575 0.961 . S
H1592 C1576 0.920 1_556 S
H1593 C1581 0.930 . S
H1594 C1582 0.956 . S
H1595 C1582 0.961 . S
H1596 C1582 0.961 . S
H1597 C1583 0.958 . S
H1598 C1583 0.961 . S
H1599 C1583 0.960 . S
C1600 C1601 1.391 . S
C1600 C1602 1.394 . S
C1600 H1616 0.931 . S
C1601 C1600 1.391 . S
C1601 C1605 1.376 . S
C1602 C1600 1.394 . S
C1602 C1603 1.369 . S
C1602 C1606 1.531 . S
C1603 C1602 1.369 . S
C1603 C1604 1.410 . S
C1603 C1611 1.503 . S
C1604 C1603 1.410 . S
C1604 C1605 1.392 . S
C1604 C1607 1.511 . S
C1605 C1601 1.376 . S
C1605 C1604 1.392 . S
C1605 H1617 0.929 . S
C1606 C1602 1.531 . S
C1606 H1618 0.960 . S
C1606 H1619 0.962 . S
C1606 H1620 0.960 . S
C1607 C1604 1.511 . S
C1607 H1621 0.961 . S
C1607 H1622 0.961 . S
C1607 H1623 0.961 . S
C1608 C1609 1.370 . S
C1608 C1610 1.363 . S
C1608 H1624 0.931 . S
C1609 C1608 1.370 . S
C1609 C1613 1.408 . S
C1610 C1608 1.363 . S
C1610 C1611 1.370 . S
C1610 C1614 1.524 . S
C1611 C1603 1.503 . S
C1611 C1610 1.370 . S
C1611 C1612 1.403 . S
C1612 C1611 1.403 . S
C1612 C1613 1.404 . S
C1612 C1615 1.539 . S
C1613 C1609 1.408 . S
C1613 C1612 1.404 . S
C1613 H1625 0.930 . S
C1614 C1610 1.524 . S
C1614 H1626 0.956 . S
C1614 H1627 0.961 . S
C1614 H1628 0.961 . S
C1615 C1612 1.539 . S
C1615 H1629 0.958 . S
C1615 H1630 0.961 . S
C1615 H1631 0.960 . S
H1616 C1600 0.931 . S
H1617 C1605 0.929 . S
H1618 C1606 0.960 . S
H1619 C1606 0.962 . S
H1620 C1606 0.960 . S
H1621 C1607 0.961 . S
H1622 C1607 0.961 . S
H1623 C1607 0.961 . S
H1624 C1608 0.931 . S
H1625 C1613 0.930 . S
H1626 C1614 0.956 . S
H1627 C1614 0.961 . S
H1628 C1614 0.961 . S
H1629 C1615 0.958 . S
H1630 C1615 0.961 . S
H1631 C1615 0.960 . S
C1632 C1633 1.391 . S
C1632 C1634 1.394 . S
C1632 H1648 0.931 . S
C1633 C1632 1.391 . S
C1633 C1637 1.376 . S
C1634 C1632 1.394 . S
C1634 C1635 1.369 . S
C1634 C1638 1.531 . S
C1635 C1634 1.369 . S
C1635 C1636 1.410 . S
C1635 C1643 1.503 . S
C1636 C1635 1.410 . S
C1636 C1637 1.392 . S
C1636 C1639 1.511 . S
C1637 C1633 1.376 . S
C1637 C1636 1.392 . S
C1637 H1649 0.929 . S
C1638 C1634 1.531 . S
C1638 H1650 0.960 . S
C1638 H1651 0.962 . S
C1638 H1652 0.960 . S
C1639 C1636 1.511 . S
C1639 H1653 0.961 . S
C1639 H1654 0.961 . S
C1639 H1655 0.961 . S
C1640 C1641 1.370 . S
C1640 C1642 1.363 . S
C1640 H1656 0.931 . S
C1641 C1640 1.370 . S
C1641 C1645 1.408 . S
C1642 C1640 1.363 . S
C1642 C1643 1.370 . S
C1642 C1646 1.524 . S
C1643 C1635 1.503 . S
C1643 C1642 1.370 . S
C1643 C1644 1.403 . S
C1644 C1643 1.403 . S
C1644 C1645 1.404 . S
C1644 C1647 1.539 . S
C1645 C1641 1.408 . S
C1645 C1644 1.404 . S
C1645 H1657 0.930 . S
C1646 C1642 1.524 . S
C1646 H1658 0.956 . S
C1646 H1659 0.961 . S
C1646 H1660 0.961 . S
C1647 C1644 1.539 . S
C1647 H1661 0.958 1_554 S
C1647 H1662 0.961 . S
C1647 H1663 0.960 . S
H1648 C1632 0.931 . S
H1649 C1637 0.929 . S
H1650 C1638 0.960 . S
H1651 C1638 0.962 . S
H1652 C1638 0.960 . S
H1653 C1639 0.961 . S
H1654 C1639 0.961 . S
H1655 C1639 0.961 . S
H1656 C1640 0.931 . S
H1657 C1645 0.930 . S
H1658 C1646 0.956 . S
H1659 C1646 0.961 . S
H1660 C1646 0.961 . S
H1661 C1647 0.958 1_556 S
H1662 C1647 0.961 . S
H1663 C1647 0.960 . S
C1664 C1665 1.391 . S
C1664 C1666 1.394 . S
C1664 H1680 0.931 . S
C1665 C1664 1.391 . S
C1665 C1669 1.376 . S
C1666 C1664 1.394 . S
C1666 C1667 1.369 . S
C1666 C1670 1.531 . S
C1667 C1666 1.369 . S
C1667 C1668 1.410 . S
C1667 C1675 1.503 1_455 S
C1668 C1667 1.410 . S
C1668 C1669 1.392 . S
C1668 C1671 1.511 . S
C1669 C1665 1.376 . S
C1669 C1668 1.392 . S
C1669 H1681 0.929 . S
C1670 C1666 1.531 . S
C1670 H1682 0.960 1_455 S
C1670 H1683 0.962 . S
C1670 H1684 0.960 . S
C1671 C1668 1.511 . S
C1671 H1685 0.961 . S
C1671 H1686 0.961 1_455 S
C1671 H1687 0.961 . S
C1672 C1673 1.370 . S
C1672 C1674 1.363 . S
C1672 H1688 0.931 . S
C1673 C1672 1.370 . S
C1673 C1677 1.408 . S
C1674 C1672 1.363 . S
C1674 C1675 1.370 . S
C1674 C1678 1.524 . S
C1675 C1667 1.503 1_655 S
C1675 C1674 1.370 . S
C1675 C1676 1.403 . S
C1676 C1675 1.403 . S
C1676 C1677 1.404 . S
C1676 C1679 1.539 . S
C1677 C1673 1.408 . S
C1677 C1676 1.404 . S
C1677 H1689 0.930 . S
C1678 C1674 1.524 . S
C1678 H1690 0.956 . S
C1678 H1691 0.961 1_655 S
C1678 H1692 0.961 . S
C1679 C1676 1.539 . S
C1679 H1693 0.958 . S
C1679 H1694 0.961 . S
C1679 H1695 0.967 . S
H1680 C1664 0.931 . S
H1681 C1669 0.929 . S
H1682 C1670 0.960 1_655 S
H1683 C1670 0.962 . S
H1684 C1670 0.960 . S
H1685 C1671 0.961 . S
H1686 C1671 0.961 1_655 S
H1687 C1671 0.961 . S
H1688 C1672 0.931 . S
H1689 C1677 0.930 . S
H1690 C1678 0.956 . S
H1691 C1678 0.961 1_455 S
H1692 C1678 0.961 . S
H1693 C1679 0.958 . S
H1694 C1679 0.961 . S
H1695 C1679 0.967 . S
C1696 C1697 1.391 . S
C1696 C1698 1.394 . S
C1696 H1712 0.931 . S
C1697 C1696 1.391 . S
C1697 C1701 1.376 . S
C1698 C1696 1.394 . S
C1698 C1699 1.369 . S
C1698 C1702 1.531 . S
C1699 C1698 1.369 . S
C1699 C1700 1.410 . S
C1699 C1707 1.503 1_565 S
C1700 C1699 1.410 . S
C1700 C1701 1.392 . S
C1700 C1703 1.511 . S
C1701 C1697 1.376 . S
C1701 C1700 1.392 . S
C1701 H1713 0.929 . S
C1702 C1698 1.531 . S
C1702 H1714 0.960 1_565 S
C1702 H1715 0.962 . S
C1702 H1716 0.960 . S
C1703 C1700 1.511 . S
C1703 H1717 0.961 . S
C1703 H1718 0.961 1_565 S
C1703 H1719 0.961 . S
C1704 C1705 1.370 . S
C1704 C1706 1.363 . S
C1704 H1720 0.931 . S
C1705 C1704 1.370 . S
C1705 C1709 1.408 . S
C1706 C1704 1.363 . S
C1706 C1707 1.370 . S
C1706 C1710 1.524 . S
C1707 C1699 1.503 1_545 S
C1707 C1706 1.370 . S
C1707 C1708 1.403 . S
C1708 C1707 1.403 . S
C1708 C1709 1.404 . S
C1708 C1711 1.539 . S
C1709 C1705 1.408 . S
C1709 C1708 1.404 . S
C1709 H1721 0.930 . S
C1710 C1706 1.524 . S
C1710 H1722 0.956 . S
C1710 H1723 0.961 1_545 S
C1710 H1724 0.961 . S
C1711 C1708 1.539 . S
C1711 H1725 0.958 . S
C1711 H1726 0.961 . S
C1711 H1727 0.973 . S
H1712 C1696 0.931 . S
H1713 C1701 0.929 . S
H1714 C1702 0.960 1_545 S
H1715 C1702 0.962 . S
H1716 C1702 0.960 . S
H1717 C1703 0.961 . S
H1718 C1703 0.961 1_545 S
H1719 C1703 0.961 . S
H1720 C1704 0.931 . S
H1721 C1709 0.930 . S
H1722 C1710 0.956 . S
H1723 C1710 0.961 1_565 S
H1724 C1710 0.961 . S
H1725 C1711 0.958 . S
H1726 C1711 0.961 . S
H1727 C1711 0.973 . S
C1728 C1729 1.391 . S
C1728 C1730 1.394 . S
C1728 H1744 0.931 . S
C1729 C1728 1.391 . S
C1729 C1733 1.376 . S
C1730 C1728 1.394 . S
C1730 C1731 1.369 . S
C1730 C1734 1.531 . S
C1731 C1730 1.369 . S
C1731 C1732 1.410 . S
C1731 C1739 1.503 . S
C1732 C1731 1.410 . S
C1732 C1733 1.392 . S
C1732 C1735 1.511 . S
C1733 C1729 1.376 . S
C1733 C1732 1.392 . S
C1733 H1745 0.929 . S
C1734 C1730 1.531 . S
C1734 H1746 0.960 . S
C1734 H1747 0.962 . S
C1734 H1748 0.960 . S
C1735 C1732 1.511 . S
C1735 H1749 0.961 . S
C1735 H1750 0.961 . S
C1735 H1751 0.961 . S
C1736 C1737 1.370 . S
C1736 C1738 1.363 . S
C1736 H1752 0.931 . S
C1737 C1736 1.370 . S
C1737 C1741 1.408 . S
C1738 C1736 1.363 . S
C1738 C1739 1.370 . S
C1738 C1742 1.524 . S
C1739 C1731 1.503 . S
C1739 C1738 1.370 . S
C1739 C1740 1.403 . S
C1740 C1739 1.403 . S
C1740 C1741 1.404 . S
C1740 C1743 1.539 . S
C1741 C1737 1.408 . S
C1741 C1740 1.404 . S
C1741 H1753 0.930 . S
C1742 C1738 1.524 . S
C1742 H1754 0.956 . S
C1742 H1755 0.961 . S
C1742 H1756 0.961 . S
C1743 C1740 1.539 . S
C1743 H1757 0.958 . S
C1743 H1758 0.961 . S
C1743 H1759 0.960 . S
H1744 C1728 0.931 . S
H1745 C1733 0.929 . S
H1746 C1734 0.960 . S
H1747 C1734 0.962 . S
H1748 C1734 0.960 . S
H1749 C1735 0.961 . S
H1750 C1735 0.961 . S
H1751 C1735 0.961 . S
H1752 C1736 0.931 . S
H1753 C1741 0.930 . S
H1754 C1742 0.956 . S
H1755 C1742 0.961 . S
H1756 C1742 0.961 . S
H1757 C1743 0.958 . S
H1758 C1743 0.961 . S
H1759 C1743 0.960 . S
C1760 C1761 1.391 . S
C1760 C1762 1.394 . S
C1760 H1776 0.931 . S
C1761 C1760 1.391 . S
C1761 C1765 1.376 . S
C1762 C1760 1.394 . S
C1762 C1763 1.369 . S
C1762 C1766 1.531 . S
C1763 C1762 1.369 . S
C1763 C1764 1.410 . S
C1763 C1771 1.503 1_655 S
C1764 C1763 1.410 . S
C1764 C1765 1.392 . S
C1764 C1767 1.511 . S
C1765 C1761 1.376 . S
C1765 C1764 1.392 . S
C1765 H1777 0.929 . S
C1766 C1762 1.531 . S
C1766 H1778 0.960 1_655 S
C1766 H1779 0.962 . S
C1766 H1780 0.960 . S
C1767 C1764 1.511 . S
C1767 H1781 0.942 1_554 S
C1767 H1782 0.961 1_655 S
C1767 H1783 0.961 . S
C1768 C1769 1.370 . S
C1768 C1770 1.363 . S
C1768 H1784 0.931 . S
C1769 C1768 1.370 . S
C1769 C1773 1.408 . S
C1770 C1768 1.363 . S
C1770 C1771 1.370 . S
C1770 C1774 1.524 . S
C1771 C1763 1.503 1_455 S
C1771 C1770 1.370 . S
C1771 C1772 1.403 . S
C1772 C1771 1.403 . S
C1772 C1773 1.404 . S
C1772 C1775 1.539 . S
C1773 C1769 1.408 . S
C1773 C1772 1.404 . S
C1773 H1785 0.930 . S
C1774 C1770 1.524 . S
C1774 H1786 0.956 . S
C1774 H1787 0.961 1_455 S
C1774 H1788 0.961 . S
C1775 C1772 1.539 . S
C1775 H1789 0.958 . S
C1775 H1790 0.961 . S
C1775 H1791 0.971 . S
H1776 C1760 0.931 . S
H1777 C1765 0.929 . S
H1778 C1766 0.960 1_455 S
H1779 C1766 0.962 . S
H1780 C1766 0.960 . S
H1781 C1767 0.942 1_556 S
H1782 C1767 0.961 1_455 S
H1783 C1767 0.961 . S
H1784 C1768 0.931 . S
H1785 C1773 0.930 . S
H1786 C1774 0.956 . S
H1787 C1774 0.961 1_655 S
H1788 C1774 0.961 . S
H1789 C1775 0.958 . S
H1790 C1775 0.961 . S
H1791 C1775 0.971 . S
C1792 C1793 1.391 . S
C1792 C1794 1.394 . S
C1792 H1808 0.931 . S
C1793 C1792 1.391 . S
C1793 C1797 1.376 . S
C1794 C1792 1.394 . S
C1794 C1795 1.369 . S
C1794 C1798 1.531 . S
C1795 C1794 1.369 . S
C1795 C1796 1.410 . S
C1795 C1803 1.503 1_545 S
C1796 C1795 1.410 . S
C1796 C1797 1.392 . S
C1796 C1799 1.511 . S
C1797 C1793 1.376 . S
C1797 C1796 1.392 . S
C1797 H1809 0.929 . S
C1798 C1794 1.531 . S
C1798 H1810 0.960 1_545 S
C1798 H1811 0.962 . S
C1798 H1812 0.960 . S
C1799 C1796 1.511 . S
C1799 H1813 0.961 . S
C1799 H1814 0.961 1_545 S
C1799 H1815 0.961 . S
C1800 C1801 1.370 . S
C1800 C1802 1.363 . S
C1800 H1816 0.931 . S
C1801 C1800 1.370 . S
C1801 C1805 1.408 . S
C1802 C1800 1.363 . S
C1802 C1803 1.370 . S
C1802 C1806 1.524 . S
C1803 C1795 1.503 1_565 S
C1803 C1802 1.370 . S
C1803 C1804 1.403 . S
C1804 C1803 1.403 . S
C1804 C1805 1.404 . S
C1804 C1807 1.539 . S
C1805 C1801 1.408 . S
C1805 C1804 1.404 . S
C1805 H1817 0.930 . S
C1806 C1802 1.524 . S
C1806 H1818 0.956 . S
C1806 H1819 0.961 1_565 S
C1806 H1820 0.961 . S
C1807 C1804 1.539 . S
C1807 H1821 0.958 . S
C1807 H1822 0.961 . S
C1807 H1823 0.967 . S
H1808 C1792 0.931 . S
H1809 C1797 0.929 . S
H1810 C1798 0.960 1_565 S
H1811 C1798 0.962 . S
H1812 C1798 0.960 . S
H1813 C1799 0.961 . S
H1814 C1799 0.961 1_565 S
H1815 C1799 0.961 . S
H1816 C1800 0.931 . S
H1817 C1805 0.930 . S
H1818 C1806 0.956 . S
H1819 C1806 0.961 1_545 S
H1820 C1806 0.961 . S
H1821 C1807 0.958 . S
H1822 C1807 0.961 . S
H1823 C1807 0.967 . S
C1824 C1825 1.391 . S
C1824 C1826 1.394 . S
C1824 H1840 0.931 . S
C1825 C1824 1.391 . S
C1825 C1829 1.376 . S
C1826 C1824 1.394 . S
C1826 C1827 1.369 . S
C1826 C1830 1.531 . S
C1827 C1826 1.369 . S
C1827 C1828 1.410 . S
C1827 C1835 1.503 . S
C1828 C1827 1.410 . S
C1828 C1829 1.392 . S
C1828 C1831 1.511 . S
C1829 C1825 1.376 . S
C1829 C1828 1.392 . S
C1829 H1841 0.929 . S
C1830 C1826 1.531 . S
C1830 H1842 0.960 . S
C1830 H1843 0.962 . S
C1830 H1844 0.960 . S
C1831 C1828 1.511 . S
C1831 H1845 0.961 . S
C1831 H1846 0.961 . S
C1831 H1847 0.961 . S
C1832 C1833 1.370 . S
C1832 C1834 1.363 . S
C1832 H1848 0.931 . S
C1833 C1832 1.370 . S
C1833 C1837 1.408 . S
C1834 C1832 1.363 . S
C1834 C1835 1.370 . S
C1834 C1838 1.524 . S
C1835 C1827 1.503 . S
C1835 C1834 1.370 . S
C1835 C1836 1.403 . S
C1836 C1835 1.403 . S
C1836 C1837 1.404 . S
C1836 C1839 1.539 . S
C1837 C1833 1.408 . S
C1837 C1836 1.404 . S
C1837 H1849 0.930 . S
C1838 C1834 1.524 . S
C1838 H1850 0.956 . S
C1838 H1851 0.961 . S
C1838 H1852 0.961 . S
C1839 C1836 1.539 . S
C1839 H1853 0.958 . S
C1839 H1854 0.961 . S
C1839 H1855 0.960 . S
H1840 C1824 0.931 . S
H1841 C1829 0.929 . S
H1842 C1830 0.960 . S
H1843 C1830 0.962 . S
H1844 C1830 0.960 . S
H1845 C1831 0.961 . S
H1846 C1831 0.961 . S
H1847 C1831 0.961 . S
H1848 C1832 0.931 . S
H1849 C1837 0.930 . S
H1850 C1838 0.956 . S
H1851 C1838 0.961 . S
H1852 C1838 0.961 . S
H1853 C1839 0.958 . S
H1854 C1839 0.961 . S
H1855 C1839 0.960 . S
C1856 C1857 1.391 . S
C1856 C1858 1.394 . S
C1856 H1872 0.931 . S
C1857 C1856 1.391 . S
C1857 C1861 1.376 . S
C1858 C1856 1.394 . S
C1858 C1859 1.369 . S
C1858 C1862 1.531 . S
C1859 C1858 1.369 . S
C1859 C1860 1.410 . S
C1859 C1867 1.503 1_655 S
C1860 C1859 1.410 . S
C1860 C1861 1.392 . S
C1860 C1863 1.511 . S
C1861 C1857 1.376 . S
C1861 C1860 1.392 . S
C1861 H1873 0.929 . S
C1862 C1858 1.531 . S
C1862 H1874 0.960 1_655 S
C1862 H1875 0.962 . S
C1862 H1876 0.960 . S
C1863 C1860 1.511 . S
C1863 H1877 0.961 . S
C1863 H1878 0.961 1_655 S
C1863 H1879 0.961 . S
C1864 C1865 1.370 . S
C1864 C1866 1.363 . S
C1864 H1880 0.931 . S
C1865 C1864 1.370 . S
C1865 C1869 1.408 . S
C1866 C1864 1.363 . S
C1866 C1867 1.370 . S
C1866 C1870 1.524 . S
C1867 C1859 1.503 1_455 S
C1867 C1866 1.370 . S
C1867 C1868 1.403 . S
C1868 C1867 1.403 . S
C1868 C1869 1.404 . S
C1868 C1871 1.539 . S
C1869 C1865 1.408 . S
C1869 C1868 1.404 . S
C1869 H1881 0.930 . S
C1870 C1866 1.524 . S
C1870 H1882 0.956 . S
C1870 H1883 0.961 1_455 S
C1870 H1884 0.961 . S
C1871 C1868 1.539 . S
C1871 H1885 0.958 . S
C1871 H1886 0.961 . S
C1871 H1887 0.972 . S
H1872 C1856 0.931 . S
H1873 C1861 0.929 . S
H1874 C1862 0.960 1_455 S
H1875 C1862 0.962 . S
H1876 C1862 0.960 . S
H1877 C1863 0.961 . S
H1878 C1863 0.961 1_455 S
H1879 C1863 0.961 . S
H1880 C1864 0.931 . S
H1881 C1869 0.930 . S
H1882 C1870 0.956 . S
H1883 C1870 0.961 1_655 S
H1884 C1870 0.961 . S
H1885 C1871 0.958 . S
H1886 C1871 0.961 . S
H1887 C1871 0.972 . S
C1888 C1889 1.391 . S
C1888 C1890 1.394 . S
C1888 H1904 0.931 . S
C1889 C1888 1.391 . S
C1889 C1893 1.376 . S
C1890 C1888 1.394 . S
C1890 C1891 1.369 . S
C1890 C1894 1.531 . S
C1891 C1890 1.369 . S
C1891 C1892 1.410 . S
C1891 C1899 1.503 1_545 S
C1892 C1891 1.410 . S
C1892 C1893 1.392 . S
C1892 C1895 1.511 . S
C1893 C1889 1.376 . S
C1893 C1892 1.392 . S
C1893 H1905 0.929 . S
C1894 C1890 1.531 . S
C1894 H1906 0.960 1_545 S
C1894 H1907 0.962 . S
C1894 H1908 0.960 . S
C1895 C1892 1.511 . S
C1895 H1909 0.961 . S
C1895 H1910 0.961 1_545 S
C1895 H1911 0.961 . S
C1896 C1897 1.370 . S
C1896 C1898 1.363 . S
C1896 H1912 0.931 . S
C1897 C1896 1.370 . S
C1897 C1901 1.408 . S
C1898 C1896 1.363 . S
C1898 C1899 1.370 . S
C1898 C1902 1.524 . S
C1899 C1891 1.503 1_565 S
C1899 C1898 1.370 . S
C1899 C1900 1.403 . S
C1900 C1899 1.403 . S
C1900 C1901 1.404 . S
C1900 C1903 1.539 . S
C1901 C1897 1.408 . S
C1901 C1900 1.404 . S
C1901 H1913 0.930 . S
C1902 C1898 1.524 . S
C1902 H1914 0.956 . S
C1902 H1915 0.961 1_565 S
C1902 H1916 0.961 . S
C1903 C1900 1.539 . S
C1903 H1917 0.958 . S
C1903 H1918 0.961 . S
C1903 H1919 0.968 . S
H1904 C1888 0.931 . S
H1905 C1893 0.929 . S
H1906 C1894 0.960 1_565 S
H1907 C1894 0.962 . S
H1908 C1894 0.960 . S
H1909 C1895 0.961 . S
H1910 C1895 0.961 1_565 S
H1911 C1895 0.961 . S
H1912 C1896 0.931 . S
H1913 C1901 0.930 . S
H1914 C1902 0.956 . S
H1915 C1902 0.961 1_545 S
H1916 C1902 0.961 . S
H1917 C1903 0.958 . S
H1918 C1903 0.961 . S
H1919 C1903 0.968 . S
C1920 C1921 1.391 . S
C1920 C1922 1.394 . S
C1920 H1936 0.931 . S
C1921 C1920 1.391 . S
C1921 C1925 1.376 . S
C1922 C1920 1.394 . S
C1922 C1923 1.369 . S
C1922 C1926 1.531 . S
C1923 C1922 1.369 . S
C1923 C1924 1.410 . S
C1923 C1931 1.503 . S
C1924 C1923 1.410 . S
C1924 C1925 1.392 . S
C1924 C1927 1.511 . S
C1925 C1921 1.376 . S
C1925 C1924 1.392 . S
C1925 H1937 0.929 . S
C1926 C1922 1.531 . S
C1926 H1938 0.960 . S
C1926 H1939 0.962 . S
C1926 H1940 0.960 . S
C1927 C1924 1.511 . S
C1927 H1941 0.961 . S
C1927 H1942 0.961 . S
C1927 H1943 0.961 . S
C1928 C1929 1.370 . S
C1928 C1930 1.363 . S
C1928 H1944 0.931 . S
C1929 C1928 1.370 . S
C1929 C1933 1.408 . S
C1930 C1928 1.363 . S
C1930 C1931 1.370 . S
C1930 C1934 1.524 . S
C1931 C1923 1.503 . S
C1931 C1930 1.370 . S
C1931 C1932 1.403 . S
C1932 C1931 1.403 . S
C1932 C1933 1.404 . S
C1932 C1935 1.539 . S
C1933 C1929 1.408 . S
C1933 C1932 1.404 . S
C1933 H1945 0.930 . S
C1934 C1930 1.524 . S
C1934 H1946 0.956 . S
C1934 H1947 0.961 . S
C1934 H1948 0.961 . S
C1935 C1932 1.539 . S
C1935 H1949 0.958 . S
C1935 H1950 0.961 . S
C1935 H1951 0.960 . S
H1936 C1920 0.931 . S
H1937 C1925 0.929 . S
H1938 C1926 0.960 . S
H1939 C1926 0.962 . S
H1940 C1926 0.960 . S
H1941 C1927 0.961 . S
H1942 C1927 0.961 . S
H1943 C1927 0.961 . S
H1944 C1928 0.931 . S
H1945 C1933 0.930 . S
H1946 C1934 0.956 . S
H1947 C1934 0.961 . S
H1948 C1934 0.961 . S
H1949 C1935 0.958 . S
H1950 C1935 0.961 . S
H1951 C1935 0.960 . S
C1952 C1953 1.391 . S
C1952 C1954 1.394 . S
C1952 H1968 0.931 . S
C1953 C1952 1.391 . S
C1953 C1957 1.376 . S
C1954 C1952 1.394 . S
C1954 C1955 1.369 . S
C1954 C1958 1.531 . S
C1955 C1954 1.369 . S
C1955 C1956 1.410 . S
C1955 C1963 1.503 1_455 S
C1956 C1955 1.410 . S
C1956 C1957 1.392 . S
C1956 C1959 1.511 . S
C1957 C1953 1.376 . S
C1957 C1956 1.392 . S
C1957 H1969 0.929 . S
C1958 C1954 1.531 . S
C1958 H1970 0.960 1_455 S
C1958 H1971 0.962 . S
C1958 H1972 0.960 1_556 S
C1959 C1956 1.511 . S
C1959 H1973 0.961 . S
C1959 H1974 0.961 1_455 S
C1959 H1975 0.961 . S
C1960 C1961 1.370 . S
C1960 C1962 1.363 . S
C1960 H1976 0.931 . S
C1961 C1960 1.370 . S
C1961 C1965 1.408 . S
C1962 C1960 1.363 . S
C1962 C1963 1.370 . S
C1962 C1966 1.524 . S
C1963 C1955 1.503 1_655 S
C1963 C1962 1.370 . S
C1963 C1964 1.403 . S
C1964 C1963 1.403 . S
C1964 C1965 1.404 . S
C1964 C1967 1.539 . S
C1965 C1961 1.408 . S
C1965 C1964 1.404 . S
C1965 H1977 0.930 . S
C1966 C1962 1.524 . S
C1966 H1978 0.956 . S
C1966 H1979 0.961 1_655 S
C1966 H1980 0.961 . S
C1967 C1964 1.539 . S
C1967 H1981 0.958 . S
C1967 H1982 0.961 . S
C1967 H1983 0.969 . S
H1968 C1952 0.931 . S
H1969 C1957 0.929 . S
H1970 C1958 0.960 1_655 S
H1971 C1958 0.962 . S
H1972 C1958 0.960 1_554 S
H1973 C1959 0.961 . S
H1974 C1959 0.961 1_655 S
H1975 C1959 0.961 . S
H1976 C1960 0.931 . S
H1977 C1965 0.930 . S
H1978 C1966 0.956 . S
H1979 C1966 0.961 1_455 S
H1980 C1966 0.961 . S
H1981 C1967 0.958 . S
H1982 C1967 0.961 . S
H1983 C1967 0.969 . S
C1984 C1985 1.391 . S
C1984 C1986 1.394 . S
C1984 H2000 0.931 . S
C1985 C1984 1.391 . S
C1985 C1989 1.376 . S
C1986 C1984 1.394 . S
C1986 C1987 1.369 . S
C1986 C1990 1.531 . S
C1987 C1986 1.369 . S
C1987 C1988 1.410 . S
C1987 C1995 1.503 1_565 S
C1988 C1987 1.410 . S
C1988 C1989 1.392 . S
C1988 C1991 1.511 . S
C1989 C1985 1.376 . S
C1989 C1988 1.392 . S
C1989 H2001 0.929 . S
C1990 C1986 1.531 . S
C1990 H2002 0.960 1_565 S
C1990 H2003 0.962 . S
C1990 H2004 0.960 . S
C1991 C1988 1.511 . S
C1991 H2005 0.961 . S
C1991 H2006 0.961 1_565 S
C1991 H2007 0.961 . S
C1992 C1993 1.370 . S
C1992 C1994 1.363 . S
C1992 H2008 0.931 . S
C1993 C1992 1.370 . S
C1993 C1997 1.408 . S
C1994 C1992 1.363 . S
C1994 C1995 1.370 . S
C1994 C1998 1.524 . S
C1995 C1987 1.503 1_545 S
C1995 C1994 1.370 . S
C1995 C1996 1.403 . S
C1996 C1995 1.403 . S
C1996 C1997 1.404 . S
C1996 C1999 1.539 . S
C1997 C1993 1.408 . S
C1997 C1996 1.404 . S
C1997 H2009 0.930 . S
C1998 C1994 1.524 . S
C1998 H2010 0.956 . S
C1998 H2011 0.961 1_545 S
C1998 H2012 0.961 . S
C1999 C1996 1.539 . S
C1999 H2013 0.958 . S
C1999 H2014 0.961 . S
C1999 H2015 0.972 . S
H2000 C1984 0.931 . S
H2001 C1989 0.929 . S
H2002 C1990 0.960 1_545 S
H2003 C1990 0.962 . S
H2004 C1990 0.960 . S
H2005 C1991 0.961 . S
H2006 C1991 0.961 1_545 S
H2007 C1991 0.961 . S
H2008 C1992 0.931 . S
H2009 C1997 0.930 . S
H2010 C1998 0.956 . S
H2011 C1998 0.961 1_565 S
H2012 C1998 0.961 . S
H2013 C1999 0.958 . S
H2014 C1999 0.961 . S
H2015 C1999 0.972 . S
C2016 C2017 1.391 . S
C2016 C2018 1.394 1_556 S
C2016 H2032 0.930 1_556 S
C2017 C2016 1.391 . S
C2017 C2021 1.376 . S
C2018 C2016 1.394 1_554 S
C2018 C2019 1.369 1_554 S
C2018 C2022 1.531 . S
C2019 C2018 1.369 1_556 S
C2019 C2020 1.410 . S
C2019 C2027 1.503 1_556 S
C2020 C2019 1.410 . S
C2020 C2021 1.392 . S
C2020 C2023 1.511 . S
C2021 C2017 1.376 . S
C2021 C2020 1.392 . S
C2021 H2033 0.929 . S
C2022 C2018 1.531 . S
C2022 H2034 0.960 . S
C2022 H2035 0.962 . S
C2022 H2036 0.960 . S
C2023 C2020 1.511 . S
C2023 H2037 0.961 . S
C2023 H2038 0.961 . S
C2023 H2039 0.961 . S
C2024 C2025 1.370 . S
C2024 C2026 1.363 1_554 S
C2024 H2040 0.931 . S
C2025 C2024 1.370 . S
C2025 C2029 1.408 . S
C2026 C2024 1.363 1_556 S
C2026 C2027 1.370 1_556 S
C2026 C2030 1.524 . S
C2027 C2019 1.503 1_554 S
C2027 C2026 1.370 1_554 S
C2027 C2028 1.403 . S
C2028 C2027 1.403 . S
C2028 C2029 1.404 . S
C2028 C2031 1.539 . S
C2029 C2025 1.408 . S
C2029 C2028 1.404 . S
C2029 H2041 0.930 . S
C2030 C2026 1.524 . S
C2030 H2042 0.956 . S
C2030 H2043 0.961 . S
C2030 H2044 0.961 . S
C2031 C2028 1.539 . S
C2031 H2045 0.958 . S
C2031 H2046 0.961 . S
C2031 H2047 0.960 . S
H2032 C2016 0.930 1_554 S
H2033 C2021 0.929 . S
H2034 C2022 0.960 . S
H2035 C2022 0.962 . S
H2036 C2022 0.960 . S
H2037 C2023 0.961 . S
H2038 C2023 0.961 . S
H2039 C2023 0.961 . S
H2040 C2024 0.931 . S
H2041 C2029 0.930 . S
H2042 C2030 0.956 . S
H2043 C2030 0.961 . S
H2044 C2030 0.961 . S
H2045 C2031 0.958 . S
H2046 C2031 0.961 . S
H2047 C2031 0.960 . S
C2048 C2049 1.391 . S
C2048 C2050 1.394 . S
C2048 H2064 0.931 . S
C2049 C2048 1.391 . S
C2049 C2053 1.376 . S
C2050 C2048 1.394 . S
C2050 C2051 1.369 . S
C2050 C2054 1.531 . S
C2051 C2050 1.369 . S
C2051 C2052 1.410 . S
C2051 C2059 1.503 . S
C2052 C2051 1.410 . S
C2052 C2053 1.392 . S
C2052 C2055 1.511 . S
C2053 C2049 1.376 . S
C2053 C2052 1.392 . S
C2053 H2065 0.929 . S
C2054 C2050 1.531 . S
C2054 H2066 0.960 . S
C2054 H2067 0.962 . S
C2054 H2068 0.960 . S
C2055 C2052 1.511 . S
C2055 H2069 0.961 . S
C2055 H2070 0.961 . S
C2055 H2071 0.961 . S
C2056 C2057 1.370 . S
C2056 C2058 1.363 . S
C2056 H2072 0.931 . S
C2057 C2056 1.370 . S
C2057 C2061 1.408 . S
C2058 C2056 1.363 . S
C2058 C2059 1.370 . S
C2058 C2062 1.524 . S
C2059 C2051 1.503 . S
C2059 C2058 1.370 . S
C2059 C2060 1.403 . S
C2060 C2059 1.403 . S
C2060 C2061 1.404 . S
C2060 C2063 1.539 . S
C2061 C2057 1.408 . S
C2061 C2060 1.404 . S
C2061 H2073 0.930 . S
C2062 C2058 1.524 . S
C2062 H2074 0.956 . S
C2062 H2075 0.961 . S
C2062 H2076 0.961 . S
C2063 C2060 1.539 . S
C2063 H2077 0.958 . S
C2063 H2078 0.961 . S
C2063 H2079 0.960 . S
H2064 C2048 0.931 . S
H2065 C2053 0.929 . S
H2066 C2054 0.960 . S
H2067 C2054 0.962 . S
H2068 C2054 0.960 . S
H2069 C2055 0.961 . S
H2070 C2055 0.961 . S
H2071 C2055 0.961 . S
H2072 C2056 0.931 . S
H2073 C2061 0.930 . S
H2074 C2062 0.956 . S
H2075 C2062 0.961 . S
H2076 C2062 0.961 . S
H2077 C2063 0.958 . S
H2078 C2063 0.961 . S
H2079 C2063 0.960 . S
C2080 C2081 1.391 . S
C2080 C2082 1.394 1_556 S
C2080 H2096 0.931 1_556 S
C2081 C2080 1.391 . S
C2081 C2085 1.376 . S
C2082 C2080 1.394 1_554 S
C2082 C2083 1.369 1_554 S
C2082 C2086 1.531 . S
C2083 C2082 1.369 1_556 S
C2083 C2084 1.410 . S
C2083 C2091 1.503 1_556 S
C2084 C2083 1.410 . S
C2084 C2085 1.392 . S
C2084 C2087 1.511 . S
C2085 C2081 1.376 . S
C2085 C2084 1.392 . S
C2085 H2097 0.929 . S
C2086 C2082 1.531 . S
C2086 H2098 0.960 . S
C2086 H2099 0.962 . S
C2086 H2100 0.960 . S
C2087 C2084 1.511 . S
C2087 H2101 0.961 . S
C2087 H2102 0.961 . S
C2087 H2103 0.961 . S
C2088 C2089 1.370 . S
C2088 C2090 1.363 . S
C2088 H2104 0.931 . S
C2089 C2088 1.370 . S
C2089 C2093 1.408 . S
C2090 C2088 1.363 . S
C2090 C2091 1.370 . S
C2090 C2094 1.524 . S
C2091 C2083 1.503 1_554 S
C2091 C2090 1.370 . S
C2091 C2092 1.403 . S
C2092 C2091 1.403 . S
C2092 C2093 1.404 . S
C2092 C2095 1.539 1_554 S
C2093 C2089 1.408 . S
C2093 C2092 1.404 . S
C2093 H2105 0.930 . S
C2094 C2090 1.524 . S
C2094 H2106 0.956 . S
C2094 H2107 0.996 . S
C2094 H2108 0.961 . S
C2095 C2092 1.539 1_556 S
C2095 H2109 0.939 1_556 S
C2095 H2110 0.961 . S
C2095 H2111 0.960 . S
H2096 C2080 0.931 1_554 S
H2097 C2085 0.929 . S
H2098 C2086 0.960 . S
H2099 C2086 0.962 . S
H2100 C2086 0.960 . S
H2101 C2087 0.961 . S
H2102 C2087 0.961 . S
H2103 C2087 0.961 . S
H2104 C2088 0.931 . S
H2105 C2093 0.930 . S
H2106 C2094 0.956 . S
H2107 C2094 0.996 . S
H2108 C2094 0.961 . S
H2109 C2095 0.939 1_554 S
H2110 C2095 0.961 . S
H2111 C2095 0.960 . S
C2112 C2113 1.391 . S
C2112 C2114 1.394 . S
C2112 H2128 0.931 . S
C2113 C2112 1.391 . S
C2113 C2117 1.376 . S
C2114 C2112 1.394 . S
C2114 C2115 1.369 . S
C2114 C2118 1.531 . S
C2115 C2114 1.369 . S
C2115 C2116 1.410 . S
C2115 C2123 1.503 . S
C2116 C2115 1.410 . S
C2116 C2117 1.392 . S
C2116 C2119 1.511 . S
C2117 C2113 1.376 . S
C2117 C2116 1.392 . S
C2117 H2129 0.929 . S
C2118 C2114 1.531 . S
C2118 H2130 0.960 . S
C2118 H2131 0.962 . S
C2118 H2132 0.960 . S
C2119 C2116 1.511 . S
C2119 H2133 0.961 . S
C2119 H2134 0.961 . S
C2119 H2135 0.961 . S
C2120 C2121 1.370 . S
C2120 C2122 1.363 . S
C2120 H2136 0.931 . S
C2121 C2120 1.370 . S
C2121 C2125 1.408 . S
C2122 C2120 1.363 . S
C2122 C2123 1.370 . S
C2122 C2126 1.524 . S
C2123 C2115 1.503 . S
C2123 C2122 1.370 . S
C2123 C2124 1.403 . S
C2124 C2123 1.403 . S
C2124 C2125 1.404 . S
C2124 C2127 1.539 . S
C2125 C2121 1.408 . S
C2125 C2124 1.404 . S
C2125 H2137 0.930 . S
C2126 C2122 1.524 . S
C2126 H2138 0.956 . S
C2126 H2139 0.961 . S
C2126 H2140 0.961 . S
C2127 C2124 1.539 . S
C2127 H2141 0.958 . S
C2127 H2142 0.961 . S
C2127 H2143 0.960 . S
H2128 C2112 0.931 . S
H2129 C2117 0.929 . S
H2130 C2118 0.960 . S
H2131 C2118 0.962 . S
H2132 C2118 0.960 . S
H2133 C2119 0.961 . S
H2134 C2119 0.961 . S
H2135 C2119 0.961 . S
H2136 C2120 0.931 . S
H2137 C2125 0.930 . S
H2138 C2126 0.956 . S
H2139 C2126 0.961 . S
H2140 C2126 0.961 . S
H2141 C2127 0.958 . S
H2142 C2127 0.961 . S
H2143 C2127 0.960 . S
C2144 C2145 1.391 . S
C2144 C2146 1.394 . S
C2144 H2160 0.931 . S
C2145 C2144 1.391 . S
C2145 C2149 1.376 . S
C2146 C2144 1.394 . S
C2146 C2147 1.369 . S
C2146 C2150 1.531 . S
C2147 C2146 1.369 . S
C2147 C2148 1.410 . S
C2147 C2155 1.503 1_556 S
C2148 C2147 1.410 . S
C2148 C2149 1.392 . S
C2148 C2151 1.511 . S
C2149 C2145 1.376 . S
C2149 C2148 1.392 . S
C2149 H2161 0.929 . S
C2150 C2146 1.531 . S
C2150 H2162 0.960 . S
C2150 H2163 0.962 1_556 S
C2150 H2164 0.960 . S
C2151 C2148 1.511 . S
C2151 H2165 0.961 . S
C2151 H2166 0.961 . S
C2151 H2167 0.961 . S
C2152 C2153 1.370 . S
C2152 C2154 1.363 . S
C2152 H2168 0.931 . S
C2153 C2152 1.370 . S
C2153 C2157 1.408 . S
C2154 C2152 1.363 . S
C2154 C2155 1.370 . S
C2154 C2158 1.524 . S
C2155 C2147 1.503 1_554 S
C2155 C2154 1.370 . S
C2155 C2156 1.403 1_554 S
C2156 C2155 1.403 1_556 S
C2156 C2157 1.404 1_556 S
C2156 C2159 1.539 . S
C2157 C2153 1.408 . S
C2157 C2156 1.404 1_554 S
C2157 H2169 0.930 1_554 S
C2158 C2154 1.524 . S
C2158 H2170 0.956 . S
C2158 H2171 0.961 . S
C2158 H2172 0.961 . S
C2159 C2156 1.539 . S
C2159 H2173 0.958 . S
C2159 H2174 0.961 . S
C2159 H2175 0.960 . S
H2160 C2144 0.931 . S
H2161 C2149 0.929 . S
H2162 C2150 0.960 . S
H2163 C2150 0.962 1_554 S
H2164 C2150 0.960 . S
H2165 C2151 0.961 . S
H2166 C2151 0.961 . S
H2167 C2151 0.961 . S
H2168 C2152 0.931 . S
H2169 C2157 0.930 1_556 S
H2170 C2158 0.956 . S
H2171 C2158 0.961 . S
H2172 C2158 0.961 . S
H2173 C2159 0.958 . S
H2174 C2159 0.961 . S
H2175 C2159 0.960 . S
C2176 C2177 1.391 . S
C2176 C2178 1.394 . S
C2176 H2192 0.931 . S
C2177 C2176 1.391 . S
C2177 C2181 1.376 . S
C2178 C2176 1.394 . S
C2178 C2179 1.369 . S
C2178 C2182 1.531 . S
C2179 C2178 1.369 . S
C2179 C2180 1.410 . S
C2179 C2187 1.503 . S
C2180 C2179 1.410 . S
C2180 C2181 1.392 . S
C2180 C2183 1.511 . S
C2181 C2177 1.376 . S
C2181 C2180 1.392 . S
C2181 H2193 0.929 . S
C2182 C2178 1.531 . S
C2182 H2194 0.960 . S
C2182 H2195 0.962 . S
C2182 H2196 0.960 . S
C2183 C2180 1.511 . S
C2183 H2197 0.961 . S
C2183 H2198 0.961 . S
C2183 H2199 0.961 . S
C2184 C2185 1.370 . S
C2184 C2186 1.363 . S
C2184 H2200 0.931 . S
C2185 C2184 1.370 . S
C2185 C2189 1.408 . S
C2186 C2184 1.363 . S
C2186 C2187 1.370 . S
C2186 C2190 1.524 . S
C2187 C2179 1.503 . S
C2187 C2186 1.370 . S
C2187 C2188 1.403 . S
C2188 C2187 1.403 . S
C2188 C2189 1.404 . S
C2188 C2191 1.539 . S
C2189 C2185 1.408 . S
C2189 C2188 1.404 . S
C2189 H2201 0.930 . S
C2190 C2186 1.524 . S
C2190 H2202 0.956 . S
C2190 H2203 0.961 . S
C2190 H2204 0.961 . S
C2191 C2188 1.539 . S
C2191 H2205 0.958 . S
C2191 H2206 0.961 . S
C2191 H2207 0.960 . S
H2192 C2176 0.931 . S
H2193 C2181 0.929 . S
H2194 C2182 0.960 . S
H2195 C2182 0.962 . S
H2196 C2182 0.960 . S
H2197 C2183 0.961 . S
H2198 C2183 0.961 . S
H2199 C2183 0.961 . S
H2200 C2184 0.931 . S
H2201 C2189 0.930 . S
H2202 C2190 0.956 . S
H2203 C2190 0.961 . S
H2204 C2190 0.961 . S
H2205 C2191 0.958 . S
H2206 C2191 0.961 . S
H2207 C2191 0.960 . S
C2208 C2209 1.391 . S
C2208 C2210 1.394 . S
C2208 H2224 0.931 . S
C2209 C2208 1.391 . S
C2209 C2213 1.376 . S
C2210 C2208 1.394 . S
C2210 C2211 1.369 . S
C2210 C2214 1.531 . S
C2211 C2210 1.369 . S
C2211 C2212 1.422 . S
C2211 C2219 1.503 1_554 S
C2212 C2211 1.422 . S
C2212 C2213 1.405 . S
C2212 C2215 1.487 1_554 S
C2213 C2209 1.376 . S
C2213 C2212 1.405 . S
C2213 H2225 0.929 . S
C2214 C2210 1.531 . S
C2214 H2226 0.960 . S
C2214 H2227 0.962 . S
C2214 H2228 0.960 . S
C2215 C2212 1.487 1_556 S
C2215 H2229 0.961 . S
C2215 H2230 0.961 . S
C2215 H2231 0.961 . S
C2216 C2217 1.370 . S
C2216 C2218 1.363 . S
C2216 H2232 0.931 . S
C2217 C2216 1.370 . S
C2217 C2221 1.408 . S
C2218 C2216 1.363 . S
C2218 C2219 1.370 . S
C2218 C2222 1.524 . S
C2219 C2211 1.503 1_556 S
C2219 C2218 1.370 . S
C2219 C2220 1.403 1_556 S
C2220 C2219 1.403 1_554 S
C2220 C2221 1.404 1_554 S
C2220 C2223 1.539 . S
C2221 C2217 1.408 . S
C2221 C2220 1.404 1_556 S
C2221 H2233 0.930 . S
C2222 C2218 1.524 . S
C2222 H2234 0.956 . S
C2222 H2235 0.961 . S
C2222 H2236 0.961 . S
C2223 C2220 1.539 . S
C2223 H2237 0.958 . S
C2223 H2238 0.961 . S
C2223 H2239 0.960 . S
H2224 C2208 0.931 . S
H2225 C2213 0.929 . S
H2226 C2214 0.960 . S
H2227 C2214 0.962 . S
H2228 C2214 0.960 . S
H2229 C2215 0.961 . S
H2230 C2215 0.961 . S
H2231 C2215 0.961 . S
H2232 C2216 0.931 . S
H2233 C2221 0.930 . S
H2234 C2222 0.956 . S
H2235 C2222 0.961 . S
H2236 C2222 0.961 . S
H2237 C2223 0.958 . S
H2238 C2223 0.961 . S
H2239 C2223 0.960 . S
C2240 C2241 1.391 . S
C2240 C2242 1.394 . S
C2240 H2256 0.931 . S
C2241 C2240 1.391 . S
C2241 C2245 1.376 . S
C2242 C2240 1.394 . S
C2242 C2243 1.369 . S
C2242 C2246 1.531 . S
C2243 C2242 1.369 . S
C2243 C2244 1.410 . S
C2243 C2251 1.503 . S
C2244 C2243 1.410 . S
C2244 C2245 1.392 . S
C2244 C2247 1.511 . S
C2245 C2241 1.376 . S
C2245 C2244 1.392 . S
C2245 H2257 0.929 . S
C2246 C2242 1.531 . S
C2246 H2258 0.960 . S
C2246 H2259 0.962 . S
C2246 H2260 0.960 . S
C2247 C2244 1.511 . S
C2247 H2261 0.961 . S
C2247 H2262 0.961 . S
C2247 H2263 0.961 . S
C2248 C2249 1.370 . S
C2248 C2250 1.363 . S
C2248 H2264 0.931 . S
C2249 C2248 1.370 . S
C2249 C2253 1.408 . S
C2250 C2248 1.363 . S
C2250 C2251 1.370 . S
C2250 C2254 1.524 . S
C2251 C2243 1.503 . S
C2251 C2250 1.370 . S
C2251 C2252 1.403 . S
C2252 C2251 1.403 . S
C2252 C2253 1.404 . S
C2252 C2255 1.539 . S
C2253 C2249 1.408 . S
C2253 C2252 1.404 . S
C2253 H2265 0.930 . S
C2254 C2250 1.524 . S
C2254 H2266 0.956 . S
C2254 H2267 0.961 . S
C2254 H2268 0.961 . S
C2255 C2252 1.539 . S
C2255 H2269 0.958 . S
C2255 H2270 0.961 . S
C2255 H2271 0.960 . S
H2256 C2240 0.931 . S
H2257 C2245 0.929 . S
H2258 C2246 0.960 . S
H2259 C2246 0.962 . S
H2260 C2246 0.960 . S
H2261 C2247 0.961 . S
H2262 C2247 0.961 . S
H2263 C2247 0.961 . S
H2264 C2248 0.931 . S
H2265 C2253 0.930 . S
H2266 C2254 0.956 . S
H2267 C2254 0.961 . S
H2268 C2254 0.961 . S
H2269 C2255 0.958 . S
H2270 C2255 0.961 . S
H2271 C2255 0.960 . S
C2272 C2273 1.391 . S
C2272 C2274 1.394 . S
C2272 H2288 0.931 . S
C2273 C2272 1.391 . S
C2273 C2277 1.376 . S
C2274 C2272 1.394 . S
C2274 C2275 1.369 . S
C2274 C2278 1.531 . S
C2275 C2274 1.369 . S
C2275 C2276 1.410 1_554 S
C2275 C2283 1.503 1_554 S
C2276 C2275 1.410 1_556 S
C2276 C2277 1.392 1_556 S
C2276 C2279 1.511 . S
C2277 C2273 1.376 . S
C2277 C2276 1.392 1_554 S
C2277 H2289 0.929 1_554 S
C2278 C2274 1.531 . S
C2278 H2290 0.960 . S
C2278 H2291 0.962 . S
C2278 H2292 0.960 . S
C2279 C2276 1.511 . S
C2279 H2293 0.961 . S
C2279 H2294 0.961 . S
C2279 H2295 0.961 . S
C2280 C2281 1.370 . S
C2280 C2282 1.363 . S
C2280 H2296 0.931 . S
C2281 C2280 1.370 . S
C2281 C2285 1.408 . S
C2282 C2280 1.363 . S
C2282 C2283 1.370 . S
C2282 C2286 1.524 . S
C2283 C2275 1.503 1_556 S
C2283 C2282 1.370 . S
C2283 C2284 1.403 . S
C2284 C2283 1.403 . S
C2284 C2285 1.404 . S
C2284 C2287 1.539 1_556 S
C2285 C2281 1.408 . S
C2285 C2284 1.404 . S
C2285 H2297 0.930 . S
C2286 C2282 1.524 . S
C2286 H2298 0.956 1_556 S
C2286 H2299 0.961 . S
C2286 H2300 0.961 . S
C2287 C2284 1.539 1_554 S
C2287 H2301 0.958 . S
C2287 H2302 0.961 1_554 S
C2287 H2303 0.960 . S
H2288 C2272 0.931 . S
H2289 C2277 0.929 1_556 S
H2290 C2278 0.960 . S
H2291 C2278 0.962 . S
H2292 C2278 0.960 . S
H2293 C2279 0.961 . S
H2294 C2279 0.961 . S
H2295 C2279 0.961 . S
H2296 C2280 0.931 . S
H2297 C2285 0.930 . S
H2298 C2286 0.956 1_554 S
H2299 C2286 0.961 . S
H2300 C2286 0.961 . S
H2301 C2287 0.958 . S
H2302 C2287 0.961 1_556 S
H2303 C2287 0.960 . S
C2304 C2305 1.391 . S
C2304 C2306 1.394 . S
C2304 H2320 0.931 . S
C2305 C2304 1.391 . S
C2305 C2309 1.376 . S
C2306 C2304 1.394 . S
C2306 C2307 1.369 . S
C2306 C2310 1.531 . S
C2307 C2306 1.369 . S
C2307 C2308 1.410 . S
C2307 C2315 1.503 . S
C2308 C2307 1.410 . S
C2308 C2309 1.392 . S
C2308 C2311 1.511 . S
C2309 C2305 1.376 . S
C2309 C2308 1.392 . S
C2309 H2321 0.929 . S
C2310 C2306 1.531 . S
C2310 H2322 0.960 . S
C2310 H2323 0.962 . S
C2310 H2324 0.960 . S
C2311 C2308 1.511 . S
C2311 H2325 0.961 . S
C2311 H2326 0.961 . S
C2311 H2327 0.961 . S
C2312 C2313 1.370 . S
C2312 C2314 1.363 . S
C2312 H2328 0.931 . S
C2313 C2312 1.370 . S
C2313 C2317 1.408 . S
C2314 C2312 1.363 . S
C2314 C2315 1.370 . S
C2314 C2318 1.524 . S
C2315 C2307 1.503 . S
C2315 C2314 1.370 . S
C2315 C2316 1.403 . S
C2316 C2315 1.403 . S
C2316 C2317 1.404 . S
C2316 C2319 1.539 . S
C2317 C2313 1.408 . S
C2317 C2316 1.404 . S
C2317 H2329 0.930 . S
C2318 C2314 1.524 . S
C2318 H2330 0.956 . S
C2318 H2331 0.961 . S
C2318 H2332 0.961 . S
C2319 C2316 1.539 . S
C2319 H2333 0.958 . S
C2319 H2334 0.961 . S
C2319 H2335 0.960 . S
H2320 C2304 0.931 . S
H2321 C2309 0.929 . S
H2322 C2310 0.960 . S
H2323 C2310 0.962 . S
H2324 C2310 0.960 . S
H2325 C2311 0.961 . S
H2326 C2311 0.961 . S
H2327 C2311 0.961 . S
H2328 C2312 0.931 . S
H2329 C2317 0.930 . S
H2330 C2318 0.956 . S
H2331 C2318 0.961 . S
H2332 C2318 0.961 . S
H2333 C2319 0.958 . S
H2334 C2319 0.961 . S
H2335 C2319 0.960 . S
C2336 C2337 1.391 . S
C2336 C2338 1.394 1_556 S
C2336 H2352 0.931 . S
C2337 C2336 1.391 . S
C2337 C2341 1.376 . S
C2338 C2336 1.394 1_554 S
C2338 C2339 1.369 1_554 S
C2338 C2342 1.531 . S
C2339 C2338 1.369 1_556 S
C2339 C2340 1.410 . S
C2339 C2347 1.503 1_556 S
C2340 C2339 1.410 . S
C2340 C2341 1.392 . S
C2340 C2343 1.511 . S
C2341 C2337 1.376 . S
C2341 C2340 1.392 . S
C2341 H2353 0.929 . S
C2342 C2338 1.531 . S
C2342 H2354 0.960 . S
C2342 H2355 0.962 . S
C2342 H2356 0.960 . S
C2343 C2340 1.511 . S
C2343 H2357 0.961 . S
C2343 H2358 0.961 . S
C2343 H2359 0.961 . S
C2344 C2345 1.370 . S
C2344 C2346 1.363 1_554 S
C2344 H2360 0.931 1_554 S
C2345 C2344 1.370 . S
C2345 C2349 1.408 . S
C2346 C2344 1.363 1_556 S
C2346 C2347 1.370 1_556 S
C2346 C2350 1.524 . S
C2347 C2339 1.503 1_554 S
C2347 C2346 1.370 1_554 S
C2347 C2348 1.403 . S
C2348 C2347 1.403 . S
C2348 C2349 1.404 . S
C2348 C2351 1.539 . S
C2349 C2345 1.408 . S
C2349 C2348 1.404 . S
C2349 H2361 0.930 . S
C2350 C2346 1.524 . S
C2350 H2362 0.956 . S
C2350 H2363 0.961 . S
C2350 H2364 0.961 . S
C2351 C2348 1.539 . S
C2351 H2365 0.958 . S
C2351 H2366 0.961 . S
C2351 H2367 0.960 . S
H2352 C2336 0.931 . S
H2353 C2341 0.929 . S
H2354 C2342 0.960 . S
H2355 C2342 0.962 . S
H2356 C2342 0.960 . S
H2357 C2343 0.961 . S
H2358 C2343 0.961 . S
H2359 C2343 0.961 . S
H2360 C2344 0.931 1_556 S
H2361 C2349 0.930 . S
H2362 C2350 0.956 . S
H2363 C2350 0.961 . S
H2364 C2350 0.961 . S
H2365 C2351 0.958 . S
H2366 C2351 0.961 . S
H2367 C2351 0.960 . S
C2368 C2369 1.391 . S
C2368 C2370 1.394 . S
C2368 H2384 0.931 . S
C2369 C2368 1.391 . S
C2369 C2373 1.376 . S
C2370 C2368 1.394 . S
C2370 C2371 1.369 . S
C2370 C2374 1.531 . S
C2371 C2370 1.369 . S
C2371 C2372 1.410 . S
C2371 C2379 1.503 . S
C2372 C2371 1.410 . S
C2372 C2373 1.392 . S
C2372 C2375 1.511 . S
C2373 C2369 1.376 . S
C2373 C2372 1.392 . S
C2373 H2385 0.929 . S
C2374 C2370 1.531 . S
C2374 H2386 0.960 . S
C2374 H2387 0.962 . S
C2374 H2388 0.960 . S
C2375 C2372 1.511 . S
C2375 H2389 0.961 . S
C2375 H2390 0.961 . S
C2375 H2391 0.961 . S
C2376 C2377 1.370 . S
C2376 C2378 1.363 . S
C2376 H2392 0.931 . S
C2377 C2376 1.370 . S
C2377 C2381 1.408 . S
C2378 C2376 1.363 . S
C2378 C2379 1.370 . S
C2378 C2382 1.524 . S
C2379 C2371 1.503 . S
C2379 C2378 1.370 . S
C2379 C2380 1.403 . S
C2380 C2379 1.403 . S
C2380 C2381 1.404 . S
C2380 C2383 1.539 . S
C2381 C2377 1.408 . S
C2381 C2380 1.404 . S
C2381 H2393 0.930 . S
C2382 C2378 1.524 . S
C2382 H2394 0.956 . S
C2382 H2395 0.961 . S
C2382 H2396 0.961 . S
C2383 C2380 1.539 . S
C2383 H2397 0.958 . S
C2383 H2398 0.961 . S
C2383 H2399 0.960 . S
H2384 C2368 0.931 . S
H2385 C2373 0.929 . S
H2386 C2374 0.960 . S
H2387 C2374 0.962 . S
H2388 C2374 0.960 . S
H2389 C2375 0.961 . S
H2390 C2375 0.961 . S
H2391 C2375 0.961 . S
H2392 C2376 0.931 . S
H2393 C2381 0.930 . S
H2394 C2382 0.956 . S
H2395 C2382 0.961 . S
H2396 C2382 0.961 . S
H2397 C2383 0.958 . S
H2398 C2383 0.961 . S
H2399 C2383 0.960 . S
C865 C14 1.399 . S
C873 C554 1.395 . S
C897 C50 1.344 . S
C905 C590 1.368 . S
C929 C626 1.400 . S
C937 C86 1.390 . S
C961 C446 1.359 . S
C969 C122 1.374 . S
C993 C482 1.411 . S
C1001 C158 1.399 . S
C1025 C518 1.349 . S
C1033 C194 1.373 . S
C1057 C770 1.418 . S
C1065 C230 1.401 . S
C1089 C266 1.384 . S
C1097 C806 1.388 . S
C1121 C842 1.368 . S
C1129 C302 1.377 . S
C1153 C338 1.365 . S
C1161 C662 1.381 . S
C1185 C698 1.376 . S
C1193 C374 1.380 . S
C1217 C410 1.341 . S
C1225 C734 1.369 . S
C1249 C363 1.281 . S
C1257 C3 1.289 . S
C1281 C399 1.288 . S
C1289 C39 1.287 . S
C1313 C75 1.281 . S
C1321 C219 1.289 . S
C1345 C111 1.282 . S
C1353 C255 1.289 . S
C1377 C291 1.288 . S
C1385 C147 1.287 . S
C1409 C183 1.288 . S
C1417 C327 1.287 . S
C1441 C795 1.283 . S
C1449 C435 1.289 . S
C1473 C471 1.284 . S
C1481 C831 1.288 . S
C1505 C507 1.288 . S
C1513 C651 1.287 . S
C1537 C687 1.283 . S
C1545 C543 1.289 . S
C1569 C579 1.281 . S
C1577 C723 1.289 . S
C1601 C615 1.282 . S
C1609 C759 1.289 . S
C1633 C4 1.366 . S
C1641 C652 1.369 . S
C1665 C688 1.353 . S
C1673 C40 1.364 . S
C1697 C76 1.375 . S
C1705 C724 1.376 . S
C1729 C112 1.388 . S
C1737 C760 1.379 . S
C1761 C796 1.348 . S
C1769 C148 1.364 . S
C1793 C184 1.378 . S
C1801 C832 1.374 . S
C1825 C220 1.348 . S
C1833 C436 1.364 . S
C1857 C256 1.379 . S
C1865 C472 1.377 . S
C1889 C508 1.351 . S
C1897 C292 1.363 . S
C1921 C544 1.371 . S
C1929 C328 1.374 . S
C1953 C364 1.352 . S
C1961 C580 1.364 . S
C1985 C616 1.388 . S
C1993 C400 1.380 . S
C2017 C218 1.482 . S
C2025 C2 1.489 . S
C2049 C38 1.468 . S
C2057 C254 1.480 . S
C2081 C290 1.493 . S
C2089 C74 1.486 . S
C2113 C326 1.474 . S
C2121 C110 1.478 . S
C2145 C362 1.490 . S
C2153 C146 1.480 . S
C2177 C182 1.492 . S
C2185 C398 1.482 . S
C2209 C650 1.493 . S
C2217 C434 1.485 . S
C2241 C470 1.490 . S
C2249 C686 1.482 . S
C2273 C722 1.492 . S
C2281 C506 1.488 . S
C2305 C758 1.468 . S
C2313 C542 1.484 . S
C2337 C578 1.467 . S
C2345 C794 1.483 . S
C2369 C614 1.466 . S
C2377 C830 1.482 . S
