# Generated by pormake.
# Topology gan, (5)-cn, num edge types: 1
# Building blocks:
#     Node 0, Type 0, BuildingBlock: BEQFEK_clean_sbu_0, # of connection points: 5
#     Node 1, Type 0, BuildingBlock: BEQFEK_clean_sbu_0, # of connection points: 5
#     Node 2, Type 0, BuildingBlock: BEQFEK_clean_sbu_0, # of connection points: 5
#     Node 3, Type 0, BuildingBlock: BEQFEK_clean_sbu_0, # of connection points: 5
#     Node 4, Type 0, BuildingBlock: BEQFEK_clean_sbu_0, # of connection points: 5
#     Node 5, Type 0, BuildingBlock: BEQFEK_clean_sbu_0, # of connection points: 5
#     Node 6, Type 0, BuildingBlock: BEQFEK_clean_sbu_0, # of connection points: 5
#     Node 7, Type 0, BuildingBlock: BEQFEK_clean_sbu_0, # of connection points: 5
#     Node 8, Type 0, BuildingBlock: BEQFEK_clean_sbu_0, # of connection points: 5
#     Node 9, Type 0, BuildingBlock: BEQFEK_clean_sbu_0, # of connection points: 5
#     Node 10, Type 0, BuildingBlock: BEQFEK_clean_sbu_0, # of connection points: 5
#     Node 11, Type 0, BuildingBlock: BEQFEK_clean_sbu_0, # of connection points: 5
#     Node 12, Type 0, BuildingBlock: BEQFEK_clean_sbu_0, # of connection points: 5
#     Node 13, Type 0, BuildingBlock: BEQFEK_clean_sbu_0, # of connection points: 5
#     Node 14, Type 0, BuildingBlock: BEQFEK_clean_sbu_0, # of connection points: 5
#     Node 15, Type 0, BuildingBlock: BEQFEK_clean_sbu_0, # of connection points: 5
#     Edge 16, Type (0, 0), BuildingBlock: UVAHIK_clean_linker_0, # of connection points: 2
#     Edge 17, Type (0, 0), BuildingBlock: UVAHIK_clean_linker_0, # of connection points: 2
#     Edge 18, Type (0, 0), BuildingBlock: UVAHIK_clean_linker_0, # of connection points: 2
#     Edge 19, Type (0, 0), BuildingBlock: UVAHIK_clean_linker_0, # of connection points: 2
#     Edge 20, Type (0, 0), BuildingBlock: UVAHIK_clean_linker_0, # of connection points: 2
#     Edge 21, Type (0, 0), BuildingBlock: UVAHIK_clean_linker_0, # of connection points: 2
#     Edge 22, Type (0, 0), BuildingBlock: UVAHIK_clean_linker_0, # of connection points: 2
#     Edge 23, Type (0, 0), BuildingBlock: UVAHIK_clean_linker_0, # of connection points: 2
#     Edge 24, Type (0, 0), BuildingBlock: UVAHIK_clean_linker_0, # of connection points: 2
#     Edge 25, Type (0, 0), BuildingBlock: UVAHIK_clean_linker_0, # of connection points: 2
#     Edge 26, Type (0, 0), BuildingBlock: UVAHIK_clean_linker_0, # of connection points: 2
#     Edge 27, Type (0, 0), BuildingBlock: UVAHIK_clean_linker_0, # of connection points: 2
#     Edge 28, Type (0, 0), BuildingBlock: UVAHIK_clean_linker_0, # of connection points: 2
#     Edge 29, Type (0, 0), BuildingBlock: UVAHIK_clean_linker_0, # of connection points: 2
#     Edge 30, Type (0, 0), BuildingBlock: UVAHIK_clean_linker_0, # of connection points: 2
#     Edge 31, Type (0, 0), BuildingBlock: UVAHIK_clean_linker_0, # of connection points: 2
#     Edge 32, Type (0, 0), BuildingBlock: UVAHIK_clean_linker_0, # of connection points: 2
#     Edge 33, Type (0, 0), BuildingBlock: UVAHIK_clean_linker_0, # of connection points: 2
#     Edge 34, Type (0, 0), BuildingBlock: UVAHIK_clean_linker_0, # of connection points: 2
#     Edge 35, Type (0, 0), BuildingBlock: UVAHIK_clean_linker_0, # of connection points: 2
#     Edge 36, Type (0, 0), BuildingBlock: UVAHIK_clean_linker_0, # of connection points: 2
#     Edge 37, Type (0, 0), BuildingBlock: UVAHIK_clean_linker_0, # of connection points: 2
#     Edge 38, Type (0, 0), BuildingBlock: UVAHIK_clean_linker_0, # of connection points: 2
#     Edge 39, Type (0, 0), BuildingBlock: UVAHIK_clean_linker_0, # of connection points: 2
#     Edge 40, Type (0, 0), BuildingBlock: UVAHIK_clean_linker_0, # of connection points: 2
#     Edge 41, Type (0, 0), BuildingBlock: UVAHIK_clean_linker_0, # of connection points: 2
#     Edge 42, Type (0, 0), BuildingBlock: UVAHIK_clean_linker_0, # of connection points: 2
#     Edge 43, Type (0, 0), BuildingBlock: UVAHIK_clean_linker_0, # of connection points: 2
#     Edge 44, Type (0, 0), BuildingBlock: UVAHIK_clean_linker_0, # of connection points: 2
#     Edge 45, Type (0, 0), BuildingBlock: UVAHIK_clean_linker_0, # of connection points: 2
#     Edge 46, Type (0, 0), BuildingBlock: UVAHIK_clean_linker_0, # of connection points: 2
#     Edge 47, Type (0, 0), BuildingBlock: UVAHIK_clean_linker_0, # of connection points: 2
#     Edge 48, Type (0, 0), BuildingBlock: UVAHIK_clean_linker_0, # of connection points: 2
#     Edge 49, Type (0, 0), BuildingBlock: UVAHIK_clean_linker_0, # of connection points: 2
#     Edge 50, Type (0, 0), BuildingBlock: UVAHIK_clean_linker_0, # of connection points: 2
#     Edge 51, Type (0, 0), BuildingBlock: UVAHIK_clean_linker_0, # of connection points: 2
#     Edge 52, Type (0, 0), BuildingBlock: UVAHIK_clean_linker_0, # of connection points: 2
#     Edge 53, Type (0, 0), BuildingBlock: UVAHIK_clean_linker_0, # of connection points: 2
#     Edge 54, Type (0, 0), BuildingBlock: UVAHIK_clean_linker_0, # of connection points: 2
#     Edge 55, Type (0, 0), BuildingBlock: UVAHIK_clean_linker_0, # of connection points: 2
# Relax obj value: 0.128
# Max RMSD: 0.208
# Mean RMSD: 0.186
data_MOF--net-gan--node1-BEQFEK_clean_sbu_0--edge1-UVAHIK_clean_linker_0
_symmetry_space_group_name_H-M    P1
_symmetry_Int_Tables_number       1
_symmetry_cell_setting            triclinic
loop_
_symmetry_equiv_pos_as_xyz
'x, y, z'
_cell_length_a     55.627096
_cell_length_b     56.354681
_cell_length_c     55.154631
_cell_angle_alpha  91.523796
_cell_angle_beta   90.934825
_cell_angle_gamma 92.836878
loop_
_atom_site_label
_atom_site_type_symbol
_atom_site_fract_x
_atom_site_fract_y
_atom_site_fract_z
_atom_type_partial_charge
Co0 Co 0.09965 0.12937 0.11514 0.0
Co1 Co 0.14083 0.14711 0.15115 0.0
C2 C 0.10576 0.10865 0.16439 0.0
O3 O 0.09555 0.10918 0.14365 0.0
O4 O 0.1235 0.12284 0.17026 0.0
C5 C 0.05076 0.11822 0.10341 0.0
O6 O 0.04848 0.12179 0.12688 0.0
C7 C 0.16372 0.16996 0.19426 0.0
C8 C 0.20009 0.17974 0.18099 0.0
C9 C 0.18557 0.1813 0.20107 0.0
N10 N 0.16523 0.16237 0.17108 0.0
N11 N 0.18705 0.16804 0.16331 0.0
C12 C 0.14224 0.16482 0.20962 0.0
H13 H 0.1256 0.16935 0.19977 0.0
H14 H 0.14361 0.17431 0.22747 0.0
H15 H 0.14077 0.14546 0.21282 0.0
C16 C 0.08964 0.1805 0.11727 0.0
N17 N 0.1023 0.162 0.12411 0.0
N18 N 0.11964 0.16966 0.13932 0.0
C19 C 0.11848 0.19336 0.1427 0.0
C20 C 0.09947 0.20092 0.12887 0.0
C21 C 0.06794 0.17831 0.1008 0.0
H22 H 0.05304 0.16889 0.11031 0.0
H23 H 0.06184 0.19587 0.09542 0.0
H24 H 0.07202 0.16762 0.08434 0.0
O25 O 0.12835 0.12059 0.09722 0.0
O26 O 0.15731 0.13198 0.12378 0.0
H27 H 0.13389 0.22791 0.15435 0.0
H28 H 0.13245 0.2058 0.17733 0.0
C29 C 0.13583 0.20879 0.15788 0.0
H30 H 0.15452 0.2042 0.15392 0.0
H31 H 0.19289 0.16429 0.1458 0.0
O32 O 0.0713 0.1217 0.09405 0.0
C33 C 0.1505 0.12255 0.10343 0.0
Co34 Co 0.08678 0.88049 0.38057 0.0
Co35 Co 0.11838 0.85801 0.3384 0.0
C36 C 0.14176 0.88571 0.37923 0.0
O37 O 0.12133 0.88913 0.38869 0.0
O38 O 0.14363 0.87371 0.35945 0.0
C39 C 0.06875 0.91986 0.41014 0.0
O40 O 0.0869 0.93231 0.40106 0.0
C41 C 0.15119 0.83072 0.30702 0.0
C42 C 0.12881 0.82489 0.27382 0.0
C43 C 0.15057 0.81917 0.28421 0.0
N44 N 0.13094 0.84278 0.30957 0.0
N45 N 0.11768 0.83903 0.28962 0.0
C46 C 0.16891 0.82782 0.32729 0.0
H47 H 0.16069 0.83188 0.34502 0.0
H48 H 0.18466 0.84037 0.32499 0.0
H49 H 0.17525 0.80945 0.32714 0.0
C50 C 0.06746 0.90537 0.3386 0.0
N51 N 0.08086 0.88834 0.3477 0.0
N52 N 0.09548 0.88096 0.33078 0.0
C53 C 0.0928 0.89417 0.31099 0.0
C54 C 0.07477 0.90986 0.3152 0.0
C55 C 0.04889 0.91817 0.3524 0.0
H56 H 0.03995 0.90615 0.36544 0.0
H57 H 0.05759 0.93365 0.36246 0.0
H58 H 0.03519 0.92488 0.33978 0.0
O59 O 0.08037 0.8461 0.38476 0.0
O60 O 0.103 0.83148 0.35578 0.0
H61 H 0.10248 0.88616 0.27441 0.0
H62 H 0.1146 0.91429 0.28605 0.0
C63 C 0.11048 0.89552 0.29079 0.0
H64 H 0.12746 0.88736 0.29599 0.0
H65 H 0.10038 0.84503 0.28728 0.0
O66 O 0.06554 0.89796 0.40392 0.0
C67 C 0.08867 0.82851 0.37327 0.0
Co68 Co 0.3787 0.93286 0.57274 0.0
Co69 Co 0.34042 0.89962 0.59995 0.0
C70 C 0.36215 0.94484 0.62285 0.0
O71 O 0.37456 0.95002 0.60429 0.0
O72 O 0.34837 0.92611 0.62327 0.0
C73 C 0.41833 0.96666 0.5613 0.0
O74 O 0.4144 0.97606 0.58284 0.0
C75 C 0.31922 0.86734 0.63724 0.0
C76 C 0.2879 0.85134 0.61654 0.0
C77 C 0.29939 0.85139 0.639 0.0
N78 N 0.31935 0.87614 0.61471 0.0
N79 N 0.30057 0.86638 0.60251 0.0
C80 C 0.33683 0.87517 0.657 0.0
H81 H 0.32711 0.8794 0.67388 0.0
H82 H 0.3481 0.89081 0.65155 0.0
H83 H 0.34888 0.86062 0.66089 0.0
C84 C 0.4057 0.88895 0.57574 0.0
N85 N 0.38551 0.90082 0.57894 0.0
N86 N 0.36926 0.88679 0.5893 0.0
C87 C 0.37836 0.8654 0.59238 0.0
C88 C 0.40182 0.86615 0.58426 0.0
C89 C 0.42884 0.90021 0.56713 0.0
H90 H 0.42688 0.90412 0.54761 0.0
H91 H 0.43273 0.91733 0.57717 0.0
H92 H 0.44414 0.8886 0.5697 0.0
O93 O 0.34919 0.93366 0.55196 0.0
O94 O 0.32289 0.91078 0.57166 0.0
H95 H 0.34598 0.84356 0.59594 0.0
H96 H 0.37327 0.82764 0.59776 0.0
C97 C 0.36486 0.84451 0.60274 0.0
H98 H 0.36492 0.84652 0.62277 0.0
H99 H 0.29626 0.87015 0.58459 0.0
O100 O 0.40554 0.94843 0.55393 0.0
C101 C 0.32823 0.92381 0.55387 0.0
Co102 Co 0.36589 0.1283 0.86533 0.0
Co103 Co 0.39857 0.09347 0.89624 0.0
C104 C 0.38714 0.08352 0.84418 0.0
O105 O 0.37553 0.10247 0.8431 0.0
O106 O 0.39686 0.07686 0.86388 0.0
C107 C 0.32402 0.14101 0.83535 0.0
O108 O 0.31937 0.11794 0.83354 0.0
C109 C 0.42596 0.05567 0.92256 0.0
C110 C 0.43151 0.07449 0.95796 0.0
C111 C 0.43625 0.05352 0.94572 0.0
N112 N 0.41567 0.07691 0.92146 0.0
N113 N 0.41934 0.08797 0.94273 0.0
C114 C 0.42509 0.03759 0.90221 0.0
H115 H 0.40884 0.03951 0.89063 0.0
H116 H 0.42508 0.01934 0.9093 0.0
H117 H 0.44122 0.04051 0.89089 0.0
C118 C 0.33275 0.11726 0.9053 0.0
N119 N 0.35379 0.11476 0.89404 0.0
N120 N 0.36663 0.09967 0.906 0.0
C121 C 0.35375 0.09159 0.92481 0.0
C122 C 0.33202 0.10262 0.92513 0.0
C123 C 0.31457 0.1346 0.89812 0.0
H124 H 0.3025 0.12627 0.88375 0.0
H125 H 0.3035 0.13981 0.91376 0.0
H126 H 0.32373 0.15072 0.8908 0.0
O127 O 0.39467 0.14851 0.87322 0.0
O128 O 0.41754 0.12414 0.8933 0.0
H129 H 0.34554 0.06303 0.94913 0.0
H130 H 0.37213 0.05964 0.93121 0.0
C131 C 0.3614 0.07257 0.94129 0.0
H132 H 0.37259 0.08078 0.95639 0.0
H133 H 0.41341 0.10486 0.9469 0.0
O134 O 0.34221 0.14886 0.84807 0.0
C135 C 0.41419 0.14431 0.88426 0.0
Co136 Co 0.60513 0.38631 0.89689 0.0
Co137 Co 0.63651 0.35754 0.85854 0.0
C138 C 0.65748 0.37487 0.90606 0.0
O139 O 0.63773 0.38397 0.91203 0.0
O140 O 0.65976 0.36381 0.88576 0.0
C141 C 0.59012 0.42788 0.92643 0.0
O142 O 0.61129 0.43786 0.92161 0.0
C143 C 0.66975 0.32914 0.82743 0.0
C144 C 0.64869 0.32698 0.79311 0.0
C145 C 0.66962 0.31955 0.80379 0.0
N146 N 0.64982 0.34163 0.83038 0.0
N147 N 0.63734 0.34001 0.80975 0.0
C148 C 0.68856 0.32681 0.84677 0.0
H149 H 0.68246 0.31269 0.85924 0.0
H150 H 0.69105 0.34372 0.85746 0.0
H151 H 0.70598 0.32214 0.83887 0.0
C152 C 0.60268 0.41824 0.85508 0.0
N153 N 0.60915 0.39786 0.865 0.0
N154 N 0.62364 0.38705 0.85005 0.0
C155 C 0.62769 0.40083 0.8308 0.0
C156 C 0.61439 0.42089 0.83326 0.0
C157 C 0.58531 0.43472 0.86599 0.0
H158 H 0.57183 0.42467 0.87679 0.0
H159 H 0.59525 0.44809 0.87794 0.0
H160 H 0.57591 0.44433 0.85161 0.0
O161 O 0.58865 0.35458 0.89544 0.0
O162 O 0.61059 0.33512 0.86904 0.0
H163 H 0.63823 0.38743 0.79615 0.0
H164 H 0.65494 0.41393 0.80644 0.0
C165 C 0.64662 0.39677 0.81234 0.0
H166 H 0.66087 0.38589 0.81988 0.0
H167 H 0.62073 0.34748 0.80715 0.0
O168 O 0.58453 0.40704 0.91791 0.0
C169 C 0.59299 0.33575 0.88343 0.0
Co170 Co 0.85903 0.38159 0.13735 0.0
Co171 Co 0.88399 0.42794 0.11512 0.0
C172 C 0.84329 0.3998 0.08942 0.0
O173 O 0.84148 0.38478 0.10629 0.0
O174 O 0.85882 0.41728 0.09059 0.0
C175 C 0.83497 0.33475 0.14597 0.0
O176 O 0.8302 0.33339 0.12256 0.0
C177 C 0.91305 0.45726 0.08088 0.0
C178 C 0.92831 0.48552 0.10594 0.0
C179 C 0.92877 0.47728 0.08208 0.0
N180 N 0.90396 0.45379 0.1031 0.0
N181 N 0.91291 0.47101 0.11783 0.0
C182 C 0.90841 0.44048 0.05967 0.0
H183 H 0.90211 0.4227 0.06589 0.0
H184 H 0.92492 0.439 0.04881 0.0
H185 H 0.89417 0.44745 0.04789 0.0
C186 C 0.90895 0.36645 0.13573 0.0
N187 N 0.89246 0.38266 0.13196 0.0
N188 N 0.90307 0.40197 0.12321 0.0
C189 C 0.92682 0.39866 0.12142 0.0
C190 C 0.93127 0.37608 0.12921 0.0
C191 C 0.90296 0.34182 0.14399 0.0
H192 H 0.89887 0.34257 0.16362 0.0
H193 H 0.88665 0.33438 0.13412 0.0
H194 H 0.91796 0.32991 0.14093 0.0
O195 O 0.85184 0.40751 0.15998 0.0
O196 O 0.86867 0.44027 0.14484 0.0
H197 H 0.9421 0.43429 0.12284 0.0
H198 H 0.96372 0.41209 0.11768 0.0
C199 C 0.94511 0.4171 0.11349 0.0
H200 H 0.94317 0.41933 0.09366 0.0
H201 H 0.90917 0.47237 0.13628 0.0
O202 O 0.84745 0.35257 0.15474 0.0
C203 C 0.85657 0.42978 0.16116 0.0
Co204 Co 0.87026 0.6381 0.37348 0.0
Co205 Co 0.89459 0.60208 0.41032 0.0
C206 C 0.87083 0.58441 0.36457 0.0
O207 O 0.86632 0.60567 0.35937 0.0
O208 O 0.88172 0.57955 0.38427 0.0
C209 C 0.82961 0.65302 0.3447 0.0
O210 O 0.82102 0.63161 0.34972 0.0
C211 C 0.9176 0.56494 0.44121 0.0
C212 C 0.92826 0.58756 0.47323 0.0
C213 C 0.92935 0.56462 0.46384 0.0
N214 N 0.90995 0.58705 0.43767 0.0
N215 N 0.91667 0.60037 0.45692 0.0
C216 C 0.91348 0.54462 0.42341 0.0
H217 H 0.89629 0.54634 0.41329 0.0
H218 H 0.91312 0.5274 0.43274 0.0
H219 H 0.9283 0.54496 0.41019 0.0
C220 C 0.84357 0.64912 0.41757 0.0
N221 N 0.86059 0.6372 0.40612 0.0
N222 N 0.86933 0.62157 0.42091 0.0
C223 C 0.85749 0.6227 0.44201 0.0
C224 C 0.84104 0.64032 0.44061 0.0
C225 C 0.83008 0.66862 0.40661 0.0
H226 H 0.84216 0.67947 0.39501 0.0
H227 H 0.81501 0.6607 0.39518 0.0
H228 H 0.82257 0.68025 0.42087 0.0
O229 O 0.90443 0.6485 0.3724 0.0
O230 O 0.92066 0.62285 0.39705 0.0
H231 H 0.8726 0.61303 0.47599 0.0
H232 H 0.84206 0.60216 0.47083 0.0
C233 C 0.85967 0.60543 0.462 0.0
H234 H 0.86608 0.58833 0.4549 0.0
H235 H 0.91368 0.61846 0.45875 0.0
O236 O 0.85034 0.65989 0.3532 0.0
C237 C 0.92269 0.64027 0.38286 0.0
Co238 Co 0.86406 0.87385 0.86857 0.0
Co239 Co 0.88565 0.89973 0.91555 0.0
C240 C 0.86447 0.92679 0.87583 0.0
O241 O 0.85908 0.9077 0.86373 0.0
O242 O 0.8753 0.92666 0.89629 0.0
C243 C 0.8433 0.8645 0.82126 0.0
O244 O 0.83914 0.88723 0.82225 0.0
C245 C 0.91151 0.93395 0.94824 0.0
C246 C 0.9127 0.91445 0.98244 0.0
C247 C 0.91845 0.93628 0.97248 0.0
N248 N 0.9017 0.91194 0.94419 0.0
N249 N 0.9026 0.90029 0.96463 0.0
C250 C 0.91515 0.95178 0.92884 0.0
H251 H 0.91836 0.94258 0.91123 0.0
H252 H 0.93065 0.96436 0.93338 0.0
H253 H 0.89868 0.96194 0.92692 0.0
C254 C 0.91263 0.85547 0.8676 0.0
N255 N 0.89631 0.86943 0.87746 0.0
N256 N 0.90576 0.88057 0.89688 0.0
C257 C 0.92864 0.87429 0.89984 0.0
C258 C 0.93377 0.8582 0.88134 0.0
C259 C 0.90693 0.83807 0.84705 0.0
H260 H 0.88915 0.82888 0.84992 0.0
H261 H 0.90581 0.84783 0.82989 0.0
H262 H 0.92061 0.82451 0.84533 0.0
O263 O 0.84238 0.86186 0.89341 0.0
O264 O 0.85735 0.8805 0.92661 0.0
H265 H 0.93926 0.87558 0.93725 0.0
H266 H 0.96406 0.87924 0.91662 0.0
C267 C 0.94513 0.88354 0.92 0.0
H268 H 0.94408 0.90309 0.92196 0.0
H269 H 0.8958 0.88286 0.96656 0.0
O270 O 0.85471 0.85553 0.83862 0.0
C271 C 0.84187 0.86618 0.91608 0.0
Co272 Co 0.83768 0.12874 0.63523 0.0
Co273 Co 0.87309 0.09247 0.6095 0.0
C274 C 0.82751 0.10751 0.58555 0.0
O275 O 0.8217 0.12017 0.60386 0.0
O276 O 0.84686 0.09623 0.58519 0.0
C277 C 0.79492 0.14882 0.65913 0.0
O278 O 0.78168 0.1319 0.64778 0.0
C279 C 0.89789 0.05769 0.5771 0.0
C280 C 0.9292 0.05016 0.60025 0.0
C281 C 0.91877 0.04495 0.57767 0.0
N282 N 0.896 0.0696 0.59853 0.0
N283 N 0.91503 0.06516 0.61205 0.0
C284 C 0.88016 0.05871 0.55655 0.0
H285 H 0.88186 0.07654 0.5485 0.0
H286 H 0.86161 0.05624 0.56346 0.0
H287 H 0.88319 0.04492 0.54234 0.0
C288 C 0.84025 0.09359 0.67331 0.0
N289 N 0.8458 0.10077 0.65095 0.0
N290 N 0.85961 0.08522 0.64044 0.0
C291 C 0.86281 0.06744 0.65592 0.0
C292 C 0.8508 0.07232 0.67713 0.0
C293 C 0.8269 0.10793 0.69139 0.0
H294 H 0.83436 0.12655 0.69197 0.0
H295 H 0.8077 0.10792 0.68566 0.0
H296 H 0.82802 0.10065 0.70985 0.0
O297 O 0.86707 0.14801 0.6292 0.0
O298 O 0.89211 0.12284 0.61283 0.0
H299 H 0.89583 0.04972 0.65663 0.0
H300 H 0.86964 0.03068 0.66121 0.0
C301 C 0.87683 0.04597 0.65079 0.0
H302 H 0.876 0.04121 0.63116 0.0
H303 H 0.91871 0.07291 0.62918 0.0
O304 O 0.81761 0.14991 0.65613 0.0
C305 C 0.88745 0.14353 0.62058 0.0
Co306 Co 0.61982 0.09683 0.36559 0.0
Co307 Co 0.65125 0.13197 0.33279 0.0
C308 C 0.66619 0.12314 0.38313 0.0
O309 O 0.64772 0.10915 0.38562 0.0
O310 O 0.67044 0.13367 0.36335 0.0
C311 C 0.59311 0.08571 0.40871 0.0
O312 O 0.60479 0.10501 0.41737 0.0
C313 C 0.68365 0.16773 0.30826 0.0
C314 C 0.66434 0.16961 0.27308 0.0
C315 C 0.68449 0.17864 0.2859 0.0
N316 N 0.66379 0.153 0.30855 0.0
N317 N 0.65254 0.15412 0.28734 0.0
C318 C 0.70077 0.17179 0.32931 0.0
H319 H 0.69054 0.1736 0.3463 0.0
H320 H 0.71266 0.18796 0.32708 0.0
H321 H 0.71196 0.15613 0.33091 0.0
C322 C 0.58269 0.12984 0.35258 0.0
N323 N 0.60526 0.1225 0.35112 0.0
N324 N 0.61849 0.13801 0.33898 0.0
C325 C 0.60481 0.15614 0.33301 0.0
C326 C 0.58168 0.15139 0.34122 0.0
C327 C 0.56246 0.11629 0.3644 0.0
H328 H 0.56388 0.09696 0.36083 0.0
H329 H 0.56361 0.11979 0.38429 0.0
H330 H 0.54474 0.12174 0.35759 0.0
O331 O 0.63116 0.07494 0.34039 0.0
O332 O 0.65348 0.09976 0.3184 0.0
H333 H 0.61233 0.17727 0.3022 0.0
H334 H 0.60387 0.19402 0.32858 0.0
C335 C 0.61424 0.17878 0.32224 0.0
H336 H 0.63348 0.18233 0.32725 0.0
H337 H 0.6367 0.14427 0.28261 0.0
O338 O 0.59672 0.07891 0.38692 0.0
C339 C 0.64502 0.07892 0.32266 0.0
Co340 Co 0.60545 0.8673 0.11524 0.0
Co341 Co 0.63681 0.83365 0.14907 0.0
C342 C 0.63891 0.88645 0.15586 0.0
O343 O 0.62347 0.88901 0.13881 0.0
O344 O 0.64583 0.86604 0.16163 0.0
C345 C 0.59174 0.90729 0.0844 0.0
O346 O 0.61057 0.9189 0.09445 0.0
C347 C 0.67251 0.80833 0.18098 0.0
C348 C 0.65873 0.77142 0.17361 0.0
C349 C 0.67604 0.78474 0.1871 0.0
N350 N 0.65414 0.8086 0.16456 0.0
N351 N 0.6461 0.78638 0.16045 0.0
C352 C 0.68488 0.83024 0.19206 0.0
H353 H 0.67284 0.84528 0.19152 0.0
H354 H 0.70119 0.8349 0.18154 0.0
H355 H 0.69037 0.82731 0.21114 0.0
C356 C 0.63538 0.84492 0.07811 0.0
N357 N 0.62757 0.84657 0.10103 0.0
N358 N 0.64033 0.83293 0.11487 0.0
C359 C 0.6566 0.82225 0.10116 0.0
C360 C 0.65406 0.82949 0.07745 0.0
C361 C 0.62734 0.86046 0.05826 0.0
H362 H 0.60752 0.85812 0.05581 0.0
H363 H 0.63165 0.87932 0.06362 0.0
H364 H 0.63614 0.85639 0.04085 0.0
O365 O 0.58087 0.84828 0.13271 0.0
O366 O 0.60296 0.82622 0.15626 0.0
H367 H 0.66623 0.79023 0.11777 0.0
H368 H 0.68817 0.8013 0.09698 0.0
C369 C 0.67527 0.80663 0.11098 0.0
H370 H 0.68514 0.81593 0.12639 0.0
H371 H 0.63163 0.78143 0.14882 0.0
O372 O 0.58708 0.88578 0.09017 0.0
C373 C 0.58261 0.83266 0.14881 0.0
Co374 Co 0.34618 0.63722 0.13875 0.0
Co375 Co 0.38414 0.60492 0.11136 0.0
C376 C 0.34024 0.62185 0.0863 0.0
O377 O 0.33337 0.63225 0.10561 0.0
O378 O 0.35973 0.61078 0.08559 0.0
C379 C 0.30053 0.65574 0.15583 0.0
O380 O 0.29055 0.64317 0.13761 0.0
C381 C 0.41141 0.57233 0.0785 0.0
C382 C 0.44167 0.5644 0.10288 0.0
C383 C 0.43237 0.55976 0.07973 0.0
N384 N 0.4084 0.58361 0.1001 0.0
N385 N 0.42682 0.57895 0.11436 0.0
C386 C 0.39444 0.57349 0.05732 0.0
H387 H 0.39608 0.59155 0.04978 0.0
H388 H 0.37566 0.57049 0.06344 0.0
H389 H 0.39835 0.56014 0.04294 0.0
C390 C 0.34665 0.59765 0.17205 0.0
N391 N 0.35352 0.60759 0.15123 0.0
N392 N 0.3683 0.59365 0.1398 0.0
C393 C 0.37085 0.57413 0.15304 0.0
C394 C 0.35747 0.57619 0.1739 0.0
C395 C 0.33203 0.60982 0.19075 0.0
H396 H 0.33976 0.62812 0.19437 0.0
H397 H 0.31342 0.61121 0.18356 0.0
H398 H 0.33141 0.60014 0.20799 0.0
O399 O 0.37544 0.65768 0.13793 0.0
O400 O 0.4022 0.6352 0.12018 0.0
H401 H 0.40444 0.55735 0.153 0.0
H402 H 0.37862 0.53713 0.15447 0.0
C403 C 0.38575 0.55371 0.14614 0.0
H404 H 0.38581 0.5511 0.12616 0.0
H405 H 0.42942 0.58596 0.13196 0.0
O406 O 0.32313 0.65502 0.1596 0.0
C407 C 0.39653 0.65462 0.13037 0.0
Co408 Co 0.12061 0.60895 0.87953 0.0
Co409 Co 0.15318 0.6366 0.84119 0.0
C410 C 0.17018 0.63069 0.89188 0.0
O411 O 0.15062 0.61954 0.89758 0.0
O412 O 0.17367 0.63829 0.8706 0.0
C413 C 0.0915 0.60123 0.92311 0.0
O414 O 0.10147 0.62149 0.93152 0.0
C415 C 0.18408 0.67223 0.81429 0.0
C416 C 0.17157 0.66316 0.77681 0.0
C417 C 0.18727 0.67839 0.7902 0.0
N418 N 0.16704 0.65435 0.81496 0.0
N419 N 0.15978 0.64908 0.79244 0.0
C420 C 0.19779 0.68228 0.83609 0.0
H421 H 0.20068 0.66817 0.84927 0.0
H422 H 0.1872 0.69609 0.84504 0.0
H423 H 0.21548 0.69042 0.83095 0.0
C424 C 0.08788 0.6468 0.86668 0.0
N425 N 0.10821 0.63519 0.86351 0.0
N426 N 0.12221 0.64719 0.8486 0.0
C427 C 0.11153 0.66712 0.84241 0.0
C428 C 0.08939 0.66751 0.85362 0.0
C429 C 0.06755 0.63846 0.88224 0.0
H430 H 0.06511 0.61882 0.88088 0.0
H431 H 0.07173 0.6438 0.90139 0.0
H432 H 0.05054 0.64646 0.87671 0.0
O433 O 0.12821 0.58396 0.85579 0.0
O434 O 0.15099 0.60325 0.82936 0.0
H435 H 0.12466 0.68165 0.80947 0.0
H436 H 0.11465 0.70373 0.83085 0.0
C437 C 0.12391 0.68684 0.82898 0.0
H438 H 0.14258 0.68985 0.83606 0.0
H439 H 0.14669 0.63578 0.78773 0.0
O440 O 0.09698 0.59353 0.90212 0.0
C441 C 0.14075 0.58416 0.83674 0.0
Co442 Co 0.09617 0.37008 0.627 0.0
Co443 Co 0.12872 0.33414 0.65673 0.0
C444 C 0.11878 0.3824 0.67635 0.0
O445 O 0.10597 0.3869 0.65774 0.0
O446 O 0.12876 0.36261 0.67855 0.0
C447 C 0.08076 0.41402 0.60379 0.0
O448 O 0.09695 0.42508 0.6182 0.0
C449 C 0.16498 0.30828 0.68701 0.0
C450 C 0.16315 0.27376 0.66704 0.0
C451 C 0.17432 0.28565 0.68678 0.0
N452 N 0.14913 0.30945 0.66824 0.0
N453 N 0.14815 0.28862 0.65661 0.0
C454 C 0.1718 0.32874 0.70394 0.0
H455 H 0.17043 0.34574 0.69444 0.0
H456 H 0.19037 0.32735 0.71125 0.0
H457 H 0.15914 0.3287 0.71928 0.0
C458 C 0.13557 0.36436 0.59255 0.0
N459 N 0.12427 0.3584 0.61305 0.0
N460 N 0.13771 0.34405 0.62535 0.0
C461 C 0.15796 0.34057 0.61303 0.0
C462 C 0.15712 0.35316 0.59186 0.0
C463 C 0.12651 0.38154 0.57476 0.0
H464 H 0.10728 0.377 0.57032 0.0
H465 H 0.12786 0.3997 0.58309 0.0
H466 H 0.13705 0.38135 0.55784 0.0
O467 O 0.07366 0.34336 0.63404 0.0
O468 O 0.09614 0.31898 0.65457 0.0
H469 H 0.17529 0.30858 0.62075 0.0
H470 H 0.19577 0.33283 0.61304 0.0
C471 C 0.17902 0.32805 0.62281 0.0
H472 H 0.18182 0.33266 0.64235 0.0
H473 H 0.13722 0.28455 0.64135 0.0
O474 O 0.07812 0.39143 0.60447 0.0
C475 C 0.0761 0.32414 0.64519 0.0
Co476 Co 0.60563 0.62727 0.62052 0.0
Co477 Co 0.62948 0.66534 0.65647 0.0
C478 C 0.62359 0.61575 0.67099 0.0
O479 O 0.61451 0.61041 0.65006 0.0
O480 O 0.63023 0.6371 0.67707 0.0
C481 C 0.59467 0.58573 0.59281 0.0
O482 O 0.61582 0.58035 0.60143 0.0
C483 C 0.65593 0.69756 0.69198 0.0
C484 C 0.65584 0.73091 0.67174 0.0
C485 C 0.66495 0.72105 0.69246 0.0
N486 N 0.64226 0.69386 0.67178 0.0
N487 N 0.64229 0.71388 0.65984 0.0
C488 C 0.66042 0.67878 0.70992 0.0
H489 H 0.6438 0.6674 0.71212 0.0
H490 H 0.66621 0.68675 0.72781 0.0
H491 H 0.67462 0.66735 0.70299 0.0
C492 C 0.56692 0.66092 0.62084 0.0
N493 N 0.58831 0.65387 0.6288 0.0
N494 N 0.59747 0.66938 0.64508 0.0
C495 C 0.58162 0.68641 0.64871 0.0
C496 C 0.56197 0.6818 0.63315 0.0
C497 C 0.55181 0.64794 0.60158 0.0
H498 H 0.54723 0.62964 0.60753 0.0
H499 H 0.5349 0.65693 0.59781 0.0
H500 H 0.56232 0.6465 0.58472 0.0
O501 O 0.63412 0.63658 0.60231 0.0
O502 O 0.65185 0.66174 0.62921 0.0
H503 H 0.56846 0.71259 0.6738 0.0
H504 H 0.59817 0.70325 0.68074 0.0
C505 C 0.58562 0.70738 0.66581 0.0
H506 H 0.5931 0.72275 0.65573 0.0
H507 H 0.63405 0.71556 0.64288 0.0
O508 O 0.58613 0.60536 0.59918 0.0
C509 C 0.65166 0.65064 0.60887 0.0
Co510 Co 0.35349 0.36712 0.37439 0.0
Co511 Co 0.39561 0.39122 0.40584 0.0
C512 C 0.36992 0.41804 0.36857 0.0
O513 O 0.35582 0.40006 0.36329 0.0
O514 O 0.38665 0.4172 0.38454 0.0
C515 C 0.30812 0.35048 0.35469 0.0
O516 O 0.30002 0.36743 0.36869 0.0
C517 C 0.43801 0.41963 0.42455 0.0
C518 C 0.44806 0.39887 0.45629 0.0
C519 C 0.45409 0.41939 0.44404 0.0
N520 N 0.42307 0.40023 0.42542 0.0
N521 N 0.42924 0.38784 0.44435 0.0
C522 C 0.43724 0.4374 0.40493 0.0
H523 H 0.42258 0.44959 0.40861 0.0
H524 H 0.43326 0.4281 0.38722 0.0
H525 H 0.45458 0.44791 0.40388 0.0
C526 C 0.39107 0.33422 0.36211 0.0
N527 N 0.38366 0.35378 0.37365 0.0
N528 N 0.40156 0.36374 0.38677 0.0
C529 C 0.42112 0.35089 0.38377 0.0
C530 C 0.41505 0.33178 0.36815 0.0
C531 C 0.37481 0.31727 0.34737 0.0
H532 H 0.35905 0.31178 0.35834 0.0
H533 H 0.36806 0.32642 0.33124 0.0
H534 H 0.38406 0.3012 0.34138 0.0
O535 O 0.34076 0.36595 0.40703 0.0
O536 O 0.36967 0.38483 0.42924 0.0
H537 H 0.44498 0.35181 0.41452 0.0
H538 H 0.45962 0.34734 0.38596 0.0
C539 C 0.44528 0.35693 0.39525 0.0
H540 H 0.44951 0.37633 0.39453 0.0
H541 H 0.42027 0.37207 0.44938 0.0
O542 O 0.33064 0.34798 0.35363 0.0
C543 C 0.34905 0.37414 0.42728 0.0
C544 C 0.21519 0.19322 0.23378 0.0
C545 C 0.19216 0.19494 0.22351 0.0
C546 C 0.22305 0.20847 0.25291 0.0
C547 C 0.21379 0.26831 0.27662 0.0
H548 H 0.25893 0.25013 0.32628 0.0
C549 C 0.2664 0.33602 0.34166 0.0
C550 C 0.29133 0.33296 0.34215 0.0
C551 C 0.25062 0.3187 0.33066 0.0
C552 C 0.24624 0.25542 0.31258 0.0
H553 H 0.1593 0.21401 0.22483 0.0
H554 H 0.17276 0.24032 0.25881 0.0
H555 H 0.23677 0.21941 0.30176 0.0
H556 H 0.31927 0.30942 0.33139 0.0
H557 H 0.29182 0.27936 0.3124 0.0
H558 H 0.22383 0.30438 0.28708 0.0
C559 C 0.1847 0.2271 0.25218 0.0
C560 C 0.2336 0.23788 0.29854 0.0
C561 C 0.17685 0.2118 0.233 0.0
C562 C 0.30018 0.31235 0.33136 0.0
C563 C 0.28445 0.295 0.32067 0.0
C564 C 0.22633 0.28587 0.2908 0.0
C565 C 0.20807 0.22591 0.262 0.0
C566 C 0.2179 0.24415 0.27983 0.0
C567 C 0.25954 0.29794 0.32031 0.0
C568 C 0.24328 0.27956 0.30829 0.0
H569 H 0.2274 0.18055 0.2265 0.0
H570 H 0.24132 0.20737 0.25972 0.0
H571 H 0.20199 0.27376 0.2622 0.0
H572 H 0.25907 0.35172 0.34984 0.0
H573 H 0.23147 0.32137 0.33052 0.0
C574 C 0.93793 0.00782 0.56395 0.0
C575 C 0.92978 0.03025 0.55844 0.0
C576 C 0.95085 0.9948 0.54703 0.0
C577 C 0.97046 0.99369 0.48164 0.0
H578 H 0.01799 0.95234 0.50699 0.0
C579 C 0.04901 0.95633 0.4256 0.0
C580 C 0.05156 0.93164 0.4264 0.0
C581 C 0.03287 0.9676 0.44084 0.0
C582 C 0.00467 0.96369 0.49963 0.0
H583 H 0.92903 0.05686 0.53096 0.0
H584 H 0.95247 0.03486 0.50174 0.0
H585 H 0.99269 0.97356 0.53486 0.0
H586 H 0.03917 0.89947 0.44398 0.0
H587 H 0.0116 0.91934 0.47127 0.0
H588 H 0.98371 0.98453 0.44638 0.0
C589 C 0.94813 0.02661 0.51872 0.0
C590 C 0.9899 0.97581 0.51562 0.0
C591 C 0.93466 0.03937 0.5355 0.0
C592 C 0.03762 0.9185 0.44289 0.0
C593 C 0.0219 0.92987 0.45856 0.0
C594 C 0.98564 0.98195 0.46569 0.0
C595 C 0.95675 0.00418 0.52428 0.0
C596 C 0.97242 0.991 0.50696 0.0
C597 C 0.01929 0.95454 0.45765 0.0
C598 C 0.00286 0.96676 0.4745 0.0
H599 H 0.93444 0.00037 0.58154 0.0
H600 H 0.95635 0.97742 0.55201 0.0
H601 H 0.95706 0.00471 0.47396 0.0
H602 H 0.05935 0.96697 0.41303 0.0
H603 H 0.03135 0.98663 0.43981 0.0
C604 C 0.21384 0.69282 0.75712 0.0
C605 C 0.20332 0.69712 0.77969 0.0
C606 C 0.22723 0.71081 0.74571 0.0
C607 C 0.26371 0.74897 0.72993 0.0
H608 H 0.23542 0.81033 0.72681 0.0
C609 C 0.30697 0.82563 0.67482 0.0
C610 C 0.2909 0.83722 0.6598 0.0
C611 C 0.29832 0.81038 0.69275 0.0
C612 C 0.24359 0.79331 0.72754 0.0
H613 H 0.19828 0.72389 0.80784 0.0
H614 H 0.22197 0.75536 0.78803 0.0
H615 H 0.21708 0.77961 0.75194 0.0
H616 H 0.2532 0.84215 0.65202 0.0
H617 H 0.23813 0.81566 0.68312 0.0
H618 H 0.28968 0.76234 0.70482 0.0
C619 C 0.21997 0.73794 0.77923 0.0
C620 C 0.23322 0.77578 0.74216 0.0
C621 C 0.20667 0.71983 0.79075 0.0
C622 C 0.26605 0.83358 0.6634 0.0
C623 C 0.25742 0.81852 0.68137 0.0
C624 C 0.27415 0.76654 0.71541 0.0
C625 C 0.23024 0.73369 0.75645 0.0
C626 C 0.24285 0.7532 0.74314 0.0
C627 C 0.27341 0.80645 0.69607 0.0
C628 C 0.26392 0.78877 0.71363 0.0
H629 H 0.21143 0.67556 0.74805 0.0
H630 H 0.23453 0.70697 0.72803 0.0
H631 H 0.27176 0.73187 0.73049 0.0
H632 H 0.32616 0.82742 0.6721 0.0
H633 H 0.31113 0.8014 0.70378 0.0
C634 C 0.46689 0.02154 0.94351 0.0
C635 C 0.44987 0.03408 0.95662 0.0
C636 C 0.48154 0.00546 0.95518 0.0
C637 C 0.48699 0.97039 0.01152 0.0
H638 H 0.55525 0.97342 0.99822 0.0
C639 C 0.55357 0.90885 0.0589 0.0
C640 C 0.57568 0.91958 0.06725 0.0
C641 C 0.53809 0.92103 0.04373 0.0
C642 C 0.53624 0.97235 0.00222 0.0
H643 H 0.43471 0.03909 0.99223 0.0
H644 H 0.45981 0.01114 0.01234 0.0
H645 H 0.52814 0.99732 0.97489 0.0
H646 H 0.59885 0.95158 0.0656 0.0
H647 H 0.57205 0.97265 0.03925 0.0
H648 H 0.49512 0.94585 0.03921 0.0
C649 C 0.46187 0.0135 0.99305 0.0
C650 C 0.52062 0.98588 0.98861 0.0
C651 C 0.44751 0.02967 0.98149 0.0
C652 C 0.58202 0.94266 0.05959 0.0
C653 C 0.56666 0.95475 0.0443 0.0
C654 C 0.50258 0.95671 0.025 0.0
C655 C 0.47937 0.00136 0.98021 0.0
C656 C 0.49579 0.98538 0.99328 0.0
C657 C 0.54435 0.94423 0.03627 0.0
C658 C 0.52751 0.95771 0.0208 0.0
H659 H 0.46961 0.02482 0.92448 0.0
H660 H 0.49472 0.99639 0.94464 0.0
H661 H 0.46798 0.96931 0.01554 0.0
H662 H 0.54803 0.89111 0.06436 0.0
H663 H 0.52121 0.9122 0.03776 0.0
C664 C 0.29656 0.6871 0.18892 0.0
C665 C 0.28579 0.67164 0.17095 0.0
C666 C 0.28275 0.70295 0.20215 0.0
C667 C 0.22422 0.73229 0.19913 0.0
H668 H 0.2368 0.747 0.26737 0.0
C669 C 0.15801 0.78455 0.25636 0.0
C670 C 0.16725 0.80207 0.27315 0.0
C671 C 0.17313 0.7689 0.24479 0.0
C672 C 0.23321 0.74329 0.24825 0.0
H673 H 0.2518 0.6604 0.15341 0.0
H674 H 0.22779 0.68755 0.17664 0.0
H675 H 0.26162 0.71897 0.24582 0.0
H676 H 0.20016 0.81701 0.2903 0.0
H677 H 0.22658 0.78936 0.27035 0.0
H678 H 0.19579 0.75642 0.20151 0.0
C679 C 0.247 0.68788 0.1802 0.0
C680 C 0.24747 0.72719 0.23585 0.0
C681 C 0.26079 0.67212 0.16695 0.0
C682 C 0.1922 0.80338 0.27808 0.0
C683 C 0.20741 0.78758 0.26649 0.0
C684 C 0.20998 0.74827 0.2115 0.0
C685 C 0.25778 0.70376 0.19781 0.0
C686 C 0.24304 0.72129 0.21113 0.0
C687 C 0.19809 0.77025 0.2495 0.0
C688 C 0.2141 0.75386 0.23629 0.0
H689 H 0.31577 0.68728 0.19249 0.0
H690 H 0.29179 0.71498 0.21537 0.0
H691 H 0.22057 0.72874 0.17999 0.0
H692 H 0.13891 0.78285 0.25212 0.0
H693 H 0.16518 0.75558 0.23217 0.0
C694 C 0.451 0.99783 0.55367 0.0
C695 C 0.43708 0.97756 0.54557 0.0
C696 C 0.46829 0.00849 0.53874 0.0
C697 C 0.48542 0.01345 0.47436 0.0
H698 H 0.54641 0.03823 0.50198 0.0
C699 C 0.56252 0.05201 0.41496 0.0
C700 C 0.57557 0.07245 0.42404 0.0
C701 C 0.54596 0.03969 0.42953 0.0
C702 C 0.52938 0.03165 0.49398 0.0
H703 H 0.43071 0.95249 0.51535 0.0
H704 H 0.46097 0.97102 0.48936 0.0
H705 H 0.51718 0.01808 0.52778 0.0
H706 H 0.58123 0.09598 0.4556 0.0
H707 H 0.5523 0.07475 0.48078 0.0
H708 H 0.49757 0.02718 0.44058 0.0
C709 C 0.45831 0.97884 0.5072 0.0
C710 C 0.51259 0.02006 0.50881 0.0
C711 C 0.44103 0.96812 0.52217 0.0
C712 C 0.57161 0.08026 0.44801 0.0
C713 C 0.55509 0.06796 0.46254 0.0
C714 C 0.50222 0.02507 0.45952 0.0
C715 C 0.47214 -0.00079 0.51526 0.0
C716 C 0.49032 0.01092 0.49925 0.0
C717 C 0.54204 0.04748 0.45354 0.0
C718 C 0.52437 0.03447 0.46916 0.0
H719 H 0.44844 0.00563 0.57154 0.0
H720 H 0.47835 0.02432 0.54547 0.0
H721 H 0.46835 0.00694 0.46641 0.0
H722 H 0.56511 0.04547 0.39659 0.0
H723 H 0.53646 0.02386 0.42204 0.0
C724 C 0.31486 0.18196 0.82088 0.0
C725 C 0.30849 0.15753 0.82215 0.0
C726 C 0.30066 0.19708 0.80745 0.0
C727 C 0.25393 0.19512 0.75779 0.0
H728 H 0.24604 0.26077 0.77748 0.0
C729 C 0.20782 0.2584 0.69349 0.0
C730 C 0.19213 0.27484 0.70322 0.0
C731 C 0.22278 0.24574 0.70854 0.0
C732 C 0.24788 0.24244 0.77176 0.0
H733 H 0.28159 0.13016 0.81079 0.0
H734 H 0.25676 0.15635 0.78801 0.0
H735 H 0.26957 0.23544 0.80308 0.0
H736 H 0.18002 0.29082 0.73672 0.0
H737 H 0.20606 0.26858 0.76316 0.0
H738 H 0.23178 0.20173 0.72692 0.0
C739 C 0.27304 0.16387 0.79681 0.0
C740 C 0.26167 0.22792 0.78635 0.0
C741 C 0.28726 0.14879 0.81008 0.0
C742 C 0.19224 0.2787 0.72853 0.0
C743 C 0.20716 0.26582 0.74372 0.0
C744 C 0.24015 0.20955 0.7433 0.0
C745 C 0.27962 0.18823 0.79497 0.0
C746 C 0.26491 0.20399 0.77959 0.0
C747 C 0.22234 0.24878 0.73395 0.0
C748 C 0.23697 0.23349 0.74992 0.0
H749 H 0.33108 0.18936 0.82989 0.0
H750 H 0.30655 0.21561 0.80636 0.0
H751 H 0.25617 0.17697 0.75163 0.0
H752 H 0.20832 0.25505 0.67408 0.0
H753 H 0.23459 0.23334 0.70015 0.0
C754 C 0.00925 0.09915 0.09979 0.0
C755 C 0.03076 0.10677 0.08875 0.0
C756 C 0.99213 0.08464 0.08692 0.0
C757 C 0.97497 0.05973 0.02559 0.0
H758 H 0.95613 0.00346 0.06105 0.0
C759 C 0.94535 0.95552 0.00459 0.0
C760 C 0.92821 0.95767 0.98596 0.0
C761 C 0.95447 0.97563 0.01765 0.0
C762 C 0.96125 0.01906 0.05091 0.0
H763 H 0.05031 0.10684 0.05502 0.0
H764 H 0.02068 0.08134 0.03273 0.0
H765 H 0.97726 0.03692 0.08224 0.0
H766 H 0.90586 0.98225 0.9675 0.0
H767 H 0.92201 0.01741 0.99004 0.0
H768 H 0.95999 0.04131 0.99401 0.0
C769 C 0.01691 0.0866 0.05126 0.0
C770 C 0.97304 0.03839 0.06311 0.0
C771 C 0.034 0.1011 0.0641 0.0
C772 C 0.9198 0.98017 0.98107 0.0
C773 C 0.9289 0.00029 0.99411 0.0
C774 C 0.96317 0.04038 0.01338 0.0
C775 C 0.9962 0.07753 0.06278 0.0
C776 C 0.98052 0.05872 0.05048 0.0
C777 C 0.9464 0.99825 0.01247 0.0
C778 C 0.95671 0.01963 0.02582 0.0
H779 H 0.00611 0.10343 0.1187 0.0
H780 H 0.97612 0.07825 0.09613 0.0
H781 H 0.98032 0.07525 0.01543 0.0
H782 H 0.95198 0.93833 0.00883 0.0
H783 H 0.96816 0.97352 0.0315 0.0
C784 C 0.79725 0.18591 0.68586 0.0
C785 C 0.78363 0.16631 0.67563 0.0
C786 C 0.78656 0.20253 0.70111 0.0
C787 C 0.73378 0.21086 0.74031 0.0
H788 H 0.74862 0.27799 0.73146 0.0
C789 C 0.69606 0.28426 0.80346 0.0
C790 C 0.68653 0.30357 0.79158 0.0
C791 C 0.70961 0.2678 0.79069 0.0
C792 C 0.74426 0.25932 0.73419 0.0
H793 H 0.748 0.14883 0.6738 0.0
H794 H 0.72943 0.17774 0.70041 0.0
H795 H 0.76831 0.24855 0.70645 0.0
H796 H 0.68399 0.32079 0.75706 0.0
H797 H 0.70776 0.29243 0.73496 0.0
H798 H 0.70943 0.22169 0.7678 0.0
C799 C 0.74844 0.1802 0.69672 0.0
C800 C 0.75572 0.2424 0.71997 0.0
C801 C 0.75908 0.16368 0.6813 0.0
C802 C 0.69125 0.30624 0.76681 0.0
C803 C 0.70498 0.29001 0.75415 0.0
C804 C 0.72248 0.22779 0.7547 0.0
C805 C 0.76199 0.19994 0.70674 0.0
C806 C 0.75046 0.21793 0.72264 0.0
C807 C 0.7141 0.27036 0.7658 0.0
C808 C 0.72736 0.25227 0.75166 0.0
H809 H 0.8162 0.18852 0.68198 0.0
H810 H 0.79763 0.21735 0.70868 0.0
H811 H 0.72946 0.19219 0.74306 0.0
H812 H 0.69226 0.28131 0.82236 0.0
H813 H 0.71642 0.25293 0.80028 0.0
C814 C 0.06892 0.56312 0.93303 0.0
C815 C 0.07376 0.58755 0.93777 0.0
C816 C 0.05257 0.55007 0.94716 0.0
C817 C 0.99999 0.5551 0.9855 0.0
H818 H 0.02075 0.49811 0.01592 0.0
C819 C 0.93641 0.49103 0.03966 0.0
C820 C 0.94488 0.48718 0.0633 0.0
C821 C 0.95152 0.50218 0.02279 0.0
C822 C 0.01468 0.51391 0.00741 0.0
H823 H 0.06482 0.61754 0.96075 0.0
H824 H 0.03576 0.59482 0.98503 0.0
H825 H 0.04814 0.52015 0.98928 0.0
H826 H 0.97581 0.49145 0.08768 0.0
H827 H 0.00234 0.51015 0.05805 0.0
H828 H 0.96647 0.54876 0.00359 0.0
C829 C 0.04484 0.58577 0.97051 0.0
C830 C 0.0303 0.52646 0.99213 0.0
C831 C 0.06157 0.59873 0.9567 0.0
C832 C 0.96883 0.49417 0.06957 0.0
C833 C 0.98403 0.50478 0.05261 0.0
C834 C 0.98417 0.54225 0.0004 0.0
C835 C 0.04031 0.56127 0.96601 0.0
C836 C 0.02324 0.54736 0.98127 0.0
C837 C 0.97548 0.50918 0.02914 0.0
C838 C 0.99148 0.52171 0.01176 0.0
H839 H 0.07804 0.55397 0.91861 0.0
H840 H 0.04936 0.53124 0.94324 0.0
H841 H 0.99405 0.57108 0.97726 0.0
H842 H 0.91794 0.48612 0.03447 0.0
H843 H 0.94449 0.50536 0.0048 0.0
C844 C 0.79177 0.66089 0.32138 0.0
C845 C 0.81511 0.66862 0.32925 0.0
C846 C 0.77808 0.67487 0.30635 0.0
C847 C 0.7725 0.73637 0.28391 0.0
H848 H 0.73217 0.7033 0.23459 0.0
C849 C 0.71631 0.78431 0.20995 0.0
C850 C 0.69297 0.77435 0.20487 0.0
C851 C 0.73226 0.77286 0.22536 0.0
C852 C 0.74314 0.71288 0.24839 0.0
H853 H 0.84213 0.69756 0.32756 0.0
H854 H 0.81831 0.7219 0.30098 0.0
H855 H 0.75792 0.68086 0.2605 0.0
H856 H 0.66824 0.74464 0.21256 0.0
H857 H 0.69572 0.72496 0.23907 0.0
H858 H 0.7576 0.76848 0.27144 0.0
C859 C 0.8105 0.70503 0.3067 0.0
C860 C 0.75795 0.69995 0.26336 0.0
C861 C 0.82424 0.691 0.32187 0.0
C862 C 0.68605 0.75286 0.21584 0.0
C863 C 0.70191 0.74145 0.23104 0.0
C864 C 0.75768 0.74938 0.26877 0.0
C865 C 0.78726 0.69705 0.2985 0.0
C866 C 0.77258 0.71138 0.28166 0.0
C867 C 0.72538 0.75104 0.2358 0.0
C868 C 0.74248 0.73774 0.25106 0.0
H869 H 0.78395 0.64391 0.3268 0.0
H870 H 0.76012 0.66824 0.30099 0.0
H871 H 0.78337 0.74587 0.29783 0.0
H872 H 0.72262 0.80045 0.20138 0.0
H873 H 0.75027 0.78069 0.22843 0.0
C874 C 0.95652 0.52966 0.4638 0.0
C875 C 0.94189 0.54537 0.47631 0.0
C876 C 0.97071 0.51394 0.47655 0.0
C877 C 0.99773 0.50684 0.53832 0.0
H878 H 0.01186 0.44401 0.514 0.0
C879 C 0.06965 0.45262 0.5856 0.0
C880 C 0.06536 0.42792 0.58744 0.0
C881 C 0.05479 0.46602 0.57108 0.0
C882 C 0.00798 0.46144 0.52121 0.0
H883 H 0.93013 0.55619 0.51199 0.0
H884 H 0.95403 0.52862 0.53399 0.0
H885 H 0.98473 0.46814 0.49092 0.0
H886 H 0.04203 0.39798 0.57492 0.0
H887 H 0.01586 0.42138 0.54993 0.0
H888 H 0.02034 0.50009 0.56883 0.0
C889 C 0.9552 0.52869 0.51442 0.0
C890 C 0.99259 0.47544 0.50777 0.0
C891 C 0.94124 0.54442 0.50174 0.0
C892 C 0.04595 0.41695 0.57397 0.0
C893 C 0.03097 0.4304 0.55948 0.0
C894 C 0.01301 0.49288 0.55172 0.0
C895 C 0.97063 0.51356 0.50213 0.0
C896 C 0.98714 0.49836 0.51617 0.0
C897 C 0.03501 0.45522 0.55799 0.0
C898 C 0.01848 0.46996 0.54342 0.0
H899 H 0.95794 0.53026 0.44427 0.0
H900 H 0.98247 0.5028 0.46637 0.0
H901 H 0.99444 0.52449 0.54533 0.0
H902 H 0.0845 0.46173 0.59549 0.0
H903 H 0.05894 0.48493 0.57009 0.0
C904 C 0.55465 0.42933 0.95416 0.0
C905 C 0.57247 0.44127 0.94068 0.0
C906 C 0.53832 0.44205 0.96791 0.0
C907 C 0.52765 0.50405 0.99216 0.0
H908 H 0.46503 0.47521 0.00683 0.0
C909 C 0.45095 0.55501 0.03867 0.0
C910 C 0.44412 0.54525 0.06086 0.0
C911 C 0.46522 0.54235 0.02253 0.0
C912 C 0.48245 0.48349 0.0028 0.0
H913 H 0.5866 0.47599 0.93045 0.0
H914 H 0.55752 0.49812 0.95304 0.0
H915 H 0.49233 0.45356 0.98127 0.0
H916 H 0.44633 0.5145 0.08331 0.0
H917 H 0.47021 0.49193 0.0546 0.0
H918 H 0.51701 0.53436 0.01309 0.0
C919 C 0.55659 0.47896 0.95412 0.0
C920 C 0.49834 0.47098 0.98832 0.0
C921 C 0.57328 0.46623 0.9409 0.0
C922 C 0.45113 0.52232 0.06621 0.0
C923 C 0.4648 0.50943 0.04981 0.0
C924 C 0.51149 0.51675 0.00611 0.0
C925 C 0.5389 0.46715 0.96812 0.0
C926 C 0.52141 0.48089 0.98294 0.0
C927 C 0.47242 0.51948 0.02802 0.0
C928 C 0.48882 0.50653 0.0118 0.0
H929 H 0.55363 0.4101 0.9545 0.0
H930 H 0.52554 0.43205 0.9787 0.0
H931 H 0.54525 0.51235 0.98916 0.0
H932 H 0.44614 0.57281 0.03429 0.0
H933 H 0.47086 0.55052 0.00586 0.0
C934 C 0.70375 0.72105 0.7164 0.0
C935 C 0.68376 0.7331 0.7082 0.0
C936 C 0.72329 0.73362 0.72776 0.0
C937 C 0.75378 0.79228 0.72861 0.0
H938 H 0.78204 0.77519 0.79002 0.0
C939 C 0.81326 0.85745 0.78745 0.0
C940 C 0.831 0.84868 0.80271 0.0
C941 C 0.7985 0.84188 0.77306 0.0
C942 C 0.77475 0.77992 0.77258 0.0
H943 H 0.66832 0.76754 0.70585 0.0
H944 H 0.70248 0.78947 0.72556 0.0
H945 H 0.74896 0.75033 0.77193 0.0
H946 H 0.84863 0.81696 0.81332 0.0
H947 H 0.82319 0.78981 0.78771 0.0
H948 H 0.77941 0.82183 0.72911 0.0
C949 C 0.70302 0.77035 0.72319 0.0
C950 C 0.75571 0.76575 0.76235 0.0
C951 C 0.68344 0.7578 0.71209 0.0
C952 C 0.83488 0.82422 0.80196 0.0
C953 C 0.82021 0.80865 0.78743 0.0
C954 C 0.77296 0.8063 0.73867 0.0
C955 C 0.72331 0.75844 0.73066 0.0
C956 C 0.7447 0.77217 0.74059 0.0
C957 C 0.80133 0.81723 0.77345 0.0
C958 C 0.78328 0.80061 0.76107 0.0
H959 H 0.70502 0.70219 0.71285 0.0
H960 H 0.73885 0.7241 0.73322 0.0
H961 H 0.74587 0.79731 0.71153 0.0
H962 H 0.80983 0.87621 0.78758 0.0
H963 H 0.78401 0.84912 0.7627 0.0
C964 C 0.69501 0.21535 0.26335 0.0
C965 C 0.70266 0.19586 0.27625 0.0
C966 C 0.71166 0.23051 0.25193 0.0
C967 C 0.77 0.23123 0.22309 0.0
H968 H 0.76657 0.29979 0.22757 0.0
C969 C 0.8118 0.29617 0.15323 0.0
C970 C 0.82376 0.31713 0.16249 0.0
C971 C 0.79951 0.28061 0.16872 0.0
C972 C 0.7679 0.28068 0.22626 0.0
H973 H 0.73369 0.17667 0.28703 0.0
H974 H 0.76296 0.20309 0.26667 0.0
H975 H 0.74044 0.2747 0.25256 0.0
H976 H 0.83265 0.33782 0.19546 0.0
H977 H 0.81095 0.31087 0.22232 0.0
H978 H 0.79699 0.23724 0.19624 0.0
C979 C 0.74405 0.2068 0.26577 0.0
C980 C 0.75284 0.26633 0.24046 0.0
C981 C 0.72737 0.19185 0.27762 0.0
C982 C 0.82364 0.32185 0.18767 0.0
C983 C 0.8111 0.30649 0.20308 0.0
C984 C 0.78481 0.24559 0.20857 0.0
C985 C 0.73632 0.22621 0.25268 0.0
C986 C 0.7536 0.24145 0.23892 0.0
C987 C 0.79865 0.28584 0.19376 0.0
C988 C 0.78382 0.27048 0.20991 0.0
H989 H 0.67604 0.21871 0.26185 0.0
H990 H 0.70513 0.24515 0.24179 0.0
H991 H 0.77083 0.2121 0.22137 0.0
H992 H 0.81155 0.29197 0.13395 0.0
H993 H 0.78997 0.26491 0.16098 0.0
C994 C 0.49304 0.43202 0.46443 0.0
C995 C 0.47159 0.43819 0.45301 0.0
C996 C 0.50809 0.44942 0.47616 0.0
C997 C 0.50392 0.50623 0.50807 0.0
H998 H 0.57368 0.50867 0.50706 0.0
C999 C 0.56069 0.57713 0.56326 0.0
C1000 C 0.58137 0.56965 0.57522 0.0
C1001 C 0.54824 0.56211 0.54636 0.0
C1002 C 0.55421 0.50806 0.50768 0.0
H1003 H 0.44897 0.46734 0.44493 0.0
H1004 H 0.47545 0.49778 0.46501 0.0
H1005 H 0.55068 0.48075 0.47987 0.0
H1006 H 0.60522 0.54061 0.57889 0.0
H1007 H 0.5831 0.51413 0.54981 0.0
H1008 H 0.50726 0.53291 0.5363 0.0
C1009 C 0.4807 0.47951 0.46476 0.0
C1010 C 0.54109 0.49217 0.49206 0.0
C1011 C 0.46573 0.46214 0.45294 0.0
C1012 C 0.58937 0.54688 0.56992 0.0
C1013 C 0.5768 0.53178 0.55311 0.0
C1014 C 0.517 0.52198 0.52377 0.0
C1015 C 0.50173 0.47324 0.47694 0.0
C1016 C 0.51582 0.49105 0.4922 0.0
C1017 C 0.55608 0.53923 0.54118 0.0
C1018 C 0.5423 0.52299 0.52386 0.0
H1019 H 0.4978 0.41363 0.4649 0.0
H1020 H 0.52406 0.44405 0.48562 0.0
H1021 H 0.48446 0.50542 0.50891 0.0
H1022 H 0.55418 0.59467 0.5668 0.0
H1023 H 0.53255 0.56853 0.53721 0.0
C1024 C 0.10366 0.09289 0.20629 0.0
C1025 C 0.09743 0.0905 0.18156 0.0
C1026 C 0.09704 0.07497 0.22221 0.0
C1027 C 0.05849 0.01928 0.22758 0.0
H1028 H 0.10737 0.00496 0.27518 0.0
C1029 C 0.065 0.92973 0.27658 0.0
C1030 C 0.07063 0.93139 0.30146 0.0
C1031 C 0.06432 0.9503 0.26301 0.0
C1032 C 0.09342 0.00894 0.26218 0.0
H1033 H 0.07885 0.06777 0.15416 0.0
H1034 H 0.06815 0.03611 0.18167 0.0
H1035 H 0.11385 0.03899 0.24961 0.0
H1036 H 0.07985 0.95554 0.33181 0.0
H1037 H 0.07852 0.99141 0.30818 0.0
H1038 H 0.03866 0.98828 0.23969 0.0
C1039 C 0.07759 0.05205 0.189 0.0
C1040 C 0.09705 0.02853 0.24758 0.0
C1041 C 0.08388 0.07014 0.17316 0.0
C1042 C 0.0749 0.95384 0.31275 0.0
C1043 C 0.07442 0.97432 0.29921 0.0
C1044 C 0.05501 -0.00057 0.24203 0.0
C1045 C 0.08441 0.05408 0.21365 0.0
C1046 C 0.07969 0.03393 0.23002 0.0
C1047 C 0.06964 0.9727 0.27414 0.0
C1048 C 0.07249 0.99411 0.25941 0.0
H1049 H 0.11378 0.10854 0.21336 0.0
H1050 H 0.1021 0.0774 0.24119 0.0
H1051 H 0.04459 0.02309 0.21448 0.0
H1052 H 0.06187 0.91252 0.26756 0.0
H1053 H 0.06082 0.94861 0.24365 0.0
C1054 C 0.18655 0.88767 0.38515 0.0
C1055 C 0.16386 0.89521 0.39203 0.0
C1056 C 0.20717 0.89491 0.39869 0.0
C1057 C 0.23189 0.93748 0.446 0.0
H1058 H 0.26679 0.88382 0.4677 0.0
C1059 C 0.28936 0.91034 0.53366 0.0
C1060 C 0.31025 0.92546 0.53401 0.0
C1061 C 0.27358 0.90955 0.5138 0.0
C1062 C 0.25737 0.89899 0.46155 0.0
H1063 H 0.14524 0.91744 0.41761 0.0
H1064 H 0.18125 0.92996 0.44125 0.0
H1065 H 0.23595 0.87778 0.43593 0.0
H1066 H 0.33029 0.9525 0.51424 0.0
H1067 H 0.30201 0.95143 0.47949 0.0
H1068 H 0.25303 0.95846 0.47241 0.0
C1069 C 0.18306 0.91851 0.42536 0.0
C1070 C 0.23987 0.8956 0.44328 0.0
C1071 C 0.16242 0.91113 0.41196 0.0
C1072 C 0.3144 0.94061 0.51446 0.0
C1073 C 0.29829 0.94004 0.49464 0.0
C1074 C 0.2497 0.94094 0.46413 0.0
C1075 C 0.20553 0.91 0.41922 0.0
C1076 C 0.22651 0.91467 0.43578 0.0
C1077 C 0.27812 0.92405 0.49398 0.0
C1078 C 0.26201 0.92154 0.47249 0.0
H1079 H 0.18832 0.87551 0.36981 0.0
H1080 H 0.22432 0.88822 0.39349 0.0
H1081 H 0.22189 0.95248 0.44041 0.0
H1082 H 0.28552 0.89846 0.54838 0.0
H1083 H 0.25793 0.89731 0.51377 0.0
C1084 C 0.37512 0.98326 0.64429 0.0
C1085 C 0.36501 0.95994 0.6451 0.0
C1086 C 0.3788 0.99696 0.66566 0.0
C1087 C 0.39031 0.9925 0.73012 0.0
H1088 H 0.36233 0.05389 0.73685 0.0
C1089 C 0.38839 0.04422 0.82209 0.0
C1090 C 0.38894 0.06911 0.8217 0.0
C1091 C 0.38724 0.03082 0.80034 0.0
C1092 C 0.37075 0.03703 0.73518 0.0
H1093 H 0.35089 0.93272 0.66892 0.0
H1094 H 0.35786 0.95651 0.70615 0.0
H1095 H 0.35708 0.03113 0.69886 0.0
H1096 H 0.39043 0.09963 0.79858 0.0
H1097 H 0.38981 0.07648 0.76082 0.0
H1098 H 0.40456 -0.00151 0.76611 0.0
C1099 C 0.36274 0.96415 0.68898 0.0
C1100 C 0.36756 0.02397 0.71344 0.0
C1101 C 0.35862 0.95064 0.66765 0.0
C1102 C 0.38963 0.08041 0.79934 0.0
C1103 C 0.38905 0.0671 0.77769 0.0
C1104 C 0.39391 0.00576 0.75175 0.0
C1105 C 0.3729 0.98737 0.68816 0.0
C1106 C 0.37715 0.00155 0.71081 0.0
C1107 C 0.38714 0.04213 0.77784 0.0
C1108 C 0.38405 0.02816 0.75463 0.0
H1109 H 0.38021 0.9909 0.62719 0.0
H1110 H 0.38667 0.01487 0.66467 0.0
H1111 H 0.39799 0.97526 0.72836 0.0
H1112 H 0.38774 0.03514 0.83916 0.0
H1113 H 0.38555 0.01165 0.80123 0.0
C1114 C 0.28896 0.09755 0.93705 0.0
C1115 C 0.31336 0.10081 0.94373 0.0
C1116 C 0.27133 0.09691 0.9548 0.0
C1117 C 0.26158 0.11789 0.01708 0.0
H1118 H 0.20602 0.07345 0.01415 0.0
C1119 C 0.19327 0.11569 0.09337 0.0
C1120 C 0.16889 0.11511 0.08617 0.0
C1121 C 0.21096 0.11098 0.07655 0.0
C1122 C 0.22138 0.08604 0.01509 0.0
H1123 H 0.33867 0.10575 0.97391 0.0
H1124 H 0.30798 0.10422 0.00497 0.0
H1125 H 0.23694 0.07099 0.98327 0.0
H1126 H 0.14388 0.10815 0.0559 0.0
H1127 H 0.17488 0.10032 0.02644 0.0
H1128 H 0.246 0.13325 0.04853 0.0
C1129 C 0.30239 0.10236 0.98608 0.0
C1130 C 0.23903 0.08464 0.99744 0.0
C1131 C 0.31995 0.10299 0.96835 0.0
C1132 C 0.16251 0.10876 0.06202 0.0
C1133 C 0.18025 0.10415 0.04515 0.0
C1134 C 0.24397 0.11931 0.03464 0.0
C1135 C 0.27789 0.09959 0.97948 0.0
C1136 C 0.25929 0.10058 0.99829 0.0
C1137 C 0.20469 0.10573 0.05215 0.0
C1138 C 0.22367 0.10343 0.03385 0.0
H1139 H 0.28353 0.09566 0.91812 0.0
H1140 H 0.25257 0.09494 0.94919 0.0
H1141 H 0.27675 0.13071 0.01792 0.0
H1142 H 0.19878 0.12027 0.1119 0.0
H1143 H 0.22962 0.11187 0.08257 0.0
C1144 C 0.08168 0.23517 0.14984 0.0
C1145 C 0.09023 0.22486 0.12849 0.0
C1146 C 0.07022 0.2566 0.14912 0.0
C1147 C 0.03521 0.28987 0.10618 0.0
H1148 H 0.03393 0.33548 0.16001 0.0
C1149 C 0.9676 0.36329 0.10766 0.0
C1150 C 0.95431 0.36434 0.12901 0.0
C1151 C 0.9886 0.35079 0.10691 0.0
C1152 C 0.0342 0.32291 0.14482 0.0
H1153 H 0.09547 0.2292 0.09008 0.0
H1154 H 0.0758 0.26707 0.08872 0.0
H1155 H 0.06425 0.30551 0.15963 0.0
H1156 H 0.95271 0.35426 0.16655 0.0
H1157 H 0.98935 0.33199 0.16524 0.0
H1158 H 0.00482 0.30676 0.09169 0.0
C1159 C 0.07733 0.25839 0.10593 0.0
C1160 C 0.05149 0.30576 0.1446 0.0
C1161 C 0.0886 0.23685 0.10666 0.0
C1162 C 0.96269 0.35347 0.14986 0.0
C1163 C 0.98373 0.341 0.14916 0.0
C1164 C 0.01807 0.30707 0.10633 0.0
C1165 C 0.06734 0.26813 0.12701 0.0
C1166 C 0.05175 0.28865 0.12559 0.0
C1167 C 0.99663 0.33918 0.12753 0.0
C1168 C 0.01699 0.32335 0.12594 0.0
H1169 H 0.08285 0.22608 0.16686 0.0
H1170 H 0.06251 0.26342 0.16564 0.0
H1171 H 0.03459 0.27674 0.09145 0.0
H1172 H 0.96134 0.37155 0.09136 0.0
H1173 H 0.99829 0.34979 0.09007 0.0
C1174 C 0.55842 0.31373 0.90275 0.0
C1175 C 0.57696 0.31426 0.88572 0.0
C1176 C 0.54262 0.29379 0.90407 0.0
C1177 C 0.517 0.24467 0.86628 0.0
H1178 H 0.49538 0.2188 0.92713 0.0
C1179 C 0.45424 0.16047 0.90054 0.0
C1180 C 0.43362 0.16314 0.88597 0.0
C1181 C 0.47281 0.17811 0.9015 0.0
C1182 C 0.50142 0.22576 0.91003 0.0
H1183 H 0.59385 0.29402 0.85719 0.0
H1184 H 0.56616 0.25932 0.85949 0.0
H1185 H 0.52684 0.2508 0.9274 0.0
H1186 H 0.41623 0.18652 0.86118 0.0
H1187 H 0.44865 0.21713 0.86283 0.0
H1188 H 0.49149 0.21988 0.8489 0.0
C1189 C 0.56381 0.2744 0.87168 0.0
C1190 C 0.51924 0.24413 0.91019 0.0
C1191 C 0.57969 0.29424 0.87044 0.0
C1192 C 0.43187 0.18387 0.87257 0.0
C1193 C 0.45049 0.20135 0.87337 0.0
C1194 C 0.4991 0.22649 0.86614 0.0
C1195 C 0.54498 0.2741 0.88831 0.0
C1196 C 0.52706 0.25384 0.88831 0.0
C1197 C 0.47117 0.19858 0.88772 0.0
C1198 C 0.49099 0.21702 0.888 0.0
H1199 H 0.55587 0.32882 0.91484 0.0
H1200 H 0.5281 0.29409 0.91692 0.0
H1201 H 0.52254 0.25198 0.84916 0.0
H1202 H 0.4561 0.14473 0.91113 0.0
H1203 H 0.48865 0.17555 0.91263 0.0
C1204 C 0.96592 0.64725 0.39548 0.0
C1205 C 0.94661 0.65231 0.37998 0.0
C1206 C 0.9876 0.66077 0.39491 0.0
C1207 C 0.02252 0.70465 0.35932 0.0
H1208 H 0.04082 0.73328 0.42211 0.0
C1209 C 0.06168 0.79993 0.39544 0.0
C1210 C 0.08026 0.80404 0.37891 0.0
C1211 C 0.05142 0.77705 0.39799 0.0
C1212 C 0.03609 0.72525 0.4045 0.0
H1213 H 0.93544 0.67441 0.35063 0.0
H1214 H 0.97321 0.69798 0.34967 0.0
H1215 H 0.0111 0.69992 0.41964 0.0
H1216 H 0.10406 0.78706 0.35363 0.0
H1217 H 0.08611 0.7472 0.35817 0.0
H1218 H 0.04632 0.73087 0.34402 0.0
C1219 C 0.97162 0.68355 0.36223 0.0
C1220 C 0.01928 0.70603 0.40309 0.0
C1221 C 0.9499 0.67018 0.36292 0.0
C1222 C 0.08951 0.78457 0.36627 0.0
C1223 C 0.07925 0.76173 0.36883 0.0
C1224 C 0.03939 0.72379 0.36073 0.0
C1225 C 0.99043 0.67939 0.37865 0.0
C1226 C 0.01168 0.69617 0.38041 0.0
C1227 C 0.05959 0.75788 0.3841 0.0
C1228 C 0.04566 0.73482 0.38327 0.0
H1229 H 0.964 0.6335 0.40878 0.0
H1230 H 0.0019 0.65712 0.40763 0.0
H1231 H 0.01713 0.69719 0.34164 0.0
H1232 H 0.05425 0.81451 0.40554 0.0
H1233 H 0.03614 0.77466 0.40976 0.0
C1234 C 0.54255 0.70736 0.60341 0.0
C1235 C 0.54347 0.69843 0.62688 0.0
C1236 C 0.52677 0.72497 0.59786 0.0
C1237 C 0.49605 0.77338 0.62699 0.0
H1238 H 0.45778 0.77267 0.56753 0.0
C1239 C 0.42251 0.83913 0.61152 0.0
C1240 C 0.41963 0.84816 0.58828 0.0
C1241 C 0.43833 0.82122 0.61551 0.0
C1242 C 0.46865 0.77327 0.58402 0.0
H1243 H 0.52808 0.69967 0.66262 0.0
H1244 H 0.50048 0.73079 0.65305 0.0
H1245 H 0.48295 0.73942 0.57592 0.0
H1246 H 0.43114 0.84623 0.55104 0.0
H1247 H 0.45944 0.81497 0.55804 0.0
H1248 H 0.48202 0.80723 0.63509 0.0
C1249 C 0.51216 0.7244 0.63904 0.0
C1250 C 0.48293 0.75421 0.58887 0.0
C1251 C 0.52787 0.70668 0.64453 0.0
C1252 C 0.43319 0.83945 0.56911 0.0
C1253 C 0.44914 0.82149 0.5731 0.0
C1254 C 0.48191 0.79246 0.6221 0.0
C1255 C 0.51177 0.73397 0.61577 0.0
C1256 C 0.49658 0.75402 0.6105 0.0
C1257 C 0.45173 0.8121 0.59633 0.0
C1258 C 0.46788 0.79251 0.60069 0.0
H1259 H 0.55463 0.70129 0.58961 0.0
H1260 H 0.52695 0.73216 0.57984 0.0
H1261 H 0.50681 0.7739 0.64357 0.0
H1262 H 0.41236 0.84581 0.62662 0.0
H1263 H 0.43967 0.81418 0.63354 0.0
C1264 C 0.83203 0.04985 0.7106 0.0
C1265 C 0.85262 0.0603 0.70028 0.0
C1266 C 0.83344 0.04005 0.73351 0.0
C1267 C 0.87748 0.01845 0.77789 0.0
H1268 H 0.822 0.01774 0.81963 0.0
C1269 C 0.87714 0.96855 0.86664 0.0
C1270 C 0.86 0.94944 0.86446 0.0
C1271 C 0.87568 0.98787 0.85142 0.0
C1272 C 0.83771 0.01817 0.80827 0.0
H1273 H 0.8906 0.06942 0.70533 0.0
H1274 H 0.89311 0.05306 0.74578 0.0
H1275 H 0.82146 0.04018 0.78235 0.0
H1276 H 0.82676 0.93636 0.84664 0.0
H1277 H 0.82384 0.97043 0.82056 0.0
H1278 H 0.89359 0.99631 0.80385 0.0
C1279 C 0.876 0.05163 0.7361 0.0
C1280 C 0.83735 0.0307 0.78679 0.0
C1281 C 0.87463 0.06101 0.71299 0.0
C1282 C 0.84023 0.95088 0.84853 0.0
C1283 C 0.83849 0.9704 0.83375 0.0
C1284 C 0.87801 0.00633 0.79956 0.0
C1285 C 0.8554 0.04103 0.74667 0.0
C1286 C 0.85691 0.03032 0.77093 0.0
C1287 C 0.85674 0.98851 0.83435 0.0
C1288 C 0.85786 0.0055 0.81453 0.0
H1289 H 0.81488 0.04933 0.70095 0.0
H1290 H 0.81733 0.03153 0.74075 0.0
H1291 H 0.89276 0.01744 0.76606 0.0
H1292 H 0.89262 0.96773 0.87871 0.0
H1293 H 0.88995 0.00168 0.85209 0.0
C1294 C 0.82116 0.10293 0.54066 0.0
C1295 C 0.81174 0.10683 0.56384 0.0
C1296 C 0.80647 0.10437 0.52 0.0
C1297 C 0.74461 0.09821 0.49865 0.0
H1298 H 0.76188 0.14486 0.45062 0.0
C1299 C 0.67584 0.12253 0.42718 0.0
C1300 C 0.6837 0.12565 0.4034 0.0
C1301 C 0.69242 0.12136 0.44622 0.0
C1302 C 0.75696 0.13151 0.46365 0.0
H1303 H 0.77955 0.11439 0.58373 0.0
H1304 H 0.75378 0.11617 0.54765 0.0
H1305 H 0.78965 0.13839 0.48439 0.0
H1306 H 0.71492 0.13104 0.38085 0.0
H1307 H 0.74412 0.12816 0.41409 0.0
H1308 H 0.71229 0.09077 0.47799 0.0
C1309 C 0.77254 0.11234 0.5455 0.0
C1310 C 0.77284 0.12785 0.48293 0.0
C1311 C 0.78728 0.1114 0.56607 0.0
C1312 C 0.70844 0.12871 0.3991 0.0
C1313 C 0.72513 0.12708 0.41815 0.0
C1314 C 0.72894 0.10156 0.47924 0.0
C1315 C 0.7821 0.10917 0.52233 0.0
C1316 C 0.76655 0.11146 0.50076 0.0
C1317 C 0.71727 0.12275 0.44183 0.0
C1318 C 0.73468 0.1186 0.46177 0.0
H1319 H 0.84 0.0995 0.53845 0.0
H1320 H 0.81411 0.10178 0.50224 0.0
H1321 H 0.73957 0.0853 0.51211 0.0
H1322 H 0.65681 0.12046 0.43101 0.0
H1323 H 0.68571 0.11884 0.46434 0.0
C1324 C 0.66822 0.06276 0.28802 0.0
C1325 C 0.65128 0.05906 0.30636 0.0
C1326 C 0.67337 0.0443 0.27189 0.0
C1327 C 0.66613 0.97904 0.26208 0.0
H1328 H 0.66568 0.99455 0.19398 0.0
C1329 C 0.63763 0.92958 0.1671 0.0
C1330 C 0.64795 0.9076 0.17022 0.0
C1331 C 0.64415 0.94891 0.1825 0.0
C1332 C 0.66595 0.98997 0.21293 0.0
H1333 H 0.62692 0.03295 0.32255 0.0
H1334 H 0.63551 0.00091 0.29409 0.0
H1335 H 0.66505 0.02631 0.22473 0.0
H1336 H 0.67454 0.88916 0.1908 0.0
H1337 H 0.68605 0.92303 0.21757 0.0
H1338 H 0.66546 0.94263 0.25028 0.0
C1339 C 0.64514 0.01796 0.29243 0.0
C1340 C 0.66586 0.00816 0.23055 0.0
C1341 C 0.64006 0.03638 0.30863 0.0
C1342 C 0.66595 0.90574 0.18816 0.0
C1343 C 0.67254 0.92512 0.20352 0.0
C1344 C 0.66612 0.96085 0.24446 0.0
C1345 C 0.66164 0.02181 0.27372 0.0
C1346 C 0.66524 0.00283 0.25529 0.0
C1347 C 0.66124 0.9467 0.20125 0.0
C1348 C 0.66532 0.9661 0.2197 0.0
H1349 H 0.67736 0.07998 0.28592 0.0
H1350 H 0.68638 0.0477 0.25784 0.0
H1351 H 0.66607 0.97444 0.28102 0.0
H1352 H 0.62377 0.93167 0.1534 0.0
H1353 H 0.63489 0.96521 0.18045 0.0
C1354 C 0.66509 0.81716 0.03535 0.0
C1355 C 0.67177 0.82708 0.05821 0.0
C1356 C 0.6824 0.81477 0.01745 0.0
C1357 C 0.74794 0.81293 0.00984 0.0
H1358 H 0.73709 0.84174 0.94781 0.0
C1359 C 0.8232 0.85685 0.95577 0.0
C1360 C 0.82257 0.85475 0.93035 0.0
C1361 C 0.80436 0.84709 0.96921 0.0
C1362 C 0.74023 0.83311 0.96481 0.0
H1363 H 0.7011 0.84297 0.08033 0.0
H1364 H 0.73133 0.83868 0.04932 0.0
H1365 H 0.70364 0.83604 0.97555 0.0
H1366 H 0.80202 0.84018 0.89909 0.0
H1367 H 0.76894 0.82332 0.92273 0.0
H1368 H 0.78474 0.81107 0.99968 0.0
C1369 C 0.71298 0.83227 0.04526 0.0
C1370 C 0.7211 0.82984 0.98065 0.0
C1371 C 0.69573 0.83484 0.06292 0.0
C1372 C 0.803 0.84216 0.91867 0.0
C1373 C 0.78405 0.83254 0.93214 0.0
C1374 C 0.76702 0.81618 0.99406 0.0
C1375 C 0.70654 0.82212 0.02241 0.0
C1376 C 0.72508 0.82066 0.00369 0.0
C1377 C 0.78447 0.83513 0.95751 0.0
C1378 C 0.76354 0.8272 0.97184 0.0
H1379 H 0.64658 0.81119 0.03145 0.0
H1380 H 0.67702 0.80706 0.99988 0.0
H1381 H 0.75131 0.80541 0.02738 0.0
H1382 H 0.83805 0.86635 0.96531 0.0
H1383 H 0.80497 0.84967 0.98875 0.0
C1384 C 0.06738 0.69671 0.87827 0.0
C1385 C 0.07368 0.68774 0.85542 0.0
C1386 C 0.0542 0.71703 0.88022 0.0
C1387 C 0.01503 0.75512 0.84526 0.0
H1388 H 0.03053 0.80022 0.89829 0.0
C1389 C 0.96591 0.84164 0.85602 0.0
C1390 C 0.95525 0.8442 0.87875 0.0
C1391 C 0.98359 0.82524 0.85252 0.0
C1392 C 0.0261 0.78778 0.88338 0.0
H1393 H 0.07094 0.6924 0.81669 0.0
H1394 H 0.04836 0.72844 0.81998 0.0
H1395 H 0.05439 0.76532 0.89296 0.0
H1396 H 0.95541 0.83288 0.91596 0.0
H1397 H 0.98674 0.80452 0.91001 0.0
H1398 H 0.98671 0.77764 0.83575 0.0
C1399 C 0.05325 0.71962 0.83641 0.0
C1400 C 0.03959 0.76773 0.8804 0.0
C1401 C 0.06625 0.69912 0.83449 0.0
C1402 C 0.96359 0.83135 0.89834 0.0
C1403 C 0.98145 0.81513 0.89491 0.0
C1404 C 0.0017 0.77529 0.8481 0.0
C1405 C 0.04729 0.72893 0.85933 0.0
C1406 C 0.03393 0.75096 0.86156 0.0
C1407 C 0.99103 0.81141 0.87179 0.0
C1408 C 0.00689 0.79159 0.8674 0.0
H1409 H 0.0732 0.6884 0.8947 0.0
H1410 H 0.04949 0.72345 0.89811 0.0
H1411 H 0.00999 0.74242 0.83075 0.0
H1412 H 0.95983 0.8516 0.84075 0.0
H1413 H 0.99093 0.82285 0.83459 0.0
C1414 C 0.4084 0.69758 0.13573 0.0
C1415 C 0.41499 0.67387 0.13451 0.0
C1416 C 0.4257 0.71586 0.14072 0.0
C1417 C 0.49173 0.72844 0.14165 0.0
H1418 H 0.47509 0.78522 0.17777 0.0
C1419 C 0.56311 0.79887 0.17055 0.0
C1420 C 0.5608 0.81917 0.15656 0.0
C1421 C 0.5436 0.78276 0.17306 0.0
C1422 C 0.47985 0.76936 0.1678 0.0
H1423 H 0.4445 0.65045 0.13795 0.0
H1424 H 0.4746 0.6822 0.14777 0.0
H1425 H 0.44481 0.75256 0.1711 0.0
H1426 H 0.53556 0.83994 0.13674 0.0
H1427 H 0.50127 0.81167 0.1415 0.0
H1428 H 0.52691 0.74509 0.13896 0.0
C1429 C 0.4563 0.68689 0.14401 0.0
C1430 C 0.46257 0.75078 0.16374 0.0
C1431 C 0.43908 0.66866 0.13846 0.0
C1432 C 0.53796 0.82433 0.14739 0.0
C1433 C 0.51833 0.80828 0.15019 0.0
C1434 C 0.50904 0.74673 0.14618 0.0
C1435 C 0.44983 0.71074 0.14512 0.0
C1436 C 0.46827 0.73018 0.15039 0.0
C1437 C 0.52142 0.78691 0.16203 0.0
C1438 C 0.50317 0.76732 0.15911 0.0
H1439 H 0.38989 0.70201 0.13262 0.0
H1440 H 0.42013 0.73401 0.14086 0.0
H1441 H 0.49667 0.71321 0.1308 0.0
H1442 H 0.58037 0.79447 0.17812 0.0
H1443 H 0.5462 0.76634 0.18234 0.0
C1444 C 0.93073 0.15715 0.62042 0.0
C1445 C 0.9064 0.16262 0.62071 0.0
C1446 C 0.9487 0.17522 0.62271 0.0
C1447 C 0.9582 0.23748 0.64476 0.0
H1448 H 0.01882 0.23315 0.61157 0.0
C1449 C 0.03225 0.31316 0.64 0.0
C1450 C 0.05569 0.30657 0.64562 0.0
C1451 C 0.01336 0.29597 0.63807 0.0
C1452 C 0.00199 0.23443 0.62102 0.0
H1453 H 0.88168 0.19119 0.62238 0.0
H1454 H 0.91307 0.22282 0.62542 0.0
H1455 H 0.98684 0.20259 0.60391 0.0
H1456 H 0.07765 0.27703 0.65436 0.0
H1457 H 0.0446 0.24702 0.65058 0.0
H1458 H 0.97336 0.26978 0.66132 0.0
C1459 C 0.9183 0.20457 0.6243 0.0
C1460 C 0.98373 0.21696 0.61672 0.0
C1461 C 0.90033 0.18648 0.62239 0.0
C1462 C 0.05977 0.28264 0.65003 0.0
C1463 C 0.04096 0.26546 0.64774 0.0
C1464 C 0.97636 0.25515 0.64876 0.0
C1465 C 0.94267 0.19911 0.62494 0.0
C1466 C 0.9617 0.21818 0.62869 0.0
C1467 C 0.01775 0.27198 0.64139 0.0
C1468 C 0.99842 0.25359 0.63708 0.0
H1469 H 0.93589 0.13887 0.61931 0.0
H1470 H 0.96729 0.17038 0.62348 0.0
H1471 H 0.94161 0.23873 0.65461 0.0
H1472 H 0.0286 0.33149 0.63663 0.0
H1473 H 0.99552 0.3013 0.63312 0.0
C1474 C 0.43933 0.29838 0.3807 0.0
C1475 C 0.42979 0.31166 0.36206 0.0
C1476 C 0.45291 0.27893 0.37515 0.0
C1477 C 0.49193 0.25526 0.3297 0.0
H1478 H 0.48129 0.19656 0.36401 0.0
C1479 C 0.55437 0.17711 0.3186 0.0
C1480 C 0.56134 0.16707 0.34045 0.0
C1481 C 0.5356 0.19266 0.31817 0.0
C1482 C 0.48452 0.21286 0.35434 0.0
H1483 H 0.42677 0.31558 0.32323 0.0
H1484 H 0.45107 0.28149 0.31338 0.0
H1485 H 0.45333 0.22826 0.36904 0.0
H1486 H 0.55469 0.16534 0.37894 0.0
H1487 H 0.52213 0.19262 0.37836 0.0
H1488 H 0.52371 0.24037 0.31585 0.0
C1489 C 0.44789 0.28607 0.33221 0.0
C1490 C 0.4685 0.23092 0.35717 0.0
C1491 C 0.43405 0.30542 0.33779 0.0
C1492 C 0.54927 0.17256 0.3618 0.0
C1493 C 0.5306 0.18811 0.36142 0.0
C1494 C 0.50808 0.23725 0.327 0.0
C1495 C 0.45731 0.27262 0.35088 0.0
C1496 C 0.47242 0.25248 0.34536 0.0
C1497 C 0.52364 0.19843 0.33963 0.0
C1498 C 0.50486 0.21612 0.3398 0.0
H1499 H 0.4361 0.30295 0.39953 0.0
H1500 H 0.46029 0.26903 0.38986 0.0
H1501 H 0.49538 0.27182 0.32052 0.0
H1502 H 0.56344 0.17293 0.3019 0.0
H1503 H 0.53049 0.20019 0.30109 0.0
C1504 C 0.61929 0.46467 0.82758 0.0
C1505 C 0.61498 0.44167 0.81756 0.0
C1506 C 0.62063 0.48426 0.8126 0.0
C1507 C 0.60223 0.50344 0.75226 0.0
H1508 H 0.65351 0.55221 0.76168 0.0
C1509 C 0.62129 0.57278 0.68069 0.0
C1510 C 0.62542 0.59657 0.68859 0.0
C1511 C 0.62096 0.55455 0.69723 0.0
C1512 C 0.63894 0.53887 0.75902 0.0
H1513 H 0.60867 0.42089 0.78431 0.0
H1514 H 0.61114 0.45511 0.75798 0.0
H1515 H 0.65051 0.51895 0.78926 0.0
H1516 H 0.63336 0.61981 0.71999 0.0
H1517 H 0.63252 0.58775 0.74909 0.0
H1518 H 0.5906 0.5232 0.72211 0.0
C1519 C 0.61326 0.45807 0.7774 0.0
C1520 C 0.63722 0.51986 0.77478 0.0
C1521 C 0.61201 0.4385 0.79238 0.0
C1522 C 0.63009 0.60166 0.71336 0.0
C1523 C 0.62967 0.58331 0.73 0.0
C1524 C 0.60391 0.52241 0.73659 0.0
C1525 C 0.61761 0.48114 0.78736 0.0
C1526 C 0.61899 0.50183 0.77136 0.0
C1527 C 0.62463 0.55963 0.7221 0.0
C1528 C 0.62245 0.54017 0.73959 0.0
H1529 H 0.62205 0.46748 0.84694 0.0
H1530 H 0.62387 0.50184 0.82077 0.0
H1531 H 0.58772 0.49005 0.74948 0.0
H1532 H 0.61797 0.56817 0.6617 0.0
H1533 H 0.61763 0.53643 0.69051 0.0
C1534 C 0.67702 0.39158 0.94443 0.0
C1535 C 0.67834 0.37754 0.92308 0.0
C1536 C 0.69668 0.3943 0.96046 0.0
C1537 C 0.7514 0.36571 0.97943 0.0
H1538 H 0.76779 0.42726 0.0101 0.0
C1539 C 0.82718 0.41377 0.04979 0.0
C1540 C 0.82674 0.39692 0.06815 0.0
C1541 C 0.81093 0.41136 0.03018 0.0
C1542 C 0.76363 0.41002 0.00148 0.0
H1543 H 0.70145 0.35534 0.90189 0.0
H1544 H 0.7358 0.36017 0.92996 0.0
H1545 H 0.73595 0.42353 0.97911 0.0
H1546 H 0.8092 0.36404 0.07999 0.0
H1547 H 0.78085 0.36 0.04596 0.0
H1548 H 0.77904 0.35219 0.00189 0.0
C1549 C 0.71946 0.36894 0.93428 0.0
C1550 C 0.74523 0.40783 0.98394 0.0
C1551 C 0.6998 0.36627 0.91816 0.0
C1552 C 0.81003 0.37738 0.06621 0.0
C1553 C 0.79388 0.37495 0.0466 0.0
C1554 C 0.76976 0.36788 0.99704 0.0
C1555 C 0.71809 0.38302 0.95557 0.0
C1556 C 0.7387 0.3856 0.97298 0.0
C1557 C 0.79401 0.392 0.02848 0.0
C1558 C 0.77585 0.39 0.00847 0.0
H1559 H 0.66079 0.40051 0.94882 0.0
H1560 H 0.69496 0.40498 0.97691 0.0
H1561 H 0.74668 0.34832 0.9714 0.0
H1562 H 0.8399 0.42897 0.05065 0.0
H1563 H 0.8116 0.42466 0.01635 0.0
C1564 C 0.84424 0.43103 0.20444 0.0
C1565 C 0.8497 0.44319 0.1831 0.0
C1566 C 0.84062 0.44357 0.22609 0.0
C1567 C 0.8257 0.50048 0.25286 0.0
H1568 H 0.87348 0.48892 0.30264 0.0
C1569 C 0.85541 0.57149 0.32351 0.0
C1570 C 0.86342 0.56535 0.3467 0.0
C1571 C 0.84898 0.55402 0.30604 0.0
C1572 C 0.85956 0.49201 0.2893 0.0
H1573 H 0.85428 0.47796 0.16739 0.0
H1574 H 0.84737 0.49992 0.2053 0.0
H1575 H 0.86971 0.46282 0.2667 0.0
H1576 H 0.87027 0.53594 0.36999 0.0
H1577 H 0.85847 0.50512 0.33938 0.0
H1578 H 0.81547 0.52966 0.27524 0.0
C1579 C 0.84612 0.48067 0.20516 0.0
C1580 C 0.85751 0.47713 0.26867 0.0
C1581 C 0.8502 0.46813 0.18356 0.0
C1582 C 0.86434 0.54121 0.35221 0.0
C1583 C 0.85762 0.5236 0.33467 0.0
C1584 C 0.8274 0.5151 0.27368 0.0
C1585 C 0.84191 0.46846 0.22667 0.0
C1586 C 0.84115 0.48177 0.24997 0.0
C1587 C 0.85007 0.52985 0.31129 0.0
C1588 C 0.84503 0.51163 0.29169 0.0
H1589 H 0.84376 0.41179 0.2047 0.0
H1590 H 0.83736 0.43386 0.24251 0.0
H1591 H 0.81275 0.50415 0.23872 0.0
H1592 H 0.85457 0.5899 0.31853 0.0
H1593 H 0.84389 0.55959 0.28811 0.0
C1594 C 0.66959 0.6478 0.56782 0.0
C1595 C 0.6721 0.65429 0.59252 0.0
C1596 C 0.68897 0.65097 0.55235 0.0
C1597 C 0.75358 0.65171 0.55164 0.0
H1598 H 0.74638 0.67957 0.48855 0.0
C1599 C 0.83015 0.65222 0.48267 0.0
C1600 C 0.82307 0.64649 0.45865 0.0
C1601 C 0.81293 0.65736 0.49991 0.0
C1602 C 0.74864 0.67161 0.50604 0.0
H1603 H 0.69676 0.66932 0.62042 0.0
H1604 H 0.73091 0.67429 0.5933 0.0
H1605 H 0.7135 0.68072 0.51724 0.0
H1606 H 0.79284 0.64131 0.43356 0.0
H1607 H 0.76263 0.64958 0.46366 0.0
H1608 H 0.7881 0.64139 0.54015 0.0
C1609 C 0.71383 0.66698 0.58601 0.0
C1610 C 0.72988 0.67239 0.52245 0.0
C1611 C 0.69432 0.66416 0.60144 0.0
C1612 C 0.79866 0.64606 0.45197 0.0
C1613 C 0.78142 0.65093 0.4692 0.0
C1614 C 0.77223 0.65063 0.53512 0.0
C1615 C 0.71128 0.66037 0.56137 0.0
C1616 C 0.73206 0.66205 0.54518 0.0
C1617 C 0.78834 0.65653 0.49341 0.0
C1618 C 0.76976 0.66012 0.51193 0.0
H1619 H 0.65265 0.64027 0.56041 0.0
H1620 H 0.68669 0.64551 0.53343 0.0
H1621 H 0.75553 0.64344 0.56903 0.0
H1622 H 0.84899 0.65277 0.48806 0.0
H1623 H 0.81888 0.6619 0.51832 0.0
C1624 C 0.33807 0.55115 0.20531 0.0
C1625 C 0.35892 0.56173 0.19556 0.0
C1626 C 0.33952 0.53831 0.22654 0.0
C1627 C 0.38315 0.50804 0.2648 0.0
H1628 H 0.33179 0.50904 0.3115 0.0
C1629 C 0.38745 0.45601 0.35245 0.0
C1630 C 0.36771 0.43969 0.35449 0.0
C1631 C 0.38646 0.47451 0.33619 0.0
C1632 C 0.34628 0.50875 0.29863 0.0
H1633 H 0.39744 0.56788 0.20005 0.0
H1634 H 0.40008 0.54597 0.23745 0.0
H1635 H 0.33017 0.53404 0.27604 0.0
H1636 H 0.33087 0.43095 0.34261 0.0
H1637 H 0.32911 0.46343 0.31444 0.0
H1638 H 0.3992 0.48274 0.28742 0.0
C1639 C 0.38267 0.54692 0.22854 0.0
C1640 C 0.34529 0.52286 0.27825 0.0
C1641 C 0.38122 0.55947 0.20719 0.0
C1642 C 0.34644 0.44314 0.34124 0.0
C1643 C 0.34535 0.46181 0.32526 0.0
C1644 C 0.38427 0.4942 0.2853 0.0
C1645 C 0.36185 0.53615 0.23846 0.0
C1646 C 0.36352 0.52234 0.26089 0.0
C1647 C 0.36559 0.47718 0.32206 0.0
C1648 C 0.36567 0.49415 0.30217 0.0
H1649 H 0.32071 0.55279 0.19648 0.0
H1650 H 0.32321 0.52988 0.23342 0.0
H1651 H 0.3973 0.50688 0.25163 0.0
H1652 H 0.40407 0.45381 0.36245 0.0
H1653 H 0.40223 0.48629 0.33409 0.0
C1654 C 0.18468 0.63285 0.93493 0.0
C1655 C 0.18976 0.63386 0.91012 0.0
C1656 C 0.20334 0.63451 0.95216 0.0
C1657 C 0.2646 0.61993 0.96159 0.0
H1658 H 0.26304 0.66307 0.01742 0.0
C1659 C 0.33448 0.61996 0.04105 0.0
C1660 C 0.32504 0.62318 0.06431 0.0
C1661 C 0.32009 0.62306 0.02044 0.0
C1662 C 0.26364 0.65078 0.00204 0.0
H1663 H 0.21823 0.63757 0.88382 0.0
H1664 H 0.25096 0.63983 0.91414 0.0
H1665 H 0.23354 0.66586 0.9846 0.0
H1666 H 0.29294 0.63097 0.08429 0.0
H1667 H 0.26782 0.63551 0.04866 0.0
H1668 H 0.29384 0.60394 0.97955 0.0
C1669 C 0.23251 0.63803 0.9201 0.0
C1670 C 0.24687 0.65252 0.98324 0.0
C1671 C 0.21381 0.63685 0.90286 0.0
C1672 C 0.30086 0.62875 0.0666 0.0
C1673 C 0.28649 0.63156 0.04614 0.0
C1674 C 0.28121 0.61793 0.98061 0.0
C1675 C 0.22737 0.63678 0.94484 0.0
C1676 C 0.24692 0.63681 0.96314 0.0
C1677 C 0.29601 0.6292 0.02282 0.0
C1678 C 0.28048 0.63295 0.00132 0.0
H1679 H 0.16631 0.63063 0.94102 0.0
H1680 H 0.19903 0.63333 0.97119 0.0
H1681 H 0.26481 0.60756 0.94623 0.0
H1682 H 0.3531 0.61569 0.03879 0.0
H1683 H 0.32795 0.62115 0.0027 0.0
C1684 C 0.15956 0.5609 0.80351 0.0
C1685 C 0.14335 0.56181 0.82274 0.0
C1686 C 0.1612 0.54008 0.78955 0.0
C1687 C 0.14372 0.47563 0.78684 0.0
H1688 H 0.14256 0.48508 0.71745 0.0
C1689 C 0.11169 0.42286 0.6932 0.0
C1690 C 0.12306 0.40127 0.6952 0.0
C1691 C 0.11686 0.44144 0.70985 0.0
C1692 C 0.14287 0.48217 0.73679 0.0
H1693 H 0.11672 0.54138 0.84294 0.0
H1694 H 0.11911 0.50527 0.81815 0.0
H1695 H 0.14753 0.51929 0.74511 0.0
H1696 H 0.14834 0.38204 0.71666 0.0
H1697 H 0.15742 0.41479 0.74584 0.0
H1698 H 0.1379 0.43846 0.77831 0.0
C1699 C 0.13088 0.52049 0.81414 0.0
C1700 C 0.14604 0.50173 0.75264 0.0
C1701 C 0.12936 0.54126 0.82821 0.0
C1702 C 0.13928 0.39847 0.71463 0.0
C1703 C 0.14446 0.41716 0.73135 0.0
C1704 C 0.14049 0.456 0.77092 0.0
C1705 C 0.14653 0.51981 0.79442 0.0
C1706 C 0.14601 0.49873 0.77783 0.0
C1707 C 0.13355 0.43892 0.72885 0.0
C1708 C 0.13946 0.45919 0.74577 0.0
H1709 H 0.17083 0.57634 0.79904 0.0
H1710 H 0.17369 0.53996 0.7747 0.0
H1711 H 0.14394 0.47278 0.80618 0.0
H1712 H 0.09896 0.42559 0.67859 0.0
H1713 H 0.10776 0.45786 0.70782 0.0
C1714 C 0.31701 0.35247 0.44979 0.0
C1715 C 0.33391 0.37171 0.44867 0.0
C1716 C 0.30099 0.3511 0.46885 0.0
C1717 C 0.26683 0.38791 0.50638 0.0
H1718 H 0.25444 0.33146 0.54381 0.0
C1719 C 0.18868 0.37945 0.57378 0.0
C1720 C 0.17692 0.35698 0.57505 0.0
C1721 C 0.20952 0.38238 0.56025 0.0
C1722 C 0.25751 0.34725 0.53331 0.0
H1723 H 0.3479 0.4043 0.46671 0.0
H1724 H 0.31902 0.40226 0.49987 0.0
H1725 H 0.28951 0.33413 0.51786 0.0
H1726 H 0.17664 0.32016 0.56303 0.0
H1727 H 0.21239 0.32533 0.53828 0.0
H1728 H 0.23416 0.40053 0.52051 0.0
C1729 C 0.31858 0.38815 0.48612 0.0
C1730 C 0.2777 0.34884 0.51874 0.0
C1731 C 0.33504 0.38925 0.46729 0.0
C1732 C 0.1856 0.33763 0.56211 0.0
C1733 C 0.20619 0.34058 0.54829 0.0
C1734 C 0.24639 0.38618 0.52065 0.0
C1735 C 0.30132 0.36918 0.48682 0.0
C1736 C 0.28224 0.369 0.5049 0.0
C1737 C 0.21869 0.36288 0.54761 0.0
C1738 C 0.24126 0.36561 0.53389 0.0
H1739 H 0.31591 0.33868 0.43569 0.0
H1740 H 0.28764 0.33643 0.469 0.0
H1741 H 0.26993 0.40348 0.49553 0.0
H1742 H 0.18229 0.39448 0.58403 0.0
H1743 H 0.21882 0.39972 0.56031 0.0
loop_
_geom_bond_atom_site_label_1
_geom_bond_atom_site_label_2
_geom_bond_distance
_geom_bond_site_symmetry_2
_ccdc_geom_bond_type
Co0 O3 1.970 . S
Co0 N17 1.989 . S
Co0 O25 1.967 . S
Co0 O32 1.920 . S
Co1 O4 1.966 . S
Co1 N10 2.022 . S
Co1 N18 1.993 . S
Co1 O26 1.941 . S
C2 O3 1.258 . S
C2 O4 1.263 . S
O3 Co0 1.970 . S
O3 C2 1.258 . S
O4 Co1 1.966 . S
O4 C2 1.263 . S
C5 O6 1.235 . S
C5 O32 1.289 . S
O6 C5 1.235 . S
C7 C9 1.400 . S
C7 N10 1.351 . S
C7 C12 1.501 . S
C8 C9 1.387 . S
C8 N11 1.341 . S
C9 C7 1.400 . S
C9 C8 1.387 . S
N10 Co1 2.022 . S
N10 C7 1.351 . S
N10 N11 1.365 . S
N11 C8 1.341 . S
N11 N10 1.365 . S
N11 H31 0.862 . S
C12 C7 1.501 . S
C12 H13 0.961 . S
C12 H14 0.961 . S
C12 H15 0.960 . S
H13 C12 0.961 . S
H14 C12 0.961 . S
H15 C12 0.960 . S
C16 N17 1.342 . S
C16 C20 1.401 . S
C16 C21 1.499 . S
N17 Co0 1.989 . S
N17 C16 1.342 . S
N17 N18 1.388 . S
N18 Co1 1.993 . S
N18 N17 1.388 . S
N18 C19 1.346 . S
C19 N18 1.346 . S
C19 C20 1.396 . S
C19 C29 1.510 . S
C20 C16 1.401 . S
C20 C19 1.396 . S
C21 C16 1.499 . S
C21 H22 0.959 . S
C21 H23 0.960 . S
C21 H24 0.961 . S
H22 C21 0.959 . S
H23 C21 0.960 . S
H24 C21 0.961 . S
O25 Co0 1.967 . S
O25 C33 1.258 . S
O26 Co1 1.941 . S
O26 C33 1.266 . S
H27 C29 0.959 . S
H28 C29 0.961 . S
C29 C19 1.510 . S
C29 H27 0.959 . S
C29 H28 0.961 . S
C29 H30 0.960 . S
H30 C29 0.960 . S
H31 N11 0.862 . S
O32 Co0 1.920 . S
O32 C5 1.289 . S
C33 O25 1.258 . S
C33 O26 1.266 . S
Co34 O37 1.970 . S
Co34 N51 1.989 . S
Co34 O59 1.967 . S
Co34 O66 1.920 . S
Co35 O38 1.966 . S
Co35 N44 2.022 . S
Co35 N52 1.993 . S
Co35 O60 1.941 . S
C36 O37 1.258 . S
C36 O38 1.263 . S
O37 Co34 1.970 . S
O37 C36 1.258 . S
O38 Co35 1.966 . S
O38 C36 1.263 . S
C39 O40 1.235 . S
C39 O66 1.289 . S
O40 C39 1.235 . S
C41 C43 1.400 . S
C41 N44 1.351 . S
C41 C46 1.501 . S
C42 C43 1.387 . S
C42 N45 1.341 . S
C43 C41 1.400 . S
C43 C42 1.387 . S
N44 Co35 2.022 . S
N44 C41 1.351 . S
N44 N45 1.365 . S
N45 C42 1.341 . S
N45 N44 1.365 . S
N45 H65 0.862 . S
C46 C41 1.501 . S
C46 H47 0.961 . S
C46 H48 0.961 . S
C46 H49 0.960 . S
H47 C46 0.961 . S
H48 C46 0.961 . S
H49 C46 0.960 . S
C50 N51 1.342 . S
C50 C54 1.401 . S
C50 C55 1.499 . S
N51 Co34 1.989 . S
N51 C50 1.342 . S
N51 N52 1.388 . S
N52 Co35 1.993 . S
N52 N51 1.388 . S
N52 C53 1.346 . S
C53 N52 1.346 . S
C53 C54 1.396 . S
C53 C63 1.510 . S
C54 C50 1.401 . S
C54 C53 1.396 . S
C55 C50 1.499 . S
C55 H56 0.959 . S
C55 H57 0.960 . S
C55 H58 0.961 . S
H56 C55 0.959 . S
H57 C55 0.960 . S
H58 C55 0.961 . S
O59 Co34 1.967 . S
O59 C67 1.258 . S
O60 Co35 1.941 . S
O60 C67 1.266 . S
H61 C63 0.959 . S
H62 C63 0.961 . S
C63 C53 1.510 . S
C63 H61 0.959 . S
C63 H62 0.961 . S
C63 H64 0.960 . S
H64 C63 0.960 . S
H65 N45 0.862 . S
O66 Co34 1.920 . S
O66 C39 1.289 . S
C67 O59 1.258 . S
C67 O60 1.266 . S
Co68 O71 1.970 . S
Co68 N85 1.989 . S
Co68 O93 1.967 . S
Co68 O100 1.920 . S
Co69 O72 1.966 . S
Co69 N78 2.022 . S
Co69 N86 1.993 . S
Co69 O94 1.941 . S
C70 O71 1.258 . S
C70 O72 1.263 . S
O71 Co68 1.970 . S
O71 C70 1.258 . S
O72 Co69 1.966 . S
O72 C70 1.263 . S
C73 O74 1.235 . S
C73 O100 1.289 . S
O74 C73 1.235 . S
C75 C77 1.400 . S
C75 N78 1.351 . S
C75 C80 1.501 . S
C76 C77 1.387 . S
C76 N79 1.341 . S
C77 C75 1.400 . S
C77 C76 1.387 . S
N78 Co69 2.022 . S
N78 C75 1.351 . S
N78 N79 1.365 . S
N79 C76 1.341 . S
N79 N78 1.365 . S
N79 H99 0.862 . S
C80 C75 1.501 . S
C80 H81 0.961 . S
C80 H82 0.961 . S
C80 H83 0.960 . S
H81 C80 0.961 . S
H82 C80 0.961 . S
H83 C80 0.960 . S
C84 N85 1.342 . S
C84 C88 1.401 . S
C84 C89 1.499 . S
N85 Co68 1.989 . S
N85 C84 1.342 . S
N85 N86 1.388 . S
N86 Co69 1.993 . S
N86 N85 1.388 . S
N86 C87 1.346 . S
C87 N86 1.346 . S
C87 C88 1.396 . S
C87 C97 1.510 . S
C88 C84 1.401 . S
C88 C87 1.396 . S
C89 C84 1.499 . S
C89 H90 0.959 . S
C89 H91 0.960 . S
C89 H92 0.961 . S
H90 C89 0.959 . S
H91 C89 0.960 . S
H92 C89 0.961 . S
O93 Co68 1.967 . S
O93 C101 1.258 . S
O94 Co69 1.941 . S
O94 C101 1.266 . S
H95 C97 0.959 . S
H96 C97 0.961 . S
C97 C87 1.510 . S
C97 H95 0.959 . S
C97 H96 0.961 . S
C97 H98 0.960 . S
H98 C97 0.960 . S
H99 N79 0.862 . S
O100 Co68 1.920 . S
O100 C73 1.289 . S
C101 O93 1.258 . S
C101 O94 1.266 . S
Co102 O105 1.970 . S
Co102 N119 1.989 . S
Co102 O127 1.967 . S
Co102 O134 1.920 . S
Co103 O106 1.966 . S
Co103 N112 2.022 . S
Co103 N120 1.993 . S
Co103 O128 1.941 . S
C104 O105 1.258 . S
C104 O106 1.263 . S
O105 Co102 1.970 . S
O105 C104 1.258 . S
O106 Co103 1.966 . S
O106 C104 1.263 . S
C107 O108 1.235 . S
C107 O134 1.289 . S
O108 C107 1.235 . S
C109 C111 1.400 . S
C109 N112 1.351 . S
C109 C114 1.501 . S
C110 C111 1.387 . S
C110 N113 1.341 . S
C111 C109 1.400 . S
C111 C110 1.387 . S
N112 Co103 2.022 . S
N112 C109 1.351 . S
N112 N113 1.365 . S
N113 C110 1.341 . S
N113 N112 1.365 . S
N113 H133 0.862 . S
C114 C109 1.501 . S
C114 H115 0.961 . S
C114 H116 0.961 . S
C114 H117 0.960 . S
H115 C114 0.961 . S
H116 C114 0.961 . S
H117 C114 0.960 . S
C118 N119 1.342 . S
C118 C122 1.401 . S
C118 C123 1.499 . S
N119 Co102 1.989 . S
N119 C118 1.342 . S
N119 N120 1.388 . S
N120 Co103 1.993 . S
N120 N119 1.388 . S
N120 C121 1.346 . S
C121 N120 1.346 . S
C121 C122 1.396 . S
C121 C131 1.510 . S
C122 C118 1.401 . S
C122 C121 1.396 . S
C123 C118 1.499 . S
C123 H124 0.959 . S
C123 H125 0.960 . S
C123 H126 0.961 . S
H124 C123 0.959 . S
H125 C123 0.960 . S
H126 C123 0.961 . S
O127 Co102 1.967 . S
O127 C135 1.258 . S
O128 Co103 1.941 . S
O128 C135 1.266 . S
H129 C131 0.959 . S
H130 C131 0.961 . S
C131 C121 1.510 . S
C131 H129 0.959 . S
C131 H130 0.961 . S
C131 H132 0.960 . S
H132 C131 0.960 . S
H133 N113 0.862 . S
O134 Co102 1.920 . S
O134 C107 1.289 . S
C135 O127 1.258 . S
C135 O128 1.266 . S
Co136 O139 1.970 . S
Co136 N153 1.989 . S
Co136 O161 1.967 . S
Co136 O168 1.920 . S
Co137 O140 1.966 . S
Co137 N146 2.022 . S
Co137 N154 1.993 . S
Co137 O162 1.941 . S
C138 O139 1.258 . S
C138 O140 1.263 . S
O139 Co136 1.970 . S
O139 C138 1.258 . S
O140 Co137 1.966 . S
O140 C138 1.263 . S
C141 O142 1.235 . S
C141 O168 1.289 . S
O142 C141 1.235 . S
C143 C145 1.400 . S
C143 N146 1.351 . S
C143 C148 1.501 . S
C144 C145 1.387 . S
C144 N147 1.341 . S
C145 C143 1.400 . S
C145 C144 1.387 . S
N146 Co137 2.022 . S
N146 C143 1.351 . S
N146 N147 1.365 . S
N147 C144 1.341 . S
N147 N146 1.365 . S
N147 H167 0.862 . S
C148 C143 1.501 . S
C148 H149 0.961 . S
C148 H150 0.961 . S
C148 H151 0.960 . S
H149 C148 0.961 . S
H150 C148 0.961 . S
H151 C148 0.960 . S
C152 N153 1.342 . S
C152 C156 1.401 . S
C152 C157 1.499 . S
N153 Co136 1.989 . S
N153 C152 1.342 . S
N153 N154 1.388 . S
N154 Co137 1.993 . S
N154 N153 1.388 . S
N154 C155 1.346 . S
C155 N154 1.346 . S
C155 C156 1.396 . S
C155 C165 1.510 . S
C156 C152 1.401 . S
C156 C155 1.396 . S
C157 C152 1.499 . S
C157 H158 0.959 . S
C157 H159 0.960 . S
C157 H160 0.961 . S
H158 C157 0.959 . S
H159 C157 0.960 . S
H160 C157 0.961 . S
O161 Co136 1.967 . S
O161 C169 1.258 . S
O162 Co137 1.941 . S
O162 C169 1.266 . S
H163 C165 0.959 . S
H164 C165 0.961 . S
C165 C155 1.510 . S
C165 H163 0.959 . S
C165 H164 0.961 . S
C165 H166 0.960 . S
H166 C165 0.960 . S
H167 N147 0.862 . S
O168 Co136 1.920 . S
O168 C141 1.289 . S
C169 O161 1.258 . S
C169 O162 1.266 . S
Co170 O173 1.970 . S
Co170 N187 1.989 . S
Co170 O195 1.967 . S
Co170 O202 1.920 . S
Co171 O174 1.966 . S
Co171 N180 2.022 . S
Co171 N188 1.993 . S
Co171 O196 1.941 . S
C172 O173 1.258 . S
C172 O174 1.263 . S
O173 Co170 1.970 . S
O173 C172 1.258 . S
O174 Co171 1.966 . S
O174 C172 1.263 . S
C175 O176 1.235 . S
C175 O202 1.289 . S
O176 C175 1.235 . S
C177 C179 1.400 . S
C177 N180 1.351 . S
C177 C182 1.501 . S
C178 C179 1.387 . S
C178 N181 1.341 . S
C179 C177 1.400 . S
C179 C178 1.387 . S
N180 Co171 2.022 . S
N180 C177 1.351 . S
N180 N181 1.365 . S
N181 C178 1.341 . S
N181 N180 1.365 . S
N181 H201 0.862 . S
C182 C177 1.501 . S
C182 H183 0.961 . S
C182 H184 0.961 . S
C182 H185 0.960 . S
H183 C182 0.961 . S
H184 C182 0.961 . S
H185 C182 0.960 . S
C186 N187 1.342 . S
C186 C190 1.401 . S
C186 C191 1.499 . S
N187 Co170 1.989 . S
N187 C186 1.342 . S
N187 N188 1.388 . S
N188 Co171 1.993 . S
N188 N187 1.388 . S
N188 C189 1.346 . S
C189 N188 1.346 . S
C189 C190 1.396 . S
C189 C199 1.510 . S
C190 C186 1.401 . S
C190 C189 1.396 . S
C191 C186 1.499 . S
C191 H192 0.959 . S
C191 H193 0.960 . S
C191 H194 0.961 . S
H192 C191 0.959 . S
H193 C191 0.960 . S
H194 C191 0.961 . S
O195 Co170 1.967 . S
O195 C203 1.258 . S
O196 Co171 1.941 . S
O196 C203 1.266 . S
H197 C199 0.959 . S
H198 C199 0.961 . S
C199 C189 1.510 . S
C199 H197 0.959 . S
C199 H198 0.961 . S
C199 H200 0.960 . S
H200 C199 0.960 . S
H201 N181 0.862 . S
O202 Co170 1.920 . S
O202 C175 1.289 . S
C203 O195 1.258 . S
C203 O196 1.266 . S
Co204 O207 1.970 . S
Co204 N221 1.989 . S
Co204 O229 1.967 . S
Co204 O236 1.920 . S
Co205 O208 1.966 . S
Co205 N214 2.022 . S
Co205 N222 1.993 . S
Co205 O230 1.941 . S
C206 O207 1.258 . S
C206 O208 1.263 . S
O207 Co204 1.970 . S
O207 C206 1.258 . S
O208 Co205 1.966 . S
O208 C206 1.263 . S
C209 O210 1.235 . S
C209 O236 1.289 . S
O210 C209 1.235 . S
C211 C213 1.400 . S
C211 N214 1.351 . S
C211 C216 1.501 . S
C212 C213 1.387 . S
C212 N215 1.341 . S
C213 C211 1.400 . S
C213 C212 1.387 . S
N214 Co205 2.022 . S
N214 C211 1.351 . S
N214 N215 1.365 . S
N215 C212 1.341 . S
N215 N214 1.365 . S
N215 H235 0.862 . S
C216 C211 1.501 . S
C216 H217 0.961 . S
C216 H218 0.961 . S
C216 H219 0.960 . S
H217 C216 0.961 . S
H218 C216 0.961 . S
H219 C216 0.960 . S
C220 N221 1.342 . S
C220 C224 1.401 . S
C220 C225 1.499 . S
N221 Co204 1.989 . S
N221 C220 1.342 . S
N221 N222 1.388 . S
N222 Co205 1.993 . S
N222 N221 1.388 . S
N222 C223 1.346 . S
C223 N222 1.346 . S
C223 C224 1.396 . S
C223 C233 1.510 . S
C224 C220 1.401 . S
C224 C223 1.396 . S
C225 C220 1.499 . S
C225 H226 0.959 . S
C225 H227 0.960 . S
C225 H228 0.961 . S
H226 C225 0.959 . S
H227 C225 0.960 . S
H228 C225 0.961 . S
O229 Co204 1.967 . S
O229 C237 1.258 . S
O230 Co205 1.941 . S
O230 C237 1.266 . S
H231 C233 0.959 . S
H232 C233 0.961 . S
C233 C223 1.510 . S
C233 H231 0.959 . S
C233 H232 0.961 . S
C233 H234 0.960 . S
H234 C233 0.960 . S
H235 N215 0.862 . S
O236 Co204 1.920 . S
O236 C209 1.289 . S
C237 O229 1.258 . S
C237 O230 1.266 . S
Co238 O241 1.970 . S
Co238 N255 1.989 . S
Co238 O263 1.967 . S
Co238 O270 1.920 . S
Co239 O242 1.966 . S
Co239 N248 2.022 . S
Co239 N256 1.993 . S
Co239 O264 1.941 . S
C240 O241 1.258 . S
C240 O242 1.263 . S
O241 Co238 1.970 . S
O241 C240 1.258 . S
O242 Co239 1.966 . S
O242 C240 1.263 . S
C243 O244 1.235 . S
C243 O270 1.289 . S
O244 C243 1.235 . S
C245 C247 1.400 . S
C245 N248 1.351 . S
C245 C250 1.501 . S
C246 C247 1.387 . S
C246 N249 1.341 . S
C247 C245 1.400 . S
C247 C246 1.387 . S
N248 Co239 2.022 . S
N248 C245 1.351 . S
N248 N249 1.365 . S
N249 C246 1.341 . S
N249 N248 1.365 . S
N249 H269 0.862 . S
C250 C245 1.501 . S
C250 H251 0.961 . S
C250 H252 0.961 . S
C250 H253 0.960 . S
H251 C250 0.961 . S
H252 C250 0.961 . S
H253 C250 0.960 . S
C254 N255 1.342 . S
C254 C258 1.401 . S
C254 C259 1.499 . S
N255 Co238 1.989 . S
N255 C254 1.342 . S
N255 N256 1.388 . S
N256 Co239 1.993 . S
N256 N255 1.388 . S
N256 C257 1.346 . S
C257 N256 1.346 . S
C257 C258 1.396 . S
C257 C267 1.510 . S
C258 C254 1.401 . S
C258 C257 1.396 . S
C259 C254 1.499 . S
C259 H260 0.959 . S
C259 H261 0.960 . S
C259 H262 0.961 . S
H260 C259 0.959 . S
H261 C259 0.960 . S
H262 C259 0.961 . S
O263 Co238 1.967 . S
O263 C271 1.258 . S
O264 Co239 1.941 . S
O264 C271 1.266 . S
H265 C267 0.959 . S
H266 C267 0.961 . S
C267 C257 1.510 . S
C267 H265 0.959 . S
C267 H266 0.961 . S
C267 H268 0.960 . S
H268 C267 0.960 . S
H269 N249 0.862 . S
O270 Co238 1.920 . S
O270 C243 1.289 . S
C271 O263 1.258 . S
C271 O264 1.266 . S
Co272 O275 1.970 . S
Co272 N289 1.989 . S
Co272 O297 1.967 . S
Co272 O304 1.920 . S
Co273 O276 1.966 . S
Co273 N282 2.022 . S
Co273 N290 1.993 . S
Co273 O298 1.941 . S
C274 O275 1.258 . S
C274 O276 1.263 . S
O275 Co272 1.970 . S
O275 C274 1.258 . S
O276 Co273 1.966 . S
O276 C274 1.263 . S
C277 O278 1.235 . S
C277 O304 1.289 . S
O278 C277 1.235 . S
C279 C281 1.400 . S
C279 N282 1.351 . S
C279 C284 1.501 . S
C280 C281 1.387 . S
C280 N283 1.341 . S
C281 C279 1.400 . S
C281 C280 1.387 . S
N282 Co273 2.022 . S
N282 C279 1.351 . S
N282 N283 1.365 . S
N283 C280 1.341 . S
N283 N282 1.365 . S
N283 H303 0.862 . S
C284 C279 1.501 . S
C284 H285 0.961 . S
C284 H286 0.961 . S
C284 H287 0.960 . S
H285 C284 0.961 . S
H286 C284 0.961 . S
H287 C284 0.960 . S
C288 N289 1.342 . S
C288 C292 1.401 . S
C288 C293 1.499 . S
N289 Co272 1.989 . S
N289 C288 1.342 . S
N289 N290 1.388 . S
N290 Co273 1.993 . S
N290 N289 1.388 . S
N290 C291 1.346 . S
C291 N290 1.346 . S
C291 C292 1.396 . S
C291 C301 1.510 . S
C292 C288 1.401 . S
C292 C291 1.396 . S
C293 C288 1.499 . S
C293 H294 0.959 . S
C293 H295 0.960 . S
C293 H296 0.961 . S
H294 C293 0.959 . S
H295 C293 0.960 . S
H296 C293 0.961 . S
O297 Co272 1.967 . S
O297 C305 1.258 . S
O298 Co273 1.941 . S
O298 C305 1.266 . S
H299 C301 0.959 . S
H300 C301 0.961 . S
C301 C291 1.510 . S
C301 H299 0.959 . S
C301 H300 0.961 . S
C301 H302 0.960 . S
H302 C301 0.960 . S
H303 N283 0.862 . S
O304 Co272 1.920 . S
O304 C277 1.289 . S
C305 O297 1.258 . S
C305 O298 1.266 . S
Co306 O309 1.970 . S
Co306 N323 1.989 . S
Co306 O331 1.967 . S
Co306 O338 1.920 . S
Co307 O310 1.966 . S
Co307 N316 2.022 . S
Co307 N324 1.993 . S
Co307 O332 1.941 . S
C308 O309 1.258 . S
C308 O310 1.263 . S
O309 Co306 1.970 . S
O309 C308 1.258 . S
O310 Co307 1.966 . S
O310 C308 1.263 . S
C311 O312 1.235 . S
C311 O338 1.289 . S
O312 C311 1.235 . S
C313 C315 1.400 . S
C313 N316 1.351 . S
C313 C318 1.501 . S
C314 C315 1.387 . S
C314 N317 1.341 . S
C315 C313 1.400 . S
C315 C314 1.387 . S
N316 Co307 2.022 . S
N316 C313 1.351 . S
N316 N317 1.365 . S
N317 C314 1.341 . S
N317 N316 1.365 . S
N317 H337 0.862 . S
C318 C313 1.501 . S
C318 H319 0.961 . S
C318 H320 0.961 . S
C318 H321 0.960 . S
H319 C318 0.961 . S
H320 C318 0.961 . S
H321 C318 0.960 . S
C322 N323 1.342 . S
C322 C326 1.401 . S
C322 C327 1.499 . S
N323 Co306 1.989 . S
N323 C322 1.342 . S
N323 N324 1.388 . S
N324 Co307 1.993 . S
N324 N323 1.388 . S
N324 C325 1.346 . S
C325 N324 1.346 . S
C325 C326 1.396 . S
C325 C335 1.510 . S
C326 C322 1.401 . S
C326 C325 1.396 . S
C327 C322 1.499 . S
C327 H328 0.959 . S
C327 H329 0.960 . S
C327 H330 0.961 . S
H328 C327 0.959 . S
H329 C327 0.960 . S
H330 C327 0.961 . S
O331 Co306 1.967 . S
O331 C339 1.258 . S
O332 Co307 1.941 . S
O332 C339 1.266 . S
H333 C335 0.959 . S
H334 C335 0.961 . S
C335 C325 1.510 . S
C335 H333 0.959 . S
C335 H334 0.961 . S
C335 H336 0.960 . S
H336 C335 0.960 . S
H337 N317 0.862 . S
O338 Co306 1.920 . S
O338 C311 1.289 . S
C339 O331 1.258 . S
C339 O332 1.266 . S
Co340 O343 1.970 . S
Co340 N357 1.989 . S
Co340 O365 1.967 . S
Co340 O372 1.920 . S
Co341 O344 1.966 . S
Co341 N350 2.022 . S
Co341 N358 1.993 . S
Co341 O366 1.941 . S
C342 O343 1.258 . S
C342 O344 1.263 . S
O343 Co340 1.970 . S
O343 C342 1.258 . S
O344 Co341 1.966 . S
O344 C342 1.263 . S
C345 O346 1.235 . S
C345 O372 1.289 . S
O346 C345 1.235 . S
C347 C349 1.400 . S
C347 N350 1.351 . S
C347 C352 1.501 . S
C348 C349 1.387 . S
C348 N351 1.341 . S
C349 C347 1.400 . S
C349 C348 1.387 . S
N350 Co341 2.022 . S
N350 C347 1.351 . S
N350 N351 1.365 . S
N351 C348 1.341 . S
N351 N350 1.365 . S
N351 H371 0.862 . S
C352 C347 1.501 . S
C352 H353 0.961 . S
C352 H354 0.961 . S
C352 H355 0.960 . S
H353 C352 0.961 . S
H354 C352 0.961 . S
H355 C352 0.960 . S
C356 N357 1.342 . S
C356 C360 1.401 . S
C356 C361 1.499 . S
N357 Co340 1.989 . S
N357 C356 1.342 . S
N357 N358 1.388 . S
N358 Co341 1.993 . S
N358 N357 1.388 . S
N358 C359 1.346 . S
C359 N358 1.346 . S
C359 C360 1.396 . S
C359 C369 1.510 . S
C360 C356 1.401 . S
C360 C359 1.396 . S
C361 C356 1.499 . S
C361 H362 0.959 . S
C361 H363 0.960 . S
C361 H364 0.961 . S
H362 C361 0.959 . S
H363 C361 0.960 . S
H364 C361 0.961 . S
O365 Co340 1.967 . S
O365 C373 1.258 . S
O366 Co341 1.941 . S
O366 C373 1.266 . S
H367 C369 0.959 . S
H368 C369 0.961 . S
C369 C359 1.510 . S
C369 H367 0.959 . S
C369 H368 0.961 . S
C369 H370 0.960 . S
H370 C369 0.960 . S
H371 N351 0.862 . S
O372 Co340 1.920 . S
O372 C345 1.289 . S
C373 O365 1.258 . S
C373 O366 1.266 . S
Co374 O377 1.970 . S
Co374 N391 1.989 . S
Co374 O399 1.967 . S
Co374 O406 1.920 . S
Co375 O378 1.966 . S
Co375 N384 2.022 . S
Co375 N392 1.993 . S
Co375 O400 1.941 . S
C376 O377 1.258 . S
C376 O378 1.263 . S
O377 Co374 1.970 . S
O377 C376 1.258 . S
O378 Co375 1.966 . S
O378 C376 1.263 . S
C379 O380 1.235 . S
C379 O406 1.289 . S
O380 C379 1.235 . S
C381 C383 1.400 . S
C381 N384 1.351 . S
C381 C386 1.501 . S
C382 C383 1.387 . S
C382 N385 1.341 . S
C383 C381 1.400 . S
C383 C382 1.387 . S
N384 Co375 2.022 . S
N384 C381 1.351 . S
N384 N385 1.365 . S
N385 C382 1.341 . S
N385 N384 1.365 . S
N385 H405 0.862 . S
C386 C381 1.501 . S
C386 H387 0.961 . S
C386 H388 0.961 . S
C386 H389 0.960 . S
H387 C386 0.961 . S
H388 C386 0.961 . S
H389 C386 0.960 . S
C390 N391 1.342 . S
C390 C394 1.401 . S
C390 C395 1.499 . S
N391 Co374 1.989 . S
N391 C390 1.342 . S
N391 N392 1.388 . S
N392 Co375 1.993 . S
N392 N391 1.388 . S
N392 C393 1.346 . S
C393 N392 1.346 . S
C393 C394 1.396 . S
C393 C403 1.510 . S
C394 C390 1.401 . S
C394 C393 1.396 . S
C395 C390 1.499 . S
C395 H396 0.959 . S
C395 H397 0.960 . S
C395 H398 0.961 . S
H396 C395 0.959 . S
H397 C395 0.960 . S
H398 C395 0.961 . S
O399 Co374 1.967 . S
O399 C407 1.258 . S
O400 Co375 1.941 . S
O400 C407 1.266 . S
H401 C403 0.959 . S
H402 C403 0.961 . S
C403 C393 1.510 . S
C403 H401 0.959 . S
C403 H402 0.961 . S
C403 H404 0.960 . S
H404 C403 0.960 . S
H405 N385 0.862 . S
O406 Co374 1.920 . S
O406 C379 1.289 . S
C407 O399 1.258 . S
C407 O400 1.266 . S
Co408 O411 1.970 . S
Co408 N425 1.989 . S
Co408 O433 1.967 . S
Co408 O440 1.920 . S
Co409 O412 1.966 . S
Co409 N418 2.022 . S
Co409 N426 1.993 . S
Co409 O434 1.941 . S
C410 O411 1.258 . S
C410 O412 1.263 . S
O411 Co408 1.970 . S
O411 C410 1.258 . S
O412 Co409 1.966 . S
O412 C410 1.263 . S
C413 O414 1.235 . S
C413 O440 1.289 . S
O414 C413 1.235 . S
C415 C417 1.400 . S
C415 N418 1.351 . S
C415 C420 1.501 . S
C416 C417 1.387 . S
C416 N419 1.341 . S
C417 C415 1.400 . S
C417 C416 1.387 . S
N418 Co409 2.022 . S
N418 C415 1.351 . S
N418 N419 1.365 . S
N419 C416 1.341 . S
N419 N418 1.365 . S
N419 H439 0.862 . S
C420 C415 1.501 . S
C420 H421 0.961 . S
C420 H422 0.961 . S
C420 H423 0.960 . S
H421 C420 0.961 . S
H422 C420 0.961 . S
H423 C420 0.960 . S
C424 N425 1.342 . S
C424 C428 1.401 . S
C424 C429 1.499 . S
N425 Co408 1.989 . S
N425 C424 1.342 . S
N425 N426 1.388 . S
N426 Co409 1.993 . S
N426 N425 1.388 . S
N426 C427 1.346 . S
C427 N426 1.346 . S
C427 C428 1.396 . S
C427 C437 1.510 . S
C428 C424 1.401 . S
C428 C427 1.396 . S
C429 C424 1.499 . S
C429 H430 0.959 . S
C429 H431 0.960 . S
C429 H432 0.961 . S
H430 C429 0.959 . S
H431 C429 0.960 . S
H432 C429 0.961 . S
O433 Co408 1.967 . S
O433 C441 1.258 . S
O434 Co409 1.941 . S
O434 C441 1.266 . S
H435 C437 0.959 . S
H436 C437 0.961 . S
C437 C427 1.510 . S
C437 H435 0.959 . S
C437 H436 0.961 . S
C437 H438 0.960 . S
H438 C437 0.960 . S
H439 N419 0.862 . S
O440 Co408 1.920 . S
O440 C413 1.289 . S
C441 O433 1.258 . S
C441 O434 1.266 . S
Co442 O445 1.970 . S
Co442 N459 1.989 . S
Co442 O467 1.967 . S
Co442 O474 1.920 . S
Co443 O446 1.966 . S
Co443 N452 2.022 . S
Co443 N460 1.993 . S
Co443 O468 1.941 . S
C444 O445 1.258 . S
C444 O446 1.263 . S
O445 Co442 1.970 . S
O445 C444 1.258 . S
O446 Co443 1.966 . S
O446 C444 1.263 . S
C447 O448 1.235 . S
C447 O474 1.289 . S
O448 C447 1.235 . S
C449 C451 1.400 . S
C449 N452 1.351 . S
C449 C454 1.501 . S
C450 C451 1.387 . S
C450 N453 1.341 . S
C451 C449 1.400 . S
C451 C450 1.387 . S
N452 Co443 2.022 . S
N452 C449 1.351 . S
N452 N453 1.365 . S
N453 C450 1.341 . S
N453 N452 1.365 . S
N453 H473 0.862 . S
C454 C449 1.501 . S
C454 H455 0.961 . S
C454 H456 0.961 . S
C454 H457 0.960 . S
H455 C454 0.961 . S
H456 C454 0.961 . S
H457 C454 0.960 . S
C458 N459 1.342 . S
C458 C462 1.401 . S
C458 C463 1.499 . S
N459 Co442 1.989 . S
N459 C458 1.342 . S
N459 N460 1.388 . S
N460 Co443 1.993 . S
N460 N459 1.388 . S
N460 C461 1.346 . S
C461 N460 1.346 . S
C461 C462 1.396 . S
C461 C471 1.510 . S
C462 C458 1.401 . S
C462 C461 1.396 . S
C463 C458 1.499 . S
C463 H464 0.959 . S
C463 H465 0.960 . S
C463 H466 0.961 . S
H464 C463 0.959 . S
H465 C463 0.960 . S
H466 C463 0.961 . S
O467 Co442 1.967 . S
O467 C475 1.258 . S
O468 Co443 1.941 . S
O468 C475 1.266 . S
H469 C471 0.959 . S
H470 C471 0.961 . S
C471 C461 1.510 . S
C471 H469 0.959 . S
C471 H470 0.961 . S
C471 H472 0.960 . S
H472 C471 0.960 . S
H473 N453 0.862 . S
O474 Co442 1.920 . S
O474 C447 1.289 . S
C475 O467 1.258 . S
C475 O468 1.266 . S
Co476 O479 1.970 . S
Co476 N493 1.989 . S
Co476 O501 1.967 . S
Co476 O508 1.920 . S
Co477 O480 1.966 . S
Co477 N486 2.022 . S
Co477 N494 1.993 . S
Co477 O502 1.941 . S
C478 O479 1.258 . S
C478 O480 1.263 . S
O479 Co476 1.970 . S
O479 C478 1.258 . S
O480 Co477 1.966 . S
O480 C478 1.263 . S
C481 O482 1.235 . S
C481 O508 1.289 . S
O482 C481 1.235 . S
C483 C485 1.400 . S
C483 N486 1.351 . S
C483 C488 1.501 . S
C484 C485 1.387 . S
C484 N487 1.341 . S
C485 C483 1.400 . S
C485 C484 1.387 . S
N486 Co477 2.022 . S
N486 C483 1.351 . S
N486 N487 1.365 . S
N487 C484 1.341 . S
N487 N486 1.365 . S
N487 H507 0.862 . S
C488 C483 1.501 . S
C488 H489 0.961 . S
C488 H490 0.961 . S
C488 H491 0.960 . S
H489 C488 0.961 . S
H490 C488 0.961 . S
H491 C488 0.960 . S
C492 N493 1.342 . S
C492 C496 1.401 . S
C492 C497 1.499 . S
N493 Co476 1.989 . S
N493 C492 1.342 . S
N493 N494 1.388 . S
N494 Co477 1.993 . S
N494 N493 1.388 . S
N494 C495 1.346 . S
C495 N494 1.346 . S
C495 C496 1.396 . S
C495 C505 1.510 . S
C496 C492 1.401 . S
C496 C495 1.396 . S
C497 C492 1.499 . S
C497 H498 0.959 . S
C497 H499 0.960 . S
C497 H500 0.961 . S
H498 C497 0.959 . S
H499 C497 0.960 . S
H500 C497 0.961 . S
O501 Co476 1.967 . S
O501 C509 1.258 . S
O502 Co477 1.941 . S
O502 C509 1.266 . S
H503 C505 0.959 . S
H504 C505 0.961 . S
C505 C495 1.510 . S
C505 H503 0.959 . S
C505 H504 0.961 . S
C505 H506 0.960 . S
H506 C505 0.960 . S
H507 N487 0.862 . S
O508 Co476 1.920 . S
O508 C481 1.289 . S
C509 O501 1.258 . S
C509 O502 1.266 . S
Co510 O513 1.970 . S
Co510 N527 1.989 . S
Co510 O535 1.967 . S
Co510 O542 1.920 . S
Co511 O514 1.966 . S
Co511 N520 2.022 . S
Co511 N528 1.993 . S
Co511 O536 1.941 . S
C512 O513 1.258 . S
C512 O514 1.263 . S
O513 Co510 1.970 . S
O513 C512 1.258 . S
O514 Co511 1.966 . S
O514 C512 1.263 . S
C515 O516 1.235 . S
C515 O542 1.289 . S
O516 C515 1.235 . S
C517 C519 1.400 . S
C517 N520 1.351 . S
C517 C522 1.501 . S
C518 C519 1.387 . S
C518 N521 1.341 . S
C519 C517 1.400 . S
C519 C518 1.387 . S
N520 Co511 2.022 . S
N520 C517 1.351 . S
N520 N521 1.365 . S
N521 C518 1.341 . S
N521 N520 1.365 . S
N521 H541 0.862 . S
C522 C517 1.501 . S
C522 H523 0.961 . S
C522 H524 0.961 . S
C522 H525 0.960 . S
H523 C522 0.961 . S
H524 C522 0.961 . S
H525 C522 0.960 . S
C526 N527 1.342 . S
C526 C530 1.401 . S
C526 C531 1.499 . S
N527 Co510 1.989 . S
N527 C526 1.342 . S
N527 N528 1.388 . S
N528 Co511 1.993 . S
N528 N527 1.388 . S
N528 C529 1.346 . S
C529 N528 1.346 . S
C529 C530 1.396 . S
C529 C539 1.510 . S
C530 C526 1.401 . S
C530 C529 1.396 . S
C531 C526 1.499 . S
C531 H532 0.959 . S
C531 H533 0.960 . S
C531 H534 0.961 . S
H532 C531 0.959 . S
H533 C531 0.960 . S
H534 C531 0.961 . S
O535 Co510 1.967 . S
O535 C543 1.258 . S
O536 Co511 1.941 . S
O536 C543 1.266 . S
H537 C539 0.959 . S
H538 C539 0.961 . S
C539 C529 1.510 . S
C539 H537 0.959 . S
C539 H538 0.961 . S
C539 H540 0.960 . S
H540 C539 0.960 . S
H541 N521 0.862 . S
O542 Co510 1.920 . S
O542 C515 1.289 . S
C543 O535 1.258 . S
C543 O536 1.266 . S
C544 C545 1.349 . S
C544 C546 1.327 . S
C544 H569 0.950 . S
C545 C544 1.349 . S
C545 C561 1.349 . S
C546 C544 1.327 . S
C546 C565 1.429 . S
C546 H570 0.950 . S
C547 C564 1.574 . S
C547 C566 1.368 . S
C547 H571 0.949 . S
H548 C552 0.949 . S
C549 C550 1.349 . S
C549 C551 1.327 . S
C549 H572 0.950 . S
C550 C549 1.349 . S
C550 C562 1.349 . S
C551 C549 1.327 . S
C551 C567 1.429 . S
C551 H573 0.950 . S
C552 H548 0.949 . S
C552 C560 1.574 . S
C552 C568 1.368 . S
H553 C561 0.950 . S
H554 C559 0.950 . S
H555 C560 0.949 . S
H556 C562 0.950 . S
H557 C563 0.950 . S
H558 C564 0.949 . S
C559 H554 0.950 . S
C559 C561 1.327 . S
C559 C565 1.429 . S
C560 C552 1.574 . S
C560 H555 0.949 . S
C560 C566 1.368 . S
C561 C545 1.349 . S
C561 H553 0.950 . S
C561 C559 1.327 . S
C562 C550 1.349 . S
C562 H556 0.950 . S
C562 C563 1.327 . S
C563 H557 0.950 . S
C563 C562 1.327 . S
C563 C567 1.429 . S
C564 C547 1.574 . S
C564 H558 0.949 . S
C564 C568 1.368 . S
C565 C546 1.429 . S
C565 C559 1.429 . S
C565 C566 1.523 . S
C566 C547 1.368 . S
C566 C560 1.368 . S
C566 C565 1.523 . S
C567 C551 1.429 . S
C567 C563 1.429 . S
C567 C568 1.523 . S
C568 C552 1.368 . S
C568 C564 1.368 . S
C568 C567 1.523 . S
H569 C544 0.950 . S
H570 C546 0.950 . S
H571 C547 0.949 . S
H572 C549 0.950 . S
H573 C551 0.950 . S
C574 C575 1.349 . S
C574 C576 1.327 . S
C574 H599 0.950 . S
C575 C574 1.349 . S
C575 C591 1.349 . S
C576 C574 1.327 . S
C576 C595 1.429 . S
C576 H600 0.950 1_545 S
C577 C594 1.574 1_645 S
C577 C596 1.377 . S
C577 H601 0.949 . S
H578 C582 0.949 . S
C579 C580 1.349 . S
C579 C581 1.327 . S
C579 H602 0.950 . S
C580 C579 1.349 . S
C580 C592 1.349 . S
C581 C579 1.327 . S
C581 C597 1.429 . S
C581 H603 0.950 . S
C582 H578 0.949 . S
C582 C590 1.574 1_455 S
C582 C598 1.368 . S
H583 C591 0.950 . S
H584 C589 0.950 . S
H585 C590 0.949 . S
H586 C592 0.950 . S
H587 C593 0.950 . S
H588 C594 0.949 1_545 S
C589 H584 0.950 . S
C589 C591 1.327 . S
C589 C595 1.429 . S
C590 C582 1.574 1_655 S
C590 H585 0.949 . S
C590 C596 1.353 1_565 S
C591 C575 1.349 . S
C591 H583 0.950 . S
C591 C589 1.327 . S
C592 C580 1.349 . S
C592 H586 0.950 . S
C592 C593 1.327 . S
C593 H587 0.950 . S
C593 C592 1.327 . S
C593 C597 1.429 . S
C594 C577 1.574 1_465 S
C594 H588 0.949 1_565 S
C594 C598 1.368 . S
C595 C576 1.429 . S
C595 C589 1.429 . S
C595 C596 1.532 . S
C596 C577 1.377 . S
C596 C590 1.353 1_545 S
C596 C595 1.532 . S
C597 C581 1.429 . S
C597 C593 1.429 . S
C597 C598 1.523 . S
C598 C582 1.368 . S
C598 C594 1.368 . S
C598 C597 1.523 . S
H599 C574 0.950 . S
H600 C576 0.950 1_565 S
H601 C577 0.949 . S
H602 C579 0.950 . S
H603 C581 0.950 . S
C604 C605 1.349 . S
C604 C606 1.327 . S
C604 H629 0.950 . S
C605 C604 1.349 . S
C605 C621 1.349 . S
C606 C604 1.327 . S
C606 C625 1.429 . S
C606 H630 0.950 . S
C607 C624 1.574 . S
C607 C626 1.368 . S
C607 H631 0.949 . S
H608 C612 0.949 . S
C609 C610 1.349 . S
C609 C611 1.327 . S
C609 H632 0.950 . S
C610 C609 1.349 . S
C610 C622 1.349 . S
C611 C609 1.327 . S
C611 C627 1.429 . S
C611 H633 0.950 . S
C612 H608 0.949 . S
C612 C620 1.574 . S
C612 C628 1.368 . S
H613 C621 0.950 . S
H614 C619 0.950 . S
H615 C620 0.949 . S
H616 C622 0.950 . S
H617 C623 0.950 . S
H618 C624 0.949 . S
C619 H614 0.950 . S
C619 C621 1.327 . S
C619 C625 1.429 . S
C620 C612 1.574 . S
C620 H615 0.949 . S
C620 C626 1.368 . S
C621 C605 1.349 . S
C621 H613 0.950 . S
C621 C619 1.327 . S
C622 C610 1.349 . S
C622 H616 0.950 . S
C622 C623 1.327 . S
C623 H617 0.950 . S
C623 C622 1.327 . S
C623 C627 1.429 . S
C624 C607 1.574 . S
C624 H618 0.949 . S
C624 C628 1.368 . S
C625 C606 1.429 . S
C625 C619 1.429 . S
C625 C626 1.523 . S
C626 C607 1.368 . S
C626 C620 1.368 . S
C626 C625 1.523 . S
C627 C611 1.429 . S
C627 C623 1.429 . S
C627 C628 1.523 . S
C628 C612 1.368 . S
C628 C624 1.368 . S
C628 C627 1.523 . S
H629 C604 0.950 . S
H630 C606 0.950 . S
H631 C607 0.949 . S
H632 C609 0.950 . S
H633 C611 0.950 . S
C634 C635 1.349 . S
C634 C636 1.327 . S
C634 H659 0.950 . S
C635 C634 1.349 . S
C635 C651 1.349 . S
C636 C634 1.327 . S
C636 C655 1.429 . S
C636 H660 0.950 . S
C637 C654 1.574 . S
C637 C656 1.370 1_565 S
C637 H661 0.949 1_565 S
H638 C642 0.949 1_556 S
C639 C640 1.349 . S
C639 C641 1.327 . S
C639 H662 0.950 . S
C640 C639 1.349 . S
C640 C652 1.349 . S
C641 C639 1.327 . S
C641 C657 1.429 . S
C641 H663 0.950 . S
C642 H638 0.949 1_554 S
C642 C650 1.576 1_554 S
C642 C658 1.368 . S
H643 C651 0.950 . S
H644 C649 0.950 1_554 S
H645 C650 0.948 1_545 S
H646 C652 0.950 . S
H647 C653 0.950 . S
H648 C654 0.949 . S
C649 H644 0.950 1_556 S
C649 C651 1.327 . S
C649 C655 1.429 . S
C650 C642 1.576 1_556 S
C650 H645 0.948 1_565 S
C650 C656 1.367 1_566 S
C651 C635 1.349 . S
C651 H643 0.950 . S
C651 C649 1.327 . S
C652 C640 1.349 . S
C652 H646 0.950 . S
C652 C653 1.327 . S
C653 H647 0.950 . S
C653 C652 1.327 . S
C653 C657 1.429 . S
C654 C637 1.574 . S
C654 H648 0.949 . S
C654 C658 1.368 . S
C655 C636 1.429 . S
C655 C649 1.429 . S
C655 C656 1.522 1_556 S
C656 C637 1.370 1_545 S
C656 C650 1.367 1_544 S
C656 C655 1.522 1_554 S
C657 C641 1.429 . S
C657 C653 1.429 . S
C657 C658 1.523 . S
C658 C642 1.368 . S
C658 C654 1.368 . S
C658 C657 1.523 . S
H659 C634 0.950 . S
H660 C636 0.950 . S
H661 C637 0.949 1_545 S
H662 C639 0.950 . S
H663 C641 0.950 . S
C664 C665 1.349 . S
C664 C666 1.327 . S
C664 H689 0.950 . S
C665 C664 1.349 . S
C665 C681 1.349 . S
C666 C664 1.327 . S
C666 C685 1.429 . S
C666 H690 0.950 . S
C667 C684 1.574 . S
C667 C686 1.368 . S
C667 H691 0.949 . S
H668 C672 0.949 . S
C669 C670 1.349 . S
C669 C671 1.327 . S
C669 H692 0.950 . S
C670 C669 1.349 . S
C670 C682 1.349 . S
C671 C669 1.327 . S
C671 C687 1.429 . S
C671 H693 0.950 . S
C672 H668 0.949 . S
C672 C680 1.574 . S
C672 C688 1.368 . S
H673 C681 0.950 . S
H674 C679 0.950 . S
H675 C680 0.949 . S
H676 C682 0.950 . S
H677 C683 0.950 . S
H678 C684 0.949 . S
C679 H674 0.950 . S
C679 C681 1.327 . S
C679 C685 1.429 . S
C680 C672 1.574 . S
C680 H675 0.949 . S
C680 C686 1.368 . S
C681 C665 1.349 . S
C681 H673 0.950 . S
C681 C679 1.327 . S
C682 C670 1.349 . S
C682 H676 0.950 . S
C682 C683 1.327 . S
C683 H677 0.950 . S
C683 C682 1.327 . S
C683 C687 1.429 . S
C684 C667 1.574 . S
C684 H678 0.949 . S
C684 C688 1.368 . S
C685 C666 1.429 . S
C685 C679 1.429 . S
C685 C686 1.523 . S
C686 C667 1.368 . S
C686 C680 1.368 . S
C686 C685 1.523 . S
C687 C671 1.429 . S
C687 C683 1.429 . S
C687 C688 1.523 . S
C688 C672 1.368 . S
C688 C684 1.368 . S
C688 C687 1.523 . S
H689 C664 0.950 . S
H690 C666 0.950 . S
H691 C667 0.949 . S
H692 C669 0.950 . S
H693 C671 0.950 . S
C694 C695 1.349 . S
C694 C696 1.327 . S
C694 H719 0.950 . S
C695 C694 1.349 . S
C695 C711 1.349 . S
C696 C694 1.327 . S
C696 C715 1.429 . S
C696 H720 0.950 . S
C697 C714 1.574 . S
C697 C716 1.368 . S
C697 H721 0.949 1_545 S
H698 C702 0.949 . S
C699 C700 1.349 . S
C699 C701 1.327 . S
C699 H722 0.950 . S
C700 C699 1.349 . S
C700 C712 1.349 . S
C701 C699 1.327 . S
C701 C717 1.429 . S
C701 H723 0.950 . S
C702 H698 0.949 . S
C702 C710 1.574 . S
C702 C718 1.368 . S
H703 C711 0.950 . S
H704 C709 0.950 . S
H705 C710 0.949 . S
H706 C712 0.950 . S
H707 C713 0.950 . S
H708 C714 0.949 . S
C709 H704 0.950 . S
C709 C711 1.327 . S
C709 C715 1.429 . S
C710 C702 1.574 . S
C710 H705 0.949 . S
C710 C716 1.368 . S
C711 C695 1.349 . S
C711 H703 0.950 . S
C711 C709 1.327 . S
C712 C700 1.349 . S
C712 H706 0.950 . S
C712 C713 1.327 . S
C713 H707 0.950 . S
C713 C712 1.327 . S
C713 C717 1.429 . S
C714 C697 1.574 . S
C714 H708 0.949 . S
C714 C718 1.368 . S
C715 C696 1.429 . S
C715 C709 1.429 . S
C715 C716 1.523 1_565 S
C716 C697 1.368 . S
C716 C710 1.368 . S
C716 C715 1.523 1_545 S
C717 C701 1.429 . S
C717 C713 1.429 . S
C717 C718 1.523 . S
C718 C702 1.368 . S
C718 C714 1.368 . S
C718 C717 1.523 . S
H719 C694 0.950 . S
H720 C696 0.950 . S
H721 C697 0.949 1_565 S
H722 C699 0.950 . S
H723 C701 0.950 . S
C724 C725 1.349 . S
C724 C726 1.327 . S
C724 H749 0.950 . S
C725 C724 1.349 . S
C725 C741 1.349 . S
C726 C724 1.327 . S
C726 C745 1.429 . S
C726 H750 0.950 . S
C727 C744 1.574 . S
C727 C746 1.368 . S
C727 H751 0.949 . S
H728 C732 0.949 . S
C729 C730 1.349 . S
C729 C731 1.327 . S
C729 H752 0.950 . S
C730 C729 1.349 . S
C730 C742 1.349 . S
C731 C729 1.327 . S
C731 C747 1.429 . S
C731 H753 0.950 . S
C732 H728 0.949 . S
C732 C740 1.574 . S
C732 C748 1.368 . S
H733 C741 0.950 . S
H734 C739 0.950 . S
H735 C740 0.949 . S
H736 C742 0.950 . S
H737 C743 0.950 . S
H738 C744 0.949 . S
C739 H734 0.950 . S
C739 C741 1.327 . S
C739 C745 1.429 . S
C740 C732 1.574 . S
C740 H735 0.949 . S
C740 C746 1.368 . S
C741 C725 1.349 . S
C741 H733 0.950 . S
C741 C739 1.327 . S
C742 C730 1.349 . S
C742 H736 0.950 . S
C742 C743 1.327 . S
C743 H737 0.950 . S
C743 C742 1.327 . S
C743 C747 1.429 . S
C744 C727 1.574 . S
C744 H738 0.949 . S
C744 C748 1.368 . S
C745 C726 1.429 . S
C745 C739 1.429 . S
C745 C746 1.523 . S
C746 C727 1.368 . S
C746 C740 1.368 . S
C746 C745 1.523 . S
C747 C731 1.429 . S
C747 C743 1.429 . S
C747 C748 1.523 . S
C748 C732 1.368 . S
C748 C744 1.368 . S
C748 C747 1.523 . S
H749 C724 0.950 . S
H750 C726 0.950 . S
H751 C727 0.949 . S
H752 C729 0.950 . S
H753 C731 0.950 . S
C754 C755 1.349 . S
C754 C756 1.327 . S
C754 H779 0.950 . S
C755 C754 1.349 . S
C755 C771 1.349 . S
C756 C754 1.327 . S
C756 C775 1.429 . S
C756 H780 0.950 . S
C757 C774 1.574 1_554 S
C757 C776 1.368 . S
C757 H781 0.949 . S
H758 C762 0.949 1_565 S
C759 C760 1.349 . S
C759 C761 1.327 . S
C759 H782 0.950 . S
C760 C759 1.349 . S
C760 C772 1.349 . S
C761 C759 1.327 . S
C761 C777 1.429 . S
C761 H783 0.950 1_655 S
C762 H758 0.949 1_545 S
C762 C770 1.574 1_655 S
C762 C778 1.381 1_554 S
H763 C771 0.950 . S
H764 C769 0.950 . S
H765 C770 0.949 1_655 S
H766 C772 0.950 . S
H767 C773 0.950 . S
H768 C774 0.949 . S
C769 H764 0.950 . S
C769 C771 1.327 . S
C769 C775 1.429 . S
C770 C762 1.574 1_455 S
C770 H765 0.949 1_455 S
C770 C776 1.368 . S
C771 C755 1.349 . S
C771 H763 0.950 . S
C771 C769 1.327 . S
C772 C760 1.349 . S
C772 H766 0.950 . S
C772 C773 1.327 . S
C773 H767 0.950 . S
C773 C772 1.327 . S
C773 C777 1.429 . S
C774 C757 1.574 1_556 S
C774 H768 0.949 . S
C774 C778 1.356 1_455 S
C775 C756 1.429 . S
C775 C769 1.429 . S
C775 C776 1.523 . S
C776 C757 1.368 . S
C776 C770 1.368 . S
C776 C775 1.523 . S
C777 C761 1.429 . S
C777 C773 1.429 . S
C777 C778 1.523 1_565 S
C778 C762 1.381 1_556 S
C778 C774 1.356 1_655 S
C778 C777 1.523 1_545 S
H779 C754 0.950 . S
H780 C756 0.950 . S
H781 C757 0.949 . S
H782 C759 0.950 . S
H783 C761 0.950 1_455 S
C784 C785 1.349 . S
C784 C786 1.327 . S
C784 H809 0.950 . S
C785 C784 1.349 . S
C785 C801 1.349 . S
C786 C784 1.327 . S
C786 C805 1.429 . S
C786 H810 0.950 . S
C787 C804 1.574 . S
C787 C806 1.368 . S
C787 H811 0.949 . S
H788 C792 0.949 . S
C789 C790 1.349 . S
C789 C791 1.327 . S
C789 H812 0.950 . S
C790 C789 1.349 . S
C790 C802 1.349 . S
C791 C789 1.327 . S
C791 C807 1.429 . S
C791 H813 0.950 . S
C792 H788 0.949 . S
C792 C800 1.574 . S
C792 C808 1.368 . S
H793 C801 0.950 . S
H794 C799 0.950 . S
H795 C800 0.949 . S
H796 C802 0.950 . S
H797 C803 0.950 . S
H798 C804 0.949 . S
C799 H794 0.950 . S
C799 C801 1.327 . S
C799 C805 1.429 . S
C800 C792 1.574 . S
C800 H795 0.949 . S
C800 C806 1.368 . S
C801 C785 1.349 . S
C801 H793 0.950 . S
C801 C799 1.327 . S
C802 C790 1.349 . S
C802 H796 0.950 . S
C802 C803 1.327 . S
C803 H797 0.950 . S
C803 C802 1.327 . S
C803 C807 1.429 . S
C804 C787 1.574 . S
C804 H798 0.949 . S
C804 C808 1.368 . S
C805 C786 1.429 . S
C805 C799 1.429 . S
C805 C806 1.523 . S
C806 C787 1.368 . S
C806 C800 1.368 . S
C806 C805 1.523 . S
C807 C791 1.429 . S
C807 C803 1.429 . S
C807 C808 1.523 . S
C808 C792 1.368 . S
C808 C804 1.368 . S
C808 C807 1.523 . S
H809 C784 0.950 . S
H810 C786 0.950 . S
H811 C787 0.949 . S
H812 C789 0.950 . S
H813 C791 0.950 . S
C814 C815 1.349 . S
C814 C816 1.327 . S
C814 H839 0.950 . S
C815 C814 1.349 . S
C815 C831 1.349 . S
C816 C814 1.327 . S
C816 C835 1.429 . S
C816 H840 0.950 . S
C817 C834 1.574 1_556 S
C817 C836 1.368 1_655 S
C817 H841 0.949 . S
H818 C822 0.949 . S
C819 C820 1.349 . S
C819 C821 1.327 . S
C819 H842 0.950 . S
C820 C819 1.349 . S
C820 C832 1.349 . S
C821 C819 1.327 . S
C821 C837 1.429 . S
C821 H843 0.950 . S
C822 H818 0.949 . S
C822 C830 1.574 1_554 S
C822 C838 1.368 1_455 S
H823 C831 0.950 . S
H824 C829 0.950 . S
H825 C830 0.949 . S
H826 C832 0.950 . S
H827 C833 0.950 . S
H828 C834 0.949 . S
C829 H824 0.950 . S
C829 C831 1.327 . S
C829 C835 1.429 . S
C830 C822 1.574 1_556 S
C830 H825 0.949 . S
C830 C836 1.368 . S
C831 C815 1.349 . S
C831 H823 0.950 . S
C831 C829 1.327 . S
C832 C820 1.349 . S
C832 H826 0.950 . S
C832 C833 1.327 . S
C833 H827 0.950 . S
C833 C832 1.327 . S
C833 C837 1.429 . S
C834 C817 1.574 1_554 S
C834 H828 0.949 . S
C834 C838 1.368 . S
C835 C816 1.429 . S
C835 C829 1.429 . S
C835 C836 1.523 . S
C836 C817 1.368 1_455 S
C836 C830 1.368 . S
C836 C835 1.523 . S
C837 C821 1.429 . S
C837 C833 1.429 . S
C837 C838 1.523 . S
C838 C822 1.368 1_655 S
C838 C834 1.368 . S
C838 C837 1.523 . S
H839 C814 0.950 . S
H840 C816 0.950 . S
H841 C817 0.949 . S
H842 C819 0.950 . S
H843 C821 0.950 . S
C844 C845 1.349 . S
C844 C846 1.327 . S
C844 H869 0.950 . S
C845 C844 1.349 . S
C845 C861 1.349 . S
C846 C844 1.327 . S
C846 C865 1.429 . S
C846 H870 0.950 . S
C847 C864 1.574 . S
C847 C866 1.368 . S
C847 H871 0.949 . S
H848 C852 0.949 . S
C849 C850 1.349 . S
C849 C851 1.327 . S
C849 H872 0.950 . S
C850 C849 1.349 . S
C850 C862 1.349 . S
C851 C849 1.327 . S
C851 C867 1.429 . S
C851 H873 0.950 . S
C852 H848 0.949 . S
C852 C860 1.574 . S
C852 C868 1.368 . S
H853 C861 0.950 . S
H854 C859 0.950 . S
H855 C860 0.949 . S
H856 C862 0.950 . S
H857 C863 0.950 . S
H858 C864 0.949 . S
C859 H854 0.950 . S
C859 C861 1.327 . S
C859 C865 1.429 . S
C860 C852 1.574 . S
C860 H855 0.949 . S
C860 C866 1.368 . S
C861 C845 1.349 . S
C861 H853 0.950 . S
C861 C859 1.327 . S
C862 C850 1.349 . S
C862 H856 0.950 . S
C862 C863 1.327 . S
C863 H857 0.950 . S
C863 C862 1.327 . S
C863 C867 1.429 . S
C864 C847 1.574 . S
C864 H858 0.949 . S
C864 C868 1.368 . S
C865 C846 1.429 . S
C865 C859 1.429 . S
C865 C866 1.523 . S
C866 C847 1.368 . S
C866 C860 1.368 . S
C866 C865 1.523 . S
C867 C851 1.429 . S
C867 C863 1.429 . S
C867 C868 1.523 . S
C868 C852 1.368 . S
C868 C864 1.368 . S
C868 C867 1.523 . S
H869 C844 0.950 . S
H870 C846 0.950 . S
H871 C847 0.949 . S
H872 C849 0.950 . S
H873 C851 0.950 . S
C874 C875 1.349 . S
C874 C876 1.327 . S
C874 H899 0.950 . S
C875 C874 1.349 . S
C875 C891 1.349 . S
C876 C874 1.327 . S
C876 C895 1.429 . S
C876 H900 0.950 . S
C877 C894 1.574 . S
C877 C896 1.368 . S
C877 H901 0.949 . S
H878 C882 0.949 . S
C879 C880 1.349 . S
C879 C881 1.327 . S
C879 H902 0.950 . S
C880 C879 1.349 . S
C880 C892 1.349 . S
C881 C879 1.327 . S
C881 C897 1.429 . S
C881 H903 0.950 . S
C882 H878 0.949 . S
C882 C890 1.574 1_455 S
C882 C898 1.368 . S
H883 C891 0.950 . S
H884 C889 0.950 . S
H885 C890 0.949 . S
H886 C892 0.950 . S
H887 C893 0.950 . S
H888 C894 0.949 . S
C889 H884 0.950 . S
C889 C891 1.327 . S
C889 C895 1.429 . S
C890 C882 1.574 1_655 S
C890 H885 0.949 . S
C890 C896 1.368 . S
C891 C875 1.349 . S
C891 H883 0.950 . S
C891 C889 1.327 . S
C892 C880 1.349 . S
C892 H886 0.950 . S
C892 C893 1.327 . S
C893 H887 0.950 . S
C893 C892 1.327 . S
C893 C897 1.429 . S
C894 C877 1.574 . S
C894 H888 0.949 . S
C894 C898 1.368 1_655 S
C895 C876 1.429 . S
C895 C889 1.429 . S
C895 C896 1.523 . S
C896 C877 1.368 . S
C896 C890 1.368 . S
C896 C895 1.523 . S
C897 C881 1.429 . S
C897 C893 1.429 . S
C897 C898 1.523 . S
C898 C882 1.368 . S
C898 C894 1.368 1_455 S
C898 C897 1.523 . S
H899 C874 0.950 . S
H900 C876 0.950 . S
H901 C877 0.949 . S
H902 C879 0.950 . S
H903 C881 0.950 . S
C904 C905 1.349 . S
C904 C906 1.327 . S
C904 H929 0.950 . S
C905 C904 1.349 . S
C905 C921 1.349 . S
C906 C904 1.327 . S
C906 C925 1.429 . S
C906 H930 0.950 . S
C907 C924 1.574 . S
C907 C926 1.368 . S
C907 H931 0.949 . S
H908 C912 0.949 1_554 S
C909 C910 1.349 . S
C909 C911 1.327 . S
C909 H932 0.950 . S
C910 C909 1.349 . S
C910 C922 1.349 . S
C911 C909 1.327 . S
C911 C927 1.429 . S
C911 H933 0.950 . S
C912 H908 0.949 1_556 S
C912 C920 1.574 . S
C912 C928 1.368 . S
H913 C921 0.950 . S
H914 C919 0.950 . S
H915 C920 0.949 . S
H916 C922 0.950 . S
H917 C923 0.950 . S
H918 C924 0.949 . S
C919 H914 0.950 . S
C919 C921 1.327 . S
C919 C925 1.429 . S
C920 C912 1.574 . S
C920 H915 0.949 . S
C920 C926 1.368 . S
C921 C905 1.349 . S
C921 H913 0.950 . S
C921 C919 1.327 . S
C922 C910 1.349 . S
C922 H916 0.950 . S
C922 C923 1.327 . S
C923 H917 0.950 . S
C923 C922 1.327 . S
C923 C927 1.429 . S
C924 C907 1.574 . S
C924 H918 0.949 . S
C924 C928 1.368 . S
C925 C906 1.429 . S
C925 C919 1.429 . S
C925 C926 1.523 . S
C926 C907 1.368 . S
C926 C920 1.368 . S
C926 C925 1.523 . S
C927 C911 1.429 . S
C927 C923 1.429 . S
C927 C928 1.523 1_554 S
C928 C912 1.368 . S
C928 C924 1.368 . S
C928 C927 1.523 1_556 S
H929 C904 0.950 . S
H930 C906 0.950 . S
H931 C907 0.949 . S
H932 C909 0.950 . S
H933 C911 0.950 . S
C934 C935 1.349 . S
C934 C936 1.327 . S
C934 H959 0.950 . S
C935 C934 1.349 . S
C935 C951 1.349 . S
C936 C934 1.327 . S
C936 C955 1.429 . S
C936 H960 0.950 . S
C937 C954 1.574 . S
C937 C956 1.368 . S
C937 H961 0.949 . S
H938 C942 0.949 . S
C939 C940 1.349 . S
C939 C941 1.327 . S
C939 H962 0.950 . S
C940 C939 1.349 . S
C940 C952 1.349 . S
C941 C939 1.327 . S
C941 C957 1.429 . S
C941 H963 0.950 . S
C942 H938 0.949 . S
C942 C950 1.574 . S
C942 C958 1.368 . S
H943 C951 0.950 . S
H944 C949 0.950 . S
H945 C950 0.949 . S
H946 C952 0.950 . S
H947 C953 0.950 . S
H948 C954 0.949 . S
C949 H944 0.950 . S
C949 C951 1.327 . S
C949 C955 1.429 . S
C950 C942 1.574 . S
C950 H945 0.949 . S
C950 C956 1.368 . S
C951 C935 1.349 . S
C951 H943 0.950 . S
C951 C949 1.327 . S
C952 C940 1.349 . S
C952 H946 0.950 . S
C952 C953 1.327 . S
C953 H947 0.950 . S
C953 C952 1.327 . S
C953 C957 1.429 . S
C954 C937 1.574 . S
C954 H948 0.949 . S
C954 C958 1.368 . S
C955 C936 1.429 . S
C955 C949 1.429 . S
C955 C956 1.523 . S
C956 C937 1.368 . S
C956 C950 1.368 . S
C956 C955 1.523 . S
C957 C941 1.429 . S
C957 C953 1.429 . S
C957 C958 1.523 . S
C958 C942 1.368 . S
C958 C954 1.368 . S
C958 C957 1.523 . S
H959 C934 0.950 . S
H960 C936 0.950 . S
H961 C937 0.949 . S
H962 C939 0.950 . S
H963 C941 0.950 . S
C964 C965 1.349 . S
C964 C966 1.327 . S
C964 H989 0.950 . S
C965 C964 1.349 . S
C965 C981 1.349 . S
C966 C964 1.327 . S
C966 C985 1.429 . S
C966 H990 0.950 . S
C967 C984 1.574 . S
C967 C986 1.368 . S
C967 H991 0.949 . S
H968 C972 0.949 . S
C969 C970 1.349 . S
C969 C971 1.327 . S
C969 H992 0.950 . S
C970 C969 1.349 . S
C970 C982 1.349 . S
C971 C969 1.327 . S
C971 C987 1.429 . S
C971 H993 0.950 . S
C972 H968 0.949 . S
C972 C980 1.574 . S
C972 C988 1.368 . S
H973 C981 0.950 . S
H974 C979 0.950 . S
H975 C980 0.949 . S
H976 C982 0.950 . S
H977 C983 0.950 . S
H978 C984 0.949 . S
C979 H974 0.950 . S
C979 C981 1.327 . S
C979 C985 1.429 . S
C980 C972 1.574 . S
C980 H975 0.949 . S
C980 C986 1.368 . S
C981 C965 1.349 . S
C981 H973 0.950 . S
C981 C979 1.327 . S
C982 C970 1.349 . S
C982 H976 0.950 . S
C982 C983 1.327 . S
C983 H977 0.950 . S
C983 C982 1.327 . S
C983 C987 1.429 . S
C984 C967 1.574 . S
C984 H978 0.949 . S
C984 C988 1.368 . S
C985 C966 1.429 . S
C985 C979 1.429 . S
C985 C986 1.523 . S
C986 C967 1.368 . S
C986 C980 1.368 . S
C986 C985 1.523 . S
C987 C971 1.429 . S
C987 C983 1.429 . S
C987 C988 1.523 . S
C988 C972 1.368 . S
C988 C984 1.368 . S
C988 C987 1.523 . S
H989 C964 0.950 . S
H990 C966 0.950 . S
H991 C967 0.949 . S
H992 C969 0.950 . S
H993 C971 0.950 . S
C994 C995 1.349 . S
C994 C996 1.327 . S
C994 H1019 0.950 . S
C995 C994 1.349 . S
C995 C1011 1.349 . S
C996 C994 1.327 . S
C996 C1015 1.429 . S
C996 H1020 0.950 . S
C997 C1014 1.574 . S
C997 C1016 1.368 . S
C997 H1021 0.949 . S
H998 C1002 0.949 . S
C999 C1000 1.349 . S
C999 C1001 1.327 . S
C999 H1022 0.950 . S
C1000 C999 1.349 . S
C1000 C1012 1.349 . S
C1001 C999 1.327 . S
C1001 C1017 1.429 . S
C1001 H1023 0.950 . S
C1002 H998 0.949 . S
C1002 C1010 1.574 . S
C1002 C1018 1.368 . S
H1003 C1011 0.950 . S
H1004 C1009 0.950 . S
H1005 C1010 0.949 . S
H1006 C1012 0.950 . S
H1007 C1013 0.950 . S
H1008 C1014 0.949 . S
C1009 H1004 0.950 . S
C1009 C1011 1.327 . S
C1009 C1015 1.429 . S
C1010 C1002 1.574 . S
C1010 H1005 0.949 . S
C1010 C1016 1.368 . S
C1011 C995 1.349 . S
C1011 H1003 0.950 . S
C1011 C1009 1.327 . S
C1012 C1000 1.349 . S
C1012 H1006 0.950 . S
C1012 C1013 1.327 . S
C1013 H1007 0.950 . S
C1013 C1012 1.327 . S
C1013 C1017 1.429 . S
C1014 C997 1.574 . S
C1014 H1008 0.949 . S
C1014 C1018 1.368 . S
C1015 C996 1.429 . S
C1015 C1009 1.429 . S
C1015 C1016 1.523 . S
C1016 C997 1.368 . S
C1016 C1010 1.368 . S
C1016 C1015 1.523 . S
C1017 C1001 1.429 . S
C1017 C1013 1.429 . S
C1017 C1018 1.523 . S
C1018 C1002 1.368 . S
C1018 C1014 1.368 . S
C1018 C1017 1.523 . S
H1019 C994 0.950 . S
H1020 C996 0.950 . S
H1021 C997 0.949 . S
H1022 C999 0.950 . S
H1023 C1001 0.950 . S
C1024 C1025 1.349 . S
C1024 C1026 1.327 . S
C1024 H1049 0.950 . S
C1025 C1024 1.349 . S
C1025 C1041 1.349 . S
C1026 C1024 1.327 . S
C1026 C1045 1.429 . S
C1026 H1050 0.950 . S
C1027 C1044 1.573 . S
C1027 C1046 1.368 . S
C1027 H1051 0.949 . S
H1028 C1032 0.949 . S
C1029 C1030 1.349 . S
C1029 C1031 1.327 . S
C1029 H1052 0.950 . S
C1030 C1029 1.349 . S
C1030 C1042 1.349 . S
C1031 C1029 1.327 . S
C1031 C1047 1.429 . S
C1031 H1053 0.950 . S
C1032 H1028 0.949 . S
C1032 C1040 1.574 1_565 S
C1032 C1048 1.368 . S
H1033 C1041 0.950 . S
H1034 C1039 0.950 . S
H1035 C1040 0.949 . S
H1036 C1042 0.950 . S
H1037 C1043 0.950 . S
H1038 C1044 0.949 1_565 S
C1039 H1034 0.950 . S
C1039 C1041 1.327 . S
C1039 C1045 1.429 . S
C1040 C1032 1.574 1_545 S
C1040 H1035 0.949 . S
C1040 C1046 1.368 . S
C1041 C1025 1.349 . S
C1041 H1033 0.950 . S
C1041 C1039 1.327 . S
C1042 C1030 1.349 . S
C1042 H1036 0.950 . S
C1042 C1043 1.327 . S
C1043 H1037 0.950 . S
C1043 C1042 1.327 . S
C1043 C1047 1.429 . S
C1044 C1027 1.573 . S
C1044 H1038 0.949 1_545 S
C1044 C1048 1.369 1_545 S
C1045 C1026 1.429 . S
C1045 C1039 1.429 . S
C1045 C1046 1.523 . S
C1046 C1027 1.368 . S
C1046 C1040 1.368 . S
C1046 C1045 1.523 . S
C1047 C1031 1.429 . S
C1047 C1043 1.429 . S
C1047 C1048 1.523 . S
C1048 C1032 1.368 . S
C1048 C1044 1.369 1_565 S
C1048 C1047 1.523 . S
H1049 C1024 0.950 . S
H1050 C1026 0.950 . S
H1051 C1027 0.949 . S
H1052 C1029 0.950 . S
H1053 C1031 0.950 . S
C1054 C1055 1.349 . S
C1054 C1056 1.327 . S
C1054 H1079 0.950 . S
C1055 C1054 1.349 . S
C1055 C1071 1.349 . S
C1056 C1054 1.327 . S
C1056 C1075 1.429 . S
C1056 H1080 0.950 . S
C1057 C1074 1.574 . S
C1057 C1076 1.368 . S
C1057 H1081 0.949 . S
H1058 C1062 0.949 . S
C1059 C1060 1.349 . S
C1059 C1061 1.327 . S
C1059 H1082 0.950 . S
C1060 C1059 1.349 . S
C1060 C1072 1.349 . S
C1061 C1059 1.327 . S
C1061 C1077 1.429 . S
C1061 H1083 0.950 . S
C1062 H1058 0.949 . S
C1062 C1070 1.574 . S
C1062 C1078 1.368 . S
H1063 C1071 0.950 . S
H1064 C1069 0.950 . S
H1065 C1070 0.949 . S
H1066 C1072 0.950 . S
H1067 C1073 0.950 . S
H1068 C1074 0.949 . S
C1069 H1064 0.950 . S
C1069 C1071 1.327 . S
C1069 C1075 1.429 . S
C1070 C1062 1.574 . S
C1070 H1065 0.949 . S
C1070 C1076 1.368 . S
C1071 C1055 1.349 . S
C1071 H1063 0.950 . S
C1071 C1069 1.327 . S
C1072 C1060 1.349 . S
C1072 H1066 0.950 . S
C1072 C1073 1.327 . S
C1073 H1067 0.950 . S
C1073 C1072 1.327 . S
C1073 C1077 1.429 . S
C1074 C1057 1.574 . S
C1074 H1068 0.949 . S
C1074 C1078 1.368 . S
C1075 C1056 1.429 . S
C1075 C1069 1.429 . S
C1075 C1076 1.523 . S
C1076 C1057 1.368 . S
C1076 C1070 1.368 . S
C1076 C1075 1.523 . S
C1077 C1061 1.429 . S
C1077 C1073 1.429 . S
C1077 C1078 1.523 . S
C1078 C1062 1.368 . S
C1078 C1074 1.368 . S
C1078 C1077 1.523 . S
H1079 C1054 0.950 . S
H1080 C1056 0.950 . S
H1081 C1057 0.949 . S
H1082 C1059 0.950 . S
H1083 C1061 0.950 . S
C1084 C1085 1.349 . S
C1084 C1086 1.327 . S
C1084 H1109 0.950 . S
C1085 C1084 1.349 . S
C1085 C1101 1.349 . S
C1086 C1084 1.327 . S
C1086 C1105 1.429 . S
C1086 H1110 0.950 1_565 S
C1087 C1104 1.574 1_565 S
C1087 C1106 1.368 1_565 S
C1087 H1111 0.949 . S
H1088 C1092 0.949 . S
C1089 C1090 1.349 . S
C1089 C1091 1.327 . S
C1089 H1112 0.950 . S
C1090 C1089 1.349 . S
C1090 C1102 1.349 . S
C1091 C1089 1.327 . S
C1091 C1107 1.429 . S
C1091 H1113 0.950 . S
C1092 H1088 0.949 . S
C1092 C1100 1.574 . S
C1092 C1108 1.368 . S
H1093 C1101 0.950 . S
H1094 C1099 0.950 . S
H1095 C1100 0.949 . S
H1096 C1102 0.950 . S
H1097 C1103 0.950 . S
H1098 C1104 0.949 . S
C1099 H1094 0.950 . S
C1099 C1101 1.327 . S
C1099 C1105 1.429 . S
C1100 C1092 1.574 . S
C1100 H1095 0.949 . S
C1100 C1106 1.368 . S
C1101 C1085 1.349 . S
C1101 H1093 0.950 . S
C1101 C1099 1.327 . S
C1102 C1090 1.349 . S
C1102 H1096 0.950 . S
C1102 C1103 1.327 . S
C1103 H1097 0.950 . S
C1103 C1102 1.327 . S
C1103 C1107 1.429 . S
C1104 C1087 1.574 1_545 S
C1104 H1098 0.949 . S
C1104 C1108 1.368 . S
C1105 C1086 1.429 . S
C1105 C1099 1.429 . S
C1105 C1106 1.523 1_565 S
C1106 C1087 1.368 1_545 S
C1106 C1100 1.368 . S
C1106 C1105 1.523 1_545 S
C1107 C1091 1.429 . S
C1107 C1103 1.429 . S
C1107 C1108 1.523 . S
C1108 C1092 1.368 . S
C1108 C1104 1.368 . S
C1108 C1107 1.523 . S
H1109 C1084 0.950 . S
H1110 C1086 0.950 1_545 S
H1111 C1087 0.949 . S
H1112 C1089 0.950 . S
H1113 C1091 0.950 . S
C1114 C1115 1.349 . S
C1114 C1116 1.327 . S
C1114 H1139 0.950 . S
C1115 C1114 1.349 . S
C1115 C1131 1.349 . S
C1116 C1114 1.327 . S
C1116 C1135 1.429 . S
C1116 H1140 0.950 . S
C1117 C1134 1.574 1_556 S
C1117 C1136 1.368 . S
C1117 H1141 0.949 . S
H1118 C1122 0.949 . S
C1119 C1120 1.349 . S
C1119 C1121 1.327 . S
C1119 H1142 0.950 . S
C1120 C1119 1.349 . S
C1120 C1132 1.349 . S
C1121 C1119 1.327 . S
C1121 C1137 1.429 . S
C1121 H1143 0.950 . S
C1122 H1118 0.949 . S
C1122 C1130 1.574 . S
C1122 C1138 1.368 . S
H1123 C1131 0.950 . S
H1124 C1129 0.950 . S
H1125 C1130 0.949 . S
H1126 C1132 0.950 . S
H1127 C1133 0.950 . S
H1128 C1134 0.949 . S
C1129 H1124 0.950 . S
C1129 C1131 1.327 . S
C1129 C1135 1.429 . S
C1130 C1122 1.574 . S
C1130 H1125 0.949 . S
C1130 C1136 1.368 1_554 S
C1131 C1115 1.349 . S
C1131 H1123 0.950 . S
C1131 C1129 1.327 . S
C1132 C1120 1.349 . S
C1132 H1126 0.950 . S
C1132 C1133 1.327 . S
C1133 H1127 0.950 . S
C1133 C1132 1.327 . S
C1133 C1137 1.429 . S
C1134 C1117 1.574 1_554 S
C1134 H1128 0.949 . S
C1134 C1138 1.368 . S
C1135 C1116 1.429 . S
C1135 C1129 1.429 . S
C1135 C1136 1.523 . S
C1136 C1117 1.368 . S
C1136 C1130 1.368 1_556 S
C1136 C1135 1.523 . S
C1137 C1121 1.429 . S
C1137 C1133 1.429 . S
C1137 C1138 1.523 . S
C1138 C1122 1.368 . S
C1138 C1134 1.368 . S
C1138 C1137 1.523 . S
H1139 C1114 0.950 . S
H1140 C1116 0.950 . S
H1141 C1117 0.949 . S
H1142 C1119 0.950 . S
H1143 C1121 0.950 . S
C1144 C1145 1.349 . S
C1144 C1146 1.327 . S
C1144 H1169 0.950 . S
C1145 C1144 1.349 . S
C1145 C1161 1.349 . S
C1146 C1144 1.327 . S
C1146 C1165 1.429 . S
C1146 H1170 0.950 . S
C1147 C1164 1.574 1_455 S
C1147 C1166 1.368 . S
C1147 H1171 0.949 . S
H1148 C1152 0.949 . S
C1149 C1150 1.349 . S
C1149 C1151 1.327 . S
C1149 H1172 0.950 . S
C1150 C1149 1.349 . S
C1150 C1162 1.349 . S
C1151 C1149 1.327 . S
C1151 C1167 1.429 . S
C1151 H1173 0.950 . S
C1152 H1148 0.949 . S
C1152 C1160 1.574 . S
C1152 C1168 1.368 1_455 S
H1153 C1161 0.950 . S
H1154 C1159 0.950 . S
H1155 C1160 0.949 . S
H1156 C1162 0.950 . S
H1157 C1163 0.950 . S
H1158 C1164 0.949 . S
C1159 H1154 0.950 . S
C1159 C1161 1.327 . S
C1159 C1165 1.429 . S
C1160 C1152 1.574 . S
C1160 H1155 0.949 . S
C1160 C1166 1.368 . S
C1161 C1145 1.349 . S
C1161 H1153 0.950 . S
C1161 C1159 1.327 . S
C1162 C1150 1.349 . S
C1162 H1156 0.950 . S
C1162 C1163 1.327 . S
C1163 H1157 0.950 . S
C1163 C1162 1.327 . S
C1163 C1167 1.429 . S
C1164 C1147 1.574 1_655 S
C1164 H1158 0.949 . S
C1164 C1168 1.368 . S
C1165 C1146 1.429 . S
C1165 C1159 1.429 . S
C1165 C1166 1.523 . S
C1166 C1147 1.368 . S
C1166 C1160 1.368 . S
C1166 C1165 1.523 . S
C1167 C1151 1.429 . S
C1167 C1163 1.429 . S
C1167 C1168 1.523 . S
C1168 C1152 1.368 1_655 S
C1168 C1164 1.368 . S
C1168 C1167 1.523 . S
H1169 C1144 0.950 . S
H1170 C1146 0.950 . S
H1171 C1147 0.949 . S
H1172 C1149 0.950 . S
H1173 C1151 0.950 . S
C1174 C1175 1.349 . S
C1174 C1176 1.327 . S
C1174 H1199 0.950 . S
C1175 C1174 1.349 . S
C1175 C1191 1.349 . S
C1176 C1174 1.327 . S
C1176 C1195 1.429 . S
C1176 H1200 0.950 . S
C1177 C1194 1.574 . S
C1177 C1196 1.368 . S
C1177 H1201 0.949 . S
H1178 C1182 0.949 . S
C1179 C1180 1.349 . S
C1179 C1181 1.327 . S
C1179 H1202 0.950 . S
C1180 C1179 1.349 . S
C1180 C1192 1.349 . S
C1181 C1179 1.327 . S
C1181 C1197 1.429 . S
C1181 H1203 0.950 . S
C1182 H1178 0.949 . S
C1182 C1190 1.574 . S
C1182 C1198 1.368 . S
H1183 C1191 0.950 . S
H1184 C1189 0.950 . S
H1185 C1190 0.949 . S
H1186 C1192 0.950 . S
H1187 C1193 0.950 . S
H1188 C1194 0.949 . S
C1189 H1184 0.950 . S
C1189 C1191 1.327 . S
C1189 C1195 1.429 . S
C1190 C1182 1.574 . S
C1190 H1185 0.949 . S
C1190 C1196 1.368 . S
C1191 C1175 1.349 . S
C1191 H1183 0.950 . S
C1191 C1189 1.327 . S
C1192 C1180 1.349 . S
C1192 H1186 0.950 . S
C1192 C1193 1.327 . S
C1193 H1187 0.950 . S
C1193 C1192 1.327 . S
C1193 C1197 1.429 . S
C1194 C1177 1.574 . S
C1194 H1188 0.949 . S
C1194 C1198 1.368 . S
C1195 C1176 1.429 . S
C1195 C1189 1.429 . S
C1195 C1196 1.523 . S
C1196 C1177 1.368 . S
C1196 C1190 1.368 . S
C1196 C1195 1.523 . S
C1197 C1181 1.429 . S
C1197 C1193 1.429 . S
C1197 C1198 1.523 . S
C1198 C1182 1.368 . S
C1198 C1194 1.368 . S
C1198 C1197 1.523 . S
H1199 C1174 0.950 . S
H1200 C1176 0.950 . S
H1201 C1177 0.949 . S
H1202 C1179 0.950 . S
H1203 C1181 0.950 . S
C1204 C1205 1.349 . S
C1204 C1206 1.327 . S
C1204 H1229 0.950 . S
C1205 C1204 1.349 . S
C1205 C1221 1.349 . S
C1206 C1204 1.327 . S
C1206 C1225 1.429 . S
C1206 H1230 0.950 . S
C1207 C1224 1.587 . S
C1207 C1226 1.368 . S
C1207 H1231 0.949 . S
H1208 C1212 0.949 . S
C1209 C1210 1.349 . S
C1209 C1211 1.327 . S
C1209 H1232 0.950 . S
C1210 C1209 1.349 . S
C1210 C1222 1.349 . S
C1211 C1209 1.327 . S
C1211 C1227 1.429 . S
C1211 H1233 0.950 . S
C1212 H1208 0.949 . S
C1212 C1220 1.579 . S
C1212 C1228 1.368 . S
H1213 C1221 0.950 . S
H1214 C1219 0.950 . S
H1215 C1220 0.950 . S
H1216 C1222 0.950 . S
H1217 C1223 0.950 . S
H1218 C1224 0.950 . S
C1219 H1214 0.950 . S
C1219 C1221 1.327 . S
C1219 C1225 1.429 . S
C1220 C1212 1.579 . S
C1220 H1215 0.950 . S
C1220 C1226 1.363 1_455 S
C1221 C1205 1.349 . S
C1221 H1213 0.950 . S
C1221 C1219 1.327 . S
C1222 C1210 1.349 . S
C1222 H1216 0.950 . S
C1222 C1223 1.327 . S
C1223 H1217 0.950 . S
C1223 C1222 1.327 . S
C1223 C1227 1.429 . S
C1224 C1207 1.587 . S
C1224 H1218 0.950 . S
C1224 C1228 1.355 1_655 S
C1225 C1206 1.429 . S
C1225 C1219 1.429 . S
C1225 C1226 1.523 . S
C1226 C1207 1.368 . S
C1226 C1220 1.363 1_655 S
C1226 C1225 1.523 . S
C1227 C1211 1.429 . S
C1227 C1223 1.429 . S
C1227 C1228 1.523 . S
C1228 C1212 1.368 . S
C1228 C1224 1.355 1_455 S
C1228 C1227 1.523 . S
H1229 C1204 0.950 . S
H1230 C1206 0.950 . S
H1231 C1207 0.949 . S
H1232 C1209 0.950 . S
H1233 C1211 0.950 . S
C1234 C1235 1.349 . S
C1234 C1236 1.327 . S
C1234 H1259 0.950 . S
C1235 C1234 1.349 . S
C1235 C1251 1.349 . S
C1236 C1234 1.327 . S
C1236 C1255 1.429 . S
C1236 H1260 0.950 . S
C1237 C1254 1.574 . S
C1237 C1256 1.368 . S
C1237 H1261 0.949 . S
H1238 C1242 0.949 . S
C1239 C1240 1.349 . S
C1239 C1241 1.327 . S
C1239 H1262 0.950 . S
C1240 C1239 1.349 . S
C1240 C1252 1.349 . S
C1241 C1239 1.327 . S
C1241 C1257 1.429 . S
C1241 H1263 0.950 . S
C1242 H1238 0.949 . S
C1242 C1250 1.574 . S
C1242 C1258 1.368 . S
H1243 C1251 0.950 . S
H1244 C1249 0.950 . S
H1245 C1250 0.949 . S
H1246 C1252 0.950 . S
H1247 C1253 0.950 . S
H1248 C1254 0.949 . S
C1249 H1244 0.950 . S
C1249 C1251 1.327 . S
C1249 C1255 1.429 . S
C1250 C1242 1.574 . S
C1250 H1245 0.949 . S
C1250 C1256 1.368 . S
C1251 C1235 1.349 . S
C1251 H1243 0.950 . S
C1251 C1249 1.327 . S
C1252 C1240 1.349 . S
C1252 H1246 0.950 . S
C1252 C1253 1.327 . S
C1253 H1247 0.950 . S
C1253 C1252 1.327 . S
C1253 C1257 1.429 . S
C1254 C1237 1.574 . S
C1254 H1248 0.949 . S
C1254 C1258 1.368 . S
C1255 C1236 1.429 . S
C1255 C1249 1.429 . S
C1255 C1256 1.523 . S
C1256 C1237 1.368 . S
C1256 C1250 1.368 . S
C1256 C1255 1.523 . S
C1257 C1241 1.429 . S
C1257 C1253 1.429 . S
C1257 C1258 1.523 . S
C1258 C1242 1.368 . S
C1258 C1254 1.368 . S
C1258 C1257 1.523 . S
H1259 C1234 0.950 . S
H1260 C1236 0.950 . S
H1261 C1237 0.949 . S
H1262 C1239 0.950 . S
H1263 C1241 0.950 . S
C1264 C1265 1.349 . S
C1264 C1266 1.327 . S
C1264 H1289 0.950 . S
C1265 C1264 1.349 . S
C1265 C1281 1.349 . S
C1266 C1264 1.327 . S
C1266 C1285 1.429 . S
C1266 H1290 0.950 . S
C1267 C1284 1.574 . S
C1267 C1286 1.368 1_565 S
C1267 H1291 0.949 . S
H1268 C1272 0.949 . S
C1269 C1270 1.349 . S
C1269 C1271 1.327 . S
C1269 H1292 0.950 . S
C1270 C1269 1.349 . S
C1270 C1282 1.349 . S
C1271 C1269 1.327 . S
C1271 C1287 1.429 . S
C1271 H1293 0.950 . S
C1272 H1268 0.949 . S
C1272 C1280 1.574 . S
C1272 C1288 1.368 1_545 S
H1273 C1281 0.950 . S
H1274 C1279 0.950 . S
H1275 C1280 0.949 . S
H1276 C1282 0.950 . S
H1277 C1283 0.950 . S
H1278 C1284 0.949 . S
C1279 H1274 0.950 . S
C1279 C1281 1.327 . S
C1279 C1285 1.429 . S
C1280 C1272 1.574 . S
C1280 H1275 0.949 . S
C1280 C1286 1.368 . S
C1281 C1265 1.349 . S
C1281 H1273 0.950 . S
C1281 C1279 1.327 . S
C1282 C1270 1.349 . S
C1282 H1276 0.950 . S
C1282 C1283 1.327 . S
C1283 H1277 0.950 . S
C1283 C1282 1.327 . S
C1283 C1287 1.429 . S
C1284 C1267 1.574 . S
C1284 H1278 0.949 . S
C1284 C1288 1.368 . S
C1285 C1266 1.429 . S
C1285 C1279 1.429 . S
C1285 C1286 1.523 . S
C1286 C1267 1.368 1_545 S
C1286 C1280 1.368 . S
C1286 C1285 1.523 . S
C1287 C1271 1.429 . S
C1287 C1283 1.429 . S
C1287 C1288 1.523 . S
C1288 C1272 1.368 1_565 S
C1288 C1284 1.368 . S
C1288 C1287 1.523 . S
H1289 C1264 0.950 . S
H1290 C1266 0.950 . S
H1291 C1267 0.949 . S
H1292 C1269 0.950 . S
H1293 C1271 0.950 . S
C1294 C1295 1.349 . S
C1294 C1296 1.327 . S
C1294 H1319 0.950 . S
C1295 C1294 1.349 . S
C1295 C1311 1.349 . S
C1296 C1294 1.327 . S
C1296 C1315 1.429 . S
C1296 H1320 0.950 . S
C1297 C1314 1.574 . S
C1297 C1316 1.368 . S
C1297 H1321 0.949 . S
H1298 C1302 0.949 . S
C1299 C1300 1.349 . S
C1299 C1301 1.327 . S
C1299 H1322 0.950 . S
C1300 C1299 1.349 . S
C1300 C1312 1.349 . S
C1301 C1299 1.327 . S
C1301 C1317 1.429 . S
C1301 H1323 0.950 . S
C1302 H1298 0.949 . S
C1302 C1310 1.574 . S
C1302 C1318 1.368 . S
H1303 C1311 0.950 . S
H1304 C1309 0.950 . S
H1305 C1310 0.949 . S
H1306 C1312 0.950 . S
H1307 C1313 0.950 . S
H1308 C1314 0.949 . S
C1309 H1304 0.950 . S
C1309 C1311 1.327 . S
C1309 C1315 1.429 . S
C1310 C1302 1.574 . S
C1310 H1305 0.949 . S
C1310 C1316 1.368 . S
C1311 C1295 1.349 . S
C1311 H1303 0.950 . S
C1311 C1309 1.327 . S
C1312 C1300 1.349 . S
C1312 H1306 0.950 . S
C1312 C1313 1.327 . S
C1313 H1307 0.950 . S
C1313 C1312 1.327 . S
C1313 C1317 1.429 . S
C1314 C1297 1.574 . S
C1314 H1308 0.949 . S
C1314 C1318 1.368 . S
C1315 C1296 1.429 . S
C1315 C1309 1.429 . S
C1315 C1316 1.523 . S
C1316 C1297 1.368 . S
C1316 C1310 1.368 . S
C1316 C1315 1.523 . S
C1317 C1301 1.429 . S
C1317 C1313 1.429 . S
C1317 C1318 1.523 . S
C1318 C1302 1.368 . S
C1318 C1314 1.368 . S
C1318 C1317 1.523 . S
H1319 C1294 0.950 . S
H1320 C1296 0.950 . S
H1321 C1297 0.949 . S
H1322 C1299 0.950 . S
H1323 C1301 0.950 . S
C1324 C1325 1.349 . S
C1324 C1326 1.327 . S
C1324 H1349 0.950 . S
C1325 C1324 1.349 . S
C1325 C1341 1.349 . S
C1326 C1324 1.327 . S
C1326 C1345 1.429 . S
C1326 H1350 0.950 . S
C1327 C1344 1.574 . S
C1327 C1346 1.368 1_565 S
C1327 H1351 0.949 . S
H1328 C1332 0.949 . S
C1329 C1330 1.349 . S
C1329 C1331 1.327 . S
C1329 H1352 0.950 . S
C1330 C1329 1.349 . S
C1330 C1342 1.349 . S
C1331 C1329 1.327 . S
C1331 C1347 1.429 . S
C1331 H1353 0.950 . S
C1332 H1328 0.949 . S
C1332 C1340 1.574 1_565 S
C1332 C1348 1.368 . S
H1333 C1341 0.950 . S
H1334 C1339 0.950 . S
H1335 C1340 0.949 . S
H1336 C1342 0.950 . S
H1337 C1343 0.950 . S
H1338 C1344 0.949 . S
C1339 H1334 0.950 . S
C1339 C1341 1.327 . S
C1339 C1345 1.429 . S
C1340 C1332 1.574 1_545 S
C1340 H1335 0.949 . S
C1340 C1346 1.368 . S
C1341 C1325 1.349 . S
C1341 H1333 0.950 . S
C1341 C1339 1.327 . S
C1342 C1330 1.349 . S
C1342 H1336 0.950 . S
C1342 C1343 1.327 . S
C1343 H1337 0.950 . S
C1343 C1342 1.327 . S
C1343 C1347 1.429 . S
C1344 C1327 1.574 . S
C1344 H1338 0.949 . S
C1344 C1348 1.368 . S
C1345 C1326 1.429 . S
C1345 C1339 1.429 . S
C1345 C1346 1.523 . S
C1346 C1327 1.368 1_545 S
C1346 C1340 1.368 . S
C1346 C1345 1.523 . S
C1347 C1331 1.429 . S
C1347 C1343 1.429 . S
C1347 C1348 1.523 . S
C1348 C1332 1.368 . S
C1348 C1344 1.368 . S
C1348 C1347 1.523 . S
H1349 C1324 0.950 . S
H1350 C1326 0.950 . S
H1351 C1327 0.949 . S
H1352 C1329 0.950 . S
H1353 C1331 0.950 . S
C1354 C1355 1.349 . S
C1354 C1356 1.327 . S
C1354 H1379 0.950 . S
C1355 C1354 1.349 . S
C1355 C1371 1.349 . S
C1356 C1354 1.327 . S
C1356 C1375 1.429 . S
C1356 H1380 0.950 . S
C1357 C1374 1.574 . S
C1357 C1376 1.368 . S
C1357 H1381 0.949 . S
H1358 C1362 0.949 . S
C1359 C1360 1.349 . S
C1359 C1361 1.327 . S
C1359 H1382 0.950 . S
C1360 C1359 1.349 . S
C1360 C1372 1.349 . S
C1361 C1359 1.327 . S
C1361 C1377 1.429 . S
C1361 H1383 0.950 . S
C1362 H1358 0.949 . S
C1362 C1370 1.574 . S
C1362 C1378 1.368 . S
H1363 C1371 0.950 . S
H1364 C1369 0.950 . S
H1365 C1370 0.949 . S
H1366 C1372 0.950 . S
H1367 C1373 0.950 . S
H1368 C1374 0.949 . S
C1369 H1364 0.950 . S
C1369 C1371 1.327 . S
C1369 C1375 1.429 . S
C1370 C1362 1.574 . S
C1370 H1365 0.949 . S
C1370 C1376 1.368 1_556 S
C1371 C1355 1.349 . S
C1371 H1363 0.950 . S
C1371 C1369 1.327 . S
C1372 C1360 1.349 . S
C1372 H1366 0.950 . S
C1372 C1373 1.327 . S
C1373 H1367 0.950 . S
C1373 C1372 1.327 . S
C1373 C1377 1.429 . S
C1374 C1357 1.574 . S
C1374 H1368 0.949 . S
C1374 C1378 1.368 1_554 S
C1375 C1356 1.429 . S
C1375 C1369 1.429 . S
C1375 C1376 1.523 . S
C1376 C1357 1.368 . S
C1376 C1370 1.368 1_554 S
C1376 C1375 1.523 . S
C1377 C1361 1.429 . S
C1377 C1373 1.429 . S
C1377 C1378 1.523 . S
C1378 C1362 1.368 . S
C1378 C1374 1.368 1_556 S
C1378 C1377 1.523 . S
H1379 C1354 0.950 . S
H1380 C1356 0.950 . S
H1381 C1357 0.949 . S
H1382 C1359 0.950 . S
H1383 C1361 0.950 . S
C1384 C1385 1.349 . S
C1384 C1386 1.327 . S
C1384 H1409 0.950 . S
C1385 C1384 1.349 . S
C1385 C1401 1.349 . S
C1386 C1384 1.327 . S
C1386 C1405 1.429 . S
C1386 H1410 0.950 . S
C1387 C1404 1.574 . S
C1387 C1406 1.368 1_655 S
C1387 H1411 0.949 . S
H1388 C1392 0.949 . S
C1389 C1390 1.349 . S
C1389 C1391 1.327 . S
C1389 H1412 0.950 . S
C1390 C1389 1.349 . S
C1390 C1402 1.349 . S
C1391 C1389 1.327 . S
C1391 C1407 1.429 . S
C1391 H1413 0.950 . S
C1392 H1388 0.949 . S
C1392 C1400 1.574 1_655 S
C1392 C1408 1.368 . S
H1393 C1401 0.950 . S
H1394 C1399 0.950 . S
H1395 C1400 0.949 . S
H1396 C1402 0.950 . S
H1397 C1403 0.950 . S
H1398 C1404 0.949 . S
C1399 H1394 0.950 . S
C1399 C1401 1.327 . S
C1399 C1405 1.429 . S
C1400 C1392 1.574 1_455 S
C1400 H1395 0.949 . S
C1400 C1406 1.368 . S
C1401 C1385 1.349 . S
C1401 H1393 0.950 . S
C1401 C1399 1.327 . S
C1402 C1390 1.349 . S
C1402 H1396 0.950 . S
C1402 C1403 1.327 . S
C1403 H1397 0.950 . S
C1403 C1402 1.327 . S
C1403 C1407 1.429 . S
C1404 C1387 1.574 . S
C1404 H1398 0.949 . S
C1404 C1408 1.368 . S
C1405 C1386 1.429 . S
C1405 C1399 1.429 . S
C1405 C1406 1.523 . S
C1406 C1387 1.368 1_455 S
C1406 C1400 1.368 . S
C1406 C1405 1.523 . S
C1407 C1391 1.429 . S
C1407 C1403 1.429 . S
C1407 C1408 1.523 . S
C1408 C1392 1.368 . S
C1408 C1404 1.368 . S
C1408 C1407 1.523 . S
H1409 C1384 0.950 . S
H1410 C1386 0.950 . S
H1411 C1387 0.949 . S
H1412 C1389 0.950 . S
H1413 C1391 0.950 . S
C1414 C1415 1.349 . S
C1414 C1416 1.327 . S
C1414 H1439 0.950 . S
C1415 C1414 1.349 . S
C1415 C1431 1.349 . S
C1416 C1414 1.327 . S
C1416 C1435 1.429 . S
C1416 H1440 0.950 . S
C1417 C1434 1.574 . S
C1417 C1436 1.368 . S
C1417 H1441 0.949 . S
H1418 C1422 0.949 . S
C1419 C1420 1.349 . S
C1419 C1421 1.327 . S
C1419 H1442 0.950 . S
C1420 C1419 1.349 . S
C1420 C1432 1.349 . S
C1421 C1419 1.327 . S
C1421 C1437 1.429 . S
C1421 H1443 0.950 . S
C1422 H1418 0.949 . S
C1422 C1430 1.574 . S
C1422 C1438 1.368 . S
H1423 C1431 0.950 . S
H1424 C1429 0.950 . S
H1425 C1430 0.949 . S
H1426 C1432 0.950 . S
H1427 C1433 0.950 . S
H1428 C1434 0.949 . S
C1429 H1424 0.950 . S
C1429 C1431 1.327 . S
C1429 C1435 1.429 . S
C1430 C1422 1.574 . S
C1430 H1425 0.949 . S
C1430 C1436 1.368 . S
C1431 C1415 1.349 . S
C1431 H1423 0.950 . S
C1431 C1429 1.327 . S
C1432 C1420 1.349 . S
C1432 H1426 0.950 . S
C1432 C1433 1.327 . S
C1433 H1427 0.950 . S
C1433 C1432 1.327 . S
C1433 C1437 1.429 . S
C1434 C1417 1.574 . S
C1434 H1428 0.949 . S
C1434 C1438 1.368 . S
C1435 C1416 1.429 . S
C1435 C1429 1.429 . S
C1435 C1436 1.523 . S
C1436 C1417 1.368 . S
C1436 C1430 1.368 . S
C1436 C1435 1.523 . S
C1437 C1421 1.429 . S
C1437 C1433 1.429 . S
C1437 C1438 1.523 . S
C1438 C1422 1.368 . S
C1438 C1434 1.368 . S
C1438 C1437 1.523 . S
H1439 C1414 0.950 . S
H1440 C1416 0.950 . S
H1441 C1417 0.949 . S
H1442 C1419 0.950 . S
H1443 C1421 0.950 . S
C1444 C1445 1.349 . S
C1444 C1446 1.327 . S
C1444 H1469 0.950 . S
C1445 C1444 1.349 . S
C1445 C1461 1.349 . S
C1446 C1444 1.327 . S
C1446 C1465 1.429 . S
C1446 H1470 0.950 . S
C1447 C1464 1.574 . S
C1447 C1466 1.368 . S
C1447 H1471 0.949 . S
H1448 C1452 0.949 . S
C1449 C1450 1.349 . S
C1449 C1451 1.327 . S
C1449 H1472 0.950 . S
C1450 C1449 1.349 . S
C1450 C1462 1.349 . S
C1451 C1449 1.327 . S
C1451 C1467 1.429 . S
C1451 H1473 0.950 . S
C1452 H1448 0.949 . S
C1452 C1460 1.574 1_455 S
C1452 C1468 1.368 . S
H1453 C1461 0.950 . S
H1454 C1459 0.950 . S
H1455 C1460 0.949 . S
H1456 C1462 0.950 . S
H1457 C1463 0.950 . S
H1458 C1464 0.949 . S
C1459 H1454 0.950 . S
C1459 C1461 1.327 . S
C1459 C1465 1.429 . S
C1460 C1452 1.574 1_655 S
C1460 H1455 0.949 . S
C1460 C1466 1.368 . S
C1461 C1445 1.349 . S
C1461 H1453 0.950 . S
C1461 C1459 1.327 . S
C1462 C1450 1.349 . S
C1462 H1456 0.950 . S
C1462 C1463 1.327 . S
C1463 H1457 0.950 . S
C1463 C1462 1.327 . S
C1463 C1467 1.429 . S
C1464 C1447 1.574 . S
C1464 H1458 0.949 . S
C1464 C1468 1.368 1_655 S
C1465 C1446 1.429 . S
C1465 C1459 1.429 . S
C1465 C1466 1.523 . S
C1466 C1447 1.368 . S
C1466 C1460 1.368 . S
C1466 C1465 1.523 . S
C1467 C1451 1.429 . S
C1467 C1463 1.429 . S
C1467 C1468 1.523 . S
C1468 C1452 1.368 . S
C1468 C1464 1.368 1_455 S
C1468 C1467 1.523 . S
H1469 C1444 0.950 . S
H1470 C1446 0.950 . S
H1471 C1447 0.949 . S
H1472 C1449 0.950 . S
H1473 C1451 0.950 . S
C1474 C1475 1.349 . S
C1474 C1476 1.327 . S
C1474 H1499 0.950 . S
C1475 C1474 1.349 . S
C1475 C1491 1.349 . S
C1476 C1474 1.327 . S
C1476 C1495 1.429 . S
C1476 H1500 0.950 . S
C1477 C1494 1.574 . S
C1477 C1496 1.368 . S
C1477 H1501 0.949 . S
H1478 C1482 0.949 . S
C1479 C1480 1.349 . S
C1479 C1481 1.327 . S
C1479 H1502 0.950 . S
C1480 C1479 1.349 . S
C1480 C1492 1.349 . S
C1481 C1479 1.327 . S
C1481 C1497 1.429 . S
C1481 H1503 0.950 . S
C1482 H1478 0.949 . S
C1482 C1490 1.574 . S
C1482 C1498 1.368 . S
H1483 C1491 0.950 . S
H1484 C1489 0.950 . S
H1485 C1490 0.949 . S
H1486 C1492 0.950 . S
H1487 C1493 0.950 . S
H1488 C1494 0.949 . S
C1489 H1484 0.950 . S
C1489 C1491 1.327 . S
C1489 C1495 1.429 . S
C1490 C1482 1.574 . S
C1490 H1485 0.949 . S
C1490 C1496 1.368 . S
C1491 C1475 1.349 . S
C1491 H1483 0.950 . S
C1491 C1489 1.327 . S
C1492 C1480 1.349 . S
C1492 H1486 0.950 . S
C1492 C1493 1.327 . S
C1493 H1487 0.950 . S
C1493 C1492 1.327 . S
C1493 C1497 1.429 . S
C1494 C1477 1.574 . S
C1494 H1488 0.949 . S
C1494 C1498 1.368 . S
C1495 C1476 1.429 . S
C1495 C1489 1.429 . S
C1495 C1496 1.523 . S
C1496 C1477 1.368 . S
C1496 C1490 1.368 . S
C1496 C1495 1.523 . S
C1497 C1481 1.429 . S
C1497 C1493 1.429 . S
C1497 C1498 1.523 . S
C1498 C1482 1.368 . S
C1498 C1494 1.368 . S
C1498 C1497 1.523 . S
H1499 C1474 0.950 . S
H1500 C1476 0.950 . S
H1501 C1477 0.949 . S
H1502 C1479 0.950 . S
H1503 C1481 0.950 . S
C1504 C1505 1.349 . S
C1504 C1506 1.327 . S
C1504 H1529 0.950 . S
C1505 C1504 1.349 . S
C1505 C1521 1.349 . S
C1506 C1504 1.327 . S
C1506 C1525 1.429 . S
C1506 H1530 0.950 . S
C1507 C1524 1.574 . S
C1507 C1526 1.368 . S
C1507 H1531 0.949 . S
H1508 C1512 0.949 . S
C1509 C1510 1.349 . S
C1509 C1511 1.327 . S
C1509 H1532 0.950 . S
C1510 C1509 1.349 . S
C1510 C1522 1.349 . S
C1511 C1509 1.327 . S
C1511 C1527 1.429 . S
C1511 H1533 0.950 . S
C1512 H1508 0.949 . S
C1512 C1520 1.574 . S
C1512 C1528 1.368 . S
H1513 C1521 0.950 . S
H1514 C1519 0.950 . S
H1515 C1520 0.949 . S
H1516 C1522 0.950 . S
H1517 C1523 0.950 . S
H1518 C1524 0.949 . S
C1519 H1514 0.950 . S
C1519 C1521 1.327 . S
C1519 C1525 1.429 . S
C1520 C1512 1.574 . S
C1520 H1515 0.949 . S
C1520 C1526 1.368 . S
C1521 C1505 1.349 . S
C1521 H1513 0.950 . S
C1521 C1519 1.327 . S
C1522 C1510 1.349 . S
C1522 H1516 0.950 . S
C1522 C1523 1.327 . S
C1523 H1517 0.950 . S
C1523 C1522 1.327 . S
C1523 C1527 1.429 . S
C1524 C1507 1.574 . S
C1524 H1518 0.949 . S
C1524 C1528 1.368 . S
C1525 C1506 1.429 . S
C1525 C1519 1.429 . S
C1525 C1526 1.523 . S
C1526 C1507 1.368 . S
C1526 C1520 1.368 . S
C1526 C1525 1.523 . S
C1527 C1511 1.429 . S
C1527 C1523 1.429 . S
C1527 C1528 1.523 . S
C1528 C1512 1.368 . S
C1528 C1524 1.368 . S
C1528 C1527 1.523 . S
H1529 C1504 0.950 . S
H1530 C1506 0.950 . S
H1531 C1507 0.949 . S
H1532 C1509 0.950 . S
H1533 C1511 0.950 . S
C1534 C1535 1.349 . S
C1534 C1536 1.327 . S
C1534 H1559 0.950 . S
C1535 C1534 1.349 . S
C1535 C1551 1.349 . S
C1536 C1534 1.327 . S
C1536 C1555 1.429 . S
C1536 H1560 0.950 . S
C1537 C1554 1.574 1_556 S
C1537 C1556 1.368 . S
C1537 H1561 0.949 . S
H1538 C1542 0.949 . S
C1539 C1540 1.349 . S
C1539 C1541 1.327 . S
C1539 H1562 0.950 . S
C1540 C1539 1.349 . S
C1540 C1552 1.349 . S
C1541 C1539 1.327 . S
C1541 C1557 1.429 . S
C1541 H1563 0.950 . S
C1542 H1538 0.949 . S
C1542 C1550 1.574 1_554 S
C1542 C1558 1.368 . S
H1543 C1551 0.950 . S
H1544 C1549 0.950 . S
H1545 C1550 0.949 . S
H1546 C1552 0.950 . S
H1547 C1553 0.950 . S
H1548 C1554 0.949 . S
C1549 H1544 0.950 . S
C1549 C1551 1.327 . S
C1549 C1555 1.429 . S
C1550 C1542 1.574 1_556 S
C1550 H1545 0.949 . S
C1550 C1556 1.368 . S
C1551 C1535 1.349 . S
C1551 H1543 0.950 . S
C1551 C1549 1.327 . S
C1552 C1540 1.349 . S
C1552 H1546 0.950 . S
C1552 C1553 1.327 . S
C1553 H1547 0.950 . S
C1553 C1552 1.327 . S
C1553 C1557 1.429 . S
C1554 C1537 1.574 1_554 S
C1554 H1548 0.949 . S
C1554 C1558 1.368 . S
C1555 C1536 1.429 . S
C1555 C1549 1.429 . S
C1555 C1556 1.523 . S
C1556 C1537 1.368 . S
C1556 C1550 1.368 . S
C1556 C1555 1.523 . S
C1557 C1541 1.429 . S
C1557 C1553 1.429 . S
C1557 C1558 1.523 . S
C1558 C1542 1.368 . S
C1558 C1554 1.368 . S
C1558 C1557 1.523 . S
H1559 C1534 0.950 . S
H1560 C1536 0.950 . S
H1561 C1537 0.949 . S
H1562 C1539 0.950 . S
H1563 C1541 0.950 . S
C1564 C1565 1.349 . S
C1564 C1566 1.327 . S
C1564 H1589 0.950 . S
C1565 C1564 1.349 . S
C1565 C1581 1.349 . S
C1566 C1564 1.327 . S
C1566 C1585 1.429 . S
C1566 H1590 0.950 . S
C1567 C1584 1.574 . S
C1567 C1586 1.368 . S
C1567 H1591 0.949 . S
H1568 C1572 0.949 . S
C1569 C1570 1.349 . S
C1569 C1571 1.327 . S
C1569 H1592 0.950 . S
C1570 C1569 1.349 . S
C1570 C1582 1.349 . S
C1571 C1569 1.327 . S
C1571 C1587 1.429 . S
C1571 H1593 0.950 . S
C1572 H1568 0.949 . S
C1572 C1580 1.574 . S
C1572 C1588 1.368 . S
H1573 C1581 0.950 . S
H1574 C1579 0.950 . S
H1575 C1580 0.949 . S
H1576 C1582 0.950 . S
H1577 C1583 0.950 . S
H1578 C1584 0.949 . S
C1579 H1574 0.950 . S
C1579 C1581 1.327 . S
C1579 C1585 1.429 . S
C1580 C1572 1.574 . S
C1580 H1575 0.949 . S
C1580 C1586 1.368 . S
C1581 C1565 1.349 . S
C1581 H1573 0.950 . S
C1581 C1579 1.327 . S
C1582 C1570 1.349 . S
C1582 H1576 0.950 . S
C1582 C1583 1.327 . S
C1583 H1577 0.950 . S
C1583 C1582 1.327 . S
C1583 C1587 1.429 . S
C1584 C1567 1.574 . S
C1584 H1578 0.949 . S
C1584 C1588 1.368 . S
C1585 C1566 1.429 . S
C1585 C1579 1.429 . S
C1585 C1586 1.523 . S
C1586 C1567 1.368 . S
C1586 C1580 1.368 . S
C1586 C1585 1.523 . S
C1587 C1571 1.429 . S
C1587 C1583 1.429 . S
C1587 C1588 1.523 . S
C1588 C1572 1.368 . S
C1588 C1584 1.368 . S
C1588 C1587 1.523 . S
H1589 C1564 0.950 . S
H1590 C1566 0.950 . S
H1591 C1567 0.949 . S
H1592 C1569 0.950 . S
H1593 C1571 0.950 . S
C1594 C1595 1.349 . S
C1594 C1596 1.327 . S
C1594 H1619 0.950 . S
C1595 C1594 1.349 . S
C1595 C1611 1.349 . S
C1596 C1594 1.327 . S
C1596 C1615 1.429 . S
C1596 H1620 0.950 . S
C1597 C1614 1.574 . S
C1597 C1616 1.368 . S
C1597 H1621 0.949 . S
H1598 C1602 0.949 . S
C1599 C1600 1.349 . S
C1599 C1601 1.327 . S
C1599 H1622 0.950 . S
C1600 C1599 1.349 . S
C1600 C1612 1.349 . S
C1601 C1599 1.327 . S
C1601 C1617 1.429 . S
C1601 H1623 0.950 . S
C1602 H1598 0.949 . S
C1602 C1610 1.574 . S
C1602 C1618 1.368 . S
H1603 C1611 0.950 . S
H1604 C1609 0.950 . S
H1605 C1610 0.949 . S
H1606 C1612 0.950 . S
H1607 C1613 0.950 . S
H1608 C1614 0.949 . S
C1609 H1604 0.950 . S
C1609 C1611 1.327 . S
C1609 C1615 1.429 . S
C1610 C1602 1.574 . S
C1610 H1605 0.949 . S
C1610 C1616 1.368 . S
C1611 C1595 1.349 . S
C1611 H1603 0.950 . S
C1611 C1609 1.327 . S
C1612 C1600 1.349 . S
C1612 H1606 0.950 . S
C1612 C1613 1.327 . S
C1613 H1607 0.950 . S
C1613 C1612 1.327 . S
C1613 C1617 1.429 . S
C1614 C1597 1.574 . S
C1614 H1608 0.949 . S
C1614 C1618 1.368 . S
C1615 C1596 1.429 . S
C1615 C1609 1.429 . S
C1615 C1616 1.523 . S
C1616 C1597 1.368 . S
C1616 C1610 1.368 . S
C1616 C1615 1.523 . S
C1617 C1601 1.429 . S
C1617 C1613 1.429 . S
C1617 C1618 1.523 . S
C1618 C1602 1.368 . S
C1618 C1614 1.368 . S
C1618 C1617 1.523 . S
H1619 C1594 0.950 . S
H1620 C1596 0.950 . S
H1621 C1597 0.949 . S
H1622 C1599 0.950 . S
H1623 C1601 0.950 . S
C1624 C1625 1.349 . S
C1624 C1626 1.327 . S
C1624 H1649 0.950 . S
C1625 C1624 1.349 . S
C1625 C1641 1.349 . S
C1626 C1624 1.327 . S
C1626 C1645 1.429 . S
C1626 H1650 0.950 . S
C1627 C1644 1.574 . S
C1627 C1646 1.368 . S
C1627 H1651 0.949 . S
H1628 C1632 0.949 . S
C1629 C1630 1.349 . S
C1629 C1631 1.327 . S
C1629 H1652 0.950 . S
C1630 C1629 1.349 . S
C1630 C1642 1.349 . S
C1631 C1629 1.327 . S
C1631 C1647 1.429 . S
C1631 H1653 0.950 . S
C1632 H1628 0.949 . S
C1632 C1640 1.574 . S
C1632 C1648 1.368 . S
H1633 C1641 0.950 . S
H1634 C1639 0.950 . S
H1635 C1640 0.949 . S
H1636 C1642 0.950 . S
H1637 C1643 0.950 . S
H1638 C1644 0.949 . S
C1639 H1634 0.950 . S
C1639 C1641 1.327 . S
C1639 C1645 1.429 . S
C1640 C1632 1.574 . S
C1640 H1635 0.949 . S
C1640 C1646 1.368 . S
C1641 C1625 1.349 . S
C1641 H1633 0.950 . S
C1641 C1639 1.327 . S
C1642 C1630 1.349 . S
C1642 H1636 0.950 . S
C1642 C1643 1.327 . S
C1643 H1637 0.950 . S
C1643 C1642 1.327 . S
C1643 C1647 1.429 . S
C1644 C1627 1.574 . S
C1644 H1638 0.949 . S
C1644 C1648 1.368 . S
C1645 C1626 1.429 . S
C1645 C1639 1.429 . S
C1645 C1646 1.523 . S
C1646 C1627 1.368 . S
C1646 C1640 1.368 . S
C1646 C1645 1.523 . S
C1647 C1631 1.429 . S
C1647 C1643 1.429 . S
C1647 C1648 1.523 . S
C1648 C1632 1.368 . S
C1648 C1644 1.368 . S
C1648 C1647 1.523 . S
H1649 C1624 0.950 . S
H1650 C1626 0.950 . S
H1651 C1627 0.949 . S
H1652 C1629 0.950 . S
H1653 C1631 0.950 . S
C1654 C1655 1.349 . S
C1654 C1656 1.327 . S
C1654 H1679 0.950 . S
C1655 C1654 1.349 . S
C1655 C1671 1.349 . S
C1656 C1654 1.327 . S
C1656 C1675 1.429 . S
C1656 H1680 0.950 . S
C1657 C1674 1.574 . S
C1657 C1676 1.368 . S
C1657 H1681 0.949 . S
H1658 C1662 0.949 . S
C1659 C1660 1.349 . S
C1659 C1661 1.327 . S
C1659 H1682 0.950 . S
C1660 C1659 1.349 . S
C1660 C1672 1.349 . S
C1661 C1659 1.327 . S
C1661 C1677 1.429 . S
C1661 H1683 0.950 . S
C1662 H1658 0.949 . S
C1662 C1670 1.574 1_554 S
C1662 C1678 1.368 . S
H1663 C1671 0.950 . S
H1664 C1669 0.950 . S
H1665 C1670 0.949 . S
H1666 C1672 0.950 . S
H1667 C1673 0.950 . S
H1668 C1674 0.949 . S
C1669 H1664 0.950 . S
C1669 C1671 1.327 . S
C1669 C1675 1.429 . S
C1670 C1662 1.574 1_556 S
C1670 H1665 0.949 . S
C1670 C1676 1.368 . S
C1671 C1655 1.349 . S
C1671 H1663 0.950 . S
C1671 C1669 1.327 . S
C1672 C1660 1.349 . S
C1672 H1666 0.950 . S
C1672 C1673 1.327 . S
C1673 H1667 0.950 . S
C1673 C1672 1.327 . S
C1673 C1677 1.429 . S
C1674 C1657 1.574 . S
C1674 H1668 0.949 . S
C1674 C1678 1.368 1_556 S
C1675 C1656 1.429 . S
C1675 C1669 1.429 . S
C1675 C1676 1.523 . S
C1676 C1657 1.368 . S
C1676 C1670 1.368 . S
C1676 C1675 1.523 . S
C1677 C1661 1.429 . S
C1677 C1673 1.429 . S
C1677 C1678 1.523 . S
C1678 C1662 1.368 . S
C1678 C1674 1.368 1_554 S
C1678 C1677 1.523 . S
H1679 C1654 0.950 . S
H1680 C1656 0.950 . S
H1681 C1657 0.949 . S
H1682 C1659 0.950 . S
H1683 C1661 0.950 . S
C1684 C1685 1.349 . S
C1684 C1686 1.327 . S
C1684 H1709 0.950 . S
C1685 C1684 1.349 . S
C1685 C1701 1.349 . S
C1686 C1684 1.327 . S
C1686 C1705 1.429 . S
C1686 H1710 0.950 . S
C1687 C1704 1.574 . S
C1687 C1706 1.368 . S
C1687 H1711 0.949 . S
H1688 C1692 0.949 . S
C1689 C1690 1.349 . S
C1689 C1691 1.327 . S
C1689 H1712 0.950 . S
C1690 C1689 1.349 . S
C1690 C1702 1.349 . S
C1691 C1689 1.327 . S
C1691 C1707 1.429 . S
C1691 H1713 0.950 . S
C1692 H1688 0.949 . S
C1692 C1700 1.574 . S
C1692 C1708 1.368 . S
H1693 C1701 0.950 . S
H1694 C1699 0.950 . S
H1695 C1700 0.949 . S
H1696 C1702 0.950 . S
H1697 C1703 0.950 . S
H1698 C1704 0.949 . S
C1699 H1694 0.950 . S
C1699 C1701 1.327 . S
C1699 C1705 1.429 . S
C1700 C1692 1.574 . S
C1700 H1695 0.949 . S
C1700 C1706 1.368 . S
C1701 C1685 1.349 . S
C1701 H1693 0.950 . S
C1701 C1699 1.327 . S
C1702 C1690 1.349 . S
C1702 H1696 0.950 . S
C1702 C1703 1.327 . S
C1703 H1697 0.950 . S
C1703 C1702 1.327 . S
C1703 C1707 1.429 . S
C1704 C1687 1.574 . S
C1704 H1698 0.949 . S
C1704 C1708 1.368 . S
C1705 C1686 1.429 . S
C1705 C1699 1.429 . S
C1705 C1706 1.523 . S
C1706 C1687 1.368 . S
C1706 C1700 1.368 . S
C1706 C1705 1.523 . S
C1707 C1691 1.429 . S
C1707 C1703 1.429 . S
C1707 C1708 1.523 . S
C1708 C1692 1.368 . S
C1708 C1704 1.368 . S
C1708 C1707 1.523 . S
H1709 C1684 0.950 . S
H1710 C1686 0.950 . S
H1711 C1687 0.949 . S
H1712 C1689 0.950 . S
H1713 C1691 0.950 . S
C1714 C1715 1.349 . S
C1714 C1716 1.327 . S
C1714 H1739 0.950 . S
C1715 C1714 1.349 . S
C1715 C1731 1.349 . S
C1716 C1714 1.327 . S
C1716 C1735 1.429 . S
C1716 H1740 0.950 . S
C1717 C1734 1.574 . S
C1717 C1736 1.368 . S
C1717 H1741 0.949 . S
H1718 C1722 0.949 . S
C1719 C1720 1.349 . S
C1719 C1721 1.327 . S
C1719 H1742 0.950 . S
C1720 C1719 1.349 . S
C1720 C1732 1.349 . S
C1721 C1719 1.327 . S
C1721 C1737 1.429 . S
C1721 H1743 0.950 . S
C1722 H1718 0.949 . S
C1722 C1730 1.574 . S
C1722 C1738 1.368 . S
H1723 C1731 0.950 . S
H1724 C1729 0.950 . S
H1725 C1730 0.949 . S
H1726 C1732 0.950 . S
H1727 C1733 0.950 . S
H1728 C1734 0.949 . S
C1729 H1724 0.950 . S
C1729 C1731 1.327 . S
C1729 C1735 1.429 . S
C1730 C1722 1.574 . S
C1730 H1725 0.949 . S
C1730 C1736 1.368 . S
C1731 C1715 1.349 . S
C1731 H1723 0.950 . S
C1731 C1729 1.327 . S
C1732 C1720 1.349 . S
C1732 H1726 0.950 . S
C1732 C1733 1.327 . S
C1733 H1727 0.950 . S
C1733 C1732 1.327 . S
C1733 C1737 1.429 . S
C1734 C1717 1.574 . S
C1734 H1728 0.949 . S
C1734 C1738 1.368 . S
C1735 C1716 1.429 . S
C1735 C1729 1.429 . S
C1735 C1736 1.523 . S
C1736 C1717 1.368 . S
C1736 C1730 1.368 . S
C1736 C1735 1.523 . S
C1737 C1721 1.429 . S
C1737 C1733 1.429 . S
C1737 C1738 1.523 . S
C1738 C1722 1.368 . S
C1738 C1734 1.368 . S
C1738 C1737 1.523 . S
H1739 C1714 0.950 . S
H1740 C1716 0.950 . S
H1741 C1717 0.949 . S
H1742 C1719 0.950 . S
H1743 C1721 0.950 . S
C545 C9 0.858 . S
C550 C515 0.895 . S
C575 C281 1.969 . S
C580 C39 2.148 . S
C605 C417 1.263 . S
C610 C77 1.276 . S
C635 C111 1.940 . S
C640 C345 2.063 . S
C665 C379 1.755 . S
C670 C43 1.608 . S
C695 C73 1.641 . S
C700 C311 1.636 . S
C725 C107 2.051 . S
C730 C451 1.902 . S
C755 C5 1.210 . S
C760 C247 1.121 . S
C785 C277 1.830 . S
C790 C145 1.687 . S
C815 C413 1.299 . S
C820 C179 1.208 . S
C845 C209 2.159 . S
C850 C349 2.001 . S
C875 C213 1.856 . S
C880 C447 1.983 . S
C905 C141 2.039 . S
C910 C383 1.868 . S
C935 C485 0.968 . S
C940 C243 1.027 . S
C965 C315 1.626 . S
C970 C175 1.771 . S
C995 C519 1.004 . S
C1000 C481 1.072 . S
C1025 C2 1.341 . S
C1030 C54 1.337 . S
C1055 C36 1.702 . S
C1060 C101 1.716 . S
C1085 C70 1.525 . S
C1090 C104 1.535 . S
C1115 C122 0.879 . S
C1120 C33 0.882 . S
C1145 C20 1.324 . S
C1150 C190 1.324 . S
C1175 C169 1.070 . S
C1180 C135 1.070 . S
C1205 C237 1.376 . S
C1210 C67 1.376 . S
C1235 C496 1.319 . S
C1240 C88 1.319 . S
C1265 C292 1.590 . S
C1270 C240 1.577 . S
C1295 C274 1.480 . S
C1300 C308 1.483 . S
C1325 C339 1.621 . S
C1330 C342 1.595 . S
C1355 C360 1.354 . S
C1360 C271 1.365 . S
C1385 C428 1.226 . S
C1390 C258 1.225 . S
C1415 C407 0.912 . S
C1420 C373 0.910 . S
C1445 C305 0.904 . S
C1450 C475 0.903 . S
C1475 C530 1.140 . S
C1480 C326 1.141 . S
C1505 C156 1.503 . S
C1510 C478 1.506 . S
C1535 C138 1.916 . S
C1540 C172 1.913 . S
C1565 C203 1.323 . S
C1570 C206 1.318 . S
C1595 C509 0.716 . S
C1600 C224 0.717 . S
C1625 C394 1.564 . S
C1630 C512 1.550 . S
C1655 C410 1.383 . S
C1660 C376 1.383 . S
C1685 C441 1.543 . S
C1690 C444 1.517 . S
C1715 C543 1.338 . S
C1720 C462 1.326 . S
