# Generated by pormake.
# Topology mmt, (4)-cn, num edge types: 1
# Building blocks:
#     Node 0, Type 0, BuildingBlock: NAHDIM_clean_sbu_0, # of connection points: 4
#     Node 1, Type 0, BuildingBlock: NAHDIM_clean_sbu_0, # of connection points: 4
#     Node 2, Type 0, BuildingBlock: NAHDIM_clean_sbu_0, # of connection points: 4
#     Node 3, Type 0, BuildingBlock: NAHDIM_clean_sbu_0, # of connection points: 4
#     Node 4, Type 0, BuildingBlock: NAHDIM_clean_sbu_0, # of connection points: 4
#     Node 5, Type 0, BuildingBlock: NAHDIM_clean_sbu_0, # of connection points: 4
#     Node 6, Type 0, BuildingBlock: NAHDIM_clean_sbu_0, # of connection points: 4
#     Node 7, Type 0, BuildingBlock: NAHDIM_clean_sbu_0, # of connection points: 4
#     Edge 8, Type (0, 0), BuildingBlock: FUNLAD_clean_linker_1, # of connection points: 2
#     Edge 9, Type (0, 0), BuildingBlock: FUNLAD_clean_linker_1, # of connection points: 2
#     Edge 10, Type (0, 0), BuildingBlock: FUNLAD_clean_linker_1, # of connection points: 2
#     Edge 11, Type (0, 0), BuildingBlock: FUNLAD_clean_linker_1, # of connection points: 2
#     Edge 12, Type (0, 0), BuildingBlock: FUNLAD_clean_linker_1, # of connection points: 2
#     Edge 13, Type (0, 0), BuildingBlock: FUNLAD_clean_linker_1, # of connection points: 2
#     Edge 14, Type (0, 0), BuildingBlock: FUNLAD_clean_linker_1, # of connection points: 2
#     Edge 15, Type (0, 0), BuildingBlock: FUNLAD_clean_linker_1, # of connection points: 2
#     Edge 16, Type (0, 0), BuildingBlock: FUNLAD_clean_linker_1, # of connection points: 2
#     Edge 17, Type (0, 0), BuildingBlock: FUNLAD_clean_linker_1, # of connection points: 2
#     Edge 18, Type (0, 0), BuildingBlock: FUNLAD_clean_linker_1, # of connection points: 2
#     Edge 19, Type (0, 0), BuildingBlock: FUNLAD_clean_linker_1, # of connection points: 2
#     Edge 20, Type (0, 0), BuildingBlock: FUNLAD_clean_linker_1, # of connection points: 2
#     Edge 21, Type (0, 0), BuildingBlock: FUNLAD_clean_linker_1, # of connection points: 2
#     Edge 22, Type (0, 0), BuildingBlock: FUNLAD_clean_linker_1, # of connection points: 2
#     Edge 23, Type (0, 0), BuildingBlock: FUNLAD_clean_linker_1, # of connection points: 2
# Relax obj value: 0.079
# Max RMSD: 0.130
# Mean RMSD: 0.130
data_MOF--net-mmt--node1-NAHDIM_clean_sbu_0--edge1-FUNLAD_clean_linker_1
_symmetry_space_group_name_H-M    P1
_symmetry_Int_Tables_number       1
_symmetry_cell_setting            triclinic
loop_
_symmetry_equiv_pos_as_xyz
'x, y, z'
_cell_length_a     22.924666
_cell_length_b     39.12983
_cell_length_c     45.923825
_cell_angle_alpha  90.037745
_cell_angle_beta   90.039419
_cell_angle_gamma 89.949564
loop_
_atom_site_label
_atom_site_type_symbol
_atom_site_fract_x
_atom_site_fract_y
_atom_site_fract_z
_atom_type_partial_charge
C0 C 0.1019 0.54128 0.40691 0.0
O1 O 0.06452 0.56329 0.39598 0.0
O2 O 0.17176 0.60206 0.35434 0.0
Zn3 Zn 0.15507 0.55156 0.35163 0.0
O4 O 0.08156 0.54187 0.32894 0.0
C5 C 0.25293 0.54436 0.31319 0.0
O6 O 0.24197 0.57681 0.30828 0.0
O7 O 0.14576 0.53225 0.3919 0.0
C8 C 0.07695 0.54784 0.30186 0.0
O9 O 0.12052 0.56209 0.28784 0.0
C10 C 0.1347 0.62541 0.34902 0.0
O11 O 0.08121 0.61717 0.34168 0.0
O12 O 0.22193 0.52803 0.33137 0.0
C13 C 0.40657 0.9455 0.40589 0.0
O14 O 0.44611 0.92821 0.39132 0.0
O15 O 0.31644 0.88276 0.35656 0.0
Zn16 Zn 0.33889 0.93251 0.35452 0.0
O17 O 0.40938 0.93891 0.32891 0.0
C18 C 0.22467 0.94685 0.33005 0.0
O19 O 0.21485 0.91445 0.33564 0.0
O20 O 0.35662 0.95037 0.39467 0.0
C21 C 0.40336 0.94155 0.30151 0.0
O22 O 0.35117 0.93882 0.28991 0.0
C23 C 0.35176 0.85863 0.35084 0.0
O24 O 0.40583 0.86575 0.34372 0.0
O25 O 0.27336 0.96003 0.33689 0.0
C26 C 0.58143 0.42866 0.08299 0.0
O27 O 0.56727 0.40032 0.09649 0.0
O28 O 0.67074 0.38768 0.13761 0.0
Zn29 Zn 0.65022 0.43761 0.13426 0.0
O30 O 0.58782 0.45073 0.16283 0.0
C31 C 0.73727 0.46403 0.17048 0.0
O32 O 0.70603 0.44605 0.18892 0.0
O33 O 0.61891 0.44858 0.09434 0.0
C34 C 0.57024 0.4815 0.16165 0.0
O35 O 0.59319 0.50232 0.14242 0.0
C36 C 0.63849 0.36597 0.15039 0.0
O37 O 0.58851 0.37569 0.16159 0.0
O38 O 0.72207 0.46497 0.14389 0.0
C39 C 0.90395 0.05017 0.10527 0.0
O40 O 0.93494 0.07181 0.12075 0.0
O41 O 0.80894 0.10615 0.1527 0.0
Zn42 Zn 0.82786 0.05596 0.15423 0.0
O43 O 0.89011 0.04627 0.18404 0.0
C44 C 0.70701 0.03308 0.1533 0.0
O45 O 0.70264 0.05203 0.12983 0.0
O46 O 0.85539 0.03966 0.11505 0.0
C47 C 0.87612 0.04072 0.2104 0.0
O48 O 0.82115 0.04258 0.2182 0.0
C49 C 0.84398 0.12926 0.16119 0.0
O50 O 0.89553 0.1207 0.17129 0.0
O51 O 0.75576 0.03059 0.16628 0.0
C52 C 0.92718 0.4568 0.60293 0.0
O53 O 0.9652 0.43922 0.61824 0.0
O54 O 0.82423 0.39282 0.64553 0.0
Zn55 Zn 0.84941 0.44175 0.65099 0.0
O56 O 0.91438 0.44523 0.68052 0.0
C57 C 0.74673 0.45791 0.68427 0.0
O58 O 0.75607 0.42735 0.69515 0.0
O59 O 0.87585 0.46111 0.61262 0.0
C60 C 0.91805 0.42582 0.70264 0.0
O61 O 0.87874 0.40194 0.70674 0.0
C62 C 0.86073 0.36866 0.64224 0.0
O63 O 0.91679 0.37537 0.64238 0.0
O64 O 0.78097 0.46955 0.66497 0.0
C65 C 0.59342 0.04158 0.59569 0.0
O66 O 0.55289 0.05674 0.61126 0.0
O67 O 0.68655 0.11105 0.63901 0.0
Zn68 Zn 0.66669 0.06131 0.64385 0.0
O69 O 0.5995 0.05704 0.67191 0.0
C70 C 0.75444 0.04552 0.68564 0.0
O71 O 0.72553 0.06875 0.70046 0.0
O72 O 0.64544 0.04044 0.60516 0.0
C73 C 0.59208 0.03021 0.68697 0.0
O74 O 0.62835 0.00442 0.68402 0.0
C75 C 0.64734 0.13398 0.63765 0.0
O76 O 0.59216 0.12518 0.63862 0.0
O77 O 0.73726 0.03748 0.66027 0.0
C78 C 0.38695 0.56042 0.91306 0.0
O79 O 0.40305 0.59071 0.90388 0.0
O80 O 0.30832 0.60962 0.85965 0.0
Zn81 Zn 0.33349 0.56023 0.85724 0.0
O82 O 0.40569 0.55441 0.83294 0.0
C83 C 0.23213 0.54893 0.82234 0.0
O84 O 0.23733 0.58206 0.81893 0.0
O85 O 0.35385 0.54219 0.89716 0.0
C86 C 0.4066 0.55647 0.80537 0.0
O87 O 0.35884 0.56463 0.79116 0.0
C88 C 0.34009 0.63554 0.85483 0.0
O89 O 0.39558 0.63154 0.84853 0.0
O90 O 0.26823 0.53303 0.83848 0.0
C91 C 0.11894 0.97269 0.91695 0.0
O92 O 0.08643 0.9479 0.90649 0.0
O93 O 0.19941 0.90939 0.87256 0.0
Zn94 Zn 0.17715 0.95821 0.86462 0.0
O95 O 0.10306 0.96152 0.84098 0.0
C96 C 0.2956 0.97511 0.85114 0.0
O97 O 0.30527 0.95947 0.87595 0.0
O98 O 0.1634 0.98235 0.90269 0.0
C99 C 0.10328 0.96734 0.81377 0.0
O100 O 0.15319 0.96977 0.79989 0.0
C101 C 0.19715 0.88685 0.85272 0.0
O102 O 0.17698 0.89504 0.82686 0.0
O103 O 0.24348 0.97916 0.84235 0.0
H104 H 0.30628 0.49942 0.30135 0.0
C105 C 0.29884 0.52634 0.29682 0.0
H106 H 0.32132 0.5685 0.27042 0.0
H107 H 0.55422 0.47162 0.25018 0.0
H108 H 0.57671 0.48325 0.30086 0.0
H109 H 0.50631 0.51358 0.33223 0.0
H110 H 0.41296 0.53233 0.31317 0.0
C111 C 0.32991 0.54198 0.27597 0.0
C112 C 0.37211 0.52284 0.25763 0.0
C113 C 0.42646 0.51206 0.26921 0.0
C114 C 0.46734 0.49494 0.25104 0.0
C115 C 0.52156 0.48472 0.26301 0.0
C116 C 0.53506 0.49127 0.29206 0.0
C117 C 0.4954 0.50831 0.30973 0.0
C118 C 0.44179 0.51878 0.29854 0.0
H119 H 0.51066 0.52069 0.17881 0.0
C120 C 0.52443 0.49424 0.18125 0.0
H121 H 0.5137 0.44849 0.20517 0.0
H122 H 0.27082 0.53889 0.22903 0.0
H123 H 0.24771 0.52626 0.1786 0.0
H124 H 0.31804 0.49571 0.14734 0.0
H125 H 0.41195 0.47774 0.16629 0.0
C126 C 0.49936 0.47465 0.20169 0.0
C127 C 0.45412 0.4892 0.22129 0.0
C128 C 0.39897 0.49893 0.20998 0.0
C129 C 0.35816 0.51609 0.22811 0.0
C130 C 0.30358 0.52584 0.21621 0.0
C131 C 0.28966 0.51867 0.18731 0.0
C132 C 0.32926 0.5015 0.1697 0.0
C133 C 0.38323 0.49156 0.18081 0.0
H134 H 0.90425 0.0195 0.25251 0.0
C135 C 0.9198 0.02887 0.23163 0.0
H136 H 0.99279 0.03625 0.20441 0.0
H137 H 0.09321 0.00173 0.3392 0.0
H138 H 0.04677 0.05459 0.35415 0.0
H139 H 0.98953 0.08877 0.31918 0.0
H140 H 0.97735 0.06986 0.26924 0.0
C141 C 0.97703 0.02765 0.22548 0.0
C142 C 0.01881 0.01033 0.24546 0.0
C143 C 0.02795 0.02271 0.27416 0.0
C144 C 0.06353 0.00396 0.29389 0.0
C145 C 0.06875 0.01569 0.32296 0.0
C146 C 0.042 0.0459 0.33189 0.0
C147 C 0.00958 0.06507 0.31224 0.0
C148 C 0.00254 0.05377 0.28369 0.0
H149 H 0.19369 0.99346 0.3079 0.0
C150 C 0.18198 0.96741 0.31367 0.0
H151 H 0.11984 0.92799 0.30914 0.0
H152 H 0.01202 0.97995 0.19165 0.0
H153 H 0.06337 0.92912 0.1759 0.0
H154 H 0.12936 0.89841 0.20931 0.0
H155 H 0.14391 0.91821 0.25878 0.0
C156 C 0.13103 0.95441 0.30446 0.0
C157 C 0.09246 0.9739 0.28438 0.0
C158 C 0.08508 0.96225 0.25537 0.0
C159 C 0.04799 0.98036 0.23593 0.0
C160 C 0.04039 0.96762 0.20727 0.0
C161 C 0.06954 0.93837 0.19791 0.0
C162 C 0.10661 0.92105 0.21673 0.0
C163 C 0.11445 0.93269 0.24512 0.0
H164 H 0.81651 0.49553 0.16436 0.0
C165 C 0.79015 0.48211 0.18035 0.0
H166 H 0.78157 0.46739 0.22437 0.0
H167 H 0.04737 0.47664 0.25583 0.0
H168 H 0.03625 0.41528 0.25085 0.0
H169 H 0.94561 0.3906 0.23094 0.0
H170 H 0.8657 0.42714 0.21573 0.0
C171 C 0.80669 0.48165 0.20842 0.0
C172 C 0.86247 0.49705 0.21839 0.0
C173 C 0.90854 0.4753 0.2274 0.0
C174 C 0.96048 0.48949 0.2392 0.0
C175 C 0.00638 0.46719 0.24738 0.0
C176 C 0.00073 0.43192 0.24446 0.0
C177 C 0.94973 0.41803 0.23323 0.0
C178 C 0.90411 0.43932 0.22469 0.0
H179 H 0.99102 0.52299 0.29872 0.0
C180 C 0.02436 0.5363 0.28628 0.0
H181 H 0.04961 0.55384 0.24454 0.0
H182 H 0.78247 0.54607 0.20328 0.0
H183 H 0.79472 0.60745 0.20728 0.0
H184 H 0.88556 0.632 0.2271 0.0
H185 H 0.96465 0.59524 0.2432 0.0
C186 C 0.01759 0.54006 0.25741 0.0
C187 C 0.96583 0.52539 0.24241 0.0
C188 C 0.92081 0.54721 0.23233 0.0
C189 C 0.86875 0.53303 0.22052 0.0
C190 C 0.82341 0.55541 0.21183 0.0
C191 C 0.82977 0.59072 0.21414 0.0
C192 C 0.88089 0.60455 0.22532 0.0
C193 C 0.92594 0.58318 0.23446 0.0
H194 H 0.61277 0.02137 0.15512 0.0
C195 C 0.65432 0.01755 0.16606 0.0
H196 H 0.69692 0.99839 0.2035 0.0
H197 H 0.46968 0.0176 0.28018 0.0
H198 H 0.52348 0.06834 0.29393 0.0
H199 H 0.61415 0.08415 0.2684 0.0
H200 H 0.65102 0.04949 0.22868 0.0
C201 C 0.65602 0.00115 0.19174 0.0
C202 C 0.60175 0.99099 0.20706 0.0
C203 C 0.58179 0.01095 0.2308 0.0
C204 C 0.53051 0.00127 0.24608 0.0
C205 C 0.50975 0.02283 0.26862 0.0
C206 C 0.53991 0.05228 0.27657 0.0
C207 C 0.59087 0.06122 0.26216 0.0
C208 C 0.61163 0.04102 0.23944 0.0
H209 H 0.49683 0.95124 0.29395 0.0
C210 C 0.4543 0.95027 0.28348 0.0
H211 H 0.40713 0.95803 0.24446 0.0
H212 H 0.62835 0.94735 0.16243 0.0
H213 H 0.57443 0.89656 0.14843 0.0
H214 H 0.4863 0.87913 0.1754 0.0
H215 H 0.45152 0.91235 0.21651 0.0
C216 C 0.44916 0.95928 0.25537 0.0
C217 C 0.50061 0.97085 0.23826 0.0
C218 C 0.5199 0.95132 0.21408 0.0
C219 C 0.57063 0.96139 0.19847 0.0
C220 C 0.58971 0.94105 0.17481 0.0
C221 C 0.55928 0.91178 0.16662 0.0
C222 C 0.50967 0.90196 0.1818 0.0
C223 C 0.49011 0.92132 0.20534 0.0
H224 H 0.49597 0.53632 0.8029 0.0
C225 C 0.45967 0.54566 0.78986 0.0
H226 H 0.42662 0.55266 0.74737 0.0
H227 H 0.71545 0.5189 0.74064 0.0
H228 H 0.72902 0.57328 0.76492 0.0
H229 H 0.64441 0.60825 0.77964 0.0
H230 H 0.54564 0.58854 0.7707 0.0
C231 C 0.46326 0.54452 0.7607 0.0
C232 C 0.5138 0.52747 0.74635 0.0
C233 C 0.57118 0.54026 0.75021 0.0
C234 C 0.6199 0.52094 0.74034 0.0
C235 C 0.67677 0.53314 0.74647 0.0
C236 C 0.68522 0.56427 0.76059 0.0
C237 C 0.6376 0.58389 0.76898 0.0
C238 C 0.58116 0.57216 0.76391 0.0
H239 H 0.69061 0.50381 0.68423 0.0
C240 C 0.69734 0.47898 0.69431 0.0
H241 H 0.66654 0.44343 0.72524 0.0
H242 H 0.40932 0.49666 0.73363 0.0
H243 H 0.39548 0.44408 0.70667 0.0
H244 H 0.47977 0.41205 0.68739 0.0
H245 H 0.5785 0.43231 0.69522 0.0
C246 C 0.66136 0.4686 0.71558 0.0
C247 C 0.61092 0.48974 0.7252 0.0
C248 C 0.55342 0.47793 0.71993 0.0
C249 C 0.5048 0.49673 0.7306 0.0
C250 C 0.44791 0.48375 0.72572 0.0
C251 C 0.43928 0.45352 0.71028 0.0
C252 C 0.48672 0.43547 0.69946 0.0
C253 C 0.54319 0.44737 0.70417 0.0
H254 H 0.83113 0.01137 0.68429 0.0
C255 C 0.8072 0.02938 0.6978 0.0
H256 H 0.80434 0.05559 0.73799 0.0
H257 H 0.98744 0.9275 0.76602 0.0
H258 H 0.90381 0.89023 0.75979 0.0
H259 H 0.80912 0.91329 0.7434 0.0
H260 H 0.79774 0.9736 0.73272 0.0
C261 C 0.82681 0.03681 0.72462 0.0
C262 C 0.88285 0.02268 0.73569 0.0
C263 C 0.88814 0.98749 0.74267 0.0
C264 C 0.94208 0.97442 0.75323 0.0
C265 C 0.94694 0.93897 0.75889 0.0
C266 C 0.89937 0.91725 0.75524 0.0
C267 C 0.84611 0.93022 0.74593 0.0
C268 C 0.84027 0.96489 0.73971 0.0
H269 H 0.00782 0.97381 0.81167 0.0
C270 C 0.04767 0.97449 0.79885 0.0
H271 H 0.085 0.98615 0.75803 0.0
H272 H 0.88771 0.0912 0.72373 0.0
H273 H 0.97053 0.12868 0.73121 0.0
H274 H 0.06299 0.10641 0.75113 0.0
H275 H 0.07331 0.04653 0.76353 0.0
C276 C 0.04526 0.98402 0.77078 0.0
C277 C 0.9899 0.99679 0.75778 0.0
C278 C 0.98462 0.03192 0.7507 0.0
C279 C 0.93107 0.04486 0.73962 0.0
C280 C 0.92713 0.08005 0.73256 0.0
C281 C 0.97439 0.10187 0.73669 0.0
C282 C 0.02645 0.08932 0.74787 0.0
C283 C 0.03178 0.05483 0.75485 0.0
H284 H 0.15434 0.54678 0.79459 0.0
C285 C 0.18542 0.53108 0.80649 0.0
H286 H 0.21316 0.48057 0.81541 0.0
H287 H 0.93791 0.47764 0.76432 0.0
H288 H 0.91176 0.50001 0.81171 0.0
H289 H 0.98741 0.51285 0.84834 0.0
H290 H 0.08997 0.50385 0.83747 0.0
C291 C 0.18112 0.49692 0.80491 0.0
C292 C 0.13561 0.48135 0.78597 0.0
C293 C 0.0758 0.48503 0.79314 0.0
C294 C 0.03215 0.47626 0.77244 0.0
C295 C 0.97294 0.48254 0.77951 0.0
C296 C 0.95726 0.49561 0.80663 0.0
C297 C -0.00015 0.50295 0.82722 0.0
C298 C 0.0585 0.49784 0.82066 0.0
H299 H 0.96477 0.41446 0.7436 0.0
C300 C 0.9643 0.43092 0.72455 0.0
H301 H 0.0049 0.47211 0.70286 0.0
H302 H 0.24617 0.4678 0.7667 0.0
H303 H 0.27271 0.44253 0.72027 0.0
H304 H 0.197 0.42555 0.68489 0.0
H305 H 0.09428 0.43394 0.69565 0.0
C306 C 0.00383 0.45608 0.72217 0.0
C307 C 0.04851 0.46245 0.74504 0.0
C308 C 0.10824 0.45672 0.73866 0.0
C309 C 0.15187 0.46616 0.75917 0.0
C310 C 0.21126 0.46093 0.75195 0.0
C311 C 0.22709 0.44643 0.72539 0.0
C312 C 0.18447 0.43689 0.70547 0.0
C313 C 0.12568 0.44192 0.71189 0.0
H314 H 0.38906 0.97936 0.84047 0.0
C315 C 0.34527 0.98413 0.83232 0.0
H316 H 0.29429 0.9984 0.79597 0.0
H317 H 0.56442 0.05 0.76258 0.0
H318 H 0.55313 0.09117 0.80163 0.0
H319 H 0.46533 0.09091 0.83267 0.0
H320 H 0.38879 0.04905 0.82512 0.0
C321 C 0.3379 0.9951 0.80484 0.0
C322 C 0.38821 0.99774 0.78454 0.0
C323 C 0.43142 0.02322 0.78855 0.0
C324 C 0.4808 0.02431 0.76983 0.0
C325 C 0.52487 0.04883 0.77535 0.0
C326 C 0.51914 0.07249 0.79784 0.0
C327 C 0.46981 0.07227 0.81538 0.0
C328 C 0.42634 0.04798 0.81091 0.0
H329 H 0.51279 0.04994 0.70838 0.0
C330 C 0.54329 0.02865 0.70778 0.0
H331 H 0.56535 0.98043 0.72527 0.0
H332 H 0.31346 0.9454 0.77104 0.0
H333 H 0.32329 0.90527 0.73113 0.0
H334 H 0.40686 0.90863 0.69744 0.0
H335 H 0.48138 0.95196 0.70365 0.0
C336 C 0.53605 0.00226 0.72608 0.0
C337 C 0.48555 0.00079 0.74639 0.0
C338 C 0.44201 0.97555 0.74223 0.0
C339 C 0.39336 0.97397 0.76136 0.0
C340 C 0.35099 0.94811 0.75697 0.0
C341 C 0.35611 0.92484 0.73415 0.0
C342 C 0.40319 0.9267 0.71521 0.0
C343 C 0.44573 0.95169 0.71907 0.0
H344 H 0.12418 0.50765 0.44388 0.0
C345 C 0.09241 0.52602 0.43585 0.0
H346 H 0.01197 0.55072 0.44378 0.0
H347 H 0.92444 0.43271 0.52737 0.0
H348 H 0.86795 0.42054 0.48399 0.0
H349 H 0.88618 0.4518 0.43827 0.0
H350 H 0.96152 0.49515 0.43562 0.0
C351 C 0.0452 0.53339 0.45197 0.0
C352 C 0.0337 0.51544 0.4799 0.0
C353 C 0.98846 0.49084 0.48128 0.0
C354 C 0.97695 0.47345 0.50783 0.0
C355 C 0.93353 0.4477 0.50814 0.0
C356 C 0.90111 0.4402 0.48329 0.0
C357 C 0.91145 0.45775 0.45754 0.0
C358 C 0.95474 0.48266 0.45636 0.0
H359 H 0.91105 0.48772 0.56367 0.0
C360 C 0.94305 0.47165 0.57457 0.0
H361 H 0.02757 0.45022 0.57256 0.0
H362 H 0.12244 0.56195 0.48487 0.0
H363 H 0.17937 0.57395 0.52819 0.0
H364 H 0.15931 0.54391 0.57431 0.0
H365 H 0.08211 0.50177 0.5774 0.0
C366 C 0.99463 0.46561 0.5617 0.0
C367 C 0.00946 0.48158 0.53323 0.0
C368 C 0.05546 0.50573 0.53169 0.0
C369 C 0.0674 0.52283 0.50503 0.0
C370 C 0.11228 0.54767 0.50436 0.0
C371 C 0.14511 0.55496 0.52913 0.0
C372 C 0.13378 0.53807 0.5551 0.0
C373 C 0.08937 0.51386 0.55655 0.0
H374 H 0.3856 0.974 0.44603 0.0
C375 C 0.41994 0.9602 0.43469 0.0
H376 H 0.50856 0.94527 0.43526 0.0
H377 H 0.57804 0.06668 0.52012 0.0
H378 H 0.61814 0.08704 0.47452 0.0
H379 H 0.59898 0.05637 0.42856 0.0
H380 H 0.53919 0.00528 0.42793 0.0
C381 C 0.47313 0.95782 0.44679 0.0
C382 C 0.48664 0.9751 0.47485 0.0
C383 C 0.52291 0.00442 0.47494 0.0
C384 C 0.53488 0.02173 0.50152 0.0
C385 C 0.56904 0.05187 0.50075 0.0
C386 C 0.59199 0.06402 0.47466 0.0
C387 C 0.58113 0.04678 0.44878 0.0
C388 C 0.54683 0.01742 0.44876 0.0
H389 H 0.61422 0.01312 0.55552 0.0
C390 C 0.57932 0.02573 0.56744 0.0
H391 H 0.48954 0.03796 0.56819 0.0
H392 H 0.41876 0.91823 0.48254 0.0
H393 H 0.37875 0.89773 0.52816 0.0
H394 H 0.39897 0.92791 0.57424 0.0
H395 H 0.45951 0.97869 0.575 0.0
C396 C 0.52527 0.0264 0.55615 0.0
C397 C 0.51167 0.00913 0.52807 0.0
C398 C 0.47535 0.97982 0.52795 0.0
C399 C 0.46314 0.96263 0.50134 0.0
C400 C 0.42833 0.93275 0.50201 0.0
C401 C 0.40536 0.92057 0.52808 0.0
C402 C 0.41679 0.93754 0.55403 0.0
C403 C 0.45152 0.96674 0.55413 0.0
H404 H 0.52054 0.41951 0.04664 0.0
C405 C 0.54999 0.43818 0.0562 0.0
H406 H 0.57991 0.48919 0.05495 0.0
H407 H 0.47281 0.47256 0.92146 0.0
H408 H 0.55398 0.4341 0.91294 0.0
H409 H 0.61856 0.41654 0.95323 0.0
H410 H 0.60227 0.4373 0.00232 0.0
C411 C 0.5532 0.46965 0.04471 0.0
C412 C 0.51455 0.47998 0.02022 0.0
C413 C 0.52471 0.46756 0.99166 0.0
C414 C 0.48775 0.47795 0.96839 0.0
C415 C 0.49931 0.46547 0.94 0.0
C416 C 0.54585 0.4434 0.93477 0.0
C417 C 0.58218 0.43349 0.95746 0.0
C418 C 0.57212 0.44546 0.98558 0.0
H419 H 0.43964 0.56425 0.95296 0.0
C420 C 0.41217 0.54712 0.94031 0.0
H421 H 0.38172 0.4965 0.93556 0.0
H422 H 0.48194 0.50752 0.0726 0.0
H423 H 0.39947 0.54501 0.08135 0.0
H424 H 0.33438 0.56219 0.04113 0.0
H425 H 0.35153 0.54207 0.99188 0.0
C426 C 0.40659 0.51443 0.9487 0.0
C427 C 0.44125 0.50108 0.97367 0.0
C428 C 0.43013 0.51272 0.00239 0.0
C429 C 0.46718 0.50242 0.02564 0.0
C430 C 0.45527 0.51457 0.0541 0.0
C431 C 0.40799 0.53604 0.05945 0.0
C432 C 0.37138 0.54575 0.0368 0.0
C433 C 0.38198 0.53421 0.00859 0.0
H434 H 0.1315 0.01 0.95261 0.0
C435 C 0.10343 0.98971 0.94454 0.0
H436 H 0.02575 0.96172 0.95108 0.0
H437 H 0.06729 0.01719 0.08523 0.0
H438 H 0.1517 0.97983 0.08584 0.0
H439 H 0.18436 0.95062 0.0411 0.0
H440 H 0.13296 0.9587 0.99549 0.0
C441 C 0.05525 0.9811 0.95946 0.0
C442 C 0.03752 -0.00042 0.98632 0.0
C443 C 0.06821 0.99456 0.0128 0.0
C444 C 0.049 0.01113 0.03866 0.0
C445 C 0.08002 0.00537 0.0649 0.0
C446 C 0.12851 0.98391 0.06559 0.0
C447 C 0.14693 0.96749 0.0404 0.0
C448 C 0.11716 0.97251 0.0143 0.0
H449 H 0.89896 0.01864 0.06554 0.0
C450 C 0.92544 0.03729 0.0771 0.0
H451 H 0.00429 0.06523 0.07734 0.0
H452 H 0.97008 0.01539 0.93898 0.0
H453 H 0.88692 0.05376 0.93812 0.0
H454 H 0.85513 0.08363 0.9827 0.0
H455 H 0.90597 0.07508 0.02843 0.0
C456 C 0.97649 0.04741 0.06564 0.0
C457 C 0.99874 0.03227 0.03805 0.0
C458 C 0.96917 0.03814 0.01137 0.0
C459 C 0.98819 0.02143 0.98556 0.0
C460 C 0.95749 0.0274 0.95926 0.0
C461 C 0.90978 0.04945 0.95842 0.0
C462 C 0.89184 0.06623 0.98353 0.0
C463 C 0.92115 0.06086 0.00971 0.0
H464 H 0.11993 0.68084 0.34366 0.0
C465 C 0.15199 0.66168 0.34985 0.0
H466 H 0.23828 0.65278 0.36437 0.0
H467 H 0.26892 0.80413 0.30267 0.0
H468 H 0.25766 0.7733 0.25719 0.0
H469 H 0.23213 0.71206 0.25697 0.0
H470 H 0.21694 0.68142 0.30221 0.0
C471 C 0.20613 0.67146 0.35735 0.0
C472 C 0.22336 0.70806 0.35734 0.0
C473 C 0.23352 0.72532 0.33067 0.0
C474 C 0.25013 0.76033 0.33083 0.0
C475 C 0.25792 0.7773 0.30387 0.0
C476 C 0.25131 0.75994 0.27758 0.0
C477 C 0.23679 0.72549 0.27746 0.0
C478 C 0.22796 0.70825 0.30361 0.0
H479 H 0.36318 0.80305 0.34495 0.0
C480 C 0.33209 0.82278 0.35108 0.0
H481 H 0.24594 0.83321 0.365 0.0
H482 H 0.2073 0.6824 0.41215 0.0
H483 H 0.2204 0.71296 0.45771 0.0
H484 H 0.25101 0.77339 0.45801 0.0
H485 H 0.26862 0.80369 0.41275 0.0
C486 C 0.27719 0.81399 0.35802 0.0
C487 C 0.25818 0.77768 0.35766 0.0
C488 C 0.24797 0.76041 0.38429 0.0
C489 C 0.2307 0.72552 0.38412 0.0
C490 C 0.22082 0.70886 0.41104 0.0
C491 C 0.22812 0.7261 0.43734 0.0
C492 C 0.24531 0.76014 0.43751 0.0
C493 C 0.25523 0.77722 0.41137 0.0
H494 H 0.85844 0.18455 0.16741 0.0
C495 C 0.82701 0.16557 0.16015 0.0
H496 H 0.7429 0.15706 0.14271 0.0
H497 H 0.7225 0.31331 0.19954 0.0
H498 H 0.73359 0.28545 0.24634 0.0
H499 H 0.7536 0.22361 0.2494 0.0
H500 H 0.76382 0.18943 0.20567 0.0
C501 C 0.77415 0.17565 0.15083 0.0
C502 C 0.75803 0.21243 0.14933 0.0
C503 C 0.74987 0.23171 0.17518 0.0
C504 C 0.73552 0.26703 0.17344 0.0
C505 C 0.73092 0.28612 0.19956 0.0
C506 C 0.73759 0.27049 0.2266 0.0
C507 C 0.74908 0.2357 0.22832 0.0
C508 C 0.75517 0.21641 0.20301 0.0
H509 H 0.62682 0.31196 0.1629 0.0
C510 C 0.65682 0.32998 0.15292 0.0
H511 H 0.73918 0.33669 0.13309 0.0
H512 H 0.77108 0.18284 0.09567 0.0
H513 H 0.75694 0.21028 0.04885 0.0
H514 H 0.72823 0.27095 0.04584 0.0
H515 H 0.7138 0.3046 0.0896 0.0
C516 C 0.70932 0.31913 0.14374 0.0
C517 C 0.72669 0.28257 0.14586 0.0
C518 C 0.73455 0.26322 0.12005 0.0
C519 C 0.75032 0.22813 0.12179 0.0
C520 C 0.75846 0.20949 0.09564 0.0
C521 C 0.75058 0.22493 0.0686 0.0
C522 C 0.73448 0.2591 0.0669 0.0
C523 C 0.72644 0.27813 0.09223 0.0
H524 H 0.62816 0.18924 0.63607 0.0
C525 C 0.66314 0.17047 0.63658 0.0
H526 H 0.75442 0.16265 0.63718 0.0
H527 H 0.81056 0.30918 0.5855 0.0
H528 H 0.82846 0.2738 0.54307 0.0
H529 H 0.8036 0.21247 0.54335 0.0
H530 H 0.76029 0.18622 0.58602 0.0
C531 C 0.71886 0.18103 0.63737 0.0
C532 C 0.73395 0.21798 0.63747 0.0
C533 C 0.76027 0.23276 0.61257 0.0
C534 C 0.77552 0.26798 0.61259 0.0
C535 C 0.7997 0.28235 0.58701 0.0
C536 C 0.80981 0.26238 0.5624 0.0
C537 C 0.79575 0.22786 0.56254 0.0
C538 C 0.77105 0.21311 0.58722 0.0
H539 H 0.87387 0.31309 0.63762 0.0
C540 C 0.84094 0.33302 0.63917 0.0
H541 H 0.75077 0.34407 0.64112 0.0
H542 H 0.68745 0.19719 0.68957 0.0
H543 H 0.66896 0.23265 0.73182 0.0
H544 H 0.69408 0.29394 0.73159 0.0
H545 H 0.73819 0.32004 0.68913 0.0
C546 C 0.78417 0.32454 0.6387 0.0
C547 C 0.76551 0.28816 0.63778 0.0
C548 C 0.73844 0.27349 0.66254 0.0
C549 C 0.72317 0.23827 0.66252 0.0
C550 C 0.69851 0.22398 0.68803 0.0
C551 C 0.688 0.24401 0.71256 0.0
C552 C 0.70221 0.2785 0.71244 0.0
C553 C 0.72739 0.29317 0.68786 0.0
H554 H 0.26527 0.67068 0.85499 0.0
C555 C 0.31266 0.66956 0.85462 0.0
H556 H 0.3908 0.69787 0.85293 0.0
H557 H 0.28396 0.82917 0.79434 0.0
H558 H 0.35516 0.81074 0.75873 0.0
H559 H 0.40717 0.75595 0.76446 0.0
H560 H 0.38897 0.71957 0.80608 0.0
C561 C 0.34345 0.69871 0.85375 0.0
C562 C 0.31354 0.73246 0.85114 0.0
C563 C 0.32393 0.75314 0.82633 0.0
C564 C 0.2927 0.78428 0.8226 0.0
C565 C 0.3053 0.8049 0.79802 0.0
C566 C 0.34627 0.79468 0.77739 0.0
C567 C 0.37562 0.76388 0.78065 0.0
C568 C 0.36476 0.74325 0.80474 0.0
H569 H 0.24684 0.84914 0.87829 0.0
C570 C 0.22239 0.85285 0.85824 0.0
H571 H 0.19464 0.83087 0.81868 0.0
H572 H 0.29169 0.70292 0.9042 0.0
H573 H 0.21655 0.71952 0.93854 0.0
H574 H 0.15296 0.76909 0.92873 0.0
H575 H 0.16554 0.80298 0.88505 0.0
C576 C 0.21792 0.82707 0.83904 0.0
C577 C 0.25005 0.79431 0.84331 0.0
C578 C 0.23923 0.77342 0.86799 0.0
C579 C 0.27282 0.74331 0.87255 0.0
C580 C 0.26491 0.72475 0.89872 0.0
C581 C 0.2223 0.7342 0.91878 0.0
C582 C 0.18674 0.76221 0.91334 0.0
C583 C 0.19484 0.78165 0.88827 0.0
loop_
_geom_bond_atom_site_label_1
_geom_bond_atom_site_label_2
_geom_bond_distance
_geom_bond_site_symmetry_2
_ccdc_geom_bond_type
C0 O1 1.160 . S
C0 O7 1.185 . S
O1 C0 1.160 . S
O2 Zn3 1.899 . S
O2 C10 1.284 . S
Zn3 O2 1.899 . S
Zn3 O4 2.032 . S
Zn3 O7 2.086 . S
Zn3 O12 1.977 . S
O4 Zn3 2.032 . S
O4 C8 1.278 . S
C5 O6 1.203 . S
C5 O12 1.267 . S
O6 C5 1.203 . S
O7 C0 1.185 . S
O7 Zn3 2.086 . S
C8 O4 1.278 . S
C8 O9 1.211 . S
O9 C8 1.211 . S
C10 O2 1.284 . S
C10 O11 1.273 . S
O11 C10 1.273 . S
O12 Zn3 1.977 . S
O12 C5 1.267 . S
C13 O14 1.160 . S
C13 O20 1.185 . S
O14 C13 1.160 . S
O15 Zn16 1.899 . S
O15 C23 1.284 . S
Zn16 O15 1.899 . S
Zn16 O17 2.032 . S
Zn16 O20 2.086 . S
Zn16 O25 1.977 . S
O17 Zn16 2.032 . S
O17 C21 1.278 . S
C18 O19 1.203 . S
C18 O25 1.267 . S
O19 C18 1.203 . S
O20 C13 1.185 . S
O20 Zn16 2.086 . S
C21 O17 1.278 . S
C21 O22 1.211 . S
O22 C21 1.211 . S
C23 O15 1.284 . S
C23 O24 1.273 . S
O24 C23 1.273 . S
O25 Zn16 1.977 . S
O25 C18 1.267 . S
C26 O27 1.160 . S
C26 O33 1.185 . S
O27 C26 1.160 . S
O28 Zn29 1.899 . S
O28 C36 1.284 . S
Zn29 O28 1.899 . S
Zn29 O30 2.032 . S
Zn29 O33 2.086 . S
Zn29 O38 1.977 . S
O30 Zn29 2.032 . S
O30 C34 1.278 . S
C31 O32 1.203 . S
C31 O38 1.267 . S
O32 C31 1.203 . S
O33 C26 1.185 . S
O33 Zn29 2.086 . S
C34 O30 1.278 . S
C34 O35 1.211 . S
O35 C34 1.211 . S
C36 O28 1.284 . S
C36 O37 1.273 . S
O37 C36 1.273 . S
O38 Zn29 1.977 . S
O38 C31 1.267 . S
C39 O40 1.160 . S
C39 O46 1.185 . S
O40 C39 1.160 . S
O41 Zn42 1.899 . S
O41 C49 1.284 . S
Zn42 O41 1.899 . S
Zn42 O43 2.032 . S
Zn42 O46 2.086 . S
Zn42 O51 1.977 . S
O43 Zn42 2.032 . S
O43 C47 1.278 . S
C44 O45 1.203 . S
C44 O51 1.267 . S
O45 C44 1.203 . S
O46 C39 1.185 . S
O46 Zn42 2.086 . S
C47 O43 1.278 . S
C47 O48 1.211 . S
O48 C47 1.211 . S
C49 O41 1.284 . S
C49 O50 1.273 . S
O50 C49 1.273 . S
O51 Zn42 1.977 . S
O51 C44 1.267 . S
C52 O53 1.160 . S
C52 O59 1.185 . S
O53 C52 1.160 . S
O54 Zn55 1.899 . S
O54 C62 1.284 . S
Zn55 O54 1.899 . S
Zn55 O56 2.032 . S
Zn55 O59 2.086 . S
Zn55 O64 1.977 . S
O56 Zn55 2.032 . S
O56 C60 1.278 . S
C57 O58 1.203 . S
C57 O64 1.267 . S
O58 C57 1.203 . S
O59 C52 1.185 . S
O59 Zn55 2.086 . S
C60 O56 1.278 . S
C60 O61 1.211 . S
O61 C60 1.211 . S
C62 O54 1.284 . S
C62 O63 1.273 . S
O63 C62 1.273 . S
O64 Zn55 1.977 . S
O64 C57 1.267 . S
C65 O66 1.160 . S
C65 O72 1.185 . S
O66 C65 1.160 . S
O67 Zn68 1.899 . S
O67 C75 1.284 . S
Zn68 O67 1.899 . S
Zn68 O69 2.032 . S
Zn68 O72 2.086 . S
Zn68 O77 1.977 . S
O69 Zn68 2.032 . S
O69 C73 1.278 . S
C70 O71 1.203 . S
C70 O77 1.267 . S
O71 C70 1.203 . S
O72 C65 1.185 . S
O72 Zn68 2.086 . S
C73 O69 1.278 . S
C73 O74 1.211 . S
O74 C73 1.211 . S
C75 O67 1.284 . S
C75 O76 1.273 . S
O76 C75 1.273 . S
O77 Zn68 1.977 . S
O77 C70 1.267 . S
C78 O79 1.160 . S
C78 O85 1.185 . S
O79 C78 1.160 . S
O80 Zn81 1.899 . S
O80 C88 1.284 . S
Zn81 O80 1.899 . S
Zn81 O82 2.032 . S
Zn81 O85 2.086 . S
Zn81 O90 1.977 . S
O82 Zn81 2.032 . S
O82 C86 1.278 . S
C83 O84 1.203 . S
C83 O90 1.267 . S
O84 C83 1.203 . S
O85 C78 1.185 . S
O85 Zn81 2.086 . S
C86 O82 1.278 . S
C86 O87 1.211 . S
O87 C86 1.211 . S
C88 O80 1.284 . S
C88 O89 1.273 . S
O89 C88 1.273 . S
O90 Zn81 1.977 . S
O90 C83 1.267 . S
C91 O92 1.160 . S
C91 O98 1.185 . S
O92 C91 1.160 . S
O93 Zn94 1.899 . S
O93 C101 1.284 . S
Zn94 O93 1.899 . S
Zn94 O95 2.032 . S
Zn94 O98 2.086 . S
Zn94 O103 1.977 . S
O95 Zn94 2.032 . S
O95 C99 1.278 . S
C96 O97 1.203 . S
C96 O103 1.267 . S
O97 C96 1.203 . S
O98 C91 1.185 . S
O98 Zn94 2.086 . S
C99 O95 1.278 . S
C99 O100 1.211 . S
O100 C99 1.211 . S
C101 O93 1.284 . S
C101 O102 1.273 . S
O102 C101 1.273 . S
O103 Zn94 1.977 . S
O103 C96 1.267 . S
H104 C105 0.951 . S
C105 H104 0.951 . S
C105 C111 1.265 . S
H106 C111 0.950 . S
H107 C115 0.949 . S
H108 C116 0.950 . S
H109 C117 0.951 . S
H110 C118 0.951 . S
C111 C105 1.265 . S
C111 H106 0.950 . S
C111 C112 1.478 . S
C112 C111 1.478 . S
C112 C113 1.397 . S
C112 C129 1.394 . S
C113 C112 1.397 . S
C113 C114 1.438 . S
C113 C118 1.429 . S
C114 C113 1.438 . S
C114 C115 1.428 . S
C114 C127 1.394 . S
C115 H107 0.949 . S
C115 C114 1.428 . S
C115 C116 1.345 . S
C116 H108 0.950 . S
C116 C115 1.345 . S
C116 C117 1.424 . S
C117 H109 0.951 . S
C117 C116 1.424 . S
C117 C118 1.347 . S
C118 H110 0.951 . S
C118 C113 1.429 . S
C118 C117 1.347 . S
H119 C120 0.951 . S
C120 H119 0.951 . S
C120 C126 1.265 . S
H121 C126 0.950 . S
H122 C130 0.949 . S
H123 C131 0.950 . S
H124 C132 0.951 . S
H125 C133 0.951 . S
C126 C120 1.265 . S
C126 H121 0.950 . S
C126 C127 1.478 . S
C127 C114 1.394 . S
C127 C126 1.478 . S
C127 C128 1.397 . S
C128 C127 1.397 . S
C128 C129 1.438 . S
C128 C133 1.429 . S
C129 C112 1.394 . S
C129 C128 1.438 . S
C129 C130 1.428 . S
C130 H122 0.949 . S
C130 C129 1.428 . S
C130 C131 1.345 . S
C131 H123 0.950 . S
C131 C130 1.345 . S
C131 C132 1.424 . S
C132 H124 0.951 . S
C132 C131 1.424 . S
C132 C133 1.347 . S
C133 H125 0.951 . S
C133 C128 1.429 . S
C133 C132 1.347 . S
H134 C135 0.951 . S
C135 H134 0.951 . S
C135 C141 1.265 1_655 S
H136 C141 0.950 . S
H137 C145 0.949 . S
H138 C146 0.950 . S
H139 C147 0.951 . S
H140 C148 0.951 . S
C141 C135 1.265 1_455 S
C141 H136 0.950 . S
C141 C142 1.478 . S
C142 C141 1.478 . S
C142 C143 1.397 . S
C142 C159 1.394 . S
C143 C142 1.397 . S
C143 C144 1.438 . S
C143 C148 1.429 . S
C144 C143 1.438 . S
C144 C145 1.428 . S
C144 C157 1.394 1_545 S
C145 H137 0.949 . S
C145 C144 1.428 . S
C145 C146 1.345 . S
C146 H138 0.950 . S
C146 C145 1.345 . S
C146 C147 1.424 . S
C147 H139 0.951 . S
C147 C146 1.424 . S
C147 C148 1.347 . S
C148 H140 0.951 . S
C148 C143 1.429 . S
C148 C147 1.347 . S
H149 C150 0.951 1_545 S
C150 H149 0.951 1_565 S
C150 C156 1.265 . S
H151 C156 0.950 . S
H152 C160 0.949 1_545 S
H153 C161 0.950 . S
H154 C162 0.951 . S
H155 C163 0.951 . S
C156 C150 1.265 . S
C156 H151 0.950 . S
C156 C157 1.478 . S
C157 C144 1.394 1_565 S
C157 C156 1.478 . S
C157 C158 1.397 . S
C158 C157 1.397 . S
C158 C159 1.438 1_565 S
C158 C163 1.429 . S
C159 C142 1.394 . S
C159 C158 1.438 1_545 S
C159 C160 1.428 1_545 S
C160 H152 0.949 1_565 S
C160 C159 1.428 1_565 S
C160 C161 1.345 . S
C161 H153 0.950 . S
C161 C160 1.345 . S
C161 C162 1.424 . S
C162 H154 0.951 . S
C162 C161 1.424 . S
C162 C163 1.347 . S
C163 H155 0.951 . S
C163 C158 1.429 . S
C163 C162 1.347 . S
H164 C165 0.951 . S
C165 H164 0.951 . S
C165 C171 1.265 . S
H166 C171 0.950 . S
H167 C175 0.949 1_455 S
H168 C176 0.950 . S
H169 C177 0.951 . S
H170 C178 0.951 . S
C171 C165 1.265 . S
C171 H166 0.950 . S
C171 C172 1.478 . S
C172 C171 1.478 . S
C172 C173 1.397 . S
C172 C189 1.394 . S
C173 C172 1.397 . S
C173 C174 1.438 . S
C173 C178 1.429 . S
C174 C173 1.438 . S
C174 C175 1.428 . S
C174 C187 1.394 . S
C175 H167 0.949 1_655 S
C175 C174 1.428 . S
C175 C176 1.345 . S
C176 H168 0.950 . S
C176 C175 1.345 . S
C176 C177 1.424 . S
C177 H169 0.951 . S
C177 C176 1.424 . S
C177 C178 1.347 . S
C178 H170 0.951 . S
C178 C173 1.429 . S
C178 C177 1.347 . S
H179 C180 0.951 1_655 S
C180 H179 0.951 1_455 S
C180 C186 1.265 1_455 S
H181 C186 0.950 1_455 S
H182 C190 0.949 . S
H183 C191 0.950 . S
H184 C192 0.951 . S
H185 C193 0.951 . S
C186 C180 1.265 1_655 S
C186 H181 0.950 1_655 S
C186 C187 1.478 . S
C187 C174 1.394 . S
C187 C186 1.478 . S
C187 C188 1.397 . S
C188 C187 1.397 . S
C188 C189 1.438 . S
C188 C193 1.429 . S
C189 C172 1.394 . S
C189 C188 1.438 . S
C189 C190 1.428 . S
C190 H182 0.949 . S
C190 C189 1.428 . S
C190 C191 1.345 . S
C191 H183 0.950 . S
C191 C190 1.345 . S
C191 C192 1.424 . S
C192 H184 0.951 . S
C192 C191 1.424 . S
C192 C193 1.347 . S
C193 H185 0.951 . S
C193 C188 1.429 . S
C193 C192 1.347 . S
H194 C195 0.951 . S
C195 H194 0.951 . S
C195 C201 1.265 . S
H196 C201 0.950 1_565 S
H197 C205 0.949 . S
H198 C206 0.950 . S
H199 C207 0.951 . S
H200 C208 0.951 . S
C201 C195 1.265 . S
C201 H196 0.950 1_545 S
C201 C202 1.478 1_545 S
C202 C201 1.478 1_565 S
C202 C203 1.397 1_565 S
C202 C219 1.394 . S
C203 C202 1.397 1_545 S
C203 C204 1.438 1_545 S
C203 C208 1.429 . S
C204 C203 1.438 1_565 S
C204 C205 1.428 1_565 S
C204 C217 1.394 . S
C205 H197 0.949 . S
C205 C204 1.428 1_545 S
C205 C206 1.345 . S
C206 H198 0.950 . S
C206 C205 1.345 . S
C206 C207 1.424 . S
C207 H199 0.951 . S
C207 C206 1.424 . S
C207 C208 1.347 . S
C208 H200 0.951 . S
C208 C203 1.429 . S
C208 C207 1.347 . S
H209 C210 0.951 . S
C210 H209 0.951 . S
C210 C216 1.265 . S
H211 C216 0.950 . S
H212 C220 0.949 . S
H213 C221 0.950 . S
H214 C222 0.951 . S
H215 C223 0.951 . S
C216 C210 1.265 . S
C216 H211 0.950 . S
C216 C217 1.478 . S
C217 C204 1.394 . S
C217 C216 1.478 . S
C217 C218 1.397 . S
C218 C217 1.397 . S
C218 C219 1.438 . S
C218 C223 1.429 . S
C219 C202 1.394 . S
C219 C218 1.438 . S
C219 C220 1.428 . S
C220 H212 0.949 . S
C220 C219 1.428 . S
C220 C221 1.345 . S
C221 H213 0.950 . S
C221 C220 1.345 . S
C221 C222 1.424 . S
C222 H214 0.951 . S
C222 C221 1.424 . S
C222 C223 1.347 . S
C223 H215 0.951 . S
C223 C218 1.429 . S
C223 C222 1.347 . S
H224 C225 0.951 . S
C225 H224 0.951 . S
C225 C231 1.265 . S
H226 C231 0.950 . S
H227 C235 0.949 . S
H228 C236 0.950 . S
H229 C237 0.951 . S
H230 C238 0.951 . S
C231 C225 1.265 . S
C231 H226 0.950 . S
C231 C232 1.478 . S
C232 C231 1.478 . S
C232 C233 1.397 . S
C232 C249 1.394 . S
C233 C232 1.397 . S
C233 C234 1.438 . S
C233 C238 1.429 . S
C234 C233 1.438 . S
C234 C235 1.428 . S
C234 C247 1.394 . S
C235 H227 0.949 . S
C235 C234 1.428 . S
C235 C236 1.345 . S
C236 H228 0.950 . S
C236 C235 1.345 . S
C236 C237 1.424 . S
C237 H229 0.951 . S
C237 C236 1.424 . S
C237 C238 1.347 . S
C238 H230 0.951 . S
C238 C233 1.429 . S
C238 C237 1.347 . S
H239 C240 0.951 . S
C240 H239 0.951 . S
C240 C246 1.265 . S
H241 C246 0.950 . S
H242 C250 0.949 . S
H243 C251 0.950 . S
H244 C252 0.951 . S
H245 C253 0.951 . S
C246 C240 1.265 . S
C246 H241 0.950 . S
C246 C247 1.478 . S
C247 C234 1.394 . S
C247 C246 1.478 . S
C247 C248 1.397 . S
C248 C247 1.397 . S
C248 C249 1.438 . S
C248 C253 1.429 . S
C249 C232 1.394 . S
C249 C248 1.438 . S
C249 C250 1.428 . S
C250 H242 0.949 . S
C250 C249 1.428 . S
C250 C251 1.345 . S
C251 H243 0.950 . S
C251 C250 1.345 . S
C251 C252 1.424 . S
C252 H244 0.951 . S
C252 C251 1.424 . S
C252 C253 1.347 . S
C253 H245 0.951 . S
C253 C248 1.429 . S
C253 C252 1.347 . S
H254 C255 0.951 . S
C255 H254 0.951 . S
C255 C261 1.265 . S
H256 C261 0.950 1_565 S
H257 C265 0.949 . S
H258 C266 0.950 . S
H259 C267 0.951 . S
H260 C268 0.951 . S
C261 C255 1.265 . S
C261 H256 0.950 1_545 S
C261 C262 1.478 1_545 S
C262 C261 1.478 1_565 S
C262 C263 1.397 . S
C262 C279 1.394 1_565 S
C263 C262 1.397 . S
C263 C264 1.438 . S
C263 C268 1.429 . S
C264 C263 1.438 . S
C264 C265 1.428 . S
C264 C277 1.394 . S
C265 H257 0.949 . S
C265 C264 1.428 . S
C265 C266 1.345 . S
C266 H258 0.950 . S
C266 C265 1.345 . S
C266 C267 1.424 . S
C267 H259 0.951 . S
C267 C266 1.424 . S
C267 C268 1.347 . S
C268 H260 0.951 . S
C268 C263 1.429 . S
C268 C267 1.347 . S
H269 C270 0.951 1_655 S
C270 H269 0.951 1_455 S
C270 C276 1.265 . S
H271 C276 0.950 . S
H272 C280 0.949 . S
H273 C281 0.950 . S
H274 C282 0.951 . S
H275 C283 0.951 1_455 S
C276 C270 1.265 . S
C276 H271 0.950 . S
C276 C277 1.478 1_455 S
C277 C264 1.394 . S
C277 C276 1.478 1_655 S
C277 C278 1.397 1_565 S
C278 C277 1.397 1_545 S
C278 C279 1.438 . S
C278 C283 1.429 . S
C279 C262 1.394 1_545 S
C279 C278 1.438 . S
C279 C280 1.428 . S
C280 H272 0.949 . S
C280 C279 1.428 . S
C280 C281 1.345 . S
C281 H273 0.950 . S
C281 C280 1.345 . S
C281 C282 1.424 . S
C282 H274 0.951 . S
C282 C281 1.424 . S
C282 C283 1.347 . S
C283 H275 0.951 1_655 S
C283 C278 1.429 . S
C283 C282 1.347 . S
H284 C285 0.951 . S
C285 H284 0.951 . S
C285 C291 1.265 . S
H286 C291 0.950 . S
H287 C295 0.949 . S
H288 C296 0.950 . S
H289 C297 0.951 . S
H290 C298 0.951 . S
C291 C285 1.265 . S
C291 H286 0.950 . S
C291 C292 1.478 . S
C292 C291 1.478 . S
C292 C293 1.397 . S
C292 C309 1.394 . S
C293 C292 1.397 . S
C293 C294 1.438 . S
C293 C298 1.429 . S
C294 C293 1.438 . S
C294 C295 1.428 1_455 S
C294 C307 1.394 . S
C295 H287 0.949 . S
C295 C294 1.428 1_655 S
C295 C296 1.345 . S
C296 H288 0.950 . S
C296 C295 1.345 . S
C296 C297 1.424 1_655 S
C297 H289 0.951 . S
C297 C296 1.424 1_455 S
C297 C298 1.347 . S
C298 H290 0.951 . S
C298 C293 1.429 . S
C298 C297 1.347 . S
H299 C300 0.951 . S
C300 H299 0.951 . S
C300 C306 1.265 1_655 S
H301 C306 0.950 . S
H302 C310 0.949 . S
H303 C311 0.950 . S
H304 C312 0.951 . S
H305 C313 0.951 . S
C306 C300 1.265 1_455 S
C306 H301 0.950 . S
C306 C307 1.478 . S
C307 C294 1.394 . S
C307 C306 1.478 . S
C307 C308 1.397 . S
C308 C307 1.397 . S
C308 C309 1.438 . S
C308 C313 1.429 . S
C309 C292 1.394 . S
C309 C308 1.438 . S
C309 C310 1.428 . S
C310 H302 0.949 . S
C310 C309 1.428 . S
C310 C311 1.345 . S
C311 H303 0.950 . S
C311 C310 1.345 . S
C311 C312 1.424 . S
C312 H304 0.951 . S
C312 C311 1.424 . S
C312 C313 1.347 . S
C313 H305 0.951 . S
C313 C308 1.429 . S
C313 C312 1.347 . S
H314 C315 0.951 . S
C315 H314 0.951 . S
C315 C321 1.265 . S
H316 C321 0.950 1_545 S
H317 C325 0.949 . S
H318 C326 0.950 . S
H319 C327 0.951 . S
H320 C328 0.951 . S
C321 C315 1.265 . S
C321 H316 0.950 1_565 S
C321 C322 1.478 1_565 S
C322 C321 1.478 1_545 S
C322 C323 1.397 . S
C322 C339 1.394 1_545 S
C323 C322 1.397 . S
C323 C324 1.438 . S
C323 C328 1.429 . S
C324 C323 1.438 . S
C324 C325 1.428 . S
C324 C337 1.394 . S
C325 H317 0.949 . S
C325 C324 1.428 . S
C325 C326 1.345 . S
C326 H318 0.950 . S
C326 C325 1.345 . S
C326 C327 1.424 . S
C327 H319 0.951 . S
C327 C326 1.424 . S
C327 C328 1.347 . S
C328 H320 0.951 . S
C328 C323 1.429 . S
C328 C327 1.347 . S
H329 C330 0.951 . S
C330 H329 0.951 . S
C330 C336 1.265 . S
H331 C336 0.950 . S
H332 C340 0.949 . S
H333 C341 0.950 . S
H334 C342 0.951 . S
H335 C343 0.951 . S
C336 C330 1.265 . S
C336 H331 0.950 . S
C336 C337 1.478 . S
C337 C324 1.394 . S
C337 C336 1.478 . S
C337 C338 1.397 1_545 S
C338 C337 1.397 1_565 S
C338 C339 1.438 . S
C338 C343 1.429 . S
C339 C322 1.394 1_565 S
C339 C338 1.438 . S
C339 C340 1.428 . S
C340 H332 0.949 . S
C340 C339 1.428 . S
C340 C341 1.345 . S
C341 H333 0.950 . S
C341 C340 1.345 . S
C341 C342 1.424 . S
C342 H334 0.951 . S
C342 C341 1.424 . S
C342 C343 1.347 . S
C343 H335 0.951 . S
C343 C338 1.429 . S
C343 C342 1.347 . S
H344 C345 0.951 . S
C345 H344 0.951 . S
C345 C351 1.265 . S
H346 C351 0.950 . S
H347 C355 0.949 . S
H348 C356 0.950 . S
H349 C357 0.951 . S
H350 C358 0.951 . S
C351 C345 1.265 . S
C351 H346 0.950 . S
C351 C352 1.478 . S
C352 C351 1.478 . S
C352 C353 1.397 1_455 S
C352 C369 1.394 . S
C353 C352 1.397 1_655 S
C353 C354 1.438 . S
C353 C358 1.429 . S
C354 C353 1.438 . S
C354 C355 1.428 . S
C354 C367 1.394 . S
C355 H347 0.949 . S
C355 C354 1.428 . S
C355 C356 1.345 . S
C356 H348 0.950 . S
C356 C355 1.345 . S
C356 C357 1.424 . S
C357 H349 0.951 . S
C357 C356 1.424 . S
C357 C358 1.347 . S
C358 H350 0.951 . S
C358 C353 1.429 . S
C358 C357 1.347 . S
H359 C360 0.951 . S
C360 H359 0.951 . S
C360 C366 1.265 . S
H361 C366 0.950 . S
H362 C370 0.949 . S
H363 C371 0.950 . S
H364 C372 0.951 . S
H365 C373 0.951 . S
C366 C360 1.265 . S
C366 H361 0.950 . S
C366 C367 1.478 . S
C367 C354 1.394 . S
C367 C366 1.478 . S
C367 C368 1.397 1_655 S
C368 C367 1.397 1_455 S
C368 C369 1.438 . S
C368 C373 1.429 . S
C369 C352 1.394 . S
C369 C368 1.438 . S
C369 C370 1.428 . S
C370 H362 0.949 . S
C370 C369 1.428 . S
C370 C371 1.345 . S
C371 H363 0.950 . S
C371 C370 1.345 . S
C371 C372 1.424 . S
C372 H364 0.951 . S
C372 C371 1.424 . S
C372 C373 1.347 . S
C373 H365 0.951 . S
C373 C368 1.429 . S
C373 C372 1.347 . S
H374 C375 0.951 . S
C375 H374 0.951 . S
C375 C381 1.265 . S
H376 C381 0.950 . S
H377 C385 0.949 . S
H378 C386 0.950 . S
H379 C387 0.951 . S
H380 C388 0.951 . S
C381 C375 1.265 . S
C381 H376 0.950 . S
C381 C382 1.478 . S
C382 C381 1.478 . S
C382 C383 1.397 1_565 S
C382 C399 1.394 . S
C383 C382 1.397 1_545 S
C383 C384 1.438 . S
C383 C388 1.429 . S
C384 C383 1.438 . S
C384 C385 1.428 . S
C384 C397 1.394 . S
C385 H377 0.949 . S
C385 C384 1.428 . S
C385 C386 1.345 . S
C386 H378 0.950 . S
C386 C385 1.345 . S
C386 C387 1.424 . S
C387 H379 0.951 . S
C387 C386 1.424 . S
C387 C388 1.347 . S
C388 H380 0.951 . S
C388 C383 1.429 . S
C388 C387 1.347 . S
H389 C390 0.951 . S
C390 H389 0.951 . S
C390 C396 1.265 . S
H391 C396 0.950 . S
H392 C400 0.949 . S
H393 C401 0.950 . S
H394 C402 0.951 . S
H395 C403 0.951 . S
C396 C390 1.265 . S
C396 H391 0.950 . S
C396 C397 1.478 . S
C397 C384 1.394 . S
C397 C396 1.478 . S
C397 C398 1.397 1_545 S
C398 C397 1.397 1_565 S
C398 C399 1.438 . S
C398 C403 1.429 . S
C399 C382 1.394 . S
C399 C398 1.438 . S
C399 C400 1.428 . S
C400 H392 0.949 . S
C400 C399 1.428 . S
C400 C401 1.345 . S
C401 H393 0.950 . S
C401 C400 1.345 . S
C401 C402 1.424 . S
C402 H394 0.951 . S
C402 C401 1.424 . S
C402 C403 1.347 . S
C403 H395 0.951 . S
C403 C398 1.429 . S
C403 C402 1.347 . S
H404 C405 0.951 . S
C405 H404 0.951 . S
C405 C411 1.265 . S
H406 C411 0.950 . S
H407 C415 0.949 . S
H408 C416 0.950 . S
H409 C417 0.951 . S
H410 C418 0.951 1_554 S
C411 C405 1.265 . S
C411 H406 0.950 . S
C411 C412 1.478 . S
C412 C411 1.478 . S
C412 C413 1.397 1_554 S
C412 C429 1.394 . S
C413 C412 1.397 1_556 S
C413 C414 1.438 . S
C413 C418 1.429 . S
C414 C413 1.438 . S
C414 C415 1.428 . S
C414 C427 1.394 . S
C415 H407 0.949 . S
C415 C414 1.428 . S
C415 C416 1.345 . S
C416 H408 0.950 . S
C416 C415 1.345 . S
C416 C417 1.424 . S
C417 H409 0.951 . S
C417 C416 1.424 . S
C417 C418 1.347 . S
C418 H410 0.951 1_556 S
C418 C413 1.429 . S
C418 C417 1.347 . S
H419 C420 0.951 . S
C420 H419 0.951 . S
C420 C426 1.265 . S
H421 C426 0.950 . S
H422 C430 0.949 . S
H423 C431 0.950 . S
H424 C432 0.951 . S
H425 C433 0.951 1_556 S
C426 C420 1.265 . S
C426 H421 0.950 . S
C426 C427 1.478 . S
C427 C414 1.394 . S
C427 C426 1.478 . S
C427 C428 1.397 1_556 S
C428 C427 1.397 1_554 S
C428 C429 1.438 . S
C428 C433 1.429 . S
C429 C412 1.394 . S
C429 C428 1.438 . S
C429 C430 1.428 . S
C430 H422 0.949 . S
C430 C429 1.428 . S
C430 C431 1.345 . S
C431 H423 0.950 . S
C431 C430 1.345 . S
C431 C432 1.424 . S
C432 H424 0.951 . S
C432 C431 1.424 . S
C432 C433 1.347 . S
C433 H425 0.951 1_554 S
C433 C428 1.429 . S
C433 C432 1.347 . S
H434 C435 0.951 . S
C435 H434 0.951 . S
C435 C441 1.265 . S
H436 C441 0.950 . S
H437 C445 0.949 . S
H438 C446 0.950 . S
H439 C447 0.951 . S
H440 C448 0.951 1_556 S
C441 C435 1.265 . S
C441 H436 0.950 . S
C441 C442 1.478 . S
C442 C441 1.478 . S
C442 C443 1.397 1_556 S
C442 C459 1.394 1_455 S
C443 C442 1.397 1_554 S
C443 C444 1.438 1_565 S
C443 C448 1.429 . S
C444 C443 1.438 1_545 S
C444 C445 1.428 . S
C444 C457 1.394 1_455 S
C445 H437 0.949 . S
C445 C444 1.428 . S
C445 C446 1.345 . S
C446 H438 0.950 . S
C446 C445 1.345 . S
C446 C447 1.424 1_545 S
C447 H439 0.951 . S
C447 C446 1.424 1_565 S
C447 C448 1.347 . S
C448 H440 0.951 1_554 S
C448 C443 1.429 . S
C448 C447 1.347 . S
H449 C450 0.951 . S
C450 H449 0.951 . S
C450 C456 1.265 . S
H451 C456 0.950 . S
H452 C460 0.949 . S
H453 C461 0.950 . S
H454 C462 0.951 . S
H455 C463 0.951 1_554 S
C456 C450 1.265 . S
C456 H451 0.950 . S
C456 C457 1.478 . S
C457 C444 1.394 1_655 S
C457 C456 1.478 . S
C457 C458 1.397 1_554 S
C458 C457 1.397 1_556 S
C458 C459 1.438 1_545 S
C458 C463 1.429 . S
C459 C442 1.394 1_655 S
C459 C458 1.438 1_565 S
C459 C460 1.428 . S
C460 H452 0.949 . S
C460 C459 1.428 . S
C460 C461 1.345 . S
C461 H453 0.950 . S
C461 C460 1.345 . S
C461 C462 1.424 1_565 S
C462 H454 0.951 . S
C462 C461 1.424 1_545 S
C462 C463 1.347 . S
C463 H455 0.951 1_556 S
C463 C458 1.429 . S
C463 C462 1.347 . S
H464 C465 0.951 . S
C465 H464 0.951 . S
C465 C471 1.265 . S
H466 C471 0.950 . S
H467 C475 0.949 . S
H468 C476 0.950 . S
H469 C477 0.951 . S
H470 C478 0.951 . S
C471 C465 1.265 . S
C471 H466 0.950 . S
C471 C472 1.478 . S
C472 C471 1.478 . S
C472 C473 1.397 . S
C472 C489 1.394 . S
C473 C472 1.397 . S
C473 C474 1.438 . S
C473 C478 1.429 . S
C474 C473 1.438 . S
C474 C475 1.428 . S
C474 C487 1.394 . S
C475 H467 0.949 . S
C475 C474 1.428 . S
C475 C476 1.345 . S
C476 H468 0.950 . S
C476 C475 1.345 . S
C476 C477 1.424 . S
C477 H469 0.951 . S
C477 C476 1.424 . S
C477 C478 1.347 . S
C478 H470 0.951 . S
C478 C473 1.429 . S
C478 C477 1.347 . S
H479 C480 0.951 . S
C480 H479 0.951 . S
C480 C486 1.265 . S
H481 C486 0.950 . S
H482 C490 0.949 . S
H483 C491 0.950 . S
H484 C492 0.951 . S
H485 C493 0.951 . S
C486 C480 1.265 . S
C486 H481 0.950 . S
C486 C487 1.478 . S
C487 C474 1.394 . S
C487 C486 1.478 . S
C487 C488 1.397 . S
C488 C487 1.397 . S
C488 C489 1.438 . S
C488 C493 1.429 . S
C489 C472 1.394 . S
C489 C488 1.438 . S
C489 C490 1.428 . S
C490 H482 0.949 . S
C490 C489 1.428 . S
C490 C491 1.345 . S
C491 H483 0.950 . S
C491 C490 1.345 . S
C491 C492 1.424 . S
C492 H484 0.951 . S
C492 C491 1.424 . S
C492 C493 1.347 . S
C493 H485 0.951 . S
C493 C488 1.429 . S
C493 C492 1.347 . S
H494 C495 0.951 . S
C495 H494 0.951 . S
C495 C501 1.265 . S
H496 C501 0.950 . S
H497 C505 0.949 . S
H498 C506 0.950 . S
H499 C507 0.951 . S
H500 C508 0.951 . S
C501 C495 1.265 . S
C501 H496 0.950 . S
C501 C502 1.478 . S
C502 C501 1.478 . S
C502 C503 1.397 . S
C502 C519 1.394 . S
C503 C502 1.397 . S
C503 C504 1.438 . S
C503 C508 1.429 . S
C504 C503 1.438 . S
C504 C505 1.428 . S
C504 C517 1.394 . S
C505 H497 0.949 . S
C505 C504 1.428 . S
C505 C506 1.345 . S
C506 H498 0.950 . S
C506 C505 1.345 . S
C506 C507 1.424 . S
C507 H499 0.951 . S
C507 C506 1.424 . S
C507 C508 1.347 . S
C508 H500 0.951 . S
C508 C503 1.429 . S
C508 C507 1.347 . S
H509 C510 0.951 . S
C510 H509 0.951 . S
C510 C516 1.265 . S
H511 C516 0.950 . S
H512 C520 0.949 . S
H513 C521 0.950 . S
H514 C522 0.951 . S
H515 C523 0.951 . S
C516 C510 1.265 . S
C516 H511 0.950 . S
C516 C517 1.478 . S
C517 C504 1.394 . S
C517 C516 1.478 . S
C517 C518 1.397 . S
C518 C517 1.397 . S
C518 C519 1.438 . S
C518 C523 1.429 . S
C519 C502 1.394 . S
C519 C518 1.438 . S
C519 C520 1.428 . S
C520 H512 0.949 . S
C520 C519 1.428 . S
C520 C521 1.345 . S
C521 H513 0.950 . S
C521 C520 1.345 . S
C521 C522 1.424 . S
C522 H514 0.951 . S
C522 C521 1.424 . S
C522 C523 1.347 . S
C523 H515 0.951 . S
C523 C518 1.429 . S
C523 C522 1.347 . S
H524 C525 0.951 . S
C525 H524 0.951 . S
C525 C531 1.265 . S
H526 C531 0.950 . S
H527 C535 0.949 . S
H528 C536 0.950 . S
H529 C537 0.951 . S
H530 C538 0.951 . S
C531 C525 1.265 . S
C531 H526 0.950 . S
C531 C532 1.478 . S
C532 C531 1.478 . S
C532 C533 1.397 . S
C532 C549 1.394 . S
C533 C532 1.397 . S
C533 C534 1.438 . S
C533 C538 1.429 . S
C534 C533 1.438 . S
C534 C535 1.428 . S
C534 C547 1.394 . S
C535 H527 0.949 . S
C535 C534 1.428 . S
C535 C536 1.345 . S
C536 H528 0.950 . S
C536 C535 1.345 . S
C536 C537 1.424 . S
C537 H529 0.951 . S
C537 C536 1.424 . S
C537 C538 1.347 . S
C538 H530 0.951 . S
C538 C533 1.429 . S
C538 C537 1.347 . S
H539 C540 0.951 . S
C540 H539 0.951 . S
C540 C546 1.265 . S
H541 C546 0.950 . S
H542 C550 0.949 . S
H543 C551 0.950 . S
H544 C552 0.951 . S
H545 C553 0.951 . S
C546 C540 1.265 . S
C546 H541 0.950 . S
C546 C547 1.478 . S
C547 C534 1.394 . S
C547 C546 1.478 . S
C547 C548 1.397 . S
C548 C547 1.397 . S
C548 C549 1.438 . S
C548 C553 1.429 . S
C549 C532 1.394 . S
C549 C548 1.438 . S
C549 C550 1.428 . S
C550 H542 0.949 . S
C550 C549 1.428 . S
C550 C551 1.345 . S
C551 H543 0.950 . S
C551 C550 1.345 . S
C551 C552 1.424 . S
C552 H544 0.951 . S
C552 C551 1.424 . S
C552 C553 1.347 . S
C553 H545 0.951 . S
C553 C548 1.429 . S
C553 C552 1.347 . S
H554 C555 0.951 . S
C555 H554 0.951 . S
C555 C561 1.265 . S
H556 C561 0.950 . S
H557 C565 0.949 . S
H558 C566 0.950 . S
H559 C567 0.951 . S
H560 C568 0.951 . S
C561 C555 1.265 . S
C561 H556 0.950 . S
C561 C562 1.478 . S
C562 C561 1.478 . S
C562 C563 1.397 . S
C562 C579 1.394 . S
C563 C562 1.397 . S
C563 C564 1.438 . S
C563 C568 1.429 . S
C564 C563 1.438 . S
C564 C565 1.428 . S
C564 C577 1.394 . S
C565 H557 0.949 . S
C565 C564 1.428 . S
C565 C566 1.345 . S
C566 H558 0.950 . S
C566 C565 1.345 . S
C566 C567 1.424 . S
C567 H559 0.951 . S
C567 C566 1.424 . S
C567 C568 1.347 . S
C568 H560 0.951 . S
C568 C563 1.429 . S
C568 C567 1.347 . S
H569 C570 0.951 . S
C570 H569 0.951 . S
C570 C576 1.265 . S
H571 C576 0.950 . S
H572 C580 0.949 . S
H573 C581 0.950 . S
H574 C582 0.951 . S
H575 C583 0.951 . S
C576 C570 1.265 . S
C576 H571 0.950 . S
C576 C577 1.478 . S
C577 C564 1.394 . S
C577 C576 1.478 . S
C577 C578 1.397 . S
C578 C577 1.397 . S
C578 C579 1.438 . S
C578 C583 1.429 . S
C579 C562 1.394 . S
C579 C578 1.438 . S
C579 C580 1.428 . S
C580 H572 0.949 . S
C580 C579 1.428 . S
C580 C581 1.345 . S
C581 H573 0.950 . S
C581 C580 1.345 . S
C581 C582 1.424 . S
C582 H574 0.951 . S
C582 C581 1.424 . S
C582 C583 1.347 . S
C583 H575 0.951 . S
C583 C578 1.429 . S
C583 C582 1.347 . S
C105 C5 1.163 . S
C120 C34 1.086 . S
C135 C47 1.090 . S
C150 C18 1.168 . S
C165 C31 1.177 . S
C180 C8 1.162 . S
C195 C44 1.120 . S
C210 C21 1.186 . S
C225 C86 1.092 . S
C240 C57 1.169 . S
C255 C70 1.141 . S
C270 C99 1.185 . S
C285 C83 1.070 . S
C300 C60 1.150 . S
C315 C96 1.126 . S
C330 C73 1.186 . S
C345 C0 1.521 . S
C360 C52 1.521 . S
C375 C13 1.512 . S
C390 C65 1.512 . S
C405 C26 1.462 . S
C420 C78 1.462 . S
C435 C91 1.512 . S
C450 C39 1.512 . S
C465 C10 1.511 . S
C480 C23 1.499 . S
C495 C49 1.504 . S
C510 C36 1.507 . S
C525 C75 1.504 . S
C540 C62 1.506 . S
C555 C88 1.504 . S
C570 C101 1.502 . S
