# Generated by pormake.
# Topology vbm, (6)-cn, num edge types: 1
# Building blocks:
#     Node 0, Type 0, BuildingBlock: CUKXOW_clean_sbu_0, # of connection points: 6
#     Node 1, Type 0, BuildingBlock: CUKXOW_clean_sbu_0, # of connection points: 6
#     Node 2, Type 0, BuildingBlock: CUKXOW_clean_sbu_0, # of connection points: 6
#     Node 3, Type 0, BuildingBlock: CUKXOW_clean_sbu_0, # of connection points: 6
#     Node 4, Type 0, BuildingBlock: CUKXOW_clean_sbu_0, # of connection points: 6
#     Node 5, Type 0, BuildingBlock: CUKXOW_clean_sbu_0, # of connection points: 6
#     Node 6, Type 0, BuildingBlock: CUKXOW_clean_sbu_0, # of connection points: 6
#     Node 7, Type 0, BuildingBlock: CUKXOW_clean_sbu_0, # of connection points: 6
#     Node 8, Type 0, BuildingBlock: CUKXOW_clean_sbu_0, # of connection points: 6
#     Node 9, Type 0, BuildingBlock: CUKXOW_clean_sbu_0, # of connection points: 6
#     Node 10, Type 0, BuildingBlock: CUKXOW_clean_sbu_0, # of connection points: 6
#     Node 11, Type 0, BuildingBlock: CUKXOW_clean_sbu_0, # of connection points: 6
#     Node 12, Type 0, BuildingBlock: CUKXOW_clean_sbu_0, # of connection points: 6
#     Node 13, Type 0, BuildingBlock: CUKXOW_clean_sbu_0, # of connection points: 6
#     Node 14, Type 0, BuildingBlock: CUKXOW_clean_sbu_0, # of connection points: 6
#     Node 15, Type 0, BuildingBlock: CUKXOW_clean_sbu_0, # of connection points: 6
#     Edge 16, Type (0, 0), BuildingBlock: OJICUG_clean_linker_0, # of connection points: 2
#     Edge 17, Type (0, 0), BuildingBlock: OJICUG_clean_linker_0, # of connection points: 2
#     Edge 18, Type (0, 0), BuildingBlock: OJICUG_clean_linker_0, # of connection points: 2
#     Edge 19, Type (0, 0), BuildingBlock: OJICUG_clean_linker_0, # of connection points: 2
#     Edge 20, Type (0, 0), BuildingBlock: OJICUG_clean_linker_0, # of connection points: 2
#     Edge 21, Type (0, 0), BuildingBlock: OJICUG_clean_linker_0, # of connection points: 2
#     Edge 22, Type (0, 0), BuildingBlock: OJICUG_clean_linker_0, # of connection points: 2
#     Edge 23, Type (0, 0), BuildingBlock: OJICUG_clean_linker_0, # of connection points: 2
#     Edge 24, Type (0, 0), BuildingBlock: OJICUG_clean_linker_0, # of connection points: 2
#     Edge 25, Type (0, 0), BuildingBlock: OJICUG_clean_linker_0, # of connection points: 2
#     Edge 26, Type (0, 0), BuildingBlock: OJICUG_clean_linker_0, # of connection points: 2
#     Edge 27, Type (0, 0), BuildingBlock: OJICUG_clean_linker_0, # of connection points: 2
#     Edge 28, Type (0, 0), BuildingBlock: OJICUG_clean_linker_0, # of connection points: 2
#     Edge 29, Type (0, 0), BuildingBlock: OJICUG_clean_linker_0, # of connection points: 2
#     Edge 30, Type (0, 0), BuildingBlock: OJICUG_clean_linker_0, # of connection points: 2
#     Edge 31, Type (0, 0), BuildingBlock: OJICUG_clean_linker_0, # of connection points: 2
#     Edge 32, Type (0, 0), BuildingBlock: OJICUG_clean_linker_0, # of connection points: 2
#     Edge 33, Type (0, 0), BuildingBlock: OJICUG_clean_linker_0, # of connection points: 2
#     Edge 34, Type (0, 0), BuildingBlock: OJICUG_clean_linker_0, # of connection points: 2
#     Edge 35, Type (0, 0), BuildingBlock: OJICUG_clean_linker_0, # of connection points: 2
#     Edge 36, Type (0, 0), BuildingBlock: OJICUG_clean_linker_0, # of connection points: 2
#     Edge 37, Type (0, 0), BuildingBlock: OJICUG_clean_linker_0, # of connection points: 2
#     Edge 38, Type (0, 0), BuildingBlock: OJICUG_clean_linker_0, # of connection points: 2
#     Edge 39, Type (0, 0), BuildingBlock: OJICUG_clean_linker_0, # of connection points: 2
#     Edge 40, Type (0, 0), BuildingBlock: OJICUG_clean_linker_0, # of connection points: 2
#     Edge 41, Type (0, 0), BuildingBlock: OJICUG_clean_linker_0, # of connection points: 2
#     Edge 42, Type (0, 0), BuildingBlock: OJICUG_clean_linker_0, # of connection points: 2
#     Edge 43, Type (0, 0), BuildingBlock: OJICUG_clean_linker_0, # of connection points: 2
#     Edge 44, Type (0, 0), BuildingBlock: OJICUG_clean_linker_0, # of connection points: 2
#     Edge 45, Type (0, 0), BuildingBlock: OJICUG_clean_linker_0, # of connection points: 2
#     Edge 46, Type (0, 0), BuildingBlock: OJICUG_clean_linker_0, # of connection points: 2
#     Edge 47, Type (0, 0), BuildingBlock: OJICUG_clean_linker_0, # of connection points: 2
#     Edge 48, Type (0, 0), BuildingBlock: OJICUG_clean_linker_0, # of connection points: 2
#     Edge 49, Type (0, 0), BuildingBlock: OJICUG_clean_linker_0, # of connection points: 2
#     Edge 50, Type (0, 0), BuildingBlock: OJICUG_clean_linker_0, # of connection points: 2
#     Edge 51, Type (0, 0), BuildingBlock: OJICUG_clean_linker_0, # of connection points: 2
#     Edge 52, Type (0, 0), BuildingBlock: OJICUG_clean_linker_0, # of connection points: 2
#     Edge 53, Type (0, 0), BuildingBlock: OJICUG_clean_linker_0, # of connection points: 2
#     Edge 54, Type (0, 0), BuildingBlock: OJICUG_clean_linker_0, # of connection points: 2
#     Edge 55, Type (0, 0), BuildingBlock: OJICUG_clean_linker_0, # of connection points: 2
#     Edge 56, Type (0, 0), BuildingBlock: OJICUG_clean_linker_0, # of connection points: 2
#     Edge 57, Type (0, 0), BuildingBlock: OJICUG_clean_linker_0, # of connection points: 2
#     Edge 58, Type (0, 0), BuildingBlock: OJICUG_clean_linker_0, # of connection points: 2
#     Edge 59, Type (0, 0), BuildingBlock: OJICUG_clean_linker_0, # of connection points: 2
#     Edge 60, Type (0, 0), BuildingBlock: OJICUG_clean_linker_0, # of connection points: 2
#     Edge 61, Type (0, 0), BuildingBlock: OJICUG_clean_linker_0, # of connection points: 2
#     Edge 62, Type (0, 0), BuildingBlock: OJICUG_clean_linker_0, # of connection points: 2
#     Edge 63, Type (0, 0), BuildingBlock: OJICUG_clean_linker_0, # of connection points: 2
# Relax obj value: 0.135
# Max RMSD: 0.184
# Mean RMSD: 0.184
data_MOF--net-vbm--node1-CUKXOW_clean_sbu_0--edge1-OJICUG_clean_linker_0
_symmetry_space_group_name_H-M    P1
_symmetry_Int_Tables_number       1
_symmetry_cell_setting            triclinic
loop_
_symmetry_equiv_pos_as_xyz
'x, y, z'
_cell_length_a     55.962242
_cell_length_b     10.282697
_cell_length_c     44.502756
_cell_angle_alpha  90.018517
_cell_angle_beta   90.000372
_cell_angle_gamma 89.983367
loop_
_atom_site_label
_atom_site_type_symbol
_atom_site_fract_x
_atom_site_fract_y
_atom_site_fract_z
_atom_type_partial_charge
Tb0 Tb 0.08792 0.13962 0.12309 0.0
C1 C 0.11516 0.17385 0.06187 0.0
Tb2 Tb 0.14517 0.17206 0.1221 0.0
O3 O 0.07962 0.35035 0.12485 0.0
O4 O 0.11397 0.28605 0.12478 0.0
O5 O 0.09666 0.11914 0.07574 0.0
C6 C 0.19001 0.25911 0.12121 0.0
O7 O 0.13403 0.22149 0.07643 0.0
C8 C 0.13175 0.92445 0.11963 0.0
C9 C 0.11822 0.11227 0.18298 0.0
O10 O 0.17874 0.20846 0.09858 0.0
O11 O 0.17578 0.26451 0.14428 0.0
O12 O 0.15387 0.96228 0.11986 0.0
O13 O 0.11923 1.02572 0.12036 0.0
O14 O 0.13734 0.16608 0.17018 0.0
O15 O 0.09861 0.07852 0.16794 0.0
C16 C 0.04215 0.0681 0.12381 0.0
O17 O 0.05476 0.0991 0.14723 0.0
O18 O 0.05566 0.07175 0.10005 0.0
C19 C 0.10169 0.38786 0.12514 0.0
Tb20 Tb 0.89347 0.9739 0.12309 0.0
C21 C 0.8662 0.94008 0.06188 0.0
Tb22 Tb 0.83622 0.94148 0.12214 0.0
O23 O 0.90177 0.76317 0.12488 0.0
O24 O 0.86742 0.82747 0.12479 0.0
O25 O 0.88469 0.99483 0.07577 0.0
C26 C 0.79139 0.85425 0.12126 0.0
O27 O 0.84735 0.89226 0.07643 0.0
C28 C 0.84964 0.18907 0.11967 0.0
C29 C 0.86321 1.00141 0.18302 0.0
O30 O 0.80266 0.9048 0.09862 0.0
O31 O 0.80562 0.84907 0.14434 0.0
O32 O 0.82751 0.15124 0.11993 0.0
O33 O 0.86216 0.08782 0.12039 0.0
O34 O 0.84407 0.94768 0.17022 0.0
O35 O 0.88282 1.03503 0.16796 0.0
C36 C 0.93924 1.04537 0.12375 0.0
O37 O 0.9266 1.01548 0.14721 0.0
O38 O 0.92577 1.04064 0.09997 0.0
C39 C 0.8797 0.72567 0.12516 0.0
Tb40 Tb 0.08812 0.97687 0.37046 0.0
C41 C 0.11541 0.94309 0.43164 0.0
Tb42 Tb 0.14538 0.9443 0.37136 0.0
O43 O 0.07983 0.76615 0.36875 0.0
O44 O 0.11418 0.83039 0.36874 0.0
O45 O 0.0969 0.99778 0.41778 0.0
C46 C 0.19021 0.85696 0.37223 0.0
O47 O 0.13426 0.89525 0.41707 0.0
C48 C 0.13196 0.19193 0.37384 0.0
C49 C 0.11834 1.00406 0.31052 0.0
O50 O 0.17893 0.90739 0.39488 0.0
O51 O 0.17599 0.85196 0.34915 0.0
O52 O 0.15408 0.15402 0.37357 0.0
O53 O 0.11944 0.09072 0.37312 0.0
O54 O 0.13748 0.95019 0.32329 0.0
O55 O 0.09876 1.03797 0.3256 0.0
C56 C 0.04231 1.04787 0.36973 0.0
O57 O 0.05494 1.0171 0.34632 0.0
O58 O 0.05582 1.04439 0.39349 0.0
C59 C 0.1019 0.7286 0.36842 0.0
Tb60 Tb 0.89356 0.13829 0.37044 0.0
C61 C 0.86632 0.17249 0.43166 0.0
Tb62 Tb 0.83632 0.17077 0.37143 0.0
O63 O 0.90185 0.34898 0.36858 0.0
O64 O 0.8675 0.28475 0.36872 0.0
O65 O 0.8848 0.11755 0.41777 0.0
C66 C 0.79148 0.25786 0.37232 0.0
O67 O 0.84746 0.2203 0.41711 0.0
C68 C 0.84974 0.92317 0.37394 0.0
C69 C 0.86327 0.11048 0.31055 0.0
O70 O 0.80276 0.20727 0.39495 0.0
O71 O 0.80571 0.2632 0.34925 0.0
O72 O 0.82762 0.96107 0.37369 0.0
O73 O 0.86226 1.02438 0.3732 0.0
O74 O 0.84414 0.1643 0.32335 0.0
O75 O 0.88289 0.07695 0.32559 0.0
C76 C 0.93937 0.06728 0.3698 0.0
O77 O 0.9267 0.09666 0.34632 0.0
O78 O 0.92591 0.07214 0.39358 0.0
C79 C 0.87978 0.38652 0.36832 0.0
Tb80 Tb 0.83626 0.94204 0.87137 0.0
C81 C 0.86326 1.002 0.81052 0.0
Tb82 Tb 0.89351 0.97444 0.87044 0.0
O83 O 0.82757 0.15183 0.87348 0.0
O84 O 0.8622 0.08834 0.87321 0.0
O85 O 0.84413 0.94811 0.8233 0.0
C86 C 0.93929 1.04587 0.8698 0.0
O87 O 0.88285 1.03574 0.8256 0.0
C88 C 0.87975 0.72622 0.86826 0.0
C89 C 0.86624 0.94037 0.93165 0.0
O90 O 0.92666 1.01574 0.84634 0.0
O91 O 0.92581 1.04142 0.89356 0.0
O92 O 0.90182 0.76374 0.86851 0.0
O93 O 0.86746 0.828 0.86879 0.0
O94 O 0.88475 0.99497 0.91779 0.0
O95 O 0.84737 0.89281 0.91708 0.0
C96 C 0.79144 0.85495 0.87229 0.0
O97 O 0.80269 0.90597 0.89489 0.0
O98 O 0.80568 0.84923 0.84923 0.0
C99 C 0.84969 0.18964 0.87379 0.0
Tb100 Tb 0.14523 0.17199 0.87141 0.0
C101 C 0.11827 0.11192 0.81054 0.0
Tb102 Tb 0.08798 0.13958 0.87041 0.0
O103 O 0.15392 0.9622 0.87353 0.0
O104 O 0.11929 1.02569 0.87322 0.0
O105 O 0.13739 0.16583 0.82334 0.0
C106 C 0.0422 0.06814 0.86979 0.0
O107 O 0.09867 0.0782 0.82558 0.0
C108 C 0.10175 0.3878 0.86825 0.0
C109 C 0.11521 0.17372 0.93165 0.0
O110 O 0.05484 0.09795 0.84632 0.0
O111 O 0.05568 0.07291 0.89356 0.0
O112 O 0.07968 0.35028 0.86846 0.0
O113 O 0.11403 0.28603 0.8688 0.0
O114 O 0.09672 0.11904 0.91776 0.0
O115 O 0.13409 0.22132 0.91711 0.0
C116 C 0.19006 0.25904 0.87233 0.0
O117 O 0.17881 0.20803 0.89493 0.0
O118 O 0.17581 0.26479 0.84928 0.0
C119 C 0.1318 0.92439 0.87381 0.0
Tb120 Tb 0.83635 0.17138 0.62215 0.0
C121 C 0.8633 0.11116 0.68302 0.0
Tb122 Tb 0.8936 0.13883 0.62314 0.0
O123 O 0.82766 0.96163 0.62005 0.0
O124 O 0.8623 1.02501 0.62037 0.0
O125 O 0.84419 0.16517 0.67023 0.0
C126 C 0.9394 0.0677 0.62387 0.0
O127 O 0.8829 0.07735 0.66795 0.0
C128 C 0.87983 0.38709 0.62522 0.0
C129 C 0.86638 0.17306 0.56189 0.0
O130 O 0.92682 0.09953 0.64726 0.0
O131 O 0.92585 0.07023 0.60014 0.0
O132 O 0.9019 0.34952 0.62498 0.0
O133 O 0.86755 0.28534 0.62473 0.0
O134 O 0.88491 0.11867 0.57577 0.0
O135 O 0.84747 0.22047 0.57644 0.0
C136 C 0.79152 0.25848 0.6212 0.0
O137 O 0.80275 0.20699 0.59864 0.0
O138 O 0.80578 0.26468 0.64423 0.0
C139 C 0.84978 0.92376 0.61977 0.0
Tb140 Tb 0.14536 0.94342 0.62214 0.0
C141 C 0.11834 1.00314 0.683 0.0
Tb142 Tb 0.08812 0.97597 0.62305 0.0
O143 O 0.15406 0.15317 0.62009 0.0
O144 O 0.11942 0.0898 0.62031 0.0
O145 O 0.13748 0.94945 0.67021 0.0
C146 C 0.04232 1.04731 0.62356 0.0
O147 O 0.09873 1.0368 0.66795 0.0
C148 C 0.10188 0.72771 0.62526 0.0
C149 C 0.11543 0.94277 0.56186 0.0
O150 O 0.05506 1.02004 0.64712 0.0
O151 O 0.05572 1.04013 0.59975 0.0
O152 O 0.07981 0.76531 0.62505 0.0
O153 O 0.11417 0.82943 0.62469 0.0
O154 O 0.09696 0.99772 0.57577 0.0
O155 O 0.13426 0.89453 0.57641 0.0
C156 C 0.19018 0.85604 0.62121 0.0
O157 O 0.17894 0.90717 0.59862 0.0
O158 O 0.17593 0.85039 0.64426 0.0
C159 C 0.13194 0.19105 0.61977 0.0
Tb160 Tb 0.58798 0.63708 0.12308 0.0
C161 C 0.61524 0.67106 0.06188 0.0
Tb162 Tb 0.64523 0.66947 0.12214 0.0
O163 O 0.57968 0.84782 0.12483 0.0
O164 O 0.61403 0.78349 0.12479 0.0
O165 O 0.59674 0.61635 0.07575 0.0
C166 C 0.69006 0.75654 0.12125 0.0
O167 O 0.6341 0.71879 0.07645 0.0
C168 C 0.6318 0.42188 0.11966 0.0
C169 C 0.61824 0.60957 0.18299 0.0
O170 O 0.6788 0.70575 0.09863 0.0
O171 O 0.67582 0.76206 0.14431 0.0
O172 O 0.65393 0.45971 0.11992 0.0
O173 O 0.61929 0.52314 0.12038 0.0
O174 O 0.63737 0.66337 0.17021 0.0
O175 O 0.59864 0.57587 0.16793 0.0
C176 C 0.54218 0.56613 0.12378 0.0
O177 O 0.5548 0.59682 0.14721 0.0
O178 O 0.55568 0.56968 0.10003 0.0
C179 C 0.60176 0.8853 0.12514 0.0
Tb180 Tb 0.39344 0.4757 0.12304 0.0
C181 C 0.36615 0.44222 0.06186 0.0
Tb182 Tb 0.33619 0.44334 0.12213 0.0
O183 O 0.40174 0.26497 0.12481 0.0
O184 O 0.36739 0.32929 0.12474 0.0
O185 O 0.38463 0.49706 0.07574 0.0
C186 C 0.29136 0.35627 0.12123 0.0
O187 O 0.34731 0.39421 0.07641 0.0
C188 C 0.34961 0.69092 0.11967 0.0
C189 C 0.36323 0.503 0.18298 0.0
O190 O 0.30263 0.4068 0.0986 0.0
O191 O 0.30558 0.351 0.14431 0.0
O192 O 0.32749 0.65309 0.11994 0.0
O193 O 0.36213 0.58967 0.12037 0.0
O194 O 0.34408 0.44932 0.1702 0.0
O195 O 0.38282 0.5367 0.16792 0.0
C196 C 0.43924 0.54668 0.12368 0.0
O197 O 0.42657 0.51741 0.14716 0.0
O198 O 0.42579 0.54169 0.09989 0.0
C199 C 0.37967 0.22748 0.12511 0.0
Tb200 Tb 0.58805 0.47409 0.37045 0.0
C201 C 0.61532 0.44045 0.43165 0.0
Tb202 Tb 0.64529 0.44155 0.37138 0.0
O203 O 0.57974 0.26341 0.36868 0.0
O204 O 0.6141 0.32758 0.36876 0.0
O205 O 0.59684 0.49528 0.41776 0.0
C206 C 0.69012 0.35443 0.3723 0.0
O207 O 0.63417 0.39245 0.41709 0.0
C208 C 0.63187 0.68919 0.37384 0.0
C209 C 0.61829 0.50118 0.31052 0.0
O210 O 0.67884 0.40508 0.39492 0.0
O211 O 0.6759 0.34906 0.34922 0.0
O212 O 0.65399 0.65129 0.37358 0.0
O213 O 0.61936 0.58797 0.37314 0.0
O214 O 0.63743 0.44744 0.32331 0.0
O215 O 0.59869 0.53498 0.32557 0.0
C216 C 0.54229 0.54554 0.36979 0.0
O217 O 0.55493 0.5157 0.34632 0.0
O218 O 0.55575 0.54083 0.39357 0.0
C219 C 0.60182 0.22583 0.36839 0.0
Tb220 Tb 0.39363 0.63884 0.37042 0.0
C221 C 0.36639 0.67279 0.43165 0.0
Tb222 Tb 0.33638 0.67147 0.37141 0.0
O223 O 0.40195 0.84952 0.36866 0.0
O224 O 0.36759 0.78539 0.36877 0.0
O225 O 0.38488 0.61803 0.41775 0.0
C226 C 0.29155 0.75868 0.3723 0.0
O227 O 0.34753 0.72069 0.4171 0.0
C228 C 0.34982 0.42383 0.37384 0.0
C229 C 0.36334 0.61151 0.31052 0.0
O230 O 0.30279 0.70766 0.3949 0.0
O231 O 0.30581 0.76435 0.34926 0.0
O232 O 0.32769 0.46171 0.37361 0.0
O233 O 0.36233 0.52507 0.37312 0.0
O234 O 0.34422 0.66531 0.32333 0.0
O235 O 0.38296 0.57779 0.32555 0.0
C236 C 0.43939 0.56707 0.36973 0.0
O237 O 0.42677 0.59764 0.34629 0.0
O238 O 0.4259 0.5713 0.3935 0.0
C239 C 0.37988 0.88713 0.36839 0.0
Tb240 Tb 0.33624 0.44315 0.87136 0.0
C241 C 0.36327 0.50253 0.81051 0.0
Tb242 Tb 0.3935 0.47552 0.87045 0.0
O243 O 0.32755 0.65294 0.87343 0.0
O244 O 0.36219 0.58946 0.87318 0.0
O245 O 0.34414 0.44873 0.8233 0.0
C246 C 0.43929 0.54666 0.86984 0.0
O247 O 0.38285 0.53645 0.82558 0.0
C248 C 0.37973 0.22731 0.8683 0.0
C249 C 0.3662 0.44204 0.93164 0.0
O250 O 0.42663 0.51731 0.84636 0.0
O251 O 0.42583 0.54166 0.89362 0.0
O252 O 0.4018 0.26482 0.86855 0.0
O253 O 0.36744 0.32908 0.86883 0.0
O254 O 0.3847 0.4967 0.91777 0.0
O255 O 0.34735 0.39417 0.91708 0.0
C256 C 0.29141 0.35616 0.87229 0.0
O257 O 0.30268 0.40694 0.8949 0.0
O258 O 0.30564 0.3506 0.84922 0.0
C259 C 0.34967 0.69075 0.87374 0.0
Tb260 Tb 0.64527 0.67024 0.87141 0.0
C261 C 0.61829 0.61055 0.81053 0.0
Tb262 Tb 0.58802 0.63786 0.87044 0.0
O263 O 0.65397 0.46046 0.87348 0.0
O264 O 0.61933 0.52393 0.87318 0.0
O265 O 0.6374 0.66439 0.82334 0.0
C266 C 0.54223 0.56677 0.86981 0.0
O267 O 0.59869 0.57672 0.82558 0.0
C268 C 0.60179 0.88608 0.86832 0.0
C269 C 0.61528 0.67144 0.93167 0.0
O270 O 0.55488 0.59637 0.84634 0.0
O271 O 0.5557 0.5715 0.89358 0.0
O272 O 0.57972 0.84857 0.86854 0.0
O273 O 0.61408 0.7843 0.86885 0.0
O274 O 0.59678 0.61683 0.91776 0.0
O275 O 0.63415 0.71923 0.91713 0.0
C276 C 0.6901 0.75736 0.87232 0.0
O277 O 0.67885 0.70646 0.89492 0.0
O278 O 0.67585 0.76297 0.84926 0.0
C279 C 0.63185 0.42265 0.87376 0.0
Tb280 Tb 0.33632 0.67037 0.62211 0.0
C281 C 0.3633 0.61052 0.68297 0.0
Tb282 Tb 0.39357 0.63781 0.62308 0.0
O283 O 0.32762 0.46062 0.61999 0.0
O284 O 0.36226 0.52398 0.6203 0.0
O285 O 0.34419 0.6645 0.67018 0.0
C286 C 0.43936 0.56656 0.62373 0.0
O287 O 0.38289 0.57658 0.66791 0.0
C288 C 0.37979 0.88607 0.62523 0.0
C289 C 0.36632 0.67189 0.56186 0.0
O290 O 0.42672 0.59667 0.64719 0.0
O291 O 0.42587 0.57087 0.59996 0.0
O292 O 0.40186 0.8485 0.625 0.0
O293 O 0.36751 0.78433 0.6247 0.0
O294 O 0.38483 0.61718 0.57573 0.0
O295 O 0.34745 0.71954 0.57641 0.0
C296 C 0.2915 0.75769 0.62121 0.0
O297 O 0.30275 0.70681 0.59859 0.0
O298 O 0.30573 0.76314 0.64427 0.0
C299 C 0.34974 0.42273 0.61971 0.0
Tb300 Tb 0.64532 0.44256 0.62213 0.0
C301 C 0.61832 0.50235 0.68298 0.0
Tb302 Tb 0.58808 0.47508 0.62307 0.0
O303 O 0.65402 0.6523 0.62001 0.0
O304 O 0.61938 0.58894 0.6203 0.0
O305 O 0.63743 0.44837 0.67019 0.0
C306 C 0.54228 0.54632 0.62368 0.0
O307 O 0.59873 0.53629 0.66792 0.0
C308 C 0.60185 0.22683 0.62525 0.0
C309 C 0.61535 0.44105 0.56186 0.0
O310 O 0.55495 0.51703 0.64716 0.0
O311 O 0.55575 0.54121 0.5999 0.0
O312 O 0.57978 0.26441 0.62501 0.0
O313 O 0.61413 0.32857 0.62471 0.0
O314 O 0.59685 0.49585 0.57574 0.0
O315 O 0.63421 0.39329 0.57642 0.0
C316 C 0.69016 0.35545 0.62123 0.0
O317 O 0.67887 0.40584 0.59858 0.0
O318 O 0.67594 0.35034 0.64432 0.0
C319 C 0.63189 0.69018 0.61971 0.0
C320 C 0.22828 0.2987 0.14871 0.0
C321 C 0.21577 0.28832 0.12146 0.0
H322 H 0.26237 0.32485 0.16999 0.0
C323 C 0.22835 0.2974 0.09427 0.0
H324 H 0.21898 0.29065 0.16998 0.0
C325 C 0.25302 0.31793 0.09427 0.0
C326 C 0.2656 0.32707 0.12147 0.0
H327 H 0.21911 0.28894 0.07297 0.0
H328 H 0.26227 0.32635 0.07297 0.0
C329 C 0.25308 0.31676 0.14872 0.0
C330 C 0.75307 0.81545 0.09431 0.0
C331 C 0.76564 0.8249 0.12151 0.0
H332 H 0.71917 0.78609 0.07301 0.0
C333 C 0.75312 0.81473 0.14876 0.0
H334 H 0.76232 0.82374 0.07301 0.0
C335 C 0.72832 0.79652 0.14875 0.0
C336 C 0.71582 0.78585 0.1215 0.0
H337 H 0.76241 0.82305 0.17003 0.0
H338 H 0.71902 0.7886 0.17002 0.0
C339 C 0.7284 0.79478 0.09431 0.0
C340 C 0.25319 0.79696 0.39922 0.0
C341 C 0.26579 0.78809 0.37204 0.0
H342 H 0.21926 0.82604 0.4205 0.0
C343 C 0.2533 0.79898 0.34478 0.0
H344 H 0.26241 0.7881 0.42053 0.0
C345 C 0.22851 0.81734 0.34476 0.0
C346 C 0.21597 0.82747 0.372 0.0
H347 H 0.26262 0.7911 0.32352 0.0
H348 H 0.21923 0.82582 0.32349 0.0
C349 C 0.22852 0.8178 0.3992 0.0
C350 C 0.75314 0.29606 0.39926 0.0
C351 C 0.76572 0.28694 0.37206 0.0
H352 H 0.71921 0.32487 0.42055 0.0
C353 C 0.7532 0.29709 0.34481 0.0
H354 H 0.76238 0.28777 0.42056 0.0
C355 C 0.7284 0.31497 0.34481 0.0
C356 C 0.71588 0.32533 0.37205 0.0
H357 H 0.76251 0.28899 0.32355 0.0
H358 H 0.7191 0.32289 0.32354 0.0
C359 C 0.72846 0.31641 0.39925 0.0
C360 C 0.72844 0.79583 0.89925 0.0
C361 C 0.71586 0.78665 0.87206 0.0
H362 H 0.76236 0.82498 0.92054 0.0
C363 C 0.72837 0.79704 0.84481 0.0
H364 H 0.7192 0.78736 0.92056 0.0
C365 C 0.75316 0.81519 0.8448 0.0
C366 C 0.76568 0.82563 0.87204 0.0
H367 H 0.71906 0.78892 0.82355 0.0
H368 H 0.76245 0.82328 0.82353 0.0
C369 C 0.75311 0.81648 0.89925 0.0
C370 C 0.25308 0.31778 0.89925 0.0
C371 C 0.26565 0.32698 0.87205 0.0
H372 H 0.21918 0.28874 0.92057 0.0
C373 C 0.25312 0.31674 0.84481 0.0
H374 H 0.26234 0.32614 0.92055 0.0
C375 C 0.22832 0.29871 0.84482 0.0
C376 C 0.21582 0.28825 0.87207 0.0
H377 H 0.26241 0.32488 0.82354 0.0
H378 H 0.21902 0.29073 0.82356 0.0
C379 C 0.22841 0.29725 0.89927 0.0
C380 C 0.72848 0.3165 0.59427 0.0
C381 C 0.71592 0.32632 0.62148 0.0
H382 H 0.76238 0.287 0.57296 0.0
C383 C 0.72847 0.31677 0.64872 0.0
H384 H 0.71921 0.32432 0.57298 0.0
C385 C 0.75327 0.29879 0.64871 0.0
C386 C 0.76576 0.2877 0.62146 0.0
H387 H 0.71919 0.32541 0.66999 0.0
H388 H 0.76259 0.29134 0.66997 0.0
C389 C 0.75315 0.29602 0.59426 0.0
C390 C 0.22843 0.81581 0.6487 0.0
C391 C 0.21593 0.82653 0.62146 0.0
H392 H 0.26252 0.78912 0.66997 0.0
C393 C 0.22851 0.81747 0.59426 0.0
H394 H 0.21913 0.82383 0.66997 0.0
C395 C 0.25317 0.79661 0.59426 0.0
C396 C 0.26574 0.78715 0.62146 0.0
H397 H 0.21927 0.82618 0.57296 0.0
H398 H 0.26242 0.78822 0.57296 0.0
C399 C 0.25322 0.79746 0.6487 0.0
C400 C 0.14035 1.04367 0.26211 0.0
C401 C 0.1187 1.03026 0.27783 0.0
H402 H 0.15724 0.08257 0.21975 0.0
C403 C 0.09708 1.04488 0.26215 0.0
H404 H 0.15729 1.03367 0.27364 0.0
C405 C 0.09705 0.07133 0.23141 0.0
C406 C 0.11863 0.08597 0.21566 0.0
H407 H 0.08008 1.03476 0.27356 0.0
H408 H 0.08003 0.08146 0.22005 0.0
C409 C 0.14032 0.07255 0.23133 0.0
C410 C 0.88446 0.06914 0.26213 0.0
C411 C 0.86287 0.08395 0.27787 0.0
H412 H 0.90145 1.03224 0.22001 0.0
C413 C 0.84119 0.07045 0.26219 0.0
H414 H 0.90148 0.07932 0.27351 0.0
C415 C 0.84118 1.04136 0.23141 0.0
C416 C 0.86284 1.0278 0.2157 0.0
H417 H 0.82426 0.08058 0.27375 0.0
H418 H 0.82424 1.03131 0.21987 0.0
C419 C 0.88445 1.04247 0.2314 0.0
C420 C 0.84123 0.07118 0.73137 0.0
C421 C 0.86291 0.08465 0.71569 0.0
H422 H 0.82428 1.03202 0.77369 0.0
C423 C 0.8845 0.06981 0.73141 0.0
H424 H 0.8243 0.08134 0.71981 0.0
C425 C 0.88449 1.04312 0.76214 0.0
C426 C 0.86288 1.02844 0.77785 0.0
H427 H 0.90152 0.07997 0.72004 0.0
H428 H 0.9015 1.03285 0.77353 0.0
C429 C 0.84122 1.04205 0.76214 0.0
C430 C 0.14035 0.07212 0.76217 0.0
C431 C 0.11867 0.08547 0.77786 0.0
H432 H 0.15731 1.03316 0.71984 0.0
C433 C 0.09708 0.07059 0.76213 0.0
H434 H 0.15728 0.08232 0.77373 0.0
C435 C 0.09709 1.04398 0.7314 0.0
C436 C 0.11871 1.02944 0.71569 0.0
H437 H 0.08006 0.08065 0.77351 0.0
H438 H 0.08009 1.03368 0.72 0.0
C439 C 0.14037 1.04309 0.73139 0.0
C440 C 0.59705 0.54197 0.26213 0.0
C441 C 0.61866 0.52738 0.27783 0.0
H442 H 0.58003 0.57861 0.22001 0.0
C443 C 0.64032 0.54084 0.26213 0.0
H444 H 0.58005 0.53181 0.27352 0.0
C445 C 0.64031 0.56977 0.23135 0.0
C446 C 0.61864 0.58319 0.21567 0.0
H447 H 0.65726 0.53086 0.27368 0.0
H448 H 0.65724 0.57984 0.21979 0.0
C449 C 0.59704 0.56848 0.23139 0.0
C450 C 0.38452 0.57027 0.2621 0.0
C451 C 0.36293 0.58512 0.27784 0.0
H452 H 0.40149 0.53345 0.21995 0.0
C453 C 0.34125 0.57179 0.26217 0.0
H454 H 0.40154 0.58031 0.27347 0.0
C455 C 0.34122 0.54283 0.23139 0.0
C456 C 0.36287 0.52923 0.21567 0.0
H457 H 0.32432 0.58196 0.27375 0.0
H458 H 0.32427 0.53292 0.21986 0.0
C459 C 0.38449 0.54372 0.23136 0.0
C460 C 0.34123 0.54217 0.76212 0.0
C461 C 0.36289 0.52866 0.77783 0.0
H462 H 0.32431 0.5811 0.71978 0.0
C463 C 0.3845 0.54312 0.76211 0.0
H464 H 0.32429 0.53228 0.77368 0.0
C465 C 0.38451 0.56953 0.73137 0.0
C466 C 0.36291 0.58427 0.71565 0.0
H467 H 0.40151 0.53292 0.77351 0.0
H468 H 0.40152 0.57954 0.71999 0.0
C469 C 0.34124 0.571 0.73134 0.0
C470 C 0.64035 0.57082 0.76216 0.0
C471 C 0.61868 0.58431 0.77785 0.0
H472 H 0.65729 0.53186 0.71983 0.0
C473 C 0.59708 0.56976 0.76212 0.0
H474 H 0.65728 0.58077 0.77372 0.0
C475 C 0.59708 0.54331 0.73138 0.0
C476 C 0.61869 0.5286 0.71567 0.0
H477 H 0.58007 0.57995 0.7735 0.0
H478 H 0.58008 0.53325 0.71998 0.0
C479 C 0.64036 0.54193 0.73138 0.0
C480 C 0.09509 0.13236 0.98106 0.0
C481 C 0.1149 0.1794 0.96495 0.0
H482 H 0.07956 0.09418 0.024 0.0
C483 C 0.13455 0.22859 0.98105 0.0
H484 H 0.07959 0.09412 0.96947 0.0
C485 C 0.13454 0.22863 0.0125 0.0
C486 C 0.11487 0.17948 0.02856 0.0
H487 H 0.15013 0.26566 0.96941 0.0
H488 H 0.1501 0.26572 0.02415 0.0
C489 C 0.09508 0.1324 0.01244 0.0
C490 C 0.88632 0.98172 0.98109 0.0
C491 C 0.86652 0.9347 0.96496 0.0
H492 H 0.90181 1.01983 0.02406 0.0
C493 C 0.84685 0.88553 0.98102 0.0
H494 H 0.90183 1.01995 0.96954 0.0
C495 C 0.84684 0.88546 0.01247 0.0
C496 C 0.8665 0.93456 0.02857 0.0
H497 H 0.83129 0.84849 0.96936 0.0
H498 H 0.83127 0.84837 0.0241 0.0
C499 C 0.88631 0.98165 0.01247 0.0
C500 C 0.09537 0.9851 0.48108 0.0
C501 C 0.11513 0.93758 0.46495 0.0
H502 H 0.07989 1.02359 0.52404 0.0
C503 C 0.13477 0.88799 0.48101 0.0
H504 H 0.07988 1.0237 0.46952 0.0
C505 C 0.13478 0.88792 0.51246 0.0
C506 C 0.11515 0.93746 0.52856 0.0
H507 H 0.15031 0.85056 0.46935 0.0
H508 H 0.15032 0.85045 0.5241 0.0
C509 C 0.09538 0.98505 0.51246 0.0
C510 C 0.88645 0.13133 0.51246 0.0
C511 C 0.86666 0.17858 0.52858 0.0
H512 H 0.90193 0.09278 0.4695 0.0
C513 C 0.84699 0.22775 0.5125 0.0
H514 H 0.90196 0.09306 0.52402 0.0
C515 C 0.84698 0.22759 0.48105 0.0
C516 C 0.86663 0.17824 0.46496 0.0
H517 H 0.83143 0.26497 0.52415 0.0
H518 H 0.83141 0.26469 0.46941 0.0
C519 C 0.88643 0.13116 0.48108 0.0
C520 C 0.63461 0.72615 0.01252 0.0
C521 C 0.61496 0.67667 0.02858 0.0
H522 H 0.65017 0.7636 0.96944 0.0
C523 C 0.59519 0.62931 0.01244 0.0
H524 H 0.65015 0.76344 0.02418 0.0
C525 C 0.5952 0.6294 0.98106 0.0
C526 C 0.61499 0.67685 0.96497 0.0
H527 H 0.5797 0.59081 0.024 0.0
H528 H 0.57972 0.59097 0.96948 0.0
C529 C 0.63462 0.72624 0.98107 0.0
C530 C 0.34683 0.38715 0.98102 0.0
C531 C 0.36646 0.43665 0.96495 0.0
H532 H 0.33127 0.34979 0.0241 0.0
C533 C 0.38622 0.48419 0.98107 0.0
H534 H 0.33129 0.34971 0.96936 0.0
C535 C 0.38621 0.48424 0.01245 0.0
C536 C 0.36644 0.43674 0.02855 0.0
H537 H 0.40171 0.52271 0.96951 0.0
H538 H 0.40169 0.52279 0.02403 0.0
C539 C 0.34681 0.38719 0.01246 0.0
C540 C 0.63469 0.38571 0.48103 0.0
C541 C 0.61504 0.43505 0.46495 0.0
H542 H 0.65025 0.3486 0.52413 0.0
C543 C 0.59526 0.4825 0.48106 0.0
H544 H 0.65024 0.34834 0.46939 0.0
C545 C 0.59527 0.48265 0.51244 0.0
C546 C 0.61505 0.43537 0.52856 0.0
H547 H 0.57976 0.52088 0.46949 0.0
H548 H 0.57977 0.52115 0.52401 0.0
C549 C 0.6347 0.38586 0.51248 0.0
C550 C 0.38643 0.63049 0.51244 0.0
C551 C 0.36663 0.67764 0.52856 0.0
H552 H 0.40196 0.59245 0.46948 0.0
C553 C 0.34699 0.72711 0.51248 0.0
H554 H 0.40193 0.59202 0.524 0.0
C555 C 0.34701 0.72737 0.48104 0.0
C556 C 0.36667 0.67816 0.46495 0.0
H557 H 0.33143 0.76426 0.52413 0.0
H558 H 0.33146 0.7647 0.46939 0.0
C559 C 0.38645 0.63075 0.48106 0.0
C560 C 0.97821 1.05643 0.0964 0.0
C561 C 0.9655 1.05677 0.12362 0.0
H562 H 0.01261 1.05665 0.07513 0.0
C563 C 0.9782 0.05698 0.15083 0.0
H564 H 0.96883 1.0548 0.0751 0.0
C565 C 0.00317 0.05751 0.15084 0.0
C566 C 0.01589 1.05663 0.12365 0.0
H567 H 0.96883 1.05608 0.17213 0.0
H568 H 0.01252 0.05927 0.17216 0.0
C569 C 0.00321 1.05587 0.09642 0.0
C570 C 0.97835 0.05779 0.39715 0.0
C571 C 0.96565 1.05666 0.36993 0.0
H572 H 0.01276 0.05901 0.41841 0.0
C573 C 0.97834 1.05657 0.34272 0.0
H574 H 0.96898 0.05937 0.41844 0.0
C575 C 0.00331 0.05694 0.3427 0.0
C576 C 0.01604 0.05858 0.36989 0.0
H577 H 0.96896 0.05689 0.32142 0.0
H578 H 0.01266 1.05524 0.32139 0.0
C579 C 0.00336 0.05922 0.39713 0.0
C580 C 0.00325 0.05685 0.89716 0.0
C581 C 0.01594 1.05682 0.86994 0.0
H582 H 0.96886 1.05648 0.91846 0.0
C583 C 0.00323 0.05703 0.84273 0.0
H584 H 0.01264 0.05816 0.91845 0.0
C585 C 0.97826 1.05664 0.84274 0.0
C586 C 0.96555 0.0572 0.86994 0.0
H587 H 0.01259 0.05817 0.82143 0.0
H588 H 0.9689 1.05522 0.82143 0.0
C589 C 0.97824 0.05751 0.89717 0.0
C590 C 0.97844 0.05979 0.65082 0.0
C591 C 0.96567 1.05676 0.62367 0.0
H592 H 0.01283 0.06071 0.67199 0.0
C593 C 0.97829 1.05449 0.5964 0.0
H594 H 0.96913 0.06276 0.67215 0.0
C595 C 0.0033 1.05564 0.5963 0.0
C596 C 0.01605 0.05818 0.62347 0.0
H597 H 0.96885 1.05362 0.57515 0.0
H598 H 0.01263 1.05279 0.57498 0.0
C599 C 0.00341 0.05994 0.65072 0.0
C600 C 0.47823 0.55639 0.09634 0.0
C601 C 0.46552 0.55733 0.12356 0.0
H602 H 0.51264 0.55534 0.0751 0.0
C603 C 0.4782 0.55726 0.15077 0.0
H604 H 0.46886 0.55495 0.07505 0.0
C605 C 0.50318 0.5569 0.1508 0.0
C606 C 0.51591 0.55544 0.12362 0.0
H607 H 0.46882 0.55679 0.17207 0.0
H608 H 0.51252 0.55846 0.17212 0.0
C609 C 0.50324 0.55497 0.09637 0.0
C610 C 0.47832 0.55535 0.39712 0.0
C611 C 0.46565 0.55575 0.36988 0.0
H612 H 0.5127 0.55491 0.41844 0.0
C613 C 0.47836 0.55657 0.34269 0.0
H614 H 0.46892 0.55617 0.4184 0.0
C615 C 0.50333 0.55643 0.34271 0.0
C616 C 0.51602 0.55663 0.36992 0.0
H617 H 0.46901 0.55805 0.32138 0.0
H618 H 0.51271 0.5555 0.32141 0.0
C619 C 0.50333 0.55627 0.39714 0.0
C620 C 0.47826 0.55696 0.84277 0.0
C621 C 0.46556 0.55749 0.86998 0.0
H622 H 0.5126 0.55793 0.82145 0.0
C623 C 0.47826 0.5572 0.8972 0.0
H624 H 0.4689 0.55598 0.82147 0.0
C625 C 0.50327 0.55599 0.89719 0.0
C626 C 0.51595 0.55596 0.86996 0.0
H627 H 0.46888 0.55613 0.9185 0.0
H628 H 0.51266 0.55686 0.91848 0.0
C629 C 0.50324 0.55675 0.84276 0.0
C630 C 0.4783 0.55541 0.59634 0.0
C631 C 0.46563 0.55567 0.62357 0.0
H632 H 0.51269 0.55531 0.57503 0.0
C633 C 0.47834 0.55674 0.65077 0.0
H634 H 0.46891 0.55606 0.57505 0.0
C635 C 0.50332 0.55692 0.65075 0.0
C636 C 0.51601 0.55717 0.62354 0.0
H637 H 0.46899 0.55815 0.67208 0.0
H638 H 0.51269 0.55616 0.67205 0.0
C639 C 0.50331 0.55661 0.59632 0.0
C640 C 0.09957 0.75551 0.12251 0.0
C641 C 0.12384 0.78762 0.12072 0.0
H642 H 0.07367 0.60282 0.12542 0.0
C643 C 0.14096 0.68716 0.12049 0.0
H644 H 0.08605 0.83099 0.12281 0.0
C645 C 0.13395 0.55665 0.12204 0.0
C646 C 0.10968 0.52456 0.12386 0.0
H647 H 0.15985 0.70945 0.11915 0.0
H648 H 0.14745 0.48119 0.12173 0.0
C649 C 0.09256 0.62505 0.12406 0.0
C650 C 0.88182 0.35801 0.12255 0.0
C651 C 0.85755 0.3259 0.12077 0.0
H652 H 0.90772 0.5107 0.12545 0.0
C653 C 0.84042 0.42636 0.12054 0.0
H654 H 0.89533 0.28253 0.12284 0.0
C655 C 0.84744 0.55687 0.12208 0.0
C656 C 0.87171 0.58896 0.1239 0.0
H657 H 0.82153 0.40407 0.11921 0.0
H658 H 0.83394 0.63234 0.12177 0.0
C659 C 0.88883 0.48847 0.1241 0.0
C660 C 0.14118 0.42918 0.37296 0.0
C661 C 0.12405 0.32878 0.37277 0.0
H662 H 0.14767 0.63513 0.37171 0.0
C663 C 0.09978 0.36098 0.37105 0.0
H664 H 0.16007 0.40681 0.37424 0.0
C665 C 0.09277 0.49147 0.36952 0.0
C666 C 0.10989 0.59189 0.36968 0.0
H667 H 0.08626 0.28556 0.37079 0.0
H668 H 0.07388 0.51376 0.36822 0.0
C669 C 0.13417 0.55971 0.37144 0.0
C670 C 0.84752 0.55541 0.3715 0.0
C671 C 0.87179 0.52324 0.3696 0.0
H672 H 0.82163 0.7083 0.37447 0.0
C673 C 0.88891 0.62365 0.36936 0.0
H674 H 0.83402 0.47999 0.37184 0.0
C675 C 0.88191 0.75414 0.37095 0.0
C676 C 0.85764 0.78633 0.37281 0.0
H677 H 0.9078 0.60136 0.36795 0.0
H678 H 0.89542 0.82956 0.37063 0.0
C679 C 0.84052 0.68594 0.37308 0.0
C680 C 0.88187 0.35855 0.87083 0.0
C681 C 0.8576 0.32645 0.87262 0.0
H682 H 0.90777 0.51124 0.86792 0.0
C683 C 0.84048 0.4269 0.87284 0.0
H684 H 0.89539 0.28307 0.87055 0.0
C685 C 0.84749 0.55741 0.87129 0.0
C686 C 0.87176 0.5895 0.86947 0.0
H687 H 0.82159 0.40462 0.87418 0.0
H688 H 0.83399 0.63287 0.87161 0.0
C689 C 0.88888 0.48901 0.86927 0.0
C690 C 0.09261 0.62501 0.86922 0.0
C691 C 0.10973 0.52452 0.86946 0.0
H692 H 0.0861 0.83096 0.87049 0.0
C693 C 0.134 0.55662 0.87133 0.0
H694 H 0.07372 0.60278 0.86784 0.0
C695 C 0.14101 0.68713 0.87288 0.0
C696 C 0.12389 0.78758 0.87263 0.0
H697 H 0.1475 0.48116 0.87168 0.0
H698 H 0.1599 0.70941 0.87427 0.0
C699 C 0.09962 0.75548 0.8708 0.0
C700 C 0.88196 0.75474 0.62268 0.0
C701 C 0.85769 0.78693 0.62091 0.0
H702 H 0.90786 0.60194 0.62555 0.0
C703 C 0.84056 0.68654 0.6207 0.0
H704 H 0.89548 0.83016 0.62296 0.0
C705 C 0.84758 0.55601 0.62222 0.0
C706 C 0.87185 0.52383 0.62402 0.0
H707 H 0.82168 0.7089 0.61937 0.0
H708 H 0.83407 0.4806 0.6219 0.0
C709 C 0.88897 0.62424 0.62422 0.0
C710 C 0.14115 0.42828 0.62073 0.0
C711 C 0.12402 0.32788 0.62094 0.0
H712 H 0.14764 0.63422 0.62195 0.0
C713 C 0.09975 0.36005 0.62273 0.0
H714 H 0.16004 0.40593 0.61939 0.0
C715 C 0.09274 0.49054 0.62429 0.0
C716 C 0.10986 0.59097 0.62408 0.0
H717 H 0.08624 0.28461 0.623 0.0
H718 H 0.07385 0.51283 0.62562 0.0
C719 C 0.13413 0.5588 0.62227 0.0
C720 C 0.59262 0.12247 0.12404 0.0
C721 C 0.60974 1.022 0.12387 0.0
H722 H 0.58611 0.3284 0.12277 0.0
C723 C 0.63401 1.0541 0.12208 0.0
H724 H 0.57373 0.10023 0.12536 0.0
C725 C 0.64103 0.18461 0.12054 0.0
C726 C 0.6239 0.28505 0.12075 0.0
H727 H 0.64752 0.97864 0.12179 0.0
H728 H 0.65992 0.20691 0.11924 0.0
C729 C 0.59963 0.25293 0.12249 0.0
C730 C 0.38179 0.85985 0.1225 0.0
C731 C 0.35752 0.82774 0.12076 0.0
H732 H 0.40769 1.01255 0.12536 0.0
C733 C 0.34039 0.92818 0.12055 0.0
H734 H 0.3953 0.78438 0.12278 0.0
C735 C 0.34741 0.0587 0.12207 0.0
C736 C 0.37168 0.09079 0.12386 0.0
H737 H 0.3215 0.90588 0.11924 0.0
H738 H 0.3339 0.13416 0.12178 0.0
C739 C 0.3888 0.99032 0.12404 0.0
C740 C 0.59268 0.98868 0.36946 0.0
C741 C 0.6098 0.08911 0.36964 0.0
H742 H 0.58618 0.78277 0.37072 0.0
C743 C 0.63407 0.05695 0.37143 0.0
H744 H 0.57379 1.01097 0.36813 0.0
C745 C 0.64109 0.92642 0.37296 0.0
C746 C 0.62396 0.82603 0.37275 0.0
H747 H 0.64758 0.13237 0.37173 0.0
H748 H 0.65998 0.90407 0.37428 0.0
C749 C 0.59969 0.8582 0.371 0.0
C750 C 0.38902 0.12431 0.3694 0.0
C751 C 0.3719 1.02387 0.36965 0.0
H752 H 0.39552 0.33025 0.3706 0.0
C753 C 0.34763 1.05604 0.37152 0.0
H754 H 0.40791 0.10203 0.36801 0.0
C755 C 0.34062 0.18657 0.37305 0.0
C756 C 0.35774 0.28698 0.37276 0.0
H757 H 0.33413 0.98061 0.37188 0.0
H758 H 0.32173 0.20891 0.37442 0.0
C759 C 0.38201 0.25481 0.37094 0.0
C760 C 0.38186 0.85965 0.87084 0.0
C761 C 0.35758 0.82755 0.87259 0.0
H762 H 0.40776 1.01236 0.86799 0.0
C763 C 0.34046 0.928 0.87279 0.0
H764 H 0.39537 0.78418 0.87058 0.0
C765 C 0.34747 0.0585 0.87127 0.0
C766 C 0.37175 0.0906 0.86949 0.0
H767 H 0.32157 0.90571 0.8741 0.0
H768 H 0.33397 0.13397 0.87157 0.0
C769 C 0.38887 0.99012 0.8693 0.0
C770 C 0.64106 0.1854 0.87283 0.0
C771 C 0.62394 0.28584 0.87261 0.0
H772 H 0.64755 0.97943 0.87163 0.0
C773 C 0.59967 0.25374 0.87084 0.0
H774 H 0.65995 0.20769 0.87416 0.0
C775 C 0.59266 0.12327 0.8693 0.0
C776 C 0.60978 1.02279 0.86951 0.0
H777 H 0.58615 0.32921 0.87056 0.0
H778 H 0.57377 0.10103 0.86797 0.0
C779 C 0.63405 1.05489 0.87131 0.0
C780 C 0.34754 1.05498 0.62219 0.0
C781 C 0.37181 1.02281 0.62402 0.0
H782 H 0.32164 0.20785 0.61929 0.0
C783 C 0.38893 0.12324 0.62424 0.0
H784 H 0.33404 0.97956 0.62186 0.0
C785 C 0.38192 0.25372 0.62267 0.0
C786 C 0.35765 0.2859 0.62087 0.0
H787 H 0.40782 0.10094 0.62559 0.0
H788 H 0.39544 0.32915 0.62296 0.0
C789 C 0.34053 0.1855 0.62065 0.0
C790 C 0.64111 0.9274 0.62065 0.0
C791 C 0.62398 0.82701 0.62088 0.0
H792 H 0.6476 0.13335 0.62187 0.0
C793 C 0.59972 0.85919 0.62269 0.0
H794 H 0.66 0.90505 0.61929 0.0
C795 C 0.59271 0.98967 0.62426 0.0
C796 C 0.60983 0.0901 0.62404 0.0
H797 H 0.5862 0.78376 0.62298 0.0
H798 H 0.57382 1.01197 0.62563 0.0
C799 C 0.6341 0.05793 0.6222 0.0
loop_
_geom_bond_atom_site_label_1
_geom_bond_atom_site_label_2
_geom_bond_distance
_geom_bond_site_symmetry_2
_ccdc_geom_bond_type
Tb0 O3 2.453 . S
Tb0 O4 2.596 . S
Tb0 O5 2.374 . S
Tb0 O13 2.343 . S
Tb0 O15 2.353 . S
Tb0 O17 2.427 . S
Tb0 O18 2.513 . S
C1 O5 1.251 . S
C1 O7 1.263 . S
Tb2 O4 2.343 . S
Tb2 O7 2.353 . S
Tb2 O10 2.427 . S
Tb2 O11 2.513 . S
Tb2 O12 2.453 1_545 S
Tb2 O13 2.596 . S
Tb2 O14 2.374 . S
O3 Tb0 2.453 . S
O3 C19 1.245 . S
O4 Tb0 2.596 . S
O4 Tb2 2.343 . S
O4 C19 1.259 . S
O5 Tb0 2.374 . S
O5 C1 1.251 . S
C6 O10 1.275 . S
C6 O11 1.246 . S
O7 C1 1.263 . S
O7 Tb2 2.353 . S
C8 O12 1.245 . S
C8 O13 1.259 1_565 S
C9 O14 1.250 . S
C9 O15 1.263 . S
O10 Tb2 2.427 . S
O10 C6 1.275 . S
O11 Tb2 2.513 . S
O11 C6 1.246 . S
O12 Tb2 2.453 1_565 S
O12 C8 1.245 . S
O13 Tb0 2.343 . S
O13 Tb2 2.596 . S
O13 C8 1.259 1_545 S
O14 Tb2 2.374 . S
O14 C9 1.250 . S
O15 Tb0 2.353 . S
O15 C9 1.263 . S
C16 O17 1.275 . S
C16 O18 1.246 . S
O17 Tb0 2.427 . S
O17 C16 1.275 . S
O18 Tb0 2.513 . S
O18 C16 1.246 . S
C19 O3 1.245 . S
C19 O4 1.259 . S
Tb20 O23 2.453 . S
Tb20 O24 2.596 . S
Tb20 O25 2.374 . S
Tb20 O33 2.343 . S
Tb20 O35 2.353 . S
Tb20 O37 2.427 . S
Tb20 O38 2.513 . S
C21 O25 1.251 . S
C21 O27 1.263 . S
Tb22 O24 2.343 . S
Tb22 O27 2.353 . S
Tb22 O30 2.427 . S
Tb22 O31 2.513 . S
Tb22 O32 2.453 1_565 S
Tb22 O33 2.596 . S
Tb22 O34 2.374 . S
O23 Tb20 2.453 . S
O23 C39 1.245 . S
O24 Tb20 2.596 . S
O24 Tb22 2.343 . S
O24 C39 1.259 . S
O25 Tb20 2.374 . S
O25 C21 1.251 . S
C26 O30 1.275 . S
C26 O31 1.246 . S
O27 C21 1.263 . S
O27 Tb22 2.353 . S
C28 O32 1.245 . S
C28 O33 1.259 1_545 S
C29 O34 1.250 . S
C29 O35 1.263 . S
O30 Tb22 2.427 . S
O30 C26 1.275 . S
O31 Tb22 2.513 . S
O31 C26 1.246 . S
O32 Tb22 2.453 1_545 S
O32 C28 1.245 . S
O33 Tb20 2.343 . S
O33 Tb22 2.596 . S
O33 C28 1.259 1_565 S
O34 Tb22 2.374 . S
O34 C29 1.250 . S
O35 Tb20 2.353 . S
O35 C29 1.263 . S
C36 O37 1.275 . S
C36 O38 1.246 . S
O37 Tb20 2.427 . S
O37 C36 1.275 . S
O38 Tb20 2.513 . S
O38 C36 1.246 . S
C39 O23 1.245 . S
C39 O24 1.259 . S
Tb40 O43 2.453 . S
Tb40 O44 2.596 . S
Tb40 O45 2.374 . S
Tb40 O53 2.343 . S
Tb40 O55 2.353 . S
Tb40 O57 2.427 . S
Tb40 O58 2.513 . S
C41 O45 1.251 . S
C41 O47 1.263 . S
Tb42 O44 2.343 . S
Tb42 O47 2.353 . S
Tb42 O50 2.427 . S
Tb42 O51 2.513 . S
Tb42 O52 2.453 1_565 S
Tb42 O53 2.596 . S
Tb42 O54 2.374 . S
O43 Tb40 2.453 . S
O43 C59 1.245 . S
O44 Tb40 2.596 . S
O44 Tb42 2.343 . S
O44 C59 1.259 . S
O45 Tb40 2.374 . S
O45 C41 1.251 . S
C46 O50 1.275 . S
C46 O51 1.246 . S
O47 C41 1.263 . S
O47 Tb42 2.353 . S
C48 O52 1.245 . S
C48 O53 1.259 1_545 S
C49 O54 1.250 . S
C49 O55 1.263 . S
O50 Tb42 2.427 . S
O50 C46 1.275 . S
O51 Tb42 2.513 . S
O51 C46 1.246 . S
O52 Tb42 2.453 1_545 S
O52 C48 1.245 . S
O53 Tb40 2.343 . S
O53 Tb42 2.596 . S
O53 C48 1.259 1_565 S
O54 Tb42 2.374 . S
O54 C49 1.250 . S
O55 Tb40 2.353 . S
O55 C49 1.263 . S
C56 O57 1.275 . S
C56 O58 1.246 . S
O57 Tb40 2.427 . S
O57 C56 1.275 . S
O58 Tb40 2.513 . S
O58 C56 1.246 . S
C59 O43 1.245 . S
C59 O44 1.259 . S
Tb60 O63 2.453 . S
Tb60 O64 2.596 . S
Tb60 O65 2.374 . S
Tb60 O73 2.343 . S
Tb60 O75 2.353 . S
Tb60 O77 2.427 . S
Tb60 O78 2.513 . S
C61 O65 1.251 . S
C61 O67 1.263 . S
Tb62 O64 2.343 . S
Tb62 O67 2.353 . S
Tb62 O70 2.427 . S
Tb62 O71 2.513 . S
Tb62 O72 2.453 1_545 S
Tb62 O73 2.596 . S
Tb62 O74 2.374 . S
O63 Tb60 2.453 . S
O63 C79 1.245 . S
O64 Tb60 2.596 . S
O64 Tb62 2.343 . S
O64 C79 1.259 . S
O65 Tb60 2.374 . S
O65 C61 1.251 . S
C66 O70 1.275 . S
C66 O71 1.246 . S
O67 C61 1.263 . S
O67 Tb62 2.353 . S
C68 O72 1.245 . S
C68 O73 1.259 1_565 S
C69 O74 1.250 . S
C69 O75 1.263 . S
O70 Tb62 2.427 . S
O70 C66 1.275 . S
O71 Tb62 2.513 . S
O71 C66 1.246 . S
O72 Tb62 2.453 1_565 S
O72 C68 1.245 . S
O73 Tb60 2.343 . S
O73 Tb62 2.596 . S
O73 C68 1.259 1_545 S
O74 Tb62 2.374 . S
O74 C69 1.250 . S
O75 Tb60 2.353 . S
O75 C69 1.263 . S
C76 O77 1.275 . S
C76 O78 1.246 . S
O77 Tb60 2.427 . S
O77 C76 1.275 . S
O78 Tb60 2.513 . S
O78 C76 1.246 . S
C79 O63 1.245 . S
C79 O64 1.259 . S
Tb80 O83 2.453 1_565 S
Tb80 O84 2.596 . S
Tb80 O85 2.374 . S
Tb80 O93 2.343 . S
Tb80 O95 2.353 . S
Tb80 O97 2.427 . S
Tb80 O98 2.513 . S
C81 O85 1.251 . S
C81 O87 1.263 . S
Tb82 O84 2.343 . S
Tb82 O87 2.353 . S
Tb82 O90 2.427 . S
Tb82 O91 2.513 . S
Tb82 O92 2.453 . S
Tb82 O93 2.596 . S
Tb82 O94 2.374 . S
O83 Tb80 2.453 1_545 S
O83 C99 1.245 . S
O84 Tb80 2.596 . S
O84 Tb82 2.343 . S
O84 C99 1.259 1_565 S
O85 Tb80 2.374 . S
O85 C81 1.251 . S
C86 O90 1.275 . S
C86 O91 1.246 . S
O87 C81 1.263 . S
O87 Tb82 2.353 . S
C88 O92 1.245 . S
C88 O93 1.259 . S
C89 O94 1.250 . S
C89 O95 1.263 . S
O90 Tb82 2.427 . S
O90 C86 1.275 . S
O91 Tb82 2.513 . S
O91 C86 1.246 . S
O92 Tb82 2.453 . S
O92 C88 1.245 . S
O93 Tb80 2.343 . S
O93 Tb82 2.596 . S
O93 C88 1.259 . S
O94 Tb82 2.374 . S
O94 C89 1.250 . S
O95 Tb80 2.353 . S
O95 C89 1.263 . S
C96 O97 1.275 . S
C96 O98 1.246 . S
O97 Tb80 2.427 . S
O97 C96 1.275 . S
O98 Tb80 2.513 . S
O98 C96 1.246 . S
C99 O83 1.245 . S
C99 O84 1.259 1_545 S
Tb100 O103 2.453 1_545 S
Tb100 O104 2.596 . S
Tb100 O105 2.374 . S
Tb100 O113 2.343 . S
Tb100 O115 2.353 . S
Tb100 O117 2.427 . S
Tb100 O118 2.513 . S
C101 O105 1.251 . S
C101 O107 1.263 . S
Tb102 O104 2.343 . S
Tb102 O107 2.353 . S
Tb102 O110 2.427 . S
Tb102 O111 2.513 . S
Tb102 O112 2.453 . S
Tb102 O113 2.596 . S
Tb102 O114 2.374 . S
O103 Tb100 2.453 1_565 S
O103 C119 1.245 . S
O104 Tb100 2.596 . S
O104 Tb102 2.343 . S
O104 C119 1.259 1_545 S
O105 Tb100 2.374 . S
O105 C101 1.251 . S
C106 O110 1.275 . S
C106 O111 1.246 . S
O107 C101 1.263 . S
O107 Tb102 2.353 . S
C108 O112 1.245 . S
C108 O113 1.259 . S
C109 O114 1.250 . S
C109 O115 1.263 . S
O110 Tb102 2.427 . S
O110 C106 1.275 . S
O111 Tb102 2.513 . S
O111 C106 1.246 . S
O112 Tb102 2.453 . S
O112 C108 1.245 . S
O113 Tb100 2.343 . S
O113 Tb102 2.596 . S
O113 C108 1.259 . S
O114 Tb102 2.374 . S
O114 C109 1.250 . S
O115 Tb100 2.353 . S
O115 C109 1.263 . S
C116 O117 1.275 . S
C116 O118 1.246 . S
O117 Tb100 2.427 . S
O117 C116 1.275 . S
O118 Tb100 2.513 . S
O118 C116 1.246 . S
C119 O103 1.245 . S
C119 O104 1.259 1_565 S
Tb120 O123 2.453 1_545 S
Tb120 O124 2.596 . S
Tb120 O125 2.374 . S
Tb120 O133 2.343 . S
Tb120 O135 2.353 . S
Tb120 O137 2.427 . S
Tb120 O138 2.513 . S
C121 O125 1.251 . S
C121 O127 1.263 . S
Tb122 O124 2.343 . S
Tb122 O127 2.353 . S
Tb122 O130 2.427 . S
Tb122 O131 2.513 . S
Tb122 O132 2.453 . S
Tb122 O133 2.596 . S
Tb122 O134 2.374 . S
O123 Tb120 2.453 1_565 S
O123 C139 1.245 . S
O124 Tb120 2.596 . S
O124 Tb122 2.343 . S
O124 C139 1.259 1_545 S
O125 Tb120 2.374 . S
O125 C121 1.251 . S
C126 O130 1.275 . S
C126 O131 1.246 . S
O127 C121 1.263 . S
O127 Tb122 2.353 . S
C128 O132 1.245 . S
C128 O133 1.259 . S
C129 O134 1.250 . S
C129 O135 1.263 . S
O130 Tb122 2.427 . S
O130 C126 1.275 . S
O131 Tb122 2.513 . S
O131 C126 1.246 . S
O132 Tb122 2.453 . S
O132 C128 1.245 . S
O133 Tb120 2.343 . S
O133 Tb122 2.596 . S
O133 C128 1.259 . S
O134 Tb122 2.374 . S
O134 C129 1.250 . S
O135 Tb120 2.353 . S
O135 C129 1.263 . S
C136 O137 1.275 . S
C136 O138 1.246 . S
O137 Tb120 2.427 . S
O137 C136 1.275 . S
O138 Tb120 2.513 . S
O138 C136 1.246 . S
C139 O123 1.245 . S
C139 O124 1.259 1_565 S
Tb140 O143 2.453 1_565 S
Tb140 O144 2.596 . S
Tb140 O145 2.374 . S
Tb140 O153 2.343 . S
Tb140 O155 2.353 . S
Tb140 O157 2.427 . S
Tb140 O158 2.513 . S
C141 O145 1.251 . S
C141 O147 1.263 . S
Tb142 O144 2.343 . S
Tb142 O147 2.353 . S
Tb142 O150 2.427 . S
Tb142 O151 2.513 . S
Tb142 O152 2.453 . S
Tb142 O153 2.596 . S
Tb142 O154 2.374 . S
O143 Tb140 2.453 1_545 S
O143 C159 1.245 . S
O144 Tb140 2.596 . S
O144 Tb142 2.343 . S
O144 C159 1.259 1_565 S
O145 Tb140 2.374 . S
O145 C141 1.251 . S
C146 O150 1.275 . S
C146 O151 1.246 . S
O147 C141 1.263 . S
O147 Tb142 2.353 . S
C148 O152 1.245 . S
C148 O153 1.259 . S
C149 O154 1.250 . S
C149 O155 1.263 . S
O150 Tb142 2.427 . S
O150 C146 1.275 . S
O151 Tb142 2.513 . S
O151 C146 1.246 . S
O152 Tb142 2.453 . S
O152 C148 1.245 . S
O153 Tb140 2.343 . S
O153 Tb142 2.596 . S
O153 C148 1.259 . S
O154 Tb142 2.374 . S
O154 C149 1.250 . S
O155 Tb140 2.353 . S
O155 C149 1.263 . S
C156 O157 1.275 . S
C156 O158 1.246 . S
O157 Tb140 2.427 . S
O157 C156 1.275 . S
O158 Tb140 2.513 . S
O158 C156 1.246 . S
C159 O143 1.245 . S
C159 O144 1.259 1_545 S
Tb160 O163 2.453 . S
Tb160 O164 2.596 . S
Tb160 O165 2.374 . S
Tb160 O173 2.343 . S
Tb160 O175 2.353 . S
Tb160 O177 2.427 . S
Tb160 O178 2.513 . S
C161 O165 1.251 . S
C161 O167 1.263 . S
Tb162 O164 2.343 . S
Tb162 O167 2.353 . S
Tb162 O170 2.427 . S
Tb162 O171 2.513 . S
Tb162 O172 2.453 . S
Tb162 O173 2.596 . S
Tb162 O174 2.374 . S
O163 Tb160 2.453 . S
O163 C179 1.245 . S
O164 Tb160 2.596 . S
O164 Tb162 2.343 . S
O164 C179 1.259 . S
O165 Tb160 2.374 . S
O165 C161 1.251 . S
C166 O170 1.275 . S
C166 O171 1.246 . S
O167 C161 1.263 . S
O167 Tb162 2.353 . S
C168 O172 1.245 . S
C168 O173 1.259 . S
C169 O174 1.250 . S
C169 O175 1.263 . S
O170 Tb162 2.427 . S
O170 C166 1.275 . S
O171 Tb162 2.513 . S
O171 C166 1.246 . S
O172 Tb162 2.453 . S
O172 C168 1.245 . S
O173 Tb160 2.343 . S
O173 Tb162 2.596 . S
O173 C168 1.259 . S
O174 Tb162 2.374 . S
O174 C169 1.250 . S
O175 Tb160 2.353 . S
O175 C169 1.263 . S
C176 O177 1.275 . S
C176 O178 1.246 . S
O177 Tb160 2.427 . S
O177 C176 1.275 . S
O178 Tb160 2.513 . S
O178 C176 1.246 . S
C179 O163 1.245 . S
C179 O164 1.259 . S
Tb180 O183 2.453 . S
Tb180 O184 2.596 . S
Tb180 O185 2.374 . S
Tb180 O193 2.343 . S
Tb180 O195 2.353 . S
Tb180 O197 2.427 . S
Tb180 O198 2.513 . S
C181 O185 1.251 . S
C181 O187 1.263 . S
Tb182 O184 2.343 . S
Tb182 O187 2.353 . S
Tb182 O190 2.427 . S
Tb182 O191 2.513 . S
Tb182 O192 2.453 . S
Tb182 O193 2.596 . S
Tb182 O194 2.374 . S
O183 Tb180 2.453 . S
O183 C199 1.245 . S
O184 Tb180 2.596 . S
O184 Tb182 2.343 . S
O184 C199 1.259 . S
O185 Tb180 2.374 . S
O185 C181 1.251 . S
C186 O190 1.275 . S
C186 O191 1.246 . S
O187 C181 1.263 . S
O187 Tb182 2.353 . S
C188 O192 1.245 . S
C188 O193 1.259 . S
C189 O194 1.250 . S
C189 O195 1.263 . S
O190 Tb182 2.427 . S
O190 C186 1.275 . S
O191 Tb182 2.513 . S
O191 C186 1.246 . S
O192 Tb182 2.453 . S
O192 C188 1.245 . S
O193 Tb180 2.343 . S
O193 Tb182 2.596 . S
O193 C188 1.259 . S
O194 Tb182 2.374 . S
O194 C189 1.250 . S
O195 Tb180 2.353 . S
O195 C189 1.263 . S
C196 O197 1.275 . S
C196 O198 1.246 . S
O197 Tb180 2.427 . S
O197 C196 1.275 . S
O198 Tb180 2.513 . S
O198 C196 1.246 . S
C199 O183 1.245 . S
C199 O184 1.259 . S
Tb200 O203 2.453 . S
Tb200 O204 2.596 . S
Tb200 O205 2.374 . S
Tb200 O213 2.343 . S
Tb200 O215 2.353 . S
Tb200 O217 2.427 . S
Tb200 O218 2.513 . S
C201 O205 1.251 . S
C201 O207 1.263 . S
Tb202 O204 2.343 . S
Tb202 O207 2.353 . S
Tb202 O210 2.427 . S
Tb202 O211 2.513 . S
Tb202 O212 2.453 . S
Tb202 O213 2.596 . S
Tb202 O214 2.374 . S
O203 Tb200 2.453 . S
O203 C219 1.245 . S
O204 Tb200 2.596 . S
O204 Tb202 2.343 . S
O204 C219 1.259 . S
O205 Tb200 2.374 . S
O205 C201 1.251 . S
C206 O210 1.275 . S
C206 O211 1.246 . S
O207 C201 1.263 . S
O207 Tb202 2.353 . S
C208 O212 1.245 . S
C208 O213 1.259 . S
C209 O214 1.250 . S
C209 O215 1.263 . S
O210 Tb202 2.427 . S
O210 C206 1.275 . S
O211 Tb202 2.513 . S
O211 C206 1.246 . S
O212 Tb202 2.453 . S
O212 C208 1.245 . S
O213 Tb200 2.343 . S
O213 Tb202 2.596 . S
O213 C208 1.259 . S
O214 Tb202 2.374 . S
O214 C209 1.250 . S
O215 Tb200 2.353 . S
O215 C209 1.263 . S
C216 O217 1.275 . S
C216 O218 1.246 . S
O217 Tb200 2.427 . S
O217 C216 1.275 . S
O218 Tb200 2.513 . S
O218 C216 1.246 . S
C219 O203 1.245 . S
C219 O204 1.259 . S
Tb220 O223 2.453 . S
Tb220 O224 2.596 . S
Tb220 O225 2.374 . S
Tb220 O233 2.343 . S
Tb220 O235 2.353 . S
Tb220 O237 2.427 . S
Tb220 O238 2.513 . S
C221 O225 1.251 . S
C221 O227 1.263 . S
Tb222 O224 2.343 . S
Tb222 O227 2.353 . S
Tb222 O230 2.427 . S
Tb222 O231 2.513 . S
Tb222 O232 2.453 . S
Tb222 O233 2.596 . S
Tb222 O234 2.374 . S
O223 Tb220 2.453 . S
O223 C239 1.245 . S
O224 Tb220 2.596 . S
O224 Tb222 2.343 . S
O224 C239 1.259 . S
O225 Tb220 2.374 . S
O225 C221 1.251 . S
C226 O230 1.275 . S
C226 O231 1.246 . S
O227 C221 1.263 . S
O227 Tb222 2.353 . S
C228 O232 1.245 . S
C228 O233 1.259 . S
C229 O234 1.250 . S
C229 O235 1.263 . S
O230 Tb222 2.427 . S
O230 C226 1.275 . S
O231 Tb222 2.513 . S
O231 C226 1.246 . S
O232 Tb222 2.453 . S
O232 C228 1.245 . S
O233 Tb220 2.343 . S
O233 Tb222 2.596 . S
O233 C228 1.259 . S
O234 Tb222 2.374 . S
O234 C229 1.250 . S
O235 Tb220 2.353 . S
O235 C229 1.263 . S
C236 O237 1.275 . S
C236 O238 1.246 . S
O237 Tb220 2.427 . S
O237 C236 1.275 . S
O238 Tb220 2.513 . S
O238 C236 1.246 . S
C239 O223 1.245 . S
C239 O224 1.259 . S
Tb240 O243 2.453 . S
Tb240 O244 2.596 . S
Tb240 O245 2.374 . S
Tb240 O253 2.343 . S
Tb240 O255 2.353 . S
Tb240 O257 2.427 . S
Tb240 O258 2.513 . S
C241 O245 1.251 . S
C241 O247 1.263 . S
Tb242 O244 2.343 . S
Tb242 O247 2.353 . S
Tb242 O250 2.427 . S
Tb242 O251 2.513 . S
Tb242 O252 2.453 . S
Tb242 O253 2.596 . S
Tb242 O254 2.374 . S
O243 Tb240 2.453 . S
O243 C259 1.245 . S
O244 Tb240 2.596 . S
O244 Tb242 2.343 . S
O244 C259 1.259 . S
O245 Tb240 2.374 . S
O245 C241 1.251 . S
C246 O250 1.275 . S
C246 O251 1.246 . S
O247 C241 1.263 . S
O247 Tb242 2.353 . S
C248 O252 1.245 . S
C248 O253 1.259 . S
C249 O254 1.250 . S
C249 O255 1.263 . S
O250 Tb242 2.427 . S
O250 C246 1.275 . S
O251 Tb242 2.513 . S
O251 C246 1.246 . S
O252 Tb242 2.453 . S
O252 C248 1.245 . S
O253 Tb240 2.343 . S
O253 Tb242 2.596 . S
O253 C248 1.259 . S
O254 Tb242 2.374 . S
O254 C249 1.250 . S
O255 Tb240 2.353 . S
O255 C249 1.263 . S
C256 O257 1.275 . S
C256 O258 1.246 . S
O257 Tb240 2.427 . S
O257 C256 1.275 . S
O258 Tb240 2.513 . S
O258 C256 1.246 . S
C259 O243 1.245 . S
C259 O244 1.259 . S
Tb260 O263 2.453 . S
Tb260 O264 2.596 . S
Tb260 O265 2.374 . S
Tb260 O273 2.343 . S
Tb260 O275 2.353 . S
Tb260 O277 2.427 . S
Tb260 O278 2.513 . S
C261 O265 1.251 . S
C261 O267 1.263 . S
Tb262 O264 2.343 . S
Tb262 O267 2.353 . S
Tb262 O270 2.427 . S
Tb262 O271 2.513 . S
Tb262 O272 2.453 . S
Tb262 O273 2.596 . S
Tb262 O274 2.374 . S
O263 Tb260 2.453 . S
O263 C279 1.245 . S
O264 Tb260 2.596 . S
O264 Tb262 2.343 . S
O264 C279 1.259 . S
O265 Tb260 2.374 . S
O265 C261 1.251 . S
C266 O270 1.275 . S
C266 O271 1.246 . S
O267 C261 1.263 . S
O267 Tb262 2.353 . S
C268 O272 1.245 . S
C268 O273 1.259 . S
C269 O274 1.250 . S
C269 O275 1.263 . S
O270 Tb262 2.427 . S
O270 C266 1.275 . S
O271 Tb262 2.513 . S
O271 C266 1.246 . S
O272 Tb262 2.453 . S
O272 C268 1.245 . S
O273 Tb260 2.343 . S
O273 Tb262 2.596 . S
O273 C268 1.259 . S
O274 Tb262 2.374 . S
O274 C269 1.250 . S
O275 Tb260 2.353 . S
O275 C269 1.263 . S
C276 O277 1.275 . S
C276 O278 1.246 . S
O277 Tb260 2.427 . S
O277 C276 1.275 . S
O278 Tb260 2.513 . S
O278 C276 1.246 . S
C279 O263 1.245 . S
C279 O264 1.259 . S
Tb280 O283 2.453 . S
Tb280 O284 2.596 . S
Tb280 O285 2.374 . S
Tb280 O293 2.343 . S
Tb280 O295 2.353 . S
Tb280 O297 2.427 . S
Tb280 O298 2.513 . S
C281 O285 1.251 . S
C281 O287 1.263 . S
Tb282 O284 2.343 . S
Tb282 O287 2.353 . S
Tb282 O290 2.427 . S
Tb282 O291 2.513 . S
Tb282 O292 2.453 . S
Tb282 O293 2.596 . S
Tb282 O294 2.374 . S
O283 Tb280 2.453 . S
O283 C299 1.245 . S
O284 Tb280 2.596 . S
O284 Tb282 2.343 . S
O284 C299 1.259 . S
O285 Tb280 2.374 . S
O285 C281 1.251 . S
C286 O290 1.275 . S
C286 O291 1.246 . S
O287 C281 1.263 . S
O287 Tb282 2.353 . S
C288 O292 1.245 . S
C288 O293 1.259 . S
C289 O294 1.250 . S
C289 O295 1.263 . S
O290 Tb282 2.427 . S
O290 C286 1.275 . S
O291 Tb282 2.513 . S
O291 C286 1.246 . S
O292 Tb282 2.453 . S
O292 C288 1.245 . S
O293 Tb280 2.343 . S
O293 Tb282 2.596 . S
O293 C288 1.259 . S
O294 Tb282 2.374 . S
O294 C289 1.250 . S
O295 Tb280 2.353 . S
O295 C289 1.263 . S
C296 O297 1.275 . S
C296 O298 1.246 . S
O297 Tb280 2.427 . S
O297 C296 1.275 . S
O298 Tb280 2.513 . S
O298 C296 1.246 . S
C299 O283 1.245 . S
C299 O284 1.259 . S
Tb300 O303 2.453 . S
Tb300 O304 2.596 . S
Tb300 O305 2.374 . S
Tb300 O313 2.343 . S
Tb300 O315 2.353 . S
Tb300 O317 2.427 . S
Tb300 O318 2.513 . S
C301 O305 1.251 . S
C301 O307 1.263 . S
Tb302 O304 2.343 . S
Tb302 O307 2.353 . S
Tb302 O310 2.427 . S
Tb302 O311 2.513 . S
Tb302 O312 2.453 . S
Tb302 O313 2.596 . S
Tb302 O314 2.374 . S
O303 Tb300 2.453 . S
O303 C319 1.245 . S
O304 Tb300 2.596 . S
O304 Tb302 2.343 . S
O304 C319 1.259 . S
O305 Tb300 2.374 . S
O305 C301 1.251 . S
C306 O310 1.275 . S
C306 O311 1.246 . S
O307 C301 1.263 . S
O307 Tb302 2.353 . S
C308 O312 1.245 . S
C308 O313 1.259 . S
C309 O314 1.250 . S
C309 O315 1.263 . S
O310 Tb302 2.427 . S
O310 C306 1.275 . S
O311 Tb302 2.513 . S
O311 C306 1.246 . S
O312 Tb302 2.453 . S
O312 C308 1.245 . S
O313 Tb300 2.343 . S
O313 Tb302 2.596 . S
O313 C308 1.259 . S
O314 Tb302 2.374 . S
O314 C309 1.250 . S
O315 Tb300 2.353 . S
O315 C309 1.263 . S
C316 O317 1.275 . S
C316 O318 1.246 . S
O317 Tb300 2.427 . S
O317 C316 1.275 . S
O318 Tb300 2.513 . S
O318 C316 1.246 . S
C319 O303 1.245 . S
C319 O304 1.259 . S
C320 C321 1.387 . S
C320 H324 0.950 . S
C320 C329 1.390 . S
C321 C320 1.387 . S
C321 C323 1.387 . S
H322 C329 0.950 . S
C323 C321 1.387 . S
C323 C325 1.390 . S
C323 H327 0.950 . S
H324 C320 0.950 . S
C325 C323 1.390 . S
C325 C326 1.387 . S
C325 H328 0.950 . S
C326 C325 1.387 . S
C326 C329 1.387 . S
H327 C323 0.950 . S
H328 C325 0.950 . S
C329 C320 1.390 . S
C329 H322 0.950 . S
C329 C326 1.387 . S
C330 C331 1.387 . S
C330 H334 0.950 . S
C330 C339 1.390 . S
C331 C330 1.387 . S
C331 C333 1.387 . S
H332 C339 0.950 . S
C333 C331 1.387 . S
C333 C335 1.390 . S
C333 H337 0.950 . S
H334 C330 0.950 . S
C335 C333 1.390 . S
C335 C336 1.387 . S
C335 H338 0.950 . S
C336 C335 1.387 . S
C336 C339 1.387 . S
H337 C333 0.950 . S
H338 C335 0.950 . S
C339 C330 1.390 . S
C339 H332 0.950 . S
C339 C336 1.387 . S
C340 C341 1.387 . S
C340 H344 0.950 . S
C340 C349 1.390 . S
C341 C340 1.387 . S
C341 C343 1.387 . S
H342 C349 0.950 . S
C343 C341 1.387 . S
C343 C345 1.390 . S
C343 H347 0.950 . S
H344 C340 0.950 . S
C345 C343 1.390 . S
C345 C346 1.387 . S
C345 H348 0.950 . S
C346 C345 1.387 . S
C346 C349 1.387 . S
H347 C343 0.950 . S
H348 C345 0.950 . S
C349 C340 1.390 . S
C349 H342 0.950 . S
C349 C346 1.387 . S
C350 C351 1.387 . S
C350 H354 0.950 . S
C350 C359 1.390 . S
C351 C350 1.387 . S
C351 C353 1.387 . S
H352 C359 0.950 . S
C353 C351 1.387 . S
C353 C355 1.390 . S
C353 H357 0.950 . S
H354 C350 0.950 . S
C355 C353 1.390 . S
C355 C356 1.387 . S
C355 H358 0.950 . S
C356 C355 1.387 . S
C356 C359 1.387 . S
H357 C353 0.950 . S
H358 C355 0.950 . S
C359 C350 1.390 . S
C359 H352 0.950 . S
C359 C356 1.387 . S
C360 C361 1.387 . S
C360 H364 0.950 . S
C360 C369 1.390 . S
C361 C360 1.387 . S
C361 C363 1.387 . S
H362 C369 0.950 . S
C363 C361 1.387 . S
C363 C365 1.390 . S
C363 H367 0.950 . S
H364 C360 0.950 . S
C365 C363 1.390 . S
C365 C366 1.387 . S
C365 H368 0.950 . S
C366 C365 1.387 . S
C366 C369 1.387 . S
H367 C363 0.950 . S
H368 C365 0.950 . S
C369 C360 1.390 . S
C369 H362 0.950 . S
C369 C366 1.387 . S
C370 C371 1.387 . S
C370 H374 0.950 . S
C370 C379 1.390 . S
C371 C370 1.387 . S
C371 C373 1.387 . S
H372 C379 0.950 . S
C373 C371 1.387 . S
C373 C375 1.390 . S
C373 H377 0.950 . S
H374 C370 0.950 . S
C375 C373 1.390 . S
C375 C376 1.387 . S
C375 H378 0.950 . S
C376 C375 1.387 . S
C376 C379 1.387 . S
H377 C373 0.950 . S
H378 C375 0.950 . S
C379 C370 1.390 . S
C379 H372 0.950 . S
C379 C376 1.387 . S
C380 C381 1.387 . S
C380 H384 0.950 . S
C380 C389 1.390 . S
C381 C380 1.387 . S
C381 C383 1.387 . S
H382 C389 0.950 . S
C383 C381 1.387 . S
C383 C385 1.390 . S
C383 H387 0.950 . S
H384 C380 0.950 . S
C385 C383 1.390 . S
C385 C386 1.387 . S
C385 H388 0.950 . S
C386 C385 1.387 . S
C386 C389 1.387 . S
H387 C383 0.950 . S
H388 C385 0.950 . S
C389 C380 1.390 . S
C389 H382 0.950 . S
C389 C386 1.387 . S
C390 C391 1.387 . S
C390 H394 0.950 . S
C390 C399 1.390 . S
C391 C390 1.387 . S
C391 C393 1.387 . S
H392 C399 0.950 . S
C393 C391 1.387 . S
C393 C395 1.390 . S
C393 H397 0.950 . S
H394 C390 0.950 . S
C395 C393 1.390 . S
C395 C396 1.387 . S
C395 H398 0.950 . S
C396 C395 1.387 . S
C396 C399 1.387 . S
H397 C393 0.950 . S
H398 C395 0.950 . S
C399 C390 1.390 . S
C399 H392 0.950 . S
C399 C396 1.387 . S
C400 C401 1.387 . S
C400 H404 0.950 . S
C400 C409 1.390 1_565 S
C401 C400 1.387 . S
C401 C403 1.387 . S
H402 C409 0.950 . S
C403 C401 1.387 . S
C403 C405 1.390 1_565 S
C403 H407 0.950 . S
H404 C400 0.950 . S
C405 C403 1.390 1_545 S
C405 C406 1.387 . S
C405 H408 0.950 . S
C406 C405 1.387 . S
C406 C409 1.387 . S
H407 C403 0.950 . S
H408 C405 0.950 . S
C409 C400 1.390 1_545 S
C409 H402 0.950 . S
C409 C406 1.387 . S
C410 C411 1.387 . S
C410 H414 0.950 . S
C410 C419 1.390 1_545 S
C411 C410 1.387 . S
C411 C413 1.387 . S
H412 C419 0.950 . S
C413 C411 1.387 . S
C413 C415 1.390 1_545 S
C413 H417 0.950 . S
H414 C410 0.950 . S
C415 C413 1.390 1_565 S
C415 C416 1.387 . S
C415 H418 0.950 . S
C416 C415 1.387 . S
C416 C419 1.387 . S
H417 C413 0.950 . S
H418 C415 0.950 . S
C419 C410 1.390 1_565 S
C419 H412 0.950 . S
C419 C416 1.387 . S
C420 C421 1.387 . S
C420 H424 0.950 . S
C420 C429 1.390 1_545 S
C421 C420 1.387 . S
C421 C423 1.387 . S
H422 C429 0.950 . S
C423 C421 1.387 . S
C423 C425 1.390 1_545 S
C423 H427 0.950 . S
H424 C420 0.950 . S
C425 C423 1.390 1_565 S
C425 C426 1.387 . S
C425 H428 0.950 . S
C426 C425 1.387 . S
C426 C429 1.387 . S
H427 C423 0.950 . S
H428 C425 0.950 . S
C429 C420 1.390 1_565 S
C429 H422 0.950 . S
C429 C426 1.387 . S
C430 C431 1.387 . S
C430 H434 0.950 . S
C430 C439 1.390 1_545 S
C431 C430 1.387 . S
C431 C433 1.387 . S
H432 C439 0.950 . S
C433 C431 1.387 . S
C433 C435 1.390 1_545 S
C433 H437 0.950 . S
H434 C430 0.950 . S
C435 C433 1.390 1_565 S
C435 C436 1.387 . S
C435 H438 0.950 . S
C436 C435 1.387 . S
C436 C439 1.387 . S
H437 C433 0.950 . S
H438 C435 0.950 . S
C439 C430 1.390 1_565 S
C439 H432 0.950 . S
C439 C436 1.387 . S
C440 C441 1.387 . S
C440 H444 0.950 . S
C440 C449 1.390 . S
C441 C440 1.387 . S
C441 C443 1.387 . S
H442 C449 0.950 . S
C443 C441 1.387 . S
C443 C445 1.390 . S
C443 H447 0.950 . S
H444 C440 0.950 . S
C445 C443 1.390 . S
C445 C446 1.387 . S
C445 H448 0.950 . S
C446 C445 1.387 . S
C446 C449 1.387 . S
H447 C443 0.950 . S
H448 C445 0.950 . S
C449 C440 1.390 . S
C449 H442 0.950 . S
C449 C446 1.387 . S
C450 C451 1.387 . S
C450 H454 0.950 . S
C450 C459 1.390 . S
C451 C450 1.387 . S
C451 C453 1.387 . S
H452 C459 0.950 . S
C453 C451 1.387 . S
C453 C455 1.390 . S
C453 H457 0.950 . S
H454 C450 0.950 . S
C455 C453 1.390 . S
C455 C456 1.387 . S
C455 H458 0.950 . S
C456 C455 1.387 . S
C456 C459 1.387 . S
H457 C453 0.950 . S
H458 C455 0.950 . S
C459 C450 1.390 . S
C459 H452 0.950 . S
C459 C456 1.387 . S
C460 C461 1.387 . S
C460 H464 0.950 . S
C460 C469 1.390 . S
C461 C460 1.387 . S
C461 C463 1.387 . S
H462 C469 0.950 . S
C463 C461 1.387 . S
C463 C465 1.390 . S
C463 H467 0.950 . S
H464 C460 0.950 . S
C465 C463 1.390 . S
C465 C466 1.387 . S
C465 H468 0.950 . S
C466 C465 1.387 . S
C466 C469 1.387 . S
H467 C463 0.950 . S
H468 C465 0.950 . S
C469 C460 1.390 . S
C469 H462 0.950 . S
C469 C466 1.387 . S
C470 C471 1.387 . S
C470 H474 0.950 . S
C470 C479 1.390 . S
C471 C470 1.387 . S
C471 C473 1.387 . S
H472 C479 0.950 . S
C473 C471 1.387 . S
C473 C475 1.390 . S
C473 H477 0.950 . S
H474 C470 0.950 . S
C475 C473 1.390 . S
C475 C476 1.387 . S
C475 H478 0.950 . S
C476 C475 1.387 . S
C476 C479 1.387 . S
H477 C473 0.950 . S
H478 C475 0.950 . S
C479 C470 1.390 . S
C479 H472 0.950 . S
C479 C476 1.387 . S
C480 C481 1.387 . S
C480 H484 0.950 . S
C480 C489 1.390 1_556 S
C481 C480 1.387 . S
C481 C483 1.387 . S
H482 C489 0.950 . S
C483 C481 1.387 . S
C483 C485 1.390 1_556 S
C483 H487 0.950 . S
H484 C480 0.950 . S
C485 C483 1.390 1_554 S
C485 C486 1.387 . S
C485 H488 0.950 . S
C486 C485 1.387 . S
C486 C489 1.387 . S
H487 C483 0.950 . S
H488 C485 0.950 . S
C489 C480 1.390 1_554 S
C489 H482 0.950 . S
C489 C486 1.387 . S
C490 C491 1.387 . S
C490 H494 0.950 . S
C490 C499 1.390 1_556 S
C491 C490 1.387 . S
C491 C493 1.387 . S
H492 C499 0.950 . S
C493 C491 1.387 . S
C493 C495 1.390 1_556 S
C493 H497 0.950 . S
H494 C490 0.950 . S
C495 C493 1.390 1_554 S
C495 C496 1.387 . S
C495 H498 0.950 . S
C496 C495 1.387 . S
C496 C499 1.387 . S
H497 C493 0.950 . S
H498 C495 0.950 . S
C499 C490 1.390 1_554 S
C499 H492 0.950 . S
C499 C496 1.387 . S
C500 C501 1.387 . S
C500 H504 0.950 . S
C500 C509 1.390 . S
C501 C500 1.387 . S
C501 C503 1.387 . S
H502 C509 0.950 . S
C503 C501 1.387 . S
C503 C505 1.390 . S
C503 H507 0.950 . S
H504 C500 0.950 . S
C505 C503 1.390 . S
C505 C506 1.387 . S
C505 H508 0.950 . S
C506 C505 1.387 . S
C506 C509 1.387 . S
H507 C503 0.950 . S
H508 C505 0.950 . S
C509 C500 1.390 . S
C509 H502 0.950 . S
C509 C506 1.387 . S
C510 C511 1.387 . S
C510 H514 0.950 . S
C510 C519 1.390 . S
C511 C510 1.387 . S
C511 C513 1.387 . S
H512 C519 0.950 . S
C513 C511 1.387 . S
C513 C515 1.390 . S
C513 H517 0.950 . S
H514 C510 0.950 . S
C515 C513 1.390 . S
C515 C516 1.387 . S
C515 H518 0.950 . S
C516 C515 1.387 . S
C516 C519 1.387 . S
H517 C513 0.950 . S
H518 C515 0.950 . S
C519 C510 1.390 . S
C519 H512 0.950 . S
C519 C516 1.387 . S
C520 C521 1.387 . S
C520 H524 0.950 . S
C520 C529 1.390 1_554 S
C521 C520 1.387 . S
C521 C523 1.387 . S
H522 C529 0.950 . S
C523 C521 1.387 . S
C523 C525 1.390 1_554 S
C523 H527 0.950 . S
H524 C520 0.950 . S
C525 C523 1.390 1_556 S
C525 C526 1.387 . S
C525 H528 0.950 . S
C526 C525 1.387 . S
C526 C529 1.387 . S
H527 C523 0.950 . S
H528 C525 0.950 . S
C529 C520 1.390 1_556 S
C529 H522 0.950 . S
C529 C526 1.387 . S
C530 C531 1.387 . S
C530 H534 0.950 . S
C530 C539 1.390 1_556 S
C531 C530 1.387 . S
C531 C533 1.387 . S
H532 C539 0.950 . S
C533 C531 1.387 . S
C533 C535 1.390 1_556 S
C533 H537 0.950 . S
H534 C530 0.950 . S
C535 C533 1.390 1_554 S
C535 C536 1.387 . S
C535 H538 0.950 . S
C536 C535 1.387 . S
C536 C539 1.387 . S
H537 C533 0.950 . S
H538 C535 0.950 . S
C539 C530 1.390 1_554 S
C539 H532 0.950 . S
C539 C536 1.387 . S
C540 C541 1.387 . S
C540 H544 0.950 . S
C540 C549 1.390 . S
C541 C540 1.387 . S
C541 C543 1.387 . S
H542 C549 0.950 . S
C543 C541 1.387 . S
C543 C545 1.390 . S
C543 H547 0.950 . S
H544 C540 0.950 . S
C545 C543 1.390 . S
C545 C546 1.387 . S
C545 H548 0.950 . S
C546 C545 1.387 . S
C546 C549 1.387 . S
H547 C543 0.950 . S
H548 C545 0.950 . S
C549 C540 1.390 . S
C549 H542 0.950 . S
C549 C546 1.387 . S
C550 C551 1.387 . S
C550 H554 0.950 . S
C550 C559 1.390 . S
C551 C550 1.387 . S
C551 C553 1.387 . S
H552 C559 0.950 . S
C553 C551 1.387 . S
C553 C555 1.390 . S
C553 H557 0.950 . S
H554 C550 0.950 . S
C555 C553 1.390 . S
C555 C556 1.387 . S
C555 H558 0.950 . S
C556 C555 1.387 . S
C556 C559 1.387 . S
H557 C553 0.950 . S
H558 C555 0.950 . S
C559 C550 1.390 . S
C559 H552 0.950 . S
C559 C556 1.387 . S
C560 C561 1.387 . S
C560 H564 0.950 . S
C560 C569 1.390 1_645 S
C561 C560 1.387 . S
C561 C563 1.387 . S
H562 C569 0.950 . S
C563 C561 1.387 . S
C563 C565 1.390 1_645 S
C563 H567 0.950 . S
H564 C560 0.950 . S
C565 C563 1.390 1_465 S
C565 C566 1.387 . S
C565 H568 0.950 . S
C566 C565 1.387 . S
C566 C569 1.387 . S
H567 C563 0.950 . S
H568 C565 0.950 . S
C569 C560 1.390 1_465 S
C569 H562 0.950 . S
C569 C566 1.387 . S
C570 C571 1.387 . S
C570 H574 0.950 . S
C570 C579 1.390 1_665 S
C571 C570 1.387 . S
C571 C573 1.387 . S
H572 C579 0.950 . S
C573 C571 1.387 . S
C573 C575 1.390 1_665 S
C573 H577 0.950 . S
H574 C570 0.950 . S
C575 C573 1.390 1_445 S
C575 C576 1.387 . S
C575 H578 0.950 . S
C576 C575 1.387 . S
C576 C579 1.387 . S
H577 C573 0.950 . S
H578 C575 0.950 . S
C579 C570 1.390 1_445 S
C579 H572 0.950 . S
C579 C576 1.387 . S
C580 C581 1.387 . S
C580 H584 0.950 . S
C580 C589 1.390 1_465 S
C581 C580 1.387 . S
C581 C583 1.387 . S
H582 C589 0.950 . S
C583 C581 1.387 . S
C583 C585 1.390 1_465 S
C583 H587 0.950 . S
H584 C580 0.950 . S
C585 C583 1.390 1_645 S
C585 C586 1.387 . S
C585 H588 0.950 . S
C586 C585 1.387 . S
C586 C589 1.387 . S
H587 C583 0.950 . S
H588 C585 0.950 . S
C589 C580 1.390 1_645 S
C589 H582 0.950 . S
C589 C586 1.387 . S
C590 C591 1.387 . S
C590 H594 0.950 . S
C590 C599 1.390 1_665 S
C591 C590 1.387 . S
C591 C593 1.387 . S
H592 C599 0.950 . S
C593 C591 1.387 . S
C593 C595 1.390 1_665 S
C593 H597 0.950 . S
H594 C590 0.950 . S
C595 C593 1.390 1_445 S
C595 C596 1.387 . S
C595 H598 0.950 . S
C596 C595 1.387 . S
C596 C599 1.387 . S
H597 C593 0.950 . S
H598 C595 0.950 . S
C599 C590 1.390 1_445 S
C599 H592 0.950 . S
C599 C596 1.387 . S
C600 C601 1.387 . S
C600 H604 0.950 . S
C600 C609 1.390 . S
C601 C600 1.387 . S
C601 C603 1.387 . S
H602 C609 0.950 . S
C603 C601 1.387 . S
C603 C605 1.390 . S
C603 H607 0.950 . S
H604 C600 0.950 . S
C605 C603 1.390 . S
C605 C606 1.387 . S
C605 H608 0.950 . S
C606 C605 1.387 . S
C606 C609 1.387 . S
H607 C603 0.950 . S
H608 C605 0.950 . S
C609 C600 1.390 . S
C609 H602 0.950 . S
C609 C606 1.387 . S
C610 C611 1.387 . S
C610 H614 0.950 . S
C610 C619 1.390 . S
C611 C610 1.387 . S
C611 C613 1.387 . S
H612 C619 0.950 . S
C613 C611 1.387 . S
C613 C615 1.390 . S
C613 H617 0.950 . S
H614 C610 0.950 . S
C615 C613 1.390 . S
C615 C616 1.387 . S
C615 H618 0.950 . S
C616 C615 1.387 . S
C616 C619 1.387 . S
H617 C613 0.950 . S
H618 C615 0.950 . S
C619 C610 1.390 . S
C619 H612 0.950 . S
C619 C616 1.387 . S
C620 C621 1.387 . S
C620 H624 0.950 . S
C620 C629 1.390 . S
C621 C620 1.387 . S
C621 C623 1.387 . S
H622 C629 0.950 . S
C623 C621 1.387 . S
C623 C625 1.390 . S
C623 H627 0.950 . S
H624 C620 0.950 . S
C625 C623 1.390 . S
C625 C626 1.387 . S
C625 H628 0.950 . S
C626 C625 1.387 . S
C626 C629 1.387 . S
H627 C623 0.950 . S
H628 C625 0.950 . S
C629 C620 1.390 . S
C629 H622 0.950 . S
C629 C626 1.387 . S
C630 C631 1.387 . S
C630 H634 0.950 . S
C630 C639 1.390 . S
C631 C630 1.387 . S
C631 C633 1.387 . S
H632 C639 0.950 . S
C633 C631 1.387 . S
C633 C635 1.390 . S
C633 H637 0.950 . S
H634 C630 0.950 . S
C635 C633 1.390 . S
C635 C636 1.387 . S
C635 H638 0.950 . S
C636 C635 1.387 . S
C636 C639 1.387 . S
H637 C633 0.950 . S
H638 C635 0.950 . S
C639 C630 1.390 . S
C639 H632 0.950 . S
C639 C636 1.387 . S
C640 C641 1.387 . S
C640 H644 0.950 . S
C640 C649 1.390 . S
C641 C640 1.387 . S
C641 C643 1.387 . S
H642 C649 0.950 . S
C643 C641 1.387 . S
C643 C645 1.390 . S
C643 H647 0.950 . S
H644 C640 0.950 . S
C645 C643 1.390 . S
C645 C646 1.387 . S
C645 H648 0.950 . S
C646 C645 1.387 . S
C646 C649 1.387 . S
H647 C643 0.950 . S
H648 C645 0.950 . S
C649 C640 1.390 . S
C649 H642 0.950 . S
C649 C646 1.387 . S
C650 C651 1.387 . S
C650 H654 0.950 . S
C650 C659 1.390 . S
C651 C650 1.387 . S
C651 C653 1.387 . S
H652 C659 0.950 . S
C653 C651 1.387 . S
C653 C655 1.390 . S
C653 H657 0.950 . S
H654 C650 0.950 . S
C655 C653 1.390 . S
C655 C656 1.387 . S
C655 H658 0.950 . S
C656 C655 1.387 . S
C656 C659 1.387 . S
H657 C653 0.950 . S
H658 C655 0.950 . S
C659 C650 1.390 . S
C659 H652 0.950 . S
C659 C656 1.387 . S
C660 C661 1.387 . S
C660 H664 0.950 . S
C660 C669 1.390 . S
C661 C660 1.387 . S
C661 C663 1.387 . S
H662 C669 0.950 . S
C663 C661 1.387 . S
C663 C665 1.390 . S
C663 H667 0.950 . S
H664 C660 0.950 . S
C665 C663 1.390 . S
C665 C666 1.387 . S
C665 H668 0.950 . S
C666 C665 1.387 . S
C666 C669 1.387 . S
H667 C663 0.950 . S
H668 C665 0.950 . S
C669 C660 1.390 . S
C669 H662 0.950 . S
C669 C666 1.387 . S
C670 C671 1.387 . S
C670 H674 0.950 . S
C670 C679 1.390 . S
C671 C670 1.387 . S
C671 C673 1.387 . S
H672 C679 0.950 . S
C673 C671 1.387 . S
C673 C675 1.390 . S
C673 H677 0.950 . S
H674 C670 0.950 . S
C675 C673 1.390 . S
C675 C676 1.387 . S
C675 H678 0.950 . S
C676 C675 1.387 . S
C676 C679 1.387 . S
H677 C673 0.950 . S
H678 C675 0.950 . S
C679 C670 1.390 . S
C679 H672 0.950 . S
C679 C676 1.387 . S
C680 C681 1.387 . S
C680 H684 0.950 . S
C680 C689 1.390 . S
C681 C680 1.387 . S
C681 C683 1.387 . S
H682 C689 0.950 . S
C683 C681 1.387 . S
C683 C685 1.390 . S
C683 H687 0.950 . S
H684 C680 0.950 . S
C685 C683 1.390 . S
C685 C686 1.387 . S
C685 H688 0.950 . S
C686 C685 1.387 . S
C686 C689 1.387 . S
H687 C683 0.950 . S
H688 C685 0.950 . S
C689 C680 1.390 . S
C689 H682 0.950 . S
C689 C686 1.387 . S
C690 C691 1.387 . S
C690 H694 0.950 . S
C690 C699 1.390 . S
C691 C690 1.387 . S
C691 C693 1.387 . S
H692 C699 0.950 . S
C693 C691 1.387 . S
C693 C695 1.390 . S
C693 H697 0.950 . S
H694 C690 0.950 . S
C695 C693 1.390 . S
C695 C696 1.387 . S
C695 H698 0.950 . S
C696 C695 1.387 . S
C696 C699 1.387 . S
H697 C693 0.950 . S
H698 C695 0.950 . S
C699 C690 1.390 . S
C699 H692 0.950 . S
C699 C696 1.387 . S
C700 C701 1.387 . S
C700 H704 0.950 . S
C700 C709 1.390 . S
C701 C700 1.387 . S
C701 C703 1.387 . S
H702 C709 0.950 . S
C703 C701 1.387 . S
C703 C705 1.390 . S
C703 H707 0.950 . S
H704 C700 0.950 . S
C705 C703 1.390 . S
C705 C706 1.387 . S
C705 H708 0.950 . S
C706 C705 1.387 . S
C706 C709 1.387 . S
H707 C703 0.950 . S
H708 C705 0.950 . S
C709 C700 1.390 . S
C709 H702 0.950 . S
C709 C706 1.387 . S
C710 C711 1.387 . S
C710 H714 0.950 . S
C710 C719 1.390 . S
C711 C710 1.387 . S
C711 C713 1.387 . S
H712 C719 0.950 . S
C713 C711 1.387 . S
C713 C715 1.390 . S
C713 H717 0.950 . S
H714 C710 0.950 . S
C715 C713 1.390 . S
C715 C716 1.387 . S
C715 H718 0.950 . S
C716 C715 1.387 . S
C716 C719 1.387 . S
H717 C713 0.950 . S
H718 C715 0.950 . S
C719 C710 1.390 . S
C719 H712 0.950 . S
C719 C716 1.387 . S
C720 C721 1.387 . S
C720 H724 0.950 . S
C720 C729 1.390 . S
C721 C720 1.387 . S
C721 C723 1.387 . S
H722 C729 0.950 . S
C723 C721 1.387 . S
C723 C725 1.390 . S
C723 H727 0.950 . S
H724 C720 0.950 . S
C725 C723 1.390 . S
C725 C726 1.387 . S
C725 H728 0.950 . S
C726 C725 1.387 . S
C726 C729 1.387 . S
H727 C723 0.950 . S
H728 C725 0.950 . S
C729 C720 1.390 . S
C729 H722 0.950 . S
C729 C726 1.387 . S
C730 C731 1.387 . S
C730 H734 0.950 . S
C730 C739 1.390 . S
C731 C730 1.387 . S
C731 C733 1.387 . S
H732 C739 0.950 . S
C733 C731 1.387 . S
C733 C735 1.390 . S
C733 H737 0.950 . S
H734 C730 0.950 . S
C735 C733 1.390 . S
C735 C736 1.387 . S
C735 H738 0.950 . S
C736 C735 1.387 . S
C736 C739 1.387 . S
H737 C733 0.950 . S
H738 C735 0.950 . S
C739 C730 1.390 . S
C739 H732 0.950 . S
C739 C736 1.387 . S
C740 C741 1.387 . S
C740 H744 0.950 . S
C740 C749 1.390 . S
C741 C740 1.387 . S
C741 C743 1.387 . S
H742 C749 0.950 . S
C743 C741 1.387 . S
C743 C745 1.390 . S
C743 H747 0.950 . S
H744 C740 0.950 . S
C745 C743 1.390 . S
C745 C746 1.387 . S
C745 H748 0.950 . S
C746 C745 1.387 . S
C746 C749 1.387 . S
H747 C743 0.950 . S
H748 C745 0.950 . S
C749 C740 1.390 . S
C749 H742 0.950 . S
C749 C746 1.387 . S
C750 C751 1.387 . S
C750 H754 0.950 . S
C750 C759 1.390 . S
C751 C750 1.387 . S
C751 C753 1.387 . S
H752 C759 0.950 . S
C753 C751 1.387 . S
C753 C755 1.390 . S
C753 H757 0.950 . S
H754 C750 0.950 . S
C755 C753 1.390 . S
C755 C756 1.387 . S
C755 H758 0.950 . S
C756 C755 1.387 . S
C756 C759 1.387 . S
H757 C753 0.950 . S
H758 C755 0.950 . S
C759 C750 1.390 . S
C759 H752 0.950 . S
C759 C756 1.387 . S
C760 C761 1.387 . S
C760 H764 0.950 . S
C760 C769 1.390 . S
C761 C760 1.387 . S
C761 C763 1.387 . S
H762 C769 0.950 . S
C763 C761 1.387 . S
C763 C765 1.390 . S
C763 H767 0.950 . S
H764 C760 0.950 . S
C765 C763 1.390 . S
C765 C766 1.387 . S
C765 H768 0.950 . S
C766 C765 1.387 . S
C766 C769 1.387 . S
H767 C763 0.950 . S
H768 C765 0.950 . S
C769 C760 1.390 . S
C769 H762 0.950 . S
C769 C766 1.387 . S
C770 C771 1.387 . S
C770 H774 0.950 . S
C770 C779 1.390 . S
C771 C770 1.387 . S
C771 C773 1.387 . S
H772 C779 0.950 . S
C773 C771 1.387 . S
C773 C775 1.390 . S
C773 H777 0.950 . S
H774 C770 0.950 . S
C775 C773 1.390 . S
C775 C776 1.387 . S
C775 H778 0.950 . S
C776 C775 1.387 . S
C776 C779 1.387 . S
H777 C773 0.950 . S
H778 C775 0.950 . S
C779 C770 1.390 . S
C779 H772 0.950 . S
C779 C776 1.387 . S
C780 C781 1.387 . S
C780 H784 0.950 . S
C780 C789 1.390 . S
C781 C780 1.387 . S
C781 C783 1.387 . S
H782 C789 0.950 . S
C783 C781 1.387 . S
C783 C785 1.390 . S
C783 H787 0.950 . S
H784 C780 0.950 . S
C785 C783 1.390 . S
C785 C786 1.387 . S
C785 H788 0.950 . S
C786 C785 1.387 . S
C786 C789 1.387 . S
H787 C783 0.950 . S
H788 C785 0.950 . S
C789 C780 1.390 . S
C789 H782 0.950 . S
C789 C786 1.387 . S
C790 C791 1.387 . S
C790 H794 0.950 . S
C790 C799 1.390 . S
C791 C790 1.387 . S
C791 C793 1.387 . S
H792 C799 0.950 . S
C793 C791 1.387 . S
C793 C795 1.390 . S
C793 H797 0.950 . S
H794 C790 0.950 . S
C795 C793 1.390 . S
C795 C796 1.387 . S
C795 H798 0.950 . S
C796 C795 1.387 . S
C796 C799 1.387 . S
H797 C793 0.950 . S
H798 C795 0.950 . S
C799 C790 1.390 . S
C799 H792 0.950 . S
C799 C796 1.387 . S
C321 C6 1.611 . S
C326 C186 1.611 . S
C331 C26 1.607 . S
C336 C166 1.607 . S
C341 C226 1.607 . S
C346 C46 1.607 . S
C351 C66 1.607 . S
C356 C206 1.607 . S
C361 C276 1.611 . S
C366 C96 1.611 . S
C371 C256 1.611 . S
C376 C116 1.611 . S
C381 C316 1.611 . S
C386 C136 1.611 . S
C391 C156 1.607 . S
C396 C296 1.607 . S
C401 C49 1.543 . S
C406 C9 1.543 . S
C411 C69 1.542 . S
C416 C29 1.542 . S
C421 C121 1.542 . S
C426 C81 1.542 . S
C431 C101 1.542 . S
C436 C141 1.542 . S
C441 C209 1.542 . S
C446 C169 1.542 . S
C451 C229 1.542 . S
C456 C189 1.542 . S
C461 C241 1.542 . S
C466 C281 1.542 . S
C471 C261 1.542 . S
C476 C301 1.542 . S
C481 C109 1.560 . S
C486 C1 1.561 . S
C491 C89 1.561 . S
C496 C21 1.561 . S
C501 C41 1.561 . S
C506 C149 1.560 . S
C511 C129 1.560 . S
C516 C61 1.561 . S
C521 C161 1.560 . S
C526 C269 1.561 . S
C531 C249 1.561 . S
C536 C181 1.561 . S
C541 C201 1.560 . S
C546 C309 1.561 . S
C551 C289 1.561 . S
C556 C221 1.561 . S
C561 C36 1.602 1_545 S
C566 C16 1.602 1_565 S
C571 C76 1.602 1_565 S
C576 C56 1.602 1_545 S
C581 C106 1.606 1_565 S
C586 C86 1.606 1_545 S
C591 C126 1.602 1_565 S
C596 C146 1.602 1_545 S
C601 C196 1.602 . S
C606 C176 1.602 . S
C611 C236 1.602 . S
C616 C216 1.602 . S
C621 C246 1.602 . S
C626 C266 1.602 . S
C631 C286 1.606 . S
C636 C306 1.606 . S
C641 C8 1.822 . S
C646 C19 1.822 . S
C651 C28 1.823 . S
C656 C39 1.823 . S
C661 C48 1.822 . S
C666 C59 1.822 . S
C671 C79 1.826 . S
C676 C68 1.826 . S
C681 C99 1.826 . S
C686 C88 1.826 . S
C691 C108 1.826 . S
C696 C119 1.826 . S
C701 C139 1.822 . S
C706 C128 1.822 . S
C711 C159 1.826 . S
C716 C148 1.826 . S
C721 C179 1.826 1_545 S
C726 C168 1.826 . S
C731 C188 1.826 . S
C736 C199 1.826 1_565 S
C741 C219 1.826 1_565 S
C746 C208 1.826 . S
C751 C239 1.826 1_545 S
C756 C228 1.826 . S
C761 C259 1.822 . S
C766 C248 1.822 1_565 S
C771 C279 1.826 . S
C776 C268 1.826 1_545 S
C781 C288 1.822 1_545 S
C786 C299 1.822 . S
C791 C319 1.822 . S
C796 C308 1.822 1_565 S
