# Generated by pormake.
# Topology xbj, (5)-cn, num edge types: 1
# Building blocks:
#     Node 0, Type 0, BuildingBlock: XOMCOT_clean_sbu_1, # of connection points: 5
#     Node 1, Type 0, BuildingBlock: XOMCOT_clean_sbu_1, # of connection points: 5
#     Node 2, Type 0, BuildingBlock: XOMCOT_clean_sbu_1, # of connection points: 5
#     Node 3, Type 0, BuildingBlock: XOMCOT_clean_sbu_1, # of connection points: 5
#     Node 4, Type 0, BuildingBlock: XOMCOT_clean_sbu_1, # of connection points: 5
#     Node 5, Type 0, BuildingBlock: XOMCOT_clean_sbu_1, # of connection points: 5
#     Node 6, Type 0, BuildingBlock: XOMCOT_clean_sbu_1, # of connection points: 5
#     Node 7, Type 0, BuildingBlock: XOMCOT_clean_sbu_1, # of connection points: 5
#     Edge 8, Type (0, 0), BuildingBlock: UVAHIK_clean_linker_0, # of connection points: 2
#     Edge 9, Type (0, 0), BuildingBlock: UVAHIK_clean_linker_0, # of connection points: 2
#     Edge 10, Type (0, 0), BuildingBlock: UVAHIK_clean_linker_0, # of connection points: 2
#     Edge 11, Type (0, 0), BuildingBlock: UVAHIK_clean_linker_0, # of connection points: 2
#     Edge 12, Type (0, 0), BuildingBlock: UVAHIK_clean_linker_0, # of connection points: 2
#     Edge 13, Type (0, 0), BuildingBlock: UVAHIK_clean_linker_0, # of connection points: 2
#     Edge 14, Type (0, 0), BuildingBlock: UVAHIK_clean_linker_0, # of connection points: 2
#     Edge 15, Type (0, 0), BuildingBlock: UVAHIK_clean_linker_0, # of connection points: 2
#     Edge 16, Type (0, 0), BuildingBlock: UVAHIK_clean_linker_0, # of connection points: 2
#     Edge 17, Type (0, 0), BuildingBlock: UVAHIK_clean_linker_0, # of connection points: 2
#     Edge 18, Type (0, 0), BuildingBlock: UVAHIK_clean_linker_0, # of connection points: 2
#     Edge 19, Type (0, 0), BuildingBlock: UVAHIK_clean_linker_0, # of connection points: 2
#     Edge 20, Type (0, 0), BuildingBlock: UVAHIK_clean_linker_0, # of connection points: 2
#     Edge 21, Type (0, 0), BuildingBlock: UVAHIK_clean_linker_0, # of connection points: 2
#     Edge 22, Type (0, 0), BuildingBlock: UVAHIK_clean_linker_0, # of connection points: 2
#     Edge 23, Type (0, 0), BuildingBlock: UVAHIK_clean_linker_0, # of connection points: 2
#     Edge 24, Type (0, 0), BuildingBlock: UVAHIK_clean_linker_0, # of connection points: 2
#     Edge 25, Type (0, 0), BuildingBlock: UVAHIK_clean_linker_0, # of connection points: 2
#     Edge 26, Type (0, 0), BuildingBlock: UVAHIK_clean_linker_0, # of connection points: 2
#     Edge 27, Type (0, 0), BuildingBlock: UVAHIK_clean_linker_0, # of connection points: 2
# Relax obj value: 0.199
# Max RMSD: 0.174
# Mean RMSD: 0.167
data_MOF--net-xbj--node1-XOMCOT_clean_sbu_1--edge1-UVAHIK_clean_linker_0
_symmetry_space_group_name_H-M    P1
_symmetry_Int_Tables_number       1
_symmetry_cell_setting            triclinic
loop_
_symmetry_equiv_pos_as_xyz
'x, y, z'
_cell_length_a     22.106841
_cell_length_b     22.016137
_cell_length_c     136.52325
_cell_angle_alpha  96.05232
_cell_angle_beta   96.087642
_cell_angle_gamma 89.826899
loop_
_atom_site_label
_atom_site_type_symbol
_atom_site_fract_x
_atom_site_fract_y
_atom_site_fract_z
_atom_type_partial_charge
C0 C 0.32767 0.95601 0.06541 0.0
C1 C 0.38944 0.96604 0.06655 0.0
N2 N 0.41722 0.91307 0.06394 0.0
N3 N 0.31606 0.89696 0.06213 0.0
C4 C 0.37155 0.87171 0.06134 0.0
H5 H 0.29312 0.98997 0.06667 0.0
Co6 Co 0.23706 0.8666 0.05887 0.0
C7 C 0.25481 0.73422 0.05569 0.0
O8 O 0.21995 0.72626 0.06268 0.0
N9 N 0.15663 0.83744 0.05552 0.0
C10 C 0.0748 0.79452 0.04663 0.0
C11 C 0.13686 0.8003 0.0473 0.0
C12 C 0.1053 0.85413 0.05969 0.0
N13 N 0.05467 0.82871 0.05438 0.0
O14 O 0.2378 0.84048 0.07171 0.0
H15 H 0.16547 0.7806 0.04186 0.0
H16 H 0.10478 0.88682 0.06618 0.0
O17 O 0.26729 0.78815 0.05389 0.0
C18 C 0.22554 0.87865 0.07886 0.0
O19 O 0.21342 0.93531 0.07718 0.0
N20 N 0.23565 0.89445 0.0464 0.0
C21 C 0.2165 0.9315 0.02744 0.0
C22 C 0.2619 0.88902 0.02974 0.0
C23 C 0.2711 0.87137 0.03931 0.0
C24 C 0.19406 0.93856 0.04449 0.0
C25 C 0.18341 0.9575 0.03503 0.0
H26 H 0.30576 0.83813 0.0409 0.0
H27 H 0.16742 0.95746 0.05027 0.0
H28 H 0.37829 0.82463 0.05854 0.0
H29 H 0.41203 1.0093 0.06904 0.0
H30 H 0.04655 0.76816 0.04074 0.0
H31 H 0.28873 0.86797 0.02413 0.0
H32 H 0.14907 0.99165 0.03366 0.0
C33 C 0.40165 0.7908 0.28435 0.0
C34 C 0.3899 0.85222 0.2843 0.0
N35 N 0.43129 0.87737 0.27932 0.0
N36 N 0.45063 0.77675 0.27951 0.0
C37 C 0.46656 0.83008 0.2763 0.0
H38 H 0.37627 0.75869 0.28781 0.0
Co39 Co 0.4878 0.69971 0.27799 0.0
C40 C 0.59229 0.78126 0.28491 0.0
O41 O 0.5669 0.80174 0.29288 0.0
N42 N 0.52345 0.62266 0.27635 0.0
C43 C 0.58516 0.54563 0.2727 0.0
C44 C 0.5788 0.60811 0.27353 0.0
C45 C 0.49696 0.56831 0.27715 0.0
N46 N 0.53359 0.52043 0.27497 0.0
O47 O 0.49886 0.69812 0.29195 0.0
H48 H 0.61224 0.64055 0.27199 0.0
H49 H 0.45096 0.56397 0.27902 0.0
O50 O 0.56616 0.7391 0.27881 0.0
C51 C 0.46163 0.67588 0.29713 0.0
O52 O 0.41057 0.65077 0.29277 0.0
N53 N 0.47596 0.70033 0.26423 0.0
C54 C 0.44318 0.70168 0.24397 0.0
C55 C 0.50011 0.72409 0.24831 0.0
C56 C 0.51593 0.72262 0.25847 0.0
C57 C 0.42097 0.67734 0.26011 0.0
C58 C 0.40365 0.67739 0.24998 0.0
H59 H 0.55994 0.74044 0.26159 0.0
H60 H 0.38997 0.6599 0.26479 0.0
H61 H 0.50452 0.8343 0.27204 0.0
H62 H 0.35358 0.87622 0.28774 0.0
H63 H 0.62493 0.52078 0.27061 0.0
H64 H 0.53206 0.74284 0.24391 0.0
H65 H 0.35889 0.66038 0.24696 0.0
C66 C 0.61361 0.44485 0.54294 0.0
C67 C 0.67502 0.45704 0.54372 0.0
N68 N 0.70445 0.40398 0.54197 0.0
N69 N 0.60383 0.38435 0.54073 0.0
C70 C 0.66023 0.36061 0.54017 0.0
H71 H 0.578 0.47825 0.54371 0.0
Co72 Co 0.52494 0.35078 0.53827 0.0
C73 C 0.58451 0.22706 0.53783 0.0
O74 O 0.60192 0.22983 0.54737 0.0
N75 N 0.44536 0.3189 0.53581 0.0
C76 C 0.36374 0.266 0.52879 0.0
C77 C 0.42593 0.27075 0.5293 0.0
C78 C 0.39388 0.34269 0.53918 0.0
N79 N 0.34341 0.31141 0.53497 0.0
O80 O 0.52837 0.33229 0.5516 0.0
H81 H 0.45458 0.24214 0.52486 0.0
H82 H 0.39317 0.38393 0.54423 0.0
O83 O 0.55613 0.27142 0.53423 0.0
C84 C 0.51565 0.37528 0.55801 0.0
O85 O 0.5017 0.4291 0.55511 0.0
N86 N 0.52054 0.37086 0.52526 0.0
C87 C 0.5051 0.40127 0.5059 0.0
C88 C 0.54933 0.35906 0.50874 0.0
C89 C 0.557 0.34511 0.51851 0.0
C90 C 0.47858 0.41349 0.52272 0.0
C91 C 0.47009 0.42951 0.51304 0.0
H92 H 0.59251 0.31374 0.52059 0.0
H93 H 0.45115 0.43466 0.52822 0.0
H94 H 0.66899 0.31303 0.53808 0.0
H95 H 0.69626 0.50168 0.54541 0.0
H96 H 0.33554 0.23226 0.52407 0.0
H97 H 0.5785 0.33779 0.5035 0.0
H98 H 0.43599 0.46292 0.51112 0.0
C99 C 1.00207 0.18271 0.79658 0.0
C100 C 0.98999 0.24415 0.79652 0.0
N101 N 0.02668 0.26754 0.79057 0.0
N102 N 0.04625 0.16725 0.79071 0.0
C103 C 0.05963 0.21993 0.78704 0.0
H104 H 0.98015 0.15136 0.80069 0.0
Co105 Co 0.07855 0.08823 0.78836 0.0
C106 C 0.18966 0.16397 0.79072 0.0
O107 O 0.17851 0.18546 0.7997 0.0
N108 N 0.10956 1.00906 0.78608 0.0
C109 C 0.16677 0.92853 0.7822 0.0
C110 C 0.16427 0.99134 0.78327 0.0
C111 C 0.08001 0.95617 0.78679 0.0
N112 N 0.11386 0.90652 0.78446 0.0
O113 O 0.10764 0.0901 0.80203 0.0
H114 H 0.20025 1.02177 0.78201 0.0
H115 H 0.03412 0.95403 0.78882 0.0
O116 O 0.15404 0.12415 0.78566 0.0
C117 C 0.07595 0.06546 0.8078 0.0
O118 O 0.02436 0.03842 0.80413 0.0
N119 N 0.04805 0.08531 0.77504 0.0
C120 C 0.99484 0.0891 0.75562 0.0
C121 C 0.05768 0.0798 0.75763 0.0
C122 C 0.08347 0.07844 0.7674 0.0
C123 C 0.98666 0.09064 0.77322 0.0
C124 C 0.95923 0.09372 0.76362 0.0
H125 H 0.13197 0.0723 0.76878 0.0
H126 H 0.95897 0.09458 0.77933 0.0
H127 H 0.09267 0.2235 0.78182 0.0
H128 H 0.95793 0.26998 0.80074 0.0
H129 H 0.20494 0.9011 0.78008 0.0
H130 H 0.08702 0.07417 0.75174 0.0
H131 H 0.91078 0.10177 0.76257 0.0
C132 C 0.03176 0.33697 0.91792 0.0
C133 C 0.97012 0.34713 0.91697 0.0
N134 N 0.94655 0.32618 0.92469 0.0
N135 N 0.04727 0.30879 0.9261 0.0
C136 C 0.99457 0.3043 0.93022 0.0
H137 H 0.06334 0.3483 0.91284 0.0
Co138 Co 0.1275 0.28707 0.93 0.0
C139 C 0.06358 0.17061 0.93545 0.0
O140 O 1.00781 0.17459 0.9312 0.0
N141 N 0.20834 0.26787 0.93386 0.0
C142 C 0.29117 0.23771 0.94265 0.0
C143 C 0.22907 0.24248 0.94213 0.0
C144 C 0.2589 0.27887 0.92952 0.0
N145 N 0.31015 0.26055 0.93472 0.0
O146 O 0.13434 0.24365 0.91703 0.0
H147 H 0.20103 0.22956 0.9476 0.0
H148 H 0.25801 0.3 0.9227 0.0
O149 O 0.10341 0.21155 0.93484 0.0
C150 C 0.09738 0.20804 0.91134 0.0
O151 O 0.0439 0.19606 0.91404 0.0
N152 N 0.12364 0.33138 0.94241 0.0
C153 C 0.14394 0.39846 0.96099 0.0
C154 C 0.11116 0.34317 0.95974 0.0
C155 C 0.10109 0.3105 0.95038 0.0
C156 C 0.15231 0.38662 0.94333 0.0
C157 C 0.16287 0.42104 0.95255 0.0
H158 H 0.0774 0.26739 0.94976 0.0
H159 H 0.16952 0.40267 0.93693 0.0
H160 H 0.99136 0.28571 0.93716 0.0
H161 H 0.94449 0.36672 0.91088 0.0
H162 H 0.32024 0.22047 0.94861 0.0
H163 H 0.09581 0.32357 0.966 0.0
H164 H 0.18696 0.46419 0.95307 0.0
C165 C 0.79449 0.68981 0.167 0.0
C166 C 0.78913 0.62712 0.16529 0.0
N167 N 0.841 0.60208 0.16912 0.0
N168 N 0.84937 0.7046 0.17193 0.0
C169 C 0.87686 0.65028 0.17302 0.0
H170 H 0.76019 0.72261 0.16494 0.0
Co171 Co 0.87862 0.7839 0.17636 0.0
C172 C 0.97031 0.73337 0.19201 0.0
O173 O 0.96858 0.71282 0.20067 0.0
N174 N 0.90817 0.86339 0.18075 0.0
C175 C 0.93594 0.94819 0.19049 0.0
C176 C 0.92582 0.88643 0.19018 0.0
C177 C 0.90751 0.91231 0.17549 0.0
N178 N 0.92402 0.96481 0.18126 0.0
O179 O 0.94624 0.76952 0.16898 0.0
H180 H 0.9281 0.8608 0.19653 0.0
H181 H 0.89251 0.9097 0.16765 0.0
O182 O 0.92123 0.75291 0.18777 0.0
C183 C 0.93315 0.7716 0.15973 0.0
O184 O 0.87658 0.78236 0.15639 0.0
N185 N 0.8108 0.79934 0.18345 0.0
C186 C 0.73358 0.84235 0.19731 0.0
C187 C 0.75878 0.78396 0.19751 0.0
C188 C 0.79749 0.76318 0.19048 0.0
C189 C 0.77951 0.85207 0.18228 0.0
C190 C 0.74178 0.87543 0.18933 0.0
H191 H 0.81998 0.7199 0.19112 0.0
H192 H 0.78789 0.87886 0.17636 0.0
H193 H 0.92253 0.64618 0.17657 0.0
H194 H 0.7493 0.60209 0.16174 0.0
H195 H 0.94756 0.97902 0.19714 0.0
H196 H 0.75301 0.75689 0.20353 0.0
H197 H 0.72213 0.92031 0.18887 0.0
C198 C 0.58208 0.86704 0.42761 0.0
C199 C 0.52127 0.87444 0.42861 0.0
N200 N 0.4925 0.82065 0.42571 0.0
N201 N 0.59248 0.80853 0.42426 0.0
C202 C 0.53681 0.78154 0.42307 0.0
H203 H 0.616 0.90296 0.42893 0.0
Co204 Co 0.66747 0.77742 0.42083 0.0
C205 C 0.66252 0.64236 0.42326 0.0
O206 O 0.72021 0.63294 0.42219 0.0
N207 N 0.74325 0.74824 0.41705 0.0
C208 C 0.8118 0.70399 0.40785 0.0
C209 C 0.75092 0.71131 0.40872 0.0
C210 C 0.80081 0.76363 0.421 0.0
N211 N 0.84346 0.73718 0.41554 0.0
O212 O 0.6329 0.76262 0.40744 0.0
H213 H 0.71456 0.69008 0.4036 0.0
H214 H 0.81143 0.79532 0.42755 0.0
O215 O 0.64035 0.69587 0.42291 0.0
C216 C 0.62033 0.80432 0.40181 0.0
O217 O 0.63025 0.86173 0.40531 0.0
N218 N 0.70074 0.79418 0.43423 0.0
C219 C 0.72587 0.8382 0.45423 0.0
C220 C 0.71311 0.77612 0.45137 0.0
C221 C 0.69987 0.75521 0.44138 0.0
C222 C 0.71999 0.85303 0.4368 0.0
C223 C 0.73193 0.87632 0.44675 0.0
H224 H 0.68626 0.70831 0.43965 0.0
H225 H 0.72208 0.88324 0.43109 0.0
H226 H 0.52849 0.73501 0.41985 0.0
H227 H 0.5 0.91664 0.43117 0.0
H228 H 0.83106 0.67602 0.40197 0.0
H229 H 0.71027 0.74421 0.45682 0.0
H230 H 0.74184 0.92459 0.44851 0.0
C231 C 0.38305 0.28614 0.68205 0.0
C232 C 0.37336 0.22478 0.68239 0.0
N233 N 0.42677 0.19578 0.68169 0.0
N234 N 0.44223 0.2958 0.68117 0.0
C235 C 0.46776 0.23996 0.68092 0.0
H236 H 0.34927 0.32169 0.68249 0.0
Co237 Co 0.47552 0.37191 0.68044 0.0
C238 C 0.60308 0.36739 0.68915 0.0
O239 O 0.59709 0.42308 0.69345 0.0
N240 N 0.50781 0.44972 0.67921 0.0
C241 C 0.56386 0.51915 0.67344 0.0
C242 C 0.55492 0.45801 0.67392 0.0
C243 C 0.48807 0.50705 0.68168 0.0
N244 N 0.52163 0.55006 0.67831 0.0
O245 O 0.48414 0.34999 0.66684 0.0
H246 H 0.58077 0.42157 0.67044 0.0
H247 H 0.44818 0.51755 0.68541 0.0
O248 O 0.55789 0.34121 0.68371 0.0
C249 C 0.4401 0.35145 0.66009 0.0
O250 O 0.3858 0.36655 0.66257 0.0
N251 N 0.46456 0.3918 0.69399 0.0
C252 C 0.43353 0.40808 0.71346 0.0
C253 C 0.47965 0.36783 0.71084 0.0
C254 C 0.49319 0.35911 0.70109 0.0
C255 C 0.41756 0.42916 0.69629 0.0
C256 C 0.4019 0.43883 0.70602 0.0
H257 H 0.52404 0.32276 0.69923 0.0
H258 H 0.38966 0.44883 0.69047 0.0
H259 H 0.51524 0.23173 0.68005 0.0
H260 H 0.33049 0.20341 0.68325 0.0
H261 H 0.59844 0.53916 0.6697 0.0
H262 H 0.50261 0.34 0.71616 0.0
H263 H 0.36423 0.46847 0.70762 0.0
C264 C 0.20228 0.90037 0.09638 0.0
C265 C 0.21971 0.85859 0.08871 0.0
C266 C 0.1905 0.88062 0.10538 0.0
C267 C 0.13708 0.74405 0.1149 0.0
H268 H 0.15618 0.84841 0.13977 0.0
C269 C 0.04233 0.77085 0.15613 0.0
C270 C 0.98009 0.7644 0.15279 0.0
C271 C 0.08558 0.76999 0.14932 0.0
C272 C 0.15155 0.81796 0.13296 0.0
H273 H 0.24209 0.76385 0.08467 0.0
H274 H 0.22175 0.72937 0.10043 0.0
H275 H 0.21172 0.87237 0.12612 0.0
H276 H 0.9146 0.74867 0.13976 0.0
H277 H 0.98939 0.74717 0.12798 0.0
H278 H 0.07552 0.69075 0.12163 0.0
C279 C 0.21638 0.7773 0.09943 0.0
C280 C 0.18281 0.83208 0.1251 0.0
C281 C 0.22814 0.79709 0.09041 0.0
C282 C 0.96218 0.75417 0.14257 0.0
C283 C 1.00519 0.75268 0.13581 0.0
C284 C 0.10596 0.72992 0.12275 0.0
C285 C 0.196 0.81861 0.10693 0.0
C286 C 0.17388 0.79674 0.11585 0.0
C287 C 0.06722 0.76172 0.13908 0.0
C288 C 0.11079 0.76823 0.13171 0.0
H289 H 0.19561 0.94811 0.09534 0.0
H290 H 0.17406 0.91357 0.11093 0.0
H291 H 0.12892 0.7159 0.10788 0.0
H292 H 0.0574 0.77872 0.16397 0.0
H293 H 0.13314 0.7769 0.15205 0.0
C294 C 0.57719 0.83289 0.3852 0.0
C295 C 0.59708 0.7877 0.39131 0.0
C296 C 0.55754 0.81702 0.37518 0.0
C297 C 0.57822 0.70012 0.35482 0.0
H298 H 0.43413 0.76953 0.34166 0.0
C299 C 0.53353 0.69786 0.31247 0.0
C300 C 0.47468 0.68187 0.30802 0.0
C301 C 0.54574 0.70635 0.32276 0.0
C302 C 0.47419 0.74944 0.34526 0.0
H303 H 0.61078 0.69028 0.39176 0.0
H304 H 0.57715 0.66288 0.37427 0.0
H305 H 0.45909 0.79358 0.35955 0.0
H306 H 0.38255 0.66183 0.31087 0.0
H307 H 0.40392 0.67751 0.32893 0.0
H308 H 0.59394 0.65681 0.34053 0.0
C309 C 0.57694 0.71052 0.37722 0.0
C310 C 0.48872 0.7636 0.35547 0.0
C311 C 0.59598 0.72627 0.38724 0.0
C312 C 0.42838 0.67397 0.31409 0.0
C313 C 0.44046 0.68327 0.32441 0.0
C314 C 0.5641 0.68656 0.34462 0.0
C315 C 0.55798 0.75575 0.37107 0.0
C316 C 0.54105 0.73928 0.36033 0.0
C317 C 0.49925 0.69971 0.32883 0.0
C318 C 0.51218 0.71139 0.33973 0.0
H319 H 0.57732 0.88058 0.38812 0.0
H320 H 0.54357 0.85285 0.37058 0.0
H321 H 0.61909 0.68111 0.35837 0.0
H322 H 0.57022 0.7042 0.308 0.0
H323 H 0.59134 0.71953 0.32597 0.0
C324 C 0.51486 0.30576 0.57143 0.0
C325 C 0.51486 0.36513 0.56851 0.0
C326 C 0.51132 0.29686 0.58135 0.0
C327 C 0.53899 0.37371 0.60666 0.0
H328 H 0.41615 0.26325 0.61308 0.0
C329 C 0.40262 0.33934 0.64201 0.0
C330 C 0.45119 0.34084 0.64956 0.0
C331 C 0.41371 0.33378 0.63206 0.0
C332 C 0.45074 0.2941 0.61138 0.0
H333 H 0.51255 0.46161 0.57371 0.0
H334 H 0.50708 0.44603 0.59099 0.0
H335 H 0.43118 0.27056 0.59572 0.0
H336 H 0.5494 0.3357 0.65258 0.0
H337 H 0.56857 0.32635 0.63523 0.0
H338 H 0.55772 0.39842 0.62226 0.0
C339 C 0.50975 0.40643 0.58563 0.0
C340 C 0.45967 0.29789 0.60147 0.0
C341 C 0.5125 0.4153 0.57572 0.0
C342 C 0.51093 0.3349 0.64695 0.0
C343 C 0.522 0.3298 0.63702 0.0
C344 C 0.5305 0.3695 0.61655 0.0
C345 C 0.50868 0.34719 0.58854 0.0
C346 C 0.50315 0.33857 0.59902 0.0
C347 C 0.47358 0.33006 0.62948 0.0
C348 C 0.48564 0.33039 0.61901 0.0
H349 H 0.51654 0.26622 0.56603 0.0
H350 H 0.51085 0.25071 0.58342 0.0
H351 H 0.57313 0.40511 0.60497 0.0
H352 H 0.35608 0.34366 0.64378 0.0
H353 H 0.37552 0.33464 0.62641 0.0
C354 C 0.07377 0.14047 0.89555 0.0
C355 C 0.11215 0.18412 0.90135 0.0
C356 C 0.08433 0.12101 0.88583 0.0
C357 C 0.15077 0.17415 0.86492 0.0
H358 H 0.1189 1.00742 0.85329 0.0
C359 C 0.14535 0.10606 0.82279 0.0
C360 C 0.09439 0.07075 0.81859 0.0
C361 C 0.15976 0.11446 0.83307 0.0
C362 C 0.12791 0.05418 0.85643 0.0
H363 H 0.19307 0.24007 0.90163 0.0
H364 H 0.21133 0.20611 0.88455 0.0
H365 H 0.12303 0.03175 0.8712 0.0
H366 H 1.01988 1.01488 0.82185 0.0
H367 H 0.04459 0.02993 0.83971 0.0
H368 H 0.1534 0.19705 0.85013 0.0
C369 C 0.17289 0.18728 0.88755 0.0
C370 C 0.13035 0.06808 0.86668 0.0
C371 C 0.16256 0.2065 0.89733 0.0
C372 C 0.05938 0.04245 0.82484 0.0
C373 C 0.07386 0.05068 0.83509 0.0
C374 C 0.14824 0.16026 0.85466 0.0
C375 C 0.13338 0.14489 0.88166 0.0
C376 C 0.14012 0.1285 0.87101 0.0
C377 C 0.12369 0.08745 0.83934 0.0
C378 C 0.1351 0.10042 0.85028 0.0
H379 H 0.03468 0.12212 0.89843 0.0
H380 H 0.05258 0.08892 0.88146 0.0
H381 H 0.1578 0.22125 0.86803 0.0
H382 H 0.1734 0.12828 0.81816 0.0
H383 H 0.19878 0.14257 0.83612 0.0
C384 C 0.30596 0.68908 0.04121 0.0
C385 C 0.26279 0.68379 0.04792 0.0
C386 C 0.30366 0.6499 0.03244 0.0
C387 C 0.2246 0.51154 0.0185 0.0
H388 H 0.24643 0.59825 -0.00419 0.0
C389 C 0.12219 0.42983 0.97856 0.0
C390 C 0.16134 0.4302 0.97107 0.0
C391 C 0.14031 0.45647 -0.01183 0.0
C392 C 0.24079 0.57324 0.00208 0.0
H393 H 0.18609 0.6306 0.05105 0.0
H394 H 0.18095 0.56347 0.03569 0.0
H395 H 0.27156 0.64898 0.01243 0.0
H396 H 0.25068 0.45885 0.96796 0.0
H397 H 0.28108 0.50718 -0.01537 0.0
H398 H 0.19104 0.43676 0.008 0.0
C399 C 0.21738 0.59698 0.03722 0.0
C400 C 0.25563 0.60208 0.01163 0.0
C401 C 0.22029 0.6356 0.04606 0.0
C402 C 0.2187 0.45876 0.97344 0.0
C403 C 0.23644 0.48606 0.98301 0.0
C404 C 0.20898 0.48299 0.00893 0.0
C405 C 0.25751 0.6052 0.03011 0.0
C406 C 0.24724 0.57187 0.01999 0.0
C407 C 0.19762 0.48476 -0.00952 0.0
C408 C 0.21644 0.51381 0.00063 0.0
H409 H 0.33964 0.72549 0.04251 0.0
H410 H 0.3365 0.65641 0.02728 0.0
H411 H 0.21838 0.48646 0.02474 0.0
H412 H 0.07734 0.4092 0.97699 0.0
H413 H 0.10912 0.45571 -0.00624 0.0
C414 C 0.62124 0.88313 0.28068 0.0
C415 C 0.63454 0.82071 0.28082 0.0
C416 C 0.64155 0.91549 0.27337 0.0
C417 C 0.62727 0.92045 0.25077 0.0
H418 H 0.78207 0.91493 0.23978 0.0
C419 C 0.66518 0.84143 0.21073 0.0
C420 C 0.70881 0.87172 0.20624 0.0
C421 C 0.65315 0.86154 0.22037 0.0
C422 C 0.73869 0.91827 0.24281 0.0
H423 H 0.68624 0.74565 0.27451 0.0
H424 H 0.72452 0.80299 0.2621 0.0
H425 H 0.77914 0.90419 0.25738 0.0
H426 H 0.77162 0.94845 0.20799 0.0
H427 H 0.75162 0.98265 0.22498 0.0
H428 H 0.58629 0.92801 0.236 0.0
C429 C 0.69746 0.82663 0.26745 0.0
C430 C 0.73713 0.9121 0.25286 0.0
C431 C 0.67577 0.7938 0.27457 0.0
C432 C 0.73718 0.92482 0.21127 0.0
C433 C 0.72608 0.94419 0.22098 0.0
C434 C 0.62874 0.92534 0.24068 0.0
C435 C 0.67709 0.88629 0.26638 0.0
C436 C 0.68123 0.91085 0.25682 0.0
C437 C 0.68553 0.91143 0.22572 0.0
C438 C 0.68429 0.92198 0.23656 0.0
H439 H 0.58896 0.90474 0.28536 0.0
H440 H 0.62525 0.96144 0.27265 0.0
H441 H 0.58351 0.9187 0.25364 0.0
H442 H 0.64309 0.8002 0.207 0.0
H443 H 0.62211 0.83514 0.22391 0.0
C444 C 0.5653 0.60242 0.42812 0.0
C445 C 0.62833 0.59676 0.42773 0.0
C446 C 0.5353 0.56794 0.43418 0.0
C447 C 0.55818 0.44368 0.45098 0.0
H448 H 0.45433 0.54585 0.46686 0.0
C449 C 0.49303 0.3707 0.48763 0.0
C450 C 0.49762 0.41699 0.49558 0.0
C451 C 0.49236 0.38525 0.47791 0.0
C452 C 0.48331 0.51667 0.46252 0.0
H453 H 0.70842 0.54672 0.43274 0.0
H454 H 0.65703 0.4882 0.44346 0.0
H455 H 0.48563 0.58081 0.45189 0.0
H456 H 0.50327 0.51465 0.49966 0.0
H457 H 0.50438 0.54031 0.48277 0.0
H458 H 0.56023 0.38203 0.46206 0.0
C459 C 0.63006 0.51839 0.43901 0.0
C460 C 0.50048 0.53625 0.45381 0.0
C461 C 0.65981 0.55232 0.43287 0.0
C462 C 0.4992 0.47819 0.49364 0.0
C463 C 0.49946 0.49277 0.48393 0.0
C464 C 0.54175 0.42451 0.45977 0.0
C465 C 0.56791 0.5275 0.44005 0.0
C466 C 0.53993 0.50099 0.44811 0.0
C467 C 0.49727 0.44642 0.47595 0.0
C468 C 0.50583 0.46178 0.46583 0.0
H469 H 0.53955 0.6353 0.42407 0.0
H470 H 0.48708 0.57495 0.43459 0.0
H471 H 0.58748 0.41469 0.44667 0.0
H472 H 0.49096 0.32312 0.48896 0.0
H473 H 0.48933 0.34845 0.47195 0.0
C474 C 0.90591 0.0815 0.74237 0.0
C475 C 0.96698 0.09784 0.74543 0.0
C476 C 0.87698 0.09845 0.73348 0.0
C477 C 0.82198 0.13063 0.71362 0.0
H478 H 0.86952 0.29203 0.70824 0.0
C479 C 0.66383 0.27058 0.68835 0.0
C480 C 0.65747 0.33184 0.69217 0.0
C481 C 0.71156 0.23533 0.69225 0.0
C482 C 0.85539 0.24698 0.70965 0.0
H483 H 0.04675 0.14059 0.74095 0.0
H484 H 0.99782 0.16573 0.72521 0.0
H485 H 0.93281 0.23935 0.72009 0.0
H486 H 0.69792 0.40489 0.70273 0.0
H487 H 0.77893 0.34375 0.70969 0.0
H488 H 0.7413 0.14131 0.70388 0.0
C489 C 0.97118 0.14249 0.72991 0.0
C490 C 0.89249 0.21599 0.71635 0.0
C491 C 0.99972 0.12695 0.73892 0.0
C492 C 0.70132 0.35785 0.69961 0.0
C493 C 0.74844 0.32268 0.70355 0.0
C494 C 0.78409 0.16234 0.70708 0.0
C495 C 0.90871 0.13087 0.72726 0.0
C496 C 0.87523 0.15826 0.71873 0.0
C497 C 0.75362 0.2606 0.70008 0.0
C498 C 0.79918 0.22198 0.70532 0.0
H499 H 0.87951 0.05732 0.74698 0.0
H500 H 0.82882 0.08872 0.73181 0.0
H501 H 0.80797 0.08549 0.71498 0.0
H502 H 0.63103 0.24933 0.68256 0.0
H503 H 0.71465 0.18799 0.68928 0.0
C504 C 0.24765 0.25803 0.78848 0.0
C505 C 0.2328 0.19631 0.7855 0.0
C506 C 0.27856 0.29201 0.78245 0.0
C507 C 0.29297 0.35348 0.76348 0.0
H508 H 0.434 0.29261 0.75101 0.0
C509 C 0.35273 0.4057 0.72502 0.0
C510 C 0.41452 0.41069 0.72361 0.0
C511 C 0.33578 0.39402 0.73423 0.0
C512 C 0.3952 0.31084 0.75453 0.0
H513 H 0.24218 0.12072 0.77426 0.0
H514 H 0.29797 0.17949 0.76391 0.0
H515 H 0.39872 0.24052 0.7643 0.0
H516 H 0.50647 0.41377 0.73099 0.0
H517 H 0.47681 0.39258 0.74702 0.0
H518 H 0.28769 0.42202 0.75335 0.0
C519 C 0.28497 0.20178 0.77082 0.0
C520 C 0.37485 0.28075 0.76208 0.0
C521 C 0.25298 0.16819 0.77673 0.0
C522 C 0.45856 0.40896 0.73181 0.0
C523 C 0.44166 0.39686 0.74098 0.0
C524 C 0.31282 0.38311 0.75581 0.0
C525 C 0.2965 0.26438 0.77349 0.0
C526 C 0.32292 0.30109 0.76649 0.0
C527 C 0.38032 0.38689 0.74217 0.0
C528 C 0.36353 0.36139 0.75115 0.0
H529 H 0.23246 0.28101 0.79519 0.0
H530 H 0.2872 0.34016 0.78468 0.0
H531 H 0.25246 0.36973 0.76671 0.0
H532 H 0.31772 0.4063 0.71885 0.0
H533 H 0.28815 0.38622 0.73493 0.0
C534 C 0.06276 0.67794 0.18803 0.0
C535 C 0.02855 0.73148 0.18771 0.0
C536 C 0.12575 0.68007 0.18802 0.0
C537 C 0.23837 0.79157 0.19917 0.0
H538 H 0.34102 0.64897 0.19669 0.0
C539 C 0.43137 0.76141 0.22921 0.0
C540 C 0.42325 0.70655 0.23335 0.0
C541 C 0.40379 0.76937 0.21972 0.0
C542 C 0.31342 0.68963 0.19735 0.0
H543 H 0.0317 0.8276 0.18575 0.0
H544 H 0.14191 0.83153 0.18559 0.0
H545 H 0.25012 0.65578 0.18503 0.0
H546 H 0.385 0.61514 0.23048 0.0
H547 H 0.3362 0.62915 0.21406 0.0
H548 H 0.29901 0.8236 0.21186 0.0
C549 C 0.12036 0.78793 0.18602 0.0
C550 C 0.26135 0.69359 0.19067 0.0
C551 C 0.05704 0.78566 0.18602 0.0
C552 C 0.39117 0.65825 0.22754 0.0
C553 C 0.36395 0.66606 0.21806 0.0
C554 C 0.29054 0.78781 0.20579 0.0
C555 C 0.15578 0.73613 0.18781 0.0
C556 C 0.22084 0.74254 0.19196 0.0
C557 C 0.36793 0.72249 0.21419 0.0
C558 C 0.32629 0.73493 0.20536 0.0
H559 H 0.04157 0.63557 0.18931 0.0
H560 H 0.15096 0.63905 0.1894 0.0
H561 H 0.20857 0.83004 0.20047 0.0
H562 H 0.45591 0.79948 0.23351 0.0
H563 H 0.40801 0.81322 0.21692 0.0
C564 C 0.76077 0.91532 0.46881 0.0
C565 C 0.72523 0.86392 0.46478 0.0
C566 C 0.75292 0.9442 0.47823 0.0
C567 C 0.63184 0.96515 0.49464 0.0
H568 H 0.75613 0.05171 0.51303 0.0
C569 C 0.6472 0.13352 0.53377 0.0
C570 C 0.60273 0.17578 0.53086 0.0
C571 C 0.66616 0.08778 0.52681 0.0
C572 C 0.72112 0.02696 0.50803 0.0
H573 H 0.6554 0.80129 0.46787 0.0
H574 H 0.64402 0.84972 0.48429 0.0
H575 H 0.78581 0.98366 0.49895 0.0
H576 H 0.54341 0.20277 0.51835 0.0
H577 H 0.5754 0.12334 0.50644 0.0
H578 H 0.56718 1.00911 0.50353 0.0
C579 C 0.67703 0.86857 0.48009 0.0
C580 C 0.738 0.98859 0.49993 0.0
C581 C 0.68436 0.84017 0.47068 0.0
C582 C 0.57723 0.17083 0.52092 0.0
C583 C 0.5955 0.12509 0.51406 0.0
C584 C 0.6151 1.00343 0.50268 0.0
C585 C 0.70956 0.92215 0.48385 0.0
C586 C 0.69338 0.95808 0.49304 0.0
C587 C 0.64018 0.08315 0.5169 0.0
C588 C 0.65936 0.03586 0.50932 0.0
H589 H 0.79342 0.93438 0.46458 0.0
H590 H 0.77864 0.98553 0.48089 0.0
H591 H 0.59613 0.94316 0.48944 0.0
H592 H 0.66809 0.13644 0.54134 0.0
H593 H 0.70075 0.05592 0.52917 0.0
C594 C 0.14171 0.95357 0.01315 0.0
C595 C 0.20242 0.94717 0.01713 0.0
C596 C 0.12813 0.96798 0.00344 0.0
C597 C 0.19572 0.03924 -0.01605 0.0
H598 H 0.05552 0.96868 0.96715 0.0
C599 C 0.13862 0.1082 0.94487 0.0
C600 C 0.07808 0.12578 0.94263 0.0
C601 C 0.1548 0.07557 0.95296 0.0
C602 C 0.09472 0.98884 0.97177 0.0
H603 H 0.29646 0.95061 0.01402 0.0
H604 H 0.2727 0.97477 -0.00299 0.0
H605 H 0.08263 0.93356 0.98343 0.0
H606 H 0.98614 0.11918 0.94658 0.0
H607 H 1.01436 0.06232 0.96078 0.0
H608 H 0.20728 0.0953 0.97243 0.0
C609 C 0.23562 0.96926 0.00144 0.0
C610 C 0.11018 0.96886 0.98109 0.0
C611 C 0.24922 0.95488 0.01115 0.0
C612 C 0.03318 0.10612 0.94815 0.0
C613 C 0.04938 0.07354 0.95627 0.0
C614 C 0.18035 0.05909 0.97464 0.0
C615 C 0.17492 0.97626 -0.00251 0.0
C616 C 0.16047 0.99438 -0.01267 0.0
C617 C 0.11071 0.05986 0.95897 0.0
C618 C 0.12935 0.03459 0.96848 0.0
H619 H 0.10453 0.94696 0.0175 0.0
H620 H 0.08094 0.97374 0.00067 0.0
H621 H 0.23409 0.06061 -0.01137 0.0
H622 H 0.17385 0.12146 0.94056 0.0
H623 H 0.2022 0.06436 0.9547 0.0
C624 C 0.97369 0.8521 0.06552 0.0
C625 C 0.99167 0.83954 0.05594 0.0
C626 C 0.91199 0.86051 0.0669 0.0
C627 C 0.76509 0.90158 0.05363 0.0
H628 H 0.6916 0.82439 0.07377 0.0
C629 C 0.5192 0.95365 0.06205 0.0
C630 C 0.4818 0.90437 0.06345 0.0
C631 C 0.58161 0.9459 0.06156 0.0
C632 C 0.71142 0.84597 0.06808 0.0
H633 H 0.95881 0.82788 0.0403 0.0
H634 H 0.85227 0.84199 0.04269 0.0
H635 H 0.80049 0.8117 0.07224 0.0
H636 H 0.48144 0.80817 0.06554 0.0
H637 H 0.59078 0.79441 0.06461 0.0
H638 H 0.67638 0.93512 0.04934 0.0
C639 C 0.88548 0.84536 0.04916 0.0
C640 C 0.77393 0.83929 0.06728 0.0
C641 C 0.9467 0.83656 0.0478 0.0
C642 C 0.50874 0.84698 0.06439 0.0
C643 C 0.57152 0.83927 0.06395 0.0
C644 C 0.70292 0.90853 0.05447 0.0
C645 C 0.86716 0.85736 0.05871 0.0
C646 C 0.80143 0.86666 0.05999 0.0
C647 C 0.60867 0.88864 0.06248 0.0
C648 C 0.67513 0.88071 0.06167 0.0
H649 H 1.00717 0.85441 0.07194 0.0
H650 H 0.89944 0.87011 0.07436 0.0
H651 H 0.7848 0.92379 0.04799 0.0
H652 H 0.50019 0.99832 0.06117 0.0
H653 H 0.60881 0.98508 0.06052 0.0
C654 C 0.47929 0.43524 0.28098 0.0
C655 C 0.52065 0.45589 0.27489 0.0
C656 C 0.46842 0.37256 0.2811 0.0
C657 C 0.53568 0.21982 0.27452 0.0
H658 H 0.37419 0.16065 0.27735 0.0
C659 C 0.47603 0.96072 0.27125 0.0
C660 C 0.4392 0.94168 0.2782 0.0
C661 C 0.4853 1.02301 0.27049 0.0
C662 C 0.41972 0.1764 0.27663 0.0
H663 H 0.58136 0.42624 0.26388 0.0
H664 H 0.56209 0.31764 0.26399 0.0
H665 H 0.39112 0.26948 0.27675 0.0
H666 H 0.38387 0.97496 0.28985 0.0
H667 H 0.39931 0.0824 0.2884 0.0
H668 H 0.56412 0.12655 0.27437 0.0
C669 C 0.53908 0.34964 0.26889 0.0
C670 C 0.4295 0.239 0.27631 0.0
C671 C 0.55011 0.41217 0.26881 0.0
C672 C 0.41158 0.98703 0.28427 0.0
C673 C 0.42052 0.04912 0.28346 0.0
C674 C 0.52583 0.15717 0.2748 0.0
C675 C 0.49838 0.32877 0.27508 0.0
C676 C 0.48769 0.26175 0.2753 0.0
C677 C 0.45762 0.06808 0.27658 0.0
C678 C 0.46778 0.13461 0.27592 0.0
H679 H 0.45632 0.46745 0.28584 0.0
H680 H 0.43741 0.35845 0.28607 0.0
H681 H 0.58135 0.23547 0.27389 0.0
H682 H 0.49765 0.9277 0.26634 0.0
H683 H 0.51368 0.03583 0.26503 0.0
C684 C 0.26233 0.3506 0.5452 0.0
C685 C 0.28042 0.32544 0.53608 0.0
C686 C 0.20056 0.36134 0.54627 0.0
C687 C 0.05292 0.38551 0.5318 0.0
H688 H 0.98088 0.33295 0.55422 0.0
C689 C 0.80512 0.4434 0.53903 0.0
C690 C 0.76926 0.39614 0.54163 0.0
C691 C 0.86781 0.43621 0.53869 0.0
C692 C 1.00031 0.3477 0.5479 0.0
H693 H 0.24795 0.29391 0.52086 0.0
H694 H 0.14102 0.31281 0.52269 0.0
H695 H 0.09007 0.31943 0.55308 0.0
H696 H 0.77178 0.3044 0.54604 0.0
H697 H 0.8815 0.29177 0.54545 0.0
H698 H 0.96343 0.41331 0.52656 0.0
C699 C 0.17423 0.32397 0.52905 0.0
C700 C 0.06296 0.34054 0.5473 0.0
C701 C 0.23557 0.31257 0.52802 0.0
C702 C 0.79791 0.34151 0.54394 0.0
C703 C 0.86088 0.33453 0.54369 0.0
C704 C 0.99056 0.39324 0.53245 0.0
C705 C 0.15578 0.34814 0.53819 0.0
C706 C 0.08992 0.35885 0.53919 0.0
C707 C 0.89657 0.38173 0.54102 0.0
C708 C 0.96331 0.37408 0.54047 0.0
H709 H 0.29579 0.36072 0.55155 0.0
H710 H 0.18786 0.38039 0.5534 0.0
H711 H 0.07226 0.40054 0.52549 0.0
H712 H 0.78463 0.48582 0.53711 0.0
H713 H 0.89391 0.47367 0.53667 0.0
C714 C 0.07022 0.82336 0.79245 0.0
C715 C 0.09826 0.84304 0.78456 0.0
C716 C 0.05971 0.76094 0.79291 0.0
C717 C 0.03136 0.61481 0.77833 0.0
H718 H 0.11066 0.53956 0.8007 0.0
C719 C 0.98151 0.36882 0.78832 0.0
C720 C 0.03283 0.33104 0.78905 0.0
C721 C 0.98782 0.43118 0.78734 0.0
C722 C 0.0882 0.56008 0.79442 0.0
H723 H 0.13523 0.81343 0.77081 0.0
H724 H 0.11455 0.70445 0.7714 0.0
H725 H 0.12198 0.64991 0.79997 0.0
H726 H 0.13088 0.32899 0.78939 0.0
H727 H 0.14219 0.43857 0.78802 0.0
H728 H 0.99635 0.52515 0.7729 0.0
C729 C 0.10177 0.73719 0.7773 0.0
C730 C 0.09439 0.62309 0.79404 0.0
C731 C 0.11376 0.79934 0.77698 0.0
C732 C 0.09059 0.35691 0.78875 0.0
C733 C 0.09706 0.41955 0.78804 0.0
C734 C 0.02387 0.55203 0.77884 0.0
C735 C 0.07549 0.71729 0.78534 0.0
C736 C 0.06645 0.65098 0.78595 0.0
C737 C 0.04573 0.4573 0.78734 0.0
C738 C 0.05271 0.52399 0.78685 0.0
H739 H 0.05834 0.85612 0.79841 0.0
H740 H 0.03931 0.7467 0.79918 0.0
H741 H 1.0094 0.63527 0.77201 0.0
H742 H 0.93649 0.34999 0.78849 0.0
H743 H 0.94758 0.45935 0.78683 0.0
C744 C 0.86067 0.27728 0.93128 0.0
C745 C 0.88284 0.32325 0.92616 0.0
C746 C 0.79828 0.2716 0.93201 0.0
C747 C 0.65211 0.35507 0.92976 0.0
H748 H 0.58164 0.19216 0.92597 0.0
C749 C 0.39133 0.31297 0.92743 0.0
C750 C 0.37262 0.2659 0.93266 0.0
C751 C 0.45291 0.32019 0.92611 0.0
C752 C 0.60058 0.23798 0.92713 0.0
H753 H 0.85656 0.40077 0.91813 0.0
H754 H 0.74793 0.39051 0.91933 0.0
H755 H 0.69032 0.20541 0.9252 0.0
H756 H 0.40389 0.18804 0.94025 0.0
H757 H 0.51053 0.20111 0.93813 0.0
H758 H 0.5623 0.38757 0.93176 0.0
C759 C 0.77878 0.35886 0.9228 0.0
C760 C 0.66303 0.24556 0.92671 0.0
C761 C 0.84111 0.36439 0.92203 0.0
C762 C 0.41667 0.22533 0.9363 0.0
C763 C 0.47793 0.23242 0.93498 0.0
C764 C 0.58957 0.34747 0.9302 0.0
C765 C 0.75643 0.31191 0.92769 0.0
C766 C 0.68973 0.30415 0.92809 0.0
C767 C 0.49708 0.28023 0.92995 0.0
C768 C 0.56305 0.28877 0.92896 0.0
H769 H 0.89127 0.2445 0.93448 0.0
H770 H 0.78278 0.23542 0.93596 0.0
H771 H 0.67119 0.40082 0.93094 0.0
H772 H 0.35871 0.34519 0.92457 0.0
H773 H 0.46592 0.35712 0.9221 0.0
C774 C 0.95771 0.07307 0.1844 0.0
C775 C 0.92203 0.02691 0.17862 0.0
C776 C 0.95206 0.13421 0.1825 0.0
C777 C 0.84357 0.24031 0.17065 0.0
H778 H 0.98258 0.35047 0.17461 0.0
C779 C 0.82186 0.49331 0.1626 0.0
C780 C 0.85387 0.53756 0.16939 0.0
C781 C 0.83228 0.43083 0.16311 0.0
C782 C 0.94313 0.32052 0.17356 0.0
H783 H 0.85333 1.00945 0.16608 0.0
H784 H 0.84427 0.11594 0.16263 0.0
H785 H 0.99746 0.24214 0.17631 0.0
H786 H 0.92253 0.54968 0.18204 0.0
H787 H 0.94068 0.44111 0.18291 0.0
H788 H 0.7892 0.31874 0.16797 0.0
C789 C 0.8761 0.10484 0.16876 0.0
C790 C 0.95167 0.25821 0.17453 0.0
C791 C 0.88184 0.0435 0.17066 0.0
C792 C 0.89745 0.51734 0.1766 0.0
C793 C 0.90791 0.4548 0.1771 0.0
C794 C 0.83505 0.30259 0.16966 0.0
C795 C 0.91056 0.15122 0.17474 0.0
C796 C 0.90196 0.2172 0.17317 0.0
C797 C 0.87512 0.41058 0.17041 0.0
C798 C 0.88463 0.34374 0.17117 0.0
H799 H 0.98968 0.06206 0.19051 0.0
H800 H 0.97906 0.16838 0.18734 0.0
H801 H 0.804 0.21056 0.16971 0.0
H802 H 0.78878 0.50682 0.15683 0.0
H803 H 0.80694 0.39833 0.15771 0.0
C804 C 0.94488 0.73322 0.40932 0.0
C805 C 0.90897 0.74415 0.41724 0.0
C806 C 1.00821 0.73852 0.41089 0.0
C807 C 0.13349 0.81039 0.42817 0.0
H808 H 0.23254 0.69419 0.41371 0.0
C809 C 0.38609 0.85727 0.42451 0.0
C810 C 0.42772 0.80897 0.42514 0.0
C811 C 0.32356 0.84671 0.42415 0.0
C812 C 0.20568 0.7267 0.41789 0.0
H813 H 0.91245 0.76945 0.43307 0.0
H814 H 0.02327 0.77922 0.43581 0.0
H815 H 0.12237 0.68016 0.41218 0.0
H816 H 0.43539 0.71131 0.42589 0.0
H817 H 0.32592 0.69277 0.42518 0.0
H818 H 0.2168 0.85691 0.43388 0.0
C819 C 1.002 0.76676 0.42835 0.0
C820 C 0.14239 0.71904 0.41693 0.0
C821 C 0.93839 0.76126 0.42678 0.0
C822 C 0.40481 0.74953 0.4253 0.0
C823 C 0.342 0.73892 0.42491 0.0
C824 C 0.19676 0.81819 0.4291 0.0
C825 C 0.03772 0.75512 0.42042 0.0
C826 C 0.10539 0.7612 0.42196 0.0
C827 C 0.3006 0.7875 0.42438 0.0
C828 C 0.23363 0.77687 0.42388 0.0
H829 H 0.92414 0.72132 0.40183 0.0
H830 H 0.03405 0.73056 0.40457 0.0
H831 H 0.10647 0.84392 0.43211 0.0
H832 H 0.40155 0.90345 0.42415 0.0
H833 H 0.29305 0.88502 0.42352 0.0
C834 C 0.39042 0.08873 0.6786 0.0
C835 C 0.43754 0.13123 0.68181 0.0
C836 C 0.4005 0.0262 0.67879 0.0
C837 C 0.5229 0.91195 0.67937 0.0
H838 H 0.39743 0.80804 0.68671 0.0
C839 C 0.53016 0.6502 0.67191 0.0
C840 C 0.5123 0.61517 0.67916 0.0
C841 C 0.5219 0.71331 0.67273 0.0
C842 C 0.43319 0.83647 0.68474 0.0
H843 H 0.53208 0.14123 0.6879 0.0
H844 H 0.54969 0.03204 0.68826 0.0
H845 H 0.3821 0.91809 0.68748 0.0
H846 H 0.47194 0.61923 0.693 0.0
H847 H 0.45758 0.72979 0.69447 0.0
H848 H 0.57435 0.83051 0.67676 0.0
C849 C 0.50512 0.04709 0.68545 0.0
C850 C 0.4241 0.89948 0.68506 0.0
C851 C 0.49506 0.10969 0.68523 0.0
C852 C 0.48556 0.64481 0.68724 0.0
C853 C 0.47737 0.70814 0.68808 0.0
C854 C 0.532 0.84899 0.67905 0.0
C855 C 0.45793 1.00459 0.68223 0.0
C856 C 0.46863 0.93791 0.68229 0.0
C857 C 0.49565 0.74314 0.68084 0.0
C858 C 0.48702 0.81041 0.68164 0.0
H859 H 0.34589 0.10368 0.67577 0.0
H860 H 0.36346 0.99472 0.67608 0.0
H861 H 0.55792 0.94011 0.67711 0.0
H862 H 0.54975 0.62877 0.66549 0.0
H863 H 0.53529 0.73864 0.66692 0.0
loop_
_geom_bond_atom_site_label_1
_geom_bond_atom_site_label_2
_geom_bond_distance
_geom_bond_site_symmetry_2
_ccdc_geom_bond_type
C0 C1 1.351 . S
C0 N3 1.368 . S
C0 H5 0.931 . S
C1 C0 1.351 . S
C1 N2 1.373 . S
C1 H29 0.930 . S
N2 C1 1.373 . S
N2 C4 1.340 . S
N3 C0 1.368 . S
N3 C4 1.321 . S
N3 Co6 2.135 . S
C4 N2 1.340 . S
C4 N3 1.321 . S
C4 H28 0.930 . S
H5 C0 0.931 . S
Co6 N3 2.135 . S
Co6 N9 2.121 1_455 S
Co6 O14 2.055 . S
Co6 O17 2.039 . S
Co6 N20 2.140 . S
C7 O8 1.227 . S
C7 O17 1.265 . S
O8 C7 1.227 . S
N9 Co6 2.121 1_655 S
N9 C11 1.375 . S
N9 C12 1.313 . S
C10 C11 1.338 . S
C10 N13 1.377 . S
C10 H30 0.930 . S
C11 N9 1.375 . S
C11 C10 1.338 . S
C11 H15 0.931 . S
C12 N9 1.313 . S
C12 N13 1.344 . S
C12 H16 0.930 . S
N13 C10 1.377 . S
N13 C12 1.344 . S
O14 Co6 2.055 . S
O14 C18 1.253 . S
H15 C11 0.931 . S
H16 C12 0.930 . S
O17 Co6 2.039 . S
O17 C7 1.265 . S
C18 O14 1.253 . S
C18 O19 1.227 . S
O19 C18 1.227 . S
N20 Co6 2.140 . S
N20 C23 1.346 . S
N20 C24 1.343 1_455 S
C21 C22 1.387 . S
C21 C25 1.391 1_455 S
C22 C21 1.387 . S
C22 C23 1.369 . S
C22 H31 0.929 . S
C23 N20 1.346 . S
C23 C22 1.369 . S
C23 H26 0.928 . S
C24 N20 1.343 1_655 S
C24 C25 1.371 . S
C24 H27 0.933 . S
C25 C21 1.391 1_655 S
C25 C24 1.371 . S
C25 H32 0.930 . S
H26 C23 0.928 . S
H27 C24 0.933 . S
H28 C4 0.930 . S
H29 C1 0.930 . S
H30 C10 0.930 . S
H31 C22 0.929 . S
H32 C25 0.930 . S
C33 C34 1.351 . S
C33 N36 1.368 . S
C33 H38 0.931 . S
C34 C33 1.351 . S
C34 N35 1.373 . S
C34 H62 0.930 . S
N35 C34 1.373 . S
N35 C37 1.340 . S
N36 C33 1.368 . S
N36 C37 1.321 . S
N36 Co39 2.135 . S
C37 N35 1.340 . S
C37 N36 1.321 . S
C37 H61 0.930 . S
H38 C33 0.931 . S
Co39 N36 2.135 . S
Co39 N42 2.121 . S
Co39 O47 2.055 . S
Co39 O50 2.039 . S
Co39 N53 2.140 . S
C40 O41 1.227 . S
C40 O50 1.265 . S
O41 C40 1.227 . S
N42 Co39 2.121 . S
N42 C44 1.375 . S
N42 C45 1.313 . S
C43 C44 1.338 . S
C43 N46 1.377 . S
C43 H63 0.930 . S
C44 N42 1.375 . S
C44 C43 1.338 . S
C44 H48 0.931 . S
C45 N42 1.313 . S
C45 N46 1.344 . S
C45 H49 0.930 . S
N46 C43 1.377 . S
N46 C45 1.344 . S
O47 Co39 2.055 . S
O47 C51 1.253 . S
H48 C44 0.931 . S
H49 C45 0.930 . S
O50 Co39 2.039 . S
O50 C40 1.265 . S
C51 O47 1.253 . S
C51 O52 1.227 . S
O52 C51 1.227 . S
N53 Co39 2.140 . S
N53 C56 1.346 . S
N53 C57 1.345 . S
C54 C55 1.387 . S
C54 C58 1.391 . S
C55 C54 1.387 . S
C55 C56 1.369 . S
C55 H64 0.929 . S
C56 N53 1.346 . S
C56 C55 1.369 . S
C56 H59 0.928 . S
C57 N53 1.345 . S
C57 C58 1.371 . S
C57 H60 0.931 . S
C58 C54 1.391 . S
C58 C57 1.371 . S
C58 H65 0.930 . S
H59 C56 0.928 . S
H60 C57 0.931 . S
H61 C37 0.930 . S
H62 C34 0.930 . S
H63 C43 0.930 . S
H64 C55 0.929 . S
H65 C58 0.930 . S
C66 C67 1.351 . S
C66 N69 1.368 . S
C66 H71 0.931 . S
C67 C66 1.351 . S
C67 N68 1.373 . S
C67 H95 0.930 . S
N68 C67 1.373 . S
N68 C70 1.340 . S
N69 C66 1.368 . S
N69 C70 1.321 . S
N69 Co72 2.135 . S
C70 N68 1.340 . S
C70 N69 1.321 . S
C70 H94 0.930 . S
H71 C66 0.931 . S
Co72 N69 2.135 . S
Co72 N75 2.121 . S
Co72 O80 2.055 . S
Co72 O83 2.039 . S
Co72 N86 2.140 . S
C73 O74 1.227 . S
C73 O83 1.265 . S
O74 C73 1.227 . S
N75 Co72 2.121 . S
N75 C77 1.375 . S
N75 C78 1.313 . S
C76 C77 1.338 . S
C76 N79 1.377 . S
C76 H96 0.930 . S
C77 N75 1.375 . S
C77 C76 1.338 . S
C77 H81 0.931 . S
C78 N75 1.313 . S
C78 N79 1.344 . S
C78 H82 0.930 . S
N79 C76 1.377 . S
N79 C78 1.344 . S
O80 Co72 2.055 . S
O80 C84 1.253 . S
H81 C77 0.931 . S
H82 C78 0.930 . S
O83 Co72 2.039 . S
O83 C73 1.265 . S
C84 O80 1.253 . S
C84 O85 1.227 . S
O85 C84 1.227 . S
N86 Co72 2.140 . S
N86 C89 1.346 . S
N86 C90 1.345 . S
C87 C88 1.387 . S
C87 C91 1.391 . S
C88 C87 1.387 . S
C88 C89 1.369 . S
C88 H97 0.929 . S
C89 N86 1.346 . S
C89 C88 1.369 . S
C89 H92 0.928 . S
C90 N86 1.345 . S
C90 C91 1.371 . S
C90 H93 0.931 . S
C91 C87 1.391 . S
C91 C90 1.371 . S
C91 H98 0.930 . S
H92 C89 0.928 . S
H93 C90 0.931 . S
H94 C70 0.930 . S
H95 C67 0.930 . S
H96 C76 0.930 . S
H97 C88 0.929 . S
H98 C91 0.930 . S
C99 C100 1.351 . S
C99 N102 1.368 . S
C99 H104 0.931 . S
C100 C99 1.351 . S
C100 N101 1.373 . S
C100 H128 0.930 . S
N101 C100 1.373 . S
N101 C103 1.340 . S
N102 C99 1.368 . S
N102 C103 1.321 . S
N102 Co105 2.135 . S
C103 N101 1.340 . S
C103 N102 1.321 . S
C103 H127 0.930 . S
H104 C99 0.931 . S
Co105 N102 2.135 . S
Co105 N108 2.121 . S
Co105 O113 2.055 . S
Co105 O116 2.039 . S
Co105 N119 2.140 . S
C106 O107 1.227 . S
C106 O116 1.265 . S
O107 C106 1.227 . S
N108 Co105 2.121 . S
N108 C110 1.375 . S
N108 C111 1.313 . S
C109 C110 1.338 . S
C109 N112 1.377 . S
C109 H129 0.930 . S
C110 N108 1.375 . S
C110 C109 1.338 . S
C110 H114 0.931 . S
C111 N108 1.313 . S
C111 N112 1.344 . S
C111 H115 0.930 . S
N112 C109 1.377 . S
N112 C111 1.344 . S
O113 Co105 2.055 . S
O113 C117 1.253 . S
H114 C110 0.931 . S
H115 C111 0.930 . S
O116 Co105 2.039 . S
O116 C106 1.265 . S
C117 O113 1.253 . S
C117 O118 1.227 . S
O118 C117 1.227 . S
N119 Co105 2.140 . S
N119 C122 1.346 . S
N119 C123 1.345 1_455 S
C120 C121 1.387 . S
C120 C124 1.391 . S
C121 C120 1.387 . S
C121 C122 1.369 1_655 S
C121 H130 0.929 . S
C122 N119 1.346 . S
C122 C121 1.369 1_455 S
C122 H125 0.928 . S
C123 N119 1.345 1_655 S
C123 C124 1.371 . S
C123 H126 0.931 . S
C124 C120 1.391 . S
C124 C123 1.371 . S
C124 H131 0.930 . S
H125 C122 0.928 . S
H126 C123 0.931 . S
H127 C103 0.930 . S
H128 C100 0.930 . S
H129 C109 0.930 . S
H130 C121 0.929 . S
H131 C124 0.930 . S
C132 C133 1.351 . S
C132 N135 1.368 . S
C132 H137 0.931 . S
C133 C132 1.351 . S
C133 N134 1.373 . S
C133 H161 0.930 . S
N134 C133 1.373 . S
N134 C136 1.340 . S
N135 C132 1.368 . S
N135 C136 1.321 . S
N135 Co138 2.135 1_655 S
C136 N134 1.340 . S
C136 N135 1.321 . S
C136 H160 0.930 . S
H137 C132 0.931 . S
Co138 N135 2.135 1_455 S
Co138 N141 2.121 . S
Co138 O146 2.055 . S
Co138 O149 2.039 . S
Co138 N152 2.140 . S
C139 O140 1.227 . S
C139 O149 1.265 . S
O140 C139 1.227 . S
N141 Co138 2.121 . S
N141 C143 1.375 . S
N141 C144 1.313 . S
C142 C143 1.338 . S
C142 N145 1.377 . S
C142 H162 0.930 . S
C143 N141 1.375 . S
C143 C142 1.338 . S
C143 H147 0.931 . S
C144 N141 1.313 . S
C144 N145 1.344 . S
C144 H148 0.930 . S
N145 C142 1.377 . S
N145 C144 1.344 . S
O146 Co138 2.055 . S
O146 C150 1.253 . S
H147 C143 0.931 . S
H148 C144 0.930 . S
O149 Co138 2.039 . S
O149 C139 1.265 . S
C150 O146 1.253 . S
C150 O151 1.227 . S
O151 C150 1.227 . S
N152 Co138 2.140 . S
N152 C155 1.346 . S
N152 C156 1.345 . S
C153 C154 1.387 . S
C153 C157 1.391 . S
C154 C153 1.387 . S
C154 C155 1.369 . S
C154 H163 0.929 1_455 S
C155 N152 1.346 . S
C155 C154 1.369 . S
C155 H158 0.928 1_455 S
C156 N152 1.345 . S
C156 C157 1.371 . S
C156 H159 0.931 . S
C157 C153 1.391 . S
C157 C156 1.371 . S
C157 H164 0.930 . S
H158 C155 0.928 1_655 S
H159 C156 0.931 . S
H160 C136 0.930 . S
H161 C133 0.930 . S
H162 C142 0.930 . S
H163 C154 0.929 1_655 S
H164 C157 0.930 . S
C165 C166 1.351 . S
C165 N168 1.368 1_655 S
C165 H170 0.931 . S
C166 C165 1.351 . S
C166 N167 1.373 1_655 S
C166 H194 0.930 . S
N167 C166 1.373 1_455 S
N167 C169 1.340 . S
N168 C165 1.368 1_455 S
N168 C169 1.321 . S
N168 Co171 2.135 . S
C169 N167 1.340 . S
C169 N168 1.321 . S
C169 H193 0.930 . S
H170 C165 0.931 . S
Co171 N168 2.135 . S
Co171 N174 2.121 . S
Co171 O179 2.055 . S
Co171 O182 2.039 . S
Co171 N185 2.140 1_455 S
C172 O173 1.227 . S
C172 O182 1.265 . S
O173 C172 1.227 . S
N174 Co171 2.121 . S
N174 C176 1.375 . S
N174 C177 1.313 . S
C175 C176 1.338 . S
C175 N178 1.377 . S
C175 H195 0.930 . S
C176 N174 1.375 . S
C176 C175 1.338 . S
C176 H180 0.931 . S
C177 N174 1.313 . S
C177 N178 1.344 . S
C177 H181 0.930 . S
N178 C175 1.377 . S
N178 C177 1.344 . S
O179 Co171 2.055 . S
O179 C183 1.253 . S
H180 C176 0.931 . S
H181 C177 0.930 . S
O182 Co171 2.039 . S
O182 C172 1.265 . S
C183 O179 1.253 . S
C183 O184 1.227 1_455 S
O184 C183 1.227 1_655 S
N185 Co171 2.140 1_655 S
N185 C188 1.346 . S
N185 C189 1.345 . S
C186 C187 1.387 . S
C186 C190 1.391 . S
C187 C186 1.387 . S
C187 C188 1.369 . S
C187 H196 0.929 . S
C188 N185 1.346 . S
C188 C187 1.369 . S
C188 H191 0.928 . S
C189 N185 1.345 . S
C189 C190 1.371 . S
C189 H192 0.931 . S
C190 C186 1.391 . S
C190 C189 1.371 . S
C190 H197 0.930 . S
H191 C188 0.928 . S
H192 C189 0.931 . S
H193 C169 0.930 . S
H194 C166 0.930 . S
H195 C175 0.930 . S
H196 C187 0.929 . S
H197 C190 0.930 . S
C198 C199 1.351 . S
C198 N201 1.368 . S
C198 H203 0.931 . S
C199 C198 1.351 . S
C199 N200 1.373 . S
C199 H227 0.930 . S
N200 C199 1.373 . S
N200 C202 1.340 . S
N201 C198 1.368 . S
N201 C202 1.321 . S
N201 Co204 2.135 . S
C202 N200 1.340 . S
C202 N201 1.321 . S
C202 H226 0.930 . S
H203 C198 0.931 . S
Co204 N201 2.135 . S
Co204 N207 2.121 . S
Co204 O212 2.055 . S
Co204 O215 2.039 . S
Co204 N218 2.140 . S
C205 O206 1.227 . S
C205 O215 1.265 . S
O206 C205 1.227 . S
N207 Co204 2.121 . S
N207 C209 1.375 . S
N207 C210 1.313 . S
C208 C209 1.338 . S
C208 N211 1.377 . S
C208 H228 0.930 . S
C209 N207 1.375 . S
C209 C208 1.338 . S
C209 H213 0.931 . S
C210 N207 1.313 . S
C210 N211 1.344 . S
C210 H214 0.930 . S
N211 C208 1.377 . S
N211 C210 1.344 . S
O212 Co204 2.055 . S
O212 C216 1.253 . S
H213 C209 0.931 . S
H214 C210 0.930 . S
O215 Co204 2.039 . S
O215 C205 1.265 . S
C216 O212 1.253 . S
C216 O217 1.227 . S
O217 C216 1.227 . S
N218 Co204 2.140 . S
N218 C221 1.346 . S
N218 C222 1.345 . S
C219 C220 1.387 . S
C219 C223 1.391 . S
C220 C219 1.387 . S
C220 C221 1.369 . S
C220 H229 0.929 . S
C221 N218 1.346 . S
C221 C220 1.369 . S
C221 H224 0.928 . S
C222 N218 1.345 . S
C222 C223 1.371 . S
C222 H225 0.931 . S
C223 C219 1.391 . S
C223 C222 1.371 . S
C223 H230 0.930 . S
H224 C221 0.928 . S
H225 C222 0.931 . S
H226 C202 0.930 . S
H227 C199 0.930 . S
H228 C208 0.930 . S
H229 C220 0.929 . S
H230 C223 0.930 . S
C231 C232 1.351 . S
C231 N234 1.368 . S
C231 H236 0.931 . S
C232 C231 1.351 . S
C232 N233 1.373 . S
C232 H260 0.930 . S
N233 C232 1.373 . S
N233 C235 1.340 . S
N234 C231 1.368 . S
N234 C235 1.321 . S
N234 Co237 2.135 . S
C235 N233 1.340 . S
C235 N234 1.321 . S
C235 H259 0.930 . S
H236 C231 0.931 . S
Co237 N234 2.135 . S
Co237 N240 2.121 . S
Co237 O245 2.055 . S
Co237 O248 2.039 . S
Co237 N251 2.140 . S
C238 O239 1.227 . S
C238 O248 1.265 . S
O239 C238 1.227 . S
N240 Co237 2.121 . S
N240 C242 1.375 . S
N240 C243 1.313 . S
C241 C242 1.338 . S
C241 N244 1.377 . S
C241 H261 0.930 . S
C242 N240 1.375 . S
C242 C241 1.338 . S
C242 H246 0.931 . S
C243 N240 1.313 . S
C243 N244 1.344 . S
C243 H247 0.930 . S
N244 C241 1.377 . S
N244 C243 1.344 . S
O245 Co237 2.055 . S
O245 C249 1.253 . S
H246 C242 0.931 . S
H247 C243 0.930 . S
O248 Co237 2.039 . S
O248 C238 1.265 . S
C249 O245 1.253 . S
C249 O250 1.227 . S
O250 C249 1.227 . S
N251 Co237 2.140 . S
N251 C254 1.346 . S
N251 C255 1.345 . S
C252 C253 1.387 . S
C252 C256 1.391 . S
C253 C252 1.387 . S
C253 C254 1.369 . S
C253 H262 0.929 . S
C254 N251 1.346 . S
C254 C253 1.369 . S
C254 H257 0.928 . S
C255 N251 1.345 . S
C255 C256 1.371 . S
C255 H258 0.931 . S
C256 C252 1.391 . S
C256 C255 1.371 . S
C256 H263 0.930 . S
H257 C254 0.928 . S
H258 C255 0.931 . S
H259 C235 0.930 . S
H260 C232 0.930 . S
H261 C241 0.930 . S
H262 C253 0.929 . S
H263 C256 0.930 . S
C264 C265 1.349 1_655 S
C264 C266 1.327 . S
C264 H289 0.950 . S
C265 C264 1.349 1_455 S
C265 C281 1.349 . S
C266 C264 1.327 . S
C266 C285 1.429 1_655 S
C266 H290 0.950 . S
C267 C284 1.574 . S
C267 C286 1.368 . S
C267 H291 0.949 . S
H268 C272 0.949 . S
C269 C270 1.349 . S
C269 C271 1.327 . S
C269 H292 0.950 . S
C270 C269 1.349 . S
C270 C282 1.349 1_455 S
C271 C269 1.327 . S
C271 C287 1.429 . S
C271 H293 0.950 . S
C272 H268 0.949 . S
C272 C280 1.574 . S
C272 C288 1.368 1_655 S
H273 C281 0.950 . S
H274 C279 0.950 . S
H275 C280 0.949 . S
H276 C282 0.950 . S
H277 C283 0.950 . S
H278 C284 0.949 . S
C279 H274 0.950 . S
C279 C281 1.327 . S
C279 C285 1.429 . S
C280 C272 1.574 . S
C280 H275 0.949 . S
C280 C286 1.368 1_655 S
C281 C265 1.349 . S
C281 H273 0.950 . S
C281 C279 1.327 . S
C282 C270 1.349 1_655 S
C282 H276 0.950 . S
C282 C283 1.327 . S
C283 H277 0.950 . S
C283 C282 1.327 . S
C283 C287 1.429 1_655 S
C284 C267 1.574 . S
C284 H278 0.949 . S
C284 C288 1.368 . S
C285 C266 1.429 1_455 S
C285 C279 1.429 . S
C285 C286 1.523 . S
C286 C267 1.368 . S
C286 C280 1.368 1_455 S
C286 C285 1.523 . S
C287 C271 1.429 . S
C287 C283 1.429 1_455 S
C287 C288 1.523 . S
C288 C272 1.368 1_455 S
C288 C284 1.368 . S
C288 C287 1.523 . S
H289 C264 0.950 . S
H290 C266 0.950 . S
H291 C267 0.949 . S
H292 C269 0.950 . S
H293 C271 0.950 . S
C294 C295 1.349 . S
C294 C296 1.327 . S
C294 H319 0.950 . S
C295 C294 1.349 . S
C295 C311 1.349 . S
C296 C294 1.327 . S
C296 C315 1.429 . S
C296 H320 0.950 . S
C297 C314 1.574 . S
C297 C316 1.368 . S
C297 H321 0.949 . S
H298 C302 0.949 . S
C299 C300 1.349 . S
C299 C301 1.327 . S
C299 H322 0.950 . S
C300 C299 1.349 . S
C300 C312 1.349 . S
C301 C299 1.327 . S
C301 C317 1.429 . S
C301 H323 0.950 . S
C302 H298 0.949 . S
C302 C310 1.574 . S
C302 C318 1.368 . S
H303 C311 0.950 . S
H304 C309 0.950 . S
H305 C310 0.949 . S
H306 C312 0.950 . S
H307 C313 0.950 . S
H308 C314 0.949 . S
C309 H304 0.950 . S
C309 C311 1.327 . S
C309 C315 1.429 . S
C310 C302 1.574 . S
C310 H305 0.949 . S
C310 C316 1.368 . S
C311 C295 1.349 . S
C311 H303 0.950 . S
C311 C309 1.327 . S
C312 C300 1.349 . S
C312 H306 0.950 . S
C312 C313 1.327 . S
C313 H307 0.950 . S
C313 C312 1.327 . S
C313 C317 1.429 . S
C314 C297 1.574 . S
C314 H308 0.949 . S
C314 C318 1.368 . S
C315 C296 1.429 . S
C315 C309 1.429 . S
C315 C316 1.523 . S
C316 C297 1.368 . S
C316 C310 1.368 . S
C316 C315 1.523 . S
C317 C301 1.429 . S
C317 C313 1.429 . S
C317 C318 1.523 . S
C318 C302 1.368 . S
C318 C314 1.368 . S
C318 C317 1.523 . S
H319 C294 0.950 . S
H320 C296 0.950 . S
H321 C297 0.949 . S
H322 C299 0.950 . S
H323 C301 0.950 . S
C324 C325 1.349 . S
C324 C326 1.327 . S
C324 H349 0.950 . S
C325 C324 1.349 . S
C325 C341 1.349 . S
C326 C324 1.327 . S
C326 C345 1.429 . S
C326 H350 0.950 . S
C327 C344 1.574 . S
C327 C346 1.368 . S
C327 H351 0.949 . S
H328 C332 0.949 . S
C329 C330 1.349 . S
C329 C331 1.327 . S
C329 H352 0.950 . S
C330 C329 1.349 . S
C330 C342 1.349 . S
C331 C329 1.327 . S
C331 C347 1.429 . S
C331 H353 0.950 . S
C332 H328 0.949 . S
C332 C340 1.574 . S
C332 C348 1.368 . S
H333 C341 0.950 . S
H334 C339 0.950 . S
H335 C340 0.949 . S
H336 C342 0.950 . S
H337 C343 0.950 . S
H338 C344 0.949 . S
C339 H334 0.950 . S
C339 C341 1.327 . S
C339 C345 1.429 . S
C340 C332 1.574 . S
C340 H335 0.949 . S
C340 C346 1.368 . S
C341 C325 1.349 . S
C341 H333 0.950 . S
C341 C339 1.327 . S
C342 C330 1.349 . S
C342 H336 0.950 . S
C342 C343 1.327 . S
C343 H337 0.950 . S
C343 C342 1.327 . S
C343 C347 1.429 . S
C344 C327 1.574 . S
C344 H338 0.949 . S
C344 C348 1.368 . S
C345 C326 1.429 . S
C345 C339 1.429 . S
C345 C346 1.523 . S
C346 C327 1.368 . S
C346 C340 1.368 . S
C346 C345 1.523 . S
C347 C331 1.429 . S
C347 C343 1.429 . S
C347 C348 1.523 . S
C348 C332 1.368 . S
C348 C344 1.368 . S
C348 C347 1.523 . S
H349 C324 0.950 . S
H350 C326 0.950 . S
H351 C327 0.949 . S
H352 C329 0.950 . S
H353 C331 0.950 . S
C354 C355 1.349 . S
C354 C356 1.327 . S
C354 H379 0.950 . S
C355 C354 1.349 . S
C355 C371 1.349 . S
C356 C354 1.327 . S
C356 C375 1.429 . S
C356 H380 0.950 . S
C357 C374 1.574 . S
C357 C376 1.368 . S
C357 H381 0.949 . S
H358 C362 0.949 . S
C359 C360 1.349 . S
C359 C361 1.327 . S
C359 H382 0.950 . S
C360 C359 1.349 . S
C360 C372 1.349 . S
C361 C359 1.327 . S
C361 C377 1.429 . S
C361 H383 0.950 . S
C362 H358 0.949 . S
C362 C370 1.574 . S
C362 C378 1.368 . S
H363 C371 0.950 . S
H364 C369 0.950 . S
H365 C370 0.949 . S
H366 C372 0.950 . S
H367 C373 0.950 . S
H368 C374 0.949 . S
C369 H364 0.950 . S
C369 C371 1.327 . S
C369 C375 1.429 . S
C370 C362 1.574 . S
C370 H365 0.949 . S
C370 C376 1.368 . S
C371 C355 1.349 . S
C371 H363 0.950 . S
C371 C369 1.327 . S
C372 C360 1.349 . S
C372 H366 0.950 . S
C372 C373 1.327 . S
C373 H367 0.950 . S
C373 C372 1.327 . S
C373 C377 1.429 . S
C374 C357 1.574 . S
C374 H368 0.949 . S
C374 C378 1.368 . S
C375 C356 1.429 . S
C375 C369 1.429 . S
C375 C376 1.523 . S
C376 C357 1.368 . S
C376 C370 1.368 . S
C376 C375 1.523 . S
C377 C361 1.429 . S
C377 C373 1.429 . S
C377 C378 1.523 . S
C378 C362 1.368 . S
C378 C374 1.368 . S
C378 C377 1.523 . S
H379 C354 0.950 . S
H380 C356 0.950 . S
H381 C357 0.949 . S
H382 C359 0.950 . S
H383 C361 0.950 . S
C384 C385 1.349 . S
C384 C386 1.327 . S
C384 H409 0.950 . S
C385 C384 1.349 . S
C385 C401 1.349 1_455 S
C386 C384 1.327 . S
C386 C405 1.429 . S
C386 H410 0.950 . S
C387 C404 1.574 1_554 S
C387 C406 1.368 1_655 S
C387 H411 0.949 . S
H388 C392 0.949 . S
C389 C390 1.349 . S
C389 C391 1.327 . S
C389 H412 0.950 1_455 S
C390 C389 1.349 . S
C390 C402 1.349 . S
C391 C389 1.327 . S
C391 C407 1.429 . S
C391 H413 0.950 1_455 S
C392 H388 0.949 . S
C392 C400 1.574 1_556 S
C392 C408 1.368 . S
H393 C401 0.950 . S
H394 C399 0.950 . S
H395 C400 0.949 . S
H396 C402 0.950 . S
H397 C403 0.950 . S
H398 C404 0.949 . S
C399 H394 0.950 . S
C399 C401 1.327 . S
C399 C405 1.429 1_655 S
C400 C392 1.574 1_554 S
C400 H395 0.949 . S
C400 C406 1.368 . S
C401 C385 1.349 1_655 S
C401 H393 0.950 . S
C401 C399 1.327 . S
C402 C390 1.349 . S
C402 H396 0.950 . S
C402 C403 1.327 . S
C403 H397 0.950 . S
C403 C402 1.327 . S
C403 C407 1.429 . S
C404 C387 1.574 1_556 S
C404 H398 0.949 . S
C404 C408 1.368 1_655 S
C405 C386 1.429 . S
C405 C399 1.429 1_455 S
C405 C406 1.523 . S
C406 C387 1.368 1_455 S
C406 C400 1.368 . S
C406 C405 1.523 . S
C407 C391 1.429 . S
C407 C403 1.429 . S
C407 C408 1.523 . S
C408 C392 1.368 . S
C408 C404 1.368 1_455 S
C408 C407 1.523 . S
H409 C384 0.950 . S
H410 C386 0.950 . S
H411 C387 0.949 . S
H412 C389 0.950 1_655 S
H413 C391 0.950 1_655 S
C414 C415 1.349 . S
C414 C416 1.327 . S
C414 H439 0.950 . S
C415 C414 1.349 . S
C415 C431 1.349 . S
C416 C414 1.327 . S
C416 C435 1.429 . S
C416 H440 0.950 . S
C417 C434 1.574 . S
C417 C436 1.368 . S
C417 H441 0.949 . S
H418 C422 0.949 . S
C419 C420 1.349 . S
C419 C421 1.327 . S
C419 H442 0.950 . S
C420 C419 1.349 . S
C420 C432 1.349 . S
C421 C419 1.327 . S
C421 C437 1.429 . S
C421 H443 0.950 . S
C422 H418 0.949 . S
C422 C430 1.574 . S
C422 C438 1.368 . S
H423 C431 0.950 . S
H424 C429 0.950 . S
H425 C430 0.949 . S
H426 C432 0.950 . S
H427 C433 0.950 . S
H428 C434 0.949 . S
C429 H424 0.950 . S
C429 C431 1.327 . S
C429 C435 1.429 . S
C430 C422 1.574 . S
C430 H425 0.949 . S
C430 C436 1.368 . S
C431 C415 1.349 . S
C431 H423 0.950 . S
C431 C429 1.327 . S
C432 C420 1.349 . S
C432 H426 0.950 . S
C432 C433 1.327 . S
C433 H427 0.950 . S
C433 C432 1.327 . S
C433 C437 1.429 . S
C434 C417 1.574 . S
C434 H428 0.949 . S
C434 C438 1.368 . S
C435 C416 1.429 . S
C435 C429 1.429 . S
C435 C436 1.523 . S
C436 C417 1.368 . S
C436 C430 1.368 . S
C436 C435 1.523 . S
C437 C421 1.429 . S
C437 C433 1.429 . S
C437 C438 1.523 . S
C438 C422 1.368 . S
C438 C434 1.368 . S
C438 C437 1.523 . S
H439 C414 0.950 . S
H440 C416 0.950 . S
H441 C417 0.949 . S
H442 C419 0.950 . S
H443 C421 0.950 . S
C444 C445 1.349 . S
C444 C446 1.327 . S
C444 H469 0.950 . S
C445 C444 1.349 . S
C445 C461 1.349 . S
C446 C444 1.327 . S
C446 C465 1.429 . S
C446 H470 0.950 . S
C447 C464 1.574 . S
C447 C466 1.368 . S
C447 H471 0.949 . S
H448 C452 0.949 . S
C449 C450 1.349 . S
C449 C451 1.327 . S
C449 H472 0.950 . S
C450 C449 1.349 . S
C450 C462 1.349 . S
C451 C449 1.327 . S
C451 C467 1.429 . S
C451 H473 0.950 . S
C452 H448 0.949 . S
C452 C460 1.574 . S
C452 C468 1.368 . S
H453 C461 0.950 . S
H454 C459 0.950 . S
H455 C460 0.949 . S
H456 C462 0.950 . S
H457 C463 0.950 . S
H458 C464 0.949 . S
C459 H454 0.950 . S
C459 C461 1.327 . S
C459 C465 1.429 . S
C460 C452 1.574 . S
C460 H455 0.949 . S
C460 C466 1.368 . S
C461 C445 1.349 . S
C461 H453 0.950 . S
C461 C459 1.327 . S
C462 C450 1.349 . S
C462 H456 0.950 . S
C462 C463 1.327 . S
C463 H457 0.950 . S
C463 C462 1.327 . S
C463 C467 1.429 . S
C464 C447 1.574 . S
C464 H458 0.949 . S
C464 C468 1.368 . S
C465 C446 1.429 . S
C465 C459 1.429 . S
C465 C466 1.523 . S
C466 C447 1.368 . S
C466 C460 1.368 . S
C466 C465 1.523 . S
C467 C451 1.429 . S
C467 C463 1.429 . S
C467 C468 1.523 . S
C468 C452 1.368 . S
C468 C464 1.368 . S
C468 C467 1.523 . S
H469 C444 0.950 . S
H470 C446 0.950 . S
H471 C447 0.949 . S
H472 C449 0.950 . S
H473 C451 0.950 . S
C474 C475 1.349 . S
C474 C476 1.327 . S
C474 H499 0.950 . S
C475 C474 1.349 . S
C475 C491 1.349 . S
C476 C474 1.327 . S
C476 C495 1.429 . S
C476 H500 0.950 . S
C477 C494 1.574 . S
C477 C496 1.368 . S
C477 H501 0.949 . S
H478 C482 0.949 . S
C479 C480 1.349 . S
C479 C481 1.327 . S
C479 H502 0.950 . S
C480 C479 1.349 . S
C480 C492 1.349 . S
C481 C479 1.327 . S
C481 C497 1.429 . S
C481 H503 0.950 . S
C482 H478 0.949 . S
C482 C490 1.574 . S
C482 C498 1.368 . S
H483 C491 0.950 . S
H484 C489 0.950 . S
H485 C490 0.949 . S
H486 C492 0.950 . S
H487 C493 0.950 . S
H488 C494 0.949 . S
C489 H484 0.950 . S
C489 C491 1.327 . S
C489 C495 1.429 . S
C490 C482 1.574 . S
C490 H485 0.949 . S
C490 C496 1.368 . S
C491 C475 1.349 . S
C491 H483 0.950 . S
C491 C489 1.327 . S
C492 C480 1.349 . S
C492 H486 0.950 . S
C492 C493 1.327 . S
C493 H487 0.950 . S
C493 C492 1.327 . S
C493 C497 1.429 . S
C494 C477 1.574 . S
C494 H488 0.949 . S
C494 C498 1.368 . S
C495 C476 1.429 . S
C495 C489 1.429 . S
C495 C496 1.523 . S
C496 C477 1.368 . S
C496 C490 1.368 . S
C496 C495 1.523 . S
C497 C481 1.429 . S
C497 C493 1.429 . S
C497 C498 1.523 . S
C498 C482 1.368 . S
C498 C494 1.368 . S
C498 C497 1.523 . S
H499 C474 0.950 . S
H500 C476 0.950 . S
H501 C477 0.949 . S
H502 C479 0.950 . S
H503 C481 0.950 . S
C504 C505 1.349 . S
C504 C506 1.327 . S
C504 H529 0.950 . S
C505 C504 1.349 . S
C505 C521 1.349 . S
C506 C504 1.327 . S
C506 C525 1.429 . S
C506 H530 0.950 . S
C507 C524 1.574 . S
C507 C526 1.368 . S
C507 H531 0.949 . S
H508 C512 0.949 . S
C509 C510 1.349 . S
C509 C511 1.327 . S
C509 H532 0.950 . S
C510 C509 1.349 . S
C510 C522 1.349 . S
C511 C509 1.327 . S
C511 C527 1.429 . S
C511 H533 0.950 . S
C512 H508 0.949 . S
C512 C520 1.574 . S
C512 C528 1.368 . S
H513 C521 0.950 . S
H514 C519 0.950 . S
H515 C520 0.949 . S
H516 C522 0.950 . S
H517 C523 0.950 . S
H518 C524 0.949 . S
C519 H514 0.950 . S
C519 C521 1.327 . S
C519 C525 1.429 . S
C520 C512 1.574 . S
C520 H515 0.949 . S
C520 C526 1.368 . S
C521 C505 1.349 . S
C521 H513 0.950 . S
C521 C519 1.327 . S
C522 C510 1.349 . S
C522 H516 0.950 . S
C522 C523 1.327 . S
C523 H517 0.950 . S
C523 C522 1.327 . S
C523 C527 1.429 . S
C524 C507 1.574 . S
C524 H518 0.949 . S
C524 C528 1.368 . S
C525 C506 1.429 . S
C525 C519 1.429 . S
C525 C526 1.523 . S
C526 C507 1.368 . S
C526 C520 1.368 . S
C526 C525 1.523 . S
C527 C511 1.429 . S
C527 C523 1.429 . S
C527 C528 1.523 . S
C528 C512 1.368 . S
C528 C524 1.368 . S
C528 C527 1.523 . S
H529 C504 0.950 . S
H530 C506 0.950 . S
H531 C507 0.949 . S
H532 C509 0.950 . S
H533 C511 0.950 . S
C534 C535 1.349 . S
C534 C536 1.327 . S
C534 H559 0.950 . S
C535 C534 1.349 . S
C535 C551 1.349 . S
C536 C534 1.327 . S
C536 C555 1.429 . S
C536 H560 0.950 . S
C537 C554 1.574 . S
C537 C556 1.368 . S
C537 H561 0.949 . S
H538 C542 0.949 . S
C539 C540 1.349 . S
C539 C541 1.327 . S
C539 H562 0.950 . S
C540 C539 1.349 . S
C540 C552 1.349 . S
C541 C539 1.327 . S
C541 C557 1.429 . S
C541 H563 0.950 . S
C542 H538 0.949 . S
C542 C550 1.574 . S
C542 C558 1.368 . S
H543 C551 0.950 . S
H544 C549 0.950 . S
H545 C550 0.949 . S
H546 C552 0.950 . S
H547 C553 0.950 . S
H548 C554 0.949 . S
C549 H544 0.950 . S
C549 C551 1.327 . S
C549 C555 1.429 . S
C550 C542 1.574 . S
C550 H545 0.949 . S
C550 C556 1.368 . S
C551 C535 1.349 . S
C551 H543 0.950 . S
C551 C549 1.327 . S
C552 C540 1.349 . S
C552 H546 0.950 . S
C552 C553 1.327 . S
C553 H547 0.950 . S
C553 C552 1.327 . S
C553 C557 1.429 . S
C554 C537 1.574 . S
C554 H548 0.949 . S
C554 C558 1.368 . S
C555 C536 1.429 . S
C555 C549 1.429 . S
C555 C556 1.523 . S
C556 C537 1.368 . S
C556 C550 1.368 . S
C556 C555 1.523 . S
C557 C541 1.429 . S
C557 C553 1.429 . S
C557 C558 1.523 . S
C558 C542 1.368 . S
C558 C554 1.368 . S
C558 C557 1.523 . S
H559 C534 0.950 . S
H560 C536 0.950 . S
H561 C537 0.949 . S
H562 C539 0.950 . S
H563 C541 0.950 . S
C564 C565 1.349 . S
C564 C566 1.327 . S
C564 H589 0.950 . S
C565 C564 1.349 . S
C565 C581 1.349 . S
C566 C564 1.327 . S
C566 C585 1.429 . S
C566 H590 0.950 . S
C567 C584 1.574 . S
C567 C586 1.368 1_545 S
C567 H591 0.949 . S
H568 C572 0.949 1_565 S
C569 C570 1.349 . S
C569 C571 1.327 . S
C569 H592 0.950 . S
C570 C569 1.349 . S
C570 C582 1.349 . S
C571 C569 1.327 . S
C571 C587 1.429 . S
C571 H593 0.950 . S
C572 H568 0.949 1_545 S
C572 C580 1.574 1_545 S
C572 C588 1.368 . S
H573 C581 0.950 . S
H574 C579 0.933 1_545 S
H575 C580 0.949 . S
H576 C582 0.950 . S
H577 C583 0.950 . S
H578 C584 0.949 . S
C579 H574 0.933 1_565 S
C579 C581 1.327 . S
C579 C585 1.429 . S
C580 C572 1.574 1_565 S
C580 H575 0.949 . S
C580 C586 1.368 . S
C581 C565 1.349 . S
C581 H573 0.950 . S
C581 C579 1.327 . S
C582 C570 1.349 . S
C582 H576 0.950 . S
C582 C583 1.327 . S
C583 H577 0.950 . S
C583 C582 1.327 . S
C583 C587 1.429 . S
C584 C567 1.574 . S
C584 H578 0.949 . S
C584 C588 1.368 . S
C585 C566 1.429 . S
C585 C579 1.429 . S
C585 C586 1.523 . S
C586 C567 1.368 1_565 S
C586 C580 1.368 . S
C586 C585 1.523 . S
C587 C571 1.429 . S
C587 C583 1.429 . S
C587 C588 1.523 . S
C588 C572 1.368 . S
C588 C584 1.368 . S
C588 C587 1.523 . S
H589 C564 0.950 . S
H590 C566 0.950 . S
H591 C567 0.949 . S
H592 C569 0.950 . S
H593 C571 0.950 . S
C594 C595 1.349 . S
C594 C596 1.327 . S
C594 H619 0.950 1_455 S
C595 C594 1.349 . S
C595 C611 1.349 . S
C596 C594 1.327 . S
C596 C615 1.429 . S
C596 H620 0.950 1_455 S
C597 C614 1.574 1_554 S
C597 C616 1.368 . S
C597 H621 0.949 . S
H598 C602 0.950 . S
C599 C600 1.349 . S
C599 C601 1.327 . S
C599 H622 0.950 . S
C600 C599 1.349 . S
C600 C612 1.349 . S
C601 C599 1.327 . S
C601 C617 1.429 . S
C601 H623 0.950 . S
C602 H598 0.950 . S
C602 C610 1.574 . S
C602 C618 1.368 1_565 S
H603 C611 0.950 1_545 S
H604 C609 0.950 . S
H605 C610 0.947 1_655 S
H606 C612 0.950 . S
H607 C613 0.950 1_565 S
H608 C614 0.949 . S
C609 H604 0.950 . S
C609 C611 1.327 1_545 S
C609 C615 1.429 1_545 S
C610 C602 1.574 . S
C610 H605 0.947 1_455 S
C610 C616 1.368 1_566 S
C611 C595 1.349 . S
C611 H603 0.950 1_565 S
C611 C609 1.327 1_565 S
C612 C600 1.349 . S
C612 H606 0.950 . S
C612 C613 1.327 . S
C613 H607 0.950 1_545 S
C613 C612 1.327 . S
C613 C617 1.429 . S
C614 C597 1.574 1_556 S
C614 H608 0.949 . S
C614 C618 1.368 . S
C615 C596 1.429 . S
C615 C609 1.429 1_565 S
C615 C616 1.523 1_565 S
C616 C597 1.368 . S
C616 C610 1.368 1_544 S
C616 C615 1.523 1_545 S
C617 C601 1.429 . S
C617 C613 1.429 . S
C617 C618 1.523 . S
C618 C602 1.368 1_545 S
C618 C614 1.368 . S
C618 C617 1.523 . S
H619 C594 0.950 1_655 S
H620 C596 0.950 1_655 S
H621 C597 0.949 . S
H622 C599 0.950 . S
H623 C601 0.950 . S
C624 C625 1.349 . S
C624 C626 1.327 . S
C624 H649 0.950 . S
C625 C624 1.349 . S
C625 C641 1.349 . S
C626 C624 1.327 . S
C626 C645 1.429 . S
C626 H650 0.950 . S
C627 C644 1.574 . S
C627 C646 1.368 . S
C627 H651 0.949 . S
H628 C632 0.949 . S
C629 C630 1.349 . S
C629 C631 1.327 . S
C629 H652 0.950 . S
C630 C629 1.349 . S
C630 C642 1.349 . S
C631 C629 1.327 . S
C631 C647 1.429 . S
C631 H653 0.950 . S
C632 H628 0.949 . S
C632 C640 1.574 . S
C632 C648 1.368 . S
H633 C641 0.950 . S
H634 C639 0.950 . S
H635 C640 0.949 . S
H636 C642 0.950 . S
H637 C643 0.950 . S
H638 C644 0.949 . S
C639 H634 0.950 . S
C639 C641 1.327 . S
C639 C645 1.429 . S
C640 C632 1.574 . S
C640 H635 0.949 . S
C640 C646 1.368 . S
C641 C625 1.349 . S
C641 H633 0.950 . S
C641 C639 1.327 . S
C642 C630 1.349 . S
C642 H636 0.950 . S
C642 C643 1.327 . S
C643 H637 0.950 . S
C643 C642 1.327 . S
C643 C647 1.429 . S
C644 C627 1.574 . S
C644 H638 0.949 . S
C644 C648 1.368 . S
C645 C626 1.429 . S
C645 C639 1.429 . S
C645 C646 1.523 . S
C646 C627 1.368 . S
C646 C640 1.368 . S
C646 C645 1.523 . S
C647 C631 1.429 . S
C647 C643 1.429 . S
C647 C648 1.523 . S
C648 C632 1.368 . S
C648 C644 1.368 . S
C648 C647 1.523 . S
H649 C624 0.950 . S
H650 C626 0.950 . S
H651 C627 0.949 . S
H652 C629 0.950 . S
H653 C631 0.950 . S
C654 C655 1.349 . S
C654 C656 1.327 . S
C654 H679 0.950 . S
C655 C654 1.349 . S
C655 C671 1.349 . S
C656 C654 1.327 . S
C656 C675 1.429 . S
C656 H680 0.950 . S
C657 C674 1.574 . S
C657 C676 1.368 . S
C657 H681 0.949 . S
H658 C662 0.949 . S
C659 C660 1.349 . S
C659 C661 1.327 . S
C659 H682 0.950 . S
C660 C659 1.349 . S
C660 C672 1.349 . S
C661 C659 1.327 . S
C661 C677 1.429 . S
C661 H683 0.950 . S
C662 H658 0.949 . S
C662 C670 1.574 . S
C662 C678 1.368 . S
H663 C671 0.950 . S
H664 C669 0.950 . S
H665 C670 0.949 . S
H666 C672 0.950 . S
H667 C673 0.950 . S
H668 C674 0.949 . S
C669 H664 0.950 . S
C669 C671 1.327 . S
C669 C675 1.429 . S
C670 C662 1.574 . S
C670 H665 0.949 . S
C670 C676 1.368 . S
C671 C655 1.349 . S
C671 H663 0.950 . S
C671 C669 1.327 . S
C672 C660 1.349 . S
C672 H666 0.950 . S
C672 C673 1.327 . S
C673 H667 0.950 . S
C673 C672 1.327 . S
C673 C677 1.429 . S
C674 C657 1.574 . S
C674 H668 0.949 . S
C674 C678 1.368 . S
C675 C656 1.429 . S
C675 C669 1.429 . S
C675 C676 1.523 . S
C676 C657 1.368 . S
C676 C670 1.368 . S
C676 C675 1.523 . S
C677 C661 1.429 . S
C677 C673 1.429 . S
C677 C678 1.523 . S
C678 C662 1.368 . S
C678 C674 1.368 . S
C678 C677 1.523 . S
H679 C654 0.950 . S
H680 C656 0.950 . S
H681 C657 0.949 . S
H682 C659 0.950 . S
H683 C661 0.950 . S
C684 C685 1.349 . S
C684 C686 1.327 . S
C684 H709 0.950 . S
C685 C684 1.349 . S
C685 C701 1.349 . S
C686 C684 1.327 . S
C686 C705 1.429 . S
C686 H710 0.950 . S
C687 C704 1.574 . S
C687 C706 1.368 . S
C687 H711 0.949 . S
H688 C692 0.949 1_655 S
C689 C690 1.349 . S
C689 C691 1.327 . S
C689 H712 0.950 . S
C690 C689 1.349 . S
C690 C702 1.349 . S
C691 C689 1.327 . S
C691 C707 1.429 . S
C691 H713 0.950 . S
C692 H688 0.949 1_455 S
C692 C700 1.574 . S
C692 C708 1.368 1_455 S
H693 C701 0.950 . S
H694 C699 0.950 . S
H695 C700 0.949 . S
H696 C702 0.950 . S
H697 C703 0.950 . S
H698 C704 0.949 1_655 S
C699 H694 0.950 . S
C699 C701 1.327 . S
C699 C705 1.429 . S
C700 C692 1.574 . S
C700 H695 0.949 . S
C700 C706 1.368 . S
C701 C685 1.349 . S
C701 H693 0.950 . S
C701 C699 1.327 . S
C702 C690 1.349 . S
C702 H696 0.950 . S
C702 C703 1.327 . S
C703 H697 0.950 . S
C703 C702 1.327 . S
C703 C707 1.429 . S
C704 C687 1.574 . S
C704 H698 0.949 1_455 S
C704 C708 1.368 1_455 S
C705 C686 1.429 . S
C705 C699 1.429 . S
C705 C706 1.523 . S
C706 C687 1.368 . S
C706 C700 1.368 . S
C706 C705 1.523 . S
C707 C691 1.429 . S
C707 C703 1.429 . S
C707 C708 1.523 . S
C708 C692 1.368 1_655 S
C708 C704 1.368 1_655 S
C708 C707 1.523 . S
H709 C684 0.950 . S
H710 C686 0.950 . S
H711 C687 0.949 . S
H712 C689 0.950 . S
H713 C691 0.950 . S
C714 C715 1.349 . S
C714 C716 1.327 . S
C714 H739 0.950 . S
C715 C714 1.349 . S
C715 C731 1.349 . S
C716 C714 1.327 . S
C716 C735 1.429 . S
C716 H740 0.950 . S
C717 C734 1.574 . S
C717 C736 1.368 . S
C717 H741 0.949 . S
H718 C722 0.949 . S
C719 C720 1.349 . S
C719 C721 1.327 . S
C719 H742 0.950 . S
C720 C719 1.349 . S
C720 C732 1.349 . S
C721 C719 1.327 . S
C721 C737 1.429 . S
C721 H743 0.950 . S
C722 H718 0.949 . S
C722 C730 1.574 . S
C722 C738 1.368 . S
H723 C731 0.950 . S
H724 C729 0.950 . S
H725 C730 0.949 . S
H726 C732 0.950 . S
H727 C733 0.950 . S
H728 C734 0.949 . S
C729 H724 0.950 . S
C729 C731 1.327 . S
C729 C735 1.429 . S
C730 C722 1.574 . S
C730 H725 0.949 . S
C730 C736 1.368 . S
C731 C715 1.349 . S
C731 H723 0.950 . S
C731 C729 1.327 . S
C732 C720 1.349 . S
C732 H726 0.950 . S
C732 C733 1.327 . S
C733 H727 0.950 . S
C733 C732 1.327 . S
C733 C737 1.429 . S
C734 C717 1.574 . S
C734 H728 0.949 . S
C734 C738 1.368 . S
C735 C716 1.429 . S
C735 C729 1.429 . S
C735 C736 1.523 . S
C736 C717 1.368 . S
C736 C730 1.368 . S
C736 C735 1.523 . S
C737 C721 1.429 . S
C737 C733 1.429 . S
C737 C738 1.523 . S
C738 C722 1.368 . S
C738 C734 1.368 . S
C738 C737 1.523 . S
H739 C714 0.950 . S
H740 C716 0.950 . S
H741 C717 0.949 . S
H742 C719 0.950 . S
H743 C721 0.950 . S
C744 C745 1.349 . S
C744 C746 1.327 . S
C744 H769 0.950 . S
C745 C744 1.349 . S
C745 C761 1.349 . S
C746 C744 1.327 . S
C746 C765 1.429 . S
C746 H770 0.950 . S
C747 C764 1.574 . S
C747 C766 1.368 . S
C747 H771 0.949 . S
H748 C752 0.949 . S
C749 C750 1.349 . S
C749 C751 1.327 . S
C749 H772 0.950 . S
C750 C749 1.349 . S
C750 C762 1.349 . S
C751 C749 1.327 . S
C751 C767 1.429 . S
C751 H773 0.950 . S
C752 H748 0.949 . S
C752 C760 1.574 . S
C752 C768 1.368 . S
H753 C761 0.950 . S
H754 C759 0.950 . S
H755 C760 0.949 . S
H756 C762 0.950 . S
H757 C763 0.950 . S
H758 C764 0.949 . S
C759 H754 0.950 . S
C759 C761 1.327 . S
C759 C765 1.429 . S
C760 C752 1.574 . S
C760 H755 0.949 . S
C760 C766 1.368 . S
C761 C745 1.349 . S
C761 H753 0.950 . S
C761 C759 1.327 . S
C762 C750 1.349 . S
C762 H756 0.950 . S
C762 C763 1.327 . S
C763 H757 0.950 . S
C763 C762 1.327 . S
C763 C767 1.429 . S
C764 C747 1.574 . S
C764 H758 0.949 . S
C764 C768 1.368 . S
C765 C746 1.429 . S
C765 C759 1.429 . S
C765 C766 1.523 . S
C766 C747 1.368 . S
C766 C760 1.368 . S
C766 C765 1.523 . S
C767 C751 1.429 . S
C767 C763 1.429 . S
C767 C768 1.523 . S
C768 C752 1.368 . S
C768 C764 1.368 . S
C768 C767 1.523 . S
H769 C744 0.950 . S
H770 C746 0.950 . S
H771 C747 0.949 . S
H772 C749 0.950 . S
H773 C751 0.950 . S
C774 C775 1.349 . S
C774 C776 1.327 . S
C774 H799 0.950 . S
C775 C774 1.349 . S
C775 C791 1.349 . S
C776 C774 1.327 . S
C776 C795 1.429 . S
C776 H800 0.950 . S
C777 C794 1.574 . S
C777 C796 1.368 . S
C777 H801 0.949 1_455 S
H778 C782 0.949 . S
C779 C780 1.349 . S
C779 C781 1.327 . S
C779 H802 0.950 1_455 S
C780 C779 1.349 . S
C780 C792 1.349 . S
C781 C779 1.327 . S
C781 C797 1.429 . S
C781 H803 0.950 1_455 S
C782 H778 0.949 . S
C782 C790 1.574 . S
C782 C798 1.368 . S
H783 C791 0.950 1_655 S
H784 C789 0.950 1_655 S
H785 C790 0.949 . S
H786 C792 0.950 . S
H787 C793 0.950 . S
H788 C794 0.949 1_655 S
C789 H784 0.950 1_455 S
C789 C791 1.327 . S
C789 C795 1.429 . S
C790 C782 1.574 . S
C790 H785 0.949 . S
C790 C796 1.368 . S
C791 C775 1.349 . S
C791 H783 0.950 1_455 S
C791 C789 1.327 . S
C792 C780 1.349 . S
C792 H786 0.950 . S
C792 C793 1.327 . S
C793 H787 0.950 . S
C793 C792 1.327 . S
C793 C797 1.429 . S
C794 C777 1.574 . S
C794 H788 0.949 1_455 S
C794 C798 1.368 . S
C795 C776 1.429 . S
C795 C789 1.429 . S
C795 C796 1.523 . S
C796 C777 1.368 . S
C796 C790 1.368 . S
C796 C795 1.523 . S
C797 C781 1.429 . S
C797 C793 1.429 . S
C797 C798 1.523 . S
C798 C782 1.368 . S
C798 C794 1.368 . S
C798 C797 1.523 . S
H799 C774 0.950 . S
H800 C776 0.950 . S
H801 C777 0.949 1_655 S
H802 C779 0.950 1_655 S
H803 C781 0.950 1_655 S
C804 C805 1.349 . S
C804 C806 1.327 . S
C804 H829 0.950 . S
C805 C804 1.349 . S
C805 C821 1.349 . S
C806 C804 1.327 . S
C806 C825 1.429 . S
C806 H830 0.950 . S
C807 C824 1.574 . S
C807 C826 1.368 1_455 S
C807 H831 0.946 1_455 S
H808 C812 0.949 . S
C809 C810 1.349 . S
C809 C811 1.327 . S
C809 H832 0.950 . S
C810 C809 1.349 . S
C810 C822 1.349 . S
C811 C809 1.327 . S
C811 C827 1.429 . S
C811 H833 0.950 . S
C812 H808 0.949 . S
C812 C820 1.574 . S
C812 C828 1.368 . S
H813 C821 0.950 . S
H814 C819 0.950 . S
H815 C820 0.949 1_655 S
H816 C822 0.950 . S
H817 C823 0.950 . S
H818 C824 0.949 . S
C819 H814 0.950 . S
C819 C821 1.327 . S
C819 C825 1.429 . S
C820 C812 1.574 . S
C820 H815 0.949 1_455 S
C820 C826 1.368 1_455 S
C821 C805 1.349 . S
C821 H813 0.950 . S
C821 C819 1.327 . S
C822 C810 1.349 . S
C822 H816 0.950 . S
C822 C823 1.327 . S
C823 H817 0.950 . S
C823 C822 1.327 . S
C823 C827 1.429 . S
C824 C807 1.574 . S
C824 H818 0.949 . S
C824 C828 1.368 . S
C825 C806 1.429 . S
C825 C819 1.429 . S
C825 C826 1.523 . S
C826 C807 1.368 1_655 S
C826 C820 1.368 1_655 S
C826 C825 1.523 . S
C827 C811 1.429 . S
C827 C823 1.429 . S
C827 C828 1.523 . S
C828 C812 1.368 . S
C828 C824 1.368 . S
C828 C827 1.523 . S
H829 C804 0.950 . S
H830 C806 0.950 . S
H831 C807 0.946 1_655 S
H832 C809 0.950 . S
H833 C811 0.950 . S
C834 C835 1.349 . S
C834 C836 1.327 . S
C834 H859 0.950 . S
C835 C834 1.349 . S
C835 C851 1.349 . S
C836 C834 1.327 . S
C836 C855 1.429 . S
C836 H860 0.950 . S
C837 C854 1.574 . S
C837 C856 1.368 . S
C837 H861 0.949 . S
H838 C842 0.949 . S
C839 C840 1.349 . S
C839 C841 1.327 . S
C839 H862 0.950 . S
C840 C839 1.349 . S
C840 C852 1.349 . S
C841 C839 1.327 . S
C841 C857 1.429 . S
C841 H863 0.950 . S
C842 H838 0.949 . S
C842 C850 1.574 . S
C842 C858 1.368 . S
H843 C851 0.950 . S
H844 C849 0.950 . S
H845 C850 0.949 . S
H846 C852 0.950 . S
H847 C853 0.950 . S
H848 C854 0.949 . S
C849 H844 0.950 . S
C849 C851 1.327 . S
C849 C855 1.429 . S
C850 C842 1.574 . S
C850 H845 0.949 . S
C850 C856 1.368 . S
C851 C835 1.349 . S
C851 H843 0.950 . S
C851 C849 1.327 . S
C852 C840 1.349 . S
C852 H846 0.950 . S
C852 C853 1.327 . S
C853 H847 0.950 . S
C853 C852 1.327 . S
C853 C857 1.429 . S
C854 C837 1.574 . S
C854 H848 0.949 . S
C854 C858 1.368 . S
C855 C836 1.429 . S
C855 C849 1.429 . S
C855 C856 1.523 . S
C856 C837 1.368 . S
C856 C850 1.368 . S
C856 C855 1.523 . S
C857 C841 1.429 . S
C857 C853 1.429 . S
C857 C858 1.523 . S
C858 C842 1.368 . S
C858 C854 1.368 . S
C858 C857 1.523 . S
H859 C834 0.950 . S
H860 C836 0.950 . S
H861 C837 0.949 . S
H862 C839 0.950 . S
H863 C841 0.950 . S
C265 C18 1.267 . S
C270 C183 1.267 . S
C295 C216 1.264 . S
C300 C51 1.264 . S
C325 C84 1.267 . S
C330 C249 1.267 . S
C355 C150 1.264 . S
C360 C117 1.264 . S
C385 C7 0.406 . S
C390 C153 0.336 . S
C415 C40 0.504 . S
C420 C186 0.446 . S
C445 C205 0.504 . S
C450 C87 0.446 . S
C475 C120 0.336 . S
C480 C238 0.406 . S
C505 C106 0.504 . S
C510 C252 0.446 . S
C535 C172 0.406 . S
C540 C54 0.336 . S
C565 C219 0.336 . S
C570 C73 0.406 . S
C595 C21 0.446 . S
C600 C139 0.504 . S
C625 N13 1.899 . S
C630 N2 1.896 . S
C655 N46 1.900 . S
C660 N35 1.896 1_545 S
C685 N79 1.899 . S
C690 N68 1.896 . S
C715 N112 1.900 1_565 S
C720 N101 1.896 . S
C745 N134 1.896 . S
C750 N145 1.900 . S
C775 N178 1.899 1_545 S
C780 N167 1.896 . S
C805 N211 1.900 . S
C810 N200 1.896 . S
C835 N233 1.896 1_565 S
C840 N244 1.899 . S
