# Generated by pormake.
# Topology unl, (4)-cn, num edge types: 1
# Building blocks:
#     Node 0, Type 0, BuildingBlock: ESEHIV_clean_sbu_0, # of connection points: 4
#     Node 1, Type 0, BuildingBlock: ESEHIV_clean_sbu_0, # of connection points: 4
#     Node 2, Type 0, BuildingBlock: ESEHIV_clean_sbu_0, # of connection points: 4
#     Node 3, Type 0, BuildingBlock: ESEHIV_clean_sbu_0, # of connection points: 4
#     Node 4, Type 0, BuildingBlock: ESEHIV_clean_sbu_0, # of connection points: 4
#     Node 5, Type 0, BuildingBlock: ESEHIV_clean_sbu_0, # of connection points: 4
#     Node 6, Type 0, BuildingBlock: ESEHIV_clean_sbu_0, # of connection points: 4
#     Node 7, Type 0, BuildingBlock: ESEHIV_clean_sbu_0, # of connection points: 4
#     Node 8, Type 0, BuildingBlock: ESEHIV_clean_sbu_0, # of connection points: 4
#     Node 9, Type 0, BuildingBlock: ESEHIV_clean_sbu_0, # of connection points: 4
#     Node 10, Type 0, BuildingBlock: ESEHIV_clean_sbu_0, # of connection points: 4
#     Node 11, Type 0, BuildingBlock: ESEHIV_clean_sbu_0, # of connection points: 4
#     Node 12, Type 0, BuildingBlock: ESEHIV_clean_sbu_0, # of connection points: 4
#     Node 13, Type 0, BuildingBlock: ESEHIV_clean_sbu_0, # of connection points: 4
#     Node 14, Type 0, BuildingBlock: ESEHIV_clean_sbu_0, # of connection points: 4
#     Node 15, Type 0, BuildingBlock: ESEHIV_clean_sbu_0, # of connection points: 4
#     Node 16, Type 0, BuildingBlock: ESEHIV_clean_sbu_0, # of connection points: 4
#     Node 17, Type 0, BuildingBlock: ESEHIV_clean_sbu_0, # of connection points: 4
#     Node 18, Type 0, BuildingBlock: ESEHIV_clean_sbu_0, # of connection points: 4
#     Node 19, Type 0, BuildingBlock: ESEHIV_clean_sbu_0, # of connection points: 4
#     Node 20, Type 0, BuildingBlock: ESEHIV_clean_sbu_0, # of connection points: 4
#     Node 21, Type 0, BuildingBlock: ESEHIV_clean_sbu_0, # of connection points: 4
#     Node 22, Type 0, BuildingBlock: ESEHIV_clean_sbu_0, # of connection points: 4
#     Node 23, Type 0, BuildingBlock: ESEHIV_clean_sbu_0, # of connection points: 4
#     Node 24, Type 0, BuildingBlock: ESEHIV_clean_sbu_0, # of connection points: 4
#     Node 25, Type 0, BuildingBlock: ESEHIV_clean_sbu_0, # of connection points: 4
#     Node 26, Type 0, BuildingBlock: ESEHIV_clean_sbu_0, # of connection points: 4
#     Node 27, Type 0, BuildingBlock: ESEHIV_clean_sbu_0, # of connection points: 4
#     Node 28, Type 0, BuildingBlock: ESEHIV_clean_sbu_0, # of connection points: 4
#     Node 29, Type 0, BuildingBlock: ESEHIV_clean_sbu_0, # of connection points: 4
#     Node 30, Type 0, BuildingBlock: ESEHIV_clean_sbu_0, # of connection points: 4
#     Node 31, Type 0, BuildingBlock: ESEHIV_clean_sbu_0, # of connection points: 4
#     Node 32, Type 0, BuildingBlock: ESEHIV_clean_sbu_0, # of connection points: 4
#     Node 33, Type 0, BuildingBlock: ESEHIV_clean_sbu_0, # of connection points: 4
#     Node 34, Type 0, BuildingBlock: ESEHIV_clean_sbu_0, # of connection points: 4
#     Node 35, Type 0, BuildingBlock: ESEHIV_clean_sbu_0, # of connection points: 4
#     Edge 36, Type (0, 0), BuildingBlock: XIVTED_clean_linker_0, # of connection points: 2
#     Edge 37, Type (0, 0), BuildingBlock: XIVTED_clean_linker_0, # of connection points: 2
#     Edge 38, Type (0, 0), BuildingBlock: XIVTED_clean_linker_0, # of connection points: 2
#     Edge 39, Type (0, 0), BuildingBlock: XIVTED_clean_linker_0, # of connection points: 2
#     Edge 40, Type (0, 0), BuildingBlock: XIVTED_clean_linker_0, # of connection points: 2
#     Edge 41, Type (0, 0), BuildingBlock: XIVTED_clean_linker_0, # of connection points: 2
#     Edge 42, Type (0, 0), BuildingBlock: XIVTED_clean_linker_0, # of connection points: 2
#     Edge 43, Type (0, 0), BuildingBlock: XIVTED_clean_linker_0, # of connection points: 2
#     Edge 44, Type (0, 0), BuildingBlock: XIVTED_clean_linker_0, # of connection points: 2
#     Edge 45, Type (0, 0), BuildingBlock: XIVTED_clean_linker_0, # of connection points: 2
#     Edge 46, Type (0, 0), BuildingBlock: XIVTED_clean_linker_0, # of connection points: 2
#     Edge 47, Type (0, 0), BuildingBlock: XIVTED_clean_linker_0, # of connection points: 2
#     Edge 48, Type (0, 0), BuildingBlock: XIVTED_clean_linker_0, # of connection points: 2
#     Edge 49, Type (0, 0), BuildingBlock: XIVTED_clean_linker_0, # of connection points: 2
#     Edge 50, Type (0, 0), BuildingBlock: XIVTED_clean_linker_0, # of connection points: 2
#     Edge 51, Type (0, 0), BuildingBlock: XIVTED_clean_linker_0, # of connection points: 2
#     Edge 52, Type (0, 0), BuildingBlock: XIVTED_clean_linker_0, # of connection points: 2
#     Edge 53, Type (0, 0), BuildingBlock: XIVTED_clean_linker_0, # of connection points: 2
#     Edge 54, Type (0, 0), BuildingBlock: XIVTED_clean_linker_0, # of connection points: 2
#     Edge 55, Type (0, 0), BuildingBlock: XIVTED_clean_linker_0, # of connection points: 2
#     Edge 56, Type (0, 0), BuildingBlock: XIVTED_clean_linker_0, # of connection points: 2
#     Edge 57, Type (0, 0), BuildingBlock: XIVTED_clean_linker_0, # of connection points: 2
#     Edge 58, Type (0, 0), BuildingBlock: XIVTED_clean_linker_0, # of connection points: 2
#     Edge 59, Type (0, 0), BuildingBlock: XIVTED_clean_linker_0, # of connection points: 2
#     Edge 60, Type (0, 0), BuildingBlock: XIVTED_clean_linker_0, # of connection points: 2
#     Edge 61, Type (0, 0), BuildingBlock: XIVTED_clean_linker_0, # of connection points: 2
#     Edge 62, Type (0, 0), BuildingBlock: XIVTED_clean_linker_0, # of connection points: 2
#     Edge 63, Type (0, 0), BuildingBlock: XIVTED_clean_linker_0, # of connection points: 2
#     Edge 64, Type (0, 0), BuildingBlock: XIVTED_clean_linker_0, # of connection points: 2
#     Edge 65, Type (0, 0), BuildingBlock: XIVTED_clean_linker_0, # of connection points: 2
#     Edge 66, Type (0, 0), BuildingBlock: XIVTED_clean_linker_0, # of connection points: 2
#     Edge 67, Type (0, 0), BuildingBlock: XIVTED_clean_linker_0, # of connection points: 2
#     Edge 68, Type (0, 0), BuildingBlock: XIVTED_clean_linker_0, # of connection points: 2
#     Edge 69, Type (0, 0), BuildingBlock: XIVTED_clean_linker_0, # of connection points: 2
#     Edge 70, Type (0, 0), BuildingBlock: XIVTED_clean_linker_0, # of connection points: 2
#     Edge 71, Type (0, 0), BuildingBlock: XIVTED_clean_linker_0, # of connection points: 2
#     Edge 72, Type (0, 0), BuildingBlock: XIVTED_clean_linker_0, # of connection points: 2
#     Edge 73, Type (0, 0), BuildingBlock: XIVTED_clean_linker_0, # of connection points: 2
#     Edge 74, Type (0, 0), BuildingBlock: XIVTED_clean_linker_0, # of connection points: 2
#     Edge 75, Type (0, 0), BuildingBlock: XIVTED_clean_linker_0, # of connection points: 2
#     Edge 76, Type (0, 0), BuildingBlock: XIVTED_clean_linker_0, # of connection points: 2
#     Edge 77, Type (0, 0), BuildingBlock: XIVTED_clean_linker_0, # of connection points: 2
#     Edge 78, Type (0, 0), BuildingBlock: XIVTED_clean_linker_0, # of connection points: 2
#     Edge 79, Type (0, 0), BuildingBlock: XIVTED_clean_linker_0, # of connection points: 2
#     Edge 80, Type (0, 0), BuildingBlock: XIVTED_clean_linker_0, # of connection points: 2
#     Edge 81, Type (0, 0), BuildingBlock: XIVTED_clean_linker_0, # of connection points: 2
#     Edge 82, Type (0, 0), BuildingBlock: XIVTED_clean_linker_0, # of connection points: 2
#     Edge 83, Type (0, 0), BuildingBlock: XIVTED_clean_linker_0, # of connection points: 2
#     Edge 84, Type (0, 0), BuildingBlock: XIVTED_clean_linker_0, # of connection points: 2
#     Edge 85, Type (0, 0), BuildingBlock: XIVTED_clean_linker_0, # of connection points: 2
#     Edge 86, Type (0, 0), BuildingBlock: XIVTED_clean_linker_0, # of connection points: 2
#     Edge 87, Type (0, 0), BuildingBlock: XIVTED_clean_linker_0, # of connection points: 2
#     Edge 88, Type (0, 0), BuildingBlock: XIVTED_clean_linker_0, # of connection points: 2
#     Edge 89, Type (0, 0), BuildingBlock: XIVTED_clean_linker_0, # of connection points: 2
#     Edge 90, Type (0, 0), BuildingBlock: XIVTED_clean_linker_0, # of connection points: 2
#     Edge 91, Type (0, 0), BuildingBlock: XIVTED_clean_linker_0, # of connection points: 2
#     Edge 92, Type (0, 0), BuildingBlock: XIVTED_clean_linker_0, # of connection points: 2
#     Edge 93, Type (0, 0), BuildingBlock: XIVTED_clean_linker_0, # of connection points: 2
#     Edge 94, Type (0, 0), BuildingBlock: XIVTED_clean_linker_0, # of connection points: 2
#     Edge 95, Type (0, 0), BuildingBlock: XIVTED_clean_linker_0, # of connection points: 2
#     Edge 96, Type (0, 0), BuildingBlock: XIVTED_clean_linker_0, # of connection points: 2
#     Edge 97, Type (0, 0), BuildingBlock: XIVTED_clean_linker_0, # of connection points: 2
#     Edge 98, Type (0, 0), BuildingBlock: XIVTED_clean_linker_0, # of connection points: 2
#     Edge 99, Type (0, 0), BuildingBlock: XIVTED_clean_linker_0, # of connection points: 2
#     Edge 100, Type (0, 0), BuildingBlock: XIVTED_clean_linker_0, # of connection points: 2
#     Edge 101, Type (0, 0), BuildingBlock: XIVTED_clean_linker_0, # of connection points: 2
#     Edge 102, Type (0, 0), BuildingBlock: XIVTED_clean_linker_0, # of connection points: 2
#     Edge 103, Type (0, 0), BuildingBlock: XIVTED_clean_linker_0, # of connection points: 2
#     Edge 104, Type (0, 0), BuildingBlock: XIVTED_clean_linker_0, # of connection points: 2
#     Edge 105, Type (0, 0), BuildingBlock: XIVTED_clean_linker_0, # of connection points: 2
#     Edge 106, Type (0, 0), BuildingBlock: XIVTED_clean_linker_0, # of connection points: 2
#     Edge 107, Type (0, 0), BuildingBlock: XIVTED_clean_linker_0, # of connection points: 2
# Relax obj value: 0.037
# Max RMSD: 0.197
# Mean RMSD: 0.183
data_MOF--net-unl--node1-ESEHIV_clean_sbu_0--edge1-XIVTED_clean_linker_0
_symmetry_space_group_name_H-M    P1
_symmetry_Int_Tables_number       1
_symmetry_cell_setting            triclinic
loop_
_symmetry_equiv_pos_as_xyz
'x, y, z'
_cell_length_a     63.054492
_cell_length_b     67.293406
_cell_length_c     50.909017
_cell_angle_alpha  87.972943
_cell_angle_beta   90.127171
_cell_angle_gamma 118.00359
loop_
_atom_site_label
_atom_site_type_symbol
_atom_site_fract_x
_atom_site_fract_y
_atom_site_fract_z
_atom_type_partial_charge
Cu0 Cu 0.21093 0.13934 0.13376 0.0
N1 N 0.19123 0.13374 0.16342 0.0
N2 N 0.17591 0.13551 0.20238 0.0
C3 C 0.19463 0.14579 0.18514 0.0
C4 C 0.16025 0.11645 0.1909 0.0
C5 C 0.16972 0.11544 0.16699 0.0
O6 O 0.24429 0.16013 0.14186 0.0
C7 C 0.20627 0.15775 0.08267 0.0
O8 O 0.22916 0.16426 0.07844 0.0
H9 H 0.21061 0.1615 0.18839 0.0
H10 H 0.16152 0.10224 0.15307 0.0
N11 N 0.20996 0.11213 0.12587 0.0
N12 N 0.20781 0.08328 0.10365 0.0
C13 C 0.20416 0.10152 0.10298 0.0
C14 C 0.21731 0.10013 0.14157 0.0
C15 C 0.21608 0.08235 0.12789 0.0
C16 C 0.26152 0.15973 0.12918 0.0
O17 O 0.25661 0.14743 0.10835 0.0
H18 H 0.19846 0.10763 0.08583 0.0
H19 H 0.22379 0.10448 0.16132 0.0
O20 O 0.19658 0.1483 0.10469 0.0
H21 H 0.14301 0.10417 0.19905 0.0
H22 H 0.22119 0.06989 0.13505 0.0
Cu23 Cu 0.87841 0.04993 0.13015 0.0
N24 N 0.85982 0.02679 0.10787 0.0
N25 N 0.84859 1.00364 0.07419 0.0
C26 C 0.86706 0.02079 0.08598 0.0
C27 C 0.82908 0.99875 0.08938 0.0
C28 C 0.83606 0.01303 0.11007 0.0
O29 O 0.91092 0.06414 0.11566 0.0
C30 C 0.88788 0.04665 0.18519 0.0
O31 O 0.90461 0.06771 0.1823 0.0
H32 H 0.88542 0.02911 0.07866 0.0
H33 H 0.82463 0.01344 0.12562 0.0
N34 N 0.86682 0.07093 0.12854 0.0
N35 N 0.86047 0.1002 0.13634 0.0
C36 C 0.86756 0.08549 0.14656 0.0
C37 C 0.85874 0.07649 0.10647 0.0
C38 C 0.85489 0.09454 0.11116 0.0
C39 C 0.92568 0.08496 0.11735 0.0
O40 O 0.9203 0.09739 0.13254 0.0
H41 H 0.87452 0.0862 0.16615 0.0
H42 H 0.85681 0.06853 0.08789 0.0
O43 O 0.87545 0.03667 0.1655 0.0
H44 H 0.81104 0.9856 0.08603 0.0
H45 H 0.84908 0.10328 0.09697 0.0
Cu46 Cu 0.95916 0.80278 0.12614 0.0
N47 N 0.98774 0.81344 0.10661 0.0
N48 N 1.01615 0.82985 0.0753 0.0
C49 C 0.99372 0.82494 0.08324 0.0
C50 C 0.02449 0.82102 0.09438 0.0
C51 C 1.00697 0.81097 0.11363 0.0
O52 O 0.93655 0.81007 0.10752 0.0
C53 C 0.98303 0.83402 0.1659 0.0
O54 O 0.99453 0.84791 0.146 0.0
H55 H 0.98182 0.82939 0.07215 0.0
H56 H 1.00814 0.80253 0.13163 0.0
N57 N 0.9453 0.77146 0.12947 0.0
N58 N 0.92112 0.73575 0.1428 0.0
C59 C 0.92682 0.75763 0.14541 0.0
C60 C 0.95155 0.75798 0.11631 0.0
C61 C 0.9367 0.73597 0.12447 0.0
C62 C 0.94084 0.82968 0.0992 0.0
O63 O 0.96134 0.84709 0.10482 0.0
H64 H 0.91759 0.76357 0.15835 0.0
H65 H 0.96592 0.76377 0.10179 0.0
O66 O 0.96645 0.81433 0.16141 0.0
H67 H 0.04219 0.82215 0.09467 0.0
H68 H 0.93757 0.72134 0.11761 0.0
Cu69 Cu 0.16483 0.21274 0.4213 0.0
N70 N 0.18188 0.20024 0.43925 0.0
N71 N 0.19323 0.1825 0.46953 0.0
C72 C 0.17973 0.1929 0.46459 0.0
C73 C 0.20451 0.18364 0.44661 0.0
C74 C 0.19758 0.1947 0.42804 0.0
O75 O 0.1357 0.20657 0.44083 0.0
C76 C 0.15245 0.18118 0.3809 0.0
O77 O 0.1466 0.16634 0.40061 0.0
H78 H 0.1677 0.19418 0.47877 0.0
H79 H 0.20294 0.19781 0.40751 0.0
N80 N 0.18359 0.24388 0.41844 0.0
N81 N 0.19566 0.27987 0.40624 0.0
C82 C 0.17864 0.25825 0.40393 0.0
C83 C 0.20441 0.25671 0.43037 0.0
C84 C 0.2119 0.27895 0.42291 0.0
C85 C 0.12161 0.18772 0.45211 0.0
O86 O 0.12543 0.17034 0.44911 0.0
H87 H 0.16264 0.2529 0.39227 0.0
H88 H 0.21346 0.25033 0.44357 0.0
O89 O 0.15928 0.20173 0.3857 0.0
H90 H 0.2166 0.17664 0.44343 0.0
H91 H 0.22819 0.29325 0.42907 0.0
Cu92 Cu 0.82958 0.9685 0.41688 0.0
N93 N 0.83759 0.99471 0.43481 0.0
N94 N 0.85177 0.01996 0.46613 0.0
C95 C 0.84302 0.99808 0.46045 0.0
C96 C 0.8517 0.03071 0.44327 0.0
C97 C 0.84288 0.01507 0.424 0.0
O98 O 0.83805 0.94989 0.43997 0.0
C99 C 0.8394 0.96653 0.36235 0.0
O100 O 0.82084 0.94633 0.364 0.0
H101 H 0.84196 0.98503 0.47428 0.0
H102 H 0.84145 0.01842 0.40331 0.0
N103 N 0.79649 0.95339 0.41143 0.0
N104 N 0.75989 0.92616 0.40183 0.0
C105 C 0.78298 0.93139 0.40672 0.0
C106 C 0.78147 0.9624 0.40979 0.0
C107 C 0.75888 0.94567 0.4039 0.0
C108 C 0.84317 0.93433 0.43449 0.0
O109 O 0.84408 0.92954 0.40987 0.0
H110 H 0.79014 0.9196 0.40643 0.0
H111 H 0.78674 0.98003 0.41203 0.0
O112 O 0.84674 0.97776 0.38307 0.0
H113 H 0.85816 0.04867 0.44056 0.0
H114 H 0.74321 0.94793 0.40039 0.0
Cu115 Cu 0.07609 0.87381 0.41651 0.0
N116 N 0.06094 0.87875 0.38729 0.0
N117 N 0.04452 0.87706 0.34788 0.0
C118 C 0.05374 0.86734 0.36493 0.0
C119 C 0.04591 0.8951 0.36009 0.0
C120 C 0.05597 0.89606 0.38432 0.0
O121 O 0.09068 0.85499 0.40699 0.0
C122 C 0.05583 0.85521 0.46812 0.0
O123 O 0.07563 0.85386 0.47259 0.0
H124 H 0.05578 0.85263 0.36099 0.0
H125 H 0.05971 0.90866 0.39875 0.0
N126 N 0.10108 0.90173 0.42492 0.0
N127 N 0.12795 0.93048 0.44729 0.0
C128 C 0.10734 0.9108 0.44867 0.0
C129 C 0.1181 0.91621 0.40797 0.0
C130 C 0.13473 0.93395 0.42171 0.0
C131 C 0.10889 0.85612 0.41917 0.0
O132 O 0.11613 0.86817 0.4402 0.0
H133 H 0.09759 0.90268 0.46671 0.0
H134 H 0.11865 0.91368 0.38717 0.0
O135 O 0.05272 0.8622 0.44559 0.0
H136 H 0.03998 0.90676 0.35213 0.0
H137 H 0.15069 0.94818 0.41354 0.0
Cu138 Cu 0.81502 0.86824 0.89861 0.0
N139 N 0.82253 0.84988 0.92133 0.0
N140 N 0.83739 0.83776 0.95461 0.0
C141 C 0.83689 0.85575 0.94248 0.0
C142 C 0.82274 0.81994 0.94055 0.0
C143 C 0.81362 0.82743 0.9202 0.0
O144 O 0.82302 0.89622 0.91585 0.0
C145 C 0.82508 0.85481 0.85097 0.0
O146 O 0.80705 0.83571 0.85952 0.0
H147 H 0.84632 0.87274 0.94923 0.0
H148 H 0.80101 0.81709 0.9058 0.0
N149 N 0.78164 0.85406 0.89444 0.0
N150 N 0.74462 0.84629 0.88174 0.0
C151 C 0.76845 0.85817 0.87619 0.0
C152 C 0.76564 0.83909 0.91189 0.0
C153 C 0.74287 0.83425 0.90413 0.0
C154 C 0.84372 0.91054 0.92331 0.0
O155 O 0.86258 0.90818 0.91697 0.0
H156 H 0.77616 0.87029 0.8599 0.0
H157 H 0.77026 0.83269 0.92957 0.0
O158 O 0.8315 0.87216 0.86469 0.0
H159 H 0.81898 0.80268 0.9445 0.0
H160 H 0.7263 0.82291 0.91437 0.0
Cu161 Cu 0.16712 0.94274 0.89892 0.0
N162 N 0.18649 0.96705 0.91936 0.0
N163 N 0.19946 0.99202 0.95097 0.0
C164 C 0.18131 0.97261 0.94278 0.0
C165 C 0.21662 0.99896 0.93203 0.0
C166 C 0.20847 0.98363 0.91246 0.0
O167 O 0.1383 0.92213 0.91861 0.0
C168 C 0.15971 0.97291 0.86459 0.0
O169 O 0.15917 0.98254 0.88641 0.0
H170 H 0.16461 0.96274 0.95354 0.0
H171 H 0.2177 0.98471 0.89416 0.0
N172 N 0.18378 0.92678 0.89133 0.0
N173 N 0.19162 0.89915 0.87941 0.0
C174 C 0.17464 0.90592 0.88192 0.0
C175 C 0.20727 0.93343 0.89486 0.0
C176 C 0.21216 0.91652 0.8875 0.0
C177 C 0.12232 0.92667 0.9276 0.0
O178 O 0.12381 0.94651 0.92219 0.0
H179 H 0.15583 0.89579 0.87756 0.0
H180 H 0.22001 0.94937 0.90249 0.0
O181 O 0.16124 0.95469 0.86595 0.0
H182 H 0.23349 0.01438 0.93195 0.0
H183 H 0.22961 0.91711 0.88795 0.0
Cu184 Cu 0.08418 0.19425 0.9102 0.0
N185 N 0.05544 0.18126 0.92997 0.0
N186 N 0.02834 0.16269 0.96193 0.0
C187 C 0.05192 0.17542 0.95588 0.0
C188 C 1.01665 0.16077 0.93923 0.0
C189 C 0.03332 0.17223 0.91965 0.0
O190 O 0.1072 0.18616 0.92677 0.0
C191 C 0.06506 0.19359 0.8609 0.0
O192 O 0.06199 0.20952 0.87173 0.0
H193 H 0.06632 0.17897 0.96956 0.0
H194 H 0.02953 0.17277 0.89902 0.0
N195 N 0.09813 0.22563 0.90999 0.0
N196 N 0.12303 0.26181 0.89941 0.0
C197 C 0.11759 0.24014 0.89577 0.0
C198 C 0.09096 0.23845 0.92318 0.0
C199 C 0.10626 0.26079 0.91666 0.0
C200 C 0.10125 0.16737 0.9389 0.0
O201 O 0.07903 0.15119 0.93751 0.0
H202 H 0.12723 0.2348 0.88261 0.0
H203 H 0.07563 0.23198 0.9365 0.0
O204 O 0.07581 0.18456 0.874 0.0
H205 H 0.99743 0.15098 0.93682 0.0
H206 H 0.10522 0.27513 0.92426 0.0
Cu207 Cu 0.89224 0.81909 0.63417 0.0
N208 N 0.87173 0.82762 0.61642 0.0
N209 N 0.8574 0.84367 0.58723 0.0
C210 C 0.87584 0.83953 0.59345 0.0
C211 C 0.8411 0.83387 0.60697 0.0
C212 C 0.84997 0.82394 0.62489 0.0
O213 O 0.92257 0.83198 0.61451 0.0
C214 C 0.89456 0.84631 0.67703 0.0
O215 O 0.89686 0.86135 0.65853 0.0
H216 H 0.8923 0.84563 0.582 0.0
H217 H 0.84138 0.81499 0.64308 0.0
N218 N 0.87853 0.78774 0.63428 0.0
N219 N 0.86846 0.75206 0.64612 0.0
C220 C 0.88105 0.77391 0.65235 0.0
C221 C 0.86388 0.77427 0.61604 0.0
C222 C 0.8576 0.75226 0.62328 0.0
C223 C 0.9374 0.82412 0.61614 0.0
O224 O 0.93381 0.8083 0.63409 0.0
H225 H 0.89175 0.77978 0.66979 0.0
H226 H 0.85824 0.7801 0.59863 0.0
O227 O 0.89416 0.82801 0.67056 0.0
H228 H 0.82401 0.83393 0.60842 0.0
H229 H 0.84627 0.73759 0.61232 0.0
Cu230 Cu 0.23458 0.07492 0.64517 0.0
N231 N 0.23335 0.05256 0.62376 0.0
N232 N 0.2214 0.02672 0.59312 0.0
C233 C 0.21693 0.04188 0.60535 0.0
C234 C 0.24135 0.0279 0.60435 0.0
C235 C 0.2486 0.04378 0.62335 0.0
O236 O 0.21677 0.08809 0.62713 0.0
C237 C 0.212 0.06648 0.69683 0.0
O238 O 0.21231 0.08611 0.69417 0.0
H239 H 0.20226 0.04545 0.60073 0.0
H240 H 0.26396 0.04867 0.63595 0.0
N241 N 0.26678 0.09649 0.64784 0.0
N242 N 0.30175 0.12404 0.66112 0.0
C243 C 0.27819 0.11083 0.66711 0.0
C244 C 0.28359 0.10094 0.62911 0.0
C245 C 0.30512 0.1178 0.63724 0.0
C246 C 0.22117 0.10852 0.62842 0.0
O247 O 0.23686 0.12148 0.64539 0.0
H248 H 0.26943 0.11155 0.68504 0.0
H249 H 0.28029 0.09264 0.61061 0.0
O250 O 0.2207 0.05987 0.67867 0.0
H251 H 0.24992 0.01783 0.59939 0.0
H252 H 0.32184 0.1253 0.62609 0.0
Cu253 Cu 0.95355 0.14709 0.64688 0.0
N254 N 0.97997 0.16707 0.62633 0.0
N255 N 1.00869 0.17982 0.59504 0.0
C256 C 0.98975 0.16161 0.60615 0.0
C257 C 1.0108 0.19742 0.60888 0.0
C258 C 0.99308 0.18949 0.62817 0.0
O259 O 0.94084 0.11861 0.62945 0.0
C260 C 0.98271 0.14412 0.68796 0.0
O261 O 0.99394 0.14011 0.6688 0.0
H262 H 0.98287 0.14459 0.59961 0.0
H263 H 0.98998 0.19933 0.64256 0.0
N264 N 0.93039 0.15708 0.64612 0.0
N265 N 0.89961 0.1634 0.65645 0.0
C266 C 0.9149 0.15579 0.6652 0.0
C267 C 0.92483 0.16588 0.62474 0.0
C268 C 0.90593 0.1698 0.631 0.0
C269 C 0.91864 0.10449 0.62838 0.0
O270 O 0.90311 0.10695 0.64326 0.0
H271 H 0.9144 0.1488 0.68481 0.0
H272 H 0.93374 0.16892 0.60577 0.0
O273 O 0.96418 0.14642 0.68274 0.0
H274 H 0.0244 0.21475 0.60564 0.0
H275 H 0.89757 0.17691 0.61781 0.0
Cu276 Cu 0.87536 0.47282 0.47098 0.0
N277 N 0.85365 0.46806 0.49853 0.0
N278 N 0.83734 0.47041 0.53657 0.0
C279 C 0.85702 0.47972 0.52056 0.0
C280 C 0.82106 0.45234 0.52398 0.0
C281 C 0.83115 0.45096 0.50063 0.0
O282 O 0.90812 0.48993 0.48349 0.0
C283 C 0.84882 0.4755 0.42809 0.0
O284 O 0.83507 0.45442 0.43578 0.0
H285 H 0.87374 0.49431 0.52507 0.0
H286 H 0.82277 0.43813 0.48633 0.0
N287 N 0.87158 0.4448 0.46132 0.0
N288 N 0.86935 0.41683 0.43707 0.0
C289 C 0.87343 0.43843 0.43701 0.0
C290 C 0.86636 0.42674 0.47736 0.0
C291 C 0.86492 0.40944 0.46248 0.0
C292 C 0.92604 0.49115 0.47064 0.0
O293 O 0.92257 0.48268 0.44721 0.0
H294 H 0.87727 0.44936 0.41963 0.0
H295 H 0.86378 0.42622 0.49842 0.0
O296 O 0.86786 0.48724 0.44085 0.0
H297 H 0.80309 0.4409 0.5311 0.0
H298 H 0.86117 0.39283 0.4699 0.0
Cu299 Cu 0.53749 0.37754 0.46252 0.0
N300 N 0.51976 0.3524 0.44263 0.0
N301 N 0.50921 0.3284 0.41001 0.0
C302 C 0.52294 0.34986 0.41701 0.0
C303 C 0.49688 0.3171 0.43195 0.0
C304 C 0.50336 0.33197 0.45201 0.0
O305 O 0.56843 0.39402 0.44464 0.0
C306 C 0.55053 0.37702 0.5174 0.0
O307 O 0.56503 0.39872 0.51434 0.0
H308 H 0.536 0.36314 0.40418 0.0
H309 H 0.49733 0.32799 0.47231 0.0
N310 N 0.52202 0.39538 0.46253 0.0
N311 N 0.5121 0.42222 0.47202 0.0
C312 C 0.52503 0.41162 0.47914 0.0
C313 C 0.50657 0.39558 0.44439 0.0
C314 C 0.50042 0.41209 0.45017 0.0
C315 C 0.58297 0.41483 0.44681 0.0
O316 O 0.5788 0.42627 0.46462 0.0
H317 H 0.53709 0.41609 0.49557 0.0
H318 H 0.50055 0.38472 0.42784 0.0
O319 O 0.53855 0.36604 0.49795 0.0
H320 H 0.48449 0.29924 0.4335 0.0
H321 H 0.48833 0.4163 0.43906 0.0
Cu322 Cu 0.62631 0.13617 0.45531 0.0
N323 N 0.65561 0.14712 0.43704 0.0
N324 N 0.68509 0.16352 0.40682 0.0
C325 C 0.6621 0.15788 0.41325 0.0
C326 C 0.69324 0.15589 0.42729 0.0
C327 C 0.67506 0.14583 0.44585 0.0
O328 O 0.60411 0.14353 0.43587 0.0
C329 C 0.64746 0.16697 0.49648 0.0
O330 O 0.6584 0.18193 0.47729 0.0
H331 H 0.6502 0.16134 0.40081 0.0
H332 H 0.67597 0.13827 0.46464 0.0
N333 N 0.6122 0.10483 0.45818 0.0
N334 N 0.58716 0.06912 0.47069 0.0
C335 C 0.59301 0.09103 0.47326 0.0
C336 C 0.61876 0.09129 0.44559 0.0
C337 C 0.60338 0.06927 0.45328 0.0
C338 C 0.60891 0.16284 0.42593 0.0
O339 O 0.62983 0.18019 0.43037 0.0
H340 H 0.58373 0.09704 0.48602 0.0
H341 H 0.63359 0.09705 0.43167 0.0
O342 O 0.63233 0.14696 0.49097 0.0
H343 H 0.71125 0.1579 0.42904 0.0
H344 H 0.60391 0.05453 0.4462 0.0
Cu345 Cu 0.83107 0.54969 0.75638 0.0
N346 N 0.84817 0.53707 0.77407 0.0
N347 N 0.85945 0.51894 0.80397 0.0
C348 C 0.84609 0.52955 0.79935 0.0
C349 C 0.87055 0.52014 0.78092 0.0
C350 C 0.86367 0.53142 0.76259 0.0
O351 O 0.80173 0.54303 0.77581 0.0
C352 C 0.81851 0.51863 0.71533 0.0
O353 O 0.81233 0.50349 0.73474 0.0
H354 H 0.83418 0.53082 0.81369 0.0
H355 H 0.86889 0.53458 0.74202 0.0
N356 N 0.84952 0.58093 0.75417 0.0
N357 N 0.86183 0.61697 0.74174 0.0
C358 C 0.84594 0.59521 0.73782 0.0
C359 C 0.86829 0.59397 0.76897 0.0
C360 C 0.87595 0.6162 0.76135 0.0
C361 C 0.78782 0.52409 0.78705 0.0
O362 O 0.79199 0.50692 0.78412 0.0
H363 H 0.83192 0.5896 0.72335 0.0
H364 H 0.87563 0.58774 0.78447 0.0
O365 O 0.8257 0.53915 0.72055 0.0
H366 H 0.88247 0.513 0.77746 0.0
H367 H 0.89045 0.63063 0.77006 0.0
Cu368 Cu 0.49924 0.30458 0.75256 0.0
N369 N 0.50722 0.33079 0.77046 0.0
N370 N 0.52138 0.35621 0.80159 0.0
C371 C 0.51309 0.33437 0.79597 0.0
C372 C 0.52055 0.3667 0.77882 0.0
C373 C 0.51174 0.35095 0.75967 0.0
O374 O 0.50895 0.2865 0.77499 0.0
C375 C 0.508 0.30251 0.69768 0.0
O376 O 0.4896 0.28222 0.69962 0.0
H377 H 0.51261 0.32152 0.80974 0.0
H378 H 0.50973 0.35411 0.73907 0.0
N379 N 0.46599 0.28902 0.74828 0.0
N380 N 0.42925 0.26147 0.73979 0.0
C381 C 0.45259 0.26702 0.7435 0.0
C382 C 0.45063 0.29768 0.74793 0.0
C383 C 0.42796 0.28075 0.74272 0.0
C384 C 0.51168 0.26957 0.76933 0.0
O385 O 0.50899 0.263 0.74501 0.0
H386 H 0.45997 0.25545 0.74232 0.0
H387 H 0.4557 0.31522 0.7506 0.0
O388 O 0.51554 0.31388 0.71827 0.0
H389 H 0.52643 0.38456 0.7761 0.0
H390 H 0.412 0.28274 0.74023 0.0
Cu391 Cu 0.74173 0.20709 0.74567 0.0
N392 N 0.72177 0.20863 0.71933 0.0
N393 N 0.70298 0.20548 0.68116 0.0
C394 C 0.71664 0.19885 0.69583 0.0
C395 C 0.69936 0.21982 0.69608 0.0
C396 C 0.7109 0.22168 0.71956 0.0
O397 O 0.75778 0.19019 0.73399 0.0
C398 C 0.70184 0.18102 0.78088 0.0
O399 O 0.69057 0.1703 0.75999 0.0
H400 H 0.72345 0.18776 0.68928 0.0
H401 H 0.71177 0.23219 0.73555 0.0
N402 N 0.76537 0.23629 0.75168 0.0
N403 N 0.79169 0.26608 0.77313 0.0
C404 C 0.77544 0.24403 0.77496 0.0
C405 C 0.77548 0.25398 0.73446 0.0
C406 C 0.79173 0.27244 0.74766 0.0
C407 C 0.77502 0.18989 0.74681 0.0
O408 O 0.78035 0.19919 0.76979 0.0
H409 H 0.77061 0.23373 0.79296 0.0
H410 H 0.77124 0.25348 0.71381 0.0
O411 O 0.72375 0.19595 0.77873 0.0
H412 H 0.68915 0.22844 0.69038 0.0
H413 H 0.80286 0.28914 0.73911 0.0
Cu414 Cu 0.48464 0.20404 0.22688 0.0
N415 N 0.48981 0.18387 0.24887 0.0
N416 N 0.5049 0.17135 0.28151 0.0
C417 C 0.50708 0.18948 0.26703 0.0
C418 C 0.48544 0.15366 0.27193 0.0
C419 C 0.47613 0.16144 0.25197 0.0
O420 O 0.50007 0.23224 0.24493 0.0
C421 C 0.49359 0.18746 0.18059 0.0
O422 O 0.47819 0.16826 0.19206 0.0
H423 H 0.52041 0.20669 0.27012 0.0
H424 H 0.46014 0.15151 0.24093 0.0
N425 N 0.45154 0.19451 0.22605 0.0
N426 N 0.41487 0.18939 0.21536 0.0
C427 C 0.43776 0.19655 0.20685 0.0
C428 C 0.43687 0.18569 0.24716 0.0
C429 C 0.41435 0.18248 0.24068 0.0
C430 C 0.49219 0.24648 0.24613 0.0
O431 O 0.4744 0.24442 0.23104 0.0
H432 H 0.44456 0.20384 0.18743 0.0
H433 H 0.44239 0.18229 0.26619 0.0
O434 O 0.49857 0.2057 0.19194 0.0
H435 H 0.47824 0.1363 0.27888 0.0
H436 H 0.39876 0.17559 0.25367 0.0
Cu437 Cu 0.83977 0.27789 0.23275 0.0
N438 N 0.85806 0.3032 0.25234 0.0
N439 N 0.86925 0.32955 0.28246 0.0
C440 C 0.85283 0.30862 0.27584 0.0
C441 C 0.88542 0.33742 0.26239 0.0
C442 C 0.8784 0.32123 0.24387 0.0
O443 O 0.81152 0.25663 0.25293 0.0
C444 C 0.83047 0.30619 0.1969 0.0
O445 O 0.82944 0.31622 0.21817 0.0
H446 H 0.83679 0.29784 0.28725 0.0
H447 H 0.88708 0.32278 0.22505 0.0
N448 N 0.85818 0.26351 0.2254 0.0
N449 N 0.86868 0.23804 0.21192 0.0
C450 C 0.85028 0.24219 0.21786 0.0
C451 C 0.88232 0.27301 0.2244 0.0
C452 C 0.88883 0.25739 0.216 0.0
C453 C 0.79475 0.26046 0.26104 0.0
O454 O 0.79515 0.27967 0.2544 0.0
H455 H 0.83149 0.23027 0.21574 0.0
H456 H 0.89441 0.29024 0.22888 0.0
O457 O 0.83286 0.28842 0.19922 0.0
H458 H 0.90107 0.35383 0.26092 0.0
H459 H 0.90699 0.26011 0.21284 0.0
Cu460 Cu 0.74704 0.53319 0.24814 0.0
N461 N 0.71839 0.5234 0.26704 0.0
N462 N 0.68908 0.50547 0.29693 0.0
C463 C 0.7126 0.51325 0.29118 0.0
C464 C 0.67979 0.51101 0.27574 0.0
C465 C 0.69795 0.52214 0.25738 0.0
O466 O 0.76705 0.52286 0.26769 0.0
C467 C 0.73645 0.53185 0.1935 0.0
O468 O 0.74296 0.55329 0.19586 0.0
H469 H 0.725 0.51048 0.30361 0.0
H470 H 0.6962 0.52806 0.23786 0.0
N471 N 0.76277 0.56471 0.24532 0.0
N472 N 0.78912 0.60025 0.23368 0.0
C473 C 0.78338 0.57827 0.23216 0.0
C474 C 0.75531 0.57852 0.25567 0.0
C475 C 0.77152 0.60043 0.24857 0.0
C476 C 0.77912 0.53409 0.28704 0.0
O477 O 0.77844 0.55269 0.29259 0.0
H478 H 0.79377 0.57207 0.22153 0.0
H479 H 0.73904 0.57299 0.26728 0.0
O480 O 0.73778 0.5203 0.21328 0.0
H481 H 0.66109 0.5068 0.27347 0.0
H482 H 0.77003 0.61527 0.25337 0.0
Cu483 Cu 0.55237 0.14392 0.96488 0.0
N484 N 0.53415 0.15486 0.94643 0.0
N485 N 0.52261 0.17342 0.91743 0.0
C486 C 0.53945 0.16703 0.92353 0.0
C487 C 0.5061 0.1648 0.93711 0.0
C488 C 0.51323 0.15332 0.95489 0.0
O489 O 0.58045 0.14916 0.94387 0.0
C490 C 0.55845 0.17438 1.0057 0.0
O491 O 0.55893 0.18818 0.98652 0.0
H492 H 0.5557 0.1718 0.9121 0.0
H493 H 0.50413 0.14487 0.97309 0.0
N494 N 0.53419 0.11277 0.96952 0.0
N495 N 0.52297 0.07728 0.98348 0.0
C496 C 0.53957 0.09915 0.985 0.0
C497 C 0.51352 0.09915 0.95782 0.0
C498 C 0.50654 0.07726 0.96638 0.0
C499 C 0.59775 0.16805 0.93633 0.0
O500 O 0.59883 0.18672 0.94479 0.0
H501 H 0.55561 0.1052 0.99669 0.0
H502 H 0.50424 0.10475 0.94394 0.0
O503 O 0.55816 0.15593 1.00011 0.0
H504 H 0.4901 0.16681 0.93864 0.0
H505 H 0.49051 0.06252 0.96057 0.0
Cu506 Cu 0.89941 0.40569 0.97504 0.0
N507 N 0.89702 0.38278 0.95383 0.0
N508 N 0.88487 0.35739 0.92262 0.0
C509 C 0.88304 0.37484 0.9327 0.0
C510 C 0.90065 0.35434 0.93802 0.0
C511 C 0.90811 0.37004 0.95723 0.0
O512 O 0.8819 0.41941 0.95735 0.0
C513 C 0.87792 0.3981 0.02736 0.0
O514 O 0.87796 0.41759 0.02431 0.0
H515 H 0.8713 0.38135 0.92537 0.0
H516 H 0.92057 0.37194 0.97278 0.0
N517 N 0.93192 0.42662 0.9768 0.0
N518 N 0.96733 0.45445 0.9887 0.0
C519 C 0.94377 0.44179 0.99514 0.0
C520 C 0.94846 0.42981 0.95823 0.0
C521 C 0.97025 0.44687 0.96549 0.0
C522 C 0.88682 0.43999 0.9586 0.0
O523 O 0.90288 0.4528 0.97536 0.0
H524 H 0.93525 0.44352 1.01273 0.0
H525 H 0.94478 0.42054 0.94041 0.0
O526 O 0.88624 0.3912 1.00911 0.0
H527 H 0.90645 0.34171 0.93557 0.0
H528 H 0.98681 0.45356 0.95412 0.0
Cu529 Cu 0.62109 0.48148 0.98394 0.0
N530 N 0.64623 0.50181 0.96199 0.0
N531 N 0.67402 0.5148 0.92968 0.0
C532 C 0.65589 0.49643 0.94162 0.0
C533 C 0.67568 0.53243 0.94313 0.0
C534 C 0.65853 0.52435 0.96304 0.0
O535 O 0.60835 0.45309 0.96631 0.0
C536 C 0.65491 0.48317 1.02125 0.0
O537 O 0.66707 0.48419 0.99987 0.0
H538 H 0.64961 0.47931 0.93568 0.0
H539 H 0.65536 0.53417 0.9774 0.0
N540 N 0.59746 0.49088 0.9846 0.0
N541 N 0.56611 0.49619 0.99535 0.0
C542 C 0.58156 0.48863 1.00372 0.0
C543 C 0.59198 0.50025 0.96369 0.0
C544 C 0.57276 0.50356 0.97021 0.0
C545 C 0.58624 0.43865 0.96571 0.0
O546 O 0.5708 0.44063 0.98127 0.0
H547 H 0.58086 0.48099 1.02298 0.0
H548 H 0.60115 0.50406 0.94481 0.0
O549 O 0.6337 0.4808 1.01901 0.0
H550 H 0.68867 0.54989 0.93928 0.0
H551 H 0.56438 0.51091 0.95738 0.0
Cu552 Cu 0.54473 0.80897 0.79381 0.0
N553 N 0.52409 0.80944 0.81978 0.0
N554 N 0.51022 0.81646 0.85687 0.0
C555 C 0.52992 0.8199 0.84279 0.0
C556 C 0.49135 0.80333 0.84201 0.0
C557 C 0.49996 0.79906 0.8192 0.0
O558 O 0.57785 0.82523 0.80527 0.0
C559 C 0.53299 0.83586 0.75771 0.0
O560 O 0.53421 0.84774 0.77814 0.0
H561 H 0.54825 0.82957 0.84915 0.0
H562 H 0.4894 0.78913 0.80321 0.0
N563 N 0.5378 0.77929 0.7889 0.0
N564 N 0.53396 0.74897 0.76849 0.0
C565 C 0.54111 0.77128 0.76632 0.0
C566 C 0.52818 0.76151 0.80605 0.0
C567 C 0.52573 0.74271 0.79347 0.0
C568 C 0.59544 0.82616 0.79204 0.0
O569 O 0.59158 0.81783 0.76852 0.0
H570 H 0.54819 0.78159 0.74849 0.0
H571 H 0.5232 0.76218 0.8262 0.0
O572 O 0.53831 0.81986 0.76036 0.0
H573 H 0.47263 0.79748 0.84702 0.0
H574 H 0.51865 0.72585 0.80211 0.0
Cu575 Cu 0.20767 0.71474 0.80092 0.0
N576 N 0.19163 0.68954 0.78055 0.0
N577 N 0.18217 0.66529 0.74831 0.0
C578 C 0.19463 0.68705 0.75484 0.0
C579 C 0.1708 0.65378 0.77058 0.0
C580 C 0.17661 0.66879 0.79036 0.0
O581 O 0.2367 0.73684 0.78281 0.0
C582 C 0.21872 0.71541 0.85551 0.0
O583 O 0.2231 0.73651 0.8537 0.0
H584 H 0.20668 0.70061 0.7416 0.0
H585 H 0.17108 0.66476 0.8108 0.0
N586 N 0.18836 0.72845 0.8062 0.0
N587 N 0.17798 0.75473 0.81678 0.0
C588 C 0.19625 0.74997 0.81265 0.0
C589 C 0.16426 0.71923 0.80589 0.0
C590 C 0.15779 0.73544 0.81236 0.0
C591 C 0.25209 0.73256 0.77173 0.0
O592 O 0.24973 0.71211 0.77393 0.0
H593 H 0.21508 0.76183 0.81454 0.0
H594 H 0.15226 0.70183 0.80184 0.0
O595 O 0.21337 0.70395 0.8349 0.0
H596 H 0.15957 0.63572 0.77251 0.0
H597 H 0.13963 0.73297 0.81453 0.0
Cu598 Cu 0.29269 0.46598 0.79315 0.0
N599 N 0.32087 0.47683 0.77293 0.0
N600 N 0.34918 0.49445 0.74188 0.0
C601 C 0.3255 0.48524 0.74791 0.0
C602 C 0.35968 0.49151 0.7637 0.0
C603 C 0.34219 0.48058 0.78275 0.0
O604 O 0.26941 0.47267 0.7751 0.0
C605 C 0.28929 0.4791 0.84606 0.0
O606 O 0.26597 0.47021 0.84286 0.0
H607 H 0.31213 0.48573 0.73493 0.0
H608 H 0.34491 0.47647 0.80278 0.0
N609 N 0.27944 0.43479 0.79786 0.0
N610 N 0.25543 0.39918 0.81174 0.0
C611 C 0.26015 0.42094 0.81279 0.0
C612 C 0.28721 0.42144 0.78692 0.0
C613 C 0.27248 0.3995 0.79543 0.0
C614 C 0.27424 0.49194 0.76504 0.0
O615 O 0.29549 0.5091 0.76877 0.0
H616 H 0.24998 0.42679 0.82438 0.0
H617 H 0.30247 0.42727 0.77359 0.0
O618 O 0.30263 0.47939 0.8272 0.0
H619 H 0.37876 0.49737 0.7659 0.0
H620 H 0.27404 0.38491 0.78966 0.0
Cu621 Cu 0.49286 0.87495 0.08692 0.0
N622 N 0.50986 0.86239 0.10499 0.0
N623 N 0.52111 0.84501 0.13592 0.0
C624 C 0.50887 0.85664 0.13081 0.0
C625 C 0.53033 0.84367 0.11259 0.0
C626 C 0.52341 0.8544 0.09362 0.0
O627 O 0.4629 0.86706 0.10551 0.0
C628 C 0.50609 0.87375 0.03499 0.0
O629 O 0.52634 0.89011 0.04318 0.0
H630 H 0.49831 0.85976 0.14525 0.0
H631 H 0.52719 0.85546 0.07278 0.0
N632 N 0.51027 0.90633 0.08557 0.0
N633 N 0.5212 0.94217 0.07356 0.0
C634 C 0.50516 0.92033 0.07053 0.0
C635 C 0.53017 0.91965 0.0987 0.0
C636 C 0.53696 0.94179 0.09135 0.0
C637 C 0.44949 0.84792 0.11659 0.0
O638 O 0.45467 0.83134 0.11386 0.0
H639 H 0.48983 0.91449 0.05775 0.0
H640 H 0.53918 0.91366 0.11247 0.0
O641 O 0.48823 0.86453 0.05098 0.0
H642 H 0.54085 0.83505 0.10938 0.0
H643 H 0.55254 0.9564 0.09824 0.0
Cu644 Cu 0.16591 0.63352 0.08795 0.0
N645 N 0.1703 0.65675 0.10985 0.0
N646 N 0.18204 0.67989 0.14348 0.0
C647 C 0.18318 0.66258 0.13203 0.0
C648 C 0.16791 0.68509 0.12777 0.0
C649 C 0.16073 0.67082 0.10707 0.0
O650 O 0.1826 0.61851 0.1044 0.0
C651 C 0.18119 0.637 0.03381 0.0
O652 O 0.17576 0.61566 0.03661 0.0
H653 H 0.19285 0.65403 0.1398 0.0
H654 H 0.14926 0.67061 0.09114 0.0
N655 N 0.13297 0.61359 0.08712 0.0
N656 N 0.097 0.58588 0.0764 0.0
C657 C 0.12052 0.59794 0.06949 0.0
C658 C 0.11683 0.61141 0.10572 0.0
C659 C 0.09468 0.59442 0.09918 0.0
C660 C 0.17715 0.5979 0.10223 0.0
O661 O 0.16077 0.58574 0.08539 0.0
H662 H 0.12859 0.59536 0.0521 0.0
H663 H 0.12101 0.62123 0.12315 0.0
O664 O 0.17848 0.64703 0.05324 0.0
H665 H 0.16332 0.69846 0.13079 0.0
H666 H 0.07832 0.58837 0.1108 0.0
Cu667 Cu 0.40711 0.5385 0.08311 0.0
N668 N 0.38739 0.5402 0.05647 0.0
N669 N 0.36542 0.53386 1.02012 0.0
C670 C 0.38058 0.52871 0.03414 0.0
C671 C 0.36277 0.54922 0.03413 0.0
C672 C 0.37634 0.55311 0.05642 0.0
O673 O 0.42333 0.52186 0.0711 0.0
C674 C 0.38152 0.53754 0.12851 0.0
O675 O 0.38906 0.55863 0.12071 0.0
H676 H 0.38626 0.51654 0.02857 0.0
H677 H 0.37802 0.56459 0.07158 0.0
N678 N 0.43091 0.56756 0.09008 0.0
N679 N 0.45786 0.59682 0.11188 0.0
C680 C 0.44228 0.57456 0.11298 0.0
C681 C 0.43969 0.58593 0.07381 0.0
C682 C 0.45628 0.60403 0.08721 0.0
C683 C 0.43965 0.5204 0.08455 0.0
O684 O 0.44392 0.52835 0.10827 0.0
H685 H 0.43853 0.56363 0.13036 0.0
H686 H 0.43418 0.58616 0.05371 0.0
O687 O 0.38736 0.5252 0.11496 0.0
H688 H 0.35202 0.55731 0.02853 0.0
H689 H 0.46638 0.62114 0.07935 0.0
Cu690 Cu 0.14868 0.53644 0.56995 0.0
N691 N 0.15492 0.51641 0.59073 0.0
N692 N 0.17049 0.50332 0.62222 0.0
C693 C 0.17008 0.52168 0.61109 0.0
C694 C 0.15492 0.48585 0.6082 0.0
C695 C 0.14538 0.49399 0.58881 0.0
O696 O 0.16583 0.56539 0.58611 0.0
C697 C 0.17939 0.53851 0.52787 0.0
O698 O 0.19548 0.54329 0.54632 0.0
H699 H 0.18037 0.53865 0.61773 0.0
H700 H 0.13245 0.48428 0.57428 0.0
N701 N 0.11569 0.52728 0.57153 0.0
N702 N 0.07843 0.52087 0.56156 0.0
C703 C 0.10109 0.52786 0.55241 0.0
C704 C 0.10184 0.51961 0.59338 0.0
C705 C 0.07893 0.51563 0.58733 0.0
C706 C 0.1587 0.58021 0.58639 0.0
O707 O 0.14054 0.57783 0.57175 0.0
H708 H 0.10713 0.53379 0.53241 0.0
H709 H 0.1081 0.51726 0.61246 0.0
O710 O 0.15866 0.53604 0.53388 0.0
H711 H 0.15094 0.46846 0.61139 0.0
H712 H 0.06377 0.50919 0.6009 0.0
Cu713 Cu 0.50029 0.60537 0.57041 0.0
N714 N 0.52077 0.62827 0.59173 0.0
N715 N 0.53389 0.65359 0.62302 0.0
C716 C 0.51463 0.6362 0.61271 0.0
C717 C 0.55282 0.6566 0.6079 0.0
C718 C 0.54466 0.64096 0.58863 0.0
O719 O 0.46886 0.5921 0.58756 0.0
C720 C 0.48676 0.61361 0.5181 0.0
O721 O 0.46641 0.59496 0.52152 0.0
H722 H 0.49631 0.62973 0.61977 0.0
H723 H 0.55531 0.63905 0.57327 0.0
N724 N 0.51144 0.58412 0.56939 0.0
N725 N 0.51708 0.55478 0.55948 0.0
C726 C 0.50641 0.56754 0.55249 0.0
C727 C 0.52585 0.5819 0.58744 0.0
C728 C 0.5294 0.56393 0.5814 0.0
C729 C 0.45244 0.57189 0.58551 0.0
O730 O 0.45496 0.55914 0.56816 0.0
H731 H 0.49462 0.56451 0.53594 0.0
H732 H 0.53303 0.59248 0.6041 0.0
O733 O 0.50231 0.61978 0.53611 0.0
H734 H 0.57128 0.66917 0.61058 0.0
H735 H 0.54029 0.55812 0.59236 0.0
Cu736 Cu 0.41444 0.86899 0.57892 0.0
N737 N 0.38623 0.8578 0.59919 0.0
N738 N 0.35805 0.83933 0.63024 0.0
C739 C 0.37999 0.84396 0.62082 0.0
C740 C 0.35027 0.85066 0.61386 0.0
C741 C 0.36763 0.86195 0.59472 0.0
O742 O 0.43829 0.86387 0.59806 0.0
C743 C 0.38838 0.83878 0.53839 0.0
O744 O 0.37517 0.82514 0.55771 0.0
H745 H 0.39137 0.83761 0.62959 0.0
H746 H 0.36677 0.8724 0.57855 0.0
N747 N 0.42738 0.9002 0.57467 0.0
N748 N 0.45167 0.93575 0.56085 0.0
C749 C 0.44601 0.91384 0.5588 0.0
C750 C 0.42102 0.91386 0.58728 0.0
C751 C 0.4359 0.93578 0.57875 0.0
C752 C 0.43738 0.84504 0.60444 0.0
O753 O 0.41979 0.8264 0.59584 0.0
H754 H 0.45517 0.90771 0.54602 0.0
H755 H 0.40682 0.90832 0.60196 0.0
O756 O 0.40688 0.85709 0.54374 0.0
H757 H 0.33305 0.85047 0.61527 0.0
H758 H 0.4355 0.9506 0.58575 0.0
Cu759 Cu 0.22193 0.48203 0.30545 0.0
N760 N 0.20477 0.49316 0.28522 0.0
N761 N 0.19571 0.51173 0.25376 0.0
C762 C 0.21015 0.50276 0.26077 0.0
C763 C 0.18065 0.50755 0.27437 0.0
C764 C 0.18621 0.49603 0.29368 0.0
O765 O 0.25277 0.49135 0.28752 0.0
C766 C 0.20562 0.4844 0.35547 0.0
O767 O 0.1867 0.46669 0.34707 0.0
H768 H 0.22513 0.50425 0.24898 0.0
H769 H 0.17788 0.49097 0.31296 0.0
N770 N 0.205 0.45058 0.30788 0.0
N771 N 0.19478 0.41481 0.31934 0.0
C772 C 0.21105 0.43667 0.32182 0.0
C773 C 0.18422 0.43718 0.29622 0.0
C774 C 0.17788 0.4151 0.30321 0.0
C775 C 0.25347 0.47977 0.26852 0.0
O776 O 0.23378 0.46168 0.26248 0.0
H777 H 0.22721 0.44253 0.33328 0.0
H778 H 0.17436 0.44309 0.2836 0.0
O779 O 0.2244 0.49371 0.34075 0.0
H780 H 0.167 0.51295 0.27559 0.0
H781 H 0.16184 0.40047 0.2972 0.0
Cu782 Cu 0.56408 0.73812 0.31285 0.0
N783 N 0.56095 0.71405 0.29325 0.0
N784 N 0.54886 0.68836 0.26235 0.0
C785 C 0.54805 0.70666 0.27132 0.0
C786 C 0.56287 0.68417 0.27938 0.0
C787 C 0.57031 0.70006 0.29841 0.0
O788 O 0.54737 0.75188 0.29362 0.0
C789 C 0.53047 0.70846 0.35031 0.0
O790 O 0.51791 0.69978 0.32923 0.0
H791 H 0.5378 0.71425 0.26255 0.0
H792 H 0.5816 0.70128 0.31494 0.0
N793 N 0.59676 0.75853 0.31466 0.0
N794 N 0.6322 0.78625 0.32664 0.0
C795 C 0.60835 0.77463 0.33213 0.0
C796 C 0.61375 0.76004 0.29763 0.0
C797 C 0.63558 0.77704 0.30494 0.0
C798 C 0.55216 0.77245 0.29422 0.0
O799 O 0.56796 0.78563 0.31095 0.0
H800 H 0.59949 0.77769 0.34849 0.0
H801 H 0.61042 0.74959 0.28086 0.0
O802 O 0.55066 0.72616 0.34772 0.0
H803 H 0.56755 0.67068 0.27816 0.0
H804 H 0.65253 0.78255 0.29465 0.0
Cu805 Cu 0.28696 0.81494 0.31652 0.0
N806 N 0.3126 0.83267 0.29328 0.0
N807 N 0.33925 0.84368 0.25985 0.0
C808 C 0.32109 0.82605 0.27288 0.0
C809 C 0.34223 0.86205 0.27256 0.0
C810 C 0.32583 0.85524 0.29304 0.0
O811 O 0.26679 0.78655 0.30032 0.0
C812 C 0.31156 0.82962 0.36337 0.0
O813 O 0.31333 0.8487 0.35372 0.0
H814 H 0.31375 0.80876 0.26725 0.0
H815 H 0.32345 0.86611 0.30652 0.0
N816 N 0.26764 0.82904 0.31981 0.0
N817 N 0.23739 0.83582 0.33094 0.0
C818 C 0.24969 0.82444 0.33729 0.0
C819 C 0.26664 0.84381 0.30199 0.0
C820 C 0.24811 0.84806 0.30881 0.0
C821 C 0.27287 0.77184 0.29381 0.0
O822 O 0.294 0.77412 0.30056 0.0
H823 H 0.24502 0.81221 0.35352 0.0
H824 H 0.27799 0.85034 0.2846 0.0
O825 O 0.29976 0.81181 0.35064 0.0
H826 H 0.35544 0.87924 0.26757 0.0
H827 H 0.24269 0.85906 0.29805 0.0
H828 H 0.17435 0.07001 0.06557 0.0
H829 H 0.23791 0.01538 0.98114 0.0
H830 H 0.23604 0.0642 0.09292 0.0
H831 H 0.1626 0.99566 0.97353 0.0
H832 H 0.23934 0.03696 1.01948 0.0
H833 H 0.17133 0.04626 0.0287 0.0
C834 C 0.18723 0.06372 0.06377 0.0
C835 C 0.20543 0.06898 0.08229 0.0
C836 C 0.22246 0.0278 1.00951 0.0
C837 C 0.20224 0.04212 0.04028 0.0
C838 C 0.22169 0.01561 0.98762 0.0
C839 C 0.20012 1.00377 0.97426 0.0
C840 C 0.20162 0.02851 1.01778 0.0
C841 C 0.17951 1.00442 0.9835 0.0
C842 C 0.18542 0.0501 0.04289 0.0
C843 C 0.22159 0.06032 0.07922 0.0
N844 N 0.18081 0.01681 1.00457 0.0
N845 N 0.21976 0.04748 0.05849 0.0
H846 H 0.96061 0.12923 0.11397 0.0
H847 H 0.99507 0.11923 0.96779 0.0
H848 H 0.9372 0.0656 0.07717 0.0
H849 H 0.03734 0.17857 1.0112 0.0
H850 H 0.97416 0.0994 1.00839 0.0
H851 H 0.98975 0.14783 0.07791 0.0
C852 C 0.96185 0.1191 0.09858 0.0
C853 C 0.94619 0.09583 0.09847 0.0
C854 C 0.98817 0.11668 1.00922 0.0
C855 C 0.97925 0.11708 0.05703 0.0
C856 C 0.99997 0.12801 0.98603 0.0
C857 C 1.01771 0.15057 0.98624 0.0
C858 C 0.99376 0.12811 0.03285 0.0
C859 C 0.02371 0.16116 1.01037 0.0
C860 C 0.9785 0.12975 0.07801 0.0
C861 C 0.94873 0.08358 0.07804 0.0
N862 N 1.01146 0.14994 0.03274 0.0
N863 N 0.96463 0.0944 0.05799 0.0
H864 H 0.82682 0.8026 0.98926 0.0
H865 H 0.94691 0.86795 0.07171 0.0
H866 H 0.87854 0.8721 0.97279 0.0
H867 H 0.89662 0.79743 0.08406 0.0
H868 H 0.92057 0.87092 0.03812 0.0
H869 H 0.85072 0.80149 0.02637 0.0
C870 C 0.84324 0.81764 0.99336 0.0
C871 C 0.85075 0.83741 0.97758 0.0
C872 C 0.91524 0.85484 0.04832 0.0
C873 C 0.87825 0.83631 1.02049 0.0
C874 C 0.93023 0.85314 0.06758 0.0
C875 C 0.92406 0.83237 0.08067 0.0
C876 C 0.89388 0.83565 0.0421 0.0
C877 C 0.90222 0.81377 0.07442 0.0
C878 C 0.85684 0.81703 1.01472 0.0
C879 C 0.87196 0.85652 0.9844 0.0
N880 N 0.88802 0.81583 0.05554 0.0
N881 N 0.88503 0.85545 1.00522 0.0
H882 H 1.01562 0.14527 0.57821 0.0
H883 H 0.11028 0.22088 0.46514 0.0
H884 H 0.03613 0.2154 0.56181 0.0
H885 H 0.09028 0.15095 0.48222 0.0
H886 H 0.0816 0.21865 0.49882 0.0
H887 H 0.04126 0.14655 0.54171 0.0
C888 C 0.02533 0.16092 0.56687 0.0
C889 C 0.02364 0.18028 0.57326 0.0
C890 C 0.08338 0.20376 0.49512 0.0
C891 C 0.05339 0.18189 0.53138 0.0
C892 C 0.09973 0.20499 0.47581 0.0
C893 C 0.1028 0.18609 0.47086 0.0
C894 C 0.06997 0.18348 0.50968 0.0
C895 C 0.08859 0.16597 0.48536 0.0
C896 C 0.04012 0.16165 0.54605 0.0
C897 C 0.03706 0.20013 0.55795 0.0
N898 N 0.07291 0.16524 0.50416 0.0
N899 N 0.05135 0.20042 0.53779 0.0
H900 H 0.85779 0.90163 0.4321 0.0
H901 H 0.83502 0.8695 0.58577 0.0
H902 H 0.83647 0.93672 0.48695 0.0
H903 H 0.87635 0.84801 0.53809 0.0
H904 H 0.83223 0.89158 0.54817 0.0
H905 H 0.86206 0.87943 0.46921 0.0
C906 C 0.85407 0.90471 0.45187 0.0
C907 C 0.84673 0.92106 0.45636 0.0
C908 C 0.84196 0.88207 0.54587 0.0
C909 C 0.85136 0.89566 0.49872 0.0
C910 C 0.84339 0.86933 0.56731 0.0
C911 C 0.85587 0.85684 0.56505 0.0
C912 C 0.85285 0.88222 0.52177 0.0
C913 C 0.86672 0.85754 0.5407 0.0
C914 C 0.85655 0.89208 0.47301 0.0
C915 C 0.84217 0.92434 0.48243 0.0
N916 N 0.86485 0.86993 0.51992 0.0
N917 N 0.84443 0.9117 0.50251 0.0
H918 H 0.10945 0.93633 0.49269 0.0
H919 H 0.23854 0.01198 0.55371 0.0
H920 H 0.17618 0.95566 0.45104 0.0
H921 H 0.17352 0.00903 0.58479 0.0
H922 H 0.21545 0.988 0.51822 0.0
H923 H 0.13213 0.95969 0.52901 0.0
C924 C 0.12886 0.94543 0.49124 0.0
C925 C 0.14095 0.94415 0.46878 0.0
C926 C 0.20622 0.99261 0.53279 0.0
C927 C 0.16697 0.97078 0.51015 0.0
C928 C 0.21937 1.00617 0.55314 0.0
C929 C 0.20793 0.01252 0.5722 0.0
C930 C 0.18137 0.98511 0.53163 0.0
C931 C 0.18307 1.00473 0.57033 0.0
C932 C 0.14177 0.95884 0.51187 0.0
C933 C 0.16612 0.95642 0.46781 0.0
N934 N 0.17059 0.99135 0.55045 0.0
N935 N 0.17829 0.96913 0.48823 0.0
H936 H 0.88691 1.00098 0.05319 0.0
H937 H 0.80864 0.92075 0.93923 0.0
H938 H 0.812 0.98118 0.04078 0.0
H939 H 0.88323 0.9389 0.95125 0.0
H940 H 0.81077 0.94544 0.97418 0.0
H941 H 0.88707 0.98092 1.01405 0.0
C942 C 0.87054 0.9926 0.04217 0.0
C943 C 0.84934 0.99267 0.05053 0.0
C944 C 0.82675 0.94419 0.9691 0.0
C945 C 0.84939 0.9695 1.0057 0.0
C946 C 0.82557 0.9301 0.94904 0.0
C947 C 0.84576 0.9276 0.94232 0.0
C948 C 0.84825 0.95588 0.98277 0.0
C949 C 0.8672 0.94026 0.95574 0.0
C950 C 0.87063 0.98105 1.01986 0.0
C951 C 0.82865 0.98129 0.03548 0.0
N952 N 0.86783 0.9537 0.97545 0.0
N953 N 0.82919 0.97016 1.01393 0.0
H954 H 1.01112 0.86314 0.04872 0.0
H955 H 0.11609 0.88532 0.94504 0.0
H956 H 0.05052 0.8253 0.04832 0.0
H957 H 0.08663 0.93118 0.9535 0.0
H958 H 0.08825 0.86044 0.97909 0.0
H959 H 0.03477 0.88553 1.01029 0.0
C960 C 0.02457 0.85939 0.0404 0.0
C961 C 0.02896 0.84241 0.05187 0.0
C962 C 0.08776 0.87589 0.97344 0.0
C963 C 0.05611 0.86798 1.008 0.0
C964 C 0.10364 0.89011 0.95389 0.0
C965 C 0.10387 0.91051 0.94647 0.0
C966 C 0.07187 0.88199 0.98573 0.0
C967 C 0.08718 0.91569 0.95865 0.0
C968 C 0.03815 0.87226 1.01857 0.0
C969 C 0.04678 0.83844 0.04041 0.0
N970 N 0.07194 0.90158 0.97777 0.0
N971 N 0.05968 0.85112 1.01917 0.0
H972 H 0.14981 0.19507 0.94383 0.0
H973 H 0.15719 0.13749 0.08087 0.0
H974 H 0.09085 0.13477 0.97768 0.0
H975 H 0.2207 0.18182 0.0354 0.0
H976 H 0.13238 0.13913 0.04485 0.0
H977 H 0.17599 0.19282 0.97826 0.0
C978 C 0.14241 0.18125 0.95832 0.0
C979 C 0.11805 0.16507 0.95779 0.0
C980 C 0.15174 0.1485 0.04271 0.0
C981 C 0.14782 0.16267 0.99753 0.0
C982 C 0.16596 0.1477 0.06338 0.0
C983 C 0.19113 0.15956 0.06124 0.0
C984 C 0.16266 0.16148 1.01973 0.0
C985 C 0.20138 0.17238 0.03793 0.0
C986 C 0.15736 0.18 0.97798 0.0
C987 C 0.10949 0.14757 0.97717 0.0
N988 N 0.18712 0.17309 1.01814 0.0
N989 N 0.12426 0.14697 0.99633 0.0
H990 H 0.97378 0.81265 0.61489 0.0
H991 H 1.0165 0.86249 0.46817 0.0
H992 H 0.94445 0.84966 0.57055 0.0
H993 H 0.05492 0.83728 0.51768 0.0
H994 H 0.98869 0.85613 0.50474 0.0
H995 H 1.00281 0.82032 0.57916 0.0
C996 C 0.97355 0.82255 0.59776 0.0
C997 C 0.9566 0.83051 0.59579 0.0
C998 C 1.0032 0.85198 0.50762 0.0
C999 C 0.98965 0.83909 0.55456 0.0
C1000 C 1.01904 0.8555 0.48668 0.0
C1001 C 0.03812 0.85039 0.48978 0.0
C1002 C 1.00628 0.84313 0.53189 0.0
C1003 C 0.04051 0.84148 0.51433 0.0
C1004 C 0.99013 0.82689 0.57732 0.0
C1005 C 0.9572 0.84322 0.57303 0.0
N1006 N 0.02477 0.83809 0.53438 0.0
N1007 N 0.9733 0.84697 0.55327 0.0
H1008 H 0.19478 0.14315 0.47375 0.0
H1009 H 0.22513 0.15103 0.62501 0.0
H1010 H 0.1932 0.19504 0.51963 0.0
H1011 H 0.19679 0.08874 0.58422 0.0
H1012 H 0.21503 0.16846 0.5872 0.0
H1013 H 0.19771 0.12399 0.51418 0.0
C1014 C 0.19509 0.1505 0.49242 0.0
C1015 C 0.19395 0.17076 0.49342 0.0
C1016 C 0.21074 0.1509 0.58676 0.0
C1017 C 0.19736 0.149 0.53982 0.0
C1018 C 0.2165 0.14093 0.60831 0.0
C1019 C 0.212 0.11843 0.60773 0.0
C1020 C 0.20082 0.13837 0.56436 0.0
C1021 C 0.20072 0.10615 0.58556 0.0
C1022 C 0.19656 0.13949 0.5155 0.0
C1023 C 0.19402 0.17941 0.51813 0.0
N1024 N 0.19585 0.11636 0.56465 0.0
N1025 N 0.19603 0.16863 0.54041 0.0
H1026 H 0.94402 0.10396 0.58513 0.0
H1027 H 0.83466 1.00339 0.51528 0.0
H1028 H 0.87361 0.06898 0.62177 0.0
H1029 H 0.89157 0.05959 0.47283 0.0
H1030 H 0.85169 0.02162 0.55687 0.0
H1031 H 0.92815 0.08151 0.54634 0.0
C1032 C 0.92531 0.09128 0.58526 0.0
C1033 C 0.91007 0.08848 0.60673 0.0
C1034 C 0.86042 0.02987 0.53841 0.0
C1035 C 0.89186 0.06274 0.56225 0.0
C1036 C 0.85079 0.01949 0.51479 0.0
C1037 C 0.86164 0.03014 0.49067 0.0
C1038 C 0.88136 0.05075 0.53784 0.0
C1039 C 0.88249 0.051 0.49099 0.0
C1040 C 0.91625 0.07861 0.563 0.0
C1041 C 0.88596 0.0718 0.60561 0.0
N1042 N 0.89174 0.06057 0.51418 0.0
N1043 N 0.87755 0.05958 0.58369 0.0
H1044 H 0.8471 0.31204 0.32985 0.0
H1045 H 0.89246 0.43356 0.39007 0.0
H1046 H 0.89041 0.37496 0.28712 0.0
H1047 H 0.84661 0.37127 0.43267 0.0
H1048 H 0.8921 0.41212 0.35235 0.0
H1049 H 0.8468 0.33315 0.36789 0.0
C1050 C 0.85648 0.33025 0.32838 0.0
C1051 C 0.86889 0.34167 0.30518 0.0
C1052 C 0.8821 0.40311 0.36995 0.0
C1053 C 0.86877 0.36597 0.34877 0.0
C1054 C 0.88219 0.41539 0.39151 0.0
C1055 C 0.8695 0.40428 0.41469 0.0
C1056 C 0.86922 0.37948 0.37145 0.0
C1057 C 0.85689 0.38061 0.4154 0.0
C1058 C 0.85639 0.34231 0.35017 0.0
C1059 C 0.88094 0.36534 0.30462 0.0
N1060 N 0.85705 0.36901 0.39411 0.0
N1061 N 0.88056 0.37665 0.32603 0.0
H1062 H 0.58748 0.39948 0.39927 0.0
H1063 H 0.7027 0.51126 0.34781 0.0
H1064 H 0.62128 0.45746 0.44751 0.0
H1065 H 0.64566 0.4686 0.29736 0.0
H1066 H 0.679 0.48816 0.38622 0.0
H1067 H 0.61536 0.42098 0.36337 0.0
C1068 C 0.60101 0.41661 0.4025 0.0
C1069 C 0.60192 0.42674 0.42641 0.0
C1070 C 0.67179 0.48388 0.3667 0.0
C1071 C 0.63391 0.45137 0.38531 0.0
C1072 C 0.68527 0.49694 0.34489 0.0
C1073 C 0.67593 0.49186 0.31954 0.0
C1074 C 0.64919 0.46533 0.3629 0.0
C1075 C 0.65329 0.4732 0.31664 0.0
C1076 C 0.6168 0.42889 0.38192 0.0
C1077 C 0.61984 0.44905 0.42934 0.0
N1078 N 0.64074 0.46054 0.33804 0.0
N1079 N 0.63515 0.46068 0.40899 0.0
H1080 H 0.56319 0.13117 0.41436 0.0
H1081 H 0.5502 0.20342 0.29307 0.0
H1082 H 0.61657 0.19929 0.39371 0.0
H1083 H 0.4935 0.13863 0.32016 0.0
H1084 H 0.57464 0.20242 0.32981 0.0
H1085 H 0.53729 0.13383 0.3802 0.0
C1086 C 0.56941 0.14676 0.40279 0.0
C1087 C 0.59216 0.16501 0.40692 0.0
C1088 C 0.55682 0.18845 0.32773 0.0
C1089 C 0.56259 0.16809 0.36745 0.0
C1090 C 0.54275 0.18903 0.30674 0.0
C1091 C 0.51963 0.17105 0.30325 0.0
C1092 C 0.54783 0.16972 0.34543 0.0
C1093 C 0.51126 0.15275 0.32161 0.0
C1094 C 0.5546 0.14826 0.38323 0.0
C1095 C 0.59919 0.18479 0.39128 0.0
N1096 N 0.52535 0.15255 0.34178 0.0
N1097 N 0.58455 0.18575 0.37214 0.0
H1098 H 0.68231 0.48081 0.91361 0.0
H1099 H 0.77531 0.55665 0.79942 0.0
H1100 H 0.70001 0.55007 0.89541 0.0
H1101 H 0.75711 0.48726 0.81748 0.0
H1102 H 0.74628 0.554 0.8329 0.0
H1103 H 0.70804 0.48234 0.8771 0.0
C1104 C 0.6914 0.49631 0.90186 0.0
C1105 C 0.68891 0.51536 0.90778 0.0
C1106 C 0.74853 0.53931 0.82945 0.0
C1107 C 0.7188 0.51728 0.86588 0.0
C1108 C 0.76509 0.54079 0.81026 0.0
C1109 C 0.76878 0.52217 0.80565 0.0
C1110 C 0.73554 0.51908 0.84424 0.0
C1111 C 0.75495 0.50207 0.82035 0.0
C1112 C 0.70625 0.4972 0.88103 0.0
C1113 C 0.70157 0.53505 0.89194 0.0
N1114 N 0.73906 0.5011 0.83904 0.0
N1115 N 0.71597 0.5355 0.8718 0.0
H1116 H 0.51227 0.27599 0.82199 0.0
H1117 H 0.53958 0.17558 0.86778 0.0
H1118 H 0.52058 0.23326 0.76606 0.0
H1119 H 0.50631 0.20406 0.91734 0.0
H1120 H 0.53882 0.1998 0.83076 0.0
H1121 H 0.51657 0.25322 0.85768 0.0
C1122 C 0.51514 0.26188 0.81714 0.0
C1123 C 0.5159 0.25647 0.79089 0.0
C1124 C 0.5317 0.20069 0.84977 0.0
C1125 C 0.52088 0.23023 0.83197 0.0
C1126 C 0.53225 0.187 0.87087 0.0
C1127 C 0.52284 0.18773 0.89558 0.0
C1128 C 0.5221 0.21547 0.85364 0.0
C1129 C 0.51342 0.20272 0.89855 0.0
C1130 C 0.51751 0.24882 0.83761 0.0
C1131 C 0.51975 0.23798 0.78599 0.0
N1132 N 0.51338 0.21602 0.8779 0.0
N1133 N 0.52209 0.22548 0.80637 0.0
H1134 H 0.87266 0.31369 0.91449 0.0
H1135 H 0.80934 0.31125 0.77721 0.0
H1136 H 0.86751 0.37092 0.88059 0.0
H1137 H 0.80644 0.25233 0.81699 0.0
H1138 H 0.83282 0.33403 0.8134 0.0
H1139 H 0.85057 0.29159 0.87744 0.0
C1140 C 0.86704 0.32168 0.89917 0.0
C1141 C 0.87199 0.34423 0.90069 0.0
C1142 C 0.82703 0.31611 0.8142 0.0
C1143 C 0.84645 0.31891 0.85819 0.0
C1144 C 0.81375 0.30312 0.79347 0.0
C1145 C 0.80583 0.27982 0.79409 0.0
C1146 C 0.83259 0.30575 0.83564 0.0
C1147 C 0.81185 0.27015 0.81584 0.0
C1148 C 0.85427 0.30899 0.87808 0.0
C1149 C 0.86388 0.35354 0.8804 0.0
N1150 N 0.82488 0.28315 0.83569 0.0
N1151 N 0.85156 0.34086 0.85997 0.0
H1152 H 0.51075 0.3466 0.3612 0.0
H1153 H 0.51774 0.24619 0.28948 0.0
H1154 H 0.5085 0.28861 0.40245 0.0
H1155 H 0.48324 0.28224 0.25321 0.0
H1156 H 0.5245 0.26823 0.32861 0.0
H1157 H 0.50984 0.32912 0.31912 0.0
C1158 C 0.51024 0.33028 0.36132 0.0
C1159 C 0.50948 0.31888 0.38521 0.0
C1160 C 0.51568 0.27147 0.31195 0.0
C1161 C 0.50893 0.29914 0.33757 0.0
C1162 C 0.51195 0.25902 0.2895 0.0
C1163 C 0.49971 0.26223 0.26804 0.0
C1164 C 0.50747 0.28752 0.31291 0.0
C1165 C 0.4926 0.2791 0.26936 0.0
C1166 C 0.50965 0.32033 0.33744 0.0
C1167 C 0.50877 0.29777 0.38444 0.0
N1168 N 0.49652 0.2911 0.29148 0.0
N1169 N 0.50864 0.28863 0.36103 0.0
H1170 H 0.79099 0.22082 0.28189 0.0
H1171 H 0.67917 0.19495 0.37714 0.0
H1172 H 0.7566 0.26314 0.28355 0.0
H1173 H 0.72207 0.16056 0.38349 0.0
H1174 H 0.70403 0.2173 0.33937 0.0
H1175 H 0.76258 0.19584 0.31554 0.0
C1176 C 0.77736 0.22481 0.28917 0.0
C1177 C 0.77632 0.24424 0.27993 0.0
C1178 C 0.70793 0.2048 0.34899 0.0
C1179 C 0.74365 0.21561 0.31868 0.0
C1180 C 0.69365 0.19193 0.37044 0.0
C1181 C 0.69862 0.17594 0.38363 0.0
C1182 C 0.72722 0.20152 0.3405 0.0
C1183 C 0.7178 0.17292 0.37422 0.0
C1184 C 0.76115 0.21053 0.30848 0.0
C1185 C 0.75817 0.24842 0.29014 0.0
N1186 N 0.73137 0.18558 0.3533 0.0
N1187 N 0.74261 0.23428 0.30902 0.0
H1188 H 0.86584 0.52008 0.41214 0.0
H1189 H 0.77567 0.49173 0.29082 0.0
H1190 H 0.81527 0.45257 0.39155 0.0
H1191 H 0.81248 0.55746 0.32368 0.0
H1192 H 0.795 0.47788 0.32319 0.0
H1193 H 0.85128 0.53484 0.37545 0.0
C1194 C 0.85184 0.50837 0.39982 0.0
C1195 C 0.84163 0.48506 0.4051 0.0
C1196 C 0.79896 0.49538 0.32318 0.0
C1197 C 0.82499 0.5018 0.36304 0.0
C1198 C 0.78801 0.50331 0.30461 0.0
C1199 C 0.79231 0.52575 0.30463 0.0
C1200 C 0.8145 0.51004 0.34175 0.0
C1201 C 0.80845 0.53998 0.32306 0.0
C1202 C 0.84348 0.5168 0.37893 0.0
C1203 C 0.82352 0.47068 0.38843 0.0
N1204 N 0.81889 0.53189 0.34088 0.0
N1205 N 0.81578 0.47926 0.36824 0.0
H1206 H 0.59434 0.13366 0.9064 0.0
H1207 H 0.71561 0.20798 0.82345 0.0
H1208 H 0.64006 0.20424 0.91897 0.0
H1209 H 0.65729 0.14694 0.79549 0.0
H1210 H 0.69168 0.20423 0.86293 0.0
H1211 H 0.62083 0.13579 0.87022 0.0
C1212 C 0.61008 0.14958 0.90176 0.0
C1213 C 0.61489 0.16885 0.91576 0.0
C1214 C 0.6842 0.1916 0.84821 0.0
C1215 C 0.64539 0.17132 0.87425 0.0
C1216 C 0.69789 0.19364 0.82572 0.0
C1217 C 0.68843 0.17778 0.80601 0.0
C1218 C 0.66098 0.1734 0.85128 0.0
C1219 C 0.6653 0.15962 0.81007 0.0
C1220 C 0.62514 0.15078 0.88099 0.0
C1221 C 0.63557 0.18899 0.90869 0.0
N1222 N 0.65239 0.15792 0.83221 0.0
N1223 N 0.65005 0.1897 0.88845 0.0
H1224 H 0.86193 0.42062 0.91445 0.0
H1225 H 0.85963 0.53105 0.85432 0.0
H1226 H 0.89125 0.48269 0.95578 0.0
H1227 H 0.86063 0.47937 0.80755 0.0
H1228 H 0.86275 0.51083 0.89427 0.0
H1229 H 0.85216 0.43916 0.87788 0.0
C1230 C 0.866 0.43806 0.91606 0.0
C1231 C 0.87767 0.45017 0.93818 0.0
C1232 C 0.86217 0.50393 0.87523 0.0
C1233 C 0.8665 0.47149 0.8962 0.0
C1234 C 0.86031 0.51538 0.85254 0.0
C1235 C 0.86014 0.50694 0.82768 0.0
C1236 C 0.86331 0.4837 0.87296 0.0
C1237 C 0.8611 0.4866 0.82632 0.0
C1238 C 0.86053 0.44865 0.89507 0.0
C1239 C 0.88244 0.47275 0.93904 0.0
N1240 N 0.86258 0.47566 0.84861 0.0
N1241 N 0.87694 0.48274 0.91828 0.0
H1242 H 0.54152 0.40245 0.95992 0.0
H1243 H 0.56035 0.39657 0.80756 0.0
H1244 H 0.61086 0.4392 0.9213 0.0
H1245 H 0.50551 0.33954 0.85107 0.0
H1246 H 0.57715 0.41438 0.84901 0.0
H1247 H 0.5261 0.38032 0.9205 0.0
C1248 C 0.55358 0.40566 0.94335 0.0
C1249 C 0.5775 0.42278 0.94393 0.0
C1250 C 0.5615 0.39792 0.84953 0.0
C1251 C 0.55983 0.39793 0.89869 0.0
C1252 C 0.55181 0.38786 0.82589 0.0
C1253 C 0.53146 0.36663 0.82596 0.0
C1254 C 0.55051 0.3869 0.87346 0.0
C1255 C 0.52126 0.3559 0.85028 0.0
C1256 C 0.54476 0.39303 0.92089 0.0
C1257 C 0.59231 0.4262 0.92183 0.0
N1258 N 0.53072 0.36626 0.87311 0.0
N1259 N 0.58314 0.41415 0.90001 0.0
H1260 H 0.50218 0.64032 0.66419 0.0
H1261 H 0.56502 0.76177 0.72695 0.0
H1262 H 0.56593 0.69705 0.63183 0.0
H1263 H 0.50478 0.70412 0.76343 0.0
H1264 H 0.56528 0.73822 0.69178 0.0
H1265 H 0.5024 0.66328 0.70047 0.0
C1266 C 0.51618 0.65761 0.66465 0.0
C1267 C 0.53405 0.66675 0.64486 0.0
C1268 C 0.55201 0.73066 0.70749 0.0
C1269 C 0.5345 0.69311 0.68646 0.0
C1270 C 0.55177 0.74416 0.72753 0.0
C1271 C 0.53475 0.73495 0.74813 0.0
C1272 C 0.53505 0.70774 0.70791 0.0
C1273 C 0.51832 0.71189 0.74807 0.0
C1274 C 0.51638 0.67068 0.68547 0.0
C1275 C 0.55196 0.68918 0.64674 0.0
N1276 N 0.5188 0.6991 0.7282 0.0
N1277 N 0.55167 0.70159 0.66708 0.0
H1278 H 0.36139 0.80289 0.65032 0.0
H1279 H 0.26004 0.77563 0.76074 0.0
H1280 H 0.3254 0.84296 0.66151 0.0
H1281 H 0.28633 0.72899 0.74176 0.0
H1282 H 0.28786 0.80268 0.72817 0.0
H1283 H 0.3379 0.77783 0.68724 0.0
C1284 C 0.34872 0.80654 0.66067 0.0
C1285 C 0.34524 0.82499 0.65267 0.0
C1286 C 0.28766 0.78659 0.7312 0.0
C1287 C 0.31828 0.79636 0.69487 0.0
C1288 C 0.2718 0.77112 0.74989 0.0
C1289 C 0.27068 0.74988 0.75391 0.0
C1290 C 0.30262 0.78089 0.71633 0.0
C1291 C 0.28649 0.7451 0.73927 0.0
C1292 C 0.33523 0.79216 0.68165 0.0
C1293 C 0.32841 0.82877 0.66669 0.0
N1294 N 0.30172 0.76044 0.72103 0.0
N1295 N 0.31557 0.8146 0.68703 0.0
H1296 H 0.21214 0.53744 0.63973 0.0
H1297 H 0.22935 0.4596 0.75159 0.0
H1298 H 0.16159 0.46741 0.65524 0.0
H1299 H 0.28035 0.52948 0.73594 0.0
H1300 H 0.20321 0.46282 0.71811 0.0
H1301 H 0.23622 0.53547 0.67638 0.0
C1302 C 0.20595 0.52168 0.6509 0.0
C1303 C 0.18473 0.50253 0.64418 0.0
C1304 C 0.22005 0.4775 0.72209 0.0
C1305 C 0.21249 0.50013 0.68623 0.0
C1306 C 0.23499 0.4757 0.74129 0.0
C1307 C 0.25719 0.49428 0.74658 0.0
C1308 C 0.2273 0.49803 0.70793 0.0
C1309 C 0.26345 0.51469 0.73255 0.0
C1310 C 0.21982 0.52055 0.67181 0.0
C1311 C 0.17792 0.48252 0.65932 0.0
N1312 N 0.24867 0.51598 0.7138 0.0
N1313 N 0.19175 0.48185 0.67954 0.0
H1314 H 0.42042 0.81114 0.14831 0.0
H1315 H 0.36205 0.87706 0.2227 0.0
H1316 H 0.43448 0.87899 0.12726 0.0
H1317 H 0.34729 0.80926 0.24491 0.0
H1318 H 0.38663 0.87694 0.18592 0.0
H1319 H 0.39136 0.80887 0.18166 0.0
C1320 C 0.41724 0.82548 0.15048 0.0
C1321 C 0.43006 0.84534 0.13501 0.0
C1322 C 0.37797 0.86203 0.19875 0.0
C1323 C 0.39691 0.84289 0.17332 0.0
C1324 C 0.36401 0.86214 0.21991 0.0
C1325 C 0.35274 0.84323 0.23718 0.0
C1326 C 0.38085 0.84289 0.19472 0.0
C1327 C 0.35554 0.82419 0.2321 0.0
C1328 C 0.40068 0.82419 0.1696 0.0
C1329 C 0.42515 0.86337 0.13877 0.0
N1330 N 0.36944 0.82456 0.21145 0.0
N1331 N 0.40911 0.86175 0.15761 0.0
H1332 H 0.20216 0.61572 0.14679 0.0
H1333 H 0.20077 0.50283 0.20333 0.0
H1334 H 0.17186 0.5549 0.10301 0.0
H1335 H 0.19461 0.55123 0.25156 0.0
H1336 H 0.20065 0.52512 0.16377 0.0
H1337 H 0.21078 0.59566 0.1826 0.0
C1338 C 0.19768 0.59825 0.14446 0.0
C1339 C 0.18597 0.58689 0.12194 0.0
C1340 C 0.19953 0.53088 0.18307 0.0
C1341 C 0.19588 0.5639 0.16297 0.0
C1342 C 0.19969 0.51828 0.2055 0.0
C1343 C 0.19746 0.5252 0.23054 0.0
C1344 C 0.19776 0.55075 0.18594 0.0
C1345 C 0.19604 0.54526 0.23252 0.0
C1346 C 0.20251 0.5868 0.16501 0.0
C1347 C 0.18068 0.56424 0.12012 0.0
N1348 N 0.19628 0.55736 0.21053 0.0
N1349 N 0.18555 0.55341 0.14047 0.0
H1350 H 0.5345 0.70323 0.2189 0.0
H1351 H 0.47398 0.58247 0.15426 0.0
H1352 H 0.5353 0.6443 0.25415 0.0
H1353 H 0.47457 0.64169 0.11805 0.0
H1354 H 0.4969 0.60497 0.19071 0.0
H1355 H 0.51298 0.68111 0.18157 0.0
C1356 C 0.5301 0.68563 0.21888 0.0
C1357 C 0.5367 0.67564 0.23983 0.0
C1358 C 0.49208 0.61307 0.17476 0.0
C1359 C 0.51217 0.6502 0.19691 0.0
C1360 C 0.47885 0.60018 0.15397 0.0
C1361 C 0.4722 0.61014 0.13303 0.0
C1362 C 0.49869 0.63612 0.17474 0.0
C1363 C 0.47945 0.6333 0.13358 0.0
C1364 C 0.51791 0.67303 0.19744 0.0
C1365 C 0.53083 0.65282 0.2384 0.0
N1366 N 0.4922 0.64547 0.15412 0.0
N1367 N 0.51885 0.64088 0.21738 0.0
H1368 H 0.14952 0.61594 0.59245 0.0
H1369 H 0.18578 0.62748 0.74154 0.0
H1370 H 0.18747 0.58283 0.62784 0.0
H1371 H 0.1798 0.68114 0.69921 0.0
H1372 H 0.18432 0.60982 0.69996 0.0
H1373 H 0.15892 0.63966 0.63076 0.0
C1374 C 0.16013 0.61389 0.60803 0.0
C1375 C 0.16752 0.59721 0.60698 0.0
C1376 C 0.18353 0.62556 0.69966 0.0
C1377 C 0.17791 0.62396 0.65096 0.0
C1378 C 0.18419 0.63553 0.72338 0.0
C1379 C 0.18274 0.65567 0.7237 0.0
C1380 C 0.18087 0.63552 0.67604 0.0
C1381 C 0.181 0.66561 0.69965 0.0
C1382 C 0.16548 0.62743 0.62986 0.0
C1383 C 0.18128 0.59536 0.62776 0.0
N1384 N 0.17974 0.65525 0.67673 0.0
N1385 N 0.18567 0.60828 0.64903 0.0
H1386 H 0.39038 0.53352 0.73898 0.0
H1387 H 0.413 0.52983 0.58725 0.0
H1388 H 0.33585 0.48413 0.69136 0.0
H1389 H 0.44788 0.5908 0.63042 0.0
H1390 H 0.38485 0.51186 0.62438 0.0
H1391 H 0.41262 0.55383 0.69911 0.0
C1392 C 0.38312 0.52702 0.72002 0.0
C1393 C 0.3614 0.50709 0.71835 0.0
C1394 C 0.39846 0.52927 0.62548 0.0
C1395 C 0.38679 0.53011 0.67259 0.0
C1396 C 0.41455 0.53955 0.60433 0.0
C1397 C 0.433 0.56181 0.60577 0.0
C1398 C 0.40115 0.54124 0.64837 0.0
C1399 C 0.43406 0.57358 0.6284 0.0
C1400 C 0.3957 0.53867 0.69728 0.0
C1401 C 0.35254 0.49948 0.69334 0.0
N1402 N 0.41863 0.56306 0.64891 0.0
N1403 N 0.36546 0.51083 0.67136 0.0
H1404 H 0.52462 0.87103 0.74243 0.0
H1405 H 0.44354 0.8087 0.62096 0.0
H1406 H 0.51689 0.80768 0.71634 0.0
H1407 H 0.46982 0.8795 0.63334 0.0
H1408 H 0.46938 0.80742 0.65634 0.0
H1409 H 0.50373 0.87407 0.70314 0.0
C1410 C 0.51872 0.85786 0.72835 0.0
C1411 C 0.5225 0.83906 0.73277 0.0
C1412 C 0.46963 0.82327 0.65112 0.0
C1413 C 0.49822 0.84227 0.68786 0.0
C1414 C 0.45486 0.82401 0.63093 0.0
C1415 C 0.45441 0.84422 0.62416 0.0
C1416 C 0.4838 0.84279 0.66491 0.0
C1417 C 0.46952 0.86352 0.63782 0.0
C1418 C 0.5068 0.85961 0.70589 0.0
C1419 C 0.51444 0.8225 0.71376 0.0
N1420 N 0.48337 0.86228 0.65766 0.0
N1421 N 0.50247 0.82437 0.69232 0.0
H1422 H 0.26294 0.45509 0.2335 0.0
H1423 H 0.37415 0.56146 0.16628 0.0
H1424 H 0.29331 0.5216 0.26446 0.0
H1425 H 0.35262 0.49325 0.14467 0.0
H1426 H 0.34561 0.54703 0.20311 0.0
H1427 H 0.29636 0.4684 0.202 0.0
C1428 C 0.27677 0.47249 0.23385 0.0
C1429 C 0.27521 0.4873 0.25158 0.0
C1430 C 0.34723 0.53517 0.1905 0.0
C1431 C 0.31353 0.50273 0.21522 0.0
C1432 C 0.3635 0.54339 0.16936 0.0
C1433 C 0.36567 0.52854 0.15217 0.0
C1434 C 0.33269 0.51187 0.19444 0.0
C1435 C 0.35153 0.50532 0.15736 0.0
C1436 C 0.29589 0.48006 0.21583 0.0
C1437 C 0.29377 0.50959 0.25117 0.0
N1438 N 0.33545 0.4977 0.17786 0.0
N1439 N 0.312 0.51669 0.23308 0.0
H1440 H 0.52511 0.75127 0.25199 0.0
H1441 H 0.5255 0.86093 0.18502 0.0
H1442 H 0.55805 0.81562 0.28862 0.0
H1443 H 0.51899 0.80417 0.14245 0.0
H1444 H 0.52966 0.84256 0.22608 0.0
H1445 H 0.51434 0.7684 0.21483 0.0
C1446 C 0.52982 0.76895 0.25243 0.0
C1447 C 0.54276 0.78207 0.27341 0.0
C1448 C 0.52719 0.83414 0.20772 0.0
C1449 C 0.53046 0.8018 0.2307 0.0
C1450 C 0.52473 0.84454 0.18441 0.0
C1451 C 0.52218 0.83412 0.16037 0.0
C1452 C 0.52658 0.81301 0.20691 0.0
C1453 C 0.52134 0.81292 0.16052 0.0
C1454 C 0.52375 0.77873 0.2311 0.0
C1455 C 0.54825 0.8049 0.27279 0.0
N1456 N 0.5235 0.80307 0.18338 0.0
N1457 N 0.54219 0.81409 0.25169 0.0
H1458 H 0.2835 0.74259 0.26725 0.0
H1459 H 0.16768 0.70224 0.1765 0.0
H1460 H 0.22778 0.76191 0.2773 0.0
H1461 H 0.22271 0.68229 0.16516 0.0
H1462 H 0.18828 0.72199 0.21545 0.0
H1463 H 0.26012 0.71783 0.23231 0.0
C1464 C 0.26622 0.74141 0.2624 0.0
C1465 C 0.2577 0.75451 0.27516 0.0
C1466 C 0.19584 0.71322 0.20453 0.0
C1467 C 0.23096 0.72636 0.23499 0.0
C1468 C 0.18413 0.70204 0.18213 0.0
C1469 C 0.19355 0.69072 0.16729 0.0
C1470 C 0.21726 0.71325 0.21225 0.0
C1471 C 0.2147 0.69067 0.176 0.0
C1472 C 0.25293 0.72734 0.24235 0.0
C1473 C 0.2352 0.75229 0.26794 0.0
N1474 N 0.22593 0.70189 0.19779 0.0
N1475 N 0.22274 0.73866 0.24827 0.0
H1476 H 0.13625 0.1386 0.3634 0.0
H1477 H 0.19475 0.17852 0.21896 0.0
H1478 H 0.17261 0.20841 0.33665 0.0
H1479 H 0.15023 0.10916 0.24421 0.0
H1480 H 0.18822 0.19016 0.26208 0.0
H1481 H 0.14188 0.1278 0.31978 0.0
C1482 C 0.14528 0.15168 0.3483 0.0
C1483 C 0.15396 0.17446 0.35377 0.0
C1484 C 0.17985 0.1724 0.25811 0.0
C1485 C 0.16076 0.16218 0.30361 0.0
C1486 C 0.18372 0.16574 0.23357 0.0
C1487 C 0.17294 0.14281 0.22784 0.0
C1488 C 0.16526 0.156 0.27715 0.0
C1489 C 0.15861 0.12701 0.2475 0.0
C1490 C 0.14854 0.14549 0.32334 0.0
C1491 C 0.16554 0.19063 0.33332 0.0
N1492 N 0.15525 0.13389 0.27118 0.0
N1493 N 0.16873 0.18419 0.30921 0.0
H1494 H 0.82659 0.94796 0.31412 0.0
H1495 H 0.90849 0.06333 0.23254 0.0
H1496 H 0.87481 0.00974 0.35062 0.0
H1497 H 0.856 1.00253 0.19758 0.0
H1498 H 0.89896 0.04339 0.27556 0.0
H1499 H 0.84002 0.96693 0.27103 0.0
C1500 C 0.84019 0.96547 0.31312 0.0
C1501 C 0.84947 0.97726 0.33614 0.0
C1502 C 0.8896 0.0344 0.25845 0.0
C1503 C 0.86485 0.99924 0.2866 0.0
C1504 C 0.89504 0.04577 0.23385 0.0
C1505 C 0.88297 0.03465 0.21134 0.0
C1506 C 0.87199 0.01168 0.26063 0.0
C1507 C 0.86572 0.01187 0.21434 0.0
C1508 C 0.8478 0.97633 0.28843 0.0
C1509 C 0.8671 0.99995 0.33346 0.0
N1510 N 0.86074 1.0012 0.23846 0.0
N1511 N 0.8741 0.01022 0.30918 0.0
H1512 H 1.01268 0.87612 0.18309 0.0
H1513 H 0.02234 0.83457 0.32977 0.0
H1514 H 0.97168 0.80688 0.21081 0.0
H1515 H 0.04636 0.90414 0.30633 0.0
H1516 H 1.0064 0.82368 0.28551 0.0
H1517 H 0.02756 0.8864 0.22752 0.0
C1518 C 1.0067 0.86308 0.19854 0.0
C1519 C 0.99086 0.8406 0.19317 0.0
C1520 C 1.01513 0.84132 0.29012 0.0
C1521 C 1.00812 0.85224 0.24417 0.0
C1522 C 0.02437 0.84754 0.3153 0.0
C1523 C 0.03561 0.87029 0.3218 0.0
C1524 C 1.01745 0.85801 0.27123 0.0
C1525 C 0.03756 0.8864 0.30232 0.0
C1526 C 1.01521 0.86897 0.22394 0.0
C1527 C 0.98377 0.82444 0.21405 0.0
N1528 N 0.02867 0.87997 0.27796 0.0
N1529 N 0.99257 0.83054 0.23859 0.0
H1530 H 0.87984 0.81516 0.71822 0.0
H1531 H 0.8567 0.89158 0.82012 0.0
H1532 H 0.89522 0.88357 0.69848 0.0
H1533 H 0.82303 0.81898 0.82576 0.0
H1534 H 0.87665 0.89082 0.77887 0.0
H1535 H 0.86534 0.81837 0.76149 0.0
C1536 C 0.88048 0.83098 0.72306 0.0
C1537 C 0.88864 0.84907 0.70451 0.0
C1538 C 0.86493 0.87511 0.78925 0.0
C1539 C 0.87186 0.85281 0.75422 0.0
C1540 C 0.85358 0.87553 0.81279 0.0
C1541 C 0.83801 0.85532 0.82636 0.0
C1542 C 0.86097 0.85435 0.77952 0.0
C1543 C 0.83467 0.835 0.81592 0.0
C1544 C 0.87204 0.83275 0.74777 0.0
C1545 C 0.88897 0.86913 0.71205 0.0
N1546 N 0.84604 0.83505 0.79327 0.0
N1547 N 0.88061 0.87045 0.73626 0.0
H1548 H 0.205 0.02356 0.70588 0.0
H1549 H 0.15988 0.01333 0.85475 0.0
H1550 H 0.1951 0.07566 0.7423 0.0
H1551 H 0.16667 0.96057 0.81587 0.0
H1552 H 0.17006 0.03545 0.81325 0.0
H1553 H 0.18891 0.99967 0.74545 0.0
C1554 C 0.19942 0.03001 0.7222 0.0
C1555 C 0.20158 0.05178 0.72076 0.0
C1556 C 0.1691 0.01895 0.81374 0.0
C1557 C 0.18303 0.0243 0.7664 0.0
C1558 C 0.16322 1.00625 0.83744 0.0
C1559 C 0.16258 0.98509 0.8389 0.0
C1560 C 0.1745 0.01049 0.79133 0.0
C1561 C 0.16703 0.97681 0.81576 0.0
C1562 C 0.19014 0.01628 0.74482 0.0
C1563 C 0.19385 0.05905 0.74254 0.0
N1564 N 0.17299 0.9896 0.79304 0.0
N1565 N 0.18505 0.04539 0.76452 0.0
H1566 H 0.96888 0.16006 0.72983 0.0
H1567 H 0.07027 0.16402 0.82813 0.0
H1568 H 1.02058 0.13858 0.707 0.0
H1569 H 0.03273 0.20318 0.83568 0.0
H1570 H 0.0493 0.14991 0.78653 0.0
H1571 H 0.98855 0.17063 0.77216 0.0
C1572 C 0.98423 0.15735 0.73378 0.0
C1573 C 0.99314 0.14853 0.71468 0.0
C1574 C 0.04575 0.16162 0.79739 0.0
C1575 C 1.0159 0.16072 0.76331 0.0
C1576 C 0.0577 0.16966 0.82109 0.0
C1577 C 0.05339 0.18491 0.83541 0.0
C1578 C 0.02912 0.16861 0.78827 0.0
C1579 C 0.03683 0.19159 0.82535 0.0
C1580 C 0.99556 0.16351 0.75794 0.0
C1581 C 1.01316 0.14544 0.72105 0.0
N1582 N 0.0253 0.18335 0.80259 0.0
N1583 N 0.0239 0.15156 0.7448 0.0
H1584 H 0.83931 0.54629 0.67157 0.0
H1585 H 0.80885 0.44401 0.57687 0.0
H1586 H 0.80082 0.47619 0.69679 0.0
H1587 H 0.85882 0.5129 0.55492 0.0
H1588 H 0.80307 0.45605 0.61965 0.0
H1589 H 0.84377 0.53494 0.62754 0.0
C1590 C 0.8316 0.52852 0.66782 0.0
C1591 C 0.81968 0.51217 0.68798 0.0
C1592 C 0.81531 0.46858 0.60552 0.0
C1593 C 0.82482 0.49909 0.63762 0.0
C1594 C 0.81853 0.46172 0.58097 0.0
C1595 C 0.83429 0.47747 0.56215 0.0
C1596 C 0.82782 0.49144 0.61144 0.0
C1597 C 0.84665 0.50016 0.56887 0.0
C1598 C 0.83428 0.52207 0.6427 0.0
C1599 C 0.81019 0.4894 0.68194 0.0
N1600 N 0.84308 0.50649 0.59293 0.0
N1601 N 0.81297 0.48357 0.65738 0.0
H1602 H 0.54262 0.34591 0.68537 0.0
H1603 H 0.52269 0.33216 0.53015 0.0
H1604 H 0.49542 0.28332 0.64974 0.0
H1605 H 0.56979 0.39533 0.56471 0.0
H1606 H 0.51483 0.31362 0.57371 0.0
H1607 H 0.55523 0.36378 0.64145 0.0
C1608 C 0.53509 0.33584 0.66835 0.0
C1609 C 0.51782 0.31306 0.67133 0.0
C1610 C 0.52699 0.33152 0.57181 0.0
C1611 C 0.53207 0.33352 0.62091 0.0
C1612 C 0.5315 0.34216 0.54688 0.0
C1613 C 0.54686 0.36542 0.54368 0.0
C1614 C 0.5378 0.34417 0.59391 0.0
C1615 C 0.55778 0.37739 0.56618 0.0
C1616 C 0.54225 0.34609 0.64325 0.0
C1617 C 0.50869 0.30093 0.64848 0.0
N1618 N 0.55295 0.36666 0.59032 0.0
N1619 N 0.51581 0.31132 0.62433 0.0
H1620 H 0.67167 0.20894 0.51655 0.0
H1621 H 0.69002 0.1655 0.65853 0.0
H1622 H 0.63942 0.13831 0.53939 0.0
H1623 H 0.69738 0.23188 0.64331 0.0
H1624 H 0.67551 0.15571 0.61356 0.0
H1625 H 0.68499 0.21823 0.56176 0.0
C1626 C 0.66729 0.19538 0.53109 0.0
C1627 C 0.65434 0.17281 0.52415 0.0
C1628 C 0.68026 0.17239 0.62013 0.0
C1629 C 0.66989 0.18334 0.57589 0.0
C1630 C 0.68868 0.17802 0.64569 0.0
C1631 C 0.69483 0.1995 0.65469 0.0
C1632 C 0.67839 0.18851 0.60331 0.0
C1633 C 0.69257 0.21505 0.63729 0.0
C1634 C 0.67489 0.2007 0.5569 0.0
C1635 C 0.64923 0.15595 0.54387 0.0
N1636 N 0.68469 0.20931 0.61243 0.0
N1637 N 0.65718 0.16154 0.56877 0.0
H1638 H 0.54753 0.14556 0.04895 0.0
H1639 H 0.52076 0.22304 0.14586 0.0
H1640 H 0.55769 0.2117 0.02513 0.0
H1641 H 0.49392 0.15141 0.15817 0.0
H1642 H 0.53973 0.22139 0.10435 0.0
H1643 H 0.53401 0.14995 0.09225 0.0
C1644 C 0.54727 0.16116 0.05289 0.0
C1645 C 0.55365 0.17822 0.03319 0.0
C1646 C 0.52971 0.20608 0.11623 0.0
C1647 C 0.5379 0.18328 0.08292 0.0
C1648 C 0.5189 0.20701 0.13991 0.0
C1649 C 0.50556 0.18732 0.15549 0.0
C1650 C 0.52746 0.18537 0.10828 0.0
C1651 C 0.50382 0.16702 0.14678 0.0
C1652 C 0.53937 0.16359 0.07763 0.0
C1653 C 0.55285 0.19803 0.03961 0.0
N1654 N 0.51463 0.1666 0.1239 0.0
N1655 N 0.545 0.19998 0.06385 0.0
H1656 H 0.86095 0.4078 0.07238 0.0
H1657 H 0.83767 0.29281 0.14884 0.0
H1658 H 0.87291 0.356 0.0383 0.0
H1659 H 0.82944 0.34583 0.18519 0.0
H1660 H 0.84684 0.3143 0.10698 0.0
H1661 H 0.84619 0.38421 0.1128 0.0
C1662 C 0.86042 0.39147 0.07333 0.0
C1663 C 0.86834 0.38398 0.0519 0.0
C1664 C 0.84286 0.32118 0.12406 0.0
C1665 C 0.85137 0.35683 0.0981 0.0
C1666 C 0.8375 0.30884 0.14799 0.0
C1667 C 0.83291 0.31755 0.17069 0.0
C1668 C 0.8437 0.34245 0.12273 0.0
C1669 C 0.83296 0.33846 0.16828 0.0
C1670 C 0.85197 0.378 0.09642 0.0
C1671 C 0.86715 0.3626 0.05431 0.0
N1672 N 0.83844 0.35024 0.14482 0.0
N1673 N 0.85891 0.34986 0.07694 0.0
H1674 H 0.70302 0.50363 0.02992 0.0
H1675 H 0.69745 0.49056 0.18618 0.0
H1676 H 0.63473 0.47273 0.07128 0.0
H1677 H 0.75059 0.54975 0.14409 0.0
H1678 H 0.677 0.47636 0.14429 0.0
H1679 H 0.72344 0.51308 0.072 0.0
C1680 C 0.69228 0.49857 0.04786 0.0
C1681 C 0.66707 0.48744 0.04703 0.0
C1682 C 0.69329 0.49232 0.14432 0.0
C1683 C 0.69051 0.49801 0.09536 0.0
C1684 C 0.70507 0.5003 0.16807 0.0
C1685 C 0.72578 0.5213 0.16849 0.0
C1686 C 0.70271 0.50519 0.12088 0.0
C1687 C 0.73469 0.53347 0.14458 0.0
C1688 C 0.70399 0.50407 0.07186 0.0
C1689 C 0.65418 0.48144 0.07101 0.0
N1690 N 0.72322 0.5252 0.12176 0.0
N1691 N 0.66604 0.48673 0.09427 0.0
H1692 H 0.46915 0.83744 1.01187 0.0
H1693 H 0.54511 0.85357 0.87924 0.0
H1694 H 0.541 0.89122 0.99681 0.0
H1695 H 0.47339 0.79915 0.89285 0.0
H1696 H 0.54339 0.86774 0.92217 0.0
H1697 H 0.46956 0.82352 0.96803 0.0
C1698 C 0.48493 0.84638 0.99934 0.0
C1699 C 0.50509 0.86549 1.00812 0.0
C1700 C 0.52799 0.8527 0.91578 0.0
C1701 C 0.50573 0.84962 0.95803 0.0
C1702 C 0.52904 0.84449 0.89126 0.0
C1703 C 0.5094 0.82506 0.88229 0.0
C1704 C 0.50717 0.84142 0.93164 0.0
C1705 C 0.48888 0.8143 0.89872 0.0
C1706 C 0.48518 0.83841 0.97434 0.0
C1707 C 0.52506 0.87638 0.99101 0.0
N1708 N 0.48832 0.82259 0.92258 0.0
N1709 N 0.52488 0.86828 0.96691 0.0
H1710 H 0.20803 0.67144 0.86703 0.0
H1711 H 0.19647 0.68176 1.02198 0.0
H1712 H 0.22483 0.73381 0.9039 0.0
H1713 H 0.18475 0.62016 0.98652 0.0
H1714 H 0.20832 0.70127 0.97898 0.0
H1715 H 0.20115 0.65265 0.91056 0.0
C1716 C 0.21052 0.68125 0.88426 0.0
C1717 C 0.21693 0.70426 0.88173 0.0
C1718 C 0.20328 0.68351 0.98058 0.0
C1719 C 0.20884 0.68274 0.9317 0.0
C1720 C 0.19647 0.67232 1.00518 0.0
C1721 C 0.18949 0.64921 1.00793 0.0
C1722 C 0.20302 0.67155 0.95841 0.0
C1723 C 0.18995 0.63795 0.98538 0.0
C1724 C 0.20653 0.67048 0.90913 0.0
C1725 C 0.21986 0.71606 0.90481 0.0
N1726 N 0.19645 0.64919 0.96157 0.0
N1727 N 0.21564 0.70515 0.92876 0.0
H1728 H 0.38293 0.51906 0.98082 0.0
H1729 H 0.26792 0.48534 0.88986 0.0
H1730 H 0.32234 0.52846 1.00285 0.0
H1731 H 0.33537 0.49168 0.86149 0.0
H1732 H 0.28616 0.4981 0.93269 0.0
H1733 H 0.3642 0.50547 0.9384 0.0
C1734 C 0.36563 0.51812 0.97682 0.0
C1735 C 0.35427 0.52503 0.99539 0.0
C1736 C 0.29696 0.49674 0.91705 0.0
C1737 C 0.33271 0.50955 0.94684 0.0
C1738 C 0.28655 0.48945 0.89258 0.0
C1739 C 0.30011 0.48748 0.87196 0.0
C1740 C 0.32105 0.50188 0.92106 0.0
C1741 C 0.32421 0.49303 0.87672 0.0
C1742 C 0.35501 0.51052 0.95253 0.0
C1743 C 0.33191 0.52363 0.989 0.0
N1744 N 0.33384 0.49986 0.90074 0.0
N1745 N 0.32187 0.51602 0.96534 0.0
H1746 H 0.14785 0.52112 0.48759 0.0
H1747 H 0.24163 0.5163 0.38524 0.0
H1748 H 0.22224 0.54426 0.50697 0.0
H1749 H 0.16472 0.4749 0.3826 0.0
H1750 H 0.23637 0.5317 0.42656 0.0
H1751 H 0.15536 0.50971 0.44511 0.0
C1752 C 0.16584 0.52401 0.48285 0.0
C1753 C 0.18439 0.53354 0.50104 0.0
C1754 C 0.22073 0.51923 0.41683 0.0
C1755 C 0.19312 0.5204 0.45223 0.0
C1756 C 0.22371 0.51048 0.39328 0.0
C1757 C 0.20362 0.49418 0.38048 0.0
C1758 C 0.19748 0.51191 0.42728 0.0
C1759 C 0.18079 0.48727 0.39179 0.0
C1760 C 0.17009 0.51737 0.4586 0.0
C1761 C 0.20736 0.53685 0.49365 0.0
N1762 N 0.17838 0.49621 0.41436 0.0
N1763 N 0.21108 0.53025 0.46984 0.0
H1764 H 0.45936 0.60538 0.47361 0.0
H1765 H 0.55362 0.7195 0.39749 0.0
H1766 H 0.52572 0.65447 0.50669 0.0
H1767 H 0.48948 0.66911 0.36205 0.0
H1768 H 0.54204 0.69703 0.43872 0.0
H1769 H 0.46867 0.62936 0.43346 0.0
C1770 C 0.47585 0.62118 0.47248 0.0
C1771 C 0.4918 0.62783 0.49358 0.0
C1772 C 0.53042 0.69092 0.42197 0.0
C1773 C 0.50254 0.65543 0.4477 0.0
C1774 C 0.53699 0.70381 0.39841 0.0
C1775 C 0.52257 0.69617 0.37617 0.0
C1776 C 0.50927 0.67018 0.42339 0.0
C1777 C 0.50121 0.67567 0.37863 0.0
C1778 C 0.48115 0.63488 0.44955 0.0
C1779 C 0.51289 0.64855 0.49095 0.0
N1780 N 0.49528 0.66335 0.40173 0.0
N1781 N 0.51763 0.66154 0.46849 0.0
H1782 H 0.35028 0.80128 0.51907 0.0
H1783 H 0.34726 0.86575 0.3863 0.0
H1784 H 0.40573 0.86768 0.49522 0.0
H1785 H 0.30485 0.79364 0.39673 0.0
H1786 H 0.36768 0.8665 0.42714 0.0
H1787 H 0.33268 0.79758 0.47533 0.0
C1788 C 0.35895 0.81497 0.50458 0.0
C1789 C 0.37948 0.8349 0.51098 0.0
C1790 C 0.35401 0.85046 0.42052 0.0
C1791 C 0.35916 0.83086 0.461 0.0
C1792 C 0.3422 0.85001 0.3972 0.0
C1793 C 0.32418 0.8296 0.38806 0.0
C1794 C 0.34764 0.83038 0.43527 0.0
C1795 C 0.31862 0.80976 0.40303 0.0
C1796 C 0.34886 0.81283 0.47961 0.0
C1797 C 0.3899 0.85203 0.49131 0.0
N1798 N 0.33014 0.81066 0.42605 0.0
N1799 N 0.37948 0.84971 0.46741 0.0
H1800 H 0.27694 0.17896 0.177 0.0
H1801 H 0.40669 0.18501 0.1628 0.0
H1802 H 0.30219 0.16249 0.10644 0.0
H1803 H 0.37749 0.19372 0.23541 0.0
H1804 H 0.37096 0.1819 0.14 0.0
H1805 H 0.3161 0.18981 0.19676 0.0
C1806 C 0.29081 0.17794 0.16549 0.0
C1807 C 0.28613 0.16961 0.14007 0.0
C1808 C 0.37246 0.18462 0.16091 0.0
C1809 C 0.33103 0.18181 0.16272 0.0
C1810 C 0.39292 0.18651 0.17389 0.0
C1811 C 0.39497 0.18932 0.20113 0.0
C1812 C 0.354 0.18572 0.17524 0.0
C1813 C 0.37647 0.19106 0.21452 0.0
C1814 C 0.31315 0.18403 0.17685 0.0
C1815 C 0.30486 0.16865 0.12616 0.0
N1816 N 0.35678 0.18913 0.2015 0.0
N1817 N 0.32637 0.17448 0.13772 0.0
H1818 H 0.89718 0.23578 0.17396 0.0
H1819 H 0.84746 0.10318 0.18625 0.0
H1820 H 0.83732 0.19461 0.2257 0.0
H1821 H 0.8761 0.14164 0.11371 0.0
H1822 H 0.84885 0.13687 0.20568 0.0
H1823 H 0.89516 0.20164 0.15612 0.0
C1824 C 0.88369 0.21951 0.18164 0.0
C1825 C 0.86738 0.21795 0.2013 0.0
C1826 C 0.85476 0.13782 0.1855 0.0
C1827 C 0.86511 0.17886 0.18119 0.0
C1828 C 0.85411 0.11874 0.17453 0.0
C1829 C 0.86155 0.11969 0.14835 0.0
C1830 C 0.86351 0.15805 0.17034 0.0
C1831 C 0.86995 0.14017 0.13386 0.0
C1832 C 0.88247 0.20007 0.17138 0.0
C1833 C 0.85008 0.19645 0.21041 0.0
N1834 N 0.87089 0.15857 0.14509 0.0
N1835 N 0.8495 0.17767 0.20043 0.0
H1836 H 0.81329 0.60104 0.18911 0.0
H1837 H 0.89968 0.7343 0.18977 0.0
H1838 H 0.81048 0.64356 0.24901 0.0
H1839 H 0.89938 0.69236 0.12737 0.0
H1840 H 0.86785 0.70114 0.21239 0.0
H1841 H 0.84606 0.63403 0.16722 0.0
C1842 C 0.81967 0.61725 0.19781 0.0
C1843 C 0.80903 0.61947 0.22097 0.0
C1844 C 0.87476 0.6992 0.19374 0.0
C1845 C 0.84647 0.65747 0.19579 0.0
C1846 C 0.8929 0.71819 0.1807 0.0
C1847 C 0.90233 0.71626 0.15652 0.0
C1848 C 0.86592 0.67802 0.18259 0.0
C1849 C 0.89297 0.69475 0.14607 0.0
C1850 C 0.8383 0.63615 0.18519 0.0
C1851 C 0.81788 0.64105 0.23105 0.0
N1852 N 0.87531 0.67652 0.15913 0.0
N1853 N 0.83605 0.65918 0.21842 0.0
H1854 H 0.17307 0.372 0.30231 0.0
H1855 H 0.21865 0.32289 0.42272 0.0
H1856 H 0.21747 0.41275 0.36414 0.0
H1857 H 0.17393 0.28237 0.36093 0.0
H1858 H 0.21906 0.3561 0.40125 0.0
H1859 H 0.17346 0.33907 0.32341 0.0
C1860 C 0.18282 0.37405 0.32038 0.0
C1861 C 0.19521 0.39526 0.33144 0.0
C1862 C 0.20916 0.33994 0.39239 0.0
C1863 C 0.19593 0.35751 0.35567 0.0
C1864 C 0.20902 0.32095 0.40458 0.0
C1865 C 0.1962 0.2997 0.39369 0.0
C1866 C 0.19641 0.33774 0.36907 0.0
C1867 C 0.18378 0.29827 0.37029 0.0
C1868 C 0.18314 0.35522 0.33237 0.0
C1869 C 0.20788 0.39686 0.3547 0.0
N1870 N 0.18421 0.317 0.3588 0.0
N1871 N 0.20787 0.37825 0.36604 0.0
H1872 H 0.67986 0.79904 0.32876 0.0
H1873 H 0.71162 0.91084 0.40637 0.0
H1874 H 0.62619 0.81665 0.35548 0.0
H1875 H 0.76449 0.89262 0.37837 0.0
H1876 H 0.67987 0.87566 0.39006 0.0
H1877 H 0.71078 0.8323 0.34907 0.0
C1878 C 0.67455 0.80992 0.33888 0.0
C1879 C 0.65035 0.80509 0.34016 0.0
C1880 C 0.69843 0.87933 0.38762 0.0
C1881 C 0.68582 0.84334 0.36374 0.0
C1882 C 0.7166 0.89948 0.39682 0.0
C1883 C 0.74087 0.90486 0.39369 0.0
C1884 C 0.7045 0.86439 0.37508 0.0
C1885 C 0.74612 0.88922 0.38152 0.0
C1886 C 0.69224 0.8289 0.35061 0.0
C1887 C 0.64456 0.81961 0.35408 0.0
N1888 N 0.72814 0.86982 0.37258 0.0
N1889 N 0.66218 0.83815 0.36517 0.0
H1890 H 0.20007 0.83864 0.30798 0.0
H1891 H 0.14468 0.85042 0.44298 0.0
H1892 H 0.22665 0.82991 0.38326 0.0
H1893 H 0.10875 0.84248 0.36888 0.0
H1894 H 0.174 0.84167 0.42205 0.0
H1895 H 0.16608 0.83926 0.3301 0.0
C1896 C 0.19872 0.83684 0.32921 0.0
C1897 C 0.21638 0.83449 0.34383 0.0
C1898 C 0.15953 0.84154 0.41043 0.0
C1899 C 0.17738 0.83516 0.36939 0.0
C1900 C 0.14275 0.84653 0.42237 0.0
C1901 C 0.12429 0.84734 0.40763 0.0
C1902 C 0.1581 0.83764 0.38342 0.0
C1903 C 0.12267 0.84206 0.38102 0.0
C1904 C 0.1792 0.83702 0.34183 0.0
C1905 C 0.21344 0.83175 0.37127 0.0
N1906 N 0.13955 0.83775 0.3697 0.0
N1907 N 0.19448 0.83245 0.3832 0.0
H1908 H 0.74097 0.85204 0.82905 0.0
H1909 H 0.60784 0.83812 0.84295 0.0
H1910 H 0.70334 0.84216 0.90287 0.0
H1911 H 0.63726 0.83097 0.76955 0.0
H1912 H 0.64563 0.84611 0.86421 0.0
H1913 H 0.70591 0.85054 0.80604 0.0
C1914 C 0.72544 0.84978 0.84039 0.0
C1915 C 0.72496 0.84697 0.86788 0.0
C1916 C 0.6439 0.84295 0.8434 0.0
C1917 C 0.68493 0.84533 0.84183 0.0
C1918 C 0.62232 0.83848 0.8312 0.0
C1919 C 0.61923 0.83367 0.80442 0.0
C1920 C 0.66266 0.84274 0.82878 0.0
C1921 C 0.63875 0.83443 0.79026 0.0
C1922 C 0.70542 0.84881 0.82728 0.0
C1923 C 0.70433 0.84399 0.88165 0.0
N1924 N 0.65957 0.83874 0.80263 0.0
N1925 N 0.6852 0.84323 0.86851 0.0
H1926 H 0.2136 0.78576 0.84566 0.0
H1927 H 0.15635 0.86968 0.8483 0.0
H1928 H 0.14638 0.77129 0.80898 0.0
H1929 H 0.21998 0.87959 0.89016 0.0
H1930 H 0.15231 0.83399 0.83303 0.0
H1931 H 0.2165 0.8208 0.86088 0.0
C1932 C 0.19951 0.79001 0.84059 0.0
C1933 C 0.17978 0.77555 0.82583 0.0
C1934 C 0.16714 0.84401 0.84558 0.0
C1935 C 0.18284 0.81576 0.84361 0.0
C1936 C 0.1694 0.86437 0.85442 0.0
C1937 C 0.18862 0.87784 0.87049 0.0
C1938 C 0.18422 0.83706 0.85282 0.0
C1939 C 0.20512 0.87009 0.87748 0.0
C1940 C 0.20109 0.81001 0.84949 0.0
C1941 C 0.16182 0.78183 0.82044 0.0
N1942 N 0.20255 0.85031 0.86859 0.0
N1943 N 0.16381 0.8015 0.82925 0.0
H1944 H 0.21295 0.39483 0.8306 0.0
H1945 H 0.16533 0.26637 0.8801 0.0
H1946 H 0.25383 0.35871 0.82348 0.0
H1947 H 0.12541 0.30299 0.89076 0.0
H1948 H 0.19771 0.3 0.85893 0.0
H1949 H 0.18074 0.36154 0.85268 0.0
C1950 C 0.21529 0.38001 0.83378 0.0
C1951 C 0.23626 0.37969 0.82504 0.0
C1952 C 0.18189 0.30071 0.86592 0.0
C1953 C 0.19918 0.3413 0.85016 0.0
C1954 C 0.16328 0.28143 0.87789 0.0
C1955 C 0.14249 0.28174 0.88721 0.0
C1956 C 0.17978 0.32055 0.8631 0.0
C1957 C 0.14114 0.30196 0.88416 0.0
C1958 C 0.19678 0.36092 0.8463 0.0
C1959 C 0.23796 0.35975 0.82946 0.0
N1960 N 0.15948 0.3205 0.87232 0.0
N1961 N 0.21971 0.34142 0.84166 0.0
H1962 H 0.8319 0.70926 0.64642 0.0
H1963 H 0.89996 0.65924 0.73854 0.0
H1964 H 0.90184 0.7502 0.67865 0.0
H1965 H 0.82658 0.62044 0.71398 0.0
H1966 H 0.9015 0.69249 0.71593 0.0
H1967 H 0.83027 0.67629 0.66989 0.0
C1968 C 0.84697 0.71132 0.65835 0.0
C1969 C 0.86707 0.73258 0.66047 0.0
C1970 C 0.88506 0.67668 0.71552 0.0
C1971 C 0.86527 0.6948 0.68762 0.0
C1972 C 0.88411 0.65764 0.72855 0.0
C1973 C 0.86309 0.63681 0.72827 0.0
C1974 C 0.86489 0.67498 0.70196 0.0
C1975 C 0.8433 0.63591 0.71454 0.0
C1976 C 0.84597 0.69249 0.67189 0.0
C1977 C 0.88589 0.73423 0.67662 0.0
N1978 N 0.84471 0.65466 0.70196 0.0
N1979 N 0.88458 0.71559 0.68947 0.0
H1980 H 0.34941 0.13732 0.66162 0.0
H1981 H 0.381 0.24528 0.74649 0.0
H1982 H 0.29525 0.15149 0.69459 0.0
H1983 H 0.43381 0.22872 0.71446 0.0
H1984 H 0.34916 0.21018 0.73004 0.0
H1985 H 0.38029 0.16962 0.68342 0.0
C1986 C 0.34402 0.14724 0.67351 0.0
C1987 C 0.31972 0.14183 0.67603 0.0
C1988 C 0.36773 0.21418 0.72679 0.0
C1989 C 0.3551 0.179 0.70123 0.0
C1990 C 0.38595 0.2343 0.73606 0.0
C1991 C 0.41023 0.24013 0.73178 0.0
C1992 C 0.37379 0.19978 0.71303 0.0
C1993 C 0.41546 0.22496 0.7185 0.0
C1994 C 0.36166 0.16566 0.68606 0.0
C1995 C 0.31375 0.15502 0.69217 0.0
N1996 N 0.39744 0.20563 0.70949 0.0
N1997 N 0.33134 0.17314 0.70397 0.0
H1998 H 0.89624 0.16747 0.70913 0.0
H1999 H 0.77284 0.17435 0.69716 0.0
H2000 H 0.85864 0.16128 0.63652 0.0
H2001 H 0.81386 0.18772 0.76832 0.0
H2002 H 0.80187 0.16536 0.67595 0.0
H2003 H 0.86416 0.1709 0.73237 0.0
C2004 C 0.88117 0.16664 0.6981 0.0
C2005 C 0.88031 0.1643 0.67076 0.0
C2006 C 0.80445 0.17011 0.69627 0.0
C2007 C 0.84352 0.1683 0.69722 0.0
C2008 C 0.78779 0.17517 0.70844 0.0
C2009 C 0.79093 0.18195 0.73456 0.0
C2010 C 0.82445 0.17181 0.71025 0.0
C2011 C 0.81073 0.18269 0.74813 0.0
C2012 C 0.86291 0.16871 0.71136 0.0
C2013 C 0.86036 0.1635 0.65749 0.0
N2014 N 0.82677 0.17782 0.7358 0.0
N2015 N 0.84286 0.16554 0.6708 0.0
H2016 H 0.07022 0.5153 0.50906 0.0
H2017 H 0.93886 0.50597 0.52072 0.0
H2018 H 0.03948 0.52296 0.58119 0.0
H2019 H 0.96758 0.49458 0.44927 0.0
H2020 H 0.97705 0.51556 0.54213 0.0
H2021 H 0.03429 0.51091 0.48583 0.0
C2022 C 0.05605 0.51624 0.52 0.0
C2023 C 0.05788 0.5193 0.54722 0.0
C2024 C 0.97507 0.5111 0.52171 0.0
C2025 C 1.01653 0.51416 0.52074 0.0
C2026 C 0.95325 0.5057 0.50943 0.0
C2027 C 0.94988 0.49932 0.48315 0.0
C2028 C 0.99374 0.51014 0.50769 0.0
C2029 C 0.96927 0.49929 0.46958 0.0
C2030 C 0.03546 0.51363 0.50674 0.0
C2031 C 0.03876 0.5202 0.56034 0.0
N2032 N 0.99026 0.50447 0.48201 0.0
N2033 N 1.01894 0.51758 0.54703 0.0
H2034 H 0.52303 0.52063 0.58221 0.0
H2035 H 0.50192 0.454 0.44944 0.0
H2036 H 0.50664 0.5435 0.50838 0.0
H2037 H 0.52153 0.43371 0.523 0.0
H2038 H 0.50196 0.48599 0.47073 0.0
H2039 H 0.52125 0.48813 0.56088 0.0
C2040 C 0.5192 0.51895 0.56145 0.0
C2041 C 0.51522 0.53506 0.54706 0.0
C2042 C 0.50622 0.47452 0.48222 0.0
C2043 C 0.51282 0.49743 0.52244 0.0
C2044 C 0.50607 0.45613 0.4701 0.0
C2045 C 0.51174 0.44105 0.48441 0.0
C2046 C 0.51204 0.47788 0.50889 0.0
C2047 C 0.51734 0.44498 0.51107 0.0
C2048 C 0.51804 0.50023 0.54929 0.0
C2049 C 0.50971 0.53151 0.52031 0.0
N2050 N 0.51734 0.46296 0.52241 0.0
N2051 N 0.50876 0.51312 0.50885 0.0
H2052 H 0.58375 0.02761 0.47985 0.0
H2053 H 0.45474 0.97707 0.55119 0.0
H2054 H 0.54575 0.06591 0.49123 0.0
H2055 H 0.49286 0.93888 0.53978 0.0
H2056 H 0.48782 0.00973 0.52927 0.0
H2057 H 0.55048 0.99488 0.50137 0.0
C2058 C 0.56839 0.02916 0.48672 0.0
C2059 C 0.56765 0.04966 0.48363 0.0
C2060 C 0.48894 0.9942 0.53154 0.0
C2061 C 0.52943 0.01212 0.50863 0.0
C2062 C 0.47007 0.97552 0.5442 0.0
C2063 C 0.47092 0.95509 0.54745 0.0
C2064 C 0.50892 0.99253 0.52202 0.0
C2065 C 0.49118 0.95411 0.53752 0.0
C2066 C 0.54941 0.01045 0.49916 0.0
C2067 C 0.54734 0.05063 0.4934 0.0
N2068 N 0.50935 0.97254 0.52533 0.0
N2069 N 0.52906 0.03215 0.50541 0.0
H2070 H 0.5448 0.0764 0.02941 0.0
H2071 H 0.50098 0.94381 0.02678 0.0
H2072 H 0.50125 0.03391 0.96825 0.0
H2073 H 0.54227 0.98535 0.08976 0.0
H2074 H 0.50129 0.97677 1.00498 0.0
H2075 H 0.54479 0.04353 0.05146 0.0
C2076 C 0.53533 0.06021 1.02051 0.0
C2077 C 0.52301 0.058 0.99687 0.0
C2078 C 0.51028 0.9787 1.02358 0.0
C2079 C 0.52276 0.02017 1.02221 0.0
C2080 C 0.50999 0.9598 0.03617 0.0
C2081 C 0.52153 0.96167 0.0603 0.0
C2082 C 0.52221 0.99974 0.0351 0.0
C2083 C 0.53333 0.98305 0.07112 0.0
C2084 C 0.53522 0.04141 0.03322 0.0
C2085 C 0.51075 0.03646 0.98656 0.0
N2086 N 0.53333 1.00122 0.05848 0.0
N2087 N 0.51097 0.01844 0.99925 0.0
H2088 H 0.96112 0.48166 1.02284 0.0
H2089 H 0.10263 0.55775 0.04325 0.0
H2090 H 1.01551 0.46944 0.98663 0.0
H2091 H 0.04872 0.57063 0.07955 0.0
H2092 H 0.07084 0.52535 1.02233 0.0
H2093 H 0.99274 0.51382 0.04459 0.0
C2094 C 0.97965 0.48559 1.0196 0.0
C2095 C 0.9856 0.47284 1.00272 0.0
C2096 C 0.06595 0.53527 0.03487 0.0
C2097 C 0.02197 0.50983 0.02734 0.0
C2098 C 0.08415 0.55392 0.0467 0.0
C2099 C 0.07844 0.56703 0.06326 0.0
C2100 C 0.04177 0.52962 0.03956 0.0
C2101 C 0.05404 0.5609 0.06725 0.0
C2102 C 0.99774 0.50407 0.03189 0.0
C2103 C 1.01003 0.47896 0.99908 0.0
N2104 N 0.03665 0.54268 0.05551 0.0
N2105 N 0.02725 0.49698 1.01122 0.0
H2106 H 0.56183 0.49903 0.04817 0.0
H2107 H 0.43867 0.50615 0.03445 0.0
H2108 H 0.52499 0.49339 0.97513 0.0
H2109 H 0.47768 0.51724 0.10687 0.0
H2110 H 0.46798 0.49735 1.01363 0.0
H2111 H 0.52915 0.50171 0.0712 0.0
C2112 C 0.54679 0.49814 0.03701 0.0
C2113 C 0.54634 0.49626 1.00961 0.0
C2114 C 0.47006 0.50155 0.03414 0.0
C2115 C 0.50891 0.4994 0.03578 0.0
C2116 C 0.45325 0.50652 0.04608 0.0
C2117 C 0.45574 0.5126 0.07244 0.0
C2118 C 0.48961 0.50268 0.04859 0.0
C2119 C 0.47505 0.51275 0.08647 0.0
C2120 C 0.5282 0.49979 0.05014 0.0
C2121 C 0.52641 0.49531 0.99616 0.0
N2122 N 0.4913 0.50802 0.07435 0.0
N2123 N 0.50862 0.49697 1.00932 0.0
loop_
_geom_bond_atom_site_label_1
_geom_bond_atom_site_label_2
_geom_bond_distance
_geom_bond_site_symmetry_2
_ccdc_geom_bond_type
Cu0 N1 1.999 . S
Cu0 O6 1.974 . S
Cu0 N11 1.985 . S
Cu0 O20 1.959 . S
N1 Cu0 1.999 . S
N1 C3 1.263 . S
N1 C5 1.389 . S
N2 C3 1.358 . S
N2 C4 1.400 . S
C3 N1 1.263 . S
C3 N2 1.358 . S
C3 H9 0.930 . S
C4 N2 1.400 . S
C4 C5 1.351 . S
C4 H21 0.930 . S
C5 N1 1.389 . S
C5 C4 1.351 . S
C5 H10 0.930 . S
O6 Cu0 1.974 . S
O6 C16 1.282 . S
C7 O8 1.261 . S
C7 O20 1.251 . S
O8 C7 1.261 . S
H9 C3 0.930 . S
H10 C5 0.930 . S
N11 Cu0 1.985 . S
N11 C13 1.335 . S
N11 C14 1.390 . S
N12 C13 1.345 . S
N12 C15 1.336 . S
C13 N11 1.335 . S
C13 N12 1.345 . S
C13 H18 0.930 . S
C14 N11 1.390 . S
C14 C15 1.346 . S
C14 H19 0.930 . S
C15 N12 1.336 . S
C15 C14 1.346 . S
C15 H22 0.929 . S
C16 O6 1.282 . S
C16 O17 1.216 . S
O17 C16 1.216 . S
H18 C13 0.930 . S
H19 C14 0.930 . S
O20 Cu0 1.959 . S
O20 C7 1.251 . S
H21 C4 0.930 . S
H22 C15 0.929 . S
Cu23 N24 1.999 . S
Cu23 O29 1.974 . S
Cu23 N34 1.985 . S
Cu23 O43 1.959 . S
N24 Cu23 1.999 . S
N24 C26 1.263 . S
N24 C28 1.389 1_545 S
N25 C26 1.358 1_565 S
N25 C27 1.400 . S
C26 N24 1.263 . S
C26 N25 1.358 1_545 S
C26 H32 0.930 . S
C27 N25 1.400 . S
C27 C28 1.351 . S
C27 H44 0.930 . S
C28 N24 1.389 1_565 S
C28 C27 1.351 . S
C28 H33 0.930 . S
O29 Cu23 1.974 . S
O29 C39 1.282 . S
C30 O31 1.261 . S
C30 O43 1.251 . S
O31 C30 1.261 . S
H32 C26 0.930 . S
H33 C28 0.930 . S
N34 Cu23 1.985 . S
N34 C36 1.335 . S
N34 C37 1.390 . S
N35 C36 1.345 . S
N35 C38 1.336 . S
C36 N34 1.335 . S
C36 N35 1.345 . S
C36 H41 0.930 . S
C37 N34 1.390 . S
C37 C38 1.346 . S
C37 H42 0.930 . S
C38 N35 1.336 . S
C38 C37 1.346 . S
C38 H45 0.929 . S
C39 O29 1.282 . S
C39 O40 1.216 . S
O40 C39 1.216 . S
H41 C36 0.930 . S
H42 C37 0.930 . S
O43 Cu23 1.959 . S
O43 C30 1.251 . S
H44 C27 0.930 . S
H45 C38 0.929 . S
Cu46 N47 1.999 . S
Cu46 O52 1.974 . S
Cu46 N57 1.985 . S
Cu46 O66 1.959 . S
N47 Cu46 1.999 . S
N47 C49 1.263 . S
N47 C51 1.389 . S
N48 C49 1.358 . S
N48 C50 1.400 1_655 S
C49 N47 1.263 . S
C49 N48 1.358 . S
C49 H55 0.930 . S
C50 N48 1.400 1_455 S
C50 C51 1.351 1_455 S
C50 H67 0.930 . S
C51 N47 1.389 . S
C51 C50 1.351 1_655 S
C51 H56 0.930 . S
O52 Cu46 1.974 . S
O52 C62 1.282 . S
C53 O54 1.261 . S
C53 O66 1.251 . S
O54 C53 1.261 . S
H55 C49 0.930 . S
H56 C51 0.930 . S
N57 Cu46 1.985 . S
N57 C59 1.335 . S
N57 C60 1.390 . S
N58 C59 1.345 . S
N58 C61 1.336 . S
C59 N57 1.335 . S
C59 N58 1.345 . S
C59 H64 0.930 . S
C60 N57 1.390 . S
C60 C61 1.346 . S
C60 H65 0.930 . S
C61 N58 1.336 . S
C61 C60 1.346 . S
C61 H68 0.929 . S
C62 O52 1.282 . S
C62 O63 1.216 . S
O63 C62 1.216 . S
H64 C59 0.930 . S
H65 C60 0.930 . S
O66 Cu46 1.959 . S
O66 C53 1.251 . S
H67 C50 0.930 . S
H68 C61 0.929 . S
Cu69 N70 1.999 . S
Cu69 O75 1.974 . S
Cu69 N80 1.985 . S
Cu69 O89 1.959 . S
N70 Cu69 1.999 . S
N70 C72 1.263 . S
N70 C74 1.389 . S
N71 C72 1.358 . S
N71 C73 1.400 . S
C72 N70 1.263 . S
C72 N71 1.358 . S
C72 H78 0.930 . S
C73 N71 1.400 . S
C73 C74 1.351 . S
C73 H90 0.930 . S
C74 N70 1.389 . S
C74 C73 1.351 . S
C74 H79 0.930 . S
O75 Cu69 1.974 . S
O75 C85 1.282 . S
C76 O77 1.261 . S
C76 O89 1.251 . S
O77 C76 1.261 . S
H78 C72 0.930 . S
H79 C74 0.930 . S
N80 Cu69 1.985 . S
N80 C82 1.335 . S
N80 C83 1.390 . S
N81 C82 1.345 . S
N81 C84 1.336 . S
C82 N80 1.335 . S
C82 N81 1.345 . S
C82 H87 0.930 . S
C83 N80 1.390 . S
C83 C84 1.346 . S
C83 H88 0.930 . S
C84 N81 1.336 . S
C84 C83 1.346 . S
C84 H91 0.929 . S
C85 O75 1.282 . S
C85 O86 1.216 . S
O86 C85 1.216 . S
H87 C82 0.930 . S
H88 C83 0.930 . S
O89 Cu69 1.959 . S
O89 C76 1.251 . S
H90 C73 0.930 . S
H91 C84 0.929 . S
Cu92 N93 1.999 . S
Cu92 O98 1.974 . S
Cu92 N103 1.985 . S
Cu92 O112 1.959 . S
N93 Cu92 1.999 . S
N93 C95 1.263 . S
N93 C97 1.397 . S
N94 C95 1.358 1_545 S
N94 C96 1.400 . S
C95 N93 1.263 . S
C95 N94 1.358 1_565 S
C95 H101 0.930 . S
C96 N94 1.400 . S
C96 C97 1.347 1_545 S
C96 H113 0.930 . S
C97 N93 1.397 . S
C97 C96 1.347 1_565 S
C97 H102 0.926 1_565 S
O98 Cu92 1.974 . S
O98 C108 1.282 . S
C99 O100 1.261 . S
C99 O112 1.251 . S
O100 C99 1.261 . S
H101 C95 0.930 . S
H102 C97 0.926 1_545 S
N103 Cu92 1.985 . S
N103 C105 1.335 . S
N103 C106 1.390 . S
N104 C105 1.345 . S
N104 C107 1.336 . S
C105 N103 1.335 . S
C105 N104 1.345 . S
C105 H110 0.930 . S
C106 N103 1.390 . S
C106 C107 1.346 . S
C106 H111 0.930 . S
C107 N104 1.336 . S
C107 C106 1.346 . S
C107 H114 0.929 . S
C108 O98 1.282 . S
C108 O109 1.216 . S
O109 C108 1.216 . S
H110 C105 0.930 . S
H111 C106 0.930 . S
O112 Cu92 1.959 . S
O112 C99 1.251 . S
H113 C96 0.930 . S
H114 C107 0.929 . S
Cu115 N116 1.999 . S
Cu115 O121 1.974 . S
Cu115 N126 1.985 . S
Cu115 O135 1.959 . S
N116 Cu115 1.999 . S
N116 C118 1.263 . S
N116 C120 1.389 . S
N117 C118 1.358 . S
N117 C119 1.400 . S
C118 N116 1.263 . S
C118 N117 1.358 . S
C118 H124 0.930 . S
C119 N117 1.400 . S
C119 C120 1.351 . S
C119 H136 0.930 1_455 S
C120 N116 1.389 . S
C120 C119 1.351 . S
C120 H125 0.930 . S
O121 Cu115 1.974 . S
O121 C131 1.282 . S
C122 O123 1.261 . S
C122 O135 1.251 . S
O123 C122 1.261 . S
H124 C118 0.930 . S
H125 C120 0.930 . S
N126 Cu115 1.985 . S
N126 C128 1.335 . S
N126 C129 1.390 . S
N127 C128 1.345 . S
N127 C130 1.336 . S
C128 N126 1.335 . S
C128 N127 1.345 . S
C128 H133 0.930 . S
C129 N126 1.390 . S
C129 C130 1.346 . S
C129 H134 0.930 . S
C130 N127 1.336 . S
C130 C129 1.346 . S
C130 H137 0.929 . S
C131 O121 1.282 . S
C131 O132 1.216 . S
O132 C131 1.216 . S
H133 C128 0.930 . S
H134 C129 0.930 . S
O135 Cu115 1.959 . S
O135 C122 1.251 . S
H136 C119 0.930 1_655 S
H137 C130 0.929 . S
Cu138 N139 1.999 . S
Cu138 O144 1.974 . S
Cu138 N149 1.985 . S
Cu138 O158 1.959 . S
N139 Cu138 1.999 . S
N139 C141 1.263 . S
N139 C143 1.389 . S
N140 C141 1.358 . S
N140 C142 1.400 . S
C141 N139 1.263 . S
C141 N140 1.358 . S
C141 H147 0.930 . S
C142 N140 1.400 . S
C142 C143 1.351 . S
C142 H159 0.930 . S
C143 N139 1.389 . S
C143 C142 1.351 . S
C143 H148 0.930 . S
O144 Cu138 1.974 . S
O144 C154 1.282 . S
C145 O146 1.261 . S
C145 O158 1.251 . S
O146 C145 1.261 . S
H147 C141 0.930 . S
H148 C143 0.930 . S
N149 Cu138 1.985 . S
N149 C151 1.335 . S
N149 C152 1.390 . S
N150 C151 1.345 . S
N150 C153 1.336 . S
C151 N149 1.335 . S
C151 N150 1.345 . S
C151 H156 0.930 . S
C152 N149 1.390 . S
C152 C153 1.346 . S
C152 H157 0.930 . S
C153 N150 1.336 . S
C153 C152 1.346 . S
C153 H160 0.929 . S
C154 O144 1.282 . S
C154 O155 1.216 . S
O155 C154 1.216 . S
H156 C151 0.930 . S
H157 C152 0.930 . S
O158 Cu138 1.959 . S
O158 C145 1.251 . S
H159 C142 0.930 . S
H160 C153 0.929 . S
Cu161 N162 1.999 . S
Cu161 O167 1.974 . S
Cu161 N172 1.985 . S
Cu161 O181 1.959 . S
N162 Cu161 1.999 . S
N162 C164 1.263 . S
N162 C166 1.389 . S
N163 C164 1.358 . S
N163 C165 1.400 1_565 S
C164 N162 1.263 . S
C164 N163 1.358 . S
C164 H170 0.930 . S
C165 N163 1.400 1_545 S
C165 C166 1.351 1_545 S
C165 H182 0.930 . S
C166 N162 1.389 . S
C166 C165 1.351 1_565 S
C166 H171 0.930 . S
O167 Cu161 1.974 . S
O167 C177 1.282 . S
C168 O169 1.261 . S
C168 O181 1.251 . S
O169 C168 1.261 . S
H170 C164 0.930 . S
H171 C166 0.930 . S
N172 Cu161 1.985 . S
N172 C174 1.335 . S
N172 C175 1.390 . S
N173 C174 1.345 . S
N173 C176 1.336 . S
C174 N172 1.335 . S
C174 N173 1.345 . S
C174 H179 0.930 . S
C175 N172 1.390 . S
C175 C176 1.346 . S
C175 H180 0.930 . S
C176 N173 1.336 . S
C176 C175 1.346 . S
C176 H183 0.929 . S
C177 O167 1.282 . S
C177 O178 1.216 . S
O178 C177 1.216 . S
H179 C174 0.930 . S
H180 C175 0.930 . S
O181 Cu161 1.959 . S
O181 C168 1.251 . S
H182 C165 0.930 . S
H183 C176 0.929 . S
Cu184 N185 1.999 . S
Cu184 O190 1.974 . S
Cu184 N195 1.985 . S
Cu184 O204 1.959 . S
N185 Cu184 1.999 . S
N185 C187 1.263 . S
N185 C189 1.389 . S
N186 C187 1.358 . S
N186 C188 1.400 1_455 S
C187 N185 1.263 . S
C187 N186 1.358 . S
C187 H193 0.930 . S
C188 N186 1.400 1_655 S
C188 C189 1.351 1_655 S
C188 H205 0.930 . S
C189 N185 1.389 . S
C189 C188 1.351 1_455 S
C189 H194 0.916 1_455 S
O190 Cu184 1.974 . S
O190 C200 1.282 . S
C191 O192 1.261 . S
C191 O204 1.251 . S
O192 C191 1.261 . S
H193 C187 0.930 . S
H194 C189 0.916 1_655 S
N195 Cu184 1.985 . S
N195 C197 1.335 . S
N195 C198 1.390 . S
N196 C197 1.345 . S
N196 C199 1.336 . S
C197 N195 1.335 . S
C197 N196 1.345 . S
C197 H202 0.930 . S
C198 N195 1.390 . S
C198 C199 1.346 . S
C198 H203 0.930 . S
C199 N196 1.336 . S
C199 C198 1.346 . S
C199 H206 0.929 . S
C200 O190 1.282 . S
C200 O201 1.216 . S
O201 C200 1.216 . S
H202 C197 0.930 . S
H203 C198 0.930 . S
O204 Cu184 1.959 . S
O204 C191 1.251 . S
H205 C188 0.930 . S
H206 C199 0.929 . S
Cu207 N208 1.999 . S
Cu207 O213 1.974 . S
Cu207 N218 1.985 . S
Cu207 O227 1.959 . S
N208 Cu207 1.999 . S
N208 C210 1.263 . S
N208 C212 1.389 . S
N209 C210 1.358 . S
N209 C211 1.400 . S
C210 N208 1.263 . S
C210 N209 1.358 . S
C210 H216 0.930 . S
C211 N209 1.400 . S
C211 C212 1.351 . S
C211 H228 0.930 . S
C212 N208 1.389 . S
C212 C211 1.351 . S
C212 H217 0.930 . S
O213 Cu207 1.974 . S
O213 C223 1.282 . S
C214 O215 1.261 . S
C214 O227 1.251 . S
O215 C214 1.261 . S
H216 C210 0.930 . S
H217 C212 0.930 . S
N218 Cu207 1.985 . S
N218 C220 1.335 . S
N218 C221 1.390 . S
N219 C220 1.345 . S
N219 C222 1.336 . S
C220 N218 1.335 . S
C220 N219 1.345 . S
C220 H225 0.930 . S
C221 N218 1.390 . S
C221 C222 1.346 . S
C221 H226 0.930 . S
C222 N219 1.336 . S
C222 C221 1.346 . S
C222 H229 0.929 . S
C223 O213 1.282 . S
C223 O224 1.216 . S
O224 C223 1.216 . S
H225 C220 0.930 . S
H226 C221 0.930 . S
O227 Cu207 1.959 . S
O227 C214 1.251 . S
H228 C211 0.930 . S
H229 C222 0.929 . S
Cu230 N231 1.999 . S
Cu230 O236 1.974 . S
Cu230 N241 1.985 . S
Cu230 O250 1.959 . S
N231 Cu230 1.999 . S
N231 C233 1.263 . S
N231 C235 1.389 . S
N232 C233 1.358 . S
N232 C234 1.400 1_545 S
C233 N231 1.263 . S
C233 N232 1.358 . S
C233 H239 0.930 . S
C234 N232 1.400 1_565 S
C234 C235 1.351 1_565 S
C234 H251 0.930 . S
C235 N231 1.389 . S
C235 C234 1.351 1_545 S
C235 H240 0.930 . S
O236 Cu230 1.974 . S
O236 C246 1.282 . S
C237 O238 1.261 . S
C237 O250 1.251 . S
O238 C237 1.261 . S
H239 C233 0.930 . S
H240 C235 0.930 . S
N241 Cu230 1.985 . S
N241 C243 1.335 . S
N241 C244 1.390 . S
N242 C243 1.345 . S
N242 C245 1.336 . S
C243 N241 1.335 . S
C243 N242 1.345 . S
C243 H248 0.930 . S
C244 N241 1.390 . S
C244 C245 1.346 . S
C244 H249 0.930 . S
C245 N242 1.336 . S
C245 C244 1.346 . S
C245 H252 0.929 . S
C246 O236 1.282 . S
C246 O247 1.216 . S
O247 C246 1.216 . S
H248 C243 0.930 . S
H249 C244 0.930 . S
O250 Cu230 1.959 . S
O250 C237 1.251 . S
H251 C234 0.930 . S
H252 C245 0.929 . S
Cu253 N254 1.999 . S
Cu253 O259 1.974 . S
Cu253 N264 1.985 . S
Cu253 O273 1.959 . S
N254 Cu253 1.999 . S
N254 C256 1.263 . S
N254 C258 1.389 . S
N255 C256 1.358 . S
N255 C257 1.400 1_655 S
C256 N254 1.263 . S
C256 N255 1.358 . S
C256 H262 0.930 . S
C257 N255 1.400 1_455 S
C257 C258 1.351 1_455 S
C257 H274 0.930 . S
C258 N254 1.389 . S
C258 C257 1.351 1_655 S
C258 H263 0.930 . S
O259 Cu253 1.974 . S
O259 C269 1.282 . S
C260 O261 1.261 . S
C260 O273 1.251 . S
O261 C260 1.261 . S
H262 C256 0.930 . S
H263 C258 0.930 . S
N264 Cu253 1.985 . S
N264 C266 1.335 . S
N264 C267 1.390 . S
N265 C266 1.345 . S
N265 C268 1.336 . S
C266 N264 1.335 . S
C266 N265 1.345 . S
C266 H271 0.930 . S
C267 N264 1.390 . S
C267 C268 1.346 . S
C267 H272 0.930 . S
C268 N265 1.336 . S
C268 C267 1.346 . S
C268 H275 0.929 . S
C269 O259 1.282 . S
C269 O270 1.216 . S
O270 C269 1.216 . S
H271 C266 0.930 . S
H272 C267 0.930 . S
O273 Cu253 1.959 . S
O273 C260 1.251 . S
H274 C257 0.930 . S
H275 C268 0.929 . S
Cu276 N277 1.999 . S
Cu276 O282 1.974 . S
Cu276 N287 1.985 . S
Cu276 O296 1.959 . S
N277 Cu276 1.999 . S
N277 C279 1.263 . S
N277 C281 1.389 . S
N278 C279 1.358 . S
N278 C280 1.400 . S
C279 N277 1.263 . S
C279 N278 1.358 . S
C279 H285 0.930 . S
C280 N278 1.400 . S
C280 C281 1.351 . S
C280 H297 0.930 . S
C281 N277 1.389 . S
C281 C280 1.351 . S
C281 H286 0.930 . S
O282 Cu276 1.974 . S
O282 C292 1.282 . S
C283 O284 1.261 . S
C283 O296 1.251 . S
O284 C283 1.261 . S
H285 C279 0.930 . S
H286 C281 0.930 . S
N287 Cu276 1.985 . S
N287 C289 1.335 . S
N287 C290 1.390 . S
N288 C289 1.345 . S
N288 C291 1.336 . S
C289 N287 1.335 . S
C289 N288 1.345 . S
C289 H294 0.930 . S
C290 N287 1.390 . S
C290 C291 1.346 . S
C290 H295 0.930 . S
C291 N288 1.336 . S
C291 C290 1.346 . S
C291 H298 0.929 . S
C292 O282 1.282 . S
C292 O293 1.216 . S
O293 C292 1.216 . S
H294 C289 0.930 . S
H295 C290 0.930 . S
O296 Cu276 1.959 . S
O296 C283 1.251 . S
H297 C280 0.930 . S
H298 C291 0.929 . S
Cu299 N300 1.999 . S
Cu299 O305 1.974 . S
Cu299 N310 1.985 . S
Cu299 O319 1.959 . S
N300 Cu299 1.999 . S
N300 C302 1.263 . S
N300 C304 1.389 . S
N301 C302 1.358 . S
N301 C303 1.400 . S
C302 N300 1.263 . S
C302 N301 1.358 . S
C302 H308 0.930 . S
C303 N301 1.400 . S
C303 C304 1.351 . S
C303 H320 0.930 . S
C304 N300 1.389 . S
C304 C303 1.351 . S
C304 H309 0.930 . S
O305 Cu299 1.974 . S
O305 C315 1.282 . S
C306 O307 1.261 . S
C306 O319 1.251 . S
O307 C306 1.261 . S
H308 C302 0.930 . S
H309 C304 0.930 . S
N310 Cu299 1.985 . S
N310 C312 1.335 . S
N310 C313 1.390 . S
N311 C312 1.345 . S
N311 C314 1.336 . S
C312 N310 1.335 . S
C312 N311 1.345 . S
C312 H317 0.930 . S
C313 N310 1.390 . S
C313 C314 1.346 . S
C313 H318 0.930 . S
C314 N311 1.336 . S
C314 C313 1.346 . S
C314 H321 0.929 . S
C315 O305 1.282 . S
C315 O316 1.216 . S
O316 C315 1.216 . S
H317 C312 0.930 . S
H318 C313 0.930 . S
O319 Cu299 1.959 . S
O319 C306 1.251 . S
H320 C303 0.930 . S
H321 C314 0.929 . S
Cu322 N323 1.999 . S
Cu322 O328 1.974 . S
Cu322 N333 1.985 . S
Cu322 O342 1.959 . S
N323 Cu322 1.999 . S
N323 C325 1.263 . S
N323 C327 1.389 . S
N324 C325 1.358 . S
N324 C326 1.400 . S
C325 N323 1.263 . S
C325 N324 1.358 . S
C325 H331 0.930 . S
C326 N324 1.400 . S
C326 C327 1.351 . S
C326 H343 0.930 . S
C327 N323 1.389 . S
C327 C326 1.351 . S
C327 H332 0.930 . S
O328 Cu322 1.974 . S
O328 C338 1.282 . S
C329 O330 1.261 . S
C329 O342 1.251 . S
O330 C329 1.261 . S
H331 C325 0.930 . S
H332 C327 0.930 . S
N333 Cu322 1.985 . S
N333 C335 1.335 . S
N333 C336 1.390 . S
N334 C335 1.345 . S
N334 C337 1.336 . S
C335 N333 1.335 . S
C335 N334 1.345 . S
C335 H340 0.930 . S
C336 N333 1.390 . S
C336 C337 1.346 . S
C336 H341 0.930 . S
C337 N334 1.336 . S
C337 C336 1.346 . S
C337 H344 0.929 . S
C338 O328 1.282 . S
C338 O339 1.216 . S
O339 C338 1.216 . S
H340 C335 0.930 . S
H341 C336 0.930 . S
O342 Cu322 1.959 . S
O342 C329 1.251 . S
H343 C326 0.930 . S
H344 C337 0.929 . S
Cu345 N346 1.999 . S
Cu345 O351 1.974 . S
Cu345 N356 1.985 . S
Cu345 O365 1.959 . S
N346 Cu345 1.999 . S
N346 C348 1.263 . S
N346 C350 1.389 . S
N347 C348 1.358 . S
N347 C349 1.400 . S
C348 N346 1.263 . S
C348 N347 1.358 . S
C348 H354 0.930 . S
C349 N347 1.400 . S
C349 C350 1.351 . S
C349 H366 0.930 . S
C350 N346 1.389 . S
C350 C349 1.351 . S
C350 H355 0.930 . S
O351 Cu345 1.974 . S
O351 C361 1.282 . S
C352 O353 1.261 . S
C352 O365 1.251 . S
O353 C352 1.261 . S
H354 C348 0.930 . S
H355 C350 0.930 . S
N356 Cu345 1.985 . S
N356 C358 1.335 . S
N356 C359 1.390 . S
N357 C358 1.345 . S
N357 C360 1.336 . S
C358 N356 1.335 . S
C358 N357 1.345 . S
C358 H363 0.930 . S
C359 N356 1.390 . S
C359 C360 1.346 . S
C359 H364 0.930 . S
C360 N357 1.336 . S
C360 C359 1.346 . S
C360 H367 0.929 . S
C361 O351 1.282 . S
C361 O362 1.216 . S
O362 C361 1.216 . S
H363 C358 0.930 . S
H364 C359 0.930 . S
O365 Cu345 1.959 . S
O365 C352 1.251 . S
H366 C349 0.930 . S
H367 C360 0.929 . S
Cu368 N369 1.999 . S
Cu368 O374 1.974 . S
Cu368 N379 1.985 . S
Cu368 O388 1.959 . S
N369 Cu368 1.999 . S
N369 C371 1.263 . S
N369 C373 1.389 . S
N370 C371 1.358 . S
N370 C372 1.400 . S
C371 N369 1.263 . S
C371 N370 1.358 . S
C371 H377 0.930 . S
C372 N370 1.400 . S
C372 C373 1.351 . S
C372 H389 0.930 . S
C373 N369 1.389 . S
C373 C372 1.351 . S
C373 H378 0.930 . S
O374 Cu368 1.974 . S
O374 C384 1.282 . S
C375 O376 1.261 . S
C375 O388 1.251 . S
O376 C375 1.261 . S
H377 C371 0.930 . S
H378 C373 0.930 . S
N379 Cu368 1.985 . S
N379 C381 1.335 . S
N379 C382 1.390 . S
N380 C381 1.345 . S
N380 C383 1.336 . S
C381 N379 1.335 . S
C381 N380 1.345 . S
C381 H386 0.930 . S
C382 N379 1.390 . S
C382 C383 1.346 . S
C382 H387 0.930 . S
C383 N380 1.336 . S
C383 C382 1.346 . S
C383 H390 0.929 . S
C384 O374 1.282 . S
C384 O385 1.216 . S
O385 C384 1.216 . S
H386 C381 0.930 . S
H387 C382 0.930 . S
O388 Cu368 1.959 . S
O388 C375 1.251 . S
H389 C372 0.930 . S
H390 C383 0.929 . S
Cu391 N392 1.999 . S
Cu391 O397 1.974 . S
Cu391 N402 1.985 . S
Cu391 O411 1.959 . S
N392 Cu391 1.999 . S
N392 C394 1.263 . S
N392 C396 1.389 . S
N393 C394 1.358 . S
N393 C395 1.400 . S
C394 N392 1.263 . S
C394 N393 1.358 . S
C394 H400 0.930 . S
C395 N393 1.400 . S
C395 C396 1.351 . S
C395 H412 0.930 . S
C396 N392 1.389 . S
C396 C395 1.351 . S
C396 H401 0.930 . S
O397 Cu391 1.974 . S
O397 C407 1.282 . S
C398 O399 1.261 . S
C398 O411 1.251 . S
O399 C398 1.261 . S
H400 C394 0.930 . S
H401 C396 0.930 . S
N402 Cu391 1.985 . S
N402 C404 1.335 . S
N402 C405 1.390 . S
N403 C404 1.345 . S
N403 C406 1.336 . S
C404 N402 1.335 . S
C404 N403 1.345 . S
C404 H409 0.930 . S
C405 N402 1.390 . S
C405 C406 1.346 . S
C405 H410 0.930 . S
C406 N403 1.336 . S
C406 C405 1.346 . S
C406 H413 0.929 . S
C407 O397 1.282 . S
C407 O408 1.216 . S
O408 C407 1.216 . S
H409 C404 0.930 . S
H410 C405 0.930 . S
O411 Cu391 1.959 . S
O411 C398 1.251 . S
H412 C395 0.930 . S
H413 C406 0.929 . S
Cu414 N415 1.999 . S
Cu414 O420 1.974 . S
Cu414 N425 1.985 . S
Cu414 O434 1.959 . S
N415 Cu414 1.999 . S
N415 C417 1.263 . S
N415 C419 1.389 . S
N416 C417 1.358 . S
N416 C418 1.400 . S
C417 N415 1.263 . S
C417 N416 1.358 . S
C417 H423 0.930 . S
C418 N416 1.400 . S
C418 C419 1.351 . S
C418 H435 0.930 . S
C419 N415 1.389 . S
C419 C418 1.351 . S
C419 H424 0.930 . S
O420 Cu414 1.974 . S
O420 C430 1.282 . S
C421 O422 1.261 . S
C421 O434 1.251 . S
O422 C421 1.261 . S
H423 C417 0.930 . S
H424 C419 0.930 . S
N425 Cu414 1.985 . S
N425 C427 1.335 . S
N425 C428 1.390 . S
N426 C427 1.345 . S
N426 C429 1.336 . S
C427 N425 1.335 . S
C427 N426 1.345 . S
C427 H432 0.930 . S
C428 N425 1.390 . S
C428 C429 1.346 . S
C428 H433 0.930 . S
C429 N426 1.336 . S
C429 C428 1.346 . S
C429 H436 0.929 . S
C430 O420 1.282 . S
C430 O431 1.216 . S
O431 C430 1.216 . S
H432 C427 0.930 . S
H433 C428 0.930 . S
O434 Cu414 1.959 . S
O434 C421 1.251 . S
H435 C418 0.930 . S
H436 C429 0.929 . S
Cu437 N438 1.999 . S
Cu437 O443 1.974 . S
Cu437 N448 1.985 . S
Cu437 O457 1.959 . S
N438 Cu437 1.999 . S
N438 C440 1.263 . S
N438 C442 1.389 . S
N439 C440 1.358 . S
N439 C441 1.400 . S
C440 N438 1.263 . S
C440 N439 1.358 . S
C440 H446 0.930 . S
C441 N439 1.400 . S
C441 C442 1.351 . S
C441 H458 0.930 . S
C442 N438 1.389 . S
C442 C441 1.351 . S
C442 H447 0.930 . S
O443 Cu437 1.974 . S
O443 C453 1.282 . S
C444 O445 1.261 . S
C444 O457 1.251 . S
O445 C444 1.261 . S
H446 C440 0.930 . S
H447 C442 0.930 . S
N448 Cu437 1.985 . S
N448 C450 1.335 . S
N448 C451 1.390 . S
N449 C450 1.345 . S
N449 C452 1.336 . S
C450 N448 1.335 . S
C450 N449 1.345 . S
C450 H455 0.930 . S
C451 N448 1.390 . S
C451 C452 1.346 . S
C451 H456 0.930 . S
C452 N449 1.336 . S
C452 C451 1.346 . S
C452 H459 0.929 . S
C453 O443 1.282 . S
C453 O454 1.216 . S
O454 C453 1.216 . S
H455 C450 0.930 . S
H456 C451 0.930 . S
O457 Cu437 1.959 . S
O457 C444 1.251 . S
H458 C441 0.930 . S
H459 C452 0.929 . S
Cu460 N461 1.999 . S
Cu460 O466 1.974 . S
Cu460 N471 1.985 . S
Cu460 O480 1.959 . S
N461 Cu460 1.999 . S
N461 C463 1.263 . S
N461 C465 1.389 . S
N462 C463 1.358 . S
N462 C464 1.400 . S
C463 N461 1.263 . S
C463 N462 1.358 . S
C463 H469 0.930 . S
C464 N462 1.400 . S
C464 C465 1.351 . S
C464 H481 0.930 . S
C465 N461 1.389 . S
C465 C464 1.351 . S
C465 H470 0.930 . S
O466 Cu460 1.974 . S
O466 C476 1.282 . S
C467 O468 1.261 . S
C467 O480 1.251 . S
O468 C467 1.261 . S
H469 C463 0.930 . S
H470 C465 0.930 . S
N471 Cu460 1.985 . S
N471 C473 1.335 . S
N471 C474 1.390 . S
N472 C473 1.345 . S
N472 C475 1.336 . S
C473 N471 1.335 . S
C473 N472 1.345 . S
C473 H478 0.930 . S
C474 N471 1.390 . S
C474 C475 1.346 . S
C474 H479 0.930 . S
C475 N472 1.336 . S
C475 C474 1.346 . S
C475 H482 0.929 . S
C476 O466 1.282 . S
C476 O477 1.216 . S
O477 C476 1.216 . S
H478 C473 0.930 . S
H479 C474 0.930 . S
O480 Cu460 1.959 . S
O480 C467 1.251 . S
H481 C464 0.930 . S
H482 C475 0.929 . S
Cu483 N484 1.999 . S
Cu483 O489 1.974 . S
Cu483 N494 1.985 . S
Cu483 O503 1.959 . S
N484 Cu483 1.999 . S
N484 C486 1.263 . S
N484 C488 1.389 . S
N485 C486 1.358 . S
N485 C487 1.400 . S
C486 N484 1.263 . S
C486 N485 1.358 . S
C486 H492 0.930 . S
C487 N485 1.400 . S
C487 C488 1.351 . S
C487 H504 0.930 . S
C488 N484 1.389 . S
C488 C487 1.351 . S
C488 H493 0.930 . S
O489 Cu483 1.974 . S
O489 C499 1.282 . S
C490 O491 1.261 . S
C490 O503 1.251 . S
O491 C490 1.261 . S
H492 C486 0.930 . S
H493 C488 0.930 . S
N494 Cu483 1.985 . S
N494 C496 1.335 . S
N494 C497 1.390 . S
N495 C496 1.345 . S
N495 C498 1.336 . S
C496 N494 1.335 . S
C496 N495 1.345 . S
C496 H501 0.930 . S
C497 N494 1.390 . S
C497 C498 1.346 . S
C497 H502 0.930 . S
C498 N495 1.336 . S
C498 C497 1.346 . S
C498 H505 0.929 . S
C499 O489 1.282 . S
C499 O500 1.216 . S
O500 C499 1.216 . S
H501 C496 0.930 . S
H502 C497 0.930 . S
O503 Cu483 1.959 . S
O503 C490 1.251 . S
H504 C487 0.930 . S
H505 C498 0.929 . S
Cu506 N507 1.999 . S
Cu506 O512 1.974 . S
Cu506 N517 1.985 . S
Cu506 O526 1.959 . S
N507 Cu506 1.999 . S
N507 C509 1.263 . S
N507 C511 1.389 . S
N508 C509 1.358 . S
N508 C510 1.400 . S
C509 N507 1.263 . S
C509 N508 1.358 . S
C509 H515 0.930 . S
C510 N508 1.400 . S
C510 C511 1.351 . S
C510 H527 0.930 . S
C511 N507 1.389 . S
C511 C510 1.351 . S
C511 H516 0.930 . S
O512 Cu506 1.974 . S
O512 C522 1.282 . S
C513 O514 1.261 . S
C513 O526 1.251 . S
O514 C513 1.261 . S
H515 C509 0.930 . S
H516 C511 0.930 . S
N517 Cu506 1.985 . S
N517 C519 1.335 . S
N517 C520 1.390 . S
N518 C519 1.345 . S
N518 C521 1.336 . S
C519 N517 1.335 . S
C519 N518 1.345 . S
C519 H524 0.930 . S
C520 N517 1.390 . S
C520 C521 1.346 . S
C520 H525 0.930 . S
C521 N518 1.336 . S
C521 C520 1.346 . S
C521 H528 0.929 . S
C522 O512 1.282 . S
C522 O523 1.216 . S
O523 C522 1.216 . S
H524 C519 0.930 . S
H525 C520 0.930 . S
O526 Cu506 1.959 . S
O526 C513 1.251 . S
H527 C510 0.930 . S
H528 C521 0.929 . S
Cu529 N530 1.999 . S
Cu529 O535 1.974 . S
Cu529 N540 1.985 . S
Cu529 O549 1.959 . S
N530 Cu529 1.999 . S
N530 C532 1.263 . S
N530 C534 1.389 . S
N531 C532 1.358 . S
N531 C533 1.400 . S
C532 N530 1.263 . S
C532 N531 1.358 . S
C532 H538 0.930 . S
C533 N531 1.400 . S
C533 C534 1.351 . S
C533 H550 0.930 . S
C534 N530 1.389 . S
C534 C533 1.351 . S
C534 H539 0.930 . S
O535 Cu529 1.974 . S
O535 C545 1.282 . S
C536 O537 1.261 . S
C536 O549 1.251 . S
O537 C536 1.261 . S
H538 C532 0.930 . S
H539 C534 0.930 . S
N540 Cu529 1.985 . S
N540 C542 1.335 . S
N540 C543 1.390 . S
N541 C542 1.345 . S
N541 C544 1.336 . S
C542 N540 1.335 . S
C542 N541 1.345 . S
C542 H547 0.930 . S
C543 N540 1.390 . S
C543 C544 1.346 . S
C543 H548 0.930 . S
C544 N541 1.336 . S
C544 C543 1.346 . S
C544 H551 0.929 . S
C545 O535 1.282 . S
C545 O546 1.216 . S
O546 C545 1.216 . S
H547 C542 0.930 . S
H548 C543 0.930 . S
O549 Cu529 1.959 . S
O549 C536 1.251 . S
H550 C533 0.930 . S
H551 C544 0.929 . S
Cu552 N553 1.999 . S
Cu552 O558 1.974 . S
Cu552 N563 1.985 . S
Cu552 O572 1.959 . S
N553 Cu552 1.999 . S
N553 C555 1.263 . S
N553 C557 1.389 . S
N554 C555 1.358 . S
N554 C556 1.400 . S
C555 N553 1.263 . S
C555 N554 1.358 . S
C555 H561 0.930 . S
C556 N554 1.400 . S
C556 C557 1.351 . S
C556 H573 0.930 . S
C557 N553 1.389 . S
C557 C556 1.351 . S
C557 H562 0.930 . S
O558 Cu552 1.974 . S
O558 C568 1.282 . S
C559 O560 1.261 . S
C559 O572 1.251 . S
O560 C559 1.261 . S
H561 C555 0.930 . S
H562 C557 0.930 . S
N563 Cu552 1.985 . S
N563 C565 1.335 . S
N563 C566 1.390 . S
N564 C565 1.345 . S
N564 C567 1.336 . S
C565 N563 1.335 . S
C565 N564 1.345 . S
C565 H570 0.930 . S
C566 N563 1.390 . S
C566 C567 1.346 . S
C566 H571 0.930 . S
C567 N564 1.336 . S
C567 C566 1.346 . S
C567 H574 0.929 . S
C568 O558 1.282 . S
C568 O569 1.216 . S
O569 C568 1.216 . S
H570 C565 0.930 . S
H571 C566 0.930 . S
O572 Cu552 1.959 . S
O572 C559 1.251 . S
H573 C556 0.930 . S
H574 C567 0.929 . S
Cu575 N576 1.999 . S
Cu575 O581 1.974 . S
Cu575 N586 1.985 . S
Cu575 O595 1.959 . S
N576 Cu575 1.999 . S
N576 C578 1.263 . S
N576 C580 1.389 . S
N577 C578 1.358 . S
N577 C579 1.400 . S
C578 N576 1.263 . S
C578 N577 1.358 . S
C578 H584 0.930 . S
C579 N577 1.400 . S
C579 C580 1.351 . S
C579 H596 0.930 . S
C580 N576 1.389 . S
C580 C579 1.351 . S
C580 H585 0.930 . S
O581 Cu575 1.974 . S
O581 C591 1.282 . S
C582 O583 1.261 . S
C582 O595 1.251 . S
O583 C582 1.261 . S
H584 C578 0.930 . S
H585 C580 0.930 . S
N586 Cu575 1.985 . S
N586 C588 1.335 . S
N586 C589 1.390 . S
N587 C588 1.345 . S
N587 C590 1.336 . S
C588 N586 1.335 . S
C588 N587 1.345 . S
C588 H593 0.930 . S
C589 N586 1.390 . S
C589 C590 1.346 . S
C589 H594 0.930 . S
C590 N587 1.336 . S
C590 C589 1.346 . S
C590 H597 0.929 . S
C591 O581 1.282 . S
C591 O592 1.216 . S
O592 C591 1.216 . S
H593 C588 0.930 . S
H594 C589 0.930 . S
O595 Cu575 1.959 . S
O595 C582 1.251 . S
H596 C579 0.930 . S
H597 C590 0.929 . S
Cu598 N599 1.999 . S
Cu598 O604 1.974 . S
Cu598 N609 1.985 . S
Cu598 O618 1.959 . S
N599 Cu598 1.999 . S
N599 C601 1.263 . S
N599 C603 1.389 . S
N600 C601 1.358 . S
N600 C602 1.400 . S
C601 N599 1.263 . S
C601 N600 1.358 . S
C601 H607 0.930 . S
C602 N600 1.400 . S
C602 C603 1.351 . S
C602 H619 0.930 . S
C603 N599 1.389 . S
C603 C602 1.351 . S
C603 H608 0.930 . S
O604 Cu598 1.974 . S
O604 C614 1.282 . S
C605 O606 1.261 . S
C605 O618 1.251 . S
O606 C605 1.261 . S
H607 C601 0.930 . S
H608 C603 0.930 . S
N609 Cu598 1.985 . S
N609 C611 1.335 . S
N609 C612 1.390 . S
N610 C611 1.345 . S
N610 C613 1.336 . S
C611 N609 1.335 . S
C611 N610 1.345 . S
C611 H616 0.930 . S
C612 N609 1.390 . S
C612 C613 1.346 . S
C612 H617 0.930 . S
C613 N610 1.336 . S
C613 C612 1.346 . S
C613 H620 0.929 . S
C614 O604 1.282 . S
C614 O615 1.216 . S
O615 C614 1.216 . S
H616 C611 0.930 . S
H617 C612 0.930 . S
O618 Cu598 1.959 . S
O618 C605 1.251 . S
H619 C602 0.930 . S
H620 C613 0.929 . S
Cu621 N622 1.999 . S
Cu621 O627 1.974 . S
Cu621 N632 1.985 . S
Cu621 O641 1.959 . S
N622 Cu621 1.999 . S
N622 C624 1.263 . S
N622 C626 1.389 . S
N623 C624 1.358 . S
N623 C625 1.400 . S
C624 N622 1.263 . S
C624 N623 1.358 . S
C624 H630 0.930 . S
C625 N623 1.400 . S
C625 C626 1.351 . S
C625 H642 0.930 . S
C626 N622 1.389 . S
C626 C625 1.351 . S
C626 H631 0.930 . S
O627 Cu621 1.974 . S
O627 C637 1.282 . S
C628 O629 1.261 . S
C628 O641 1.251 . S
O629 C628 1.261 . S
H630 C624 0.930 . S
H631 C626 0.930 . S
N632 Cu621 1.985 . S
N632 C634 1.335 . S
N632 C635 1.390 . S
N633 C634 1.345 . S
N633 C636 1.336 . S
C634 N632 1.335 . S
C634 N633 1.345 . S
C634 H639 0.930 . S
C635 N632 1.390 . S
C635 C636 1.346 . S
C635 H640 0.930 . S
C636 N633 1.336 . S
C636 C635 1.346 . S
C636 H643 0.929 . S
C637 O627 1.282 . S
C637 O638 1.216 . S
O638 C637 1.216 . S
H639 C634 0.930 . S
H640 C635 0.930 . S
O641 Cu621 1.959 . S
O641 C628 1.251 . S
H642 C625 0.930 . S
H643 C636 0.929 . S
Cu644 N645 1.999 . S
Cu644 O650 1.974 . S
Cu644 N655 1.985 . S
Cu644 O664 1.959 . S
N645 Cu644 1.999 . S
N645 C647 1.263 . S
N645 C649 1.389 . S
N646 C647 1.358 . S
N646 C648 1.400 . S
C647 N645 1.263 . S
C647 N646 1.358 . S
C647 H653 0.930 . S
C648 N646 1.400 . S
C648 C649 1.351 . S
C648 H665 0.930 . S
C649 N645 1.389 . S
C649 C648 1.351 . S
C649 H654 0.930 . S
O650 Cu644 1.974 . S
O650 C660 1.282 . S
C651 O652 1.261 . S
C651 O664 1.251 . S
O652 C651 1.261 . S
H653 C647 0.930 . S
H654 C649 0.930 . S
N655 Cu644 1.985 . S
N655 C657 1.335 . S
N655 C658 1.390 . S
N656 C657 1.345 . S
N656 C659 1.336 . S
C657 N655 1.335 . S
C657 N656 1.345 . S
C657 H662 0.930 . S
C658 N655 1.390 . S
C658 C659 1.346 . S
C658 H663 0.930 . S
C659 N656 1.336 . S
C659 C658 1.346 . S
C659 H666 0.929 . S
C660 O650 1.282 . S
C660 O661 1.216 . S
O661 C660 1.216 . S
H662 C657 0.930 . S
H663 C658 0.930 . S
O664 Cu644 1.959 . S
O664 C651 1.251 . S
H665 C648 0.930 . S
H666 C659 0.929 . S
Cu667 N668 1.999 . S
Cu667 O673 1.974 . S
Cu667 N678 1.985 . S
Cu667 O687 1.959 . S
N668 Cu667 1.999 . S
N668 C670 1.263 . S
N668 C672 1.389 . S
N669 C670 1.358 . S
N669 C671 1.400 . S
C670 N668 1.263 . S
C670 N669 1.358 . S
C670 H676 0.930 . S
C671 N669 1.400 . S
C671 C672 1.351 . S
C671 H688 0.930 1_554 S
C672 N668 1.389 . S
C672 C671 1.351 . S
C672 H677 0.930 . S
O673 Cu667 1.974 . S
O673 C683 1.282 . S
C674 O675 1.261 . S
C674 O687 1.251 . S
O675 C674 1.261 . S
H676 C670 0.930 . S
H677 C672 0.930 . S
N678 Cu667 1.985 . S
N678 C680 1.335 . S
N678 C681 1.390 . S
N679 C680 1.345 . S
N679 C682 1.336 . S
C680 N678 1.335 . S
C680 N679 1.345 . S
C680 H685 0.930 . S
C681 N678 1.390 . S
C681 C682 1.346 . S
C681 H686 0.930 . S
C682 N679 1.336 . S
C682 C681 1.346 . S
C682 H689 0.929 . S
C683 O673 1.282 . S
C683 O684 1.216 . S
O684 C683 1.216 . S
H685 C680 0.930 . S
H686 C681 0.930 . S
O687 Cu667 1.959 . S
O687 C674 1.251 . S
H688 C671 0.930 1_556 S
H689 C682 0.929 . S
Cu690 N691 1.999 . S
Cu690 O696 1.974 . S
Cu690 N701 1.985 . S
Cu690 O710 1.959 . S
N691 Cu690 1.999 . S
N691 C693 1.263 . S
N691 C695 1.389 . S
N692 C693 1.358 . S
N692 C694 1.400 . S
C693 N691 1.263 . S
C693 N692 1.358 . S
C693 H699 0.930 . S
C694 N692 1.400 . S
C694 C695 1.351 . S
C694 H711 0.930 . S
C695 N691 1.389 . S
C695 C694 1.351 . S
C695 H700 0.930 . S
O696 Cu690 1.974 . S
O696 C706 1.282 . S
C697 O698 1.261 . S
C697 O710 1.251 . S
O698 C697 1.261 . S
H699 C693 0.930 . S
H700 C695 0.930 . S
N701 Cu690 1.985 . S
N701 C703 1.335 . S
N701 C704 1.390 . S
N702 C703 1.345 . S
N702 C705 1.336 . S
C703 N701 1.335 . S
C703 N702 1.345 . S
C703 H708 0.930 . S
C704 N701 1.390 . S
C704 C705 1.346 . S
C704 H709 0.930 . S
C705 N702 1.336 . S
C705 C704 1.346 . S
C705 H712 0.929 . S
C706 O696 1.282 . S
C706 O707 1.216 . S
O707 C706 1.216 . S
H708 C703 0.930 . S
H709 C704 0.930 . S
O710 Cu690 1.959 . S
O710 C697 1.251 . S
H711 C694 0.930 . S
H712 C705 0.929 . S
Cu713 N714 1.999 . S
Cu713 O719 1.974 . S
Cu713 N724 1.985 . S
Cu713 O733 1.959 . S
N714 Cu713 1.999 . S
N714 C716 1.263 . S
N714 C718 1.389 . S
N715 C716 1.358 . S
N715 C717 1.400 . S
C716 N714 1.263 . S
C716 N715 1.358 . S
C716 H722 0.930 . S
C717 N715 1.400 . S
C717 C718 1.351 . S
C717 H734 0.930 . S
C718 N714 1.389 . S
C718 C717 1.351 . S
C718 H723 0.930 . S
O719 Cu713 1.974 . S
O719 C729 1.282 . S
C720 O721 1.261 . S
C720 O733 1.251 . S
O721 C720 1.261 . S
H722 C716 0.930 . S
H723 C718 0.930 . S
N724 Cu713 1.985 . S
N724 C726 1.335 . S
N724 C727 1.390 . S
N725 C726 1.345 . S
N725 C728 1.336 . S
C726 N724 1.335 . S
C726 N725 1.345 . S
C726 H731 0.930 . S
C727 N724 1.390 . S
C727 C728 1.346 . S
C727 H732 0.930 . S
C728 N725 1.336 . S
C728 C727 1.346 . S
C728 H735 0.929 . S
C729 O719 1.282 . S
C729 O730 1.216 . S
O730 C729 1.216 . S
H731 C726 0.930 . S
H732 C727 0.930 . S
O733 Cu713 1.959 . S
O733 C720 1.251 . S
H734 C717 0.930 . S
H735 C728 0.929 . S
Cu736 N737 1.999 . S
Cu736 O742 1.974 . S
Cu736 N747 1.985 . S
Cu736 O756 1.959 . S
N737 Cu736 1.999 . S
N737 C739 1.263 . S
N737 C741 1.389 . S
N738 C739 1.358 . S
N738 C740 1.400 . S
C739 N737 1.263 . S
C739 N738 1.358 . S
C739 H745 0.930 . S
C740 N738 1.400 . S
C740 C741 1.351 . S
C740 H757 0.930 . S
C741 N737 1.389 . S
C741 C740 1.351 . S
C741 H746 0.930 . S
O742 Cu736 1.974 . S
O742 C752 1.282 . S
C743 O744 1.261 . S
C743 O756 1.251 . S
O744 C743 1.261 . S
H745 C739 0.930 . S
H746 C741 0.930 . S
N747 Cu736 1.985 . S
N747 C749 1.335 . S
N747 C750 1.390 . S
N748 C749 1.345 . S
N748 C751 1.336 . S
C749 N747 1.335 . S
C749 N748 1.345 . S
C749 H754 0.930 . S
C750 N747 1.390 . S
C750 C751 1.346 . S
C750 H755 0.930 . S
C751 N748 1.336 . S
C751 C750 1.346 . S
C751 H758 0.929 . S
C752 O742 1.282 . S
C752 O753 1.216 . S
O753 C752 1.216 . S
H754 C749 0.930 . S
H755 C750 0.930 . S
O756 Cu736 1.959 . S
O756 C743 1.251 . S
H757 C740 0.930 . S
H758 C751 0.929 . S
Cu759 N760 1.999 . S
Cu759 O765 1.974 . S
Cu759 N770 1.985 . S
Cu759 O779 1.959 . S
N760 Cu759 1.999 . S
N760 C762 1.263 . S
N760 C764 1.389 . S
N761 C762 1.358 . S
N761 C763 1.400 . S
C762 N760 1.263 . S
C762 N761 1.358 . S
C762 H768 0.930 . S
C763 N761 1.400 . S
C763 C764 1.351 . S
C763 H780 0.930 . S
C764 N760 1.389 . S
C764 C763 1.351 . S
C764 H769 0.930 . S
O765 Cu759 1.974 . S
O765 C775 1.282 . S
C766 O767 1.261 . S
C766 O779 1.251 . S
O767 C766 1.261 . S
H768 C762 0.930 . S
H769 C764 0.930 . S
N770 Cu759 1.985 . S
N770 C772 1.335 . S
N770 C773 1.390 . S
N771 C772 1.345 . S
N771 C774 1.336 . S
C772 N770 1.335 . S
C772 N771 1.345 . S
C772 H777 0.930 . S
C773 N770 1.390 . S
C773 C774 1.346 . S
C773 H778 0.930 . S
C774 N771 1.336 . S
C774 C773 1.346 . S
C774 H781 0.929 . S
C775 O765 1.282 . S
C775 O776 1.216 . S
O776 C775 1.216 . S
H777 C772 0.930 . S
H778 C773 0.930 . S
O779 Cu759 1.959 . S
O779 C766 1.251 . S
H780 C763 0.930 . S
H781 C774 0.929 . S
Cu782 N783 1.999 . S
Cu782 O788 1.974 . S
Cu782 N793 1.985 . S
Cu782 O802 1.959 . S
N783 Cu782 1.999 . S
N783 C785 1.263 . S
N783 C787 1.389 . S
N784 C785 1.358 . S
N784 C786 1.400 . S
C785 N783 1.263 . S
C785 N784 1.358 . S
C785 H791 0.930 . S
C786 N784 1.400 . S
C786 C787 1.351 . S
C786 H803 0.930 . S
C787 N783 1.389 . S
C787 C786 1.351 . S
C787 H792 0.930 . S
O788 Cu782 1.974 . S
O788 C798 1.282 . S
C789 O790 1.261 . S
C789 O802 1.251 . S
O790 C789 1.261 . S
H791 C785 0.930 . S
H792 C787 0.930 . S
N793 Cu782 1.985 . S
N793 C795 1.335 . S
N793 C796 1.390 . S
N794 C795 1.345 . S
N794 C797 1.336 . S
C795 N793 1.335 . S
C795 N794 1.345 . S
C795 H800 0.930 . S
C796 N793 1.390 . S
C796 C797 1.346 . S
C796 H801 0.930 . S
C797 N794 1.336 . S
C797 C796 1.346 . S
C797 H804 0.929 . S
C798 O788 1.282 . S
C798 O799 1.216 . S
O799 C798 1.216 . S
H800 C795 0.930 . S
H801 C796 0.930 . S
O802 Cu782 1.959 . S
O802 C789 1.251 . S
H803 C786 0.930 . S
H804 C797 0.929 . S
Cu805 N806 1.999 . S
Cu805 O811 1.974 . S
Cu805 N816 1.985 . S
Cu805 O825 1.959 . S
N806 Cu805 1.999 . S
N806 C808 1.263 . S
N806 C810 1.389 . S
N807 C808 1.358 . S
N807 C809 1.400 . S
C808 N806 1.263 . S
C808 N807 1.358 . S
C808 H814 0.930 . S
C809 N807 1.400 . S
C809 C810 1.351 . S
C809 H826 0.930 . S
C810 N806 1.389 . S
C810 C809 1.351 . S
C810 H815 0.930 . S
O811 Cu805 1.974 . S
O811 C821 1.282 . S
C812 O813 1.261 . S
C812 O825 1.251 . S
O813 C812 1.261 . S
H814 C808 0.930 . S
H815 C810 0.930 . S
N816 Cu805 1.985 . S
N816 C818 1.335 . S
N816 C819 1.390 . S
N817 C818 1.345 . S
N817 C820 1.336 . S
C818 N816 1.335 . S
C818 N817 1.345 . S
C818 H823 0.930 . S
C819 N816 1.390 . S
C819 C820 1.346 . S
C819 H824 0.930 . S
C820 N817 1.336 . S
C820 C819 1.346 . S
C820 H827 0.929 . S
C821 O811 1.282 . S
C821 O822 1.216 . S
O822 C821 1.216 . S
H823 C818 0.930 . S
H824 C819 0.930 . S
O825 Cu805 1.959 . S
O825 C812 1.251 . S
H826 C809 0.930 . S
H827 C820 0.929 . S
H828 C834 0.930 . S
H829 C838 0.930 . S
H830 C843 0.929 . S
H831 C841 0.929 . S
H832 C836 0.929 . S
H833 C842 0.929 . S
C834 H828 0.930 . S
C834 C835 1.367 . S
C834 C842 1.378 1_554 S
C835 C834 1.367 . S
C835 C843 1.433 . S
C836 H832 0.929 . S
C836 C838 1.378 . S
C836 C840 1.350 . S
C837 C840 1.463 . S
C837 C842 1.350 . S
C837 N845 1.427 1_556 S
C838 H829 0.930 . S
C838 C836 1.378 . S
C838 C839 1.367 . S
C839 C838 1.367 . S
C839 C841 1.433 . S
C840 C836 1.350 . S
C840 C837 1.463 . S
C840 N844 1.427 . S
C841 H831 0.929 . S
C841 C839 1.433 . S
C841 N844 1.384 . S
C842 H833 0.929 . S
C842 C834 1.378 1_556 S
C842 C837 1.350 . S
C843 H830 0.929 . S
C843 C835 1.433 . S
C843 N845 1.384 . S
N844 C840 1.427 . S
N844 C841 1.384 . S
N845 C837 1.427 1_554 S
N845 C843 1.384 . S
H846 C852 0.930 . S
H847 C856 0.930 . S
H848 C861 0.929 . S
H849 C859 0.929 1_455 S
H850 C854 0.929 . S
H851 C860 0.929 . S
C852 H846 0.930 . S
C852 C853 1.367 . S
C852 C860 1.378 . S
C853 C852 1.367 . S
C853 C861 1.433 . S
C854 H850 0.929 . S
C854 C856 1.378 . S
C854 C858 1.350 . S
C855 C858 1.463 1_554 S
C855 C860 1.350 . S
C855 N863 1.427 . S
C856 H847 0.930 . S
C856 C854 1.378 . S
C856 C857 1.367 . S
C857 C856 1.367 . S
C857 C859 1.433 . S
C858 C854 1.350 . S
C858 C855 1.463 1_556 S
C858 N862 1.427 . S
C859 H849 0.929 1_655 S
C859 C857 1.433 . S
C859 N862 1.384 . S
C860 H851 0.929 . S
C860 C852 1.378 . S
C860 C855 1.350 . S
C861 H848 0.929 . S
C861 C853 1.433 . S
C861 N863 1.384 . S
N862 C858 1.427 . S
N862 C859 1.384 . S
N863 C855 1.427 . S
N863 C861 1.384 . S
H864 C870 0.930 . S
H865 C874 0.930 . S
H866 C879 0.929 . S
H867 C877 0.929 . S
H868 C872 0.929 . S
H869 C878 0.929 . S
C870 H864 0.930 . S
C870 C871 1.367 . S
C870 C878 1.378 . S
C871 C870 1.367 . S
C871 C879 1.433 . S
C872 H868 0.929 . S
C872 C874 1.378 . S
C872 C876 1.350 . S
C873 C876 1.463 1_556 S
C873 C878 1.350 . S
C873 N881 1.427 . S
C874 H865 0.930 . S
C874 C872 1.378 . S
C874 C875 1.367 . S
C875 C874 1.367 . S
C875 C877 1.433 . S
C876 C872 1.350 . S
C876 C873 1.463 1_554 S
C876 N880 1.427 . S
C877 H867 0.929 . S
C877 C875 1.433 . S
C877 N880 1.384 . S
C878 H869 0.929 . S
C878 C870 1.378 . S
C878 C873 1.350 . S
C879 H866 0.929 . S
C879 C871 1.433 . S
C879 N881 1.384 . S
N880 C876 1.427 . S
N880 C877 1.384 . S
N881 C873 1.427 . S
N881 C879 1.384 . S
H882 C888 0.930 1_655 S
H883 C892 0.930 . S
H884 C897 0.929 . S
H885 C895 0.929 . S
H886 C890 0.929 . S
H887 C896 0.929 . S
C888 H882 0.930 1_455 S
C888 C889 1.367 . S
C888 C896 1.378 . S
C889 C888 1.367 . S
C889 C897 1.433 . S
C890 H886 0.929 . S
C890 C892 1.378 . S
C890 C894 1.350 . S
C891 C894 1.463 . S
C891 C896 1.350 . S
C891 N899 1.427 . S
C892 H883 0.930 . S
C892 C890 1.378 . S
C892 C893 1.367 . S
C893 C892 1.367 . S
C893 C895 1.433 . S
C894 C890 1.350 . S
C894 C891 1.463 . S
C894 N898 1.427 . S
C895 H885 0.929 . S
C895 C893 1.433 . S
C895 N898 1.384 . S
C896 H887 0.929 . S
C896 C888 1.378 . S
C896 C891 1.350 . S
C897 H884 0.929 . S
C897 C889 1.433 . S
C897 N899 1.384 . S
N898 C894 1.427 . S
N898 C895 1.384 . S
N899 C891 1.427 . S
N899 C897 1.384 . S
H900 C906 0.930 . S
H901 C910 0.930 . S
H902 C915 0.929 . S
H903 C913 0.929 . S
H904 C908 0.929 . S
H905 C914 0.929 . S
C906 H900 0.930 . S
C906 C907 1.367 . S
C906 C914 1.378 . S
C907 C906 1.367 . S
C907 C915 1.433 . S
C908 H904 0.929 . S
C908 C910 1.378 . S
C908 C912 1.350 . S
C909 C912 1.463 . S
C909 C914 1.350 . S
C909 N917 1.427 . S
C910 H901 0.930 . S
C910 C908 1.378 . S
C910 C911 1.367 . S
C911 C910 1.367 . S
C911 C913 1.433 . S
C912 C908 1.350 . S
C912 C909 1.463 . S
C912 N916 1.427 . S
C913 H903 0.929 . S
C913 C911 1.433 . S
C913 N916 1.384 . S
C914 H905 0.929 . S
C914 C906 1.378 . S
C914 C909 1.350 . S
C915 H902 0.929 . S
C915 C907 1.433 . S
C915 N917 1.384 . S
N916 C912 1.427 . S
N916 C913 1.384 . S
N917 C909 1.427 . S
N917 C915 1.384 . S
H918 C924 0.930 . S
H919 C928 0.930 . S
H920 C933 0.929 . S
H921 C931 0.870 1_545 S
H922 C926 0.929 . S
H923 C932 0.929 . S
C924 H918 0.930 . S
C924 C925 1.367 . S
C924 C932 1.378 . S
C925 C924 1.367 . S
C925 C933 1.433 . S
C926 H922 0.929 . S
C926 C928 1.378 . S
C926 C930 1.350 . S
C927 C930 1.463 . S
C927 C932 1.350 . S
C927 N935 1.427 . S
C928 H919 0.930 . S
C928 C926 1.378 . S
C928 C929 1.367 . S
C929 C928 1.367 . S
C929 C931 1.433 . S
C930 C926 1.350 . S
C930 C927 1.463 . S
C930 N934 1.427 . S
C931 H921 0.870 1_565 S
C931 C929 1.433 . S
C931 N934 1.384 . S
C932 H923 0.929 . S
C932 C924 1.378 . S
C932 C927 1.350 . S
C933 H920 0.929 . S
C933 C925 1.433 . S
C933 N935 1.384 . S
N934 C930 1.427 . S
N934 C931 1.384 . S
N935 C927 1.427 . S
N935 C933 1.384 . S
H936 C942 0.930 . S
H937 C946 0.930 . S
H938 C951 0.929 . S
H939 C949 0.929 . S
H940 C944 0.929 1_554 S
H941 C950 0.960 . S
C942 H936 0.930 . S
C942 C943 1.367 . S
C942 C950 1.351 1_554 S
C943 C942 1.367 . S
C943 C951 1.433 . S
C944 H940 0.929 1_556 S
C944 C946 1.378 . S
C944 C948 1.350 . S
C945 C948 1.463 1_554 S
C945 C950 1.345 1_554 S
C945 N953 1.427 . S
C946 H937 0.930 . S
C946 C944 1.378 . S
C946 C947 1.367 . S
C947 C946 1.367 . S
C947 C949 1.433 . S
C948 C944 1.350 . S
C948 C945 1.463 1_556 S
C948 N952 1.427 . S
C949 H939 0.929 . S
C949 C947 1.433 . S
C949 N952 1.384 . S
C950 H941 0.960 . S
C950 C942 1.351 1_556 S
C950 C945 1.345 1_556 S
C951 H938 0.929 . S
C951 C943 1.433 . S
C951 N953 1.384 . S
N952 C948 1.427 . S
N952 C949 1.384 . S
N953 C945 1.427 . S
N953 C951 1.384 . S
H954 C960 0.930 . S
H955 C964 0.930 . S
H956 C969 0.929 . S
H957 C967 0.929 . S
H958 C962 0.929 . S
H959 C968 0.929 1_556 S
C960 H954 0.930 . S
C960 C961 1.367 . S
C960 C968 1.378 . S
C961 C960 1.367 . S
C961 C969 1.433 . S
C962 H958 0.929 . S
C962 C964 1.378 . S
C962 C966 1.350 . S
C963 C966 1.463 1_554 S
C963 C968 1.350 . S
C963 N971 1.427 . S
C964 H955 0.930 . S
C964 C962 1.378 . S
C964 C965 1.367 . S
C965 C964 1.367 . S
C965 C967 1.433 . S
C966 C962 1.350 . S
C966 C963 1.463 1_556 S
C966 N970 1.427 . S
C967 H957 0.929 . S
C967 C965 1.433 . S
C967 N970 1.384 . S
C968 H959 0.929 1_554 S
C968 C960 1.378 . S
C968 C963 1.350 . S
C969 H956 0.929 . S
C969 C961 1.433 . S
C969 N971 1.384 . S
N970 C966 1.427 . S
N970 C967 1.384 . S
N971 C963 1.427 . S
N971 C969 1.384 . S
H972 C978 0.930 . S
H973 C982 0.930 . S
H974 C987 0.929 . S
H975 C985 0.929 . S
H976 C980 0.929 . S
H977 C986 0.929 . S
C978 H972 0.930 . S
C978 C979 1.367 . S
C978 C986 1.378 . S
C979 C978 1.367 . S
C979 C987 1.433 . S
C980 H976 0.929 . S
C980 C982 1.378 . S
C980 C984 1.350 . S
C981 C984 1.463 1_556 S
C981 C986 1.350 . S
C981 N989 1.427 . S
C982 H973 0.930 . S
C982 C980 1.378 . S
C982 C983 1.367 . S
C983 C982 1.367 . S
C983 C985 1.433 . S
C984 C980 1.350 . S
C984 C981 1.463 1_554 S
C984 N988 1.427 . S
C985 H975 0.929 . S
C985 C983 1.433 . S
C985 N988 1.384 . S
C986 H977 0.929 . S
C986 C978 1.378 . S
C986 C981 1.350 . S
C987 H974 0.929 . S
C987 C979 1.433 . S
C987 N989 1.384 . S
N988 C984 1.427 . S
N988 C985 1.384 . S
N989 C981 1.427 . S
N989 C987 1.384 . S
H990 C996 0.930 . S
H991 C1000 0.930 . S
H992 C1005 0.929 . S
H993 C1003 0.979 . S
H994 C998 0.929 . S
H995 C1004 0.929 . S
C996 H990 0.930 . S
C996 C997 1.367 . S
C996 C1004 1.378 . S
C997 C996 1.367 . S
C997 C1005 1.433 . S
C998 H994 0.929 . S
C998 C1000 1.378 . S
C998 C1002 1.350 . S
C999 C1002 1.463 . S
C999 C1004 1.350 . S
C999 N1007 1.427 . S
C1000 H991 0.930 . S
C1000 C998 1.378 . S
C1000 C1001 1.367 . S
C1001 C1000 1.367 . S
C1001 C1003 1.421 1_655 S
C1002 C998 1.350 . S
C1002 C999 1.463 . S
C1002 N1006 1.427 . S
C1003 H993 0.979 . S
C1003 C1001 1.421 1_455 S
C1003 N1006 1.346 1_455 S
C1004 H995 0.929 . S
C1004 C996 1.378 . S
C1004 C999 1.350 . S
C1005 H992 0.929 . S
C1005 C997 1.433 . S
C1005 N1007 1.384 . S
N1006 C1002 1.427 . S
N1006 C1003 1.346 1_655 S
N1007 C999 1.427 . S
N1007 C1005 1.384 . S
H1008 C1014 0.930 . S
H1009 C1018 0.930 . S
H1010 C1023 0.929 . S
H1011 C1021 0.929 . S
H1012 C1016 0.929 . S
H1013 C1022 0.929 . S
C1014 H1008 0.930 . S
C1014 C1015 1.367 . S
C1014 C1022 1.378 . S
C1015 C1014 1.367 . S
C1015 C1023 1.433 . S
C1016 H1012 0.929 . S
C1016 C1018 1.378 . S
C1016 C1020 1.350 . S
C1017 C1020 1.463 . S
C1017 C1022 1.350 . S
C1017 N1025 1.427 . S
C1018 H1009 0.930 . S
C1018 C1016 1.378 . S
C1018 C1019 1.367 . S
C1019 C1018 1.367 . S
C1019 C1021 1.433 . S
C1020 C1016 1.350 . S
C1020 C1017 1.463 . S
C1020 N1024 1.427 . S
C1021 H1011 0.929 . S
C1021 C1019 1.433 . S
C1021 N1024 1.384 . S
C1022 H1013 0.929 . S
C1022 C1014 1.378 . S
C1022 C1017 1.350 . S
C1023 H1010 0.929 . S
C1023 C1015 1.433 . S
C1023 N1025 1.384 . S
N1024 C1020 1.427 . S
N1024 C1021 1.384 . S
N1025 C1017 1.427 . S
N1025 C1023 1.384 . S
H1026 C1032 0.930 . S
H1027 C1036 0.930 . S
H1028 C1041 0.929 . S
H1029 C1039 0.929 . S
H1030 C1034 0.929 . S
H1031 C1040 0.929 . S
C1032 H1026 0.930 . S
C1032 C1033 1.367 . S
C1032 C1040 1.378 . S
C1033 C1032 1.367 . S
C1033 C1041 1.433 . S
C1034 H1030 0.929 . S
C1034 C1036 1.378 . S
C1034 C1038 1.350 . S
C1035 C1038 1.463 . S
C1035 C1040 1.350 . S
C1035 N1043 1.427 . S
C1036 H1027 0.930 . S
C1036 C1034 1.378 . S
C1036 C1037 1.367 . S
C1037 C1036 1.367 . S
C1037 C1039 1.433 . S
C1038 C1034 1.350 . S
C1038 C1035 1.463 . S
C1038 N1042 1.427 . S
C1039 H1029 0.929 . S
C1039 C1037 1.433 . S
C1039 N1042 1.384 . S
C1040 H1031 0.929 . S
C1040 C1032 1.378 . S
C1040 C1035 1.350 . S
C1041 H1028 0.929 . S
C1041 C1033 1.433 . S
C1041 N1043 1.384 . S
N1042 C1038 1.427 . S
N1042 C1039 1.384 . S
N1043 C1035 1.427 . S
N1043 C1041 1.384 . S
H1044 C1050 0.930 . S
H1045 C1054 0.930 . S
H1046 C1059 0.929 . S
H1047 C1057 0.929 . S
H1048 C1052 0.929 . S
H1049 C1058 0.929 . S
C1050 H1044 0.930 . S
C1050 C1051 1.367 . S
C1050 C1058 1.378 . S
C1051 C1050 1.367 . S
C1051 C1059 1.433 . S
C1052 H1048 0.929 . S
C1052 C1054 1.378 . S
C1052 C1056 1.350 . S
C1053 C1056 1.463 . S
C1053 C1058 1.350 . S
C1053 N1061 1.427 . S
C1054 H1045 0.930 . S
C1054 C1052 1.378 . S
C1054 C1055 1.367 . S
C1055 C1054 1.367 . S
C1055 C1057 1.433 . S
C1056 C1052 1.350 . S
C1056 C1053 1.463 . S
C1056 N1060 1.427 . S
C1057 H1047 0.929 . S
C1057 C1055 1.433 . S
C1057 N1060 1.384 . S
C1058 H1049 0.929 . S
C1058 C1050 1.378 . S
C1058 C1053 1.350 . S
C1059 H1046 0.929 . S
C1059 C1051 1.433 . S
C1059 N1061 1.384 . S
N1060 C1056 1.427 . S
N1060 C1057 1.384 . S
N1061 C1053 1.427 . S
N1061 C1059 1.384 . S
H1062 C1068 0.930 . S
H1063 C1072 0.930 . S
H1064 C1077 0.929 . S
H1065 C1075 0.929 . S
H1066 C1070 0.929 . S
H1067 C1076 0.929 . S
C1068 H1062 0.930 . S
C1068 C1069 1.367 . S
C1068 C1076 1.378 . S
C1069 C1068 1.367 . S
C1069 C1077 1.433 . S
C1070 H1066 0.929 . S
C1070 C1072 1.378 . S
C1070 C1074 1.350 . S
C1071 C1074 1.463 . S
C1071 C1076 1.350 . S
C1071 N1079 1.427 . S
C1072 H1063 0.930 . S
C1072 C1070 1.378 . S
C1072 C1073 1.367 . S
C1073 C1072 1.367 . S
C1073 C1075 1.433 . S
C1074 C1070 1.350 . S
C1074 C1071 1.463 . S
C1074 N1078 1.427 . S
C1075 H1065 0.929 . S
C1075 C1073 1.433 . S
C1075 N1078 1.384 . S
C1076 H1067 0.929 . S
C1076 C1068 1.378 . S
C1076 C1071 1.350 . S
C1077 H1064 0.929 . S
C1077 C1069 1.433 . S
C1077 N1079 1.384 . S
N1078 C1074 1.427 . S
N1078 C1075 1.384 . S
N1079 C1071 1.427 . S
N1079 C1077 1.384 . S
H1080 C1086 0.930 . S
H1081 C1090 0.930 . S
H1082 C1095 0.929 . S
H1083 C1093 0.929 . S
H1084 C1088 0.929 . S
H1085 C1094 0.929 . S
C1086 H1080 0.930 . S
C1086 C1087 1.367 . S
C1086 C1094 1.378 . S
C1087 C1086 1.367 . S
C1087 C1095 1.433 . S
C1088 H1084 0.929 . S
C1088 C1090 1.378 . S
C1088 C1092 1.350 . S
C1089 C1092 1.463 . S
C1089 C1094 1.350 . S
C1089 N1097 1.427 . S
C1090 H1081 0.930 . S
C1090 C1088 1.378 . S
C1090 C1091 1.367 . S
C1091 C1090 1.367 . S
C1091 C1093 1.433 . S
C1092 C1088 1.350 . S
C1092 C1089 1.463 . S
C1092 N1096 1.427 . S
C1093 H1083 0.929 . S
C1093 C1091 1.433 . S
C1093 N1096 1.384 . S
C1094 H1085 0.929 . S
C1094 C1086 1.378 . S
C1094 C1089 1.350 . S
C1095 H1082 0.929 . S
C1095 C1087 1.433 . S
C1095 N1097 1.384 . S
N1096 C1092 1.427 . S
N1096 C1093 1.384 . S
N1097 C1089 1.427 . S
N1097 C1095 1.384 . S
H1098 C1104 0.930 . S
H1099 C1108 0.930 . S
H1100 C1113 0.929 . S
H1101 C1111 0.929 . S
H1102 C1106 0.929 . S
H1103 C1112 0.929 . S
C1104 H1098 0.930 . S
C1104 C1105 1.367 . S
C1104 C1112 1.378 . S
C1105 C1104 1.367 . S
C1105 C1113 1.433 . S
C1106 H1102 0.929 . S
C1106 C1108 1.378 . S
C1106 C1110 1.350 . S
C1107 C1110 1.463 . S
C1107 C1112 1.350 . S
C1107 N1115 1.427 . S
C1108 H1099 0.930 . S
C1108 C1106 1.378 . S
C1108 C1109 1.367 . S
C1109 C1108 1.367 . S
C1109 C1111 1.433 . S
C1110 C1106 1.350 . S
C1110 C1107 1.463 . S
C1110 N1114 1.427 . S
C1111 H1101 0.929 . S
C1111 C1109 1.433 . S
C1111 N1114 1.384 . S
C1112 H1103 0.929 . S
C1112 C1104 1.378 . S
C1112 C1107 1.350 . S
C1113 H1100 0.929 . S
C1113 C1105 1.433 . S
C1113 N1115 1.384 . S
N1114 C1110 1.427 . S
N1114 C1111 1.384 . S
N1115 C1107 1.427 . S
N1115 C1113 1.384 . S
H1116 C1122 0.930 . S
H1117 C1126 0.930 . S
H1118 C1131 0.929 . S
H1119 C1129 0.929 . S
H1120 C1124 0.929 . S
H1121 C1130 0.929 . S
C1122 H1116 0.930 . S
C1122 C1123 1.367 . S
C1122 C1130 1.378 . S
C1123 C1122 1.367 . S
C1123 C1131 1.433 . S
C1124 H1120 0.929 . S
C1124 C1126 1.378 . S
C1124 C1128 1.350 . S
C1125 C1128 1.463 . S
C1125 C1130 1.350 . S
C1125 N1133 1.427 . S
C1126 H1117 0.930 . S
C1126 C1124 1.378 . S
C1126 C1127 1.367 . S
C1127 C1126 1.367 . S
C1127 C1129 1.433 . S
C1128 C1124 1.350 . S
C1128 C1125 1.463 . S
C1128 N1132 1.427 . S
C1129 H1119 0.929 . S
C1129 C1127 1.433 . S
C1129 N1132 1.384 . S
C1130 H1121 0.929 . S
C1130 C1122 1.378 . S
C1130 C1125 1.350 . S
C1131 H1118 0.929 . S
C1131 C1123 1.433 . S
C1131 N1133 1.384 . S
N1132 C1128 1.427 . S
N1132 C1129 1.384 . S
N1133 C1125 1.427 . S
N1133 C1131 1.384 . S
H1134 C1140 0.930 . S
H1135 C1144 0.930 . S
H1136 C1149 0.929 . S
H1137 C1147 0.929 . S
H1138 C1142 0.929 . S
H1139 C1148 0.929 . S
C1140 H1134 0.930 . S
C1140 C1141 1.367 . S
C1140 C1148 1.378 . S
C1141 C1140 1.367 . S
C1141 C1149 1.433 . S
C1142 H1138 0.929 . S
C1142 C1144 1.378 . S
C1142 C1146 1.350 . S
C1143 C1146 1.463 . S
C1143 C1148 1.350 . S
C1143 N1151 1.427 . S
C1144 H1135 0.930 . S
C1144 C1142 1.378 . S
C1144 C1145 1.367 . S
C1145 C1144 1.367 . S
C1145 C1147 1.433 . S
C1146 C1142 1.350 . S
C1146 C1143 1.463 . S
C1146 N1150 1.427 . S
C1147 H1137 0.929 . S
C1147 C1145 1.433 . S
C1147 N1150 1.384 . S
C1148 H1139 0.929 . S
C1148 C1140 1.378 . S
C1148 C1143 1.350 . S
C1149 H1136 0.929 . S
C1149 C1141 1.433 . S
C1149 N1151 1.384 . S
N1150 C1146 1.427 . S
N1150 C1147 1.384 . S
N1151 C1143 1.427 . S
N1151 C1149 1.384 . S
H1152 C1158 0.930 . S
H1153 C1162 0.930 . S
H1154 C1167 0.929 . S
H1155 C1165 0.929 . S
H1156 C1160 0.929 . S
H1157 C1166 0.929 . S
C1158 H1152 0.930 . S
C1158 C1159 1.367 . S
C1158 C1166 1.378 . S
C1159 C1158 1.367 . S
C1159 C1167 1.433 . S
C1160 H1156 0.929 . S
C1160 C1162 1.378 . S
C1160 C1164 1.350 . S
C1161 C1164 1.463 . S
C1161 C1166 1.350 . S
C1161 N1169 1.427 . S
C1162 H1153 0.930 . S
C1162 C1160 1.378 . S
C1162 C1163 1.367 . S
C1163 C1162 1.367 . S
C1163 C1165 1.433 . S
C1164 C1160 1.350 . S
C1164 C1161 1.463 . S
C1164 N1168 1.427 . S
C1165 H1155 0.929 . S
C1165 C1163 1.433 . S
C1165 N1168 1.384 . S
C1166 H1157 0.929 . S
C1166 C1158 1.378 . S
C1166 C1161 1.350 . S
C1167 H1154 0.929 . S
C1167 C1159 1.433 . S
C1167 N1169 1.384 . S
N1168 C1164 1.427 . S
N1168 C1165 1.384 . S
N1169 C1161 1.427 . S
N1169 C1167 1.384 . S
H1170 C1176 0.930 . S
H1171 C1180 0.930 . S
H1172 C1185 0.929 . S
H1173 C1183 0.929 . S
H1174 C1178 0.929 . S
H1175 C1184 0.929 . S
C1176 H1170 0.930 . S
C1176 C1177 1.367 . S
C1176 C1184 1.378 . S
C1177 C1176 1.367 . S
C1177 C1185 1.433 . S
C1178 H1174 0.929 . S
C1178 C1180 1.378 . S
C1178 C1182 1.350 . S
C1179 C1182 1.463 . S
C1179 C1184 1.350 . S
C1179 N1187 1.427 . S
C1180 H1171 0.930 . S
C1180 C1178 1.378 . S
C1180 C1181 1.367 . S
C1181 C1180 1.367 . S
C1181 C1183 1.433 . S
C1182 C1178 1.350 . S
C1182 C1179 1.463 . S
C1182 N1186 1.427 . S
C1183 H1173 0.929 . S
C1183 C1181 1.433 . S
C1183 N1186 1.384 . S
C1184 H1175 0.929 . S
C1184 C1176 1.378 . S
C1184 C1179 1.350 . S
C1185 H1172 0.929 . S
C1185 C1177 1.433 . S
C1185 N1187 1.384 . S
N1186 C1182 1.427 . S
N1186 C1183 1.384 . S
N1187 C1179 1.427 . S
N1187 C1185 1.384 . S
H1188 C1194 0.930 . S
H1189 C1198 0.930 . S
H1190 C1203 0.929 . S
H1191 C1201 0.929 . S
H1192 C1196 0.929 . S
H1193 C1202 0.929 . S
C1194 H1188 0.930 . S
C1194 C1195 1.367 . S
C1194 C1202 1.378 . S
C1195 C1194 1.367 . S
C1195 C1203 1.433 . S
C1196 H1192 0.929 . S
C1196 C1198 1.378 . S
C1196 C1200 1.350 . S
C1197 C1200 1.463 . S
C1197 C1202 1.350 . S
C1197 N1205 1.427 . S
C1198 H1189 0.930 . S
C1198 C1196 1.378 . S
C1198 C1199 1.367 . S
C1199 C1198 1.367 . S
C1199 C1201 1.433 . S
C1200 C1196 1.350 . S
C1200 C1197 1.463 . S
C1200 N1204 1.427 . S
C1201 H1191 0.929 . S
C1201 C1199 1.433 . S
C1201 N1204 1.384 . S
C1202 H1193 0.929 . S
C1202 C1194 1.378 . S
C1202 C1197 1.350 . S
C1203 H1190 0.929 . S
C1203 C1195 1.433 . S
C1203 N1205 1.384 . S
N1204 C1200 1.427 . S
N1204 C1201 1.384 . S
N1205 C1197 1.427 . S
N1205 C1203 1.384 . S
H1206 C1212 0.930 . S
H1207 C1216 0.930 . S
H1208 C1221 0.929 . S
H1209 C1219 0.929 . S
H1210 C1214 0.929 . S
H1211 C1220 0.929 . S
C1212 H1206 0.930 . S
C1212 C1213 1.367 . S
C1212 C1220 1.378 . S
C1213 C1212 1.367 . S
C1213 C1221 1.433 . S
C1214 H1210 0.929 . S
C1214 C1216 1.378 . S
C1214 C1218 1.350 . S
C1215 C1218 1.463 . S
C1215 C1220 1.350 . S
C1215 N1223 1.427 . S
C1216 H1207 0.930 . S
C1216 C1214 1.378 . S
C1216 C1217 1.367 . S
C1217 C1216 1.367 . S
C1217 C1219 1.433 . S
C1218 C1214 1.350 . S
C1218 C1215 1.463 . S
C1218 N1222 1.427 . S
C1219 H1209 0.929 . S
C1219 C1217 1.433 . S
C1219 N1222 1.384 . S
C1220 H1211 0.929 . S
C1220 C1212 1.378 . S
C1220 C1215 1.350 . S
C1221 H1208 0.929 . S
C1221 C1213 1.433 . S
C1221 N1223 1.384 . S
N1222 C1218 1.427 . S
N1222 C1219 1.384 . S
N1223 C1215 1.427 . S
N1223 C1221 1.384 . S
H1224 C1230 0.930 . S
H1225 C1234 0.930 . S
H1226 C1239 0.929 . S
H1227 C1237 0.929 . S
H1228 C1232 0.929 . S
H1229 C1238 0.929 . S
C1230 H1224 0.930 . S
C1230 C1231 1.367 . S
C1230 C1238 1.378 . S
C1231 C1230 1.367 . S
C1231 C1239 1.433 . S
C1232 H1228 0.929 . S
C1232 C1234 1.378 . S
C1232 C1236 1.350 . S
C1233 C1236 1.463 . S
C1233 C1238 1.350 . S
C1233 N1241 1.427 . S
C1234 H1225 0.930 . S
C1234 C1232 1.378 . S
C1234 C1235 1.367 . S
C1235 C1234 1.367 . S
C1235 C1237 1.433 . S
C1236 C1232 1.350 . S
C1236 C1233 1.463 . S
C1236 N1240 1.427 . S
C1237 H1227 0.929 . S
C1237 C1235 1.433 . S
C1237 N1240 1.384 . S
C1238 H1229 0.929 . S
C1238 C1230 1.378 . S
C1238 C1233 1.350 . S
C1239 H1226 0.929 . S
C1239 C1231 1.433 . S
C1239 N1241 1.384 . S
N1240 C1236 1.427 . S
N1240 C1237 1.384 . S
N1241 C1233 1.427 . S
N1241 C1239 1.384 . S
H1242 C1248 0.930 . S
H1243 C1252 0.930 . S
H1244 C1257 0.929 . S
H1245 C1255 0.929 . S
H1246 C1250 0.929 . S
H1247 C1256 0.929 . S
C1248 H1242 0.930 . S
C1248 C1249 1.367 . S
C1248 C1256 1.378 . S
C1249 C1248 1.367 . S
C1249 C1257 1.433 . S
C1250 H1246 0.929 . S
C1250 C1252 1.378 . S
C1250 C1254 1.350 . S
C1251 C1254 1.463 . S
C1251 C1256 1.350 . S
C1251 N1259 1.427 . S
C1252 H1243 0.930 . S
C1252 C1250 1.378 . S
C1252 C1253 1.367 . S
C1253 C1252 1.367 . S
C1253 C1255 1.433 . S
C1254 C1250 1.350 . S
C1254 C1251 1.463 . S
C1254 N1258 1.427 . S
C1255 H1245 0.929 . S
C1255 C1253 1.433 . S
C1255 N1258 1.384 . S
C1256 H1247 0.929 . S
C1256 C1248 1.378 . S
C1256 C1251 1.350 . S
C1257 H1244 0.929 . S
C1257 C1249 1.433 . S
C1257 N1259 1.384 . S
N1258 C1254 1.427 . S
N1258 C1255 1.384 . S
N1259 C1251 1.427 . S
N1259 C1257 1.384 . S
H1260 C1266 0.930 . S
H1261 C1270 0.930 . S
H1262 C1275 0.929 . S
H1263 C1273 0.929 . S
H1264 C1268 0.929 . S
H1265 C1274 0.929 . S
C1266 H1260 0.930 . S
C1266 C1267 1.367 . S
C1266 C1274 1.378 . S
C1267 C1266 1.367 . S
C1267 C1275 1.433 . S
C1268 H1264 0.929 . S
C1268 C1270 1.378 . S
C1268 C1272 1.350 . S
C1269 C1272 1.463 . S
C1269 C1274 1.350 . S
C1269 N1277 1.427 . S
C1270 H1261 0.930 . S
C1270 C1268 1.378 . S
C1270 C1271 1.367 . S
C1271 C1270 1.367 . S
C1271 C1273 1.433 . S
C1272 C1268 1.350 . S
C1272 C1269 1.463 . S
C1272 N1276 1.427 . S
C1273 H1263 0.929 . S
C1273 C1271 1.433 . S
C1273 N1276 1.384 . S
C1274 H1265 0.929 . S
C1274 C1266 1.378 . S
C1274 C1269 1.350 . S
C1275 H1262 0.929 . S
C1275 C1267 1.433 . S
C1275 N1277 1.384 . S
N1276 C1272 1.427 . S
N1276 C1273 1.384 . S
N1277 C1269 1.427 . S
N1277 C1275 1.384 . S
H1278 C1284 0.930 . S
H1279 C1288 0.930 . S
H1280 C1293 0.929 . S
H1281 C1291 0.929 . S
H1282 C1286 0.929 . S
H1283 C1292 0.929 . S
C1284 H1278 0.930 . S
C1284 C1285 1.367 . S
C1284 C1292 1.378 . S
C1285 C1284 1.367 . S
C1285 C1293 1.433 . S
C1286 H1282 0.929 . S
C1286 C1288 1.378 . S
C1286 C1290 1.350 . S
C1287 C1290 1.463 . S
C1287 C1292 1.350 . S
C1287 N1295 1.427 . S
C1288 H1279 0.930 . S
C1288 C1286 1.378 . S
C1288 C1289 1.367 . S
C1289 C1288 1.367 . S
C1289 C1291 1.433 . S
C1290 C1286 1.350 . S
C1290 C1287 1.463 . S
C1290 N1294 1.427 . S
C1291 H1281 0.929 . S
C1291 C1289 1.433 . S
C1291 N1294 1.384 . S
C1292 H1283 0.929 . S
C1292 C1284 1.378 . S
C1292 C1287 1.350 . S
C1293 H1280 0.929 . S
C1293 C1285 1.433 . S
C1293 N1295 1.384 . S
N1294 C1290 1.427 . S
N1294 C1291 1.384 . S
N1295 C1287 1.427 . S
N1295 C1293 1.384 . S
H1296 C1302 0.930 . S
H1297 C1306 0.930 . S
H1298 C1311 0.929 . S
H1299 C1309 0.929 . S
H1300 C1304 0.929 . S
H1301 C1310 0.929 . S
C1302 H1296 0.930 . S
C1302 C1303 1.367 . S
C1302 C1310 1.378 . S
C1303 C1302 1.367 . S
C1303 C1311 1.433 . S
C1304 H1300 0.929 . S
C1304 C1306 1.378 . S
C1304 C1308 1.350 . S
C1305 C1308 1.463 . S
C1305 C1310 1.350 . S
C1305 N1313 1.427 . S
C1306 H1297 0.930 . S
C1306 C1304 1.378 . S
C1306 C1307 1.367 . S
C1307 C1306 1.367 . S
C1307 C1309 1.433 . S
C1308 C1304 1.350 . S
C1308 C1305 1.463 . S
C1308 N1312 1.427 . S
C1309 H1299 0.929 . S
C1309 C1307 1.433 . S
C1309 N1312 1.384 . S
C1310 H1301 0.929 . S
C1310 C1302 1.378 . S
C1310 C1305 1.350 . S
C1311 H1298 0.929 . S
C1311 C1303 1.433 . S
C1311 N1313 1.384 . S
N1312 C1308 1.427 . S
N1312 C1309 1.384 . S
N1313 C1305 1.427 . S
N1313 C1311 1.384 . S
H1314 C1320 0.930 . S
H1315 C1324 0.930 . S
H1316 C1329 0.929 . S
H1317 C1327 0.929 . S
H1318 C1322 0.929 . S
H1319 C1328 0.929 . S
C1320 H1314 0.930 . S
C1320 C1321 1.367 . S
C1320 C1328 1.378 . S
C1321 C1320 1.367 . S
C1321 C1329 1.433 . S
C1322 H1318 0.929 . S
C1322 C1324 1.378 . S
C1322 C1326 1.350 . S
C1323 C1326 1.463 . S
C1323 C1328 1.350 . S
C1323 N1331 1.427 . S
C1324 H1315 0.930 . S
C1324 C1322 1.378 . S
C1324 C1325 1.367 . S
C1325 C1324 1.367 . S
C1325 C1327 1.433 . S
C1326 C1322 1.350 . S
C1326 C1323 1.463 . S
C1326 N1330 1.427 . S
C1327 H1317 0.929 . S
C1327 C1325 1.433 . S
C1327 N1330 1.384 . S
C1328 H1319 0.929 . S
C1328 C1320 1.378 . S
C1328 C1323 1.350 . S
C1329 H1316 0.929 . S
C1329 C1321 1.433 . S
C1329 N1331 1.384 . S
N1330 C1326 1.427 . S
N1330 C1327 1.384 . S
N1331 C1323 1.427 . S
N1331 C1329 1.384 . S
H1332 C1338 0.930 . S
H1333 C1342 0.930 . S
H1334 C1347 0.929 . S
H1335 C1345 0.929 . S
H1336 C1340 0.929 . S
H1337 C1346 0.929 . S
C1338 H1332 0.930 . S
C1338 C1339 1.367 . S
C1338 C1346 1.378 . S
C1339 C1338 1.367 . S
C1339 C1347 1.433 . S
C1340 H1336 0.929 . S
C1340 C1342 1.378 . S
C1340 C1344 1.350 . S
C1341 C1344 1.463 . S
C1341 C1346 1.350 . S
C1341 N1349 1.427 . S
C1342 H1333 0.930 . S
C1342 C1340 1.378 . S
C1342 C1343 1.367 . S
C1343 C1342 1.367 . S
C1343 C1345 1.433 . S
C1344 C1340 1.350 . S
C1344 C1341 1.463 . S
C1344 N1348 1.427 . S
C1345 H1335 0.929 . S
C1345 C1343 1.433 . S
C1345 N1348 1.384 . S
C1346 H1337 0.929 . S
C1346 C1338 1.378 . S
C1346 C1341 1.350 . S
C1347 H1334 0.929 . S
C1347 C1339 1.433 . S
C1347 N1349 1.384 . S
N1348 C1344 1.427 . S
N1348 C1345 1.384 . S
N1349 C1341 1.427 . S
N1349 C1347 1.384 . S
H1350 C1356 0.930 . S
H1351 C1360 0.930 . S
H1352 C1365 0.929 . S
H1353 C1363 0.929 . S
H1354 C1358 0.929 . S
H1355 C1364 0.929 . S
C1356 H1350 0.930 . S
C1356 C1357 1.367 . S
C1356 C1364 1.378 . S
C1357 C1356 1.367 . S
C1357 C1365 1.433 . S
C1358 H1354 0.929 . S
C1358 C1360 1.378 . S
C1358 C1362 1.350 . S
C1359 C1362 1.463 . S
C1359 C1364 1.350 . S
C1359 N1367 1.427 . S
C1360 H1351 0.930 . S
C1360 C1358 1.378 . S
C1360 C1361 1.367 . S
C1361 C1360 1.367 . S
C1361 C1363 1.433 . S
C1362 C1358 1.350 . S
C1362 C1359 1.463 . S
C1362 N1366 1.427 . S
C1363 H1353 0.929 . S
C1363 C1361 1.433 . S
C1363 N1366 1.384 . S
C1364 H1355 0.929 . S
C1364 C1356 1.378 . S
C1364 C1359 1.350 . S
C1365 H1352 0.929 . S
C1365 C1357 1.433 . S
C1365 N1367 1.384 . S
N1366 C1362 1.427 . S
N1366 C1363 1.384 . S
N1367 C1359 1.427 . S
N1367 C1365 1.384 . S
H1368 C1374 0.930 . S
H1369 C1378 0.930 . S
H1370 C1383 0.929 . S
H1371 C1381 0.929 . S
H1372 C1376 0.929 . S
H1373 C1382 0.929 . S
C1374 H1368 0.930 . S
C1374 C1375 1.367 . S
C1374 C1382 1.378 . S
C1375 C1374 1.367 . S
C1375 C1383 1.433 . S
C1376 H1372 0.929 . S
C1376 C1378 1.378 . S
C1376 C1380 1.350 . S
C1377 C1380 1.463 . S
C1377 C1382 1.350 . S
C1377 N1385 1.427 . S
C1378 H1369 0.930 . S
C1378 C1376 1.378 . S
C1378 C1379 1.367 . S
C1379 C1378 1.367 . S
C1379 C1381 1.433 . S
C1380 C1376 1.350 . S
C1380 C1377 1.463 . S
C1380 N1384 1.427 . S
C1381 H1371 0.929 . S
C1381 C1379 1.433 . S
C1381 N1384 1.384 . S
C1382 H1373 0.929 . S
C1382 C1374 1.378 . S
C1382 C1377 1.350 . S
C1383 H1370 0.929 . S
C1383 C1375 1.433 . S
C1383 N1385 1.384 . S
N1384 C1380 1.427 . S
N1384 C1381 1.384 . S
N1385 C1377 1.427 . S
N1385 C1383 1.384 . S
H1386 C1392 0.930 . S
H1387 C1396 0.930 . S
H1388 C1401 0.929 . S
H1389 C1399 0.929 . S
H1390 C1394 0.929 . S
H1391 C1400 0.929 . S
C1392 H1386 0.930 . S
C1392 C1393 1.367 . S
C1392 C1400 1.378 . S
C1393 C1392 1.367 . S
C1393 C1401 1.433 . S
C1394 H1390 0.929 . S
C1394 C1396 1.378 . S
C1394 C1398 1.350 . S
C1395 C1398 1.463 . S
C1395 C1400 1.350 . S
C1395 N1403 1.427 . S
C1396 H1387 0.930 . S
C1396 C1394 1.378 . S
C1396 C1397 1.367 . S
C1397 C1396 1.367 . S
C1397 C1399 1.433 . S
C1398 C1394 1.350 . S
C1398 C1395 1.463 . S
C1398 N1402 1.427 . S
C1399 H1389 0.929 . S
C1399 C1397 1.433 . S
C1399 N1402 1.384 . S
C1400 H1391 0.929 . S
C1400 C1392 1.378 . S
C1400 C1395 1.350 . S
C1401 H1388 0.929 . S
C1401 C1393 1.433 . S
C1401 N1403 1.384 . S
N1402 C1398 1.427 . S
N1402 C1399 1.384 . S
N1403 C1395 1.427 . S
N1403 C1401 1.384 . S
H1404 C1410 0.930 . S
H1405 C1414 0.930 . S
H1406 C1419 0.929 . S
H1407 C1417 0.929 . S
H1408 C1412 0.929 . S
H1409 C1418 0.929 . S
C1410 H1404 0.930 . S
C1410 C1411 1.367 . S
C1410 C1418 1.378 . S
C1411 C1410 1.367 . S
C1411 C1419 1.433 . S
C1412 H1408 0.929 . S
C1412 C1414 1.378 . S
C1412 C1416 1.350 . S
C1413 C1416 1.463 . S
C1413 C1418 1.350 . S
C1413 N1421 1.427 . S
C1414 H1405 0.930 . S
C1414 C1412 1.378 . S
C1414 C1415 1.367 . S
C1415 C1414 1.367 . S
C1415 C1417 1.433 . S
C1416 C1412 1.350 . S
C1416 C1413 1.463 . S
C1416 N1420 1.427 . S
C1417 H1407 0.929 . S
C1417 C1415 1.433 . S
C1417 N1420 1.384 . S
C1418 H1409 0.929 . S
C1418 C1410 1.378 . S
C1418 C1413 1.350 . S
C1419 H1406 0.929 . S
C1419 C1411 1.433 . S
C1419 N1421 1.384 . S
N1420 C1416 1.427 . S
N1420 C1417 1.384 . S
N1421 C1413 1.427 . S
N1421 C1419 1.384 . S
H1422 C1428 0.930 . S
H1423 C1432 0.930 . S
H1424 C1437 0.929 . S
H1425 C1435 0.929 . S
H1426 C1430 0.929 . S
H1427 C1436 0.929 . S
C1428 H1422 0.930 . S
C1428 C1429 1.367 . S
C1428 C1436 1.378 . S
C1429 C1428 1.367 . S
C1429 C1437 1.433 . S
C1430 H1426 0.929 . S
C1430 C1432 1.378 . S
C1430 C1434 1.350 . S
C1431 C1434 1.463 . S
C1431 C1436 1.350 . S
C1431 N1439 1.427 . S
C1432 H1423 0.930 . S
C1432 C1430 1.378 . S
C1432 C1433 1.367 . S
C1433 C1432 1.367 . S
C1433 C1435 1.433 . S
C1434 C1430 1.350 . S
C1434 C1431 1.463 . S
C1434 N1438 1.427 . S
C1435 H1425 0.929 . S
C1435 C1433 1.433 . S
C1435 N1438 1.384 . S
C1436 H1427 0.929 . S
C1436 C1428 1.378 . S
C1436 C1431 1.350 . S
C1437 H1424 0.929 . S
C1437 C1429 1.433 . S
C1437 N1439 1.384 . S
N1438 C1434 1.427 . S
N1438 C1435 1.384 . S
N1439 C1431 1.427 . S
N1439 C1437 1.384 . S
H1440 C1446 0.930 . S
H1441 C1450 0.930 . S
H1442 C1455 0.929 . S
H1443 C1453 0.929 . S
H1444 C1448 0.929 . S
H1445 C1454 0.929 . S
C1446 H1440 0.930 . S
C1446 C1447 1.367 . S
C1446 C1454 1.378 . S
C1447 C1446 1.367 . S
C1447 C1455 1.433 . S
C1448 H1444 0.929 . S
C1448 C1450 1.378 . S
C1448 C1452 1.350 . S
C1449 C1452 1.463 . S
C1449 C1454 1.350 . S
C1449 N1457 1.427 . S
C1450 H1441 0.930 . S
C1450 C1448 1.378 . S
C1450 C1451 1.367 . S
C1451 C1450 1.367 . S
C1451 C1453 1.433 . S
C1452 C1448 1.350 . S
C1452 C1449 1.463 . S
C1452 N1456 1.427 . S
C1453 H1443 0.929 . S
C1453 C1451 1.433 . S
C1453 N1456 1.384 . S
C1454 H1445 0.929 . S
C1454 C1446 1.378 . S
C1454 C1449 1.350 . S
C1455 H1442 0.929 . S
C1455 C1447 1.433 . S
C1455 N1457 1.384 . S
N1456 C1452 1.427 . S
N1456 C1453 1.384 . S
N1457 C1449 1.427 . S
N1457 C1455 1.384 . S
H1458 C1464 0.930 . S
H1459 C1468 0.930 . S
H1460 C1473 0.929 . S
H1461 C1471 0.929 . S
H1462 C1466 0.929 . S
H1463 C1472 0.929 . S
C1464 H1458 0.930 . S
C1464 C1465 1.367 . S
C1464 C1472 1.378 . S
C1465 C1464 1.367 . S
C1465 C1473 1.433 . S
C1466 H1462 0.929 . S
C1466 C1468 1.378 . S
C1466 C1470 1.350 . S
C1467 C1470 1.463 . S
C1467 C1472 1.350 . S
C1467 N1475 1.427 . S
C1468 H1459 0.930 . S
C1468 C1466 1.378 . S
C1468 C1469 1.367 . S
C1469 C1468 1.367 . S
C1469 C1471 1.433 . S
C1470 C1466 1.350 . S
C1470 C1467 1.463 . S
C1470 N1474 1.427 . S
C1471 H1461 0.929 . S
C1471 C1469 1.433 . S
C1471 N1474 1.384 . S
C1472 H1463 0.929 . S
C1472 C1464 1.378 . S
C1472 C1467 1.350 . S
C1473 H1460 0.929 . S
C1473 C1465 1.433 . S
C1473 N1475 1.384 . S
N1474 C1470 1.427 . S
N1474 C1471 1.384 . S
N1475 C1467 1.427 . S
N1475 C1473 1.384 . S
H1476 C1482 0.930 . S
H1477 C1486 0.930 . S
H1478 C1491 0.929 . S
H1479 C1489 0.929 . S
H1480 C1484 0.929 . S
H1481 C1490 0.929 . S
C1482 H1476 0.930 . S
C1482 C1483 1.367 . S
C1482 C1490 1.378 . S
C1483 C1482 1.367 . S
C1483 C1491 1.433 . S
C1484 H1480 0.929 . S
C1484 C1486 1.378 . S
C1484 C1488 1.350 . S
C1485 C1488 1.463 . S
C1485 C1490 1.350 . S
C1485 N1493 1.427 . S
C1486 H1477 0.930 . S
C1486 C1484 1.378 . S
C1486 C1487 1.367 . S
C1487 C1486 1.367 . S
C1487 C1489 1.433 . S
C1488 C1484 1.350 . S
C1488 C1485 1.463 . S
C1488 N1492 1.427 . S
C1489 H1479 0.929 . S
C1489 C1487 1.433 . S
C1489 N1492 1.384 . S
C1490 H1481 0.929 . S
C1490 C1482 1.378 . S
C1490 C1485 1.350 . S
C1491 H1478 0.929 . S
C1491 C1483 1.433 . S
C1491 N1493 1.384 . S
N1492 C1488 1.427 . S
N1492 C1489 1.384 . S
N1493 C1485 1.427 . S
N1493 C1491 1.384 . S
H1494 C1500 0.930 . S
H1495 C1504 0.930 . S
H1496 C1509 0.929 . S
H1497 C1507 0.929 . S
H1498 C1502 0.929 . S
H1499 C1508 0.929 . S
C1500 H1494 0.930 . S
C1500 C1501 1.367 . S
C1500 C1508 1.378 . S
C1501 C1500 1.367 . S
C1501 C1509 1.433 1_565 S
C1502 H1498 0.929 . S
C1502 C1504 1.378 . S
C1502 C1506 1.350 . S
C1503 C1506 1.463 1_565 S
C1503 C1508 1.350 . S
C1503 N1511 1.427 1_565 S
C1504 H1495 0.930 . S
C1504 C1502 1.378 . S
C1504 C1505 1.367 . S
C1505 C1504 1.367 . S
C1505 C1507 1.433 1_545 S
C1506 C1502 1.350 . S
C1506 C1503 1.463 1_545 S
C1506 N1510 1.427 1_545 S
C1507 H1497 0.929 . S
C1507 C1505 1.433 1_565 S
C1507 N1510 1.384 . S
C1508 H1499 0.929 . S
C1508 C1500 1.378 . S
C1508 C1503 1.350 . S
C1509 H1496 0.929 . S
C1509 C1501 1.433 1_545 S
C1509 N1511 1.384 . S
N1510 C1506 1.427 1_565 S
N1510 C1507 1.384 . S
N1511 C1503 1.427 1_545 S
N1511 C1509 1.384 . S
H1512 C1518 0.930 . S
H1513 C1522 0.934 . S
H1514 C1527 0.929 . S
H1515 C1525 0.929 . S
H1516 C1520 0.929 . S
H1517 C1526 0.929 . S
C1518 H1512 0.930 . S
C1518 C1519 1.367 . S
C1518 C1526 1.378 . S
C1519 C1518 1.367 . S
C1519 C1527 1.433 . S
C1520 H1516 0.929 . S
C1520 C1522 1.376 1_655 S
C1520 C1524 1.350 . S
C1521 C1524 1.463 . S
C1521 C1526 1.350 . S
C1521 N1529 1.427 . S
C1522 H1513 0.934 . S
C1522 C1520 1.376 1_455 S
C1522 C1523 1.365 . S
C1523 C1522 1.365 . S
C1523 C1525 1.433 . S
C1524 C1520 1.350 . S
C1524 C1521 1.463 . S
C1524 N1528 1.427 . S
C1525 H1515 0.929 . S
C1525 C1523 1.433 . S
C1525 N1528 1.384 1_455 S
C1526 H1517 0.929 . S
C1526 C1518 1.378 . S
C1526 C1521 1.350 . S
C1527 H1514 0.929 . S
C1527 C1519 1.433 . S
C1527 N1529 1.384 . S
N1528 C1524 1.427 . S
N1528 C1525 1.384 1_655 S
N1529 C1521 1.427 . S
N1529 C1527 1.384 . S
H1530 C1536 0.930 . S
H1531 C1540 0.930 . S
H1532 C1545 0.929 . S
H1533 C1543 0.929 . S
H1534 C1538 0.929 . S
H1535 C1544 0.929 . S
C1536 H1530 0.930 . S
C1536 C1537 1.367 . S
C1536 C1544 1.378 . S
C1537 C1536 1.367 . S
C1537 C1545 1.433 . S
C1538 H1534 0.929 . S
C1538 C1540 1.378 . S
C1538 C1542 1.350 . S
C1539 C1542 1.463 . S
C1539 C1544 1.350 . S
C1539 N1547 1.427 . S
C1540 H1531 0.930 . S
C1540 C1538 1.378 . S
C1540 C1541 1.367 . S
C1541 C1540 1.367 . S
C1541 C1543 1.433 . S
C1542 C1538 1.350 . S
C1542 C1539 1.463 . S
C1542 N1546 1.427 . S
C1543 H1533 0.929 . S
C1543 C1541 1.433 . S
C1543 N1546 1.384 . S
C1544 H1535 0.929 . S
C1544 C1536 1.378 . S
C1544 C1539 1.350 . S
C1545 H1532 0.929 . S
C1545 C1537 1.433 . S
C1545 N1547 1.384 . S
N1546 C1542 1.427 . S
N1546 C1543 1.384 . S
N1547 C1539 1.427 . S
N1547 C1545 1.384 . S
H1548 C1554 0.930 1_565 S
H1549 C1558 0.899 1_545 S
H1550 C1563 0.929 . S
H1551 C1561 0.929 . S
H1552 C1556 0.929 . S
H1553 C1562 0.929 . S
C1554 H1548 0.930 1_545 S
C1554 C1555 1.367 . S
C1554 C1562 1.378 1_545 S
C1555 C1554 1.367 . S
C1555 C1563 1.433 . S
C1556 H1552 0.929 . S
C1556 C1558 1.378 1_545 S
C1556 C1560 1.350 1_545 S
C1557 C1560 1.463 1_545 S
C1557 C1562 1.350 1_545 S
C1557 N1565 1.427 . S
C1558 H1549 0.899 1_565 S
C1558 C1556 1.378 1_565 S
C1558 C1559 1.367 . S
C1559 C1558 1.367 . S
C1559 C1561 1.433 . S
C1560 C1556 1.350 1_565 S
C1560 C1557 1.463 1_565 S
C1560 N1564 1.427 . S
C1561 H1551 0.929 . S
C1561 C1559 1.433 . S
C1561 N1564 1.384 . S
C1562 H1553 0.929 . S
C1562 C1554 1.378 1_565 S
C1562 C1557 1.350 1_565 S
C1563 H1550 0.929 . S
C1563 C1555 1.433 . S
C1563 N1565 1.384 . S
N1564 C1560 1.427 . S
N1564 C1561 1.384 . S
N1565 C1557 1.427 . S
N1565 C1563 1.384 . S
H1566 C1572 0.930 . S
H1567 C1576 0.930 . S
H1568 C1581 0.929 . S
H1569 C1579 0.929 1_655 S
H1570 C1574 0.929 . S
H1571 C1580 0.929 . S
C1572 H1566 0.930 . S
C1572 C1573 1.367 . S
C1572 C1580 1.378 . S
C1573 C1572 1.367 . S
C1573 C1581 1.433 . S
C1574 H1570 0.929 . S
C1574 C1576 1.378 . S
C1574 C1578 1.350 . S
C1575 C1578 1.463 1_655 S
C1575 C1580 1.350 . S
C1575 N1583 1.431 1_655 S
C1576 H1567 0.930 . S
C1576 C1574 1.378 . S
C1576 C1577 1.367 . S
C1577 C1576 1.367 . S
C1577 C1579 1.433 . S
C1578 C1574 1.350 . S
C1578 C1575 1.463 1_455 S
C1578 N1582 1.427 1_455 S
C1579 H1569 0.929 1_455 S
C1579 C1577 1.433 . S
C1579 N1582 1.384 1_455 S
C1580 H1571 0.929 . S
C1580 C1572 1.378 . S
C1580 C1575 1.350 . S
C1581 H1568 0.929 . S
C1581 C1573 1.433 . S
C1581 N1583 1.386 1_655 S
N1582 C1578 1.427 1_655 S
N1582 C1579 1.384 1_655 S
N1583 C1575 1.431 1_455 S
N1583 C1581 1.386 1_455 S
H1584 C1590 0.930 . S
H1585 C1594 0.930 . S
H1586 C1599 0.929 . S
H1587 C1597 0.929 . S
H1588 C1592 0.929 . S
H1589 C1598 0.929 . S
C1590 H1584 0.930 . S
C1590 C1591 1.367 . S
C1590 C1598 1.378 . S
C1591 C1590 1.367 . S
C1591 C1599 1.433 . S
C1592 H1588 0.929 . S
C1592 C1594 1.378 . S
C1592 C1596 1.350 . S
C1593 C1596 1.463 . S
C1593 C1598 1.350 . S
C1593 N1601 1.427 . S
C1594 H1585 0.930 . S
C1594 C1592 1.378 . S
C1594 C1595 1.367 . S
C1595 C1594 1.367 . S
C1595 C1597 1.433 . S
C1596 C1592 1.350 . S
C1596 C1593 1.463 . S
C1596 N1600 1.427 . S
C1597 H1587 0.929 . S
C1597 C1595 1.433 . S
C1597 N1600 1.384 . S
C1598 H1589 0.929 . S
C1598 C1590 1.378 . S
C1598 C1593 1.350 . S
C1599 H1586 0.929 . S
C1599 C1591 1.433 . S
C1599 N1601 1.384 . S
N1600 C1596 1.427 . S
N1600 C1597 1.384 . S
N1601 C1593 1.427 . S
N1601 C1599 1.384 . S
H1602 C1608 0.930 . S
H1603 C1612 0.930 . S
H1604 C1617 0.929 . S
H1605 C1615 0.929 . S
H1606 C1610 0.929 . S
H1607 C1616 0.929 . S
C1608 H1602 0.930 . S
C1608 C1609 1.367 . S
C1608 C1616 1.378 . S
C1609 C1608 1.367 . S
C1609 C1617 1.433 . S
C1610 H1606 0.929 . S
C1610 C1612 1.378 . S
C1610 C1614 1.350 . S
C1611 C1614 1.463 . S
C1611 C1616 1.350 . S
C1611 N1619 1.427 . S
C1612 H1603 0.930 . S
C1612 C1610 1.378 . S
C1612 C1613 1.367 . S
C1613 C1612 1.367 . S
C1613 C1615 1.433 . S
C1614 C1610 1.350 . S
C1614 C1611 1.463 . S
C1614 N1618 1.427 . S
C1615 H1605 0.929 . S
C1615 C1613 1.433 . S
C1615 N1618 1.384 . S
C1616 H1607 0.929 . S
C1616 C1608 1.378 . S
C1616 C1611 1.350 . S
C1617 H1604 0.929 . S
C1617 C1609 1.433 . S
C1617 N1619 1.384 . S
N1618 C1614 1.427 . S
N1618 C1615 1.384 . S
N1619 C1611 1.427 . S
N1619 C1617 1.384 . S
H1620 C1626 0.930 . S
H1621 C1630 0.930 . S
H1622 C1635 0.929 . S
H1623 C1633 0.929 . S
H1624 C1628 0.929 . S
H1625 C1634 0.929 . S
C1626 H1620 0.930 . S
C1626 C1627 1.367 . S
C1626 C1634 1.378 . S
C1627 C1626 1.367 . S
C1627 C1635 1.433 . S
C1628 H1624 0.929 . S
C1628 C1630 1.378 . S
C1628 C1632 1.350 . S
C1629 C1632 1.463 . S
C1629 C1634 1.350 . S
C1629 N1637 1.427 . S
C1630 H1621 0.930 . S
C1630 C1628 1.378 . S
C1630 C1631 1.367 . S
C1631 C1630 1.367 . S
C1631 C1633 1.433 . S
C1632 C1628 1.350 . S
C1632 C1629 1.463 . S
C1632 N1636 1.427 . S
C1633 H1623 0.929 . S
C1633 C1631 1.433 . S
C1633 N1636 1.384 . S
C1634 H1625 0.929 . S
C1634 C1626 1.378 . S
C1634 C1629 1.350 . S
C1635 H1622 0.929 . S
C1635 C1627 1.433 . S
C1635 N1637 1.384 . S
N1636 C1632 1.427 . S
N1636 C1633 1.384 . S
N1637 C1629 1.427 . S
N1637 C1635 1.384 . S
H1638 C1644 0.930 . S
H1639 C1648 0.930 . S
H1640 C1653 0.929 . S
H1641 C1651 0.929 . S
H1642 C1646 0.929 . S
H1643 C1652 0.929 . S
C1644 H1638 0.930 . S
C1644 C1645 1.367 . S
C1644 C1652 1.378 . S
C1645 C1644 1.367 . S
C1645 C1653 1.433 . S
C1646 H1642 0.929 . S
C1646 C1648 1.378 . S
C1646 C1650 1.350 . S
C1647 C1650 1.463 . S
C1647 C1652 1.350 . S
C1647 N1655 1.427 . S
C1648 H1639 0.930 . S
C1648 C1646 1.378 . S
C1648 C1649 1.367 . S
C1649 C1648 1.367 . S
C1649 C1651 1.433 . S
C1650 C1646 1.350 . S
C1650 C1647 1.463 . S
C1650 N1654 1.427 . S
C1651 H1641 0.929 . S
C1651 C1649 1.433 . S
C1651 N1654 1.384 . S
C1652 H1643 0.929 . S
C1652 C1644 1.378 . S
C1652 C1647 1.350 . S
C1653 H1640 0.929 . S
C1653 C1645 1.433 . S
C1653 N1655 1.384 . S
N1654 C1650 1.427 . S
N1654 C1651 1.384 . S
N1655 C1647 1.427 . S
N1655 C1653 1.384 . S
H1656 C1662 0.930 . S
H1657 C1666 0.930 . S
H1658 C1671 0.929 . S
H1659 C1669 0.929 . S
H1660 C1664 0.929 . S
H1661 C1670 0.929 . S
C1662 H1656 0.930 . S
C1662 C1663 1.367 . S
C1662 C1670 1.378 . S
C1663 C1662 1.367 . S
C1663 C1671 1.433 . S
C1664 H1660 0.929 . S
C1664 C1666 1.378 . S
C1664 C1668 1.350 . S
C1665 C1668 1.463 . S
C1665 C1670 1.350 . S
C1665 N1673 1.427 . S
C1666 H1657 0.930 . S
C1666 C1664 1.378 . S
C1666 C1667 1.367 . S
C1667 C1666 1.367 . S
C1667 C1669 1.433 . S
C1668 C1664 1.350 . S
C1668 C1665 1.463 . S
C1668 N1672 1.427 . S
C1669 H1659 0.929 . S
C1669 C1667 1.433 . S
C1669 N1672 1.384 . S
C1670 H1661 0.929 . S
C1670 C1662 1.378 . S
C1670 C1665 1.350 . S
C1671 H1658 0.929 . S
C1671 C1663 1.433 . S
C1671 N1673 1.384 . S
N1672 C1668 1.427 . S
N1672 C1669 1.384 . S
N1673 C1665 1.427 . S
N1673 C1671 1.384 . S
H1674 C1680 0.930 . S
H1675 C1684 0.930 . S
H1676 C1689 0.929 . S
H1677 C1687 0.929 . S
H1678 C1682 0.929 . S
H1679 C1688 0.929 . S
C1680 H1674 0.930 . S
C1680 C1681 1.367 . S
C1680 C1688 1.378 . S
C1681 C1680 1.367 . S
C1681 C1689 1.433 . S
C1682 H1678 0.929 . S
C1682 C1684 1.378 . S
C1682 C1686 1.350 . S
C1683 C1686 1.463 . S
C1683 C1688 1.350 . S
C1683 N1691 1.427 . S
C1684 H1675 0.930 . S
C1684 C1682 1.378 . S
C1684 C1685 1.367 . S
C1685 C1684 1.367 . S
C1685 C1687 1.433 . S
C1686 C1682 1.350 . S
C1686 C1683 1.463 . S
C1686 N1690 1.427 . S
C1687 H1677 0.929 . S
C1687 C1685 1.433 . S
C1687 N1690 1.384 . S
C1688 H1679 0.929 . S
C1688 C1680 1.378 . S
C1688 C1683 1.350 . S
C1689 H1676 0.929 . S
C1689 C1681 1.433 . S
C1689 N1691 1.384 . S
N1690 C1686 1.427 . S
N1690 C1687 1.384 . S
N1691 C1683 1.427 . S
N1691 C1689 1.384 . S
H1692 C1698 0.930 . S
H1693 C1702 0.930 . S
H1694 C1707 0.929 . S
H1695 C1705 0.929 . S
H1696 C1700 0.929 . S
H1697 C1706 0.929 . S
C1698 H1692 0.930 . S
C1698 C1699 1.367 . S
C1698 C1706 1.378 . S
C1699 C1698 1.367 . S
C1699 C1707 1.433 . S
C1700 H1696 0.929 . S
C1700 C1702 1.378 . S
C1700 C1704 1.350 . S
C1701 C1704 1.463 . S
C1701 C1706 1.350 . S
C1701 N1709 1.427 . S
C1702 H1693 0.930 . S
C1702 C1700 1.378 . S
C1702 C1703 1.367 . S
C1703 C1702 1.367 . S
C1703 C1705 1.433 . S
C1704 C1700 1.350 . S
C1704 C1701 1.463 . S
C1704 N1708 1.427 . S
C1705 H1695 0.929 . S
C1705 C1703 1.433 . S
C1705 N1708 1.384 . S
C1706 H1697 0.929 . S
C1706 C1698 1.378 . S
C1706 C1701 1.350 . S
C1707 H1694 0.929 . S
C1707 C1699 1.433 . S
C1707 N1709 1.384 . S
N1708 C1704 1.427 . S
N1708 C1705 1.384 . S
N1709 C1701 1.427 . S
N1709 C1707 1.384 . S
H1710 C1716 0.930 . S
H1711 C1720 0.930 . S
H1712 C1725 0.929 . S
H1713 C1723 0.929 . S
H1714 C1718 0.929 . S
H1715 C1724 0.929 . S
C1716 H1710 0.930 . S
C1716 C1717 1.367 . S
C1716 C1724 1.378 . S
C1717 C1716 1.367 . S
C1717 C1725 1.433 . S
C1718 H1714 0.929 . S
C1718 C1720 1.378 . S
C1718 C1722 1.350 . S
C1719 C1722 1.463 . S
C1719 C1724 1.350 . S
C1719 N1727 1.427 . S
C1720 H1711 0.930 . S
C1720 C1718 1.378 . S
C1720 C1721 1.367 . S
C1721 C1720 1.367 . S
C1721 C1723 1.433 . S
C1722 C1718 1.350 . S
C1722 C1719 1.463 . S
C1722 N1726 1.427 . S
C1723 H1713 0.929 . S
C1723 C1721 1.433 . S
C1723 N1726 1.384 . S
C1724 H1715 0.929 . S
C1724 C1716 1.378 . S
C1724 C1719 1.350 . S
C1725 H1712 0.929 . S
C1725 C1717 1.433 . S
C1725 N1727 1.384 . S
N1726 C1722 1.427 . S
N1726 C1723 1.384 . S
N1727 C1719 1.427 . S
N1727 C1725 1.384 . S
H1728 C1734 0.930 . S
H1729 C1738 0.930 . S
H1730 C1743 0.929 . S
H1731 C1741 0.929 . S
H1732 C1736 0.929 . S
H1733 C1742 0.929 . S
C1734 H1728 0.930 . S
C1734 C1735 1.367 . S
C1734 C1742 1.378 . S
C1735 C1734 1.367 . S
C1735 C1743 1.433 . S
C1736 H1732 0.929 . S
C1736 C1738 1.378 . S
C1736 C1740 1.350 . S
C1737 C1740 1.463 . S
C1737 C1742 1.350 . S
C1737 N1745 1.427 . S
C1738 H1729 0.930 . S
C1738 C1736 1.378 . S
C1738 C1739 1.367 . S
C1739 C1738 1.367 . S
C1739 C1741 1.433 . S
C1740 C1736 1.350 . S
C1740 C1737 1.463 . S
C1740 N1744 1.427 . S
C1741 H1731 0.929 . S
C1741 C1739 1.433 . S
C1741 N1744 1.384 . S
C1742 H1733 0.929 . S
C1742 C1734 1.378 . S
C1742 C1737 1.350 . S
C1743 H1730 0.929 . S
C1743 C1735 1.433 . S
C1743 N1745 1.384 . S
N1744 C1740 1.427 . S
N1744 C1741 1.384 . S
N1745 C1737 1.427 . S
N1745 C1743 1.384 . S
H1746 C1752 0.930 . S
H1747 C1756 0.930 . S
H1748 C1761 0.929 . S
H1749 C1759 0.929 . S
H1750 C1754 0.929 . S
H1751 C1760 0.929 . S
C1752 H1746 0.930 . S
C1752 C1753 1.367 . S
C1752 C1760 1.378 . S
C1753 C1752 1.367 . S
C1753 C1761 1.433 . S
C1754 H1750 0.929 . S
C1754 C1756 1.378 . S
C1754 C1758 1.350 . S
C1755 C1758 1.463 . S
C1755 C1760 1.350 . S
C1755 N1763 1.427 . S
C1756 H1747 0.930 . S
C1756 C1754 1.378 . S
C1756 C1757 1.367 . S
C1757 C1756 1.367 . S
C1757 C1759 1.433 . S
C1758 C1754 1.350 . S
C1758 C1755 1.463 . S
C1758 N1762 1.427 . S
C1759 H1749 0.929 . S
C1759 C1757 1.433 . S
C1759 N1762 1.384 . S
C1760 H1751 0.929 . S
C1760 C1752 1.378 . S
C1760 C1755 1.350 . S
C1761 H1748 0.929 . S
C1761 C1753 1.433 . S
C1761 N1763 1.384 . S
N1762 C1758 1.427 . S
N1762 C1759 1.384 . S
N1763 C1755 1.427 . S
N1763 C1761 1.384 . S
H1764 C1770 0.930 . S
H1765 C1774 0.930 . S
H1766 C1779 0.929 . S
H1767 C1777 0.929 . S
H1768 C1772 0.929 . S
H1769 C1778 0.929 . S
C1770 H1764 0.930 . S
C1770 C1771 1.367 . S
C1770 C1778 1.378 . S
C1771 C1770 1.367 . S
C1771 C1779 1.433 . S
C1772 H1768 0.929 . S
C1772 C1774 1.378 . S
C1772 C1776 1.350 . S
C1773 C1776 1.463 . S
C1773 C1778 1.350 . S
C1773 N1781 1.427 . S
C1774 H1765 0.930 . S
C1774 C1772 1.378 . S
C1774 C1775 1.367 . S
C1775 C1774 1.367 . S
C1775 C1777 1.433 . S
C1776 C1772 1.350 . S
C1776 C1773 1.463 . S
C1776 N1780 1.427 . S
C1777 H1767 0.929 . S
C1777 C1775 1.433 . S
C1777 N1780 1.384 . S
C1778 H1769 0.929 . S
C1778 C1770 1.378 . S
C1778 C1773 1.350 . S
C1779 H1766 0.929 . S
C1779 C1771 1.433 . S
C1779 N1781 1.384 . S
N1780 C1776 1.427 . S
N1780 C1777 1.384 . S
N1781 C1773 1.427 . S
N1781 C1779 1.384 . S
H1782 C1788 0.930 . S
H1783 C1792 0.930 . S
H1784 C1797 0.929 . S
H1785 C1795 0.929 . S
H1786 C1790 0.929 . S
H1787 C1796 0.929 . S
C1788 H1782 0.930 . S
C1788 C1789 1.367 . S
C1788 C1796 1.378 . S
C1789 C1788 1.367 . S
C1789 C1797 1.433 . S
C1790 H1786 0.929 . S
C1790 C1792 1.378 . S
C1790 C1794 1.350 . S
C1791 C1794 1.463 . S
C1791 C1796 1.350 . S
C1791 N1799 1.427 . S
C1792 H1783 0.930 . S
C1792 C1790 1.378 . S
C1792 C1793 1.367 . S
C1793 C1792 1.367 . S
C1793 C1795 1.433 . S
C1794 C1790 1.350 . S
C1794 C1791 1.463 . S
C1794 N1798 1.427 . S
C1795 H1785 0.929 . S
C1795 C1793 1.433 . S
C1795 N1798 1.384 . S
C1796 H1787 0.929 . S
C1796 C1788 1.378 . S
C1796 C1791 1.350 . S
C1797 H1784 0.929 . S
C1797 C1789 1.433 . S
C1797 N1799 1.384 . S
N1798 C1794 1.427 . S
N1798 C1795 1.384 . S
N1799 C1791 1.427 . S
N1799 C1797 1.384 . S
H1800 C1806 0.930 . S
H1801 C1810 0.930 . S
H1802 C1815 0.929 . S
H1803 C1813 0.929 . S
H1804 C1808 0.929 . S
H1805 C1814 0.929 . S
C1806 H1800 0.930 . S
C1806 C1807 1.367 . S
C1806 C1814 1.378 . S
C1807 C1806 1.367 . S
C1807 C1815 1.433 . S
C1808 H1804 0.929 . S
C1808 C1810 1.378 . S
C1808 C1812 1.350 . S
C1809 C1812 1.463 . S
C1809 C1814 1.350 . S
C1809 N1817 1.427 . S
C1810 H1801 0.930 . S
C1810 C1808 1.378 . S
C1810 C1811 1.367 . S
C1811 C1810 1.367 . S
C1811 C1813 1.433 . S
C1812 C1808 1.350 . S
C1812 C1809 1.463 . S
C1812 N1816 1.427 . S
C1813 H1803 0.929 . S
C1813 C1811 1.433 . S
C1813 N1816 1.384 . S
C1814 H1805 0.929 . S
C1814 C1806 1.378 . S
C1814 C1809 1.350 . S
C1815 H1802 0.929 . S
C1815 C1807 1.433 . S
C1815 N1817 1.384 . S
N1816 C1812 1.427 . S
N1816 C1813 1.384 . S
N1817 C1809 1.427 . S
N1817 C1815 1.384 . S
H1818 C1824 0.930 . S
H1819 C1828 0.930 . S
H1820 C1833 0.929 . S
H1821 C1831 0.929 . S
H1822 C1826 0.929 . S
H1823 C1832 0.929 . S
C1824 H1818 0.930 . S
C1824 C1825 1.367 . S
C1824 C1832 1.378 . S
C1825 C1824 1.367 . S
C1825 C1833 1.433 . S
C1826 H1822 0.929 . S
C1826 C1828 1.378 . S
C1826 C1830 1.350 . S
C1827 C1830 1.463 . S
C1827 C1832 1.350 . S
C1827 N1835 1.427 . S
C1828 H1819 0.930 . S
C1828 C1826 1.378 . S
C1828 C1829 1.367 . S
C1829 C1828 1.367 . S
C1829 C1831 1.433 . S
C1830 C1826 1.350 . S
C1830 C1827 1.463 . S
C1830 N1834 1.427 . S
C1831 H1821 0.929 . S
C1831 C1829 1.433 . S
C1831 N1834 1.384 . S
C1832 H1823 0.929 . S
C1832 C1824 1.378 . S
C1832 C1827 1.350 . S
C1833 H1820 0.929 . S
C1833 C1825 1.433 . S
C1833 N1835 1.384 . S
N1834 C1830 1.427 . S
N1834 C1831 1.384 . S
N1835 C1827 1.427 . S
N1835 C1833 1.384 . S
H1836 C1842 0.930 . S
H1837 C1846 0.930 . S
H1838 C1851 0.929 . S
H1839 C1849 0.929 . S
H1840 C1844 0.929 . S
H1841 C1850 0.929 . S
C1842 H1836 0.930 . S
C1842 C1843 1.367 . S
C1842 C1850 1.378 . S
C1843 C1842 1.367 . S
C1843 C1851 1.433 . S
C1844 H1840 0.929 . S
C1844 C1846 1.378 . S
C1844 C1848 1.350 . S
C1845 C1848 1.463 . S
C1845 C1850 1.350 . S
C1845 N1853 1.427 . S
C1846 H1837 0.930 . S
C1846 C1844 1.378 . S
C1846 C1847 1.367 . S
C1847 C1846 1.367 . S
C1847 C1849 1.433 . S
C1848 C1844 1.350 . S
C1848 C1845 1.463 . S
C1848 N1852 1.427 . S
C1849 H1839 0.929 . S
C1849 C1847 1.433 . S
C1849 N1852 1.384 . S
C1850 H1841 0.929 . S
C1850 C1842 1.378 . S
C1850 C1845 1.350 . S
C1851 H1838 0.929 . S
C1851 C1843 1.433 . S
C1851 N1853 1.384 . S
N1852 C1848 1.427 . S
N1852 C1849 1.384 . S
N1853 C1845 1.427 . S
N1853 C1851 1.384 . S
H1854 C1860 0.930 . S
H1855 C1864 0.930 . S
H1856 C1869 0.929 . S
H1857 C1867 0.929 . S
H1858 C1862 0.929 . S
H1859 C1868 0.929 . S
C1860 H1854 0.930 . S
C1860 C1861 1.367 . S
C1860 C1868 1.378 . S
C1861 C1860 1.367 . S
C1861 C1869 1.433 . S
C1862 H1858 0.929 . S
C1862 C1864 1.378 . S
C1862 C1866 1.350 . S
C1863 C1866 1.463 . S
C1863 C1868 1.350 . S
C1863 N1871 1.427 . S
C1864 H1855 0.930 . S
C1864 C1862 1.378 . S
C1864 C1865 1.367 . S
C1865 C1864 1.367 . S
C1865 C1867 1.433 . S
C1866 C1862 1.350 . S
C1866 C1863 1.463 . S
C1866 N1870 1.427 . S
C1867 H1857 0.929 . S
C1867 C1865 1.433 . S
C1867 N1870 1.384 . S
C1868 H1859 0.929 . S
C1868 C1860 1.378 . S
C1868 C1863 1.350 . S
C1869 H1856 0.929 . S
C1869 C1861 1.433 . S
C1869 N1871 1.384 . S
N1870 C1866 1.427 . S
N1870 C1867 1.384 . S
N1871 C1863 1.427 . S
N1871 C1869 1.384 . S
H1872 C1878 0.930 . S
H1873 C1882 0.930 . S
H1874 C1887 0.929 . S
H1875 C1885 0.929 . S
H1876 C1880 0.929 . S
H1877 C1886 0.929 . S
C1878 H1872 0.930 . S
C1878 C1879 1.367 . S
C1878 C1886 1.378 . S
C1879 C1878 1.367 . S
C1879 C1887 1.433 . S
C1880 H1876 0.929 . S
C1880 C1882 1.378 . S
C1880 C1884 1.350 . S
C1881 C1884 1.463 . S
C1881 C1886 1.350 . S
C1881 N1889 1.427 . S
C1882 H1873 0.930 . S
C1882 C1880 1.378 . S
C1882 C1883 1.367 . S
C1883 C1882 1.367 . S
C1883 C1885 1.433 . S
C1884 C1880 1.350 . S
C1884 C1881 1.463 . S
C1884 N1888 1.427 . S
C1885 H1875 0.929 . S
C1885 C1883 1.433 . S
C1885 N1888 1.384 . S
C1886 H1877 0.929 . S
C1886 C1878 1.378 . S
C1886 C1881 1.350 . S
C1887 H1874 0.929 . S
C1887 C1879 1.433 . S
C1887 N1889 1.384 . S
N1888 C1884 1.427 . S
N1888 C1885 1.384 . S
N1889 C1881 1.427 . S
N1889 C1887 1.384 . S
H1890 C1896 0.930 . S
H1891 C1900 0.930 . S
H1892 C1905 0.929 . S
H1893 C1903 0.929 . S
H1894 C1898 0.929 . S
H1895 C1904 0.929 . S
C1896 H1890 0.930 . S
C1896 C1897 1.367 . S
C1896 C1904 1.378 . S
C1897 C1896 1.367 . S
C1897 C1905 1.433 . S
C1898 H1894 0.929 . S
C1898 C1900 1.378 . S
C1898 C1902 1.350 . S
C1899 C1902 1.463 . S
C1899 C1904 1.350 . S
C1899 N1907 1.427 . S
C1900 H1891 0.930 . S
C1900 C1898 1.378 . S
C1900 C1901 1.367 . S
C1901 C1900 1.367 . S
C1901 C1903 1.433 . S
C1902 C1898 1.350 . S
C1902 C1899 1.463 . S
C1902 N1906 1.427 . S
C1903 H1893 0.929 . S
C1903 C1901 1.433 . S
C1903 N1906 1.384 . S
C1904 H1895 0.929 . S
C1904 C1896 1.378 . S
C1904 C1899 1.350 . S
C1905 H1892 0.929 . S
C1905 C1897 1.433 . S
C1905 N1907 1.384 . S
N1906 C1902 1.427 . S
N1906 C1903 1.384 . S
N1907 C1899 1.427 . S
N1907 C1905 1.384 . S
H1908 C1914 0.930 . S
H1909 C1918 0.930 . S
H1910 C1923 0.929 . S
H1911 C1921 0.929 . S
H1912 C1916 0.929 . S
H1913 C1922 0.929 . S
C1914 H1908 0.930 . S
C1914 C1915 1.367 . S
C1914 C1922 1.378 . S
C1915 C1914 1.367 . S
C1915 C1923 1.433 . S
C1916 H1912 0.929 . S
C1916 C1918 1.378 . S
C1916 C1920 1.350 . S
C1917 C1920 1.463 . S
C1917 C1922 1.350 . S
C1917 N1925 1.427 . S
C1918 H1909 0.930 . S
C1918 C1916 1.378 . S
C1918 C1919 1.367 . S
C1919 C1918 1.367 . S
C1919 C1921 1.433 . S
C1920 C1916 1.350 . S
C1920 C1917 1.463 . S
C1920 N1924 1.427 . S
C1921 H1911 0.929 . S
C1921 C1919 1.433 . S
C1921 N1924 1.384 . S
C1922 H1913 0.929 . S
C1922 C1914 1.378 . S
C1922 C1917 1.350 . S
C1923 H1910 0.929 . S
C1923 C1915 1.433 . S
C1923 N1925 1.384 . S
N1924 C1920 1.427 . S
N1924 C1921 1.384 . S
N1925 C1917 1.427 . S
N1925 C1923 1.384 . S
H1926 C1932 0.930 . S
H1927 C1936 0.930 . S
H1928 C1941 0.929 . S
H1929 C1939 0.929 . S
H1930 C1934 0.929 . S
H1931 C1940 0.929 . S
C1932 H1926 0.930 . S
C1932 C1933 1.367 . S
C1932 C1940 1.378 . S
C1933 C1932 1.367 . S
C1933 C1941 1.433 . S
C1934 H1930 0.929 . S
C1934 C1936 1.378 . S
C1934 C1938 1.350 . S
C1935 C1938 1.463 . S
C1935 C1940 1.350 . S
C1935 N1943 1.427 . S
C1936 H1927 0.930 . S
C1936 C1934 1.378 . S
C1936 C1937 1.367 . S
C1937 C1936 1.367 . S
C1937 C1939 1.433 . S
C1938 C1934 1.350 . S
C1938 C1935 1.463 . S
C1938 N1942 1.427 . S
C1939 H1929 0.929 . S
C1939 C1937 1.433 . S
C1939 N1942 1.384 . S
C1940 H1931 0.929 . S
C1940 C1932 1.378 . S
C1940 C1935 1.350 . S
C1941 H1928 0.929 . S
C1941 C1933 1.433 . S
C1941 N1943 1.384 . S
N1942 C1938 1.427 . S
N1942 C1939 1.384 . S
N1943 C1935 1.427 . S
N1943 C1941 1.384 . S
H1944 C1950 0.930 . S
H1945 C1954 0.930 . S
H1946 C1959 0.929 . S
H1947 C1957 0.929 . S
H1948 C1952 0.929 . S
H1949 C1958 0.929 . S
C1950 H1944 0.930 . S
C1950 C1951 1.367 . S
C1950 C1958 1.378 . S
C1951 C1950 1.367 . S
C1951 C1959 1.433 . S
C1952 H1948 0.929 . S
C1952 C1954 1.378 . S
C1952 C1956 1.350 . S
C1953 C1956 1.463 . S
C1953 C1958 1.350 . S
C1953 N1961 1.427 . S
C1954 H1945 0.930 . S
C1954 C1952 1.378 . S
C1954 C1955 1.367 . S
C1955 C1954 1.367 . S
C1955 C1957 1.433 . S
C1956 C1952 1.350 . S
C1956 C1953 1.463 . S
C1956 N1960 1.427 . S
C1957 H1947 0.929 . S
C1957 C1955 1.433 . S
C1957 N1960 1.384 . S
C1958 H1949 0.929 . S
C1958 C1950 1.378 . S
C1958 C1953 1.350 . S
C1959 H1946 0.929 . S
C1959 C1951 1.433 . S
C1959 N1961 1.384 . S
N1960 C1956 1.427 . S
N1960 C1957 1.384 . S
N1961 C1953 1.427 . S
N1961 C1959 1.384 . S
H1962 C1968 0.930 . S
H1963 C1972 0.930 . S
H1964 C1977 0.929 . S
H1965 C1975 0.929 . S
H1966 C1970 0.929 . S
H1967 C1976 0.929 . S
C1968 H1962 0.930 . S
C1968 C1969 1.367 . S
C1968 C1976 1.378 . S
C1969 C1968 1.367 . S
C1969 C1977 1.433 . S
C1970 H1966 0.929 . S
C1970 C1972 1.378 . S
C1970 C1974 1.350 . S
C1971 C1974 1.463 . S
C1971 C1976 1.350 . S
C1971 N1979 1.427 . S
C1972 H1963 0.930 . S
C1972 C1970 1.378 . S
C1972 C1973 1.367 . S
C1973 C1972 1.367 . S
C1973 C1975 1.433 . S
C1974 C1970 1.350 . S
C1974 C1971 1.463 . S
C1974 N1978 1.427 . S
C1975 H1965 0.929 . S
C1975 C1973 1.433 . S
C1975 N1978 1.384 . S
C1976 H1967 0.929 . S
C1976 C1968 1.378 . S
C1976 C1971 1.350 . S
C1977 H1964 0.929 . S
C1977 C1969 1.433 . S
C1977 N1979 1.384 . S
N1978 C1974 1.427 . S
N1978 C1975 1.384 . S
N1979 C1971 1.427 . S
N1979 C1977 1.384 . S
H1980 C1986 0.930 . S
H1981 C1990 0.930 . S
H1982 C1995 0.929 . S
H1983 C1993 0.929 . S
H1984 C1988 0.929 . S
H1985 C1994 0.929 . S
C1986 H1980 0.930 . S
C1986 C1987 1.367 . S
C1986 C1994 1.378 . S
C1987 C1986 1.367 . S
C1987 C1995 1.433 . S
C1988 H1984 0.929 . S
C1988 C1990 1.378 . S
C1988 C1992 1.350 . S
C1989 C1992 1.463 . S
C1989 C1994 1.350 . S
C1989 N1997 1.427 . S
C1990 H1981 0.930 . S
C1990 C1988 1.378 . S
C1990 C1991 1.367 . S
C1991 C1990 1.367 . S
C1991 C1993 1.433 . S
C1992 C1988 1.350 . S
C1992 C1989 1.463 . S
C1992 N1996 1.427 . S
C1993 H1983 0.929 . S
C1993 C1991 1.433 . S
C1993 N1996 1.384 . S
C1994 H1985 0.929 . S
C1994 C1986 1.378 . S
C1994 C1989 1.350 . S
C1995 H1982 0.929 . S
C1995 C1987 1.433 . S
C1995 N1997 1.384 . S
N1996 C1992 1.427 . S
N1996 C1993 1.384 . S
N1997 C1989 1.427 . S
N1997 C1995 1.384 . S
H1998 C2004 0.930 . S
H1999 C2008 0.930 . S
H2000 C2013 0.929 . S
H2001 C2011 0.929 . S
H2002 C2006 0.929 . S
H2003 C2012 0.929 . S
C2004 H1998 0.930 . S
C2004 C2005 1.367 . S
C2004 C2012 1.378 . S
C2005 C2004 1.367 . S
C2005 C2013 1.433 . S
C2006 H2002 0.929 . S
C2006 C2008 1.378 . S
C2006 C2010 1.350 . S
C2007 C2010 1.463 . S
C2007 C2012 1.350 . S
C2007 N2015 1.427 . S
C2008 H1999 0.930 . S
C2008 C2006 1.378 . S
C2008 C2009 1.367 . S
C2009 C2008 1.367 . S
C2009 C2011 1.433 . S
C2010 C2006 1.350 . S
C2010 C2007 1.463 . S
C2010 N2014 1.427 . S
C2011 H2001 0.929 . S
C2011 C2009 1.433 . S
C2011 N2014 1.384 . S
C2012 H2003 0.929 . S
C2012 C2004 1.378 . S
C2012 C2007 1.350 . S
C2013 H2000 0.929 . S
C2013 C2005 1.433 . S
C2013 N2015 1.384 . S
N2014 C2010 1.427 . S
N2014 C2011 1.384 . S
N2015 C2007 1.427 . S
N2015 C2013 1.384 . S
H2016 C2022 0.930 . S
H2017 C2026 0.930 . S
H2018 C2031 0.929 . S
H2019 C2029 0.929 . S
H2020 C2024 0.929 . S
H2021 C2030 0.929 . S
C2022 H2016 0.930 . S
C2022 C2023 1.367 . S
C2022 C2030 1.378 . S
C2023 C2022 1.367 . S
C2023 C2031 1.433 . S
C2024 H2020 0.929 . S
C2024 C2026 1.378 . S
C2024 C2028 1.350 . S
C2025 C2028 1.463 1_455 S
C2025 C2030 1.350 . S
C2025 N2033 1.427 . S
C2026 H2017 0.930 . S
C2026 C2024 1.378 . S
C2026 C2027 1.367 . S
C2027 C2026 1.367 . S
C2027 C2029 1.433 . S
C2028 C2024 1.350 . S
C2028 C2025 1.463 1_655 S
C2028 N2032 1.427 . S
C2029 H2019 0.929 . S
C2029 C2027 1.433 . S
C2029 N2032 1.384 . S
C2030 H2021 0.929 . S
C2030 C2022 1.378 . S
C2030 C2025 1.350 . S
C2031 H2018 0.929 . S
C2031 C2023 1.433 . S
C2031 N2033 1.384 . S
N2032 C2028 1.427 . S
N2032 C2029 1.384 . S
N2033 C2025 1.427 . S
N2033 C2031 1.384 . S
H2034 C2040 0.930 . S
H2035 C2044 0.930 . S
H2036 C2049 0.929 . S
H2037 C2047 0.929 . S
H2038 C2042 0.929 . S
H2039 C2048 0.929 . S
C2040 H2034 0.930 . S
C2040 C2041 1.367 . S
C2040 C2048 1.378 . S
C2041 C2040 1.367 . S
C2041 C2049 1.433 . S
C2042 H2038 0.929 . S
C2042 C2044 1.378 . S
C2042 C2046 1.350 . S
C2043 C2046 1.463 . S
C2043 C2048 1.350 . S
C2043 N2051 1.427 . S
C2044 H2035 0.930 . S
C2044 C2042 1.378 . S
C2044 C2045 1.367 . S
C2045 C2044 1.367 . S
C2045 C2047 1.433 . S
C2046 C2042 1.350 . S
C2046 C2043 1.463 . S
C2046 N2050 1.427 . S
C2047 H2037 0.929 . S
C2047 C2045 1.433 . S
C2047 N2050 1.384 . S
C2048 H2039 0.929 . S
C2048 C2040 1.378 . S
C2048 C2043 1.350 . S
C2049 H2036 0.929 . S
C2049 C2041 1.433 . S
C2049 N2051 1.384 . S
N2050 C2046 1.427 . S
N2050 C2047 1.384 . S
N2051 C2043 1.427 . S
N2051 C2049 1.384 . S
H2052 C2058 0.930 . S
H2053 C2062 0.930 . S
H2054 C2067 0.929 . S
H2055 C2065 0.929 . S
H2056 C2060 0.929 . S
H2057 C2066 0.956 . S
C2058 H2052 0.930 . S
C2058 C2059 1.367 . S
C2058 C2066 1.378 . S
C2059 C2058 1.367 . S
C2059 C2067 1.433 . S
C2060 H2056 0.929 . S
C2060 C2062 1.378 . S
C2060 C2064 1.350 . S
C2061 C2064 1.463 1_545 S
C2061 C2066 1.350 . S
C2061 N2069 1.427 . S
C2062 H2053 0.930 . S
C2062 C2060 1.378 . S
C2062 C2063 1.367 . S
C2063 C2062 1.367 . S
C2063 C2065 1.433 . S
C2064 C2060 1.350 . S
C2064 C2061 1.463 1_565 S
C2064 N2068 1.427 . S
C2065 H2055 0.929 . S
C2065 C2063 1.433 . S
C2065 N2068 1.384 . S
C2066 H2057 0.956 . S
C2066 C2058 1.378 . S
C2066 C2061 1.350 . S
C2067 H2054 0.929 . S
C2067 C2059 1.433 . S
C2067 N2069 1.384 . S
N2068 C2064 1.427 . S
N2068 C2065 1.384 . S
N2069 C2061 1.427 . S
N2069 C2067 1.384 . S
H2070 C2076 0.930 . S
H2071 C2080 0.930 . S
H2072 C2085 0.929 . S
H2073 C2083 0.929 . S
H2074 C2078 0.929 . S
H2075 C2084 0.929 . S
C2076 H2070 0.930 . S
C2076 C2077 1.367 1_554 S
C2076 C2084 1.378 . S
C2077 C2076 1.367 1_556 S
C2077 C2085 1.433 . S
C2078 H2074 0.929 . S
C2078 C2080 1.378 . S
C2078 C2082 1.350 1_556 S
C2079 C2082 1.463 1_545 S
C2079 C2084 1.350 . S
C2079 N2087 1.427 1_554 S
C2080 H2071 0.930 . S
C2080 C2078 1.378 . S
C2080 C2081 1.367 1_556 S
C2081 C2080 1.367 1_554 S
C2081 C2083 1.433 . S
C2082 C2078 1.350 1_554 S
C2082 C2079 1.463 1_565 S
C2082 N2086 1.427 . S
C2083 H2073 0.929 . S
C2083 C2081 1.433 . S
C2083 N2086 1.384 . S
C2084 H2075 0.929 . S
C2084 C2076 1.378 . S
C2084 C2079 1.350 . S
C2085 H2072 0.929 . S
C2085 C2077 1.433 . S
C2085 N2087 1.384 . S
N2086 C2082 1.427 . S
N2086 C2083 1.384 . S
N2087 C2079 1.427 1_556 S
N2087 C2085 1.384 . S
H2088 C2094 0.930 . S
H2089 C2098 0.930 . S
H2090 C2103 0.929 . S
H2091 C2101 0.929 . S
H2092 C2096 0.917 1_556 S
H2093 C2102 0.929 . S
C2094 H2088 0.930 . S
C2094 C2095 1.367 1_554 S
C2094 C2102 1.378 . S
C2095 C2094 1.367 1_556 S
C2095 C2103 1.433 . S
C2096 H2092 0.917 1_554 S
C2096 C2098 1.384 . S
C2096 C2100 1.356 . S
C2097 C2100 1.463 1_655 S
C2097 C2102 1.350 . S
C2097 N2105 1.427 1_554 S
C2098 H2089 0.930 . S
C2098 C2096 1.384 . S
C2098 C2099 1.367 . S
C2099 C2098 1.367 . S
C2099 C2101 1.433 . S
C2100 C2096 1.356 . S
C2100 C2097 1.463 1_455 S
C2100 N2104 1.427 . S
C2101 H2091 0.929 . S
C2101 C2099 1.433 . S
C2101 N2104 1.384 . S
C2102 H2093 0.929 . S
C2102 C2094 1.378 . S
C2102 C2097 1.350 . S
C2103 H2090 0.929 . S
C2103 C2095 1.433 . S
C2103 N2105 1.384 . S
N2104 C2100 1.427 . S
N2104 C2101 1.384 . S
N2105 C2097 1.427 1_556 S
N2105 C2103 1.384 . S
H2106 C2112 0.930 . S
H2107 C2116 0.930 . S
H2108 C2121 0.938 . S
H2109 C2119 0.929 . S
H2110 C2114 0.929 . S
H2111 C2120 0.929 . S
C2112 H2106 0.930 . S
C2112 C2113 1.367 . S
C2112 C2120 1.378 . S
C2113 C2112 1.367 . S
C2113 C2121 1.432 1_554 S
C2114 H2110 0.929 . S
C2114 C2116 1.378 . S
C2114 C2118 1.350 . S
C2115 C2118 1.463 . S
C2115 C2120 1.350 . S
C2115 N2123 1.427 . S
C2116 H2107 0.930 . S
C2116 C2114 1.378 . S
C2116 C2117 1.367 . S
C2117 C2116 1.367 . S
C2117 C2119 1.433 . S
C2118 C2114 1.350 . S
C2118 C2115 1.463 . S
C2118 N2122 1.427 . S
C2119 H2109 0.929 . S
C2119 C2117 1.433 . S
C2119 N2122 1.384 . S
C2120 H2111 0.929 . S
C2120 C2112 1.378 . S
C2120 C2115 1.350 . S
C2121 H2108 0.938 . S
C2121 C2113 1.432 1_556 S
C2121 N2123 1.377 1_556 S
N2122 C2118 1.427 . S
N2122 C2119 1.384 . S
N2123 C2115 1.427 . S
N2123 C2121 1.377 1_554 S
C835 N12 1.453 . S
C839 N163 1.387 1_545 S
C853 C39 1.461 . S
C857 N186 1.416 1_655 S
C871 N140 1.407 . S
C875 C62 1.458 . S
C889 N255 1.423 1_455 S
C893 C85 1.470 . S
C907 C108 1.459 . S
C911 N209 1.408 . S
C925 N127 1.447 . S
C929 N232 1.385 1_565 S
C943 N25 1.681 . S
C947 C154 1.737 . S
C961 N48 1.546 1_455 S
C965 C177 1.599 . S
C979 C200 1.682 . S
C983 C7 1.714 . S
C997 C223 1.675 . S
C1001 C122 1.712 1_655 S
C1015 N71 1.541 . S
C1019 C246 1.591 . S
C1033 C269 1.734 . S
C1037 N94 1.670 . S
C1051 N439 1.391 . S
C1055 N288 1.454 . S
C1069 C315 1.471 . S
C1073 N462 1.410 . S
C1087 C338 1.469 . S
C1091 N416 1.424 . S
C1105 N531 1.426 . S
C1109 C361 1.467 . S
C1123 C384 1.473 . S
C1127 N485 1.415 . S
C1141 N508 1.390 . S
C1145 N403 1.443 . S
C1159 N301 1.674 . S
C1163 C430 1.736 . S
C1177 C453 1.600 . S
C1181 N324 1.546 . S
C1195 C283 1.711 . S
C1199 C476 1.686 . S
C1213 C499 1.684 . S
C1217 C398 1.714 . S
C1231 C522 1.600 . S
C1235 N347 1.535 . S
C1249 C545 1.727 . S
C1253 N370 1.675 . S
C1267 N715 1.398 . S
C1271 N564 1.452 . S
C1285 N738 1.424 . S
C1289 C591 1.471 . S
C1303 N692 1.426 . S
C1307 C614 1.467 . S
C1321 C637 1.461 . S
C1325 N807 1.407 . S
C1339 C660 1.471 . S
C1343 N761 1.409 . S
C1357 N784 1.391 . S
C1361 N679 1.454 . S
C1375 C706 1.726 . S
C1379 N577 1.675 . S
C1393 N600 1.531 . S
C1397 C729 1.589 . S
C1411 C559 1.710 . S
C1415 C752 1.676 . S
C1429 C775 1.675 . S
C1433 C674 1.711 . S
C1447 C798 1.602 . S
C1451 N623 1.541 . S
C1465 C821 1.730 . S
C1469 N646 1.668 . S
C1483 C76 2.053 . S
C1487 N2 1.942 . S
C1501 C99 2.260 . S
C1505 C30 2.257 . S
C1519 C53 2.053 . S
C1523 N117 1.943 . S
C1537 C214 2.242 . S
C1541 C145 2.226 . S
C1555 C237 2.072 . S
C1559 C168 2.068 . S
C1573 C260 2.231 . S
C1577 C191 2.238 . S
C1591 C352 2.058 . S
C1595 N278 1.928 . S
C1609 C375 2.260 . S
C1613 C306 2.261 . S
C1627 C329 2.053 . S
C1631 N393 1.943 . S
C1645 C490 2.242 1_554 S
C1649 C421 2.226 . S
C1663 C513 2.068 1_554 S
C1667 C444 2.072 . S
C1681 C536 2.226 1_554 S
C1685 C467 2.243 . S
C1699 C628 2.053 1_556 S
C1703 N554 1.941 . S
C1717 C582 2.259 . S
C1721 C651 2.261 1_556 S
C1735 N669 1.936 1_556 S
C1739 C605 2.054 . S
C1753 C697 2.231 . S
C1757 C766 2.238 . S
C1771 C720 2.069 . S
C1775 C789 2.071 . S
C1789 C743 2.240 . S
C1793 C812 2.230 . S
C1807 C16 1.728 . S
C1811 N426 1.719 . S
C1825 N449 1.592 . S
C1829 N35 1.591 . S
C1843 N472 1.725 . S
C1847 N58 1.732 . S
C1861 N771 1.710 . S
C1865 N81 1.718 . S
C1879 N794 1.582 . S
C1883 N104 1.581 . S
C1897 N817 1.707 . S
C1901 C131 1.715 . S
C1915 N150 1.717 . S
C1919 C568 1.729 . S
C1933 N587 1.594 . S
C1937 N173 1.595 . S
C1951 N610 1.727 . S
C1955 N196 1.719 . S
C1969 N219 1.712 . S
C1973 N357 1.719 . S
C1987 N242 1.587 . S
C1991 N380 1.586 . S
C2005 N265 1.714 . S
C2009 C407 1.728 . S
C2023 N702 1.713 . S
C2027 C292 1.727 . S
C2041 N725 1.581 . S
C2045 N311 1.580 . S
C2059 N334 1.721 . S
C2063 N748 1.714 . S
C2077 N495 1.725 . S
C2081 N633 1.732 . S
C2095 N518 1.589 . S
C2099 N656 1.589 . S
C2113 N541 1.711 1_554 S
C2117 C683 1.726 . S
