# Generated by pormake.
# Topology vbm, (6)-cn, num edge types: 1
# Building blocks:
#     Node 0, Type 0, BuildingBlock: BETFAJ_clean_sbu_0, # of connection points: 6
#     Node 1, Type 0, BuildingBlock: BETFAJ_clean_sbu_0, # of connection points: 6
#     Node 2, Type 0, BuildingBlock: BETFAJ_clean_sbu_0, # of connection points: 6
#     Node 3, Type 0, BuildingBlock: BETFAJ_clean_sbu_0, # of connection points: 6
#     Node 4, Type 0, BuildingBlock: BETFAJ_clean_sbu_0, # of connection points: 6
#     Node 5, Type 0, BuildingBlock: BETFAJ_clean_sbu_0, # of connection points: 6
#     Node 6, Type 0, BuildingBlock: BETFAJ_clean_sbu_0, # of connection points: 6
#     Node 7, Type 0, BuildingBlock: BETFAJ_clean_sbu_0, # of connection points: 6
#     Node 8, Type 0, BuildingBlock: BETFAJ_clean_sbu_0, # of connection points: 6
#     Node 9, Type 0, BuildingBlock: BETFAJ_clean_sbu_0, # of connection points: 6
#     Node 10, Type 0, BuildingBlock: BETFAJ_clean_sbu_0, # of connection points: 6
#     Node 11, Type 0, BuildingBlock: BETFAJ_clean_sbu_0, # of connection points: 6
#     Node 12, Type 0, BuildingBlock: BETFAJ_clean_sbu_0, # of connection points: 6
#     Node 13, Type 0, BuildingBlock: BETFAJ_clean_sbu_0, # of connection points: 6
#     Node 14, Type 0, BuildingBlock: BETFAJ_clean_sbu_0, # of connection points: 6
#     Node 15, Type 0, BuildingBlock: BETFAJ_clean_sbu_0, # of connection points: 6
#     Edge 16, Type (0, 0), BuildingBlock: TEMPAE_clean_linker_10, # of connection points: 2
#     Edge 17, Type (0, 0), BuildingBlock: TEMPAE_clean_linker_10, # of connection points: 2
#     Edge 18, Type (0, 0), BuildingBlock: TEMPAE_clean_linker_10, # of connection points: 2
#     Edge 19, Type (0, 0), BuildingBlock: TEMPAE_clean_linker_10, # of connection points: 2
#     Edge 20, Type (0, 0), BuildingBlock: TEMPAE_clean_linker_10, # of connection points: 2
#     Edge 21, Type (0, 0), BuildingBlock: TEMPAE_clean_linker_10, # of connection points: 2
#     Edge 22, Type (0, 0), BuildingBlock: TEMPAE_clean_linker_10, # of connection points: 2
#     Edge 23, Type (0, 0), BuildingBlock: TEMPAE_clean_linker_10, # of connection points: 2
#     Edge 24, Type (0, 0), BuildingBlock: TEMPAE_clean_linker_10, # of connection points: 2
#     Edge 25, Type (0, 0), BuildingBlock: TEMPAE_clean_linker_10, # of connection points: 2
#     Edge 26, Type (0, 0), BuildingBlock: TEMPAE_clean_linker_10, # of connection points: 2
#     Edge 27, Type (0, 0), BuildingBlock: TEMPAE_clean_linker_10, # of connection points: 2
#     Edge 28, Type (0, 0), BuildingBlock: TEMPAE_clean_linker_10, # of connection points: 2
#     Edge 29, Type (0, 0), BuildingBlock: TEMPAE_clean_linker_10, # of connection points: 2
#     Edge 30, Type (0, 0), BuildingBlock: TEMPAE_clean_linker_10, # of connection points: 2
#     Edge 31, Type (0, 0), BuildingBlock: TEMPAE_clean_linker_10, # of connection points: 2
#     Edge 32, Type (0, 0), BuildingBlock: TEMPAE_clean_linker_10, # of connection points: 2
#     Edge 33, Type (0, 0), BuildingBlock: TEMPAE_clean_linker_10, # of connection points: 2
#     Edge 34, Type (0, 0), BuildingBlock: TEMPAE_clean_linker_10, # of connection points: 2
#     Edge 35, Type (0, 0), BuildingBlock: TEMPAE_clean_linker_10, # of connection points: 2
#     Edge 36, Type (0, 0), BuildingBlock: TEMPAE_clean_linker_10, # of connection points: 2
#     Edge 37, Type (0, 0), BuildingBlock: TEMPAE_clean_linker_10, # of connection points: 2
#     Edge 38, Type (0, 0), BuildingBlock: TEMPAE_clean_linker_10, # of connection points: 2
#     Edge 39, Type (0, 0), BuildingBlock: TEMPAE_clean_linker_10, # of connection points: 2
#     Edge 40, Type (0, 0), BuildingBlock: TEMPAE_clean_linker_10, # of connection points: 2
#     Edge 41, Type (0, 0), BuildingBlock: TEMPAE_clean_linker_10, # of connection points: 2
#     Edge 42, Type (0, 0), BuildingBlock: TEMPAE_clean_linker_10, # of connection points: 2
#     Edge 43, Type (0, 0), BuildingBlock: TEMPAE_clean_linker_10, # of connection points: 2
#     Edge 44, Type (0, 0), BuildingBlock: TEMPAE_clean_linker_10, # of connection points: 2
#     Edge 45, Type (0, 0), BuildingBlock: TEMPAE_clean_linker_10, # of connection points: 2
#     Edge 46, Type (0, 0), BuildingBlock: TEMPAE_clean_linker_10, # of connection points: 2
#     Edge 47, Type (0, 0), BuildingBlock: TEMPAE_clean_linker_10, # of connection points: 2
#     Edge 48, Type (0, 0), BuildingBlock: TEMPAE_clean_linker_10, # of connection points: 2
#     Edge 49, Type (0, 0), BuildingBlock: TEMPAE_clean_linker_10, # of connection points: 2
#     Edge 50, Type (0, 0), BuildingBlock: TEMPAE_clean_linker_10, # of connection points: 2
#     Edge 51, Type (0, 0), BuildingBlock: TEMPAE_clean_linker_10, # of connection points: 2
#     Edge 52, Type (0, 0), BuildingBlock: TEMPAE_clean_linker_10, # of connection points: 2
#     Edge 53, Type (0, 0), BuildingBlock: TEMPAE_clean_linker_10, # of connection points: 2
#     Edge 54, Type (0, 0), BuildingBlock: TEMPAE_clean_linker_10, # of connection points: 2
#     Edge 55, Type (0, 0), BuildingBlock: TEMPAE_clean_linker_10, # of connection points: 2
#     Edge 56, Type (0, 0), BuildingBlock: TEMPAE_clean_linker_10, # of connection points: 2
#     Edge 57, Type (0, 0), BuildingBlock: TEMPAE_clean_linker_10, # of connection points: 2
#     Edge 58, Type (0, 0), BuildingBlock: TEMPAE_clean_linker_10, # of connection points: 2
#     Edge 59, Type (0, 0), BuildingBlock: TEMPAE_clean_linker_10, # of connection points: 2
#     Edge 60, Type (0, 0), BuildingBlock: TEMPAE_clean_linker_10, # of connection points: 2
#     Edge 61, Type (0, 0), BuildingBlock: TEMPAE_clean_linker_10, # of connection points: 2
#     Edge 62, Type (0, 0), BuildingBlock: TEMPAE_clean_linker_10, # of connection points: 2
#     Edge 63, Type (0, 0), BuildingBlock: TEMPAE_clean_linker_10, # of connection points: 2
# Relax obj value: 0.067
# Max RMSD: 0.142
# Mean RMSD: 0.142
data_MOF--net-vbm--node1-BETFAJ_clean_sbu_0--edge1-TEMPAE_clean_linker_10
_symmetry_space_group_name_H-M    P1
_symmetry_Int_Tables_number       1
_symmetry_cell_setting            triclinic
loop_
_symmetry_equiv_pos_as_xyz
'x, y, z'
_cell_length_a     56.316705
_cell_length_b     26.346725
_cell_length_c     57.752273
_cell_angle_alpha  89.986478
_cell_angle_beta   89.963418
_cell_angle_gamma 90.014454
loop_
_atom_site_label
_atom_site_type_symbol
_atom_site_fract_x
_atom_site_fract_y
_atom_site_fract_z
_atom_type_partial_charge
Sm0 Sm 0.1347 0.06917 0.14326 0.0
Sm1 Sm 0.10815 0.17637 0.14454 0.0
C2 C 0.14865 0.97701 0.15639 0.0
C3 C 0.14463 0.92173 0.1525 0.0
C4 C 0.13494 0.89231 0.17049 0.0
C5 C 0.13203 0.83978 0.16803 0.0
C6 C 0.13886 0.81483 0.14752 0.0
C7 C 0.14835 0.84441 0.12936 0.0
C8 C 0.15125 0.89718 0.13184 0.0
C9 C 0.12996 0.1042 0.09815 0.0
C10 C 0.07714 0.08011 0.13134 0.0
C11 C 0.09359 0.27256 0.14295 0.0
C12 C 0.10118 0.3267 0.14257 0.0
C13 C 0.11562 0.34702 0.12495 0.0
C14 C 0.1209 0.39925 0.12445 0.0
C15 C 0.11179 0.43237 0.14148 0.0
C16 C 0.0978 0.41145 0.1593 0.0
C17 C 0.09255 0.35952 0.15978 0.0
C18 C 0.10755 0.11843 0.18466 0.0
C19 C 0.16643 0.17209 0.14736 0.0
O20 O 0.13145 1.00226 0.16634 0.0
O21 O 0.15978 1.00368 0.14054 0.0
O22 O 0.12282 0.12637 0.11633 0.0
O23 O 0.14056 0.06223 0.10377 0.0
O24 O 0.09435 0.05156 0.14014 0.0
O25 O 0.07953 0.12922 0.12775 0.0
O26 O 0.0967 0.24452 0.12445 0.0
O27 O 0.09683 0.24739 0.16221 0.0
O28 O 0.12518 0.12475 0.1714 0.0
O29 O 0.08942 0.1442 0.17727 0.0
O30 O 0.14712 0.1981 0.1424 0.0
O31 O 0.16623 0.12252 0.15139 0.0
H32 H 0.1298 0.90996 0.18668 0.0
H33 H 0.12429 0.81873 0.18226 0.0
H34 H 0.15403 0.82666 0.11339 0.0
H35 H 0.15891 0.91856 0.11767 0.0
H36 H 0.12253 0.3228 0.11139 0.0
H37 H 0.13162 0.41385 0.11037 0.0
H38 H 0.09084 0.43527 0.173 0.0
H39 H 0.08137 0.34502 0.17356 0.0
Sm40 Sm 0.85121 0.9636 0.13853 0.0
Sm41 Sm 0.87615 0.86358 0.13958 0.0
C42 C 0.83748 0.05938 0.1459 0.0
C43 C 0.8446 0.11398 0.14449 0.0
C44 C 0.84985 0.14111 0.16485 0.0
C45 C 0.85404 0.19363 0.16423 0.0
C46 C 0.853 0.22082 0.14324 0.0
C47 C 0.84821 0.19343 0.12279 0.0
C48 C 0.84399 0.14085 0.12342 0.0
C49 C 0.85294 0.91802 0.09532 0.0
C50 C 0.90946 0.95681 0.13003 0.0
C51 C 0.89082 0.76725 0.13674 0.0
C52 C 0.88335 0.71286 0.13848 0.0
C53 C 0.87335 0.6872 0.11944 0.0
C54 C 0.86893 0.63472 0.12036 0.0
C55 C 0.87449 0.60619 0.14029 0.0
C56 C 0.88401 0.63219 0.15948 0.0
C57 C 0.88844 0.68461 0.15856 0.0
C58 C 0.87457 0.9155 0.18153 0.0
C59 C 0.81845 0.86489 0.14277 0.0
O60 O 0.84747 0.03096 0.1617 0.0
O61 O 0.83332 0.03457 0.12671 0.0
O62 O 0.86994 0.9191 0.10974 0.0
O63 O 0.83452 0.94133 0.1037 0.0
O64 O 0.89158 0.98422 0.13816 0.0
O65 O 0.90692 0.90839 0.12531 0.0
O66 O 0.88367 0.79386 0.11895 0.0
O67 O 0.89182 0.79421 0.15571 0.0
O68 O 0.85738 0.90926 0.1678 0.0
O69 O 0.89357 0.89427 0.17326 0.0
O70 O 0.83741 0.84104 0.13526 0.0
O71 O 0.81943 0.91307 0.14907 0.0
H72 H 0.85023 0.12186 0.18143 0.0
H73 H 0.85801 0.21298 0.18031 0.0
H74 H 0.84695 0.21287 0.10632 0.0
H75 H 0.8397 0.12154 0.10741 0.0
H76 H 0.86949 0.70737 0.10355 0.0
H77 H 0.86186 0.61625 0.1051 0.0
H78 H 0.8882 0.61197 0.17528 0.0
H79 H 0.89638 0.70284 0.17348 0.0
Sm80 Sm 0.13282 0.9806 0.37672 0.0
Sm81 Sm 0.10893 0.87144 0.37883 0.0
C82 C 0.14491 0.07085 0.35995 0.0
C83 C 0.14106 0.12616 0.36303 0.0
C84 C 0.13675 0.15632 0.34344 0.0
C85 C 0.13379 0.20891 0.3455 0.0
C86 C 0.13511 0.23287 0.36726 0.0
C87 C 0.13915 0.20239 0.38695 0.0
C88 C 0.1421 0.14963 0.38487 0.0
C89 C 0.12748 0.9541 0.42297 0.0
C90 C 0.07571 0.96618 0.38859 0.0
C91 C 0.09652 0.77548 0.38675 0.0
C92 C 0.1038 0.72159 0.3833 0.0
C93 C 0.11257 0.69327 0.40209 0.0
C94 C 0.11733 0.64128 0.39983 0.0
C95 C 0.11328 0.61595 0.37873 0.0
C96 C 0.10488 0.64451 0.3598 0.0
C97 C 0.10016 0.69659 0.36206 0.0
C98 C 0.10812 0.92209 0.33673 0.0
C99 C 0.16684 0.87973 0.37129 0.0
O100 O 0.12695 0.04433 0.35211 0.0
O101 O 0.15746 0.04656 0.37557 0.0
O102 O 0.12153 0.92752 0.40563 0.0
O103 O 0.13654 0.99667 0.41585 0.0
O104 O 0.09202 0.99426 0.37803 0.0
O105 O 0.07987 0.91906 0.39499 0.0
O106 O 0.10878 0.80291 0.4014 0.0
O107 O 0.08927 0.80153 0.36877 0.0
O108 O 0.12539 0.91952 0.35058 0.0
O109 O 0.09019 0.89628 0.34472 0.0
O110 O 0.14789 0.85093 0.37388 0.0
O111 O 0.16609 0.93007 0.37129 0.0
H112 H 0.13577 0.13913 0.32641 0.0
H113 H 0.13029 0.23077 0.32999 0.0
H114 H 0.14049 0.2194 0.40397 0.0
H115 H 0.14536 0.12733 0.4003 0.0
H116 H 0.11522 0.71109 0.41879 0.0
H117 H 0.12347 0.62058 0.41488 0.0
H118 H 0.10183 0.62655 0.34321 0.0
H119 H 0.09327 0.71697 0.34724 0.0
Sm120 Sm 0.84763 0.06461 0.37624 0.0
Sm121 Sm 0.87329 0.17145 0.37332 0.0
C122 C 0.83367 0.97203 0.36381 0.0
C123 C 0.83805 0.91702 0.36788 0.0
C124 C 0.8456 0.88668 0.34927 0.0
C125 C 0.84909 0.8344 0.35207 0.0
C126 C 0.84508 0.81075 0.37358 0.0
C127 C 0.83755 0.84123 0.39228 0.0
C128 C 0.83408 0.89375 0.38947 0.0
C129 C 0.85333 0.10023 0.42101 0.0
C130 C 0.90557 0.07715 0.38664 0.0
C131 C 0.88681 0.26839 0.37254 0.0
C132 C 0.87863 0.32205 0.37468 0.0
C133 C 0.87422 0.34486 0.3963 0.0
C134 C 0.86865 0.3968 0.39782 0.0
C135 C 0.8674 0.42728 0.37777 0.0
C136 C 0.87154 0.40407 0.35619 0.0
C137 C 0.87712 0.35239 0.35469 0.0
C138 C 0.87305 0.11214 0.3336 0.0
C139 C 0.81507 0.16638 0.37424 0.0
O140 O 0.85052 0.99732 0.35334 0.0
O141 O 0.82288 0.99879 0.37983 0.0
O142 O 0.8599 0.12276 0.40269 0.0
O143 O 0.84284 0.05792 0.41578 0.0
O144 O 0.8882 0.04766 0.37877 0.0
O145 O 0.90306 0.12646 0.38947 0.0
O146 O 0.88812 0.23986 0.3911 0.0
O147 O 0.87993 0.24318 0.35422 0.0
O148 O 0.85573 0.11886 0.34718 0.0
O149 O 0.89137 0.13783 0.34054 0.0
O150 O 0.8345 0.19221 0.3789 0.0
O151 O 0.8154 0.11719 0.36936 0.0
H152 H 0.84856 0.9034 0.33236 0.0
H153 H 0.85449 0.81233 0.33715 0.0
H154 H 0.8345 0.82457 0.40916 0.0
H155 H 0.82824 0.91599 0.40417 0.0
H156 H 0.87541 0.32284 0.41209 0.0
H157 H 0.86537 0.41312 0.41473 0.0
H158 H 0.8712 0.42621 0.34039 0.0
H159 H 0.88082 0.33636 0.3378 0.0
Sm160 Sm 0.87227 0.87875 0.87745 0.0
Sm161 Sm 0.84784 0.98844 0.87608 0.0
C162 C 0.88542 0.78342 0.88556 0.0
C163 C 0.87885 0.72949 0.88188 0.0
C164 C 0.8558 0.7112 0.88623 0.0
C165 C 0.85079 0.65909 0.88456 0.0
C166 C 0.86873 0.62415 0.87857 0.0
C167 C 0.89158 0.643 0.87363 0.0
C168 C 0.89656 0.69492 0.87532 0.0
C169 C 0.87022 0.92676 0.83458 0.0
C170 C 0.81414 0.88668 0.87388 0.0
C171 C 0.83536 0.07996 0.86114 0.0
C172 C 0.83896 0.13515 0.86558 0.0
C173 C 0.86017 0.15955 0.85901 0.0
C174 C 0.86266 0.21222 0.86126 0.0
C175 C 0.84402 0.24209 0.87008 0.0
C176 C 0.82297 0.21759 0.87706 0.0
C177 C 0.82044 0.16483 0.87473 0.0
C178 C 0.85548 0.96121 0.92205 0.0
C179 C 0.90512 0.97441 0.88564 0.0
O180 O 0.87237 0.81021 0.89979 0.0
O181 O 0.89283 0.8095 0.86768 0.0
O182 O 0.85413 0.92677 0.84984 0.0
O183 O 0.88782 0.89837 0.84123 0.0
O184 O 0.83324 0.8588 0.87716 0.0
O185 O 0.81482 0.93669 0.87092 0.0
O186 O 0.85351 0.05439 0.85304 0.0
O187 O 0.82248 0.05369 0.87584 0.0
O188 O 0.86061 0.93549 0.90424 0.0
O189 O 0.84578 1.00358 0.91556 0.0
O190 O 0.88854 1.00169 0.87515 0.0
O191 O 0.90136 0.92749 0.89251 0.0
H192 H 0.84176 0.73697 0.89136 0.0
H193 H 0.83303 0.64607 0.88862 0.0
H194 H 0.90574 0.61753 0.86852 0.0
H195 H 0.91446 0.70802 0.87188 0.0
H196 H 0.87481 0.13815 0.85176 0.0
H197 H 0.87924 0.2296 0.85601 0.0
H198 H 0.80816 0.23938 0.88371 0.0
H199 H 0.80376 0.14738 0.87964 0.0
Sm200 Sm 0.11139 0.17365 0.87786 0.0
Sm201 Sm 0.13295 0.06434 0.88105 0.0
C202 C 0.10089 0.27204 0.87685 0.0
C203 C 0.10874 0.32435 0.88287 0.0
C204 C 0.0966 0.35218 0.89993 0.0
C205 C 0.10132 0.40395 0.90325 0.0
C206 C 0.11817 0.42941 0.88943 0.0
C207 C 0.13091 0.40097 0.87294 0.0
C208 C 0.12628 0.34923 0.86972 0.0
C209 C 0.11367 0.11847 0.83682 0.0
C210 C 0.16798 0.16144 0.88455 0.0
C211 C 0.14668 0.97224 0.86806 0.0
C212 C 0.14448 0.91754 0.8731 0.0
C213 C 0.15412 0.88269 0.85738 0.0
C214 C 0.15134 0.83048 0.86083 0.0
C215 C 0.13874 0.81182 0.88009 0.0
C216 C 0.12936 0.84701 0.89607 0.0
C217 C 0.13214 0.89947 0.89256 0.0
C218 C 0.1245 0.09609 0.92603 0.0
C219 C 0.07512 0.08396 0.88639 0.0
O220 O 0.09352 0.24161 0.89333 0.0
O221 O 0.11248 0.24833 0.86046 0.0
O222 O 0.12964 0.12076 0.85214 0.0
O223 O 0.09571 0.1463 0.84284 0.0
O224 O 0.14899 0.18774 0.88997 0.0
O225 O 0.16662 0.11415 0.87691 0.0
O226 O 0.12769 0.99485 0.86002 0.0
O227 O 0.15878 1.00039 0.8826 0.0
O228 O 0.1203 0.12179 0.9079 0.0
O229 O 0.13314 0.0521 0.92049 0.0
O230 O 0.0921 0.0529 0.87914 0.0
O231 O 0.07891 0.13236 0.89051 0.0
H232 H 0.08285 0.3343 0.91023 0.0
H233 H 0.09142 0.42423 0.91639 0.0
H234 H 0.14379 0.41909 0.86172 0.0
H235 H 0.13586 0.32929 0.85624 0.0
H236 H 0.16366 0.89591 0.84223 0.0
H237 H 0.15914 0.80468 0.84837 0.0
H238 H 0.11939 0.83406 0.91098 0.0
H239 H 0.12441 0.92585 0.90481 0.0
Sm240 Sm 0.87254 0.16742 0.63825 0.0
Sm241 Sm 0.85081 0.05577 0.63894 0.0
C242 C 0.88372 0.26311 0.62888 0.0
C243 C 0.87574 0.31646 0.63175 0.0
C244 C 0.86498 0.34193 0.61311 0.0
C245 C 0.85958 0.39364 0.61462 0.0
C246 C 0.86494 0.42133 0.63477 0.0
C247 C 0.87519 0.39559 0.65363 0.0
C248 C 0.88061 0.3438 0.65212 0.0
C249 C 0.87104 0.11911 0.68099 0.0
C250 C 0.81482 0.15421 0.64332 0.0
C251 C 0.83865 0.96468 0.65438 0.0
C252 C 0.84161 0.90954 0.65043 0.0
C253 C 0.85201 0.87993 0.66791 0.0
C254 C 0.85442 0.82748 0.66524 0.0
C255 C 0.84631 0.80323 0.64505 0.0
C256 C 0.83584 0.83287 0.62753 0.0
C257 C 0.83355 0.88556 0.63016 0.0
C258 C 0.85872 0.08352 0.59316 0.0
C259 C 0.90816 0.07518 0.63177 0.0
O260 O 0.87147 0.23417 0.61484 0.0
O261 O 0.89163 0.23874 0.6471 0.0
O262 O 0.8553 0.11738 0.66545 0.0
O263 O 0.88801 0.1498 0.67476 0.0
O264 O 0.83318 0.18485 0.64133 0.0
O265 O 0.81659 0.10398 0.64343 0.0
O266 O 0.85742 0.98941 0.66161 0.0
O267 O 0.82553 0.99091 0.63989 0.0
O268 O 0.86284 0.11 0.61099 0.0
O269 O 0.85019 0.03988 0.5995 0.0
O270 O 0.89169 0.0458 0.64125 0.0
O271 O 0.90354 0.12165 0.62478 0.0
H272 H 0.8612 0.32214 0.59709 0.0
H273 H 0.8514 0.41207 0.59988 0.0
H274 H 0.87982 0.41585 0.66931 0.0
H275 H 0.88915 0.32558 0.66671 0.0
H276 H 0.8581 0.8974 0.68383 0.0
H277 H 0.86224 0.80574 0.67921 0.0
H278 H 0.82958 0.81537 0.6117 0.0
H279 H 0.8254 0.90735 0.61639 0.0
Sm280 Sm 0.11262 0.87214 0.64205 0.0
Sm281 Sm 0.13674 0.97359 0.6383 0.0
C282 C 0.09866 0.77589 0.63753 0.0
C283 C 0.10584 0.72169 0.64027 0.0
C284 C 0.12033 0.69757 0.62371 0.0
C285 C 0.12452 0.64514 0.62477 0.0
C286 C 0.11433 0.61522 0.64238 0.0
C287 C 0.1004 0.6396 0.65931 0.0
C288 C 0.09612 0.69205 0.65819 0.0
C289 C 0.11471 0.92524 0.68359 0.0
C290 C 0.17052 0.87654 0.64654 0.0
C291 C 0.15112 0.07003 0.64121 0.0
C292 C 0.14413 0.12448 0.64017 0.0
C293 C 0.12782 0.14585 0.65586 0.0
C294 C 0.12359 0.19843 0.65602 0.0
C295 C 0.13567 0.23097 0.64061 0.0
C296 C 0.15152 0.20915 0.62459 0.0
C297 C 0.15571 0.15673 0.62442 0.0
C298 C 0.13411 0.92208 0.59652 0.0
C299 C 0.07853 0.96497 0.6333 0.0
O300 O 0.10855 0.80227 0.62093 0.0
O301 O 0.09463 0.80298 0.65611 0.0
O302 O 0.13136 0.922 0.66891 0.0
O303 O 0.09663 0.89821 0.67703 0.0
O304 O 0.15161 0.84941 0.64164 0.0
O305 O 0.16965 0.92647 0.64859 0.0
O306 O 0.14427 0.04302 0.65897 0.0
O307 O 0.1514 0.04396 0.62199 0.0
O308 O 0.11749 0.92551 0.61125 0.0
O309 O 0.15286 0.94551 0.60401 0.0
O310 O 0.09646 0.99325 0.64058 0.0
O311 O 0.08132 0.91663 0.62858 0.0
H312 H 0.12802 0.71893 0.60955 0.0
H313 H 0.13562 0.62791 0.61162 0.0
H314 H 0.09206 0.61785 0.67299 0.0
H315 H 0.0846 0.70917 0.67102 0.0
H316 H 0.11871 0.12218 0.66837 0.0
H317 H 0.1114 0.21376 0.66873 0.0
H318 H 0.16087 0.23269 0.6122 0.0
H319 H 0.16848 0.14146 0.61223 0.0
Sm320 Sm 0.63434 0.55413 0.14091 0.0
Sm321 Sm 0.61174 0.66502 0.13907 0.0
C322 C 0.6467 0.46293 0.1562 0.0
C323 C 0.64407 0.40792 0.15138 0.0
C324 C 0.62165 0.38553 0.1481 0.0
C325 C 0.61945 0.3328 0.14566 0.0
C326 C 0.63961 0.30115 0.1464 0.0
C327 C 0.66206 0.32394 0.14912 0.0
C328 C 0.66423 0.37663 0.15164 0.0
C329 C 0.62685 0.57994 0.09477 0.0
C330 C 0.57727 0.57168 0.13187 0.0
C331 C 0.59921 0.76044 0.13043 0.0
C332 C 0.60543 0.81416 0.13487 0.0
C333 C 0.62901 0.83163 0.13413 0.0
C334 C 0.63403 0.88355 0.13658 0.0
C335 C 0.61559 0.91901 0.13987 0.0
C336 C 0.59208 0.901 0.14101 0.0
C337 C 0.58709 0.84926 0.13853 0.0
C338 C 0.61371 0.6182 0.18232 0.0
C339 C 0.66963 0.65393 0.14247 0.0
O340 O 0.62776 0.48738 0.16327 0.0
O341 O 0.66011 0.48978 0.14221 0.0
O342 O 0.6222 0.60691 0.11233 0.0
O343 O 0.63593 0.53723 0.10161 0.0
O344 O 0.59341 0.5437 0.14264 0.0
O345 O 0.58205 0.61759 0.12423 0.0
O346 O 0.61347 0.73408 0.11718 0.0
O347 O 0.59043 0.73398 0.1476 0.0
O348 O 0.62946 0.61685 0.16679 0.0
O349 O 0.5965 0.64776 0.17579 0.0
O350 O 0.65103 0.68315 0.13891 0.0
O351 O 0.66804 0.60413 0.14581 0.0
H352 H 0.60573 0.4086 0.14788 0.0
H353 H 0.60185 0.31674 0.14387 0.0
H354 H 0.67802 0.30104 0.1494 0.0
H355 H 0.6817 0.39291 0.1542 0.0
H356 H 0.64352 0.80533 0.13137 0.0
H357 H 0.65236 0.89592 0.1359 0.0
H358 H 0.57739 0.92709 0.14317 0.0
H359 H 0.56877 0.83674 0.13897 0.0
Sm360 Sm 0.34842 0.48579 0.14431 0.0
Sm361 Sm 0.37268 0.37586 0.14435 0.0
C362 C 0.33599 0.57809 0.15817 0.0
C363 C 0.33898 0.63297 0.15286 0.0
C364 C 0.3609 0.65758 0.15622 0.0
C365 C 0.36293 0.7102 0.15337 0.0
C366 C 0.34312 0.73976 0.14708 0.0
C367 C 0.32132 0.7149 0.14327 0.0
C368 C 0.31928 0.66224 0.1462 0.0
C369 C 0.35478 0.45439 0.09881 0.0
C370 C 0.40586 0.47052 0.13428 0.0
C371 C 0.38604 0.27997 0.13825 0.0
C372 C 0.3784 0.22647 0.14088 0.0
C373 C 0.35608 0.20931 0.13325 0.0
C374 C 0.35021 0.15757 0.13451 0.0
C375 C 0.36647 0.12203 0.14352 0.0
C376 C 0.38858 0.13972 0.1515 0.0
C377 C 0.39445 0.19123 0.15016 0.0
C378 C 0.3709 0.42734 0.18641 0.0
C379 C 0.31457 0.38472 0.14758 0.0
O380 O 0.35458 0.55363 0.16603 0.0
O381 O 0.32281 0.55054 0.14426 0.0
O382 O 0.36057 0.43061 0.11696 0.0
O383 O 0.34454 0.49665 0.10463 0.0
O384 O 0.38924 0.49932 0.14392 0.0
O385 O 0.40214 0.42273 0.12882 0.0
O386 O 0.37587 0.30735 0.12216 0.0
O387 O 0.39052 0.30567 0.15712 0.0
O388 O 0.35471 0.4258 0.17132 0.0
O389 O 0.38865 0.39914 0.17995 0.0
O390 O 0.33345 0.35645 0.14371 0.0
O391 O 0.31559 0.43454 0.15095 0.0
H392 H 0.37645 0.63645 0.16158 0.0
H393 H 0.37992 0.72788 0.15681 0.0
H394 H 0.30575 0.73617 0.13811 0.0
H395 H 0.30212 0.64448 0.14367 0.0
H396 H 0.3433 0.23569 0.12607 0.0
H397 H 0.33292 0.14541 0.12845 0.0
H398 H 0.40168 0.11351 0.15823 0.0
H399 H 0.41181 0.20346 0.156 0.0
Sm400 Sm 0.63158 0.47943 0.37684 0.0
Sm401 Sm 0.60857 0.36942 0.37658 0.0
C402 C 0.6442 0.57106 0.36227 0.0
C403 C 0.64125 0.62613 0.36672 0.0
C404 C 0.6324 0.6571 0.34892 0.0
C405 C 0.62988 0.70944 0.35213 0.0
C406 C 0.63628 0.73232 0.37324 0.0
C407 C 0.64521 0.70128 0.39109 0.0
C408 C 0.64762 0.64869 0.3879 0.0
C409 C 0.62411 0.45037 0.42247 0.0
C410 C 0.57377 0.46256 0.38461 0.0
C411 C 0.59573 0.27265 0.38101 0.0
C412 C 0.60471 0.21951 0.38095 0.0
C413 C 0.61316 0.19641 0.40132 0.0
C414 C 0.61917 0.14473 0.40158 0.0
C415 C 0.61682 0.11482 0.3815 0.0
C416 C 0.60879 0.13826 0.36106 0.0
C417 C 0.60275 0.18978 0.36082 0.0
C418 C 0.61096 0.42071 0.33447 0.0
C419 C 0.66658 0.37988 0.37636 0.0
O420 O 0.62551 0.54677 0.35455 0.0
O421 O 0.65707 0.54405 0.37668 0.0
O422 O 0.61923 0.42457 0.40458 0.0
O423 O 0.63332 0.49344 0.41625 0.0
O424 O 0.59065 0.49183 0.37571 0.0
O425 O 0.57751 0.41478 0.39015 0.0
O426 O 0.60085 0.30191 0.39864 0.0
O427 O 0.59564 0.29716 0.36132 0.0
O428 O 0.62689 0.41922 0.34981 0.0
O429 O 0.59292 0.39334 0.34089 0.0
O430 O 0.6478 0.35142 0.3804 0.0
O431 O 0.66513 0.4292 0.37183 0.0
H432 H 0.62758 0.64077 0.33235 0.0
H433 H 0.62331 0.73216 0.33788 0.0
H434 H 0.65013 0.71758 0.40762 0.0
H435 H 0.65451 0.62583 0.40196 0.0
H436 H 0.61468 0.21796 0.41722 0.0
H437 H 0.6255 0.1281 0.41757 0.0
H438 H 0.60637 0.11638 0.34537 0.0
H439 H 0.59591 0.20601 0.34493 0.0
Sm440 Sm 0.34551 0.55779 0.38085 0.0
Sm441 Sm 0.36914 0.66899 0.38242 0.0
C442 C 0.33319 0.46688 0.36502 0.0
C443 C 0.33536 0.41163 0.36889 0.0
C444 C 0.33299 0.37893 0.34989 0.0
C445 C 0.33563 0.32646 0.35257 0.0
C446 C 0.34077 0.30531 0.37438 0.0
C447 C 0.34294 0.33828 0.39352 0.0
C448 C 0.34033 0.39101 0.39078 0.0
C449 C 0.35112 0.5871 0.42675 0.0
C450 C 0.40318 0.5739 0.38995 0.0
C451 C 0.38136 0.76408 0.39216 0.0
C452 C 0.37398 0.81799 0.39064 0.0
C453 C 0.37782 0.84973 0.40978 0.0
C454 C 0.37281 0.90169 0.40853 0.0
C455 C 0.36387 0.92338 0.38803 0.0
C456 C 0.35943 0.89117 0.36902 0.0
C457 C 0.36445 0.83902 0.3703 0.0
C458 C 0.36878 0.61977 0.33985 0.0
C459 C 0.31134 0.6589 0.37474 0.0
O460 O 0.35254 0.49068 0.35866 0.0
O461 O 0.31996 0.49334 0.37931 0.0
O462 O 0.35692 0.61202 0.4089 0.0
O463 O 0.34153 0.54452 0.42035 0.0
O464 O 0.38636 0.54521 0.3806 0.0
O465 O 0.39934 0.62119 0.39631 0.0
O466 O 0.36983 0.73482 0.40665 0.0
O467 O 0.3875 0.74079 0.37304 0.0
O468 O 0.35239 0.61943 0.35479 0.0
O469 O 0.38588 0.64961 0.3466 0.0
O470 O 0.32997 0.68831 0.37814 0.0
O471 O 0.31246 0.60853 0.3741 0.0
H472 H 0.32918 0.39406 0.33284 0.0
H473 H 0.33347 0.30239 0.33752 0.0
H474 H 0.34712 0.32344 0.41052 0.0
H475 H 0.34242 0.41562 0.40566 0.0
H476 H 0.3851 0.83441 0.42568 0.0
H477 H 0.37604 0.92494 0.42366 0.0
H478 H 0.35271 0.90648 0.3529 0.0
H479 H 0.36128 0.81539 0.35527 0.0
Sm480 Sm 0.3727 0.36528 0.88226 0.0
Sm481 Sm 0.35014 0.47657 0.88062 0.0
C482 C 0.38509 0.26968 0.89081 0.0
C483 C 0.37721 0.21603 0.88858 0.0
C484 C 0.37204 0.18784 0.90861 0.0
C485 C 0.36684 0.13595 0.90723 0.0
C486 C 0.36681 0.11072 0.88575 0.0
C487 C 0.37145 0.13925 0.86561 0.0
C488 C 0.37663 0.19123 0.867 0.0
C489 C 0.36855 0.41041 0.83889 0.0
C490 C 0.31473 0.3774 0.88299 0.0
C491 C 0.33723 0.56683 0.86463 0.0
C492 C 0.34043 0.62209 0.8682 0.0
C493 C 0.34664 0.65251 0.84918 0.0
C494 C 0.34945 0.70499 0.85169 0.0
C495 C 0.34602 0.72847 0.87332 0.0
C496 C 0.33978 0.6979 0.8924 0.0
C497 C 0.33707 0.64522 0.88989 0.0
C498 C 0.36037 0.45259 0.92637 0.0
C499 C 0.40773 0.45861 0.88635 0.0
O500 O 0.37398 0.29839 0.9058 0.0
O501 O 0.39124 0.29423 0.87203 0.0
O502 O 0.35353 0.41262 0.85511 0.0
O503 O 0.38612 0.38128 0.84487 0.0
O504 O 0.33351 0.3482 0.88545 0.0
O505 O 0.31606 0.42691 0.87883 0.0
O506 O 0.35567 0.54176 0.85685 0.0
O507 O 0.32474 0.5412 0.87988 0.0
O508 O 0.36387 0.4249 0.90882 0.0
O509 O 0.3513 0.4955 0.91978 0.0
O510 O 0.39088 0.48648 0.8766 0.0
O511 O 0.40363 0.41271 0.89438 0.0
H512 H 0.37249 0.20575 0.92549 0.0
H513 H 0.36302 0.11548 0.92306 0.0
H514 H 0.37183 0.12109 0.8488 0.0
H515 H 0.38072 0.21163 0.85121 0.0
H516 H 0.34919 0.63563 0.83225 0.0
H517 H 0.35393 0.72733 0.83656 0.0
H518 H 0.33725 0.71463 0.90935 0.0
H519 H 0.33236 0.62269 0.9049 0.0
Sm520 Sm 0.61076 0.67111 0.87686 0.0
Sm521 Sm 0.63497 0.56963 0.87816 0.0
C522 C 0.59678 0.76747 0.88129 0.0
C523 C 0.60445 0.82157 0.87957 0.0
C524 C 0.61774 0.84486 0.89728 0.0
C525 C 0.62246 0.89719 0.89672 0.0
C526 C 0.61402 0.92773 0.87846 0.0
C527 C 0.60123 0.90412 0.8605 0.0
C528 C 0.59644 0.85188 0.86111 0.0
C529 C 0.6141 0.6224 0.83419 0.0
C530 C 0.66828 0.66758 0.87469 0.0
C531 C 0.6487 0.47371 0.87142 0.0
C532 C 0.64226 0.41917 0.87453 0.0
C533 C 0.62667 0.39457 0.85912 0.0
C534 C 0.62288 0.34199 0.86052 0.0
C535 C 0.63465 0.31238 0.87728 0.0
C536 C 0.64986 0.33726 0.89297 0.0
C537 C 0.65366 0.38981 0.89156 0.0
C538 C 0.63174 0.6146 0.92137 0.0
C539 C 0.57652 0.57803 0.88395 0.0
O540 O 0.60489 0.74003 0.89841 0.0
O541 O 0.59449 0.74138 0.86217 0.0
O542 O 0.63042 0.6252 0.84915 0.0
O543 O 0.59547 0.64694 0.84123 0.0
O544 O 0.64948 0.69176 0.8823 0.0
O545 O 0.66694 0.61984 0.86775 0.0
O546 O 0.63683 0.50034 0.85625 0.0
O547 O 0.65459 0.5003 0.88965 0.0
O548 O 0.61526 0.61403 0.90638 0.0
O549 O 0.65028 0.59072 0.91368 0.0
O550 O 0.5946 0.5501 0.87671 0.0
O551 O 0.57912 0.62624 0.88905 0.0
H552 H 0.6241 0.82293 0.91187 0.0
H553 H 0.63263 0.91381 0.91071 0.0
H554 H 0.59418 0.92633 0.8463 0.0
H555 H 0.58585 0.83541 0.84737 0.0
H556 H 0.61784 0.41566 0.84552 0.0
H557 H 0.61128 0.32432 0.84793 0.0
H558 H 0.65901 0.31603 0.90632 0.0
H559 H 0.66598 0.40732 0.90354 0.0
Sm560 Sm 0.37105 0.66386 0.64615 0.0
Sm561 Sm 0.34862 0.55216 0.64353 0.0
C562 C 0.38414 0.76002 0.64079 0.0
C563 C 0.37575 0.81302 0.63826 0.0
C564 C 0.38639 0.8442 0.62151 0.0
C565 C 0.38101 0.89601 0.6204 0.0
C566 C 0.36491 0.91803 0.63611 0.0
C567 C 0.35356 0.88625 0.65235 0.0
C568 C 0.35893 0.83429 0.65342 0.0
C569 C 0.36901 0.60949 0.68728 0.0
C570 C 0.31323 0.65159 0.64744 0.0
C571 C 0.33445 0.46072 0.65695 0.0
C572 C 0.33639 0.4058 0.65248 0.0
C573 C 0.32635 0.37194 0.66844 0.0
C574 C 0.32886 0.31954 0.66553 0.0
C575 C 0.34154 0.2997 0.64658 0.0
C576 C 0.35132 0.33388 0.63036 0.0
C577 C 0.34883 0.38653 0.63334 0.0
C578 C 0.35736 0.58561 0.59883 0.0
C579 C 0.40679 0.57059 0.63976 0.0
O580 O 0.38108 0.7289 0.62335 0.0
O581 O 0.38148 0.73814 0.66097 0.0
O582 O 0.35325 0.61032 0.67168 0.0
O583 O 0.38627 0.64014 0.68189 0.0
O584 O 0.33169 0.68181 0.64521 0.0
O585 O 0.31481 0.60139 0.64844 0.0
O586 O 0.35346 0.48324 0.66503 0.0
O587 O 0.32266 0.48849 0.64201 0.0
O588 O 0.36131 0.60991 0.61736 0.0
O589 O 0.34867 0.54127 0.60382 0.0
O590 O 0.38931 0.53895 0.64509 0.0
O591 O 0.40371 0.61944 0.63615 0.0
H592 H 0.3994 0.82872 0.60963 0.0
H593 H 0.38975 0.91898 0.60738 0.0
H594 H 0.34119 0.90182 0.66482 0.0
H595 H 0.35043 0.81115 0.66653 0.0
H596 H 0.31673 0.38611 0.68335 0.0
H597 H 0.32078 0.29449 0.67816 0.0
H598 H 0.36138 0.31998 0.61569 0.0
H599 H 0.35686 0.41215 0.62092 0.0
Sm600 Sm 0.61121 0.36568 0.64247 0.0
Sm601 Sm 0.63467 0.46687 0.63489 0.0
C602 C 0.5971 0.2691 0.64052 0.0
C603 C 0.60422 0.21488 0.64303 0.0
C604 C 0.62045 0.19179 0.62777 0.0
C605 C 0.62459 0.13924 0.62868 0.0
C606 C 0.61259 0.10831 0.64482 0.0
C607 C 0.59693 0.13189 0.66051 0.0
C608 C 0.59276 0.18434 0.65957 0.0
C609 C 0.61378 0.42444 0.68232 0.0
C610 C 0.66932 0.37147 0.64435 0.0
C611 C 0.64917 0.56334 0.63322 0.0
C612 C 0.64225 0.61772 0.63473 0.0
C613 C 0.63042 0.63803 0.6541 0.0
C614 C 0.62592 0.69045 0.6556 0.0
C615 C 0.63319 0.72381 0.63783 0.0
C616 C 0.64478 0.70299 0.61842 0.0
C617 C 0.64922 0.65079 0.61692 0.0
C618 C 0.63119 0.40924 0.59494 0.0
C619 C 0.57621 0.45726 0.63518 0.0
O620 O 0.60501 0.29457 0.62266 0.0
O621 O 0.5954 0.29696 0.65918 0.0
O622 O 0.63012 0.42027 0.66733 0.0
O623 O 0.5961 0.39484 0.67721 0.0
O624 O 0.65022 0.34331 0.6421 0.0
O625 O 0.66849 0.42159 0.64393 0.0
O626 O 0.64916 0.53594 0.65208 0.0
O627 O 0.64245 0.5377 0.61503 0.0
O628 O 0.61486 0.41457 0.6099 0.0
O629 O 0.65018 0.43304 0.60155 0.0
O630 O 0.5947 0.48678 0.63943 0.0
O631 O 0.57839 0.4083 0.63178 0.0
H632 H 0.62949 0.21402 0.61468 0.0
H633 H 0.63661 0.12264 0.61615 0.0
H634 H 0.58765 0.10974 0.67347 0.0
H635 H 0.58006 0.20087 0.67147 0.0
H636 H 0.62488 0.61357 0.66818 0.0
H637 H 0.61671 0.7048 0.6707 0.0
H638 H 0.65106 0.72722 0.60456 0.0
H639 H 0.65864 0.63632 0.60194 0.0
C640 C 0.19025 0.24599 0.13469 0.0
C641 C 0.1887 0.20153 0.14801 0.0
C642 C 0.21017 0.27746 0.13577 0.0
C643 C 0.22906 0.26449 0.15072 0.0
C644 C 0.22769 0.21969 0.1643 0.0
C645 C 0.20752 0.18832 0.16263 0.0
C646 C 0.21116 0.32412 0.12055 0.0
C647 C 0.24751 0.20502 0.18055 0.0
C648 C 0.28937 0.3145 0.13358 0.0
C649 C 0.29177 0.35732 0.14783 0.0
C650 C 0.2692 0.28378 0.13462 0.0
C651 C 0.25096 0.29582 0.15049 0.0
C652 C 0.2531 0.33927 0.16486 0.0
C653 C 0.2735 0.36998 0.16321 0.0
C654 C 0.26739 0.23862 0.11857 0.0
C655 C 0.23398 0.35287 0.18209 0.0
H656 H 0.1758 0.25621 0.12318 0.0
H657 H 0.20624 0.1543 0.17311 0.0
H658 H 0.21429 0.35845 0.13123 0.0
H659 H 0.22621 0.32089 0.10823 0.0
H660 H 0.19456 0.32969 0.11048 0.0
H661 H 0.24313 0.17074 0.19091 0.0
H662 H 0.26395 0.19743 0.17054 0.0
H663 H 0.25142 0.23686 0.19254 0.0
H664 H 0.30344 0.30484 0.12153 0.0
H665 H 0.27551 0.40271 0.17441 0.0
H666 H 0.25164 0.24279 0.10719 0.0
H667 H 0.26494 0.20329 0.12874 0.0
H668 H 0.28339 0.23417 0.10749 0.0
H669 H 0.21707 0.36058 0.17291 0.0
H670 H 0.23872 0.38675 0.19257 0.0
H671 H 0.23077 0.32042 0.19394 0.0
C672 C 0.79442 0.79132 0.12995 0.0
C673 C 0.79623 0.83511 0.1437 0.0
C674 C 0.77452 0.75975 0.13107 0.0
C675 C 0.75586 0.77197 0.14642 0.0
C676 C 0.7575 0.816 0.16049 0.0
C677 C 0.77768 0.84742 0.15884 0.0
C678 C 0.77328 0.7139 0.11537 0.0
C679 C 0.73791 0.82994 0.17714 0.0
C680 C 0.69529 0.72392 0.12896 0.0
C681 C 0.6927 0.68042 0.14275 0.0
C682 C 0.71557 0.75425 0.1303 0.0
C683 C 0.73381 0.74103 0.14596 0.0
C684 C 0.73152 0.69678 0.15982 0.0
C685 C 0.71095 0.66659 0.15792 0.0
C686 C 0.7175 0.80035 0.11481 0.0
C687 C 0.75064 0.6818 0.17677 0.0
H688 H 0.80862 0.78167 0.11804 0.0
H689 H 0.77914 0.88088 0.16966 0.0
H690 H 0.76999 0.67909 0.12568 0.0
H691 H 0.75823 0.71813 0.10313 0.0
H692 H 0.78983 0.70848 0.10518 0.0
H693 H 0.74257 0.86336 0.18795 0.0
H694 H 0.72144 0.83866 0.16739 0.0
H695 H 0.73392 0.79737 0.18869 0.0
H696 H 0.68124 0.73455 0.11707 0.0
H697 H 0.70881 0.63336 0.16879 0.0
H698 H 0.73318 0.79662 0.1033 0.0
H699 H 0.72012 0.835 0.12541 0.0
H700 H 0.70147 0.80576 0.10387 0.0
H701 H 0.76752 0.67458 0.16743 0.0
H702 H 0.74585 0.64727 0.18678 0.0
H703 H 0.75396 0.71339 0.18906 0.0
C704 C 0.26871 0.67581 0.38389 0.0
C705 C 0.28883 0.68557 0.37041 0.0
C706 C 0.24893 0.70841 0.38291 0.0
C707 C 0.24927 0.75082 0.36774 0.0
C708 C 0.26915 0.75901 0.35324 0.0
C709 C 0.2888 0.72667 0.355 0.0
C710 C 0.22814 0.69882 0.39883 0.0
C711 C 0.26996 0.80276 0.33635 0.0
C712 C 0.18969 0.80987 0.35336 0.0
C713 C 0.1894 0.85251 0.36788 0.0
C714 C 0.20936 0.77738 0.3526 0.0
C715 C 0.22899 0.78704 0.3672 0.0
C716 C 0.22909 0.83097 0.38143 0.0
C717 C 0.20931 0.86364 0.38141 0.0
C718 C 0.20882 0.73195 0.33666 0.0
C719 C 0.24962 0.84221 0.39742 0.0
H720 H 0.26898 0.64453 0.39608 0.0
H721 H 0.30449 0.7342 0.34464 0.0
H722 H 0.22591 0.73151 0.41076 0.0
H723 H 0.21152 0.6954 0.38865 0.0
H724 H 0.23045 0.66379 0.4093 0.0
H725 H 0.28596 0.80149 0.32511 0.0
H726 H 0.25393 0.80247 0.32519 0.0
H727 H 0.27 0.83922 0.34595 0.0
H728 H 0.1742 0.80131 0.34291 0.0
H729 H 0.20887 0.89615 0.3929 0.0
H730 H 0.20867 0.69651 0.34703 0.0
H731 H 0.22502 0.73117 0.32572 0.0
H732 H 0.19299 0.732 0.32519 0.0
H733 H 0.25165 0.81079 0.41007 0.0
H734 H 0.24715 0.87828 0.40709 0.0
H735 H 0.2664 0.8446 0.38742 0.0
C736 C 0.79157 0.23986 0.3883 0.0
C737 C 0.79262 0.19559 0.37477 0.0
C738 C 0.77162 0.27146 0.38803 0.0
C739 C 0.75214 0.25887 0.37375 0.0
C740 C 0.75291 0.21404 0.36013 0.0
C741 C 0.77314 0.18259 0.36094 0.0
C742 C 0.77135 0.31815 0.40324 0.0
C743 C 0.73244 0.19959 0.34462 0.0
C744 C 0.69221 0.31116 0.39148 0.0
C745 C 0.68963 0.35312 0.37672 0.0
C746 C 0.71239 0.28027 0.39059 0.0
C747 C 0.73046 0.29118 0.37434 0.0
C748 C 0.72821 0.33406 0.35961 0.0
C749 C 0.70782 0.36491 0.3611 0.0
C750 C 0.71428 0.23579 0.40702 0.0
C751 C 0.74713 0.34668 0.34201 0.0
H752 H 0.80649 0.24999 0.39922 0.0
H753 H 0.77397 0.14874 0.3503 0.0
H754 H 0.76838 0.35257 0.39257 0.0
H755 H 0.75648 0.31568 0.4158 0.0
H756 H 0.78817 0.32301 0.41303 0.0
H757 H 0.73615 0.16467 0.33447 0.0
H758 H 0.71624 0.19326 0.35517 0.0
H759 H 0.72852 0.23108 0.33245 0.0
H760 H 0.67821 0.30209 0.40371 0.0
H761 H 0.70571 0.39691 0.34948 0.0
H762 H 0.73048 0.2396 0.41782 0.0
H763 H 0.71597 0.19993 0.3971 0.0
H764 H 0.69864 0.23266 0.41867 0.0
H765 H 0.76433 0.35347 0.35085 0.0
H766 H 0.74258 0.38078 0.33161 0.0
H767 H 0.74971 0.31406 0.33012 0.0
C768 C 0.69284 0.73871 0.88887 0.0
C769 C 0.69054 0.69697 0.87393 0.0
C770 C 0.71227 0.77144 0.88743 0.0
C771 C 0.72997 0.76233 0.87062 0.0
C772 C 0.72795 0.72003 0.85554 0.0
C773 C 0.70821 0.68748 0.85745 0.0
C774 C 0.71397 0.81537 0.9042 0.0
C775 C 0.74662 0.70931 0.83744 0.0
C776 C 0.77247 0.87223 0.8596 0.0
C777 C 0.79161 0.85819 0.87364 0.0
C778 C 0.75238 0.84059 0.85783 0.0
C779 C 0.75156 0.79453 0.87057 0.0
C780 C 0.77076 0.78087 0.88499 0.0
C781 C 0.79043 0.81287 0.88638 0.0
C782 C 0.7321 0.85616 0.84232 0.0
C783 C 0.77046 0.73267 0.89922 0.0
H784 H 0.67928 0.74604 0.90179 0.0
H785 H 0.7063 0.65562 0.84573 0.0
H786 H 0.72987 0.81072 0.91533 0.0
H787 H 0.71609 0.85158 0.89461 0.0
H788 H 0.69809 0.81843 0.91553 0.0
H789 H 0.74182 0.67657 0.82626 0.0
H790 H 0.74925 0.74326 0.82635 0.0
H791 H 0.76385 0.70112 0.84595 0.0
H792 H 0.77348 0.90695 0.84957 0.0
H793 H 0.8051 0.80209 0.89749 0.0
H794 H 0.71574 0.86142 0.85276 0.0
H795 H 0.72841 0.8257 0.82955 0.0
H796 H 0.73588 0.89197 0.83285 0.0
H797 H 0.75573 0.73416 0.91197 0.0
H798 H 0.78735 0.72658 0.90876 0.0
H799 H 0.76728 0.69936 0.88791 0.0
C800 C 0.27243 0.36325 0.87079 0.0
C801 C 0.29177 0.35098 0.88491 0.0
C802 C 0.25218 0.33189 0.87041 0.0
C803 C 0.25143 0.28786 0.88457 0.0
C804 C 0.27061 0.27665 0.89944 0.0
C805 C 0.29046 0.30835 0.89945 0.0
C806 C 0.23185 0.34505 0.8545 0.0
C807 C 0.27038 0.23065 0.9151 0.0
C808 C 0.1923 0.23069 0.90107 0.0
C809 C 0.19073 0.18892 0.88605 0.0
C810 C 0.2118 0.26342 0.90053 0.0
C811 C 0.23035 0.2541 0.88464 0.0
C812 C 0.22932 0.21111 0.86987 0.0
C813 C 0.20945 0.17877 0.8708 0.0
C814 C 0.2124 0.30831 0.91682 0.0
C815 C 0.24898 0.19991 0.85286 0.0
H816 H 0.27354 0.39591 0.85943 0.0
H817 H 0.30534 0.29908 0.9106 0.0
H818 H 0.22905 0.31385 0.84189 0.0
H819 H 0.2152 0.34907 0.86461 0.0
H820 H 0.23505 0.38084 0.84481 0.0
H821 H 0.28678 0.22753 0.92569 0.0
H822 H 0.25489 0.23236 0.92695 0.0
H823 H 0.26853 0.19561 0.90461 0.0
H824 H 0.17791 0.23852 0.91304 0.0
H825 H 0.20814 0.14689 0.859 0.0
H826 H 0.21381 0.3441 0.9068 0.0
H827 H 0.22828 0.30599 0.92813 0.0
H828 H 0.19635 0.3104 0.92797 0.0
H829 H 0.25131 0.23256 0.84093 0.0
H830 H 0.24539 0.1653 0.84245 0.0
H831 H 0.26601 0.19471 0.86222 0.0
C832 C 0.69151 0.29956 0.66112 0.0
C833 C 0.69176 0.34389 0.64768 0.0
C834 C 0.71117 0.26719 0.66189 0.0
C835 C 0.73146 0.279 0.64854 0.0
C836 C 0.73212 0.32458 0.63543 0.0
C837 C 0.71224 0.35691 0.63533 0.0
C838 C 0.70998 0.21976 0.67656 0.0
C839 C 0.75346 0.33813 0.62086 0.0
C840 C 0.7905 0.21848 0.66325 0.0
C841 C 0.79185 0.17931 0.6469 0.0
C842 C 0.77067 0.25035 0.66437 0.0
C843 C 0.75196 0.24352 0.64836 0.0
C844 C 0.7529 0.2029 0.63223 0.0
C845 C 0.77285 0.17082 0.63183 0.0
C846 C 0.77007 0.29223 0.68222 0.0
C847 C 0.73331 0.19476 0.6148 0.0
H848 H 0.67561 0.28961 0.67072 0.0
H849 H 0.71224 0.39082 0.62469 0.0
H850 H 0.71098 0.18569 0.66531 0.0
H851 H 0.72536 0.21827 0.68854 0.0
H852 H 0.69337 0.21764 0.6869 0.0
H853 H 0.7513 0.37519 0.61193 0.0
H854 H 0.76962 0.33979 0.63181 0.0
H855 H 0.75645 0.30825 0.60763 0.0
H856 H 0.80537 0.22502 0.67481 0.0
H857 H 0.77421 0.14106 0.61893 0.0
H858 H 0.7534 0.29016 0.69242 0.0
H859 H 0.77035 0.32969 0.67346 0.0
H860 H 0.78537 0.29029 0.69432 0.0
H861 H 0.71604 0.18999 0.62379 0.0
H862 H 0.73651 0.16094 0.60374 0.0
H863 H 0.73175 0.22867 0.6035 0.0
C864 C 0.19103 0.80193 0.66276 0.0
C865 C 0.19252 0.84785 0.65057 0.0
C866 C 0.21031 0.76858 0.66382 0.0
C867 C 0.2315 0.78105 0.65201 0.0
C868 C 0.23342 0.82825 0.64028 0.0
C869 C 0.21386 0.8615 0.63987 0.0
C870 C 0.20774 0.71937 0.67703 0.0
C871 C 0.25575 0.84259 0.62738 0.0
C872 C 0.28871 0.7143 0.66802 0.0
C873 C 0.2904 0.67736 0.65066 0.0
C874 C 0.26935 0.74749 0.66899 0.0
C875 C 0.25152 0.74433 0.65183 0.0
C876 C 0.25281 0.70602 0.63459 0.0
C877 C 0.27227 0.67256 0.63431 0.0
C878 C 0.26835 0.78689 0.68797 0.0
C879 C 0.23417 0.70181 0.61592 0.0
H880 H 0.17445 0.79151 0.67108 0.0
H881 H 0.21482 0.89669 0.63018 0.0
H882 H 0.20894 0.68684 0.6649 0.0
H883 H 0.2224 0.71531 0.68971 0.0
H884 H 0.19056 0.71691 0.68643 0.0
H885 H 0.2546 0.88109 0.61961 0.0
H886 H 0.27126 0.8414 0.63919 0.0
H887 H 0.2591 0.81469 0.61336 0.0
H888 H 0.30301 0.71815 0.68047 0.0
H889 H 0.27397 0.64466 0.62061 0.0
H890 H 0.25109 0.78475 0.69718 0.0
H891 H 0.26972 0.82542 0.68034 0.0
H892 H 0.28288 0.78212 0.70079 0.0
H893 H 0.21636 0.69686 0.6238 0.0
H894 H 0.23758 0.66952 0.604 0.0
H895 H 0.23371 0.73741 0.60565 0.0
C896 C 0.08703 0.97295 0.30612 0.0
C897 C 0.10811 0.9518 0.31473 0.0
C898 C 0.08682 1.00148 0.2854 0.0
C899 C 0.10803 1.00744 0.27237 0.0
C900 C 0.12932 0.98554 0.28093 0.0
C901 C 0.12919 0.95898 0.30218 0.0
C902 C 0.06389 0.02564 0.27758 0.0
C903 C 0.1522 0.98933 0.26743 0.0
C904 C 0.10131 0.03882 0.20779 0.0
C905 C 0.10799 0.09002 0.20694 0.0
C906 C 0.10178 1.01129 0.22876 0.0
C907 C 0.10793 0.03614 0.24974 0.0
C908 C 0.11385 0.08853 0.24903 0.0
C909 C 0.11412 0.11458 0.22763 0.0
C910 C 0.09596 0.95538 0.22839 0.0
C911 C 0.11962 0.11728 0.27092 0.0
H912 H 0.07072 0.96805 0.31586 0.0
H913 H 0.14552 0.94259 0.3087 0.0
H914 H 0.06655 0.06695 0.27485 0.0
H915 H 0.0583 1.00921 0.26077 0.0
H916 H 0.04932 0.02015 0.29031 0.0
H917 H 0.16701 0.96872 0.27596 0.0
H918 H 0.14966 0.9735 0.24979 0.0
H919 H 0.15738 0.02969 0.26538 0.0
H920 H 0.0957 0.0202 0.192 0.0
H921 H 0.11883 0.15447 0.2271 0.0
H922 H 0.0805 0.94748 0.23972 0.0
H923 H 0.1112 0.93337 0.23529 0.0
H924 H 0.09187 0.94151 0.21066 0.0
H925 H 0.10482 0.11341 0.28351 0.0
H926 H 0.12278 0.15827 0.26764 0.0
H927 H 0.13568 0.10103 0.27918 0.0
C928 C 0.87936 0.03238 0.31058 0.0
C929 C 0.87213 0.08323 0.31145 0.0
C930 C 0.87877 1.00459 0.28968 0.0
C931 C 0.87196 0.02888 0.26875 0.0
C932 C 0.86529 0.08086 0.2695 0.0
C933 C 0.86515 0.10712 0.29085 0.0
C934 C 0.88543 0.94912 0.29003 0.0
C935 C 0.85876 0.10907 0.24766 0.0
C936 C 0.89419 0.96841 0.21228 0.0
C937 C 0.87364 0.9451 0.20358 0.0
C938 C 0.89375 0.99664 0.23306 0.0
C939 C 0.87242 1.00035 0.24607 0.0
C940 C 0.85165 0.97638 0.23741 0.0
C941 C 0.8524 0.94994 0.21612 0.0
C942 C 0.91615 0.02285 0.24099 0.0
C943 C 0.82869 0.97783 0.25088 0.0
H944 H 0.88557 1.01425 0.32628 0.0
H945 H 0.86 0.14675 0.29138 0.0
H946 H 0.87101 0.92612 0.2822 0.0
H947 H 0.90164 0.94288 0.27951 0.0
H948 H 0.88878 0.93501 0.30787 0.0
H949 H 0.85447 0.14956 0.25103 0.0
H950 H 0.87369 0.10726 0.23513 0.0
H951 H 0.84321 0.09088 0.23931 0.0
H952 H 0.91061 0.96531 0.20258 0.0
H953 H 0.83647 0.9319 0.20956 0.0
H954 H 0.92204 1.00671 0.25777 0.0
H955 H 0.91265 0.06383 0.24383 0.0
H956 H 0.93085 1.01893 0.22828 0.0
H957 H 0.8315 0.96175 0.26843 0.0
H958 H 0.8143 0.95619 0.2422 0.0
H959 H 0.82277 1.01766 0.25315 0.0
C960 C 0.85332 0.05273 0.70741 0.0
C961 C 0.86984 0.09182 0.70372 0.0
C962 C 0.85311 0.02437 0.72816 0.0
C963 C 0.86858 0.03774 0.74658 0.0
C964 C 0.88442 0.07911 0.74338 0.0
C965 C 0.88529 0.10465 0.72188 0.0
C966 C 0.83662 0.9794 0.73012 0.0
C967 C 0.90034 0.0968 0.76279 0.0
C968 C 0.85178 0.99104 0.80749 0.0
C969 C 0.86913 0.95402 0.81184 0.0
C970 C 0.85177 1.01948 0.78674 0.0
C971 C 0.86846 1.00827 0.76901 0.0
C972 C 0.8852 0.96889 0.77285 0.0
C973 C 0.88571 0.94328 0.79434 0.0
C974 C 0.83415 0.06222 0.78405 0.0
C975 C 0.90247 0.95337 0.75415 0.0
H976 H 0.84076 0.04361 0.69386 0.0
H977 H 0.89784 0.13539 0.71942 0.0
H978 H 0.84647 0.9456 0.73639 0.0
H979 H 0.82244 0.98763 0.74288 0.0
H980 H 0.82814 0.96988 0.7133 0.0
H981 H 0.91004 0.1322 0.75831 0.0
H982 H 0.88968 0.10364 0.77866 0.0
H983 H 0.91353 0.06696 0.76697 0.0
H984 H 0.83841 0.99853 0.82052 0.0
H985 H 0.89895 0.91414 0.79729 0.0
H986 H 0.82081 0.05214 0.77072 0.0
H987 H 0.8433 0.09723 0.77813 0.0
H988 H 0.82467 0.07062 0.80049 0.0
H989 H 0.89276 0.94526 0.73784 0.0
H990 H 0.91292 0.91925 0.75904 0.0
H991 H 0.91499 0.98487 0.75054 0.0
C992 C 0.13212 0.05151 0.81104 0.0
C993 C 0.11539 0.09033 0.81436 0.0
C994 C 0.13268 0.02281 0.79035 0.0
C995 C 0.11719 0.03525 0.77179 0.0
C996 C 0.10105 0.07612 0.77471 0.0
C997 C 0.09996 0.10217 0.79605 0.0
C998 C 0.14951 0.97841 0.78862 0.0
C999 C 0.08496 0.09264 0.75522 0.0
C1000 C 0.13339 0.98944 0.71058 0.0
C1001 C 0.11626 0.95181 0.70647 0.0
C1002 C 0.13373 1.01732 0.73149 0.0
C1003 C 0.11748 1.00529 0.74949 0.0
C1004 C 0.10093 0.96544 0.74584 0.0
C1005 C 0.10016 0.94018 0.72428 0.0
C1006 C 0.15106 0.06065 0.73402 0.0
C1007 C 0.084 0.94936 0.76474 0.0
H1008 H 0.14448 0.04278 0.82481 0.0
H1009 H 0.0872 0.13258 0.79825 0.0
H1010 H 0.13969 0.94379 0.78328 0.0
H1011 H 0.16312 0.986 0.7752 0.0
H1012 H 0.15867 0.9706 0.80528 0.0
H1013 H 0.07497 0.12777 0.75949 0.0
H1014 H 0.09554 0.09947 0.73929 0.0
H1015 H 0.07202 0.06216 0.75124 0.0
H1016 H 0.14625 0.99796 0.69724 0.0
H1017 H 0.08704 0.9107 0.72148 0.0
H1018 H 0.16369 0.05259 0.74826 0.0
H1019 H 0.14141 0.09597 0.73862 0.0
H1020 H 0.16136 0.0675 0.7179 0.0
H1021 H 0.0939 0.94217 0.78103 0.0
H1022 H 0.07394 0.91456 0.76008 0.0
H1023 H 0.07112 0.98023 0.76827 0.0
C1024 C 0.59655 0.43889 0.29401 0.0
C1025 C 0.61258 0.44903 0.31204 0.0
C1026 C 0.5977 0.46532 0.27275 0.0
C1027 C 0.61449 0.50499 0.26971 0.0
C1028 C 0.63056 0.51571 0.28801 0.0
C1029 C 0.62999 0.48638 0.30848 0.0
C1030 C 0.58106 0.45037 0.25344 0.0
C1031 C 0.6481 0.55886 0.28623 0.0
C1032 C 0.63125 0.55175 0.20881 0.0
C1033 C 0.61466 0.59058 0.20496 0.0
C1034 C 0.63106 0.52286 0.22942 0.0
C1035 C 0.615 0.53533 0.24752 0.0
C1036 C 0.59912 0.57654 0.2442 0.0
C1037 C 0.59873 0.60266 0.22284 0.0
C1038 C 0.64771 0.47824 0.23155 0.0
C1039 C 0.58261 0.59336 0.26331 0.0
H1040 H 0.58329 0.40951 0.29636 0.0
H1041 H 0.64293 0.49349 0.32195 0.0
H1042 H 0.56855 0.48183 0.24977 0.0
H1043 H 0.59128 0.44312 0.23734 0.0
H1044 H 0.57058 0.41589 0.25773 0.0
H1045 H 0.6569 0.56689 0.30305 0.0
H1046 H 0.66198 0.54947 0.27332 0.0
H1047 H 0.63904 0.59391 0.28024 0.0
H1048 H 0.64414 0.54315 0.19546 0.0
H1049 H 0.58611 0.6332 0.22027 0.0
H1050 H 0.63782 0.44397 0.23723 0.0
H1051 H 0.66139 0.48631 0.24484 0.0
H1052 H 0.65684 0.46958 0.21495 0.0
H1053 H 0.56933 0.56328 0.26689 0.0
H1054 H 0.573 0.62887 0.25887 0.0
H1055 H 0.59278 0.59963 0.27953 0.0
C1056 C 0.38431 0.60447 0.29949 0.0
C1057 C 0.36805 0.59253 0.31712 0.0
C1058 C 0.38389 0.57906 0.27796 0.0
C1059 C 0.36765 0.53866 0.27422 0.0
C1060 C 0.35131 0.52624 0.29208 0.0
C1061 C 0.35116 0.5545 0.31286 0.0
C1062 C 0.40072 0.59587 0.2591 0.0
C1063 C 0.33443 0.48209 0.28957 0.0
C1064 C 0.35239 0.49273 0.21286 0.0
C1065 C 0.36949 0.45489 0.20904 0.0
C1066 C 0.35204 0.52127 0.23356 0.0
C1067 C 0.36798 0.50919 0.2518 0.0
C1068 C 0.38442 0.46901 0.24847 0.0
C1069 C 0.3854 0.44343 0.227 0.0
C1070 C 0.3349 0.56506 0.23566 0.0
C1071 C 0.40087 0.45261 0.26769 0.0
H1072 H 0.39717 0.63443 0.30238 0.0
H1073 H 0.338 0.54612 0.32598 0.0
H1074 H 0.41382 0.56548 0.25549 0.0
H1075 H 0.39077 0.60292 0.24283 0.0
H1076 H 0.41053 0.63094 0.26384 0.0
H1077 H 0.32362 0.47586 0.30542 0.0
H1078 H 0.32225 0.48854 0.2748 0.0
H1079 H 0.34458 0.44692 0.28582 0.0
H1080 H 0.33951 0.50079 0.19945 0.0
H1081 H 0.39841 0.41364 0.22444 0.0
H1082 H 0.34438 0.59966 0.24157 0.0
H1083 H 0.32113 0.55619 0.24877 0.0
H1084 H 0.32591 0.57359 0.21899 0.0
H1085 H 0.41379 0.48324 0.27151 0.0
H1086 H 0.41091 0.41766 0.26321 0.0
H1087 H 0.39059 0.44552 0.28378 0.0
C1088 C 0.34989 0.47614 0.8127 0.0
C1089 C 0.36688 0.43797 0.81627 0.0
C1090 C 0.34955 0.50515 0.79211 0.0
C1091 C 0.36554 0.49354 0.77384 0.0
C1092 C 0.38183 0.453 0.7769 0.0
C1093 C 0.38267 0.42664 0.79817 0.0
C1094 C 0.33254 0.5492 0.79025 0.0
C1095 C 0.39846 0.43739 0.75766 0.0
C1096 C 0.35049 0.54229 0.71284 0.0
C1097 C 0.36744 0.58072 0.70958 0.0
C1098 C 0.34995 0.51297 0.73334 0.0
C1099 C 0.36572 0.52439 0.7518 0.0
C1100 C 0.38206 0.56495 0.749 0.0
C1101 C 0.38309 0.59167 0.72783 0.0
C1102 C 0.33286 0.469 0.73496 0.0
C1103 C 0.39845 0.58037 0.76845 0.0
H1104 H 0.33714 0.4842 0.82625 0.0
H1105 H 0.39563 0.39667 0.80055 0.0
H1106 H 0.34245 0.58445 0.78603 0.0
H1107 H 0.31975 0.54246 0.776 0.0
H1108 H 0.32243 0.55545 0.80653 0.0
H1109 H 0.4084 0.40218 0.76189 0.0
H1110 H 0.38832 0.43111 0.74143 0.0
H1111 H 0.41144 0.46814 0.75425 0.0
H1112 H 0.33786 0.53447 0.69919 0.0
H1113 H 0.39601 0.62181 0.7257 0.0
H1114 H 0.31964 0.4762 0.7488 0.0
H1115 H 0.34257 0.43381 0.73966 0.0
H1116 H 0.32324 0.46239 0.71844 0.0
H1117 H 0.38808 0.58696 0.78452 0.0
H1118 H 0.40862 0.61535 0.76431 0.0
H1119 H 0.41124 0.5494 0.7721 0.0
C1120 C 0.63397 0.56001 0.80713 0.0
C1121 C 0.61577 0.59514 0.81151 0.0
C1122 C 0.63456 0.53145 0.78642 0.0
C1123 C 0.61725 0.53996 0.76897 0.0
C1124 C 0.59947 0.57713 0.77292 0.0
C1125 C 0.59867 0.60338 0.79422 0.0
C1126 C 0.65336 0.49115 0.7835 0.0
C1127 C 0.58118 0.58918 0.75463 0.0
C1128 C 0.63068 0.49506 0.70699 0.0
C1129 C 0.61567 0.45288 0.70469 0.0
C1130 C 0.63119 0.52409 0.72757 0.0
C1131 C 0.61724 0.50919 0.74691 0.0
C1132 C 0.60277 0.4653 0.74494 0.0
C1133 C 0.60176 0.43851 0.7238 0.0
C1134 C 0.64618 0.57154 0.72836 0.0
C1135 C 0.58828 0.44654 0.76522 0.0
H1136 H 0.6475 0.55394 0.82015 0.0
H1137 H 0.58468 0.63083 0.79727 0.0
H1138 H 0.64482 0.45383 0.78028 0.0
H1139 H 0.66459 0.49985 0.76824 0.0
H1140 H 0.66497 0.4878 0.79897 0.0
H1141 H 0.56984 0.62198 0.75951 0.0
H1142 H 0.59007 0.59778 0.73793 0.0
H1143 H 0.56957 0.55577 0.75177 0.0
H1144 H 0.64159 0.50626 0.69249 0.0
H1145 H 0.59024 0.40572 0.72233 0.0
H1146 H 0.65995 0.56796 0.74197 0.0
H1147 H 0.63494 0.60465 0.73295 0.0
H1148 H 0.65508 0.57938 0.71156 0.0
H1149 H 0.59979 0.44208 0.78068 0.0
H1150 H 0.57951 0.40964 0.76155 0.0
H1151 H 0.5744 0.47475 0.76965 0.0
C1152 C 0.11273 0.07196 0.96601 0.0
C1153 C 0.11959 0.11033 0.95055 0.0
C1154 C 0.11178 0.08034 0.99003 0.0
C1155 C 0.11848 0.12814 0.9992 0.0
C1156 C 0.12426 0.16803 0.98357 0.0
C1157 C 0.12455 0.15879 0.95937 0.0
C1158 C 0.10504 0.03673 1.0057 0.0
C1159 C 0.13168 0.21945 0.99242 0.0
C1160 C 0.10689 0.14146 0.06455 0.0
C1161 C 0.12801 0.1216 0.07368 0.0
C1162 C 0.10385 0.14697 0.0403 0.0
C1163 C 0.1225 0.13309 0.02493 0.0
C1164 C 0.14442 0.11672 0.0344 0.0
C1165 C 0.14674 0.11058 0.05848 0.0
C1166 C 0.08013 0.16417 0.03113 0.0
C1167 C 0.16502 0.10225 0.01901 0.0
H1168 H 0.10876 0.03445 0.9593 0.0
H1169 H 0.13009 0.18849 0.94755 0.0
H1170 H 0.121 0.02329 0.01515 0.0
H1171 H 0.09187 0.04924 0.01879 0.0
H1172 H 0.09748 1.00423 0.99591 0.0
H1173 H 0.13182 0.24843 0.97844 0.0
H1174 H 0.11966 0.23231 1.00647 0.0
H1175 H 0.14983 0.21683 0.9998 0.0
H1176 H 0.09223 0.14944 0.07616 0.0
H1177 H 0.16313 0.09527 0.06543 0.0
H1178 H 0.07049 0.13105 0.02389 0.0
H1179 H 0.08248 0.19205 0.01691 0.0
H1180 H 0.06897 0.18146 0.0449 0.0
H1181 H 0.16083 0.06639 1.0098 0.0
H1182 H 0.18168 0.09663 0.02899 0.0
H1183 H 0.16813 0.13192 1.00572 0.0
C1184 C 0.85777 0.98611 0.96358 0.0
C1185 C 0.85914 0.94752 0.94688 0.0
C1186 C 0.85902 0.97551 0.98741 0.0
C1187 C 0.86137 0.92468 0.99509 0.0
C1188 C 0.86344 0.88544 0.97829 0.0
C1189 C 0.86246 0.89734 0.95437 0.0
C1190 C 0.85705 1.01887 1.00442 0.0
C1191 C 0.86579 0.83074 0.9856 0.0
C1192 C 0.87826 0.91281 0.05919 0.0
C1193 C 0.85584 0.91085 0.06982 0.0
C1194 C 0.88052 0.91439 0.03481 0.0
C1195 C 0.85991 0.91333 0.02064 0.0
C1196 C 0.83738 0.90799 0.03137 0.0
C1197 C 0.83564 0.90721 0.05571 0.0
C1198 C 0.90488 0.92037 0.02429 0.0
C1199 C 0.8149 0.90604 0.01718 0.0
H1200 H 0.85538 0.02507 0.95801 0.0
H1201 H 0.86344 0.86727 0.94161 0.0
H1202 H 0.84039 1.01511 0.01454 0.0
H1203 H 0.87203 1.01777 0.01687 0.0
H1204 H 0.85701 0.05648 0.99571 0.0
H1205 H 0.8694 0.80526 0.97068 0.0
H1206 H 0.8803 0.82652 0.99845 0.0
H1207 H 0.84912 0.81823 0.99412 0.0
H1208 H 0.89399 0.91577 0.06993 0.0
H1209 H 0.81826 0.90533 0.06375 0.0
H1210 H 0.90679 0.95936 0.01726 0.0
H1211 H 0.90729 0.89359 1.00966 0.0
H1212 H 0.91921 0.91391 0.03717 0.0
H1213 H 0.81161 0.94375 1.00925 0.0
H1214 H 0.79918 0.8956 0.0278 0.0
H1215 H 0.81673 0.87822 1.00287 0.0
C1216 C 0.1267 0.98109 0.46429 0.0
C1217 C 0.12458 0.94169 0.44805 0.0
C1218 C 0.12602 0.97178 0.48824 0.0
C1219 C 0.12345 0.92147 0.49654 0.0
C1220 C 0.12066 0.88143 0.48024 0.0
C1221 C 0.1211 0.89203 0.45617 0.0
C1222 C 0.12878 1.01596 0.5047 0.0
C1223 C 0.11803 0.82723 0.48822 0.0
C1224 C 0.15041 0.90709 0.55676 0.0
C1225 C 0.13056 0.91265 0.57125 0.0
C1226 C 0.14811 0.90607 0.53247 0.0
C1227 C 0.12539 0.91151 0.52217 0.0
C1228 C 0.10512 0.91436 0.53677 0.0
C1229 C 0.10793 0.91457 0.56111 0.0
C1230 C 0.17024 0.90226 0.51782 0.0
C1231 C 0.08058 0.92051 0.52672 0.0
H1232 H 0.12922 1.01967 0.45824 0.0
H1233 H 0.11951 0.86135 0.44377 0.0
H1234 H 0.11406 1.01618 0.51748 0.0
H1235 H 0.14561 1.01203 0.51451 0.0
H1236 H 0.12898 0.05308 0.49557 0.0
H1237 H 0.11392 0.80108 0.47368 0.0
H1238 H 0.13477 0.81461 0.49655 0.0
H1239 H 0.10376 0.82424 0.5014 0.0
H1240 H 0.16795 0.90523 0.56443 0.0
H1241 H 0.09248 0.91901 0.57213 0.0
H1242 H 0.17373 0.93936 0.50937 0.0
H1243 H 0.16782 0.87372 0.5039 0.0
H1244 H 0.18608 0.89172 0.52822 0.0
H1245 H 0.07879 0.95916 0.51929 0.0
H1246 H 0.06649 0.91522 0.53998 0.0
H1247 H 0.07766 0.89301 0.51246 0.0
C1248 C 0.86644 0.05784 0.55238 0.0
C1249 C 0.86293 0.09714 0.56841 0.0
C1250 C 0.86747 0.06722 0.52844 0.0
C1251 C 0.86438 0.11726 0.51993 0.0
C1252 C 0.86181 0.15762 0.5361 0.0
C1253 C 0.86133 0.14715 0.56019 0.0
C1254 C 0.8707 0.02288 0.51216 0.0
C1255 C 0.85824 0.21143 0.52796 0.0
C1256 C 0.87785 0.12994 0.45499 0.0
C1257 C 0.8557 0.11779 0.44538 0.0
C1258 C 0.88081 0.1334 0.4793 0.0
C1259 C 0.8611 0.12529 0.49427 0.0
C1260 C 0.8384 0.1171 0.48433 0.0
C1261 C 0.8361 0.1127 0.46016 0.0
C1262 C 0.90536 0.14175 0.48896 0.0
C1263 C 0.81672 0.1091 0.4993 0.0
H1264 H 0.86788 1.01911 0.55858 0.0
H1265 H 0.85847 0.17769 0.57244 0.0
H1266 H 0.85398 1.0162 0.50245 0.0
H1267 H 0.8848 0.03127 0.4993 0.0
H1268 H 0.87543 0.98739 0.52147 0.0
H1269 H 0.85996 0.23919 0.54234 0.0
H1270 H 0.87125 0.22117 0.51422 0.0
H1271 H 0.84025 0.21522 0.52034 0.0
H1272 H 0.89315 0.13299 0.44368 0.0
H1273 H 0.81896 0.10302 0.45281 0.0
H1274 H 0.91226 0.10537 0.49592 0.0
H1275 H 0.90492 0.16932 0.50346 0.0
H1276 H 0.9179 0.15568 0.47553 0.0
H1277 H 0.81788 0.07153 0.50792 0.0
H1278 H 0.80003 0.11036 0.48907 0.0
H1279 H 0.8158 0.13839 0.51306 0.0
C1280 C 0.62437 0.55331 0.05348 0.0
C1281 C 0.62331 0.59269 0.06982 0.0
C1282 C 0.62329 0.5629 0.02957 0.0
C1283 C 0.62139 0.61346 0.02142 0.0
C1284 C 0.61954 0.65351 0.03784 0.0
C1285 C 0.62039 0.64264 0.06187 0.0
C1286 C 0.62506 0.51874 0.01297 0.0
C1287 C 0.61761 0.70794 0.03003 0.0
C1288 C 0.64825 0.62719 0.96113 0.0
C1289 C 0.62829 0.6233 0.9467 0.0
C1290 C 0.64607 0.62775 0.98542 0.0
C1291 C 0.62333 0.62364 0.9958 0.0
C1292 C 0.60296 0.62247 0.98129 0.0
C1293 C 0.60567 0.6226 0.95692 0.0
C1294 C 0.66831 0.62969 0.99996 0.0
C1295 C 0.57838 0.61789 0.99145 0.0
H1296 H 0.62643 0.51452 0.05942 0.0
H1297 H 0.61961 0.6733 0.07436 0.0
H1298 H 0.61022 0.51989 1.00035 0.0
H1299 H 0.64186 0.52141 1.003 0.0
H1300 H 0.62467 0.48153 0.02201 0.0
H1301 H 0.61386 0.73411 0.04466 0.0
H1302 H 0.63451 0.71971 0.02172 0.0
H1303 H 0.60338 0.71198 0.01688 0.0
H1304 H 0.66579 0.62815 0.95338 0.0
H1305 H 0.59013 0.61949 0.94594 0.0
H1306 H 0.67118 0.59228 1.00834 0.0
H1307 H 0.66645 0.6583 0.01394 0.0
H1308 H 0.68429 0.63905 0.98951 0.0
H1309 H 0.57599 0.57923 0.99872 0.0
H1310 H 0.56434 0.6245 0.97829 0.0
H1311 H 0.57597 0.64527 1.00585 0.0
C1312 C 0.37222 0.48016 0.96585 0.0
C1313 C 0.36531 0.44059 0.95109 0.0
C1314 C 0.37318 0.47368 0.99 0.0
C1315 C 0.36634 0.42672 0.99997 0.0
C1316 C 0.36044 0.38567 0.98505 0.0
C1317 C 0.36024 0.39293 0.96073 0.0
C1318 C 0.38014 0.51834 1.00491 0.0
C1319 C 0.35274 0.33517 0.99477 0.0
C1320 C 0.37775 0.41623 0.06541 0.0
C1321 C 0.35676 0.43717 0.07435 0.0
C1322 C 0.38084 0.40989 0.04123 0.0
C1323 C 0.36232 0.42377 0.02574 0.0
C1324 C 0.34053 0.44142 0.03503 0.0
C1325 C 0.3382 0.44862 0.05905 0.0
C1326 C 0.40448 0.39167 0.03223 0.0
C1327 C 0.32004 0.45572 0.0195 0.0
H1328 H 0.37624 0.51705 0.95848 0.0
H1329 H 0.35464 0.36234 0.94943 0.0
H1330 H 0.36423 0.53308 0.01404 0.0
H1331 H 0.39315 0.50652 0.01828 0.0
H1332 H 0.38797 0.54974 0.99458 0.0
H1333 H 0.3524 0.30511 0.98128 0.0
H1334 H 0.36469 0.32309 1.00899 0.0
H1335 H 0.33462 0.33888 1.00215 0.0
H1336 H 0.39227 0.40793 0.07713 0.0
H1337 H 0.32192 0.46473 0.06587 0.0
H1338 H 0.41417 0.42407 0.02438 0.0
H1339 H 0.40199 0.36274 0.01849 0.0
H1340 H 0.41566 0.37531 0.04621 0.0
H1341 H 0.32448 0.4909 1.00985 0.0
H1342 H 0.30343 0.46246 0.02942 0.0
H1343 H 0.31671 0.42541 1.00656 0.0
C1344 C 0.6229 0.47392 0.46418 0.0
C1345 C 0.62083 0.43591 0.44727 0.0
C1346 C 0.62211 0.46265 0.48794 0.0
C1347 C 0.61937 0.41173 0.49536 0.0
C1348 C 0.61648 0.37311 0.47838 0.0
C1349 C 0.61716 0.38566 0.4545 0.0
C1350 C 0.62508 0.50538 0.50515 0.0
C1351 C 0.61353 0.31836 0.48541 0.0
C1352 C 0.64671 0.39286 0.55506 0.0
C1353 C 0.62711 0.39907 0.56981 0.0
C1354 C 0.64416 0.39283 0.5308 0.0
C1355 C 0.6214 0.39967 0.52079 0.0
C1356 C 0.6013 0.40254 0.53562 0.0
C1357 C 0.60437 0.40204 0.55993 0.0
C1358 C 0.66613 0.38914 0.51591 0.0
C1359 C 0.5767 0.40973 0.52586 0.0
H1360 H 0.62557 0.51295 0.45882 0.0
H1361 H 0.6156 0.35603 0.44158 0.0
H1362 H 0.61032 0.50499 0.51788 0.0
H1363 H 0.64186 0.50016 0.51494 0.0
H1364 H 0.62555 0.54321 0.49667 0.0
H1365 H 0.60899 0.29368 0.47046 0.0
H1366 H 0.63029 0.30439 0.49323 0.0
H1367 H 0.59944 0.31472 0.49874 0.0
H1368 H 0.66434 0.3902 0.56251 0.0
H1369 H 0.5891 0.40697 0.57114 0.0
H1370 H 0.66986 0.42667 0.50797 0.0
H1371 H 0.66337 0.36167 0.50162 0.0
H1372 H 0.68196 0.3773 0.52603 0.0
H1373 H 0.57487 0.44912 0.51929 0.0
H1374 H 0.56272 0.40314 0.53911 0.0
H1375 H 0.57365 0.38371 0.51106 0.0
C1376 C 0.35362 0.64594 0.56504 0.0
C1377 C 0.36276 0.60111 0.57463 0.0
C1378 C 0.35358 0.65364 0.54075 0.0
C1379 C 0.36324 0.61602 0.52581 0.0
C1380 C 0.37424 0.57282 0.53577 0.0
C1381 C 0.37351 0.56561 0.5599 0.0
C1382 C 0.34149 0.70004 0.53106 0.0
C1383 C 0.38523 0.53206 0.52085 0.0
C1384 C 0.33622 0.58353 0.46724 0.0
C1385 C 0.35294 0.60273 0.4515 0.0
C1386 C 0.33862 0.59077 0.49123 0.0
C1387 C 0.35866 0.6169 0.50008 0.0
C1388 C 0.37519 0.63831 0.48421 0.0
C1389 C 0.37202 0.6314 0.46005 0.0
C1390 C 0.32021 0.56801 0.50719 0.0
C1391 C 0.39693 0.66593 0.49273 0.0
H1392 H 0.34496 0.67315 0.57631 0.0
H1393 H 0.38054 0.53082 0.56723 0.0
H1394 H 0.35203 0.71662 0.51669 0.0
H1395 H 0.32394 0.68905 0.52391 0.0
H1396 H 0.33866 0.72954 0.54453 0.0
H1397 H 0.39603 0.50497 0.53116 0.0
H1398 H 0.37099 0.51046 0.51194 0.0
H1399 H 0.39669 0.5492 0.50731 0.0
H1400 H 0.32135 0.56158 0.46076 0.0
H1401 H 0.38512 0.646 0.448 0.0
H1402 H 0.31424 0.5965 0.52008 0.0
H1403 H 0.32811 0.53579 0.51687 0.0
H1404 H 0.30443 0.55385 0.49762 0.0
H1405 H 0.39218 0.69317 0.50663 0.0
H1406 H 0.40608 0.68673 0.47857 0.0
H1407 H 0.40956 0.63812 0.50025 0.0
C1408 C 0.94067 1.0195 0.14088 0.0
C1409 C 0.93312 0.97927 0.1269 0.0
C1410 C 0.96433 0.03605 0.14013 0.0
C1411 C 0.9805 1.01217 0.1248 0.0
C1412 C 0.9726 0.97325 0.10984 0.0
C1413 C 0.949 0.95704 0.11118 0.0
C1414 C 0.97225 0.07763 0.15638 0.0
C1415 C 0.98924 0.94762 0.09297 0.0
C1416 C 0.03768 0.08216 0.11223 0.0
C1417 C 0.05346 0.05822 0.1275 0.0
C1418 C 0.01397 0.06666 0.11071 0.0
C1419 C 0.00589 0.02665 0.12498 0.0
C1420 C 0.02195 1.00106 0.13981 0.0
C1421 C 0.04568 1.01698 0.14077 0.0
C1422 C -0.00257 0.09409 0.09437 0.0
C1423 C 0.01386 0.9582 0.15529 0.0
H1424 H 0.9284 0.03642 0.15312 0.0
H1425 H 0.94306 0.92622 0.10017 0.0
H1426 H 0.98576 0.06253 0.16855 0.0
H1427 H 0.98073 0.10885 0.14648 0.0
H1428 H 0.95728 0.09352 0.1666 0.0
H1429 H 0.97983 0.92063 0.08139 0.0
H1430 H -0.00157 0.97636 0.08216 0.0
H1431 H 0.0031 0.92649 0.10263 0.0
H1432 H 0.04375 0.11383 0.10179 0.0
H1433 H 0.05783 0.99871 0.15271 0.0
H1434 H 0.98358 0.11436 0.10442 0.0
H1435 H 0.98821 0.06652 0.08297 0.0
H1436 H 0.00692 0.12211 0.08335 0.0
H1437 H 0.00027 0.97233 0.16763 0.0
H1438 H 0.02874 0.94138 0.16533 0.0
H1439 H 0.00544 0.92786 0.14482 0.0
C1440 C 0.93746 1.01428 0.3777 0.0
C1441 C 0.92945 0.05596 0.39054 0.0
C1442 C 0.96134 0.99914 0.37871 0.0
C1443 C 0.97735 0.02597 0.39315 0.0
C1444 C 0.96901 0.06635 0.40707 0.0
C1445 C 0.94518 0.08104 0.4055 0.0
C1446 C 0.96965 0.95591 0.36359 0.0
C1447 C 0.98543 0.09522 0.42301 0.0
C1448 C 0.03589 0.96229 0.40729 0.0
C1449 C 0.0513 0.98556 0.3914 0.0
C1450 C 0.01186 0.9758 0.40838 0.0
C1451 C 0.003 1.01309 0.39305 0.0
C1452 C 0.0186 0.03774 0.37741 0.0
C1453 C 0.04265 0.02388 0.37687 0.0
C1454 C -0.00415 0.94935 0.42557 0.0
C1455 C 0.00973 0.07763 0.36075 0.0
H1456 H 0.92536 0.99509 0.36601 0.0
H1457 H 0.93895 0.11301 0.41564 0.0
H1458 H 0.9827 0.97021 0.35074 0.0
H1459 H 0.97879 0.92679 0.37422 0.0
H1460 H 0.95478 0.93752 0.35414 0.0
H1461 H 0.97575 0.12302 0.43397 0.0
H1462 H -0.00483 0.06858 0.43445 0.0
H1463 H -0.00114 0.116 0.41262 0.0
H1464 H 0.04255 0.93285 0.41868 0.0
H1465 H 0.05446 0.04164 0.36444 0.0
H1466 H 0.98208 0.92733 0.41622 0.0
H1467 H 0.98649 0.97771 0.43645 0.0
H1468 H 0.00579 0.92309 0.43708 0.0
H1469 H -0.00388 0.06091 0.34913 0.0
H1470 H 0.02422 0.09372 0.34994 0.0
H1471 H 0.00109 0.109 0.37041 0.0
C1472 C 0.03454 0.09228 0.90263 0.0
C1473 C 0.05063 0.06545 0.88871 0.0
C1474 C 0.01059 0.07858 0.9035 0.0
C1475 C 0.00258 0.03741 0.88993 0.0
C1476 C 0.01882 1.00932 0.87627 0.0
C1477 C 0.0428 0.02352 0.87595 0.0
C1478 C -0.00621 0.10873 0.91858 0.0
C1479 C 0.01074 0.96523 0.86155 0.0
C1480 C 0.94458 0.97324 0.90464 0.0
C1481 C 0.92924 0.99475 0.88825 0.0
C1482 C 0.96843 0.98765 0.90573 0.0
C1483 C 0.97711 0.02403 0.88986 0.0
C1484 C 0.96156 0.04708 0.87372 0.0
C1485 C 0.93766 0.03236 0.87322 0.0
C1486 C 0.98446 0.96306 0.92345 0.0
C1487 C 0.97034 0.08599 0.85653 0.0
H1488 H 0.04064 0.12444 0.91272 0.0
H1489 H 0.05522 1.00296 0.8651 0.0
H1490 H 0.98018 0.12747 0.90765 0.0
H1491 H 0.9843 0.08308 0.93068 0.0
H1492 H 0.00312 0.13832 0.92882 0.0
H1493 H 0.02571 0.94688 0.85221 0.0
H1494 H 0.00185 0.9363 0.8725 0.0
H1495 H -0.00246 0.97851 0.84865 0.0
H1496 H 0.93801 0.94447 0.91645 0.0
H1497 H 0.92582 0.04879 0.86045 0.0
H1498 H -0.00647 0.99252 0.93394 0.0
H1499 H -0.00155 0.94074 0.91456 0.0
H1500 H 0.97459 0.93739 0.93531 0.0
H1501 H 0.97889 0.11809 0.86573 0.0
H1502 H 0.95581 0.10118 0.84552 0.0
H1503 H 0.98399 0.06868 0.84514 0.0
C1504 C 0.94098 1.01706 0.64384 0.0
C1505 C 0.93298 0.05766 0.63027 0.0
C1506 C 0.96507 1.00355 0.64402 0.0
C1507 C 0.98135 0.03102 0.63013 0.0
C1508 C 0.97327 0.07124 0.61601 0.0
C1509 C 0.94918 0.08415 0.61629 0.0
C1510 C 0.97317 0.9604 0.65931 0.0
C1511 C 0.99008 0.10083 0.60071 0.0
C1512 C 0.04673 0.02492 0.64575 0.0
C1513 C 0.05456 0.98634 0.63097 0.0
C1514 C 0.02286 0.04027 0.64558 0.0
C1515 C 0.0068 1.01697 0.62997 0.0
C1516 C 0.01496 0.97961 0.61431 0.0
C1517 C 0.03874 0.96448 0.61513 0.0
C1518 C 0.01466 0.08007 0.66259 0.0
C1519 C -0.00152 0.95474 0.59708 0.0
H1520 H 0.92855 0.99672 0.65478 0.0
H1521 H 0.94308 0.11539 0.60563 0.0
H1522 H 0.98161 0.9304 0.64865 0.0
H1523 H 0.98675 0.9742 0.67172 0.0
H1524 H 0.95829 0.94322 0.66923 0.0
H1525 H 0.98084 0.13069 0.59055 0.0
H1526 H 0.00401 0.11911 0.61142 0.0
H1527 H -0.00081 0.07478 0.5885 0.0
H1528 H 0.05897 0.04147 0.65811 0.0
H1529 H 0.0449 0.93491 0.60353 0.0
H1530 H 0.0012 0.0635 0.67444 0.0
H1531 H 0.00601 0.11192 0.65329 0.0
H1532 H 0.02951 0.09543 0.67313 0.0
H1533 H 0.98448 0.93326 0.6064 0.0
H1534 H 0.00797 0.92824 0.58532 0.0
H1535 H 0.98945 0.98401 0.58645 0.0
C1536 C 0.43869 0.52977 0.14489 0.0
C1537 C 0.43012 0.49009 0.13112 0.0
C1538 C 0.46277 0.54335 0.1442 0.0
C1539 C 0.47838 0.51684 0.12922 0.0
C1540 C 0.46955 0.47835 0.11454 0.0
C1541 C 0.44551 0.46537 0.11571 0.0
C1542 C 0.47167 0.5848 0.16002 0.0
C1543 C 0.4856 0.44985 0.09809 0.0
C1544 C 0.53703 0.57865 0.11455 0.0
C1545 C 0.55258 0.55382 0.12979 0.0
C1546 C 0.51287 0.56656 0.114 0.0
C1547 C 0.50405 0.52882 0.12911 0.0
C1548 C 0.51973 0.50251 0.14406 0.0
C1549 C 0.54392 0.51521 0.14416 0.0
C1550 C 0.4967 0.59486 0.0976 0.0
C1551 C 0.51084 0.46186 0.16035 0.0
H1552 H 0.42684 0.54875 0.15689 0.0
H1553 H 0.43885 0.43501 0.10482 0.0
H1554 H 0.48476 0.56884 0.1724 0.0
H1555 H 0.48093 0.61449 0.14982 0.0
H1556 H 0.45709 0.60289 0.17001 0.0
H1557 H 0.47566 0.4227 0.08703 0.0
H1558 H 0.49525 0.47684 0.08673 0.0
H1559 H 0.49913 0.42843 0.10806 0.0
H1560 H 0.54368 0.60824 0.10323 0.0
H1561 H 0.55586 0.49611 0.15602 0.0
H1562 H 0.48315 0.61618 0.10758 0.0
H1563 H 0.48709 0.56769 0.08631 0.0
H1564 H 0.50656 0.62204 0.08645 0.0
H1565 H 0.49764 0.47831 0.17248 0.0
H1566 H 0.52541 0.44445 0.17059 0.0
H1567 H 0.50171 0.43154 0.15044 0.0
C1568 C 0.4444 0.58017 0.40539 0.0
C1569 C 0.42776 0.55465 0.39155 0.0
C1570 C 0.46838 0.56615 0.40532 0.0
C1571 C 0.47595 0.52586 0.39093 0.0
C1572 C 0.45917 0.49907 0.37735 0.0
C1573 C 0.4352 0.51363 0.37792 0.0
C1574 C 0.4857 0.59504 0.42032 0.0
C1575 C 0.46664 0.4559 0.36178 0.0
C1576 C 0.54082 0.52079 0.37299 0.0
C1577 C 0.54943 0.48223 0.3874 0.0
C1578 C 0.51688 0.53559 0.374 0.0
C1579 C 0.50145 0.51179 0.39008 0.0
C1580 C 0.51032 0.47415 0.40522 0.0
C1581 C 0.53416 0.45957 0.40358 0.0
C1582 C 0.50795 0.57565 0.35746 0.0
C1583 C 0.49453 0.44866 0.4229 0.0
H1584 H 0.43873 0.6117 0.41611 0.0
H1585 H 0.42246 0.49398 0.36708 0.0
H1586 H 0.49538 0.56847 0.43185 0.0
H1587 H 0.49912 0.61419 0.40929 0.0
H1588 H 0.47678 0.62417 0.43118 0.0
H1589 H 0.45136 0.43855 0.35254 0.0
H1590 H 0.4796 0.46981 0.34876 0.0
H1591 H 0.47565 0.42601 0.37206 0.0
H1592 H 0.55255 0.53807 0.36035 0.0
H1593 H 0.54084 0.43002 0.41491 0.0
H1594 H 0.4999 0.60752 0.36724 0.0
H1595 H 0.49387 0.5594 0.34626 0.0
H1596 H 0.5223 0.59093 0.34624 0.0
H1597 H 0.486 0.47758 0.43412 0.0
H1598 H 0.50446 0.42167 0.43406 0.0
H1599 H 0.48011 0.42764 0.414 0.0
C1600 C 0.44858 0.45442 0.90233 0.0
C1601 C 0.43231 0.47731 0.88721 0.0
C1602 C 0.47247 0.46872 0.90236 0.0
C1603 C 0.48025 0.50655 0.88678 0.0
C1604 C 0.4639 0.53023 0.8716 0.0
C1605 C 0.43999 0.51549 0.8721 0.0
C1606 C 0.48938 0.44332 0.91904 0.0
C1607 C 0.47172 0.57072 0.85473 0.0
C1608 C 0.53605 0.57957 0.90064 0.0
C1609 C 0.55266 0.55609 0.88608 0.0
C1610 C 0.51248 0.56315 0.90131 0.0
C1611 C 0.50539 0.52256 0.88691 0.0
C1612 C 0.5222 0.49771 0.87262 0.0
C1613 C 0.54582 0.51464 0.87249 0.0
C1614 C 0.4951 0.58991 0.91708 0.0
C1615 C 0.5151 0.4543 0.85703 0.0
H1616 H 0.44265 0.4251 0.91418 0.0
H1617 H 0.42747 0.53293 0.86027 0.0
H1618 H 0.50393 0.4245 0.90935 0.0
H1619 H 0.49766 0.47217 0.93047 0.0
H1620 H 0.48041 0.41452 0.93005 0.0
H1621 H 0.45686 0.58462 0.84379 0.0
H1622 H 0.47936 0.60341 0.86427 0.0
H1623 H 0.48587 0.55561 0.84327 0.0
H1624 H 0.54141 0.61134 0.91137 0.0
H1625 H 0.55866 0.49671 0.86115 0.0
H1626 H 0.48635 0.56211 0.92873 0.0
H1627 H 0.48095 0.60812 0.90661 0.0
H1628 H 0.50377 0.61951 0.92786 0.0
H1629 H 0.50676 0.42358 0.86736 0.0
H1630 H 0.53047 0.43827 0.84743 0.0
H1631 H 0.50168 0.46753 0.84433 0.0
C1632 C 0.43815 0.51196 0.62547 0.0
C1633 C 0.43129 0.55235 0.63962 0.0
C1634 C 0.46213 0.49785 0.62397 0.0
C1635 C 0.47921 0.52385 0.63756 0.0
C1636 C 0.47209 0.56387 0.65231 0.0
C1637 C 0.44821 0.57819 0.65285 0.0
C1638 C 0.46926 0.45572 0.60768 0.0
C1639 C 0.48964 0.59122 0.66767 0.0
C1640 C 0.53585 0.45338 0.65128 0.0
C1641 C 0.5521 0.47742 0.63659 0.0
C1642 C 0.51212 0.46875 0.65202 0.0
C1643 C 0.50442 0.508 0.63711 0.0
C1644 C 0.52084 0.53252 0.62222 0.0
C1645 C 0.54475 0.51735 0.6224 0.0
C1646 C 0.49534 0.44296 0.66871 0.0
C1647 C 0.51305 0.5738 0.60577 0.0
H1648 H 0.42491 0.49264 0.61507 0.0
H1649 H 0.44264 0.60943 0.66383 0.0
H1650 H 0.48307 0.46954 0.59549 0.0
H1651 H 0.47711 0.42382 0.61759 0.0
H1652 H 0.45398 0.44107 0.59752 0.0
H1653 H 0.48103 0.62084 0.67849 0.0
H1654 H 0.4986 0.56365 0.67927 0.0
H1655 H 0.5036 0.60945 0.65698 0.0
H1656 H 0.5418 0.42249 0.66227 0.0
H1657 H 0.55745 0.53528 0.6109 0.0
H1658 H 0.48098 0.42351 0.65902 0.0
H1659 H 0.4868 0.47161 0.68007 0.0
H1660 H 0.50448 0.41455 0.67978 0.0
H1661 H 0.49891 0.55914 0.59418 0.0
H1662 H 0.52793 0.58817 0.59497 0.0
H1663 H 0.50539 0.60604 0.61559 0.0
C1664 C 0.12872 0.73587 0.1245 0.0
C1665 C 0.13626 0.75825 0.14533 0.0
C1666 C 0.12546 0.68292 0.12261 0.0
C1667 C 0.1298 0.6512 0.142 0.0
C1668 C 0.13781 0.67343 0.16293 0.0
C1669 C 0.14097 0.72638 0.16432 0.0
C1670 C 0.11692 0.66099 0.09996 0.0
C1671 C 0.14272 0.6413 0.18404 0.0
C1672 C 0.09834 0.52308 0.14663 0.0
C1673 C 0.11636 0.48855 0.14065 0.0
C1674 C 0.1024 0.57581 0.14683 0.0
C1675 C 0.12505 0.59512 0.14079 0.0
C1676 C 0.14323 0.56066 0.13429 0.0
C1677 C 0.13869 0.50796 0.1343 0.0
C1678 C 0.08244 0.6109 0.15382 0.0
C1679 C 0.16763 0.57945 0.12769 0.0
H1680 H 0.12479 0.75988 0.10976 0.0
H1681 H 0.14726 0.74284 0.18038 0.0
H1682 H 0.12923 0.63082 0.094 0.0
H1683 H 0.09925 0.64315 0.10242 0.0
H1684 H 0.11547 0.69024 0.08617 0.0
H1685 H 0.14952 0.66408 0.19881 0.0
H1686 H 0.12621 0.62177 0.18957 0.0
H1687 H 0.15594 0.61148 0.17982 0.0
H1688 H 0.08087 0.50887 0.15111 0.0
H1689 H 0.15284 0.48188 0.12983 0.0
H1690 H 0.07899 0.63883 0.13985 0.0
H1691 H 0.0876 0.63263 0.16948 0.0
H1692 H 0.06572 0.59009 0.15756 0.0
H1693 H 0.16629 0.60748 0.11341 0.0
H1694 H 0.17955 0.54813 0.12213 0.0
H1695 H 0.17587 0.59913 0.14264 0.0
C1696 C 0.84672 0.30821 0.16042 0.0
C1697 C 0.85625 0.27753 0.14278 0.0
C1698 C 0.84941 0.36143 0.16017 0.0
C1699 C 0.86194 0.38517 0.14182 0.0
C1700 C 0.87159 0.35454 0.12395 0.0
C1701 C 0.86865 0.30135 0.12463 0.0
C1702 C 0.83874 0.39234 0.17957 0.0
C1703 C 0.88515 0.37797 0.10409 0.0
C1704 C 0.85132 0.52664 0.13018 0.0
C1705 C 0.87107 0.54951 0.14083 0.0
C1706 C 0.84815 0.47349 0.13034 0.0
C1707 C 0.86508 0.44192 0.14143 0.0
C1708 C 0.88501 0.46469 0.15224 0.0
C1709 C 0.88777 0.51789 0.15178 0.0
C1710 C 0.8266 0.45109 0.11865 0.0
C1711 C 0.90355 0.43277 0.16424 0.0
H1712 H 0.83676 0.29066 0.17434 0.0
H1713 H 0.87637 0.27832 0.11104 0.0
H1714 H 0.85284 0.41443 0.18842 0.0
H1715 H 0.82581 0.42 0.17245 0.0
H1716 H 0.82956 0.36832 0.1926 0.0
H1717 H 0.89138 0.34916 0.09143 0.0
H1718 H 0.87375 0.4058 0.0949 0.0
H1719 H 0.90077 0.39898 0.11078 0.0
H1720 H 0.8381 0.55038 0.12191 0.0
H1721 H 0.90332 0.53466 0.15972 0.0
H1722 H 0.8159 0.42945 0.13141 0.0
H1723 H 0.83222 0.42402 0.10499 0.0
H1724 H 0.81514 0.48058 0.11065 0.0
H1725 H 0.89517 0.40993 0.17817 0.0
H1726 H 0.91793 0.45612 0.17196 0.0
H1727 H 0.91157 0.40576 0.15175 0.0
C1728 C 0.11964 0.31108 0.38766 0.0
C1729 C 0.13244 0.28934 0.36927 0.0
C1730 C 0.11673 0.36406 0.38947 0.0
C1731 C 0.12683 0.39645 0.3725 0.0
C1732 C 0.1399 0.37482 0.354 0.0
C1733 C 0.14256 0.32177 0.35263 0.0
C1734 C 0.10263 0.38539 0.40946 0.0
C1735 C 0.15105 0.40778 0.33557 0.0
C1736 C 0.10085 0.5293 0.36458 0.0
C1737 C 0.11708 0.55979 0.37674 0.0
C1738 C 0.10382 0.47632 0.36306 0.0
C1739 C 0.12351 0.45286 0.37395 0.0
C1740 C 0.14003 0.48338 0.38615 0.0
C1741 C 0.13663 0.53629 0.38741 0.0
C1742 C 0.08574 0.44537 0.34991 0.0
C1743 C 0.16134 0.4601 0.39792 0.0
H1744 H 0.11149 0.28658 0.40047 0.0
H1745 H 0.15282 0.30567 0.33856 0.0
H1746 H 0.11368 0.4126 0.4194 0.0
H1747 H 0.08705 0.40663 0.40282 0.0
H1748 H 0.09625 0.35531 0.42143 0.0
H1749 H 0.1608 0.38521 0.32239 0.0
H1750 H 0.13713 0.43033 0.32669 0.0
H1751 H 0.16357 0.43506 0.34362 0.0
H1752 H 0.0855 0.54675 0.35657 0.0
H1753 H 0.14945 0.55938 0.39661 0.0
H1754 H 0.07744 0.41708 0.36162 0.0
H1755 H 0.09459 0.42401 0.33578 0.0
H1756 H 0.07151 0.46928 0.34227 0.0
H1757 H 0.15544 0.4318 0.41093 0.0
H1758 H 0.17255 0.48893 0.40671 0.0
H1759 H 0.17239 0.43968 0.38502 0.0
C1760 C 0.84842 0.50741 0.36246 0.0
C1761 C 0.86261 0.48326 0.37918 0.0
C1762 C 0.84505 0.56038 0.36258 0.0
C1763 C 0.85604 0.59043 0.37988 0.0
C1764 C 0.86987 0.56625 0.39717 0.0
C1765 C 0.87299 0.51315 0.39661 0.0
C1766 C 0.83006 0.58431 0.34386 0.0
C1767 C 0.88189 0.59666 0.41595 0.0
C1768 C 0.86744 0.72975 0.36517 0.0
C1769 C 0.84846 0.75452 0.37623 0.0
C1770 C 0.87026 0.67672 0.36651 0.0
C1771 C 0.85377 0.64722 0.37928 0.0
C1772 C 0.83483 0.67199 0.39086 0.0
C1773 C 0.83241 0.72515 0.38921 0.0
C1774 C 0.89078 0.65215 0.35395 0.0
C1775 C 0.81684 0.64217 0.40467 0.0
H1776 H 0.83995 0.48482 0.34914 0.0
H1777 H 0.8842 0.49523 0.40948 0.0
H1778 H 0.81561 0.60713 0.35173 0.0
H1779 H 0.84111 0.61055 0.33337 0.0
H1780 H 0.82204 0.55564 0.33213 0.0
H1781 H 0.89097 0.5721 0.42884 0.0
H1782 H 0.89521 0.62254 0.40814 0.0
H1783 H 0.86869 0.62064 0.42511 0.0
H1784 H 0.88021 0.75192 0.35543 0.0
H1785 H 0.81753 0.74358 0.39764 0.0
H1786 H 0.88396 0.62533 0.34072 0.0
H1787 H 0.90169 0.62985 0.36629 0.0
H1788 H 0.9024 0.6804 0.34523 0.0
H1789 H 0.80712 0.61581 0.39307 0.0
H1790 H 0.80374 0.6671 0.41347 0.0
H1791 H 0.82594 0.61871 0.41792 0.0
C1792 C 0.85706 0.32585 0.85331 0.0
C1793 C 0.84644 0.2986 0.87148 0.0
C1794 C 0.85982 0.37888 0.85441 0.0
C1795 C 0.85184 0.40569 0.8742 0.0
C1796 C 0.84087 0.37854 0.89252 0.0
C1797 C 0.83826 0.32546 0.89092 0.0
C1798 C 0.87148 0.40619 0.83442 0.0
C1799 C 0.83222 0.4055 0.91398 0.0
C1800 C 0.88086 0.53374 0.88645 0.0
C1801 C 0.86395 0.56822 0.87793 0.0
C1802 C 0.87701 0.48102 0.88557 0.0
C1803 C 0.85568 0.46185 0.87598 0.0
C1804 C 0.83836 0.49636 0.86764 0.0
C1805 C 0.84268 0.549 0.86872 0.0
C1806 C 0.89592 0.44576 0.89478 0.0
C1807 C 0.81539 0.47761 0.85725 0.0
H1808 H 0.86307 0.30569 0.83804 0.0
H1809 H 0.83022 0.30482 0.90514 0.0
H1810 H 0.85946 0.43606 0.82765 0.0
H1811 H 0.8879 0.42534 0.84044 0.0
H1812 H 0.87615 0.3801 0.82001 0.0
H1813 H 0.82342 0.37927 0.92637 0.0
H1814 H 0.84738 0.42405 0.92285 0.0
H1815 H 0.81947 0.43583 0.90919 0.0
H1816 H 0.89714 0.54801 0.89403 0.0
H1817 H 0.82957 0.57512 0.8619 0.0
H1818 H 0.90239 0.42069 0.88068 0.0
H1819 H 0.88836 0.42094 0.90844 0.0
H1820 H 0.91132 0.46663 0.90211 0.0
H1821 H 0.81919 0.45428 0.8417 0.0
H1822 H 0.80342 0.50923 0.8522 0.0
H1823 H 0.80594 0.45292 0.8698 0.0
C1824 C 0.144 0.50781 0.88808 0.0
C1825 C 0.12148 0.48576 0.89112 0.0
C1826 C 0.14699 0.56085 0.88765 0.0
C1827 C 0.12704 0.59299 0.89054 0.0
C1828 C 0.1044 0.5711 0.89442 0.0
C1829 C 0.10189 0.51795 0.89456 0.0
C1830 C 0.17144 0.5825 0.88346 0.0
C1831 C 0.08267 0.60385 0.89769 0.0
C1832 C 0.13735 0.73292 0.90494 0.0
C1833 C 0.13517 0.75592 0.8831 0.0
C1834 C 0.13466 0.68007 0.90769 0.0
C1835 C 0.12961 0.64933 0.88815 0.0
C1836 C 0.12713 0.67242 0.86614 0.0
C1837 C 0.12989 0.72522 0.8639 0.0
C1838 C 0.13742 0.65704 0.93146 0.0
C1839 C 0.12164 0.64127 0.84485 0.0
H1840 H 0.15936 0.48355 0.88581 0.0
H1841 H 0.08434 0.50168 0.89659 0.0
H1842 H 0.1716 0.60384 0.86689 0.0
H1843 H 0.17613 0.60968 0.89739 0.0
H1844 H 0.18531 0.55258 0.88265 0.0
H1845 H 0.06669 0.5812 0.90226 0.0
H1846 H 0.08581 0.63224 0.91154 0.0
H1847 H 0.07895 0.62511 0.88151 0.0
H1848 H 0.14162 0.75613 0.91986 0.0
H1849 H 0.12773 0.7426 0.84702 0.0
H1850 H 0.15235 0.62957 0.93143 0.0
H1851 H 0.12114 0.63568 0.93619 0.0
H1852 H 0.14084 0.68614 0.94497 0.0
H1853 H 0.13576 0.61252 0.84211 0.0
H1854 H 0.12019 0.66495 0.829 0.0
H1855 H 0.1047 0.62045 0.84729 0.0
C1856 C 0.86967 0.72257 0.64913 0.0
C1857 C 0.84862 0.74715 0.64255 0.0
C1858 C 0.87192 0.66958 0.64759 0.0
C1859 C 0.85262 0.64024 0.63934 0.0
C1860 C 0.83137 0.6648 0.63252 0.0
C1861 C 0.82964 0.71794 0.63414 0.0
C1862 C 0.89496 0.64497 0.65484 0.0
C1863 C 0.81036 0.63488 0.62373 0.0
C1864 C 0.8665 0.50794 0.61661 0.0
C1865 C 0.86082 0.47723 0.6357 0.0
C1866 C 0.86358 0.56086 0.61743 0.0
C1867 C 0.85477 0.58386 0.63786 0.0
C1868 C 0.8487 0.55308 0.6571 0.0
C1869 C 0.85182 0.5002 0.6558 0.0
C1870 C 0.87035 0.59228 0.59658 0.0
C1871 C 0.83914 0.57609 0.67915 0.0
H1872 H 0.88451 0.74492 0.65535 0.0
H1873 H 0.81323 0.73658 0.62928 0.0
H1874 H 0.89165 0.61774 0.66914 0.0
H1875 H 0.90253 0.62312 0.64018 0.0
H1876 H 0.90833 0.67317 0.66071 0.0
H1877 H 0.79518 0.65967 0.61895 0.0
H1878 H 0.81559 0.61231 0.60834 0.0
H1879 H 0.80437 0.60769 0.6372 0.0
H1880 H 0.87379 0.49069 0.60113 0.0
H1881 H 0.84713 0.47676 0.67053 0.0
H1882 H 0.88499 0.6186 0.60119 0.0
H1883 H 0.85508 0.61584 0.59097 0.0
H1884 H 0.87618 0.56849 0.58174 0.0
H1885 H 0.85251 0.60224 0.68669 0.0
H1886 H 0.83459 0.54686 0.6923 0.0
H1887 H 0.82303 0.59885 0.67538 0.0
C1888 C 0.10972 0.30881 0.64494 0.0
C1889 C 0.13231 0.28744 0.64153 0.0
C1890 C 0.10643 0.36187 0.64553 0.0
C1891 C 0.12619 0.39469 0.64274 0.0
C1892 C 0.14905 0.37338 0.63954 0.0
C1893 C 0.15182 0.32027 0.63897 0.0
C1894 C 0.08172 0.38282 0.64889 0.0
C1895 C 0.17066 0.40674 0.63664 0.0
C1896 C 0.11617 0.53074 0.6219 0.0
C1897 C 0.11752 0.5587 0.64258 0.0
C1898 C 0.11877 0.47757 0.62175 0.0
C1899 C 0.12295 0.45128 0.64277 0.0
C1900 C 0.12436 0.47922 0.66371 0.0
C1901 C 0.12156 0.5324 0.66337 0.0
C1902 C 0.11698 0.44946 0.59904 0.0
C1903 C 0.12897 0.45293 0.68649 0.0
H1904 H 0.09447 0.28401 0.64673 0.0
H1905 H 0.16943 0.3044 0.63675 0.0
H1906 H 0.08128 0.408 0.66427 0.0
H1907 H 0.07666 0.40619 0.63369 0.0
H1908 H 0.06827 0.3524 0.6512 0.0
H1909 H 0.18726 0.38437 0.63466 0.0
H1910 H 0.16851 0.43129 0.62117 0.0
H1911 H 0.17256 0.43213 0.65185 0.0
H1912 H 0.11267 0.5504 0.60578 0.0
H1913 H 0.12287 0.55354 0.67942 0.0
H1914 H 0.10254 0.42088 0.59996 0.0
H1915 H 0.13374 0.42866 0.5956 0.0
H1916 H 0.11342 0.47529 0.58423 0.0
H1917 H 0.11501 0.42412 0.6898 0.0
H1918 H 0.12938 0.4799 0.70127 0.0
H1919 H 0.14621 0.4326 0.68576 0.0
C1920 C 0.60804 1.00529 0.15719 0.0
C1921 C 0.62059 0.97467 0.14148 0.0
C1922 C 0.61163 0.05808 0.15809 0.0
C1923 C 0.62824 0.08116 0.14296 0.0
C1924 C 0.64127 0.05045 0.12733 0.0
C1925 C 0.6373 0.99769 0.12677 0.0
C1926 C 0.59743 0.08928 0.17511 0.0
C1927 C 0.65917 0.07344 0.11092 0.0
C1928 C 0.6205 0.22225 0.13005 0.0
C1929 C 0.63716 0.24463 0.14498 0.0
C1930 C 0.61756 0.16924 0.12908 0.0
C1931 C 0.63169 0.1375 0.14331 0.0
C1932 C 0.64873 0.15971 0.15821 0.0
C1933 C 0.65121 0.21284 0.15892 0.0
C1934 C 0.59919 0.14719 0.11293 0.0
C1935 C 0.66416 0.12736 0.17367 0.0
H1936 H 0.59536 0.9879 0.16888 0.0
H1937 H 0.6469 0.97462 0.11437 0.0
H1938 H 0.60956 0.11063 0.18668 0.0
H1939 H 0.58652 0.11758 0.16566 0.0
H1940 H 0.58547 0.06555 0.18593 0.0
H1941 H 0.66837 0.04429 0.10031 0.0
H1942 H 0.65017 0.10053 0.09912 0.0
H1943 H 0.67267 0.0952 0.12076 0.0
H1944 H 0.60978 0.24622 0.11895 0.0
H1945 H 0.66388 0.22953 0.1708 0.0
H1946 H 0.58583 0.12546 0.123 0.0
H1947 H 0.60772 0.12027 0.10072 0.0
H1948 H 0.58984 0.17689 0.10277 0.0
H1949 H 0.6529 0.10579 0.18598 0.0
H1950 H 0.67712 0.15029 0.18371 0.0
H1951 H 0.67407 0.09921 0.16314 0.0
C1952 C 0.32684 0.82791 0.15346 0.0
C1953 C 0.34511 0.79632 0.14526 0.0
C1954 C 0.32893 0.88115 0.1528 0.0
C1955 C 0.34985 0.90365 0.14383 0.0
C1956 C 0.3682 0.87209 0.1352 0.0
C1957 C 0.36559 0.819 0.13596 0.0
C1958 C 0.30891 0.91331 0.16213 0.0
C1959 C 0.39079 0.89442 0.12546 0.0
C1960 C 0.34983 0.04276 0.12518 0.0
C1961 C 0.36086 0.06654 0.1441 0.0
C1962 C 0.34581 0.98999 0.12498 0.0
C1963 C 0.35293 0.9601 0.14416 0.0
C1964 C 0.3636 0.98403 0.1635 0.0
C1965 C 0.36741 0.03679 0.16324 0.0
C1966 C 0.33437 0.96607 0.10401 0.0
C1967 C 0.37135 0.95376 0.18437 0.0
H1968 H 0.31107 0.81104 0.16099 0.0
H1969 H 0.37966 0.79517 0.12921 0.0
H1970 H 0.31519 0.93536 0.17731 0.0
H1971 H 0.30307 0.94103 0.14884 0.0
H1972 H 0.29336 0.89016 0.1675 0.0
H1973 H 0.40313 0.86483 0.11891 0.0
H1974 H 0.38658 0.92086 0.11109 0.0
H1975 H 0.40003 0.91671 0.13903 0.0
H1976 H 0.34492 0.06521 0.1102 0.0
H1977 H 0.3756 0.05482 0.17809 0.0
H1978 H 0.31849 0.94397 0.10927 0.0
H1979 H 0.34696 0.93915 0.09579 0.0
H1980 H 0.32895 0.99472 0.09093 0.0
H1981 H 0.35608 0.93226 0.19153 0.0
H1982 H 0.37881 0.97817 0.19826 0.0
H1983 H 0.38502 0.92564 0.1792 0.0
C1984 C 0.63304 0.03518 0.36324 0.0
C1985 C 0.62168 0.05901 0.38196 0.0
C1986 C 0.63628 0.98225 0.36271 0.0
C1987 C 0.62797 0.9521 0.38135 0.0
C1988 C 0.61703 0.97598 0.40057 0.0
C1989 C 0.61402 0.02902 0.40065 0.0
C1990 C 0.64818 0.95847 0.34193 0.0
C1991 C 0.60788 0.94534 0.42078 0.0
C1992 C 0.61359 0.81377 0.36802 0.0
C1993 C 0.63379 0.7884 0.37634 0.0
C1994 C 0.61137 0.86678 0.36984 0.0
C1995 C 0.6298 0.89547 0.38021 0.0
C1996 C 0.65008 0.87008 0.38897 0.0
C1997 C 0.65181 0.81692 0.38698 0.0
C1998 C 0.58936 0.89215 0.36043 0.0
C1999 C 0.67016 0.89918 0.40007 0.0
H2000 H 0.63936 0.05799 0.34887 0.0
H2001 H 0.60497 0.04685 0.41508 0.0
H2002 H 0.66348 0.93499 0.34754 0.0
H2003 H 0.63551 0.93288 0.33298 0.0
H2004 H 0.65457 0.98728 0.32934 0.0
H2005 H 0.60098 0.96974 0.43496 0.0
H2006 H 0.5934 0.91988 0.4149 0.0
H2007 H 0.62221 0.92091 0.42781 0.0
H2008 H 0.59941 0.79206 0.3601 0.0
H2009 H 0.66758 0.79779 0.39325 0.0
H2010 H 0.5943 0.91903 0.34644 0.0
H2011 H 0.58056 0.91452 0.37426 0.0
H2012 H 0.57638 0.86439 0.35339 0.0
H2013 H 0.67808 0.92569 0.38729 0.0
H2014 H 0.68435 0.87377 0.4067 0.0
H2015 H 0.66333 0.92242 0.41464 0.0
C2016 C 0.33999 0.99935 0.37494 0.0
C2017 C 0.35991 0.9795 0.38641 0.0
C2018 C 0.33628 0.05212 0.37325 0.0
C2019 C 0.35291 0.08612 0.38322 0.0
C2020 C 0.37299 0.06633 0.39488 0.0
C2021 C 0.37626 1.01348 0.3963 0.0
C2022 C 0.31461 0.07154 0.3607 0.0
C2023 C 0.39123 0.10105 0.40568 0.0
C2024 C 0.35654 0.22154 0.36006 0.0
C2025 C 0.34404 0.24919 0.37693 0.0
C2026 C 0.35944 0.16865 0.36186 0.0
C2027 C 0.34964 0.14236 0.38101 0.0
C2028 C 0.33708 0.16998 0.39816 0.0
C2029 C 0.33447 0.22295 0.39594 0.0
C2030 C 0.3731 0.14091 0.34325 0.0
C2031 C 0.32632 0.1435 0.41883 0.0
H2032 H 0.3271 0.97359 0.36746 0.0
H2033 H 0.39192 0.99877 0.40487 0.0
H2034 H 0.30393 0.0959 0.37241 0.0
H2035 H 0.3201 0.09538 0.34579 0.0
H2036 H 0.30317 0.04027 0.35421 0.0
H2037 H 0.40557 0.07974 0.41461 0.0
H2038 H 0.39936 0.12537 0.39214 0.0
H2039 H 0.38257 0.12663 0.41839 0.0
H2040 H 0.36435 0.2414 0.34549 0.0
H2041 H 0.32456 0.24375 0.40893 0.0
H2042 H 0.36176 0.11116 0.33535 0.0
H2043 H 0.3887 0.12155 0.35097 0.0
H2044 H 0.37942 0.16674 0.32934 0.0
H2045 H 0.31349 0.11425 0.41297 0.0
H2046 H 0.317 0.17026 0.4306 0.0
H2047 H 0.34039 0.12366 0.42877 0.0
C2048 C 0.3326 0.81319 0.88884 0.0
C2049 C 0.34886 0.78463 0.8758 0.0
C2050 C 0.33481 0.86625 0.89081 0.0
C2051 C 0.3538 0.89154 0.87956 0.0
C2052 C 0.37036 0.86289 0.86651 0.0
C2053 C 0.36768 0.80995 0.86477 0.0
C2054 C 0.31671 0.89533 0.90481 0.0
C2055 C 0.39097 0.88817 0.85438 0.0
C2056 C 0.34915 0.03331 0.86662 0.0
C2057 C 0.36284 0.05464 0.88446 0.0
C2058 C 0.34585 0.98046 0.86496 0.0
C2059 C 0.35649 0.94791 0.88151 0.0
C2060 C 0.37014 0.96919 0.89966 0.0
C2061 C 0.37315 0.02212 0.90091 0.0
C2062 C 0.33109 0.95941 0.84538 0.0
C2063 C 0.38188 0.93595 0.91762 0.0
H2064 H 0.31785 0.79413 0.8972 0.0
H2065 H 0.38053 0.78821 0.85492 0.0
H2066 H 0.32568 0.91642 0.91895 0.0
H2067 H 0.30774 0.92377 0.89367 0.0
H2068 H 0.30302 0.87012 0.91253 0.0
H2069 H 0.4023 0.86057 0.84492 0.0
H2070 H 0.3843 0.91677 0.84187 0.0
H2071 H 0.40214 0.90859 0.86717 0.0
H2072 H 0.34086 0.05802 0.85399 0.0
H2073 H 0.38407 0.03799 0.91456 0.0
H2074 H 0.31623 0.93641 0.85241 0.0
H2075 H 0.34209 0.93386 0.8345 0.0
H2076 H 0.32362 0.98977 0.83419 0.0
H2077 H 0.3684 0.91192 0.92635 0.0
H2078 H 0.39142 0.95841 0.93098 0.0
H2079 H 0.39474 0.91006 0.90913 0.0
C2080 C 0.60942 0.23324 0.87389 0.0
C2081 C 0.63167 0.25574 0.87793 0.0
C2082 C 0.60652 0.18009 0.87404 0.0
C2083 C 0.62632 0.14822 0.87833 0.0
C2084 C 0.6488 0.17062 0.88249 0.0
C2085 C 0.6512 0.22386 0.88222 0.0
C2086 C 0.58221 0.15799 0.86961 0.0
C2087 C 0.67042 0.13828 0.88706 0.0
C2088 C 0.61526 1.0123 0.89902 0.0
C2089 C 0.61781 0.98411 0.87851 0.0
C2090 C 0.61802 0.06547 0.89922 0.0
C2091 C 0.62354 0.09151 0.87842 0.0
C2092 C 0.62633 0.06329 0.85769 0.0
C2093 C 0.62339 1.01016 0.85797 0.0
C2094 C 0.61477 0.09387 0.9217 0.0
C2095 C 0.63238 0.08929 0.83515 0.0
H2096 H 0.59412 0.25726 0.87083 0.0
H2097 H 0.66856 0.24052 0.88499 0.0
H2098 H 0.5828 0.13271 0.85426 0.0
H2099 H 0.5766 0.1345 0.88459 0.0
H2100 H 0.5686 0.18778 0.8666 0.0
H2101 H 0.6866 0.16141 0.89018 0.0
H2102 H 0.66731 0.11372 0.90237 0.0
H2103 H 0.67375 0.11289 0.87208 0.0
H2104 H 0.61061 0.99286 0.91493 0.0
H2105 H 0.62569 0.98888 0.84207 0.0
H2106 H 0.60007 0.12165 0.91996 0.0
H2107 H 0.63109 0.11565 0.92583 0.0
H2108 H 0.61074 0.06813 0.93642 0.0
H2109 H 0.6184 0.11732 0.83074 0.0
H2110 H 0.63414 0.06203 0.82058 0.0
H2111 H 0.6493 0.11048 0.83694 0.0
C2112 C 0.38001 1.00771 0.63306 0.0
C2113 C 0.36088 0.97416 0.63623 0.0
C2114 C 0.3768 0.0606 0.63383 0.0
C2115 C 0.35389 0.08083 0.63795 0.0
C2116 C 0.33443 0.0473 0.64091 0.0
C2117 C 0.33815 0.99447 0.64002 0.0
C2118 C 0.39806 0.09487 0.63067 0.0
C2119 C 0.30971 0.06724 0.6453 0.0
C2120 C 0.34999 0.21377 0.66365 0.0
C2121 C 0.34484 0.24365 0.64415 0.0
C2122 C 0.35284 0.16091 0.66187 0.0
C2123 C 0.35051 0.13698 0.64004 0.0
C2124 C 0.34538 0.16685 0.62024 0.0
C2125 C 0.34265 0.21977 0.62252 0.0
C2126 C 0.35847 0.13068 0.6834 0.0
C2127 C 0.34272 0.14287 0.59666 0.0
H2128 H 0.39772 0.99261 0.63051 0.0
H2129 H 0.32319 0.96903 0.64222 0.0
H2130 H 0.39475 0.1222 0.61642 0.0
H2131 H 0.40103 0.11732 0.64666 0.0
H2132 H 0.41451 0.07329 0.6267 0.0
H2133 H 0.29635 0.03632 0.6465 0.0
H2134 H 0.30941 0.08919 0.66169 0.0
H2135 H 0.30441 0.09352 0.63121 0.0
H2136 H 0.35211 0.23186 0.68038 0.0
H2137 H 0.33844 0.24238 0.6074 0.0
H2138 H 0.37572 0.11087 0.68124 0.0
H2139 H 0.34472 0.10113 0.68617 0.0
H2140 H 0.35944 0.15487 0.69912 0.0
H2141 H 0.35934 0.12289 0.59185 0.0
H2142 H 0.33855 0.17122 0.58301 0.0
H2143 H 0.32835 0.11406 0.59705 0.0
C2144 C 0.6321 0.80571 0.66075 0.0
C2145 C 0.62926 0.7801 0.63957 0.0
C2146 C 0.62939 0.85882 0.66235 0.0
C2147 C 0.62375 0.88746 0.6423 0.0
C2148 C 0.62064 0.86185 0.62094 0.0
C2149 C 0.62335 0.80875 0.61985 0.0
C2150 C 0.63279 0.88439 0.68549 0.0
C2151 C 0.61456 0.89063 0.59912 0.0
C2152 C 0.59617 1.01937 0.64857 0.0
C2153 C 0.61569 0.05165 0.64477 0.0
C2154 C 0.59859 0.96616 0.6481 0.0
C2155 C 0.62108 0.94413 0.6436 0.0
C2156 C 0.64089 0.97636 0.63987 0.0
C2157 C 0.63798 0.02951 0.64052 0.0
C2158 C 0.57697 0.93345 0.65215 0.0
C2159 C 0.66519 0.95466 0.63502 0.0
H2160 H 0.63698 0.78437 0.67606 0.0
H2161 H 0.62069 0.78959 0.60346 0.0
H2162 H 0.64764 0.91196 0.68443 0.0
H2163 H 0.6166 0.90605 0.69019 0.0
H2164 H 0.63668 0.85681 0.69954 0.0
H2165 H 0.61275 0.86526 0.58386 0.0
H2166 H 0.59765 0.91159 0.60151 0.0
H2167 H 0.62855 0.91915 0.5954 0.0
H2168 H 0.57876 0.0357 0.65147 0.0
H2169 H 0.65327 0.05377 0.63785 0.0
H2170 H 0.58023 0.90693 0.66673 0.0
H2171 H 0.57336 0.91007 0.63657 0.0
H2172 H 0.56089 0.95628 0.65612 0.0
H2173 H 0.67069 0.92941 0.64943 0.0
H2174 H 0.67886 0.98467 0.63278 0.0
H2175 H 0.66464 0.93121 0.61908 0.0
loop_
_geom_bond_atom_site_label_1
_geom_bond_atom_site_label_2
_geom_bond_distance
_geom_bond_site_symmetry_2
_ccdc_geom_bond_type
Sm0 C2 2.846 1_545 S
Sm0 O20 2.543 1_545 S
Sm0 O21 2.450 1_545 S
Sm0 O22 2.681 . S
Sm0 O23 2.464 . S
Sm0 O24 2.396 . S
Sm0 O28 2.386 . S
Sm0 O31 2.408 . S
Sm1 C11 2.846 . S
Sm1 O22 2.386 . S
Sm1 O25 2.408 . S
Sm1 O26 2.543 . S
Sm1 O27 2.450 . S
Sm1 O28 2.681 . S
Sm1 O29 2.464 . S
Sm1 O30 2.396 . S
C2 Sm0 2.846 1_565 S
C2 C3 1.506 . S
C2 O20 1.261 . S
C2 O21 1.242 . S
C3 C2 1.506 . S
C3 C4 1.358 . S
C3 C8 1.382 . S
C4 C3 1.358 . S
C4 C5 1.385 . S
C4 H32 0.930 . S
C5 C4 1.385 . S
C5 C6 1.395 . S
C5 H33 0.929 . S
C6 C5 1.395 . S
C6 C7 1.335 . S
C7 C6 1.335 . S
C7 C8 1.398 . S
C7 H34 0.930 . S
C8 C3 1.382 . S
C8 C7 1.398 . S
C8 H35 0.929 . S
C9 O22 1.271 . S
C9 O23 1.251 . S
C10 O24 1.252 . S
C10 O25 1.272 . S
C11 Sm1 2.846 . S
C11 C12 1.506 . S
C11 O26 1.261 . S
C11 O27 1.242 . S
C12 C11 1.506 . S
C12 C13 1.358 . S
C12 C17 1.382 . S
C13 C12 1.358 . S
C13 C14 1.385 . S
C13 H36 0.930 . S
C14 C13 1.385 . S
C14 C15 1.395 . S
C14 H37 0.929 . S
C15 C14 1.395 . S
C15 C16 1.335 . S
C16 C15 1.335 . S
C16 C17 1.398 . S
C16 H38 0.930 . S
C17 C12 1.382 . S
C17 C16 1.398 . S
C17 H39 0.929 . S
C18 O28 1.271 . S
C18 O29 1.251 . S
C19 O30 1.252 . S
C19 O31 1.272 . S
O20 Sm0 2.543 1_565 S
O20 C2 1.261 . S
O21 Sm0 2.450 1_565 S
O21 C2 1.242 . S
O22 Sm0 2.681 . S
O22 Sm1 2.386 . S
O22 C9 1.271 . S
O23 Sm0 2.464 . S
O23 C9 1.251 . S
O24 Sm0 2.396 . S
O24 C10 1.252 . S
O25 Sm1 2.408 . S
O25 C10 1.272 . S
O26 Sm1 2.543 . S
O26 C11 1.261 . S
O27 Sm1 2.450 . S
O27 C11 1.242 . S
O28 Sm0 2.386 . S
O28 Sm1 2.681 . S
O28 C18 1.271 . S
O29 Sm1 2.464 . S
O29 C18 1.251 . S
O30 Sm1 2.396 . S
O30 C19 1.252 . S
O31 Sm0 2.408 . S
O31 C19 1.272 . S
H32 C4 0.930 . S
H33 C5 0.929 . S
H34 C7 0.930 . S
H35 C8 0.929 . S
H36 C13 0.930 . S
H37 C14 0.929 . S
H38 C16 0.930 . S
H39 C17 0.929 . S
Sm40 C42 2.846 1_565 S
Sm40 O60 2.543 1_565 S
Sm40 O61 2.450 1_565 S
Sm40 O62 2.681 . S
Sm40 O63 2.464 . S
Sm40 O64 2.396 . S
Sm40 O68 2.386 . S
Sm40 O71 2.408 . S
Sm41 C51 2.846 . S
Sm41 O62 2.386 . S
Sm41 O65 2.408 . S
Sm41 O66 2.543 . S
Sm41 O67 2.450 . S
Sm41 O68 2.681 . S
Sm41 O69 2.464 . S
Sm41 O70 2.396 . S
C42 Sm40 2.846 1_545 S
C42 C43 1.506 . S
C42 O60 1.261 . S
C42 O61 1.242 . S
C43 C42 1.506 . S
C43 C44 1.358 . S
C43 C48 1.382 . S
C44 C43 1.358 . S
C44 C45 1.385 . S
C44 H72 0.930 . S
C45 C44 1.385 . S
C45 C46 1.395 . S
C45 H73 0.929 . S
C46 C45 1.395 . S
C46 C47 1.335 . S
C47 C46 1.335 . S
C47 C48 1.398 . S
C47 H74 0.930 . S
C48 C43 1.382 . S
C48 C47 1.398 . S
C48 H75 0.929 . S
C49 O62 1.271 . S
C49 O63 1.251 . S
C50 O64 1.252 . S
C50 O65 1.272 . S
C51 Sm41 2.846 . S
C51 C52 1.506 . S
C51 O66 1.261 . S
C51 O67 1.242 . S
C52 C51 1.506 . S
C52 C53 1.358 . S
C52 C57 1.382 . S
C53 C52 1.358 . S
C53 C54 1.385 . S
C53 H76 0.930 . S
C54 C53 1.385 . S
C54 C55 1.395 . S
C54 H77 0.929 . S
C55 C54 1.395 . S
C55 C56 1.335 . S
C56 C55 1.335 . S
C56 C57 1.398 . S
C56 H78 0.930 . S
C57 C52 1.382 . S
C57 C56 1.398 . S
C57 H79 0.929 . S
C58 O68 1.271 . S
C58 O69 1.251 . S
C59 O70 1.252 . S
C59 O71 1.272 . S
O60 Sm40 2.543 1_545 S
O60 C42 1.261 . S
O61 Sm40 2.450 1_545 S
O61 C42 1.242 . S
O62 Sm40 2.681 . S
O62 Sm41 2.386 . S
O62 C49 1.271 . S
O63 Sm40 2.464 . S
O63 C49 1.251 . S
O64 Sm40 2.396 . S
O64 C50 1.252 . S
O65 Sm41 2.408 . S
O65 C50 1.272 . S
O66 Sm41 2.543 . S
O66 C51 1.261 . S
O67 Sm41 2.450 . S
O67 C51 1.242 . S
O68 Sm40 2.386 . S
O68 Sm41 2.681 . S
O68 C58 1.271 . S
O69 Sm41 2.464 . S
O69 C58 1.251 . S
O70 Sm41 2.396 . S
O70 C59 1.252 . S
O71 Sm40 2.408 . S
O71 C59 1.272 . S
H72 C44 0.930 . S
H73 C45 0.929 . S
H74 C47 0.930 . S
H75 C48 0.929 . S
H76 C53 0.930 . S
H77 C54 0.929 . S
H78 C56 0.930 . S
H79 C57 0.929 . S
Sm80 C82 2.846 1_565 S
Sm80 O100 2.543 1_565 S
Sm80 O101 2.450 1_565 S
Sm80 O102 2.681 . S
Sm80 O103 2.464 . S
Sm80 O104 2.396 . S
Sm80 O108 2.386 . S
Sm80 O111 2.408 . S
Sm81 C91 2.846 . S
Sm81 O102 2.386 . S
Sm81 O105 2.408 . S
Sm81 O106 2.543 . S
Sm81 O107 2.450 . S
Sm81 O108 2.681 . S
Sm81 O109 2.464 . S
Sm81 O110 2.396 . S
C82 Sm80 2.846 1_545 S
C82 C83 1.506 . S
C82 O100 1.261 . S
C82 O101 1.242 . S
C83 C82 1.506 . S
C83 C84 1.358 . S
C83 C88 1.382 . S
C84 C83 1.358 . S
C84 C85 1.385 . S
C84 H112 0.930 . S
C85 C84 1.385 . S
C85 C86 1.395 . S
C85 H113 0.929 . S
C86 C85 1.395 . S
C86 C87 1.335 . S
C87 C86 1.335 . S
C87 C88 1.398 . S
C87 H114 0.930 . S
C88 C83 1.382 . S
C88 C87 1.398 . S
C88 H115 0.929 . S
C89 O102 1.271 . S
C89 O103 1.251 . S
C90 O104 1.252 . S
C90 O105 1.272 . S
C91 Sm81 2.846 . S
C91 C92 1.506 . S
C91 O106 1.261 . S
C91 O107 1.242 . S
C92 C91 1.506 . S
C92 C93 1.358 . S
C92 C97 1.382 . S
C93 C92 1.358 . S
C93 C94 1.385 . S
C93 H116 0.930 . S
C94 C93 1.385 . S
C94 C95 1.395 . S
C94 H117 0.929 . S
C95 C94 1.395 . S
C95 C96 1.335 . S
C96 C95 1.335 . S
C96 C97 1.398 . S
C96 H118 0.930 . S
C97 C92 1.382 . S
C97 C96 1.398 . S
C97 H119 0.929 . S
C98 O108 1.271 . S
C98 O109 1.251 . S
C99 O110 1.252 . S
C99 O111 1.272 . S
O100 Sm80 2.543 1_545 S
O100 C82 1.261 . S
O101 Sm80 2.450 1_545 S
O101 C82 1.242 . S
O102 Sm80 2.681 . S
O102 Sm81 2.386 . S
O102 C89 1.271 . S
O103 Sm80 2.464 . S
O103 C89 1.251 . S
O104 Sm80 2.396 . S
O104 C90 1.252 . S
O105 Sm81 2.408 . S
O105 C90 1.272 . S
O106 Sm81 2.543 . S
O106 C91 1.261 . S
O107 Sm81 2.450 . S
O107 C91 1.242 . S
O108 Sm80 2.386 . S
O108 Sm81 2.681 . S
O108 C98 1.271 . S
O109 Sm81 2.464 . S
O109 C98 1.251 . S
O110 Sm81 2.396 . S
O110 C99 1.252 . S
O111 Sm80 2.408 . S
O111 C99 1.272 . S
H112 C84 0.930 . S
H113 C85 0.929 . S
H114 C87 0.930 . S
H115 C88 0.929 . S
H116 C93 0.930 . S
H117 C94 0.929 . S
H118 C96 0.930 . S
H119 C97 0.929 . S
Sm120 C122 2.846 1_545 S
Sm120 O140 2.543 1_545 S
Sm120 O141 2.450 1_545 S
Sm120 O142 2.681 . S
Sm120 O143 2.464 . S
Sm120 O144 2.396 . S
Sm120 O148 2.386 . S
Sm120 O151 2.408 . S
Sm121 C131 2.846 . S
Sm121 O142 2.386 . S
Sm121 O145 2.408 . S
Sm121 O146 2.543 . S
Sm121 O147 2.450 . S
Sm121 O148 2.681 . S
Sm121 O149 2.464 . S
Sm121 O150 2.396 . S
C122 Sm120 2.846 1_565 S
C122 C123 1.506 . S
C122 O140 1.261 . S
C122 O141 1.242 . S
C123 C122 1.506 . S
C123 C124 1.358 . S
C123 C128 1.382 . S
C124 C123 1.358 . S
C124 C125 1.385 . S
C124 H152 0.930 . S
C125 C124 1.385 . S
C125 C126 1.395 . S
C125 H153 0.929 . S
C126 C125 1.395 . S
C126 C127 1.335 . S
C127 C126 1.335 . S
C127 C128 1.398 . S
C127 H154 0.930 . S
C128 C123 1.382 . S
C128 C127 1.398 . S
C128 H155 0.929 . S
C129 O142 1.271 . S
C129 O143 1.251 . S
C130 O144 1.252 . S
C130 O145 1.272 . S
C131 Sm121 2.846 . S
C131 C132 1.506 . S
C131 O146 1.261 . S
C131 O147 1.242 . S
C132 C131 1.506 . S
C132 C133 1.358 . S
C132 C137 1.382 . S
C133 C132 1.358 . S
C133 C134 1.385 . S
C133 H156 0.930 . S
C134 C133 1.385 . S
C134 C135 1.395 . S
C134 H157 0.929 . S
C135 C134 1.395 . S
C135 C136 1.335 . S
C136 C135 1.335 . S
C136 C137 1.398 . S
C136 H158 0.930 . S
C137 C132 1.382 . S
C137 C136 1.398 . S
C137 H159 0.929 . S
C138 O148 1.271 . S
C138 O149 1.251 . S
C139 O150 1.252 . S
C139 O151 1.272 . S
O140 Sm120 2.543 1_565 S
O140 C122 1.261 . S
O141 Sm120 2.450 1_565 S
O141 C122 1.242 . S
O142 Sm120 2.681 . S
O142 Sm121 2.386 . S
O142 C129 1.271 . S
O143 Sm120 2.464 . S
O143 C129 1.251 . S
O144 Sm120 2.396 . S
O144 C130 1.252 . S
O145 Sm121 2.408 . S
O145 C130 1.272 . S
O146 Sm121 2.543 . S
O146 C131 1.261 . S
O147 Sm121 2.450 . S
O147 C131 1.242 . S
O148 Sm120 2.386 . S
O148 Sm121 2.681 . S
O148 C138 1.271 . S
O149 Sm121 2.464 . S
O149 C138 1.251 . S
O150 Sm121 2.396 . S
O150 C139 1.252 . S
O151 Sm120 2.408 . S
O151 C139 1.272 . S
H152 C124 0.930 . S
H153 C125 0.929 . S
H154 C127 0.930 . S
H155 C128 0.929 . S
H156 C133 0.930 . S
H157 C134 0.929 . S
H158 C136 0.930 . S
H159 C137 0.929 . S
Sm160 C162 2.846 . S
Sm160 O180 2.543 . S
Sm160 O181 2.450 . S
Sm160 O182 2.681 . S
Sm160 O183 2.464 . S
Sm160 O184 2.396 . S
Sm160 O188 2.386 . S
Sm160 O191 2.408 . S
Sm161 C171 2.846 1_565 S
Sm161 O182 2.386 . S
Sm161 O185 2.408 . S
Sm161 O186 2.543 1_565 S
Sm161 O187 2.450 1_565 S
Sm161 O188 2.681 . S
Sm161 O189 2.464 . S
Sm161 O190 2.396 . S
C162 Sm160 2.846 . S
C162 C163 1.506 . S
C162 O180 1.261 . S
C162 O181 1.242 . S
C163 C162 1.506 . S
C163 C164 1.358 . S
C163 C168 1.382 . S
C164 C163 1.358 . S
C164 C165 1.385 . S
C164 H192 0.930 . S
C165 C164 1.385 . S
C165 C166 1.395 . S
C165 H193 0.929 . S
C166 C165 1.395 . S
C166 C167 1.335 . S
C167 C166 1.335 . S
C167 C168 1.398 . S
C167 H194 0.930 . S
C168 C163 1.382 . S
C168 C167 1.398 . S
C168 H195 0.929 . S
C169 O182 1.271 . S
C169 O183 1.251 . S
C170 O184 1.252 . S
C170 O185 1.272 . S
C171 Sm161 2.846 1_545 S
C171 C172 1.506 . S
C171 O186 1.261 . S
C171 O187 1.242 . S
C172 C171 1.506 . S
C172 C173 1.358 . S
C172 C177 1.382 . S
C173 C172 1.358 . S
C173 C174 1.385 . S
C173 H196 0.930 . S
C174 C173 1.385 . S
C174 C175 1.395 . S
C174 H197 0.929 . S
C175 C174 1.395 . S
C175 C176 1.335 . S
C176 C175 1.335 . S
C176 C177 1.398 . S
C176 H198 0.930 . S
C177 C172 1.382 . S
C177 C176 1.398 . S
C177 H199 0.929 . S
C178 O188 1.271 . S
C178 O189 1.251 . S
C179 O190 1.252 . S
C179 O191 1.272 . S
O180 Sm160 2.543 . S
O180 C162 1.261 . S
O181 Sm160 2.450 . S
O181 C162 1.242 . S
O182 Sm160 2.681 . S
O182 Sm161 2.386 . S
O182 C169 1.271 . S
O183 Sm160 2.464 . S
O183 C169 1.251 . S
O184 Sm160 2.396 . S
O184 C170 1.252 . S
O185 Sm161 2.408 . S
O185 C170 1.272 . S
O186 Sm161 2.543 1_545 S
O186 C171 1.261 . S
O187 Sm161 2.450 1_545 S
O187 C171 1.242 . S
O188 Sm160 2.386 . S
O188 Sm161 2.681 . S
O188 C178 1.271 . S
O189 Sm161 2.464 . S
O189 C178 1.251 . S
O190 Sm161 2.396 . S
O190 C179 1.252 . S
O191 Sm160 2.408 . S
O191 C179 1.272 . S
H192 C164 0.930 . S
H193 C165 0.929 . S
H194 C167 0.930 . S
H195 C168 0.929 . S
H196 C173 0.930 . S
H197 C174 0.929 . S
H198 C176 0.930 . S
H199 C177 0.929 . S
Sm200 C202 2.846 . S
Sm200 O220 2.543 . S
Sm200 O221 2.450 . S
Sm200 O222 2.681 . S
Sm200 O223 2.464 . S
Sm200 O224 2.396 . S
Sm200 O228 2.386 . S
Sm200 O231 2.408 . S
Sm201 C211 2.846 1_545 S
Sm201 O222 2.386 . S
Sm201 O225 2.408 . S
Sm201 O226 2.543 1_545 S
Sm201 O227 2.450 1_545 S
Sm201 O228 2.681 . S
Sm201 O229 2.464 . S
Sm201 O230 2.396 . S
C202 Sm200 2.846 . S
C202 C203 1.506 . S
C202 O220 1.261 . S
C202 O221 1.242 . S
C203 C202 1.506 . S
C203 C204 1.358 . S
C203 C208 1.382 . S
C204 C203 1.358 . S
C204 C205 1.385 . S
C204 H232 0.930 . S
C205 C204 1.385 . S
C205 C206 1.395 . S
C205 H233 0.929 . S
C206 C205 1.395 . S
C206 C207 1.335 . S
C207 C206 1.335 . S
C207 C208 1.398 . S
C207 H234 0.930 . S
C208 C203 1.382 . S
C208 C207 1.398 . S
C208 H235 0.929 . S
C209 O222 1.271 . S
C209 O223 1.251 . S
C210 O224 1.252 . S
C210 O225 1.272 . S
C211 Sm201 2.846 1_565 S
C211 C212 1.506 . S
C211 O226 1.261 . S
C211 O227 1.242 . S
C212 C211 1.506 . S
C212 C213 1.358 . S
C212 C217 1.382 . S
C213 C212 1.358 . S
C213 C214 1.385 . S
C213 H236 0.930 . S
C214 C213 1.385 . S
C214 C215 1.395 . S
C214 H237 0.929 . S
C215 C214 1.395 . S
C215 C216 1.335 . S
C216 C215 1.335 . S
C216 C217 1.398 . S
C216 H238 0.930 . S
C217 C212 1.382 . S
C217 C216 1.398 . S
C217 H239 0.929 . S
C218 O228 1.271 . S
C218 O229 1.251 . S
C219 O230 1.252 . S
C219 O231 1.272 . S
O220 Sm200 2.543 . S
O220 C202 1.261 . S
O221 Sm200 2.450 . S
O221 C202 1.242 . S
O222 Sm200 2.681 . S
O222 Sm201 2.386 . S
O222 C209 1.271 . S
O223 Sm200 2.464 . S
O223 C209 1.251 . S
O224 Sm200 2.396 . S
O224 C210 1.252 . S
O225 Sm201 2.408 . S
O225 C210 1.272 . S
O226 Sm201 2.543 1_565 S
O226 C211 1.261 . S
O227 Sm201 2.450 1_565 S
O227 C211 1.242 . S
O228 Sm200 2.386 . S
O228 Sm201 2.681 . S
O228 C218 1.271 . S
O229 Sm201 2.464 . S
O229 C218 1.251 . S
O230 Sm201 2.396 . S
O230 C219 1.252 . S
O231 Sm200 2.408 . S
O231 C219 1.272 . S
H232 C204 0.930 . S
H233 C205 0.929 . S
H234 C207 0.930 . S
H235 C208 0.929 . S
H236 C213 0.930 . S
H237 C214 0.929 . S
H238 C216 0.930 . S
H239 C217 0.929 . S
Sm240 C242 2.846 . S
Sm240 O260 2.543 . S
Sm240 O261 2.450 . S
Sm240 O262 2.681 . S
Sm240 O263 2.464 . S
Sm240 O264 2.396 . S
Sm240 O268 2.386 . S
Sm240 O271 2.408 . S
Sm241 C251 2.846 1_545 S
Sm241 O262 2.386 . S
Sm241 O265 2.408 . S
Sm241 O266 2.543 1_545 S
Sm241 O267 2.450 1_545 S
Sm241 O268 2.681 . S
Sm241 O269 2.464 . S
Sm241 O270 2.396 . S
C242 Sm240 2.846 . S
C242 C243 1.506 . S
C242 O260 1.261 . S
C242 O261 1.242 . S
C243 C242 1.506 . S
C243 C244 1.358 . S
C243 C248 1.382 . S
C244 C243 1.358 . S
C244 C245 1.385 . S
C244 H272 0.930 . S
C245 C244 1.385 . S
C245 C246 1.395 . S
C245 H273 0.929 . S
C246 C245 1.395 . S
C246 C247 1.335 . S
C247 C246 1.335 . S
C247 C248 1.398 . S
C247 H274 0.930 . S
C248 C243 1.382 . S
C248 C247 1.398 . S
C248 H275 0.929 . S
C249 O262 1.271 . S
C249 O263 1.251 . S
C250 O264 1.252 . S
C250 O265 1.272 . S
C251 Sm241 2.846 1_565 S
C251 C252 1.506 . S
C251 O266 1.261 . S
C251 O267 1.242 . S
C252 C251 1.506 . S
C252 C253 1.358 . S
C252 C257 1.382 . S
C253 C252 1.358 . S
C253 C254 1.385 . S
C253 H276 0.930 . S
C254 C253 1.385 . S
C254 C255 1.395 . S
C254 H277 0.929 . S
C255 C254 1.395 . S
C255 C256 1.335 . S
C256 C255 1.335 . S
C256 C257 1.398 . S
C256 H278 0.930 . S
C257 C252 1.382 . S
C257 C256 1.398 . S
C257 H279 0.929 . S
C258 O268 1.271 . S
C258 O269 1.251 . S
C259 O270 1.252 . S
C259 O271 1.272 . S
O260 Sm240 2.543 . S
O260 C242 1.261 . S
O261 Sm240 2.450 . S
O261 C242 1.242 . S
O262 Sm240 2.681 . S
O262 Sm241 2.386 . S
O262 C249 1.271 . S
O263 Sm240 2.464 . S
O263 C249 1.251 . S
O264 Sm240 2.396 . S
O264 C250 1.252 . S
O265 Sm241 2.408 . S
O265 C250 1.272 . S
O266 Sm241 2.543 1_565 S
O266 C251 1.261 . S
O267 Sm241 2.450 1_565 S
O267 C251 1.242 . S
O268 Sm240 2.386 . S
O268 Sm241 2.681 . S
O268 C258 1.271 . S
O269 Sm241 2.464 . S
O269 C258 1.251 . S
O270 Sm241 2.396 . S
O270 C259 1.252 . S
O271 Sm240 2.408 . S
O271 C259 1.272 . S
H272 C244 0.930 . S
H273 C245 0.929 . S
H274 C247 0.930 . S
H275 C248 0.929 . S
H276 C253 0.930 . S
H277 C254 0.929 . S
H278 C256 0.930 . S
H279 C257 0.929 . S
Sm280 C282 2.846 . S
Sm280 O300 2.543 . S
Sm280 O301 2.450 . S
Sm280 O302 2.681 . S
Sm280 O303 2.464 . S
Sm280 O304 2.396 . S
Sm280 O308 2.386 . S
Sm280 O311 2.408 . S
Sm281 C291 2.846 1_565 S
Sm281 O302 2.386 . S
Sm281 O305 2.408 . S
Sm281 O306 2.543 1_565 S
Sm281 O307 2.450 1_565 S
Sm281 O308 2.681 . S
Sm281 O309 2.464 . S
Sm281 O310 2.396 . S
C282 Sm280 2.846 . S
C282 C283 1.506 . S
C282 O300 1.261 . S
C282 O301 1.242 . S
C283 C282 1.506 . S
C283 C284 1.358 . S
C283 C288 1.382 . S
C284 C283 1.358 . S
C284 C285 1.385 . S
C284 H312 0.930 . S
C285 C284 1.385 . S
C285 C286 1.395 . S
C285 H313 0.929 . S
C286 C285 1.395 . S
C286 C287 1.335 . S
C287 C286 1.335 . S
C287 C288 1.398 . S
C287 H314 0.930 . S
C288 C283 1.382 . S
C288 C287 1.398 . S
C288 H315 0.929 . S
C289 O302 1.271 . S
C289 O303 1.251 . S
C290 O304 1.252 . S
C290 O305 1.272 . S
C291 Sm281 2.846 1_545 S
C291 C292 1.506 . S
C291 O306 1.261 . S
C291 O307 1.242 . S
C292 C291 1.506 . S
C292 C293 1.358 . S
C292 C297 1.382 . S
C293 C292 1.358 . S
C293 C294 1.385 . S
C293 H316 0.930 . S
C294 C293 1.385 . S
C294 C295 1.395 . S
C294 H317 0.929 . S
C295 C294 1.395 . S
C295 C296 1.335 . S
C296 C295 1.335 . S
C296 C297 1.398 . S
C296 H318 0.930 . S
C297 C292 1.382 . S
C297 C296 1.398 . S
C297 H319 0.929 . S
C298 O308 1.271 . S
C298 O309 1.251 . S
C299 O310 1.252 . S
C299 O311 1.272 . S
O300 Sm280 2.543 . S
O300 C282 1.261 . S
O301 Sm280 2.450 . S
O301 C282 1.242 . S
O302 Sm280 2.681 . S
O302 Sm281 2.386 . S
O302 C289 1.271 . S
O303 Sm280 2.464 . S
O303 C289 1.251 . S
O304 Sm280 2.396 . S
O304 C290 1.252 . S
O305 Sm281 2.408 . S
O305 C290 1.272 . S
O306 Sm281 2.543 1_545 S
O306 C291 1.261 . S
O307 Sm281 2.450 1_545 S
O307 C291 1.242 . S
O308 Sm280 2.386 . S
O308 Sm281 2.681 . S
O308 C298 1.271 . S
O309 Sm281 2.464 . S
O309 C298 1.251 . S
O310 Sm281 2.396 . S
O310 C299 1.252 . S
O311 Sm280 2.408 . S
O311 C299 1.272 . S
H312 C284 0.930 . S
H313 C285 0.929 . S
H314 C287 0.930 . S
H315 C288 0.929 . S
H316 C293 0.930 . S
H317 C294 0.929 . S
H318 C296 0.930 . S
H319 C297 0.929 . S
Sm320 C322 2.846 . S
Sm320 O340 2.543 . S
Sm320 O341 2.450 . S
Sm320 O342 2.681 . S
Sm320 O343 2.464 . S
Sm320 O344 2.396 . S
Sm320 O348 2.386 . S
Sm320 O351 2.408 . S
Sm321 C331 2.846 . S
Sm321 O342 2.386 . S
Sm321 O345 2.408 . S
Sm321 O346 2.543 . S
Sm321 O347 2.450 . S
Sm321 O348 2.681 . S
Sm321 O349 2.464 . S
Sm321 O350 2.396 . S
C322 Sm320 2.846 . S
C322 C323 1.506 . S
C322 O340 1.261 . S
C322 O341 1.242 . S
C323 C322 1.506 . S
C323 C324 1.358 . S
C323 C328 1.382 . S
C324 C323 1.358 . S
C324 C325 1.385 . S
C324 H352 0.930 . S
C325 C324 1.385 . S
C325 C326 1.395 . S
C325 H353 0.929 . S
C326 C325 1.395 . S
C326 C327 1.335 . S
C327 C326 1.335 . S
C327 C328 1.398 . S
C327 H354 0.930 . S
C328 C323 1.382 . S
C328 C327 1.398 . S
C328 H355 0.929 . S
C329 O342 1.271 . S
C329 O343 1.251 . S
C330 O344 1.252 . S
C330 O345 1.272 . S
C331 Sm321 2.846 . S
C331 C332 1.506 . S
C331 O346 1.261 . S
C331 O347 1.242 . S
C332 C331 1.506 . S
C332 C333 1.358 . S
C332 C337 1.382 . S
C333 C332 1.358 . S
C333 C334 1.385 . S
C333 H356 0.930 . S
C334 C333 1.385 . S
C334 C335 1.395 . S
C334 H357 0.929 . S
C335 C334 1.395 . S
C335 C336 1.335 . S
C336 C335 1.335 . S
C336 C337 1.398 . S
C336 H358 0.930 . S
C337 C332 1.382 . S
C337 C336 1.398 . S
C337 H359 0.929 . S
C338 O348 1.271 . S
C338 O349 1.251 . S
C339 O350 1.252 . S
C339 O351 1.272 . S
O340 Sm320 2.543 . S
O340 C322 1.261 . S
O341 Sm320 2.450 . S
O341 C322 1.242 . S
O342 Sm320 2.681 . S
O342 Sm321 2.386 . S
O342 C329 1.271 . S
O343 Sm320 2.464 . S
O343 C329 1.251 . S
O344 Sm320 2.396 . S
O344 C330 1.252 . S
O345 Sm321 2.408 . S
O345 C330 1.272 . S
O346 Sm321 2.543 . S
O346 C331 1.261 . S
O347 Sm321 2.450 . S
O347 C331 1.242 . S
O348 Sm320 2.386 . S
O348 Sm321 2.681 . S
O348 C338 1.271 . S
O349 Sm321 2.464 . S
O349 C338 1.251 . S
O350 Sm321 2.396 . S
O350 C339 1.252 . S
O351 Sm320 2.408 . S
O351 C339 1.272 . S
H352 C324 0.930 . S
H353 C325 0.929 . S
H354 C327 0.930 . S
H355 C328 0.929 . S
H356 C333 0.930 . S
H357 C334 0.929 . S
H358 C336 0.930 . S
H359 C337 0.929 . S
Sm360 C362 2.846 . S
Sm360 O380 2.543 . S
Sm360 O381 2.450 . S
Sm360 O382 2.681 . S
Sm360 O383 2.464 . S
Sm360 O384 2.396 . S
Sm360 O388 2.386 . S
Sm360 O391 2.408 . S
Sm361 C371 2.846 . S
Sm361 O382 2.386 . S
Sm361 O385 2.408 . S
Sm361 O386 2.543 . S
Sm361 O387 2.450 . S
Sm361 O388 2.681 . S
Sm361 O389 2.464 . S
Sm361 O390 2.396 . S
C362 Sm360 2.846 . S
C362 C363 1.506 . S
C362 O380 1.261 . S
C362 O381 1.242 . S
C363 C362 1.506 . S
C363 C364 1.358 . S
C363 C368 1.382 . S
C364 C363 1.358 . S
C364 C365 1.385 . S
C364 H392 0.930 . S
C365 C364 1.385 . S
C365 C366 1.395 . S
C365 H393 0.929 . S
C366 C365 1.395 . S
C366 C367 1.335 . S
C367 C366 1.335 . S
C367 C368 1.398 . S
C367 H394 0.930 . S
C368 C363 1.382 . S
C368 C367 1.398 . S
C368 H395 0.929 . S
C369 O382 1.271 . S
C369 O383 1.251 . S
C370 O384 1.252 . S
C370 O385 1.272 . S
C371 Sm361 2.846 . S
C371 C372 1.506 . S
C371 O386 1.261 . S
C371 O387 1.242 . S
C372 C371 1.506 . S
C372 C373 1.358 . S
C372 C377 1.382 . S
C373 C372 1.358 . S
C373 C374 1.385 . S
C373 H396 0.930 . S
C374 C373 1.385 . S
C374 C375 1.395 . S
C374 H397 0.929 . S
C375 C374 1.395 . S
C375 C376 1.335 . S
C376 C375 1.335 . S
C376 C377 1.398 . S
C376 H398 0.930 . S
C377 C372 1.382 . S
C377 C376 1.398 . S
C377 H399 0.929 . S
C378 O388 1.271 . S
C378 O389 1.251 . S
C379 O390 1.252 . S
C379 O391 1.272 . S
O380 Sm360 2.543 . S
O380 C362 1.261 . S
O381 Sm360 2.450 . S
O381 C362 1.242 . S
O382 Sm360 2.681 . S
O382 Sm361 2.386 . S
O382 C369 1.271 . S
O383 Sm360 2.464 . S
O383 C369 1.251 . S
O384 Sm360 2.396 . S
O384 C370 1.252 . S
O385 Sm361 2.408 . S
O385 C370 1.272 . S
O386 Sm361 2.543 . S
O386 C371 1.261 . S
O387 Sm361 2.450 . S
O387 C371 1.242 . S
O388 Sm360 2.386 . S
O388 Sm361 2.681 . S
O388 C378 1.271 . S
O389 Sm361 2.464 . S
O389 C378 1.251 . S
O390 Sm361 2.396 . S
O390 C379 1.252 . S
O391 Sm360 2.408 . S
O391 C379 1.272 . S
H392 C364 0.930 . S
H393 C365 0.929 . S
H394 C367 0.930 . S
H395 C368 0.929 . S
H396 C373 0.930 . S
H397 C374 0.929 . S
H398 C376 0.930 . S
H399 C377 0.929 . S
Sm400 C402 2.846 . S
Sm400 O420 2.543 . S
Sm400 O421 2.450 . S
Sm400 O422 2.681 . S
Sm400 O423 2.464 . S
Sm400 O424 2.396 . S
Sm400 O428 2.386 . S
Sm400 O431 2.408 . S
Sm401 C411 2.846 . S
Sm401 O422 2.386 . S
Sm401 O425 2.408 . S
Sm401 O426 2.543 . S
Sm401 O427 2.450 . S
Sm401 O428 2.681 . S
Sm401 O429 2.464 . S
Sm401 O430 2.396 . S
C402 Sm400 2.846 . S
C402 C403 1.506 . S
C402 O420 1.261 . S
C402 O421 1.242 . S
C403 C402 1.506 . S
C403 C404 1.358 . S
C403 C408 1.382 . S
C404 C403 1.358 . S
C404 C405 1.385 . S
C404 H432 0.930 . S
C405 C404 1.385 . S
C405 C406 1.395 . S
C405 H433 0.929 . S
C406 C405 1.395 . S
C406 C407 1.335 . S
C407 C406 1.335 . S
C407 C408 1.398 . S
C407 H434 0.930 . S
C408 C403 1.382 . S
C408 C407 1.398 . S
C408 H435 0.929 . S
C409 O422 1.271 . S
C409 O423 1.251 . S
C410 O424 1.252 . S
C410 O425 1.272 . S
C411 Sm401 2.846 . S
C411 C412 1.506 . S
C411 O426 1.261 . S
C411 O427 1.242 . S
C412 C411 1.506 . S
C412 C413 1.358 . S
C412 C417 1.382 . S
C413 C412 1.358 . S
C413 C414 1.385 . S
C413 H436 0.930 . S
C414 C413 1.385 . S
C414 C415 1.395 . S
C414 H437 0.929 . S
C415 C414 1.395 . S
C415 C416 1.335 . S
C416 C415 1.335 . S
C416 C417 1.398 . S
C416 H438 0.930 . S
C417 C412 1.382 . S
C417 C416 1.398 . S
C417 H439 0.929 . S
C418 O428 1.271 . S
C418 O429 1.251 . S
C419 O430 1.252 . S
C419 O431 1.272 . S
O420 Sm400 2.543 . S
O420 C402 1.261 . S
O421 Sm400 2.450 . S
O421 C402 1.242 . S
O422 Sm400 2.681 . S
O422 Sm401 2.386 . S
O422 C409 1.271 . S
O423 Sm400 2.464 . S
O423 C409 1.251 . S
O424 Sm400 2.396 . S
O424 C410 1.252 . S
O425 Sm401 2.408 . S
O425 C410 1.272 . S
O426 Sm401 2.543 . S
O426 C411 1.261 . S
O427 Sm401 2.450 . S
O427 C411 1.242 . S
O428 Sm400 2.386 . S
O428 Sm401 2.681 . S
O428 C418 1.271 . S
O429 Sm401 2.464 . S
O429 C418 1.251 . S
O430 Sm401 2.396 . S
O430 C419 1.252 . S
O431 Sm400 2.408 . S
O431 C419 1.272 . S
H432 C404 0.930 . S
H433 C405 0.929 . S
H434 C407 0.930 . S
H435 C408 0.929 . S
H436 C413 0.930 . S
H437 C414 0.929 . S
H438 C416 0.930 . S
H439 C417 0.929 . S
Sm440 C442 2.846 . S
Sm440 O460 2.543 . S
Sm440 O461 2.450 . S
Sm440 O462 2.681 . S
Sm440 O463 2.464 . S
Sm440 O464 2.396 . S
Sm440 O468 2.386 . S
Sm440 O471 2.408 . S
Sm441 C451 2.846 . S
Sm441 O462 2.386 . S
Sm441 O465 2.408 . S
Sm441 O466 2.543 . S
Sm441 O467 2.450 . S
Sm441 O468 2.681 . S
Sm441 O469 2.464 . S
Sm441 O470 2.396 . S
C442 Sm440 2.846 . S
C442 C443 1.506 . S
C442 O460 1.261 . S
C442 O461 1.242 . S
C443 C442 1.506 . S
C443 C444 1.358 . S
C443 C448 1.382 . S
C444 C443 1.358 . S
C444 C445 1.385 . S
C444 H472 0.930 . S
C445 C444 1.385 . S
C445 C446 1.395 . S
C445 H473 0.929 . S
C446 C445 1.395 . S
C446 C447 1.335 . S
C447 C446 1.335 . S
C447 C448 1.398 . S
C447 H474 0.930 . S
C448 C443 1.382 . S
C448 C447 1.398 . S
C448 H475 0.929 . S
C449 O462 1.271 . S
C449 O463 1.251 . S
C450 O464 1.252 . S
C450 O465 1.272 . S
C451 Sm441 2.846 . S
C451 C452 1.506 . S
C451 O466 1.261 . S
C451 O467 1.242 . S
C452 C451 1.506 . S
C452 C453 1.358 . S
C452 C457 1.382 . S
C453 C452 1.358 . S
C453 C454 1.385 . S
C453 H476 0.930 . S
C454 C453 1.385 . S
C454 C455 1.395 . S
C454 H477 0.929 . S
C455 C454 1.395 . S
C455 C456 1.335 . S
C456 C455 1.335 . S
C456 C457 1.398 . S
C456 H478 0.930 . S
C457 C452 1.382 . S
C457 C456 1.398 . S
C457 H479 0.929 . S
C458 O468 1.271 . S
C458 O469 1.251 . S
C459 O470 1.252 . S
C459 O471 1.272 . S
O460 Sm440 2.543 . S
O460 C442 1.261 . S
O461 Sm440 2.450 . S
O461 C442 1.242 . S
O462 Sm440 2.681 . S
O462 Sm441 2.386 . S
O462 C449 1.271 . S
O463 Sm440 2.464 . S
O463 C449 1.251 . S
O464 Sm440 2.396 . S
O464 C450 1.252 . S
O465 Sm441 2.408 . S
O465 C450 1.272 . S
O466 Sm441 2.543 . S
O466 C451 1.261 . S
O467 Sm441 2.450 . S
O467 C451 1.242 . S
O468 Sm440 2.386 . S
O468 Sm441 2.681 . S
O468 C458 1.271 . S
O469 Sm441 2.464 . S
O469 C458 1.251 . S
O470 Sm441 2.396 . S
O470 C459 1.252 . S
O471 Sm440 2.408 . S
O471 C459 1.272 . S
H472 C444 0.930 . S
H473 C445 0.929 . S
H474 C447 0.930 . S
H475 C448 0.929 . S
H476 C453 0.930 . S
H477 C454 0.929 . S
H478 C456 0.930 . S
H479 C457 0.929 . S
Sm480 C482 2.846 . S
Sm480 O500 2.543 . S
Sm480 O501 2.450 . S
Sm480 O502 2.681 . S
Sm480 O503 2.464 . S
Sm480 O504 2.396 . S
Sm480 O508 2.386 . S
Sm480 O511 2.408 . S
Sm481 C491 2.846 . S
Sm481 O502 2.386 . S
Sm481 O505 2.408 . S
Sm481 O506 2.543 . S
Sm481 O507 2.450 . S
Sm481 O508 2.681 . S
Sm481 O509 2.464 . S
Sm481 O510 2.396 . S
C482 Sm480 2.846 . S
C482 C483 1.506 . S
C482 O500 1.261 . S
C482 O501 1.242 . S
C483 C482 1.506 . S
C483 C484 1.358 . S
C483 C488 1.382 . S
C484 C483 1.358 . S
C484 C485 1.385 . S
C484 H512 0.930 . S
C485 C484 1.385 . S
C485 C486 1.395 . S
C485 H513 0.929 . S
C486 C485 1.395 . S
C486 C487 1.335 . S
C487 C486 1.335 . S
C487 C488 1.398 . S
C487 H514 0.930 . S
C488 C483 1.382 . S
C488 C487 1.398 . S
C488 H515 0.929 . S
C489 O502 1.271 . S
C489 O503 1.251 . S
C490 O504 1.252 . S
C490 O505 1.272 . S
C491 Sm481 2.846 . S
C491 C492 1.506 . S
C491 O506 1.261 . S
C491 O507 1.242 . S
C492 C491 1.506 . S
C492 C493 1.358 . S
C492 C497 1.382 . S
C493 C492 1.358 . S
C493 C494 1.385 . S
C493 H516 0.930 . S
C494 C493 1.385 . S
C494 C495 1.395 . S
C494 H517 0.929 . S
C495 C494 1.395 . S
C495 C496 1.335 . S
C496 C495 1.335 . S
C496 C497 1.398 . S
C496 H518 0.930 . S
C497 C492 1.382 . S
C497 C496 1.398 . S
C497 H519 0.929 . S
C498 O508 1.271 . S
C498 O509 1.251 . S
C499 O510 1.252 . S
C499 O511 1.272 . S
O500 Sm480 2.543 . S
O500 C482 1.261 . S
O501 Sm480 2.450 . S
O501 C482 1.242 . S
O502 Sm480 2.681 . S
O502 Sm481 2.386 . S
O502 C489 1.271 . S
O503 Sm480 2.464 . S
O503 C489 1.251 . S
O504 Sm480 2.396 . S
O504 C490 1.252 . S
O505 Sm481 2.408 . S
O505 C490 1.272 . S
O506 Sm481 2.543 . S
O506 C491 1.261 . S
O507 Sm481 2.450 . S
O507 C491 1.242 . S
O508 Sm480 2.386 . S
O508 Sm481 2.681 . S
O508 C498 1.271 . S
O509 Sm481 2.464 . S
O509 C498 1.251 . S
O510 Sm481 2.396 . S
O510 C499 1.252 . S
O511 Sm480 2.408 . S
O511 C499 1.272 . S
H512 C484 0.930 . S
H513 C485 0.929 . S
H514 C487 0.930 . S
H515 C488 0.929 . S
H516 C493 0.930 . S
H517 C494 0.929 . S
H518 C496 0.930 . S
H519 C497 0.929 . S
Sm520 C522 2.846 . S
Sm520 O540 2.543 . S
Sm520 O541 2.450 . S
Sm520 O542 2.681 . S
Sm520 O543 2.464 . S
Sm520 O544 2.396 . S
Sm520 O548 2.386 . S
Sm520 O551 2.408 . S
Sm521 C531 2.846 . S
Sm521 O542 2.386 . S
Sm521 O545 2.408 . S
Sm521 O546 2.543 . S
Sm521 O547 2.450 . S
Sm521 O548 2.681 . S
Sm521 O549 2.464 . S
Sm521 O550 2.396 . S
C522 Sm520 2.846 . S
C522 C523 1.506 . S
C522 O540 1.261 . S
C522 O541 1.242 . S
C523 C522 1.506 . S
C523 C524 1.358 . S
C523 C528 1.382 . S
C524 C523 1.358 . S
C524 C525 1.385 . S
C524 H552 0.930 . S
C525 C524 1.385 . S
C525 C526 1.395 . S
C525 H553 0.929 . S
C526 C525 1.395 . S
C526 C527 1.335 . S
C527 C526 1.335 . S
C527 C528 1.398 . S
C527 H554 0.930 . S
C528 C523 1.382 . S
C528 C527 1.398 . S
C528 H555 0.929 . S
C529 O542 1.271 . S
C529 O543 1.251 . S
C530 O544 1.252 . S
C530 O545 1.272 . S
C531 Sm521 2.846 . S
C531 C532 1.506 . S
C531 O546 1.261 . S
C531 O547 1.242 . S
C532 C531 1.506 . S
C532 C533 1.358 . S
C532 C537 1.382 . S
C533 C532 1.358 . S
C533 C534 1.385 . S
C533 H556 0.930 . S
C534 C533 1.385 . S
C534 C535 1.395 . S
C534 H557 0.929 . S
C535 C534 1.395 . S
C535 C536 1.335 . S
C536 C535 1.335 . S
C536 C537 1.398 . S
C536 H558 0.930 . S
C537 C532 1.382 . S
C537 C536 1.398 . S
C537 H559 0.929 . S
C538 O548 1.271 . S
C538 O549 1.251 . S
C539 O550 1.252 . S
C539 O551 1.272 . S
O540 Sm520 2.543 . S
O540 C522 1.261 . S
O541 Sm520 2.450 . S
O541 C522 1.242 . S
O542 Sm520 2.681 . S
O542 Sm521 2.386 . S
O542 C529 1.271 . S
O543 Sm520 2.464 . S
O543 C529 1.251 . S
O544 Sm520 2.396 . S
O544 C530 1.252 . S
O545 Sm521 2.408 . S
O545 C530 1.272 . S
O546 Sm521 2.543 . S
O546 C531 1.261 . S
O547 Sm521 2.450 . S
O547 C531 1.242 . S
O548 Sm520 2.386 . S
O548 Sm521 2.681 . S
O548 C538 1.271 . S
O549 Sm521 2.464 . S
O549 C538 1.251 . S
O550 Sm521 2.396 . S
O550 C539 1.252 . S
O551 Sm520 2.408 . S
O551 C539 1.272 . S
H552 C524 0.930 . S
H553 C525 0.929 . S
H554 C527 0.930 . S
H555 C528 0.929 . S
H556 C533 0.930 . S
H557 C534 0.929 . S
H558 C536 0.930 . S
H559 C537 0.929 . S
Sm560 C562 2.846 . S
Sm560 O580 2.543 . S
Sm560 O581 2.450 . S
Sm560 O582 2.681 . S
Sm560 O583 2.464 . S
Sm560 O584 2.396 . S
Sm560 O588 2.386 . S
Sm560 O591 2.408 . S
Sm561 C571 2.846 . S
Sm561 O582 2.386 . S
Sm561 O585 2.408 . S
Sm561 O586 2.543 . S
Sm561 O587 2.450 . S
Sm561 O588 2.681 . S
Sm561 O589 2.464 . S
Sm561 O590 2.396 . S
C562 Sm560 2.846 . S
C562 C563 1.506 . S
C562 O580 1.261 . S
C562 O581 1.242 . S
C563 C562 1.506 . S
C563 C564 1.358 . S
C563 C568 1.382 . S
C564 C563 1.358 . S
C564 C565 1.385 . S
C564 H592 0.930 . S
C565 C564 1.385 . S
C565 C566 1.395 . S
C565 H593 0.929 . S
C566 C565 1.395 . S
C566 C567 1.335 . S
C567 C566 1.335 . S
C567 C568 1.398 . S
C567 H594 0.930 . S
C568 C563 1.382 . S
C568 C567 1.398 . S
C568 H595 0.929 . S
C569 O582 1.271 . S
C569 O583 1.251 . S
C570 O584 1.252 . S
C570 O585 1.272 . S
C571 Sm561 2.846 . S
C571 C572 1.506 . S
C571 O586 1.261 . S
C571 O587 1.242 . S
C572 C571 1.506 . S
C572 C573 1.358 . S
C572 C577 1.382 . S
C573 C572 1.358 . S
C573 C574 1.385 . S
C573 H596 0.930 . S
C574 C573 1.385 . S
C574 C575 1.395 . S
C574 H597 0.929 . S
C575 C574 1.395 . S
C575 C576 1.335 . S
C576 C575 1.335 . S
C576 C577 1.398 . S
C576 H598 0.930 . S
C577 C572 1.382 . S
C577 C576 1.398 . S
C577 H599 0.929 . S
C578 O588 1.271 . S
C578 O589 1.251 . S
C579 O590 1.252 . S
C579 O591 1.272 . S
O580 Sm560 2.543 . S
O580 C562 1.261 . S
O581 Sm560 2.450 . S
O581 C562 1.242 . S
O582 Sm560 2.681 . S
O582 Sm561 2.386 . S
O582 C569 1.271 . S
O583 Sm560 2.464 . S
O583 C569 1.251 . S
O584 Sm560 2.396 . S
O584 C570 1.252 . S
O585 Sm561 2.408 . S
O585 C570 1.272 . S
O586 Sm561 2.543 . S
O586 C571 1.261 . S
O587 Sm561 2.450 . S
O587 C571 1.242 . S
O588 Sm560 2.386 . S
O588 Sm561 2.681 . S
O588 C578 1.271 . S
O589 Sm561 2.464 . S
O589 C578 1.251 . S
O590 Sm561 2.396 . S
O590 C579 1.252 . S
O591 Sm560 2.408 . S
O591 C579 1.272 . S
H592 C564 0.930 . S
H593 C565 0.929 . S
H594 C567 0.930 . S
H595 C568 0.929 . S
H596 C573 0.930 . S
H597 C574 0.929 . S
H598 C576 0.930 . S
H599 C577 0.929 . S
Sm600 C602 2.846 . S
Sm600 O620 2.543 . S
Sm600 O621 2.450 . S
Sm600 O622 2.681 . S
Sm600 O623 2.464 . S
Sm600 O624 2.396 . S
Sm600 O628 2.386 . S
Sm600 O631 2.408 . S
Sm601 C611 2.846 . S
Sm601 O622 2.386 . S
Sm601 O625 2.408 . S
Sm601 O626 2.543 . S
Sm601 O627 2.450 . S
Sm601 O628 2.681 . S
Sm601 O629 2.464 . S
Sm601 O630 2.396 . S
C602 Sm600 2.846 . S
C602 C603 1.506 . S
C602 O620 1.261 . S
C602 O621 1.242 . S
C603 C602 1.506 . S
C603 C604 1.358 . S
C603 C608 1.382 . S
C604 C603 1.358 . S
C604 C605 1.385 . S
C604 H632 0.930 . S
C605 C604 1.385 . S
C605 C606 1.395 . S
C605 H633 0.929 . S
C606 C605 1.395 . S
C606 C607 1.335 . S
C607 C606 1.335 . S
C607 C608 1.398 . S
C607 H634 0.930 . S
C608 C603 1.382 . S
C608 C607 1.398 . S
C608 H635 0.929 . S
C609 O622 1.271 . S
C609 O623 1.251 . S
C610 O624 1.252 . S
C610 O625 1.272 . S
C611 Sm601 2.846 . S
C611 C612 1.506 . S
C611 O626 1.261 . S
C611 O627 1.242 . S
C612 C611 1.506 . S
C612 C613 1.358 . S
C612 C617 1.382 . S
C613 C612 1.358 . S
C613 C614 1.385 . S
C613 H636 0.930 . S
C614 C613 1.385 . S
C614 C615 1.395 . S
C614 H637 0.929 . S
C615 C614 1.395 . S
C615 C616 1.335 . S
C616 C615 1.335 . S
C616 C617 1.398 . S
C616 H638 0.930 . S
C617 C612 1.382 . S
C617 C616 1.398 . S
C617 H639 0.929 . S
C618 O628 1.271 . S
C618 O629 1.251 . S
C619 O630 1.252 . S
C619 O631 1.272 . S
O620 Sm600 2.543 . S
O620 C602 1.261 . S
O621 Sm600 2.450 . S
O621 C602 1.242 . S
O622 Sm600 2.681 . S
O622 Sm601 2.386 . S
O622 C609 1.271 . S
O623 Sm600 2.464 . S
O623 C609 1.251 . S
O624 Sm600 2.396 . S
O624 C610 1.252 . S
O625 Sm601 2.408 . S
O625 C610 1.272 . S
O626 Sm601 2.543 . S
O626 C611 1.261 . S
O627 Sm601 2.450 . S
O627 C611 1.242 . S
O628 Sm600 2.386 . S
O628 Sm601 2.681 . S
O628 C618 1.271 . S
O629 Sm601 2.464 . S
O629 C618 1.251 . S
O630 Sm601 2.396 . S
O630 C619 1.252 . S
O631 Sm600 2.408 . S
O631 C619 1.272 . S
H632 C604 0.930 . S
H633 C605 0.929 . S
H634 C607 0.930 . S
H635 C608 0.929 . S
H636 C613 0.930 . S
H637 C614 0.929 . S
H638 C616 0.930 . S
H639 C617 0.929 . S
C640 C641 1.391 . S
C640 C642 1.394 . S
C640 H656 0.931 . S
C641 C640 1.391 . S
C641 C645 1.376 . S
C642 C640 1.394 . S
C642 C643 1.369 . S
C642 C646 1.531 . S
C643 C642 1.369 . S
C643 C644 1.410 . S
C643 C651 1.503 . S
C644 C643 1.410 . S
C644 C645 1.392 . S
C644 C647 1.511 . S
C645 C641 1.376 . S
C645 C644 1.392 . S
C645 H657 0.929 . S
C646 C642 1.531 . S
C646 H658 0.960 . S
C646 H659 0.962 . S
C646 H660 0.960 . S
C647 C644 1.511 . S
C647 H661 0.961 . S
C647 H662 0.961 . S
C647 H663 0.961 . S
C648 C649 1.370 . S
C648 C650 1.363 . S
C648 H664 0.931 . S
C649 C648 1.370 . S
C649 C653 1.408 . S
C650 C648 1.363 . S
C650 C651 1.370 . S
C650 C654 1.524 . S
C651 C643 1.503 . S
C651 C650 1.370 . S
C651 C652 1.403 . S
C652 C651 1.403 . S
C652 C653 1.404 . S
C652 C655 1.539 . S
C653 C649 1.408 . S
C653 C652 1.404 . S
C653 H665 0.930 . S
C654 C650 1.524 . S
C654 H666 0.956 . S
C654 H667 0.961 . S
C654 H668 0.961 . S
C655 C652 1.539 . S
C655 H669 0.958 . S
C655 H670 0.961 . S
C655 H671 0.960 . S
H656 C640 0.931 . S
H657 C645 0.929 . S
H658 C646 0.960 . S
H659 C646 0.962 . S
H660 C646 0.960 . S
H661 C647 0.961 . S
H662 C647 0.961 . S
H663 C647 0.961 . S
H664 C648 0.931 . S
H665 C653 0.930 . S
H666 C654 0.956 . S
H667 C654 0.961 . S
H668 C654 0.961 . S
H669 C655 0.958 . S
H670 C655 0.961 . S
H671 C655 0.960 . S
C672 C673 1.391 . S
C672 C674 1.394 . S
C672 H688 0.931 . S
C673 C672 1.391 . S
C673 C677 1.376 . S
C674 C672 1.394 . S
C674 C675 1.369 . S
C674 C678 1.531 . S
C675 C674 1.369 . S
C675 C676 1.410 . S
C675 C683 1.503 . S
C676 C675 1.410 . S
C676 C677 1.392 . S
C676 C679 1.511 . S
C677 C673 1.376 . S
C677 C676 1.392 . S
C677 H689 0.929 . S
C678 C674 1.531 . S
C678 H690 0.960 . S
C678 H691 0.962 . S
C678 H692 0.960 . S
C679 C676 1.511 . S
C679 H693 0.961 . S
C679 H694 0.961 . S
C679 H695 0.961 . S
C680 C681 1.370 . S
C680 C682 1.363 . S
C680 H696 0.931 . S
C681 C680 1.370 . S
C681 C685 1.408 . S
C682 C680 1.363 . S
C682 C683 1.370 . S
C682 C686 1.524 . S
C683 C675 1.503 . S
C683 C682 1.370 . S
C683 C684 1.403 . S
C684 C683 1.403 . S
C684 C685 1.404 . S
C684 C687 1.539 . S
C685 C681 1.408 . S
C685 C684 1.404 . S
C685 H697 0.930 . S
C686 C682 1.524 . S
C686 H698 0.956 . S
C686 H699 0.961 . S
C686 H700 0.961 . S
C687 C684 1.539 . S
C687 H701 0.958 . S
C687 H702 0.961 . S
C687 H703 0.960 . S
H688 C672 0.931 . S
H689 C677 0.929 . S
H690 C678 0.960 . S
H691 C678 0.962 . S
H692 C678 0.960 . S
H693 C679 0.961 . S
H694 C679 0.961 . S
H695 C679 0.961 . S
H696 C680 0.931 . S
H697 C685 0.930 . S
H698 C686 0.956 . S
H699 C686 0.961 . S
H700 C686 0.961 . S
H701 C687 0.958 . S
H702 C687 0.961 . S
H703 C687 0.960 . S
C704 C705 1.391 . S
C704 C706 1.394 . S
C704 H720 0.931 . S
C705 C704 1.391 . S
C705 C709 1.376 . S
C706 C704 1.394 . S
C706 C707 1.369 . S
C706 C710 1.531 . S
C707 C706 1.369 . S
C707 C708 1.410 . S
C707 C715 1.503 . S
C708 C707 1.410 . S
C708 C709 1.392 . S
C708 C711 1.511 . S
C709 C705 1.376 . S
C709 C708 1.392 . S
C709 H721 0.929 . S
C710 C706 1.531 . S
C710 H722 0.960 . S
C710 H723 0.962 . S
C710 H724 0.960 . S
C711 C708 1.511 . S
C711 H725 0.961 . S
C711 H726 0.961 . S
C711 H727 0.961 . S
C712 C713 1.370 . S
C712 C714 1.363 . S
C712 H728 0.931 . S
C713 C712 1.370 . S
C713 C717 1.408 . S
C714 C712 1.363 . S
C714 C715 1.370 . S
C714 C718 1.524 . S
C715 C707 1.503 . S
C715 C714 1.370 . S
C715 C716 1.403 . S
C716 C715 1.403 . S
C716 C717 1.404 . S
C716 C719 1.539 . S
C717 C713 1.408 . S
C717 C716 1.404 . S
C717 H729 0.930 . S
C718 C714 1.524 . S
C718 H730 0.956 . S
C718 H731 0.961 . S
C718 H732 0.961 . S
C719 C716 1.539 . S
C719 H733 0.958 . S
C719 H734 0.961 . S
C719 H735 0.960 . S
H720 C704 0.931 . S
H721 C709 0.929 . S
H722 C710 0.960 . S
H723 C710 0.962 . S
H724 C710 0.960 . S
H725 C711 0.961 . S
H726 C711 0.961 . S
H727 C711 0.961 . S
H728 C712 0.931 . S
H729 C717 0.930 . S
H730 C718 0.956 . S
H731 C718 0.961 . S
H732 C718 0.961 . S
H733 C719 0.958 . S
H734 C719 0.961 . S
H735 C719 0.960 . S
C736 C737 1.391 . S
C736 C738 1.394 . S
C736 H752 0.931 . S
C737 C736 1.391 . S
C737 C741 1.376 . S
C738 C736 1.394 . S
C738 C739 1.369 . S
C738 C742 1.531 . S
C739 C738 1.369 . S
C739 C740 1.410 . S
C739 C747 1.503 . S
C740 C739 1.410 . S
C740 C741 1.392 . S
C740 C743 1.511 . S
C741 C737 1.376 . S
C741 C740 1.392 . S
C741 H753 0.929 . S
C742 C738 1.531 . S
C742 H754 0.960 . S
C742 H755 0.962 . S
C742 H756 0.960 . S
C743 C740 1.511 . S
C743 H757 0.961 . S
C743 H758 0.961 . S
C743 H759 0.961 . S
C744 C745 1.370 . S
C744 C746 1.363 . S
C744 H760 0.931 . S
C745 C744 1.370 . S
C745 C749 1.408 . S
C746 C744 1.363 . S
C746 C747 1.370 . S
C746 C750 1.524 . S
C747 C739 1.503 . S
C747 C746 1.370 . S
C747 C748 1.403 . S
C748 C747 1.403 . S
C748 C749 1.404 . S
C748 C751 1.539 . S
C749 C745 1.408 . S
C749 C748 1.404 . S
C749 H761 0.930 . S
C750 C746 1.524 . S
C750 H762 0.956 . S
C750 H763 0.961 . S
C750 H764 0.961 . S
C751 C748 1.539 . S
C751 H765 0.958 . S
C751 H766 0.961 . S
C751 H767 0.960 . S
H752 C736 0.931 . S
H753 C741 0.929 . S
H754 C742 0.960 . S
H755 C742 0.962 . S
H756 C742 0.960 . S
H757 C743 0.961 . S
H758 C743 0.961 . S
H759 C743 0.961 . S
H760 C744 0.931 . S
H761 C749 0.930 . S
H762 C750 0.956 . S
H763 C750 0.961 . S
H764 C750 0.961 . S
H765 C751 0.958 . S
H766 C751 0.961 . S
H767 C751 0.960 . S
C768 C769 1.391 . S
C768 C770 1.394 . S
C768 H784 0.931 . S
C769 C768 1.391 . S
C769 C773 1.376 . S
C770 C768 1.394 . S
C770 C771 1.369 . S
C770 C774 1.531 . S
C771 C770 1.369 . S
C771 C772 1.410 . S
C771 C779 1.503 . S
C772 C771 1.410 . S
C772 C773 1.392 . S
C772 C775 1.511 . S
C773 C769 1.376 . S
C773 C772 1.392 . S
C773 H785 0.929 . S
C774 C770 1.531 . S
C774 H786 0.960 . S
C774 H787 0.962 . S
C774 H788 0.960 . S
C775 C772 1.511 . S
C775 H789 0.961 . S
C775 H790 0.961 . S
C775 H791 0.961 . S
C776 C777 1.370 . S
C776 C778 1.363 . S
C776 H792 0.931 . S
C777 C776 1.370 . S
C777 C781 1.408 . S
C778 C776 1.363 . S
C778 C779 1.370 . S
C778 C782 1.524 . S
C779 C771 1.503 . S
C779 C778 1.370 . S
C779 C780 1.403 . S
C780 C779 1.403 . S
C780 C781 1.404 . S
C780 C783 1.539 . S
C781 C777 1.408 . S
C781 C780 1.404 . S
C781 H793 0.930 . S
C782 C778 1.524 . S
C782 H794 0.956 . S
C782 H795 0.961 . S
C782 H796 0.961 . S
C783 C780 1.539 . S
C783 H797 0.958 . S
C783 H798 0.961 . S
C783 H799 0.960 . S
H784 C768 0.931 . S
H785 C773 0.929 . S
H786 C774 0.960 . S
H787 C774 0.962 . S
H788 C774 0.960 . S
H789 C775 0.961 . S
H790 C775 0.961 . S
H791 C775 0.961 . S
H792 C776 0.931 . S
H793 C781 0.930 . S
H794 C782 0.956 . S
H795 C782 0.961 . S
H796 C782 0.961 . S
H797 C783 0.958 . S
H798 C783 0.961 . S
H799 C783 0.960 . S
C800 C801 1.391 . S
C800 C802 1.394 . S
C800 H816 0.931 . S
C801 C800 1.391 . S
C801 C805 1.376 . S
C802 C800 1.394 . S
C802 C803 1.369 . S
C802 C806 1.531 . S
C803 C802 1.369 . S
C803 C804 1.410 . S
C803 C811 1.503 . S
C804 C803 1.410 . S
C804 C805 1.392 . S
C804 C807 1.511 . S
C805 C801 1.376 . S
C805 C804 1.392 . S
C805 H817 0.929 . S
C806 C802 1.531 . S
C806 H818 0.960 . S
C806 H819 0.962 . S
C806 H820 0.960 . S
C807 C804 1.511 . S
C807 H821 0.961 . S
C807 H822 0.961 . S
C807 H823 0.961 . S
C808 C809 1.370 . S
C808 C810 1.363 . S
C808 H824 0.931 . S
C809 C808 1.370 . S
C809 C813 1.408 . S
C810 C808 1.363 . S
C810 C811 1.370 . S
C810 C814 1.524 . S
C811 C803 1.503 . S
C811 C810 1.370 . S
C811 C812 1.403 . S
C812 C811 1.403 . S
C812 C813 1.404 . S
C812 C815 1.539 . S
C813 C809 1.408 . S
C813 C812 1.404 . S
C813 H825 0.930 . S
C814 C810 1.524 . S
C814 H826 0.956 . S
C814 H827 0.961 . S
C814 H828 0.961 . S
C815 C812 1.539 . S
C815 H829 0.958 . S
C815 H830 0.961 . S
C815 H831 0.960 . S
H816 C800 0.931 . S
H817 C805 0.929 . S
H818 C806 0.960 . S
H819 C806 0.962 . S
H820 C806 0.960 . S
H821 C807 0.961 . S
H822 C807 0.961 . S
H823 C807 0.961 . S
H824 C808 0.931 . S
H825 C813 0.930 . S
H826 C814 0.956 . S
H827 C814 0.961 . S
H828 C814 0.961 . S
H829 C815 0.958 . S
H830 C815 0.961 . S
H831 C815 0.960 . S
C832 C833 1.391 . S
C832 C834 1.394 . S
C832 H848 0.931 . S
C833 C832 1.391 . S
C833 C837 1.376 . S
C834 C832 1.394 . S
C834 C835 1.369 . S
C834 C838 1.531 . S
C835 C834 1.369 . S
C835 C836 1.410 . S
C835 C843 1.503 . S
C836 C835 1.410 . S
C836 C837 1.392 . S
C836 C839 1.511 . S
C837 C833 1.376 . S
C837 C836 1.392 . S
C837 H849 0.929 . S
C838 C834 1.531 . S
C838 H850 0.960 . S
C838 H851 0.962 . S
C838 H852 0.960 . S
C839 C836 1.511 . S
C839 H853 0.961 . S
C839 H854 0.961 . S
C839 H855 0.961 . S
C840 C841 1.370 . S
C840 C842 1.363 . S
C840 H856 0.931 . S
C841 C840 1.370 . S
C841 C845 1.408 . S
C842 C840 1.363 . S
C842 C843 1.370 . S
C842 C846 1.524 . S
C843 C835 1.503 . S
C843 C842 1.370 . S
C843 C844 1.403 . S
C844 C843 1.403 . S
C844 C845 1.404 . S
C844 C847 1.539 . S
C845 C841 1.408 . S
C845 C844 1.404 . S
C845 H857 0.930 . S
C846 C842 1.524 . S
C846 H858 0.956 . S
C846 H859 0.961 . S
C846 H860 0.961 . S
C847 C844 1.539 . S
C847 H861 0.958 . S
C847 H862 0.961 . S
C847 H863 0.960 . S
H848 C832 0.931 . S
H849 C837 0.929 . S
H850 C838 0.960 . S
H851 C838 0.962 . S
H852 C838 0.960 . S
H853 C839 0.961 . S
H854 C839 0.961 . S
H855 C839 0.961 . S
H856 C840 0.931 . S
H857 C845 0.930 . S
H858 C846 0.956 . S
H859 C846 0.961 . S
H860 C846 0.961 . S
H861 C847 0.958 . S
H862 C847 0.961 . S
H863 C847 0.960 . S
C864 C865 1.391 . S
C864 C866 1.394 . S
C864 H880 0.931 . S
C865 C864 1.391 . S
C865 C869 1.376 . S
C866 C864 1.394 . S
C866 C867 1.369 . S
C866 C870 1.531 . S
C867 C866 1.369 . S
C867 C868 1.410 . S
C867 C875 1.503 . S
C868 C867 1.410 . S
C868 C869 1.392 . S
C868 C871 1.511 . S
C869 C865 1.376 . S
C869 C868 1.392 . S
C869 H881 0.929 . S
C870 C866 1.531 . S
C870 H882 0.960 . S
C870 H883 0.962 . S
C870 H884 0.960 . S
C871 C868 1.511 . S
C871 H885 0.961 . S
C871 H886 0.961 . S
C871 H887 0.961 . S
C872 C873 1.370 . S
C872 C874 1.363 . S
C872 H888 0.931 . S
C873 C872 1.370 . S
C873 C877 1.408 . S
C874 C872 1.363 . S
C874 C875 1.370 . S
C874 C878 1.524 . S
C875 C867 1.503 . S
C875 C874 1.370 . S
C875 C876 1.403 . S
C876 C875 1.403 . S
C876 C877 1.404 . S
C876 C879 1.539 . S
C877 C873 1.408 . S
C877 C876 1.404 . S
C877 H889 0.930 . S
C878 C874 1.524 . S
C878 H890 0.956 . S
C878 H891 0.961 . S
C878 H892 0.961 . S
C879 C876 1.539 . S
C879 H893 0.958 . S
C879 H894 0.961 . S
C879 H895 0.960 . S
H880 C864 0.931 . S
H881 C869 0.929 . S
H882 C870 0.960 . S
H883 C870 0.962 . S
H884 C870 0.960 . S
H885 C871 0.961 . S
H886 C871 0.961 . S
H887 C871 0.961 . S
H888 C872 0.931 . S
H889 C877 0.930 . S
H890 C878 0.956 . S
H891 C878 0.961 . S
H892 C878 0.961 . S
H893 C879 0.958 . S
H894 C879 0.961 . S
H895 C879 0.960 . S
C896 C897 1.391 . S
C896 C898 1.394 1_565 S
C896 H912 0.931 . S
C897 C896 1.391 . S
C897 C901 1.376 . S
C898 C896 1.394 1_545 S
C898 C899 1.369 1_545 S
C898 C902 1.531 . S
C899 C898 1.369 1_565 S
C899 C900 1.410 . S
C899 C907 1.503 1_565 S
C900 C899 1.410 . S
C900 C901 1.392 . S
C900 C903 1.511 . S
C901 C897 1.376 . S
C901 C900 1.392 . S
C901 H913 0.929 . S
C902 C898 1.531 . S
C902 H914 0.960 . S
C902 H915 0.962 . S
C902 H916 0.960 . S
C903 C900 1.511 . S
C903 H917 0.961 . S
C903 H918 0.961 . S
C903 H919 0.961 . S
C904 C905 1.370 . S
C904 C906 1.363 1_545 S
C904 H920 0.942 . S
C905 C904 1.370 . S
C905 C909 1.408 . S
C906 C904 1.363 1_565 S
C906 C907 1.370 1_565 S
C906 C910 1.524 . S
C907 C899 1.503 1_545 S
C907 C906 1.370 1_545 S
C907 C908 1.403 . S
C908 C907 1.403 . S
C908 C909 1.404 . S
C908 C911 1.539 . S
C909 C905 1.408 . S
C909 C908 1.404 . S
C909 H921 0.930 . S
C910 C906 1.524 . S
C910 H922 0.956 . S
C910 H923 0.961 . S
C910 H924 0.961 . S
C911 C908 1.539 . S
C911 H925 0.958 . S
C911 H926 0.961 . S
C911 H927 0.960 . S
H912 C896 0.931 . S
H913 C901 0.929 . S
H914 C902 0.960 . S
H915 C902 0.962 . S
H916 C902 0.960 . S
H917 C903 0.961 . S
H918 C903 0.961 . S
H919 C903 0.961 . S
H920 C904 0.942 . S
H921 C909 0.930 . S
H922 C910 0.956 . S
H923 C910 0.961 . S
H924 C910 0.961 . S
H925 C911 0.958 . S
H926 C911 0.961 . S
H927 C911 0.960 . S
C928 C929 1.391 . S
C928 C930 1.394 1_545 S
C928 H944 0.931 1_545 S
C929 C928 1.391 . S
C929 C933 1.376 . S
C930 C928 1.394 1_565 S
C930 C931 1.369 1_565 S
C930 C934 1.531 . S
C931 C930 1.369 1_545 S
C931 C932 1.410 . S
C931 C939 1.503 1_545 S
C932 C931 1.410 . S
C932 C933 1.392 . S
C932 C935 1.511 . S
C933 C929 1.376 . S
C933 C932 1.392 . S
C933 H945 0.929 . S
C934 C930 1.531 . S
C934 H946 0.960 . S
C934 H947 0.962 . S
C934 H948 0.960 . S
C935 C932 1.511 . S
C935 H949 0.961 . S
C935 H950 0.961 . S
C935 H951 0.961 . S
C936 C937 1.370 . S
C936 C938 1.363 . S
C936 H952 0.931 . S
C937 C936 1.370 . S
C937 C941 1.408 . S
C938 C936 1.363 . S
C938 C939 1.370 . S
C938 C942 1.524 1_565 S
C939 C931 1.503 1_565 S
C939 C938 1.370 . S
C939 C940 1.403 . S
C940 C939 1.403 . S
C940 C941 1.404 . S
C940 C943 1.539 . S
C941 C937 1.408 . S
C941 C940 1.404 . S
C941 H953 0.930 . S
C942 C938 1.524 1_545 S
C942 H954 0.956 . S
C942 H955 0.961 . S
C942 H956 0.961 . S
C943 C940 1.539 . S
C943 H957 0.958 . S
C943 H958 0.961 . S
C943 H959 0.960 . S
H944 C928 0.931 1_565 S
H945 C933 0.929 . S
H946 C934 0.960 . S
H947 C934 0.962 . S
H948 C934 0.960 . S
H949 C935 0.961 . S
H950 C935 0.961 . S
H951 C935 0.961 . S
H952 C936 0.931 . S
H953 C941 0.930 . S
H954 C942 0.956 . S
H955 C942 0.961 . S
H956 C942 0.961 . S
H957 C943 0.958 . S
H958 C943 0.961 . S
H959 C943 0.960 . S
C960 C961 1.391 . S
C960 C962 1.394 1_545 S
C960 H976 0.931 . S
C961 C960 1.391 . S
C961 C965 1.376 . S
C962 C960 1.394 1_565 S
C962 C963 1.369 1_565 S
C962 C966 1.531 . S
C963 C962 1.369 1_545 S
C963 C964 1.410 . S
C963 C971 1.503 1_545 S
C964 C963 1.410 . S
C964 C965 1.392 . S
C964 C967 1.511 . S
C965 C961 1.376 . S
C965 C964 1.392 . S
C965 H977 0.929 . S
C966 C962 1.531 . S
C966 H978 0.960 . S
C966 H979 0.962 . S
C966 H980 0.960 . S
C967 C964 1.511 . S
C967 H981 0.961 . S
C967 H982 0.961 . S
C967 H983 0.961 . S
C968 C969 1.370 . S
C968 C970 1.363 . S
C968 H984 0.931 . S
C969 C968 1.370 . S
C969 C973 1.408 . S
C970 C968 1.363 . S
C970 C971 1.370 . S
C970 C974 1.524 1_565 S
C971 C963 1.503 1_565 S
C971 C970 1.370 . S
C971 C972 1.403 . S
C972 C971 1.403 . S
C972 C973 1.404 . S
C972 C975 1.539 . S
C973 C969 1.408 . S
C973 C972 1.404 . S
C973 H985 0.930 . S
C974 C970 1.524 1_545 S
C974 H986 0.956 . S
C974 H987 0.961 . S
C974 H988 0.961 . S
C975 C972 1.539 . S
C975 H989 0.958 . S
C975 H990 0.961 . S
C975 H991 0.960 . S
H976 C960 0.931 . S
H977 C965 0.929 . S
H978 C966 0.960 . S
H979 C966 0.962 . S
H980 C966 0.960 . S
H981 C967 0.961 . S
H982 C967 0.961 . S
H983 C967 0.961 . S
H984 C968 0.931 . S
H985 C973 0.930 . S
H986 C974 0.956 . S
H987 C974 0.961 . S
H988 C974 0.961 . S
H989 C975 0.958 . S
H990 C975 0.961 . S
H991 C975 0.960 . S
C992 C993 1.391 . S
C992 C994 1.394 1_545 S
C992 H1008 0.931 . S
C993 C992 1.391 . S
C993 C997 1.376 . S
C994 C992 1.394 1_565 S
C994 C995 1.369 1_565 S
C994 C998 1.531 . S
C995 C994 1.369 1_545 S
C995 C996 1.410 . S
C995 C1003 1.503 1_545 S
C996 C995 1.410 . S
C996 C997 1.392 . S
C996 C999 1.511 . S
C997 C993 1.376 . S
C997 C996 1.392 . S
C997 H1009 0.929 . S
C998 C994 1.531 . S
C998 H1010 0.960 . S
C998 H1011 0.962 . S
C998 H1012 0.960 . S
C999 C996 1.511 . S
C999 H1013 0.961 . S
C999 H1014 0.961 . S
C999 H1015 0.961 . S
C1000 C1001 1.370 . S
C1000 C1002 1.363 . S
C1000 H1016 0.931 . S
C1001 C1000 1.370 . S
C1001 C1005 1.408 . S
C1002 C1000 1.363 . S
C1002 C1003 1.370 . S
C1002 C1006 1.524 1_565 S
C1003 C995 1.503 1_565 S
C1003 C1002 1.370 . S
C1003 C1004 1.403 . S
C1004 C1003 1.403 . S
C1004 C1005 1.404 . S
C1004 C1007 1.539 . S
C1005 C1001 1.408 . S
C1005 C1004 1.404 . S
C1005 H1017 0.930 . S
C1006 C1002 1.524 1_545 S
C1006 H1018 0.956 . S
C1006 H1019 0.961 . S
C1006 H1020 0.961 . S
C1007 C1004 1.539 . S
C1007 H1021 0.958 . S
C1007 H1022 0.961 . S
C1007 H1023 0.960 . S
H1008 C992 0.931 . S
H1009 C997 0.929 . S
H1010 C998 0.960 . S
H1011 C998 0.962 . S
H1012 C998 0.960 . S
H1013 C999 0.961 . S
H1014 C999 0.961 . S
H1015 C999 0.961 . S
H1016 C1000 0.931 . S
H1017 C1005 0.930 . S
H1018 C1006 0.956 . S
H1019 C1006 0.961 . S
H1020 C1006 0.961 . S
H1021 C1007 0.958 . S
H1022 C1007 0.961 . S
H1023 C1007 0.960 . S
C1024 C1025 1.391 . S
C1024 C1026 1.394 . S
C1024 H1040 0.931 . S
C1025 C1024 1.391 . S
C1025 C1029 1.376 . S
C1026 C1024 1.394 . S
C1026 C1027 1.369 . S
C1026 C1030 1.531 . S
C1027 C1026 1.369 . S
C1027 C1028 1.410 . S
C1027 C1035 1.503 . S
C1028 C1027 1.410 . S
C1028 C1029 1.392 . S
C1028 C1031 1.511 . S
C1029 C1025 1.376 . S
C1029 C1028 1.392 . S
C1029 H1041 0.929 . S
C1030 C1026 1.531 . S
C1030 H1042 0.960 . S
C1030 H1043 0.962 . S
C1030 H1044 0.960 . S
C1031 C1028 1.511 . S
C1031 H1045 0.961 . S
C1031 H1046 0.961 . S
C1031 H1047 0.961 . S
C1032 C1033 1.370 . S
C1032 C1034 1.363 . S
C1032 H1048 0.931 . S
C1033 C1032 1.370 . S
C1033 C1037 1.408 . S
C1034 C1032 1.363 . S
C1034 C1035 1.370 . S
C1034 C1038 1.524 . S
C1035 C1027 1.503 . S
C1035 C1034 1.370 . S
C1035 C1036 1.403 . S
C1036 C1035 1.403 . S
C1036 C1037 1.404 . S
C1036 C1039 1.539 . S
C1037 C1033 1.408 . S
C1037 C1036 1.404 . S
C1037 H1049 0.930 . S
C1038 C1034 1.524 . S
C1038 H1050 0.956 . S
C1038 H1051 0.961 . S
C1038 H1052 0.961 . S
C1039 C1036 1.539 . S
C1039 H1053 0.958 . S
C1039 H1054 0.961 . S
C1039 H1055 0.960 . S
H1040 C1024 0.931 . S
H1041 C1029 0.929 . S
H1042 C1030 0.960 . S
H1043 C1030 0.962 . S
H1044 C1030 0.960 . S
H1045 C1031 0.961 . S
H1046 C1031 0.961 . S
H1047 C1031 0.961 . S
H1048 C1032 0.931 . S
H1049 C1037 0.930 . S
H1050 C1038 0.956 . S
H1051 C1038 0.961 . S
H1052 C1038 0.961 . S
H1053 C1039 0.958 . S
H1054 C1039 0.961 . S
H1055 C1039 0.960 . S
C1056 C1057 1.391 . S
C1056 C1058 1.394 . S
C1056 H1072 0.931 . S
C1057 C1056 1.391 . S
C1057 C1061 1.376 . S
C1058 C1056 1.394 . S
C1058 C1059 1.369 . S
C1058 C1062 1.531 . S
C1059 C1058 1.369 . S
C1059 C1060 1.410 . S
C1059 C1067 1.503 . S
C1060 C1059 1.410 . S
C1060 C1061 1.392 . S
C1060 C1063 1.511 . S
C1061 C1057 1.376 . S
C1061 C1060 1.392 . S
C1061 H1073 0.929 . S
C1062 C1058 1.531 . S
C1062 H1074 0.960 . S
C1062 H1075 0.962 . S
C1062 H1076 0.960 . S
C1063 C1060 1.511 . S
C1063 H1077 0.961 . S
C1063 H1078 0.961 . S
C1063 H1079 0.961 . S
C1064 C1065 1.370 . S
C1064 C1066 1.363 . S
C1064 H1080 0.931 . S
C1065 C1064 1.370 . S
C1065 C1069 1.408 . S
C1066 C1064 1.363 . S
C1066 C1067 1.370 . S
C1066 C1070 1.524 . S
C1067 C1059 1.503 . S
C1067 C1066 1.370 . S
C1067 C1068 1.403 . S
C1068 C1067 1.403 . S
C1068 C1069 1.404 . S
C1068 C1071 1.539 . S
C1069 C1065 1.408 . S
C1069 C1068 1.404 . S
C1069 H1081 0.930 . S
C1070 C1066 1.524 . S
C1070 H1082 0.956 . S
C1070 H1083 0.961 . S
C1070 H1084 0.961 . S
C1071 C1068 1.539 . S
C1071 H1085 0.958 . S
C1071 H1086 0.961 . S
C1071 H1087 0.960 . S
H1072 C1056 0.931 . S
H1073 C1061 0.929 . S
H1074 C1062 0.960 . S
H1075 C1062 0.962 . S
H1076 C1062 0.960 . S
H1077 C1063 0.961 . S
H1078 C1063 0.961 . S
H1079 C1063 0.961 . S
H1080 C1064 0.931 . S
H1081 C1069 0.930 . S
H1082 C1070 0.956 . S
H1083 C1070 0.961 . S
H1084 C1070 0.961 . S
H1085 C1071 0.958 . S
H1086 C1071 0.961 . S
H1087 C1071 0.960 . S
C1088 C1089 1.391 . S
C1088 C1090 1.394 . S
C1088 H1104 0.931 . S
C1089 C1088 1.391 . S
C1089 C1093 1.376 . S
C1090 C1088 1.394 . S
C1090 C1091 1.369 . S
C1090 C1094 1.531 . S
C1091 C1090 1.369 . S
C1091 C1092 1.410 . S
C1091 C1099 1.503 . S
C1092 C1091 1.410 . S
C1092 C1093 1.392 . S
C1092 C1095 1.511 . S
C1093 C1089 1.376 . S
C1093 C1092 1.392 . S
C1093 H1105 0.929 . S
C1094 C1090 1.531 . S
C1094 H1106 0.960 . S
C1094 H1107 0.962 . S
C1094 H1108 0.960 . S
C1095 C1092 1.511 . S
C1095 H1109 0.961 . S
C1095 H1110 0.961 . S
C1095 H1111 0.961 . S
C1096 C1097 1.370 . S
C1096 C1098 1.363 . S
C1096 H1112 0.931 . S
C1097 C1096 1.370 . S
C1097 C1101 1.408 . S
C1098 C1096 1.363 . S
C1098 C1099 1.370 . S
C1098 C1102 1.524 . S
C1099 C1091 1.503 . S
C1099 C1098 1.370 . S
C1099 C1100 1.403 . S
C1100 C1099 1.403 . S
C1100 C1101 1.404 . S
C1100 C1103 1.539 . S
C1101 C1097 1.408 . S
C1101 C1100 1.404 . S
C1101 H1113 0.930 . S
C1102 C1098 1.524 . S
C1102 H1114 0.956 . S
C1102 H1115 0.961 . S
C1102 H1116 0.961 . S
C1103 C1100 1.539 . S
C1103 H1117 0.958 . S
C1103 H1118 0.961 . S
C1103 H1119 0.960 . S
H1104 C1088 0.931 . S
H1105 C1093 0.929 . S
H1106 C1094 0.960 . S
H1107 C1094 0.962 . S
H1108 C1094 0.960 . S
H1109 C1095 0.961 . S
H1110 C1095 0.961 . S
H1111 C1095 0.961 . S
H1112 C1096 0.931 . S
H1113 C1101 0.930 . S
H1114 C1102 0.956 . S
H1115 C1102 0.961 . S
H1116 C1102 0.961 . S
H1117 C1103 0.958 . S
H1118 C1103 0.961 . S
H1119 C1103 0.960 . S
C1120 C1121 1.391 . S
C1120 C1122 1.394 . S
C1120 H1136 0.931 . S
C1121 C1120 1.391 . S
C1121 C1125 1.376 . S
C1122 C1120 1.394 . S
C1122 C1123 1.369 . S
C1122 C1126 1.531 . S
C1123 C1122 1.369 . S
C1123 C1124 1.410 . S
C1123 C1131 1.503 . S
C1124 C1123 1.410 . S
C1124 C1125 1.392 . S
C1124 C1127 1.511 . S
C1125 C1121 1.376 . S
C1125 C1124 1.392 . S
C1125 H1137 0.929 . S
C1126 C1122 1.531 . S
C1126 H1138 0.960 . S
C1126 H1139 0.962 . S
C1126 H1140 0.960 . S
C1127 C1124 1.511 . S
C1127 H1141 0.961 . S
C1127 H1142 0.961 . S
C1127 H1143 0.961 . S
C1128 C1129 1.370 . S
C1128 C1130 1.363 . S
C1128 H1144 0.931 . S
C1129 C1128 1.370 . S
C1129 C1133 1.408 . S
C1130 C1128 1.363 . S
C1130 C1131 1.370 . S
C1130 C1134 1.524 . S
C1131 C1123 1.503 . S
C1131 C1130 1.370 . S
C1131 C1132 1.403 . S
C1132 C1131 1.403 . S
C1132 C1133 1.404 . S
C1132 C1135 1.539 . S
C1133 C1129 1.408 . S
C1133 C1132 1.404 . S
C1133 H1145 0.930 . S
C1134 C1130 1.524 . S
C1134 H1146 0.956 . S
C1134 H1147 0.961 . S
C1134 H1148 0.961 . S
C1135 C1132 1.539 . S
C1135 H1149 0.958 . S
C1135 H1150 0.961 . S
C1135 H1151 0.960 . S
H1136 C1120 0.931 . S
H1137 C1125 0.929 . S
H1138 C1126 0.960 . S
H1139 C1126 0.962 . S
H1140 C1126 0.960 . S
H1141 C1127 0.961 . S
H1142 C1127 0.961 . S
H1143 C1127 0.961 . S
H1144 C1128 0.931 . S
H1145 C1133 0.930 . S
H1146 C1134 0.956 . S
H1147 C1134 0.961 . S
H1148 C1134 0.961 . S
H1149 C1135 0.958 . S
H1150 C1135 0.961 . S
H1151 C1135 0.960 . S
C1152 C1153 1.391 . S
C1152 C1154 1.394 . S
C1152 H1168 0.931 . S
C1153 C1152 1.391 . S
C1153 C1157 1.376 . S
C1154 C1152 1.394 . S
C1154 C1155 1.369 . S
C1154 C1158 1.531 . S
C1155 C1154 1.369 . S
C1155 C1156 1.410 . S
C1155 C1163 1.503 1_556 S
C1156 C1155 1.410 . S
C1156 C1157 1.392 . S
C1156 C1159 1.511 . S
C1157 C1153 1.376 . S
C1157 C1156 1.392 . S
C1157 H1169 0.929 . S
C1158 C1154 1.531 . S
C1158 H1170 0.960 1_556 S
C1158 H1171 0.962 . S
C1158 H1172 0.960 . S
C1159 C1156 1.511 . S
C1159 H1173 0.961 . S
C1159 H1174 0.961 1_556 S
C1159 H1175 0.961 . S
C1160 C1161 1.370 . S
C1160 C1162 1.363 . S
C1160 H1176 0.931 . S
C1161 C1160 1.370 . S
C1161 C1165 1.408 . S
C1162 C1160 1.363 . S
C1162 C1163 1.370 . S
C1162 C1166 1.524 . S
C1163 C1155 1.503 1_554 S
C1163 C1162 1.370 . S
C1163 C1164 1.403 . S
C1164 C1163 1.403 . S
C1164 C1165 1.404 . S
C1164 C1167 1.539 . S
C1165 C1161 1.408 . S
C1165 C1164 1.404 . S
C1165 H1177 0.930 . S
C1166 C1162 1.524 . S
C1166 H1178 0.956 . S
C1166 H1179 0.961 1_554 S
C1166 H1180 0.961 . S
C1167 C1164 1.539 . S
C1167 H1181 0.958 1_545 S
C1167 H1182 0.961 . S
C1167 H1183 0.970 . S
H1168 C1152 0.931 . S
H1169 C1157 0.929 . S
H1170 C1158 0.960 1_554 S
H1171 C1158 0.962 . S
H1172 C1158 0.960 . S
H1173 C1159 0.961 . S
H1174 C1159 0.961 1_554 S
H1175 C1159 0.961 . S
H1176 C1160 0.931 . S
H1177 C1165 0.930 . S
H1178 C1166 0.956 . S
H1179 C1166 0.961 1_556 S
H1180 C1166 0.961 . S
H1181 C1167 0.958 1_565 S
H1182 C1167 0.961 . S
H1183 C1167 0.970 . S
C1184 C1185 1.391 . S
C1184 C1186 1.394 . S
C1184 H1200 0.931 . S
C1185 C1184 1.391 . S
C1185 C1189 1.376 . S
C1186 C1184 1.394 . S
C1186 C1187 1.369 . S
C1186 C1190 1.531 . S
C1187 C1186 1.369 . S
C1187 C1188 1.410 . S
C1187 C1195 1.503 1_556 S
C1188 C1187 1.410 . S
C1188 C1189 1.392 . S
C1188 C1191 1.511 . S
C1189 C1185 1.376 . S
C1189 C1188 1.392 . S
C1189 H1201 0.929 . S
C1190 C1186 1.531 . S
C1190 H1202 0.960 1_556 S
C1190 H1203 0.962 . S
C1190 H1204 0.960 . S
C1191 C1188 1.511 . S
C1191 H1205 0.961 . S
C1191 H1206 0.961 1_556 S
C1191 H1207 0.961 . S
C1192 C1193 1.370 . S
C1192 C1194 1.363 . S
C1192 H1208 0.931 . S
C1193 C1192 1.370 . S
C1193 C1197 1.408 . S
C1194 C1192 1.363 . S
C1194 C1195 1.370 . S
C1194 C1198 1.524 . S
C1195 C1187 1.503 1_554 S
C1195 C1194 1.370 . S
C1195 C1196 1.403 . S
C1196 C1195 1.403 . S
C1196 C1197 1.404 . S
C1196 C1199 1.539 . S
C1197 C1193 1.408 . S
C1197 C1196 1.404 . S
C1197 H1209 0.930 . S
C1198 C1194 1.524 . S
C1198 H1210 0.956 . S
C1198 H1211 0.961 1_554 S
C1198 H1212 0.961 . S
C1199 C1196 1.539 . S
C1199 H1213 0.958 . S
C1199 H1214 0.961 . S
C1199 H1215 0.970 . S
H1200 C1184 0.931 . S
H1201 C1189 0.929 . S
H1202 C1190 0.960 1_554 S
H1203 C1190 0.962 . S
H1204 C1190 0.960 . S
H1205 C1191 0.961 . S
H1206 C1191 0.961 1_554 S
H1207 C1191 0.961 . S
H1208 C1192 0.931 . S
H1209 C1197 0.930 . S
H1210 C1198 0.956 . S
H1211 C1198 0.961 1_556 S
H1212 C1198 0.961 . S
H1213 C1199 0.958 . S
H1214 C1199 0.961 . S
H1215 C1199 0.970 . S
C1216 C1217 1.391 . S
C1216 C1218 1.394 . S
C1216 H1232 0.931 . S
C1217 C1216 1.391 . S
C1217 C1221 1.376 . S
C1218 C1216 1.394 . S
C1218 C1219 1.369 . S
C1218 C1222 1.531 . S
C1219 C1218 1.369 . S
C1219 C1220 1.410 . S
C1219 C1227 1.503 . S
C1220 C1219 1.410 . S
C1220 C1221 1.392 . S
C1220 C1223 1.511 . S
C1221 C1217 1.376 . S
C1221 C1220 1.392 . S
C1221 H1233 0.929 . S
C1222 C1218 1.531 . S
C1222 H1234 0.960 . S
C1222 H1235 0.962 . S
C1222 H1236 0.960 . S
C1223 C1220 1.511 . S
C1223 H1237 0.961 . S
C1223 H1238 0.961 . S
C1223 H1239 0.961 . S
C1224 C1225 1.370 . S
C1224 C1226 1.363 . S
C1224 H1240 0.931 . S
C1225 C1224 1.370 . S
C1225 C1229 1.408 . S
C1226 C1224 1.363 . S
C1226 C1227 1.370 . S
C1226 C1230 1.524 . S
C1227 C1219 1.503 . S
C1227 C1226 1.370 . S
C1227 C1228 1.403 . S
C1228 C1227 1.403 . S
C1228 C1229 1.404 . S
C1228 C1231 1.539 . S
C1229 C1225 1.408 . S
C1229 C1228 1.404 . S
C1229 H1241 0.930 . S
C1230 C1226 1.524 . S
C1230 H1242 0.956 . S
C1230 H1243 0.961 . S
C1230 H1244 0.961 . S
C1231 C1228 1.539 . S
C1231 H1245 0.958 1_565 S
C1231 H1246 0.961 . S
C1231 H1247 0.960 . S
H1232 C1216 0.931 . S
H1233 C1221 0.929 . S
H1234 C1222 0.960 . S
H1235 C1222 0.962 . S
H1236 C1222 0.960 . S
H1237 C1223 0.961 . S
H1238 C1223 0.961 . S
H1239 C1223 0.961 . S
H1240 C1224 0.931 . S
H1241 C1229 0.930 . S
H1242 C1230 0.956 . S
H1243 C1230 0.961 . S
H1244 C1230 0.961 . S
H1245 C1231 0.958 1_545 S
H1246 C1231 0.961 . S
H1247 C1231 0.960 . S
C1248 C1249 1.391 . S
C1248 C1250 1.394 . S
C1248 H1264 0.931 . S
C1249 C1248 1.391 . S
C1249 C1253 1.376 . S
C1250 C1248 1.394 . S
C1250 C1251 1.369 . S
C1250 C1254 1.531 . S
C1251 C1250 1.369 . S
C1251 C1252 1.410 . S
C1251 C1259 1.503 . S
C1252 C1251 1.410 . S
C1252 C1253 1.392 . S
C1252 C1255 1.511 . S
C1253 C1249 1.376 . S
C1253 C1252 1.392 . S
C1253 H1265 0.929 . S
C1254 C1250 1.531 . S
C1254 H1266 0.960 . S
C1254 H1267 0.962 . S
C1254 H1268 0.960 1_545 S
C1255 C1252 1.511 . S
C1255 H1269 0.961 . S
C1255 H1270 0.961 . S
C1255 H1271 0.961 . S
C1256 C1257 1.370 . S
C1256 C1258 1.363 . S
C1256 H1272 0.931 . S
C1257 C1256 1.370 . S
C1257 C1261 1.408 . S
C1258 C1256 1.363 . S
C1258 C1259 1.370 . S
C1258 C1262 1.524 . S
C1259 C1251 1.503 . S
C1259 C1258 1.370 . S
C1259 C1260 1.403 . S
C1260 C1259 1.403 . S
C1260 C1261 1.404 . S
C1260 C1263 1.539 . S
C1261 C1257 1.408 . S
C1261 C1260 1.404 . S
C1261 H1273 0.930 . S
C1262 C1258 1.524 . S
C1262 H1274 0.956 . S
C1262 H1275 0.961 . S
C1262 H1276 0.961 . S
C1263 C1260 1.539 . S
C1263 H1277 0.958 . S
C1263 H1278 0.961 . S
C1263 H1279 0.960 . S
H1264 C1248 0.931 . S
H1265 C1253 0.929 . S
H1266 C1254 0.960 . S
H1267 C1254 0.962 . S
H1268 C1254 0.960 1_565 S
H1269 C1255 0.961 . S
H1270 C1255 0.961 . S
H1271 C1255 0.961 . S
H1272 C1256 0.931 . S
H1273 C1261 0.930 . S
H1274 C1262 0.956 . S
H1275 C1262 0.961 . S
H1276 C1262 0.961 . S
H1277 C1263 0.958 . S
H1278 C1263 0.961 . S
H1279 C1263 0.960 . S
C1280 C1281 1.391 . S
C1280 C1282 1.394 . S
C1280 H1296 0.931 . S
C1281 C1280 1.391 . S
C1281 C1285 1.376 . S
C1282 C1280 1.394 . S
C1282 C1283 1.369 . S
C1282 C1286 1.531 . S
C1283 C1282 1.369 . S
C1283 C1284 1.410 . S
C1283 C1291 1.503 1_554 S
C1284 C1283 1.410 . S
C1284 C1285 1.392 . S
C1284 C1287 1.511 . S
C1285 C1281 1.376 . S
C1285 C1284 1.392 . S
C1285 H1297 0.929 . S
C1286 C1282 1.531 . S
C1286 H1298 0.960 1_554 S
C1286 H1299 0.962 . S
C1286 H1300 0.960 . S
C1287 C1284 1.511 . S
C1287 H1301 0.961 . S
C1287 H1302 0.961 1_554 S
C1287 H1303 0.961 . S
C1288 C1289 1.370 . S
C1288 C1290 1.363 . S
C1288 H1304 0.931 . S
C1289 C1288 1.370 . S
C1289 C1293 1.408 . S
C1290 C1288 1.363 . S
C1290 C1291 1.370 . S
C1290 C1294 1.524 . S
C1291 C1283 1.503 1_556 S
C1291 C1290 1.370 . S
C1291 C1292 1.403 . S
C1292 C1291 1.403 . S
C1292 C1293 1.404 . S
C1292 C1295 1.539 . S
C1293 C1289 1.408 . S
C1293 C1292 1.404 . S
C1293 H1305 0.930 . S
C1294 C1290 1.524 . S
C1294 H1306 0.956 . S
C1294 H1307 0.961 1_556 S
C1294 H1308 0.961 . S
C1295 C1292 1.539 . S
C1295 H1309 0.958 . S
C1295 H1310 0.961 . S
C1295 H1311 0.970 . S
H1296 C1280 0.931 . S
H1297 C1285 0.929 . S
H1298 C1286 0.960 1_556 S
H1299 C1286 0.962 . S
H1300 C1286 0.960 . S
H1301 C1287 0.961 . S
H1302 C1287 0.961 1_556 S
H1303 C1287 0.961 . S
H1304 C1288 0.931 . S
H1305 C1293 0.930 . S
H1306 C1294 0.956 . S
H1307 C1294 0.961 1_554 S
H1308 C1294 0.961 . S
H1309 C1295 0.958 . S
H1310 C1295 0.961 . S
H1311 C1295 0.970 . S
C1312 C1313 1.391 . S
C1312 C1314 1.394 . S
C1312 H1328 0.931 . S
C1313 C1312 1.391 . S
C1313 C1317 1.376 . S
C1314 C1312 1.394 . S
C1314 C1315 1.369 . S
C1314 C1318 1.531 . S
C1315 C1314 1.369 . S
C1315 C1316 1.410 . S
C1315 C1323 1.503 1_556 S
C1316 C1315 1.410 . S
C1316 C1317 1.392 . S
C1316 C1319 1.511 . S
C1317 C1313 1.376 . S
C1317 C1316 1.392 . S
C1317 H1329 0.929 . S
C1318 C1314 1.531 . S
C1318 H1330 0.960 1_556 S
C1318 H1331 0.962 . S
C1318 H1332 0.960 . S
C1319 C1316 1.511 . S
C1319 H1333 0.961 . S
C1319 H1334 0.961 1_556 S
C1319 H1335 0.961 . S
C1320 C1321 1.370 . S
C1320 C1322 1.363 . S
C1320 H1336 0.931 . S
C1321 C1320 1.370 . S
C1321 C1325 1.408 . S
C1322 C1320 1.363 . S
C1322 C1323 1.370 . S
C1322 C1326 1.524 . S
C1323 C1315 1.503 1_554 S
C1323 C1322 1.370 . S
C1323 C1324 1.403 . S
C1324 C1323 1.403 . S
C1324 C1325 1.404 . S
C1324 C1327 1.539 . S
C1325 C1321 1.408 . S
C1325 C1324 1.404 . S
C1325 H1337 0.930 . S
C1326 C1322 1.524 . S
C1326 H1338 0.956 . S
C1326 H1339 0.961 1_554 S
C1326 H1340 0.961 . S
C1327 C1324 1.539 . S
C1327 H1341 0.958 . S
C1327 H1342 0.961 . S
C1327 H1343 0.970 . S
H1328 C1312 0.931 . S
H1329 C1317 0.929 . S
H1330 C1318 0.960 1_554 S
H1331 C1318 0.962 . S
H1332 C1318 0.960 . S
H1333 C1319 0.961 . S
H1334 C1319 0.961 1_554 S
H1335 C1319 0.961 . S
H1336 C1320 0.931 . S
H1337 C1325 0.930 . S
H1338 C1326 0.956 . S
H1339 C1326 0.961 1_556 S
H1340 C1326 0.961 . S
H1341 C1327 0.958 . S
H1342 C1327 0.961 . S
H1343 C1327 0.970 . S
C1344 C1345 1.391 . S
C1344 C1346 1.394 . S
C1344 H1360 0.931 . S
C1345 C1344 1.391 . S
C1345 C1349 1.376 . S
C1346 C1344 1.394 . S
C1346 C1347 1.369 . S
C1346 C1350 1.531 . S
C1347 C1346 1.369 . S
C1347 C1348 1.410 . S
C1347 C1355 1.503 . S
C1348 C1347 1.410 . S
C1348 C1349 1.392 . S
C1348 C1351 1.511 . S
C1349 C1345 1.376 . S
C1349 C1348 1.392 . S
C1349 H1361 0.929 . S
C1350 C1346 1.531 . S
C1350 H1362 0.960 . S
C1350 H1363 0.962 . S
C1350 H1364 0.960 . S
C1351 C1348 1.511 . S
C1351 H1365 0.961 . S
C1351 H1366 0.961 . S
C1351 H1367 0.961 . S
C1352 C1353 1.370 . S
C1352 C1354 1.363 . S
C1352 H1368 0.931 . S
C1353 C1352 1.370 . S
C1353 C1357 1.408 . S
C1354 C1352 1.363 . S
C1354 C1355 1.370 . S
C1354 C1358 1.524 . S
C1355 C1347 1.503 . S
C1355 C1354 1.370 . S
C1355 C1356 1.403 . S
C1356 C1355 1.403 . S
C1356 C1357 1.404 . S
C1356 C1359 1.539 . S
C1357 C1353 1.408 . S
C1357 C1356 1.404 . S
C1357 H1369 0.930 . S
C1358 C1354 1.524 . S
C1358 H1370 0.956 . S
C1358 H1371 0.961 . S
C1358 H1372 0.961 . S
C1359 C1356 1.539 . S
C1359 H1373 0.958 . S
C1359 H1374 0.961 . S
C1359 H1375 0.960 . S
H1360 C1344 0.931 . S
H1361 C1349 0.929 . S
H1362 C1350 0.960 . S
H1363 C1350 0.962 . S
H1364 C1350 0.960 . S
H1365 C1351 0.961 . S
H1366 C1351 0.961 . S
H1367 C1351 0.961 . S
H1368 C1352 0.931 . S
H1369 C1357 0.930 . S
H1370 C1358 0.956 . S
H1371 C1358 0.961 . S
H1372 C1358 0.961 . S
H1373 C1359 0.958 . S
H1374 C1359 0.961 . S
H1375 C1359 0.960 . S
C1376 C1377 1.391 . S
C1376 C1378 1.394 . S
C1376 H1392 0.931 . S
C1377 C1376 1.391 . S
C1377 C1381 1.376 . S
C1378 C1376 1.394 . S
C1378 C1379 1.369 . S
C1378 C1382 1.531 . S
C1379 C1378 1.369 . S
C1379 C1380 1.410 . S
C1379 C1387 1.503 . S
C1380 C1379 1.410 . S
C1380 C1381 1.392 . S
C1380 C1383 1.511 . S
C1381 C1377 1.376 . S
C1381 C1380 1.392 . S
C1381 H1393 0.929 . S
C1382 C1378 1.531 . S
C1382 H1394 0.960 . S
C1382 H1395 0.962 . S
C1382 H1396 0.960 . S
C1383 C1380 1.511 . S
C1383 H1397 0.961 . S
C1383 H1398 0.961 . S
C1383 H1399 0.961 . S
C1384 C1385 1.370 . S
C1384 C1386 1.363 . S
C1384 H1400 0.931 . S
C1385 C1384 1.370 . S
C1385 C1389 1.408 . S
C1386 C1384 1.363 . S
C1386 C1387 1.370 . S
C1386 C1390 1.524 . S
C1387 C1379 1.503 . S
C1387 C1386 1.370 . S
C1387 C1388 1.403 . S
C1388 C1387 1.403 . S
C1388 C1389 1.404 . S
C1388 C1391 1.539 . S
C1389 C1385 1.408 . S
C1389 C1388 1.404 . S
C1389 H1401 0.930 . S
C1390 C1386 1.524 . S
C1390 H1402 0.956 . S
C1390 H1403 0.961 . S
C1390 H1404 0.961 . S
C1391 C1388 1.539 . S
C1391 H1405 0.958 . S
C1391 H1406 0.961 . S
C1391 H1407 0.960 . S
H1392 C1376 0.931 . S
H1393 C1381 0.929 . S
H1394 C1382 0.960 . S
H1395 C1382 0.962 . S
H1396 C1382 0.960 . S
H1397 C1383 0.961 . S
H1398 C1383 0.961 . S
H1399 C1383 0.961 . S
H1400 C1384 0.931 . S
H1401 C1389 0.930 . S
H1402 C1390 0.956 . S
H1403 C1390 0.961 . S
H1404 C1390 0.961 . S
H1405 C1391 0.958 . S
H1406 C1391 0.961 . S
H1407 C1391 0.960 . S
C1408 C1409 1.391 1_545 S
C1408 C1410 1.394 . S
C1408 H1424 0.931 . S
C1409 C1408 1.391 1_565 S
C1409 C1413 1.376 . S
C1410 C1408 1.394 . S
C1410 C1411 1.369 1_545 S
C1410 C1414 1.531 . S
C1411 C1410 1.369 1_565 S
C1411 C1412 1.410 . S
C1411 C1419 1.503 1_655 S
C1412 C1411 1.410 . S
C1412 C1413 1.392 . S
C1412 C1415 1.511 . S
C1413 C1409 1.376 . S
C1413 C1412 1.392 . S
C1413 H1425 0.929 . S
C1414 C1410 1.531 . S
C1414 H1426 0.969 . S
C1414 H1427 0.962 . S
C1414 H1428 0.960 . S
C1415 C1412 1.511 . S
C1415 H1429 0.961 . S
C1415 H1430 0.961 1_655 S
C1415 H1431 0.961 . S
C1416 C1417 1.370 . S
C1416 C1418 1.363 . S
C1416 H1432 0.931 . S
C1417 C1416 1.370 . S
C1417 C1421 1.408 1_545 S
C1418 C1416 1.363 . S
C1418 C1419 1.370 1_545 S
C1418 C1422 1.524 . S
C1419 C1411 1.503 1_455 S
C1419 C1418 1.370 1_565 S
C1419 C1420 1.403 . S
C1420 C1419 1.403 . S
C1420 C1421 1.404 . S
C1420 C1423 1.539 . S
C1421 C1417 1.408 1_565 S
C1421 C1420 1.404 . S
C1421 H1433 0.930 . S
C1422 C1418 1.524 . S
C1422 H1434 0.956 1_455 S
C1422 H1435 0.961 1_455 S
C1422 H1436 0.961 . S
C1423 C1420 1.539 . S
C1423 H1437 0.958 . S
C1423 H1438 0.961 . S
C1423 H1439 0.960 . S
H1424 C1408 0.931 . S
H1425 C1413 0.929 . S
H1426 C1414 0.969 . S
H1427 C1414 0.962 . S
H1428 C1414 0.960 . S
H1429 C1415 0.961 . S
H1430 C1415 0.961 1_455 S
H1431 C1415 0.961 . S
H1432 C1416 0.931 . S
H1433 C1421 0.930 . S
H1434 C1422 0.956 1_655 S
H1435 C1422 0.961 1_655 S
H1436 C1422 0.961 . S
H1437 C1423 0.958 . S
H1438 C1423 0.961 . S
H1439 C1423 0.960 . S
C1440 C1441 1.391 1_565 S
C1440 C1442 1.394 . S
C1440 H1456 0.931 . S
C1441 C1440 1.391 1_545 S
C1441 C1445 1.376 . S
C1442 C1440 1.394 . S
C1442 C1443 1.369 1_565 S
C1442 C1446 1.531 . S
C1443 C1442 1.369 1_545 S
C1443 C1444 1.410 . S
C1443 C1451 1.503 1_655 S
C1444 C1443 1.410 . S
C1444 C1445 1.392 . S
C1444 C1447 1.511 . S
C1445 C1441 1.376 . S
C1445 C1444 1.392 . S
C1445 H1457 0.929 . S
C1446 C1442 1.531 . S
C1446 H1458 0.954 1_655 S
C1446 H1459 0.962 . S
C1446 H1460 0.960 . S
C1447 C1444 1.511 . S
C1447 H1461 0.961 . S
C1447 H1462 0.961 1_655 S
C1447 H1463 0.961 . S
C1448 C1449 1.370 . S
C1448 C1450 1.363 . S
C1448 H1464 0.931 . S
C1449 C1448 1.370 . S
C1449 C1453 1.408 1_565 S
C1450 C1448 1.363 . S
C1450 C1451 1.370 1_565 S
C1450 C1454 1.524 . S
C1451 C1443 1.503 1_455 S
C1451 C1450 1.370 1_545 S
C1451 C1452 1.403 . S
C1452 C1451 1.403 . S
C1452 C1453 1.404 . S
C1452 C1455 1.539 . S
C1453 C1449 1.408 1_545 S
C1453 C1452 1.404 . S
C1453 H1465 0.930 . S
C1454 C1450 1.524 . S
C1454 H1466 0.956 1_455 S
C1454 H1467 0.961 1_455 S
C1454 H1468 0.961 . S
C1455 C1452 1.539 . S
C1455 H1469 0.958 . S
C1455 H1470 0.961 . S
C1455 H1471 0.960 . S
H1456 C1440 0.931 . S
H1457 C1445 0.929 . S
H1458 C1446 0.954 1_455 S
H1459 C1446 0.962 . S
H1460 C1446 0.960 . S
H1461 C1447 0.961 . S
H1462 C1447 0.961 1_455 S
H1463 C1447 0.961 . S
H1464 C1448 0.931 . S
H1465 C1453 0.930 . S
H1466 C1454 0.956 1_655 S
H1467 C1454 0.961 1_655 S
H1468 C1454 0.961 . S
H1469 C1455 0.958 . S
H1470 C1455 0.961 . S
H1471 C1455 0.960 . S
C1472 C1473 1.391 . S
C1472 C1474 1.394 . S
C1472 H1488 0.931 . S
C1473 C1472 1.391 . S
C1473 C1477 1.376 1_545 S
C1474 C1472 1.394 . S
C1474 C1475 1.369 . S
C1474 C1478 1.531 . S
C1475 C1474 1.369 . S
C1475 C1476 1.410 1_545 S
C1475 C1483 1.503 1_455 S
C1476 C1475 1.410 1_565 S
C1476 C1477 1.392 . S
C1476 C1479 1.511 . S
C1477 C1473 1.376 1_565 S
C1477 C1476 1.392 . S
C1477 H1489 0.929 . S
C1478 C1474 1.531 . S
C1478 H1490 0.960 1_455 S
C1478 H1491 0.962 . S
C1478 H1492 0.960 . S
C1479 C1476 1.511 . S
C1479 H1493 0.961 . S
C1479 H1494 0.961 . S
C1479 H1495 0.961 . S
C1480 C1481 1.370 . S
C1480 C1482 1.363 . S
C1480 H1496 0.931 . S
C1481 C1480 1.370 . S
C1481 C1485 1.408 1_565 S
C1482 C1480 1.363 . S
C1482 C1483 1.370 1_565 S
C1482 C1486 1.524 . S
C1483 C1475 1.503 1_655 S
C1483 C1482 1.370 1_545 S
C1483 C1484 1.403 . S
C1484 C1483 1.403 . S
C1484 C1485 1.404 . S
C1484 C1487 1.539 . S
C1485 C1481 1.408 1_545 S
C1485 C1484 1.404 . S
C1485 H1497 0.930 . S
C1486 C1482 1.524 . S
C1486 H1498 0.956 1_655 S
C1486 H1499 0.961 1_655 S
C1486 H1500 0.961 . S
C1487 C1484 1.539 . S
C1487 H1501 0.958 . S
C1487 H1502 0.961 . S
C1487 H1503 0.960 . S
H1488 C1472 0.931 . S
H1489 C1477 0.929 . S
H1490 C1478 0.960 1_655 S
H1491 C1478 0.962 . S
H1492 C1478 0.960 . S
H1493 C1479 0.961 . S
H1494 C1479 0.961 . S
H1495 C1479 0.961 . S
H1496 C1480 0.931 . S
H1497 C1485 0.930 . S
H1498 C1486 0.956 1_455 S
H1499 C1486 0.961 1_455 S
H1500 C1486 0.961 . S
H1501 C1487 0.958 . S
H1502 C1487 0.961 . S
H1503 C1487 0.960 . S
C1504 C1505 1.391 1_565 S
C1504 C1506 1.394 . S
C1504 H1520 0.931 . S
C1505 C1504 1.391 1_545 S
C1505 C1509 1.376 . S
C1506 C1504 1.394 . S
C1506 C1507 1.369 1_565 S
C1506 C1510 1.531 . S
C1507 C1506 1.369 1_545 S
C1507 C1508 1.410 . S
C1507 C1515 1.503 1_655 S
C1508 C1507 1.410 . S
C1508 C1509 1.392 . S
C1508 C1511 1.511 . S
C1509 C1505 1.376 . S
C1509 C1508 1.392 . S
C1509 H1521 0.929 . S
C1510 C1506 1.531 . S
C1510 H1522 0.960 . S
C1510 H1523 0.962 . S
C1510 H1524 0.960 . S
C1511 C1508 1.511 . S
C1511 H1525 0.961 . S
C1511 H1526 0.961 1_655 S
C1511 H1527 0.961 . S
C1512 C1513 1.370 . S
C1512 C1514 1.363 . S
C1512 H1528 0.931 . S
C1513 C1512 1.370 . S
C1513 C1517 1.408 1_565 S
C1514 C1512 1.363 . S
C1514 C1515 1.370 1_565 S
C1514 C1518 1.524 . S
C1515 C1507 1.503 1_455 S
C1515 C1514 1.370 1_545 S
C1515 C1516 1.403 . S
C1516 C1515 1.403 . S
C1516 C1517 1.404 . S
C1516 C1519 1.539 . S
C1517 C1513 1.408 1_545 S
C1517 C1516 1.404 . S
C1517 H1529 0.930 . S
C1518 C1514 1.524 . S
C1518 H1530 0.956 1_455 S
C1518 H1531 0.961 1_455 S
C1518 H1532 0.961 . S
C1519 C1516 1.539 . S
C1519 H1533 0.958 . S
C1519 H1534 0.961 . S
C1519 H1535 0.960 . S
H1520 C1504 0.931 . S
H1521 C1509 0.929 . S
H1522 C1510 0.960 . S
H1523 C1510 0.962 . S
H1524 C1510 0.960 . S
H1525 C1511 0.961 . S
H1526 C1511 0.961 1_455 S
H1527 C1511 0.961 . S
H1528 C1512 0.931 . S
H1529 C1517 0.930 . S
H1530 C1518 0.956 1_655 S
H1531 C1518 0.961 1_655 S
H1532 C1518 0.961 . S
H1533 C1519 0.958 . S
H1534 C1519 0.961 . S
H1535 C1519 0.960 . S
C1536 C1537 1.391 . S
C1536 C1538 1.394 . S
C1536 H1552 0.931 . S
C1537 C1536 1.391 . S
C1537 C1541 1.376 . S
C1538 C1536 1.394 . S
C1538 C1539 1.369 . S
C1538 C1542 1.531 . S
C1539 C1538 1.369 . S
C1539 C1540 1.410 . S
C1539 C1547 1.503 . S
C1540 C1539 1.410 . S
C1540 C1541 1.392 . S
C1540 C1543 1.511 . S
C1541 C1537 1.376 . S
C1541 C1540 1.392 . S
C1541 H1553 0.929 . S
C1542 C1538 1.531 . S
C1542 H1554 0.960 . S
C1542 H1555 0.962 . S
C1542 H1556 0.960 . S
C1543 C1540 1.511 . S
C1543 H1557 0.961 . S
C1543 H1558 0.961 . S
C1543 H1559 0.961 . S
C1544 C1545 1.370 . S
C1544 C1546 1.363 . S
C1544 H1560 0.931 . S
C1545 C1544 1.370 . S
C1545 C1549 1.408 . S
C1546 C1544 1.363 . S
C1546 C1547 1.370 . S
C1546 C1550 1.524 . S
C1547 C1539 1.503 . S
C1547 C1546 1.370 . S
C1547 C1548 1.403 . S
C1548 C1547 1.403 . S
C1548 C1549 1.404 . S
C1548 C1551 1.539 . S
C1549 C1545 1.408 . S
C1549 C1548 1.404 . S
C1549 H1561 0.930 . S
C1550 C1546 1.524 . S
C1550 H1562 0.956 . S
C1550 H1563 0.961 . S
C1550 H1564 0.961 . S
C1551 C1548 1.539 . S
C1551 H1565 0.958 . S
C1551 H1566 0.961 . S
C1551 H1567 0.960 . S
H1552 C1536 0.931 . S
H1553 C1541 0.929 . S
H1554 C1542 0.960 . S
H1555 C1542 0.962 . S
H1556 C1542 0.960 . S
H1557 C1543 0.961 . S
H1558 C1543 0.961 . S
H1559 C1543 0.961 . S
H1560 C1544 0.931 . S
H1561 C1549 0.930 . S
H1562 C1550 0.956 . S
H1563 C1550 0.961 . S
H1564 C1550 0.961 . S
H1565 C1551 0.958 . S
H1566 C1551 0.961 . S
H1567 C1551 0.960 . S
C1568 C1569 1.391 . S
C1568 C1570 1.394 . S
C1568 H1584 0.931 . S
C1569 C1568 1.391 . S
C1569 C1573 1.376 . S
C1570 C1568 1.394 . S
C1570 C1571 1.369 . S
C1570 C1574 1.531 . S
C1571 C1570 1.369 . S
C1571 C1572 1.410 . S
C1571 C1579 1.503 . S
C1572 C1571 1.410 . S
C1572 C1573 1.392 . S
C1572 C1575 1.511 . S
C1573 C1569 1.376 . S
C1573 C1572 1.392 . S
C1573 H1585 0.929 . S
C1574 C1570 1.531 . S
C1574 H1586 0.960 . S
C1574 H1587 0.962 . S
C1574 H1588 0.960 . S
C1575 C1572 1.511 . S
C1575 H1589 0.961 . S
C1575 H1590 0.961 . S
C1575 H1591 0.961 . S
C1576 C1577 1.370 . S
C1576 C1578 1.363 . S
C1576 H1592 0.931 . S
C1577 C1576 1.370 . S
C1577 C1581 1.408 . S
C1578 C1576 1.363 . S
C1578 C1579 1.370 . S
C1578 C1582 1.524 . S
C1579 C1571 1.503 . S
C1579 C1578 1.370 . S
C1579 C1580 1.403 . S
C1580 C1579 1.403 . S
C1580 C1581 1.404 . S
C1580 C1583 1.539 . S
C1581 C1577 1.408 . S
C1581 C1580 1.404 . S
C1581 H1593 0.930 . S
C1582 C1578 1.524 . S
C1582 H1594 0.956 . S
C1582 H1595 0.961 . S
C1582 H1596 0.961 . S
C1583 C1580 1.539 . S
C1583 H1597 0.958 . S
C1583 H1598 0.961 . S
C1583 H1599 0.960 . S
H1584 C1568 0.931 . S
H1585 C1573 0.929 . S
H1586 C1574 0.960 . S
H1587 C1574 0.962 . S
H1588 C1574 0.960 . S
H1589 C1575 0.961 . S
H1590 C1575 0.961 . S
H1591 C1575 0.961 . S
H1592 C1576 0.931 . S
H1593 C1581 0.930 . S
H1594 C1582 0.956 . S
H1595 C1582 0.961 . S
H1596 C1582 0.961 . S
H1597 C1583 0.958 . S
H1598 C1583 0.961 . S
H1599 C1583 0.960 . S
C1600 C1601 1.391 . S
C1600 C1602 1.394 . S
C1600 H1616 0.931 . S
C1601 C1600 1.391 . S
C1601 C1605 1.376 . S
C1602 C1600 1.394 . S
C1602 C1603 1.369 . S
C1602 C1606 1.531 . S
C1603 C1602 1.369 . S
C1603 C1604 1.410 . S
C1603 C1611 1.503 . S
C1604 C1603 1.410 . S
C1604 C1605 1.392 . S
C1604 C1607 1.511 . S
C1605 C1601 1.376 . S
C1605 C1604 1.392 . S
C1605 H1617 0.929 . S
C1606 C1602 1.531 . S
C1606 H1618 0.960 . S
C1606 H1619 0.962 . S
C1606 H1620 0.960 . S
C1607 C1604 1.511 . S
C1607 H1621 0.961 . S
C1607 H1622 0.961 . S
C1607 H1623 0.961 . S
C1608 C1609 1.370 . S
C1608 C1610 1.363 . S
C1608 H1624 0.931 . S
C1609 C1608 1.370 . S
C1609 C1613 1.408 . S
C1610 C1608 1.363 . S
C1610 C1611 1.370 . S
C1610 C1614 1.524 . S
C1611 C1603 1.503 . S
C1611 C1610 1.370 . S
C1611 C1612 1.403 . S
C1612 C1611 1.403 . S
C1612 C1613 1.404 . S
C1612 C1615 1.539 . S
C1613 C1609 1.408 . S
C1613 C1612 1.404 . S
C1613 H1625 0.930 . S
C1614 C1610 1.524 . S
C1614 H1626 0.956 . S
C1614 H1627 0.961 . S
C1614 H1628 0.961 . S
C1615 C1612 1.539 . S
C1615 H1629 0.958 . S
C1615 H1630 0.961 . S
C1615 H1631 0.960 . S
H1616 C1600 0.931 . S
H1617 C1605 0.929 . S
H1618 C1606 0.960 . S
H1619 C1606 0.962 . S
H1620 C1606 0.960 . S
H1621 C1607 0.961 . S
H1622 C1607 0.961 . S
H1623 C1607 0.961 . S
H1624 C1608 0.931 . S
H1625 C1613 0.930 . S
H1626 C1614 0.956 . S
H1627 C1614 0.961 . S
H1628 C1614 0.961 . S
H1629 C1615 0.958 . S
H1630 C1615 0.961 . S
H1631 C1615 0.960 . S
C1632 C1633 1.391 . S
C1632 C1634 1.394 . S
C1632 H1648 0.931 . S
C1633 C1632 1.391 . S
C1633 C1637 1.376 . S
C1634 C1632 1.394 . S
C1634 C1635 1.369 . S
C1634 C1638 1.531 . S
C1635 C1634 1.369 . S
C1635 C1636 1.410 . S
C1635 C1643 1.503 . S
C1636 C1635 1.410 . S
C1636 C1637 1.392 . S
C1636 C1639 1.511 . S
C1637 C1633 1.376 . S
C1637 C1636 1.392 . S
C1637 H1649 0.929 . S
C1638 C1634 1.531 . S
C1638 H1650 0.960 . S
C1638 H1651 0.962 . S
C1638 H1652 0.960 . S
C1639 C1636 1.511 . S
C1639 H1653 0.961 . S
C1639 H1654 0.961 . S
C1639 H1655 0.961 . S
C1640 C1641 1.370 . S
C1640 C1642 1.363 . S
C1640 H1656 0.931 . S
C1641 C1640 1.370 . S
C1641 C1645 1.408 . S
C1642 C1640 1.363 . S
C1642 C1643 1.370 . S
C1642 C1646 1.524 . S
C1643 C1635 1.503 . S
C1643 C1642 1.370 . S
C1643 C1644 1.403 . S
C1644 C1643 1.403 . S
C1644 C1645 1.404 . S
C1644 C1647 1.539 . S
C1645 C1641 1.408 . S
C1645 C1644 1.404 . S
C1645 H1657 0.930 . S
C1646 C1642 1.524 . S
C1646 H1658 0.956 . S
C1646 H1659 0.961 . S
C1646 H1660 0.961 . S
C1647 C1644 1.539 . S
C1647 H1661 0.958 . S
C1647 H1662 0.961 . S
C1647 H1663 0.960 . S
H1648 C1632 0.931 . S
H1649 C1637 0.929 . S
H1650 C1638 0.960 . S
H1651 C1638 0.962 . S
H1652 C1638 0.960 . S
H1653 C1639 0.961 . S
H1654 C1639 0.961 . S
H1655 C1639 0.961 . S
H1656 C1640 0.931 . S
H1657 C1645 0.930 . S
H1658 C1646 0.956 . S
H1659 C1646 0.961 . S
H1660 C1646 0.961 . S
H1661 C1647 0.958 . S
H1662 C1647 0.961 . S
H1663 C1647 0.960 . S
C1664 C1665 1.391 . S
C1664 C1666 1.394 . S
C1664 H1680 0.931 . S
C1665 C1664 1.391 . S
C1665 C1669 1.376 . S
C1666 C1664 1.394 . S
C1666 C1667 1.369 . S
C1666 C1670 1.531 . S
C1667 C1666 1.369 . S
C1667 C1668 1.410 . S
C1667 C1675 1.503 . S
C1668 C1667 1.410 . S
C1668 C1669 1.392 . S
C1668 C1671 1.511 . S
C1669 C1665 1.376 . S
C1669 C1668 1.392 . S
C1669 H1681 0.929 . S
C1670 C1666 1.531 . S
C1670 H1682 0.960 . S
C1670 H1683 0.962 . S
C1670 H1684 0.960 . S
C1671 C1668 1.511 . S
C1671 H1685 0.961 . S
C1671 H1686 0.961 . S
C1671 H1687 0.961 . S
C1672 C1673 1.370 . S
C1672 C1674 1.363 . S
C1672 H1688 0.931 . S
C1673 C1672 1.370 . S
C1673 C1677 1.408 . S
C1674 C1672 1.363 . S
C1674 C1675 1.370 . S
C1674 C1678 1.524 . S
C1675 C1667 1.503 . S
C1675 C1674 1.370 . S
C1675 C1676 1.403 . S
C1676 C1675 1.403 . S
C1676 C1677 1.404 . S
C1676 C1679 1.539 . S
C1677 C1673 1.408 . S
C1677 C1676 1.404 . S
C1677 H1689 0.930 . S
C1678 C1674 1.524 . S
C1678 H1690 0.956 . S
C1678 H1691 0.961 . S
C1678 H1692 0.961 . S
C1679 C1676 1.539 . S
C1679 H1693 0.958 . S
C1679 H1694 0.961 . S
C1679 H1695 0.960 . S
H1680 C1664 0.931 . S
H1681 C1669 0.929 . S
H1682 C1670 0.960 . S
H1683 C1670 0.962 . S
H1684 C1670 0.960 . S
H1685 C1671 0.961 . S
H1686 C1671 0.961 . S
H1687 C1671 0.961 . S
H1688 C1672 0.931 . S
H1689 C1677 0.930 . S
H1690 C1678 0.956 . S
H1691 C1678 0.961 . S
H1692 C1678 0.961 . S
H1693 C1679 0.958 . S
H1694 C1679 0.961 . S
H1695 C1679 0.960 . S
C1696 C1697 1.391 . S
C1696 C1698 1.394 . S
C1696 H1712 0.931 . S
C1697 C1696 1.391 . S
C1697 C1701 1.376 . S
C1698 C1696 1.394 . S
C1698 C1699 1.369 . S
C1698 C1702 1.531 . S
C1699 C1698 1.369 . S
C1699 C1700 1.410 . S
C1699 C1707 1.503 . S
C1700 C1699 1.410 . S
C1700 C1701 1.392 . S
C1700 C1703 1.511 . S
C1701 C1697 1.376 . S
C1701 C1700 1.392 . S
C1701 H1713 0.929 . S
C1702 C1698 1.531 . S
C1702 H1714 0.960 . S
C1702 H1715 0.962 . S
C1702 H1716 0.960 . S
C1703 C1700 1.511 . S
C1703 H1717 0.961 . S
C1703 H1718 0.961 . S
C1703 H1719 0.961 . S
C1704 C1705 1.370 . S
C1704 C1706 1.363 . S
C1704 H1720 0.931 . S
C1705 C1704 1.370 . S
C1705 C1709 1.408 . S
C1706 C1704 1.363 . S
C1706 C1707 1.370 . S
C1706 C1710 1.524 . S
C1707 C1699 1.503 . S
C1707 C1706 1.370 . S
C1707 C1708 1.403 . S
C1708 C1707 1.403 . S
C1708 C1709 1.404 . S
C1708 C1711 1.539 . S
C1709 C1705 1.408 . S
C1709 C1708 1.404 . S
C1709 H1721 0.930 . S
C1710 C1706 1.524 . S
C1710 H1722 0.956 . S
C1710 H1723 0.961 . S
C1710 H1724 0.961 . S
C1711 C1708 1.539 . S
C1711 H1725 0.958 . S
C1711 H1726 0.961 . S
C1711 H1727 0.960 . S
H1712 C1696 0.931 . S
H1713 C1701 0.929 . S
H1714 C1702 0.960 . S
H1715 C1702 0.962 . S
H1716 C1702 0.960 . S
H1717 C1703 0.961 . S
H1718 C1703 0.961 . S
H1719 C1703 0.961 . S
H1720 C1704 0.931 . S
H1721 C1709 0.930 . S
H1722 C1710 0.956 . S
H1723 C1710 0.961 . S
H1724 C1710 0.961 . S
H1725 C1711 0.958 . S
H1726 C1711 0.961 . S
H1727 C1711 0.960 . S
C1728 C1729 1.391 . S
C1728 C1730 1.394 . S
C1728 H1744 0.931 . S
C1729 C1728 1.391 . S
C1729 C1733 1.376 . S
C1730 C1728 1.394 . S
C1730 C1731 1.369 . S
C1730 C1734 1.531 . S
C1731 C1730 1.369 . S
C1731 C1732 1.410 . S
C1731 C1739 1.503 . S
C1732 C1731 1.410 . S
C1732 C1733 1.392 . S
C1732 C1735 1.511 . S
C1733 C1729 1.376 . S
C1733 C1732 1.392 . S
C1733 H1745 0.929 . S
C1734 C1730 1.531 . S
C1734 H1746 0.960 . S
C1734 H1747 0.962 . S
C1734 H1748 0.960 . S
C1735 C1732 1.511 . S
C1735 H1749 0.961 . S
C1735 H1750 0.961 . S
C1735 H1751 0.961 . S
C1736 C1737 1.370 . S
C1736 C1738 1.363 . S
C1736 H1752 0.931 . S
C1737 C1736 1.370 . S
C1737 C1741 1.408 . S
C1738 C1736 1.363 . S
C1738 C1739 1.370 . S
C1738 C1742 1.524 . S
C1739 C1731 1.503 . S
C1739 C1738 1.370 . S
C1739 C1740 1.403 . S
C1740 C1739 1.403 . S
C1740 C1741 1.404 . S
C1740 C1743 1.539 . S
C1741 C1737 1.408 . S
C1741 C1740 1.404 . S
C1741 H1753 0.930 . S
C1742 C1738 1.524 . S
C1742 H1754 0.956 . S
C1742 H1755 0.961 . S
C1742 H1756 0.961 . S
C1743 C1740 1.539 . S
C1743 H1757 0.958 . S
C1743 H1758 0.961 . S
C1743 H1759 0.960 . S
H1744 C1728 0.931 . S
H1745 C1733 0.929 . S
H1746 C1734 0.960 . S
H1747 C1734 0.962 . S
H1748 C1734 0.960 . S
H1749 C1735 0.961 . S
H1750 C1735 0.961 . S
H1751 C1735 0.961 . S
H1752 C1736 0.931 . S
H1753 C1741 0.930 . S
H1754 C1742 0.956 . S
H1755 C1742 0.961 . S
H1756 C1742 0.961 . S
H1757 C1743 0.958 . S
H1758 C1743 0.961 . S
H1759 C1743 0.960 . S
C1760 C1761 1.391 . S
C1760 C1762 1.394 . S
C1760 H1776 0.931 . S
C1761 C1760 1.391 . S
C1761 C1765 1.376 . S
C1762 C1760 1.394 . S
C1762 C1763 1.369 . S
C1762 C1766 1.531 . S
C1763 C1762 1.369 . S
C1763 C1764 1.410 . S
C1763 C1771 1.503 . S
C1764 C1763 1.410 . S
C1764 C1765 1.392 . S
C1764 C1767 1.511 . S
C1765 C1761 1.376 . S
C1765 C1764 1.392 . S
C1765 H1777 0.929 . S
C1766 C1762 1.531 . S
C1766 H1778 0.960 . S
C1766 H1779 0.962 . S
C1766 H1780 0.960 . S
C1767 C1764 1.511 . S
C1767 H1781 0.961 . S
C1767 H1782 0.961 . S
C1767 H1783 0.961 . S
C1768 C1769 1.370 . S
C1768 C1770 1.363 . S
C1768 H1784 0.931 . S
C1769 C1768 1.370 . S
C1769 C1773 1.408 . S
C1770 C1768 1.363 . S
C1770 C1771 1.370 . S
C1770 C1774 1.524 . S
C1771 C1763 1.503 . S
C1771 C1770 1.370 . S
C1771 C1772 1.403 . S
C1772 C1771 1.403 . S
C1772 C1773 1.404 . S
C1772 C1775 1.539 . S
C1773 C1769 1.408 . S
C1773 C1772 1.404 . S
C1773 H1785 0.930 . S
C1774 C1770 1.524 . S
C1774 H1786 0.956 . S
C1774 H1787 0.961 . S
C1774 H1788 0.961 . S
C1775 C1772 1.539 . S
C1775 H1789 0.958 . S
C1775 H1790 0.961 . S
C1775 H1791 0.960 . S
H1776 C1760 0.931 . S
H1777 C1765 0.929 . S
H1778 C1766 0.960 . S
H1779 C1766 0.962 . S
H1780 C1766 0.960 . S
H1781 C1767 0.961 . S
H1782 C1767 0.961 . S
H1783 C1767 0.961 . S
H1784 C1768 0.931 . S
H1785 C1773 0.930 . S
H1786 C1774 0.956 . S
H1787 C1774 0.961 . S
H1788 C1774 0.961 . S
H1789 C1775 0.958 . S
H1790 C1775 0.961 . S
H1791 C1775 0.960 . S
C1792 C1793 1.391 . S
C1792 C1794 1.394 . S
C1792 H1808 0.931 . S
C1793 C1792 1.391 . S
C1793 C1797 1.376 . S
C1794 C1792 1.394 . S
C1794 C1795 1.369 . S
C1794 C1798 1.531 . S
C1795 C1794 1.369 . S
C1795 C1796 1.410 . S
C1795 C1803 1.503 . S
C1796 C1795 1.410 . S
C1796 C1797 1.392 . S
C1796 C1799 1.511 . S
C1797 C1793 1.376 . S
C1797 C1796 1.392 . S
C1797 H1809 0.929 . S
C1798 C1794 1.531 . S
C1798 H1810 0.960 . S
C1798 H1811 0.962 . S
C1798 H1812 0.960 . S
C1799 C1796 1.511 . S
C1799 H1813 0.961 . S
C1799 H1814 0.961 . S
C1799 H1815 0.961 . S
C1800 C1801 1.370 . S
C1800 C1802 1.363 . S
C1800 H1816 0.931 . S
C1801 C1800 1.370 . S
C1801 C1805 1.408 . S
C1802 C1800 1.363 . S
C1802 C1803 1.370 . S
C1802 C1806 1.524 . S
C1803 C1795 1.503 . S
C1803 C1802 1.370 . S
C1803 C1804 1.403 . S
C1804 C1803 1.403 . S
C1804 C1805 1.404 . S
C1804 C1807 1.539 . S
C1805 C1801 1.408 . S
C1805 C1804 1.404 . S
C1805 H1817 0.930 . S
C1806 C1802 1.524 . S
C1806 H1818 0.956 . S
C1806 H1819 0.961 . S
C1806 H1820 0.961 . S
C1807 C1804 1.539 . S
C1807 H1821 0.958 . S
C1807 H1822 0.961 . S
C1807 H1823 0.960 . S
H1808 C1792 0.931 . S
H1809 C1797 0.929 . S
H1810 C1798 0.960 . S
H1811 C1798 0.962 . S
H1812 C1798 0.960 . S
H1813 C1799 0.961 . S
H1814 C1799 0.961 . S
H1815 C1799 0.961 . S
H1816 C1800 0.931 . S
H1817 C1805 0.930 . S
H1818 C1806 0.956 . S
H1819 C1806 0.961 . S
H1820 C1806 0.961 . S
H1821 C1807 0.958 . S
H1822 C1807 0.961 . S
H1823 C1807 0.960 . S
C1824 C1825 1.391 . S
C1824 C1826 1.394 . S
C1824 H1840 0.931 . S
C1825 C1824 1.391 . S
C1825 C1829 1.376 . S
C1826 C1824 1.394 . S
C1826 C1827 1.369 . S
C1826 C1830 1.531 . S
C1827 C1826 1.369 . S
C1827 C1828 1.410 . S
C1827 C1835 1.503 . S
C1828 C1827 1.410 . S
C1828 C1829 1.392 . S
C1828 C1831 1.511 . S
C1829 C1825 1.376 . S
C1829 C1828 1.392 . S
C1829 H1841 0.929 . S
C1830 C1826 1.531 . S
C1830 H1842 0.960 . S
C1830 H1843 0.962 . S
C1830 H1844 0.960 . S
C1831 C1828 1.511 . S
C1831 H1845 0.961 . S
C1831 H1846 0.961 . S
C1831 H1847 0.961 . S
C1832 C1833 1.370 . S
C1832 C1834 1.363 . S
C1832 H1848 0.931 . S
C1833 C1832 1.370 . S
C1833 C1837 1.408 . S
C1834 C1832 1.363 . S
C1834 C1835 1.370 . S
C1834 C1838 1.524 . S
C1835 C1827 1.503 . S
C1835 C1834 1.370 . S
C1835 C1836 1.403 . S
C1836 C1835 1.403 . S
C1836 C1837 1.404 . S
C1836 C1839 1.539 . S
C1837 C1833 1.408 . S
C1837 C1836 1.404 . S
C1837 H1849 0.930 . S
C1838 C1834 1.524 . S
C1838 H1850 0.956 . S
C1838 H1851 0.961 . S
C1838 H1852 0.961 . S
C1839 C1836 1.539 . S
C1839 H1853 0.958 . S
C1839 H1854 0.961 . S
C1839 H1855 0.960 . S
H1840 C1824 0.931 . S
H1841 C1829 0.929 . S
H1842 C1830 0.960 . S
H1843 C1830 0.962 . S
H1844 C1830 0.960 . S
H1845 C1831 0.961 . S
H1846 C1831 0.961 . S
H1847 C1831 0.961 . S
H1848 C1832 0.931 . S
H1849 C1837 0.930 . S
H1850 C1838 0.956 . S
H1851 C1838 0.961 . S
H1852 C1838 0.961 . S
H1853 C1839 0.958 . S
H1854 C1839 0.961 . S
H1855 C1839 0.960 . S
C1856 C1857 1.391 . S
C1856 C1858 1.394 . S
C1856 H1872 0.931 . S
C1857 C1856 1.391 . S
C1857 C1861 1.376 . S
C1858 C1856 1.394 . S
C1858 C1859 1.369 . S
C1858 C1862 1.531 . S
C1859 C1858 1.369 . S
C1859 C1860 1.410 . S
C1859 C1867 1.503 . S
C1860 C1859 1.410 . S
C1860 C1861 1.392 . S
C1860 C1863 1.511 . S
C1861 C1857 1.376 . S
C1861 C1860 1.392 . S
C1861 H1873 0.929 . S
C1862 C1858 1.531 . S
C1862 H1874 0.960 . S
C1862 H1875 0.962 . S
C1862 H1876 0.960 . S
C1863 C1860 1.511 . S
C1863 H1877 0.961 . S
C1863 H1878 0.961 . S
C1863 H1879 0.961 . S
C1864 C1865 1.370 . S
C1864 C1866 1.363 . S
C1864 H1880 0.931 . S
C1865 C1864 1.370 . S
C1865 C1869 1.408 . S
C1866 C1864 1.363 . S
C1866 C1867 1.370 . S
C1866 C1870 1.524 . S
C1867 C1859 1.503 . S
C1867 C1866 1.370 . S
C1867 C1868 1.403 . S
C1868 C1867 1.403 . S
C1868 C1869 1.404 . S
C1868 C1871 1.539 . S
C1869 C1865 1.408 . S
C1869 C1868 1.404 . S
C1869 H1881 0.930 . S
C1870 C1866 1.524 . S
C1870 H1882 0.956 . S
C1870 H1883 0.961 . S
C1870 H1884 0.961 . S
C1871 C1868 1.539 . S
C1871 H1885 0.958 . S
C1871 H1886 0.961 . S
C1871 H1887 0.960 . S
H1872 C1856 0.931 . S
H1873 C1861 0.929 . S
H1874 C1862 0.960 . S
H1875 C1862 0.962 . S
H1876 C1862 0.960 . S
H1877 C1863 0.961 . S
H1878 C1863 0.961 . S
H1879 C1863 0.961 . S
H1880 C1864 0.931 . S
H1881 C1869 0.930 . S
H1882 C1870 0.956 . S
H1883 C1870 0.961 . S
H1884 C1870 0.961 . S
H1885 C1871 0.958 . S
H1886 C1871 0.961 . S
H1887 C1871 0.960 . S
C1888 C1889 1.391 . S
C1888 C1890 1.394 . S
C1888 H1904 0.931 . S
C1889 C1888 1.391 . S
C1889 C1893 1.376 . S
C1890 C1888 1.394 . S
C1890 C1891 1.369 . S
C1890 C1894 1.531 . S
C1891 C1890 1.369 . S
C1891 C1892 1.410 . S
C1891 C1899 1.503 . S
C1892 C1891 1.410 . S
C1892 C1893 1.392 . S
C1892 C1895 1.511 . S
C1893 C1889 1.376 . S
C1893 C1892 1.392 . S
C1893 H1905 0.929 . S
C1894 C1890 1.531 . S
C1894 H1906 0.960 . S
C1894 H1907 0.962 . S
C1894 H1908 0.960 . S
C1895 C1892 1.511 . S
C1895 H1909 0.961 . S
C1895 H1910 0.961 . S
C1895 H1911 0.961 . S
C1896 C1897 1.370 . S
C1896 C1898 1.363 . S
C1896 H1912 0.931 . S
C1897 C1896 1.370 . S
C1897 C1901 1.408 . S
C1898 C1896 1.363 . S
C1898 C1899 1.370 . S
C1898 C1902 1.524 . S
C1899 C1891 1.503 . S
C1899 C1898 1.370 . S
C1899 C1900 1.403 . S
C1900 C1899 1.403 . S
C1900 C1901 1.404 . S
C1900 C1903 1.539 . S
C1901 C1897 1.408 . S
C1901 C1900 1.404 . S
C1901 H1913 0.930 . S
C1902 C1898 1.524 . S
C1902 H1914 0.956 . S
C1902 H1915 0.961 . S
C1902 H1916 0.961 . S
C1903 C1900 1.539 . S
C1903 H1917 0.958 . S
C1903 H1918 0.961 . S
C1903 H1919 0.960 . S
H1904 C1888 0.931 . S
H1905 C1893 0.929 . S
H1906 C1894 0.960 . S
H1907 C1894 0.962 . S
H1908 C1894 0.960 . S
H1909 C1895 0.961 . S
H1910 C1895 0.961 . S
H1911 C1895 0.961 . S
H1912 C1896 0.931 . S
H1913 C1901 0.930 . S
H1914 C1902 0.956 . S
H1915 C1902 0.961 . S
H1916 C1902 0.961 . S
H1917 C1903 0.958 . S
H1918 C1903 0.961 . S
H1919 C1903 0.960 . S
C1920 C1921 1.391 . S
C1920 C1922 1.394 1_565 S
C1920 H1936 0.931 . S
C1921 C1920 1.391 . S
C1921 C1925 1.376 . S
C1922 C1920 1.394 1_545 S
C1922 C1923 1.369 . S
C1922 C1926 1.531 . S
C1923 C1922 1.369 . S
C1923 C1924 1.410 . S
C1923 C1931 1.503 . S
C1924 C1923 1.410 . S
C1924 C1925 1.392 1_545 S
C1924 C1927 1.511 . S
C1925 C1921 1.376 . S
C1925 C1924 1.392 1_565 S
C1925 H1937 0.929 . S
C1926 C1922 1.531 . S
C1926 H1938 0.960 . S
C1926 H1939 0.962 . S
C1926 H1940 0.960 . S
C1927 C1924 1.511 . S
C1927 H1941 0.961 . S
C1927 H1942 0.961 . S
C1927 H1943 0.961 . S
C1928 C1929 1.370 . S
C1928 C1930 1.363 . S
C1928 H1944 0.931 . S
C1929 C1928 1.370 . S
C1929 C1933 1.408 . S
C1930 C1928 1.363 . S
C1930 C1931 1.370 . S
C1930 C1934 1.524 . S
C1931 C1923 1.503 . S
C1931 C1930 1.370 . S
C1931 C1932 1.403 . S
C1932 C1931 1.403 . S
C1932 C1933 1.404 . S
C1932 C1935 1.539 . S
C1933 C1929 1.408 . S
C1933 C1932 1.404 . S
C1933 H1945 0.930 . S
C1934 C1930 1.524 . S
C1934 H1946 0.956 . S
C1934 H1947 0.961 . S
C1934 H1948 0.961 . S
C1935 C1932 1.539 . S
C1935 H1949 0.958 . S
C1935 H1950 0.961 . S
C1935 H1951 0.960 . S
H1936 C1920 0.931 . S
H1937 C1925 0.929 . S
H1938 C1926 0.960 . S
H1939 C1926 0.962 . S
H1940 C1926 0.960 . S
H1941 C1927 0.961 . S
H1942 C1927 0.961 . S
H1943 C1927 0.961 . S
H1944 C1928 0.931 . S
H1945 C1933 0.930 . S
H1946 C1934 0.956 . S
H1947 C1934 0.961 . S
H1948 C1934 0.961 . S
H1949 C1935 0.958 . S
H1950 C1935 0.961 . S
H1951 C1935 0.960 . S
C1952 C1953 1.391 . S
C1952 C1954 1.394 . S
C1952 H1968 0.931 . S
C1953 C1952 1.391 . S
C1953 C1957 1.376 . S
C1954 C1952 1.394 . S
C1954 C1955 1.369 . S
C1954 C1958 1.531 . S
C1955 C1954 1.369 . S
C1955 C1956 1.410 . S
C1955 C1963 1.503 . S
C1956 C1955 1.410 . S
C1956 C1957 1.392 . S
C1956 C1959 1.511 . S
C1957 C1953 1.376 . S
C1957 C1956 1.392 . S
C1957 H1969 0.929 . S
C1958 C1954 1.531 . S
C1958 H1970 0.960 . S
C1958 H1971 0.962 . S
C1958 H1972 0.960 . S
C1959 C1956 1.511 . S
C1959 H1973 0.961 . S
C1959 H1974 0.961 . S
C1959 H1975 0.961 . S
C1960 C1961 1.370 . S
C1960 C1962 1.363 1_545 S
C1960 H1976 0.931 . S
C1961 C1960 1.370 . S
C1961 C1965 1.408 . S
C1962 C1960 1.363 1_565 S
C1962 C1963 1.370 . S
C1962 C1966 1.524 . S
C1963 C1955 1.503 . S
C1963 C1962 1.370 . S
C1963 C1964 1.403 . S
C1964 C1963 1.403 . S
C1964 C1965 1.404 1_565 S
C1964 C1967 1.539 . S
C1965 C1961 1.408 . S
C1965 C1964 1.404 1_545 S
C1965 H1977 0.930 . S
C1966 C1962 1.524 . S
C1966 H1978 0.956 . S
C1966 H1979 0.961 . S
C1966 H1980 0.961 . S
C1967 C1964 1.539 . S
C1967 H1981 0.958 . S
C1967 H1982 0.961 . S
C1967 H1983 0.960 . S
H1968 C1952 0.931 . S
H1969 C1957 0.929 . S
H1970 C1958 0.960 . S
H1971 C1958 0.962 . S
H1972 C1958 0.960 . S
H1973 C1959 0.961 . S
H1974 C1959 0.961 . S
H1975 C1959 0.961 . S
H1976 C1960 0.931 . S
H1977 C1965 0.930 . S
H1978 C1966 0.956 . S
H1979 C1966 0.961 . S
H1980 C1966 0.961 . S
H1981 C1967 0.958 . S
H1982 C1967 0.961 . S
H1983 C1967 0.960 . S
C1984 C1985 1.391 . S
C1984 C1986 1.394 1_545 S
C1984 H2000 0.931 . S
C1985 C1984 1.391 . S
C1985 C1989 1.376 . S
C1986 C1984 1.394 1_565 S
C1986 C1987 1.369 . S
C1986 C1990 1.531 . S
C1987 C1986 1.369 . S
C1987 C1988 1.410 . S
C1987 C1995 1.503 . S
C1988 C1987 1.410 . S
C1988 C1989 1.392 1_565 S
C1988 C1991 1.511 . S
C1989 C1985 1.376 . S
C1989 C1988 1.392 1_545 S
C1989 H2001 0.929 . S
C1990 C1986 1.531 . S
C1990 H2002 0.960 . S
C1990 H2003 0.962 . S
C1990 H2004 0.960 . S
C1991 C1988 1.511 . S
C1991 H2005 0.961 . S
C1991 H2006 0.961 . S
C1991 H2007 0.961 . S
C1992 C1993 1.370 . S
C1992 C1994 1.363 . S
C1992 H2008 0.931 . S
C1993 C1992 1.370 . S
C1993 C1997 1.408 . S
C1994 C1992 1.363 . S
C1994 C1995 1.370 . S
C1994 C1998 1.524 . S
C1995 C1987 1.503 . S
C1995 C1994 1.370 . S
C1995 C1996 1.403 . S
C1996 C1995 1.403 . S
C1996 C1997 1.404 . S
C1996 C1999 1.539 . S
C1997 C1993 1.408 . S
C1997 C1996 1.404 . S
C1997 H2009 0.930 . S
C1998 C1994 1.524 . S
C1998 H2010 0.956 . S
C1998 H2011 0.961 . S
C1998 H2012 0.961 . S
C1999 C1996 1.539 . S
C1999 H2013 0.958 . S
C1999 H2014 0.961 . S
C1999 H2015 0.960 . S
H2000 C1984 0.931 . S
H2001 C1989 0.929 . S
H2002 C1990 0.960 . S
H2003 C1990 0.962 . S
H2004 C1990 0.960 . S
H2005 C1991 0.961 . S
H2006 C1991 0.961 . S
H2007 C1991 0.961 . S
H2008 C1992 0.931 . S
H2009 C1997 0.930 . S
H2010 C1998 0.956 . S
H2011 C1998 0.961 . S
H2012 C1998 0.961 . S
H2013 C1999 0.958 . S
H2014 C1999 0.961 . S
H2015 C1999 0.960 . S
C2016 C2017 1.391 . S
C2016 C2018 1.394 1_565 S
C2016 H2032 0.931 . S
C2017 C2016 1.391 . S
C2017 C2021 1.376 . S
C2018 C2016 1.394 1_545 S
C2018 C2019 1.369 . S
C2018 C2022 1.531 . S
C2019 C2018 1.369 . S
C2019 C2020 1.410 . S
C2019 C2027 1.503 . S
C2020 C2019 1.410 . S
C2020 C2021 1.392 1_545 S
C2020 C2023 1.511 . S
C2021 C2017 1.376 . S
C2021 C2020 1.392 1_565 S
C2021 H2033 0.929 . S
C2022 C2018 1.531 . S
C2022 H2034 0.960 . S
C2022 H2035 0.962 . S
C2022 H2036 0.960 . S
C2023 C2020 1.511 . S
C2023 H2037 0.961 . S
C2023 H2038 0.961 . S
C2023 H2039 0.961 . S
C2024 C2025 1.370 . S
C2024 C2026 1.363 . S
C2024 H2040 0.931 . S
C2025 C2024 1.370 . S
C2025 C2029 1.408 . S
C2026 C2024 1.363 . S
C2026 C2027 1.370 . S
C2026 C2030 1.524 . S
C2027 C2019 1.503 . S
C2027 C2026 1.370 . S
C2027 C2028 1.403 . S
C2028 C2027 1.403 . S
C2028 C2029 1.404 . S
C2028 C2031 1.539 . S
C2029 C2025 1.408 . S
C2029 C2028 1.404 . S
C2029 H2041 0.930 . S
C2030 C2026 1.524 . S
C2030 H2042 0.956 . S
C2030 H2043 0.961 . S
C2030 H2044 0.961 . S
C2031 C2028 1.539 . S
C2031 H2045 0.958 . S
C2031 H2046 0.961 . S
C2031 H2047 0.960 . S
H2032 C2016 0.931 . S
H2033 C2021 0.929 . S
H2034 C2022 0.960 . S
H2035 C2022 0.962 . S
H2036 C2022 0.960 . S
H2037 C2023 0.961 . S
H2038 C2023 0.961 . S
H2039 C2023 0.961 . S
H2040 C2024 0.931 . S
H2041 C2029 0.930 . S
H2042 C2030 0.956 . S
H2043 C2030 0.961 . S
H2044 C2030 0.961 . S
H2045 C2031 0.958 . S
H2046 C2031 0.961 . S
H2047 C2031 0.960 . S
C2048 C2049 1.391 . S
C2048 C2050 1.394 . S
C2048 H2064 0.931 . S
C2049 C2048 1.391 . S
C2049 C2053 1.376 . S
C2050 C2048 1.394 . S
C2050 C2051 1.369 . S
C2050 C2054 1.531 . S
C2051 C2050 1.369 . S
C2051 C2052 1.410 . S
C2051 C2059 1.503 . S
C2052 C2051 1.410 . S
C2052 C2053 1.392 . S
C2052 C2055 1.511 . S
C2053 C2049 1.376 . S
C2053 C2052 1.392 . S
C2053 H2065 0.929 . S
C2054 C2050 1.531 . S
C2054 H2066 0.960 . S
C2054 H2067 0.962 . S
C2054 H2068 0.960 . S
C2055 C2052 1.511 . S
C2055 H2069 0.961 . S
C2055 H2070 0.961 . S
C2055 H2071 0.961 . S
C2056 C2057 1.382 . S
C2056 C2058 1.346 1_545 S
C2056 H2072 0.936 . S
C2057 C2056 1.382 . S
C2057 C2061 1.408 . S
C2058 C2056 1.346 1_565 S
C2058 C2059 1.370 . S
C2058 C2062 1.524 . S
C2059 C2051 1.503 . S
C2059 C2058 1.370 . S
C2059 C2060 1.403 . S
C2060 C2059 1.403 . S
C2060 C2061 1.404 1_565 S
C2060 C2063 1.539 . S
C2061 C2057 1.408 . S
C2061 C2060 1.404 1_545 S
C2061 H2073 0.930 . S
C2062 C2058 1.524 . S
C2062 H2074 0.956 . S
C2062 H2075 0.961 . S
C2062 H2076 0.961 . S
C2063 C2060 1.539 . S
C2063 H2077 0.958 . S
C2063 H2078 0.961 . S
C2063 H2079 0.960 . S
H2064 C2048 0.931 . S
H2065 C2053 0.929 . S
H2066 C2054 0.960 . S
H2067 C2054 0.962 . S
H2068 C2054 0.960 . S
H2069 C2055 0.961 . S
H2070 C2055 0.961 . S
H2071 C2055 0.961 . S
H2072 C2056 0.936 . S
H2073 C2061 0.930 . S
H2074 C2062 0.956 . S
H2075 C2062 0.961 . S
H2076 C2062 0.961 . S
H2077 C2063 0.958 . S
H2078 C2063 0.961 . S
H2079 C2063 0.960 . S
C2080 C2081 1.391 . S
C2080 C2082 1.394 . S
C2080 H2096 0.931 . S
C2081 C2080 1.391 . S
C2081 C2085 1.376 . S
C2082 C2080 1.394 . S
C2082 C2083 1.369 . S
C2082 C2086 1.531 . S
C2083 C2082 1.369 . S
C2083 C2084 1.410 . S
C2083 C2091 1.503 . S
C2084 C2083 1.410 . S
C2084 C2085 1.392 . S
C2084 C2087 1.511 . S
C2085 C2081 1.376 . S
C2085 C2084 1.392 . S
C2085 H2097 0.929 . S
C2086 C2082 1.531 . S
C2086 H2098 0.960 . S
C2086 H2099 0.962 . S
C2086 H2100 0.960 . S
C2087 C2084 1.511 . S
C2087 H2101 0.961 . S
C2087 H2102 0.961 . S
C2087 H2103 0.961 . S
C2088 C2089 1.370 . S
C2088 C2090 1.363 1_565 S
C2088 H2104 0.931 . S
C2089 C2088 1.370 . S
C2089 C2093 1.408 . S
C2090 C2088 1.363 1_545 S
C2090 C2091 1.370 . S
C2090 C2094 1.524 . S
C2091 C2083 1.503 . S
C2091 C2090 1.370 . S
C2091 C2092 1.403 . S
C2092 C2091 1.403 . S
C2092 C2093 1.404 1_545 S
C2092 C2095 1.539 . S
C2093 C2089 1.408 . S
C2093 C2092 1.404 1_565 S
C2093 H2105 0.930 . S
C2094 C2090 1.524 . S
C2094 H2106 0.956 . S
C2094 H2107 0.961 . S
C2094 H2108 0.961 . S
C2095 C2092 1.539 . S
C2095 H2109 0.958 . S
C2095 H2110 0.961 . S
C2095 H2111 0.960 . S
H2096 C2080 0.931 . S
H2097 C2085 0.929 . S
H2098 C2086 0.960 . S
H2099 C2086 0.962 . S
H2100 C2086 0.960 . S
H2101 C2087 0.961 . S
H2102 C2087 0.961 . S
H2103 C2087 0.961 . S
H2104 C2088 0.931 . S
H2105 C2093 0.930 . S
H2106 C2094 0.956 . S
H2107 C2094 0.961 . S
H2108 C2094 0.961 . S
H2109 C2095 0.958 . S
H2110 C2095 0.961 . S
H2111 C2095 0.960 . S
C2112 C2113 1.391 . S
C2112 C2114 1.394 1_565 S
C2112 H2128 0.931 . S
C2113 C2112 1.391 . S
C2113 C2117 1.376 . S
C2114 C2112 1.394 1_545 S
C2114 C2115 1.369 . S
C2114 C2118 1.531 . S
C2115 C2114 1.369 . S
C2115 C2116 1.410 . S
C2115 C2123 1.503 . S
C2116 C2115 1.410 . S
C2116 C2117 1.392 1_545 S
C2116 C2119 1.511 . S
C2117 C2113 1.376 . S
C2117 C2116 1.392 1_565 S
C2117 H2129 0.929 . S
C2118 C2114 1.531 . S
C2118 H2130 0.960 . S
C2118 H2131 0.962 . S
C2118 H2132 0.960 . S
C2119 C2116 1.511 . S
C2119 H2133 0.961 . S
C2119 H2134 0.961 . S
C2119 H2135 0.961 . S
C2120 C2121 1.370 . S
C2120 C2122 1.363 . S
C2120 H2136 0.931 . S
C2121 C2120 1.370 . S
C2121 C2125 1.408 . S
C2122 C2120 1.363 . S
C2122 C2123 1.370 . S
C2122 C2126 1.524 . S
C2123 C2115 1.503 . S
C2123 C2122 1.370 . S
C2123 C2124 1.403 . S
C2124 C2123 1.403 . S
C2124 C2125 1.404 . S
C2124 C2127 1.539 . S
C2125 C2121 1.408 . S
C2125 C2124 1.404 . S
C2125 H2137 0.930 . S
C2126 C2122 1.524 . S
C2126 H2138 0.956 . S
C2126 H2139 0.961 . S
C2126 H2140 0.961 . S
C2127 C2124 1.539 . S
C2127 H2141 0.958 . S
C2127 H2142 0.961 . S
C2127 H2143 0.960 . S
H2128 C2112 0.931 . S
H2129 C2117 0.929 . S
H2130 C2118 0.960 . S
H2131 C2118 0.962 . S
H2132 C2118 0.960 . S
H2133 C2119 0.961 . S
H2134 C2119 0.961 . S
H2135 C2119 0.961 . S
H2136 C2120 0.931 . S
H2137 C2125 0.930 . S
H2138 C2126 0.956 . S
H2139 C2126 0.961 . S
H2140 C2126 0.961 . S
H2141 C2127 0.958 . S
H2142 C2127 0.961 . S
H2143 C2127 0.960 . S
C2144 C2145 1.391 . S
C2144 C2146 1.394 . S
C2144 H2160 0.931 . S
C2145 C2144 1.391 . S
C2145 C2149 1.376 . S
C2146 C2144 1.394 . S
C2146 C2147 1.369 . S
C2146 C2150 1.531 . S
C2147 C2146 1.369 . S
C2147 C2148 1.410 . S
C2147 C2155 1.503 . S
C2148 C2147 1.410 . S
C2148 C2149 1.392 . S
C2148 C2151 1.511 . S
C2149 C2145 1.376 . S
C2149 C2148 1.392 . S
C2149 H2161 0.929 . S
C2150 C2146 1.531 . S
C2150 H2162 0.960 . S
C2150 H2163 0.962 . S
C2150 H2164 0.960 . S
C2151 C2148 1.511 . S
C2151 H2165 0.961 . S
C2151 H2166 0.961 . S
C2151 H2167 0.961 . S
C2152 C2153 1.370 . S
C2152 C2154 1.363 1_545 S
C2152 H2168 0.931 . S
C2153 C2152 1.370 . S
C2153 C2157 1.408 . S
C2154 C2152 1.363 1_565 S
C2154 C2155 1.370 . S
C2154 C2158 1.524 . S
C2155 C2147 1.503 . S
C2155 C2154 1.370 . S
C2155 C2156 1.403 . S
C2156 C2155 1.403 . S
C2156 C2157 1.404 1_565 S
C2156 C2159 1.539 . S
C2157 C2153 1.408 . S
C2157 C2156 1.404 1_545 S
C2157 H2169 0.930 . S
C2158 C2154 1.524 . S
C2158 H2170 0.956 . S
C2158 H2171 0.961 . S
C2158 H2172 0.961 . S
C2159 C2156 1.539 . S
C2159 H2173 0.958 . S
C2159 H2174 0.961 . S
C2159 H2175 0.960 . S
H2160 C2144 0.931 . S
H2161 C2149 0.929 . S
H2162 C2150 0.960 . S
H2163 C2150 0.962 . S
H2164 C2150 0.960 . S
H2165 C2151 0.961 . S
H2166 C2151 0.961 . S
H2167 C2151 0.961 . S
H2168 C2152 0.931 . S
H2169 C2157 0.930 . S
H2170 C2158 0.956 . S
H2171 C2158 0.961 . S
H2172 C2158 0.961 . S
H2173 C2159 0.958 . S
H2174 C2159 0.961 . S
H2175 C2159 0.960 . S
C641 C19 1.538 . S
C649 C379 1.546 . S
C673 C59 1.537 . S
C681 C339 1.546 . S
C705 C459 1.558 . S
C713 C99 1.555 . S
C737 C139 1.535 . S
C745 C419 1.546 . S
C769 C530 1.548 . S
C777 C170 1.551 . S
C801 C490 1.546 . S
C809 C210 1.551 . S
C833 C610 1.558 . S
C841 C250 1.556 . S
C865 C290 1.554 . S
C873 C570 1.554 . S
C897 C98 1.684 . S
C905 C18 1.680 . S
C929 C138 1.687 . S
C937 C58 1.683 . S
C961 C249 1.667 . S
C969 C169 1.673 . S
C993 C209 1.667 . S
C1001 C289 1.673 . S
C1025 C418 1.682 . S
C1033 C338 1.679 . S
C1057 C458 1.682 . S
C1065 C378 1.679 . S
C1089 C489 1.661 . S
C1097 C569 1.674 . S
C1121 C529 1.682 . S
C1129 C609 1.677 . S
C1153 C218 1.481 . S
C1161 C9 1.505 . S
C1185 C178 1.540 . S
C1193 C49 1.530 . S
C1217 C89 1.494 . S
C1225 C298 1.512 . S
C1249 C258 1.487 . S
C1257 C129 1.509 . S
C1281 C329 1.496 . S
C1289 C538 1.513 . S
C1313 C498 1.481 . S
C1321 C369 1.505 . S
C1345 C409 1.492 . S
C1353 C618 1.511 . S
C1377 C578 1.548 . S
C1385 C449 1.532 . S
C1409 C50 1.609 . S
C1417 C10 1.638 . S
C1441 C130 1.608 . S
C1449 C90 1.638 . S
C1473 C219 1.615 . S
C1481 C179 1.636 . S
C1505 C259 1.597 . S
C1513 C299 1.632 . S
C1537 C370 1.622 . S
C1545 C330 1.636 . S
C1569 C450 1.598 . S
C1577 C410 1.628 . S
C1601 C499 1.595 . S
C1609 C539 1.637 . S
C1633 C579 1.595 . S
C1641 C619 1.634 . S
C1665 C6 1.617 . S
C1673 C15 1.642 . S
C1697 C46 1.639 . S
C1705 C55 1.631 . S
C1729 C86 1.618 . S
C1737 C95 1.642 . S
C1761 C135 1.646 . S
C1769 C126 1.630 . S
C1793 C175 1.613 . S
C1801 C166 1.643 . S
C1825 C206 1.623 . S
C1833 C215 1.640 . S
C1857 C255 1.625 . S
C1865 C246 1.639 . S
C1889 C295 1.623 . S
C1897 C286 1.640 . S
C1921 C335 1.649 . S
C1929 C326 1.628 . S
C1953 C366 1.627 . S
C1961 C375 1.636 . S
C1985 C415 1.649 . S
C1993 C406 1.628 . S
C2017 C455 1.641 . S
C2025 C446 1.633 . S
C2049 C495 1.642 . S
C2057 C486 1.630 . S
C2081 C535 1.622 . S
C2089 C526 1.640 . S
C2113 C566 1.634 . S
C2121 C575 1.633 . S
C2145 C615 1.613 . S
C2153 C606 1.643 . S
