# Generated by pormake.
# Topology ukt, (4)-cn, num edge types: 1
# Building blocks:
#     Node 0, Type 0, BuildingBlock: GALJAG_clean_sbu_0, # of connection points: 4
#     Node 1, Type 0, BuildingBlock: GALJAG_clean_sbu_0, # of connection points: 4
#     Node 2, Type 0, BuildingBlock: GALJAG_clean_sbu_0, # of connection points: 4
#     Node 3, Type 0, BuildingBlock: GALJAG_clean_sbu_0, # of connection points: 4
#     Node 4, Type 0, BuildingBlock: GALJAG_clean_sbu_0, # of connection points: 4
#     Node 5, Type 0, BuildingBlock: GALJAG_clean_sbu_0, # of connection points: 4
#     Node 6, Type 0, BuildingBlock: GALJAG_clean_sbu_0, # of connection points: 4
#     Node 7, Type 0, BuildingBlock: GALJAG_clean_sbu_0, # of connection points: 4
#     Node 8, Type 0, BuildingBlock: GALJAG_clean_sbu_0, # of connection points: 4
#     Node 9, Type 0, BuildingBlock: GALJAG_clean_sbu_0, # of connection points: 4
#     Node 10, Type 0, BuildingBlock: GALJAG_clean_sbu_0, # of connection points: 4
#     Node 11, Type 0, BuildingBlock: GALJAG_clean_sbu_0, # of connection points: 4
#     Node 12, Type 0, BuildingBlock: GALJAG_clean_sbu_0, # of connection points: 4
#     Node 13, Type 0, BuildingBlock: GALJAG_clean_sbu_0, # of connection points: 4
#     Node 14, Type 0, BuildingBlock: GALJAG_clean_sbu_0, # of connection points: 4
#     Node 15, Type 0, BuildingBlock: GALJAG_clean_sbu_0, # of connection points: 4
#     Edge 16, Type (0, 0), BuildingBlock: EYOCIG_clean_linker_4, # of connection points: 2
#     Edge 17, Type (0, 0), BuildingBlock: EYOCIG_clean_linker_4, # of connection points: 2
#     Edge 18, Type (0, 0), BuildingBlock: EYOCIG_clean_linker_4, # of connection points: 2
#     Edge 19, Type (0, 0), BuildingBlock: EYOCIG_clean_linker_4, # of connection points: 2
#     Edge 20, Type (0, 0), BuildingBlock: EYOCIG_clean_linker_4, # of connection points: 2
#     Edge 21, Type (0, 0), BuildingBlock: EYOCIG_clean_linker_4, # of connection points: 2
#     Edge 22, Type (0, 0), BuildingBlock: EYOCIG_clean_linker_4, # of connection points: 2
#     Edge 23, Type (0, 0), BuildingBlock: EYOCIG_clean_linker_4, # of connection points: 2
#     Edge 24, Type (0, 0), BuildingBlock: EYOCIG_clean_linker_4, # of connection points: 2
#     Edge 25, Type (0, 0), BuildingBlock: EYOCIG_clean_linker_4, # of connection points: 2
#     Edge 26, Type (0, 0), BuildingBlock: EYOCIG_clean_linker_4, # of connection points: 2
#     Edge 27, Type (0, 0), BuildingBlock: EYOCIG_clean_linker_4, # of connection points: 2
#     Edge 28, Type (0, 0), BuildingBlock: EYOCIG_clean_linker_4, # of connection points: 2
#     Edge 29, Type (0, 0), BuildingBlock: EYOCIG_clean_linker_4, # of connection points: 2
#     Edge 30, Type (0, 0), BuildingBlock: EYOCIG_clean_linker_4, # of connection points: 2
#     Edge 31, Type (0, 0), BuildingBlock: EYOCIG_clean_linker_4, # of connection points: 2
#     Edge 32, Type (0, 0), BuildingBlock: EYOCIG_clean_linker_4, # of connection points: 2
#     Edge 33, Type (0, 0), BuildingBlock: EYOCIG_clean_linker_4, # of connection points: 2
#     Edge 34, Type (0, 0), BuildingBlock: EYOCIG_clean_linker_4, # of connection points: 2
#     Edge 35, Type (0, 0), BuildingBlock: EYOCIG_clean_linker_4, # of connection points: 2
#     Edge 36, Type (0, 0), BuildingBlock: EYOCIG_clean_linker_4, # of connection points: 2
#     Edge 37, Type (0, 0), BuildingBlock: EYOCIG_clean_linker_4, # of connection points: 2
#     Edge 38, Type (0, 0), BuildingBlock: EYOCIG_clean_linker_4, # of connection points: 2
#     Edge 39, Type (0, 0), BuildingBlock: EYOCIG_clean_linker_4, # of connection points: 2
#     Edge 40, Type (0, 0), BuildingBlock: EYOCIG_clean_linker_4, # of connection points: 2
#     Edge 41, Type (0, 0), BuildingBlock: EYOCIG_clean_linker_4, # of connection points: 2
#     Edge 42, Type (0, 0), BuildingBlock: EYOCIG_clean_linker_4, # of connection points: 2
#     Edge 43, Type (0, 0), BuildingBlock: EYOCIG_clean_linker_4, # of connection points: 2
#     Edge 44, Type (0, 0), BuildingBlock: EYOCIG_clean_linker_4, # of connection points: 2
#     Edge 45, Type (0, 0), BuildingBlock: EYOCIG_clean_linker_4, # of connection points: 2
#     Edge 46, Type (0, 0), BuildingBlock: EYOCIG_clean_linker_4, # of connection points: 2
#     Edge 47, Type (0, 0), BuildingBlock: EYOCIG_clean_linker_4, # of connection points: 2
# Relax obj value: 0.210
# Max RMSD: 0.110
# Mean RMSD: 0.110
data_MOF--net-ukt--node1-GALJAG_clean_sbu_0--edge1-EYOCIG_clean_linker_4
_symmetry_space_group_name_H-M    P1
_symmetry_Int_Tables_number       1
_symmetry_cell_setting            triclinic
loop_
_symmetry_equiv_pos_as_xyz
'x, y, z'
_cell_length_a     33.705823
_cell_length_b     33.709844
_cell_length_c     26.705022
_cell_angle_alpha  89.943587
_cell_angle_beta   89.972235
_cell_angle_gamma 90.009588
loop_
_atom_site_label
_atom_site_type_symbol
_atom_site_fract_x
_atom_site_fract_y
_atom_site_fract_z
_atom_type_partial_charge
In0 In 0.52408 0.15696 0.07367 0.0
O1 O 0.58097 0.12794 0.10039 0.0
O2 O 0.57222 0.13469 0.02141 0.0
C3 C 0.49753 0.18775 0.16014 0.0
C4 C 0.48954 0.08857 0.0475 0.0
C5 C 0.53432 0.22698 0.02871 0.0
O6 O 0.53234 0.17468 0.15486 0.0
O7 O 0.47484 0.18296 0.12296 0.0
O8 O 0.50295 0.20707 0.02152 0.0
O9 O 0.55995 0.21117 0.05652 0.0
C10 C 0.5934 0.12133 0.05653 0.0
O11 O 0.48844 0.11858 0.01902 0.0
O12 O 0.50248 0.095 0.09098 0.0
In13 In 0.33069 0.52393 0.07303 0.0
O14 O 0.35918 0.58161 0.09775 0.0
O15 O 0.35341 0.57074 0.01906 0.0
C16 C 0.30008 0.49795 0.15993 0.0
C17 C 0.39932 0.48907 0.0486 0.0
C18 C 0.26069 0.53388 0.02793 0.0
O19 O 0.31315 0.53273 0.15424 0.0
O20 O 0.3047 0.47506 0.12291 0.0
O21 O 0.28078 0.50263 0.02074 0.0
O22 O 0.27628 0.55952 0.05591 0.0
C23 C 0.36627 0.59289 0.05348 0.0
O24 O 0.36938 0.48695 0.02012 0.0
O25 O 0.39273 0.50333 0.09139 0.0
In26 In 0.9637 0.33084 0.0734 0.0
O27 O 0.90634 0.35932 0.09936 0.0
O28 O 0.91654 0.35416 0.02045 0.0
C29 C 0.98998 0.29964 0.15977 0.0
C30 C -0.00152 0.39957 0.04919 0.0
C31 C 0.95333 0.26129 0.02743 0.0
O32 O 0.95517 0.31269 0.15444 0.0
O33 O 0.01276 0.30451 0.12265 0.0
O34 O 0.98466 0.28131 0.02034 0.0
O35 O 0.92785 0.27671 0.05579 0.0
C36 C 0.89474 0.36684 0.05536 0.0
O37 O 0.00027 0.36985 0.02034 0.0
O38 O 0.98468 0.39267 0.09217 0.0
In39 In 0.15712 0.96411 0.0729 0.0
O40 O 0.11848 0.00082 0.01958 0.0
O41 O 0.09499 0.98466 0.09093 0.0
C42 C 0.22725 0.95424 0.02818 0.0
C43 C 0.12194 0.89494 0.05375 0.0
C44 C 0.18765 0.99018 0.15967 0.0
O45 O 0.20714 0.98546 0.02074 0.0
O46 O 0.21158 0.92859 0.05614 0.0
O47 O 0.17449 0.95543 0.15417 0.0
O48 O 0.1831 0.01303 0.12255 0.0
C49 C 0.08848 -0.00125 0.04801 0.0
O50 O 0.12871 0.90646 0.09796 0.0
O51 O 0.13489 0.91699 0.01921 0.0
In52 In 0.52409 0.33094 0.44866 0.0
O53 O 0.5818 0.35933 0.42367 0.0
O54 O 0.57089 0.35372 0.50241 0.0
C55 C 0.49764 0.29972 0.36244 0.0
C56 C 0.48929 0.39967 0.47266 0.0
C57 C 0.53493 0.26124 0.49411 0.0
O58 O 0.53228 0.31333 0.36739 0.0
O59 O 0.47506 0.30415 0.39983 0.0
O60 O 0.50372 0.28126 0.50195 0.0
O61 O 0.56006 0.27673 0.46525 0.0
C62 C 0.59309 0.36646 0.4679 0.0
O63 O 0.48693 0.36975 0.50122 0.0
O64 O 0.50374 0.39302 0.42998 0.0
In65 In 0.15691 0.52437 0.44869 0.0
O66 O 0.12793 0.58135 0.42204 0.0
O67 O 0.13427 0.57222 0.50101 0.0
C68 C 0.1884 0.4977 0.36269 0.0
C69 C 0.08849 0.48956 0.47429 0.0
C70 C 0.22651 0.53516 0.49427 0.0
O71 O 0.17489 0.53238 0.36751 0.0
O72 O 0.18371 0.47516 0.40009 0.0
O73 O 0.20659 0.50383 0.50176 0.0
O74 O 0.21095 0.56046 0.46574 0.0
C75 C 0.1211 0.59357 0.46593 0.0
O76 O 0.11841 0.4883 0.50287 0.0
O77 O 0.09505 0.5028 0.43094 0.0
In78 In 0.96348 0.15708 0.44907 0.0
O79 O -0.00048 0.11813 0.50269 0.0
O80 O 0.98478 0.09528 0.43062 0.0
C81 C 0.9534 0.2267 0.49491 0.0
C82 C 0.89438 0.12113 0.46659 0.0
C83 C 0.98994 0.18841 0.36282 0.0
O84 O 0.98469 0.20663 0.5019 0.0
O85 O 0.92776 0.21125 0.46682 0.0
O86 O 0.95508 0.17545 0.36811 0.0
O87 O 0.01269 0.18333 0.39989 0.0
C88 C -0.00191 0.08841 0.47383 0.0
O89 O 0.90634 0.12839 0.42267 0.0
O90 O 0.91587 0.13406 0.50163 0.0
In91 In 0.33053 0.9637 0.4487 0.0
O92 O 0.35906 0.90649 0.42233 0.0
O93 O 0.35364 0.91618 0.50129 0.0
C94 C 0.2991 0.99009 0.3625 0.0
C95 C 0.39929 -0.00157 0.47304 0.0
C96 C 0.26096 0.95337 0.49486 0.0
O97 O 0.31225 0.9553 0.36773 0.0
O98 O 0.30404 0.01282 0.3996 0.0
O99 O 0.28101 0.98468 0.50186 0.0
O100 O 0.27638 0.92787 0.46655 0.0
C101 C 0.3664 0.89459 0.46625 0.0
O102 O 0.36956 -1e-05 0.50195 0.0
O103 O 0.39241 0.98486 0.42998 0.0
In104 In 0.46329 0.83113 0.94855 0.0
O105 O 0.40602 0.86022 0.92351 0.0
O106 O 0.41657 0.85423 1.00227 0.0
C107 C 0.48895 0.80024 0.86179 0.0
C108 C 0.49868 0.89945 0.973 0.0
C109 C 0.45264 0.76107 0.99328 0.0
O110 O 0.45431 0.81372 0.86737 0.0
O111 O 0.51188 0.80464 0.89881 0.0
O112 O 0.48416 0.78075 1.00047 0.0
O113 O 0.42705 0.77715 0.96564 0.0
C114 C 0.39469 0.86739 0.96771 0.0
O115 O 0.50025 0.86958 1.0017 0.0
O116 O 0.48478 0.89286 0.93002 0.0
In117 In 0.65723 0.46346 0.94999 0.0
O118 O 0.62843 0.40617 0.92448 0.0
O119 O 0.63434 0.4163 1.00331 0.0
C120 C 0.68841 0.48931 0.86339 0.0
C121 C 0.58861 0.49825 0.9745 0.0
C122 C 0.72704 0.45343 0.99541 0.0
O123 O 0.67532 0.45453 0.86902 0.0
O124 O 0.68348 0.51228 0.90026 0.0
O125 O 0.70708 0.48481 1.00229 0.0
O126 O 0.71136 0.42768 0.96769 0.0
C127 C 0.62129 0.39456 0.96859 0.0
O128 O 0.61842 0.49995 1.00323 0.0
O129 O 0.59538 0.48457 0.93145 0.0
In130 In 0.02431 0.65678 0.94878 0.0
O131 O 0.08114 0.6272 0.92274 0.0
O132 O 0.07176 0.6339 1.00162 0.0
C133 C -0.00232 0.68771 0.8624 0.0
C134 C 0.989 0.58876 0.97483 0.0
C135 C 0.03567 0.72674 0.99325 0.0
O136 O 0.03234 0.67416 0.86736 0.0
O137 O 0.97517 0.68336 0.89988 0.0
O138 O 0.00422 0.70709 1.00113 0.0
O139 O 0.06084 0.71072 0.96496 0.0
C140 C 0.0931 0.62038 0.96677 0.0
O141 O 0.98784 0.61883 1.00314 0.0
O142 O 0.0024 0.59501 0.93149 0.0
In143 In 0.83061 0.02473 0.94909 0.0
O144 O 0.86945 0.98854 1.0027 0.0
O145 O 0.89241 0.00328 0.93062 0.0
C146 C 0.76114 0.03509 0.99538 0.0
C147 C 0.86662 0.09384 0.96632 0.0
C148 C 0.79895 -0.00154 0.86298 0.0
O149 O 0.7811 0.00371 1.00227 0.0
O150 O 0.77661 0.06065 0.96711 0.0
O151 O 0.81216 0.03323 0.86815 0.0
O152 O 0.80396 0.97569 0.90009 0.0
C153 C 0.89921 0.98991 0.97383 0.0
O154 O 0.85946 0.08179 0.92244 0.0
O155 O 0.85363 0.0724 1.00144 0.0
In156 In 0.46343 0.65733 0.57251 0.0
O157 O 0.49972 0.61875 0.51873 0.0
O158 O 0.48462 0.59534 0.59045 0.0
C159 C 0.45322 0.72707 0.52681 0.0
C160 C 0.39425 0.62171 0.55478 0.0
C161 C 0.4893 0.68846 0.65906 0.0
O162 O 0.48464 0.70717 0.51994 0.0
O163 O 0.42757 0.71142 0.55477 0.0
O164 O 0.4546 0.67518 0.65356 0.0
O165 O 0.51223 0.68375 0.62207 0.0
C166 C 0.49815 0.58879 0.54727 0.0
O167 O 0.40628 0.62857 0.59875 0.0
O168 O 0.41577 0.6348 0.51981 0.0
In169 In 0.83114 0.46327 0.57409 0.0
O170 O 0.86944 0.49999 0.52037 0.0
O171 O 0.89288 0.48496 0.59209 0.0
C172 C 0.76122 0.4524 0.52922 0.0
C173 C 0.86735 0.39446 0.5559 0.0
C174 C 0.80019 0.48939 0.66061 0.0
O175 O 0.78097 0.48384 0.52175 0.0
O176 O 0.77713 0.427 0.55729 0.0
O177 O 0.81372 0.45476 0.65537 0.0
O178 O 0.80454 0.51212 0.62334 0.0
C179 C 0.89936 0.49864 0.54895 0.0
O180 O 0.86022 0.40618 0.59994 0.0
O181 O 0.85426 0.4161 0.52106 0.0
In182 In 0.02409 0.83085 0.5734 0.0
O183 O 0.98762 0.8692 0.51951 0.0
O184 O 0.00239 0.89264 0.59126 0.0
C185 C 0.03495 0.76136 0.52743 0.0
C186 C 0.09314 0.86711 0.5561 0.0
C187 C -0.00243 0.79942 0.65964 0.0
O188 O 0.00357 0.78124 0.52024 0.0
O189 O 0.06026 0.77687 0.55594 0.0
O190 O 0.0323 0.81277 0.65454 0.0
O191 O 0.97495 0.80415 0.62237 0.0
C192 C 0.98887 0.89912 0.54805 0.0
O193 O 0.081 0.85999 0.59999 0.0
O194 O 0.0718 0.85401 0.52102 0.0
In195 In 0.65715 0.02424 0.57298 0.0
O196 O 0.62848 0.08145 0.59909 0.0
O197 O 0.63483 0.07205 0.52019 0.0
C198 C 0.68775 -0.00182 0.65986 0.0
C199 C 0.58859 0.98968 0.54732 0.0
C200 C 0.72705 0.03412 0.5275 0.0
O201 O 0.67483 0.03299 0.65412 0.0
O202 O 0.68299 0.97527 0.6229 0.0
O203 O 0.70704 0.00277 0.5207 0.0
O204 O 0.71146 0.05985 0.55532 0.0
C205 C 0.62173 0.09356 0.55511 0.0
O206 O 0.61862 0.98814 0.51892 0.0
O207 O 0.59503 0.00316 0.59053 0.0
C208 C 0.555 0.29719 0.99652 0.0
C209 C 0.54135 0.26553 1.00818 0.0
C210 C 0.57678 0.33195 0.98655 0.0
C211 C 0.59713 0.36058 0.97858 0.0
C212 C 0.15583 0.57599 0.98465 0.0
C213 C 0.12716 0.59628 0.97661 0.0
C214 C 0.19064 0.55437 0.99496 0.0
C215 C 0.22227 0.54086 1.007 0.0
C216 C 0.91086 0.1568 0.98347 0.0
C217 C 0.89065 0.12803 0.97569 0.0
C218 C 0.93252 0.19157 0.99375 0.0
C219 C 0.94616 0.22306 1.00607 0.0
C220 C 0.33223 0.91198 0.98602 0.0
C221 C 0.3608 0.89159 0.97795 0.0
C222 C 0.29748 0.93375 0.99601 0.0
C223 C 0.2658 0.94733 1.00762 0.0
C224 C 0.5562 0.19148 0.52732 0.0
C225 C 0.5424 0.22299 0.51528 0.0
C226 C 0.57787 0.15669 0.5375 0.0
C227 C 0.59792 0.12784 0.54542 0.0
C228 C 0.33116 0.5778 0.53737 0.0
C229 C 0.36 0.59787 0.54518 0.0
C230 C 0.29634 0.55619 0.52729 0.0
C231 C 0.26481 0.54248 0.5153 0.0
C232 C 0.91151 0.33159 0.53814 0.0
C233 C 0.89133 0.36033 0.5461 0.0
C234 C 0.93303 0.29672 0.52794 0.0
C235 C 0.9465 0.2651 0.5159 0.0
C236 C 0.15622 0.91121 0.53885 0.0
C237 C 0.1274 0.89106 0.54668 0.0
C238 C 0.1911 0.93274 0.52853 0.0
C239 C 0.22267 0.94628 0.5162 0.0
C240 C 0.43181 0.69073 0.02503 0.0
C241 C 0.44545 0.72243 0.0135 0.0
C242 C 0.41022 0.65583 0.03496 0.0
C243 C 0.39012 0.62703 0.04306 0.0
C244 C 0.79717 0.43295 0.02793 0.0
C245 C 0.76553 0.44653 0.01613 0.0
C246 C 0.83197 0.41124 0.03789 0.0
C247 C 0.86067 0.39094 0.04571 0.0
C248 C 0.05695 0.79684 0.02522 0.0
C249 C 0.04323 0.76522 0.01361 0.0
C250 C 0.07843 0.83175 0.03529 0.0
C251 C 0.09833 0.86065 0.04345 0.0
C252 C 0.65653 0.07737 0.0393 0.0
C253 C 0.62768 0.09746 0.04712 0.0
C254 C 0.69135 0.05579 0.02901 0.0
C255 C 0.72287 0.04218 0.01671 0.0
C256 C 0.43244 0.79695 0.4936 0.0
C257 C 0.44614 0.76542 0.50572 0.0
C258 C 0.41071 0.8317 0.48347 0.0
C259 C 0.39046 0.86044 0.4757 0.0
C260 C 0.69111 0.43149 0.49683 0.0
C261 C 0.72275 0.44507 0.50866 0.0
C262 C 0.6562 0.41007 0.48652 0.0
C263 C 0.62734 0.39013 0.47822 0.0
C264 C 0.07735 0.65683 0.48313 0.0
C265 C 0.09734 0.62792 0.47539 0.0
C266 C 0.05592 0.69173 0.49349 0.0
C267 C 0.04232 0.7232 0.50599 0.0
C268 C 0.79695 0.05476 0.49417 0.0
C269 C 0.76541 0.0411 0.50635 0.0
C270 C 0.83165 0.07657 0.48392 0.0
C271 C 0.86031 0.09693 0.47608 0.0
C272 C 0.49742 0.97393 1.00353 0.0
C273 C 0.49882 0.93927 0.99227 0.0
C274 C 0.49151 0.01428 0.01626 0.0
C275 C 0.48987 0.04885 0.02788 0.0
C276 C 0.47375 0.49041 0.0178 0.0
C277 C 0.4391 0.48892 0.02914 0.0
C278 C 0.51412 0.49639 1.00512 0.0
C279 C 0.54876 0.49803 0.99376 0.0
C280 C 0.99063 0.5145 1.00627 0.0
C281 C 0.98906 0.54909 0.99468 0.0
C282 C -0.00333 0.47415 0.01893 0.0
C283 C -0.0017 0.43947 0.03011 0.0
C284 C 0.0141 -0.00256 0.01705 0.0
C285 C 0.04873 -0.00111 0.02848 0.0
C286 C 0.97374 0.99159 1.00432 0.0
C287 C 0.9391 0.99008 0.99295 0.0
C288 C 0.49645 0.51445 0.51619 0.0
C289 C 0.498 0.54903 0.52778 0.0
C290 C 0.49057 0.47411 0.50335 0.0
C291 C 0.48912 0.43947 0.492 0.0
C292 C 0.01412 0.4914 0.50533 0.0
C293 C 0.04873 0.4898 0.4938 0.0
C294 C 0.97378 0.49733 0.51808 0.0
C295 C 0.93914 0.49875 0.52948 0.0
C296 C 0.9902 0.97352 0.51704 0.0
C297 C 0.9888 0.93889 0.52853 0.0
C298 C -0.00387 0.01387 0.50431 0.0
C299 C -0.00224 0.04851 0.49295 0.0
C300 C 0.51426 0.99119 0.51609 0.0
C301 C 0.54886 0.98971 0.52769 0.0
C302 C 0.47389 -0.00303 0.50331 0.0
C303 C 0.43922 -0.00161 0.49203 0.0
C304 C 0.48214 0.25588 0.28288 0.0
C305 C 0.48709 0.27557 0.32011 0.0
C306 C 0.48205 0.23139 0.23986 0.0
C307 C 0.48689 0.21177 0.20255 0.0
C308 C 0.23242 0.4823 0.28324 0.0
C309 C 0.21266 0.48707 0.32047 0.0
C310 C 0.25684 0.48249 0.24012 0.0
C311 C 0.27629 0.48745 0.20265 0.0
C312 C 0.00557 0.25629 0.23978 0.0
C313 C 0.00066 0.27578 0.20235 0.0
C314 C 0.00559 0.23198 0.28301 0.0
C315 C 0.0007 0.21239 0.32037 0.0
C316 C 0.25536 0.00556 0.28284 0.0
C317 C 0.27502 0.00073 0.32013 0.0
C318 C 0.23098 0.00552 0.23972 0.0
C319 C 0.2115 0.00065 0.2023 0.0
C320 C 0.50402 0.75667 0.78186 0.0
C321 C 0.49917 0.77626 0.8192 0.0
C322 C 0.5042 0.73223 0.73882 0.0
C323 C 0.49959 0.71256 0.70152 0.0
C324 C 0.75659 0.50457 0.7405 0.0
C325 C 0.77617 0.49977 0.70313 0.0
C326 C 0.73214 0.50453 0.78358 0.0
C327 C 0.71247 0.49973 0.82089 0.0
C328 C 0.98204 0.75571 0.7394 0.0
C329 C 0.98692 0.77534 0.70206 0.0
C330 C 0.9821 0.7313 0.78256 0.0
C331 C 0.98705 0.71173 0.81993 0.0
C332 C 0.73086 0.98291 0.74016 0.0
C333 C 0.71148 0.98768 0.70262 0.0
C334 C 0.75517 0.98297 0.78337 0.0
C335 C 0.77485 0.98784 0.82063 0.0
loop_
_geom_bond_atom_site_label_1
_geom_bond_atom_site_label_2
_geom_bond_distance
_geom_bond_site_symmetry_2
_ccdc_geom_bond_type
In0 O1 2.294 . S
In0 O2 2.326 1_554 S
In0 O6 2.266 . S
In0 O7 2.326 . S
In0 O8 2.266 . S
In0 O9 2.326 . S
In0 O11 2.294 . S
In0 O12 2.326 . S
O1 In0 2.294 . S
O1 C10 1.240 . S
O2 In0 2.326 1_556 S
O2 C10 1.252 1_556 S
C3 O6 1.252 . S
C3 O7 1.260 . S
C4 O11 1.240 . S
C4 O12 1.252 . S
C5 O8 1.252 . S
C5 O9 1.260 . S
O6 In0 2.266 . S
O6 C3 1.252 . S
O7 In0 2.326 . S
O7 C3 1.260 . S
O8 In0 2.266 . S
O8 C5 1.252 . S
O9 In0 2.326 . S
O9 C5 1.260 . S
C10 O1 1.240 . S
C10 O2 1.252 1_554 S
O11 In0 2.294 . S
O11 C4 1.240 . S
O12 In0 2.326 . S
O12 C4 1.252 . S
In13 O14 2.294 . S
In13 O15 2.326 1_554 S
In13 O19 2.266 . S
In13 O20 2.326 . S
In13 O21 2.266 . S
In13 O22 2.326 . S
In13 O24 2.294 . S
In13 O25 2.326 . S
O14 In13 2.294 . S
O14 C23 1.240 . S
O15 In13 2.326 1_556 S
O15 C23 1.252 1_556 S
C16 O19 1.252 . S
C16 O20 1.260 . S
C17 O24 1.240 . S
C17 O25 1.252 . S
C18 O21 1.252 . S
C18 O22 1.260 . S
O19 In13 2.266 . S
O19 C16 1.252 . S
O20 In13 2.326 . S
O20 C16 1.260 . S
O21 In13 2.266 . S
O21 C18 1.252 . S
O22 In13 2.326 . S
O22 C18 1.260 . S
C23 O14 1.240 . S
C23 O15 1.252 1_554 S
O24 In13 2.294 . S
O24 C17 1.240 . S
O25 In13 2.326 . S
O25 C17 1.252 . S
In26 O27 2.294 . S
In26 O28 2.326 1_554 S
In26 O32 2.266 . S
In26 O33 2.326 1_655 S
In26 O34 2.266 . S
In26 O35 2.326 . S
In26 O37 2.294 1_655 S
In26 O38 2.326 . S
O27 In26 2.294 . S
O27 C36 1.240 . S
O28 In26 2.326 1_556 S
O28 C36 1.252 1_556 S
C29 O32 1.252 . S
C29 O33 1.260 1_655 S
C30 O37 1.240 . S
C30 O38 1.252 1_455 S
C31 O34 1.252 . S
C31 O35 1.260 . S
O32 In26 2.266 . S
O32 C29 1.252 . S
O33 In26 2.326 1_455 S
O33 C29 1.260 1_455 S
O34 In26 2.266 . S
O34 C31 1.252 . S
O35 In26 2.326 . S
O35 C31 1.260 . S
C36 O27 1.240 . S
C36 O28 1.252 1_554 S
O37 In26 2.294 1_455 S
O37 C30 1.240 . S
O38 In26 2.326 . S
O38 C30 1.252 1_655 S
In39 O40 2.294 1_565 S
In39 O41 2.326 . S
In39 O45 2.266 . S
In39 O46 2.326 . S
In39 O47 2.266 . S
In39 O48 2.326 1_565 S
In39 O50 2.294 . S
In39 O51 2.326 1_554 S
O40 In39 2.294 1_545 S
O40 C49 1.240 . S
O41 In39 2.326 . S
O41 C49 1.252 1_565 S
C42 O45 1.252 . S
C42 O46 1.260 . S
C43 O50 1.240 . S
C43 O51 1.252 1_554 S
C44 O47 1.252 . S
C44 O48 1.260 1_565 S
O45 In39 2.266 . S
O45 C42 1.252 . S
O46 In39 2.326 . S
O46 C42 1.260 . S
O47 In39 2.266 . S
O47 C44 1.252 . S
O48 In39 2.326 1_545 S
O48 C44 1.260 1_545 S
C49 O40 1.240 . S
C49 O41 1.252 1_545 S
O50 In39 2.294 . S
O50 C43 1.240 . S
O51 In39 2.326 1_556 S
O51 C43 1.252 1_556 S
In52 O53 2.294 . S
In52 O54 2.326 . S
In52 O58 2.266 . S
In52 O59 2.326 . S
In52 O60 2.266 . S
In52 O61 2.326 . S
In52 O63 2.294 . S
In52 O64 2.326 . S
O53 In52 2.294 . S
O53 C62 1.240 . S
O54 In52 2.326 . S
O54 C62 1.252 . S
C55 O58 1.252 . S
C55 O59 1.260 . S
C56 O63 1.240 . S
C56 O64 1.252 . S
C57 O60 1.252 . S
C57 O61 1.260 . S
O58 In52 2.266 . S
O58 C55 1.252 . S
O59 In52 2.326 . S
O59 C55 1.260 . S
O60 In52 2.266 . S
O60 C57 1.252 . S
O61 In52 2.326 . S
O61 C57 1.260 . S
C62 O53 1.240 . S
C62 O54 1.252 . S
O63 In52 2.294 . S
O63 C56 1.240 . S
O64 In52 2.326 . S
O64 C56 1.252 . S
In65 O66 2.294 . S
In65 O67 2.326 . S
In65 O71 2.266 . S
In65 O72 2.326 . S
In65 O73 2.266 . S
In65 O74 2.326 . S
In65 O76 2.294 . S
In65 O77 2.326 . S
O66 In65 2.294 . S
O66 C75 1.240 . S
O67 In65 2.326 . S
O67 C75 1.252 . S
C68 O71 1.252 . S
C68 O72 1.260 . S
C69 O76 1.240 . S
C69 O77 1.252 . S
C70 O73 1.252 . S
C70 O74 1.260 . S
O71 In65 2.266 . S
O71 C68 1.252 . S
O72 In65 2.326 . S
O72 C68 1.260 . S
O73 In65 2.266 . S
O73 C70 1.252 . S
O74 In65 2.326 . S
O74 C70 1.260 . S
C75 O66 1.240 . S
C75 O67 1.252 . S
O76 In65 2.294 . S
O76 C69 1.240 . S
O77 In65 2.326 . S
O77 C69 1.252 . S
In78 O79 2.294 1_655 S
In78 O80 2.326 . S
In78 O84 2.266 . S
In78 O85 2.326 . S
In78 O86 2.266 . S
In78 O87 2.326 1_655 S
In78 O89 2.294 . S
In78 O90 2.326 . S
O79 In78 2.294 1_455 S
O79 C88 1.240 . S
O80 In78 2.326 . S
O80 C88 1.252 1_655 S
C81 O84 1.252 . S
C81 O85 1.260 . S
C82 O89 1.240 . S
C82 O90 1.252 . S
C83 O86 1.252 . S
C83 O87 1.260 1_655 S
O84 In78 2.266 . S
O84 C81 1.252 . S
O85 In78 2.326 . S
O85 C81 1.260 . S
O86 In78 2.266 . S
O86 C83 1.252 . S
O87 In78 2.326 1_455 S
O87 C83 1.260 1_455 S
C88 O79 1.240 . S
C88 O80 1.252 1_455 S
O89 In78 2.294 . S
O89 C82 1.240 . S
O90 In78 2.326 . S
O90 C82 1.252 . S
In91 O92 2.294 . S
In91 O93 2.326 . S
In91 O97 2.266 . S
In91 O98 2.326 1_565 S
In91 O99 2.266 . S
In91 O100 2.326 . S
In91 O102 2.294 1_565 S
In91 O103 2.326 . S
O92 In91 2.294 . S
O92 C101 1.240 . S
O93 In91 2.326 . S
O93 C101 1.252 . S
C94 O97 1.252 . S
C94 O98 1.260 1_565 S
C95 O102 1.240 . S
C95 O103 1.252 1_545 S
C96 O99 1.252 . S
C96 O100 1.260 . S
O97 In91 2.266 . S
O97 C94 1.252 . S
O98 In91 2.326 1_545 S
O98 C94 1.260 1_545 S
O99 In91 2.266 . S
O99 C96 1.252 . S
O100 In91 2.326 . S
O100 C96 1.260 . S
C101 O92 1.240 . S
C101 O93 1.252 . S
O102 In91 2.294 1_545 S
O102 C95 1.240 . S
O103 In91 2.326 . S
O103 C95 1.252 1_565 S
In104 O105 2.294 . S
In104 O106 2.326 1_556 S
In104 O110 2.266 . S
In104 O111 2.326 . S
In104 O112 2.266 . S
In104 O113 2.326 . S
In104 O115 2.294 . S
In104 O116 2.326 . S
O105 In104 2.294 . S
O105 C114 1.240 . S
O106 In104 2.326 1_554 S
O106 C114 1.252 1_554 S
C107 O110 1.252 . S
C107 O111 1.260 . S
C108 O115 1.240 . S
C108 O116 1.252 . S
C109 O112 1.252 . S
C109 O113 1.260 . S
O110 In104 2.266 . S
O110 C107 1.252 . S
O111 In104 2.326 . S
O111 C107 1.260 . S
O112 In104 2.266 . S
O112 C109 1.252 . S
O113 In104 2.326 . S
O113 C109 1.260 . S
C114 O105 1.240 . S
C114 O106 1.252 1_556 S
O115 In104 2.294 . S
O115 C108 1.240 . S
O116 In104 2.326 . S
O116 C108 1.252 . S
In117 O118 2.294 . S
In117 O119 2.326 1_556 S
In117 O123 2.266 . S
In117 O124 2.326 . S
In117 O125 2.266 . S
In117 O126 2.326 . S
In117 O128 2.294 . S
In117 O129 2.326 . S
O118 In117 2.294 . S
O118 C127 1.240 . S
O119 In117 2.326 1_554 S
O119 C127 1.252 1_554 S
C120 O123 1.252 . S
C120 O124 1.260 . S
C121 O128 1.240 . S
C121 O129 1.252 . S
C122 O125 1.252 . S
C122 O126 1.260 . S
O123 In117 2.266 . S
O123 C120 1.252 . S
O124 In117 2.326 . S
O124 C120 1.260 . S
O125 In117 2.266 . S
O125 C122 1.252 . S
O126 In117 2.326 . S
O126 C122 1.260 . S
C127 O118 1.240 . S
C127 O119 1.252 1_556 S
O128 In117 2.294 . S
O128 C121 1.240 . S
O129 In117 2.326 . S
O129 C121 1.252 . S
In130 O131 2.294 . S
In130 O132 2.326 1_556 S
In130 O136 2.266 . S
In130 O137 2.326 1_455 S
In130 O138 2.266 . S
In130 O139 2.326 . S
In130 O141 2.294 1_455 S
In130 O142 2.326 . S
O131 In130 2.294 . S
O131 C140 1.240 . S
O132 In130 2.326 1_554 S
O132 C140 1.252 1_554 S
C133 O136 1.252 . S
C133 O137 1.260 1_455 S
C134 O141 1.240 . S
C134 O142 1.252 1_655 S
C135 O138 1.252 . S
C135 O139 1.260 . S
O136 In130 2.266 . S
O136 C133 1.252 . S
O137 In130 2.326 1_655 S
O137 C133 1.260 1_655 S
O138 In130 2.266 . S
O138 C135 1.252 . S
O139 In130 2.326 . S
O139 C135 1.260 . S
C140 O131 1.240 . S
C140 O132 1.252 1_556 S
O141 In130 2.294 1_655 S
O141 C134 1.240 . S
O142 In130 2.326 . S
O142 C134 1.252 1_455 S
In143 O144 2.294 1_545 S
In143 O145 2.326 . S
In143 O149 2.266 . S
In143 O150 2.326 . S
In143 O151 2.266 . S
In143 O152 2.326 1_545 S
In143 O154 2.294 . S
In143 O155 2.326 1_556 S
O144 In143 2.294 1_565 S
O144 C153 1.240 . S
O145 In143 2.326 . S
O145 C153 1.252 1_545 S
C146 O149 1.252 . S
C146 O150 1.260 . S
C147 O154 1.240 . S
C147 O155 1.252 1_556 S
C148 O151 1.252 . S
C148 O152 1.260 1_545 S
O149 In143 2.266 . S
O149 C146 1.252 . S
O150 In143 2.326 . S
O150 C146 1.260 . S
O151 In143 2.266 . S
O151 C148 1.252 . S
O152 In143 2.326 1_565 S
O152 C148 1.260 1_565 S
C153 O144 1.240 . S
C153 O145 1.252 1_565 S
O154 In143 2.294 . S
O154 C147 1.240 . S
O155 In143 2.326 1_554 S
O155 C147 1.252 1_554 S
In156 O157 2.294 . S
In156 O158 2.326 . S
In156 O162 2.266 . S
In156 O163 2.326 . S
In156 O164 2.266 . S
In156 O165 2.326 . S
In156 O167 2.294 . S
In156 O168 2.326 . S
O157 In156 2.294 . S
O157 C166 1.240 . S
O158 In156 2.326 . S
O158 C166 1.252 . S
C159 O162 1.252 . S
C159 O163 1.260 . S
C160 O167 1.240 . S
C160 O168 1.252 . S
C161 O164 1.252 . S
C161 O165 1.260 . S
O162 In156 2.266 . S
O162 C159 1.252 . S
O163 In156 2.326 . S
O163 C159 1.260 . S
O164 In156 2.266 . S
O164 C161 1.252 . S
O165 In156 2.326 . S
O165 C161 1.260 . S
C166 O157 1.240 . S
C166 O158 1.252 . S
O167 In156 2.294 . S
O167 C160 1.240 . S
O168 In156 2.326 . S
O168 C160 1.252 . S
In169 O170 2.294 . S
In169 O171 2.326 . S
In169 O175 2.266 . S
In169 O176 2.326 . S
In169 O177 2.266 . S
In169 O178 2.326 . S
In169 O180 2.294 . S
In169 O181 2.326 . S
O170 In169 2.294 . S
O170 C179 1.240 . S
O171 In169 2.326 . S
O171 C179 1.252 . S
C172 O175 1.252 . S
C172 O176 1.260 . S
C173 O180 1.240 . S
C173 O181 1.252 . S
C174 O177 1.252 . S
C174 O178 1.260 . S
O175 In169 2.266 . S
O175 C172 1.252 . S
O176 In169 2.326 . S
O176 C172 1.260 . S
O177 In169 2.266 . S
O177 C174 1.252 . S
O178 In169 2.326 . S
O178 C174 1.260 . S
C179 O170 1.240 . S
C179 O171 1.252 . S
O180 In169 2.294 . S
O180 C173 1.240 . S
O181 In169 2.326 . S
O181 C173 1.252 . S
In182 O183 2.294 1_455 S
In182 O184 2.326 . S
In182 O188 2.266 . S
In182 O189 2.326 . S
In182 O190 2.266 . S
In182 O191 2.326 1_455 S
In182 O193 2.294 . S
In182 O194 2.326 . S
O183 In182 2.294 1_655 S
O183 C192 1.240 . S
O184 In182 2.326 . S
O184 C192 1.252 1_455 S
C185 O188 1.252 . S
C185 O189 1.260 . S
C186 O193 1.240 . S
C186 O194 1.252 . S
C187 O190 1.252 . S
C187 O191 1.260 1_455 S
O188 In182 2.266 . S
O188 C185 1.252 . S
O189 In182 2.326 . S
O189 C185 1.260 . S
O190 In182 2.266 . S
O190 C187 1.252 . S
O191 In182 2.326 1_655 S
O191 C187 1.260 1_655 S
C192 O183 1.240 . S
C192 O184 1.252 1_655 S
O193 In182 2.294 . S
O193 C186 1.240 . S
O194 In182 2.326 . S
O194 C186 1.252 . S
In195 O196 2.294 . S
In195 O197 2.326 . S
In195 O201 2.266 . S
In195 O202 2.326 1_545 S
In195 O203 2.266 . S
In195 O204 2.326 . S
In195 O206 2.294 1_545 S
In195 O207 2.326 . S
O196 In195 2.294 . S
O196 C205 1.240 . S
O197 In195 2.326 . S
O197 C205 1.252 . S
C198 O201 1.252 . S
C198 O202 1.260 1_545 S
C199 O206 1.240 . S
C199 O207 1.252 1_565 S
C200 O203 1.252 . S
C200 O204 1.260 . S
O201 In195 2.266 . S
O201 C198 1.252 . S
O202 In195 2.326 1_565 S
O202 C198 1.260 1_565 S
O203 In195 2.266 . S
O203 C200 1.252 . S
O204 In195 2.326 . S
O204 C200 1.260 . S
C205 O196 1.240 . S
C205 O197 1.252 . S
O206 In195 2.294 1_565 S
O206 C199 1.240 . S
O207 In195 2.326 . S
O207 C199 1.252 1_545 S
C208 C209 1.170 . S
C208 C210 1.379 1_554 S
C209 C208 1.170 . S
C210 C208 1.379 1_556 S
C210 C211 1.172 . S
C211 C210 1.172 . S
C212 C213 1.170 . S
C212 C214 1.380 1_556 S
C213 C212 1.170 . S
C214 C212 1.380 1_554 S
C214 C215 1.170 . S
C215 C214 1.170 . S
C216 C217 1.170 . S
C216 C218 1.380 . S
C217 C216 1.170 . S
C218 C216 1.380 . S
C218 C219 1.170 1_556 S
C219 C218 1.170 1_554 S
C220 C221 1.170 . S
C220 C222 1.380 1_556 S
C221 C220 1.170 . S
C222 C220 1.380 1_554 S
C222 C223 1.170 . S
C223 C222 1.170 . S
C224 C225 1.170 . S
C224 C226 1.380 . S
C225 C224 1.170 . S
C226 C224 1.380 . S
C226 C227 1.170 . S
C227 C226 1.170 . S
C228 C229 1.170 . S
C228 C230 1.380 . S
C229 C228 1.170 . S
C230 C228 1.380 . S
C230 C231 1.170 . S
C231 C230 1.170 . S
C232 C233 1.170 . S
C232 C234 1.380 . S
C233 C232 1.170 . S
C234 C232 1.380 . S
C234 C235 1.170 . S
C235 C234 1.170 . S
C236 C237 1.170 . S
C236 C238 1.380 . S
C237 C236 1.170 . S
C238 C236 1.380 . S
C238 C239 1.170 . S
C239 C238 1.170 . S
C240 C241 1.170 . S
C240 C242 1.383 . S
C241 C240 1.170 . S
C242 C240 1.383 . S
C242 C243 1.167 1_556 S
C243 C242 1.167 1_554 S
C244 C245 1.169 1_554 S
C244 C246 1.381 . S
C245 C244 1.169 1_556 S
C246 C244 1.381 . S
C246 C247 1.170 . S
C247 C246 1.170 . S
C248 C249 1.170 . S
C248 C250 1.381 . S
C249 C248 1.170 . S
C250 C248 1.381 . S
C250 C251 1.169 1_556 S
C251 C250 1.169 1_554 S
C252 C253 1.170 . S
C252 C254 1.380 . S
C253 C252 1.170 . S
C254 C252 1.380 . S
C254 C255 1.170 1_554 S
C255 C254 1.170 1_556 S
C256 C257 1.170 . S
C256 C258 1.380 . S
C257 C256 1.170 . S
C258 C256 1.380 . S
C258 C259 1.170 . S
C259 C258 1.170 . S
C260 C261 1.170 . S
C260 C262 1.380 . S
C261 C260 1.170 . S
C262 C260 1.380 . S
C262 C263 1.170 . S
C263 C262 1.170 . S
C264 C265 1.170 . S
C264 C266 1.380 . S
C265 C264 1.170 . S
C266 C264 1.380 . S
C266 C267 1.170 . S
C267 C266 1.170 . S
C268 C269 1.170 . S
C268 C270 1.380 . S
C269 C268 1.170 . S
C270 C268 1.380 . S
C270 C271 1.170 . S
C271 C270 1.170 . S
C272 C273 1.170 . S
C272 C274 1.380 1_566 S
C273 C272 1.170 . S
C274 C272 1.380 1_544 S
C274 C275 1.170 . S
C275 C274 1.170 . S
C276 C277 1.170 . S
C276 C278 1.380 1_554 S
C277 C276 1.170 . S
C278 C276 1.380 1_556 S
C278 C279 1.170 . S
C279 C278 1.170 . S
C280 C281 1.170 . S
C280 C282 1.380 1_656 S
C281 C280 1.170 . S
C282 C280 1.380 1_454 S
C282 C283 1.170 . S
C283 C282 1.170 . S
C284 C285 1.170 . S
C284 C286 1.380 1_444 S
C285 C284 1.170 . S
C286 C284 1.380 1_666 S
C286 C287 1.170 . S
C287 C286 1.170 . S
C288 C289 1.170 . S
C288 C290 1.380 . S
C289 C288 1.170 . S
C290 C288 1.380 . S
C290 C291 1.170 . S
C291 C290 1.170 . S
C292 C293 1.170 . S
C292 C294 1.380 1_455 S
C293 C292 1.170 . S
C294 C292 1.380 1_655 S
C294 C295 1.170 . S
C295 C294 1.170 . S
C296 C297 1.170 . S
C296 C298 1.380 1_665 S
C297 C296 1.170 . S
C298 C296 1.380 1_445 S
C298 C299 1.170 . S
C299 C298 1.170 . S
C300 C301 1.170 . S
C300 C302 1.380 1_565 S
C301 C300 1.170 . S
C302 C300 1.380 1_545 S
C302 C303 1.170 . S
C303 C302 1.170 . S
C304 C305 1.170 . S
C304 C306 1.380 . S
C305 C304 1.170 . S
C306 C304 1.380 . S
C306 C307 1.170 . S
C307 C306 1.170 . S
C308 C309 1.170 . S
C308 C310 1.380 . S
C309 C308 1.170 . S
C310 C308 1.380 . S
C310 C311 1.170 . S
C311 C310 1.170 . S
C312 C313 1.170 . S
C312 C314 1.380 . S
C313 C312 1.170 . S
C314 C312 1.380 . S
C314 C315 1.170 . S
C315 C314 1.170 . S
C316 C317 1.170 . S
C316 C318 1.380 . S
C317 C316 1.170 . S
C318 C316 1.380 . S
C318 C319 1.170 . S
C319 C318 1.170 . S
C320 C321 1.170 . S
C320 C322 1.380 . S
C321 C320 1.170 . S
C322 C320 1.380 . S
C322 C323 1.170 . S
C323 C322 1.170 . S
C324 C325 1.170 . S
C324 C326 1.380 . S
C325 C324 1.170 . S
C326 C324 1.380 . S
C326 C327 1.170 . S
C327 C326 1.170 . S
C328 C329 1.170 . S
C328 C330 1.380 . S
C329 C328 1.170 . S
C330 C328 1.380 . S
C330 C331 1.170 . S
C331 C330 1.170 . S
C332 C333 1.170 1_545 S
C332 C334 1.380 . S
C333 C332 1.170 1_565 S
C334 C332 1.380 . S
C334 C335 1.170 . S
C335 C334 1.170 . S
C209 C5 1.289 . S
C211 C127 1.338 . S
C213 C140 1.330 . S
C215 C18 1.310 . S
C217 C147 1.330 . S
C219 C31 1.309 . S
C221 C114 1.331 . S
C223 C42 1.307 . S
C225 C57 1.281 . S
C227 C205 1.341 . S
C229 C160 1.343 . S
C231 C70 1.275 . S
C233 C173 1.329 . S
C235 C81 1.312 . S
C237 C186 1.329 . S
C239 C96 1.312 . S
C241 C109 1.283 . S
C243 C23 1.348 . S
C245 C122 1.310 . S
C247 C36 1.331 . S
C249 C135 1.271 . S
C251 C43 1.347 . S
C253 C10 1.329 . S
C255 C146 1.293 . S
C257 C159 1.291 . S
C259 C101 1.329 . S
C261 C172 1.270 . S
C263 C62 1.347 . S
C265 C75 1.330 . S
C267 C185 1.285 . S
C269 C200 1.305 . S
C271 C82 1.330 . S
C273 C108 1.736 . S
C275 C4 1.714 . S
C277 C17 1.757 . S
C279 C121 1.713 . S
C281 C134 1.740 . S
C283 C30 1.738 . S
C285 C49 1.753 . S
C287 C153 1.706 . S
C289 C166 1.729 . S
C291 C56 1.748 . S
C293 C69 1.709 . S
C295 C179 1.743 . S
C297 C192 1.757 . S
C299 C88 1.710 . S
C301 C199 1.732 . S
C303 C95 1.745 . S
C305 C55 1.720 . S
C307 C3 1.720 . S
C309 C68 1.715 . S
C311 C16 1.718 . S
C313 C29 1.719 1_455 S
C315 C83 1.717 1_455 S
C317 C94 1.719 1_545 S
C319 C44 1.720 1_545 S
C321 C107 1.709 . S
C323 C161 1.699 . S
C325 C174 1.717 . S
C327 C120 1.701 . S
C329 C187 1.718 1_655 S
C331 C133 1.715 1_655 S
C333 C198 1.714 1_565 S
C335 C148 1.703 . S
