# Generated by pormake.
# Topology lcy-e, (6)-cn, num edge types: 1
# Building blocks:
#     Node 0, Type 0, BuildingBlock: CUWYAW_clean_sbu_0, # of connection points: 6
#     Node 1, Type 0, BuildingBlock: CUWYAW_clean_sbu_0, # of connection points: 6
#     Node 2, Type 0, BuildingBlock: CUWYAW_clean_sbu_0, # of connection points: 6
#     Node 3, Type 0, BuildingBlock: CUWYAW_clean_sbu_0, # of connection points: 6
#     Node 4, Type 0, BuildingBlock: CUWYAW_clean_sbu_0, # of connection points: 6
#     Node 5, Type 0, BuildingBlock: CUWYAW_clean_sbu_0, # of connection points: 6
#     Node 6, Type 0, BuildingBlock: CUWYAW_clean_sbu_0, # of connection points: 6
#     Node 7, Type 0, BuildingBlock: CUWYAW_clean_sbu_0, # of connection points: 6
#     Node 8, Type 0, BuildingBlock: CUWYAW_clean_sbu_0, # of connection points: 6
#     Node 9, Type 0, BuildingBlock: CUWYAW_clean_sbu_0, # of connection points: 6
#     Node 10, Type 0, BuildingBlock: CUWYAW_clean_sbu_0, # of connection points: 6
#     Node 11, Type 0, BuildingBlock: CUWYAW_clean_sbu_0, # of connection points: 6
#     Edge 12, Type (0, 0), BuildingBlock: UVAHIK_clean_linker_0, # of connection points: 2
#     Edge 13, Type (0, 0), BuildingBlock: UVAHIK_clean_linker_0, # of connection points: 2
#     Edge 14, Type (0, 0), BuildingBlock: UVAHIK_clean_linker_0, # of connection points: 2
#     Edge 15, Type (0, 0), BuildingBlock: UVAHIK_clean_linker_0, # of connection points: 2
#     Edge 16, Type (0, 0), BuildingBlock: UVAHIK_clean_linker_0, # of connection points: 2
#     Edge 17, Type (0, 0), BuildingBlock: UVAHIK_clean_linker_0, # of connection points: 2
#     Edge 18, Type (0, 0), BuildingBlock: UVAHIK_clean_linker_0, # of connection points: 2
#     Edge 19, Type (0, 0), BuildingBlock: UVAHIK_clean_linker_0, # of connection points: 2
#     Edge 20, Type (0, 0), BuildingBlock: UVAHIK_clean_linker_0, # of connection points: 2
#     Edge 21, Type (0, 0), BuildingBlock: UVAHIK_clean_linker_0, # of connection points: 2
#     Edge 22, Type (0, 0), BuildingBlock: UVAHIK_clean_linker_0, # of connection points: 2
#     Edge 23, Type (0, 0), BuildingBlock: UVAHIK_clean_linker_0, # of connection points: 2
#     Edge 24, Type (0, 0), BuildingBlock: UVAHIK_clean_linker_0, # of connection points: 2
#     Edge 25, Type (0, 0), BuildingBlock: UVAHIK_clean_linker_0, # of connection points: 2
#     Edge 26, Type (0, 0), BuildingBlock: UVAHIK_clean_linker_0, # of connection points: 2
#     Edge 27, Type (0, 0), BuildingBlock: UVAHIK_clean_linker_0, # of connection points: 2
#     Edge 28, Type (0, 0), BuildingBlock: UVAHIK_clean_linker_0, # of connection points: 2
#     Edge 29, Type (0, 0), BuildingBlock: UVAHIK_clean_linker_0, # of connection points: 2
#     Edge 30, Type (0, 0), BuildingBlock: UVAHIK_clean_linker_0, # of connection points: 2
#     Edge 31, Type (0, 0), BuildingBlock: UVAHIK_clean_linker_0, # of connection points: 2
#     Edge 32, Type (0, 0), BuildingBlock: UVAHIK_clean_linker_0, # of connection points: 2
#     Edge 33, Type (0, 0), BuildingBlock: UVAHIK_clean_linker_0, # of connection points: 2
#     Edge 34, Type (0, 0), BuildingBlock: UVAHIK_clean_linker_0, # of connection points: 2
#     Edge 35, Type (0, 0), BuildingBlock: UVAHIK_clean_linker_0, # of connection points: 2
#     Edge 36, Type (0, 0), BuildingBlock: UVAHIK_clean_linker_0, # of connection points: 2
#     Edge 37, Type (0, 0), BuildingBlock: UVAHIK_clean_linker_0, # of connection points: 2
#     Edge 38, Type (0, 0), BuildingBlock: UVAHIK_clean_linker_0, # of connection points: 2
#     Edge 39, Type (0, 0), BuildingBlock: UVAHIK_clean_linker_0, # of connection points: 2
#     Edge 40, Type (0, 0), BuildingBlock: UVAHIK_clean_linker_0, # of connection points: 2
#     Edge 41, Type (0, 0), BuildingBlock: UVAHIK_clean_linker_0, # of connection points: 2
#     Edge 42, Type (0, 0), BuildingBlock: UVAHIK_clean_linker_0, # of connection points: 2
#     Edge 43, Type (0, 0), BuildingBlock: UVAHIK_clean_linker_0, # of connection points: 2
#     Edge 44, Type (0, 0), BuildingBlock: UVAHIK_clean_linker_0, # of connection points: 2
#     Edge 45, Type (0, 0), BuildingBlock: UVAHIK_clean_linker_0, # of connection points: 2
#     Edge 46, Type (0, 0), BuildingBlock: UVAHIK_clean_linker_0, # of connection points: 2
#     Edge 47, Type (0, 0), BuildingBlock: UVAHIK_clean_linker_0, # of connection points: 2
# Relax obj value: 0.181
# Max RMSD: 0.280
# Mean RMSD: 0.263
data_MOF--net-lcy-e--node1-CUWYAW_clean_sbu_0--edge1-UVAHIK_clean_linker_0
_symmetry_space_group_name_H-M    P1
_symmetry_Int_Tables_number       1
_symmetry_cell_setting            triclinic
loop_
_symmetry_equiv_pos_as_xyz
'x, y, z'
_cell_length_a     52.409911
_cell_length_b     55.994436
_cell_length_c     55.983562
_cell_angle_alpha  90.888136
_cell_angle_beta   90.350198
_cell_angle_gamma 88.699817
loop_
_atom_site_label
_atom_site_type_symbol
_atom_site_fract_x
_atom_site_fract_y
_atom_site_fract_z
_atom_type_partial_charge
C0 C 0.11816 0.29773 0.46544 0.0
Eu1 Eu 0.1248 0.27172 0.50339 0.0
C2 C 0.13229 0.31063 0.44705 0.0
C3 C 0.12415 0.33379 0.44102 0.0
C4 C 0.13489 0.34531 0.42164 0.0
C5 C 0.15392 0.33383 0.4077 0.0
C6 C 0.16285 0.31099 0.41444 0.0
C7 C 0.15217 0.2995 0.43393 0.0
C8 C 0.0994 0.27686 0.54578 0.0
C9 C 0.17055 0.29152 0.53633 0.0
C10 C 0.15071 0.21477 0.58137 0.0
Eu11 Eu 0.14498 0.24127 0.54366 0.0
C12 C 0.14115 0.19176 0.58942 0.0
C13 C 0.14513 0.18489 0.61313 0.0
C14 C 0.13628 0.163 0.62101 0.0
C15 C 0.12318 0.14761 0.60532 0.0
C16 C 0.11903 0.15471 0.58158 0.0
C17 C 0.12802 0.17656 0.57369 0.0
C18 C 0.17439 0.23902 0.50424 0.0
C19 C 0.09736 0.22242 0.51005 0.0
O20 O 0.12005 0.27441 0.46497 0.0
O21 O 0.11782 0.30667 0.48717 0.0
O22 O 0.08797 0.27776 0.52517 0.0
O23 O 0.12295 0.27474 0.5427 0.0
O24 O 0.1616 0.28964 0.51425 0.0
O25 O 0.1638 0.27626 0.55288 0.0
O26 O 0.13378 0.23221 0.57983 0.0
O27 O 0.16622 0.21384 0.56316 0.0
O28 O 0.1831 0.23861 0.52596 0.0
O29 O 0.15016 0.23916 0.50396 0.0
O30 O 0.1107 0.22025 0.53008 0.0
O31 O 0.101 0.24007 0.49532 0.0
H32 H 0.1089 0.34274 0.4509 0.0
H33 H 0.12791 0.36309 0.41732 0.0
H34 H 0.17735 0.30153 0.40407 0.0
H35 H 0.15889 0.28163 0.4382 0.0
H36 H 0.15513 0.19645 0.62555 0.0
H37 H 0.1395 0.15823 0.63948 0.0
H38 H 0.10926 0.14319 0.56897 0.0
H39 H 0.12491 0.18149 0.55527 0.0
C40 C 0.09087 0.90986 0.79342 0.0
Eu41 Eu 0.05009 0.90605 0.76672 0.0
C42 C 0.10705 0.89828 0.81168 0.0
C43 C 0.12269 0.91267 0.82592 0.0
C44 C 0.1397 0.90246 0.84233 0.0
C45 C 0.14141 0.87752 0.84497 0.0
C46 C 0.12539 0.86307 0.83082 0.0
C47 C 0.10832 0.87338 0.8143 0.0
C48 C 0.00585 0.93246 0.77033 0.0
C49 C 0.01165 0.8658 0.78491 0.0
C50 C 0.96594 0.88809 0.70651 0.0
Eu51 Eu 0.00612 0.89061 0.73414 0.0
C52 C 0.95767 0.89519 0.68235 0.0
C53 C 0.96638 0.91606 0.67176 0.0
C54 C 0.95796 0.92242 0.64885 0.0
C55 C 0.94082 0.90795 0.63608 0.0
C56 C 0.93231 0.88701 0.6468 0.0
C57 C 0.94065 0.88073 0.66967 0.0
C58 C 0.0476 0.86134 0.73267 0.0
C59 C 0.04474 0.93279 0.71727 0.0
O60 O 0.09092 0.90024 0.77197 0.0
O61 O 0.06834 0.91801 0.79991 0.0
O62 O 0.02828 0.94177 0.77206 0.0
O63 O 0.00813 0.91025 0.76804 0.0
O64 O 0.03551 0.8731 0.78485 0.0
O65 O 0.99488 0.87324 0.76867 0.0
O66 O 0.96938 0.90524 0.7223 0.0
O67 O 0.98352 0.87121 0.70767 0.0
O68 O 0.02434 0.85412 0.73078 0.0
O69 O 0.04821 0.88393 0.73352 0.0
O70 O 0.0227 0.92198 0.71415 0.0
O71 O 0.06012 0.92782 0.73527 0.0
H72 H 0.12215 0.93191 0.824 0.0
H73 H 0.15199 0.91415 0.85252 0.0
H74 H 0.12601 0.84383 0.83253 0.0
H75 H 0.09638 0.86195 0.80341 0.0
H76 H 0.9796 0.92744 0.6812 0.0
H77 H 0.96505 0.93855 0.64107 0.0
H78 H 0.91879 0.87565 0.63769 0.0
H79 H 0.93366 0.86459 0.67754 0.0
C80 C 0.38816 0.74875 0.94324 0.0
Eu81 Eu 0.38638 0.76176 0.98805 0.0
C82 C 0.38003 0.73079 0.92538 0.0
C83 C 0.39839 0.72056 0.91001 0.0
C84 C 0.39114 0.70555 0.89114 0.0
C85 C 0.36528 0.70049 0.88717 0.0
C86 C 0.3469 0.71033 0.90293 0.0
C87 C 0.3542 0.72534 0.92189 0.0
C88 C 0.41288 0.74521 0.02613 0.0
C89 C 0.35 0.74153 0.02787 0.0
C90 C 0.38873 0.80786 0.0809 0.0
Eu91 Eu 0.38046 0.79138 0.03792 0.0
C92 C 0.39376 0.83157 0.09135 0.0
C93 C 0.38409 0.85244 0.08068 0.0
C94 C 0.39032 0.8749 0.09 0.0
C95 C 0.40657 0.87693 0.11003 0.0
C96 C 0.41618 0.85589 0.12061 0.0
C97 C 0.4098 0.83345 0.11137 0.0
C98 C 0.34478 0.80577 1.00494 0.0
C99 C 0.41765 0.81186 0.99769 0.0
O100 O 0.37063 0.7633 0.95216 0.0
O101 O 0.4056 0.74231 0.95889 0.0
O102 O 0.40364 0.73122 0.00955 0.0
O103 O 0.40881 0.76681 0.02097 0.0
O104 O 0.35321 0.74348 1.00448 0.0
O105 O 0.36122 0.75583 0.04381 0.0
O106 O 0.40677 0.79897 0.06714 0.0
O107 O 0.36579 0.8045 0.07215 0.0
O108 O 0.34693 0.81567 0.02599 0.0
O109 O 0.36207 0.79003 1.00301 0.0
O110 O 0.4074 0.8153 0.01905 0.0
O111 O 0.41234 0.79332 0.98358 0.0
H112 H 0.41837 0.72475 0.91218 0.0
H113 H 0.40575 0.69856 0.87918 0.0
H114 H 0.32687 0.70654 0.90052 0.0
H115 H 0.33961 0.73303 0.93347 0.0
H116 H 0.37189 0.85138 0.06502 0.0
H117 H 0.3823 0.89066 0.08156 0.0
H118 H 0.42908 0.85672 0.13577 0.0
H119 H 0.41775 0.81754 0.11962 0.0
C120 C 0.42421 0.12803 0.29334 0.0
Eu121 Eu 0.46614 0.13049 0.26854 0.0
C122 C 0.40463 0.14126 0.3073 0.0
C123 C 0.38099 0.13061 0.31049 0.0
C124 C 0.36178 0.14226 0.32369 0.0
C125 C 0.36572 0.16494 0.33402 0.0
C126 C 0.38951 0.17569 0.33068 0.0
C127 C 0.40881 0.16396 0.31736 0.0
C128 C 0.50923 0.10257 0.27333 0.0
C129 C 0.50541 0.16993 0.28798 0.0
C130 C 0.55151 0.14615 0.21006 0.0
Eu131 Eu 0.51123 0.14395 0.23717 0.0
C132 C 0.56098 0.13627 0.18716 0.0
C133 C 0.58698 0.13771 0.1819 0.0
C134 C 0.59652 0.12861 0.16026 0.0
C135 C 0.5802 0.11788 0.14338 0.0
C136 C 0.55405 0.11652 0.14871 0.0
C137 C 0.54453 0.12556 0.17047 0.0
C138 C 0.47076 0.17448 0.23553 0.0
C139 C 0.47286 0.10152 0.21963 0.0
O140 O 0.42459 0.13173 0.27035 0.0
O141 O 0.44706 0.12537 0.30262 0.0
O142 O 0.48634 0.0944 0.27525 0.0
O143 O 0.508 0.12473 0.27071 0.0
O144 O 0.48113 0.16392 0.28667 0.0
O145 O 0.52232 0.1615 0.27227 0.0
O146 O 0.5495 0.13108 0.22751 0.0
O147 O 0.53214 0.16123 0.20897 0.0
O148 O 0.4943 0.181 0.23483 0.0
O149 O 0.46935 0.15196 0.23575 0.0
O150 O 0.49534 0.11154 0.21747 0.0
O151 O 0.45682 0.10778 0.23672 0.0
H152 H 0.37743 0.11307 0.30289 0.0
H153 H 0.34397 0.1332 0.32621 0.0
H154 H 0.39314 0.19322 0.33822 0.0
H155 H 0.42691 0.17255 0.31495 0.0
H156 H 0.59994 0.14598 0.19454 0.0
H157 H 0.61667 0.13025 0.15662 0.0
H158 H 0.54103 0.10815 0.1362 0.0
H159 H 0.52437 0.12419 0.17427 0.0
C160 C 0.6463 0.34189 0.50919 0.0
Eu161 Eu 0.64504 0.29911 0.52694 0.0
C162 C 0.63227 0.35946 0.49416 0.0
C163 C 0.6378 0.36115 0.46971 0.0
C164 C 0.62738 0.37983 0.45621 0.0
C165 C 0.61133 0.39738 0.46686 0.0
C166 C 0.6051 0.39521 0.49112 0.0
C167 C 0.61552 0.37652 0.50463 0.0
C168 C 0.67222 0.25959 0.513 0.0
C169 C 0.60643 0.26068 0.50965 0.0
C170 C 0.63867 0.21473 0.58007 0.0
Eu171 Eu 0.64004 0.25584 0.55891 0.0
C172 C 0.64721 0.20512 0.60346 0.0
C173 C 0.63006 0.20402 0.6226 0.0
C174 C 0.6381 0.19529 0.64476 0.0
C175 C 0.66346 0.18727 0.64829 0.0
C176 C 0.68052 0.18805 0.62904 0.0
C177 C 0.67251 0.19684 0.60689 0.0
C178 C 0.61213 0.29517 0.57225 0.0
C179 C 0.68107 0.29399 0.57495 0.0
O180 O 0.63701 0.33735 0.53027 0.0
O181 O 0.65651 0.32295 0.4987 0.0
O182 O 0.66136 0.27432 0.49819 0.0
O183 O 0.66956 0.26725 0.53414 0.0
O184 O 0.60979 0.28395 0.51078 0.0
O185 O 0.61855 0.24599 0.52451 0.0
O186 O 0.65646 0.22033 0.56496 0.0
O187 O 0.61965 0.23031 0.58034 0.0
O188 O 0.62381 0.28116 0.5872 0.0
O189 O 0.61493 0.28735 0.5512 0.0
O190 O 0.67376 0.27181 0.57768 0.0
O191 O 0.67141 0.30777 0.55802 0.0
H192 H 0.65082 0.34846 0.46112 0.0
H193 H 0.63228 0.38075 0.43749 0.0
H194 H 0.59306 0.40854 0.49999 0.0
H195 H 0.61113 0.37597 0.52349 0.0
H196 H 0.61036 0.20993 0.62048 0.0
H197 H 0.62434 0.19455 0.65907 0.0
H198 H 0.70023 0.18218 0.63118 0.0
H199 H 0.68621 0.19723 0.59251 0.0
C200 C 0.04007 0.37265 0.86141 0.0
Eu201 Eu 0.01459 0.38162 0.82236 0.0
C202 C 0.05161 0.3851 0.88211 0.0
C203 C 0.07572 0.37756 0.89037 0.0
C204 C 0.08595 0.38734 0.91137 0.0
C205 C 0.07219 0.40481 0.92466 0.0
C206 C 0.04834 0.41288 0.91591 0.0
C207 C 0.03815 0.40314 0.89484 0.0
C208 C 0.01929 0.35858 0.77912 0.0
C209 C 0.03453 0.42779 0.79496 0.0
C210 C 0.95897 0.41367 0.74275 0.0
Eu211 Eu 0.98135 0.40147 0.78247 0.0
C212 C 0.93376 0.4088 0.73253 0.0
C213 C 0.91559 0.39706 0.74608 0.0
C214 C 0.8929 0.38951 0.73548 0.0
C215 C 0.88804 0.3935 0.71111 0.0
C216 C 0.906 0.40598 0.69781 0.0
C217 C 0.92872 0.41351 0.70845 0.0
C218 C 0.96741 0.41692 0.82711 0.0
C219 C 0.96244 0.35636 0.81087 0.0
O220 O 0.01511 0.37332 0.86004 0.0
O221 O 0.05105 0.37468 0.8406 0.0
O222 O 0.0204 0.34752 0.79929 0.0
O223 O 0.01712 0.38056 0.78306 0.0
O224 O 0.03707 0.41403 0.81381 0.0
O225 O 0.01514 0.42593 0.7798 0.0
O226 O 0.97386 0.39474 0.74481 0.0
O227 O 0.95948 0.42763 0.76174 0.0
O228 O 0.95145 0.41119 0.81026 0.0
O229 O 0.98989 0.41421 0.81952 0.0
O230 O 0.96358 0.36563 0.78936 0.0
O231 O 0.97712 0.36421 0.82832 0.0
H232 H 0.08643 0.36369 0.88084 0.0
H233 H 0.1046 0.38106 0.91728 0.0
H234 H 0.03711 0.42616 0.92573 0.0
H235 H 0.01946 0.40928 0.88891 0.0
H236 H 0.91932 0.3931 0.76469 0.0
H237 H 0.87934 0.38023 0.74628 0.0
H238 H 0.90298 0.40909 0.67895 0.0
H239 H 0.94272 0.42229 0.69768 0.0
C240 C 0.87198 0.68656 0.00853 0.0
Eu241 Eu 0.87756 0.73056 0.02343 0.0
C242 C 0.88146 0.66686 0.99303 0.0
C243 C 0.86515 0.64795 0.98804 0.0
C244 C 0.87361 0.62816 0.97459 0.0
C245 C 0.89866 0.62683 0.96566 0.0
C246 C 0.91499 0.64602 0.97054 0.0
C247 C 0.90646 0.66589 0.98414 0.0
C248 C 0.84908 0.76968 0.01193 0.0
C249 C 0.91456 0.76745 1.00099 0.0
C250 C 0.89303 0.81712 0.0741 0.0
Eu251 Eu 0.8879 0.77536 0.05358 0.0
C252 C 0.88388 0.82835 0.09668 0.0
C253 C 0.90121 0.83992 0.11186 0.0
C254 C 0.89315 0.85 0.13365 0.0
C255 C 0.86746 0.84889 0.14075 0.0
C256 C 0.85011 0.8373 0.12541 0.0
C257 C 0.85823 0.82707 0.1037 0.0
C258 C 0.9166 0.73607 0.06461 0.0
C259 C 0.84735 0.73991 0.07418 0.0
O260 O 0.88602 0.69253 0.02701 0.0
O261 O 0.86077 0.70492 0.99838 0.0
O262 O 0.8572 0.75396 0.99628 0.0
O263 O 0.85488 0.76318 0.03275 0.0
O264 O 0.90971 0.74444 1.00198 0.0
O265 O 0.90597 0.78292 0.01746 0.0
O266 O 0.8759 0.81273 0.0576 0.0
O267 O 0.90982 0.79965 0.07623 0.0
O268 O 0.90716 0.75099 0.08033 0.0
O269 O 0.91109 0.74287 0.04382 0.0
O270 O 0.85513 0.76215 0.07496 0.0
O271 O 0.85535 0.72456 0.0575 0.0
H272 H 0.84586 0.64829 0.99494 0.0
H273 H 0.86062 0.61362 0.9717 0.0
H274 H 0.93431 0.64573 0.96378 0.0
H275 H 0.91937 0.68034 0.98789 0.0
H276 H 0.92112 0.84095 0.10695 0.0
H277 H 0.9072 0.85835 0.14509 0.0
H278 H 0.83013 0.83633 0.13003 0.0
H279 H 0.84442 0.8181 0.09244 0.0
C280 C 0.58812 0.62335 0.26363 0.0
Eu281 Eu 0.54195 0.63026 0.27967 0.0
C282 C 0.60683 0.63453 0.24828 0.0
C283 C 0.6285 0.62123 0.24128 0.0
C284 C 0.64692 0.63143 0.22703 0.0
C285 C 0.64397 0.65518 0.21944 0.0
C286 C 0.62212 0.66851 0.22652 0.0
C287 C 0.60362 0.65823 0.24082 0.0
C288 C 0.50056 0.60354 0.27015 0.0
C289 C 0.50157 0.6648 0.25597 0.0
C290 C 0.45208 0.65028 0.32996 0.0
Eu291 Eu 0.49603 0.64297 0.30942 0.0
C292 C 0.44078 0.6408 0.35196 0.0
C293 C 0.43902 0.65536 0.37257 0.0
C294 C 0.43083 0.646 0.39413 0.0
C295 C 0.42397 0.62195 0.39549 0.0
C296 C 0.4248 0.6076 0.37468 0.0
C297 C 0.43317 0.6169 0.35314 0.0
C298 C 0.53783 0.66954 0.31871 0.0
C299 C 0.53417 0.60394 0.33109 0.0
O300 O 0.58289 0.63443 0.28383 0.0
O301 O 0.5679 0.61481 0.25304 0.0
O302 O 0.51639 0.61004 0.25389 0.0
O303 O 0.50815 0.61008 0.29052 0.0
O304 O 0.52634 0.66021 0.25733 0.0
O305 O 0.48582 0.65755 0.27264 0.0
O306 O 0.45559 0.63524 0.31212 0.0
O307 O 0.47141 0.66437 0.33306 0.0
O308 O 0.52304 0.66142 0.33501 0.0
O309 O 0.52977 0.66366 0.29824 0.0
O310 O 0.51042 0.61227 0.33157 0.0
O311 O 0.55013 0.61033 0.31424 0.0
H312 H 0.63128 0.60295 0.24701 0.0
H313 H 0.6637 0.62081 0.22227 0.0
H314 H 0.61921 0.68677 0.22082 0.0
H315 H 0.58691 0.66872 0.2461 0.0
H316 H 0.44454 0.67388 0.37215 0.0
H317 H 0.42997 0.65759 0.4098 0.0
H318 H 0.4197 0.58898 0.37522 0.0
H319 H 0.43422 0.60517 0.3376 0.0
C320 C 0.17284 0.52835 0.1701 0.0
Eu321 Eu 0.21665 0.50544 0.16769 0.0
C322 C 0.15667 0.54688 0.15901 0.0
C323 C 0.13588 0.55618 0.17196 0.0
C324 C 0.11916 0.57288 0.16174 0.0
C325 C 0.12295 0.58072 0.1383 0.0
C326 C 0.14403 0.57147 0.12536 0.0
C327 C 0.16082 0.55465 0.13567 0.0
C328 C 0.25931 0.5134 0.1944 0.0
C329 C 0.25499 0.5264 0.12788 0.0
C330 C 0.30647 0.45092 0.15302 0.0
Eu331 Eu 0.26423 0.47637 0.15358 0.0
C332 C 0.31434 0.42742 0.16223 0.0
C333 C 0.29608 0.41117 0.16966 0.0
C334 C 0.30375 0.38885 0.17841 0.0
C335 C 0.32981 0.38244 0.17997 0.0
C336 C 0.34799 0.39887 0.17255 0.0
C337 C 0.34029 0.42115 0.16375 0.0
C338 C 0.22412 0.47072 0.12399 0.0
C339 C 0.22643 0.45733 0.19574 0.0
O340 O 0.17651 0.50848 0.15788 0.0
O341 O 0.19327 0.53526 0.18154 0.0
O342 O 0.23657 0.51331 0.20353 0.0
O343 O 0.25796 0.51043 0.17224 0.0
O344 O 0.23113 0.52539 0.13549 0.0
O345 O 0.2728 0.51092 0.13518 0.0
O346 O 0.30147 0.46753 0.16913 0.0
O347 O 0.28968 0.45073 0.13564 0.0
O348 O 0.24767 0.47079 0.11704 0.0
O349 O 0.22271 0.47195 0.14656 0.0
O350 O 0.24917 0.45621 0.18557 0.0
O351 O 0.20908 0.47354 0.18974 0.0
H352 H 0.13231 0.5502 0.18993 0.0
H353 H 0.1029 0.57923 0.17207 0.0
H354 H 0.14759 0.57728 0.10735 0.0
H355 H 0.17681 0.54757 0.12541 0.0
H356 H 0.27592 0.41575 0.1687 0.0
H357 H 0.2893 0.37673 0.18423 0.0
H358 H 0.36819 0.39438 0.17324 0.0
H359 H 0.35462 0.43347 0.15808 0.0
C360 C 0.68437 0.9979 0.89122 0.0
Eu361 Eu 0.72566 0.02293 0.89485 0.0
C362 C 0.66711 0.98253 0.90476 0.0
C363 C 0.66764 0.95771 0.90069 0.0
C364 C 0.64921 0.94335 0.91079 0.0
C365 C 0.62964 0.95349 0.92503 0.0
C366 C 0.62967 0.97823 0.92981 0.0
C367 C 0.64815 0.99259 0.91977 0.0
C368 C 0.76842 0.01828 0.8675 0.0
C369 C 0.76496 1.00183 0.93466 0.0
C370 C 0.81033 0.07939 0.9144 0.0
Eu371 Eu 0.77042 0.05262 0.91089 0.0
C372 C 0.82006 0.101 0.90307 0.0
C373 C 0.82658 0.12059 0.91757 0.0
C374 C 0.83613 0.14121 0.90752 0.0
C375 C 0.83967 0.14266 0.88268 0.0
C376 C 0.83275 0.1231 0.8681 0.0
C377 C 0.82299 0.10249 0.87818 0.0
C378 C 0.73048 0.0545 0.94113 0.0
C379 C 0.7323 0.07157 0.86794 0.0
O380 O 0.68438 0.0207 0.89674 0.0
O381 O 0.70711 0.98938 0.88583 0.0
O382 O 0.7455 0.01793 0.85856 0.0
O383 O 0.7673 0.01971 0.8898 0.0
O384 O 0.74089 1.00326 0.92737 0.0
O385 O 0.78179 0.01765 0.92794 0.0
O386 O 0.80978 0.05972 0.90146 0.0
O387 O 0.79005 0.08247 0.92769 0.0
O388 O 0.7542 0.05425 0.94784 0.0
O389 O 0.72859 0.055 0.91856 0.0
O390 O 0.75493 0.07272 0.87847 0.0
O391 O 0.71588 0.05515 0.87347 0.0
H392 H 0.68188 0.94944 0.88909 0.0
H393 H 0.65003 0.92431 0.90705 0.0
H394 H 0.61476 0.98671 0.94047 0.0
H395 H 0.647 0.01168 0.92313 0.0
H396 H 0.82431 0.11993 0.93677 0.0
H397 H 0.8407 0.15606 0.91928 0.0
H398 H 0.8354 0.12348 0.84894 0.0
H399 H 0.81795 0.0877 0.86651 0.0
C400 C 0.82966 0.03494 0.40088 0.0
Eu401 Eu 0.7893 0.00847 0.39758 0.0
C402 C 0.84669 0.0492 0.41656 0.0
C403 C 0.84631 0.07421 0.41489 0.0
C404 C 0.86513 0.08778 0.42613 0.0
C405 C 0.88499 0.07667 0.4392 0.0
C406 C 0.88466 0.05172 0.44187 0.0
C407 C 0.86578 0.03813 0.43062 0.0
C408 C 0.74753 0.01613 0.36905 0.0
C409 C 0.74668 0.02272 0.43633 0.0
C410 C 0.70456 0.94861 0.40023 0.0
Eu411 Eu 0.74492 0.97488 0.4048 0.0
C412 C 0.69686 0.92411 0.39395 0.0
C413 C 0.67546 0.91476 0.40505 0.0
C414 C 0.66665 0.8922 0.39846 0.0
C415 C 0.67905 0.87848 0.38053 0.0
C416 C 0.70078 0.88778 0.36965 0.0
C417 C 0.70965 0.91037 0.37634 0.0
C418 C 0.78386 0.96816 0.43601 0.0
C419 C 0.78707 0.96305 0.36247 0.0
O420 O 0.83029 0.01167 0.40282 0.0
O421 O 0.80679 0.04351 0.39602 0.0
O422 O 0.7707 0.01948 0.36193 0.0
O423 O 0.74781 0.01073 0.39063 0.0
O424 O 0.77156 0.02159 0.43249 0.0
O425 O 0.73115 0.00863 0.42412 0.0
O426 O 0.71375 0.96137 0.38302 0.0
O427 O 0.71667 0.95171 0.42051 0.0
O428 O 0.76005 0.96509 0.44091 0.0
O429 O 0.78654 0.97262 0.41405 0.0
O430 O 0.76515 0.95778 0.3726 0.0
O431 O 0.80097 0.98098 0.37009 0.0
H432 H 0.83202 0.08328 0.40404 0.0
H433 H 0.8645 0.10698 0.42403 0.0
H434 H 0.89972 0.04252 0.45164 0.0
H435 H 0.86684 0.01887 0.43214 0.0
H436 H 0.66524 0.92513 0.41858 0.0
H437 H 0.64968 0.88579 0.40699 0.0
H438 H 0.71096 0.87759 0.35599 0.0
H439 H 0.72627 0.91719 0.36757 0.0
C440 C 0.24136 0.60097 0.6464 0.0
Eu441 Eu 0.26572 0.55995 0.64694 0.0
C442 C 0.23053 0.62058 0.66153 0.0
C443 C 0.20406 0.62497 0.66136 0.0
C444 C 0.19356 0.64521 0.67284 0.0
C445 C 0.20934 0.66169 0.68461 0.0
C446 C 0.2358 0.65694 0.6854 0.0
C447 C 0.2463 0.63659 0.67401 0.0
C448 C 0.2547 0.51884 0.62277 0.0
C449 C 0.25203 0.52799 0.6926 0.0
C450 C 0.31757 0.46887 0.65574 0.0
Eu451 Eu 0.29939 0.51235 0.65858 0.0
C452 C 0.34237 0.45689 0.65123 0.0
C453 C 0.36538 0.46844 0.656 0.0
C454 C 0.38875 0.457 0.65073 0.0
C455 C 0.3895 0.43387 0.64044 0.0
C456 C 0.36629 0.4225 0.63564 0.0
C457 C 0.34299 0.43391 0.64101 0.0
C458 C 0.31789 0.55143 0.68205 0.0
C459 C 0.31539 0.54796 0.61538 0.0
O460 O 0.26629 0.59865 0.64527 0.0
O461 O 0.22977 0.58043 0.64614 0.0
O462 O 0.25218 0.53981 0.61326 0.0
O463 O 0.26127 0.52104 0.64419 0.0
O464 O 0.25263 0.54975 0.68366 0.0
O465 O 0.26613 0.50984 0.68399 0.0
O466 O 0.30748 0.48016 0.63749 0.0
O467 O 0.31511 0.48077 0.67604 0.0
O468 O 0.32816 0.53014 0.68368 0.0
O469 O 0.29972 0.55029 0.66746 0.0
O470 O 0.31681 0.52619 0.62444 0.0
O471 O 0.29935 0.56478 0.62331 0.0
H472 H 0.19149 0.61314 0.65163 0.0
H473 H 0.17315 0.64846 0.67162 0.0
H474 H 0.24843 0.66914 0.69456 0.0
H475 H 0.26682 0.6338 0.67444 0.0
H476 H 0.36527 0.48631 0.6637 0.0
H477 H 0.40621 0.4662 0.65489 0.0
H478 H 0.36607 0.40492 0.62732 0.0
H479 H 0.32539 0.42486 0.63692 0.0
C480 C 0.1903 0.33031 0.52586 0.0
C481 C 0.18547 0.31286 0.543 0.0
C482 C 0.20111 0.35202 0.53257 0.0
C483 C 0.23671 0.38298 0.5807 0.0
H484 H 0.20215 0.43985 0.55682 0.0
C485 C 0.24898 0.47501 0.62545 0.0
C486 C 0.24919 0.49553 0.61133 0.0
C487 C 0.24363 0.45275 0.61536 0.0
C488 C 0.21236 0.42421 0.56334 0.0
H489 H 0.18936 0.30423 0.58049 0.0
H490 H 0.20841 0.3421 0.59216 0.0
H491 H 0.18925 0.40057 0.54252 0.0
H492 H 0.24401 0.50886 0.57551 0.0
H493 H 0.23479 0.46966 0.5576 0.0
H494 H 0.25974 0.40654 0.60161 0.0
C495 C 0.20382 0.33893 0.57351 0.0
C496 C 0.20491 0.40165 0.55517 0.0
C497 C 0.19285 0.31722 0.56682 0.0
C498 C 0.24393 0.49332 0.5868 0.0
C499 C 0.23858 0.4709 0.57661 0.0
C500 C 0.24427 0.40553 0.58876 0.0
C501 C 0.20753 0.3568 0.55654 0.0
C502 C 0.21675 0.38075 0.56402 0.0
C503 C 0.23835 0.45031 0.59081 0.0
C504 C 0.23189 0.42645 0.58051 0.0
H505 H 0.18498 0.32757 0.50731 0.0
H506 H 0.20409 0.36525 0.519 0.0
H507 H 0.24647 0.36725 0.58759 0.0
H508 H 0.25272 0.47616 0.64448 0.0
H509 H 0.24309 0.4375 0.627 0.0
C510 C 0.79364 0.01172 0.82956 0.0
C511 C 0.79255 0.01314 0.85462 0.0
C512 C 0.81675 1.00564 0.81811 0.0
C513 C 0.87435 1.00408 0.80159 0.0
H514 H 0.90663 0.94628 0.82595 0.0
C515 C 0.97907 0.96908 0.78126 0.0
C516 C 0.98107 0.94454 0.77571 0.0
C517 C 0.95553 0.97938 0.78834 0.0
C518 C 0.89785 0.96243 0.81891 0.0
H519 H 0.81485 0.00994 0.88727 0.0
H520 H 0.85463 0.99908 0.86743 0.0
H521 H 0.86644 0.96086 0.84299 0.0
H522 H 0.95981 0.91183 0.77224 0.0
H523 H 0.91928 0.92962 0.78468 0.0
H524 H 0.90627 1.00565 0.77767 0.0
C525 C 0.83781 1.00264 0.85659 0.0
C526 C 0.8749 0.97081 0.82873 0.0
C527 C 0.81498 0.00893 0.86793 0.0
C528 C 0.95902 0.93076 0.77652 0.0
C529 C 0.93575 0.94092 0.78371 0.0
C530 C 0.89769 0.99583 0.79195 0.0
C531 C 0.83891 1.00059 0.83162 0.0
C532 C 0.86288 0.9917 0.82022 0.0
C533 C 0.9338 0.96519 0.79017 0.0
C534 C 0.90955 0.97482 0.80047 0.0
H535 H 0.77665 0.01498 0.81889 0.0
H536 H 0.81711 1.00409 0.79881 0.0
H537 H 0.86552 0.02031 0.79482 0.0
H538 H 0.99575 0.98013 0.78072 0.0
H539 H 0.95453 0.99815 0.7933 0.0
C540 C 0.32691 0.70325 0.02055 0.0
C541 C 0.33581 0.72077 0.03665 0.0
C542 C 0.31609 0.68237 0.0289 0.0
C543 C 0.28652 0.65566 0.08163 0.0
H544 H 0.30993 0.59557 0.05309 0.0
C545 C 0.24459 0.56559 0.10855 0.0
C546 C 0.26243 0.54713 0.11347 0.0
C547 C 0.25218 0.58643 0.0974 0.0
C548 C 0.30323 0.6122 0.06125 0.0
H549 H 0.33955 0.73026 0.07423 0.0
H550 H 0.32052 0.69394 0.08872 0.0
H551 H 0.32525 0.63317 0.03762 0.0
H552 H 0.30207 0.53579 0.10962 0.0
H553 H 0.31524 0.57211 0.09005 0.0
H554 H 0.26487 0.6347 0.10554 0.0
C555 C 0.32186 0.69641 0.06963 0.0
C556 C 0.31181 0.63375 0.05225 0.0
C557 C 0.33283 0.71723 0.06129 0.0
C558 C 0.28782 0.54962 0.1061 0.0
C559 C 0.29537 0.57042 0.09481 0.0
C560 C 0.27779 0.63413 0.0905 0.0
C561 C 0.31374 0.67857 0.05354 0.0
C562 C 0.30371 0.65573 0.06246 0.0
C563 C 0.27774 0.58926 0.09075 0.0
C564 C 0.28619 0.61213 0.08054 0.0
H565 H 0.32887 0.7053 1.00145 0.0
H566 H 0.30972 0.6691 0.01605 0.0
H567 H 0.27979 0.67229 0.08977 0.0
H568 H 0.22485 0.5643 0.11389 0.0
H569 H 0.23806 0.60046 0.0942 0.0
C570 C 0.55664 0.10134 0.2771 0.0
C571 C 0.53333 0.08962 0.27927 0.0
C572 C 0.57959 0.09016 0.2838 0.0
C573 C 0.60647 0.05331 0.3277 0.0
H574 H 0.66415 0.04127 0.28578 0.0
C575 C 0.70029 0.01496 0.36573 0.0
C576 C 0.72359 0.0215 0.3558 0.0
C577 C 0.6772 0.02058 0.35447 0.0
C578 C 0.64843 0.04482 0.29786 0.0
H579 H 0.51579 0.05701 0.29046 0.0
H580 H 0.55618 0.03776 0.30344 0.0
H581 H 0.6234 0.05559 0.26921 0.0
H582 H 0.74099 0.03938 0.32628 0.0
H583 H 0.70045 0.05077 0.30717 0.0
H584 H 0.63134 0.04456 0.3566 0.0
C585 C 0.5565 0.05539 0.29576 0.0
C586 C 0.625 0.05272 0.28826 0.0
C587 C 0.53347 0.06638 0.28838 0.0
C588 C 0.7233 0.03393 0.33423 0.0
C589 C 0.69998 0.04027 0.32322 0.0
C590 C 0.62996 0.04603 0.33739 0.0
C591 C 0.57971 0.06727 0.29352 0.0
C592 C 0.60385 0.05695 0.30312 0.0
C593 C 0.67651 0.03386 0.33334 0.0
C594 C 0.65137 0.04155 0.32266 0.0
H595 H 0.55715 0.11948 0.2708 0.0
H596 H 0.59718 0.09982 0.28231 0.0
H597 H 0.59055 0.05697 0.33956 0.0
H598 H 0.69977 1.00563 0.3825 0.0
H599 H 0.65986 0.01456 0.36261 0.0
C600 C 0.69649 0.22152 0.52115 0.0
C601 C 0.67967 0.23473 0.50662 0.0
C602 C 0.70295 0.19774 0.51527 0.0
C603 C 0.69972 0.15347 0.46436 0.0
H604 H 0.71634 0.10786 0.51384 0.0
C605 C 0.71155 0.05265 0.44448 0.0
C606 C 0.73607 0.04352 0.44995 0.0
C607 C 0.70333 0.0749 0.45362 0.0
C608 C 0.71171 0.12046 0.49989 0.0
H609 H 0.65566 0.23336 0.47504 0.0
H610 H 0.66576 0.1918 0.46536 0.0
H611 H 0.70443 0.149 0.52495 0.0
H612 H 0.77051 0.0498 0.47053 0.0
H613 H 0.75567 0.08837 0.48719 0.0
H614 H 0.70619 0.12456 0.43945 0.0
C615 C 0.67504 0.19982 0.48072 0.0
C616 C 0.7051 0.14413 0.50618 0.0
C617 C 0.66909 0.2237 0.48632 0.0
C618 C 0.75151 0.05636 0.46602 0.0
C619 C 0.74305 0.0784 0.47556 0.0
C620 C 0.70575 0.12975 0.45817 0.0
C621 C 0.69226 0.18647 0.49496 0.0
C622 C 0.6991 0.16106 0.48848 0.0
C623 C 0.71922 0.0882 0.46881 0.0
C624 C 0.7119 0.11305 0.47584 0.0
H625 H 0.70485 0.22967 0.53695 0.0
H626 H 0.71657 0.18836 0.52653 0.0
H627 H 0.69596 0.1659 0.45009 0.0
H628 H 0.69926 0.04333 0.43201 0.0
H629 H 0.68483 0.08205 0.44824 0.0
C630 C 0.0797 0.43999 0.79982 0.0
C631 C 0.05543 0.44415 0.78972 0.0
C632 C 0.10049 0.45328 0.79288 0.0
C633 C 0.12138 0.49061 0.74271 0.0
H634 H 0.18089 0.4985 0.78343 0.0
C635 C 0.21096 0.53914 0.71266 0.0
C636 C 0.23197 0.52318 0.71024 0.0
C637 C 0.18966 0.53287 0.72579 0.0
C638 C 0.16432 0.49647 0.77198 0.0
H639 H 0.03357 0.46653 0.76549 0.0
H640 H 0.0696 0.4907 0.75422 0.0
H641 H 0.14174 0.48302 0.8002 0.0
H642 H 0.24782 0.48891 0.72116 0.0
H643 H 0.21065 0.47831 0.74484 0.0
H644 H 0.14403 0.50468 0.71471 0.0
C645 C 0.07286 0.47647 0.76682 0.0
C646 C 0.14192 0.48745 0.78145 0.0
C647 C 0.05211 0.46277 0.77341 0.0
C648 C 0.23193 0.50154 0.72264 0.0
C649 C 0.21075 0.49549 0.73621 0.0
C650 C 0.14355 0.50015 0.73345 0.0
C651 C 0.0975 0.47149 0.77598 0.0
C652 C 0.12031 0.48385 0.7668 0.0
C653 C 0.18918 0.51081 0.7372 0.0
C654 C 0.16529 0.50271 0.74788 0.0
H655 H 0.083 0.42564 0.81231 0.0
H656 H 0.11908 0.44846 0.80006 0.0
H657 H 0.1055 0.48772 0.73065 0.0
H658 H 0.21028 0.55594 0.70331 0.0
H659 H 0.1732 0.54492 0.72639 0.0
C660 C 0.79953 0.97656 0.9536 0.0
C661 C 0.77355 0.98055 0.94825 0.0
C662 C 0.80796 0.95496 0.96353 0.0
C663 C 0.78575 0.89996 0.99305 0.0
H664 H 0.84677 0.87137 0.96487 0.0
C665 C 0.82907 0.80909 0.0238 0.0
C666 C 0.839 0.79371 1.00595 0.0
C667 C 0.82121 0.83245 0.01835 0.0
C668 C 0.8296 0.87901 0.97282 0.0
H669 H 0.73592 0.96529 0.95021 0.0
H670 H 0.7506 0.92772 0.96717 0.0
H671 H 0.83302 0.91142 0.95351 0.0
H672 H 0.8478 0.79035 0.96827 0.0
H673 H 0.83359 0.83085 0.95858 0.0
H674 H 0.78188 0.86715 0.01171 0.0
C675 C 0.7645 0.9413 0.96394 0.0
C676 C 0.82191 0.90217 0.96658 0.0
C677 C 0.75608 0.96287 0.95407 0.0
C678 C 0.84028 0.80185 0.98241 0.0
C679 C 0.83239 0.82516 0.97693 0.0
C680 C 0.79343 0.87676 0.99928 0.0
C681 C 0.79061 0.93684 0.96832 0.0
C682 C 0.79975 0.91287 0.97642 0.0
C683 C 0.82301 0.84086 0.99487 0.0
C684 C 0.8153 0.86589 0.98903 0.0
H685 H 0.81351 0.9898 0.94944 0.0
H686 H 0.82815 0.9523 0.96706 0.0
H687 H 0.76874 0.90773 1.00117 0.0
H688 H 0.82767 0.80317 0.04207 0.0
H689 H 0.81424 0.84406 0.03264 0.0
C690 C 0.45954 0.58631 0.28391 0.0
C691 C 0.47547 0.59302 0.26517 0.0
C692 C 0.43502 0.57796 0.27911 0.0
C693 C 0.38557 0.57862 0.23137 0.0
H694 H 0.35705 0.52568 0.26537 0.0
C695 C 0.30483 0.52422 0.19248 0.0
C696 C 0.28295 0.52125 0.20642 0.0
C697 C 0.32696 0.53333 0.20254 0.0
C698 C 0.36467 0.5407 0.25602 0.0
H699 H 0.47872 0.59543 0.22675 0.0
H700 H 0.4364 0.58027 0.21826 0.0
H701 H 0.399 0.5407 0.27709 0.0
H702 H 0.26743 0.52459 0.24211 0.0
H703 H 0.30691 0.54035 0.26005 0.0
H704 H 0.3518 0.57803 0.20974 0.0
C705 C 0.44241 0.58207 0.23673 0.0
C706 C 0.38866 0.54932 0.26268 0.0
C707 C 0.46679 0.59052 0.24155 0.0
C708 C 0.28401 0.52679 0.23097 0.0
C709 C 0.30651 0.53574 0.2412 0.0
C710 C 0.36184 0.56991 0.22464 0.0
C711 C 0.42602 0.57603 0.25544 0.0
C712 C 0.39966 0.56802 0.25002 0.0
C713 C 0.32797 0.53953 0.22687 0.0
C714 C 0.3514 0.55054 0.23652 0.0
H715 H 0.4659 0.58784 0.3023 0.0
H716 H 0.42293 0.57356 0.29395 0.0
H717 H 0.39305 0.59349 0.22168 0.0
H718 H 0.30477 0.51999 0.17355 0.0
H719 H 0.34335 0.53572 0.19118 0.0
C720 C 0.49691 0.18957 0.32772 0.0
C721 C 0.51421 0.18332 0.30943 0.0
C722 C 0.50559 0.19893 0.3495 0.0
C723 C 0.56375 0.20059 0.38715 0.0
H724 H 0.52471 0.24804 0.42351 0.0
C725 C 0.5921 0.22641 0.48377 0.0
C726 C 0.59135 0.25097 0.4894 0.0
C727 C 0.58084 0.21787 0.46265 0.0
C728 C 0.53593 0.23486 0.41356 0.0
H729 H 0.55409 0.18322 0.29929 0.0
H730 H 0.56915 0.20014 0.33707 0.0
H731 H 0.50994 0.23582 0.38395 0.0
H732 H 0.57723 0.28565 0.47773 0.0
H733 H 0.558 0.27087 0.44102 0.0
H734 H 0.59017 0.20019 0.41641 0.0
C735 C 0.54892 0.19722 0.33479 0.0
C736 C 0.52732 0.22768 0.39093 0.0
C737 C 0.54025 0.18774 0.31301 0.0
C738 C 0.57818 0.26661 0.47398 0.0
C739 C 0.567 0.2581 0.45292 0.0
C740 C 0.57241 0.20784 0.40973 0.0
C741 C 0.53176 0.20241 0.3535 0.0
C742 C 0.54115 0.21049 0.3774 0.0
C743 C 0.5686 0.2337 0.44673 0.0
C744 C 0.55865 0.22512 0.42321 0.0
H745 H 0.47671 0.18638 0.32564 0.0
H746 H 0.49182 0.20252 0.36352 0.0
H747 H 0.57468 0.18702 0.37743 0.0
H748 H 0.60215 0.21388 0.49521 0.0
H749 H 0.58207 0.1989 0.45863 0.0
C750 C 0.10446 0.28519 0.58931 0.0
C751 C 0.08809 0.28249 0.5695 0.0
C752 C 0.09488 0.29174 0.6117 0.0
C753 C 0.07165 0.32335 0.65044 0.0
H754 H 0.01516 0.29321 0.68163 0.0
C755 C 0.02743 0.36355 0.73574 0.0
C756 C 0.0241 0.34815 0.75501 0.0
C757 C 0.03309 0.35449 0.71298 0.0
C758 C 0.03101 0.30171 0.67313 0.0
H759 H 0.04861 0.28379 0.55789 0.0
H760 H 0.03161 0.29523 0.59754 0.0
H761 H 0.02877 0.27918 0.64169 0.0
H762 H 0.02335 0.31109 0.76536 0.0
H763 H 0.03326 0.29506 0.72516 0.0
H764 H 0.07409 0.34583 0.68154 0.0
C765 C 0.05197 0.29225 0.59548 0.0
C766 C 0.03862 0.29385 0.65022 0.0
C767 C 0.06167 0.28583 0.57281 0.0
C768 C 0.02591 0.32336 0.75085 0.0
C769 C 0.03142 0.31422 0.72785 0.0
C770 C 0.06389 0.33135 0.67305 0.0
C771 C 0.0686 0.29569 0.61505 0.0
C772 C 0.0592 0.30448 0.63874 0.0
C773 C 0.03549 0.32976 0.70876 0.0
C774 C 0.04354 0.32064 0.68473 0.0
H775 H 0.12491 0.28267 0.58748 0.0
H776 H 0.10815 0.29392 0.62644 0.0
H777 H 0.08745 0.33203 0.64203 0.0
H778 H 0.02613 0.38275 0.7383 0.0
H779 H 0.03578 0.36694 0.69863 0.0
C780 C 0.97723 0.84615 0.80812 0.0
C781 C 0.00309 0.85163 0.80541 0.0
C782 C 0.96882 0.83532 0.82894 0.0
C783 C 0.98615 0.82918 0.89235 0.0
H784 H 0.9357 0.77961 0.89183 0.0
C785 C 0.9321 0.80085 0.97701 0.0
C786 C 0.92811 0.77631 0.97981 0.0
C787 C 0.94263 0.80931 0.95592 0.0
C788 C 0.94994 0.79333 0.89227 0.0
H789 H 0.04057 0.84901 0.82208 0.0
H790 H 0.0259 0.83008 0.85817 0.0
H791 H 0.95137 0.7947 0.85406 0.0
H792 H 0.93281 0.74135 0.96283 0.0
H793 H 0.95122 0.75614 0.92624 0.0
H794 H 0.98473 0.82782 0.93054 0.0
C795 C 0.01206 0.83449 0.84438 0.0
C796 C 0.95873 0.80212 0.87064 0.0
C797 C 0.02048 0.8452 0.82358 0.0
C798 C 0.93553 0.76039 0.96131 0.0
C799 C 0.94592 0.76885 0.94022 0.0
C800 C 0.97724 0.82051 0.91397 0.0
C801 C 0.98608 0.82982 0.84751 0.0
C802 C 0.97695 0.82013 0.87043 0.0
C803 C 0.94928 0.79343 0.93715 0.0
C804 C 0.95904 0.80248 0.91419 0.0
H805 H 0.96331 0.8509 0.79452 0.0
H806 H 0.94865 0.83206 0.83086 0.0
H807 H 0.99997 0.84328 0.8928 0.0
H808 H 0.92652 0.81363 0.99083 0.0
H809 H 0.94481 0.82838 0.95403 0.0
C810 C 0.50617 0.69071 0.22014 0.0
C811 C 0.49102 0.67609 0.2342 0.0
C812 C 0.49683 0.69955 0.19843 0.0
C813 C 0.45599 0.68405 0.1491 0.0
H814 H 0.45265 0.75139 0.13414 0.0
C815 C 0.41249 0.71647 0.05981 0.0
C816 C 0.42202 0.73719 0.04971 0.0
C817 C 0.42023 0.70957 0.08272 0.0
C818 C 0.45387 0.73246 0.13774 0.0
H819 H 0.45425 0.65929 0.23657 0.0
H820 H 0.43831 0.67419 0.19828 0.0
H821 H 0.46782 0.73884 0.17338 0.0
H822 H 0.44748 0.76665 0.05511 0.0
H823 H 0.4622 0.75405 0.0944 0.0
H824 H 0.44336 0.67728 0.11337 0.0
C825 C 0.45719 0.67909 0.2043 0.0
C826 C 0.46238 0.72535 0.16035 0.0
C827 C 0.46627 0.67073 0.22626 0.0
C828 C 0.43973 0.75068 0.06266 0.0
C829 C 0.44796 0.74351 0.08532 0.0
C830 C 0.44805 0.69107 0.12631 0.0
C831 C 0.47246 0.69343 0.19012 0.0
C832 C 0.46338 0.7011 0.16625 0.0
C833 C 0.43819 0.72293 0.09584 0.0
C834 C 0.44675 0.71541 0.12025 0.0
H835 H 0.52533 0.69507 0.22579 0.0
H836 H 0.50898 0.7105 0.18774 0.0
H837 H 0.45688 0.66519 0.15317 0.0
H838 H 0.3985 0.70595 0.05028 0.0
H839 H 0.41172 0.69396 0.09022 0.0
C840 C 0.18904 0.34305 0.37869 0.0
C841 C 0.16325 0.34508 0.38548 0.0
C842 C 0.19736 0.35305 0.35738 0.0
C843 C 0.17293 0.37468 0.29893 0.0
H844 H 0.2366 0.40847 0.29663 0.0
C845 C 0.1954 0.44013 0.22423 0.0
C846 C 0.22038 0.44076 0.21527 0.0
C847 C 0.18975 0.42604 0.24378 0.0
C848 C 0.21896 0.39878 0.29687 0.0
H849 H 0.12601 0.35909 0.37483 0.0
H850 H 0.14056 0.37698 0.33826 0.0
H851 H 0.22436 0.38895 0.33344 0.0
H852 H 0.25896 0.42656 0.21966 0.0
H853 H 0.24902 0.40189 0.25399 0.0
H854 H 0.16726 0.38489 0.26257 0.0
C855 C 0.15437 0.36741 0.34921 0.0
C856 C 0.21192 0.38759 0.31799 0.0
C857 C 0.14607 0.35744 0.37044 0.0
C858 C 0.23951 0.4265 0.22609 0.0
C859 C 0.23386 0.41249 0.24585 0.0
C860 C 0.17992 0.38589 0.2779 0.0
C861 C 0.18007 0.36524 0.34228 0.0
C862 C 0.18859 0.37575 0.31941 0.0
C863 C 0.20893 0.41225 0.25503 0.0
C864 C 0.20281 0.39842 0.27671 0.0
H865 H 0.20285 0.33382 0.38991 0.0
H866 H 0.21727 0.35091 0.35255 0.0
H867 H 0.15512 0.36524 0.29916 0.0
H868 H 0.18015 0.45083 0.21639 0.0
H869 H 0.17042 0.42653 0.25054 0.0
C870 C 0.92396 0.93849 0.60697 0.0
C871 C 0.93125 0.91472 0.61192 0.0
C872 C 0.91271 0.94434 0.58498 0.0
C873 C 0.87464 0.91633 0.53744 0.0
H874 H 0.88335 0.97609 0.50458 0.0
C875 C 0.79765 0.95475 0.47613 0.0
C876 C 0.80447 0.9628 0.45346 0.0
C877 C 0.81623 0.94887 0.49305 0.0
C878 C 0.88098 0.9592 0.5134 0.0
H879 H 0.93402 0.87882 0.59695 0.0
H880 H 0.91442 0.88898 0.55874 0.0
H881 H 0.91131 0.96585 0.53845 0.0
H882 H 0.83625 0.97162 0.43092 0.0
H883 H 0.86919 0.96158 0.46105 0.0
H884 H 0.84404 0.90987 0.51291 0.0
C885 C 0.9169 0.90303 0.57201 0.0
C886 C 0.89679 0.95344 0.53292 0.0
C887 C 0.9281 0.89719 0.59395 0.0
C888 C 0.83047 0.96539 0.44823 0.0
C889 C 0.84924 0.95971 0.46544 0.0
C890 C 0.85883 0.92215 0.51815 0.0
C891 C 0.90851 0.92657 0.56744 0.0
C892 C 0.89353 0.93207 0.54539 0.0
C893 C 0.84222 0.95103 0.4879 0.0
C894 C 0.86144 0.94384 0.50622 0.0
H895 H 0.92593 0.95241 0.62045 0.0
H896 H 0.90625 0.9626 0.58217 0.0
H897 H 0.87134 0.89986 0.54672 0.0
H898 H 0.77781 0.95275 0.48087 0.0
H899 H 0.81018 0.94267 0.51031 0.0
C900 C 0.30536 0.58994 0.70295 0.0
C901 C 0.32305 0.57106 0.6991 0.0
C902 C 0.30856 0.60585 0.72231 0.0
C903 C 0.3379 0.6061 0.78192 0.0
H904 H 0.32976 0.67504 0.78084 0.0
C905 C 0.37232 0.66525 0.85959 0.0
C906 C 0.35766 0.68557 0.86622 0.0
C907 C 0.36613 0.65193 0.83916 0.0
C908 C 0.33172 0.65577 0.7815 0.0
H909 H 0.35868 0.5549 0.71122 0.0
H910 H 0.3644 0.58264 0.74459 0.0
H911 H 0.32302 0.65155 0.74412 0.0
H912 H 0.32484 0.70775 0.85658 0.0
H913 H 0.3137 0.68414 0.82108 0.0
H914 H 0.34652 0.61004 0.81908 0.0
C915 C 0.34783 0.58497 0.73312 0.0
C916 C 0.32793 0.64236 0.76046 0.0
C917 C 0.34466 0.56919 0.71391 0.0
C918 C 0.33638 0.69204 0.8521 0.0
C919 C 0.33018 0.6787 0.8316 0.0
C920 C 0.34156 0.61941 0.80286 0.0
C921 C 0.32942 0.60296 0.73804 0.0
C922 C 0.33153 0.61742 0.76039 0.0
C923 C 0.34506 0.65853 0.82484 0.0
C924 C 0.33902 0.64444 0.80285 0.0
H925 H 0.28846 0.59166 0.69183 0.0
H926 H 0.2941 0.61961 0.72565 0.0
H927 H 0.34018 0.58684 0.78256 0.0
H928 H 0.38869 0.65963 0.87017 0.0
H929 H 0.37821 0.63669 0.83436 0.0
C930 C 0.57789 0.11205 0.09862 0.0
C931 C 0.59065 0.10809 0.12045 0.0
C932 C 0.58849 0.10365 0.07704 0.0
C933 C 0.63635 0.06008 0.05258 0.0
H934 H 0.64045 0.10345 0.99946 0.0
C935 C 0.71458 0.05147 0.98249 0.0
C936 C 0.70932 0.05645 0.95844 0.0
C937 C 0.69592 0.05492 0.99989 0.0
C938 C 0.63901 0.09093 0.01391 0.0
H939 H 0.62413 0.09154 0.13672 0.0
H940 H 0.64264 0.07716 0.09928 0.0
H941 H 0.61557 0.11515 0.03475 0.0
H942 H 0.6801 0.06832 0.93353 0.0
H943 H 0.64711 0.07474 0.96432 0.0
H944 H 0.66039 0.0362 0.03216 0.0
C945 C 0.6244 0.08664 0.09875 0.0
C946 C 0.6248 0.09765 0.03418 0.0
C947 C 0.61393 0.09513 0.12023 0.0
C948 C 0.68464 0.06437 0.95197 0.0
C949 C 0.66586 0.06813 0.96957 0.0
C950 C 0.65049 0.05339 0.03239 0.0
C951 C 0.61192 0.09088 0.07686 0.0
C952 C 0.62396 0.08259 0.05405 0.0
C953 C 0.67143 0.0636 0.99378 0.0
C954 C 0.65268 0.06903 0.01313 0.0
H955 H 0.56 0.1221 0.09817 0.0
H956 H 0.57833 0.10713 0.06051 0.0
H957 H 0.63562 0.04782 0.06732 0.0
H958 H 0.7334 0.04525 0.98803 0.0
H959 H 0.70103 0.05158 0.01833 0.0
C960 C 0.66396 0.18939 0.69325 0.0
C961 C 0.672 0.17802 0.67192 0.0
C962 C 0.67164 0.1805 0.71545 0.0
C963 C 0.71944 0.14004 0.74451 0.0
H964 H 0.66913 0.13867 0.79491 0.0
C965 C 0.7013 0.08715 0.83741 0.0
C966 C 0.72566 0.08787 0.84804 0.0
C967 C 0.69545 0.10068 0.81728 0.0
C968 C 0.68342 0.13885 0.78102 0.0
H969 H 0.69437 0.14826 0.65732 0.0
H970 H 0.70758 0.13264 0.69597 0.0
H971 H 0.65785 0.15659 0.75684 0.0
H972 H 0.76281 0.10404 0.8461 0.0
H973 H 0.75246 0.12794 0.81099 0.0
H974 H 0.74469 0.12145 0.76844 0.0
C975 C 0.69573 0.14872 0.69557 0.0
C976 C 0.67703 0.14939 0.75924 0.0
C977 C 0.6881 0.15765 0.67337 0.0
C978 C 0.74385 0.10304 0.83839 0.0
C979 C 0.73798 0.1166 0.81814 0.0
C980 C 0.72583 0.12946 0.76631 0.0
C981 C 0.6875 0.15995 0.71692 0.0
C982 C 0.69485 0.14988 0.74057 0.0
C983 C 0.71378 0.11537 0.80718 0.0
C984 C 0.70778 0.12844 0.78474 0.0
H985 H 0.6519 0.20535 0.69279 0.0
H986 H 0.66526 0.18985 0.73148 0.0
H987 H 0.73377 0.14038 0.73067 0.0
H988 H 0.68677 0.07569 0.84429 0.0
H989 H 0.67675 0.09898 0.80918 0.0
C990 C 0.17813 0.4621 0.11412 0.0
C991 C 0.20264 0.46858 0.10699 0.0
C992 C 0.15891 0.45838 0.09692 0.0
C993 C 0.14233 0.47009 0.03327 0.0
H994 H 0.10647 0.41043 0.03569 0.0
C995 C 0.07941 0.43828 0.95445 0.0
C996 C 0.08241 0.41404 0.94786 0.0
C997 C 0.08943 0.44687 0.97609 0.0
C998 C 0.11633 0.42717 0.03474 0.0
H999 H 0.22599 0.47725 0.07662 0.0
H1000 H 0.19291 0.47084 0.047 0.0
H1001 H 0.1324 0.42309 0.06978 0.0
H1002 H 0.09756 0.3797 0.95941 0.0
H1003 H 0.11576 0.39477 0.99655 0.0
H1004 H 0.12761 0.4736 0.9978 0.0
C1005 C 0.18823 0.46869 0.06565 0.0
C1006 C 0.13091 0.43458 0.05443 0.0
C1007 C 0.20731 0.47214 0.08266 0.0
C1008 C 0.09526 0.39855 0.96366 0.0
C1009 C 0.10534 0.40714 0.98522 0.0
C1010 C 0.12785 0.46268 0.0136 0.0
C1011 C 0.16388 0.46147 0.07246 0.0
C1012 C 0.14473 0.45576 0.05361 0.0
C1013 C 0.10274 0.43145 0.99166 0.0
C1014 C 0.11526 0.44078 0.01379 0.0
H1015 H 0.17407 0.45927 0.13279 0.0
H1016 H 0.14028 0.45291 0.10271 0.0
H1017 H 0.15246 0.48669 0.0322 0.0
H1018 H 0.06974 0.45076 0.94269 0.0
H1019 H 0.08684 0.46566 0.98055 0.0
C1020 C 0.81713 0.95672 0.32813 0.0
C1021 C 0.79589 0.94919 0.34105 0.0
C1022 C 0.82451 0.94499 0.30698 0.0
C1023 C 0.81989 0.88866 0.2725 0.0
H1024 H 0.83565 0.92848 0.21874 0.0
C1025 C 0.84015 0.84893 0.17784 0.0
C1026 C 0.85884 0.85981 0.16399 0.0
C1027 C 0.83203 0.85928 0.19952 0.0
C1028 C 0.83171 0.91702 0.23361 0.0
H1029 H 0.76623 0.92282 0.34202 0.0
H1030 H 0.77936 0.90216 0.30509 0.0
H1031 H 0.82279 0.947 0.2565 0.0
H1032 H 0.88345 0.89038 0.16233 0.0
H1033 H 0.87011 0.90784 0.20034 0.0
H1034 H 0.82924 0.85866 0.24975 0.0
C1035 C 0.79022 0.91724 0.31143 0.0
C1036 C 0.82423 0.92769 0.25529 0.0
C1037 C 0.78266 0.92914 0.33256 0.0
C1038 C 0.86927 0.88126 0.17254 0.0
C1039 C 0.86129 0.89151 0.19427 0.0
C1040 C 0.8276 0.87796 0.25084 0.0
C1041 C 0.81101 0.92529 0.29821 0.0
C1042 C 0.81837 0.91367 0.27504 0.0
C1043 C 0.84246 0.88075 0.20805 0.0
C1044 C 0.83375 0.892 0.2311 0.0
H1045 H 0.82786 0.97204 0.33406 0.0
H1046 H 0.84085 0.95142 0.29743 0.0
H1047 H 0.8157 0.87737 0.28745 0.0
H1048 H 0.83188 0.83224 0.17207 0.0
H1049 H 0.81732 0.85055 0.20944 0.0
C1050 C 0.34677 0.53626 0.58308 0.0
C1051 C 0.33161 0.55383 0.59478 0.0
C1052 C 0.36055 0.54188 0.56261 0.0
C1053 C 0.3844 0.59344 0.52884 0.0
H1054 H 0.38131 0.55023 0.47419 0.0
C1055 C 0.43069 0.61674 0.43946 0.0
C1056 C 0.4165 0.61179 0.41867 0.0
C1057 C 0.42347 0.6076 0.46142 0.0
C1058 C 0.38227 0.56253 0.48926 0.0
H1059 H 0.31966 0.59125 0.59439 0.0
H1060 H 0.34319 0.6008 0.55891 0.0
H1061 H 0.36328 0.53845 0.5122 0.0
H1062 H 0.38374 0.59322 0.40452 0.0
H1063 H 0.37073 0.57768 0.44294 0.0
H1064 H 0.40218 0.618 0.50577 0.0
C1065 C 0.34479 0.58278 0.56558 0.0
C1066 C 0.37225 0.55563 0.51115 0.0
C1067 C 0.33108 0.5772 0.58591 0.0
C1068 C 0.39515 0.59719 0.42023 0.0
C1069 C 0.38779 0.58819 0.44224 0.0
C1070 C 0.39429 0.60036 0.50699 0.0
C1071 C 0.35953 0.56519 0.55354 0.0
C1072 C 0.37275 0.57122 0.53107 0.0
C1073 C 0.40175 0.59345 0.46315 0.0
C1074 C 0.39298 0.58517 0.48681 0.0
H1075 H 0.34763 0.51809 0.58944 0.0
H1076 H 0.37192 0.52797 0.55385 0.0
H1077 H 0.38545 0.60573 0.54393 0.0
H1078 H 0.44753 0.62757 0.43871 0.0
H1079 H 0.43495 0.61165 0.47705 0.0
C1080 C 0.18312 0.22743 0.4611 0.0
C1081 C 0.19152 0.23606 0.48344 0.0
C1082 C 0.20088 0.22194 0.44294 0.0
C1083 C 0.26944 0.20556 0.43691 0.0
H1084 H 0.25967 0.2173 0.36941 0.0
C1085 C 0.35129 0.18847 0.37043 0.0
C1086 C 0.34527 0.1767 0.34883 0.0
C1087 C 0.33193 0.19749 0.38541 0.0
C1088 C 0.2626 0.21374 0.3882 0.0
H1089 H 0.22459 0.2475 0.50364 0.0
H1090 H 0.2551 0.23855 0.4722 0.0
H1091 H 0.22631 0.22967 0.39782 0.0
H1092 H 0.31404 0.16642 0.3255 0.0
H1093 H 0.28035 0.18175 0.3518 0.0
H1094 H 0.30546 0.18955 0.42754 0.0
C1095 C 0.23513 0.23517 0.46876 0.0
C1096 C 0.24346 0.2208 0.40446 0.0
C1097 C 0.21758 0.24044 0.48677 0.0
C1098 C 0.31939 0.17504 0.34219 0.0
C1099 C 0.30004 0.18408 0.35716 0.0
C1100 C 0.28848 0.19857 0.42075 0.0
C1101 C 0.22721 0.22512 0.44687 0.0
C1102 C 0.24679 0.21701 0.42907 0.0
C1103 C 0.30603 0.19501 0.3792 0.0
C1104 C 0.28547 0.20271 0.39619 0.0
H1105 H 0.16311 0.22398 0.45805 0.0
H1106 H 0.19412 0.2143 0.42624 0.0
H1107 H 0.27244 0.20177 0.45564 0.0
H1108 H 0.37094 0.18999 0.37622 0.0
H1109 H 0.33729 0.20616 0.40206 0.0
C1110 C 0.08998 0.11583 0.6071 0.0
C1111 C 0.11422 0.12412 0.61365 0.0
C1112 C 0.08158 0.09384 0.61523 0.0
C1113 C 0.10521 0.03641 0.6399 0.0
H1114 H 0.03689 0.03198 0.66543 0.0
C1115 C 0.07692 0.96121 0.70234 0.0
C1116 C 0.05223 0.95196 0.70085 0.0
C1117 C 0.08369 0.98062 0.68858 0.0
C1118 C 0.05587 0.03276 0.65798 0.0
H1119 H 0.14879 0.11554 0.63351 0.0
H1120 H 0.13407 0.07742 0.64787 0.0
H1121 H 0.05014 0.06915 0.64747 0.0
H1122 H 0.01545 0.95564 0.68317 0.0
H1123 H 0.02739 0.98958 0.65892 0.0
H1124 H 0.11112 1.00021 0.65069 0.0
C1125 C 0.12159 0.08781 0.63633 0.0
C1126 C 0.06348 0.0541 0.64772 0.0
C1127 C 0.12992 0.10982 0.62833 0.0
C1128 C 0.03465 0.96226 0.68472 0.0
C1129 C 0.04143 0.98183 0.67097 0.0
C1130 C 0.0976 0.01511 0.65009 0.0
C1131 C 0.0973 0.07956 0.62993 0.0
C1132 C 0.08842 0.05632 0.63899 0.0
C1133 C 0.06598 0.99139 0.67293 0.0
C1134 C 0.07301 0.01315 0.6597 0.0
H1135 H 0.07735 0.1265 0.59596 0.0
H1136 H 0.06283 0.08793 0.60985 0.0
H1137 H 0.12437 0.03736 0.6329 0.0
H1138 H 0.09102 0.95376 0.71452 0.0
H1139 H 0.10264 0.98767 0.69084 0.0
C1140 C 0.1746 0.8461 0.85602 0.0
C1141 C 0.16034 0.86691 0.86205 0.0
C1142 C 0.19368 0.8373 0.87142 0.0
C1143 C 0.21775 0.8424 0.93423 0.0
H1144 H 0.28152 0.81887 0.90694 0.0
C1145 C 0.30975 0.8327 0.99034 0.0
C1146 C 0.32448 0.81162 0.98737 0.0
C1147 C 0.2895 0.83795 0.97478 0.0
C1148 C 0.26373 0.82517 0.91482 0.0
H1149 H 0.15439 0.89412 0.88958 0.0
H1150 H 0.18796 0.87936 0.91589 0.0
H1151 H 0.24611 0.83028 0.88061 0.0
H1152 H 0.32885 0.77908 0.96638 0.0
H1153 H 0.29401 0.78858 0.93852 0.0
H1154 H 0.23565 0.83789 0.9684 0.0
C1155 C 0.18431 0.86958 0.89943 0.0
C1156 C 0.24336 0.83164 0.89973 0.0
C1157 C 0.16521 0.87828 0.88414 0.0
C1158 C 0.31855 0.79588 0.96848 0.0
C1159 C 0.2984 0.80123 0.95272 0.0
C1160 C 0.23816 0.83616 0.94925 0.0
C1161 C 0.199 0.84909 0.89323 0.0
C1162 C 0.22017 0.84063 0.90923 0.0
C1163 C 0.2835 0.82224 0.95584 0.0
C1164 C 0.26149 0.82773 0.93974 0.0
H1165 H 0.17152 0.83696 0.8391 0.0
H1166 H 0.20433 0.8213 0.86616 0.0
H1167 H 0.20006 0.84869 0.94227 0.0
H1168 H 0.31377 0.84512 1.00484 0.0
H1169 H 0.27856 0.85441 0.97753 0.0
C1170 C 0.44031 0.07436 0.20215 0.0
C1171 C 0.46584 0.08141 0.20361 0.0
C1172 C 0.4338 0.05359 0.18968 0.0
C1173 C 0.45761 1.00693 0.14672 0.0
H1174 H 0.40744 0.9687 0.17825 0.0
C1175 C 0.41817 0.91992 0.10439 0.0
C1176 C 0.4136 0.90084 0.11975 0.0
C1177 C 0.4247 0.94236 0.11358 0.0
C1178 C 0.42166 0.979 0.16928 0.0
H1179 H 0.50444 0.07274 0.19218 0.0
H1180 H 0.49315 0.03606 0.17079 0.0
H1181 H 0.41881 1.00707 0.19541 0.0
H1182 H 0.41226 0.89062 0.15695 0.0
H1183 H 0.42442 0.92936 0.17288 0.0
H1184 H 0.46105 0.97829 0.12104 0.0
C1185 C 0.47808 0.04679 0.17904 0.0
C1186 C 0.42791 1.00125 0.17894 0.0
C1187 C 0.48459 0.06779 0.19135 0.0
C1188 C 0.41589 0.90477 0.14453 0.0
C1189 C 0.42254 0.92714 0.15371 0.0
C1190 C 0.45143 0.98453 0.13709 0.0
C1191 C 0.45267 0.03912 0.17857 0.0
C1192 C 0.44592 0.01556 0.16779 0.0
C1193 C 0.42691 0.94628 0.13838 0.0
C1194 C 0.43341 0.97025 0.14831 0.0
H1195 H 0.42534 0.08463 0.2111 0.0
H1196 H 0.41394 0.04864 0.18914 0.0
H1197 H 0.47142 0.01751 0.13755 0.0
H1198 H 0.41693 0.91749 0.08519 0.0
H1199 H 0.42767 0.95672 0.10124 0.0
C1200 C 0.85721 0.36037 0.70445 0.0
C1201 C 0.86502 0.38359 0.69931 0.0
C1202 C 0.83629 0.35054 0.69262 0.0
C1203 C 0.77869 0.36652 0.65738 0.0
H1204 H 0.78467 0.30107 0.63402 0.0
C1205 C 0.70886 0.32752 0.58816 0.0
C1206 C 0.70108 0.30385 0.59084 0.0
C1207 C 0.72793 0.33693 0.60278 0.0
C1208 C 0.78253 0.31925 0.64072 0.0
H1209 H 0.85662 0.41486 0.67804 0.0
H1210 H 0.82028 0.39757 0.65712 0.0
H1211 H 0.81959 0.31827 0.657 0.0
H1212 H 0.7072 0.27154 0.61122 0.0
H1213 H 0.74048 0.28809 0.63689 0.0
H1214 H 0.74174 0.36757 0.64092 0.0
C1215 C 0.83023 0.38704 0.67047 0.0
C1216 C 0.80255 0.32912 0.65388 0.0
C1217 C 0.85121 0.39687 0.68227 0.0
C1218 C 0.71277 0.28983 0.60862 0.0
C1219 C 0.73192 0.29926 0.62326 0.0
C1220 C 0.75867 0.35665 0.64424 0.0
C1221 C 0.82265 0.3637 0.67539 0.0
C1222 C 0.80095 0.35294 0.66219 0.0
C1223 C 0.73974 0.32293 0.62047 0.0
C1224 C 0.76045 0.33297 0.63556 0.0
H1225 H 0.86762 0.34955 0.71726 0.0
H1226 H 0.83079 0.33261 0.69699 0.0
H1227 H 0.77667 0.38478 0.66387 0.0
H1228 H 0.70035 0.33886 0.57464 0.0
H1229 H 0.73376 0.35509 0.59989 0.0
C1230 C 0.93533 0.44306 0.84852 0.0
C1231 C 0.96058 0.43446 0.84622 0.0
C1232 C 0.92949 0.46239 0.86382 0.0
C1233 C 0.96015 0.51446 0.89297 0.0
H1234 H 0.89466 0.5216 0.92439 0.0
C1235 C 0.93229 0.59543 0.95501 0.0
C1236 C 0.90753 0.6052 0.95182 0.0
C1237 C 0.9398 0.57415 0.94322 0.0
C1238 C 0.91298 0.51993 0.9156 0.0
H1239 H 0.99932 0.43847 0.85914 0.0
H1240 H 0.98906 0.47169 0.88647 0.0
H1241 H 0.90569 0.48426 0.90361 0.0
H1242 H 0.87177 0.60068 0.93267 0.0
H1243 H 0.88473 0.56357 0.91254 0.0
H1244 H 0.96736 0.55021 0.90516 0.0
C1245 C 0.97382 0.46398 0.87597 0.0
C1246 C 0.91932 0.49851 0.90364 0.0
C1247 C 0.97967 0.44475 0.86052 0.0
C1248 C 0.89076 0.59345 0.93606 0.0
C1249 C 0.89819 0.57214 0.92448 0.0
C1250 C 0.95387 0.53583 0.90513 0.0
C1251 C 0.94875 0.47348 0.87738 0.0
C1252 C 0.94284 0.49558 0.89183 0.0
C1253 C 0.92267 0.56208 0.92811 0.0
C1254 C 0.93005 0.53895 0.91628 0.0
H1255 H 0.92021 0.43557 0.83769 0.0
H1256 H 0.91003 0.46927 0.86416 0.0
H1257 H 0.97827 0.51309 0.88381 0.0
H1258 H 0.94564 0.6038 0.96718 0.0
H1259 H 0.95877 0.5668 0.94647 0.0
C1260 C 0.81757 0.74816 0.10851 0.0
C1261 C 0.82791 0.73218 0.09132 0.0
C1262 C 0.79828 0.74095 0.12382 0.0
C1263 C 0.76854 0.68679 0.14745 0.0
H1264 H 0.70994 0.72889 0.15882 0.0
C1265 C 0.67567 0.65222 0.18614 0.0
C1266 C 0.66391 0.66585 0.20446 0.0
C1267 C 0.69568 0.66145 0.17311 0.0
C1268 C 0.72631 0.71705 0.15601 0.0
H1269 H 0.82625 0.69598 0.07698 0.0
H1270 H 0.79264 0.6836 0.10334 0.0
H1271 H 0.74569 0.74285 0.13535 0.0
H1272 H 0.66359 0.70013 0.22305 0.0
H1273 H 0.69854 0.71637 0.20004 0.0
H1274 H 0.74906 0.66087 0.16773 0.0
C1275 C 0.7996 0.70159 0.10528 0.0
C1276 C 0.74682 0.72505 0.14263 0.0
C1277 C 0.81882 0.70877 0.09003 0.0
C1278 C 0.67211 0.68925 0.20892 0.0
C1279 C 0.69214 0.69854 0.19579 0.0
C1280 C 0.74806 0.67879 0.1607 0.0
C1281 C 0.78901 0.71759 0.12229 0.0
C1282 C 0.76801 0.70988 0.13793 0.0
C1283 C 0.7044 0.68457 0.17801 0.0
C1284 C 0.72657 0.6937 0.16487 0.0
H1285 H 0.82416 0.76632 0.11 0.0
H1286 H 0.7907 0.75362 0.13691 0.0
H1287 H 0.7848 0.67482 0.14459 0.0
H1288 H 0.66944 0.63433 0.18189 0.0
H1289 H 0.70437 0.65045 0.15916 0.0
C1290 C 0.61905 0.42997 0.43758 0.0
C1291 C 0.60238 0.41861 0.45314 0.0
C1292 C 0.61123 0.45056 0.4255 0.0
C1293 C 0.55396 0.48504 0.40604 0.0
H1294 H 0.60184 0.53642 0.40035 0.0
C1295 C 0.52492 0.57557 0.36414 0.0
C1296 C 0.54233 0.58503 0.34797 0.0
C1297 C 0.53201 0.55622 0.37846 0.0
C1298 C 0.5883 0.52218 0.40161 0.0
H1299 H 0.56416 0.41985 0.4678 0.0
H1300 H 0.5506 0.45601 0.44695 0.0
H1301 H 0.61437 0.50049 0.42188 0.0
H1302 H 0.58113 0.58192 0.33476 0.0
H1303 H 0.59339 0.54823 0.35957 0.0
H1304 H 0.52795 0.50669 0.3856 0.0
C1305 C 0.56971 0.44885 0.44397 0.0
C1306 C 0.59549 0.50154 0.41393 0.0
C1307 C 0.57756 0.42824 0.4561 0.0
C1308 C 0.56721 0.57514 0.34701 0.0
C1309 C 0.5743 0.55585 0.36135 0.0
C1310 C 0.54675 0.5057 0.3937 0.0
C1311 C 0.58652 0.46038 0.42867 0.0
C1312 C 0.5785 0.48262 0.41614 0.0
C1313 C 0.5567 0.54592 0.37702 0.0
C1314 C 0.56391 0.52446 0.39118 0.0
H1315 H 0.63841 0.42326 0.43508 0.0
H1316 H 0.62457 0.45876 0.41361 0.0
H1317 H 0.5405 0.47072 0.40715 0.0
H1318 H 0.5056 0.58276 0.3654 0.0
H1319 H 0.51809 0.54925 0.39059 0.0
C1320 C 0.32546 0.33783 0.18236 0.0
C1321 C 0.3381 0.35875 0.1893 0.0
C1322 C 0.33402 0.31548 0.19044 0.0
C1323 C 0.37507 0.2868 0.23669 0.0
H1324 H 0.38423 0.23595 0.18949 0.0
C1325 C 0.45361 0.21536 0.24298 0.0
C1326 C 0.44917 0.1918 0.23549 0.0
C1327 C 0.43463 0.233 0.24082 0.0
C1328 C 0.38126 0.24974 0.20303 0.0
H1329 H 0.36911 0.37264 0.2108 0.0
H1330 H 0.38427 0.3338 0.22455 0.0
H1331 H 0.36115 0.27263 0.17867 0.0
H1332 H 0.42115 0.16782 0.22068 0.0
H1333 H 0.38769 0.19913 0.21629 0.0
H1334 H 0.39621 0.26436 0.26069 0.0
C1335 C 0.36761 0.33459 0.21303 0.0
C1336 C 0.36808 0.2708 0.19683 0.0
C1337 C 0.35913 0.35686 0.20489 0.0
C1338 C 0.42497 0.18591 0.22658 0.0
C1339 C 0.40595 0.20379 0.22399 0.0
C1340 C 0.38825 0.26582 0.24285 0.0
C1341 C 0.3553 0.3136 0.20578 0.0
C1342 C 0.36562 0.2899 0.21336 0.0
C1343 C 0.41078 0.22759 0.23082 0.0
C1344 C 0.39227 0.2474 0.22585 0.0
H1345 H 0.30929 0.33867 0.17023 0.0
H1346 H 0.32405 0.29968 0.18463 0.0
H1347 H 0.37298 0.30094 0.25001 0.0
H1348 H 0.47207 0.22034 0.25005 0.0
H1349 H 0.4391 0.25117 0.24597 0.0
C1350 C 0.94726 0.325 0.83818 0.0
C1351 C 0.94622 0.3356 0.81557 0.0
C1352 C 0.93443 0.304 0.84246 0.0
C1353 C 0.88217 0.26614 0.82479 0.0
H1354 H 0.92403 0.21648 0.85406 0.0
C1355 C 0.84267 0.17341 0.85027 0.0
C1356 C 0.8512 0.16424 0.87228 0.0
C1357 C 0.85371 0.19373 0.84075 0.0
C1358 C 0.91196 0.23019 0.8461 0.0
H1359 H 0.92974 0.33293 0.78001 0.0
H1360 H 0.90675 0.29605 0.78778 0.0
H1361 H 0.94336 0.25354 0.84227 0.0
H1362 H 0.8784 0.16918 0.90123 0.0
H1363 H 0.89683 0.20479 0.8852 0.0
H1364 H 0.85053 0.24307 0.82948 0.0
C1365 C 0.91784 0.30413 0.80202 0.0
C1366 C 0.9231 0.25137 0.83922 0.0
C1367 C 0.931 0.32518 0.7976 0.0
C1368 C 0.87103 0.17587 0.88444 0.0
C1369 C 0.88193 0.19615 0.87502 0.0
C1370 C 0.8709 0.24493 0.83192 0.0
C1371 C 0.91999 0.29308 0.82435 0.0
C1372 C 0.90826 0.26976 0.82898 0.0
C1373 C 0.87355 0.20531 0.85299 0.0
C1374 C 0.88559 0.22692 0.84318 0.0
H1375 H 0.95858 0.33253 0.85256 0.0
H1376 H 0.93605 0.29609 0.85997 0.0
H1377 H 0.87032 0.28009 0.81696 0.0
H1378 H 0.82727 0.16506 0.84051 0.0
H1379 H 0.84689 0.2002 0.82368 0.0
C1380 C 0.09413 0.61699 0.14146 0.0
C1381 C 0.10448 0.5981 0.12753 0.0
C1382 C 0.07515 0.63215 0.13223 0.0
C1383 C 0.02525 0.6349 0.08528 0.0
H1384 H 0.02123 0.70147 0.10531 0.0
C1385 C 0.94818 0.70404 0.05204 0.0
C1386 C 0.93698 0.71836 0.07015 0.0
C1387 C 0.96898 0.68879 0.05723 0.0
C1388 C 0.02206 0.68288 0.09964 0.0
H1389 H 0.10344 0.58079 0.09262 0.0
H1390 H 0.07074 0.60778 0.0762 0.0
H1391 H 0.05816 0.67698 0.11671 0.0
H1392 H 0.9381 0.72741 0.10792 0.0
H1393 H 0.97444 0.70104 0.11689 0.0
H1394 H 0.98904 0.6411 0.06804 0.0
C1395 C 0.077 0.61054 0.09448 0.0
C1396 C 0.04319 0.6688 0.10621 0.0
C1397 C 0.09599 0.59526 0.10379 0.0
C1398 C 0.94643 0.71668 0.09359 0.0
C1399 C 0.96733 0.7017 0.0987 0.0
C1400 C 0.00417 0.6491 0.07848 0.0
C1401 C 0.06612 0.62901 0.1087 0.0
C1402 C 0.04483 0.64449 0.09957 0.0
C1403 C 0.97906 0.68787 0.08054 0.0
C1404 C 0.00215 0.6731 0.08604 0.0
H1405 H 0.10048 0.61993 0.15969 0.0
H1406 H 0.06706 0.64594 0.14385 0.0
H1407 H 0.02571 0.6162 0.08003 0.0
H1408 H 0.94121 0.70498 0.03381 0.0
H1409 H 0.97768 0.67831 0.0429 0.0
C1410 C 0.6676 0.84831 0.34856 0.0
C1411 C 0.66883 0.85489 0.37289 0.0
C1412 C 0.65661 0.82677 0.34135 0.0
C1413 C 0.63702 0.76778 0.36385 0.0
H1414 H 0.59055 0.76882 0.3097 0.0
C1415 C 0.56264 0.69501 0.34704 0.0
C1416 C 0.557 0.68805 0.32343 0.0
C1417 C 0.57914 0.71379 0.35177 0.0
C1418 C 0.60379 0.76807 0.32462 0.0
H1419 H 0.66021 0.8435 0.40874 0.0
H1420 H 0.64073 0.80624 0.39619 0.0
H1421 H 0.61402 0.80457 0.32039 0.0
H1422 H 0.56491 0.6947 0.28621 0.0
H1423 H 0.59391 0.72757 0.29445 0.0
H1424 H 0.62641 0.73143 0.36834 0.0
C1425 C 0.64841 0.81761 0.38265 0.0
C1426 C 0.61726 0.78861 0.33077 0.0
C1427 C 0.65932 0.83914 0.38984 0.0
C1428 C 0.56881 0.69978 0.3046 0.0
C1429 C 0.58529 0.71868 0.30933 0.0
C1430 C 0.62354 0.74727 0.35771 0.0
C1431 C 0.64667 0.81123 0.35829 0.0
C1432 C 0.63378 0.78885 0.35068 0.0
C1433 C 0.59041 0.72611 0.33299 0.0
C1434 C 0.60645 0.74725 0.33823 0.0
H1435 H 0.67453 0.86009 0.33501 0.0
H1436 H 0.65584 0.82233 0.32247 0.0
H1437 H 0.64994 0.76716 0.37901 0.0
H1438 H 0.55384 0.68628 0.36193 0.0
H1439 H 0.58237 0.71917 0.37019 0.0
C1440 C 0.57618 0.32355 0.56237 0.0
C1441 C 0.59287 0.31352 0.57938 0.0
C1442 C 0.55621 0.33901 0.56953 0.0
C1443 C 0.52049 0.37859 0.58798 0.0
H1444 H 0.48571 0.36171 0.64605 0.0
C1445 C 0.43462 0.43441 0.62511 0.0
C1446 C 0.41428 0.42165 0.63457 0.0
C1447 C 0.45765 0.42272 0.61913 0.0
C1448 C 0.49506 0.3666 0.6297 0.0
H1449 H 0.60279 0.31281 0.61697 0.0
H1450 H 0.56844 0.34025 0.62946 0.0
H1451 H 0.52357 0.33909 0.63372 0.0
H1452 H 0.40256 0.38658 0.64556 0.0
H1453 H 0.44222 0.36616 0.63446 0.0
H1454 H 0.49121 0.40544 0.58345 0.0
C1455 C 0.57019 0.33569 0.61067 0.0
C1456 C 0.51708 0.35384 0.6228 0.0
C1457 C 0.59001 0.32009 0.60352 0.0
C1458 C 0.41765 0.39695 0.63804 0.0
C1459 C 0.44059 0.38528 0.63197 0.0
C1460 C 0.49834 0.39129 0.59482 0.0
C1461 C 0.55265 0.34492 0.59384 0.0
C1462 C 0.53 0.35952 0.60175 0.0
C1463 C 0.46091 0.39798 0.62241 0.0
C1464 C 0.48519 0.3853 0.61566 0.0
H1465 H 0.57799 0.31883 0.54361 0.0
H1466 H 0.54301 0.34556 0.55607 0.0
H1467 H 0.53008 0.38367 0.57182 0.0
H1468 H 0.43263 0.45339 0.62195 0.0
H1469 H 0.47295 0.43313 0.61204 0.0
C1470 C 0.20999 0.70625 0.69121 0.0
C1471 C 0.19822 0.68428 0.69489 0.0
C1472 C 0.19837 0.7277 0.69908 0.0
C1473 C 0.14784 0.7524 0.73939 0.0
H1474 H 0.14302 0.80388 0.6939 0.0
C1475 C 0.06545 0.82061 0.73884 0.0
C1476 C 0.06972 0.84457 0.73341 0.0
C1477 C 0.08527 0.80365 0.73787 0.0
C1478 C 0.14464 0.78991 0.70703 0.0
H1479 H 0.16552 0.6676 0.71058 0.0
H1480 H 0.14515 0.7049 0.72404 0.0
H1481 H 0.1701 0.7688 0.6851 0.0
H1482 H 0.09827 0.86985 0.72342 0.0
H1483 H 0.13331 0.83978 0.72124 0.0
H1484 H 0.1216 0.77307 0.76087 0.0
C1485 C 0.16344 0.70562 0.71522 0.0
C1486 C 0.16013 0.76976 0.70198 0.0
C1487 C 0.17498 0.68422 0.70727 0.0
C1488 C 0.09452 0.85145 0.72766 0.0
C1489 C 0.11446 0.83427 0.72633 0.0
C1490 C 0.13236 0.77248 0.74441 0.0
C1491 C 0.17481 0.72767 0.71095 0.0
C1492 C 0.1613 0.75044 0.71778 0.0
C1493 C 0.10992 0.81012 0.73123 0.0
C1494 C 0.12996 0.79113 0.72795 0.0
H1495 H 0.22778 0.70695 0.68154 0.0
H1496 H 0.20774 0.74434 0.69567 0.0
H1497 H 0.14874 0.7381 0.7522 0.0
H1498 H 0.04655 0.8148 0.74347 0.0
H1499 H 0.08099 0.78521 0.74143 0.0
C1500 C 0.4464 0.8466 1.00519 0.0
C1501 C 0.43745 0.82851 0.98976 0.0
C1502 C 0.46673 0.86079 0.99848 0.0
C1503 C 0.52194 0.86004 0.95766 0.0
H1504 H 0.52386 0.92781 0.97265 0.0
C1505 C 0.598 0.92092 0.91864 0.0
C1506 C 0.60844 0.93861 0.93364 0.0
C1507 C 0.57739 0.90759 0.92613 0.0
C1508 C 0.52375 0.90884 0.96859 0.0
H1509 H 0.44234 0.8119 0.95473 0.0
H1510 H 0.4774 0.8368 0.94299 0.0
H1511 H 0.48676 0.90503 0.98399 0.0
H1512 H 0.60553 0.95579 0.96854 0.0
H1513 H 0.56945 0.93251 0.9816 0.0
H1514 H 0.55884 0.86381 0.94222 0.0
C1515 C 0.46907 0.8397 0.96049 0.0
C1516 C 0.50247 0.89579 0.97507 0.0
C1517 C 0.44879 0.82551 0.96718 0.0
C1518 C 0.59779 0.94251 0.95642 0.0
C1519 C 0.57709 0.92919 0.9639 0.0
C1520 C 0.54317 0.87307 0.95118 0.0
C1521 C 0.47858 0.85724 0.97619 0.0
C1522 C 0.50123 0.87125 0.96955 0.0
C1523 C 0.56659 0.91161 0.9488 0.0
C1524 C 0.5443 0.89766 0.95644 0.0
H1525 H 0.43819 0.84942 0.02275 0.0
H1526 H 0.47367 0.87403 0.01109 0.0
H1527 H 0.52189 0.84107 0.95358 0.0
H1528 H 0.60532 0.91774 0.9008 0.0
H1529 H 0.56952 0.89448 0.91389 0.0
C1530 C 0.91833 0.08601 0.4707 0.0
C1531 C 0.90689 0.09083 0.44841 0.0
C1532 C 0.93962 0.09876 0.4786 0.0
C1533 C 0.99235 0.13473 0.45554 0.0
H1534 H 0.99841 0.15831 0.52076 0.0
C1535 C 0.06429 0.20651 0.48187 0.0
C1536 C 0.07717 0.20504 0.50394 0.0
C1537 C 0.04466 0.19096 0.47608 0.0
C1538 C 0.99721 0.15155 0.50257 0.0
H1539 H 0.90916 0.11285 0.41697 0.0
H1540 H 0.94572 0.13522 0.43087 0.0
H1541 H 0.96169 0.13449 0.50903 0.0
H1542 H 0.07933 0.18578 0.53724 0.0
H1543 H 0.04503 0.15838 0.52699 0.0
H1544 H 0.02763 0.15184 0.44893 0.0
C1545 C 0.93843 0.12146 0.4422 0.0
C1546 C 0.97613 0.13792 0.49584 0.0
C1547 C 0.91718 0.10883 0.43437 0.0
C1548 C 0.06992 0.1874 0.52005 0.0
C1549 C 0.05013 0.1718 0.51425 0.0
C1550 C 0.01336 0.14828 0.46225 0.0
C1551 C 0.95009 0.11649 0.46432 0.0
C1552 C 0.97322 0.12969 0.47211 0.0
C1553 C 0.03724 0.1734 0.49215 0.0
C1554 C 0.01588 0.15725 0.48574 0.0
H1555 H 0.91083 0.07238 0.48205 0.0
H1556 H 0.94818 0.09439 0.49568 0.0
H1557 H 0.99108 0.12822 0.43726 0.0
H1558 H 0.0692 0.21987 0.46899 0.0
H1559 H 0.03494 0.19305 0.45909 0.0
loop_
_geom_bond_atom_site_label_1
_geom_bond_atom_site_label_2
_geom_bond_distance
_geom_bond_site_symmetry_2
_ccdc_geom_bond_type
C0 Eu1 2.835 . S
C0 C2 1.500 . S
C0 O20 1.257 . S
C0 O21 1.260 . S
Eu1 C0 2.835 . S
Eu1 O20 2.473 . S
Eu1 O21 2.480 . S
Eu1 O22 2.430 . S
Eu1 O23 2.670 . S
Eu1 O24 2.394 . S
Eu1 O29 2.355 . S
Eu1 O31 2.374 . S
C2 C0 1.500 . S
C2 C3 1.377 . S
C2 C7 1.377 . S
C3 C2 1.377 . S
C3 C4 1.395 . S
C3 H32 0.931 . S
C4 C3 1.395 . S
C4 C5 1.383 . S
C4 H33 0.931 . S
C5 C4 1.383 . S
C5 C6 1.394 . S
C6 C5 1.394 . S
C6 C7 1.378 . S
C6 H34 0.931 . S
C7 C2 1.377 . S
C7 C6 1.378 . S
C7 H35 0.931 . S
C8 O22 1.259 . S
C8 O23 1.270 . S
C9 O24 1.251 . S
C9 O25 1.251 . S
C10 Eu11 2.835 . S
C10 C12 1.500 . S
C10 O26 1.257 . S
C10 O27 1.260 . S
Eu11 C10 2.835 . S
Eu11 O23 2.355 . S
Eu11 O25 2.374 . S
Eu11 O26 2.473 . S
Eu11 O27 2.480 . S
Eu11 O28 2.430 . S
Eu11 O29 2.670 . S
Eu11 O30 2.394 . S
C12 C10 1.500 . S
C12 C13 1.377 . S
C12 C17 1.377 . S
C13 C12 1.377 . S
C13 C14 1.395 . S
C13 H36 0.931 . S
C14 C13 1.395 . S
C14 C15 1.383 . S
C14 H37 0.931 . S
C15 C14 1.383 . S
C15 C16 1.394 . S
C16 C15 1.394 . S
C16 C17 1.378 . S
C16 H38 0.931 . S
C17 C12 1.377 . S
C17 C16 1.378 . S
C17 H39 0.931 . S
C18 O28 1.259 . S
C18 O29 1.270 . S
C19 O30 1.251 . S
C19 O31 1.251 . S
O20 C0 1.257 . S
O20 Eu1 2.473 . S
O21 C0 1.260 . S
O21 Eu1 2.480 . S
O22 Eu1 2.430 . S
O22 C8 1.259 . S
O23 Eu1 2.670 . S
O23 C8 1.270 . S
O23 Eu11 2.355 . S
O24 Eu1 2.394 . S
O24 C9 1.251 . S
O25 C9 1.251 . S
O25 Eu11 2.374 . S
O26 C10 1.257 . S
O26 Eu11 2.473 . S
O27 C10 1.260 . S
O27 Eu11 2.480 . S
O28 Eu11 2.430 . S
O28 C18 1.259 . S
O29 Eu1 2.355 . S
O29 Eu11 2.670 . S
O29 C18 1.270 . S
O30 Eu11 2.394 . S
O30 C19 1.251 . S
O31 Eu1 2.374 . S
O31 C19 1.251 . S
H32 C3 0.931 . S
H33 C4 0.931 . S
H34 C6 0.931 . S
H35 C7 0.931 . S
H36 C13 0.931 . S
H37 C14 0.931 . S
H38 C16 0.931 . S
H39 C17 0.931 . S
C40 Eu41 2.835 . S
C40 C42 1.500 . S
C40 O60 1.257 . S
C40 O61 1.260 . S
Eu41 C40 2.835 . S
Eu41 O60 2.473 . S
Eu41 O61 2.480 . S
Eu41 O62 2.430 . S
Eu41 O63 2.670 1_455 S
Eu41 O64 2.394 . S
Eu41 O69 2.355 . S
Eu41 O71 2.374 . S
C42 C40 1.500 . S
C42 C43 1.377 . S
C42 C47 1.377 . S
C43 C42 1.377 . S
C43 C44 1.395 . S
C43 H72 0.931 . S
C44 C43 1.395 . S
C44 C45 1.383 . S
C44 H73 0.931 . S
C45 C44 1.383 . S
C45 C46 1.394 . S
C46 C45 1.394 . S
C46 C47 1.378 . S
C46 H74 0.931 . S
C47 C42 1.377 . S
C47 C46 1.378 . S
C47 H75 0.931 . S
C48 O62 1.259 1_655 S
C48 O63 1.270 . S
C49 O64 1.251 1_655 S
C49 O65 1.251 . S
C50 Eu51 2.835 . S
C50 C52 1.500 . S
C50 O66 1.257 . S
C50 O67 1.260 . S
Eu51 C50 2.835 . S
Eu51 O63 2.355 . S
Eu51 O65 2.374 . S
Eu51 O66 2.473 . S
Eu51 O67 2.480 . S
Eu51 O68 2.430 1_655 S
Eu51 O69 2.670 1_655 S
Eu51 O70 2.394 1_655 S
C52 C50 1.500 . S
C52 C53 1.377 . S
C52 C57 1.377 . S
C53 C52 1.377 . S
C53 C54 1.395 . S
C53 H76 0.931 . S
C54 C53 1.395 . S
C54 C55 1.383 . S
C54 H77 0.931 . S
C55 C54 1.383 . S
C55 C56 1.394 . S
C56 C55 1.394 . S
C56 C57 1.378 . S
C56 H78 0.931 . S
C57 C52 1.377 . S
C57 C56 1.378 . S
C57 H79 0.931 . S
C58 O68 1.259 . S
C58 O69 1.270 . S
C59 O70 1.251 . S
C59 O71 1.251 . S
O60 C40 1.257 . S
O60 Eu41 2.473 . S
O61 C40 1.260 . S
O61 Eu41 2.480 . S
O62 Eu41 2.430 . S
O62 C48 1.259 1_455 S
O63 Eu41 2.670 1_655 S
O63 C48 1.270 . S
O63 Eu51 2.355 . S
O64 Eu41 2.394 . S
O64 C49 1.251 1_455 S
O65 C49 1.251 . S
O65 Eu51 2.374 . S
O66 C50 1.257 . S
O66 Eu51 2.473 . S
O67 C50 1.260 . S
O67 Eu51 2.480 . S
O68 Eu51 2.430 1_455 S
O68 C58 1.259 . S
O69 Eu41 2.355 . S
O69 Eu51 2.670 1_455 S
O69 C58 1.270 . S
O70 Eu51 2.394 1_455 S
O70 C59 1.251 . S
O71 Eu41 2.374 . S
O71 C59 1.251 . S
H72 C43 0.931 . S
H73 C44 0.931 . S
H74 C46 0.931 . S
H75 C47 0.931 . S
H76 C53 0.931 . S
H77 C54 0.931 . S
H78 C56 0.931 . S
H79 C57 0.931 . S
C80 Eu81 2.835 . S
C80 C82 1.500 . S
C80 O100 1.257 . S
C80 O101 1.260 . S
Eu81 C80 2.835 . S
Eu81 O100 2.473 . S
Eu81 O101 2.480 . S
Eu81 O102 2.430 1_556 S
Eu81 O103 2.670 1_556 S
Eu81 O104 2.394 . S
Eu81 O109 2.355 . S
Eu81 O111 2.374 . S
C82 C80 1.500 . S
C82 C83 1.377 . S
C82 C87 1.377 . S
C83 C82 1.377 . S
C83 C84 1.395 . S
C83 H112 0.931 . S
C84 C83 1.395 . S
C84 C85 1.383 . S
C84 H113 0.931 . S
C85 C84 1.383 . S
C85 C86 1.394 . S
C86 C85 1.394 . S
C86 C87 1.378 . S
C86 H114 0.931 . S
C87 C82 1.377 . S
C87 C86 1.378 . S
C87 H115 0.931 . S
C88 O102 1.259 . S
C88 O103 1.270 . S
C89 O104 1.251 1_554 S
C89 O105 1.251 . S
C90 Eu91 2.835 . S
C90 C92 1.500 . S
C90 O106 1.257 . S
C90 O107 1.260 . S
Eu91 C90 2.835 . S
Eu91 O103 2.355 . S
Eu91 O105 2.374 . S
Eu91 O106 2.473 . S
Eu91 O107 2.480 . S
Eu91 O108 2.430 1_554 S
Eu91 O109 2.670 1_554 S
Eu91 O110 2.394 1_554 S
C92 C90 1.500 . S
C92 C93 1.377 . S
C92 C97 1.377 . S
C93 C92 1.377 . S
C93 C94 1.395 . S
C93 H116 0.931 . S
C94 C93 1.395 . S
C94 C95 1.383 . S
C94 H117 0.931 . S
C95 C94 1.383 . S
C95 C96 1.394 . S
C96 C95 1.394 . S
C96 C97 1.378 . S
C96 H118 0.931 . S
C97 C92 1.377 . S
C97 C96 1.378 . S
C97 H119 0.931 . S
C98 O108 1.259 . S
C98 O109 1.270 . S
C99 O110 1.251 . S
C99 O111 1.251 . S
O100 C80 1.257 . S
O100 Eu81 2.473 . S
O101 C80 1.260 . S
O101 Eu81 2.480 . S
O102 Eu81 2.430 1_554 S
O102 C88 1.259 . S
O103 Eu81 2.670 1_554 S
O103 C88 1.270 . S
O103 Eu91 2.355 . S
O104 Eu81 2.394 . S
O104 C89 1.251 1_556 S
O105 C89 1.251 . S
O105 Eu91 2.374 . S
O106 C90 1.257 . S
O106 Eu91 2.473 . S
O107 C90 1.260 . S
O107 Eu91 2.480 . S
O108 Eu91 2.430 1_556 S
O108 C98 1.259 . S
O109 Eu81 2.355 . S
O109 Eu91 2.670 1_556 S
O109 C98 1.270 . S
O110 Eu91 2.394 1_556 S
O110 C99 1.251 . S
O111 Eu81 2.374 . S
O111 C99 1.251 . S
H112 C83 0.931 . S
H113 C84 0.931 . S
H114 C86 0.931 . S
H115 C87 0.931 . S
H116 C93 0.931 . S
H117 C94 0.931 . S
H118 C96 0.931 . S
H119 C97 0.931 . S
C120 Eu121 2.835 . S
C120 C122 1.500 . S
C120 O140 1.257 . S
C120 O141 1.260 . S
Eu121 C120 2.835 . S
Eu121 O140 2.473 . S
Eu121 O141 2.480 . S
Eu121 O142 2.430 . S
Eu121 O143 2.670 . S
Eu121 O144 2.394 . S
Eu121 O149 2.355 . S
Eu121 O151 2.374 . S
C122 C120 1.500 . S
C122 C123 1.377 . S
C122 C127 1.377 . S
C123 C122 1.377 . S
C123 C124 1.395 . S
C123 H152 0.931 . S
C124 C123 1.395 . S
C124 C125 1.383 . S
C124 H153 0.931 . S
C125 C124 1.383 . S
C125 C126 1.394 . S
C126 C125 1.394 . S
C126 C127 1.378 . S
C126 H154 0.931 . S
C127 C122 1.377 . S
C127 C126 1.378 . S
C127 H155 0.931 . S
C128 O142 1.259 . S
C128 O143 1.270 . S
C129 O144 1.251 . S
C129 O145 1.251 . S
C130 Eu131 2.835 . S
C130 C132 1.500 . S
C130 O146 1.257 . S
C130 O147 1.260 . S
Eu131 C130 2.835 . S
Eu131 O143 2.355 . S
Eu131 O145 2.374 . S
Eu131 O146 2.473 . S
Eu131 O147 2.480 . S
Eu131 O148 2.430 . S
Eu131 O149 2.670 . S
Eu131 O150 2.394 . S
C132 C130 1.500 . S
C132 C133 1.377 . S
C132 C137 1.377 . S
C133 C132 1.377 . S
C133 C134 1.395 . S
C133 H156 0.931 . S
C134 C133 1.395 . S
C134 C135 1.383 . S
C134 H157 0.931 . S
C135 C134 1.383 . S
C135 C136 1.394 . S
C136 C135 1.394 . S
C136 C137 1.378 . S
C136 H158 0.931 . S
C137 C132 1.377 . S
C137 C136 1.378 . S
C137 H159 0.931 . S
C138 O148 1.259 . S
C138 O149 1.270 . S
C139 O150 1.251 . S
C139 O151 1.251 . S
O140 C120 1.257 . S
O140 Eu121 2.473 . S
O141 C120 1.260 . S
O141 Eu121 2.480 . S
O142 Eu121 2.430 . S
O142 C128 1.259 . S
O143 Eu121 2.670 . S
O143 C128 1.270 . S
O143 Eu131 2.355 . S
O144 Eu121 2.394 . S
O144 C129 1.251 . S
O145 C129 1.251 . S
O145 Eu131 2.374 . S
O146 C130 1.257 . S
O146 Eu131 2.473 . S
O147 C130 1.260 . S
O147 Eu131 2.480 . S
O148 Eu131 2.430 . S
O148 C138 1.259 . S
O149 Eu121 2.355 . S
O149 Eu131 2.670 . S
O149 C138 1.270 . S
O150 Eu131 2.394 . S
O150 C139 1.251 . S
O151 Eu121 2.374 . S
O151 C139 1.251 . S
H152 C123 0.931 . S
H153 C124 0.931 . S
H154 C126 0.931 . S
H155 C127 0.931 . S
H156 C133 0.931 . S
H157 C134 0.931 . S
H158 C136 0.931 . S
H159 C137 0.931 . S
C160 Eu161 2.835 . S
C160 C162 1.500 . S
C160 O180 1.257 . S
C160 O181 1.260 . S
Eu161 C160 2.835 . S
Eu161 O180 2.473 . S
Eu161 O181 2.480 . S
Eu161 O182 2.430 . S
Eu161 O183 2.670 . S
Eu161 O184 2.394 . S
Eu161 O189 2.355 . S
Eu161 O191 2.374 . S
C162 C160 1.500 . S
C162 C163 1.377 . S
C162 C167 1.377 . S
C163 C162 1.377 . S
C163 C164 1.395 . S
C163 H192 0.931 . S
C164 C163 1.395 . S
C164 C165 1.383 . S
C164 H193 0.931 . S
C165 C164 1.383 . S
C165 C166 1.394 . S
C166 C165 1.394 . S
C166 C167 1.378 . S
C166 H194 0.931 . S
C167 C162 1.377 . S
C167 C166 1.378 . S
C167 H195 0.931 . S
C168 O182 1.259 . S
C168 O183 1.270 . S
C169 O184 1.251 . S
C169 O185 1.251 . S
C170 Eu171 2.835 . S
C170 C172 1.500 . S
C170 O186 1.257 . S
C170 O187 1.260 . S
Eu171 C170 2.835 . S
Eu171 O183 2.355 . S
Eu171 O185 2.374 . S
Eu171 O186 2.473 . S
Eu171 O187 2.480 . S
Eu171 O188 2.430 . S
Eu171 O189 2.670 . S
Eu171 O190 2.394 . S
C172 C170 1.500 . S
C172 C173 1.377 . S
C172 C177 1.377 . S
C173 C172 1.377 . S
C173 C174 1.395 . S
C173 H196 0.931 . S
C174 C173 1.395 . S
C174 C175 1.383 . S
C174 H197 0.931 . S
C175 C174 1.383 . S
C175 C176 1.394 . S
C176 C175 1.394 . S
C176 C177 1.378 . S
C176 H198 0.931 . S
C177 C172 1.377 . S
C177 C176 1.378 . S
C177 H199 0.931 . S
C178 O188 1.259 . S
C178 O189 1.270 . S
C179 O190 1.251 . S
C179 O191 1.251 . S
O180 C160 1.257 . S
O180 Eu161 2.473 . S
O181 C160 1.260 . S
O181 Eu161 2.480 . S
O182 Eu161 2.430 . S
O182 C168 1.259 . S
O183 Eu161 2.670 . S
O183 C168 1.270 . S
O183 Eu171 2.355 . S
O184 Eu161 2.394 . S
O184 C169 1.251 . S
O185 C169 1.251 . S
O185 Eu171 2.374 . S
O186 C170 1.257 . S
O186 Eu171 2.473 . S
O187 C170 1.260 . S
O187 Eu171 2.480 . S
O188 Eu171 2.430 . S
O188 C178 1.259 . S
O189 Eu161 2.355 . S
O189 Eu171 2.670 . S
O189 C178 1.270 . S
O190 Eu171 2.394 . S
O190 C179 1.251 . S
O191 Eu161 2.374 . S
O191 C179 1.251 . S
H192 C163 0.931 . S
H193 C164 0.931 . S
H194 C166 0.931 . S
H195 C167 0.931 . S
H196 C173 0.931 . S
H197 C174 0.931 . S
H198 C176 0.931 . S
H199 C177 0.931 . S
C200 Eu201 2.835 . S
C200 C202 1.500 . S
C200 O220 1.257 . S
C200 O221 1.260 . S
Eu201 C200 2.835 . S
Eu201 O220 2.473 . S
Eu201 O221 2.480 . S
Eu201 O222 2.430 . S
Eu201 O223 2.670 . S
Eu201 O224 2.394 . S
Eu201 O229 2.355 1_455 S
Eu201 O231 2.374 1_455 S
C202 C200 1.500 . S
C202 C203 1.377 . S
C202 C207 1.377 . S
C203 C202 1.377 . S
C203 C204 1.395 . S
C203 H232 0.931 . S
C204 C203 1.395 . S
C204 C205 1.383 . S
C204 H233 0.931 . S
C205 C204 1.383 . S
C205 C206 1.394 . S
C206 C205 1.394 . S
C206 C207 1.378 . S
C206 H234 0.931 . S
C207 C202 1.377 . S
C207 C206 1.378 . S
C207 H235 0.931 . S
C208 O222 1.259 . S
C208 O223 1.270 . S
C209 O224 1.251 . S
C209 O225 1.251 . S
C210 Eu211 2.835 . S
C210 C212 1.500 . S
C210 O226 1.257 . S
C210 O227 1.260 . S
Eu211 C210 2.835 . S
Eu211 O223 2.355 1_655 S
Eu211 O225 2.374 1_655 S
Eu211 O226 2.473 . S
Eu211 O227 2.480 . S
Eu211 O228 2.430 . S
Eu211 O229 2.670 . S
Eu211 O230 2.394 . S
C212 C210 1.500 . S
C212 C213 1.377 . S
C212 C217 1.377 . S
C213 C212 1.377 . S
C213 C214 1.395 . S
C213 H236 0.931 . S
C214 C213 1.395 . S
C214 C215 1.383 . S
C214 H237 0.931 . S
C215 C214 1.383 . S
C215 C216 1.394 . S
C216 C215 1.394 . S
C216 C217 1.378 . S
C216 H238 0.931 . S
C217 C212 1.377 . S
C217 C216 1.378 . S
C217 H239 0.931 . S
C218 O228 1.259 . S
C218 O229 1.270 . S
C219 O230 1.251 . S
C219 O231 1.251 . S
O220 C200 1.257 . S
O220 Eu201 2.473 . S
O221 C200 1.260 . S
O221 Eu201 2.480 . S
O222 Eu201 2.430 . S
O222 C208 1.259 . S
O223 Eu201 2.670 . S
O223 C208 1.270 . S
O223 Eu211 2.355 1_455 S
O224 Eu201 2.394 . S
O224 C209 1.251 . S
O225 C209 1.251 . S
O225 Eu211 2.374 1_455 S
O226 C210 1.257 . S
O226 Eu211 2.473 . S
O227 C210 1.260 . S
O227 Eu211 2.480 . S
O228 Eu211 2.430 . S
O228 C218 1.259 . S
O229 Eu201 2.355 1_655 S
O229 Eu211 2.670 . S
O229 C218 1.270 . S
O230 Eu211 2.394 . S
O230 C219 1.251 . S
O231 Eu201 2.374 1_655 S
O231 C219 1.251 . S
H232 C203 0.931 . S
H233 C204 0.931 . S
H234 C206 0.931 . S
H235 C207 0.931 . S
H236 C213 0.931 . S
H237 C214 0.931 . S
H238 C216 0.931 . S
H239 C217 0.931 . S
C240 Eu241 2.835 1_556 S
C240 C242 1.500 . S
C240 O260 1.257 . S
C240 O261 1.260 . S
Eu241 C240 2.835 1_554 S
Eu241 O260 2.473 1_554 S
Eu241 O261 2.480 1_554 S
Eu241 O262 2.430 1_554 S
Eu241 O263 2.670 . S
Eu241 O264 2.394 1_554 S
Eu241 O269 2.355 . S
Eu241 O271 2.374 . S
C242 C240 1.500 . S
C242 C243 1.377 . S
C242 C247 1.377 . S
C243 C242 1.377 . S
C243 C244 1.395 . S
C243 H272 0.931 . S
C244 C243 1.395 . S
C244 C245 1.383 . S
C244 H273 0.931 . S
C245 C244 1.383 . S
C245 C246 1.394 . S
C246 C245 1.394 . S
C246 C247 1.378 . S
C246 H274 0.931 . S
C247 C242 1.377 . S
C247 C246 1.378 . S
C247 H275 0.931 . S
C248 O262 1.259 1_554 S
C248 O263 1.270 . S
C249 O264 1.251 . S
C249 O265 1.251 1_556 S
C250 Eu251 2.835 . S
C250 C252 1.500 . S
C250 O266 1.257 . S
C250 O267 1.260 . S
Eu251 C250 2.835 . S
Eu251 O263 2.355 . S
Eu251 O265 2.374 . S
Eu251 O266 2.473 . S
Eu251 O267 2.480 . S
Eu251 O268 2.430 . S
Eu251 O269 2.670 . S
Eu251 O270 2.394 . S
C252 C250 1.500 . S
C252 C253 1.377 . S
C252 C257 1.377 . S
C253 C252 1.377 . S
C253 C254 1.395 . S
C253 H276 0.931 . S
C254 C253 1.395 . S
C254 C255 1.383 . S
C254 H277 0.931 . S
C255 C254 1.383 . S
C255 C256 1.394 . S
C256 C255 1.394 . S
C256 C257 1.378 . S
C256 H278 0.931 . S
C257 C252 1.377 . S
C257 C256 1.378 . S
C257 H279 0.931 . S
C258 O268 1.259 . S
C258 O269 1.270 . S
C259 O270 1.251 . S
C259 O271 1.251 . S
O260 C240 1.257 . S
O260 Eu241 2.473 1_556 S
O261 C240 1.260 . S
O261 Eu241 2.480 1_556 S
O262 Eu241 2.430 1_556 S
O262 C248 1.259 1_556 S
O263 Eu241 2.670 . S
O263 C248 1.270 . S
O263 Eu251 2.355 . S
O264 Eu241 2.394 1_556 S
O264 C249 1.251 . S
O265 C249 1.251 1_554 S
O265 Eu251 2.374 . S
O266 C250 1.257 . S
O266 Eu251 2.473 . S
O267 C250 1.260 . S
O267 Eu251 2.480 . S
O268 Eu251 2.430 . S
O268 C258 1.259 . S
O269 Eu241 2.355 . S
O269 Eu251 2.670 . S
O269 C258 1.270 . S
O270 Eu251 2.394 . S
O270 C259 1.251 . S
O271 Eu241 2.374 . S
O271 C259 1.251 . S
H272 C243 0.931 . S
H273 C244 0.931 . S
H274 C246 0.931 . S
H275 C247 0.931 . S
H276 C253 0.931 . S
H277 C254 0.931 . S
H278 C256 0.931 . S
H279 C257 0.931 . S
C280 Eu281 2.835 . S
C280 C282 1.500 . S
C280 O300 1.257 . S
C280 O301 1.260 . S
Eu281 C280 2.835 . S
Eu281 O300 2.473 . S
Eu281 O301 2.480 . S
Eu281 O302 2.430 . S
Eu281 O303 2.670 . S
Eu281 O304 2.394 . S
Eu281 O309 2.355 . S
Eu281 O311 2.374 . S
C282 C280 1.500 . S
C282 C283 1.377 . S
C282 C287 1.377 . S
C283 C282 1.377 . S
C283 C284 1.395 . S
C283 H312 0.931 . S
C284 C283 1.395 . S
C284 C285 1.383 . S
C284 H313 0.931 . S
C285 C284 1.383 . S
C285 C286 1.394 . S
C286 C285 1.394 . S
C286 C287 1.378 . S
C286 H314 0.931 . S
C287 C282 1.377 . S
C287 C286 1.378 . S
C287 H315 0.931 . S
C288 O302 1.259 . S
C288 O303 1.270 . S
C289 O304 1.251 . S
C289 O305 1.251 . S
C290 Eu291 2.835 . S
C290 C292 1.500 . S
C290 O306 1.257 . S
C290 O307 1.260 . S
Eu291 C290 2.835 . S
Eu291 O303 2.355 . S
Eu291 O305 2.374 . S
Eu291 O306 2.473 . S
Eu291 O307 2.480 . S
Eu291 O308 2.430 . S
Eu291 O309 2.670 . S
Eu291 O310 2.394 . S
C292 C290 1.500 . S
C292 C293 1.377 . S
C292 C297 1.377 . S
C293 C292 1.377 . S
C293 C294 1.395 . S
C293 H316 0.931 . S
C294 C293 1.395 . S
C294 C295 1.383 . S
C294 H317 0.931 . S
C295 C294 1.383 . S
C295 C296 1.394 . S
C296 C295 1.394 . S
C296 C297 1.378 . S
C296 H318 0.931 . S
C297 C292 1.377 . S
C297 C296 1.378 . S
C297 H319 0.931 . S
C298 O308 1.259 . S
C298 O309 1.270 . S
C299 O310 1.251 . S
C299 O311 1.251 . S
O300 C280 1.257 . S
O300 Eu281 2.473 . S
O301 C280 1.260 . S
O301 Eu281 2.480 . S
O302 Eu281 2.430 . S
O302 C288 1.259 . S
O303 Eu281 2.670 . S
O303 C288 1.270 . S
O303 Eu291 2.355 . S
O304 Eu281 2.394 . S
O304 C289 1.251 . S
O305 C289 1.251 . S
O305 Eu291 2.374 . S
O306 C290 1.257 . S
O306 Eu291 2.473 . S
O307 C290 1.260 . S
O307 Eu291 2.480 . S
O308 Eu291 2.430 . S
O308 C298 1.259 . S
O309 Eu281 2.355 . S
O309 Eu291 2.670 . S
O309 C298 1.270 . S
O310 Eu291 2.394 . S
O310 C299 1.251 . S
O311 Eu281 2.374 . S
O311 C299 1.251 . S
H312 C283 0.931 . S
H313 C284 0.931 . S
H314 C286 0.931 . S
H315 C287 0.931 . S
H316 C293 0.931 . S
H317 C294 0.931 . S
H318 C296 0.931 . S
H319 C297 0.931 . S
C320 Eu321 2.835 . S
C320 C322 1.500 . S
C320 O340 1.257 . S
C320 O341 1.260 . S
Eu321 C320 2.835 . S
Eu321 O340 2.473 . S
Eu321 O341 2.480 . S
Eu321 O342 2.430 . S
Eu321 O343 2.670 . S
Eu321 O344 2.394 . S
Eu321 O349 2.355 . S
Eu321 O351 2.374 . S
C322 C320 1.500 . S
C322 C323 1.377 . S
C322 C327 1.377 . S
C323 C322 1.377 . S
C323 C324 1.395 . S
C323 H352 0.931 . S
C324 C323 1.395 . S
C324 C325 1.383 . S
C324 H353 0.931 . S
C325 C324 1.383 . S
C325 C326 1.394 . S
C326 C325 1.394 . S
C326 C327 1.378 . S
C326 H354 0.931 . S
C327 C322 1.377 . S
C327 C326 1.378 . S
C327 H355 0.931 . S
C328 O342 1.259 . S
C328 O343 1.270 . S
C329 O344 1.251 . S
C329 O345 1.251 . S
C330 Eu331 2.835 . S
C330 C332 1.500 . S
C330 O346 1.257 . S
C330 O347 1.260 . S
Eu331 C330 2.835 . S
Eu331 O343 2.355 . S
Eu331 O345 2.374 . S
Eu331 O346 2.473 . S
Eu331 O347 2.480 . S
Eu331 O348 2.430 . S
Eu331 O349 2.670 . S
Eu331 O350 2.394 . S
C332 C330 1.500 . S
C332 C333 1.377 . S
C332 C337 1.377 . S
C333 C332 1.377 . S
C333 C334 1.395 . S
C333 H356 0.931 . S
C334 C333 1.395 . S
C334 C335 1.383 . S
C334 H357 0.931 . S
C335 C334 1.383 . S
C335 C336 1.394 . S
C336 C335 1.394 . S
C336 C337 1.378 . S
C336 H358 0.931 . S
C337 C332 1.377 . S
C337 C336 1.378 . S
C337 H359 0.931 . S
C338 O348 1.259 . S
C338 O349 1.270 . S
C339 O350 1.251 . S
C339 O351 1.251 . S
O340 C320 1.257 . S
O340 Eu321 2.473 . S
O341 C320 1.260 . S
O341 Eu321 2.480 . S
O342 Eu321 2.430 . S
O342 C328 1.259 . S
O343 Eu321 2.670 . S
O343 C328 1.270 . S
O343 Eu331 2.355 . S
O344 Eu321 2.394 . S
O344 C329 1.251 . S
O345 C329 1.251 . S
O345 Eu331 2.374 . S
O346 C330 1.257 . S
O346 Eu331 2.473 . S
O347 C330 1.260 . S
O347 Eu331 2.480 . S
O348 Eu331 2.430 . S
O348 C338 1.259 . S
O349 Eu321 2.355 . S
O349 Eu331 2.670 . S
O349 C338 1.270 . S
O350 Eu331 2.394 . S
O350 C339 1.251 . S
O351 Eu321 2.374 . S
O351 C339 1.251 . S
H352 C323 0.931 . S
H353 C324 0.931 . S
H354 C326 0.931 . S
H355 C327 0.931 . S
H356 C333 0.931 . S
H357 C334 0.931 . S
H358 C336 0.931 . S
H359 C337 0.931 . S
C360 Eu361 2.835 1_565 S
C360 C362 1.500 . S
C360 O380 1.257 . S
C360 O381 1.260 . S
Eu361 C360 2.835 1_545 S
Eu361 O380 2.473 1_545 S
Eu361 O381 2.480 1_545 S
Eu361 O382 2.430 1_545 S
Eu361 O383 2.670 . S
Eu361 O384 2.394 1_545 S
Eu361 O389 2.355 . S
Eu361 O391 2.374 . S
C362 C360 1.500 . S
C362 C363 1.377 . S
C362 C367 1.377 . S
C363 C362 1.377 . S
C363 C364 1.395 . S
C363 H392 0.931 . S
C364 C363 1.395 . S
C364 C365 1.383 . S
C364 H393 0.931 . S
C365 C364 1.383 . S
C365 C366 1.394 . S
C366 C365 1.394 . S
C366 C367 1.378 . S
C366 H394 0.931 . S
C367 C362 1.377 . S
C367 C366 1.378 . S
C367 H395 0.931 . S
C368 O382 1.259 1_545 S
C368 O383 1.270 . S
C369 O384 1.251 . S
C369 O385 1.251 1_565 S
C370 Eu371 2.835 . S
C370 C372 1.500 . S
C370 O386 1.257 . S
C370 O387 1.260 . S
Eu371 C370 2.835 . S
Eu371 O383 2.355 . S
Eu371 O385 2.374 . S
Eu371 O386 2.473 . S
Eu371 O387 2.480 . S
Eu371 O388 2.430 . S
Eu371 O389 2.670 . S
Eu371 O390 2.394 . S
C372 C370 1.500 . S
C372 C373 1.377 . S
C372 C377 1.377 . S
C373 C372 1.377 . S
C373 C374 1.395 . S
C373 H396 0.931 . S
C374 C373 1.395 . S
C374 C375 1.383 . S
C374 H397 0.931 . S
C375 C374 1.383 . S
C375 C376 1.394 . S
C376 C375 1.394 . S
C376 C377 1.378 . S
C376 H398 0.931 . S
C377 C372 1.377 . S
C377 C376 1.378 . S
C377 H399 0.931 . S
C378 O388 1.259 . S
C378 O389 1.270 . S
C379 O390 1.251 . S
C379 O391 1.251 . S
O380 C360 1.257 . S
O380 Eu361 2.473 1_565 S
O381 C360 1.260 . S
O381 Eu361 2.480 1_565 S
O382 Eu361 2.430 1_565 S
O382 C368 1.259 1_565 S
O383 Eu361 2.670 . S
O383 C368 1.270 . S
O383 Eu371 2.355 . S
O384 Eu361 2.394 1_565 S
O384 C369 1.251 . S
O385 C369 1.251 1_545 S
O385 Eu371 2.374 . S
O386 C370 1.257 . S
O386 Eu371 2.473 . S
O387 C370 1.260 . S
O387 Eu371 2.480 . S
O388 Eu371 2.430 . S
O388 C378 1.259 . S
O389 Eu361 2.355 . S
O389 Eu371 2.670 . S
O389 C378 1.270 . S
O390 Eu371 2.394 . S
O390 C379 1.251 . S
O391 Eu361 2.374 . S
O391 C379 1.251 . S
H392 C363 0.931 . S
H393 C364 0.931 . S
H394 C366 0.931 . S
H395 C367 0.931 . S
H396 C373 0.931 . S
H397 C374 0.931 . S
H398 C376 0.931 . S
H399 C377 0.931 . S
C400 Eu401 2.835 . S
C400 C402 1.500 . S
C400 O420 1.257 . S
C400 O421 1.260 . S
Eu401 C400 2.835 . S
Eu401 O420 2.473 . S
Eu401 O421 2.480 . S
Eu401 O422 2.430 . S
Eu401 O423 2.670 1_545 S
Eu401 O424 2.394 . S
Eu401 O429 2.355 1_545 S
Eu401 O431 2.374 1_545 S
C402 C400 1.500 . S
C402 C403 1.377 . S
C402 C407 1.377 . S
C403 C402 1.377 . S
C403 C404 1.395 . S
C403 H432 0.931 . S
C404 C403 1.395 . S
C404 C405 1.383 . S
C404 H433 0.931 . S
C405 C404 1.383 . S
C405 C406 1.394 . S
C406 C405 1.394 . S
C406 C407 1.378 . S
C406 H434 0.931 . S
C407 C402 1.377 . S
C407 C406 1.378 . S
C407 H435 0.931 . S
C408 O422 1.259 . S
C408 O423 1.270 1_545 S
C409 O424 1.251 . S
C409 O425 1.251 . S
C410 Eu411 2.835 . S
C410 C412 1.500 . S
C410 O426 1.257 . S
C410 O427 1.260 . S
Eu411 C410 2.835 . S
Eu411 O423 2.355 . S
Eu411 O425 2.374 1_565 S
Eu411 O426 2.473 . S
Eu411 O427 2.480 . S
Eu411 O428 2.430 . S
Eu411 O429 2.670 . S
Eu411 O430 2.394 . S
C412 C410 1.500 . S
C412 C413 1.377 . S
C412 C417 1.377 . S
C413 C412 1.377 . S
C413 C414 1.395 . S
C413 H436 0.931 . S
C414 C413 1.395 . S
C414 C415 1.383 . S
C414 H437 0.931 . S
C415 C414 1.383 . S
C415 C416 1.394 . S
C416 C415 1.394 . S
C416 C417 1.378 . S
C416 H438 0.931 . S
C417 C412 1.377 . S
C417 C416 1.378 . S
C417 H439 0.931 . S
C418 O428 1.259 . S
C418 O429 1.270 . S
C419 O430 1.251 . S
C419 O431 1.251 . S
O420 C400 1.257 . S
O420 Eu401 2.473 . S
O421 C400 1.260 . S
O421 Eu401 2.480 . S
O422 Eu401 2.430 . S
O422 C408 1.259 . S
O423 Eu401 2.670 1_565 S
O423 C408 1.270 1_565 S
O423 Eu411 2.355 . S
O424 Eu401 2.394 . S
O424 C409 1.251 . S
O425 C409 1.251 . S
O425 Eu411 2.374 1_545 S
O426 C410 1.257 . S
O426 Eu411 2.473 . S
O427 C410 1.260 . S
O427 Eu411 2.480 . S
O428 Eu411 2.430 . S
O428 C418 1.259 . S
O429 Eu401 2.355 1_565 S
O429 Eu411 2.670 . S
O429 C418 1.270 . S
O430 Eu411 2.394 . S
O430 C419 1.251 . S
O431 Eu401 2.374 1_565 S
O431 C419 1.251 . S
H432 C403 0.931 . S
H433 C404 0.931 . S
H434 C406 0.931 . S
H435 C407 0.931 . S
H436 C413 0.931 . S
H437 C414 0.931 . S
H438 C416 0.931 . S
H439 C417 0.931 . S
C440 Eu441 2.835 . S
C440 C442 1.500 . S
C440 O460 1.257 . S
C440 O461 1.260 . S
Eu441 C440 2.835 . S
Eu441 O460 2.473 . S
Eu441 O461 2.480 . S
Eu441 O462 2.430 . S
Eu441 O463 2.670 . S
Eu441 O464 2.394 . S
Eu441 O469 2.355 . S
Eu441 O471 2.374 . S
C442 C440 1.500 . S
C442 C443 1.377 . S
C442 C447 1.377 . S
C443 C442 1.377 . S
C443 C444 1.395 . S
C443 H472 0.931 . S
C444 C443 1.395 . S
C444 C445 1.383 . S
C444 H473 0.931 . S
C445 C444 1.383 . S
C445 C446 1.394 . S
C446 C445 1.394 . S
C446 C447 1.378 . S
C446 H474 0.931 . S
C447 C442 1.377 . S
C447 C446 1.378 . S
C447 H475 0.931 . S
C448 O462 1.259 . S
C448 O463 1.270 . S
C449 O464 1.251 . S
C449 O465 1.251 . S
C450 Eu451 2.835 . S
C450 C452 1.500 . S
C450 O466 1.257 . S
C450 O467 1.260 . S
Eu451 C450 2.835 . S
Eu451 O463 2.355 . S
Eu451 O465 2.374 . S
Eu451 O466 2.473 . S
Eu451 O467 2.480 . S
Eu451 O468 2.430 . S
Eu451 O469 2.670 . S
Eu451 O470 2.394 . S
C452 C450 1.500 . S
C452 C453 1.377 . S
C452 C457 1.377 . S
C453 C452 1.377 . S
C453 C454 1.395 . S
C453 H476 0.931 . S
C454 C453 1.395 . S
C454 C455 1.383 . S
C454 H477 0.931 . S
C455 C454 1.383 . S
C455 C456 1.394 . S
C456 C455 1.394 . S
C456 C457 1.378 . S
C456 H478 0.931 . S
C457 C452 1.377 . S
C457 C456 1.378 . S
C457 H479 0.931 . S
C458 O468 1.259 . S
C458 O469 1.270 . S
C459 O470 1.251 . S
C459 O471 1.251 . S
O460 C440 1.257 . S
O460 Eu441 2.473 . S
O461 C440 1.260 . S
O461 Eu441 2.480 . S
O462 Eu441 2.430 . S
O462 C448 1.259 . S
O463 Eu441 2.670 . S
O463 C448 1.270 . S
O463 Eu451 2.355 . S
O464 Eu441 2.394 . S
O464 C449 1.251 . S
O465 C449 1.251 . S
O465 Eu451 2.374 . S
O466 C450 1.257 . S
O466 Eu451 2.473 . S
O467 C450 1.260 . S
O467 Eu451 2.480 . S
O468 Eu451 2.430 . S
O468 C458 1.259 . S
O469 Eu441 2.355 . S
O469 Eu451 2.670 . S
O469 C458 1.270 . S
O470 Eu451 2.394 . S
O470 C459 1.251 . S
O471 Eu441 2.374 . S
O471 C459 1.251 . S
H472 C443 0.931 . S
H473 C444 0.931 . S
H474 C446 0.931 . S
H475 C447 0.931 . S
H476 C453 0.931 . S
H477 C454 0.931 . S
H478 C456 0.931 . S
H479 C457 0.931 . S
C480 C481 1.349 . S
C480 C482 1.327 . S
C480 H505 0.950 . S
C481 C480 1.349 . S
C481 C497 1.349 . S
C482 C480 1.327 . S
C482 C501 1.429 . S
C482 H506 0.950 . S
C483 C500 1.574 . S
C483 C502 1.368 . S
C483 H507 0.949 . S
H484 C488 0.949 . S
C485 C486 1.349 . S
C485 C487 1.327 . S
C485 H508 0.950 . S
C486 C485 1.349 . S
C486 C498 1.349 . S
C487 C485 1.327 . S
C487 C503 1.429 . S
C487 H509 0.950 . S
C488 H484 0.949 . S
C488 C496 1.574 . S
C488 C504 1.368 . S
H489 C497 0.950 . S
H490 C495 0.950 . S
H491 C496 0.949 . S
H492 C498 0.950 . S
H493 C499 0.950 . S
H494 C500 0.949 . S
C495 H490 0.950 . S
C495 C497 1.327 . S
C495 C501 1.429 . S
C496 C488 1.574 . S
C496 H491 0.949 . S
C496 C502 1.368 . S
C497 C481 1.349 . S
C497 H489 0.950 . S
C497 C495 1.327 . S
C498 C486 1.349 . S
C498 H492 0.950 . S
C498 C499 1.327 . S
C499 H493 0.950 . S
C499 C498 1.327 . S
C499 C503 1.429 . S
C500 C483 1.574 . S
C500 H494 0.949 . S
C500 C504 1.368 . S
C501 C482 1.429 . S
C501 C495 1.429 . S
C501 C502 1.523 . S
C502 C483 1.368 . S
C502 C496 1.368 . S
C502 C501 1.523 . S
C503 C487 1.429 . S
C503 C499 1.429 . S
C503 C504 1.523 . S
C504 C488 1.368 . S
C504 C500 1.368 . S
C504 C503 1.523 . S
H505 C480 0.950 . S
H506 C482 0.950 . S
H507 C483 0.949 . S
H508 C485 0.950 . S
H509 C487 0.950 . S
C510 C511 1.349 . S
C510 C512 1.327 . S
C510 H535 0.950 . S
C511 C510 1.349 . S
C511 C527 1.349 1_565 S
C512 C510 1.327 . S
C512 C531 1.429 . S
C512 H536 0.950 . S
C513 C530 1.574 . S
C513 C532 1.368 . S
C513 H537 0.949 . S
H514 C518 0.949 . S
C515 C516 1.349 . S
C515 C517 1.327 . S
C515 H538 0.950 . S
C516 C515 1.349 . S
C516 C528 1.349 . S
C517 C515 1.327 . S
C517 C533 1.429 . S
C517 H539 0.950 . S
C518 H514 0.949 . S
C518 C526 1.574 . S
C518 C534 1.368 . S
H519 C527 0.950 . S
H520 C525 0.971 . S
H521 C526 0.949 . S
H522 C528 0.950 . S
H523 C529 0.950 . S
H524 C530 0.949 . S
C525 H520 0.971 . S
C525 C527 1.342 . S
C525 C531 1.393 1_545 S
C526 C518 1.574 . S
C526 H521 0.949 . S
C526 C532 1.368 . S
C527 C511 1.349 1_545 S
C527 H519 0.950 . S
C527 C525 1.342 . S
C528 C516 1.349 . S
C528 H522 0.950 . S
C528 C529 1.327 . S
C529 H523 0.950 . S
C529 C528 1.327 . S
C529 C533 1.429 . S
C530 C513 1.574 . S
C530 H524 0.949 . S
C530 C534 1.368 . S
C531 C512 1.429 . S
C531 C525 1.393 1_565 S
C531 C532 1.523 . S
C532 C513 1.368 . S
C532 C526 1.368 . S
C532 C531 1.523 . S
C533 C517 1.429 . S
C533 C529 1.429 . S
C533 C534 1.523 . S
C534 C518 1.368 . S
C534 C530 1.368 . S
C534 C533 1.523 . S
H535 C510 0.950 . S
H536 C512 0.950 . S
H537 C513 0.949 . S
H538 C515 0.950 . S
H539 C517 0.950 . S
C540 C541 1.349 . S
C540 C542 1.327 . S
C540 H565 0.950 1_554 S
C541 C540 1.349 . S
C541 C557 1.349 . S
C542 C540 1.327 . S
C542 C561 1.429 . S
C542 H566 0.950 . S
C543 C560 1.574 . S
C543 C562 1.368 . S
C543 H567 0.949 . S
H544 C548 0.949 . S
C545 C546 1.349 . S
C545 C547 1.327 . S
C545 H568 0.950 . S
C546 C545 1.349 . S
C546 C558 1.349 . S
C547 C545 1.327 . S
C547 C563 1.429 . S
C547 H569 0.950 . S
C548 H544 0.949 . S
C548 C556 1.574 . S
C548 C564 1.368 . S
H549 C557 0.950 . S
H550 C555 0.950 . S
H551 C556 0.949 . S
H552 C558 0.950 . S
H553 C559 0.950 . S
H554 C560 0.949 . S
C555 H550 0.950 . S
C555 C557 1.327 . S
C555 C561 1.429 . S
C556 C548 1.574 . S
C556 H551 0.949 . S
C556 C562 1.368 . S
C557 C541 1.349 . S
C557 H549 0.950 . S
C557 C555 1.327 . S
C558 C546 1.349 . S
C558 H552 0.950 . S
C558 C559 1.327 . S
C559 H553 0.950 . S
C559 C558 1.327 . S
C559 C563 1.429 . S
C560 C543 1.574 . S
C560 H554 0.949 . S
C560 C564 1.368 . S
C561 C542 1.429 . S
C561 C555 1.429 . S
C561 C562 1.523 . S
C562 C543 1.368 . S
C562 C556 1.368 . S
C562 C561 1.523 . S
C563 C547 1.429 . S
C563 C559 1.429 . S
C563 C564 1.523 . S
C564 C548 1.368 . S
C564 C560 1.368 . S
C564 C563 1.523 . S
H565 C540 0.950 1_556 S
H566 C542 0.950 . S
H567 C543 0.949 . S
H568 C545 0.950 . S
H569 C547 0.950 . S
C570 C571 1.349 . S
C570 C572 1.327 . S
C570 H595 0.950 . S
C571 C570 1.349 . S
C571 C587 1.349 . S
C572 C570 1.327 . S
C572 C591 1.429 . S
C572 H596 0.950 . S
C573 C590 1.574 . S
C573 C592 1.368 . S
C573 H597 0.949 . S
H574 C578 0.949 . S
C575 C576 1.349 . S
C575 C577 1.327 . S
C575 H598 0.950 . S
C576 C575 1.349 . S
C576 C588 1.349 . S
C577 C575 1.327 . S
C577 C593 1.429 . S
C577 H599 0.950 . S
C578 H574 0.949 . S
C578 C586 1.574 . S
C578 C594 1.368 . S
H579 C587 0.950 . S
H580 C585 0.950 . S
H581 C586 0.949 . S
H582 C588 0.950 . S
H583 C589 0.950 . S
H584 C590 0.949 . S
C585 H580 0.950 . S
C585 C587 1.327 . S
C585 C591 1.429 . S
C586 C578 1.574 . S
C586 H581 0.949 . S
C586 C592 1.368 . S
C587 C571 1.349 . S
C587 H579 0.950 . S
C587 C585 1.327 . S
C588 C576 1.349 . S
C588 H582 0.950 . S
C588 C589 1.327 . S
C589 H583 0.950 . S
C589 C588 1.327 . S
C589 C593 1.429 . S
C590 C573 1.574 . S
C590 H584 0.949 . S
C590 C594 1.368 . S
C591 C572 1.429 . S
C591 C585 1.429 . S
C591 C592 1.523 . S
C592 C573 1.368 . S
C592 C586 1.368 . S
C592 C591 1.523 . S
C593 C577 1.429 . S
C593 C589 1.429 . S
C593 C594 1.523 . S
C594 C578 1.368 . S
C594 C590 1.368 . S
C594 C593 1.523 . S
H595 C570 0.950 . S
H596 C572 0.950 . S
H597 C573 0.949 . S
H598 C575 0.950 . S
H599 C577 0.950 . S
C600 C601 1.349 . S
C600 C602 1.327 . S
C600 H625 0.950 . S
C601 C600 1.349 . S
C601 C617 1.349 . S
C602 C600 1.327 . S
C602 C621 1.429 . S
C602 H626 0.950 . S
C603 C620 1.574 . S
C603 C622 1.368 . S
C603 H627 0.949 . S
H604 C608 0.949 . S
C605 C606 1.349 . S
C605 C607 1.327 . S
C605 H628 0.950 . S
C606 C605 1.349 . S
C606 C618 1.349 . S
C607 C605 1.327 . S
C607 C623 1.429 . S
C607 H629 0.950 . S
C608 H604 0.949 . S
C608 C616 1.574 . S
C608 C624 1.368 . S
H609 C617 0.950 . S
H610 C615 0.950 . S
H611 C616 0.949 . S
H612 C618 0.950 . S
H613 C619 0.950 . S
H614 C620 0.949 . S
C615 H610 0.950 . S
C615 C617 1.327 . S
C615 C621 1.429 . S
C616 C608 1.574 . S
C616 H611 0.949 . S
C616 C622 1.368 . S
C617 C601 1.349 . S
C617 H609 0.950 . S
C617 C615 1.327 . S
C618 C606 1.349 . S
C618 H612 0.950 . S
C618 C619 1.327 . S
C619 H613 0.950 . S
C619 C618 1.327 . S
C619 C623 1.429 . S
C620 C603 1.574 . S
C620 H614 0.949 . S
C620 C624 1.368 . S
C621 C602 1.429 . S
C621 C615 1.429 . S
C621 C622 1.523 . S
C622 C603 1.368 . S
C622 C616 1.368 . S
C622 C621 1.523 . S
C623 C607 1.429 . S
C623 C619 1.429 . S
C623 C624 1.523 . S
C624 C608 1.368 . S
C624 C620 1.368 . S
C624 C623 1.523 . S
H625 C600 0.950 . S
H626 C602 0.950 . S
H627 C603 0.949 . S
H628 C605 0.950 . S
H629 C607 0.950 . S
C630 C631 1.349 . S
C630 C632 1.327 . S
C630 H655 0.950 . S
C631 C630 1.349 . S
C631 C647 1.349 . S
C632 C630 1.327 . S
C632 C651 1.429 . S
C632 H656 0.950 . S
C633 C650 1.574 . S
C633 C652 1.368 . S
C633 H657 0.949 . S
H634 C638 0.949 . S
C635 C636 1.349 . S
C635 C637 1.327 . S
C635 H658 0.950 . S
C636 C635 1.349 . S
C636 C648 1.349 . S
C637 C635 1.327 . S
C637 C653 1.429 . S
C637 H659 0.950 . S
C638 H634 0.949 . S
C638 C646 1.574 . S
C638 C654 1.368 . S
H639 C647 0.950 . S
H640 C645 0.950 . S
H641 C646 0.949 . S
H642 C648 0.950 . S
H643 C649 0.950 . S
H644 C650 0.949 . S
C645 H640 0.950 . S
C645 C647 1.327 . S
C645 C651 1.429 . S
C646 C638 1.574 . S
C646 H641 0.949 . S
C646 C652 1.368 . S
C647 C631 1.349 . S
C647 H639 0.950 . S
C647 C645 1.327 . S
C648 C636 1.349 . S
C648 H642 0.950 . S
C648 C649 1.327 . S
C649 H643 0.950 . S
C649 C648 1.327 . S
C649 C653 1.429 . S
C650 C633 1.574 . S
C650 H644 0.949 . S
C650 C654 1.368 . S
C651 C632 1.429 . S
C651 C645 1.429 . S
C651 C652 1.523 . S
C652 C633 1.368 . S
C652 C646 1.368 . S
C652 C651 1.523 . S
C653 C637 1.429 . S
C653 C649 1.429 . S
C653 C654 1.523 . S
C654 C638 1.368 . S
C654 C650 1.368 . S
C654 C653 1.523 . S
H655 C630 0.950 . S
H656 C632 0.950 . S
H657 C633 0.949 . S
H658 C635 0.950 . S
H659 C637 0.950 . S
C660 C661 1.349 . S
C660 C662 1.327 . S
C660 H685 0.950 . S
C661 C660 1.349 . S
C661 C677 1.349 . S
C662 C660 1.327 . S
C662 C681 1.429 . S
C662 H686 0.950 . S
C663 C680 1.574 . S
C663 C682 1.368 . S
C663 H687 0.949 . S
H664 C668 0.949 . S
C665 C666 1.349 1_554 S
C665 C667 1.327 . S
C665 H688 0.950 . S
C666 C665 1.349 1_556 S
C666 C678 1.349 . S
C667 C665 1.327 . S
C667 C683 1.429 1_554 S
C667 H689 0.950 . S
C668 H664 0.949 . S
C668 C676 1.574 . S
C668 C684 1.368 . S
H669 C677 0.950 . S
H670 C675 0.950 . S
H671 C676 0.949 . S
H672 C678 0.950 . S
H673 C679 0.950 . S
H674 C680 0.949 1_554 S
C675 H670 0.950 . S
C675 C677 1.327 . S
C675 C681 1.429 . S
C676 C668 1.574 . S
C676 H671 0.949 . S
C676 C682 1.368 . S
C677 C661 1.349 . S
C677 H669 0.950 . S
C677 C675 1.327 . S
C678 C666 1.349 . S
C678 H672 0.950 . S
C678 C679 1.327 . S
C679 H673 0.950 . S
C679 C678 1.327 . S
C679 C683 1.429 . S
C680 C663 1.574 . S
C680 H674 0.949 1_556 S
C680 C684 1.368 . S
C681 C662 1.429 . S
C681 C675 1.429 . S
C681 C682 1.523 . S
C682 C663 1.368 . S
C682 C676 1.368 . S
C682 C681 1.523 . S
C683 C667 1.429 1_556 S
C683 C679 1.429 . S
C683 C684 1.523 . S
C684 C668 1.368 . S
C684 C680 1.368 . S
C684 C683 1.523 . S
H685 C660 0.950 . S
H686 C662 0.950 . S
H687 C663 0.949 . S
H688 C665 0.950 . S
H689 C667 0.950 . S
C690 C691 1.349 . S
C690 C692 1.327 . S
C690 H715 0.950 . S
C691 C690 1.349 . S
C691 C707 1.349 . S
C692 C690 1.327 . S
C692 C711 1.429 . S
C692 H716 0.950 . S
C693 C710 1.574 . S
C693 C712 1.368 . S
C693 H717 0.949 . S
H694 C698 0.949 . S
C695 C696 1.349 . S
C695 C697 1.327 . S
C695 H718 0.950 . S
C696 C695 1.349 . S
C696 C708 1.349 . S
C697 C695 1.327 . S
C697 C713 1.429 . S
C697 H719 0.950 . S
C698 H694 0.949 . S
C698 C706 1.574 . S
C698 C714 1.368 . S
H699 C707 0.950 . S
H700 C705 0.950 . S
H701 C706 0.949 . S
H702 C708 0.950 . S
H703 C709 0.950 . S
H704 C710 0.949 . S
C705 H700 0.950 . S
C705 C707 1.327 . S
C705 C711 1.429 . S
C706 C698 1.574 . S
C706 H701 0.949 . S
C706 C712 1.368 . S
C707 C691 1.349 . S
C707 H699 0.950 . S
C707 C705 1.327 . S
C708 C696 1.349 . S
C708 H702 0.950 . S
C708 C709 1.327 . S
C709 H703 0.950 . S
C709 C708 1.327 . S
C709 C713 1.429 . S
C710 C693 1.574 . S
C710 H704 0.949 . S
C710 C714 1.368 . S
C711 C692 1.429 . S
C711 C705 1.429 . S
C711 C712 1.523 . S
C712 C693 1.368 . S
C712 C706 1.368 . S
C712 C711 1.523 . S
C713 C697 1.429 . S
C713 C709 1.429 . S
C713 C714 1.523 . S
C714 C698 1.368 . S
C714 C710 1.368 . S
C714 C713 1.523 . S
H715 C690 0.950 . S
H716 C692 0.950 . S
H717 C693 0.949 . S
H718 C695 0.950 . S
H719 C697 0.950 . S
C720 C721 1.349 . S
C720 C722 1.327 . S
C720 H745 0.950 . S
C721 C720 1.349 . S
C721 C737 1.349 . S
C722 C720 1.327 . S
C722 C741 1.429 . S
C722 H746 0.950 . S
C723 C740 1.574 . S
C723 C742 1.368 . S
C723 H747 0.949 . S
H724 C728 0.949 . S
C725 C726 1.349 . S
C725 C727 1.327 . S
C725 H748 0.950 . S
C726 C725 1.349 . S
C726 C738 1.349 . S
C727 C725 1.327 . S
C727 C743 1.429 . S
C727 H749 0.950 . S
C728 H724 0.949 . S
C728 C736 1.574 . S
C728 C744 1.368 . S
H729 C737 0.950 . S
H730 C735 0.950 . S
H731 C736 0.949 . S
H732 C738 0.950 . S
H733 C739 0.950 . S
H734 C740 0.949 . S
C735 H730 0.950 . S
C735 C737 1.327 . S
C735 C741 1.429 . S
C736 C728 1.574 . S
C736 H731 0.949 . S
C736 C742 1.368 . S
C737 C721 1.349 . S
C737 H729 0.950 . S
C737 C735 1.327 . S
C738 C726 1.349 . S
C738 H732 0.950 . S
C738 C739 1.327 . S
C739 H733 0.950 . S
C739 C738 1.327 . S
C739 C743 1.429 . S
C740 C723 1.574 . S
C740 H734 0.949 . S
C740 C744 1.368 . S
C741 C722 1.429 . S
C741 C735 1.429 . S
C741 C742 1.523 . S
C742 C723 1.368 . S
C742 C736 1.368 . S
C742 C741 1.523 . S
C743 C727 1.429 . S
C743 C739 1.429 . S
C743 C744 1.523 . S
C744 C728 1.368 . S
C744 C740 1.368 . S
C744 C743 1.523 . S
H745 C720 0.950 . S
H746 C722 0.950 . S
H747 C723 0.949 . S
H748 C725 0.950 . S
H749 C727 0.950 . S
C750 C751 1.349 . S
C750 C752 1.327 . S
C750 H775 0.950 . S
C751 C750 1.349 . S
C751 C767 1.349 . S
C752 C750 1.327 . S
C752 C771 1.429 . S
C752 H776 0.950 . S
C753 C770 1.574 . S
C753 C772 1.368 . S
C753 H777 0.949 . S
H754 C758 0.949 . S
C755 C756 1.349 . S
C755 C757 1.327 . S
C755 H778 0.950 . S
C756 C755 1.349 . S
C756 C768 1.349 . S
C757 C755 1.327 . S
C757 C773 1.429 . S
C757 H779 0.950 . S
C758 H754 0.949 . S
C758 C766 1.574 . S
C758 C774 1.368 . S
H759 C767 0.950 . S
H760 C765 0.950 . S
H761 C766 0.949 . S
H762 C768 0.950 . S
H763 C769 0.950 . S
H764 C770 0.949 . S
C765 H760 0.950 . S
C765 C767 1.327 . S
C765 C771 1.429 . S
C766 C758 1.574 . S
C766 H761 0.949 . S
C766 C772 1.368 . S
C767 C751 1.349 . S
C767 H759 0.950 . S
C767 C765 1.327 . S
C768 C756 1.349 . S
C768 H762 0.950 . S
C768 C769 1.327 . S
C769 H763 0.950 . S
C769 C768 1.327 . S
C769 C773 1.429 . S
C770 C753 1.574 . S
C770 H764 0.949 . S
C770 C774 1.368 . S
C771 C752 1.429 . S
C771 C765 1.429 . S
C771 C772 1.523 . S
C772 C753 1.368 . S
C772 C766 1.368 . S
C772 C771 1.523 . S
C773 C757 1.429 . S
C773 C769 1.429 . S
C773 C774 1.523 . S
C774 C758 1.368 . S
C774 C770 1.368 . S
C774 C773 1.523 . S
H775 C750 0.950 . S
H776 C752 0.950 . S
H777 C753 0.949 . S
H778 C755 0.950 . S
H779 C757 0.950 . S
C780 C781 1.349 . S
C780 C782 1.327 . S
C780 H805 0.950 . S
C781 C780 1.349 . S
C781 C797 1.349 1_655 S
C782 C780 1.327 . S
C782 C801 1.429 . S
C782 H806 0.950 . S
C783 C800 1.574 . S
C783 C802 1.368 . S
C783 H807 0.949 . S
H784 C788 0.949 . S
C785 C786 1.349 . S
C785 C787 1.327 . S
C785 H808 0.950 . S
C786 C785 1.349 . S
C786 C798 1.349 . S
C787 C785 1.327 . S
C787 C803 1.429 . S
C787 H809 0.950 . S
C788 H784 0.949 . S
C788 C796 1.574 . S
C788 C804 1.368 . S
H789 C797 0.950 . S
H790 C795 0.950 1_455 S
H791 C796 0.949 . S
H792 C798 0.950 . S
H793 C799 0.950 . S
H794 C800 0.949 . S
C795 H790 0.950 1_655 S
C795 C797 1.327 1_655 S
C795 C801 1.429 . S
C796 C788 1.574 . S
C796 H791 0.949 . S
C796 C802 1.368 . S
C797 C781 1.349 1_455 S
C797 H789 0.950 . S
C797 C795 1.327 1_455 S
C798 C786 1.349 . S
C798 H792 0.950 . S
C798 C799 1.327 . S
C799 H793 0.950 . S
C799 C798 1.327 . S
C799 C803 1.429 . S
C800 C783 1.574 . S
C800 H794 0.949 . S
C800 C804 1.368 . S
C801 C782 1.429 . S
C801 C795 1.429 . S
C801 C802 1.523 . S
C802 C783 1.368 . S
C802 C796 1.368 . S
C802 C801 1.523 . S
C803 C787 1.429 . S
C803 C799 1.429 . S
C803 C804 1.523 . S
C804 C788 1.368 . S
C804 C800 1.368 . S
C804 C803 1.523 . S
H805 C780 0.950 . S
H806 C782 0.950 . S
H807 C783 0.949 . S
H808 C785 0.950 . S
H809 C787 0.950 . S
C810 C811 1.349 . S
C810 C812 1.327 . S
C810 H835 0.950 . S
C811 C810 1.349 . S
C811 C827 1.349 . S
C812 C810 1.327 . S
C812 C831 1.429 . S
C812 H836 0.950 . S
C813 C830 1.574 . S
C813 C832 1.368 . S
C813 H837 0.949 . S
H814 C818 0.949 . S
C815 C816 1.349 . S
C815 C817 1.327 . S
C815 H838 0.950 . S
C816 C815 1.349 . S
C816 C828 1.349 . S
C817 C815 1.327 . S
C817 C833 1.429 . S
C817 H839 0.950 . S
C818 H814 0.949 . S
C818 C826 1.574 . S
C818 C834 1.368 . S
H819 C827 0.950 . S
H820 C825 0.950 . S
H821 C826 0.949 . S
H822 C828 0.950 . S
H823 C829 0.950 . S
H824 C830 0.949 . S
C825 H820 0.950 . S
C825 C827 1.327 . S
C825 C831 1.429 . S
C826 C818 1.574 . S
C826 H821 0.949 . S
C826 C832 1.368 . S
C827 C811 1.349 . S
C827 H819 0.950 . S
C827 C825 1.327 . S
C828 C816 1.349 . S
C828 H822 0.950 . S
C828 C829 1.327 . S
C829 H823 0.950 . S
C829 C828 1.327 . S
C829 C833 1.429 . S
C830 C813 1.574 . S
C830 H824 0.949 . S
C830 C834 1.368 . S
C831 C812 1.429 . S
C831 C825 1.429 . S
C831 C832 1.523 . S
C832 C813 1.368 . S
C832 C826 1.368 . S
C832 C831 1.523 . S
C833 C817 1.429 . S
C833 C829 1.429 . S
C833 C834 1.523 . S
C834 C818 1.368 . S
C834 C830 1.368 . S
C834 C833 1.523 . S
H835 C810 0.950 . S
H836 C812 0.950 . S
H837 C813 0.949 . S
H838 C815 0.950 . S
H839 C817 0.950 . S
C840 C841 1.349 . S
C840 C842 1.327 . S
C840 H865 0.950 . S
C841 C840 1.349 . S
C841 C857 1.349 . S
C842 C840 1.327 . S
C842 C861 1.429 . S
C842 H866 0.950 . S
C843 C860 1.574 . S
C843 C862 1.368 . S
C843 H867 0.949 . S
H844 C848 0.949 . S
C845 C846 1.349 . S
C845 C847 1.327 . S
C845 H868 0.950 . S
C846 C845 1.349 . S
C846 C858 1.349 . S
C847 C845 1.327 . S
C847 C863 1.429 . S
C847 H869 0.950 . S
C848 H844 0.949 . S
C848 C856 1.574 . S
C848 C864 1.368 . S
H849 C857 0.950 . S
H850 C855 0.950 . S
H851 C856 0.949 . S
H852 C858 0.950 . S
H853 C859 0.950 . S
H854 C860 0.949 . S
C855 H850 0.950 . S
C855 C857 1.327 . S
C855 C861 1.429 . S
C856 C848 1.574 . S
C856 H851 0.949 . S
C856 C862 1.368 . S
C857 C841 1.349 . S
C857 H849 0.950 . S
C857 C855 1.327 . S
C858 C846 1.349 . S
C858 H852 0.950 . S
C858 C859 1.327 . S
C859 H853 0.950 . S
C859 C858 1.327 . S
C859 C863 1.429 . S
C860 C843 1.574 . S
C860 H854 0.949 . S
C860 C864 1.368 . S
C861 C842 1.429 . S
C861 C855 1.429 . S
C861 C862 1.523 . S
C862 C843 1.368 . S
C862 C856 1.368 . S
C862 C861 1.523 . S
C863 C847 1.429 . S
C863 C859 1.429 . S
C863 C864 1.523 . S
C864 C848 1.368 . S
C864 C860 1.368 . S
C864 C863 1.523 . S
H865 C840 0.950 . S
H866 C842 0.950 . S
H867 C843 0.949 . S
H868 C845 0.950 . S
H869 C847 0.950 . S
C870 C871 1.349 . S
C870 C872 1.327 . S
C870 H895 0.950 . S
C871 C870 1.349 . S
C871 C887 1.349 . S
C872 C870 1.327 . S
C872 C891 1.429 . S
C872 H896 0.950 . S
C873 C890 1.574 . S
C873 C892 1.368 . S
C873 H897 0.949 . S
H874 C878 0.949 . S
C875 C876 1.349 . S
C875 C877 1.327 . S
C875 H898 0.950 . S
C876 C875 1.349 . S
C876 C888 1.349 . S
C877 C875 1.327 . S
C877 C893 1.429 . S
C877 H899 0.950 . S
C878 H874 0.949 . S
C878 C886 1.574 . S
C878 C894 1.368 . S
H879 C887 0.950 . S
H880 C885 0.950 . S
H881 C886 0.949 . S
H882 C888 0.950 . S
H883 C889 0.950 . S
H884 C890 0.949 . S
C885 H880 0.950 . S
C885 C887 1.327 . S
C885 C891 1.429 . S
C886 C878 1.574 . S
C886 H881 0.949 . S
C886 C892 1.368 . S
C887 C871 1.349 . S
C887 H879 0.950 . S
C887 C885 1.327 . S
C888 C876 1.349 . S
C888 H882 0.950 . S
C888 C889 1.327 . S
C889 H883 0.950 . S
C889 C888 1.327 . S
C889 C893 1.429 . S
C890 C873 1.574 . S
C890 H884 0.949 . S
C890 C894 1.368 . S
C891 C872 1.429 . S
C891 C885 1.429 . S
C891 C892 1.523 . S
C892 C873 1.368 . S
C892 C886 1.368 . S
C892 C891 1.523 . S
C893 C877 1.429 . S
C893 C889 1.429 . S
C893 C894 1.523 . S
C894 C878 1.368 . S
C894 C890 1.368 . S
C894 C893 1.523 . S
H895 C870 0.950 . S
H896 C872 0.950 . S
H897 C873 0.949 . S
H898 C875 0.950 . S
H899 C877 0.950 . S
C900 C901 1.349 . S
C900 C902 1.327 . S
C900 H925 0.950 . S
C901 C900 1.349 . S
C901 C917 1.349 . S
C902 C900 1.327 . S
C902 C921 1.429 . S
C902 H926 0.950 . S
C903 C920 1.574 . S
C903 C922 1.368 . S
C903 H927 0.949 . S
H904 C908 0.949 . S
C905 C906 1.349 . S
C905 C907 1.327 . S
C905 H928 0.950 . S
C906 C905 1.349 . S
C906 C918 1.349 . S
C907 C905 1.327 . S
C907 C923 1.429 . S
C907 H929 0.950 . S
C908 H904 0.949 . S
C908 C916 1.574 . S
C908 C924 1.368 . S
H909 C917 0.950 . S
H910 C915 0.950 . S
H911 C916 0.949 . S
H912 C918 0.950 . S
H913 C919 0.950 . S
H914 C920 0.949 . S
C915 H910 0.950 . S
C915 C917 1.327 . S
C915 C921 1.429 . S
C916 C908 1.574 . S
C916 H911 0.949 . S
C916 C922 1.368 . S
C917 C901 1.349 . S
C917 H909 0.950 . S
C917 C915 1.327 . S
C918 C906 1.349 . S
C918 H912 0.950 . S
C918 C919 1.327 . S
C919 H913 0.950 . S
C919 C918 1.327 . S
C919 C923 1.429 . S
C920 C903 1.574 . S
C920 H914 0.949 . S
C920 C924 1.368 . S
C921 C902 1.429 . S
C921 C915 1.429 . S
C921 C922 1.523 . S
C922 C903 1.368 . S
C922 C916 1.368 . S
C922 C921 1.523 . S
C923 C907 1.429 . S
C923 C919 1.429 . S
C923 C924 1.523 . S
C924 C908 1.368 . S
C924 C920 1.368 . S
C924 C923 1.523 . S
H925 C900 0.950 . S
H926 C902 0.950 . S
H927 C903 0.949 . S
H928 C905 0.950 . S
H929 C907 0.950 . S
C930 C931 1.349 . S
C930 C932 1.327 . S
C930 H955 0.950 . S
C931 C930 1.349 . S
C931 C947 1.349 . S
C932 C930 1.327 . S
C932 C951 1.429 . S
C932 H956 0.950 . S
C933 C950 1.574 . S
C933 C952 1.368 . S
C933 H957 0.949 . S
H934 C938 0.949 . S
C935 C936 1.349 . S
C935 C937 1.327 . S
C935 H958 0.950 . S
C936 C935 1.349 . S
C936 C948 1.349 . S
C937 C935 1.327 . S
C937 C953 1.429 . S
C937 H959 0.950 . S
C938 H934 0.949 . S
C938 C946 1.574 . S
C938 C954 1.368 . S
H939 C947 0.950 . S
H940 C945 0.950 . S
H941 C946 0.949 . S
H942 C948 0.950 . S
H943 C949 0.950 . S
H944 C950 0.949 . S
C945 H940 0.950 . S
C945 C947 1.327 . S
C945 C951 1.429 . S
C946 C938 1.574 . S
C946 H941 0.949 . S
C946 C952 1.368 . S
C947 C931 1.349 . S
C947 H939 0.950 . S
C947 C945 1.327 . S
C948 C936 1.349 . S
C948 H942 0.950 . S
C948 C949 1.327 . S
C949 H943 0.950 . S
C949 C948 1.327 . S
C949 C953 1.429 . S
C950 C933 1.574 . S
C950 H944 0.949 . S
C950 C954 1.368 . S
C951 C932 1.429 . S
C951 C945 1.429 . S
C951 C952 1.523 . S
C952 C933 1.368 . S
C952 C946 1.368 . S
C952 C951 1.523 . S
C953 C937 1.429 . S
C953 C949 1.429 . S
C953 C954 1.523 1_556 S
C954 C938 1.368 . S
C954 C950 1.368 . S
C954 C953 1.523 1_554 S
H955 C930 0.950 . S
H956 C932 0.950 . S
H957 C933 0.949 . S
H958 C935 0.950 . S
H959 C937 0.950 . S
C960 C961 1.349 . S
C960 C962 1.327 . S
C960 H985 0.950 . S
C961 C960 1.349 . S
C961 C977 1.349 . S
C962 C960 1.327 . S
C962 C981 1.429 . S
C962 H986 0.950 . S
C963 C980 1.574 . S
C963 C982 1.368 . S
C963 H987 0.949 . S
H964 C968 0.949 . S
C965 C966 1.349 . S
C965 C967 1.327 . S
C965 H988 0.950 . S
C966 C965 1.349 . S
C966 C978 1.349 . S
C967 C965 1.327 . S
C967 C983 1.429 . S
C967 H989 0.950 . S
C968 H964 0.949 . S
C968 C976 1.574 . S
C968 C984 1.368 . S
H969 C977 0.950 . S
H970 C975 0.950 . S
H971 C976 0.949 . S
H972 C978 0.950 . S
H973 C979 0.950 . S
H974 C980 0.949 . S
C975 H970 0.950 . S
C975 C977 1.327 . S
C975 C981 1.429 . S
C976 C968 1.574 . S
C976 H971 0.949 . S
C976 C982 1.368 . S
C977 C961 1.349 . S
C977 H969 0.950 . S
C977 C975 1.327 . S
C978 C966 1.349 . S
C978 H972 0.950 . S
C978 C979 1.327 . S
C979 H973 0.950 . S
C979 C978 1.327 . S
C979 C983 1.429 . S
C980 C963 1.574 . S
C980 H974 0.949 . S
C980 C984 1.368 . S
C981 C962 1.429 . S
C981 C975 1.429 . S
C981 C982 1.523 . S
C982 C963 1.368 . S
C982 C976 1.368 . S
C982 C981 1.523 . S
C983 C967 1.429 . S
C983 C979 1.429 . S
C983 C984 1.523 . S
C984 C968 1.368 . S
C984 C980 1.368 . S
C984 C983 1.523 . S
H985 C960 0.950 . S
H986 C962 0.950 . S
H987 C963 0.949 . S
H988 C965 0.950 . S
H989 C967 0.950 . S
C990 C991 1.349 . S
C990 C992 1.327 . S
C990 H1015 0.950 . S
C991 C990 1.349 . S
C991 C1007 1.349 . S
C992 C990 1.327 . S
C992 C1011 1.429 . S
C992 H1016 0.950 . S
C993 C1010 1.574 1_554 S
C993 C1012 1.368 . S
C993 H1017 0.949 . S
H994 C998 0.949 . S
C995 C996 1.349 . S
C995 C997 1.327 . S
C995 H1018 0.950 . S
C996 C995 1.349 . S
C996 C1008 1.349 . S
C997 C995 1.327 . S
C997 C1013 1.429 . S
C997 H1019 0.950 . S
C998 H994 0.949 . S
C998 C1006 1.574 1_556 S
C998 C1014 1.368 . S
H999 C1007 0.950 . S
H1000 C1005 0.950 . S
H1001 C1006 0.949 . S
H1002 C1008 0.950 . S
H1003 C1009 0.950 . S
H1004 C1010 0.949 . S
C1005 H1000 0.950 . S
C1005 C1007 1.327 . S
C1005 C1011 1.429 . S
C1006 C998 1.574 1_554 S
C1006 H1001 0.949 . S
C1006 C1012 1.368 . S
C1007 C991 1.349 . S
C1007 H999 0.950 . S
C1007 C1005 1.327 . S
C1008 C996 1.349 . S
C1008 H1002 0.950 . S
C1008 C1009 1.327 . S
C1009 H1003 0.950 . S
C1009 C1008 1.327 . S
C1009 C1013 1.429 . S
C1010 C993 1.574 1_556 S
C1010 H1004 0.949 . S
C1010 C1014 1.368 . S
C1011 C992 1.429 . S
C1011 C1005 1.429 . S
C1011 C1012 1.523 . S
C1012 C993 1.368 . S
C1012 C1006 1.368 . S
C1012 C1011 1.523 . S
C1013 C997 1.429 . S
C1013 C1009 1.429 . S
C1013 C1014 1.523 . S
C1014 C998 1.368 . S
C1014 C1010 1.368 . S
C1014 C1013 1.523 . S
H1015 C990 0.950 . S
H1016 C992 0.950 . S
H1017 C993 0.949 . S
H1018 C995 0.950 . S
H1019 C997 0.950 . S
C1020 C1021 1.349 . S
C1020 C1022 1.327 . S
C1020 H1045 0.950 . S
C1021 C1020 1.349 . S
C1021 C1037 1.349 . S
C1022 C1020 1.327 . S
C1022 C1041 1.429 . S
C1022 H1046 0.950 . S
C1023 C1040 1.574 . S
C1023 C1042 1.368 . S
C1023 H1047 0.949 . S
H1024 C1028 0.949 . S
C1025 C1026 1.349 . S
C1025 C1027 1.327 . S
C1025 H1048 0.950 . S
C1026 C1025 1.349 . S
C1026 C1038 1.349 . S
C1027 C1025 1.327 . S
C1027 C1043 1.429 . S
C1027 H1049 0.950 . S
C1028 H1024 0.949 . S
C1028 C1036 1.574 . S
C1028 C1044 1.368 . S
H1029 C1037 0.950 . S
H1030 C1035 0.950 . S
H1031 C1036 0.949 . S
H1032 C1038 0.950 . S
H1033 C1039 0.950 . S
H1034 C1040 0.949 . S
C1035 H1030 0.950 . S
C1035 C1037 1.327 . S
C1035 C1041 1.429 . S
C1036 C1028 1.574 . S
C1036 H1031 0.949 . S
C1036 C1042 1.368 . S
C1037 C1021 1.349 . S
C1037 H1029 0.950 . S
C1037 C1035 1.327 . S
C1038 C1026 1.349 . S
C1038 H1032 0.950 . S
C1038 C1039 1.327 . S
C1039 H1033 0.950 . S
C1039 C1038 1.327 . S
C1039 C1043 1.429 . S
C1040 C1023 1.574 . S
C1040 H1034 0.949 . S
C1040 C1044 1.368 . S
C1041 C1022 1.429 . S
C1041 C1035 1.429 . S
C1041 C1042 1.523 . S
C1042 C1023 1.368 . S
C1042 C1036 1.368 . S
C1042 C1041 1.523 . S
C1043 C1027 1.429 . S
C1043 C1039 1.429 . S
C1043 C1044 1.523 . S
C1044 C1028 1.368 . S
C1044 C1040 1.368 . S
C1044 C1043 1.523 . S
H1045 C1020 0.950 . S
H1046 C1022 0.950 . S
H1047 C1023 0.949 . S
H1048 C1025 0.950 . S
H1049 C1027 0.950 . S
C1050 C1051 1.349 . S
C1050 C1052 1.327 . S
C1050 H1075 0.950 . S
C1051 C1050 1.349 . S
C1051 C1067 1.349 . S
C1052 C1050 1.327 . S
C1052 C1071 1.429 . S
C1052 H1076 0.950 . S
C1053 C1070 1.574 . S
C1053 C1072 1.368 . S
C1053 H1077 0.949 . S
H1054 C1058 0.949 . S
C1055 C1056 1.349 . S
C1055 C1057 1.327 . S
C1055 H1078 0.950 . S
C1056 C1055 1.349 . S
C1056 C1068 1.349 . S
C1057 C1055 1.327 . S
C1057 C1073 1.429 . S
C1057 H1079 0.950 . S
C1058 H1054 0.949 . S
C1058 C1066 1.574 . S
C1058 C1074 1.368 . S
H1059 C1067 0.950 . S
H1060 C1065 0.950 . S
H1061 C1066 0.949 . S
H1062 C1068 0.950 . S
H1063 C1069 0.950 . S
H1064 C1070 0.949 . S
C1065 H1060 0.950 . S
C1065 C1067 1.327 . S
C1065 C1071 1.429 . S
C1066 C1058 1.574 . S
C1066 H1061 0.949 . S
C1066 C1072 1.368 . S
C1067 C1051 1.349 . S
C1067 H1059 0.950 . S
C1067 C1065 1.327 . S
C1068 C1056 1.349 . S
C1068 H1062 0.950 . S
C1068 C1069 1.327 . S
C1069 H1063 0.950 . S
C1069 C1068 1.327 . S
C1069 C1073 1.429 . S
C1070 C1053 1.574 . S
C1070 H1064 0.949 . S
C1070 C1074 1.368 . S
C1071 C1052 1.429 . S
C1071 C1065 1.429 . S
C1071 C1072 1.523 . S
C1072 C1053 1.368 . S
C1072 C1066 1.368 . S
C1072 C1071 1.523 . S
C1073 C1057 1.429 . S
C1073 C1069 1.429 . S
C1073 C1074 1.523 . S
C1074 C1058 1.368 . S
C1074 C1070 1.368 . S
C1074 C1073 1.523 . S
H1075 C1050 0.950 . S
H1076 C1052 0.950 . S
H1077 C1053 0.949 . S
H1078 C1055 0.950 . S
H1079 C1057 0.950 . S
C1080 C1081 1.349 . S
C1080 C1082 1.327 . S
C1080 H1105 0.950 . S
C1081 C1080 1.349 . S
C1081 C1097 1.349 . S
C1082 C1080 1.327 . S
C1082 C1101 1.429 . S
C1082 H1106 0.950 . S
C1083 C1100 1.574 . S
C1083 C1102 1.368 . S
C1083 H1107 0.949 . S
H1084 C1088 0.949 . S
C1085 C1086 1.349 . S
C1085 C1087 1.327 . S
C1085 H1108 0.950 . S
C1086 C1085 1.349 . S
C1086 C1098 1.349 . S
C1087 C1085 1.327 . S
C1087 C1103 1.429 . S
C1087 H1109 0.950 . S
C1088 H1084 0.949 . S
C1088 C1096 1.574 . S
C1088 C1104 1.368 . S
H1089 C1097 0.950 . S
H1090 C1095 0.950 . S
H1091 C1096 0.949 . S
H1092 C1098 0.950 . S
H1093 C1099 0.950 . S
H1094 C1100 0.949 . S
C1095 H1090 0.950 . S
C1095 C1097 1.327 . S
C1095 C1101 1.429 . S
C1096 C1088 1.574 . S
C1096 H1091 0.949 . S
C1096 C1102 1.368 . S
C1097 C1081 1.349 . S
C1097 H1089 0.950 . S
C1097 C1095 1.327 . S
C1098 C1086 1.349 . S
C1098 H1092 0.950 . S
C1098 C1099 1.327 . S
C1099 H1093 0.950 . S
C1099 C1098 1.327 . S
C1099 C1103 1.429 . S
C1100 C1083 1.574 . S
C1100 H1094 0.949 . S
C1100 C1104 1.368 . S
C1101 C1082 1.429 . S
C1101 C1095 1.429 . S
C1101 C1102 1.523 . S
C1102 C1083 1.368 . S
C1102 C1096 1.368 . S
C1102 C1101 1.523 . S
C1103 C1087 1.429 . S
C1103 C1099 1.429 . S
C1103 C1104 1.523 . S
C1104 C1088 1.368 . S
C1104 C1100 1.368 . S
C1104 C1103 1.523 . S
H1105 C1080 0.950 . S
H1106 C1082 0.950 . S
H1107 C1083 0.949 . S
H1108 C1085 0.950 . S
H1109 C1087 0.950 . S
C1110 C1111 1.349 . S
C1110 C1112 1.327 . S
C1110 H1135 0.950 . S
C1111 C1110 1.349 . S
C1111 C1127 1.349 . S
C1112 C1110 1.327 . S
C1112 C1131 1.429 . S
C1112 H1136 0.950 . S
C1113 C1130 1.574 1_545 S
C1113 C1132 1.368 . S
C1113 H1137 0.949 . S
H1114 C1118 0.949 . S
C1115 C1116 1.349 . S
C1115 C1117 1.327 . S
C1115 H1138 0.950 . S
C1116 C1115 1.349 . S
C1116 C1128 1.349 . S
C1117 C1115 1.327 . S
C1117 C1133 1.429 . S
C1117 H1139 0.950 . S
C1118 H1114 0.949 . S
C1118 C1126 1.574 . S
C1118 C1134 1.368 1_545 S
H1119 C1127 0.950 . S
H1120 C1125 0.950 . S
H1121 C1126 0.949 . S
H1122 C1128 0.950 . S
H1123 C1129 0.950 . S
H1124 C1130 0.949 . S
C1125 H1120 0.950 . S
C1125 C1127 1.327 . S
C1125 C1131 1.429 . S
C1126 C1118 1.574 . S
C1126 H1121 0.949 . S
C1126 C1132 1.368 . S
C1127 C1111 1.349 . S
C1127 H1119 0.950 . S
C1127 C1125 1.327 . S
C1128 C1116 1.349 . S
C1128 H1122 0.950 . S
C1128 C1129 1.327 . S
C1129 H1123 0.950 . S
C1129 C1128 1.327 . S
C1129 C1133 1.429 . S
C1130 C1113 1.574 1_565 S
C1130 H1124 0.949 . S
C1130 C1134 1.368 . S
C1131 C1112 1.429 . S
C1131 C1125 1.429 . S
C1131 C1132 1.523 . S
C1132 C1113 1.368 . S
C1132 C1126 1.368 . S
C1132 C1131 1.523 . S
C1133 C1117 1.429 . S
C1133 C1129 1.429 . S
C1133 C1134 1.523 . S
C1134 C1118 1.368 1_565 S
C1134 C1130 1.368 . S
C1134 C1133 1.523 . S
H1135 C1110 0.950 . S
H1136 C1112 0.950 . S
H1137 C1113 0.949 . S
H1138 C1115 0.950 . S
H1139 C1117 0.950 . S
C1140 C1141 1.349 . S
C1140 C1142 1.327 . S
C1140 H1165 0.950 . S
C1141 C1140 1.349 . S
C1141 C1157 1.349 . S
C1142 C1140 1.327 . S
C1142 C1161 1.429 . S
C1142 H1166 0.950 . S
C1143 C1160 1.574 . S
C1143 C1162 1.368 . S
C1143 H1167 0.949 . S
H1144 C1148 0.949 . S
C1145 C1146 1.349 . S
C1145 C1147 1.327 . S
C1145 H1168 0.950 . S
C1146 C1145 1.349 . S
C1146 C1158 1.349 . S
C1147 C1145 1.327 . S
C1147 C1163 1.429 . S
C1147 H1169 0.950 . S
C1148 H1144 0.949 . S
C1148 C1156 1.574 . S
C1148 C1164 1.368 . S
H1149 C1157 0.950 . S
H1150 C1155 0.950 . S
H1151 C1156 0.949 . S
H1152 C1158 0.950 . S
H1153 C1159 0.950 . S
H1154 C1160 0.949 . S
C1155 H1150 0.950 . S
C1155 C1157 1.327 . S
C1155 C1161 1.429 . S
C1156 C1148 1.574 . S
C1156 H1151 0.949 . S
C1156 C1162 1.368 . S
C1157 C1141 1.349 . S
C1157 H1149 0.950 . S
C1157 C1155 1.327 . S
C1158 C1146 1.349 . S
C1158 H1152 0.950 . S
C1158 C1159 1.327 . S
C1159 H1153 0.950 . S
C1159 C1158 1.327 . S
C1159 C1163 1.429 . S
C1160 C1143 1.574 . S
C1160 H1154 0.949 . S
C1160 C1164 1.368 . S
C1161 C1142 1.429 . S
C1161 C1155 1.429 . S
C1161 C1162 1.523 . S
C1162 C1143 1.368 . S
C1162 C1156 1.368 . S
C1162 C1161 1.523 . S
C1163 C1147 1.429 . S
C1163 C1159 1.429 . S
C1163 C1164 1.523 . S
C1164 C1148 1.368 . S
C1164 C1160 1.368 . S
C1164 C1163 1.523 . S
H1165 C1140 0.950 . S
H1166 C1142 0.950 . S
H1167 C1143 0.949 . S
H1168 C1145 0.950 . S
H1169 C1147 0.950 . S
C1170 C1171 1.349 . S
C1170 C1172 1.327 . S
C1170 H1195 0.950 . S
C1171 C1170 1.349 . S
C1171 C1187 1.349 . S
C1172 C1170 1.327 . S
C1172 C1191 1.429 . S
C1172 H1196 0.950 . S
C1173 C1190 1.572 1_545 S
C1173 C1192 1.368 . S
C1173 H1197 0.949 . S
H1174 C1178 0.949 . S
C1175 C1176 1.349 . S
C1175 C1177 1.327 . S
C1175 H1198 0.950 . S
C1176 C1175 1.349 . S
C1176 C1188 1.349 . S
C1177 C1175 1.327 . S
C1177 C1193 1.429 . S
C1177 H1199 0.950 . S
C1178 H1174 0.949 . S
C1178 C1186 1.557 1_565 S
C1178 C1194 1.368 . S
H1179 C1187 0.950 . S
H1180 C1185 0.950 . S
H1181 C1186 0.950 . S
H1182 C1188 0.950 . S
H1183 C1189 0.950 . S
H1184 C1190 0.949 . S
C1185 H1180 0.950 . S
C1185 C1187 1.327 . S
C1185 C1191 1.429 . S
C1186 C1178 1.557 1_545 S
C1186 H1181 0.950 . S
C1186 C1192 1.384 . S
C1187 C1171 1.349 . S
C1187 H1179 0.950 . S
C1187 C1185 1.327 . S
C1188 C1176 1.349 . S
C1188 H1182 0.950 . S
C1188 C1189 1.327 . S
C1189 H1183 0.950 . S
C1189 C1188 1.327 . S
C1189 C1193 1.429 . S
C1190 C1173 1.572 1_565 S
C1190 H1184 0.949 . S
C1190 C1194 1.370 . S
C1191 C1172 1.429 . S
C1191 C1185 1.429 . S
C1191 C1192 1.523 . S
C1192 C1173 1.368 . S
C1192 C1186 1.384 . S
C1192 C1191 1.523 . S
C1193 C1177 1.429 . S
C1193 C1189 1.429 . S
C1193 C1194 1.523 . S
C1194 C1178 1.368 . S
C1194 C1190 1.370 . S
C1194 C1193 1.523 . S
H1195 C1170 0.950 . S
H1196 C1172 0.950 . S
H1197 C1173 0.949 . S
H1198 C1175 0.950 . S
H1199 C1177 0.950 . S
C1200 C1201 1.349 . S
C1200 C1202 1.327 . S
C1200 H1225 0.950 . S
C1201 C1200 1.349 . S
C1201 C1217 1.349 . S
C1202 C1200 1.327 . S
C1202 C1221 1.429 . S
C1202 H1226 0.950 . S
C1203 C1220 1.574 . S
C1203 C1222 1.368 . S
C1203 H1227 0.949 . S
H1204 C1208 0.949 . S
C1205 C1206 1.349 . S
C1205 C1207 1.327 . S
C1205 H1228 0.950 . S
C1206 C1205 1.349 . S
C1206 C1218 1.349 . S
C1207 C1205 1.327 . S
C1207 C1223 1.429 . S
C1207 H1229 0.950 . S
C1208 H1204 0.949 . S
C1208 C1216 1.574 . S
C1208 C1224 1.368 . S
H1209 C1217 0.950 . S
H1210 C1215 0.950 . S
H1211 C1216 0.949 . S
H1212 C1218 0.950 . S
H1213 C1219 0.950 . S
H1214 C1220 0.949 . S
C1215 H1210 0.950 . S
C1215 C1217 1.327 . S
C1215 C1221 1.429 . S
C1216 C1208 1.574 . S
C1216 H1211 0.949 . S
C1216 C1222 1.368 . S
C1217 C1201 1.349 . S
C1217 H1209 0.950 . S
C1217 C1215 1.327 . S
C1218 C1206 1.349 . S
C1218 H1212 0.950 . S
C1218 C1219 1.327 . S
C1219 H1213 0.950 . S
C1219 C1218 1.327 . S
C1219 C1223 1.429 . S
C1220 C1203 1.574 . S
C1220 H1214 0.949 . S
C1220 C1224 1.368 . S
C1221 C1202 1.429 . S
C1221 C1215 1.429 . S
C1221 C1222 1.523 . S
C1222 C1203 1.368 . S
C1222 C1216 1.368 . S
C1222 C1221 1.523 . S
C1223 C1207 1.429 . S
C1223 C1219 1.429 . S
C1223 C1224 1.523 . S
C1224 C1208 1.368 . S
C1224 C1220 1.368 . S
C1224 C1223 1.523 . S
H1225 C1200 0.950 . S
H1226 C1202 0.950 . S
H1227 C1203 0.949 . S
H1228 C1205 0.950 . S
H1229 C1207 0.950 . S
C1230 C1231 1.349 . S
C1230 C1232 1.327 . S
C1230 H1255 0.950 . S
C1231 C1230 1.349 . S
C1231 C1247 1.349 . S
C1232 C1230 1.327 . S
C1232 C1251 1.429 . S
C1232 H1256 0.950 . S
C1233 C1250 1.574 . S
C1233 C1252 1.368 . S
C1233 H1257 0.949 . S
H1234 C1238 0.949 . S
C1235 C1236 1.349 . S
C1235 C1237 1.327 . S
C1235 H1258 0.950 . S
C1236 C1235 1.349 . S
C1236 C1248 1.349 . S
C1237 C1235 1.327 . S
C1237 C1253 1.429 . S
C1237 H1259 0.950 . S
C1238 H1234 0.949 . S
C1238 C1246 1.574 . S
C1238 C1254 1.368 . S
H1239 C1247 0.950 . S
H1240 C1245 0.950 . S
H1241 C1246 0.949 . S
H1242 C1248 0.950 . S
H1243 C1249 0.950 . S
H1244 C1250 0.949 . S
C1245 H1240 0.950 . S
C1245 C1247 1.327 . S
C1245 C1251 1.429 . S
C1246 C1238 1.574 . S
C1246 H1241 0.949 . S
C1246 C1252 1.368 . S
C1247 C1231 1.349 . S
C1247 H1239 0.950 . S
C1247 C1245 1.327 . S
C1248 C1236 1.349 . S
C1248 H1242 0.950 . S
C1248 C1249 1.327 . S
C1249 H1243 0.950 . S
C1249 C1248 1.327 . S
C1249 C1253 1.429 . S
C1250 C1233 1.574 . S
C1250 H1244 0.949 . S
C1250 C1254 1.368 . S
C1251 C1232 1.429 . S
C1251 C1245 1.429 . S
C1251 C1252 1.523 . S
C1252 C1233 1.368 . S
C1252 C1246 1.368 . S
C1252 C1251 1.523 . S
C1253 C1237 1.429 . S
C1253 C1249 1.429 . S
C1253 C1254 1.523 . S
C1254 C1238 1.368 . S
C1254 C1250 1.368 . S
C1254 C1253 1.523 . S
H1255 C1230 0.950 . S
H1256 C1232 0.950 . S
H1257 C1233 0.949 . S
H1258 C1235 0.950 . S
H1259 C1237 0.950 . S
C1260 C1261 1.349 . S
C1260 C1262 1.327 . S
C1260 H1285 0.950 . S
C1261 C1260 1.349 . S
C1261 C1277 1.349 . S
C1262 C1260 1.327 . S
C1262 C1281 1.429 . S
C1262 H1286 0.950 . S
C1263 C1280 1.574 . S
C1263 C1282 1.368 . S
C1263 H1287 0.949 . S
H1264 C1268 0.949 . S
C1265 C1266 1.349 . S
C1265 C1267 1.327 . S
C1265 H1288 0.950 . S
C1266 C1265 1.349 . S
C1266 C1278 1.349 . S
C1267 C1265 1.327 . S
C1267 C1283 1.429 . S
C1267 H1289 0.950 . S
C1268 H1264 0.949 . S
C1268 C1276 1.574 . S
C1268 C1284 1.368 . S
H1269 C1277 0.950 . S
H1270 C1275 0.950 . S
H1271 C1276 0.949 . S
H1272 C1278 0.950 . S
H1273 C1279 0.950 . S
H1274 C1280 0.949 . S
C1275 H1270 0.950 . S
C1275 C1277 1.327 . S
C1275 C1281 1.429 . S
C1276 C1268 1.574 . S
C1276 H1271 0.949 . S
C1276 C1282 1.368 . S
C1277 C1261 1.349 . S
C1277 H1269 0.950 . S
C1277 C1275 1.327 . S
C1278 C1266 1.349 . S
C1278 H1272 0.950 . S
C1278 C1279 1.327 . S
C1279 H1273 0.950 . S
C1279 C1278 1.327 . S
C1279 C1283 1.429 . S
C1280 C1263 1.574 . S
C1280 H1274 0.949 . S
C1280 C1284 1.368 . S
C1281 C1262 1.429 . S
C1281 C1275 1.429 . S
C1281 C1282 1.523 . S
C1282 C1263 1.368 . S
C1282 C1276 1.368 . S
C1282 C1281 1.523 . S
C1283 C1267 1.429 . S
C1283 C1279 1.429 . S
C1283 C1284 1.523 . S
C1284 C1268 1.368 . S
C1284 C1280 1.368 . S
C1284 C1283 1.523 . S
H1285 C1260 0.950 . S
H1286 C1262 0.950 . S
H1287 C1263 0.949 . S
H1288 C1265 0.950 . S
H1289 C1267 0.950 . S
C1290 C1291 1.349 . S
C1290 C1292 1.327 . S
C1290 H1315 0.950 . S
C1291 C1290 1.349 . S
C1291 C1307 1.349 . S
C1292 C1290 1.327 . S
C1292 C1311 1.429 . S
C1292 H1316 0.950 . S
C1293 C1310 1.574 . S
C1293 C1312 1.368 . S
C1293 H1317 0.949 . S
H1294 C1298 0.949 . S
C1295 C1296 1.349 . S
C1295 C1297 1.327 . S
C1295 H1318 0.950 . S
C1296 C1295 1.349 . S
C1296 C1308 1.349 . S
C1297 C1295 1.327 . S
C1297 C1313 1.429 . S
C1297 H1319 0.950 . S
C1298 H1294 0.949 . S
C1298 C1306 1.574 . S
C1298 C1314 1.368 . S
H1299 C1307 0.950 . S
H1300 C1305 0.950 . S
H1301 C1306 0.949 . S
H1302 C1308 0.950 . S
H1303 C1309 0.950 . S
H1304 C1310 0.949 . S
C1305 H1300 0.950 . S
C1305 C1307 1.327 . S
C1305 C1311 1.429 . S
C1306 C1298 1.574 . S
C1306 H1301 0.949 . S
C1306 C1312 1.368 . S
C1307 C1291 1.349 . S
C1307 H1299 0.950 . S
C1307 C1305 1.327 . S
C1308 C1296 1.349 . S
C1308 H1302 0.950 . S
C1308 C1309 1.327 . S
C1309 H1303 0.950 . S
C1309 C1308 1.327 . S
C1309 C1313 1.429 . S
C1310 C1293 1.574 . S
C1310 H1304 0.949 . S
C1310 C1314 1.368 . S
C1311 C1292 1.429 . S
C1311 C1305 1.429 . S
C1311 C1312 1.523 . S
C1312 C1293 1.368 . S
C1312 C1306 1.368 . S
C1312 C1311 1.523 . S
C1313 C1297 1.429 . S
C1313 C1309 1.429 . S
C1313 C1314 1.523 . S
C1314 C1298 1.368 . S
C1314 C1310 1.368 . S
C1314 C1313 1.523 . S
H1315 C1290 0.950 . S
H1316 C1292 0.950 . S
H1317 C1293 0.949 . S
H1318 C1295 0.950 . S
H1319 C1297 0.950 . S
C1320 C1321 1.349 . S
C1320 C1322 1.327 . S
C1320 H1345 0.950 . S
C1321 C1320 1.349 . S
C1321 C1337 1.349 . S
C1322 C1320 1.327 . S
C1322 C1341 1.429 . S
C1322 H1346 0.950 . S
C1323 C1340 1.574 . S
C1323 C1342 1.368 . S
C1323 H1347 0.949 . S
H1324 C1328 0.949 . S
C1325 C1326 1.349 . S
C1325 C1327 1.327 . S
C1325 H1348 0.950 . S
C1326 C1325 1.349 . S
C1326 C1338 1.349 . S
C1327 C1325 1.327 . S
C1327 C1343 1.429 . S
C1327 H1349 0.950 . S
C1328 H1324 0.949 . S
C1328 C1336 1.574 . S
C1328 C1344 1.368 . S
H1329 C1337 0.950 . S
H1330 C1335 0.950 . S
H1331 C1336 0.949 . S
H1332 C1338 0.950 . S
H1333 C1339 0.950 . S
H1334 C1340 0.949 . S
C1335 H1330 0.950 . S
C1335 C1337 1.327 . S
C1335 C1341 1.429 . S
C1336 C1328 1.574 . S
C1336 H1331 0.949 . S
C1336 C1342 1.368 . S
C1337 C1321 1.349 . S
C1337 H1329 0.950 . S
C1337 C1335 1.327 . S
C1338 C1326 1.349 . S
C1338 H1332 0.950 . S
C1338 C1339 1.327 . S
C1339 H1333 0.950 . S
C1339 C1338 1.327 . S
C1339 C1343 1.429 . S
C1340 C1323 1.574 . S
C1340 H1334 0.949 . S
C1340 C1344 1.368 . S
C1341 C1322 1.429 . S
C1341 C1335 1.429 . S
C1341 C1342 1.523 . S
C1342 C1323 1.368 . S
C1342 C1336 1.368 . S
C1342 C1341 1.523 . S
C1343 C1327 1.429 . S
C1343 C1339 1.429 . S
C1343 C1344 1.523 . S
C1344 C1328 1.368 . S
C1344 C1340 1.368 . S
C1344 C1343 1.523 . S
H1345 C1320 0.950 . S
H1346 C1322 0.950 . S
H1347 C1323 0.949 . S
H1348 C1325 0.950 . S
H1349 C1327 0.950 . S
C1350 C1351 1.349 . S
C1350 C1352 1.327 . S
C1350 H1375 0.950 . S
C1351 C1350 1.349 . S
C1351 C1367 1.349 . S
C1352 C1350 1.327 . S
C1352 C1371 1.429 . S
C1352 H1376 0.950 . S
C1353 C1370 1.574 . S
C1353 C1372 1.368 . S
C1353 H1377 0.949 . S
H1354 C1358 0.949 . S
C1355 C1356 1.349 . S
C1355 C1357 1.327 . S
C1355 H1378 0.950 . S
C1356 C1355 1.349 . S
C1356 C1368 1.349 . S
C1357 C1355 1.327 . S
C1357 C1373 1.429 . S
C1357 H1379 0.950 . S
C1358 H1354 0.949 . S
C1358 C1366 1.574 . S
C1358 C1374 1.368 . S
H1359 C1367 0.950 . S
H1360 C1365 0.950 . S
H1361 C1366 0.949 . S
H1362 C1368 0.950 . S
H1363 C1369 0.950 . S
H1364 C1370 0.949 . S
C1365 H1360 0.950 . S
C1365 C1367 1.327 . S
C1365 C1371 1.429 . S
C1366 C1358 1.574 . S
C1366 H1361 0.949 . S
C1366 C1372 1.368 . S
C1367 C1351 1.349 . S
C1367 H1359 0.950 . S
C1367 C1365 1.327 . S
C1368 C1356 1.349 . S
C1368 H1362 0.950 . S
C1368 C1369 1.327 . S
C1369 H1363 0.950 . S
C1369 C1368 1.327 . S
C1369 C1373 1.429 . S
C1370 C1353 1.574 . S
C1370 H1364 0.949 . S
C1370 C1374 1.368 . S
C1371 C1352 1.429 . S
C1371 C1365 1.429 . S
C1371 C1372 1.523 . S
C1372 C1353 1.368 . S
C1372 C1366 1.368 . S
C1372 C1371 1.523 . S
C1373 C1357 1.429 . S
C1373 C1369 1.429 . S
C1373 C1374 1.523 . S
C1374 C1358 1.368 . S
C1374 C1370 1.368 . S
C1374 C1373 1.523 . S
H1375 C1350 0.950 . S
H1376 C1352 0.950 . S
H1377 C1353 0.949 . S
H1378 C1355 0.950 . S
H1379 C1357 0.950 . S
C1380 C1381 1.349 . S
C1380 C1382 1.327 . S
C1380 H1405 0.950 . S
C1381 C1380 1.349 . S
C1381 C1397 1.349 . S
C1382 C1380 1.327 . S
C1382 C1401 1.429 . S
C1382 H1406 0.950 . S
C1383 C1400 1.574 . S
C1383 C1402 1.368 . S
C1383 H1407 0.949 . S
H1384 C1388 0.949 . S
C1385 C1386 1.349 . S
C1385 C1387 1.327 . S
C1385 H1408 0.950 . S
C1386 C1385 1.349 . S
C1386 C1398 1.349 . S
C1387 C1385 1.327 . S
C1387 C1403 1.429 . S
C1387 H1409 0.950 . S
C1388 H1384 0.949 . S
C1388 C1396 1.574 . S
C1388 C1404 1.368 . S
H1389 C1397 0.950 . S
H1390 C1395 0.950 . S
H1391 C1396 0.949 . S
H1392 C1398 0.950 . S
H1393 C1399 0.950 . S
H1394 C1400 0.949 . S
C1395 H1390 0.950 . S
C1395 C1397 1.327 . S
C1395 C1401 1.429 . S
C1396 C1388 1.574 . S
C1396 H1391 0.949 . S
C1396 C1402 1.368 . S
C1397 C1381 1.349 . S
C1397 H1389 0.950 . S
C1397 C1395 1.327 . S
C1398 C1386 1.349 . S
C1398 H1392 0.950 . S
C1398 C1399 1.327 . S
C1399 H1393 0.950 . S
C1399 C1398 1.327 . S
C1399 C1403 1.429 . S
C1400 C1383 1.574 . S
C1400 H1394 0.949 . S
C1400 C1404 1.368 . S
C1401 C1382 1.429 . S
C1401 C1395 1.429 . S
C1401 C1402 1.523 . S
C1402 C1383 1.368 . S
C1402 C1396 1.368 . S
C1402 C1401 1.523 . S
C1403 C1387 1.429 . S
C1403 C1399 1.429 . S
C1403 C1404 1.523 1_655 S
C1404 C1388 1.368 . S
C1404 C1400 1.368 . S
C1404 C1403 1.523 1_455 S
H1405 C1380 0.950 . S
H1406 C1382 0.950 . S
H1407 C1383 0.949 . S
H1408 C1385 0.950 . S
H1409 C1387 0.950 . S
C1410 C1411 1.349 . S
C1410 C1412 1.327 . S
C1410 H1435 0.950 . S
C1411 C1410 1.349 . S
C1411 C1427 1.349 . S
C1412 C1410 1.327 . S
C1412 C1431 1.429 . S
C1412 H1436 0.950 . S
C1413 C1430 1.574 . S
C1413 C1432 1.368 . S
C1413 H1437 0.949 . S
H1414 C1418 0.949 . S
C1415 C1416 1.349 . S
C1415 C1417 1.327 . S
C1415 H1438 0.950 . S
C1416 C1415 1.349 . S
C1416 C1428 1.349 . S
C1417 C1415 1.327 . S
C1417 C1433 1.429 . S
C1417 H1439 0.950 . S
C1418 H1414 0.949 . S
C1418 C1426 1.574 . S
C1418 C1434 1.368 . S
H1419 C1427 0.950 . S
H1420 C1425 0.950 . S
H1421 C1426 0.949 . S
H1422 C1428 0.950 . S
H1423 C1429 0.950 . S
H1424 C1430 0.949 . S
C1425 H1420 0.950 . S
C1425 C1427 1.327 . S
C1425 C1431 1.429 . S
C1426 C1418 1.574 . S
C1426 H1421 0.949 . S
C1426 C1432 1.368 . S
C1427 C1411 1.349 . S
C1427 H1419 0.950 . S
C1427 C1425 1.327 . S
C1428 C1416 1.349 . S
C1428 H1422 0.950 . S
C1428 C1429 1.327 . S
C1429 H1423 0.950 . S
C1429 C1428 1.327 . S
C1429 C1433 1.429 . S
C1430 C1413 1.574 . S
C1430 H1424 0.949 . S
C1430 C1434 1.368 . S
C1431 C1412 1.429 . S
C1431 C1425 1.429 . S
C1431 C1432 1.523 . S
C1432 C1413 1.368 . S
C1432 C1426 1.368 . S
C1432 C1431 1.523 . S
C1433 C1417 1.429 . S
C1433 C1429 1.429 . S
C1433 C1434 1.523 . S
C1434 C1418 1.368 . S
C1434 C1430 1.368 . S
C1434 C1433 1.523 . S
H1435 C1410 0.950 . S
H1436 C1412 0.950 . S
H1437 C1413 0.949 . S
H1438 C1415 0.950 . S
H1439 C1417 0.950 . S
C1440 C1441 1.349 . S
C1440 C1442 1.327 . S
C1440 H1465 0.950 . S
C1441 C1440 1.349 . S
C1441 C1457 1.349 . S
C1442 C1440 1.327 . S
C1442 C1461 1.429 . S
C1442 H1466 0.950 . S
C1443 C1460 1.574 . S
C1443 C1462 1.368 . S
C1443 H1467 0.949 . S
H1444 C1448 0.949 . S
C1445 C1446 1.349 . S
C1445 C1447 1.327 . S
C1445 H1468 0.950 . S
C1446 C1445 1.349 . S
C1446 C1458 1.349 . S
C1447 C1445 1.327 . S
C1447 C1463 1.429 . S
C1447 H1469 0.950 . S
C1448 H1444 0.949 . S
C1448 C1456 1.574 . S
C1448 C1464 1.368 . S
H1449 C1457 0.950 . S
H1450 C1455 0.950 . S
H1451 C1456 0.949 . S
H1452 C1458 0.950 . S
H1453 C1459 0.950 . S
H1454 C1460 0.949 . S
C1455 H1450 0.950 . S
C1455 C1457 1.327 . S
C1455 C1461 1.429 . S
C1456 C1448 1.574 . S
C1456 H1451 0.949 . S
C1456 C1462 1.368 . S
C1457 C1441 1.349 . S
C1457 H1449 0.950 . S
C1457 C1455 1.327 . S
C1458 C1446 1.349 . S
C1458 H1452 0.950 . S
C1458 C1459 1.327 . S
C1459 H1453 0.950 . S
C1459 C1458 1.327 . S
C1459 C1463 1.429 . S
C1460 C1443 1.574 . S
C1460 H1454 0.949 . S
C1460 C1464 1.368 . S
C1461 C1442 1.429 . S
C1461 C1455 1.429 . S
C1461 C1462 1.523 . S
C1462 C1443 1.368 . S
C1462 C1456 1.368 . S
C1462 C1461 1.523 . S
C1463 C1447 1.429 . S
C1463 C1459 1.429 . S
C1463 C1464 1.523 . S
C1464 C1448 1.368 . S
C1464 C1460 1.368 . S
C1464 C1463 1.523 . S
H1465 C1440 0.950 . S
H1466 C1442 0.950 . S
H1467 C1443 0.949 . S
H1468 C1445 0.950 . S
H1469 C1447 0.950 . S
C1470 C1471 1.349 . S
C1470 C1472 1.327 . S
C1470 H1495 0.950 . S
C1471 C1470 1.349 . S
C1471 C1487 1.349 . S
C1472 C1470 1.327 . S
C1472 C1491 1.429 . S
C1472 H1496 0.950 . S
C1473 C1490 1.574 . S
C1473 C1492 1.368 . S
C1473 H1497 0.949 . S
H1474 C1478 0.949 . S
C1475 C1476 1.349 . S
C1475 C1477 1.327 . S
C1475 H1498 0.950 . S
C1476 C1475 1.349 . S
C1476 C1488 1.349 . S
C1477 C1475 1.327 . S
C1477 C1493 1.429 . S
C1477 H1499 0.950 . S
C1478 H1474 0.949 . S
C1478 C1486 1.574 . S
C1478 C1494 1.368 . S
H1479 C1487 0.950 . S
H1480 C1485 0.950 . S
H1481 C1486 0.949 . S
H1482 C1488 0.950 . S
H1483 C1489 0.950 . S
H1484 C1490 0.949 . S
C1485 H1480 0.950 . S
C1485 C1487 1.327 . S
C1485 C1491 1.429 . S
C1486 C1478 1.574 . S
C1486 H1481 0.949 . S
C1486 C1492 1.368 . S
C1487 C1471 1.349 . S
C1487 H1479 0.950 . S
C1487 C1485 1.327 . S
C1488 C1476 1.349 . S
C1488 H1482 0.950 . S
C1488 C1489 1.327 . S
C1489 H1483 0.950 . S
C1489 C1488 1.327 . S
C1489 C1493 1.429 . S
C1490 C1473 1.574 . S
C1490 H1484 0.949 . S
C1490 C1494 1.368 . S
C1491 C1472 1.429 . S
C1491 C1485 1.429 . S
C1491 C1492 1.523 . S
C1492 C1473 1.368 . S
C1492 C1486 1.368 . S
C1492 C1491 1.523 . S
C1493 C1477 1.429 . S
C1493 C1489 1.429 . S
C1493 C1494 1.523 . S
C1494 C1478 1.368 . S
C1494 C1490 1.368 . S
C1494 C1493 1.523 . S
H1495 C1470 0.950 . S
H1496 C1472 0.950 . S
H1497 C1473 0.949 . S
H1498 C1475 0.950 . S
H1499 C1477 0.950 . S
C1500 C1501 1.349 . S
C1500 C1502 1.327 . S
C1500 H1525 0.950 1_556 S
C1501 C1500 1.349 . S
C1501 C1517 1.349 . S
C1502 C1500 1.327 . S
C1502 C1521 1.429 . S
C1502 H1526 0.950 1_556 S
C1503 C1520 1.574 . S
C1503 C1522 1.368 . S
C1503 H1527 0.949 . S
H1504 C1508 0.949 . S
C1505 C1506 1.349 . S
C1505 C1507 1.327 . S
C1505 H1528 0.950 . S
C1506 C1505 1.349 . S
C1506 C1518 1.349 . S
C1507 C1505 1.327 . S
C1507 C1523 1.429 . S
C1507 H1529 0.950 . S
C1508 H1504 0.949 . S
C1508 C1516 1.574 . S
C1508 C1524 1.368 . S
H1509 C1517 0.950 . S
H1510 C1515 0.950 . S
H1511 C1516 0.949 . S
H1512 C1518 0.950 . S
H1513 C1519 0.950 . S
H1514 C1520 0.949 . S
C1515 H1510 0.950 . S
C1515 C1517 1.327 . S
C1515 C1521 1.429 . S
C1516 C1508 1.574 . S
C1516 H1511 0.949 . S
C1516 C1522 1.368 . S
C1517 C1501 1.349 . S
C1517 H1509 0.950 . S
C1517 C1515 1.327 . S
C1518 C1506 1.349 . S
C1518 H1512 0.950 . S
C1518 C1519 1.327 . S
C1519 H1513 0.950 . S
C1519 C1518 1.327 . S
C1519 C1523 1.429 . S
C1520 C1503 1.574 . S
C1520 H1514 0.949 . S
C1520 C1524 1.368 . S
C1521 C1502 1.429 . S
C1521 C1515 1.429 . S
C1521 C1522 1.523 . S
C1522 C1503 1.368 . S
C1522 C1516 1.368 . S
C1522 C1521 1.523 . S
C1523 C1507 1.429 . S
C1523 C1519 1.429 . S
C1523 C1524 1.523 . S
C1524 C1508 1.368 . S
C1524 C1520 1.368 . S
C1524 C1523 1.523 . S
H1525 C1500 0.950 1_554 S
H1526 C1502 0.950 1_554 S
H1527 C1503 0.949 . S
H1528 C1505 0.950 . S
H1529 C1507 0.950 . S
C1530 C1531 1.349 . S
C1530 C1532 1.327 . S
C1530 H1555 0.950 . S
C1531 C1530 1.349 . S
C1531 C1547 1.349 . S
C1532 C1530 1.327 . S
C1532 C1551 1.429 . S
C1532 H1556 0.950 . S
C1533 C1550 1.574 1_655 S
C1533 C1552 1.368 . S
C1533 H1557 0.949 . S
H1534 C1538 0.949 . S
C1535 C1536 1.349 . S
C1535 C1537 1.327 . S
C1535 H1558 0.950 . S
C1536 C1535 1.349 . S
C1536 C1548 1.349 . S
C1537 C1535 1.327 . S
C1537 C1553 1.429 . S
C1537 H1559 0.950 . S
C1538 H1534 0.949 . S
C1538 C1546 1.574 . S
C1538 C1554 1.385 . S
H1539 C1547 0.950 . S
H1540 C1545 0.950 . S
H1541 C1546 0.949 . S
H1542 C1548 0.950 . S
H1543 C1549 0.950 . S
H1544 C1550 0.949 . S
C1545 H1540 0.950 . S
C1545 C1547 1.327 . S
C1545 C1551 1.429 . S
C1546 C1538 1.574 . S
C1546 H1541 0.949 . S
C1546 C1552 1.368 . S
C1547 C1531 1.349 . S
C1547 H1539 0.950 . S
C1547 C1545 1.327 . S
C1548 C1536 1.349 . S
C1548 H1542 0.950 . S
C1548 C1549 1.327 . S
C1549 H1543 0.950 . S
C1549 C1548 1.327 . S
C1549 C1553 1.429 . S
C1550 C1533 1.574 1_455 S
C1550 H1544 0.949 . S
C1550 C1554 1.367 1_455 S
C1551 C1532 1.429 . S
C1551 C1545 1.429 . S
C1551 C1552 1.523 . S
C1552 C1533 1.368 . S
C1552 C1546 1.368 . S
C1552 C1551 1.523 . S
C1553 C1537 1.429 . S
C1553 C1549 1.429 . S
C1553 C1554 1.504 1_455 S
C1554 C1538 1.385 . S
C1554 C1550 1.367 1_655 S
C1554 C1553 1.504 1_655 S
H1555 C1530 0.950 . S
H1556 C1532 0.950 . S
H1557 C1533 0.949 . S
H1558 C1535 0.950 . S
H1559 C1537 0.950 . S
C481 C9 1.543 . S
C486 C448 1.610 . S
C511 C368 1.588 1_565 S
C516 C48 1.590 . S
C541 C89 1.320 . S
C546 C329 1.327 . S
C571 C128 1.558 . S
C576 C408 1.557 . S
C601 C168 1.965 . S
C606 C409 1.888 . S
C631 C209 1.241 . S
C636 C449 1.239 . S
C661 C369 1.675 . S
C666 C248 1.748 1_556 S
C691 C288 1.229 . S
C696 C328 1.233 . S
C721 C129 1.838 . S
C726 C169 1.823 . S
C751 C8 1.662 . S
C756 C208 1.667 . S
C781 C49 1.377 . S
C786 C249 1.385 . S
C811 C289 1.629 . S
C816 C88 1.682 . S
C841 C5 2.532 . S
C846 C339 2.585 . S
C871 C55 0.989 . S
C876 C418 0.953 . S
C901 C458 1.416 . S
C906 C85 1.495 . S
C931 C135 1.325 . S
C936 C378 1.259 . S
C961 C175 1.441 . S
C966 C379 1.432 . S
C991 C338 1.517 . S
C996 C205 1.596 . S
C1021 C419 1.921 . S
C1026 C255 1.932 . S
C1051 C459 1.753 . S
C1056 C295 1.764 . S
C1081 C18 1.387 . S
C1086 C125 1.457 . S
C1111 C15 2.220 . S
C1116 C59 2.202 . S
C1141 C45 1.862 . S
C1146 C98 1.776 . S
C1171 C139 1.897 . S
C1176 C95 1.906 . S
C1201 C215 0.932 . S
C1206 C179 0.925 . S
C1231 C218 1.478 . S
C1236 C245 1.560 . S
C1261 C259 1.130 . S
C1266 C285 1.123 . S
C1291 C165 1.598 . S
C1296 C299 1.626 . S
C1321 C335 1.114 . S
C1326 C138 1.057 . S
C1351 C219 1.626 . S
C1356 C375 1.638 . S
C1381 C325 1.776 . S
C1386 C258 1.688 . S
C1411 C415 1.541 . S
C1416 C298 1.447 . S
C1441 C178 0.638 . S
C1446 C455 0.604 . S
C1471 C445 1.378 . S
C1476 C58 1.318 . S
C1501 C99 1.204 . S
C1506 C365 1.196 . S
C1531 C405 1.737 . S
C1536 C19 1.759 . S
