# Generated by pormake.
# Topology qtz-e, (6)-cn, num edge types: 1
# Building blocks:
#     Node 0, Type 0, BuildingBlock: BETGAK_clean_sbu_0, # of connection points: 6
#     Node 1, Type 0, BuildingBlock: BETGAK_clean_sbu_0, # of connection points: 6
#     Node 2, Type 0, BuildingBlock: BETGAK_clean_sbu_0, # of connection points: 6
#     Node 3, Type 0, BuildingBlock: BETGAK_clean_sbu_0, # of connection points: 6
#     Node 4, Type 0, BuildingBlock: BETGAK_clean_sbu_0, # of connection points: 6
#     Node 5, Type 0, BuildingBlock: BETGAK_clean_sbu_0, # of connection points: 6
#     Edge 6, Type (0, 0), BuildingBlock: MIFKUJ_clean_linker_0, # of connection points: 2
#     Edge 7, Type (0, 0), BuildingBlock: MIFKUJ_clean_linker_0, # of connection points: 2
#     Edge 8, Type (0, 0), BuildingBlock: MIFKUJ_clean_linker_0, # of connection points: 2
#     Edge 9, Type (0, 0), BuildingBlock: MIFKUJ_clean_linker_0, # of connection points: 2
#     Edge 10, Type (0, 0), BuildingBlock: MIFKUJ_clean_linker_0, # of connection points: 2
#     Edge 11, Type (0, 0), BuildingBlock: MIFKUJ_clean_linker_0, # of connection points: 2
#     Edge 12, Type (0, 0), BuildingBlock: MIFKUJ_clean_linker_0, # of connection points: 2
#     Edge 13, Type (0, 0), BuildingBlock: MIFKUJ_clean_linker_0, # of connection points: 2
#     Edge 14, Type (0, 0), BuildingBlock: MIFKUJ_clean_linker_0, # of connection points: 2
#     Edge 15, Type (0, 0), BuildingBlock: MIFKUJ_clean_linker_0, # of connection points: 2
#     Edge 16, Type (0, 0), BuildingBlock: MIFKUJ_clean_linker_0, # of connection points: 2
#     Edge 17, Type (0, 0), BuildingBlock: MIFKUJ_clean_linker_0, # of connection points: 2
#     Edge 18, Type (0, 0), BuildingBlock: MIFKUJ_clean_linker_0, # of connection points: 2
#     Edge 19, Type (0, 0), BuildingBlock: MIFKUJ_clean_linker_0, # of connection points: 2
#     Edge 20, Type (0, 0), BuildingBlock: MIFKUJ_clean_linker_0, # of connection points: 2
#     Edge 21, Type (0, 0), BuildingBlock: MIFKUJ_clean_linker_0, # of connection points: 2
#     Edge 22, Type (0, 0), BuildingBlock: MIFKUJ_clean_linker_0, # of connection points: 2
#     Edge 23, Type (0, 0), BuildingBlock: MIFKUJ_clean_linker_0, # of connection points: 2
# Relax obj value: 0.168
# Max RMSD: 0.200
# Mean RMSD: 0.200
data_MOF--net-qtz-e--node1-BETGAK_clean_sbu_0--edge1-MIFKUJ_clean_linker_0
_symmetry_space_group_name_H-M    P1
_symmetry_Int_Tables_number       1
_symmetry_cell_setting            triclinic
loop_
_symmetry_equiv_pos_as_xyz
'x, y, z'
_cell_length_a     32.747661
_cell_length_b     32.808115
_cell_length_c     63.441343
_cell_angle_alpha  90.117255
_cell_angle_beta   89.811463
_cell_angle_gamma 119.87626
loop_
_atom_site_label
_atom_site_type_symbol
_atom_site_fract_x
_atom_site_fract_y
_atom_site_fract_z
_atom_type_partial_charge
La0 La 0.20867 0.46376 0.159 0.0
La1 La 0.15041 0.37091 0.13564 0.0
C2 C 0.24123 0.54371 0.17544 0.0
C3 C 0.24495 0.56072 0.19733 0.0
C4 C 0.28863 0.59539 0.20514 0.0
C5 C 0.29264 0.61183 0.22583 0.0
C6 C 0.2529 0.59414 0.23913 0.0
C7 C 0.20917 0.55929 0.23122 0.0
C8 C 0.20527 0.54263 0.21062 0.0
C9 C 0.24033 0.40369 0.16139 0.0
C10 C 0.13516 0.37478 0.18416 0.0
C11 C 0.12459 0.29965 0.11248 0.0
C12 C 0.13931 0.28803 0.09217 0.0
C13 C 0.11279 0.28217 0.0739 0.0
C14 C 0.12503 0.27009 0.05471 0.0
C15 C 0.16399 0.26307 0.05319 0.0
C16 C 0.19065 0.26897 0.07149 0.0
C17 C 0.17836 0.28112 0.09076 0.0
C18 C 0.1084 0.41979 0.14367 0.0
C19 C 0.22506 0.46205 0.11013 0.0
O20 O 0.26742 0.52517 0.17051 0.0
O21 O 0.19852 0.51956 0.16776 0.0
O22 O 0.24298 0.43173 0.17647 0.0
O23 O 0.22131 0.41128 0.14586 0.0
O24 O 0.15601 0.42101 0.18228 0.0
O25 O 0.13483 0.34763 0.16852 0.0
O26 O 0.10697 0.32774 0.11138 0.0
O27 O 0.15238 0.3091 0.12884 0.0
O28 O 0.08659 0.37415 0.14358 0.0
O29 O 0.15042 0.43524 0.13832 0.0
O30 O 0.1915 0.41727 0.10965 0.0
O31 O 0.23856 0.48718 0.12768 0.0
H32 H 0.31973 0.60969 0.19523 0.0
H33 H 0.32701 0.63814 0.23144 0.0
H34 H 0.17765 0.54533 0.24083 0.0
H35 H 0.17103 0.51572 0.20512 0.0
H36 H 0.08234 0.28691 0.07444 0.0
H37 H 0.10414 0.26687 0.04095 0.0
H38 H 0.22063 0.2635 0.07101 0.0
H39 H 0.1993 0.28473 0.10455 0.0
La40 La 0.79942 0.26549 0.40125 0.0
La41 La 0.85179 0.22341 0.42482 0.0
C42 C 0.77036 0.31648 0.38538 0.0
C43 C 0.76308 0.32689 0.36366 0.0
C44 C 0.74943 0.3604 0.35982 0.0
C45 C 0.74564 0.37282 0.33913 0.0
C46 C 0.75567 0.35206 0.32188 0.0
C47 C 0.76813 0.31747 0.32594 0.0
C48 C 0.772 0.30517 0.34662 0.0
C49 C 0.76576 0.17382 0.39575 0.0
C50 C 0.87533 0.24977 0.37773 0.0
C51 C 0.87296 0.17704 0.44954 0.0
C52 C 0.85167 0.15194 0.46954 0.0
C53 C 0.84055 0.17397 0.48584 0.0
C54 C 0.8226 0.15116 0.50505 0.0
C55 C 0.81473 0.10541 0.5085 0.0
C56 C 0.82468 0.08292 0.49193 0.0
C57 C 0.84308 0.10602 0.4727 0.0
C58 C 0.89385 0.31597 0.42213 0.0
C59 C 0.77154 0.23467 0.44843 0.0
O60 O 0.74228 0.27335 0.39191 0.0
O61 O 0.81447 0.33181 0.39046 0.0
O62 O 0.76441 0.20182 0.38169 0.0
O63 O 0.78373 0.19802 0.41194 0.0
O64 O 0.85713 0.27765 0.38016 0.0
O65 O 0.87072 0.21865 0.39222 0.0
O66 O 0.89207 0.22284 0.45019 0.0
O67 O 0.84865 0.15916 0.43222 0.0
O68 O 0.91632 0.29274 0.42169 0.0
O69 O 0.85114 0.28765 0.42489 0.0
O70 O 0.79794 0.21456 0.44778 0.0
O71 O 0.76967 0.26012 0.43268 0.0
H72 H 0.74233 0.37744 0.37283 0.0
H73 H 0.73488 0.39876 0.3367 0.0
H74 H 0.77609 0.30064 0.31321 0.0
H75 H 0.78279 0.27929 0.34931 0.0
H76 H 0.84644 0.2093 0.48393 0.0
H77 H 0.81618 0.17012 0.5174 0.0
H78 H 0.8183 0.04743 0.49377 0.0
H79 H 0.85096 0.08812 0.46035 0.0
La80 La 0.55111 0.73888 0.82588 0.0
La81 La 0.64552 0.79204 0.80265 0.0
C82 C 0.47436 0.67957 0.84209 0.0
C83 C 0.45782 0.66695 0.86408 0.0
C84 C 0.41839 0.66938 0.871 0.0
C85 C 0.40265 0.65816 0.89183 0.0
C86 C 0.4258 0.64381 0.90615 0.0
C87 C 0.46547 0.64161 0.89916 0.0
C88 C 0.48144 0.65325 0.8784 0.0
C89 C 0.59541 0.83158 0.82972 0.0
C90 C 0.64558 0.77144 0.85074 0.0
C91 C 0.7101 0.8477 0.77833 0.0
C92 C 0.71051 0.86921 0.7576 0.0
C93 C 0.71639 0.84949 0.73893 0.0
C94 C 0.7163 0.86863 0.71925 0.0
C95 C 0.71077 0.90834 0.71767 0.0
C96 C 0.70491 0.9282 0.73633 0.0
C97 C 0.70477 0.90887 0.75607 0.0
C98 C 0.61137 0.70106 0.80838 0.0
C99 C 0.5495 0.75808 0.77724 0.0
O100 O 0.48294 0.72119 0.83577 0.0
O101 O 0.50666 0.66967 0.83574 0.0
O102 O 0.57015 0.80216 0.84438 0.0
O103 O 0.59373 0.80793 0.81381 0.0
O104 O 0.60043 0.73962 0.84892 0.0
O105 O 0.66996 0.80107 0.83531 0.0
O106 O 0.69277 0.80209 0.77822 0.0
O107 O 0.69649 0.86169 0.79501 0.0
O108 O 0.65604 0.73152 0.8075 0.0
O109 O 0.58926 0.722 0.80424 0.0
O110 O 0.59612 0.78066 0.77729 0.0
O111 O 0.52413 0.73825 0.79438 0.0
H112 H 0.39983 0.68018 0.8603 0.0
H113 H 0.37249 0.66106 0.89671 0.0
H114 H 0.4838 0.63006 0.90959 0.0
H115 H 0.5122 0.65128 0.87361 0.0
H116 H 0.72127 0.81919 0.7395 0.0
H117 H 0.7217 0.85288 0.70527 0.0
H118 H 0.70023 0.95861 0.73568 0.0
H119 H 0.70025 0.92511 0.77008 0.0
La120 La 0.74446 0.54123 0.06828 0.0
La121 La 0.78073 0.63342 0.09301 0.0
C122 C 0.69237 0.46949 0.04673 0.0
C123 C 0.68153 0.45492 0.0246 0.0
C124 C 0.67455 0.41074 0.01875 0.0
C125 C 0.66078 0.3941 0.99828 0.0
C126 C 0.65343 0.42128 0.98328 0.0
C127 C 0.66199 0.46633 0.989 0.0
C128 C 0.67601 0.48308 1.00952 0.0
C129 C 0.83557 0.58724 0.07357 0.0
C130 C 0.76448 0.63625 0.04449 0.0
C131 C 0.82878 0.7022 0.11702 0.0
C132 C 0.85064 0.70808 0.13811 0.0
C133 C 0.82798 0.71236 0.15614 0.0
C134 C 0.84798 0.71768 0.17612 0.0
C135 C 0.89125 0.7189 0.17863 0.0
C136 C 0.91403 0.71479 0.16056 0.0
C137 C 0.89418 0.70985 0.14055 0.0
C138 C 0.68903 0.58209 0.08831 0.0
C139 C 0.76026 0.53816 0.11662 0.0
O140 O 0.73425 0.4797 0.05334 0.0
O141 O 0.67922 0.49869 0.05392 0.0
O142 O 0.81104 0.54241 0.07023 0.0
O143 O 0.80985 0.60555 0.07119 0.0
O144 O 0.7492 0.59043 0.0437 0.0
O145 O 0.7809 0.6616 0.06193 0.0
O146 O 0.78268 0.67948 0.1165 0.0
O147 O 0.84684 0.6902 0.10134 0.0
O148 O 0.71129 0.62772 0.08936 0.0
O149 O 0.71768 0.56796 0.09142 0.0
O150 O 0.78191 0.58474 0.11648 0.0
O151 O 0.73718 0.51292 0.09996 0.0
H152 H 0.67895 0.38868 0.03015 0.0
H153 H 0.65543 0.35968 0.99426 0.0
H154 H 0.65638 0.488 0.97785 0.0
H155 H 0.68149 0.51749 1.01368 0.0
H156 H 0.79476 0.71186 0.1548 0.0
H157 H 0.82985 0.72176 0.18956 0.0
H158 H 0.94717 0.71516 0.16184 0.0
H159 H 0.91309 0.70745 0.12702 0.0
La160 La 0.26523 0.80011 0.49316 0.0
La161 La 0.22857 0.85369 0.46755 0.0
C162 C 0.31473 0.77144 0.51106 0.0
C163 C 0.32956 0.76967 0.53295 0.0
C164 C 0.30089 0.73275 0.54671 0.0
C165 C 0.31586 0.7318 0.56728 0.0
C166 C 0.35986 0.76765 0.5745 0.0
C167 C 0.38842 0.80443 0.56067 0.0
C168 C 0.37361 0.80527 0.54015 0.0
C169 C 0.17296 0.76651 0.49524 0.0
C170 C 0.24822 0.87579 0.51548 0.0
C171 C 0.18215 0.87656 0.44351 0.0
C172 C 0.1564 0.86075 0.42329 0.0
C173 C 0.17212 0.8915 0.406 0.0
C174 C 0.14875 0.8779 0.38668 0.0
C175 C 0.10882 0.83311 0.38411 0.0
C176 C 0.09247 0.80272 0.40162 0.0
C177 C 0.11616 0.81619 0.42094 0.0
C178 C 0.32002 0.89769 0.47466 0.0
C179 C 0.2507 0.7802 0.44429 0.0
O180 O 0.27034 0.74371 0.50608 0.0
O181 O 0.33155 0.81364 0.50309 0.0
O182 O 0.199 0.76679 0.5107 0.0
O183 O 0.19931 0.784 0.47943 0.0
O184 O 0.27481 0.85596 0.51457 0.0
O185 O 0.22024 0.87252 0.49974 0.0
O186 O 0.22789 0.89475 0.4424 0.0
O187 O 0.16405 0.84935 0.46005 0.0
O188 O 0.29565 0.91899 0.4735 0.0
O189 O 0.29325 0.85503 0.4709 0.0
O190 O 0.23641 0.81149 0.44276 0.0
O191 O 0.26266 0.76908 0.46238 0.0
H192 H 0.26699 0.7045 0.5416 0.0
H193 H 0.29326 0.70255 0.5774 0.0
H194 H 0.4222 0.83297 0.56574 0.0
H195 H 0.39677 0.83405 0.52992 0.0
H196 H 0.20266 0.92629 0.40745 0.0
H197 H 0.16184 0.90288 0.37381 0.0
H198 H 0.06186 0.76804 0.40034 0.0
H199 H 0.10297 0.79162 0.43395 0.0
La200 La 0.45586 0.1922 0.73516 0.0
La201 La 0.35853 0.1533 0.75615 0.0
C202 C 0.5234 0.19413 0.71533 0.0
C203 C 0.53388 0.19248 0.69284 0.0
C204 C 0.52505 0.21838 0.67773 0.0
C205 C 0.5358 0.21683 0.65652 0.0
C206 C 0.5549 0.18884 0.64997 0.0
C207 C 0.56251 0.16199 0.66505 0.0
C208 C 0.55224 0.16395 0.68631 0.0
C209 C 0.42278 0.25005 0.7338 0.0
C210 C 0.36054 0.12649 0.70919 0.0
C211 C 0.28969 0.14595 0.77728 0.0
C212 C 0.28222 0.15624 0.79932 0.0
C213 C 0.24778 0.12012 0.81182 0.0
C214 C 0.24019 0.12873 0.8327 0.0
C215 C 0.26686 0.1738 0.84162 0.0
C216 C 0.30141 0.20996 0.82907 0.0
C217 C 0.30892 0.20132 0.80818 0.0
C218 C 0.39823 0.10036 0.7578 0.0
C219 C 0.45415 0.2178 0.78231 0.0
O220 O 0.52304 0.23192 0.72183 0.0
O221 O 0.48813 0.15555 0.723 0.0
O222 O 0.46706 0.26289 0.73266 0.0
O223 O 0.39836 0.20564 0.73304 0.0
O224 O 0.40687 0.14661 0.71104 0.0
O225 O 0.33356 0.12891 0.72421 0.0
O226 O 0.29871 0.11161 0.77478 0.0
O227 O 0.31593 0.18173 0.76501 0.0
O228 O 0.35296 0.08322 0.75701 0.0
O229 O 0.41757 0.144 0.75917 0.0
O230 O 0.40791 0.19959 0.78043 0.0
O231 O 0.47986 0.21321 0.76733 0.0
H232 H 0.51011 0.24004 0.68231 0.0
H233 H 0.52918 0.23755 0.64522 0.0
H234 H 0.57754 0.1404 0.66048 0.0
H235 H 0.55892 0.14341 0.6977 0.0
H236 H 0.22672 0.08504 0.80542 0.0
H237 H 0.21373 0.09983 0.84192 0.0
H238 H 0.32221 0.24525 0.83526 0.0
H239 H 0.33555 0.23008 0.79903 0.0
H240 H 0.30284 0.82813 0.41064 0.0
H241 H 0.31096 0.7963 0.37706 0.0
H242 H 0.21761 0.65548 0.39965 0.0
H243 H 0.21415 0.68759 0.43418 0.0
H244 H 0.27724 0.65169 0.37587 0.0
H245 H 0.18458 0.72987 0.36658 0.0
H246 H 0.17465 0.79965 0.36939 0.0
H247 H 0.29319 0.87676 0.32844 0.0
H248 H 0.3045 0.80806 0.32569 0.0
H249 H 0.20711 0.54499 0.27481 0.0
H250 H 0.21032 0.57591 0.31015 0.0
H251 H 0.31205 0.71499 0.28875 0.0
H252 H 0.30702 0.68486 0.2531 0.0
H253 H 0.24861 0.71955 0.31161 0.0
H254 H 0.34243 0.64582 0.32004 0.0
H255 H 0.36002 0.58103 0.31826 0.0
H256 H 0.2448 0.4988 0.36026 0.0
H257 H 0.22613 0.5629 0.36208 0.0
C258 C 0.28457 0.79036 0.40842 0.0
C259 C 0.25716 0.76017 0.42468 0.0
C260 C 0.28874 0.77213 0.38917 0.0
C261 C 0.26311 0.72346 0.38533 0.0
C262 C 0.23729 0.69317 0.40201 0.0
C263 C 0.23516 0.71141 0.4217 0.0
C264 C 0.26227 0.70428 0.36388 0.0
C265 C 0.27025 0.66614 0.36187 0.0
C266 C 0.25449 0.7238 0.3454 0.0
C267 C 0.24557 0.76393 0.34606 0.0
C268 C 0.20842 0.76169 0.35815 0.0
C269 C 0.20264 0.80106 0.35978 0.0
C270 C 0.23335 0.84255 0.34918 0.0
C271 C 0.26952 0.84463 0.33669 0.0
C272 C 0.27562 0.80551 0.33508 0.0
C273 C 0.22992 0.58225 0.27754 0.0
C274 C 0.25674 0.6124 0.261 0.0
C275 C 0.23219 0.59978 0.29787 0.0
C276 C 0.26188 0.64773 0.30223 0.0
C277 C 0.28899 0.67783 0.28582 0.0
C278 C 0.28643 0.66042 0.26545 0.0
C279 C 0.2634 0.66696 0.32366 0.0
C280 C 0.25535 0.70498 0.32564 0.0
C281 C 0.27135 0.64752 0.34204 0.0
C282 C 0.28261 0.60899 0.34103 0.0
C283 C 0.32063 0.61379 0.32877 0.0
C284 C 0.33083 0.57721 0.32778 0.0
C285 C 0.30347 0.53578 0.3391 0.0
C286 C 0.26592 0.53089 0.35148 0.0
C287 C 0.25555 0.56735 0.35251 0.0
H288 H 0.31142 0.5075 0.33831 0.0
H289 H 0.22926 0.87318 0.35068 0.0
H290 H 0.53721 0.11363 0.625 0.0
H291 H 0.56389 0.11526 0.58873 0.0
H292 H 0.63193 0.26674 0.58874 0.0
H293 H 0.60402 0.26509 0.62463 0.0
H294 H 0.59234 0.23435 0.55208 0.0
H295 H 0.69606 0.20406 0.59749 0.0
H296 H 0.70944 0.15803 0.62458 0.0
H297 H 0.63407 0.03318 0.58713 0.0
H298 H 0.62115 0.07871 0.55966 0.0
H299 H 0.762 0.30008 0.47093 0.0
H300 H 0.71848 0.28778 0.50394 0.0
H301 H 0.67093 0.13912 0.50066 0.0
H302 H 0.71739 0.15229 0.46858 0.0
H303 H 0.6913 0.16206 0.53768 0.0
H304 H 0.60096 0.19577 0.48879 0.0
H305 H 0.58525 0.24027 0.46199 0.0
H306 H 0.62911 0.3557 0.50505 0.0
H307 H 0.64556 0.31206 0.53212 0.0
C308 C 0.55782 0.14722 0.6172 0.0
C309 C 0.56884 0.18926 0.62767 0.0
C310 C 0.57313 0.14814 0.5965 0.0
C311 C 0.60079 0.19121 0.58611 0.0
C312 C 0.61067 0.23308 0.59639 0.0
C313 C 0.59472 0.23212 0.61692 0.0
C314 C 0.62105 0.19327 0.56487 0.0
C315 C 0.6143 0.21888 0.5489 0.0
C316 C 0.64826 0.17165 0.56049 0.0
C317 C 0.65739 0.14467 0.57664 0.0
C318 C 0.6825 0.16682 0.59505 0.0
C319 C 0.69011 0.14086 0.61042 0.0
C320 C 0.67267 0.09273 0.60756 0.0
C321 C 0.64769 0.07048 0.5893 0.0
C322 C 0.64049 0.09639 0.57376 0.0
C323 C 0.7418 0.26483 0.47725 0.0
C324 C 0.74256 0.22705 0.46729 0.0
C325 C 0.71666 0.25766 0.49603 0.0
C326 C 0.69019 0.21223 0.50465 0.0
C327 C 0.69072 0.17445 0.4944 0.0
C328 C 0.71712 0.1819 0.47604 0.0
C329 C 0.6637 0.20431 0.52478 0.0
C330 C 0.66906 0.17732 0.54057 0.0
C331 C 0.6348 0.22437 0.52886 0.0
C332 C 0.62462 0.25055 0.51254 0.0
C333 C 0.60734 0.23061 0.4926 0.0
C334 C 0.59834 0.25575 0.47732 0.0
C335 C 0.60619 0.30079 0.48181 0.0
C336 C 0.62301 0.32078 0.5016 0.0
C337 C 0.63211 0.29582 0.51693 0.0
H338 H 0.59923 0.32021 0.46995 0.0
H339 H 0.67863 0.07276 0.61948 0.0
H340 H 0.18254 0.45456 0.07267 0.0
H341 H 0.2198 0.49099 0.03919 0.0
H342 H 0.3564 0.55481 0.06892 0.0
H343 H 0.31854 0.52104 0.10282 0.0
H344 H 0.35715 0.61316 0.04227 0.0
H345 H 0.30359 0.44755 0.0381 0.0
H346 H 0.24397 0.36364 0.0405 0.0
H347 H 0.16563 0.3796 0.9902 0.0
H348 H 0.22357 0.46417 0.98818 0.0
H349 H 0.47685 0.65978 0.94265 0.0
H350 H 0.44677 0.6323 0.97817 0.0
H351 H 0.30439 0.57089 0.9551 0.0
H352 H 0.334 0.59569 0.91944 0.0
H353 H 0.31258 0.51105 0.97898 0.0
H354 H 0.36006 0.67569 0.98503 0.0
H355 H 0.41611 0.76088 0.9832 0.0
H356 H 0.50485 0.74632 0.02867 0.0
H357 H 0.44958 0.66091 0.03057 0.0
C358 C 0.22051 0.47653 0.072 0.0
C359 C 0.24783 0.48474 0.09015 0.0
C360 C 0.24187 0.49712 0.05285 0.0
C361 C 0.29119 0.5244 0.05126 0.0
C362 C 0.3184 0.53352 0.06961 0.0
C363 C 0.29683 0.51419 0.08895 0.0
C364 C 0.3142 0.54268 0.03043 0.0
C365 C 0.34784 0.59062 0.02851 0.0
C366 C 0.30178 0.51358 1.0123 0.0
C367 C 0.26783 0.46232 1.01309 0.0
C368 C 0.27355 0.43323 0.02762 0.0
C369 C 0.23995 0.38551 0.02892 0.0
C370 C 0.20113 0.36622 1.01542 0.0
C371 C 0.19573 0.39461 1.00063 0.0
C372 C 0.22883 0.44247 0.99946 0.0
C373 C 0.43911 0.64015 0.94509 0.0
C374 C 0.40789 0.62991 0.92809 0.0
C375 C 0.42198 0.625 0.96549 0.0
C376 C 0.37329 0.59992 0.96938 0.0
C377 C 0.34212 0.59028 0.95251 0.0
C378 C 0.35916 0.60496 0.93212 0.0
C379 C 0.35435 0.58159 0.99073 0.0
C380 C 0.32191 0.5335 0.99278 0.0
C381 C 0.36779 0.61053 1.00889 0.0
C382 C 0.40094 0.66186 1.00778 0.0
C383 C 0.39171 0.69061 0.99451 0.0
C384 C 0.4233 0.73894 0.99349 0.0
C385 C 0.46408 0.75898 1.00577 0.0
C386 C 0.47329 0.73074 0.01915 0.0
C387 C 0.44183 0.68238 0.02022 0.0
H388 H 0.4885 0.79641 1.00495 0.0
H389 H 0.17509 0.32936 0.01636 0.0
H390 H 0.7274 0.29826 0.28572 0.0
H391 H 0.72727 0.32435 0.24966 0.0
H392 H 0.77981 0.46603 0.27188 0.0
H393 H 0.78202 0.44092 0.30783 0.0
H394 H 0.70061 0.43285 0.24475 0.0
H395 H 0.86023 0.45323 0.24261 0.0
H396 H 0.91811 0.42686 0.24778 0.0
H397 H 0.83227 0.30271 0.21132 0.0
H398 H 0.77476 0.32941 0.20528 0.0
H399 H 0.79174 0.57826 0.15527 0.0
H400 H 0.78622 0.53886 0.18859 0.0
H401 H 0.7213 0.4048 0.15692 0.0
H402 H 0.72522 0.44375 0.1234 0.0
H403 H 0.79968 0.42508 0.18722 0.0
H404 H 0.65023 0.41655 0.18258 0.0
H405 H 0.59507 0.44587 0.17636 0.0
H406 H 0.65868 0.54564 0.22664 0.0
H407 H 0.71459 0.51722 0.23301 0.0
C408 C 0.73952 0.33511 0.28298 0.0
C409 C 0.75448 0.36737 0.29985 0.0
C410 C 0.7393 0.34991 0.26233 0.0
C411 C 0.75358 0.39712 0.25812 0.0
C412 C 0.76839 0.42936 0.27482 0.0
C413 C 0.76921 0.41478 0.29542 0.0
C414 C 0.75202 0.41285 0.23639 0.0
C415 C 0.72245 0.43142 0.23221 0.0
C416 C 0.77938 0.40965 0.21988 0.0
C417 C 0.81317 0.39303 0.22368 0.0
C418 C 0.85371 0.42024 0.23577 0.0
C419 C 0.8865 0.40535 0.23878 0.0
C420 C 0.87862 0.36284 0.23011 0.0
C421 C 0.83825 0.33552 0.2181 0.0
C422 C 0.80575 0.35071 0.21473 0.0
C423 C 0.77631 0.54039 0.15527 0.0
C424 C 0.75884 0.51416 0.13661 0.0
C425 C 0.77318 0.51797 0.17437 0.0
C426 C 0.75317 0.46899 0.17518 0.0
C427 C 0.73685 0.44268 0.15656 0.0
C428 C 0.73914 0.46502 0.13745 0.0
C429 C 0.7488 0.44574 0.1957 0.0
C430 C 0.77726 0.42585 0.19967 0.0
C431 C 0.72014 0.44748 0.21199 0.0
C432 C 0.6869 0.46505 0.20814 0.0
C433 C 0.65278 0.44506 0.19217 0.0
C434 C 0.62128 0.46142 0.18865 0.0
C435 C 0.62344 0.49767 0.20106 0.0
C436 C 0.65707 0.51758 0.21703 0.0
C437 C 0.68863 0.50131 0.22063 0.0
H438 H 0.59898 0.51023 0.19833 0.0
H439 H 0.90388 0.35118 0.23263 0.0
H440 H 0.58981 0.78471 0.73838 0.0
H441 H 0.5523 0.78488 0.70544 0.0
H442 H 0.41818 0.72763 0.7372 0.0
H443 H 0.45544 0.72613 0.77043 0.0
H444 H 0.40862 0.68726 0.69933 0.0
H445 H 0.48164 0.84351 0.72556 0.0
H446 H 0.54595 0.91703 0.74033 0.0
H447 H 0.62812 0.93843 0.68447 0.0
H448 H 0.5648 0.86446 0.66941 0.0
H449 H 0.30828 0.74171 0.6112 0.0
H450 H 0.33585 0.73988 0.64681 0.0
H451 H 0.47624 0.7902 0.62274 0.0
H452 H 0.44898 0.79148 0.58713 0.0
H453 H 0.47676 0.8361 0.6587 0.0
H454 H 0.40539 0.67522 0.63437 0.0
H455 H 0.34084 0.60086 0.62029 0.0
H456 H 0.25463 0.58897 0.67368 0.0
H457 H 0.31849 0.66363 0.68794 0.0
C458 C 0.55227 0.77196 0.73846 0.0
C459 C 0.52568 0.75587 0.75714 0.0
C460 C 0.5309 0.77226 0.71956 0.0
C461 C 0.48264 0.75726 0.71894 0.0
C462 C 0.45557 0.7397 0.73738 0.0
C463 C 0.47693 0.73899 0.75635 0.0
C464 C 0.46104 0.76075 0.699 0.0
C465 C 0.42293 0.71999 0.69062 0.0
C466 C 0.48017 0.80341 0.68754 0.0
C467 C 0.5183 0.84837 0.69633 0.0
C468 C 0.51345 0.8638 0.71641 0.0
C469 C 0.5498 0.90548 0.72486 0.0
C470 C 0.59112 0.93227 0.71335 0.0
C471 C 0.59615 0.91745 0.69336 0.0
C472 C 0.55999 0.8757 0.68483 0.0
C473 C 0.34493 0.75196 0.61344 0.0
C474 C 0.37634 0.76661 0.59625 0.0
C475 C 0.36067 0.7511 0.63383 0.0
C476 C 0.40805 0.76466 0.63741 0.0
C477 C 0.43958 0.77982 0.62035 0.0
C478 C 0.4239 0.78062 0.59999 0.0
C479 C 0.42493 0.76243 0.65883 0.0
C480 C 0.46216 0.80352 0.66751 0.0
C481 C 0.40483 0.72019 0.67062 0.0
C482 C 0.3665 0.67526 0.66209 0.0
C483 C 0.37252 0.65694 0.64301 0.0
C484 C 0.33609 0.61471 0.63502 0.0
C485 C 0.29361 0.59028 0.64605 0.0
C486 C 0.28752 0.60798 0.66513 0.0
C487 C 0.32383 0.65023 0.67318 0.0
H488 H 0.26545 0.55759 0.63984 0.0
H489 H 0.61925 0.96453 0.71992 0.0
H490 H 0.67953 0.46593 0.94493 0.0
H491 H 0.64736 0.43261 0.91022 0.0
H492 H 0.55334 0.29909 0.93922 0.0
H493 H 0.5847 0.33207 0.9738 0.0
H494 H 0.59407 0.28736 0.90506 0.0
H495 H 0.51747 0.37342 0.92454 0.0
H496 H 0.50937 0.4416 0.93465 0.0
H497 H 0.57232 0.50928 0.87607 0.0
H498 H 0.58306 0.44264 0.86602 0.0
H499 H 0.41596 0.24349 0.8143 0.0
H500 H 0.45116 0.27709 0.84828 0.0
H501 H 0.57807 0.27678 0.82987 0.0
H502 H 0.54207 0.24089 0.7962 0.0
H503 H 0.52196 0.35567 0.85868 0.0
H504 H 0.63399 0.26704 0.87218 0.0
H505 H 0.63363 0.1943 0.86182 0.0
H506 H 0.48299 0.12218 0.85644 0.0
H507 H 0.48236 0.19425 0.86707 0.0
C508 C 0.65182 0.42956 0.94389 0.0
C509 C 0.63482 0.40158 0.96211 0.0
C510 C 0.6336 0.41057 0.92407 0.0
C511 C 0.59793 0.36341 0.92219 0.0
C512 C 0.58113 0.33545 0.94032 0.0
C513 C 0.59922 0.35434 0.96007 0.0
C514 C 0.57758 0.34289 0.9014 0.0
C515 C 0.57842 0.30238 0.89488 0.0
C516 C 0.55663 0.36221 0.88828 0.0
C517 C 0.55192 0.40328 0.8947 0.0
C518 C 0.53061 0.40328 0.914 0.0
C519 C 0.52557 0.44173 0.91973 0.0
C520 C 0.5409 0.48006 0.90612 0.0
C521 C 0.56124 0.47998 0.88675 0.0
C522 C 0.56696 0.44194 0.88107 0.0
C523 C 0.4512 0.25014 0.81754 0.0
C524 C 0.47621 0.23944 0.80259 0.0
C525 C 0.47139 0.2696 0.83695 0.0
C526 C 0.51705 0.27895 0.84176 0.0
C527 C 0.54236 0.26883 0.82673 0.0
C528 C 0.52191 0.24876 0.8074 0.0
C529 C 0.53827 0.30008 0.86238 0.0
C530 C 0.53784 0.34082 0.86882 0.0
C531 C 0.55852 0.28036 0.87567 0.0
C532 C 0.55822 0.2362 0.87021 0.0
C533 C 0.60077 0.23556 0.86894 0.0
C534 C 0.60074 0.19448 0.86299 0.0
C535 C 0.55834 0.15375 0.85837 0.0
C536 C 0.51581 0.15382 0.85994 0.0
C537 C 0.51563 0.19477 0.86593 0.0
H538 H 0.55844 0.12218 0.85354 0.0
H539 H 0.53668 0.50966 0.91051 0.0
H540 H 0.24503 0.34989 0.13014 0.0
H541 H 0.31711 0.35535 0.11631 0.0
H542 H 0.3942 0.44192 0.16936 0.0
H543 H 0.32179 0.43464 0.18366 0.0
H544 H 0.38015 0.43582 0.10293 0.0
H545 H 0.50294 0.45345 0.17353 0.0
H546 H 0.49857 0.41361 0.20702 0.0
H547 H 0.3782 0.28763 0.18452 0.0
H548 H 0.38241 0.32632 0.15069 0.0
H549 H 0.62114 0.60745 0.08992 0.0
H550 H 0.53796 0.55657 0.09921 0.0
H551 H 0.55898 0.43679 0.10129 0.0
H552 H 0.64184 0.48739 0.09267 0.0
H553 H 0.52004 0.44227 0.13608 0.0
H554 H 0.49098 0.44667 0.06329 0.0
H555 H 0.49389 0.48029 0.02825 0.0
H556 H 0.42395 0.55149 0.05278 0.0
H557 H 0.4212 0.51893 0.08812 0.0
C558 C 0.27684 0.36789 0.13941 0.0
C559 C 0.27796 0.3923 0.1578 0.0
C560 C 0.31816 0.37139 0.1314 0.0
C561 C 0.36125 0.39968 0.14159 0.0
C562 C 0.3614 0.41956 0.16126 0.0
C563 C 0.31987 0.41544 0.16944 0.0
C564 C 0.40609 0.4159 0.12998 0.0
C565 C 0.4106 0.43668 0.11009 0.0
C566 C 0.4457 0.41662 0.13919 0.0
C567 C 0.44274 0.39302 0.15957 0.0
C568 C 0.47562 0.41718 0.17565 0.0
C569 C 0.47318 0.39479 0.19472 0.0
C570 C 0.43801 0.34818 0.19793 0.0
C571 C 0.4053 0.32381 0.18205 0.0
C572 C 0.40767 0.34599 0.16292 0.0
C573 C 0.60766 0.57013 0.09198 0.0
C574 C 0.63783 0.55136 0.09063 0.0
C575 C 0.56018 0.54105 0.09718 0.0
C576 C 0.5423 0.49284 0.10089 0.0
C577 C 0.57204 0.47385 0.09852 0.0
C578 C 0.61936 0.50282 0.09348 0.0
C579 C 0.49419 0.4633 0.10944 0.0
C580 C 0.48927 0.44048 0.12878 0.0
C581 C 0.45406 0.46016 0.09962 0.0
C582 C 0.45634 0.48065 0.07846 0.0
C583 C 0.47667 0.46991 0.06131 0.0
C584 C 0.47816 0.48869 0.04137 0.0
C585 C 0.45916 0.51805 0.03831 0.0
C586 C 0.43862 0.52872 0.0552 0.0
C587 C 0.43709 0.5101 0.07519 0.0
H588 H 0.46027 0.53248 0.02286 0.0
H589 H 0.43616 0.3309 0.21271 0.0
H590 H 0.13444 0.68078 0.51367 0.0
H591 H 0.06944 0.60898 0.49976 0.0
H592 H 0.03614 0.68967 0.45648 0.0
H593 H 0.10421 0.76197 0.46949 0.0
H594 H 0.98188 0.5641 0.49395 0.0
H595 H 0.98891 0.61406 0.40853 0.0
H596 H 0.03324 0.67703 0.3827 0.0
H597 H 0.15927 0.72404 0.41869 0.0
H598 H 0.11683 0.65892 0.444 0.0
H599 H 0.84685 0.36231 0.43079 0.0
H600 H 0.87994 0.44419 0.44141 0.0
H601 H 0.02019 0.46615 0.43272 0.0
H602 H 0.9871 0.38364 0.42191 0.0
H603 H 0.00475 0.54207 0.41831 0.0
H604 H 0.97594 0.44033 0.47975 0.0
H605 H 0.9227 0.37173 0.50145 0.0
H606 H 0.83136 0.42915 0.51075 0.0
H607 H 0.88382 0.49782 0.48886 0.0
C608 C 0.11251 0.68348 0.50163 0.0
C609 C 0.12488 0.72686 0.49233 0.0
C610 C 0.07519 0.64222 0.4936 0.0
C611 C 0.04883 0.6436 0.47644 0.0
C612 C 0.05705 0.68748 0.46915 0.0
C613 C 0.09559 0.72885 0.47673 0.0
C614 C 0.01738 0.599 0.46517 0.0
C615 C 0.9866 0.55966 0.47733 0.0
C616 C 0.0222 0.5928 0.44327 0.0
C617 C 0.04937 0.63213 0.42841 0.0
C618 C 0.02628 0.63753 0.41087 0.0
C619 C 0.05121 0.67314 0.39618 0.0
C620 C 0.09923 0.70399 0.39898 0.0
C621 C 0.12241 0.69927 0.41642 0.0
C622 C 0.09799 0.66283 0.43087 0.0
C623 C 0.88477 0.38477 0.4307 0.0
C624 C 0.91459 0.36674 0.42564 0.0
C625 C 0.90351 0.43145 0.43683 0.0
C626 C 0.95234 0.46081 0.43803 0.0
C627 C 0.98231 0.44375 0.43186 0.0
C628 C 0.96351 0.39679 0.42576 0.0
C629 C 0.97212 0.50804 0.44741 0.0
C630 C -0.0001 0.54722 0.43484 0.0
C631 C 0.96402 0.51431 0.46873 0.0
C632 C 0.93355 0.47396 0.48254 0.0
C633 C 0.94442 0.43822 0.48637 0.0
C634 C 0.91439 0.39934 0.49869 0.0
C635 C 0.8736 0.39602 0.50743 0.0
C636 C 0.86293 0.43174 0.50396 0.0
C637 C 0.89282 0.47067 0.49162 0.0
H638 H 0.85031 0.36582 0.5169 0.0
H639 H 0.11833 0.73182 0.38773 0.0
H640 H 0.49131 0.13824 0.76505 0.0
H641 H 0.53307 0.099 0.77723 0.0
H642 H 0.40404 0.96552 0.7752 0.0
H643 H 0.36147 0.0051 0.76275 0.0
H644 H 0.51789 0.0515 0.81372 0.0
H645 H 0.43412 0.88252 0.76365 0.0
H646 H 0.40172 0.85555 0.728 0.0
H647 H 0.48928 0.99507 0.70389 0.0
H648 H 0.52204 0.02284 0.7394 0.0
H649 H 0.55391 0.86875 0.8547 0.0
H650 H 0.53095 0.92532 0.84309 0.0
H651 H 0.61388 0.95138 0.7865 0.0
H652 H 0.63553 0.89365 0.79772 0.0
H653 H 0.52608 0.92232 0.77692 0.0
H654 H 0.63865 0.04 0.82354 0.0
H655 H 0.6789 0.07262 0.85733 0.0
H656 H 0.54824 0.04587 0.88527 0.0
H657 H 0.50713 0.01271 0.85169 0.0
C658 C 0.47172 0.10044 0.7669 0.0
C659 C 0.42305 0.07465 0.76298 0.0
C660 C 0.49571 0.07814 0.77398 0.0
C661 C 0.47164 0.02951 0.7772 0.0
C662 C 0.42323 0.00317 0.77269 0.0
C663 C 0.399 0.02568 0.7656 0.0
C664 C 0.49731 0.00719 0.78614 0.0
C665 C 0.51981 0.02327 0.80568 0.0
C666 C 0.50034 0.971 0.77548 0.0
C667 C 0.48006 0.95481 0.7542 0.0
C668 C 0.44626 0.90744 0.75075 0.0
C669 C 0.42777 0.89206 0.73059 0.0
C670 C 0.44331 0.92361 0.71371 0.0
C671 C 0.47714 0.9707 0.71699 0.0
C672 C 0.49549 0.98633 0.73715 0.0
C673 C 0.56875 0.8879 0.84019 0.0
C674 C 0.59602 0.87642 0.82695 0.0
C675 C 0.55556 0.92027 0.83355 0.0
C676 C 0.57024 0.94214 0.8138 0.0
C677 C 0.60178 0.93453 0.8017 0.0
C678 C 0.61455 0.90189 0.80823 0.0
C679 C 0.54744 0.96702 0.8044 0.0
C680 C 0.52476 0.95092 0.78489 0.0
C681 C 0.54521 0.00391 0.81489 0.0
C682 C 0.56977 0.02354 0.83514 0.0
C683 C 0.61844 0.04074 0.83694 0.0
C684 C 0.64143 0.05942 0.85604 0.0
C685 C 0.61613 0.06122 0.87345 0.0
C686 C 0.56778 0.04435 0.87179 0.0
C687 C 0.54464 0.0257 0.85271 0.0
H688 H 0.634 0.07575 0.88822 0.0
H689 H 0.42924 0.91153 0.69808 0.0
H690 H 0.60091 0.66823 0.76897 0.0
H691 H 0.55247 0.58633 0.75769 0.0
H692 H 0.52602 0.54231 0.82276 0.0
H693 H 0.57436 0.62478 0.83406 0.0
H694 H 0.55018 0.4878 0.79531 0.0
H695 H 0.44417 0.54892 0.79818 0.0
H696 H 0.42181 0.60865 0.79007 0.0
H697 H 0.42258 0.58129 0.7239 0.0
H698 H 0.44596 0.52206 0.73158 0.0
H699 H 0.3907 0.26017 0.77185 0.0
H700 H 0.40648 0.33516 0.78606 0.0
H701 H 0.44348 0.39583 0.72391 0.0
H702 H 0.42829 0.32012 0.70972 0.0
H703 H 0.40704 0.4411 0.75232 0.0
H704 H 0.52119 0.39235 0.74663 0.0
H705 H 0.56284 0.34789 0.75087 0.0
H706 H 0.56391 0.36515 0.818 0.0
H707 H 0.51896 0.40649 0.81429 0.0
C708 C 0.5857 0.64078 0.78079 0.0
C709 C 0.59181 0.65203 0.80229 0.0
C710 C 0.5576 0.59433 0.77438 0.0
C711 C 0.53511 0.55867 0.78942 0.0
C712 C 0.54293 0.56962 0.81097 0.0
C713 C 0.57081 0.61634 0.81741 0.0
C714 C 0.50383 0.50988 0.78244 0.0
C715 C 0.51808 0.47703 0.78644 0.0
C716 C 0.46326 0.49707 0.77008 0.0
C717 C 0.4471 0.53117 0.76546 0.0
C718 C 0.43977 0.55574 0.78189 0.0
C719 C 0.42694 0.58955 0.77737 0.0
C720 C 0.42084 0.5988 0.75648 0.0
C721 C 0.42732 0.57408 0.74008 0.0
C722 C 0.44032 0.54034 0.74451 0.0
C723 C 0.39902 0.28821 0.76096 0.0
C724 C 0.40777 0.28391 0.73966 0.0
C725 C 0.40861 0.33154 0.76917 0.0
C726 C 0.42697 0.37116 0.75608 0.0
C727 C 0.42926 0.36556 0.73426 0.0
C728 C 0.42028 0.3222 0.72614 0.0
C729 C 0.45309 0.41859 0.76551 0.0
C730 C 0.43822 0.45131 0.76177 0.0
C731 C 0.49401 0.43189 0.77775 0.0
C732 C 0.51552 0.40159 0.78019 0.0
C733 C 0.52849 0.38501 0.76236 0.0
C734 C 0.55288 0.36044 0.76466 0.0
C735 C 0.56575 0.35339 0.7847 0.0
C736 C 0.5533 0.36994 0.8025 0.0
C737 C 0.52792 0.39353 0.80032 0.0
H738 H 0.58582 0.33555 0.78639 0.0
H739 H 0.41103 0.62508 0.75301 0.0
H740 H 0.14631 0.51043 0.13132 0.0
H741 H 0.10648 0.55581 0.12769 0.0
H742 H 0.97991 0.44085 0.15426 0.0
H743 H 0.01961 0.39441 0.15721 0.0
H744 H 0.95966 0.46456 0.11977 0.0
H745 H 0.04356 0.55152 0.17915 0.0
H746 H 0.11191 0.59551 0.20245 0.0
H747 H 0.17848 0.70324 0.15553 0.0
H748 H 0.11097 0.65949 0.13174 0.0
H749 H 0.86614 0.62587 0.11273 0.0
H750 H 0.92514 0.61673 0.13199 0.0
H751 H 0.97121 0.58405 0.07389 0.0
H752 H 0.91079 0.59137 0.05473 0.0
H753 H 0.0239 0.63531 0.13204 0.0
H754 H 0.94248 0.47328 0.07825 0.0
H755 H 0.87078 0.42699 0.05702 0.0
H756 H 0.79238 0.46486 0.09918 0.0
H757 H 0.86342 0.51103 0.12079 0.0
C758 C 0.11028 0.49517 0.13682 0.0
C759 C 0.08579 0.44883 0.1444 0.0
C760 C 0.08763 0.52138 0.13491 0.0
C761 C 0.04027 0.50205 0.14089 0.0
C762 C 0.0165 0.45653 0.14955 0.0
C763 C 0.03906 0.43 0.1512 0.0
C764 C 0.01414 0.52656 0.13511 0.0
C765 C 0.97353 0.50171 0.12282 0.0
C766 C 0.03168 0.57502 0.13922 0.0
C767 C 0.07217 0.60202 0.15359 0.0
C768 C 0.07287 0.58445 0.17373 0.0
C769 C 0.11149 0.60936 0.18703 0.0
C770 C 0.14952 0.65212 0.18047 0.0
C771 C 0.14897 0.67011 0.1606 0.0
C772 C 0.11049 0.64529 0.1472 0.0
C773 C 0.89038 0.61942 0.10385 0.0
C774 C 0.88333 0.60861 0.08227 0.0
C775 C 0.92432 0.61418 0.11495 0.0
C776 C 0.95158 0.59849 0.1044 0.0
C777 C 0.95007 0.59575 0.08232 0.0
C778 C 0.91574 0.60029 0.07134 0.0
C779 C 0.97126 0.5734 0.11617 0.0
C780 C 0.01011 0.59802 0.12948 0.0
C781 C 0.95154 0.52431 0.1136 0.0
C782 C 0.90833 0.49584 0.10101 0.0
C783 C 0.90985 0.47152 0.08304 0.0
C784 C 0.86935 0.44537 0.07094 0.0
C785 C 0.82706 0.44307 0.07675 0.0
C786 C 0.82514 0.46672 0.09473 0.0
C787 C 0.86554 0.493 0.10686 0.0
H788 H 0.79575 0.42294 0.06734 0.0
H789 H 0.17941 0.67133 0.19079 0.0
H790 H 0.36992 0.85376 0.46745 0.0
H791 H 0.45197 0.88898 0.45691 0.0
H792 H 0.4677 0.02715 0.46282 0.0
H793 H 0.38511 0.99178 0.47406 0.0
H794 H 0.48488 0.93708 0.42162 0.0
H795 H 0.57868 0.10461 0.47339 0.0
H796 H 0.57484 0.1278 0.51011 0.0
H797 H 0.52386 0.98623 0.53081 0.0
H798 H 0.52651 0.96181 0.49426 0.0
H799 H 0.68212 0.13006 0.37458 0.0
H800 H 0.60921 0.06678 0.38932 0.0
H801 H 0.68791 0.04603 0.43844 0.0
H802 H 0.76067 0.10996 0.42401 0.0
H803 H 0.6271 0.06684 0.45505 0.0
H804 H 0.61967 0.95722 0.40403 0.0
H805 H 0.62247 0.92685 0.3688 0.0
H806 H 0.50475 0.94097 0.3492 0.0
H807 H 0.50166 0.9721 0.38421 0.0
C808 C 0.39114 0.89172 0.46723 0.0
C809 C 0.37126 0.92015 0.47167 0.0
C810 C 0.43796 0.91173 0.46101 0.0
C811 C 0.4658 0.96055 0.45904 0.0
C812 C 0.44681 0.98932 0.46446 0.0
C813 C 0.39973 0.9692 0.47081 0.0
C814 C 0.51286 0.98081 0.44919 0.0
C815 C 0.51614 0.96523 0.42896 0.0
C816 C 0.5536 0.01661 0.45903 0.0
C817 C 0.5526 0.03137 0.48106 0.0
C818 C 0.56677 0.07845 0.48578 0.0
C819 C 0.56473 0.09181 0.50654 0.0
C820 C 0.54938 0.05866 0.52275 0.0
C821 C 0.53572 0.0119 0.51823 0.0
C822 C 0.53721 -0.00179 0.49749 0.0
C823 C 0.68414 0.11051 0.38788 0.0
C824 C 0.72698 0.12529 0.39834 0.0
C825 C 0.64234 0.0744 0.39639 0.0
C826 C 0.64313 0.05223 0.41519 0.0
C827 C 0.68652 0.06308 0.42407 0.0
C828 C 0.72817 0.09927 0.41565 0.0
C829 C 0.59908 0.02368 0.4272 0.0
C830 C 0.59617 0.03807 0.44781 0.0
C831 C 0.55889 0.9859 0.41789 0.0
C832 C 0.56065 0.96731 0.39674 0.0
C833 C 0.59462 0.95422 0.39216 0.0
C834 C 0.59621 0.9368 0.37223 0.0
C835 C 0.56386 0.93206 0.35676 0.0
C836 C 0.5298 0.94467 0.3612 0.0
C837 C 0.52807 0.96215 0.3811 0.0
H838 H 0.56514 0.91854 0.34134 0.0
H839 H 0.54799 0.06922 0.53879 0.0
H840 H 0.18221 0.13952 0.86224 0.0
H841 H 0.16805 0.15468 0.89844 0.0
H842 H 0.31728 0.24558 0.90747 0.0
H843 H 0.33195 0.22916 0.87144 0.0
H844 H 0.27895 0.19098 0.94133 0.0
H845 H 0.24389 0.29078 0.89958 0.0
H846 H 0.20602 0.31061 0.87097 0.0
H847 H 0.06978 0.21623 0.89704 0.0
H848 H 0.10683 0.19533 0.92566 0.0
H849 H 0.25249 0.29356 0.0366 0.0
H850 H 0.27264 0.27909 1.00133 0.0
H851 H 0.1252 0.18937 0.98752 0.0
H852 H 0.10474 0.20419 0.0226 0.0
H853 H 0.16645 0.24732 0.95595 0.0
H854 H 0.20247 0.1462 0.99738 0.0
H855 H 0.24134 0.1276 0.026 0.0
H856 H 0.37692 0.22619 1.0006 0.0
H857 H 0.33884 0.24583 0.97197 0.0
C858 C 0.21215 0.16234 0.87195 0.0
C859 C 0.25826 0.18315 0.86381 0.0
C860 C 0.20393 0.1714 0.89263 0.0
C861 C 0.24152 0.20184 0.90567 0.0
C862 C 0.28765 0.22216 0.89773 0.0
C863 C 0.29594 0.21306 0.87702 0.0
C864 C 0.23252 0.21233 0.92755 0.0
C865 C 0.25483 0.20392 0.9445 0.0
C866 C 0.20053 0.22855 0.9318 0.0
C867 C 0.17814 0.24117 0.91466 0.0
C868 C 0.20584 0.27399 0.89912 0.0
C869 C 0.18452 0.28547 0.88292 0.0
C870 C 0.13552 0.26461 0.88216 0.0
C871 C 0.10773 0.23232 0.89763 0.0
C872 C 0.12888 0.22068 0.91386 0.0
C873 C 0.22429 0.27025 0.02619 0.0
C874 C 0.17687 0.25055 0.03248 0.0
C875 C 0.23592 0.26198 1.00596 0.0
C876 C 0.20049 0.23296 0.99167 0.0
C877 C 0.15324 0.21221 0.99812 0.0
C878 C 0.14158 0.2208 0.01824 0.0
C879 C 0.21222 0.2252 0.9698 0.0
C880 C 0.19056 0.23436 0.9528 0.0
C881 C 0.2449 0.20981 0.96554 0.0
C882 C 0.2678 0.19781 0.98266 0.0
C883 C 0.24057 0.16415 0.99799 0.0
C884 C 0.26246 0.15338 1.01419 0.0
C885 C 0.31156 0.17579 1.01515 0.0
C886 C 0.33889 0.20891 0.99986 0.0
C887 C 0.31717 0.21984 0.98363 0.0
H888 H 0.32844 0.16741 0.02771 0.0
H889 H 0.11908 0.27354 0.8696 0.0
H890 H 0.93246 0.33106 0.35747 0.0
H891 H 0.97414 0.34194 0.3243 0.0
H892 H 0.91974 0.19231 0.31999 0.0
H893 H 0.88007 0.1817 0.35424 0.0
H894 H 0.00504 0.23464 0.30548 0.0
H895 H 0.8711 0.2499 0.2843 0.0
H896 H 0.81386 0.27783 0.28676 0.0
H897 H 0.92711 0.42084 0.28854 0.0
H898 H 0.9849 0.3937 0.28507 0.0
H899 H 0.07816 0.28093 0.19432 0.0
H900 H 0.03158 0.24881 0.22676 0.0
H901 H 0.08799 0.38928 0.25134 0.0
H902 H 0.13417 0.4214 0.21948 0.0
H903 H 0.99081 0.33789 0.25251 0.0
H904 H 0.12417 0.3173 0.27029 0.0
H905 H 0.17688 0.28473 0.26461 0.0
H906 H 0.05871 0.14455 0.26797 0.0
H907 H 0.0052 0.17633 0.2734 0.0
C908 C 0.92953 0.30046 0.34951 0.0
C909 C 0.90272 0.25549 0.35831 0.0
C910 C 0.95295 0.30662 0.33037 0.0
C911 C 0.94871 0.26779 0.31909 0.0
C912 C 0.92316 0.22282 0.32821 0.0
C913 C 0.90058 0.21676 0.34777 0.0
C914 C 0.97138 0.27497 0.29793 0.0
C915 C 0.00119 0.25646 0.29374 0.0
C916 C 0.96656 0.30328 0.28242 0.0
C917 C 0.93215 0.31979 0.2846 0.0
C918 C 0.88369 0.28729 0.28523 0.0
C919 C 0.85119 0.303 0.28668 0.0
C920 C 0.86685 0.35112 0.28794 0.0
C921 C 0.91504 0.3836 0.28757 0.0
C922 C 0.94764 0.36812 0.28557 0.0
C923 C 0.08098 0.30486 0.20675 0.0
C924 C 0.10964 0.35377 0.20416 0.0
C925 C 0.05442 0.28645 0.22528 0.0
C926 C 0.05623 0.31672 0.24143 0.0
C927 C 0.08582 0.36529 0.23905 0.0
C928 C 0.11227 0.38358 0.22073 0.0
C929 C 0.02566 0.29902 0.26041 0.0
C930 C 0.99411 0.31544 0.26411 0.0
C931 C 0.0284 0.26816 0.27515 0.0
C932 C 0.06064 0.24918 0.272 0.0
C933 C 0.10938 0.27954 0.26963 0.0
C934 C 0.13941 0.26122 0.2665 0.0
C935 C 0.12114 0.2126 0.26586 0.0
C936 C 0.07281 0.1822 0.26843 0.0
C937 C 0.04263 0.20034 0.27155 0.0
H938 H 0.14444 0.19849 0.26343 0.0
H939 H 0.84175 0.36332 0.28905 0.0
H940 H 0.75715 0.00181 0.70724 0.0
H941 H 0.7672 0.03674 0.67222 0.0
H942 H 0.68093 0.89896 0.64539 0.0
H943 H 0.67045 0.86375 0.68042 0.0
H944 H 0.8105 0.02202 0.63938 0.0
H945 H 0.62515 0.90962 0.60208 0.0
H946 H 0.54114 0.87709 0.61101 0.0
H947 H 0.57845 0.98006 0.65999 0.0
H948 H 0.66262 0.01281 0.65152 0.0
H949 H 0.83874 0.04658 0.52915 0.0
H950 H 0.81471 0.01262 0.56424 0.0
H951 H 0.73169 0.08048 0.57155 0.0
H952 H 0.75251 0.11169 0.53589 0.0
H953 H 0.68591 -0.00288 0.58825 0.0
H954 H 0.84375 0.12592 0.59374 0.0
H955 H 0.92809 0.17247 0.58465 0.0
H956 H 0.94712 0.05633 0.60152 0.0
H957 H 0.86273 0.00887 0.61045 0.0
C958 C 0.73957 0.97896 0.69397 0.0
C959 C 0.71327 0.92991 0.69666 0.0
C960 C 0.74553 -0.00101 0.67392 0.0
C961 C 0.7248 0.97056 0.65614 0.0
C962 C 0.69704 0.92171 0.65886 0.0
C963 C 0.69151 0.90158 0.67888 0.0
C964 C 0.73581 0.99144 0.6346 0.0
C965 C 0.78319 0.01663 0.62823 0.0
C966 C 0.7004 0.98515 0.62008 0.0
C967 C 0.65018 0.96332 0.6263 0.0
C968 C 0.6154 0.92503 0.61488 0.0
C969 C 0.56777 0.90657 0.61986 0.0
C970 C 0.55448 0.92652 0.63605 0.0
C971 C 0.58881 0.96463 0.64746 0.0
C972 C 0.6365 0.98285 0.64271 0.0
C973 C 0.81448 0.05351 0.53795 0.0
C974 C 0.79797 0.08235 0.52955 0.0
C975 C 0.80127 0.03452 0.55823 0.0
C976 C 0.77196 0.04458 0.5708 0.0
C977 C 0.75433 0.07217 0.56226 0.0
C978 C 0.76692 0.09061 0.54188 0.0
C979 C 0.76053 0.02728 0.59297 0.0
C980 C 0.71317 0.00254 0.59941 0.0
C981 C 0.79604 0.03517 0.60778 0.0
C982 C 0.84686 0.06373 0.60259 0.0
C983 C 0.86587 0.11023 0.59539 0.0
C984 C 0.91369 0.13678 0.59028 0.0
C985 C 0.94292 0.11733 0.59247 0.0
C986 C 0.92442 0.07133 0.59982 0.0
C987 C 0.87662 0.0446 0.60492 0.0
H988 H 0.97993 0.13794 0.5885 0.0
H989 H 0.5176 0.91253 0.63975 0.0
H990 H 0.73247 0.77999 0.85644 0.0
H991 H 0.76353 0.76657 0.88945 0.0
H992 H 0.64143 0.74996 0.92294 0.0
H993 H 0.60956 0.76145 0.89004 0.0
H994 H 0.74534 0.81026 0.94277 0.0
H995 H 0.62551 0.65749 0.91223 0.0
H996 H 0.59665 0.60367 0.88174 0.0
H997 H 0.72825 0.60489 0.8784 0.0
H998 H 0.75816 0.65944 0.90864 0.0
H999 H 0.73199 0.69754 0.03953 0.0
H1000 H 0.72034 0.7285 1.00647 0.0
H1001 H 0.78339 0.65969 0.97222 0.0
H1002 H 0.79083 0.62534 1.00516 0.0
H1003 H 0.71782 0.64806 0.95068 0.0
H1004 H 0.83768 0.7889 0.98178 0.0
H1005 H 0.8778 0.84966 1.00904 0.0
H1006 H 0.76413 0.87945 1.00875 0.0
H1007 H 0.72302 0.81844 0.98167 0.0
C1008 C 0.71291 0.77453 0.87096 0.0
C1009 C 0.66872 0.77181 0.87075 0.0
C1010 C 0.73055 0.76676 0.88974 0.0
C1011 C 0.70474 0.75739 0.9086 0.0
C1012 C 0.66196 0.75741 0.90859 0.0
C1013 C 0.64379 0.76387 0.88979 0.0
C1014 C 0.71961 0.74296 0.92794 0.0
C1015 C 0.7393 0.77482 0.94467 0.0
C1016 C 0.71312 0.69728 0.93003 0.0
C1017 C 0.69426 0.66296 0.91248 0.0
C1018 C 0.64838 0.64653 0.90489 0.0
C1019 C 0.63184 0.6159 0.88766 0.0
C1020 C 0.66074 0.60114 0.87805 0.0
C1021 C 0.706 0.61653 0.8858 0.0
C1022 C 0.72275 0.64727 0.90298 0.0
C1023 C 0.7438 0.68959 0.02492 0.0
C1024 C 0.76262 0.65942 0.02486 0.0
C1025 C 0.7375 0.7076 1.00596 0.0
C1026 C 0.75186 0.69754 0.9866 0.0
C1027 C 0.77179 0.66814 0.98675 0.0
C1028 C 0.7764 0.64873 1.00561 0.0
C1029 C 0.74371 0.71528 0.96615 0.0
C1030 C 0.72483 0.68388 0.94906 0.0
C1031 C 0.75249 0.76201 0.96355 0.0
C1032 C 0.7771 0.79881 0.97982 0.0
C1033 C 0.8211 0.8082 0.98763 0.0
C1034 C 0.84404 0.84271 1.00303 0.0
C1035 C 0.82348 0.86832 1.01065 0.0
C1036 C 0.77999 0.85955 1.00284 0.0
C1037 C 0.75689 0.82505 0.98745 0.0
H1038 H 0.84129 0.89502 0.02258 0.0
H1039 H 0.64807 0.57772 0.86461 0.0
H1040 H 0.014 0.77745 0.37569 0.0
H1041 H 0.97592 0.75381 0.34124 0.0
H1042 H 0.11109 0.83159 0.31064 0.0
H1043 H 0.14941 0.85487 0.34479 0.0
H1044 H 0.04648 0.84989 0.29325 0.0
H1045 H 0.05561 0.71375 0.31368 0.0
H1046 H 0.04242 0.64914 0.33759 0.0
H1047 H 0.89289 0.59194 0.33297 0.0
H1048 H 0.9052 0.65682 0.30937 0.0
H1049 H 0.98482 0.77115 0.18907 0.0
H1050 H 0.02009 0.7853 0.22401 0.0
H1051 H 0.8828 0.69883 0.25167 0.0
H1052 H 0.84738 0.68242 0.21658 0.0
H1053 H 0.94612 0.68378 0.27116 0.0
H1054 H 0.93618 0.81982 0.25174 0.0
H1055 H 0.94838 0.88592 0.22904 0.0
H1056 H 0.09815 0.94381 0.23263 0.0
H1057 H 0.08682 0.8777 0.25514 0.0
C1058 C 0.03581 0.78906 0.36167 0.0
C1059 C 0.08503 0.81812 0.36318 0.0
C1060 C 0.01388 0.77559 0.34196 0.0
C1061 C 0.04068 0.79073 0.32335 0.0
C1062 C 0.08965 0.81962 0.32478 0.0
C1063 C 0.11154 0.83303 0.34441 0.0
C1064 C 0.01787 0.7775 0.3023 0.0
C1065 C 0.02502 0.81356 0.28833 0.0
C1066 C 0.98885 0.73008 0.2961 0.0
C1067 C 0.98135 0.69046 0.30992 0.0
C1068 C 0.01991 0.6876 0.31787 0.0
C1069 C 0.0126 0.65091 0.33137 0.0
C1070 C 0.96685 0.61653 0.33684 0.0
C1071 C 0.92831 0.61866 0.32875 0.0
C1072 C 0.93544 0.65539 0.31531 0.0
C1073 C 0.96208 0.75436 0.20249 0.0
C1074 C 0.91309 0.72589 0.19992 0.0
C1075 C 0.98231 0.76295 0.22254 0.0
C1076 C 0.95403 0.7439 0.24056 0.0
C1077 C 0.90534 0.71422 0.23804 0.0
C1078 C 0.88508 0.7053 0.21795 0.0
C1079 C 0.97514 0.75627 0.26201 0.0
C1080 C 0.96758 0.7201 0.27608 0.0
C1081 C 0.0037 0.80366 0.26841 0.0
C1082 C 0.01062 0.84358 0.25496 0.0
C1083 C 0.9717 0.84648 0.24757 0.0
C1084 C 0.97847 0.88397 0.23475 0.0
C1085 C 0.02401 0.91898 0.22935 0.0
C1086 C 0.06289 0.91664 0.23681 0.0
C1087 C 0.05632 0.87919 0.24961 0.0
H1088 H 0.02917 0.94798 0.21943 0.0
H1089 H 0.96126 0.58818 0.3473 0.0
H1090 H 0.40107 0.09465 0.68136 0.0
H1091 H 0.37144 0.05694 0.64761 0.0
H1092 H 0.24415 0.06317 0.65711 0.0
H1093 H 0.27354 0.10054 0.69172 0.0
H1094 H 0.22521 0.98 0.63979 0.0
H1095 H 0.33018 0.14026 0.62408 0.0
H1096 H 0.40307 0.21721 0.62535 0.0
H1097 H 0.48083 0.15622 0.59853 0.0
H1098 H 0.40887 0.07854 0.59777 0.0
H1099 H 0.18806 0.90654 0.5291 0.0
H1100 H 0.19638 0.95329 0.56087 0.0
H1101 H 0.32588 0.9558 0.57601 0.0
H1102 H 0.31777 0.90922 0.54479 0.0
H1103 H 0.33197 0.0445 0.57804 0.0
H1104 H 0.2301 0.88301 0.60133 0.0
H1105 H 0.15761 0.80565 0.60002 0.0
H1106 H 0.07422 0.87122 0.61143 0.0
H1107 H 0.14629 0.9491 0.61252 0.0
C1108 C 0.36673 0.08821 0.67639 0.0
C1109 C 0.33992 0.10127 0.68916 0.0
C1110 C 0.34989 0.0667 0.65696 0.0
C1111 C 0.30614 0.05838 0.6495 0.0
C1112 C 0.27829 0.06978 0.66245 0.0
C1113 C 0.29507 0.09108 0.6822 0.0
C1114 C 0.2904 0.03755 0.62817 0.0
C1115 C 0.24801 0.99474 0.62616 0.0
C1116 C 0.32023 0.05662 0.61033 0.0
C1117 C 0.36395 0.10337 0.61095 0.0
C1118 C 0.36289 0.14308 0.61867 0.0
C1119 C 0.40412 0.18685 0.61933 0.0
C1120 C 0.4466 0.19155 0.61211 0.0
C1121 C 0.44798 0.15246 0.60425 0.0
C1122 C 0.40695 0.10854 0.60369 0.0
C1123 C 0.21827 0.91713 0.53922 0.0
C1124 C 0.25217 0.90405 0.53443 0.0
C1125 C 0.22289 0.94369 0.55736 0.0
C1126 C 0.26178 0.95799 0.57076 0.0
C1127 C 0.29569 0.94526 0.56585 0.0
C1128 C 0.29082 0.91838 0.54801 0.0
C1129 C 0.26807 0.98625 0.59002 0.0
C1130 C 0.30869 0.03053 0.59157 0.0
C1131 C 0.23667 0.96864 0.60734 0.0
C1132 C 0.19347 0.92189 0.60671 0.0
C1133 C 0.19627 0.88096 0.60335 0.0
C1134 C 0.15528 0.83702 0.60269 0.0
C1135 C 0.11132 0.83353 0.60556 0.0
C1136 C 0.10829 0.87398 0.60916 0.0
C1137 C 0.14918 0.91803 0.6098 0.0
H1138 H 0.07962 0.79948 0.60506 0.0
H1139 H 0.47842 0.22551 0.61251 0.0
loop_
_geom_bond_atom_site_label_1
_geom_bond_atom_site_label_2
_geom_bond_distance
_geom_bond_site_symmetry_2
_ccdc_geom_bond_type
La0 C2 2.928 . S
La0 O20 2.521 . S
La0 O21 2.628 . S
La0 O22 2.554 . S
La0 O23 2.757 . S
La0 O24 2.470 . S
La0 O29 2.482 . S
La0 O31 2.503 . S
La1 C11 2.928 . S
La1 O23 2.482 . S
La1 O25 2.503 . S
La1 O26 2.521 . S
La1 O27 2.628 . S
La1 O28 2.554 . S
La1 O29 2.757 . S
La1 O30 2.470 . S
C2 La0 2.928 . S
C2 C3 1.503 . S
C2 O20 1.261 . S
C2 O21 1.243 . S
C3 C2 1.503 . S
C3 C4 1.394 . S
C3 C8 1.373 . S
C4 C3 1.394 . S
C4 C5 1.380 . S
C4 H32 0.930 . S
C5 C4 1.380 . S
C5 C6 1.376 . S
C5 H33 0.930 . S
C6 C5 1.376 . S
C6 C7 1.370 . S
C7 C6 1.370 . S
C7 C8 1.396 . S
C7 H34 0.929 . S
C8 C3 1.373 . S
C8 C7 1.396 . S
C8 H35 0.929 . S
C9 O22 1.240 . S
C9 O23 1.289 . S
C10 O24 1.258 . S
C10 O25 1.256 . S
C11 La1 2.928 . S
C11 C12 1.503 . S
C11 O26 1.261 . S
C11 O27 1.243 . S
C12 C11 1.503 . S
C12 C13 1.394 . S
C12 C17 1.373 . S
C13 C12 1.394 . S
C13 C14 1.380 . S
C13 H36 0.930 . S
C14 C13 1.380 . S
C14 C15 1.376 . S
C14 H37 0.930 . S
C15 C14 1.376 . S
C15 C16 1.370 . S
C16 C15 1.370 . S
C16 C17 1.396 . S
C16 H38 0.929 . S
C17 C12 1.373 . S
C17 C16 1.396 . S
C17 H39 0.929 . S
C18 O28 1.240 . S
C18 O29 1.289 . S
C19 O30 1.258 . S
C19 O31 1.256 . S
O20 La0 2.521 . S
O20 C2 1.261 . S
O21 La0 2.628 . S
O21 C2 1.243 . S
O22 La0 2.554 . S
O22 C9 1.240 . S
O23 La0 2.757 . S
O23 La1 2.482 . S
O23 C9 1.289 . S
O24 La0 2.470 . S
O24 C10 1.258 . S
O25 La1 2.503 . S
O25 C10 1.256 . S
O26 La1 2.521 . S
O26 C11 1.261 . S
O27 La1 2.628 . S
O27 C11 1.243 . S
O28 La1 2.554 . S
O28 C18 1.240 . S
O29 La0 2.482 . S
O29 La1 2.757 . S
O29 C18 1.289 . S
O30 La1 2.470 . S
O30 C19 1.258 . S
O31 La0 2.503 . S
O31 C19 1.256 . S
H32 C4 0.930 . S
H33 C5 0.930 . S
H34 C7 0.929 . S
H35 C8 0.929 . S
H36 C13 0.930 . S
H37 C14 0.930 . S
H38 C16 0.929 . S
H39 C17 0.929 . S
La40 C42 2.928 . S
La40 O60 2.521 . S
La40 O61 2.628 . S
La40 O62 2.554 . S
La40 O63 2.757 . S
La40 O64 2.470 . S
La40 O69 2.482 . S
La40 O71 2.503 . S
La41 C51 2.928 . S
La41 O63 2.482 . S
La41 O65 2.503 . S
La41 O66 2.521 . S
La41 O67 2.628 . S
La41 O68 2.554 . S
La41 O69 2.757 . S
La41 O70 2.470 . S
C42 La40 2.928 . S
C42 C43 1.503 . S
C42 O60 1.261 . S
C42 O61 1.243 . S
C43 C42 1.503 . S
C43 C44 1.394 . S
C43 C48 1.373 . S
C44 C43 1.394 . S
C44 C45 1.380 . S
C44 H72 0.930 . S
C45 C44 1.380 . S
C45 C46 1.376 . S
C45 H73 0.930 . S
C46 C45 1.376 . S
C46 C47 1.370 . S
C47 C46 1.370 . S
C47 C48 1.396 . S
C47 H74 0.929 . S
C48 C43 1.373 . S
C48 C47 1.396 . S
C48 H75 0.929 . S
C49 O62 1.240 . S
C49 O63 1.289 . S
C50 O64 1.258 . S
C50 O65 1.256 . S
C51 La41 2.928 . S
C51 C52 1.503 . S
C51 O66 1.261 . S
C51 O67 1.243 . S
C52 C51 1.503 . S
C52 C53 1.394 . S
C52 C57 1.373 . S
C53 C52 1.394 . S
C53 C54 1.380 . S
C53 H76 0.930 . S
C54 C53 1.380 . S
C54 C55 1.376 . S
C54 H77 0.930 . S
C55 C54 1.376 . S
C55 C56 1.370 . S
C56 C55 1.370 . S
C56 C57 1.396 . S
C56 H78 0.929 . S
C57 C52 1.373 . S
C57 C56 1.396 . S
C57 H79 0.929 . S
C58 O68 1.240 . S
C58 O69 1.289 . S
C59 O70 1.258 . S
C59 O71 1.256 . S
O60 La40 2.521 . S
O60 C42 1.261 . S
O61 La40 2.628 . S
O61 C42 1.243 . S
O62 La40 2.554 . S
O62 C49 1.240 . S
O63 La40 2.757 . S
O63 La41 2.482 . S
O63 C49 1.289 . S
O64 La40 2.470 . S
O64 C50 1.258 . S
O65 La41 2.503 . S
O65 C50 1.256 . S
O66 La41 2.521 . S
O66 C51 1.261 . S
O67 La41 2.628 . S
O67 C51 1.243 . S
O68 La41 2.554 . S
O68 C58 1.240 . S
O69 La40 2.482 . S
O69 La41 2.757 . S
O69 C58 1.289 . S
O70 La41 2.470 . S
O70 C59 1.258 . S
O71 La40 2.503 . S
O71 C59 1.256 . S
H72 C44 0.930 . S
H73 C45 0.930 . S
H74 C47 0.929 . S
H75 C48 0.929 . S
H76 C53 0.930 . S
H77 C54 0.930 . S
H78 C56 0.929 . S
H79 C57 0.929 . S
La80 C82 2.928 . S
La80 O100 2.521 . S
La80 O101 2.628 . S
La80 O102 2.554 . S
La80 O103 2.757 . S
La80 O104 2.470 . S
La80 O109 2.482 . S
La80 O111 2.503 . S
La81 C91 2.928 . S
La81 O103 2.482 . S
La81 O105 2.503 . S
La81 O106 2.521 . S
La81 O107 2.628 . S
La81 O108 2.554 . S
La81 O109 2.757 . S
La81 O110 2.470 . S
C82 La80 2.928 . S
C82 C83 1.503 . S
C82 O100 1.261 . S
C82 O101 1.243 . S
C83 C82 1.503 . S
C83 C84 1.394 . S
C83 C88 1.373 . S
C84 C83 1.394 . S
C84 C85 1.380 . S
C84 H112 0.930 . S
C85 C84 1.380 . S
C85 C86 1.376 . S
C85 H113 0.930 . S
C86 C85 1.376 . S
C86 C87 1.370 . S
C87 C86 1.370 . S
C87 C88 1.396 . S
C87 H114 0.929 . S
C88 C83 1.373 . S
C88 C87 1.396 . S
C88 H115 0.929 . S
C89 O102 1.240 . S
C89 O103 1.289 . S
C90 O104 1.258 . S
C90 O105 1.256 . S
C91 La81 2.928 . S
C91 C92 1.503 . S
C91 O106 1.261 . S
C91 O107 1.243 . S
C92 C91 1.503 . S
C92 C93 1.394 . S
C92 C97 1.373 . S
C93 C92 1.394 . S
C93 C94 1.380 . S
C93 H116 0.930 . S
C94 C93 1.380 . S
C94 C95 1.376 . S
C94 H117 0.930 . S
C95 C94 1.376 . S
C95 C96 1.370 . S
C96 C95 1.370 . S
C96 C97 1.396 . S
C96 H118 0.929 . S
C97 C92 1.373 . S
C97 C96 1.396 . S
C97 H119 0.929 . S
C98 O108 1.240 . S
C98 O109 1.289 . S
C99 O110 1.258 . S
C99 O111 1.256 . S
O100 La80 2.521 . S
O100 C82 1.261 . S
O101 La80 2.628 . S
O101 C82 1.243 . S
O102 La80 2.554 . S
O102 C89 1.240 . S
O103 La80 2.757 . S
O103 La81 2.482 . S
O103 C89 1.289 . S
O104 La80 2.470 . S
O104 C90 1.258 . S
O105 La81 2.503 . S
O105 C90 1.256 . S
O106 La81 2.521 . S
O106 C91 1.261 . S
O107 La81 2.628 . S
O107 C91 1.243 . S
O108 La81 2.554 . S
O108 C98 1.240 . S
O109 La80 2.482 . S
O109 La81 2.757 . S
O109 C98 1.289 . S
O110 La81 2.470 . S
O110 C99 1.258 . S
O111 La80 2.503 . S
O111 C99 1.256 . S
H112 C84 0.930 . S
H113 C85 0.930 . S
H114 C87 0.929 . S
H115 C88 0.929 . S
H116 C93 0.930 . S
H117 C94 0.930 . S
H118 C96 0.929 . S
H119 C97 0.929 . S
La120 C122 2.928 . S
La120 O140 2.521 . S
La120 O141 2.628 . S
La120 O142 2.554 . S
La120 O143 2.757 . S
La120 O144 2.470 . S
La120 O149 2.482 . S
La120 O151 2.503 . S
La121 C131 2.928 . S
La121 O143 2.482 . S
La121 O145 2.503 . S
La121 O146 2.521 . S
La121 O147 2.628 . S
La121 O148 2.554 . S
La121 O149 2.757 . S
La121 O150 2.470 . S
C122 La120 2.928 . S
C122 C123 1.503 1_554 S
C122 O140 1.261 . S
C122 O141 1.243 . S
C123 C122 1.503 1_556 S
C123 C124 1.394 . S
C123 C128 1.373 . S
C124 C123 1.394 . S
C124 C125 1.380 . S
C124 H152 0.930 . S
C125 C124 1.380 . S
C125 C126 1.376 . S
C125 H153 0.930 . S
C126 C125 1.376 . S
C126 C127 1.370 . S
C127 C126 1.370 . S
C127 C128 1.396 . S
C127 H154 0.929 . S
C128 C123 1.373 . S
C128 C127 1.396 . S
C128 H155 0.929 . S
C129 O142 1.240 . S
C129 O143 1.289 . S
C130 O144 1.258 . S
C130 O145 1.256 . S
C131 La121 2.928 . S
C131 C132 1.503 . S
C131 O146 1.261 . S
C131 O147 1.243 . S
C132 C131 1.503 . S
C132 C133 1.394 . S
C132 C137 1.373 . S
C133 C132 1.394 . S
C133 C134 1.380 . S
C133 H156 0.930 . S
C134 C133 1.380 . S
C134 C135 1.376 . S
C134 H157 0.930 . S
C135 C134 1.376 . S
C135 C136 1.370 . S
C136 C135 1.370 . S
C136 C137 1.396 . S
C136 H158 0.929 . S
C137 C132 1.373 . S
C137 C136 1.396 . S
C137 H159 0.929 . S
C138 O148 1.240 . S
C138 O149 1.289 . S
C139 O150 1.258 . S
C139 O151 1.256 . S
O140 La120 2.521 . S
O140 C122 1.261 . S
O141 La120 2.628 . S
O141 C122 1.243 . S
O142 La120 2.554 . S
O142 C129 1.240 . S
O143 La120 2.757 . S
O143 La121 2.482 . S
O143 C129 1.289 . S
O144 La120 2.470 . S
O144 C130 1.258 . S
O145 La121 2.503 . S
O145 C130 1.256 . S
O146 La121 2.521 . S
O146 C131 1.261 . S
O147 La121 2.628 . S
O147 C131 1.243 . S
O148 La121 2.554 . S
O148 C138 1.240 . S
O149 La120 2.482 . S
O149 La121 2.757 . S
O149 C138 1.289 . S
O150 La121 2.470 . S
O150 C139 1.258 . S
O151 La120 2.503 . S
O151 C139 1.256 . S
H152 C124 0.930 . S
H153 C125 0.930 . S
H154 C127 0.929 . S
H155 C128 0.929 . S
H156 C133 0.930 . S
H157 C134 0.930 . S
H158 C136 0.929 . S
H159 C137 0.929 . S
La160 C162 2.928 . S
La160 O180 2.521 . S
La160 O181 2.628 . S
La160 O182 2.554 . S
La160 O183 2.757 . S
La160 O184 2.470 . S
La160 O189 2.482 . S
La160 O191 2.503 . S
La161 C171 2.928 . S
La161 O183 2.482 . S
La161 O185 2.503 . S
La161 O186 2.521 . S
La161 O187 2.628 . S
La161 O188 2.554 . S
La161 O189 2.757 . S
La161 O190 2.470 . S
C162 La160 2.928 . S
C162 C163 1.503 . S
C162 O180 1.261 . S
C162 O181 1.243 . S
C163 C162 1.503 . S
C163 C164 1.394 . S
C163 C168 1.373 . S
C164 C163 1.394 . S
C164 C165 1.380 . S
C164 H192 0.930 . S
C165 C164 1.380 . S
C165 C166 1.376 . S
C165 H193 0.930 . S
C166 C165 1.376 . S
C166 C167 1.370 . S
C167 C166 1.370 . S
C167 C168 1.396 . S
C167 H194 0.929 . S
C168 C163 1.373 . S
C168 C167 1.396 . S
C168 H195 0.929 . S
C169 O182 1.240 . S
C169 O183 1.289 . S
C170 O184 1.258 . S
C170 O185 1.256 . S
C171 La161 2.928 . S
C171 C172 1.503 . S
C171 O186 1.261 . S
C171 O187 1.243 . S
C172 C171 1.503 . S
C172 C173 1.394 . S
C172 C177 1.373 . S
C173 C172 1.394 . S
C173 C174 1.380 . S
C173 H196 0.930 . S
C174 C173 1.380 . S
C174 C175 1.376 . S
C174 H197 0.930 . S
C175 C174 1.376 . S
C175 C176 1.370 . S
C176 C175 1.370 . S
C176 C177 1.396 . S
C176 H198 0.929 . S
C177 C172 1.373 . S
C177 C176 1.396 . S
C177 H199 0.929 . S
C178 O188 1.240 . S
C178 O189 1.289 . S
C179 O190 1.258 . S
C179 O191 1.256 . S
O180 La160 2.521 . S
O180 C162 1.261 . S
O181 La160 2.628 . S
O181 C162 1.243 . S
O182 La160 2.554 . S
O182 C169 1.240 . S
O183 La160 2.757 . S
O183 La161 2.482 . S
O183 C169 1.289 . S
O184 La160 2.470 . S
O184 C170 1.258 . S
O185 La161 2.503 . S
O185 C170 1.256 . S
O186 La161 2.521 . S
O186 C171 1.261 . S
O187 La161 2.628 . S
O187 C171 1.243 . S
O188 La161 2.554 . S
O188 C178 1.240 . S
O189 La160 2.482 . S
O189 La161 2.757 . S
O189 C178 1.289 . S
O190 La161 2.470 . S
O190 C179 1.258 . S
O191 La160 2.503 . S
O191 C179 1.256 . S
H192 C164 0.930 . S
H193 C165 0.930 . S
H194 C167 0.929 . S
H195 C168 0.929 . S
H196 C173 0.930 . S
H197 C174 0.930 . S
H198 C176 0.929 . S
H199 C177 0.929 . S
La200 C202 2.928 . S
La200 O220 2.521 . S
La200 O221 2.628 . S
La200 O222 2.554 . S
La200 O223 2.757 . S
La200 O224 2.470 . S
La200 O229 2.482 . S
La200 O231 2.503 . S
La201 C211 2.928 . S
La201 O223 2.482 . S
La201 O225 2.503 . S
La201 O226 2.521 . S
La201 O227 2.628 . S
La201 O228 2.554 . S
La201 O229 2.757 . S
La201 O230 2.470 . S
C202 La200 2.928 . S
C202 C203 1.503 . S
C202 O220 1.261 . S
C202 O221 1.243 . S
C203 C202 1.503 . S
C203 C204 1.394 . S
C203 C208 1.373 . S
C204 C203 1.394 . S
C204 C205 1.380 . S
C204 H232 0.930 . S
C205 C204 1.380 . S
C205 C206 1.376 . S
C205 H233 0.930 . S
C206 C205 1.376 . S
C206 C207 1.370 . S
C207 C206 1.370 . S
C207 C208 1.396 . S
C207 H234 0.929 . S
C208 C203 1.373 . S
C208 C207 1.396 . S
C208 H235 0.929 . S
C209 O222 1.240 . S
C209 O223 1.289 . S
C210 O224 1.258 . S
C210 O225 1.256 . S
C211 La201 2.928 . S
C211 C212 1.503 . S
C211 O226 1.261 . S
C211 O227 1.243 . S
C212 C211 1.503 . S
C212 C213 1.394 . S
C212 C217 1.373 . S
C213 C212 1.394 . S
C213 C214 1.380 . S
C213 H236 0.930 . S
C214 C213 1.380 . S
C214 C215 1.376 . S
C214 H237 0.930 . S
C215 C214 1.376 . S
C215 C216 1.370 . S
C216 C215 1.370 . S
C216 C217 1.396 . S
C216 H238 0.929 . S
C217 C212 1.373 . S
C217 C216 1.396 . S
C217 H239 0.929 . S
C218 O228 1.240 . S
C218 O229 1.289 . S
C219 O230 1.258 . S
C219 O231 1.256 . S
O220 La200 2.521 . S
O220 C202 1.261 . S
O221 La200 2.628 . S
O221 C202 1.243 . S
O222 La200 2.554 . S
O222 C209 1.240 . S
O223 La200 2.757 . S
O223 La201 2.482 . S
O223 C209 1.289 . S
O224 La200 2.470 . S
O224 C210 1.258 . S
O225 La201 2.503 . S
O225 C210 1.256 . S
O226 La201 2.521 . S
O226 C211 1.261 . S
O227 La201 2.628 . S
O227 C211 1.243 . S
O228 La201 2.554 . S
O228 C218 1.240 . S
O229 La200 2.482 . S
O229 La201 2.757 . S
O229 C218 1.289 . S
O230 La201 2.470 . S
O230 C219 1.258 . S
O231 La200 2.503 . S
O231 C219 1.256 . S
H232 C204 0.930 . S
H233 C205 0.930 . S
H234 C207 0.929 . S
H235 C208 0.929 . S
H236 C213 0.930 . S
H237 C214 0.930 . S
H238 C216 0.929 . S
H239 C217 0.929 . S
H240 C258 0.951 . S
H241 C260 0.951 . S
H242 C262 0.950 . S
H243 C263 0.950 . S
H244 C265 0.950 . S
H245 C268 0.950 . S
H246 C269 0.950 . S
H247 C271 0.950 . S
H248 C272 0.950 . S
H249 C273 0.951 . S
H250 C275 0.951 . S
H251 C277 0.950 . S
H252 C278 0.950 . S
H253 C280 0.950 . S
H254 C283 0.950 . S
H255 C284 0.950 . S
H256 C286 0.950 . S
H257 C287 0.950 . S
C258 H240 0.951 . S
C258 C259 1.366 . S
C258 C260 1.388 . S
C259 C258 1.366 . S
C259 C263 1.385 . S
C260 H241 0.951 . S
C260 C258 1.388 . S
C260 C261 1.366 . S
C261 C260 1.366 . S
C261 C262 1.414 . S
C261 C264 1.499 . S
C262 H242 0.950 . S
C262 C261 1.414 . S
C262 C263 1.374 . S
C263 H243 0.950 . S
C263 C259 1.385 . S
C263 C262 1.374 . S
C264 C261 1.499 . S
C264 C265 1.373 . S
C264 C266 1.389 . S
C265 H244 0.950 . S
C265 C264 1.373 . S
C265 C281 1.377 . S
C266 C264 1.389 . S
C266 C267 1.524 . S
C266 C280 1.377 . S
C267 C266 1.524 . S
C267 C268 1.397 . S
C267 C272 1.363 . S
C268 H245 0.950 . S
C268 C267 1.397 . S
C268 C269 1.334 . S
C269 H246 0.950 . S
C269 C268 1.334 . S
C269 C270 1.287 . S
C270 C269 1.287 . S
C270 C271 1.524 . S
C270 H289 0.913 . S
C271 H247 0.950 . S
C271 C270 1.524 . S
C271 C272 1.415 . S
C272 H248 0.950 . S
C272 C267 1.363 . S
C272 C271 1.415 . S
C273 H249 0.951 . S
C273 C274 1.366 . S
C273 C275 1.388 . S
C274 C273 1.366 . S
C274 C278 1.385 . S
C275 H250 0.951 . S
C275 C273 1.388 . S
C275 C276 1.366 . S
C276 C275 1.366 . S
C276 C277 1.414 . S
C276 C279 1.499 . S
C277 H251 0.950 . S
C277 C276 1.414 . S
C277 C278 1.374 . S
C278 H252 0.950 . S
C278 C274 1.385 . S
C278 C277 1.374 . S
C279 C276 1.499 . S
C279 C280 1.373 . S
C279 C281 1.389 . S
C280 H253 0.950 . S
C280 C266 1.377 . S
C280 C279 1.373 . S
C281 C265 1.377 . S
C281 C279 1.389 . S
C281 C282 1.524 . S
C282 C281 1.524 . S
C282 C283 1.397 . S
C282 C287 1.363 . S
C283 H254 0.950 . S
C283 C282 1.397 . S
C283 C284 1.334 . S
C284 H255 0.950 . S
C284 C283 1.334 . S
C284 C285 1.287 . S
C285 C284 1.287 . S
C285 C286 1.524 . S
C285 H288 0.999 . S
C286 H256 0.950 . S
C286 C285 1.524 . S
C286 C287 1.415 . S
C287 H257 0.950 . S
C287 C282 1.363 . S
C287 C286 1.415 . S
H288 C285 0.999 . S
H289 C270 0.913 . S
H290 C308 0.951 . S
H291 C310 0.951 . S
H292 C312 0.950 . S
H293 C313 0.950 . S
H294 C315 0.950 . S
H295 C318 0.950 . S
H296 C319 0.950 . S
H297 C321 0.950 . S
H298 C322 0.950 . S
H299 C323 0.951 . S
H300 C325 0.951 . S
H301 C327 0.950 . S
H302 C328 0.950 . S
H303 C330 0.950 . S
H304 C333 0.950 . S
H305 C334 0.950 . S
H306 C336 0.950 . S
H307 C337 0.950 . S
C308 H290 0.951 . S
C308 C309 1.366 . S
C308 C310 1.388 . S
C309 C308 1.366 . S
C309 C313 1.385 . S
C310 H291 0.951 . S
C310 C308 1.388 . S
C310 C311 1.366 . S
C311 C310 1.366 . S
C311 C312 1.414 . S
C311 C314 1.499 . S
C312 H292 0.950 . S
C312 C311 1.414 . S
C312 C313 1.374 . S
C313 H293 0.950 . S
C313 C309 1.385 . S
C313 C312 1.374 . S
C314 C311 1.499 . S
C314 C315 1.373 . S
C314 C316 1.389 . S
C315 H294 0.950 . S
C315 C314 1.373 . S
C315 C331 1.377 . S
C316 C314 1.389 . S
C316 C317 1.524 . S
C316 C330 1.377 . S
C317 C316 1.524 . S
C317 C318 1.397 . S
C317 C322 1.363 . S
C318 H295 0.950 . S
C318 C317 1.397 . S
C318 C319 1.334 . S
C319 H296 0.950 . S
C319 C318 1.334 . S
C319 C320 1.287 . S
C320 C319 1.287 . S
C320 C321 1.524 . S
C320 H339 0.913 . S
C321 H297 0.950 . S
C321 C320 1.524 . S
C321 C322 1.415 . S
C322 H298 0.950 . S
C322 C317 1.363 . S
C322 C321 1.415 . S
C323 H299 0.951 . S
C323 C324 1.366 . S
C323 C325 1.388 . S
C324 C323 1.366 . S
C324 C328 1.385 . S
C325 H300 0.951 . S
C325 C323 1.388 . S
C325 C326 1.366 . S
C326 C325 1.366 . S
C326 C327 1.414 . S
C326 C329 1.499 . S
C327 H301 0.950 . S
C327 C326 1.414 . S
C327 C328 1.374 . S
C328 H302 0.950 . S
C328 C324 1.385 . S
C328 C327 1.374 . S
C329 C326 1.499 . S
C329 C330 1.373 . S
C329 C331 1.389 . S
C330 H303 0.950 . S
C330 C316 1.377 . S
C330 C329 1.373 . S
C331 C315 1.377 . S
C331 C329 1.389 . S
C331 C332 1.524 . S
C332 C331 1.524 . S
C332 C333 1.397 . S
C332 C337 1.363 . S
C333 H304 0.950 . S
C333 C332 1.397 . S
C333 C334 1.334 . S
C334 H305 0.950 . S
C334 C333 1.334 . S
C334 C335 1.287 . S
C335 C334 1.287 . S
C335 C336 1.524 . S
C335 H338 0.999 . S
C336 H306 0.950 . S
C336 C335 1.524 . S
C336 C337 1.415 . S
C337 H307 0.950 . S
C337 C332 1.363 . S
C337 C336 1.415 . S
H338 C335 0.999 . S
H339 C320 0.913 . S
H340 C358 0.951 . S
H341 C360 0.951 . S
H342 C362 0.950 . S
H343 C363 0.950 . S
H344 C365 0.950 . S
H345 C368 0.950 . S
H346 C369 0.950 . S
H347 C371 0.950 . S
H348 C372 0.950 . S
H349 C373 0.951 . S
H350 C375 0.951 . S
H351 C377 0.950 . S
H352 C378 0.950 . S
H353 C380 0.950 . S
H354 C383 0.950 . S
H355 C384 0.950 . S
H356 C386 0.950 . S
H357 C387 0.950 . S
C358 H340 0.951 . S
C358 C359 1.366 . S
C358 C360 1.388 . S
C359 C358 1.366 . S
C359 C363 1.385 . S
C360 H341 0.951 . S
C360 C358 1.388 . S
C360 C361 1.366 . S
C361 C360 1.366 . S
C361 C362 1.414 . S
C361 C364 1.499 . S
C362 H342 0.950 . S
C362 C361 1.414 . S
C362 C363 1.374 . S
C363 H343 0.950 . S
C363 C359 1.385 . S
C363 C362 1.374 . S
C364 C361 1.499 . S
C364 C365 1.373 . S
C364 C366 1.389 1_554 S
C365 H344 0.950 . S
C365 C364 1.373 . S
C365 C381 1.377 1_554 S
C366 C364 1.389 1_556 S
C366 C367 1.524 . S
C366 C380 1.377 . S
C367 C366 1.524 . S
C367 C368 1.397 1_556 S
C367 C372 1.363 . S
C368 H345 0.950 . S
C368 C367 1.397 1_554 S
C368 C369 1.334 . S
C369 H346 0.950 . S
C369 C368 1.334 . S
C369 C370 1.287 1_554 S
C370 C369 1.287 1_556 S
C370 C371 1.524 . S
C370 H389 0.913 . S
C371 H347 0.950 . S
C371 C370 1.524 . S
C371 C372 1.415 . S
C372 H348 0.950 . S
C372 C367 1.363 . S
C372 C371 1.415 . S
C373 H349 0.951 . S
C373 C374 1.366 . S
C373 C375 1.388 . S
C374 C373 1.366 . S
C374 C378 1.385 . S
C375 H350 0.951 . S
C375 C373 1.388 . S
C375 C376 1.366 . S
C376 C375 1.366 . S
C376 C377 1.414 . S
C376 C379 1.499 . S
C377 H351 0.950 . S
C377 C376 1.414 . S
C377 C378 1.374 . S
C378 H352 0.950 . S
C378 C374 1.385 . S
C378 C377 1.374 . S
C379 C376 1.499 . S
C379 C380 1.373 . S
C379 C381 1.389 . S
C380 H353 0.950 . S
C380 C366 1.377 . S
C380 C379 1.373 . S
C381 C365 1.377 1_556 S
C381 C379 1.389 . S
C381 C382 1.524 . S
C382 C381 1.524 . S
C382 C383 1.397 . S
C382 C387 1.363 1_556 S
C383 H354 0.950 . S
C383 C382 1.397 . S
C383 C384 1.334 . S
C384 H355 0.950 . S
C384 C383 1.334 . S
C384 C385 1.287 . S
C385 C384 1.287 . S
C385 C386 1.524 1_556 S
C385 H388 1.001 . S
C386 H356 0.950 . S
C386 C385 1.524 1_554 S
C386 C387 1.415 . S
C387 H357 0.950 . S
C387 C382 1.363 1_554 S
C387 C386 1.415 . S
H388 C385 1.001 . S
H389 C370 0.913 . S
H390 C408 0.951 . S
H391 C410 0.951 . S
H392 C412 0.950 . S
H393 C413 0.950 . S
H394 C415 0.950 . S
H395 C418 0.950 . S
H396 C419 0.950 . S
H397 C421 0.950 . S
H398 C422 0.950 . S
H399 C423 0.951 . S
H400 C425 0.951 . S
H401 C427 0.950 . S
H402 C428 0.950 . S
H403 C430 0.950 . S
H404 C433 0.950 . S
H405 C434 0.950 . S
H406 C436 0.950 . S
H407 C437 0.950 . S
C408 H390 0.951 . S
C408 C409 1.366 . S
C408 C410 1.388 . S
C409 C408 1.366 . S
C409 C413 1.385 . S
C410 H391 0.951 . S
C410 C408 1.388 . S
C410 C411 1.366 . S
C411 C410 1.366 . S
C411 C412 1.414 . S
C411 C414 1.499 . S
C412 H392 0.950 . S
C412 C411 1.414 . S
C412 C413 1.374 . S
C413 H393 0.950 . S
C413 C409 1.385 . S
C413 C412 1.374 . S
C414 C411 1.499 . S
C414 C415 1.373 . S
C414 C416 1.389 . S
C415 H394 0.950 . S
C415 C414 1.373 . S
C415 C431 1.377 . S
C416 C414 1.389 . S
C416 C417 1.524 . S
C416 C430 1.377 . S
C417 C416 1.524 . S
C417 C418 1.397 . S
C417 C422 1.363 . S
C418 H395 0.950 . S
C418 C417 1.397 . S
C418 C419 1.334 . S
C419 H396 0.950 . S
C419 C418 1.334 . S
C419 C420 1.287 . S
C420 C419 1.287 . S
C420 C421 1.524 . S
C420 H439 0.889 1_655 S
C421 H397 0.950 . S
C421 C420 1.524 . S
C421 C422 1.415 . S
C422 H398 0.950 . S
C422 C417 1.363 . S
C422 C421 1.415 . S
C423 H399 0.951 . S
C423 C424 1.366 . S
C423 C425 1.388 . S
C424 C423 1.366 . S
C424 C428 1.385 . S
C425 H400 0.951 . S
C425 C423 1.388 . S
C425 C426 1.366 . S
C426 C425 1.366 . S
C426 C427 1.414 . S
C426 C429 1.499 . S
C427 H401 0.950 . S
C427 C426 1.414 . S
C427 C428 1.374 . S
C428 H402 0.950 . S
C428 C424 1.385 . S
C428 C427 1.374 . S
C429 C426 1.499 . S
C429 C430 1.373 . S
C429 C431 1.389 . S
C430 H403 0.950 . S
C430 C416 1.377 . S
C430 C429 1.373 . S
C431 C415 1.377 . S
C431 C429 1.389 . S
C431 C432 1.524 . S
C432 C431 1.524 . S
C432 C433 1.397 . S
C432 C437 1.363 . S
C433 H404 0.950 . S
C433 C432 1.397 . S
C433 C434 1.334 . S
C434 H405 0.950 . S
C434 C433 1.334 . S
C434 C435 1.287 . S
C435 C434 1.287 . S
C435 C436 1.524 . S
C435 H438 0.999 . S
C436 H406 0.950 . S
C436 C435 1.524 . S
C436 C437 1.415 . S
C437 H407 0.950 . S
C437 C432 1.363 . S
C437 C436 1.415 . S
H438 C435 0.999 . S
H439 C420 0.889 1_455 S
H440 C458 0.951 . S
H441 C460 0.951 . S
H442 C462 0.950 . S
H443 C463 0.950 . S
H444 C465 0.950 . S
H445 C468 0.950 . S
H446 C469 0.950 . S
H447 C471 0.950 . S
H448 C472 0.950 . S
H449 C473 0.951 . S
H450 C475 0.951 . S
H451 C477 0.950 . S
H452 C478 0.950 . S
H453 C480 0.950 . S
H454 C483 0.950 . S
H455 C484 0.950 . S
H456 C486 0.950 . S
H457 C487 0.950 . S
C458 H440 0.951 . S
C458 C459 1.366 . S
C458 C460 1.388 . S
C459 C458 1.366 . S
C459 C463 1.385 . S
C460 H441 0.951 . S
C460 C458 1.388 . S
C460 C461 1.366 . S
C461 C460 1.366 . S
C461 C462 1.414 . S
C461 C464 1.499 . S
C462 H442 0.950 . S
C462 C461 1.414 . S
C462 C463 1.374 . S
C463 H443 0.950 . S
C463 C459 1.385 . S
C463 C462 1.374 . S
C464 C461 1.499 . S
C464 C465 1.373 . S
C464 C466 1.389 . S
C465 H444 0.950 . S
C465 C464 1.373 . S
C465 C481 1.377 . S
C466 C464 1.389 . S
C466 C467 1.524 . S
C466 C480 1.377 . S
C467 C466 1.524 . S
C467 C468 1.397 . S
C467 C472 1.363 . S
C468 H445 0.950 . S
C468 C467 1.397 . S
C468 C469 1.334 . S
C469 H446 0.950 . S
C469 C468 1.334 . S
C469 C470 1.287 . S
C470 C469 1.287 . S
C470 C471 1.524 . S
C470 H489 0.913 . S
C471 H447 0.950 . S
C471 C470 1.524 . S
C471 C472 1.415 . S
C472 H448 0.950 . S
C472 C467 1.363 . S
C472 C471 1.415 . S
C473 H449 0.951 . S
C473 C474 1.366 . S
C473 C475 1.388 . S
C474 C473 1.366 . S
C474 C478 1.385 . S
C475 H450 0.951 . S
C475 C473 1.388 . S
C475 C476 1.366 . S
C476 C475 1.366 . S
C476 C477 1.414 . S
C476 C479 1.499 . S
C477 H451 0.950 . S
C477 C476 1.414 . S
C477 C478 1.374 . S
C478 H452 0.950 . S
C478 C474 1.385 . S
C478 C477 1.374 . S
C479 C476 1.499 . S
C479 C480 1.373 . S
C479 C481 1.389 . S
C480 H453 0.950 . S
C480 C466 1.377 . S
C480 C479 1.373 . S
C481 C465 1.377 . S
C481 C479 1.389 . S
C481 C482 1.524 . S
C482 C481 1.524 . S
C482 C483 1.397 . S
C482 C487 1.363 . S
C483 H454 0.950 . S
C483 C482 1.397 . S
C483 C484 1.334 . S
C484 H455 0.950 . S
C484 C483 1.334 . S
C484 C485 1.287 . S
C485 C484 1.287 . S
C485 C486 1.524 . S
C485 H488 0.999 . S
C486 H456 0.950 . S
C486 C485 1.524 . S
C486 C487 1.415 . S
C487 H457 0.950 . S
C487 C482 1.363 . S
C487 C486 1.415 . S
H488 C485 0.999 . S
H489 C470 0.913 . S
H490 C508 0.951 . S
H491 C510 0.951 . S
H492 C512 0.950 . S
H493 C513 0.950 . S
H494 C515 0.950 . S
H495 C518 0.950 . S
H496 C519 0.950 . S
H497 C521 0.950 . S
H498 C522 0.950 . S
H499 C523 0.951 . S
H500 C525 0.951 . S
H501 C527 0.950 . S
H502 C528 0.950 . S
H503 C530 0.950 . S
H504 C533 0.950 . S
H505 C534 0.950 . S
H506 C536 0.950 . S
H507 C537 0.950 . S
C508 H490 0.951 . S
C508 C509 1.366 . S
C508 C510 1.388 . S
C509 C508 1.366 . S
C509 C513 1.385 . S
C510 H491 0.951 . S
C510 C508 1.388 . S
C510 C511 1.366 . S
C511 C510 1.366 . S
C511 C512 1.414 . S
C511 C514 1.499 . S
C512 H492 0.950 . S
C512 C511 1.414 . S
C512 C513 1.374 . S
C513 H493 0.950 . S
C513 C509 1.385 . S
C513 C512 1.374 . S
C514 C511 1.499 . S
C514 C515 1.373 . S
C514 C516 1.389 . S
C515 H494 0.950 . S
C515 C514 1.373 . S
C515 C531 1.377 . S
C516 C514 1.389 . S
C516 C517 1.524 . S
C516 C530 1.377 . S
C517 C516 1.524 . S
C517 C518 1.397 . S
C517 C522 1.363 . S
C518 H495 0.950 . S
C518 C517 1.397 . S
C518 C519 1.334 . S
C519 H496 0.950 . S
C519 C518 1.334 . S
C519 C520 1.287 . S
C520 C519 1.287 . S
C520 C521 1.524 . S
C520 H539 0.913 . S
C521 H497 0.950 . S
C521 C520 1.524 . S
C521 C522 1.415 . S
C522 H498 0.950 . S
C522 C517 1.363 . S
C522 C521 1.415 . S
C523 H499 0.951 . S
C523 C524 1.366 . S
C523 C525 1.388 . S
C524 C523 1.366 . S
C524 C528 1.385 . S
C525 H500 0.951 . S
C525 C523 1.388 . S
C525 C526 1.366 . S
C526 C525 1.366 . S
C526 C527 1.414 . S
C526 C529 1.499 . S
C527 H501 0.950 . S
C527 C526 1.414 . S
C527 C528 1.374 . S
C528 H502 0.950 . S
C528 C524 1.385 . S
C528 C527 1.374 . S
C529 C526 1.499 . S
C529 C530 1.373 . S
C529 C531 1.389 . S
C530 H503 0.950 . S
C530 C516 1.377 . S
C530 C529 1.373 . S
C531 C515 1.377 . S
C531 C529 1.389 . S
C531 C532 1.524 . S
C532 C531 1.524 . S
C532 C533 1.397 . S
C532 C537 1.363 . S
C533 H504 0.950 . S
C533 C532 1.397 . S
C533 C534 1.334 . S
C534 H505 0.950 . S
C534 C533 1.334 . S
C534 C535 1.287 . S
C535 C534 1.287 . S
C535 C536 1.524 . S
C535 H538 0.999 . S
C536 H506 0.950 . S
C536 C535 1.524 . S
C536 C537 1.415 . S
C537 H507 0.950 . S
C537 C532 1.363 . S
C537 C536 1.415 . S
H538 C535 0.999 . S
H539 C520 0.913 . S
H540 C558 0.951 . S
H541 C560 0.951 . S
H542 C562 0.950 . S
H543 C563 0.950 . S
H544 C565 0.950 . S
H545 C568 0.950 . S
H546 C569 0.950 . S
H547 C571 0.950 . S
H548 C572 0.950 . S
H549 C573 0.951 . S
H550 C575 0.951 . S
H551 C577 0.950 . S
H552 C578 0.950 . S
H553 C580 0.950 . S
H554 C583 0.950 . S
H555 C584 0.950 . S
H556 C586 0.950 . S
H557 C587 0.950 . S
C558 H540 0.951 . S
C558 C559 1.366 . S
C558 C560 1.388 . S
C559 C558 1.366 . S
C559 C563 1.385 . S
C560 H541 0.951 . S
C560 C558 1.388 . S
C560 C561 1.366 . S
C561 C560 1.366 . S
C561 C562 1.414 . S
C561 C564 1.499 . S
C562 H542 0.950 . S
C562 C561 1.414 . S
C562 C563 1.374 . S
C563 H543 0.950 . S
C563 C559 1.385 . S
C563 C562 1.374 . S
C564 C561 1.499 . S
C564 C565 1.373 . S
C564 C566 1.389 . S
C565 H544 0.950 . S
C565 C564 1.373 . S
C565 C581 1.377 . S
C566 C564 1.389 . S
C566 C567 1.524 . S
C566 C580 1.377 . S
C567 C566 1.524 . S
C567 C568 1.397 . S
C567 C572 1.363 . S
C568 H545 0.950 . S
C568 C567 1.397 . S
C568 C569 1.334 . S
C569 H546 0.950 . S
C569 C568 1.334 . S
C569 C570 1.287 . S
C570 C569 1.287 . S
C570 C571 1.524 . S
C570 H589 0.913 . S
C571 H547 0.950 . S
C571 C570 1.524 . S
C571 C572 1.415 . S
C572 H548 0.950 . S
C572 C567 1.363 . S
C572 C571 1.415 . S
C573 H549 0.951 . S
C573 C574 1.366 . S
C573 C575 1.388 . S
C574 C573 1.366 . S
C574 C578 1.385 . S
C575 H550 0.951 . S
C575 C573 1.388 . S
C575 C576 1.366 . S
C576 C575 1.366 . S
C576 C577 1.414 . S
C576 C579 1.499 . S
C577 H551 0.950 . S
C577 C576 1.414 . S
C577 C578 1.374 . S
C578 H552 0.950 . S
C578 C574 1.385 . S
C578 C577 1.374 . S
C579 C576 1.499 . S
C579 C580 1.373 . S
C579 C581 1.389 . S
C580 H553 0.950 . S
C580 C566 1.377 . S
C580 C579 1.373 . S
C581 C565 1.377 . S
C581 C579 1.389 . S
C581 C582 1.524 . S
C582 C581 1.524 . S
C582 C583 1.397 . S
C582 C587 1.363 . S
C583 H554 0.950 . S
C583 C582 1.397 . S
C583 C584 1.334 . S
C584 H555 0.950 . S
C584 C583 1.334 . S
C584 C585 1.287 . S
C585 C584 1.287 . S
C585 C586 1.524 . S
C585 H588 0.999 . S
C586 H556 0.950 . S
C586 C585 1.524 . S
C586 C587 1.415 . S
C587 H557 0.950 . S
C587 C582 1.363 . S
C587 C586 1.415 . S
H588 C585 0.999 . S
H589 C570 0.913 . S
H590 C608 0.951 . S
H591 C610 0.951 . S
H592 C612 0.950 . S
H593 C613 0.950 . S
H594 C615 0.950 . S
H595 C618 0.950 . S
H596 C619 0.950 . S
H597 C621 0.950 . S
H598 C622 0.950 . S
H599 C623 0.951 . S
H600 C625 0.951 . S
H601 C627 0.950 . S
H602 C628 0.950 . S
H603 C630 0.950 . S
H604 C633 0.950 . S
H605 C634 0.950 . S
H606 C636 0.950 . S
H607 C637 0.950 . S
C608 H590 0.951 . S
C608 C609 1.366 . S
C608 C610 1.388 . S
C609 C608 1.366 . S
C609 C613 1.385 . S
C610 H591 0.951 . S
C610 C608 1.388 . S
C610 C611 1.366 . S
C611 C610 1.366 . S
C611 C612 1.414 . S
C611 C614 1.499 . S
C612 H592 0.950 . S
C612 C611 1.414 . S
C612 C613 1.374 . S
C613 H593 0.950 . S
C613 C609 1.385 . S
C613 C612 1.374 . S
C614 C611 1.499 . S
C614 C615 1.373 . S
C614 C616 1.389 . S
C615 H594 0.950 . S
C615 C614 1.373 . S
C615 C631 1.377 . S
C616 C614 1.389 . S
C616 C617 1.524 . S
C616 C630 1.377 . S
C617 C616 1.524 . S
C617 C618 1.397 . S
C617 C622 1.363 . S
C618 H595 0.950 . S
C618 C617 1.397 . S
C618 C619 1.334 . S
C619 H596 0.950 . S
C619 C618 1.334 . S
C619 C620 1.287 . S
C620 C619 1.287 . S
C620 C621 1.524 . S
C620 H639 0.913 . S
C621 H597 0.950 . S
C621 C620 1.524 . S
C621 C622 1.415 . S
C622 H598 0.950 . S
C622 C617 1.363 . S
C622 C621 1.415 . S
C623 H599 0.951 . S
C623 C624 1.366 . S
C623 C625 1.388 . S
C624 C623 1.366 . S
C624 C628 1.385 1_655 S
C625 H600 0.951 . S
C625 C623 1.388 . S
C625 C626 1.366 1_655 S
C626 C625 1.366 1_455 S
C626 C627 1.414 . S
C626 C629 1.499 . S
C627 H601 0.950 . S
C627 C626 1.414 . S
C627 C628 1.374 . S
C628 H602 0.950 . S
C628 C624 1.385 1_455 S
C628 C627 1.374 . S
C629 C626 1.499 . S
C629 C630 1.373 . S
C629 C631 1.389 . S
C630 H603 0.950 . S
C630 C616 1.377 . S
C630 C629 1.373 . S
C631 C615 1.377 . S
C631 C629 1.389 . S
C631 C632 1.524 . S
C632 C631 1.524 . S
C632 C633 1.397 . S
C632 C637 1.363 1_455 S
C633 H604 0.950 . S
C633 C632 1.397 . S
C633 C634 1.334 1_455 S
C634 H605 0.950 . S
C634 C633 1.334 1_655 S
C634 C635 1.287 . S
C635 C634 1.287 . S
C635 C636 1.524 . S
C635 H638 0.999 . S
C636 H606 0.950 . S
C636 C635 1.524 . S
C636 C637 1.415 . S
C637 H607 0.950 . S
C637 C632 1.363 1_655 S
C637 C636 1.415 . S
H638 C635 0.999 . S
H639 C620 0.913 . S
H640 C658 0.951 . S
H641 C660 0.951 . S
H642 C662 0.950 . S
H643 C663 0.950 . S
H644 C665 0.950 . S
H645 C668 0.950 1_565 S
H646 C669 0.950 . S
H647 C671 0.950 . S
H648 C672 0.950 . S
H649 C673 0.951 . S
H650 C675 0.951 . S
H651 C677 0.950 . S
H652 C678 0.950 . S
H653 C680 0.950 . S
H654 C683 0.950 . S
H655 C684 0.950 . S
H656 C686 0.950 . S
H657 C687 0.950 . S
C658 H640 0.951 . S
C658 C659 1.366 . S
C658 C660 1.388 . S
C659 C658 1.366 . S
C659 C663 1.385 1_545 S
C660 H641 0.951 . S
C660 C658 1.388 . S
C660 C661 1.366 1_545 S
C661 C660 1.366 1_565 S
C661 C662 1.414 . S
C661 C664 1.499 . S
C662 H642 0.950 . S
C662 C661 1.414 . S
C662 C663 1.374 . S
C663 H643 0.950 . S
C663 C659 1.385 1_565 S
C663 C662 1.374 . S
C664 C661 1.499 . S
C664 C665 1.373 . S
C664 C666 1.389 . S
C665 H644 0.950 . S
C665 C664 1.373 . S
C665 C681 1.377 . S
C666 C664 1.389 . S
C666 C667 1.524 1_565 S
C666 C680 1.377 . S
C667 C666 1.524 1_545 S
C667 C668 1.397 . S
C667 C672 1.363 . S
C668 H645 0.950 1_545 S
C668 C667 1.397 . S
C668 C669 1.334 . S
C669 H646 0.950 . S
C669 C668 1.334 . S
C669 C670 1.287 . S
C670 C669 1.287 . S
C670 C671 1.524 . S
C670 H689 0.913 . S
C671 H647 0.950 . S
C671 C670 1.524 . S
C671 C672 1.415 . S
C672 H648 0.950 . S
C672 C667 1.363 . S
C672 C671 1.415 . S
C673 H649 0.951 . S
C673 C674 1.366 . S
C673 C675 1.388 . S
C674 C673 1.366 . S
C674 C678 1.385 . S
C675 H650 0.951 . S
C675 C673 1.388 . S
C675 C676 1.366 . S
C676 C675 1.366 . S
C676 C677 1.414 . S
C676 C679 1.499 . S
C677 H651 0.950 . S
C677 C676 1.414 . S
C677 C678 1.374 . S
C678 H652 0.950 . S
C678 C674 1.385 . S
C678 C677 1.374 . S
C679 C676 1.499 . S
C679 C680 1.373 . S
C679 C681 1.389 . S
C680 H653 0.950 . S
C680 C666 1.377 . S
C680 C679 1.373 . S
C681 C665 1.377 . S
C681 C679 1.389 . S
C681 C682 1.524 . S
C682 C681 1.524 . S
C682 C683 1.397 . S
C682 C687 1.363 . S
C683 H654 0.950 . S
C683 C682 1.397 . S
C683 C684 1.334 . S
C684 H655 0.950 . S
C684 C683 1.334 . S
C684 C685 1.287 . S
C685 C684 1.287 . S
C685 C686 1.524 . S
C685 H688 0.999 . S
C686 H656 0.950 . S
C686 C685 1.524 . S
C686 C687 1.415 . S
C687 H657 0.950 . S
C687 C682 1.363 . S
C687 C686 1.415 . S
H688 C685 0.999 . S
H689 C670 0.913 . S
H690 C708 0.951 . S
H691 C710 0.951 . S
H692 C712 0.950 . S
H693 C713 0.950 . S
H694 C715 0.950 . S
H695 C718 0.950 . S
H696 C719 0.950 . S
H697 C721 0.950 . S
H698 C722 0.950 . S
H699 C723 0.951 . S
H700 C725 0.951 . S
H701 C727 0.950 . S
H702 C728 0.950 . S
H703 C730 0.950 . S
H704 C733 0.950 . S
H705 C734 0.950 . S
H706 C736 0.950 . S
H707 C737 0.950 . S
C708 H690 0.951 . S
C708 C709 1.366 . S
C708 C710 1.388 . S
C709 C708 1.366 . S
C709 C713 1.385 . S
C710 H691 0.951 . S
C710 C708 1.388 . S
C710 C711 1.366 . S
C711 C710 1.366 . S
C711 C712 1.414 . S
C711 C714 1.499 . S
C712 H692 0.950 . S
C712 C711 1.414 . S
C712 C713 1.374 . S
C713 H693 0.950 . S
C713 C709 1.385 . S
C713 C712 1.374 . S
C714 C711 1.499 . S
C714 C715 1.373 . S
C714 C716 1.389 . S
C715 H694 0.950 . S
C715 C714 1.373 . S
C715 C731 1.377 . S
C716 C714 1.389 . S
C716 C717 1.524 . S
C716 C730 1.377 . S
C717 C716 1.524 . S
C717 C718 1.397 . S
C717 C722 1.363 . S
C718 H695 0.950 . S
C718 C717 1.397 . S
C718 C719 1.334 . S
C719 H696 0.950 . S
C719 C718 1.334 . S
C719 C720 1.287 . S
C720 C719 1.287 . S
C720 C721 1.524 . S
C720 H739 0.913 . S
C721 H697 0.950 . S
C721 C720 1.524 . S
C721 C722 1.415 . S
C722 H698 0.950 . S
C722 C717 1.363 . S
C722 C721 1.415 . S
C723 H699 0.951 . S
C723 C724 1.366 . S
C723 C725 1.388 . S
C724 C723 1.366 . S
C724 C728 1.385 . S
C725 H700 0.951 . S
C725 C723 1.388 . S
C725 C726 1.366 . S
C726 C725 1.366 . S
C726 C727 1.414 . S
C726 C729 1.499 . S
C727 H701 0.950 . S
C727 C726 1.414 . S
C727 C728 1.374 . S
C728 H702 0.950 . S
C728 C724 1.385 . S
C728 C727 1.374 . S
C729 C726 1.499 . S
C729 C730 1.373 . S
C729 C731 1.389 . S
C730 H703 0.950 . S
C730 C716 1.377 . S
C730 C729 1.373 . S
C731 C715 1.377 . S
C731 C729 1.389 . S
C731 C732 1.524 . S
C732 C731 1.524 . S
C732 C733 1.397 . S
C732 C737 1.363 . S
C733 H704 0.950 . S
C733 C732 1.397 . S
C733 C734 1.334 . S
C734 H705 0.950 . S
C734 C733 1.334 . S
C734 C735 1.287 . S
C735 C734 1.287 . S
C735 C736 1.524 . S
C735 H738 0.999 . S
C736 H706 0.950 . S
C736 C735 1.524 . S
C736 C737 1.415 . S
C737 H707 0.950 . S
C737 C732 1.363 . S
C737 C736 1.415 . S
H738 C735 0.999 . S
H739 C720 0.913 . S
H740 C758 0.951 . S
H741 C760 0.951 . S
H742 C762 0.950 . S
H743 C763 0.950 1_655 S
H744 C765 0.950 . S
H745 C768 0.950 . S
H746 C769 0.950 . S
H747 C771 0.950 . S
H748 C772 0.950 . S
H749 C773 0.951 . S
H750 C775 0.951 . S
H751 C777 0.950 . S
H752 C778 0.950 . S
H753 C780 0.950 . S
H754 C783 0.950 . S
H755 C784 0.950 . S
H756 C786 0.950 . S
H757 C787 0.950 . S
C758 H740 0.951 . S
C758 C759 1.366 . S
C758 C760 1.388 . S
C759 C758 1.366 . S
C759 C763 1.385 . S
C760 H741 0.951 . S
C760 C758 1.388 . S
C760 C761 1.366 1_455 S
C761 C760 1.366 1_655 S
C761 C762 1.414 . S
C761 C764 1.499 . S
C762 H742 0.950 . S
C762 C761 1.414 . S
C762 C763 1.374 1_655 S
C763 H743 0.950 1_455 S
C763 C759 1.385 . S
C763 C762 1.374 1_455 S
C764 C761 1.499 . S
C764 C765 1.373 . S
C764 C766 1.389 . S
C765 H744 0.950 . S
C765 C764 1.373 . S
C765 C781 1.377 . S
C766 C764 1.389 . S
C766 C767 1.524 1_655 S
C766 C780 1.377 . S
C767 C766 1.524 1_455 S
C767 C768 1.397 . S
C767 C772 1.363 . S
C768 H745 0.950 . S
C768 C767 1.397 . S
C768 C769 1.334 . S
C769 H746 0.950 . S
C769 C768 1.334 . S
C769 C770 1.287 . S
C770 C769 1.287 . S
C770 C771 1.524 . S
C770 H789 0.913 . S
C771 H747 0.950 . S
C771 C770 1.524 . S
C771 C772 1.415 . S
C772 H748 0.950 . S
C772 C767 1.363 . S
C772 C771 1.415 . S
C773 H749 0.951 . S
C773 C774 1.366 . S
C773 C775 1.388 . S
C774 C773 1.366 . S
C774 C778 1.385 . S
C775 H750 0.951 . S
C775 C773 1.388 . S
C775 C776 1.366 . S
C776 C775 1.366 . S
C776 C777 1.414 . S
C776 C779 1.499 . S
C777 H751 0.950 . S
C777 C776 1.414 . S
C777 C778 1.374 . S
C778 H752 0.950 . S
C778 C774 1.385 . S
C778 C777 1.374 . S
C779 C776 1.499 . S
C779 C780 1.373 . S
C779 C781 1.389 . S
C780 H753 0.950 . S
C780 C766 1.377 . S
C780 C779 1.373 . S
C781 C765 1.377 . S
C781 C779 1.389 . S
C781 C782 1.524 . S
C782 C781 1.524 . S
C782 C783 1.397 . S
C782 C787 1.363 . S
C783 H754 0.950 . S
C783 C782 1.397 . S
C783 C784 1.334 . S
C784 H755 0.950 . S
C784 C783 1.334 . S
C784 C785 1.287 . S
C785 C784 1.287 . S
C785 C786 1.524 . S
C785 H788 0.999 . S
C786 H756 0.950 . S
C786 C785 1.524 . S
C786 C787 1.415 . S
C787 H757 0.950 . S
C787 C782 1.363 . S
C787 C786 1.415 . S
H788 C785 0.999 . S
H789 C770 0.913 . S
H790 C808 0.951 . S
H791 C810 0.951 . S
H792 C812 0.950 . S
H793 C813 0.950 . S
H794 C815 0.950 . S
H795 C818 0.950 . S
H796 C819 0.950 . S
H797 C821 0.950 1_565 S
H798 C822 0.950 . S
H799 C823 0.951 . S
H800 C825 0.951 . S
H801 C827 0.950 . S
H802 C828 0.950 . S
H803 C830 0.950 . S
H804 C833 0.950 . S
H805 C834 0.950 . S
H806 C836 0.950 . S
H807 C837 0.950 . S
C808 H790 0.951 . S
C808 C809 1.366 . S
C808 C810 1.388 . S
C809 C808 1.366 . S
C809 C813 1.385 1_565 S
C810 H791 0.951 . S
C810 C808 1.388 . S
C810 C811 1.366 1_565 S
C811 C810 1.366 1_545 S
C811 C812 1.414 . S
C811 C814 1.499 . S
C812 H792 0.950 . S
C812 C811 1.414 . S
C812 C813 1.374 . S
C813 H793 0.950 . S
C813 C809 1.385 1_545 S
C813 C812 1.374 . S
C814 C811 1.499 . S
C814 C815 1.373 . S
C814 C816 1.389 . S
C815 H794 0.950 . S
C815 C814 1.373 . S
C815 C831 1.377 . S
C816 C814 1.389 . S
C816 C817 1.524 . S
C816 C830 1.377 . S
C817 C816 1.524 . S
C817 C818 1.397 . S
C817 C822 1.363 . S
C818 H795 0.950 . S
C818 C817 1.397 . S
C818 C819 1.334 . S
C819 H796 0.950 . S
C819 C818 1.334 . S
C819 C820 1.287 . S
C820 C819 1.287 . S
C820 C821 1.524 . S
C820 H839 0.913 . S
C821 H797 0.950 1_545 S
C821 C820 1.524 . S
C821 C822 1.415 . S
C822 H798 0.950 . S
C822 C817 1.363 . S
C822 C821 1.415 . S
C823 H799 0.951 . S
C823 C824 1.366 . S
C823 C825 1.388 . S
C824 C823 1.366 . S
C824 C828 1.385 . S
C825 H800 0.951 . S
C825 C823 1.388 . S
C825 C826 1.366 . S
C826 C825 1.366 . S
C826 C827 1.414 . S
C826 C829 1.499 . S
C827 H801 0.950 . S
C827 C826 1.414 . S
C827 C828 1.374 . S
C828 H802 0.950 . S
C828 C824 1.385 . S
C828 C827 1.374 . S
C829 C826 1.499 . S
C829 C830 1.373 . S
C829 C831 1.389 . S
C830 H803 0.950 . S
C830 C816 1.377 . S
C830 C829 1.373 . S
C831 C815 1.377 . S
C831 C829 1.389 . S
C831 C832 1.524 . S
C832 C831 1.524 . S
C832 C833 1.397 . S
C832 C837 1.363 . S
C833 H804 0.950 . S
C833 C832 1.397 . S
C833 C834 1.334 . S
C834 H805 0.950 . S
C834 C833 1.334 . S
C834 C835 1.287 . S
C835 C834 1.287 . S
C835 C836 1.524 . S
C835 H838 0.999 . S
C836 H806 0.950 . S
C836 C835 1.524 . S
C836 C837 1.415 . S
C837 H807 0.950 . S
C837 C832 1.363 . S
C837 C836 1.415 . S
H838 C835 0.999 . S
H839 C820 0.913 . S
H840 C858 0.951 . S
H841 C860 0.951 . S
H842 C862 0.950 . S
H843 C863 0.950 . S
H844 C865 0.950 . S
H845 C868 0.950 . S
H846 C869 0.950 . S
H847 C871 0.950 . S
H848 C872 0.950 . S
H849 C873 0.921 1_554 S
H850 C875 0.951 . S
H851 C877 0.950 . S
H852 C878 0.950 . S
H853 C880 0.950 . S
H854 C883 0.950 . S
H855 C884 0.950 . S
H856 C886 0.950 . S
H857 C887 0.950 . S
C858 H840 0.951 . S
C858 C859 1.366 . S
C858 C860 1.388 . S
C859 C858 1.366 . S
C859 C863 1.385 . S
C860 H841 0.951 . S
C860 C858 1.388 . S
C860 C861 1.366 . S
C861 C860 1.366 . S
C861 C862 1.414 . S
C861 C864 1.499 . S
C862 H842 0.950 . S
C862 C861 1.414 . S
C862 C863 1.374 . S
C863 H843 0.950 . S
C863 C859 1.385 . S
C863 C862 1.374 . S
C864 C861 1.499 . S
C864 C865 1.373 . S
C864 C866 1.389 . S
C865 H844 0.950 . S
C865 C864 1.373 . S
C865 C881 1.377 . S
C866 C864 1.389 . S
C866 C867 1.524 . S
C866 C880 1.377 . S
C867 C866 1.524 . S
C867 C868 1.397 . S
C867 C872 1.363 . S
C868 H845 0.950 . S
C868 C867 1.397 . S
C868 C869 1.334 . S
C869 H846 0.950 . S
C869 C868 1.334 . S
C869 C870 1.287 . S
C870 C869 1.287 . S
C870 C871 1.524 . S
C870 H889 0.913 . S
C871 H847 0.950 . S
C871 C870 1.524 . S
C871 C872 1.415 . S
C872 H848 0.950 . S
C872 C867 1.363 . S
C872 C871 1.415 . S
C873 H849 0.921 1_556 S
C873 C874 1.359 1_556 S
C873 C875 1.426 . S
C874 C873 1.359 1_554 S
C874 C878 1.385 1_554 S
C875 H850 0.951 . S
C875 C873 1.426 . S
C875 C876 1.366 . S
C876 C875 1.366 . S
C876 C877 1.414 . S
C876 C879 1.499 . S
C877 H851 0.950 . S
C877 C876 1.414 . S
C877 C878 1.374 . S
C878 H852 0.950 . S
C878 C874 1.385 1_556 S
C878 C877 1.374 . S
C879 C876 1.499 . S
C879 C880 1.373 . S
C879 C881 1.389 . S
C880 H853 0.950 . S
C880 C866 1.377 . S
C880 C879 1.373 . S
C881 C865 1.377 . S
C881 C879 1.389 . S
C881 C882 1.524 . S
C882 C881 1.524 . S
C882 C883 1.397 . S
C882 C887 1.363 . S
C883 H854 0.950 . S
C883 C882 1.397 . S
C883 C884 1.334 1_556 S
C884 H855 0.950 . S
C884 C883 1.334 1_554 S
C884 C885 1.287 . S
C885 C884 1.287 . S
C885 C886 1.524 1_554 S
C885 H888 0.999 . S
C886 H856 0.950 . S
C886 C885 1.524 1_556 S
C886 C887 1.415 . S
C887 H857 0.950 . S
C887 C882 1.363 . S
C887 C886 1.415 . S
H888 C885 0.999 . S
H889 C870 0.913 . S
H890 C908 0.951 . S
H891 C910 0.951 1_455 S
H892 C912 0.950 . S
H893 C913 0.950 . S
H894 C915 0.950 . S
H895 C918 0.950 . S
H896 C919 0.950 1_655 S
H897 C921 0.950 . S
H898 C922 0.950 . S
H899 C923 0.951 . S
H900 C925 0.951 1_655 S
H901 C927 0.950 . S
H902 C928 0.950 . S
H903 C930 0.950 . S
H904 C933 0.950 . S
H905 C934 0.950 . S
H906 C936 0.950 . S
H907 C937 0.950 . S
C908 H890 0.951 . S
C908 C909 1.366 . S
C908 C910 1.388 . S
C909 C908 1.366 . S
C909 C913 1.385 . S
C910 H891 0.951 1_655 S
C910 C908 1.388 . S
C910 C911 1.366 . S
C911 C910 1.366 . S
C911 C912 1.414 . S
C911 C914 1.499 . S
C912 H892 0.950 . S
C912 C911 1.414 . S
C912 C913 1.374 . S
C913 H893 0.950 . S
C913 C909 1.385 . S
C913 C912 1.374 . S
C914 C911 1.499 . S
C914 C915 1.373 . S
C914 C916 1.389 1_655 S
C915 H894 0.950 . S
C915 C914 1.373 . S
C915 C931 1.377 . S
C916 C914 1.389 1_455 S
C916 C917 1.524 . S
C916 C930 1.377 . S
C917 C916 1.524 . S
C917 C918 1.397 1_455 S
C917 C922 1.363 . S
C918 H895 0.950 . S
C918 C917 1.397 1_655 S
C918 C919 1.334 1_655 S
C919 H896 0.950 1_455 S
C919 C918 1.334 1_455 S
C919 C920 1.287 . S
C920 C919 1.287 . S
C920 C921 1.524 . S
C920 H939 0.913 . S
C921 H897 0.950 . S
C921 C920 1.524 . S
C921 C922 1.415 . S
C922 H898 0.950 . S
C922 C917 1.363 . S
C922 C921 1.415 . S
C923 H899 0.951 . S
C923 C924 1.366 . S
C923 C925 1.388 . S
C924 C923 1.366 . S
C924 C928 1.385 . S
C925 H900 0.951 1_455 S
C925 C923 1.388 . S
C925 C926 1.366 . S
C926 C925 1.366 . S
C926 C927 1.414 . S
C926 C929 1.499 . S
C927 H901 0.950 . S
C927 C926 1.414 . S
C927 C928 1.374 . S
C928 H902 0.950 . S
C928 C924 1.385 . S
C928 C927 1.374 . S
C929 C926 1.499 . S
C929 C930 1.373 . S
C929 C931 1.389 1_455 S
C930 H903 0.950 . S
C930 C916 1.377 . S
C930 C929 1.373 . S
C931 C915 1.377 . S
C931 C929 1.389 1_655 S
C931 C932 1.524 . S
C932 C931 1.524 . S
C932 C933 1.397 1_655 S
C932 C937 1.363 . S
C933 H904 0.950 . S
C933 C932 1.397 1_455 S
C933 C934 1.334 . S
C934 H905 0.950 . S
C934 C933 1.334 . S
C934 C935 1.287 1_455 S
C935 C934 1.287 1_655 S
C935 C936 1.524 . S
C935 H938 0.999 . S
C936 H906 0.950 . S
C936 C935 1.524 . S
C936 C937 1.415 . S
C937 H907 0.950 . S
C937 C932 1.363 . S
C937 C936 1.415 . S
H938 C935 0.999 . S
H939 C920 0.913 . S
H940 C958 0.951 . S
H941 C960 0.951 . S
H942 C962 0.950 . S
H943 C963 0.950 . S
H944 C965 0.950 . S
H945 C968 0.950 . S
H946 C969 0.950 . S
H947 C971 0.950 . S
H948 C972 0.950 . S
H949 C973 0.951 . S
H950 C975 0.951 . S
H951 C977 0.950 . S
H952 C978 0.950 . S
H953 C980 0.950 . S
H954 C983 0.950 . S
H955 C984 0.950 1_455 S
H956 C986 0.950 . S
H957 C987 0.950 . S
C958 H940 0.951 . S
C958 C959 1.366 . S
C958 C960 1.388 . S
C959 C958 1.366 . S
C959 C963 1.385 . S
C960 H941 0.951 . S
C960 C958 1.388 . S
C960 C961 1.366 . S
C961 C960 1.366 . S
C961 C962 1.414 . S
C961 C964 1.499 . S
C962 H942 0.950 . S
C962 C961 1.414 . S
C962 C963 1.374 . S
C963 H943 0.950 . S
C963 C959 1.385 . S
C963 C962 1.374 . S
C964 C961 1.499 . S
C964 C965 1.373 . S
C964 C966 1.391 . S
C965 H944 0.950 . S
C965 C964 1.373 . S
C965 C981 1.377 1_565 S
C966 C964 1.391 . S
C966 C967 1.524 . S
C966 C980 1.376 1_565 S
C967 C966 1.524 . S
C967 C968 1.397 . S
C967 C972 1.363 1_565 S
C968 H945 0.950 . S
C968 C967 1.397 . S
C968 C969 1.334 . S
C969 H946 0.950 . S
C969 C968 1.334 . S
C969 C970 1.287 . S
C970 C969 1.287 . S
C970 C971 1.524 1_565 S
C970 H989 0.913 . S
C971 H947 0.950 . S
C971 C970 1.524 1_545 S
C971 C972 1.415 . S
C972 H948 0.950 . S
C972 C967 1.363 1_545 S
C972 C971 1.415 . S
C973 H949 0.951 . S
C973 C974 1.366 . S
C973 C975 1.388 . S
C974 C973 1.366 . S
C974 C978 1.385 . S
C975 H950 0.951 . S
C975 C973 1.388 . S
C975 C976 1.366 . S
C976 C975 1.366 . S
C976 C977 1.414 . S
C976 C979 1.499 . S
C977 H951 0.950 . S
C977 C976 1.414 . S
C977 C978 1.374 . S
C978 H952 0.950 . S
C978 C974 1.385 . S
C978 C977 1.374 . S
C979 C976 1.499 . S
C979 C980 1.373 . S
C979 C981 1.389 . S
C980 H953 0.950 . S
C980 C966 1.376 1_545 S
C980 C979 1.373 . S
C981 C965 1.377 1_545 S
C981 C979 1.389 . S
C981 C982 1.524 . S
C982 C981 1.524 . S
C982 C983 1.397 . S
C982 C987 1.363 1_545 S
C983 H954 0.950 . S
C983 C982 1.397 . S
C983 C984 1.334 . S
C984 H955 0.950 1_655 S
C984 C983 1.334 . S
C984 C985 1.287 . S
C985 C984 1.287 . S
C985 C986 1.524 1_545 S
C985 H988 0.999 1_655 S
C986 H956 0.950 . S
C986 C985 1.524 1_565 S
C986 C987 1.415 . S
C987 H957 0.950 . S
C987 C982 1.363 1_565 S
C987 C986 1.415 . S
H988 C985 0.999 1_455 S
H989 C970 0.913 . S
H990 C1008 0.951 . S
H991 C1010 0.951 . S
H992 C1012 0.950 . S
H993 C1013 0.950 . S
H994 C1015 0.950 . S
H995 C1018 0.950 . S
H996 C1019 0.950 . S
H997 C1021 0.950 . S
H998 C1022 0.950 . S
H999 C1023 0.951 . S
H1000 C1025 0.951 . S
H1001 C1027 0.950 . S
H1002 C1028 0.950 . S
H1003 C1030 0.950 . S
H1004 C1033 0.950 . S
H1005 C1034 0.950 . S
H1006 C1036 0.950 . S
H1007 C1037 0.950 . S
C1008 H990 0.951 . S
C1008 C1009 1.366 . S
C1008 C1010 1.388 . S
C1009 C1008 1.366 . S
C1009 C1013 1.385 . S
C1010 H991 0.951 . S
C1010 C1008 1.388 . S
C1010 C1011 1.366 . S
C1011 C1010 1.366 . S
C1011 C1012 1.414 . S
C1011 C1014 1.499 . S
C1012 H992 0.950 . S
C1012 C1011 1.414 . S
C1012 C1013 1.374 . S
C1013 H993 0.950 . S
C1013 C1009 1.385 . S
C1013 C1012 1.374 . S
C1014 C1011 1.499 . S
C1014 C1015 1.373 . S
C1014 C1016 1.389 . S
C1015 H994 0.950 . S
C1015 C1014 1.373 . S
C1015 C1031 1.377 . S
C1016 C1014 1.389 . S
C1016 C1017 1.524 . S
C1016 C1030 1.377 . S
C1017 C1016 1.524 . S
C1017 C1018 1.397 . S
C1017 C1022 1.363 . S
C1018 H995 0.950 . S
C1018 C1017 1.397 . S
C1018 C1019 1.334 . S
C1019 H996 0.950 . S
C1019 C1018 1.334 . S
C1019 C1020 1.287 . S
C1020 C1019 1.287 . S
C1020 C1021 1.524 . S
C1020 H1039 0.913 . S
C1021 H997 0.950 . S
C1021 C1020 1.524 . S
C1021 C1022 1.415 . S
C1022 H998 0.950 . S
C1022 C1017 1.363 . S
C1022 C1021 1.415 . S
C1023 H999 0.951 . S
C1023 C1024 1.366 . S
C1023 C1025 1.388 1_554 S
C1024 C1023 1.366 . S
C1024 C1028 1.385 1_554 S
C1025 H1000 0.951 . S
C1025 C1023 1.388 1_556 S
C1025 C1026 1.366 . S
C1026 C1025 1.366 . S
C1026 C1027 1.414 . S
C1026 C1029 1.499 . S
C1027 H1001 0.950 . S
C1027 C1026 1.414 . S
C1027 C1028 1.374 . S
C1028 H1002 0.950 . S
C1028 C1024 1.385 1_556 S
C1028 C1027 1.374 . S
C1029 C1026 1.499 . S
C1029 C1030 1.373 . S
C1029 C1031 1.389 . S
C1030 H1003 0.950 . S
C1030 C1016 1.377 . S
C1030 C1029 1.373 . S
C1031 C1015 1.377 . S
C1031 C1029 1.389 . S
C1031 C1032 1.524 . S
C1032 C1031 1.524 . S
C1032 C1033 1.397 . S
C1032 C1037 1.363 . S
C1033 H1004 0.950 . S
C1033 C1032 1.397 . S
C1033 C1034 1.334 . S
C1034 H1005 0.950 . S
C1034 C1033 1.334 . S
C1034 C1035 1.287 . S
C1035 C1034 1.287 . S
C1035 C1036 1.524 . S
C1035 H1038 0.999 . S
C1036 H1006 0.950 . S
C1036 C1035 1.524 . S
C1036 C1037 1.415 . S
C1037 H1007 0.950 . S
C1037 C1032 1.363 . S
C1037 C1036 1.415 . S
H1038 C1035 0.999 . S
H1039 C1020 0.913 . S
H1040 C1058 0.951 . S
H1041 C1060 0.951 . S
H1042 C1062 0.950 . S
H1043 C1063 0.950 . S
H1044 C1065 0.950 . S
H1045 C1068 0.950 1_455 S
H1046 C1069 0.950 . S
H1047 C1071 0.950 . S
H1048 C1072 0.950 . S
H1049 C1073 0.951 . S
H1050 C1075 0.951 . S
H1051 C1077 0.950 . S
H1052 C1078 0.950 . S
H1053 C1080 0.950 . S
H1054 C1083 0.950 1_655 S
H1055 C1084 0.950 . S
H1056 C1086 0.950 . S
H1057 C1087 0.950 . S
C1058 H1040 0.951 . S
C1058 C1059 1.366 . S
C1058 C1060 1.388 . S
C1059 C1058 1.366 . S
C1059 C1063 1.385 . S
C1060 H1041 0.951 . S
C1060 C1058 1.388 . S
C1060 C1061 1.366 . S
C1061 C1060 1.366 . S
C1061 C1062 1.414 . S
C1061 C1064 1.499 . S
C1062 H1042 0.950 . S
C1062 C1061 1.414 . S
C1062 C1063 1.374 . S
C1063 H1043 0.950 . S
C1063 C1059 1.385 . S
C1063 C1062 1.374 . S
C1064 C1061 1.499 . S
C1064 C1065 1.373 . S
C1064 C1066 1.389 1_455 S
C1065 H1044 0.950 . S
C1065 C1064 1.373 . S
C1065 C1081 1.377 . S
C1066 C1064 1.389 1_655 S
C1066 C1067 1.524 . S
C1066 C1080 1.377 . S
C1067 C1066 1.524 . S
C1067 C1068 1.397 . S
C1067 C1072 1.363 . S
C1068 H1045 0.950 1_655 S
C1068 C1067 1.397 . S
C1068 C1069 1.334 . S
C1069 H1046 0.950 . S
C1069 C1068 1.334 . S
C1069 C1070 1.287 . S
C1070 C1069 1.287 . S
C1070 C1071 1.524 . S
C1070 H1089 0.913 . S
C1071 H1047 0.950 . S
C1071 C1070 1.524 . S
C1071 C1072 1.415 . S
C1072 H1048 0.950 . S
C1072 C1067 1.363 . S
C1072 C1071 1.415 . S
C1073 H1049 0.951 . S
C1073 C1074 1.366 . S
C1073 C1075 1.388 . S
C1074 C1073 1.366 . S
C1074 C1078 1.385 . S
C1075 H1050 0.951 . S
C1075 C1073 1.388 . S
C1075 C1076 1.366 . S
C1076 C1075 1.366 . S
C1076 C1077 1.414 . S
C1076 C1079 1.499 . S
C1077 H1051 0.950 . S
C1077 C1076 1.414 . S
C1077 C1078 1.374 . S
C1078 H1052 0.950 . S
C1078 C1074 1.385 . S
C1078 C1077 1.374 . S
C1079 C1076 1.499 . S
C1079 C1080 1.373 . S
C1079 C1081 1.389 1_655 S
C1080 H1053 0.950 . S
C1080 C1066 1.377 . S
C1080 C1079 1.373 . S
C1081 C1065 1.377 . S
C1081 C1079 1.389 1_455 S
C1081 C1082 1.524 . S
C1082 C1081 1.524 . S
C1082 C1083 1.397 . S
C1082 C1087 1.363 . S
C1083 H1054 0.950 1_455 S
C1083 C1082 1.397 . S
C1083 C1084 1.334 . S
C1084 H1055 0.950 . S
C1084 C1083 1.334 . S
C1084 C1085 1.287 . S
C1085 C1084 1.287 . S
C1085 C1086 1.524 . S
C1085 H1088 0.999 . S
C1086 H1056 0.950 . S
C1086 C1085 1.524 . S
C1086 C1087 1.415 . S
C1087 H1057 0.950 . S
C1087 C1082 1.363 . S
C1087 C1086 1.415 . S
H1088 C1085 0.999 . S
H1089 C1070 0.913 . S
H1090 C1108 0.951 . S
H1091 C1110 0.951 . S
H1092 C1112 0.950 . S
H1093 C1113 0.950 . S
H1094 C1115 0.950 . S
H1095 C1118 0.950 . S
H1096 C1119 0.950 . S
H1097 C1121 0.950 . S
H1098 C1122 0.950 . S
H1099 C1123 0.951 . S
H1100 C1125 0.951 . S
H1101 C1127 0.950 . S
H1102 C1128 0.950 . S
H1103 C1130 0.950 . S
H1104 C1133 0.950 . S
H1105 C1134 0.950 . S
H1106 C1136 0.950 . S
H1107 C1137 0.950 . S
C1108 H1090 0.951 . S
C1108 C1109 1.366 . S
C1108 C1110 1.388 . S
C1109 C1108 1.366 . S
C1109 C1113 1.385 . S
C1110 H1091 0.951 . S
C1110 C1108 1.388 . S
C1110 C1111 1.366 . S
C1111 C1110 1.366 . S
C1111 C1112 1.414 . S
C1111 C1114 1.499 . S
C1112 H1092 0.950 . S
C1112 C1111 1.414 . S
C1112 C1113 1.374 . S
C1113 H1093 0.950 . S
C1113 C1109 1.385 . S
C1113 C1112 1.374 . S
C1114 C1111 1.499 . S
C1114 C1115 1.373 1_545 S
C1114 C1116 1.389 . S
C1115 H1094 0.950 . S
C1115 C1114 1.373 1_565 S
C1115 C1131 1.377 . S
C1116 C1114 1.389 . S
C1116 C1117 1.524 . S
C1116 C1130 1.377 . S
C1117 C1116 1.524 . S
C1117 C1118 1.397 . S
C1117 C1122 1.363 . S
C1118 H1095 0.950 . S
C1118 C1117 1.397 . S
C1118 C1119 1.334 . S
C1119 H1096 0.950 . S
C1119 C1118 1.334 . S
C1119 C1120 1.287 . S
C1120 C1119 1.287 . S
C1120 C1121 1.524 . S
C1120 H1139 0.913 . S
C1121 H1097 0.950 . S
C1121 C1120 1.524 . S
C1121 C1122 1.415 . S
C1122 H1098 0.950 . S
C1122 C1117 1.363 . S
C1122 C1121 1.415 . S
C1123 H1099 0.951 . S
C1123 C1124 1.366 . S
C1123 C1125 1.388 . S
C1124 C1123 1.366 . S
C1124 C1128 1.385 . S
C1125 H1100 0.951 . S
C1125 C1123 1.388 . S
C1125 C1126 1.366 . S
C1126 C1125 1.366 . S
C1126 C1127 1.414 . S
C1126 C1129 1.499 . S
C1127 H1101 0.950 . S
C1127 C1126 1.414 . S
C1127 C1128 1.374 . S
C1128 H1102 0.950 . S
C1128 C1124 1.385 . S
C1128 C1127 1.374 . S
C1129 C1126 1.499 . S
C1129 C1130 1.373 1_565 S
C1129 C1131 1.389 . S
C1130 H1103 0.950 . S
C1130 C1116 1.377 . S
C1130 C1129 1.373 1_545 S
C1131 C1115 1.377 . S
C1131 C1129 1.389 . S
C1131 C1132 1.524 . S
C1132 C1131 1.524 . S
C1132 C1133 1.397 . S
C1132 C1137 1.363 . S
C1133 H1104 0.950 . S
C1133 C1132 1.397 . S
C1133 C1134 1.334 . S
C1134 H1105 0.950 . S
C1134 C1133 1.334 . S
C1134 C1135 1.287 . S
C1135 C1134 1.287 . S
C1135 C1136 1.524 . S
C1135 H1138 0.999 . S
C1136 H1106 0.950 . S
C1136 C1135 1.524 . S
C1136 C1137 1.415 . S
C1137 H1107 0.950 . S
C1137 C1132 1.363 . S
C1137 C1136 1.415 . S
H1138 C1135 0.999 . S
H1139 C1120 0.913 . S
C259 C179 1.323 . S
C274 C6 1.313 . S
C309 C206 1.313 . S
C324 C59 1.323 . S
C359 C19 1.324 . S
C374 C86 1.313 . S
C409 C46 1.313 . S
C424 C139 1.324 . S
C459 C99 1.324 . S
C474 C166 1.313 . S
C509 C126 1.313 . S
C524 C219 1.324 . S
C559 C9 0.796 . S
C574 C138 0.821 . S
C609 C169 0.796 . S
C624 C58 0.822 . S
C659 C218 0.821 . S
C674 C89 0.796 . S
C709 C98 0.822 . S
C724 C209 0.798 . S
C759 C18 0.821 . S
C774 C129 0.797 . S
C809 C178 0.821 . S
C824 C49 0.795 . S
C859 C215 0.747 . S
C874 C15 0.747 . S
C909 C50 1.682 . S
C924 C10 1.682 . S
C959 C95 0.747 . S
C974 C55 0.746 . S
C1009 C90 1.682 . S
C1024 C130 1.682 . S
C1059 C175 0.747 . S
C1074 C135 0.746 . S
C1109 C210 1.682 . S
C1124 C170 1.682 . S
