# Generated by pormake.
# Topology wfa, (4)-cn, num edge types: 1
# Building blocks:
#     Node 0, Type 0, BuildingBlock: MUDLON_clean_sbu_0, # of connection points: 4
#     Node 1, Type 0, BuildingBlock: MUDLON_clean_sbu_0, # of connection points: 4
#     Node 2, Type 0, BuildingBlock: MUDLON_clean_sbu_0, # of connection points: 4
#     Node 3, Type 0, BuildingBlock: MUDLON_clean_sbu_0, # of connection points: 4
#     Node 4, Type 0, BuildingBlock: MUDLON_clean_sbu_0, # of connection points: 4
#     Node 5, Type 0, BuildingBlock: MUDLON_clean_sbu_0, # of connection points: 4
#     Node 6, Type 0, BuildingBlock: MUDLON_clean_sbu_0, # of connection points: 4
#     Node 7, Type 0, BuildingBlock: MUDLON_clean_sbu_0, # of connection points: 4
#     Node 8, Type 0, BuildingBlock: MUDLON_clean_sbu_0, # of connection points: 4
#     Node 9, Type 0, BuildingBlock: MUDLON_clean_sbu_0, # of connection points: 4
#     Node 10, Type 0, BuildingBlock: MUDLON_clean_sbu_0, # of connection points: 4
#     Node 11, Type 0, BuildingBlock: MUDLON_clean_sbu_0, # of connection points: 4
#     Node 12, Type 0, BuildingBlock: MUDLON_clean_sbu_0, # of connection points: 4
#     Node 13, Type 0, BuildingBlock: MUDLON_clean_sbu_0, # of connection points: 4
#     Node 14, Type 0, BuildingBlock: MUDLON_clean_sbu_0, # of connection points: 4
#     Node 15, Type 0, BuildingBlock: MUDLON_clean_sbu_0, # of connection points: 4
#     Edge 16, Type (0, 0), BuildingBlock: AJUNOK_clean_linker_0, # of connection points: 2
#     Edge 17, Type (0, 0), BuildingBlock: AJUNOK_clean_linker_0, # of connection points: 2
#     Edge 18, Type (0, 0), BuildingBlock: AJUNOK_clean_linker_0, # of connection points: 2
#     Edge 19, Type (0, 0), BuildingBlock: AJUNOK_clean_linker_0, # of connection points: 2
#     Edge 20, Type (0, 0), BuildingBlock: AJUNOK_clean_linker_0, # of connection points: 2
#     Edge 21, Type (0, 0), BuildingBlock: AJUNOK_clean_linker_0, # of connection points: 2
#     Edge 22, Type (0, 0), BuildingBlock: AJUNOK_clean_linker_0, # of connection points: 2
#     Edge 23, Type (0, 0), BuildingBlock: AJUNOK_clean_linker_0, # of connection points: 2
#     Edge 24, Type (0, 0), BuildingBlock: AJUNOK_clean_linker_0, # of connection points: 2
#     Edge 25, Type (0, 0), BuildingBlock: AJUNOK_clean_linker_0, # of connection points: 2
#     Edge 26, Type (0, 0), BuildingBlock: AJUNOK_clean_linker_0, # of connection points: 2
#     Edge 27, Type (0, 0), BuildingBlock: AJUNOK_clean_linker_0, # of connection points: 2
#     Edge 28, Type (0, 0), BuildingBlock: AJUNOK_clean_linker_0, # of connection points: 2
#     Edge 29, Type (0, 0), BuildingBlock: AJUNOK_clean_linker_0, # of connection points: 2
#     Edge 30, Type (0, 0), BuildingBlock: AJUNOK_clean_linker_0, # of connection points: 2
#     Edge 31, Type (0, 0), BuildingBlock: AJUNOK_clean_linker_0, # of connection points: 2
#     Edge 32, Type (0, 0), BuildingBlock: AJUNOK_clean_linker_0, # of connection points: 2
#     Edge 33, Type (0, 0), BuildingBlock: AJUNOK_clean_linker_0, # of connection points: 2
#     Edge 34, Type (0, 0), BuildingBlock: AJUNOK_clean_linker_0, # of connection points: 2
#     Edge 35, Type (0, 0), BuildingBlock: AJUNOK_clean_linker_0, # of connection points: 2
#     Edge 36, Type (0, 0), BuildingBlock: AJUNOK_clean_linker_0, # of connection points: 2
#     Edge 37, Type (0, 0), BuildingBlock: AJUNOK_clean_linker_0, # of connection points: 2
#     Edge 38, Type (0, 0), BuildingBlock: AJUNOK_clean_linker_0, # of connection points: 2
#     Edge 39, Type (0, 0), BuildingBlock: AJUNOK_clean_linker_0, # of connection points: 2
#     Edge 40, Type (0, 0), BuildingBlock: AJUNOK_clean_linker_0, # of connection points: 2
#     Edge 41, Type (0, 0), BuildingBlock: AJUNOK_clean_linker_0, # of connection points: 2
#     Edge 42, Type (0, 0), BuildingBlock: AJUNOK_clean_linker_0, # of connection points: 2
#     Edge 43, Type (0, 0), BuildingBlock: AJUNOK_clean_linker_0, # of connection points: 2
#     Edge 44, Type (0, 0), BuildingBlock: AJUNOK_clean_linker_0, # of connection points: 2
#     Edge 45, Type (0, 0), BuildingBlock: AJUNOK_clean_linker_0, # of connection points: 2
#     Edge 46, Type (0, 0), BuildingBlock: AJUNOK_clean_linker_0, # of connection points: 2
#     Edge 47, Type (0, 0), BuildingBlock: AJUNOK_clean_linker_0, # of connection points: 2
# Relax obj value: 0.198
# Max RMSD: 0.234
# Mean RMSD: 0.228
data_MOF--net-wfa--node1-MUDLON_clean_sbu_0--edge1-AJUNOK_clean_linker_0
_symmetry_space_group_name_H-M    P1
_symmetry_Int_Tables_number       1
_symmetry_cell_setting            triclinic
loop_
_symmetry_equiv_pos_as_xyz
'x, y, z'
_cell_length_a     36.288504
_cell_length_b     36.420847
_cell_length_c     18.361167
_cell_angle_alpha  89.675654
_cell_angle_beta   89.843272
_cell_angle_gamma 89.057524
loop_
_atom_site_label
_atom_site_type_symbol
_atom_site_fract_x
_atom_site_fract_y
_atom_site_fract_z
_atom_type_partial_charge
Mg0 Mg 0.68215 0.03774 0.04966 0.0
C1 C 0.70655 1.0115 0.19578 0.0
O2 O 0.67186 0.02024 0.20854 0.0
C3 C 0.6018 0.03495 1.0191 0.0
O4 O 0.60993 0.06918 1.00394 0.0
C5 C 0.73116 0.01716 0.92091 0.0
O6 O 0.73826 0.98828 0.96205 0.0
O7 O 0.70913 0.04191 0.9445 0.0
O8 O 0.71824 1.01257 0.13047 0.0
O9 O 0.67015 0.09102 0.09622 0.0
C10 C 0.68988 0.10464 0.14608 0.0
O11 O 0.72272 0.09043 0.15895 0.0
O12 O 0.62774 1.0132 0.03936 0.0
Mg13 Mg 0.51859 0.67591 0.05175 0.0
C14 C 0.47053 0.6625 0.17401 0.0
O15 O 0.50429 0.661 0.19957 0.0
C16 C 0.53584 0.72707 0.9257 0.0
O17 O 0.5582 0.74046 0.97463 0.0
C18 C 0.51908 0.59588 0.02322 0.0
O19 O 0.48504 0.60618 1.00834 0.0
O20 O 0.54163 0.62026 0.04342 0.0
O21 O 0.466 0.66818 0.1061 0.0
O22 O 0.54499 0.71252 0.12863 0.0
C23 C 0.52483 0.74036 0.14411 0.0
O24 O 0.49509 0.74648 0.10486 0.0
O25 O 0.51509 0.70061 0.94348 0.0
Mg26 Mg 0.87571 0.50004 0.08326 0.0
C27 C 0.82226 0.52934 0.19276 0.0
O28 O 0.79986 0.5224 0.13874 0.0
C29 C 0.94721 0.52346 1.00562 0.0
O30 O 0.9243 0.53829 0.95818 0.0
C31 C 0.81214 0.49898 0.97259 0.0
O32 O 0.79893 0.47401 1.017 0.0
O33 O 0.843 0.51327 0.98691 0.0
O34 O 0.8568 0.52837 0.18083 0.0
O35 O 0.86984 0.44528 0.12811 0.0
C36 C 0.89427 0.44104 0.17713 0.0
O37 O 0.91977 0.46607 0.18217 0.0
O38 O 0.93438 0.50721 0.06139 0.0
Mg39 Mg 1.01559 0.85559 0.10406 0.0
C40 C 0.07473 0.86281 0.21194 0.0
O41 O 0.04486 0.85859 0.25141 0.0
C42 C 0.98891 0.80672 0.98141 0.0
O43 O 0.96622 0.79604 0.0329 0.0
C44 C 1.01372 0.93744 0.08332 0.0
O45 O 0.04821 0.92907 0.06784 0.0
O46 O 0.99216 0.91153 0.10098 0.0
O47 O 0.07181 0.8619 0.14291 0.0
O48 O 0.99138 0.81911 0.18528 0.0
C49 C 1.00583 0.78707 0.18947 0.0
O50 O 0.03037 0.77722 0.14026 0.0
O51 O 1.0127 0.83094 0.99597 0.0
Mg52 Mg 0.18316 1.01167 0.44293 0.0
C53 C 0.20801 0.03045 0.28951 0.0
O54 O 0.17539 0.01732 0.27463 0.0
C55 C 0.1045 1.01096 0.48275 0.0
O56 O 0.11826 0.98041 0.51056 0.0
C57 C 0.24457 0.02728 0.54963 0.0
O58 O 0.2624 0.03335 0.48851 0.0
O59 O 0.21112 0.01742 0.54681 0.0
O60 O 0.21695 0.03426 0.35591 0.0
O61 O 0.17391 0.95482 0.41468 0.0
C62 C 0.18909 0.93793 0.36178 0.0
O63 O 0.21839 0.95184 0.33076 0.0
O64 O 0.12646 0.03288 0.45089 0.0
Mg65 Mg 0.5398 0.17603 0.47693 0.0
C66 C 0.58883 0.16307 0.35605 0.0
O67 O 0.55526 0.16328 0.32945 0.0
C68 C 0.51928 0.22333 0.60655 0.0
O69 O 0.49367 0.23461 0.56078 0.0
C70 C 0.53813 0.09527 0.50043 0.0
O71 O 0.57222 0.10338 0.5171 0.0
O72 O 0.5162 0.1213 0.48164 0.0
O73 O 0.59294 0.16751 0.42422 0.0
O74 O 0.51331 0.2144 0.40114 0.0
C75 C 0.53298 0.24201 0.38549 0.0
O76 O 0.56289 0.24726 0.42402 0.0
O77 O 0.54289 0.19937 0.58559 0.0
Mg78 Mg 0.3709 0.52593 0.46437 0.0
C79 C 0.30501 0.50609 0.37707 0.0
O80 O 0.29019 0.52562 0.42982 0.0
C81 C 0.44865 0.52871 0.5093 0.0
O82 O 0.43442 0.56033 0.53021 0.0
C83 C 0.32581 0.49833 0.59254 0.0
O84 O 0.32527 0.46867 0.55221 0.0
O85 O 0.34247 0.52648 0.56882 0.0
O86 O 0.33932 0.49839 0.38052 0.0
O87 O 0.38054 0.58061 0.42087 0.0
C88 C 0.36666 0.59227 0.36135 0.0
O89 O 0.34004 0.57378 0.33127 0.0
O90 O 0.42734 0.50558 0.47995 0.0
Mg91 Mg 0.95053 0.35542 0.51913 0.0
C92 C 0.86726 0.36822 0.45346 0.0
O93 O 0.83223 0.36555 0.47071 0.0
C94 C 0.98404 0.29984 0.62727 0.0
O95 O 0.99935 0.28653 0.56795 0.0
C96 C 0.9516 0.43802 0.5447 0.0
O97 O 0.91719 0.43109 0.56155 0.0
O98 O 0.97272 0.41137 0.52586 0.0
O99 O 0.8907 0.35978 0.5031 0.0
O100 O 0.96969 0.32075 0.42888 0.0
C101 C 0.95308 0.29048 0.42153 0.0
O102 O 0.92866 0.28107 0.47092 0.0
O103 O 0.96277 0.32791 0.62252 0.0
Mg104 Mg 0.36834 0.99853 0.93983 0.0
C105 C 0.31358 0.032 0.83532 0.0
O106 O 0.29208 0.02608 0.8917 0.0
C107 C 0.4478 0.99214 0.98796 0.0
O108 O 0.43802 0.95761 0.99137 0.0
C109 C 0.32759 0.02586 0.07701 0.0
O110 O 0.35662 0.04658 0.08444 0.0
O111 O 0.32659 1.00305 0.02491 0.0
O112 O 0.34809 0.02664 0.84266 0.0
O113 O 0.37456 0.94269 0.90054 0.0
C114 C 0.35276 0.93093 0.85215 0.0
O115 O 0.32316 0.95043 0.83577 0.0
O116 O 0.42357 0.0163 0.9702 0.0
Mg117 Mg 0.55019 0.35926 0.97361 0.0
C118 C 0.53448 0.2942 0.8881 0.0
O119 O 0.56286 0.28477 0.92881 0.0
C120 C 0.55687 0.43948 0.99925 0.0
O121 O 0.59053 0.42696 1.0105 0.0
C122 C 0.52352 0.31721 0.10455 0.0
O123 O 0.4941 0.31651 0.06311 0.0
O124 O 0.55203 0.33343 0.0809 0.0
O125 O 0.51883 0.32517 0.89981 0.0
O126 O 0.60296 0.36143 0.91694 0.0
C127 C 0.59873 0.36504 0.84843 0.0
O128 O 0.56508 0.36785 0.82264 0.0
O129 O 0.53207 0.4166 0.98268 0.0
Mg130 Mg 0.18653 0.5235 0.96494 0.0
C131 C 0.25069 0.51137 0.8724 0.0
O132 O 0.25854 0.54013 0.91206 0.0
C133 C 0.10639 0.53402 0.98136 0.0
O134 O 0.11951 0.56703 0.9905 0.0
C135 C 0.23526 0.50005 0.0918 0.0
O136 O 0.24671 0.4759 0.04355 0.0
O137 O 0.21097 0.52391 0.07331 0.0
O138 O 0.22136 0.49412 0.8873 0.0
O139 O 0.18123 0.57706 0.91261 0.0
C140 C 0.17357 0.57453 0.84522 0.0
O141 O 0.17394 0.54177 0.81564 0.0
O142 O 0.12882 0.50713 0.972 0.0
Mg143 Mg 0.96921 0.17116 1.0093 0.0
C144 C 0.99789 0.23161 0.91357 0.0
O145 O 0.98515 0.25107 0.96847 0.0
C146 C 0.96678 0.09157 0.05379 0.0
O147 O 0.93186 0.10144 0.05782 0.0
C148 C 0.96538 0.195 0.16825 0.0
O149 O 0.96591 0.15925 0.17836 0.0
O150 O 0.9657 0.20753 0.10346 0.0
O151 O 0.99935 0.19684 0.92043 0.0
O152 O 0.91708 0.16127 0.95564 0.0
C153 C 0.90635 0.18098 0.90202 0.0
O154 O 0.9205 0.2136 0.89282 0.0
O155 O 0.99021 0.11589 0.03648 0.0
Mg156 Mg 0.8661 0.04105 0.54129 0.0
C157 C 0.80534 0.03236 0.64006 0.0
O158 O 0.79693 0.0598 0.59609 0.0
C159 C 0.94663 0.04507 0.5053 0.0
O160 O 0.93547 0.07902 0.49278 0.0
C161 C 0.80924 1.01429 0.43819 0.0
O162 O 0.80703 0.99024 0.49148 0.0
O163 O 0.83305 0.03953 0.44196 0.0
O164 O 0.83452 1.01366 0.62652 0.0
O165 O 0.86962 0.09395 0.59526 0.0
C166 C 0.88027 0.08761 0.66018 0.0
O167 O 0.89131 0.05419 0.67775 0.0
O168 O 0.92289 0.02167 0.52555 0.0
Mg169 Mg 0.50017 0.86052 0.54922 0.0
C170 C 0.52663 0.79524 0.63797 0.0
O171 O 0.51169 0.77827 0.58274 0.0
C172 C 0.49643 0.94077 0.51395 0.0
O173 O 0.46304 0.93017 0.49761 0.0
C174 C 0.53118 0.81599 0.42281 0.0
O175 O 0.56063 0.81609 0.46423 0.0
O176 O 0.50192 0.8322 0.445 0.0
O177 O 0.52905 0.83005 0.63497 0.0
O178 O 0.44486 0.8677 0.5936 0.0
C179 C 0.43192 0.84569 0.64088 0.0
O180 O 0.4488 0.81412 0.65266 0.0
O181 O 0.51967 0.91665 0.53636 0.0
Mg182 Mg 0.68686 0.50129 0.57939 0.0
C183 C 0.7411 0.52864 0.69407 0.0
O184 O 0.76329 0.53174 0.63783 0.0
C185 C 0.60641 0.49585 0.53922 0.0
O186 O 0.61835 0.46273 0.52227 0.0
C187 C 0.75269 0.5033 0.47315 0.0
O188 O 0.76715 0.47953 0.51941 0.0
O189 O 0.72037 0.51602 0.48508 0.0
O190 O 0.70756 0.52092 0.68309 0.0
O191 O 0.68366 0.44279 0.59979 0.0
C192 C 0.70162 0.42835 0.65233 0.0
O193 O 0.73017 0.44571 0.67803 0.0
O194 O 0.62943 0.51885 0.56342 0.0
Mg195 Mg 1.00478 0.66922 0.60486 0.0
C196 C 0.98789 0.73417 0.69876 0.0
O197 O 1.00226 0.74962 0.64069 0.0
C198 C 1.00149 0.58997 0.56267 0.0
O199 O 0.0353 0.5987 0.54464 0.0
C200 C 0.99916 0.69067 0.44317 0.0
O201 O 0.9999 0.65489 0.43438 0.0
O202 O 1.00123 0.70357 0.50721 0.0
O203 O 0.98237 0.69973 0.69751 0.0
O204 O 0.06146 0.65674 0.63604 0.0
C205 C 0.07753 0.67304 0.68793 0.0
O206 O 0.06171 0.70211 0.71693 0.0
O207 O 0.98043 0.61499 0.58901 0.0
C208 C 0.61549 0.16283 0.23169 0.0
C209 C 0.62005 0.15535 0.30641 0.0
C210 C 0.64047 0.14915 0.18015 0.0
C211 C 0.67105 0.12756 0.20135 0.0
H212 H 0.59133 0.17776 0.21235 0.0
H213 H 0.63452 0.15359 0.12293 0.0
S214 S 0.69777 0.10356 0.39107 0.0
N215 N 0.65925 0.12796 0.39985 0.0
N216 N 0.70651 0.10218 0.3028 0.0
C217 C 0.67773 0.12251 0.27637 0.0
C218 C 0.6521 0.13644 0.32906 0.0
C219 C 0.38212 0.62023 0.24064 0.0
C220 C 0.38754 0.61887 0.31666 0.0
C221 C 0.40776 0.63698 0.19441 0.0
C222 C 0.4396 0.65295 0.2227 0.0
H223 H 0.35942 0.60597 0.21594 0.0
H224 H 0.40388 0.63505 0.13608 0.0
S225 S 0.46196 0.66473 0.41834 0.0
N226 N 0.42371 0.64081 0.41852 0.0
N227 N 0.47173 0.67237 0.33176 0.0
C228 C 0.44324 0.6553 0.29883 0.0
C229 C 0.41719 0.63829 0.34584 0.0
C230 C 0.85444 0.40277 0.25845 0.0
C231 C 0.88954 0.41517 0.23882 0.0
C232 C 0.8483 0.38618 0.32658 0.0
C233 C 0.87687 0.38151 0.37832 0.0
H234 H 0.83109 0.40785 0.22297 0.0
H235 H 0.8204 0.37833 0.33967 0.0
S236 S 0.97478 0.40615 0.34829 0.0
N237 N 0.95404 0.41812 0.27198 0.0
N238 N 0.94214 0.38908 0.40042 0.0
C239 C 0.9124 0.39205 0.35679 0.0
C240 C 0.91881 0.40826 0.28701 0.0
C241 C 0.10999 0.87536 0.32499 0.0
C242 C 0.10917 0.8741 0.24838 0.0
C243 C 0.13819 0.8931 0.36182 0.0
C244 C 0.16691 0.91017 0.32368 0.0
H245 H 0.08752 0.86447 0.35706 0.0
H246 H 0.13614 0.8955 0.42051 0.0
S247 S 0.18172 0.90818 0.12351 0.0
N248 N 0.14257 0.88653 0.13607 0.0
N249 N 0.19585 0.91987 0.20544 0.0
C250 C 0.16861 0.90575 0.24753 0.0
C251 C 0.13963 0.88775 0.20981 0.0
C252 C 0.35914 0.90699 0.72604 0.0
C253 C 0.36637 0.90267 0.80094 0.0
C254 C 0.3788 0.88651 0.67406 0.0
C255 C 0.40558 0.86033 0.69526 0.0
H256 H 0.34027 0.9283 0.70698 0.0
H257 H 0.37433 0.89251 0.61686 0.0
S258 S 0.43122 0.83526 0.88501 0.0
N259 N 0.39968 0.86815 0.89398 0.0
N260 N 0.43582 0.8287 0.79652 0.0
C261 C 0.41078 0.85354 0.77016 0.0
C262 C 0.39137 0.875 0.823 0.0
C263 C 0.68815 0.40252 0.77575 0.0
C264 C 0.68215 0.40197 0.69989 0.0
C265 C 0.66243 0.38763 0.82442 0.0
C266 C 0.63008 0.37152 0.79866 0.0
H267 H 0.71112 0.41729 0.79817 0.0
H268 H 0.66653 0.39141 0.8823 0.0
S269 S 0.60668 0.35428 0.60528 0.0
N270 N 0.64526 0.37764 0.60155 0.0
N271 N 0.59724 0.34924 0.69275 0.0
C272 C 0.62617 0.36678 0.72307 0.0
C273 C 0.65219 0.38203 0.67368 0.0
C274 C 0.12752 0.6253 0.69003 0.0
C275 C 0.10882 0.6543 0.72522 0.0
C276 C 0.1511 0.60149 0.7285 0.0
C277 C 0.15679 0.60554 0.80383 0.0
H278 H 0.12238 0.61967 0.63311 0.0
H279 H 0.16324 0.57841 0.69959 0.0
S280 S 0.11876 0.68036 0.91949 0.0
N281 N 0.10112 0.68849 0.8381 0.0
N282 N 0.14533 0.64344 0.91042 0.0
C283 C 0.14093 0.63634 0.83841 0.0
C284 C 0.11693 0.66079 0.79907 0.0
C285 C 0.8989 0.17347 0.76749 0.0
C286 C 0.88981 0.16223 0.83901 0.0
C287 C 0.89307 0.15038 0.7077 0.0
C288 C 0.87808 0.11546 0.71789 0.0
H289 H 0.91331 0.19888 0.75812 0.0
H290 H 0.90291 0.1587 0.65444 0.0
S291 S 0.84209 0.07665 0.89072 0.0
N292 N 0.85941 0.11654 0.91404 0.0
N293 N 0.84871 0.07322 0.80201 0.0
C294 C 0.86555 0.10555 0.78767 0.0
C295 C 0.87128 0.12898 0.84822 0.0
C296 C 0.77557 0.99498 0.82485 0.0
C297 C 0.74869 0.0208 0.84793 0.0
C298 C 0.79312 0.99828 0.7569 0.0
C299 C 0.78435 0.02741 0.70902 0.0
H300 H 0.78356 0.97221 0.85988 0.0
H301 H 0.81408 0.9781 0.74233 0.0
S302 S 0.71528 0.10209 0.7426 0.0
N303 N 0.71382 0.07628 0.81658 0.0
N304 N 0.74638 0.08239 0.68937 0.0
C305 C 0.75705 0.0531 0.73095 0.0
C306 C 0.73939 0.04986 0.80021 0.0
C307 C 0.54611 0.79487 0.76902 0.0
C308 C 0.53234 0.77574 0.70871 0.0
C309 C 0.54759 0.77871 0.83852 0.0
C310 C 0.53497 0.74288 0.85095 0.0
H311 H 0.55514 0.82292 0.76303 0.0
H312 H 0.5579 0.79485 0.88321 0.0
S313 S 0.4989 0.67975 0.71108 0.0
N314 N 0.50785 0.71785 0.66574 0.0
N315 N 0.51022 0.68787 0.79641 0.0
C316 C 0.52205 0.72301 0.79099 0.0
C317 C 0.52093 0.73929 0.71993 0.0
C318 C 0.81129 0.52636 0.84713 0.0
C319 C 0.79222 0.50944 0.90478 0.0
C320 C 0.794 0.5341 0.78044 0.0
C321 C 0.75677 0.52564 0.76876 0.0
H322 H 0.84023 0.53262 0.85253 0.0
H323 H 0.81035 0.54587 0.73702 0.0
S324 S 0.69329 0.48491 0.90537 0.0
N325 N 0.73321 0.48707 0.94788 0.0
N326 N 0.70054 0.50192 0.82316 0.0
C327 C 0.73681 0.51045 0.82739 0.0
C328 C 0.75458 0.5022 0.89509 0.0
C329 C 0.97146 0.75509 0.89936 0.0
C330 C 0.98721 0.78987 0.90798 0.0
C331 C 0.97076 0.73778 0.83125 0.0
C332 C 0.98532 0.75475 0.7686 0.0
H333 H 0.96037 0.7406 0.94599 0.0
H334 H 0.95927 0.71057 0.82809 0.0
S335 S 0.02697 0.84735 0.76092 0.0
N336 N 1.01598 0.84156 0.84746 0.0
N337 N 1.01422 0.80956 0.71943 0.0
C338 C 0.99997 0.79019 0.77609 0.0
C339 C 1.0011 0.80756 0.8457 0.0
C340 C 0.24186 0.03289 0.68533 0.0
C341 C 0.26308 0.03162 0.62113 0.0
C342 C 0.25845 0.0351 0.75393 0.0
C343 C 0.29705 0.03582 0.76153 0.0
H344 H 0.21209 0.03167 0.68286 0.0
H345 H 0.24073 0.03503 0.80149 0.0
S346 S 0.36523 0.03507 0.61017 0.0
N347 N 0.32487 0.03297 0.56928 0.0
N348 N 0.35606 0.03686 0.69817 0.0
C349 C 0.31863 0.03588 0.6976 0.0
C350 C 0.30167 0.03381 0.62752 0.0
C351 C 0.50255 0.27258 0.69623 0.0
C352 C 0.52104 0.2392 0.68084 0.0
C353 C 0.50548 0.28933 0.7646 0.0
C354 C 0.52687 0.27329 0.82056 0.0
H355 H 0.48654 0.28655 0.65446 0.0
H356 H 0.49191 0.31572 0.77259 0.0
S357 S 0.57699 0.18359 0.81114 0.0
N358 N 0.55891 0.18913 0.72935 0.0
N359 N 0.56416 0.22027 0.85777 0.0
C360 C 0.54399 0.23897 0.807 0.0
C361 C 0.54121 0.22205 0.73722 0.0
C362 C 0.31671 0.52666 0.71504 0.0
C363 C 0.30764 0.49911 0.66518 0.0
C364 C 0.2993 0.52915 0.78299 0.0
C365 C 0.27168 0.50446 0.804 0.0
H366 H 0.33732 0.54678 0.70141 0.0
H367 H 0.307 0.55141 0.81843 0.0
S368 S 0.23869 0.42619 0.69459 0.0
N369 N 0.27015 0.44557 0.64258 0.0
N370 N 0.23707 0.45054 0.77014 0.0
C371 C 0.26295 0.47612 0.75548 0.0
C372 C 0.28099 0.47338 0.68621 0.0
C373 C 0.98802 0.30304 0.76311 0.0
C374 C 0.9911 0.28222 0.69909 0.0
C375 C 0.99265 0.28677 0.83197 0.0
C376 C 1.00006 0.24884 0.83988 0.0
H377 H 0.98156 0.33216 0.76015 0.0
H378 H 0.98906 0.30399 0.87944 0.0
S379 S 1.01142 0.18218 0.68854 0.0
N380 N 1.00304 0.22186 0.64747 0.0
N381 N 1.01128 0.19108 0.77659 0.0
C382 C 1.0043 0.22787 0.77595 0.0
C383 C 0.99989 0.24458 0.70572 0.0
C384 C 0.27263 0.04431 0.24998 0.0
C385 C 0.23681 0.03309 0.23182 0.0
C386 C 0.3016 0.04261 0.19924 0.0
C387 C 0.2961 0.02919 0.12851 0.0
H388 H 0.27867 0.05369 0.30448 0.0
H389 H 0.32876 0.05089 0.21637 0.0
S390 S 0.207 1.00019 0.05035 0.0
N391 N 0.19703 1.01099 0.13541 0.0
N392 N 0.25154 1.00731 0.04084 0.0
C393 C 0.26023 0.01916 0.10864 0.0
C394 C 0.23059 0.0213 0.15998 0.0
C395 C 0.55366 0.28916 0.29532 0.0
C396 C 0.52719 0.26336 0.31696 0.0
C397 C 0.552 0.30657 0.22713 0.0
C398 C 0.52359 0.29927 0.1776 0.0
H399 H 0.57662 0.29538 0.33048 0.0
H400 H 0.57345 0.3257 0.213 0.0
S401 S 0.44615 0.23545 0.20868 0.0
N402 N 0.47077 0.23243 0.284 0.0
N403 N 0.46741 0.26536 0.15611 0.0
C404 C 0.49619 0.27443 0.19929 0.0
C405 C 0.49802 0.25647 0.26879 0.0
C406 C 0.30214 0.48351 0.24824 0.0
C407 C 0.28464 0.50097 0.30756 0.0
C408 C 0.28562 0.4827 0.17924 0.0
C409 C 0.25109 0.49967 0.16637 0.0
H410 H 0.3293 0.47114 0.25447 0.0
H411 H 0.3006 0.46956 0.13515 0.0
S412 S 0.19187 0.5459 0.30438 0.0
N413 N 0.22922 0.53317 0.34963 0.0
N414 N 0.19865 0.53204 0.21991 0.0
C415 C 0.23264 0.51604 0.22562 0.0
C416 C 0.24924 0.51652 0.29615 0.0
C417 C 0.95411 0.2062 0.30093 0.0
C418 C 0.96389 0.2201 0.23195 0.0
C419 C 0.95142 0.2291 0.36189 0.0
C420 C 0.95902 0.26678 0.35693 0.0
H421 H 0.94777 0.17743 0.30788 0.0
H422 H 0.94313 0.21711 0.41341 0.0
S423 S 0.98668 0.31704 0.18969 0.0
N424 N 0.98176 0.27422 0.16268 0.0
N425 N 0.9772 0.31703 0.27769 0.0
C426 C 0.96961 0.28103 0.28879 0.0
C427 C 0.97185 0.25778 0.22625 0.0
C428 C 0.77012 0.01852 0.24655 0.0
C429 C 0.73298 1.00894 0.25718 0.0
C430 C 0.79463 0.0207 0.30539 0.0
C431 C 0.78312 1.01253 0.37668 0.0
H432 H 0.78012 0.02555 0.19269 0.0
H433 H 0.82283 0.02857 0.29492 0.0
S434 S 0.68906 0.98604 0.43408 0.0
N435 N 0.68605 0.99146 0.34495 0.0
N436 N 0.73229 0.99462 0.45494 0.0
C437 C 0.74632 1.00234 0.38796 0.0
C438 C 0.72122 1.00077 0.32839 0.0
C439 C 0.50499 0.8067 0.29858 0.0
C440 C 0.53194 0.79758 0.35075 0.0
C441 C 0.50414 0.78917 0.23092 0.0
C442 C 0.52998 0.7614 0.21251 0.0
H443 H 0.48412 0.82748 0.31009 0.0
H444 H 0.48234 0.79698 0.19348 0.0
S445 S 0.60682 0.72766 0.32949 0.0
N446 N 0.58583 0.7595 0.37887 0.0
N447 N 0.58398 0.72622 0.25194 0.0
C448 C 0.55763 0.75249 0.2636 0.0
C449 C 0.55866 0.77062 0.33256 0.0
C450 C 0.75332 0.53088 0.34783 0.0
C451 C 0.77266 0.5136 0.40529 0.0
C452 C 0.77031 0.53783 0.2806 0.0
C453 C 0.80753 0.5284 0.26824 0.0
H454 H 0.72433 0.53788 0.35364 0.0
H455 H 0.75376 0.54964 0.23709 0.0
S456 S 0.87158 0.4855 0.40271 0.0
N457 N 0.83196 0.48929 0.44669 0.0
N458 N 0.86395 0.50277 0.32069 0.0
C459 C 0.82782 0.51287 0.32638 0.0
C460 C 0.81036 0.50531 0.3947 0.0
C461 C 1.00752 0.72499 0.24799 0.0
C462 C 0.99955 0.76283 0.25344 0.0
C463 C 1.00628 0.70182 0.30917 0.0
C464 C 0.99764 0.7156 0.37873 0.0
H465 H 1.01543 0.7132 0.1961 0.0
H466 H 1.01325 0.67303 0.30203 0.0
S467 S 0.97306 0.81248 0.42217 0.0
N468 N 0.98119 0.81284 0.33365 0.0
N469 N 0.97942 0.76948 0.44887 0.0
C470 C 0.9887 0.75327 0.38474 0.0
C471 C 0.98944 0.7768 0.32208 0.0
C472 C 0.49821 0.03854 0.98599 0.0
C473 C 0.48702 1.00233 0.99942 0.0
C474 C 0.5352 0.04857 0.99267 0.0
C475 C 0.56283 0.0229 1.01329 0.0
H476 H 0.47832 0.05941 0.96924 0.0
H477 H 0.5421 0.07684 0.98115 0.0
S478 S 0.54816 0.92458 0.05725 0.0
N479 N 0.50674 0.9407 0.03621 0.0
N480 N 0.57612 0.95965 0.04879 0.0
C481 C 0.55204 0.98665 0.02792 0.0
C482 C 0.51426 0.97637 1.02101 0.0
C483 C 0.51194 0.49267 0.99544 0.0
C484 C 0.54824 0.47953 1.0056 0.0
C485 C 0.50304 0.53018 1.00113 0.0
C486 C 0.52999 0.55636 1.01734 0.0
H487 H 0.49005 0.47384 0.98304 0.0
H488 H 0.47458 0.53859 0.99294 0.0
S489 S 0.62947 0.53664 0.04783 0.0
N490 N 0.61163 0.49608 0.03197 0.0
N491 N 0.59475 0.56638 0.04271 0.0
C492 C 0.56646 0.5437 0.02745 0.0
C493 C 0.5756 0.50542 0.02156 0.0
C494 C 1.01125 0.49892 0.02778 0.0
C495 C 0.98771 0.5253 0.99466 0.0
C496 C 0.04975 0.50069 1.02044 0.0
C497 C 0.06603 0.52938 0.98117 0.0
H498 H 0.99987 0.47679 0.05997 0.0
H499 H 0.06686 0.48031 0.04794 0.0
S500 S 0.01717 0.60433 0.88117 0.0
N501 N 0.98387 0.57998 0.91804 0.0
N502 N 0.05606 0.58379 0.90614 0.0
C503 C 0.04292 0.55547 0.94663 0.0
C504 C 1.0038 0.55329 0.95281 0.0
C505 C 1.01497 0.04114 0.05346 0.0
C506 C 0.97814 0.05234 0.06505 0.0
C507 C 0.02603 1.00415 0.06014 0.0
C508 C 1.00081 0.97654 0.07885 0.0
H509 H 0.0355 0.06103 0.03814 0.0
H510 H 0.05471 0.99722 0.04993 0.0
S511 S 0.90121 0.99125 0.11784 0.0
N512 N 0.91645 0.03262 0.09834 0.0
N513 N 0.93731 0.96333 0.11081 0.0
C514 C 0.96398 0.98737 0.09183 0.0
C515 C 0.95266 0.02512 0.08497 0.0
C516 C 0.04979 0.05386 0.47004 0.0
C517 C 0.0641 0.01881 0.4876 0.0
C518 C 1.01187 0.06187 0.47543 0.0
C519 C 0.98652 0.03513 0.4982 0.0
H520 H 0.06802 0.07549 0.45267 0.0
H521 H 1.00247 0.08944 0.46188 0.0
S522 S 1.0095 0.93838 0.54723 0.0
N523 N 0.04954 0.95662 0.52654 0.0
N524 N 0.9786 0.9717 0.53644 0.0
C525 C 1.00039 0.99977 0.51483 0.0
C526 C 0.03902 0.99163 0.50962 0.0
C527 C 0.54179 0.99155 0.52818 0.0
C528 C 0.50626 0.98031 0.50875 0.0
C529 C 0.5516 0.02863 0.5253 0.0
C530 C 0.52634 0.05626 0.50291 0.0
H531 H 0.56233 0.97158 0.54609 0.0
H532 H 0.57937 0.03557 0.54098 0.0
S533 S 0.42976 0.0416 0.44498 0.0
N534 N 0.44565 1.00009 0.46538 0.0
N535 N 0.46417 0.0696 0.46008 0.0
C536 C 0.49072 0.04547 0.48297 0.0
C537 C 0.48068 1.00762 0.48583 0.0
C538 C 0.5417 0.47856 0.50776 0.0
C539 C 0.56646 0.50536 0.53176 0.0
C540 C 0.50382 0.48625 0.50083 0.0
C541 C 0.48892 0.52107 0.51778 0.0
H542 H 0.55154 0.4512 0.49422 0.0
H543 H 0.48611 0.4646 0.48216 0.0
S544 S 0.5418 0.60134 0.58186 0.0
N545 N 0.57317 0.56844 0.57179 0.0
N546 N 0.50226 0.58296 0.55892 0.0
C547 C 0.51337 0.54823 0.54171 0.0
C548 C 0.55199 0.54039 0.54864 0.0
C549 C 0.95374 0.54119 0.57927 0.0
C550 C 0.98902 0.55127 0.55516 0.0
C551 C 0.94196 0.50469 0.57525 0.0
C552 C 0.96497 0.47653 0.54717 0.0
H553 H 0.93504 0.56158 0.60212 0.0
H554 H 0.91459 0.49855 0.595 0.0
S555 S 0.05939 0.48841 0.47321 0.0
N556 N 0.0465 0.52994 0.49949 0.0
N557 N 0.02438 0.46165 0.49235 0.0
C558 C 1.00012 0.48627 0.52179 0.0
C559 C 1.01211 0.52348 0.52566 0.0
loop_
_geom_bond_atom_site_label_1
_geom_bond_atom_site_label_2
_geom_bond_distance
_geom_bond_site_symmetry_2
_ccdc_geom_bond_type
Mg0 O7 2.141 . S
Mg0 O8 2.048 . S
Mg0 O9 2.048 . S
Mg0 O12 2.141 . S
C1 O2 1.331 . S
C1 O8 1.183 1_565 S
O2 C1 1.331 . S
C3 O4 1.245 . S
C3 O12 1.289 1_565 S
O4 C3 1.245 . S
C5 O6 1.245 1_556 S
C5 O7 1.289 1_566 S
O6 C5 1.245 1_554 S
O7 Mg0 2.141 . S
O7 C5 1.289 1_544 S
O8 Mg0 2.048 . S
O8 C1 1.183 1_545 S
O9 Mg0 2.048 . S
O9 C10 1.195 . S
C10 O9 1.195 . S
C10 O11 1.313 1_545 S
O11 C10 1.313 1_565 S
O12 Mg0 2.141 . S
O12 C3 1.289 1_545 S
Mg13 O20 2.141 . S
Mg13 O21 2.048 . S
Mg13 O22 2.048 . S
Mg13 O25 2.141 . S
C14 O15 1.313 . S
C14 O21 1.195 . S
O15 C14 1.313 . S
C16 O17 1.245 . S
C16 O25 1.289 1_556 S
O17 C16 1.245 . S
C18 O19 1.245 . S
C18 O20 1.289 . S
O19 C18 1.245 . S
O20 Mg13 2.141 . S
O20 C18 1.289 . S
O21 Mg13 2.048 . S
O21 C14 1.195 . S
O22 Mg13 2.048 . S
O22 C23 1.195 . S
C23 O22 1.195 . S
C23 O24 1.313 . S
O24 C23 1.313 . S
O25 Mg13 2.141 . S
O25 C16 1.289 1_554 S
Mg26 O33 2.141 . S
Mg26 O34 2.048 . S
Mg26 O35 2.048 . S
Mg26 O38 2.141 . S
C27 O28 1.313 . S
C27 O34 1.195 . S
O28 C27 1.313 . S
C29 O30 1.245 . S
C29 O38 1.289 . S
O30 C29 1.245 . S
C31 O32 1.245 1_556 S
C31 O33 1.289 1_556 S
O32 C31 1.245 1_554 S
O33 Mg26 2.141 . S
O33 C31 1.289 1_554 S
O34 Mg26 2.048 . S
O34 C27 1.195 . S
O35 Mg26 2.048 . S
O35 C36 1.195 . S
C36 O35 1.195 . S
C36 O37 1.313 . S
O37 C36 1.313 . S
O38 Mg26 2.141 . S
O38 C29 1.289 . S
Mg39 O46 2.141 . S
Mg39 O47 2.048 . S
Mg39 O48 2.048 . S
Mg39 O51 2.141 . S
C40 O41 1.313 . S
C40 O47 1.195 1_455 S
O41 C40 1.313 . S
C42 O43 1.245 1_655 S
C42 O51 1.289 1_556 S
O43 C42 1.245 1_455 S
C44 O45 1.245 . S
C44 O46 1.289 1_455 S
O45 C44 1.245 . S
O46 Mg39 2.141 . S
O46 C44 1.289 1_655 S
O47 Mg39 2.048 . S
O47 C40 1.195 1_655 S
O48 Mg39 2.048 . S
O48 C49 1.195 1_655 S
C49 O48 1.195 1_455 S
C49 O50 1.313 . S
O50 C49 1.313 . S
O51 Mg39 2.141 . S
O51 C42 1.289 1_554 S
Mg52 O59 2.141 . S
Mg52 O60 2.048 . S
Mg52 O61 2.048 . S
Mg52 O64 2.141 . S
C53 O54 1.340 . S
C53 O60 1.176 1_545 S
O54 C53 1.340 . S
C55 O56 1.245 . S
C55 O64 1.289 1_545 S
O56 C55 1.245 . S
C57 O58 1.245 . S
C57 O59 1.289 1_545 S
O58 C57 1.245 . S
O59 Mg52 2.141 . S
O59 C57 1.289 1_565 S
O60 Mg52 2.048 . S
O60 C53 1.176 1_565 S
O61 Mg52 2.048 . S
O61 C62 1.195 . S
C62 O61 1.195 . S
C62 O63 1.313 1_565 S
O63 C62 1.313 1_545 S
O64 Mg52 2.141 . S
O64 C55 1.289 1_565 S
Mg65 O72 2.141 . S
Mg65 O73 2.048 . S
Mg65 O74 2.048 . S
Mg65 O77 2.141 . S
C66 O67 1.313 . S
C66 O73 1.195 . S
O67 C66 1.313 . S
C68 O69 1.245 . S
C68 O77 1.289 . S
O69 C68 1.245 . S
C70 O71 1.245 . S
C70 O72 1.289 . S
O71 C70 1.245 . S
O72 Mg65 2.141 . S
O72 C70 1.289 . S
O73 Mg65 2.048 . S
O73 C66 1.195 . S
O74 Mg65 2.048 . S
O74 C75 1.195 . S
C75 O74 1.195 . S
C75 O76 1.313 . S
O76 C75 1.313 . S
O77 Mg65 2.141 . S
O77 C68 1.289 . S
Mg78 O85 2.141 . S
Mg78 O86 2.048 . S
Mg78 O87 2.048 . S
Mg78 O90 2.141 . S
C79 O80 1.313 . S
C79 O86 1.195 . S
O80 C79 1.313 . S
C81 O82 1.245 . S
C81 O90 1.289 . S
O82 C81 1.245 . S
C83 O84 1.245 . S
C83 O85 1.289 . S
O84 C83 1.245 . S
O85 Mg78 2.141 . S
O85 C83 1.289 . S
O86 Mg78 2.048 . S
O86 C79 1.195 . S
O87 Mg78 2.048 . S
O87 C88 1.195 . S
C88 O87 1.195 . S
C88 O89 1.313 . S
O89 C88 1.313 . S
O90 Mg78 2.141 . S
O90 C81 1.289 . S
Mg91 O98 2.141 . S
Mg91 O99 2.048 . S
Mg91 O100 2.048 . S
Mg91 O103 2.141 . S
C92 O93 1.313 . S
C92 O99 1.195 1_655 S
O93 C92 1.313 . S
C94 O95 1.245 1_455 S
C94 O103 1.289 . S
O95 C94 1.245 1_655 S
C96 O97 1.245 . S
C96 O98 1.289 1_655 S
O97 C96 1.245 . S
O98 Mg91 2.141 . S
O98 C96 1.289 1_455 S
O99 Mg91 2.048 . S
O99 C92 1.195 1_455 S
O100 Mg91 2.048 . S
O100 C101 1.195 1_455 S
C101 O100 1.195 1_655 S
C101 O102 1.313 . S
O102 C101 1.313 . S
O103 Mg91 2.141 . S
O103 C94 1.289 . S
Mg104 O111 2.141 . S
Mg104 O112 2.048 . S
Mg104 O113 2.048 . S
Mg104 O116 2.141 . S
C105 O106 1.313 . S
C105 O112 1.195 1_565 S
O106 C105 1.313 . S
C107 O108 1.245 . S
C107 O116 1.289 1_565 S
O108 C107 1.245 . S
C109 O110 1.245 1_545 S
C109 O111 1.289 1_554 S
O110 C109 1.245 1_565 S
O111 Mg104 2.141 . S
O111 C109 1.289 1_556 S
O112 Mg104 2.048 . S
O112 C105 1.195 1_545 S
O113 Mg104 2.048 . S
O113 C114 1.195 1_545 S
C114 O113 1.195 1_565 S
C114 O115 1.313 . S
O115 C114 1.313 . S
O116 Mg104 2.141 . S
O116 C107 1.289 1_545 S
Mg117 O124 2.141 . S
Mg117 O125 2.048 . S
Mg117 O126 2.048 . S
Mg117 O129 2.141 . S
C118 O119 1.313 . S
C118 O125 1.195 . S
O119 C118 1.313 . S
C120 O121 1.245 . S
C120 O129 1.289 . S
O121 C120 1.245 . S
C122 O123 1.245 . S
C122 O124 1.289 1_554 S
O123 C122 1.245 . S
O124 Mg117 2.141 . S
O124 C122 1.289 1_556 S
O125 Mg117 2.048 . S
O125 C118 1.195 . S
O126 Mg117 2.048 . S
O126 C127 1.195 . S
C127 O126 1.195 . S
C127 O128 1.313 . S
O128 C127 1.313 . S
O129 Mg117 2.141 . S
O129 C120 1.289 . S
Mg130 O137 2.141 . S
Mg130 O138 2.048 . S
Mg130 O139 2.048 . S
Mg130 O142 2.141 . S
C131 O132 1.313 . S
C131 O138 1.195 . S
O132 C131 1.313 . S
C133 O134 1.245 . S
C133 O142 1.289 . S
O134 C133 1.245 . S
C135 O136 1.245 . S
C135 O137 1.289 1_554 S
O136 C135 1.245 . S
O137 Mg130 2.141 . S
O137 C135 1.289 1_556 S
O138 Mg130 2.048 . S
O138 C131 1.195 . S
O139 Mg130 2.048 . S
O139 C140 1.195 . S
C140 O139 1.195 . S
C140 O141 1.313 . S
O141 C140 1.313 . S
O142 Mg130 2.141 . S
O142 C133 1.289 . S
Mg143 O150 2.141 . S
Mg143 O151 2.048 . S
Mg143 O152 2.048 . S
Mg143 O155 2.141 . S
C144 O145 1.313 . S
C144 O151 1.195 1_655 S
O145 C144 1.313 . S
C146 O147 1.245 . S
C146 O155 1.289 1_655 S
O147 C146 1.245 . S
C148 O149 1.245 1_455 S
C148 O150 1.289 1_554 S
O149 C148 1.245 1_655 S
O150 Mg143 2.141 . S
O150 C148 1.289 1_556 S
O151 Mg143 2.048 . S
O151 C144 1.195 1_455 S
O152 Mg143 2.048 . S
O152 C153 1.195 1_455 S
C153 O152 1.195 1_655 S
C153 O154 1.313 . S
O154 C153 1.313 . S
O155 Mg143 2.141 . S
O155 C146 1.289 1_455 S
Mg156 O163 2.141 . S
Mg156 O164 2.048 . S
Mg156 O165 2.048 . S
Mg156 O168 2.141 . S
C157 O158 1.313 . S
C157 O164 1.195 1_545 S
O158 C157 1.313 . S
C159 O160 1.245 . S
C159 O168 1.289 1_545 S
O160 C159 1.245 . S
C161 O162 1.245 1_565 S
C161 O163 1.289 . S
O162 C161 1.245 1_545 S
O163 Mg156 2.141 . S
O163 C161 1.289 . S
O164 Mg156 2.048 . S
O164 C157 1.195 1_565 S
O165 Mg156 2.048 . S
O165 C166 1.195 1_565 S
C166 O165 1.195 1_545 S
C166 O167 1.313 . S
O167 C166 1.313 . S
O168 Mg156 2.141 . S
O168 C159 1.289 1_565 S
Mg169 O176 2.141 . S
Mg169 O177 2.048 . S
Mg169 O178 2.048 . S
Mg169 O181 2.141 . S
C170 O171 1.313 . S
C170 O177 1.195 . S
O171 C170 1.313 . S
C172 O173 1.245 . S
C172 O181 1.289 . S
O173 C172 1.245 . S
C174 O175 1.245 . S
C174 O176 1.289 . S
O175 C174 1.245 . S
O176 Mg169 2.141 . S
O176 C174 1.289 . S
O177 Mg169 2.048 . S
O177 C170 1.195 . S
O178 Mg169 2.048 . S
O178 C179 1.195 . S
C179 O178 1.195 . S
C179 O180 1.313 . S
O180 C179 1.313 . S
O181 Mg169 2.141 . S
O181 C172 1.289 . S
Mg182 O189 2.141 . S
Mg182 O190 2.048 . S
Mg182 O191 2.048 . S
Mg182 O194 2.141 . S
C183 O184 1.313 . S
C183 O190 1.195 . S
O184 C183 1.313 . S
C185 O186 1.245 . S
C185 O194 1.289 . S
O186 C185 1.245 . S
C187 O188 1.245 . S
C187 O189 1.289 . S
O188 C187 1.245 . S
O189 Mg182 2.141 . S
O189 C187 1.289 . S
O190 Mg182 2.048 . S
O190 C183 1.195 . S
O191 Mg182 2.048 . S
O191 C192 1.195 . S
C192 O191 1.195 . S
C192 O193 1.313 . S
O193 C192 1.313 . S
O194 Mg182 2.141 . S
O194 C185 1.289 . S
Mg195 O202 2.141 . S
Mg195 O203 2.048 . S
Mg195 O204 2.048 . S
Mg195 O207 2.141 . S
C196 O197 1.313 . S
C196 O203 1.195 1_455 S
O197 C196 1.313 . S
C198 O199 1.245 . S
C198 O207 1.289 1_455 S
O199 C198 1.245 . S
C200 O201 1.245 1_655 S
C200 O202 1.289 . S
O201 C200 1.245 1_455 S
O202 Mg195 2.141 . S
O202 C200 1.289 . S
O203 Mg195 2.048 . S
O203 C196 1.195 1_655 S
O204 Mg195 2.048 . S
O204 C205 1.195 1_655 S
C205 O204 1.195 1_455 S
C205 O206 1.313 . S
O206 C205 1.313 . S
O207 Mg195 2.141 . S
O207 C198 1.289 1_655 S
C208 C209 1.369 . S
C208 C210 1.419 . S
C208 H212 0.930 . S
C209 C208 1.369 . S
C209 C218 1.429 . S
C210 C208 1.419 . S
C210 C211 1.363 . S
C210 H213 0.929 . S
C211 C210 1.363 . S
C211 C217 1.428 . S
H212 C208 0.930 . S
H213 C210 0.929 . S
S214 N215 1.613 . S
S214 N216 1.610 . S
N215 S214 1.613 . S
N215 C218 1.350 . S
N216 S214 1.610 . S
N216 C217 1.351 . S
C217 C211 1.428 . S
C217 N216 1.351 . S
C217 C218 1.434 . S
C218 C209 1.429 . S
C218 N215 1.350 . S
C218 C217 1.434 . S
C219 C220 1.369 . S
C219 C221 1.419 . S
C219 H223 0.930 . S
C220 C219 1.369 . S
C220 C229 1.429 . S
C221 C219 1.419 . S
C221 C222 1.363 . S
C221 H224 0.929 . S
C222 C221 1.363 . S
C222 C228 1.428 . S
H223 C219 0.930 . S
H224 C221 0.929 . S
S225 N226 1.613 . S
S225 N227 1.610 . S
N226 S225 1.613 . S
N226 C229 1.350 . S
N227 S225 1.610 . S
N227 C228 1.351 . S
C228 C222 1.428 . S
C228 N227 1.351 . S
C228 C229 1.434 . S
C229 C220 1.429 . S
C229 N226 1.350 . S
C229 C228 1.434 . S
C230 C231 1.369 . S
C230 C232 1.419 . S
C230 H234 0.930 . S
C231 C230 1.369 . S
C231 C240 1.429 . S
C232 C230 1.419 . S
C232 C233 1.363 . S
C232 H235 0.929 . S
C233 C232 1.363 . S
C233 C239 1.428 . S
H234 C230 0.930 . S
H235 C232 0.929 . S
S236 N237 1.613 1_455 S
S236 N238 1.610 . S
N237 S236 1.613 1_655 S
N237 C240 1.350 . S
N238 S236 1.610 . S
N238 C239 1.351 1_455 S
C239 C233 1.428 . S
C239 N238 1.351 1_655 S
C239 C240 1.434 . S
C240 C231 1.429 . S
C240 N237 1.350 . S
C240 C239 1.434 . S
C241 C242 1.369 . S
C241 C243 1.419 . S
C241 H245 0.930 . S
C242 C241 1.369 . S
C242 C251 1.429 . S
C243 C241 1.419 . S
C243 C244 1.363 . S
C243 H246 0.929 . S
C244 C243 1.363 . S
C244 C250 1.428 . S
H245 C241 0.930 . S
H246 C243 0.929 . S
S247 N248 1.613 . S
S247 N249 1.610 . S
N248 S247 1.613 . S
N248 C251 1.350 . S
N249 S247 1.610 . S
N249 C250 1.351 . S
C250 C244 1.428 . S
C250 N249 1.351 . S
C250 C251 1.434 . S
C251 C242 1.429 . S
C251 N248 1.350 . S
C251 C250 1.434 . S
C252 C253 1.369 . S
C252 C254 1.419 . S
C252 H256 0.927 1_565 S
C253 C252 1.369 . S
C253 C262 1.429 . S
C254 C252 1.419 . S
C254 C255 1.363 . S
C254 H257 0.929 . S
C255 C254 1.363 . S
C255 C261 1.428 . S
H256 C252 0.927 1_545 S
H257 C254 0.929 . S
S258 N259 1.613 . S
S258 N260 1.610 . S
N259 S258 1.613 . S
N259 C262 1.350 . S
N260 S258 1.610 . S
N260 C261 1.351 . S
C261 C255 1.428 . S
C261 N260 1.351 . S
C261 C262 1.434 . S
C262 C253 1.429 . S
C262 N259 1.350 . S
C262 C261 1.434 . S
C263 C264 1.369 . S
C263 C265 1.419 . S
C263 H267 0.930 . S
C264 C263 1.369 . S
C264 C273 1.429 . S
C265 C263 1.419 . S
C265 C266 1.363 . S
C265 H268 0.929 . S
C266 C265 1.363 . S
C266 C272 1.428 . S
H267 C263 0.930 . S
H268 C265 0.929 . S
S269 N270 1.613 . S
S269 N271 1.610 . S
N270 S269 1.613 . S
N270 C273 1.350 . S
N271 S269 1.610 . S
N271 C272 1.351 . S
C272 C266 1.428 . S
C272 N271 1.351 . S
C272 C273 1.434 . S
C273 C264 1.429 . S
C273 N270 1.350 . S
C273 C272 1.434 . S
C274 C275 1.369 . S
C274 C276 1.419 . S
C274 H278 0.930 . S
C275 C274 1.369 . S
C275 C284 1.429 . S
C276 C274 1.419 . S
C276 C277 1.363 . S
C276 H279 0.929 . S
C277 C276 1.363 . S
C277 C283 1.428 . S
H278 C274 0.930 . S
H279 C276 0.929 . S
S280 N281 1.613 . S
S280 N282 1.610 . S
N281 S280 1.613 . S
N281 C284 1.350 . S
N282 S280 1.610 . S
N282 C283 1.351 . S
C283 C277 1.428 . S
C283 N282 1.351 . S
C283 C284 1.434 . S
C284 C275 1.429 . S
C284 N281 1.350 . S
C284 C283 1.434 . S
C285 C286 1.369 . S
C285 C287 1.419 . S
C285 H289 0.930 . S
C286 C285 1.369 . S
C286 C295 1.429 . S
C287 C285 1.419 . S
C287 C288 1.363 . S
C287 H290 0.929 . S
C288 C287 1.363 . S
C288 C294 1.428 . S
H289 C285 0.930 . S
H290 C287 0.929 . S
S291 N292 1.610 1_665 S
S291 N293 1.610 . S
N292 S291 1.610 1_445 S
N292 C295 1.332 1_455 S
N293 S291 1.610 . S
N293 C294 1.351 1_565 S
C294 C288 1.428 . S
C294 N293 1.351 1_545 S
C294 C295 1.434 . S
C295 C286 1.429 . S
C295 N292 1.332 1_655 S
C295 C294 1.434 . S
C296 C297 1.369 . S
C296 C298 1.419 . S
C296 H300 0.930 . S
C297 C296 1.369 . S
C297 C306 1.429 1_565 S
C298 C296 1.419 . S
C298 C299 1.363 . S
C298 H301 0.929 . S
C299 C298 1.363 . S
C299 C305 1.428 1_565 S
H300 C296 0.930 . S
H301 C298 0.929 . S
S302 N303 1.613 . S
S302 N304 1.610 . S
N303 S302 1.613 . S
N303 C306 1.350 . S
N304 S302 1.610 . S
N304 C305 1.351 . S
C305 C299 1.428 1_545 S
C305 N304 1.351 . S
C305 C306 1.434 . S
C306 C297 1.429 1_545 S
C306 N303 1.350 . S
C306 C305 1.434 . S
C307 C308 1.369 . S
C307 C309 1.419 . S
C307 H311 0.930 . S
C308 C307 1.369 . S
C308 C317 1.429 . S
C309 C307 1.419 . S
C309 C310 1.363 . S
C309 H312 0.929 . S
C310 C309 1.363 . S
C310 C316 1.428 . S
H311 C307 0.930 . S
H312 C309 0.929 . S
S313 N314 1.613 . S
S313 N315 1.610 . S
N314 S313 1.613 . S
N314 C317 1.350 . S
N315 S313 1.610 . S
N315 C316 1.351 . S
C316 C310 1.428 . S
C316 N315 1.351 . S
C316 C317 1.434 . S
C317 C308 1.429 . S
C317 N314 1.350 . S
C317 C316 1.434 . S
C318 C319 1.369 . S
C318 C320 1.419 . S
C318 H322 0.930 . S
C319 C318 1.369 . S
C319 C328 1.429 . S
C320 C318 1.419 . S
C320 C321 1.363 . S
C320 H323 0.929 . S
C321 C320 1.363 . S
C321 C327 1.428 . S
H322 C318 0.930 . S
H323 C320 0.929 . S
S324 N325 1.613 . S
S324 N326 1.610 . S
N325 S324 1.613 . S
N325 C328 1.350 . S
N326 S324 1.610 . S
N326 C327 1.351 . S
C327 C321 1.428 . S
C327 N326 1.351 . S
C327 C328 1.434 . S
C328 C319 1.429 . S
C328 N325 1.350 . S
C328 C327 1.434 . S
C329 C330 1.369 . S
C329 C331 1.419 . S
C329 H333 0.930 . S
C330 C329 1.369 . S
C330 C339 1.429 . S
C331 C329 1.419 . S
C331 C332 1.363 . S
C331 H334 0.929 . S
C332 C331 1.363 . S
C332 C338 1.428 . S
H333 C329 0.930 . S
H334 C331 0.929 . S
S335 N336 1.613 1_455 S
S335 N337 1.610 . S
N336 S335 1.613 1_655 S
N336 C339 1.350 . S
N337 S335 1.610 . S
N337 C338 1.351 1_455 S
C338 C332 1.428 . S
C338 N337 1.351 1_655 S
C338 C339 1.434 . S
C339 C330 1.429 . S
C339 N336 1.350 . S
C339 C338 1.434 . S
C340 C341 1.369 1_565 S
C340 C342 1.419 . S
C340 H344 0.930 . S
C341 C340 1.369 1_545 S
C341 C350 1.429 . S
C342 C340 1.419 . S
C342 C343 1.363 1_565 S
C342 H345 0.929 . S
C343 C342 1.363 1_545 S
C343 C349 1.428 . S
H344 C340 0.930 . S
H345 C342 0.929 . S
S346 N347 1.613 . S
S346 N348 1.610 . S
N347 S346 1.613 . S
N347 C350 1.350 . S
N348 S346 1.610 . S
N348 C349 1.351 . S
C349 C343 1.428 . S
C349 N348 1.351 . S
C349 C350 1.434 . S
C350 C341 1.429 . S
C350 N347 1.350 . S
C350 C349 1.434 . S
C351 C352 1.369 . S
C351 C353 1.419 . S
C351 H355 0.930 . S
C352 C351 1.369 . S
C352 C361 1.429 . S
C353 C351 1.419 . S
C353 C354 1.363 . S
C353 H356 0.929 . S
C354 C353 1.363 . S
C354 C360 1.428 . S
H355 C351 0.930 . S
H356 C353 0.929 . S
S357 N358 1.613 . S
S357 N359 1.610 . S
N358 S357 1.613 . S
N358 C361 1.350 . S
N359 S357 1.610 . S
N359 C360 1.351 . S
C360 C354 1.428 . S
C360 N359 1.351 . S
C360 C361 1.434 . S
C361 C352 1.429 . S
C361 N358 1.350 . S
C361 C360 1.434 . S
C362 C363 1.369 . S
C362 C364 1.419 . S
C362 H366 0.930 . S
C363 C362 1.369 . S
C363 C372 1.429 . S
C364 C362 1.419 . S
C364 C365 1.363 . S
C364 H367 0.929 . S
C365 C364 1.363 . S
C365 C371 1.428 . S
H366 C362 0.930 . S
H367 C364 0.929 . S
S368 N369 1.613 . S
S368 N370 1.610 . S
N369 S368 1.613 . S
N369 C372 1.350 . S
N370 S368 1.610 . S
N370 C371 1.351 . S
C371 C365 1.428 . S
C371 N370 1.351 . S
C371 C372 1.434 . S
C372 C363 1.429 . S
C372 N369 1.350 . S
C372 C371 1.434 . S
C373 C374 1.365 1_655 S
C373 C375 1.420 . S
C373 H377 0.933 . S
C374 C373 1.365 1_455 S
C374 C383 1.429 . S
C375 C373 1.420 . S
C375 C376 1.363 1_655 S
C375 H378 0.929 . S
C376 C375 1.363 1_455 S
C376 C382 1.428 . S
H377 C373 0.933 . S
H378 C375 0.929 . S
S379 N380 1.613 . S
S379 N381 1.610 . S
N380 S379 1.613 . S
N380 C383 1.350 . S
N381 S379 1.610 . S
N381 C382 1.351 . S
C382 C376 1.428 . S
C382 N381 1.351 . S
C382 C383 1.434 . S
C383 C374 1.429 . S
C383 N380 1.350 . S
C383 C382 1.434 . S
C384 C385 1.369 1_565 S
C384 C386 1.419 . S
C384 H388 0.930 . S
C385 C384 1.369 1_545 S
C385 C394 1.429 . S
C386 C384 1.419 . S
C386 C387 1.363 1_565 S
C386 H389 0.929 . S
C387 C386 1.363 1_545 S
C387 C393 1.428 . S
H388 C384 0.930 . S
H389 C386 0.929 . S
S390 N391 1.613 . S
S390 N392 1.610 . S
N391 S390 1.613 . S
N391 C394 1.350 . S
N392 S390 1.610 . S
N392 C393 1.351 . S
C393 C387 1.428 . S
C393 N392 1.351 . S
C393 C394 1.434 . S
C394 C385 1.429 . S
C394 N391 1.350 . S
C394 C393 1.434 . S
C395 C396 1.369 . S
C395 C397 1.419 . S
C395 H399 0.930 . S
C396 C395 1.369 . S
C396 C405 1.429 . S
C397 C395 1.419 . S
C397 C398 1.363 . S
C397 H400 0.929 . S
C398 C397 1.363 . S
C398 C404 1.428 . S
H399 C395 0.930 . S
H400 C397 0.929 . S
S401 N402 1.613 . S
S401 N403 1.610 . S
N402 S401 1.613 . S
N402 C405 1.350 . S
N403 S401 1.610 . S
N403 C404 1.351 . S
C404 C398 1.428 . S
C404 N403 1.351 . S
C404 C405 1.434 . S
C405 C396 1.429 . S
C405 N402 1.350 . S
C405 C404 1.434 . S
C406 C407 1.369 . S
C406 C408 1.419 . S
C406 H410 0.930 . S
C407 C406 1.369 . S
C407 C416 1.429 . S
C408 C406 1.419 . S
C408 C409 1.363 . S
C408 H411 0.929 . S
C409 C408 1.363 . S
C409 C415 1.428 . S
H410 C406 0.930 . S
H411 C408 0.929 . S
S412 N413 1.613 . S
S412 N414 1.610 . S
N413 S412 1.613 . S
N413 C416 1.350 . S
N414 S412 1.610 . S
N414 C415 1.351 . S
C415 C409 1.428 . S
C415 N414 1.351 . S
C415 C416 1.434 . S
C416 C407 1.429 . S
C416 N413 1.350 . S
C416 C415 1.434 . S
C417 C418 1.369 1_655 S
C417 C419 1.419 . S
C417 H421 0.930 . S
C418 C417 1.369 1_455 S
C418 C427 1.429 . S
C419 C417 1.419 . S
C419 C420 1.363 1_655 S
C419 H422 0.929 . S
C420 C419 1.363 1_455 S
C420 C426 1.428 . S
H421 C417 0.930 . S
H422 C419 0.929 . S
S423 N424 1.613 . S
S423 N425 1.610 . S
N424 S423 1.613 . S
N424 C427 1.350 . S
N425 S423 1.610 . S
N425 C426 1.351 . S
C426 C420 1.428 . S
C426 N425 1.351 . S
C426 C427 1.434 . S
C427 C418 1.429 . S
C427 N424 1.350 . S
C427 C426 1.434 . S
C428 C429 1.369 . S
C428 C430 1.419 . S
C428 H432 0.930 . S
C429 C428 1.369 . S
C429 C438 1.429 1_565 S
C430 C428 1.419 . S
C430 C431 1.363 . S
C430 H433 0.929 . S
C431 C430 1.363 . S
C431 C437 1.428 . S
H432 C428 0.930 . S
H433 C430 0.929 . S
S434 N435 1.613 . S
S434 N436 1.610 . S
N435 S434 1.613 . S
N435 C438 1.350 . S
N436 S434 1.610 . S
N436 C437 1.351 1_545 S
C437 C431 1.428 . S
C437 N436 1.351 1_565 S
C437 C438 1.434 1_565 S
C438 C429 1.429 1_545 S
C438 N435 1.350 . S
C438 C437 1.434 1_545 S
C439 C440 1.369 . S
C439 C441 1.419 . S
C439 H443 0.930 . S
C440 C439 1.369 . S
C440 C449 1.429 . S
C441 C439 1.419 . S
C441 C442 1.363 . S
C441 H444 0.929 . S
C442 C441 1.363 . S
C442 C448 1.428 . S
H443 C439 0.930 . S
H444 C441 0.929 . S
S445 N446 1.613 . S
S445 N447 1.610 . S
N446 S445 1.613 . S
N446 C449 1.350 . S
N447 S445 1.610 . S
N447 C448 1.351 . S
C448 C442 1.428 . S
C448 N447 1.351 . S
C448 C449 1.434 . S
C449 C440 1.429 . S
C449 N446 1.350 . S
C449 C448 1.434 . S
C450 C451 1.369 . S
C450 C452 1.419 . S
C450 H454 0.930 . S
C451 C450 1.369 . S
C451 C460 1.429 . S
C452 C450 1.419 . S
C452 C453 1.363 . S
C452 H455 0.929 . S
C453 C452 1.363 . S
C453 C459 1.428 . S
H454 C450 0.930 . S
H455 C452 0.929 . S
S456 N457 1.613 . S
S456 N458 1.610 . S
N457 S456 1.613 . S
N457 C460 1.350 . S
N458 S456 1.610 . S
N458 C459 1.351 . S
C459 C453 1.428 . S
C459 N458 1.351 . S
C459 C460 1.434 . S
C460 C451 1.429 . S
C460 N457 1.350 . S
C460 C459 1.434 . S
C461 C462 1.369 1_455 S
C461 C463 1.419 . S
C461 H465 0.930 . S
C462 C461 1.369 1_655 S
C462 C471 1.429 . S
C463 C461 1.419 . S
C463 C464 1.363 1_455 S
C463 H466 0.929 . S
C464 C463 1.363 1_655 S
C464 C470 1.428 . S
H465 C461 0.930 . S
H466 C463 0.929 . S
S467 N468 1.613 . S
S467 N469 1.610 . S
N468 S467 1.613 . S
N468 C471 1.350 . S
N469 S467 1.610 . S
N469 C470 1.351 . S
C470 C464 1.428 . S
C470 N469 1.351 . S
C470 C471 1.434 . S
C471 C462 1.429 . S
C471 N468 1.350 . S
C471 C470 1.434 . S
C472 C473 1.369 1_566 S
C472 C474 1.419 . S
C472 H476 0.930 . S
C473 C472 1.369 1_544 S
C473 C482 1.429 . S
C474 C472 1.419 . S
C474 C475 1.363 . S
C474 H477 0.929 . S
C475 C474 1.363 . S
C475 C481 1.428 1_566 S
H476 C472 0.930 . S
H477 C474 0.929 . S
S478 N479 1.613 . S
S478 N480 1.610 . S
N479 S478 1.613 . S
N479 C482 1.350 . S
N480 S478 1.610 . S
N480 C481 1.351 . S
C481 C475 1.428 1_544 S
C481 N480 1.351 . S
C481 C482 1.434 . S
C482 C473 1.429 . S
C482 N479 1.350 . S
C482 C481 1.434 . S
C483 C484 1.369 . S
C483 C485 1.419 . S
C483 H487 0.930 . S
C484 C483 1.369 . S
C484 C493 1.429 1_554 S
C485 C483 1.419 . S
C485 C486 1.363 1_554 S
C485 H488 0.929 . S
C486 C485 1.363 1_556 S
C486 C492 1.428 . S
H487 C483 0.930 . S
H488 C485 0.929 . S
S489 N490 1.613 . S
S489 N491 1.610 . S
N490 S489 1.613 . S
N490 C493 1.350 . S
N491 S489 1.610 . S
N491 C492 1.351 . S
C492 C486 1.428 . S
C492 N491 1.351 . S
C492 C493 1.434 . S
C493 C484 1.429 1_556 S
C493 N490 1.350 . S
C493 C492 1.434 . S
C494 C495 1.369 1_554 S
C494 C496 1.419 1_655 S
C494 H498 0.930 . S
C495 C494 1.369 1_556 S
C495 C504 1.429 . S
C496 C494 1.419 1_455 S
C496 C497 1.363 . S
C496 H499 0.929 . S
C497 C496 1.363 . S
C497 C503 1.428 1_554 S
H498 C494 0.930 . S
H499 C496 0.929 . S
S500 N501 1.613 1_455 S
S500 N502 1.610 . S
N501 S500 1.613 1_655 S
N501 C504 1.350 . S
N502 S500 1.610 . S
N502 C503 1.351 . S
C503 C497 1.428 1_556 S
C503 N502 1.351 . S
C503 C504 1.434 1_455 S
C504 C495 1.429 . S
C504 N501 1.350 . S
C504 C503 1.434 1_655 S
C505 C506 1.365 1_656 S
C505 C507 1.419 1_545 S
C505 H509 0.930 . S
C506 C505 1.365 1_454 S
C506 C515 1.433 . S
C507 C505 1.419 1_565 S
C507 C508 1.366 . S
C507 H510 0.929 . S
C508 C507 1.366 . S
C508 C514 1.425 1_656 S
H509 C505 0.930 . S
H510 C507 0.929 . S
S511 N512 1.613 1_565 S
S511 N513 1.610 . S
N512 S511 1.613 1_545 S
N512 C515 1.350 . S
N513 S511 1.610 . S
N513 C514 1.351 . S
C514 C508 1.425 1_454 S
C514 N513 1.351 . S
C514 C515 1.434 1_565 S
C515 C506 1.433 . S
C515 N512 1.350 . S
C515 C514 1.434 1_545 S
C516 C517 1.355 1_565 S
C516 C518 1.419 1_455 S
C516 H520 0.930 . S
C517 C516 1.355 1_545 S
C517 C526 1.442 . S
C518 C516 1.419 1_655 S
C518 C519 1.376 . S
C518 H521 0.929 . S
C519 C518 1.376 . S
C519 C525 1.415 1_565 S
H520 C516 0.930 . S
H521 C518 0.929 . S
S522 N523 1.613 1_655 S
S522 N524 1.610 . S
N523 S522 1.613 1_455 S
N523 C526 1.350 . S
N524 S522 1.610 . S
N524 C525 1.351 . S
C525 C519 1.415 1_545 S
C525 N524 1.351 . S
C525 C526 1.434 1_655 S
C526 C517 1.442 . S
C526 N523 1.350 . S
C526 C525 1.434 1_455 S
C527 C528 1.369 . S
C527 C529 1.419 1_565 S
C527 H531 0.930 . S
C528 C527 1.369 . S
C528 C537 1.429 . S
C529 C527 1.419 1_545 S
C529 C530 1.363 . S
C529 H532 0.929 . S
C530 C529 1.363 . S
C530 C536 1.428 . S
H531 C527 0.930 . S
H532 C529 0.929 . S
S533 N534 1.613 1_545 S
S533 N535 1.610 . S
N534 S533 1.613 1_565 S
N534 C537 1.350 . S
N535 S533 1.610 . S
N535 C536 1.351 . S
C536 C530 1.428 . S
C536 N535 1.351 . S
C536 C537 1.434 1_545 S
C537 C528 1.429 . S
C537 N534 1.350 . S
C537 C536 1.434 1_565 S
C538 C539 1.369 . S
C538 C540 1.419 . S
C538 H542 0.930 . S
C539 C538 1.369 . S
C539 C548 1.429 . S
C540 C538 1.419 . S
C540 C541 1.363 . S
C540 H543 0.929 . S
C541 C540 1.363 . S
C541 C547 1.428 . S
H542 C538 0.930 . S
H543 C540 0.929 . S
S544 N545 1.613 . S
S544 N546 1.610 . S
N545 S544 1.613 . S
N545 C548 1.350 . S
N546 S544 1.610 . S
N546 C547 1.351 . S
C547 C541 1.428 . S
C547 N546 1.351 . S
C547 C548 1.434 . S
C548 C539 1.429 . S
C548 N545 1.350 . S
C548 C547 1.434 . S
C549 C550 1.369 . S
C549 C551 1.419 . S
C549 H553 0.930 . S
C550 C549 1.369 . S
C550 C559 1.429 1_655 S
C551 C549 1.419 . S
C551 C552 1.363 1_655 S
C551 H554 0.929 . S
C552 C551 1.363 1_455 S
C552 C558 1.428 . S
H553 C549 0.930 . S
H554 C551 0.929 . S
S555 N556 1.613 . S
S555 N557 1.610 . S
N556 S555 1.613 . S
N556 C559 1.350 . S
N557 S555 1.610 . S
N557 C558 1.351 . S
C558 C552 1.428 . S
C558 N557 1.351 . S
C558 C559 1.434 . S
C559 C550 1.429 1_455 S
C559 N556 1.350 . S
C559 C558 1.434 . S
C209 C66 1.042 . S
C211 C10 1.118 . S
C220 C88 1.192 . S
C222 C14 1.148 . S
C231 C36 1.112 . S
C233 C92 1.073 . S
C242 C40 0.926 . S
C244 C62 0.973 . S
C253 C114 1.064 . S
C255 C179 1.046 . S
C264 C192 1.132 . S
C266 C127 1.145 . S
C275 C205 1.072 . S
C277 C140 1.041 . S
C286 C153 0.940 . S
C288 C166 0.937 . S
C297 C5 1.981 . S
C299 C157 1.973 1_565 S
C308 C170 1.994 . S
C310 C16 1.891 . S
C319 C31 2.057 . S
C321 C183 2.062 . S
C330 C42 1.892 . S
C332 C196 2.008 1_655 S
C341 C57 2.012 . S
C343 C105 2.005 1_545 S
C352 C68 1.940 . S
C354 C118 2.064 . S
C363 C83 2.002 . S
C365 C131 1.995 . S
C374 C94 1.872 . S
C376 C144 1.971 1_455 S
C385 C53 1.915 . S
C387 C109 1.873 . S
C396 C75 1.993 . S
C398 C122 1.896 . S
C407 C79 2.017 . S
C409 C135 1.939 . S
C418 C148 1.894 . S
C420 C101 2.007 1_455 S
C429 C1 1.949 . S
C431 C161 1.890 . S
C440 C174 1.935 . S
C442 C23 2.062 . S
C451 C187 1.892 . S
C453 C27 1.955 . S
C462 C49 1.973 1_655 S
C464 C200 1.873 . S
C473 C107 1.655 1_544 S
C475 C3 1.610 1_556 S
C484 C120 1.650 1_554 S
C486 C18 1.656 1_556 S
C495 C29 1.766 1_556 S
C497 C133 1.759 1_554 S
C506 C146 1.761 1_454 S
C508 C44 1.753 1_656 S
C517 C55 1.725 . S
C519 C159 1.753 1_565 S
C528 C172 1.768 . S
C530 C70 1.759 . S
C539 C185 1.658 . S
C541 C81 1.642 . S
C550 C198 1.655 1_655 S
C552 C96 1.646 1_455 S
