# Generated by pormake.
# Topology wme, (6)-cn, num edge types: 1
# Building blocks:
#     Node 0, Type 0, BuildingBlock: VOLQOD_clean_sbu_1, # of connection points: 6
#     Node 1, Type 0, BuildingBlock: VOLQOD_clean_sbu_1, # of connection points: 6
#     Node 2, Type 0, BuildingBlock: VOLQOD_clean_sbu_1, # of connection points: 6
#     Node 3, Type 0, BuildingBlock: VOLQOD_clean_sbu_1, # of connection points: 6
#     Node 4, Type 0, BuildingBlock: VOLQOD_clean_sbu_1, # of connection points: 6
#     Node 5, Type 0, BuildingBlock: VOLQOD_clean_sbu_1, # of connection points: 6
#     Node 6, Type 0, BuildingBlock: VOLQOD_clean_sbu_1, # of connection points: 6
#     Node 7, Type 0, BuildingBlock: VOLQOD_clean_sbu_1, # of connection points: 6
#     Node 8, Type 0, BuildingBlock: VOLQOD_clean_sbu_1, # of connection points: 6
#     Node 9, Type 0, BuildingBlock: VOLQOD_clean_sbu_1, # of connection points: 6
#     Node 10, Type 0, BuildingBlock: VOLQOD_clean_sbu_1, # of connection points: 6
#     Node 11, Type 0, BuildingBlock: VOLQOD_clean_sbu_1, # of connection points: 6
#     Edge 12, Type (0, 0), BuildingBlock: MIFKUJ_clean_linker_0, # of connection points: 2
#     Edge 13, Type (0, 0), BuildingBlock: MIFKUJ_clean_linker_0, # of connection points: 2
#     Edge 14, Type (0, 0), BuildingBlock: MIFKUJ_clean_linker_0, # of connection points: 2
#     Edge 15, Type (0, 0), BuildingBlock: MIFKUJ_clean_linker_0, # of connection points: 2
#     Edge 16, Type (0, 0), BuildingBlock: MIFKUJ_clean_linker_0, # of connection points: 2
#     Edge 17, Type (0, 0), BuildingBlock: MIFKUJ_clean_linker_0, # of connection points: 2
#     Edge 18, Type (0, 0), BuildingBlock: MIFKUJ_clean_linker_0, # of connection points: 2
#     Edge 19, Type (0, 0), BuildingBlock: MIFKUJ_clean_linker_0, # of connection points: 2
#     Edge 20, Type (0, 0), BuildingBlock: MIFKUJ_clean_linker_0, # of connection points: 2
#     Edge 21, Type (0, 0), BuildingBlock: MIFKUJ_clean_linker_0, # of connection points: 2
#     Edge 22, Type (0, 0), BuildingBlock: MIFKUJ_clean_linker_0, # of connection points: 2
#     Edge 23, Type (0, 0), BuildingBlock: MIFKUJ_clean_linker_0, # of connection points: 2
#     Edge 24, Type (0, 0), BuildingBlock: MIFKUJ_clean_linker_0, # of connection points: 2
#     Edge 25, Type (0, 0), BuildingBlock: MIFKUJ_clean_linker_0, # of connection points: 2
#     Edge 26, Type (0, 0), BuildingBlock: MIFKUJ_clean_linker_0, # of connection points: 2
#     Edge 27, Type (0, 0), BuildingBlock: MIFKUJ_clean_linker_0, # of connection points: 2
#     Edge 28, Type (0, 0), BuildingBlock: MIFKUJ_clean_linker_0, # of connection points: 2
#     Edge 29, Type (0, 0), BuildingBlock: MIFKUJ_clean_linker_0, # of connection points: 2
#     Edge 30, Type (0, 0), BuildingBlock: MIFKUJ_clean_linker_0, # of connection points: 2
#     Edge 31, Type (0, 0), BuildingBlock: MIFKUJ_clean_linker_0, # of connection points: 2
#     Edge 32, Type (0, 0), BuildingBlock: MIFKUJ_clean_linker_0, # of connection points: 2
#     Edge 33, Type (0, 0), BuildingBlock: MIFKUJ_clean_linker_0, # of connection points: 2
#     Edge 34, Type (0, 0), BuildingBlock: MIFKUJ_clean_linker_0, # of connection points: 2
#     Edge 35, Type (0, 0), BuildingBlock: MIFKUJ_clean_linker_0, # of connection points: 2
#     Edge 36, Type (0, 0), BuildingBlock: MIFKUJ_clean_linker_0, # of connection points: 2
#     Edge 37, Type (0, 0), BuildingBlock: MIFKUJ_clean_linker_0, # of connection points: 2
#     Edge 38, Type (0, 0), BuildingBlock: MIFKUJ_clean_linker_0, # of connection points: 2
#     Edge 39, Type (0, 0), BuildingBlock: MIFKUJ_clean_linker_0, # of connection points: 2
#     Edge 40, Type (0, 0), BuildingBlock: MIFKUJ_clean_linker_0, # of connection points: 2
#     Edge 41, Type (0, 0), BuildingBlock: MIFKUJ_clean_linker_0, # of connection points: 2
#     Edge 42, Type (0, 0), BuildingBlock: MIFKUJ_clean_linker_0, # of connection points: 2
#     Edge 43, Type (0, 0), BuildingBlock: MIFKUJ_clean_linker_0, # of connection points: 2
#     Edge 44, Type (0, 0), BuildingBlock: MIFKUJ_clean_linker_0, # of connection points: 2
#     Edge 45, Type (0, 0), BuildingBlock: MIFKUJ_clean_linker_0, # of connection points: 2
#     Edge 46, Type (0, 0), BuildingBlock: MIFKUJ_clean_linker_0, # of connection points: 2
#     Edge 47, Type (0, 0), BuildingBlock: MIFKUJ_clean_linker_0, # of connection points: 2
# Relax obj value: 0.330
# Max RMSD: 0.236
# Mean RMSD: 0.236
data_MOF--net-wme--node1-VOLQOD_clean_sbu_1--edge1-MIFKUJ_clean_linker_0
_symmetry_space_group_name_H-M    P1
_symmetry_Int_Tables_number       1
_symmetry_cell_setting            triclinic
loop_
_symmetry_equiv_pos_as_xyz
'x, y, z'
_cell_length_a     39.123993
_cell_length_b     39.192089
_cell_length_c     81.988673
_cell_angle_alpha  89.955606
_cell_angle_beta   90.052584
_cell_angle_gamma 120.00417
loop_
_atom_site_label
_atom_site_type_symbol
_atom_site_fract_x
_atom_site_fract_y
_atom_site_fract_z
_atom_type_partial_charge
O0 O 0.23192 0.38729 0.10995 0.0
Zn1 Zn 0.24076 0.34181 0.10612 0.0
O2 O 0.26647 0.33273 0.1248 0.0
Zn3 Zn 0.31723 0.33894 0.11791 0.0
Zn4 Zn 0.27378 0.36978 0.14202 0.0
Zn5 Zn 0.23322 0.28013 0.13332 0.0
O6 O 0.32019 0.28925 0.12186 0.0
O7 O 0.25945 0.24837 0.13084 0.0
O8 O 0.27138 0.35057 0.08542 0.0
O9 O 0.32378 0.34747 0.09371 0.0
O10 O 0.36211 0.38755 0.12834 0.0
O11 O 0.33117 0.40712 0.14543 0.0
O12 O 0.24792 0.3431 0.16305 0.0
O13 O 0.18623 0.29615 0.10289 0.0
O14 O 0.22019 0.2797 0.15695 0.0
O15 O 0.181 0.25357 0.12191 0.0
C16 C 0.23485 0.40707 0.12269 0.0
C17 C 0.2936 0.25524 0.12665 0.0
C18 C 0.36275 0.41149 0.13904 0.0
C19 C 0.30383 0.35168 0.08242 0.0
C20 C 0.22736 0.307 0.16707 0.0
C21 C 0.16623 0.26344 0.11025 0.0
O22 O 0.24933 0.40238 0.13583 0.0
O23 O 0.82619 0.20748 0.60001 0.0
Zn24 Zn 0.8804 0.21413 0.59888 0.0
O25 O 0.91277 0.2452 0.61741 0.0
Zn26 Zn 0.9616 0.29017 0.60936 0.0
Zn27 Zn 0.88388 0.26395 0.63033 0.0
Zn28 Zn 0.92479 0.21235 0.63134 0.0
O29 O 0.00913 0.28698 0.61661 0.0
O30 O 0.98282 0.23255 0.63172 0.0
O31 O 0.90543 0.23871 0.57734 0.0
O32 O 0.96264 0.28995 0.58492 0.0
O33 O 0.96606 0.34202 0.61591 0.0
O34 O 0.91083 0.32265 0.62998 0.0
O35 O 0.87685 0.24553 0.65355 0.0
O36 O 0.87029 0.15851 0.59969 0.0
O37 O 0.90569 0.20924 0.65428 0.0
O38 O 0.89755 0.15661 0.62315 0.0
C39 C 0.80983 0.21968 0.61001 0.0
C40 C 0.01265 0.26212 0.62542 0.0
C41 C 0.94299 0.34984 0.62398 0.0
C42 C 0.93869 0.26858 0.57385 0.0
C43 C 0.88655 0.22348 0.66124 0.0
C44 C 0.87751 0.13954 0.61045 0.0
O45 O 0.82893 0.24196 0.62189 0.0
O46 O 0.60989 0.83531 0.11228 0.0
Zn47 Zn 0.66066 0.88437 0.10662 0.0
O48 O 0.675 0.92476 0.12345 0.0
Zn49 Zn 0.678 0.97175 0.11387 0.0
Zn50 Zn 0.636 0.90469 0.14071 0.0
Zn51 Zn 0.7252 0.93781 0.13299 0.0
O52 O 0.73053 0.02071 0.11857 0.0
O53 O 0.76444 0.99399 0.12884 0.0
O54 O 0.65807 0.90452 0.0842 0.0
O55 O 0.67471 0.96646 0.0896 0.0
O56 O 0.63128 0.97718 0.12079 0.0
O57 O 0.60289 0.93003 0.1395 0.0
O58 O 0.66 0.913 0.16305 0.0
O59 O 0.70021 0.86574 0.10592 0.0
O60 O 0.72211 0.93143 0.1572 0.0
O61 O 0.74459 0.90274 0.12451 0.0
C62 C 0.59156 0.82339 0.12577 0.0
C63 C 0.76259 0.02382 0.1239 0.0
C64 C 0.60395 0.95791 0.13114 0.0
C65 C 0.66591 0.93868 0.07948 0.0
C66 C 0.69475 0.92246 0.16755 0.0
C67 C 0.73158 0.87527 0.11395 0.0
O68 O 0.60015 0.84644 0.13794 0.0
O69 O 0.78957 0.61392 0.59867 0.0
Zn70 Zn 0.7723 0.65403 0.5968 0.0
O71 O 0.74402 0.65512 0.61623 0.0
Zn72 Zn 0.69365 0.65095 0.61012 0.0
Zn73 Zn 0.73487 0.61155 0.63007 0.0
Zn74 Zn 0.77643 0.70331 0.62822 0.0
O75 O 0.69298 0.70119 0.61597 0.0
O76 O 0.75212 0.73725 0.6274 0.0
O77 O 0.74003 0.64461 0.57653 0.0
O78 O 0.68728 0.64584 0.58581 0.0
O79 O 0.6471 0.60061 0.61926 0.0
O80 O 0.67801 0.5712 0.62994 0.0
O81 O 0.75091 0.62825 0.65311 0.0
O82 O 0.82429 0.7037 0.59456 0.0
O83 O 0.78291 0.69341 0.65176 0.0
O84 O 0.83065 0.7329 0.61845 0.0
C85 C 0.78724 0.59126 0.61024 0.0
C86 C 0.71938 0.73313 0.62254 0.0
C87 C 0.64635 0.57084 0.626 0.0
C88 C 0.70703 0.64286 0.57412 0.0
C89 C 0.77073 0.66175 0.65987 0.0
C90 C 0.84491 0.73058 0.60482 0.0
O91 O 0.76728 0.58768 0.62301 0.0
O92 O 0.17677 0.7889 0.10436 0.0
Zn93 Zn 0.12223 0.78056 0.10111 0.0
O94 O 0.08791 0.75491 0.11983 0.0
Zn95 Zn 0.04197 0.70572 0.11271 0.0
Zn96 Zn 0.11722 0.74411 0.13591 0.0
Zn97 Zn 0.07179 0.78954 0.12986 0.0
O98 O 0.99106 0.70392 0.11912 0.0
O99 O 0.01337 0.7652 0.128 0.0
O100 O 0.09834 0.75221 0.08004 0.0
O101 O 0.0405 0.70302 0.08828 0.0
O102 O 0.04544 0.65832 0.12064 0.0
O103 O 0.09864 0.6869 0.13652 0.0
O104 O 0.11285 0.7617 0.15826 0.0
O105 O 0.13242 0.83557 0.09895 0.0
O106 O 0.08479 0.79788 0.15388 0.0
O107 O 0.0992 0.84308 0.11922 0.0
C108 C 0.19395 0.78741 0.11731 0.0
C109 C 0.98502 0.73115 0.12429 0.0
C110 C 0.07037 0.65629 0.13005 0.0
C111 C 0.06471 0.72241 0.07695 0.0
C112 C 0.10043 0.78406 0.16349 0.0
C113 C 0.12251 0.85687 0.10707 0.0
O114 O 0.1747 0.77253 0.13039 0.0
O115 O 0.36774 0.14736 0.61084 0.0
Zn116 Zn 0.32337 0.09125 0.60824 0.0
O117 O 0.31728 0.05838 0.62723 0.0
Zn118 Zn 0.32323 0.01387 0.62051 0.0
Zn119 Zn 0.35729 0.0907 0.64282 0.0
Zn120 Zn 0.2666 0.03956 0.63769 0.0
O121 O 0.2752 0.96142 0.62629 0.0
O122 O 0.23469 0.98139 0.63559 0.0
O123 O 0.3291 0.0676 0.58735 0.0
O124 O 0.32596 0.01249 0.59611 0.0
O125 O 0.37487 0.02049 0.62888 0.0
O126 O 0.40012 0.07713 0.64249 0.0
O127 O 0.33624 0.08477 0.66544 0.0
O128 O 0.27575 0.09734 0.60628 0.0
O129 O 0.2715 0.05248 0.66166 0.0
O130 O 0.23749 0.06386 0.62719 0.0
C131 C 0.38351 0.16584 0.62398 0.0
C132 C 0.24148 0.95401 0.63152 0.0
C133 C 0.40294 0.0483 0.6369 0.0
C134 C 0.32857 0.03538 0.58456 0.0
C135 C 0.30136 0.07012 0.67099 0.0
C136 C 0.24466 0.08593 0.61476 0.0
O137 O 0.37961 0.14784 0.63736 0.0
O138 O 0.61804 0.80268 0.39054 0.0
Zn139 Zn 0.65644 0.78268 0.39257 0.0
O140 O 0.66267 0.76066 0.37207 0.0
Zn141 Zn 0.65185 0.70667 0.37532 0.0
Zn142 Zn 0.62617 0.76099 0.3564 0.0
Zn143 Zn 0.7155 0.79317 0.36355 0.0
O144 O 0.69949 0.70114 0.36957 0.0
O145 O 0.74419 0.76329 0.36376 0.0
O146 O 0.64157 0.74393 0.411 0.0
O147 O 0.64261 0.69353 0.39907 0.0
O148 O 0.60108 0.66706 0.36385 0.0
O149 O 0.58183 0.70655 0.35285 0.0
O150 O 0.65184 0.78445 0.33514 0.0
O151 O 0.70649 0.83194 0.3984 0.0
O152 O 0.71562 0.81 0.34035 0.0
O153 O 0.74493 0.84234 0.37692 0.0
C154 C 0.60198 0.8077 0.37796 0.0
C155 C 0.73459 0.7274 0.36579 0.0
C156 C 0.57572 0.67216 0.35604 0.0
C157 C 0.63841 0.70999 0.41168 0.0
C158 C 0.68772 0.80393 0.33068 0.0
C159 C 0.73825 0.85337 0.39058 0.0
O160 O 0.60399 0.79405 0.36416 0.0
O161 O 0.83661 0.603 0.88063 0.0
Zn162 Zn 0.88687 0.65444 0.88322 0.0
O163 O 0.92365 0.66289 0.86542 0.0
Zn164 Zn 0.97247 0.6679 0.87419 0.0
Zn165 Zn 0.89967 0.61887 0.85044 0.0
Zn166 Zn 0.93512 0.71016 0.85351 0.0
O167 O 0.01993 0.72043 0.86844 0.0
O168 O 0.99136 0.75092 0.85667 0.0
O169 O 0.91119 0.65716 0.90527 0.0
O170 O 0.97059 0.66755 0.89852 0.0
O171 O 0.97916 0.62169 0.86781 0.0
O172 O 0.92676 0.58735 0.85193 0.0
O173 O 0.90276 0.63625 0.82727 0.0
O174 O 0.8689 0.69449 0.88243 0.0
O175 O 0.9262 0.70051 0.82946 0.0
O176 O 0.90108 0.73194 0.86119 0.0
C177 C 0.82183 0.57993 0.86849 0.0
C178 C 0.02189 0.75112 0.86215 0.0
C179 C 0.95777 0.59178 0.85894 0.0
C180 C 0.9452 0.66302 0.90926 0.0
C181 C 0.91353 0.6696 0.8208 0.0
C182 C 0.87638 0.72284 0.87278 0.0
O183 O 0.84217 0.58387 0.85578 0.0
O184 O 0.20692 0.81985 0.3846 0.0
Zn185 Zn 0.20781 0.8705 0.38958 0.0
O186 O 0.23641 0.91009 0.37261 0.0
Zn187 Zn 0.27916 0.95732 0.38255 0.0
Zn188 Zn 0.25804 0.88949 0.35669 0.0
Zn189 Zn 0.20081 0.92293 0.3613 0.0
O190 O 0.27539 0.0056 0.3773 0.0
O191 O 0.21731 0.97941 0.36474 0.0
O192 O 0.23022 0.89027 0.4121 0.0
O193 O 0.27638 0.95198 0.4068 0.0
O194 O 0.33222 0.96457 0.37635 0.0
O195 O 0.31673 0.9154 0.35901 0.0
O196 O 0.24406 0.89513 0.33366 0.0
O197 O 0.15005 0.8542 0.38949 0.0
O198 O 0.20054 0.91494 0.33712 0.0
O199 O 0.14512 0.88825 0.36889 0.0
C200 C 0.21606 0.80811 0.37172 0.0
C201 C 0.24785 0.00903 0.37063 0.0
C202 C 0.34224 0.94493 0.36712 0.0
C203 C 0.25694 0.9242 0.41688 0.0
C204 C 0.21959 0.90434 0.32785 0.0
C205 C 0.1293 0.86262 0.38015 0.0
O206 O 0.23445 0.83158 0.36004 0.0
O207 O 0.37409 0.21063 0.88667 0.0
Zn208 Zn 0.33177 0.2241 0.89121 0.0
O209 O 0.32221 0.24926 0.87259 0.0
Zn210 Zn 0.32905 0.3 0.87935 0.0
Zn211 Zn 0.35915 0.2562 0.85562 0.0
Zn212 Zn 0.27027 0.21591 0.86358 0.0
O213 O 0.28132 0.30488 0.87323 0.0
O214 O 0.24032 0.24461 0.86377 0.0
O215 O 0.34406 0.25655 0.91156 0.0
O216 O 0.3345 0.30544 0.90374 0.0
O217 O 0.3805 0.34414 0.87034 0.0
O218 O 0.40224 0.31217 0.85493 0.0
O219 O 0.33446 0.24006 0.83362 0.0
O220 O 0.284 0.17137 0.89545 0.0
O221 O 0.27192 0.20033 0.8403 0.0
O222 O 0.24148 0.16577 0.87626 0.0
C223 C 0.38747 0.2072 0.87301 0.0
C224 C 0.24792 0.27928 0.86743 0.0
C225 C 0.40664 0.3439 0.86112 0.0
C226 C 0.34207 0.28728 0.91478 0.0
C227 C 0.29939 0.21443 0.82974 0.0
C228 C 0.25067 0.15181 0.88843 0.0
O229 O 0.38177 0.22109 0.85993 0.0
O230 O 0.14815 0.38559 0.37341 0.0
Zn231 Zn 0.09669 0.33716 0.37914 0.0
O232 O 0.05726 0.32209 0.3619 0.0
Zn233 Zn 0.0128 0.32657 0.37005 0.0
Zn234 Zn 0.08203 0.35684 0.34367 0.0
Zn235 Zn 0.03932 0.26905 0.35444 0.0
O236 O 0.96079 0.27609 0.36657 0.0
O237 O 0.98195 0.23525 0.359 0.0
O238 O 0.07639 0.34345 0.40075 0.0
O239 O 0.0168 0.3331 0.39439 0.0
O240 O 0.01426 0.37509 0.36058 0.0
O241 O 0.06336 0.39557 0.34267 0.0
O242 O 0.07162 0.32834 0.32239 0.0
O243 O 0.11099 0.29509 0.38184 0.0
O244 O 0.04666 0.26636 0.33032 0.0
O245 O 0.07024 0.24725 0.36521 0.0
C246 C 0.16251 0.39833 0.35931 0.0
C247 C 0.9542 0.24166 0.36297 0.0
C248 C 0.03687 0.39974 0.34989 0.0
C249 C 0.0434 0.33984 0.4049 0.0
C250 C 0.0589 0.29224 0.31911 0.0
C251 C 0.09825 0.26118 0.37557 0.0
O252 O 0.14102 0.38707 0.34658 0.0
O253 O 0.77954 0.16828 0.88626 0.0
Zn254 Zn 0.77259 0.11397 0.88732 0.0
O255 O 0.7433 0.08185 0.86862 0.0
Zn256 Zn 0.69676 0.03333 0.87569 0.0
Zn257 Zn 0.72758 0.11181 0.85539 0.0
Zn258 Zn 0.77705 0.07051 0.85546 0.0
O259 O 0.70036 0.98537 0.86883 0.0
O260 O 0.76111 0.01417 0.85849 0.0
O261 O 0.74786 0.08735 0.90857 0.0
O262 O 0.69646 0.03118 0.90014 0.0
O263 O 0.64578 0.03268 0.8694 0.0
O264 O 0.67147 0.09382 0.85978 0.0
O265 O 0.73487 0.1067 0.83149 0.0
O266 O 0.82892 0.12677 0.88654 0.0
O267 O 0.7729 0.07972 0.8316 0.0
O268 O 0.83368 0.10502 0.86213 0.0
C269 C 0.77704 0.18681 0.87398 0.0
C270 C 0.7298 0.98348 0.86319 0.0
C271 C 0.64202 0.06163 0.86455 0.0
C272 C 0.71767 0.05394 0.91157 0.0
C273 C 0.75471 0.09407 0.82392 0.0
C274 C 0.84961 0.12445 0.87509 0.0
O275 O 0.75973 0.16883 0.86096 0.0
H276 H 0.10586 0.9115 0.1197 0.0
H277 H 0.14676 0.98304 0.11791 0.0
H278 H 0.22708 0.97081 0.08568 0.0
H279 H 0.18637 0.89921 0.08735 0.0
H280 H 0.265 0.01844 0.11147 0.0
H281 H 0.17459 0.00925 0.07085 0.0
H282 H 0.10982 0.9877 0.05814 0.0
H283 H 0.0814 0.0449 0.09606 0.0
H284 H 0.14575 0.0663 0.10915 0.0
H285 H 0.33079 0.2392 0.10221 0.0
H286 H 0.31755 0.17288 0.09492 0.0
H287 H 0.25342 0.12751 0.13986 0.0
H288 H 0.26638 0.1932 0.14716 0.0
H289 H 0.21758 0.11234 0.10082 0.0
H290 H 0.30509 0.10654 0.14373 0.0
H291 H 0.37058 0.12657 0.15537 0.0
H292 H 0.40595 0.09744 0.11034 0.0
H293 H 0.34089 0.0781 0.09833 0.0
C294 C 0.13172 0.92398 0.11194 0.0
C295 C 0.14289 0.89964 0.10373 0.0
C296 C 0.15503 0.96487 0.11089 0.0
C297 C 0.18987 0.98213 0.10163 0.0
C298 C 0.20026 0.95799 0.09287 0.0
C299 C 0.17679 0.91708 0.09379 0.0
C300 C 0.21695 0.02516 0.10238 0.0
C301 C 0.25501 0.03912 0.10875 0.0
C302 C 0.20384 0.05202 0.09884 0.0
C303 C 0.165 0.03922 0.09103 0.0
C304 C 0.15442 0.01699 0.07655 0.0
C305 C 0.11779 0.00484 0.06927 0.0
C306 C 0.09149 0.01488 0.0763 0.0
C307 C 0.10181 0.03715 0.09062 0.0
C308 C 0.1384 0.04935 0.09797 0.0
C309 C 0.3158 0.21544 0.11092 0.0
C310 C 0.29933 0.22105 0.12519 0.0
C311 C 0.30819 0.17763 0.10672 0.0
C312 C 0.28477 0.14556 0.11692 0.0
C313 C 0.27211 0.15208 0.13198 0.0
C314 C 0.27942 0.18957 0.13611 0.0
C315 C 0.26478 0.10512 0.11047 0.0
C316 C 0.22795 0.09172 0.10301 0.0
C317 C 0.27912 0.07891 0.11291 0.0
C318 C 0.31849 0.09179 0.12002 0.0
C319 C 0.3271 0.10522 0.1362 0.0
C320 C 0.36408 0.11623 0.1429 0.0
C321 C 0.39252 0.11355 0.13357 0.0
C322 C 0.384 0.09976 0.11753 0.0
C323 C 0.34712 0.08884 0.11077 0.0
H324 H 0.42108 0.12196 0.13879 0.0
H325 H 0.06315 0.00545 0.07064 0.0
H326 H 0.26282 0.15085 0.59639 0.0
H327 H 0.22795 0.18793 0.5961 0.0
H328 H 0.13535 0.09843 0.62564 0.0
H329 H 0.17041 0.06137 0.62633 0.0
H330 H 0.11031 0.1341 0.59964 0.0
H331 H 0.20011 0.16596 0.64547 0.0
H332 H 0.26534 0.18507 0.65714 0.0
H333 H 0.31709 0.29346 0.63015 0.0
H334 H 0.2522 0.27446 0.61796 0.0
H335 H 0.04097 0.23642 0.64996 0.0
H336 H 0.09192 0.21804 0.64713 0.0
H337 H 0.11865 0.26816 0.59883 0.0
H338 H 0.06863 0.28775 0.60174 0.0
H339 H 0.17987 0.25605 0.63301 0.0
H340 H 0.08839 0.1825 0.57762 0.0
H341 H 0.02248 0.16261 0.56629 0.0
H342 H 0.97285 0.13584 0.61447 0.0
H343 H 0.03834 0.15497 0.62601 0.0
C344 C 0.23452 0.13844 0.60247 0.0
C345 C 0.21952 0.10337 0.61155 0.0
C346 C 0.21473 0.15975 0.6023 0.0
C347 C 0.17945 0.14599 0.61099 0.0
C348 C 0.16264 0.10939 0.61888 0.0
C349 C 0.18272 0.08834 0.61929 0.0
C350 C 0.16261 0.1718 0.61353 0.0
C351 C 0.12564 0.16087 0.60681 0.0
C352 C 0.18265 0.20657 0.623 0.0
C353 C 0.2214 0.21862 0.63069 0.0
C354 C 0.22543 0.19374 0.64193 0.0
C355 C 0.26233 0.20455 0.64864 0.0
C356 C 0.29531 0.24048 0.64441 0.0
C357 C 0.29148 0.26565 0.63343 0.0
C358 C 0.25466 0.25486 0.62659 0.0
C359 C 0.05902 0.24516 0.63906 0.0
C360 C 0.05066 0.26304 0.62599 0.0
C361 C 0.08819 0.23484 0.6375 0.0
C362 C 0.10858 0.24152 0.62273 0.0
C363 C 0.10322 0.26304 0.61033 0.0
C364 C 0.07464 0.27416 0.61202 0.0
C365 C 0.12782 0.21841 0.61901 0.0
C366 C 0.16502 0.22969 0.62557 0.0
C367 C 0.10793 0.18374 0.60952 0.0
C368 C 0.06821 0.17047 0.60265 0.0
C369 C 0.06332 0.17213 0.58576 0.0
C370 C 0.02608 0.16102 0.57931 0.0
C371 C 0.99352 0.14808 0.58966 0.0
C372 C -0.0019 0.14596 0.60647 0.0
C373 C 0.03526 0.15692 0.61296 0.0
H374 H 0.96475 0.13962 0.58466 0.0
H375 H 0.32377 0.24884 0.6497 0.0
H376 H 0.82623 0.0472 0.14341 0.0
H377 H 0.89196 0.10307 0.1393 0.0
H378 H 0.84922 0.1426 0.09909 0.0
H379 H 0.78271 0.08588 0.10312 0.0
H380 H 0.9094 0.13367 0.09 0.0
H381 H 0.88856 0.2007 0.13281 0.0
H382 H 0.86818 0.21297 0.15957 0.0
H383 H 0.9519 0.1893 0.18341 0.0
H384 H 0.97219 0.17595 0.15687 0.0
H385 H 0.12236 0.27745 0.08792 0.0
H386 H 0.05036 0.24706 0.08749 0.0
H387 H 0.04121 0.16691 0.12554 0.0
H388 H 0.11272 0.19657 0.12602 0.0
H389 H 0.00624 0.21497 0.13252 0.0
H390 H 0.0123 0.13163 0.08969 0.0
H391 H 0.03328 0.12035 0.06284 0.0
H392 H 0.97773 0.17797 0.03931 0.0
H393 H 0.95687 0.19005 0.06607 0.0
C394 C 0.83054 0.0683 0.13394 0.0
C395 C 0.79954 0.06203 0.12346 0.0
C396 C 0.86812 0.1005 0.13169 0.0
C397 C 0.8755 0.12717 0.11893 0.0
C398 C 0.84404 0.12242 0.10906 0.0
C399 C 0.80612 0.09016 0.1114 0.0
C400 C 0.91693 0.1557 0.11464 0.0
C401 C 0.93045 0.15242 0.09916 0.0
C402 C 0.94445 0.17992 0.12663 0.0
C403 C 0.9318 0.18713 0.14276 0.0
C404 C 0.90236 0.19767 0.14375 0.0
C405 C 0.89084 0.20487 0.15891 0.0
C406 C 0.90868 0.20186 0.17318 0.0
C407 C 0.93806 0.19158 0.17234 0.0
C408 C 0.9496 0.18422 0.15723 0.0
C409 C 0.10499 0.25269 0.09591 0.0
C410 C 0.12333 0.23978 0.10717 0.0
C411 C 0.06391 0.23551 0.09566 0.0
C412 C 0.04081 0.2053 0.10666 0.0
C413 C 0.0588 0.19058 0.11709 0.0
C414 C 0.09967 0.20744 0.11728 0.0
C415 C -0.00177 0.19072 0.10838 0.0
C416 C 0.98484 0.19704 0.1233 0.0
C417 C 0.97091 0.16945 0.09592 0.0
C418 C 0.98354 0.16225 0.07988 0.0
C419 C 0.00494 0.14227 0.0788 0.0
C420 C 0.01671 0.13564 0.0636 0.0
C421 C 0.00698 0.14858 0.04938 0.0
C422 C 0.98534 0.16806 0.05033 0.0
C423 C 0.97353 0.1748 0.06551 0.0
H424 H 0.0161 0.1434 0.03762 0.0
H425 H 0.89978 0.20754 0.18489 0.0
H426 H 0.68409 0.75596 0.59962 0.0
H427 H 0.69594 0.82317 0.5959 0.0
H428 H 0.75901 0.85758 0.6416 0.0
H429 H 0.7475 0.79089 0.6453 0.0
H430 H 0.71828 0.8978 0.63527 0.0
H431 H 0.80833 0.86356 0.60821 0.0
H432 H 0.8232 0.82378 0.58929 0.0
H433 H 0.77298 0.8558 0.54965 0.0
H434 H 0.75732 0.89534 0.56843 0.0
H435 H 0.87837 0.08855 0.63295 0.0
H436 H 0.83839 0.01691 0.63296 0.0
H437 H 0.79199 0.01986 0.58559 0.0
H438 H 0.83186 0.09192 0.58545 0.0
H439 H 0.81173 0.95983 0.58919 0.0
H440 H 0.73437 0.00559 0.61589 0.0
H441 H 0.72105 0.04582 0.63513 0.0
H442 H 0.74777 0.99312 0.67547 0.0
H443 H 0.76168 0.95284 0.65644 0.0
C444 C 0.69903 0.77749 0.60917 0.0
C445 C 0.71525 0.76848 0.62267 0.0
C446 C 0.706 0.81588 0.60699 0.0
C447 C 0.72892 0.84542 0.61836 0.0
C448 C 0.74135 0.83526 0.63267 0.0
C449 C 0.73483 0.79717 0.63476 0.0
C450 C 0.74541 0.88764 0.61442 0.0
C451 C 0.73852 0.91139 0.62515 0.0
C452 C 0.77133 0.90522 0.60105 0.0
C453 C 0.78122 0.88195 0.58973 0.0
C454 C 0.80023 0.86188 0.59548 0.0
C455 C 0.80882 0.83941 0.58479 0.0
C456 C 0.79892 0.83716 0.56829 0.0
C457 C 0.78054 0.8575 0.56244 0.0
C458 C 0.7718 0.87993 0.5731 0.0
C459 C 0.86011 0.0741 0.62241 0.0
C460 C 0.85808 0.09609 0.60926 0.0
C461 C 0.83707 0.03312 0.62249 0.0
C462 C 0.81168 0.01327 0.60942 0.0
C463 C 0.81116 0.03478 0.59585 0.0
C464 C 0.83403 0.07592 0.5958 0.0
C465 C 0.78529 0.97007 0.61027 0.0
C466 C 0.79056 0.94621 0.59901 0.0
C467 C 0.75791 0.95243 0.62317 0.0
C468 C 0.7493 0.97635 0.63472 0.0
C469 C 0.73767 0.00276 0.62886 0.0
C470 C 0.72997 0.02556 0.63973 0.0
C471 C 0.73365 0.02211 0.65652 0.0
C472 C 0.74493 0.99577 0.66246 0.0
C473 C 0.75265 0.97288 0.65163 0.0
H474 H 0.72768 0.03977 0.66492 0.0
H475 H 0.80557 0.81974 0.56002 0.0
H476 H 0.95775 0.76715 0.14426 0.0
H477 H 0.89668 0.7686 0.14142 0.0
H478 H 0.86014 0.684 0.10223 0.0
H479 H 0.92193 0.68251 0.10504 0.0
H480 H 0.85947 0.74947 0.09308 0.0
H481 H 0.80338 0.65992 0.13627 0.0
H482 H 0.79875 0.62847 0.16285 0.0
H483 H 0.81704 0.73282 0.18758 0.0
H484 H 0.82248 0.76522 0.16118 0.0
H485 H 0.71261 0.81324 0.09316 0.0
H486 H 0.74022 0.76914 0.09321 0.0
H487 H 0.82061 0.83802 0.13161 0.0
H488 H 0.79372 0.88213 0.13163 0.0
H489 H 0.77782 0.75589 0.13789 0.0
H490 H 0.85318 0.84849 0.09392 0.0
H491 H 0.85865 0.87993 0.06723 0.0
H492 H 0.80197 0.7665 0.04404 0.0
H493 H 0.79574 0.73437 0.07066 0.0
C494 C 0.93627 0.74803 0.13532 0.0
C495 C 0.94465 0.72496 0.12479 0.0
C496 C 0.90117 0.74862 0.13379 0.0
C497 C 0.87369 0.72621 0.12166 0.0
C498 C 0.88088 0.70131 0.11172 0.0
C499 C 0.91604 0.70038 0.11338 0.0
C500 C 0.84109 0.73398 0.11809 0.0
C501 C 0.84058 0.74961 0.10273 0.0
C502 C 0.81651 0.73426 0.13067 0.0
C503 C 0.81337 0.71504 0.14668 0.0
C504 C 0.80668 0.6763 0.14736 0.0
C505 C 0.80388 0.65827 0.16241 0.0
C506 C 0.8076 0.67863 0.17689 0.0
C507 C 0.81411 0.71706 0.17635 0.0
C508 C 0.81697 0.73524 0.16134 0.0
C509 C 0.7365 0.81925 0.10147 0.0
C510 C 0.7509 0.85121 0.11241 0.0
C511 C 0.75206 0.79394 0.10152 0.0
C512 C 0.78207 0.80017 0.11254 0.0
C513 C 0.79711 0.83252 0.12314 0.0
C514 C 0.78188 0.8579 0.12303 0.0
C515 C 0.79839 0.77341 0.11331 0.0
C516 C 0.79558 0.7542 0.12811 0.0
C517 C 0.81973 0.76967 0.10022 0.0
C518 C 0.82348 0.78902 0.08428 0.0
C519 C 0.84154 0.83025 0.08314 0.0
C520 C 0.84486 0.84819 0.06803 0.0
C521 C 0.83052 0.82521 0.05395 0.0
C522 C 0.81296 0.78425 0.05496 0.0
C523 C 0.80953 0.76616 0.07005 0.0
H524 H 0.83314 0.83916 0.04226 0.0
H525 H 0.80541 0.66461 0.18852 0.0
H526 H 0.89025 0.71591 0.58388 0.0
H527 H 0.9621 0.74646 0.58439 0.0
H528 H 0.96876 0.82931 0.6206 0.0
H529 H 0.89687 0.79871 0.62035 0.0
H530 H 0.02972 0.86209 0.59661 0.0
H531 H 0.96592 0.75091 0.63415 0.0
H532 H 0.91871 0.68131 0.64053 0.0
H533 H 0.97667 0.6443 0.60628 0.0
H534 H 0.02406 0.71382 0.59959 0.0
H535 H 0.17696 0.92112 0.65095 0.0
H536 H 0.11172 0.86894 0.64269 0.0
H537 H 0.16202 0.84547 0.60039 0.0
H538 H 0.22781 0.89801 0.60859 0.0
H539 H 0.07622 0.7772 0.62188 0.0
H540 H 0.14314 0.89321 0.58511 0.0
H541 H 0.18985 0.9642 0.58131 0.0
H542 H 0.1242 0.99198 0.61548 0.0
H543 H 0.07766 0.92109 0.61972 0.0
C544 C 0.90702 0.74136 0.59162 0.0
C545 C 0.88789 0.75475 0.6022 0.0
C546 C 0.94804 0.75857 0.59194 0.0
C547 C 0.97046 0.78967 0.60269 0.0
C548 C 0.95178 0.80519 0.61226 0.0
C549 C 0.91075 0.78769 0.61211 0.0
C550 C 0.01282 0.80381 0.60518 0.0
C551 C 0.03995 0.84336 0.60185 0.0
C552 C 0.02609 0.7792 0.61198 0.0
C553 C -0.00176 0.7375 0.61625 0.0
C554 C 0.96845 0.72792 0.62792 0.0
C555 C 0.9417 0.68851 0.6316 0.0
C556 C 0.94462 0.6584 0.62378 0.0
C557 C 0.97443 0.66767 0.61231 0.0
C558 C 0.00128 0.70707 0.60858 0.0
C559 C 0.17444 0.90358 0.64032 0.0
C560 C 0.2072 0.91398 0.63024 0.0
C561 C 0.13717 0.87368 0.63565 0.0
C562 C 0.13222 0.85392 0.62085 0.0
C563 C 0.16549 0.86045 0.6119 0.0
C564 C 0.20302 0.89043 0.61661 0.0
C565 C 0.09292 0.83532 0.61316 0.0
C566 C 0.06622 0.79529 0.61584 0.0
C567 C 0.07991 0.85935 0.60568 0.0
C568 C 0.10716 0.90194 0.60281 0.0
C569 C 0.13885 0.9145 0.59187 0.0
C570 C 0.16529 0.95469 0.58965 0.0
C571 C 0.16005 0.9826 0.59817 0.0
C572 C 0.1283 0.97036 0.60891 0.0
C573 C 0.10188 0.93018 0.61123 0.0
H574 H 0.1805 0.0137 0.59641 0.0
H575 H 0.92387 0.62792 0.62663 0.0
H576 H 0.08367 0.80656 0.40289 0.0
H577 H 0.01178 0.76296 0.40234 0.0
H578 H 0.00485 0.82112 0.35884 0.0
H579 H 0.07605 0.86473 0.3593 0.0
H580 H 0.94993 0.78109 0.40252 0.0
H581 H 0.94377 0.75225 0.33244 0.0
H582 H 0.98368 0.74277 0.31161 0.0
H583 H 0.03432 0.70367 0.34849 0.0
H584 H 0.99439 0.71246 0.36953 0.0
H585 H 0.79683 0.75779 0.34523 0.0
H586 H 0.85858 0.75782 0.34912 0.0
H587 H 0.80763 0.67767 0.38966 0.0
H588 H 0.74522 0.67742 0.3857 0.0
H589 H 0.88805 0.7066 0.35174 0.0
H590 H 0.87885 0.71808 0.42011 0.0
H591 H 0.83997 0.72936 0.44094 0.0
H592 H 0.82253 0.804 0.40766 0.0
H593 H 0.86168 0.79351 0.38675 0.0
C594 C 0.06677 0.81031 0.3933 0.0
C595 C 0.08568 0.83911 0.38111 0.0
C596 C 0.02577 0.78529 0.39299 0.0
C597 C 0.00325 0.78835 0.38037 0.0
C598 C 0.02188 0.81781 0.36852 0.0
C599 C 0.0626 0.84296 0.36889 0.0
C600 C 0.96007 0.76157 0.37942 0.0
C601 C 0.93626 0.76373 0.39167 0.0
C602 C 0.94235 0.73895 0.36525 0.0
C603 C 0.96614 0.73318 0.35259 0.0
C604 C 0.96322 0.7414 0.33611 0.0
C605 C 0.98592 0.73622 0.32426 0.0
C606 C 0.01157 0.7227 0.32873 0.0
C607 C 0.01454 0.71427 0.34505 0.0
C608 C 0.99193 0.71942 0.35695 0.0
C609 C 0.79834 0.73907 0.35461 0.0
C610 C 0.76653 0.71791 0.36527 0.0
C611 C 0.83358 0.73898 0.35679 0.0
C612 C 0.83784 0.71821 0.36982 0.0
C613 C 0.80493 0.69405 0.37958 0.0
C614 C 0.7693 0.69377 0.37726 0.0
C615 C 0.87819 0.72764 0.3745 0.0
C616 C 0.90157 0.72245 0.36292 0.0
C617 C 0.89554 0.74737 0.3893 0.0
C618 C 0.8727 0.75459 0.40185 0.0
C619 C 0.86677 0.73696 0.41728 0.0
C620 C 0.8447 0.74321 0.42909 0.0
C621 C 0.82866 0.76725 0.4256 0.0
C622 C 0.83485 0.78528 0.41033 0.0
C623 C 0.85696 0.77919 0.3985 0.0
H624 H 0.81152 0.77198 0.43475 0.0
H625 H 0.02911 0.71872 0.31953 0.0
H626 H 0.08595 0.77137 0.88188 0.0
H627 H 0.13783 0.83858 0.88847 0.0
H628 H 0.09157 0.88419 0.852 0.0
H629 H 0.04072 0.81762 0.84509 0.0
H630 H 0.16863 0.92973 0.85398 0.0
H631 H 0.05785 0.86806 0.89203 0.0
H632 H 0.01525 0.81684 0.91181 0.0
H633 H 0.11592 0.84639 0.94208 0.0
H634 H 0.15919 0.8975 0.92235 0.0
H635 H 0.1773 0.10099 0.8765 0.0
H636 H 0.14636 0.02947 0.87577 0.0
H637 H 0.23639 0.03468 0.90772 0.0
H638 H 0.26787 0.10652 0.90857 0.0
H639 H 0.15187 0.96378 0.91064 0.0
H640 H 0.25987 0.03613 0.87281 0.0
H641 H 0.29546 0.09026 0.85318 0.0
H642 H 0.19377 0.04136 0.82196 0.0
H643 H 0.15722 0.98721 0.84158 0.0
C644 C 0.08775 0.79568 0.87489 0.0
C645 C 0.0588 0.78936 0.86321 0.0
C646 C 0.11722 0.83404 0.87874 0.0
C647 C 0.11785 0.86635 0.87101 0.0
C648 C 0.09148 0.85972 0.85821 0.0
C649 C 0.06224 0.82159 0.85433 0.0
C650 C 0.14191 0.90687 0.8774 0.0
C651 C 0.16532 0.93708 0.86641 0.0
C652 C 0.13781 0.9165 0.89369 0.0
C653 C 0.11178 0.8862 0.90564 0.0
C654 C 0.0709 0.86346 0.90286 0.0
C655 C 0.04665 0.83448 0.91406 0.0
C656 C 0.06289 0.82826 0.92816 0.0
C657 C 0.1034 0.85116 0.93113 0.0
C658 C 0.1278 0.88013 0.91995 0.0
C659 C 0.18989 0.087 0.88383 0.0
C660 C 0.22561 0.10952 0.89226 0.0
C661 C 0.17212 0.04611 0.8834 0.0
C662 C 0.18973 0.0272 0.89141 0.0
C663 C 0.22264 0.04901 0.90141 0.0
C664 C 0.24054 0.09005 0.90185 0.0
C665 C 0.17741 0.98618 0.88708 0.0
C666 C 0.15628 0.95618 0.89841 0.0
C667 C 0.18308 0.97667 0.87104 0.0
C668 C 0.20572 0.00778 0.85874 0.0
C669 C 0.24504 0.03697 0.86179 0.0
C670 C 0.26536 0.06771 0.85068 0.0
C671 C 0.24677 0.06944 0.83641 0.0
C672 C 0.20802 0.04009 0.83308 0.0
C673 C 0.18752 0.00931 0.84417 0.0
H674 H 0.26249 0.09339 0.82787 0.0
H675 H 0.04409 0.80576 0.9368 0.0
H676 H 0.08546 0.19284 0.36146 0.0
H677 H 0.12781 0.16392 0.36293 0.0
H678 H 0.20285 0.25226 0.39776 0.0
H679 H 0.16062 0.28187 0.39635 0.0
H680 H 0.21012 0.20735 0.35463 0.0
H681 H 0.23989 0.19994 0.42189 0.0
H682 H 0.21098 0.19845 0.44882 0.0
H683 H 0.09469 0.1384 0.42798 0.0
H684 H 0.12289 0.13908 0.40101 0.0
H685 H 0.2936 0.07381 0.38962 0.0
H686 H 0.2885 0.13359 0.39177 0.0
H687 H 0.2005 0.0898 0.35368 0.0
H688 H 0.20571 0.03087 0.35136 0.0
H689 H 0.22325 0.13376 0.40116 0.0
H690 H 0.19929 0.16028 0.33243 0.0
H691 H 0.22919 0.1629 0.30571 0.0
H692 H 0.33678 0.18582 0.32918 0.0
H693 H 0.30788 0.18416 0.35606 0.0
C694 C 0.11055 0.20588 0.36965 0.0
C695 C 0.11985 0.2399 0.37868 0.0
C696 C 0.13486 0.18945 0.37038 0.0
C697 C 0.16859 0.20637 0.38028 0.0
C698 C 0.17695 0.239 0.39001 0.0
C699 C 0.15273 0.25572 0.3892 0.0
C700 C 0.19539 0.1902 0.37971 0.0
C701 C 0.2132 0.19125 0.36476 0.0
C702 C 0.20104 0.17132 0.39325 0.0
C703 C 0.18357 0.17011 0.40941 0.0
C704 C 0.20816 0.18638 0.42308 0.0
C705 C 0.1919 0.18566 0.43835 0.0
C706 C 0.15104 0.16852 0.44009 0.0
C707 C 0.12634 0.15186 0.4266 0.0
C708 C 0.14246 0.15246 0.41131 0.0
C709 C 0.27393 0.07751 0.38145 0.0
C710 C 0.24976 0.04755 0.37043 0.0
C711 C 0.27102 0.11157 0.38271 0.0
C712 C 0.24441 0.11628 0.37279 0.0
C713 C 0.22182 0.08722 0.36124 0.0
C714 C 0.22452 0.05328 0.36004 0.0
C715 C 0.23579 0.14844 0.37566 0.0
C716 C 0.22155 0.15085 0.39109 0.0
C717 C 0.23361 0.17074 0.36254 0.0
C718 C 0.25129 0.17196 0.34633 0.0
C719 C 0.22944 0.16619 0.33192 0.0
C720 C 0.24621 0.16744 0.31673 0.0
C721 C 0.28483 0.17444 0.31575 0.0
C722 C 0.30681 0.18029 0.32996 0.0
C723 C 0.29023 0.17915 0.34519 0.0
H724 H 0.29775 0.17537 0.30397 0.0
H725 H 0.13851 0.16804 0.45191 0.0
H726 H 0.19066 0.2525 0.84452 0.0
H727 H 0.12739 0.24981 0.84666 0.0
H728 H 0.16683 0.32032 0.89042 0.0
H729 H 0.23081 0.32315 0.88824 0.0
H730 H 0.10264 0.25003 0.89575 0.0
H731 H 0.13504 0.35256 0.85828 0.0
H732 H 0.16294 0.39282 0.83353 0.0
H733 H 0.08299 0.29516 0.80373 0.0
H734 H 0.05497 0.25407 0.82825 0.0
H735 H 0.89372 0.17801 0.89868 0.0
H736 H 0.96482 0.22379 0.89846 0.0
H737 H 0.97491 0.17327 0.85326 0.0
H738 H 0.90386 0.12767 0.85324 0.0
H739 H 0.01602 0.2541 0.85252 0.0
H740 H -0.00046 0.14902 0.88947 0.0
H741 H 0.9726 0.10733 0.91396 0.0
H742 H 0.02423 0.2104 0.94433 0.0
H743 H 0.05106 0.25272 0.91997 0.0
C744 C 0.18638 0.26867 0.85425 0.0
C745 C 0.21533 0.28771 0.8663 0.0
C746 C 0.15026 0.26737 0.85542 0.0
C747 C 0.14234 0.2849 0.86871 0.0
C748 C 0.17245 0.30677 0.88004 0.0
C749 C 0.20898 0.3085 0.87875 0.0
C750 C 0.10081 0.27346 0.87216 0.0
C751 C 0.08387 0.25209 0.88652 0.0
C752 C 0.07624 0.27564 0.86003 0.0
C753 C 0.09292 0.30017 0.84516 0.0
C754 C 0.12355 0.33955 0.84645 0.0
C755 C 0.13937 0.36255 0.83245 0.0
C756 C 0.12476 0.34655 0.81707 0.0
C757 C 0.09425 0.30753 0.81565 0.0
C758 C 0.07832 0.28439 0.82961 0.0
C759 C 0.91109 0.17627 0.88877 0.0
C760 C 0.89309 0.14896 0.87601 0.0
C761 C 0.95169 0.20264 0.88865 0.0
C762 C 0.97503 0.20198 0.87582 0.0
C763 C 0.95729 0.17447 0.86319 0.0
C764 C 0.91673 0.14815 0.86329 0.0
C765 C 0.0182 0.22908 0.87561 0.0
C766 C 0.03513 0.25331 0.86193 0.0
C767 C 0.04284 0.22945 0.88831 0.0
C768 C 0.02685 0.20402 0.90292 0.0
C769 C 0.00487 0.16278 0.90137 0.0
C770 C 0.98968 0.13905 0.91522 0.0
C771 C -0.00341 0.15622 0.93069 0.0
C772 C 0.01882 0.19715 0.93234 0.0
C773 C 0.03403 0.22102 0.91852 0.0
H774 H 0.98481 0.1378 0.94139 0.0
H775 H 0.13706 0.36441 0.80625 0.0
H776 H 0.90094 0.23109 0.38674 0.0
H777 H 0.84789 0.16705 0.39634 0.0
H778 H 0.86727 0.11032 0.35518 0.0
H779 H 0.92009 0.17384 0.34563 0.0
H780 H 0.78861 0.07012 0.36586 0.0
H781 H 0.92467 0.1291 0.38792 0.0
H782 H 0.98142 0.18371 0.40203 0.0
H783 H 0.90789 0.16998 0.44324 0.0
H784 H 0.85059 0.11555 0.42924 0.0
H785 H 0.80647 0.90923 0.37627 0.0
H786 H 0.83372 0.98015 0.37828 0.0
H787 H 0.75418 0.96347 0.41774 0.0
H788 H 0.7262 0.89212 0.41581 0.0
H789 H 0.84715 0.04171 0.41419 0.0
H790 H 0.71232 0.97168 0.39328 0.0
H791 H 0.65978 0.91471 0.37855 0.0
H792 H 0.73135 0.94829 0.33542 0.0
H793 H 0.78465 0.00537 0.34995 0.0
C794 C 0.89257 0.20515 0.37936 0.0
C795 C 0.91487 0.20712 0.3656 0.0
C796 C 0.86238 0.16862 0.38489 0.0
C797 C 0.85423 0.13398 0.37661 0.0
C798 C 0.87315 0.13669 0.36175 0.0
C799 C 0.90346 0.17297 0.35635 0.0
C800 C 0.83294 0.0951 0.38469 0.0
C801 C 0.8007 0.06407 0.37667 0.0
C802 C 0.84868 0.08716 0.39884 0.0
C803 C 0.88338 0.11861 0.40751 0.0
C804 C 0.92066 0.13778 0.39999 0.0
C805 C 0.95288 0.1687 0.40795 0.0
C806 C 0.94821 0.18039 0.4235 0.0
C807 C 0.91141 0.16094 0.43118 0.0
C808 C 0.87907 0.13006 0.42324 0.0
C809 C 0.79566 0.92051 0.3858 0.0
C810 C 0.76341 0.89493 0.39558 0.0
C811 C 0.81138 0.9611 0.38695 0.0
C812 C 0.79538 0.97667 0.39797 0.0
C813 C 0.76672 0.95175 0.40916 0.0
C814 C 0.75077 0.91099 0.40798 0.0
C815 C 0.80322 0.0171 0.39528 0.0
C816 C 0.83344 0.04813 0.40404 0.0
C817 C 0.78536 0.02511 0.38194 0.0
C818 C 0.75252 0.99263 0.37273 0.0
C819 C 0.71689 0.96687 0.38065 0.0
C820 C 0.68703 0.93451 0.37236 0.0
C821 C 0.69229 0.92779 0.35607 0.0
C822 C 0.72734 0.95362 0.34801 0.0
C823 C 0.75736 0.98603 0.35627 0.0
H824 H 0.66914 0.90271 0.34966 0.0
H825 H 0.97309 0.20451 0.42959 0.0
H826 H 0.80719 0.69987 0.88921 0.0
H827 H 0.77013 0.73507 0.8909 0.0
H828 H 0.85933 0.82957 0.86196 0.0
H829 H 0.89623 0.79466 0.86009 0.0
H830 H 0.8382 0.85514 0.8901 0.0
H831 H 0.77492 0.76511 0.84421 0.0
H832 H 0.73569 0.70142 0.83016 0.0
H833 H 0.64127 0.66836 0.86442 0.0
H834 H 0.68002 0.73192 0.87867 0.0
H835 H 0.77992 0.9661 0.84726 0.0
H836 H 0.7918 0.91203 0.85301 0.0
H837 H 0.69419 0.86218 0.88671 0.0
H838 H 0.68216 0.91699 0.88117 0.0
H839 H 0.70812 0.8068 0.86335 0.0
H840 H 0.76601 0.90144 0.90598 0.0
H841 H 0.80181 0.96851 0.91745 0.0
H842 H 0.90464 0.99305 0.88969 0.0
H843 H 0.8692 0.9263 0.87781 0.0
C844 C 0.819 0.72827 0.8833 0.0
C845 C 0.85472 0.74458 0.87455 0.0
C846 C 0.79766 0.74816 0.88419 0.0
C847 C 0.81198 0.78479 0.87651 0.0
C848 C 0.84783 0.8013 0.86798 0.0
C849 C 0.86885 0.7813 0.86691 0.0
C850 C 0.79034 0.80672 0.87737 0.0
C851 C 0.80963 0.84443 0.88436 0.0
C852 C 0.7524 0.79217 0.87043 0.0
C853 C 0.73055 0.75296 0.86263 0.0
C854 C 0.74606 0.74399 0.8489 0.0
C855 C 0.72379 0.70803 0.84083 0.0
C856 C 0.68599 0.68088 0.8464 0.0
C857 C 0.67054 0.68943 0.86013 0.0
C858 C 0.69261 0.72541 0.86819 0.0
C859 C 0.76038 0.94333 0.85566 0.0
C860 C 0.73043 0.94613 0.86394 0.0
C861 C 0.76726 0.91247 0.85893 0.0
C862 C 0.74427 0.88369 0.87046 0.0
C863 C 0.71227 0.88438 0.87781 0.0
C864 C 0.7054 0.91557 0.87459 0.0
C865 C 0.75668 0.85543 0.87555 0.0
C866 C 0.73592 0.81678 0.86966 0.0
C867 C 0.79308 0.86888 0.88366 0.0
C868 C 0.81484 0.90891 0.89093 0.0
C869 C 0.79616 0.92123 0.90222 0.0
C870 C 0.81641 0.95917 0.90882 0.0
C871 C 0.85547 0.98504 0.90429 0.0
C872 C 0.87438 0.97297 0.89318 0.0
C873 C 0.85424 0.93505 0.88653 0.0
H874 H 0.87109 0.01443 0.9094 0.0
H875 H 0.66854 0.65328 0.84003 0.0
H876 H 0.04603 0.59652 0.10787 0.0
H877 H 0.06674 0.547 0.10728 0.0
H878 H 0.11839 0.58393 0.1551 0.0
H879 H 0.0984 0.63372 0.15563 0.0
H880 H 0.17192 0.59131 0.133 0.0
H881 H 0.04124 0.49153 0.14852 0.0
H882 H 0.96871 0.45259 0.14651 0.0
H883 H 0.97794 0.41324 0.09871 0.0
H884 H 0.05057 0.4524 0.10034 0.0
H885 H 0.23797 0.45596 0.14711 0.0
H886 H 0.20441 0.49421 0.14814 0.0
H887 H 0.15919 0.45563 0.09955 0.0
H888 H 0.19241 0.41689 0.09842 0.0
H889 H 0.10166 0.44822 0.1208 0.0
H890 H 0.23183 0.54774 0.10517 0.0
H891 H 0.30445 0.58646 0.10703 0.0
H892 H 0.296 0.62664 0.15475 0.0
H893 H 0.22333 0.58778 0.15328 0.0
C894 C 0.06041 0.59298 0.11851 0.0
C895 C 0.07108 0.61921 0.13171 0.0
C896 C 0.07235 0.56477 0.11814 0.0
C897 C 0.09455 0.5622 0.13107 0.0
C898 C 0.10167 0.58576 0.14493 0.0
C899 C 0.09009 0.61406 0.14524 0.0
C900 C 0.1151 0.53934 0.1293 0.0
C901 C 0.15645 0.55987 0.1306 0.0
C902 C 0.09505 0.49871 0.12552 0.0
C903 C 0.05137 0.47525 0.12449 0.0
C904 C 0.02782 0.47489 0.13751 0.0
C905 C 0.98668 0.4527 0.13646 0.0
C906 C 0.96872 0.43054 0.12247 0.0
C907 C 0.99188 0.43046 0.10953 0.0
C908 C 0.03304 0.45262 0.11052 0.0
C909 C 0.22125 0.45588 0.13656 0.0
C910 C 0.21793 0.43339 0.12267 0.0
C911 C 0.2021 0.47778 0.13717 0.0
C912 C 0.17944 0.47779 0.1239 0.0
C913 C 0.17649 0.45589 0.10993 0.0
C914 C 0.19573 0.43402 0.10927 0.0
C915 C 0.15826 0.50012 0.12482 0.0
C916 C 0.11697 0.47963 0.12324 0.0
C917 C 0.17833 0.54089 0.12829 0.0
C918 C 0.22209 0.56453 0.12917 0.0
C919 C 0.24545 0.56459 0.11612 0.0
C920 C 0.28663 0.58661 0.11709 0.0
C921 C 0.30481 0.60888 0.13102 0.0
C922 C 0.28186 0.60933 0.14398 0.0
C923 C 0.24068 0.58735 0.14307 0.0
H924 H 0.33668 0.62583 0.13178 0.0
H925 H 0.93687 0.41337 0.12168 0.0
H926 H 0.76496 0.23962 0.62882 0.0
H927 H 0.69372 0.20114 0.63269 0.0
H928 H 0.68512 0.12116 0.59471 0.0
H929 H 0.75652 0.15963 0.59061 0.0
H930 H 0.62245 0.13646 0.59478 0.0
H931 H 0.6901 0.09687 0.6322 0.0
H932 H 0.7411 0.10889 0.65269 0.0
H933 H 0.69058 0.15679 0.68556 0.0
H934 H 0.63986 0.14606 0.66511 0.0
H935 H 0.42857 0.00617 0.61914 0.0
H936 H 0.49734 0.02375 0.61495 0.0
H937 H 0.53428 0.11478 0.65141 0.0
H938 H 0.46587 0.09711 0.65588 0.0
H939 H 0.58261 0.08324 0.65087 0.0
H940 H 0.52505 0.13505 0.61239 0.0
H941 H 0.47566 0.12812 0.59195 0.0
H942 H 0.5082 0.05991 0.56144 0.0
H943 H 0.55741 0.06598 0.58185 0.0
C944 C 0.74792 0.21438 0.62102 0.0
C945 C 0.76653 0.20234 0.60959 0.0
C946 C 0.70723 0.19231 0.62332 0.0
C947 C 0.68452 0.1578 0.61429 0.0
C948 C 0.70236 0.14752 0.60191 0.0
C949 C 0.74315 0.16963 0.59957 0.0
C950 C 0.64271 0.13131 0.61858 0.0
C951 C 0.61369 0.12409 0.60692 0.0
C952 C 0.63153 0.11555 0.6345 0.0
C953 C 0.66127 0.12087 0.64705 0.0
C954 C 0.68995 0.11015 0.64376 0.0
C955 C 0.71883 0.11673 0.65537 0.0
C956 C 0.71906 0.13355 0.67042 0.0
C957 C 0.69035 0.14375 0.6739 0.0
C958 C 0.66153 0.13743 0.6623 0.0
C959 C 0.45118 0.029 0.62667 0.0
C960 C 0.4419 0.05089 0.63757 0.0
C961 C 0.49047 0.03909 0.62421 0.0
C962 C 0.52085 0.07118 0.63259 0.0
C963 C 0.51127 0.09011 0.64474 0.0
C964 C 0.4721 0.08008 0.64721 0.0
C965 C 0.56233 0.08906 0.62716 0.0
C966 C 0.59137 0.09476 0.63861 0.0
C967 C 0.57361 0.10367 0.61108 0.0
C968 C 0.54452 0.10055 0.59871 0.0
C969 C 0.52148 0.11838 0.60136 0.0
C970 C 0.49355 0.11462 0.58979 0.0
C971 C 0.4887 0.09348 0.57543 0.0
C972 C 0.51191 0.07619 0.57259 0.0
C973 C 0.53983 0.07978 0.58415 0.0
H974 H 0.46703 0.09057 0.56648 0.0
H975 H 0.74148 0.13868 0.67938 0.0
H976 H 0.56307 0.76578 0.10247 0.0
H977 H 0.52584 0.69476 0.10686 0.0
H978 H 0.51972 0.71334 0.15839 0.0
H979 H 0.55765 0.78451 0.15418 0.0
H980 H 0.54408 0.66212 0.15359 0.0
H981 H 0.43806 0.67717 0.135 0.0
H982 H 0.40079 0.69827 0.11749 0.0
H983 H 0.407 0.63018 0.07781 0.0
H984 H 0.44501 0.60922 0.09498 0.0
H985 H 0.3827 0.45999 0.16546 0.0
H986 H 0.4292 0.53097 0.16528 0.0
H987 H 0.46894 0.5213 0.1174 0.0
H988 H 0.42324 0.45026 0.11759 0.0
H989 H 0.42691 0.56757 0.12169 0.0
H990 H 0.53426 0.55296 0.14286 0.0
H991 H 0.56596 0.53026 0.16272 0.0
H992 H 0.5493 0.59617 0.20059 0.0
H993 H 0.51695 0.61881 0.181 0.0
C994 C 0.55329 0.75484 0.11471 0.0
C995 C 0.5635 0.78086 0.12798 0.0
C996 C 0.5319 0.71419 0.1172 0.0
C997 C 0.52004 0.69879 0.13296 0.0
C998 C 0.52878 0.72465 0.14614 0.0
C999 C 0.55024 0.76533 0.14368 0.0
C1000 C 0.50071 0.65576 0.13574 0.0
C1001 C 0.51812 0.64146 0.14677 0.0
C1002 C 0.46704 0.62884 0.12676 0.0
C1003 C 0.44481 0.64196 0.11625 0.0
C1004 C 0.43193 0.66707 0.12248 0.0
C1005 C 0.41059 0.67895 0.11262 0.0
C1006 C 0.40161 0.66564 0.09654 0.0
C1007 C 0.41401 0.64049 0.09027 0.0
C1008 C 0.43547 0.6286 0.10006 0.0
C1009 C 0.40259 0.47273 0.15521 0.0
C1010 C 0.39905 0.44972 0.14146 0.0
C1011 C 0.42905 0.51324 0.15512 0.0
C1012 C 0.45198 0.53116 0.14125 0.0
C1013 C 0.45134 0.50777 0.12819 0.0
C1014 C 0.4254 0.46716 0.12839 0.0
C1015 C 0.47085 0.5742 0.13921 0.0
C1016 C 0.453 0.5884 0.12841 0.0
C1017 C 0.5034 0.60088 0.1487 0.0
C1018 C 0.52278 0.58723 0.16049 0.0
C1019 C 0.53696 0.56227 0.15546 0.0
C1020 C 0.55515 0.5495 0.16666 0.0
C1021 C 0.55954 0.56167 0.18292 0.0
C1022 C 0.54583 0.58672 0.188 0.0
C1023 C 0.5276 0.59956 0.17684 0.0
H1024 H 0.57364 0.55176 0.19157 0.0
H1025 H 0.38495 0.67476 0.08895 0.0
H1026 H 0.8446 0.60358 0.58801 0.0
H1027 H 0.89119 0.57922 0.58938 0.0
H1028 H 0.83428 0.5145 0.63313 0.0
H1029 H 0.78794 0.53887 0.63199 0.0
H1030 H 0.91527 0.55581 0.63594 0.0
H1031 H 0.81574 0.46891 0.59639 0.0
H1032 H 0.77816 0.45537 0.57073 0.0
H1033 H 0.88625 0.50884 0.5434 0.0
H1034 H 0.92447 0.52312 0.56895 0.0
H1035 H 0.91358 0.38032 0.64594 0.0
H1036 H 0.91081 0.44056 0.64298 0.0
H1037 H 0.98539 0.47183 0.60041 0.0
H1038 H 0.98798 0.41093 0.60326 0.0
H1039 H 0.91723 0.46699 0.59338 0.0
H1040 H 0.01426 0.5351 0.63319 0.0
H1041 H 0.05105 0.54665 0.65892 0.0
H1042 H 0.94947 0.52858 0.68603 0.0
H1043 H 0.91181 0.5163 0.6605 0.0
C1044 C 0.84163 0.58371 0.5978 0.0
C1045 C 0.81232 0.57292 0.60984 0.0
C1046 C 0.86846 0.57006 0.59861 0.0
C1047 C 0.86621 0.54521 0.61138 0.0
C1048 C 0.8367 0.53399 0.62325 0.0
C1049 C 0.80998 0.54763 0.62249 0.0
C1050 C 0.8937 0.52972 0.61236 0.0
C1051 C 0.91587 0.53638 0.62667 0.0
C1052 C 0.89593 0.50609 0.59988 0.0
C1053 C 0.87294 0.49756 0.58456 0.0
C1054 C 0.83148 0.47808 0.58491 0.0
C1055 C 0.81007 0.47021 0.57039 0.0
C1056 C 0.82981 0.48137 0.55544 0.0
C1057 C 0.87101 0.50032 0.55499 0.0
C1058 C 0.89255 0.5083 0.56948 0.0
C1059 C 0.93044 0.40059 0.63625 0.0
C1060 C 0.95047 0.39064 0.62469 0.0
C1061 C 0.92915 0.4353 0.63464 0.0
C1062 C 0.94792 0.46079 0.62146 0.0
C1063 C 0.97078 0.4526 0.61069 0.0
C1064 C 0.97231 0.41785 0.61236 0.0
C1065 C 0.93708 0.49103 0.61746 0.0
C1066 C 0.91802 0.48742 0.60251 0.0
C1067 C 0.93772 0.5174 0.62939 0.0
C1068 C 0.96015 0.5247 0.64487 0.0
C1069 C -0.00036 0.53332 0.64463 0.0
C1070 C 0.02068 0.54004 0.6592 0.0
C1071 C 0.00261 0.53834 0.6741 0.0
C1072 C 0.96346 0.52994 0.67447 0.0
C1073 C 0.94227 0.52319 0.65994 0.0
H1074 H 0.01895 0.54355 0.68536 0.0
H1075 H 0.81319 0.47524 0.54421 0.0
H1076 H 0.55405 0.94337 0.15656 0.0
H1077 H 0.48515 0.9264 0.15419 0.0
H1078 H 0.50375 0.96195 0.10369 0.0
H1079 H 0.57309 0.97977 0.10606 0.0
H1080 H 0.4425 0.97033 0.11922 0.0
H1081 H 0.48244 0.87338 0.11086 0.0
H1082 H 0.51582 0.83616 0.1181 0.0
H1083 H 0.44533 0.79311 0.16144 0.0
H1084 H 0.41205 0.83067 0.15462 0.0
H1085 H 0.24628 0.83058 0.0931 0.0
H1086 H 0.31826 0.86931 0.0952 0.0
H1087 H 0.3119 0.82944 0.14475 0.0
H1088 H 0.24032 0.79024 0.14272 0.0
H1089 H 0.36797 0.82562 0.1281 0.0
H1090 H 0.32576 0.92129 0.13559 0.0
H1091 H 0.29256 0.95835 0.1278 0.0
H1092 H 0.36634 0.00316 0.08543 0.0
H1093 H 0.39953 0.96584 0.09279 0.0
C1094 C 0.54391 0.94922 0.14516 0.0
C1095 C 0.56859 0.96209 0.1314 0.0
C1096 C 0.50456 0.93947 0.14382 0.0
C1097 C 0.4893 0.9419 0.12865 0.0
C1098 C 0.51505 0.95965 0.11547 0.0
C1099 C 0.55468 0.96988 0.11685 0.0
C1100 C 0.44625 0.91918 0.12587 0.0
C1101 C 0.4261 0.93867 0.12101 0.0
C1102 C 0.42509 0.87786 0.12822 0.0
C1103 C 0.44505 0.85517 0.13231 0.0
C1104 C 0.47432 0.85626 0.12201 0.0
C1105 C 0.49318 0.83507 0.12603 0.0
C1106 C 0.48273 0.81236 0.14024 0.0
C1107 C 0.45341 0.81077 0.15045 0.0
C1108 C 0.43455 0.832 0.14652 0.0
C1109 C 0.26024 0.82968 0.10438 0.0
C1110 C 0.23752 0.8073 0.11776 0.0
C1111 C 0.30132 0.85217 0.10561 0.0
C1112 C 0.32028 0.85278 0.12022 0.0
C1113 C 0.29779 0.82956 0.13339 0.0
C1114 C 0.25684 0.80707 0.13218 0.0
C1115 C 0.36368 0.87674 0.12185 0.0
C1116 C 0.38412 0.85732 0.12634 0.0
C1117 C 0.38486 0.91797 0.11907 0.0
C1118 C 0.36482 0.94036 0.11465 0.0
C1119 C 0.33465 0.93873 0.12453 0.0
C1120 C 0.31588 0.95985 0.1202 0.0
C1121 C 0.32724 0.98295 0.1061 0.0
C1122 C 0.3575 0.98515 0.09632 0.0
C1123 C 0.3763 0.96403 0.10057 0.0
H1124 H 0.31267 -0.0008 0.10273 0.0
H1125 H 0.49723 0.79589 0.14332 0.0
H1126 H 0.57249 0.55041 0.61415 0.0
H1127 H 0.51282 0.48508 0.61543 0.0
H1128 H 0.57661 0.44188 0.64358 0.0
H1129 H 0.63499 0.5064 0.64289 0.0
H1130 H 0.49987 0.41924 0.60304 0.0
H1131 H 0.52351 0.37112 0.66829 0.0
H1132 H 0.54129 0.39992 0.69583 0.0
H1133 H 0.50531 0.48368 0.68328 0.0
H1134 H 0.48672 0.45504 0.65573 0.0
H1135 H 0.44008 0.21882 0.60344 0.0
H1136 H 0.47168 0.29075 0.60462 0.0
H1137 H 0.39718 0.28097 0.64532 0.0
H1138 H 0.36816 0.20946 0.64492 0.0
H1139 H 0.46105 0.33451 0.6523 0.0
H1140 H 0.38785 0.31176 0.6043 0.0
H1141 H 0.36008 0.28445 0.57726 0.0
H1142 H 0.4762 0.34473 0.55634 0.0
H1143 H 0.50478 0.37197 0.58329 0.0
C1144 C 0.57337 0.52715 0.62094 0.0
C1145 C 0.60857 0.53364 0.62837 0.0
C1146 C 0.53935 0.48981 0.62158 0.0
C1147 C 0.54003 0.45859 0.62975 0.0
C1148 C 0.57486 0.46556 0.63754 0.0
C1149 C 0.60851 0.5026 0.637 0.0
C1150 C 0.50609 0.4177 0.6291 0.0
C1151 C 0.49086 0.40071 0.61382 0.0
C1152 C 0.4929 0.39381 0.64323 0.0
C1153 C 0.50383 0.41096 0.65988 0.0
C1154 C 0.5191 0.39549 0.67142 0.0
C1155 C 0.5294 0.41185 0.68704 0.0
C1156 C 0.52448 0.44364 0.69129 0.0
C1157 C 0.5092 0.45912 0.67995 0.0
C1158 C 0.49883 0.44286 0.66432 0.0
C1159 C 0.4307 0.23228 0.61262 0.0
C1160 C 0.40223 0.20898 0.62421 0.0
C1161 C 0.44828 0.27333 0.61317 0.0
C1162 C 0.43638 0.2916 0.62488 0.0
C1163 C 0.4071 0.26788 0.63621 0.0
C1164 C 0.39058 0.22704 0.63601 0.0
C1165 C 0.45642 0.33537 0.62608 0.0
C1166 C 0.46903 0.35291 0.6415 0.0
C1167 C 0.46543 0.3599 0.61217 0.0
C1168 C 0.44848 0.34378 0.59586 0.0
C1169 C 0.40751 0.31903 0.59395 0.0
C1170 C 0.39162 0.30357 0.57864 0.0
C1171 C 0.41637 0.31281 0.56509 0.0
C1172 C 0.45706 0.33761 0.56684 0.0
C1173 C 0.47312 0.35313 0.58213 0.0
H1174 H 0.40401 0.3008 0.55325 0.0
H1175 H 0.53249 0.45627 0.70339 0.0
H1176 H 0.37824 0.92145 0.34502 0.0
H1177 H 0.43917 0.91988 0.34907 0.0
H1178 H 0.45967 0.98335 0.39431 0.0
H1179 H 0.39855 0.98512 0.39036 0.0
H1180 H 0.52005 0.97206 0.35557 0.0
H1181 H 0.48373 0.93035 0.42205 0.0
H1182 H 0.42855 0.90902 0.44147 0.0
H1183 H 0.3454 0.85002 0.40281 0.0
H1184 H 0.40013 0.87032 0.38326 0.0
H1185 H 0.59874 0.8496 0.40422 0.0
H1186 H 0.57192 0.8943 0.40474 0.0
H1187 H 0.53712 0.86682 0.35434 0.0
H1188 H 0.56427 0.82312 0.3536 0.0
H1189 H 0.49933 0.87936 0.4008 0.0
H1190 H 0.54013 0.93523 0.334 0.0
H1191 H 0.59711 0.9598 0.31534 0.0
H1192 H 0.67615 0.99641 0.35624 0.0
H1193 H 0.61962 0.97093 0.37517 0.0
C1194 C 0.39624 0.93606 0.35561 0.0
C1195 C 0.38327 0.95278 0.36751 0.0
C1196 C 0.43119 0.93535 0.35786 0.0
C1197 C 0.45349 0.95097 0.37211 0.0
C1198 C 0.44261 0.97091 0.38329 0.0
C1199 C 0.40773 0.97193 0.38098 0.0
C1200 C 0.48399 0.94063 0.37619 0.0
C1201 C 0.51585 0.95207 0.36553 0.0
C1202 C 0.47916 0.91565 0.38953 0.0
C1203 C 0.44597 0.90236 0.40119 0.0
C1204 C 0.45366 0.91274 0.41773 0.0
C1205 C 0.42247 0.90083 0.42875 0.0
C1206 C 0.38348 0.87842 0.42336 0.0
C1207 C 0.3756 0.86754 0.40696 0.0
C1208 C 0.40669 0.87922 0.39591 0.0
C1209 C 0.58532 0.85309 0.39327 0.0
C1210 C 0.58356 0.83267 0.37889 0.0
C1211 C 0.57031 0.87887 0.39355 0.0
C1212 C 0.55345 0.88472 0.37946 0.0
C1213 C 0.55118 0.86388 0.36521 0.0
C1214 C 0.56622 0.83835 0.3649 0.0
C1215 C 0.53471 0.90951 0.37977 0.0
C1216 C 0.50478 0.9006 0.39122 0.0
C1217 C 0.54168 0.93725 0.3673 0.0
C1218 C 0.57564 0.95111 0.35598 0.0
C1219 C 0.56967 0.94835 0.33901 0.0
C1220 C 0.60185 0.96219 0.3284 0.0
C1221 C 0.64018 0.97937 0.33462 0.0
C1222 C 0.6464 0.98257 0.35147 0.0
C1223 C 0.61429 0.96816 0.36214 0.0
H1224 H 0.66505 0.9904 0.3264 0.0
H1225 H 0.35938 0.86936 0.4319 0.0
H1226 H 0.77594 0.53872 0.84247 0.0
H1227 H 0.70406 0.50101 0.84137 0.0
H1228 H 0.69835 0.52155 0.89273 0.0
H1229 H 0.77035 0.55828 0.89409 0.0
H1230 H 0.64176 0.44891 0.8844 0.0
H1231 H 0.69264 0.57925 0.86455 0.0
H1232 H 0.73373 0.63716 0.84746 0.0
H1233 H 0.67151 0.57283 0.8047 0.0
H1234 H 0.6315 0.51363 0.82143 0.0
H1235 H 0.44383 0.40274 0.8834 0.0
H1236 H 0.51475 0.45 0.88433 0.0
H1237 H 0.52873 0.41199 0.83671 0.0
H1238 H 0.45805 0.36417 0.8358 0.0
H1239 H 0.58034 0.49732 0.84437 0.0
H1240 H 0.53799 0.36484 0.86472 0.0
H1241 H 0.49633 0.30762 0.88222 0.0
H1242 H 0.54125 0.38044 0.92486 0.0
H1243 H 0.58271 0.43825 0.90756 0.0
C1244 C 0.75951 0.53434 0.85365 0.0
C1245 C 0.77892 0.55168 0.86836 0.0
C1246 C 0.71838 0.51307 0.85295 0.0
C1247 C 0.69595 0.50929 0.86689 0.0
C1248 C 0.71517 0.52438 0.88181 0.0
C1249 C 0.75632 0.54546 0.88255 0.0
C1250 C 0.65264 0.49184 0.86568 0.0
C1251 C 0.62844 0.45987 0.87579 0.0
C1252 C 0.63523 0.50615 0.8544 0.0
C1253 C 0.65928 0.54175 0.84427 0.0
C1254 C 0.68807 0.57716 0.85148 0.0
C1255 C 0.71128 0.61021 0.84184 0.0
C1256 C 0.7051 0.60872 0.82502 0.0
C1257 C 0.67617 0.57394 0.81775 0.0
C1258 C 0.65342 0.54052 0.8273 0.0
C1259 C 0.46175 0.40552 0.87286 0.0
C1260 C 0.44566 0.37957 0.8596 0.0
C1261 C 0.50222 0.43239 0.87345 0.0
C1262 C 0.52678 0.43395 0.86067 0.0
C1263 C 0.51011 0.41108 0.84667 0.0
C1264 C 0.46982 0.38376 0.84619 0.0
C1265 C 0.56994 0.45437 0.8629 0.0
C1266 C 0.59396 0.48677 0.85302 0.0
C1267 C 0.58728 0.44077 0.87444 0.0
C1268 C 0.56308 0.4059 0.88486 0.0
C1269 C 0.53875 0.36869 0.87782 0.0
C1270 C 0.51521 0.33615 0.8877 0.0
C1271 C 0.51606 0.34042 0.90464 0.0
C1272 C 0.54057 0.3772 0.91173 0.0
C1273 C 0.56411 0.40985 0.9019 0.0
H1274 H 0.4978 0.31521 0.91226 0.0
H1275 H 0.72258 0.63459 0.81761 0.0
H1276 H 0.18858 0.74955 0.39472 0.0
H1277 H 0.15186 0.67825 0.38968 0.0
H1278 H 0.16673 0.69935 0.33787 0.0
H1279 H 0.2042 0.77024 0.34271 0.0
H1280 H 0.08325 0.64658 0.35137 0.0
H1281 H 0.2177 0.66927 0.35004 0.0
H1282 H 0.28405 0.69301 0.36159 0.0
H1283 H 0.23302 0.61719 0.40306 0.0
H1284 H 0.16628 0.59344 0.39185 0.0
H1285 H 0.07336 0.4538 0.3258 0.0
H1286 H 0.0953 0.52379 0.32767 0.0
H1287 H 0.02674 0.50307 0.37144 0.0
H1288 H 0.005 0.43268 0.3699 0.0
H1289 H 0.1344 0.55572 0.36234 0.0
H1290 H 0.01089 0.59391 0.36358 0.0
H1291 H 0.9445 0.57069 0.35214 0.0
H1292 H 0.9736 0.52405 0.31042 0.0
H1293 H 0.04035 0.54764 0.32145 0.0
C1294 C 0.18462 0.73894 0.38228 0.0
C1295 C 0.19936 0.76546 0.36912 0.0
C1296 C 0.16352 0.69835 0.37944 0.0
C1297 C 0.15637 0.68395 0.36342 0.0
C1298 C 0.17183 0.71019 0.3503 0.0
C1299 C 0.19356 0.75061 0.35312 0.0
C1300 C 0.13236 0.64142 0.36023 0.0
C1301 C 0.09427 0.62657 0.35379 0.0
C1302 C 0.14695 0.6157 0.36347 0.0
C1303 C 0.18702 0.63 0.37022 0.0
C1304 C 0.22061 0.65801 0.36171 0.0
C1305 C 0.25829 0.67138 0.36817 0.0
C1306 C 0.26274 0.65673 0.38308 0.0
C1307 C 0.22952 0.62858 0.39153 0.0
C1308 C 0.19177 0.61515 0.38513 0.0
C1309 C 0.06177 0.46377 0.33553 0.0
C1310 C 0.03818 0.43785 0.34792 0.0
C1311 C 0.07431 0.50378 0.33654 0.0
C1312 C 0.06281 0.51833 0.34974 0.0
C1313 C 0.03567 0.49209 0.36112 0.0
C1314 C 0.02325 0.4519 0.36019 0.0
C1315 C 0.08535 0.56077 0.3533 0.0
C1316 C 0.12318 0.57559 0.36 0.0
C1317 C 0.07042 0.58632 0.35029 0.0
C1318 C 0.03039 0.57192 0.3435 0.0
C1319 C 0.0031 0.57868 0.35197 0.0
C1320 C 0.96543 0.56552 0.34554 0.0
C1321 C 0.95475 0.5457 0.33061 0.0
C1322 C 0.98181 0.53916 0.32204 0.0
C1323 C 0.01954 0.55232 0.3284 0.0
H1324 H 0.92558 0.53554 0.32565 0.0
H1325 H 0.29194 0.66709 0.38806 0.0
H1326 H 0.63214 0.12257 0.87237 0.0
H1327 H 0.57104 0.12421 0.87422 0.0
H1328 H 0.50443 0.00093 0.86172 0.0
H1329 H 0.56648 -0.00131 0.86026 0.0
H1330 H 0.49745 0.07237 0.84253 0.0
H1331 H 0.47695 0.00174 0.89246 0.0
H1332 H 0.49776 0.98556 0.91834 0.0
H1333 H 0.53709 0.1025 0.93606 0.0
H1334 H 0.51713 0.1196 0.91018 0.0
H1335 H 0.36441 0.14488 0.85306 0.0
H1336 H 0.38871 0.09831 0.85249 0.0
H1337 H 0.47498 0.16691 0.8894 0.0
H1338 H 0.44766 0.21104 0.89108 0.0
H1339 H 0.45093 0.09558 0.8954 0.0
H1340 H 0.49295 0.17126 0.84402 0.0
H1341 H 0.47861 0.19358 0.81806 0.0
H1342 H 0.40497 0.07335 0.80306 0.0
H1343 H 0.41883 0.05038 0.82897 0.0
C1344 C 0.60456 0.09566 0.87004 0.0
C1345 C 0.60398 0.06054 0.86603 0.0
C1346 C 0.56971 0.09665 0.87118 0.0
C1347 C 0.53348 0.06273 0.86812 0.0
C1348 C 0.53234 0.02732 0.86416 0.0
C1349 C 0.56757 0.02607 0.86336 0.0
C1350 C 0.49784 0.06645 0.8686 0.0
C1351 C 0.48596 0.0761 0.85403 0.0
C1352 C 0.48389 0.07213 0.88364 0.0
C1353 C 0.49561 0.06196 0.89933 0.0
C1354 C 0.49029 0.02409 0.90182 0.0
C1355 C 0.50189 0.01475 0.91651 0.0
C1356 C 0.51875 0.04299 0.92883 0.0
C1357 C 0.52399 0.08063 0.92651 0.0
C1358 C 0.51246 0.09014 0.91184 0.0
C1359 C 0.38854 0.14978 0.86104 0.0
C1360 C 0.40468 0.18159 0.87196 0.0
C1361 C 0.40255 0.12331 0.86066 0.0
C1362 C 0.43438 0.12944 0.87062 0.0
C1363 C 0.45036 0.16136 0.8816 0.0
C1364 C 0.43517 0.18685 0.88246 0.0
C1365 C 0.45228 0.10383 0.86935 0.0
C1366 C 0.46087 0.09034 0.88381 0.0
C1367 C 0.46384 0.09529 0.85419 0.0
C1368 C 0.45663 0.10914 0.83844 0.0
C1369 C 0.47373 0.14964 0.83517 0.0
C1370 C 0.46567 0.16238 0.82048 0.0
C1371 C 0.44082 0.13489 0.80893 0.0
C1372 C 0.4242 0.0946 0.81201 0.0
C1373 C 0.4322 0.0817 0.82667 0.0
H1374 H 0.43447 0.14481 0.7976 0.0
H1375 H 0.52773 0.0357 0.94019 0.0
H1376 H 0.21314 0.45527 0.38028 0.0
H1377 H 0.28473 0.49698 0.37744 0.0
H1378 H 0.28041 0.43787 0.33239 0.0
H1379 H 0.20869 0.39832 0.33465 0.0
H1380 H 0.34233 0.48575 0.37764 0.0
H1381 H 0.35365 0.49495 0.3072 0.0
H1382 H 0.31422 0.49356 0.28342 0.0
H1383 H 0.25333 0.53631 0.31317 0.0
H1384 H 0.2927 0.53837 0.33706 0.0
H1385 H 0.54758 0.59323 0.36196 0.0
H1386 H 0.47896 0.53973 0.35964 0.0
H1387 H 0.44595 0.6217 0.34033 0.0
H1388 H 0.51394 0.67429 0.34183 0.0
H1389 H 0.40392 0.55682 0.32626 0.0
H1390 H 0.43901 0.59604 0.38237 0.0
H1391 H 0.47723 0.6072 0.40771 0.0
H1392 H 0.4429 0.48465 0.40936 0.0
H1393 H 0.40486 0.47288 0.38389 0.0
C1394 C 0.22756 0.45166 0.36969 0.0
C1395 C 0.20548 0.42415 0.35755 0.0
C1396 C 0.26847 0.47524 0.36812 0.0
C1397 C 0.28812 0.47107 0.35457 0.0
C1398 C 0.26601 0.44263 0.3427 0.0
C1399 C 0.22501 0.41995 0.34401 0.0
C1400 C 0.33162 0.49663 0.35289 0.0
C1401 C 0.35573 0.50121 0.36638 0.0
C1402 C 0.34936 0.51711 0.33826 0.0
C1403 C 0.32579 0.51636 0.32394 0.0
C1404 C 0.33191 0.50415 0.30864 0.0
C1405 C 0.30957 0.50322 0.29515 0.0
C1406 C 0.28118 0.51469 0.2968 0.0
C1407 C 0.27521 0.52727 0.31193 0.0
C1408 C 0.2975 0.52829 0.32545 0.0
C1409 C 0.52581 0.59958 0.35688 0.0
C1410 C 0.53624 0.63819 0.3523 0.0
C1411 C 0.48654 0.56905 0.35567 0.0
C1412 C 0.45705 0.57684 0.35017 0.0
C1413 C 0.468 0.61483 0.34465 0.0
C1414 C 0.50708 0.64504 0.34561 0.0
C1415 C 0.41445 0.54679 0.35114 0.0
C1416 C 0.39051 0.54103 0.33747 0.0
C1417 C 0.3967 0.52671 0.36584 0.0
C1418 C 0.41952 0.53369 0.38113 0.0
C1419 C 0.43986 0.57154 0.38808 0.0
C1420 C 0.46145 0.57797 0.40247 0.0
C1421 C 0.4626 0.54668 0.41011 0.0
C1422 C 0.44207 0.50887 0.4034 0.0
C1423 C 0.42049 0.50231 0.38899 0.0
H1424 H 0.47932 0.55171 0.42126 0.0
H1425 H 0.26389 0.51392 0.28635 0.0
H1426 H 0.94548 0.54218 0.83375 0.0
H1427 H 0.93112 0.4743 0.83655 0.0
H1428 H 0.96718 0.49576 0.88696 0.0
H1429 H 0.98275 0.56425 0.88409 0.0
H1430 H 0.97258 0.42935 0.8699 0.0
H1431 H 0.88124 0.47749 0.88232 0.0
H1432 H 0.8494 0.5163 0.87524 0.0
H1433 H 0.80296 0.44873 0.83137 0.0
H1434 H 0.83509 0.41 0.83807 0.0
H1435 H 0.82699 0.23641 0.89756 0.0
H1436 H 0.87005 0.30789 0.89557 0.0
H1437 H 0.82201 0.30657 0.84803 0.0
H1438 H 0.77849 0.23569 0.85002 0.0
H1439 H 0.82659 0.36414 0.86571 0.0
H1440 H 0.91221 0.31255 0.85317 0.0
H1441 H 0.94632 0.27492 0.85814 0.0
H1442 H 0.00417 0.34668 0.89996 0.0
H1443 H 0.9699 0.38433 0.89542 0.0
C1444 C 0.95234 0.53301 0.84517 0.0
C1445 C 0.96443 0.55803 0.85879 0.0
C1446 C 0.94426 0.49428 0.84675 0.0
C1447 C 0.94725 0.47996 0.86206 0.0
C1448 C 0.96468 0.50637 0.87506 0.0
C1449 C 0.97347 0.54547 0.87341 0.0
C1450 C 0.92286 0.43736 0.86538 0.0
C1451 C 0.94067 0.41495 0.86919 0.0
C1452 C 0.88127 0.4188 0.86431 0.0
C1453 C 0.8608 0.44112 0.86062 0.0
C1454 C 0.86436 0.47106 0.87114 0.0
C1455 C 0.84629 0.49302 0.86719 0.0
C1456 C 0.82428 0.485 0.85284 0.0
C1457 C 0.82007 0.4549 0.84246 0.0
C1458 C 0.83817 0.43293 0.84633 0.0
C1459 C 0.82518 0.25144 0.88679 0.0
C1460 C 0.79925 0.23033 0.87395 0.0
C1461 C 0.85016 0.29219 0.8856 0.0
C1462 C 0.8497 0.31235 0.87153 0.0
C1463 C 0.82298 0.29151 0.85896 0.0
C1464 C 0.798 0.25097 0.86015 0.0
C1465 C 0.87606 0.35537 0.86989 0.0
C1466 C 0.85849 0.37817 0.86654 0.0
C1467 C 0.91772 0.37386 0.87126 0.0
C1468 C 0.93811 0.351 0.87406 0.0
C1469 C 0.93188 0.32006 0.86353 0.0
C1470 C 0.95131 0.29877 0.86625 0.0
C1471 C 0.97733 0.30837 0.87937 0.0
C1472 C 0.98396 0.33925 0.88981 0.0
C1473 C 0.96455 0.36058 0.88717 0.0
H1474 H 0.99249 0.29202 0.88142 0.0
H1475 H 0.81045 0.50206 0.84975 0.0
H1476 H 0.05143 0.22253 0.30853 0.0
H1477 H 0.06854 0.20884 0.28156 0.0
H1478 H 0.09233 0.32302 0.2648 0.0
H1479 H 0.0752 0.33693 0.2916 0.0
H1480 H 0.05585 0.26494 0.24125 0.0
H1481 H 0.1652 0.31125 0.28026 0.0
H1482 H 0.19603 0.30605 0.30569 0.0
H1483 H 0.17652 0.19259 0.29089 0.0
H1484 H 0.14503 0.19692 0.26545 0.0
H1485 H 0.21344 0.35398 0.18714 0.0
H1486 H 0.17348 0.33467 0.21188 0.0
H1487 H 0.15596 0.21727 0.2081 0.0
H1488 H 0.19538 0.23607 0.18296 0.0
H1489 H 0.17876 0.25732 0.24085 0.0
H1490 H 0.08157 0.21632 0.19958 0.0
H1491 H 0.04966 0.2198 0.17418 0.0
H1492 H 0.04453 0.31949 0.19279 0.0
H1493 H 0.07688 0.31695 0.21824 0.0
C1494 C 0.05947 0.24439 0.299 0.0
C1495 C 0.06247 0.28106 0.30226 0.0
C1496 C 0.06932 0.23653 0.28363 0.0
C1497 C 0.08218 0.26515 0.27131 0.0
C1498 C 0.08252 0.30058 0.27419 0.0
C1499 C 0.0729 0.30856 0.28954 0.0
C1500 C 0.09903 0.26037 0.25594 0.0
C1501 C 0.08262 0.26311 0.24112 0.0
C1502 C 0.1332 0.2566 0.25583 0.0
C1503 C 0.1523 0.25417 0.27107 0.0
C1504 C 0.16719 0.28506 0.28249 0.0
C1505 C 0.18483 0.28229 0.2969 0.0
C1506 C 0.1881 0.24894 0.29993 0.0
C1507 C 0.17386 0.21835 0.28854 0.0
C1508 C 0.15611 0.22094 0.27413 0.0
C1509 C 0.20156 0.32418 0.19164 0.0
C1510 C 0.20755 0.29653 0.1831 0.0
C1511 C 0.17848 0.31313 0.20569 0.0
C1512 C 0.16148 0.27447 0.2116 0.0
C1513 C 0.16869 0.24715 0.20358 0.0
C1514 C 0.19124 0.25798 0.18929 0.0
C1515 C 0.13634 0.26337 0.22625 0.0
C1516 C 0.1513 0.25786 0.24092 0.0
C1517 C 0.10068 0.26428 0.22622 0.0
C1518 C 0.08199 0.26663 0.21079 0.0
C1519 C 0.07407 0.23929 0.19819 0.0
C1520 C 0.05578 0.241 0.1838 0.0
C1521 C 0.04515 0.26989 0.18186 0.0
C1522 C 0.0528 0.29713 0.19431 0.0
C1523 C 0.07107 0.29553 0.20873 0.0
H1524 H 0.03088 0.27109 0.17073 0.0
H1525 H 0.20177 0.24684 0.31109 0.0
H1526 H 0.83185 0.23412 0.67771 0.0
H1527 H 0.80398 0.20872 0.7046 0.0
H1528 H 0.88045 0.15951 0.70979 0.0
H1529 H 0.90796 0.1841 0.68274 0.0
H1530 H 0.80613 0.10723 0.71848 0.0
H1531 H 0.89915 0.24382 0.72996 0.0
H1532 H 0.92904 0.31566 0.72648 0.0
H1533 H 0.81857 0.30774 0.73866 0.0
H1534 H 0.78789 0.23574 0.74202 0.0
H1535 H 0.8001 0.07696 0.80394 0.0
H1536 H 0.81545 0.09456 0.77529 0.0
H1537 H 0.73625 0.14122 0.77466 0.0
H1538 H 0.72115 0.12431 0.80344 0.0
H1539 H 0.80645 0.19325 0.7629 0.0
H1540 H 0.71459 0.05731 0.75357 0.0
H1541 H 0.68456 0.98549 0.7571 0.0
H1542 H 0.79185 0.99162 0.74092 0.0
H1543 H 0.82275 0.06359 0.73751 0.0
C1544 C 0.84313 0.21833 0.68464 0.0
C1545 C 0.87232 0.21133 0.67812 0.0
C1546 C 0.82711 0.20378 0.70001 0.0
C1547 C 0.84036 0.18248 0.70923 0.0
C1548 C 0.86976 0.17582 0.70284 0.0
C1549 C 0.8856 0.19009 0.68742 0.0
C1550 C 0.82325 0.16664 0.72548 0.0
C1551 C 0.80656 0.12605 0.72827 0.0
C1552 C 0.82268 0.19107 0.73804 0.0
C1553 C 0.84114 0.23436 0.73607 0.0
C1554 C 0.88116 0.25736 0.73178 0.0
C1555 C 0.89826 0.29811 0.72985 0.0
C1556 C 0.87569 0.31624 0.73231 0.0
C1557 C 0.836 0.29365 0.73674 0.0
C1558 C 0.81875 0.25289 0.73867 0.0
C1559 C 0.7854 0.09035 0.79767 0.0
C1560 C 0.75963 0.0995 0.80604 0.0
C1561 C 0.79408 0.10025 0.78124 0.0
C1562 C 0.77688 0.11908 0.77282 0.0
C1563 C 0.74989 0.12676 0.78095 0.0
C1564 C 0.74126 0.11698 0.79739 0.0
C1565 C 0.78974 0.13383 0.75602 0.0
C1566 C 0.80566 0.17427 0.7531 0.0
C1567 C 0.78956 0.10924 0.74336 0.0
C1568 C 0.7711 0.06593 0.74542 0.0
C1569 C 0.73191 0.04341 0.7509 0.0
C1570 C 0.7147 0.00265 0.75285 0.0
C1571 C 0.73631 0.98402 0.74927 0.0
C1572 C 0.77515 0.0061 0.7437 0.0
C1573 C 0.79251 0.04687 0.74174 0.0
H1574 H 0.72293 0.95246 0.75078 0.0
H1575 H 0.88898 0.34779 0.73081 0.0
H1576 H 0.76153 0.92859 0.18102 0.0
H1577 H 0.77227 0.91819 0.2095 0.0
H1578 H 0.65779 0.90129 0.22206 0.0
H1579 H 0.64661 0.91156 0.19358 0.0
H1580 H 0.71794 0.94685 0.24508 0.0
H1581 H 0.66537 0.82358 0.21499 0.0
H1582 H 0.66601 0.78154 0.19276 0.0
H1583 H 0.77959 0.80249 0.20857 0.0
H1584 H 0.77983 0.84513 0.23077 0.0
H1585 H 0.64054 0.81918 0.31137 0.0
H1586 H 0.65557 0.84988 0.2845 0.0
H1587 H 0.77034 0.85966 0.28583 0.0
H1588 H 0.75576 0.82931 0.31306 0.0
H1589 H 0.72474 0.82585 0.25633 0.0
H1590 H 0.77518 0.94156 0.28813 0.0
H1591 H 0.77731 0.98489 0.31035 0.0
H1592 H 0.67197 0.97951 0.29192 0.0
H1593 H 0.66922 0.93609 0.26953 0.0
C1594 C 0.7388 0.9232 0.18985 0.0
C1595 C 0.703 0.9205 0.18501 0.0
C1596 C 0.74504 0.91725 0.20611 0.0
C1597 C 0.71567 0.90867 0.21778 0.0
C1598 C 0.68077 0.90791 0.21317 0.0
C1599 C 0.67437 0.91358 0.1969 0.0
C1600 C 0.71986 0.89751 0.23454 0.0
C1601 C 0.71935 0.92039 0.24757 0.0
C1602 C 0.72311 0.86372 0.23768 0.0
C1603 C 0.72285 0.83793 0.2244 0.0
C1604 C 0.69063 0.8195 0.21364 0.0
C1605 C 0.6908 0.79551 0.20106 0.0
C1606 C 0.72288 0.78946 0.19922 0.0
C1607 C 0.7548 0.80728 0.20999 0.0
C1608 C 0.75479 0.83134 0.22257 0.0
C1609 C 0.66898 0.82775 0.30597 0.0
C1610 C 0.69693 0.82169 0.31427 0.0
C1611 C 0.67761 0.84555 0.29068 0.0
C1612 C 0.71415 0.85727 0.28333 0.0
C1613 C 0.74207 0.85094 0.29143 0.0
C1614 C 0.7337 0.83365 0.30692 0.0
C1615 C 0.72184 0.87466 0.26686 0.0
C1616 C 0.72434 0.85285 0.25386 0.0
C1617 C 0.72081 0.90959 0.26374 0.0
C1618 C 0.72189 0.9354 0.2772 0.0
C1619 C 0.75232 0.9494 0.28887 0.0
C1620 C 0.75372 0.97409 0.30146 0.0
C1621 C 0.72479 0.98492 0.30255 0.0
C1622 C 0.6944 0.97113 0.29103 0.0
C1623 C 0.69299 0.9466 0.27835 0.0
H1624 H 0.72605 0.00409 0.3123 0.0
H1625 H 0.72297 0.77088 0.18947 0.0
H1626 H 0.81078 0.72735 0.67905 0.0
H1627 H 0.83718 0.73065 0.7064 0.0
H1628 H 0.78592 0.60427 0.70665 0.0
H1629 H 0.75862 0.60053 0.67957 0.0
H1630 H 0.77794 0.62863 0.73547 0.0
H1631 H 0.88335 0.66537 0.69733 0.0
H1632 H 0.92736 0.70335 0.67463 0.0
H1633 H 0.97096 0.81002 0.70237 0.0
H1634 H 0.92676 0.77274 0.72516 0.0
H1635 H 0.88767 0.61001 0.79847 0.0
H1636 H 0.86858 0.61136 0.77024 0.0
H1637 H 0.90703 0.73501 0.77476 0.0
H1638 H 0.92666 0.73419 0.803 0.0
H1639 H 0.92245 0.71332 0.74368 0.0
H1640 H 0.81637 0.67129 0.78277 0.0
H1641 H 0.77655 0.62894 0.80545 0.0
H1642 H 0.73443 0.52676 0.7749 0.0
H1643 H 0.77564 0.56837 0.75222 0.0
C1644 C 0.80471 0.70022 0.685 0.0
C1645 C 0.78289 0.66372 0.67707 0.0
C1646 C 0.82 0.70218 0.70059 0.0
C1647 C 0.81416 0.66777 0.70839 0.0
C1648 C 0.79091 0.63119 0.70081 0.0
C1649 C 0.77536 0.62915 0.68531 0.0
C1650 C 0.83326 0.6698 0.72422 0.0
C1651 C 0.80957 0.64688 0.73721 0.0
C1652 C 0.87452 0.69385 0.7265 0.0
C1653 C 0.90144 0.71632 0.71289 0.0
C1654 C 0.90212 0.69697 0.69855 0.0
C1655 C 0.92712 0.71836 0.68567 0.0
C1656 C 0.95186 0.75908 0.68704 0.0
C1657 C 0.95173 0.77848 0.70132 0.0
C1658 C 0.92673 0.75724 0.71422 0.0
C1659 C 0.89278 0.6377 0.7934 0.0
C1660 C 0.90798 0.67183 0.80308 0.0
C1661 C 0.88192 0.6384 0.77726 0.0
C1662 C 0.88581 0.67312 0.77058 0.0
C1663 C 0.90371 0.70793 0.77977 0.0
C1664 C 0.91469 0.7073 0.79592 0.0
C1665 C 0.86712 0.67205 0.7548 0.0
C1666 C 0.89084 0.6952 0.74189 0.0
C1667 C 0.82594 0.64771 0.75249 0.0
C1668 C 0.79945 0.62294 0.76583 0.0
C1669 C 0.7988 0.63977 0.7809 0.0
C1670 C 0.77598 0.61587 0.79377 0.0
C1671 C 0.75282 0.57517 0.79162 0.0
C1672 C 0.7524 0.5583 0.77656 0.0
C1673 C 0.77563 0.58202 0.76371 0.0
H1674 H 0.73527 0.55669 0.80162 0.0
H1675 H 0.97118 0.77559 0.67705 0.0
H1676 H 0.13219 0.75955 0.18723 0.0
H1677 H 0.14709 0.78235 0.21529 0.0
H1678 H 0.09752 0.85771 0.2075 0.0
H1679 H 0.083 0.83546 0.17912 0.0
H1680 H 0.16728 0.89681 0.22257 0.0
H1681 H 0.04909 0.77593 0.23104 0.0
H1682 H 0.0014 0.70494 0.22842 0.0
H1683 H 0.08391 0.67751 0.25092 0.0
H1684 H 0.13237 0.74835 0.25347 0.0
H1685 H 0.17849 0.93119 0.31007 0.0
H1686 H 0.15549 0.91423 0.28186 0.0
H1687 H 0.21463 0.8467 0.2779 0.0
H1688 H 0.23812 0.86375 0.30595 0.0
H1689 H 0.13239 0.80538 0.26951 0.0
H1690 H 0.2522 0.92876 0.25853 0.0
H1691 H 0.29745 0.00022 0.26151 0.0
H1692 H 0.20697 0.02295 0.24438 0.0
H1693 H 0.16098 0.95153 0.24151 0.0
C1694 C 0.12405 0.78071 0.19146 0.0
C1695 C 0.1064 0.7957 0.18089 0.0
C1696 C 0.13245 0.79358 0.20757 0.0
C1697 C 0.12304 0.82142 0.21354 0.0
C1698 C 0.10493 0.83612 0.20312 0.0
C1699 C 0.09653 0.82327 0.18694 0.0
C1700 C 0.13405 0.83627 0.23044 0.0
C1701 C 0.15898 0.87689 0.23289 0.0
C1702 C 0.1235 0.81024 0.24388 0.0
C1703 C 0.0945 0.76752 0.24233 0.0
C1704 C 0.05722 0.75478 0.23531 0.0
C1705 C 0.03001 0.71455 0.23386 0.0
C1706 C 0.03965 0.68674 0.23947 0.0
C1707 C 0.07649 0.6991 0.24657 0.0
C1708 C 0.10383 0.73929 0.24804 0.0
C1709 C 0.18711 0.91322 0.30311 0.0
C1710 C 0.21002 0.89868 0.31026 0.0
C1711 C 0.17396 0.90362 0.28702 0.0
C1712 C 0.18327 0.87911 0.2779 0.0
C1713 C 0.2071 0.86558 0.28481 0.0
C1714 C 0.22066 0.87554 0.3008 0.0
C1715 C 0.1664 0.86558 0.26147 0.0
C1716 C 0.14024 0.82523 0.25918 0.0
C1717 C 0.17538 0.89189 0.24827 0.0
C1718 C 0.203 0.93479 0.25 0.0
C1719 C 0.24182 0.94897 0.25556 0.0
C1720 C 0.26763 0.98948 0.25719 0.0
C1721 C 0.25505 0.01611 0.25319 0.0
C1722 C 0.21665 0.00229 0.24751 0.0
C1723 C 0.19071 0.9618 0.24587 0.0
H1724 H 0.27508 0.04746 0.25446 0.0
H1725 H 0.01854 0.65561 0.23834 0.0
H1726 H 0.23662 0.14526 0.81904 0.0
H1727 H 0.22854 0.11495 0.79216 0.0
H1728 H 0.3369 0.21603 0.77606 0.0
H1729 H 0.34526 0.24645 0.80281 0.0
H1730 H 0.28002 0.19174 0.753 0.0
H1731 H 0.33885 0.13615 0.78724 0.0
H1732 H 0.34571 0.10151 0.81104 0.0
H1733 H 0.23515 -0.00135 0.79937 0.0
H1734 H 0.22746 0.03286 0.77555 0.0
H1735 H 0.35688 0.123 0.69175 0.0
H1736 H 0.34657 0.14096 0.71902 0.0
H1737 H 0.2235 0.05213 0.71669 0.0
H1738 H 0.23322 0.03426 0.68907 0.0
H1739 H 0.27768 0.06424 0.74871 0.0
H1740 H 0.22665 0.12521 0.71131 0.0
H1741 H 0.23071 0.16376 0.68685 0.0
H1742 H 0.3385 0.26159 0.70463 0.0
H1743 H 0.33535 0.22339 0.72909 0.0
C1744 C 0.25838 0.16131 0.80969 0.0
C1745 C 0.29164 0.19822 0.81304 0.0
C1746 C 0.25385 0.14382 0.79439 0.0
C1747 C 0.28232 0.16314 0.78221 0.0
C1748 C 0.31463 0.20066 0.78532 0.0
C1749 C 0.31938 0.21796 0.80062 0.0
C1750 C 0.27939 0.14403 0.76634 0.0
C1751 C 0.27933 0.16379 0.75208 0.0
C1752 C 0.27841 0.10751 0.76517 0.0
C1753 C 0.28236 0.0872 0.77972 0.0
C1754 C 0.31581 0.10628 0.78984 0.0
C1755 C 0.31996 0.08666 0.80328 0.0
C1756 C 0.29097 0.04785 0.80666 0.0
C1757 C 0.25766 0.02866 0.79668 0.0
C1758 C 0.25338 0.04815 0.78321 0.0
C1759 C 0.32768 0.10679 0.69707 0.0
C1760 C 0.29579 0.07729 0.68821 0.0
C1761 C 0.32189 0.11719 0.71264 0.0
C1762 C 0.2843 0.09795 0.71971 0.0
C1763 C 0.2527 0.06722 0.71132 0.0
C1764 C 0.25831 0.05716 0.69558 0.0
C1765 C 0.27821 0.11197 0.73551 0.0
C1766 C 0.27705 0.09153 0.74971 0.0
C1767 C 0.27902 0.14832 0.73666 0.0
C1768 C 0.28092 0.17131 0.72196 0.0
C1769 C 0.25142 0.15479 0.70992 0.0
C1770 C 0.25351 0.17662 0.69608 0.0
C1771 C 0.28489 0.21508 0.69418 0.0
C1772 C 0.31423 0.23179 0.70612 0.0
C1773 C 0.31227 0.21009 0.71998 0.0
H1774 H 0.28642 0.23202 0.6835 0.0
H1775 H 0.29421 0.03272 0.81708 0.0
H1776 H 0.31826 0.33568 0.92816 0.0
H1777 H 0.32178 0.35436 0.95674 0.0
H1778 H 0.38186 0.29027 0.96836 0.0
H1779 H 0.37698 0.27015 0.93986 0.0
H1780 H 0.32636 0.27186 0.98896 0.0
H1781 H 0.42925 0.39422 0.96875 0.0
H1782 H 0.46124 0.45207 0.95062 0.0
H1783 H 0.37699 0.48616 0.9649 0.0
H1784 H 0.34411 0.42818 0.98296 0.0
H1785 H 0.36129 0.33828 0.07056 0.0
H1786 H 0.37765 0.33591 0.042 0.0
H1787 H 0.29336 0.37016 0.02708 0.0
H1788 H 0.27646 0.37237 0.05564 0.0
H1789 H 0.36777 0.40661 0.00888 0.0
H1790 H 0.26225 0.27879 0.02701 0.0
H1791 H 0.23302 0.22178 0.04567 0.0
H1792 H 0.32786 0.19969 0.03543 0.0
H1793 H 0.35796 0.25699 0.01688 0.0
C1794 C 0.33262 0.32593 0.93677 0.0
C1795 C 0.34719 0.3013 0.93179 0.0
C1796 C 0.33486 0.33686 0.9531 0.0
C1797 C 0.35254 0.32416 0.96469 0.0
C1798 C 0.36807 0.30042 0.95964 0.0
C1799 C 0.36526 0.28894 0.94336 0.0
C1800 C 0.35208 0.33309 0.98224 0.0
C1801 C 0.33624 0.30151 0.99331 0.0
C1802 C 0.36428 0.37165 0.98794 0.0
C1803 C 0.38402 0.40664 0.97712 0.0
C1804 C 0.41735 0.41388 0.96794 0.0
C1805 C 0.43568 0.44673 0.95769 0.0
C1806 C 0.42111 0.47273 0.95658 0.0
C1807 C 0.38823 0.46598 0.96576 0.0
C1808 C 0.36976 0.43315 0.97602 0.0
C1809 C 0.34665 0.34596 0.06125 0.0
C1810 C 0.31723 0.3551 0.06535 0.0
C1811 C 0.35608 0.34459 0.04495 0.0
C1812 C 0.33648 0.3526 0.03252 0.0
C1813 C 0.30879 0.36394 0.03656 0.0
C1814 C 0.29902 0.36494 0.05286 0.0
C1815 C 0.34203 0.34544 0.01532 0.0
C1816 C 0.35856 0.37721 0.00441 0.0
C1817 C 0.33096 0.30718 0.00975 0.0
C1818 C 0.31257 0.27241 0.02071 0.0
C1819 C 0.27702 0.26196 0.02884 0.0
C1820 C 0.26027 0.22957 0.03938 0.0
C1821 C 0.27863 0.2072 0.04178 0.0
C1822 C 0.31371 0.21709 0.03359 0.0
C1823 C 0.33061 0.2495 0.02305 0.0
H1824 H 0.26564 0.18215 0.04995 0.0
H1825 H 0.43534 0.49814 0.94864 0.0
H1826 H 0.09492 0.36442 0.43062 0.0
H1827 H 0.07863 0.3574 0.45965 0.0
H1828 H 0.95514 0.30646 0.44778 0.0
H1829 H 0.97124 0.31447 0.4188 0.0
H1830 H 0.9723 0.35316 0.47318 0.0
H1831 H -0.00411 0.24843 0.45768 0.0
H1832 H 0.03363 0.21928 0.446 0.0
H1833 H 0.12635 0.28213 0.48081 0.0
H1834 H 0.08941 0.31201 0.49259 0.0
H1835 H 0.89059 0.24492 0.54702 0.0
H1836 H 0.91017 0.26222 0.51848 0.0
H1837 H 0.03199 0.33173 0.53315 0.0
H1838 H 0.01276 0.31512 0.5617 0.0
H1839 H 0.0171 0.27761 0.50686 0.0
H1840 H 0.98962 0.37951 0.52301 0.0
H1841 H 0.94917 0.40551 0.5347 0.0
H1842 H 0.85997 0.34365 0.49841 0.0
H1843 H 0.89966 0.31678 0.48665 0.0
C1844 C 0.06435 0.35218 0.4342 0.0
C1845 C 0.03436 0.33977 0.42241 0.0
C1846 C 0.05507 0.348 0.45078 0.0
C1847 C 0.01558 0.33066 0.45587 0.0
C1848 C 0.98579 0.31981 0.44414 0.0
C1849 C 0.99508 0.32441 0.42756 0.0
C1850 C 0.00508 0.32237 0.47335 0.0
C1851 C 0.98178 0.33631 0.48049 0.0
C1852 C 0.01787 0.3008 0.48295 0.0
C1853 C 0.04008 0.28277 0.4759 0.0
C1854 C 0.02446 0.25626 0.46276 0.0
C1855 C 0.04567 0.23957 0.45614 0.0
C1856 C 0.08239 0.24895 0.46262 0.0
C1857 C 0.09793 0.27494 0.47578 0.0
C1858 C 0.07686 0.29173 0.48245 0.0
C1859 C 0.92153 0.26391 0.54417 0.0
C1860 C 0.95013 0.27871 0.5566 0.0
C1861 C 0.93261 0.27386 0.52789 0.0
C1862 C 0.97245 0.29836 0.5238 0.0
C1863 C 0.00109 0.31284 0.53613 0.0
C1864 C 0.99001 0.30341 0.55241 0.0
C1865 C 0.98437 0.30834 0.50659 0.0
C1866 C 0.00783 0.29461 0.49952 0.0
C1867 C 0.97131 0.32962 0.49702 0.0
C1868 C 0.94743 0.3458 0.50405 0.0
C1869 C 0.96121 0.37114 0.51761 0.0
C1870 C 0.93846 0.38611 0.52423 0.0
C1871 C 0.90198 0.37615 0.51733 0.0
C1872 C 0.88822 0.35129 0.50376 0.0
C1873 C 0.91084 0.33621 0.4971 0.0
H1874 H 0.88441 0.38778 0.52247 0.0
H1875 H 0.09876 0.236 0.45747 0.0
H1876 H 0.6965 0.01064 0.06507 0.0
H1877 H 0.69902 0.02552 0.03618 0.0
H1878 H 0.63827 0.90132 0.02494 0.0
H1879 H 0.63673 0.88607 0.05404 0.0
H1880 H 0.69696 0.93967 0.0045 0.0
H1881 H 0.5908 0.95601 0.02279 0.0
H1882 H 0.55599 0.97973 0.04042 0.0
H1883 H 0.64042 0.0994 0.02808 0.0
H1884 H 0.67609 0.07644 0.01056 0.0
H1885 H 0.66687 0.97939 0.9223 0.0
H1886 H 0.65252 0.95632 0.9505 0.0
H1887 H 0.73099 0.07435 0.96763 0.0
H1888 H 0.74585 0.09781 0.93942 0.0
H1889 H 0.6562 0.03333 0.98415 0.0
H1890 H 0.76434 0.01429 0.96734 0.0
H1891 H 0.79604 0.98861 0.94893 0.0
H1892 H 0.7025 0.87039 0.95784 0.0
H1893 H 0.66994 0.89544 0.97613 0.0
C1894 C 0.68339 0.98636 0.05651 0.0
C1895 C 0.66617 0.94711 0.06188 0.0
C1896 C 0.68471 0.99496 0.03996 0.0
C1897 C 0.66813 0.96453 0.0284 0.0
C1898 C 0.65106 0.92526 0.03367 0.0
C1899 C 0.65013 0.91659 0.05029 0.0
C1900 C 0.66994 0.97421 0.01083 0.0
C1901 C 0.68732 0.95953 2e-05 0.0
C1902 C 0.65776 0.0005 0.00497 0.0
C1903 C 0.63629 0.01448 0.01544 0.0
C1904 C 0.60211 0.9874 0.02392 0.0
C1905 C 0.5822 0.00071 0.03388 0.0
C1906 C 0.59602 0.04104 0.03539 0.0
C1907 C 0.62975 0.06816 0.02691 0.0
C1908 C 0.6498 0.05501 0.01694 0.0
C1909 C 0.68092 0.00055 0.93205 0.0
C1910 C 0.70763 0.04045 0.92863 0.0
C1911 C 0.67273 0.98726 0.94813 0.0
C1912 C 0.6909 0.01364 0.96106 0.0
C1913 C 0.71674 0.05362 0.95775 0.0
C1914 C 0.72529 0.0669 0.94165 0.0
C1915 C 0.68378 -0.00065 0.97807 0.0
C1916 C 0.66537 0.01314 0.9887 0.0
C1917 C 0.69452 0.9719 0.9837 0.0
C1918 C 0.7145 0.95677 0.97297 0.0
C1919 C 0.75039 0.98284 0.96528 0.0
C1920 C 0.76853 0.9684 0.95488 0.0
C1921 C 0.75123 0.9279 0.95217 0.0
C1922 C 0.71584 0.90175 0.95992 0.0
C1923 C 0.69754 0.91605 0.97032 0.0
H1924 H 0.76528 0.91678 0.94409 0.0
H1925 H 0.58057 0.05129 0.04312 0.0
H1926 H 0.72825 0.61641 0.54733 0.0
H1927 H 0.70694 0.61473 0.51917 0.0
H1928 H 0.6317 0.6598 0.53477 0.0
H1929 H 0.6517 0.66012 0.563 0.0
H1930 H 0.59681 0.60864 0.51111 0.0
H1931 H 0.72532 0.72099 0.51992 0.0
H1932 H 0.79538 0.7562 0.52809 0.0
H1933 H 0.82106 0.69304 0.49191 0.0
H1934 H 0.75098 0.65702 0.48368 0.0
H1935 H 0.61199 0.72519 0.44013 0.0
H1936 H 0.61303 0.69958 0.46729 0.0
H1937 H 0.65627 0.62728 0.44656 0.0
H1938 H 0.65459 0.65193 0.41938 0.0
H1939 H 0.70481 0.68553 0.47175 0.0
H1940 H 0.57378 0.57956 0.46107 0.0
H1941 H 0.50414 0.55066 0.45282 0.0
H1942 H 0.48371 0.60946 0.49259 0.0
H1943 H 0.55346 0.63929 0.50092 0.0
C1944 C 0.70687 0.62558 0.54477 0.0
C1945 C 0.69202 0.63888 0.55732 0.0
C1946 C 0.69473 0.62461 0.52869 0.0
C1947 C 0.66833 0.63787 0.52485 0.0
C1948 C 0.65212 0.64947 0.53746 0.0
C1949 C 0.66374 0.64982 0.55357 0.0
C1950 C 0.65986 0.64249 0.50765 0.0
C1951 C 0.62041 0.62559 0.50252 0.0
C1952 C 0.69068 0.66436 0.49641 0.0
C1953 C 0.73284 0.68596 0.50133 0.0
C1954 C 0.74585 0.71438 0.5138 0.0
C1955 C 0.78557 0.73451 0.51843 0.0
C1956 C 0.81263 0.72676 0.51056 0.0
C1957 C 0.80005 0.69893 0.49802 0.0
C1958 C 0.76034 0.67865 0.49337 0.0
C1959 C 0.62094 0.70324 0.44132 0.0
C1960 C 0.63351 0.6908 0.42766 0.0
C1961 C 0.62132 0.68854 0.45679 0.0
C1962 C 0.63469 0.66162 0.4588 0.0
C1963 C 0.64568 0.64792 0.44515 0.0
C1964 C 0.64467 0.66205 0.42966 0.0
C1965 C 0.64194 0.65174 0.47528 0.0
C1966 C 0.68126 0.668 0.48029 0.0
C1967 C 0.61103 0.63008 0.48643 0.0
C1968 C 0.56899 0.61197 0.48152 0.0
C1969 C 0.55456 0.58665 0.46797 0.0
C1970 C 0.51503 0.57003 0.46329 0.0
C1971 C 0.48954 0.5783 0.47215 0.0
C1972 C 0.5035 0.60312 0.48573 0.0
C1973 C 0.54303 0.61986 0.49044 0.0
H1974 H 0.45895 0.56541 0.46851 0.0
H1975 H 0.84338 0.7424 0.51416 0.0
H1976 H 0.89769 0.64708 0.93608 0.0
H1977 H 0.91723 0.65361 0.96476 0.0
H1978 H 0.03735 0.69275 0.95041 0.0
H1979 H 0.01803 0.68548 0.92182 0.0
H1980 H 0.01748 0.64307 0.97495 0.0
H1981 H 0.00983 0.75825 0.96307 0.0
H1982 H 0.9794 0.7963 0.95312 0.0
H1983 H 0.88751 0.74106 0.98889 0.0
H1984 H 0.91711 0.70223 -0.00108 0.0
H1985 H 0.11152 0.74276 0.04977 0.0
H1986 H 0.0899 0.72806 0.02129 0.0
H1987 H 0.96851 0.66422 0.03697 0.0
H1988 H 0.98971 0.67804 0.06542 0.0
H1989 H 0.98862 0.72534 0.01213 0.0
H1990 H 0.00188 0.61178 0.02422 0.0
H1991 H 0.03745 0.57844 0.03383 0.0
H1992 H 0.12588 0.63768 -0.00297 0.0
H1993 H 0.09112 0.67184 0.98735 0.0
C1994 C 0.92822 0.65694 0.93903 0.0
C1995 C 0.95629 0.66585 0.92665 0.0
C1996 C 0.93937 0.66078 0.95542 0.0
C1997 C 0.97885 0.67408 0.9597 0.0
C1998 C 0.00673 0.68237 0.94738 0.0
C1999 C -0.0044 0.67828 0.93103 0.0
C2000 C 0.99133 0.67999 0.97702 0.0
C2001 C 0.01149 0.66137 0.98303 0.0
C2002 C 0.9833 0.70367 0.98758 0.0
C2003 C 0.96544 0.72701 0.98163 0.0
C2004 C 0.98295 0.75397 0.96873 0.0
C2005 C 0.96589 0.77573 0.96309 0.0
C2006 C 0.93148 0.77101 0.97033 0.0
C2007 C 0.91413 0.74462 0.98327 0.0
C2008 C 0.93104 0.72275 0.98895 0.0
C2009 C 0.08026 0.72528 0.04715 0.0
C2010 C 0.05232 0.71155 0.05982 0.0
C2011 C 0.068 0.71688 0.03091 0.0
C2012 C 0.02767 0.69511 0.02713 0.0
C2013 C -0.00024 0.68106 0.03972 0.0
C2014 C 0.01198 0.68886 0.05595 0.0
C2015 C 0.01446 0.68827 0.00999 0.0
C2016 C 0.99434 0.70689 0.00402 0.0
C2017 C 0.02325 0.66529 -0.0006 0.0
C2018 C 0.04411 0.64468 0.00518 0.0
C2019 C 0.02911 0.61799 0.01828 0.0
C2020 C 0.04908 0.59888 0.02371 0.0
C2021 C 0.08397 0.60602 0.01607 0.0
C2022 C 0.09889 0.63222 0.00295 0.0
C2023 C 0.07904 0.65144 -0.00252 0.0
H2024 H 0.09938 0.59119 0.0203 0.0
H2025 H 0.91831 0.78788 0.96595 0.0
H2026 H 0.30118 0.99557 0.43146 0.0
H2027 H 0.31656 0.00943 0.46027 0.0
H2028 H 0.24951 0.88511 0.47108 0.0
H2029 H 0.23294 0.87092 0.4421 0.0
H2030 H 0.23357 0.92519 0.49253 0.0
H2031 H 0.35103 0.93523 0.47149 0.0
H2032 H 0.40709 0.95645 0.45264 0.0
H2033 H 0.45076 0.07708 0.46619 0.0
H2034 H 0.39449 0.0567 0.4849 0.0
H2035 H 0.30753 0.96159 0.57376 0.0
H2036 H 0.29959 0.93898 0.54552 0.0
H2037 H 0.33993 0.05727 0.52859 0.0
H2038 H 0.34761 0.08026 0.55685 0.0
H2039 H 0.3712 0.01358 0.51111 0.0
H2040 H 0.24741 0.00102 0.52976 0.0
H2041 H 0.1912 0.97781 0.54871 0.0
H2042 H 0.16097 0.85792 0.53999 0.0
H2043 H 0.21737 0.88049 0.52113 0.0
C2044 C 0.28974 0.97105 0.43992 0.0
C2045 C 0.26595 0.93208 0.43446 0.0
C2046 C 0.29879 0.97905 0.4564 0.0
C2047 C 0.28488 0.94827 0.4678 0.0
C2048 C 0.26075 0.9093 0.46246 0.0
C2049 C 0.25132 0.90124 0.44592 0.0
C2050 C 0.29473 0.9573 0.48531 0.0
C2051 C 0.26375 0.94384 0.49662 0.0
C2052 C 0.33411 0.98198 0.49064 0.0
C2053 C 0.36833 0.99442 0.47953 0.0
C2054 C 0.37242 0.96632 0.47038 0.0
C2055 C 0.40427 0.97819 0.45972 0.0
C2056 C 0.43246 0.01808 0.4582 0.0
C2057 C 0.42889 0.04618 0.46737 0.0
C2058 C 0.39703 0.03448 0.47802 0.0
C2059 C 0.31527 0.98298 0.56405 0.0
C2060 C 0.32795 0.02271 0.56753 0.0
C2061 C 0.31063 0.96994 0.54794 0.0
C2062 C 0.31894 -0.00355 0.53505 0.0
C2063 C 0.3334 0.03644 0.53843 0.0
C2064 C 0.33759 0.04946 0.55456 0.0
C2065 C 0.31003 0.98205 0.51808 0.0
C2066 C 0.34116 0.9945 0.50695 0.0
C2067 C 0.2709 0.95604 0.51294 0.0
C2068 C 0.23684 0.94246 0.52417 0.0
C2069 C 0.22898 0.96973 0.53199 0.0
C2070 C 0.19705 0.95669 0.5427 0.0
C2071 C 0.17259 0.91642 0.54559 0.0
C2072 C 0.17998 0.8891 0.53776 0.0
C2073 C 0.21189 0.902 0.52705 0.0
H2074 H 0.14782 0.90638 0.55384 0.0
H2075 H 0.45709 0.02721 0.44994 0.0
loop_
_geom_bond_atom_site_label_1
_geom_bond_atom_site_label_2
_geom_bond_distance
_geom_bond_site_symmetry_2
_ccdc_geom_bond_type
O0 Zn1 1.953 . S
O0 C16 1.225 . S
Zn1 O0 1.953 . S
Zn1 O2 1.949 . S
Zn1 O8 1.919 . S
Zn1 O13 1.924 . S
O2 Zn1 1.949 . S
O2 Zn3 1.923 . S
O2 Zn4 1.950 . S
O2 Zn5 1.945 . S
Zn3 O2 1.923 . S
Zn3 O6 1.933 . S
Zn3 O9 1.941 . S
Zn3 O10 1.965 . S
Zn4 O2 1.950 . S
Zn4 O11 1.938 . S
Zn4 O12 1.906 . S
Zn4 O22 1.953 . S
Zn5 O2 1.945 . S
Zn5 O7 1.932 . S
Zn5 O14 1.977 . S
Zn5 O15 1.910 . S
O6 Zn3 1.933 . S
O6 C17 1.226 . S
O7 Zn5 1.932 . S
O7 C17 1.307 . S
O8 Zn1 1.919 . S
O8 C19 1.253 . S
O9 Zn3 1.941 . S
O9 C19 1.283 . S
O10 Zn3 1.965 . S
O10 C18 1.303 . S
O11 Zn4 1.938 . S
O11 C18 1.247 . S
O12 Zn4 1.906 . S
O12 C20 1.304 . S
O13 Zn1 1.924 . S
O13 C21 1.311 . S
O14 Zn5 1.977 . S
O14 C20 1.272 . S
O15 Zn5 1.910 . S
O15 C21 1.231 . S
C16 O0 1.225 . S
C16 O22 1.298 . S
C17 O6 1.226 . S
C17 O7 1.307 . S
C18 O10 1.303 . S
C18 O11 1.247 . S
C19 O8 1.253 . S
C19 O9 1.283 . S
C20 O12 1.304 . S
C20 O14 1.272 . S
C21 O13 1.311 . S
C21 O15 1.231 . S
O22 Zn4 1.953 . S
O22 C16 1.298 . S
O23 Zn24 1.953 . S
O23 C39 1.225 . S
Zn24 O23 1.953 . S
Zn24 O25 1.949 . S
Zn24 O31 1.919 . S
Zn24 O36 1.924 . S
O25 Zn24 1.949 . S
O25 Zn26 1.923 . S
O25 Zn27 1.950 . S
O25 Zn28 1.945 . S
Zn26 O25 1.923 . S
Zn26 O29 1.933 . S
Zn26 O32 1.941 . S
Zn26 O33 1.965 . S
Zn27 O25 1.950 . S
Zn27 O34 1.938 . S
Zn27 O35 1.906 . S
Zn27 O45 1.953 . S
Zn28 O25 1.945 . S
Zn28 O30 1.932 . S
Zn28 O37 1.977 . S
Zn28 O38 1.910 . S
O29 Zn26 1.933 . S
O29 C40 1.226 . S
O30 Zn28 1.932 . S
O30 C40 1.307 . S
O31 Zn24 1.919 . S
O31 C42 1.253 . S
O32 Zn26 1.941 . S
O32 C42 1.283 . S
O33 Zn26 1.965 . S
O33 C41 1.303 . S
O34 Zn27 1.938 . S
O34 C41 1.247 . S
O35 Zn27 1.906 . S
O35 C43 1.304 . S
O36 Zn24 1.924 . S
O36 C44 1.311 . S
O37 Zn28 1.977 . S
O37 C43 1.272 . S
O38 Zn28 1.910 . S
O38 C44 1.231 . S
C39 O23 1.225 . S
C39 O45 1.298 . S
C40 O29 1.226 . S
C40 O30 1.307 . S
C41 O33 1.303 . S
C41 O34 1.247 . S
C42 O31 1.253 . S
C42 O32 1.283 . S
C43 O35 1.304 . S
C43 O37 1.272 . S
C44 O36 1.311 . S
C44 O38 1.231 . S
O45 Zn27 1.953 . S
O45 C39 1.298 . S
O46 Zn47 1.953 . S
O46 C62 1.225 . S
Zn47 O46 1.953 . S
Zn47 O48 1.949 . S
Zn47 O54 1.919 . S
Zn47 O59 1.924 . S
O48 Zn47 1.949 . S
O48 Zn49 1.923 . S
O48 Zn50 1.950 . S
O48 Zn51 1.945 . S
Zn49 O48 1.923 . S
Zn49 O52 1.933 . S
Zn49 O55 1.941 . S
Zn49 O56 1.965 . S
Zn50 O48 1.950 . S
Zn50 O57 1.938 . S
Zn50 O58 1.906 . S
Zn50 O68 1.953 . S
Zn51 O48 1.945 . S
Zn51 O53 1.932 . S
Zn51 O60 1.977 . S
Zn51 O61 1.910 . S
O52 Zn49 1.933 . S
O52 C63 1.226 . S
O53 Zn51 1.932 . S
O53 C63 1.307 . S
O54 Zn47 1.919 . S
O54 C65 1.253 . S
O55 Zn49 1.941 . S
O55 C65 1.283 . S
O56 Zn49 1.965 . S
O56 C64 1.303 . S
O57 Zn50 1.938 . S
O57 C64 1.247 . S
O58 Zn50 1.906 . S
O58 C66 1.304 . S
O59 Zn47 1.924 . S
O59 C67 1.311 . S
O60 Zn51 1.977 . S
O60 C66 1.272 . S
O61 Zn51 1.910 . S
O61 C67 1.231 . S
C62 O46 1.225 . S
C62 O68 1.298 . S
C63 O52 1.226 . S
C63 O53 1.307 . S
C64 O56 1.303 . S
C64 O57 1.247 . S
C65 O54 1.253 . S
C65 O55 1.283 . S
C66 O58 1.304 . S
C66 O60 1.272 . S
C67 O59 1.311 . S
C67 O61 1.231 . S
O68 Zn50 1.953 . S
O68 C62 1.298 . S
O69 Zn70 1.953 . S
O69 C85 1.225 . S
Zn70 O69 1.953 . S
Zn70 O71 1.949 . S
Zn70 O77 1.919 . S
Zn70 O82 1.924 . S
O71 Zn70 1.949 . S
O71 Zn72 1.923 . S
O71 Zn73 1.950 . S
O71 Zn74 1.945 . S
Zn72 O71 1.923 . S
Zn72 O75 1.933 . S
Zn72 O78 1.941 . S
Zn72 O79 1.965 . S
Zn73 O71 1.950 . S
Zn73 O80 1.938 . S
Zn73 O81 1.906 . S
Zn73 O91 1.953 . S
Zn74 O71 1.945 . S
Zn74 O76 1.932 . S
Zn74 O83 1.977 . S
Zn74 O84 1.910 . S
O75 Zn72 1.933 . S
O75 C86 1.226 . S
O76 Zn74 1.932 . S
O76 C86 1.307 . S
O77 Zn70 1.919 . S
O77 C88 1.253 . S
O78 Zn72 1.941 . S
O78 C88 1.283 . S
O79 Zn72 1.965 . S
O79 C87 1.303 . S
O80 Zn73 1.938 . S
O80 C87 1.247 . S
O81 Zn73 1.906 . S
O81 C89 1.304 . S
O82 Zn70 1.924 . S
O82 C90 1.311 . S
O83 Zn74 1.977 . S
O83 C89 1.272 . S
O84 Zn74 1.910 . S
O84 C90 1.231 . S
C85 O69 1.225 . S
C85 O91 1.298 . S
C86 O75 1.226 . S
C86 O76 1.307 . S
C87 O79 1.303 . S
C87 O80 1.247 . S
C88 O77 1.253 . S
C88 O78 1.283 . S
C89 O81 1.304 . S
C89 O83 1.272 . S
C90 O82 1.311 . S
C90 O84 1.231 . S
O91 Zn73 1.953 . S
O91 C85 1.298 . S
O92 Zn93 1.953 . S
O92 C108 1.225 . S
Zn93 O92 1.953 . S
Zn93 O94 1.949 . S
Zn93 O100 1.919 . S
Zn93 O105 1.924 . S
O94 Zn93 1.949 . S
O94 Zn95 1.923 . S
O94 Zn96 1.950 . S
O94 Zn97 1.945 . S
Zn95 O94 1.923 . S
Zn95 O98 1.933 . S
Zn95 O101 1.941 . S
Zn95 O102 1.965 . S
Zn96 O94 1.950 . S
Zn96 O103 1.938 . S
Zn96 O104 1.906 . S
Zn96 O114 1.953 . S
Zn97 O94 1.945 . S
Zn97 O99 1.932 . S
Zn97 O106 1.977 . S
Zn97 O107 1.910 . S
O98 Zn95 1.933 . S
O98 C109 1.226 . S
O99 Zn97 1.932 . S
O99 C109 1.307 . S
O100 Zn93 1.919 . S
O100 C111 1.253 . S
O101 Zn95 1.941 . S
O101 C111 1.283 . S
O102 Zn95 1.965 . S
O102 C110 1.303 . S
O103 Zn96 1.938 . S
O103 C110 1.247 . S
O104 Zn96 1.906 . S
O104 C112 1.304 . S
O105 Zn93 1.924 . S
O105 C113 1.311 . S
O106 Zn97 1.977 . S
O106 C112 1.272 . S
O107 Zn97 1.910 . S
O107 C113 1.231 . S
C108 O92 1.225 . S
C108 O114 1.298 . S
C109 O98 1.226 . S
C109 O99 1.307 . S
C110 O102 1.303 . S
C110 O103 1.247 . S
C111 O100 1.253 . S
C111 O101 1.283 . S
C112 O104 1.304 . S
C112 O106 1.272 . S
C113 O105 1.311 . S
C113 O107 1.231 . S
O114 Zn96 1.953 . S
O114 C108 1.298 . S
O115 Zn116 1.953 . S
O115 C131 1.225 . S
Zn116 O115 1.953 . S
Zn116 O117 1.949 . S
Zn116 O123 1.919 . S
Zn116 O128 1.924 . S
O117 Zn116 1.949 . S
O117 Zn118 1.923 . S
O117 Zn119 1.950 . S
O117 Zn120 1.945 . S
Zn118 O117 1.923 . S
Zn118 O121 1.933 . S
Zn118 O124 1.941 . S
Zn118 O125 1.965 . S
Zn119 O117 1.950 . S
Zn119 O126 1.938 . S
Zn119 O127 1.906 . S
Zn119 O137 1.953 . S
Zn120 O117 1.945 . S
Zn120 O122 1.932 . S
Zn120 O129 1.977 . S
Zn120 O130 1.910 . S
O121 Zn118 1.933 . S
O121 C132 1.226 . S
O122 Zn120 1.932 . S
O122 C132 1.307 . S
O123 Zn116 1.919 . S
O123 C134 1.253 . S
O124 Zn118 1.941 . S
O124 C134 1.283 . S
O125 Zn118 1.965 . S
O125 C133 1.303 . S
O126 Zn119 1.938 . S
O126 C133 1.247 . S
O127 Zn119 1.906 . S
O127 C135 1.304 . S
O128 Zn116 1.924 . S
O128 C136 1.311 . S
O129 Zn120 1.977 . S
O129 C135 1.272 . S
O130 Zn120 1.910 . S
O130 C136 1.231 . S
C131 O115 1.225 . S
C131 O137 1.298 . S
C132 O121 1.226 . S
C132 O122 1.307 . S
C133 O125 1.303 . S
C133 O126 1.247 . S
C134 O123 1.253 . S
C134 O124 1.283 . S
C135 O127 1.304 . S
C135 O129 1.272 . S
C136 O128 1.311 . S
C136 O130 1.231 . S
O137 Zn119 1.953 . S
O137 C131 1.298 . S
O138 Zn139 1.953 . S
O138 C154 1.225 . S
Zn139 O138 1.953 . S
Zn139 O140 1.949 . S
Zn139 O146 1.919 . S
Zn139 O151 1.924 . S
O140 Zn139 1.949 . S
O140 Zn141 1.923 . S
O140 Zn142 1.950 . S
O140 Zn143 1.945 . S
Zn141 O140 1.923 . S
Zn141 O144 1.933 . S
Zn141 O147 1.941 . S
Zn141 O148 1.965 . S
Zn142 O140 1.950 . S
Zn142 O149 1.938 . S
Zn142 O150 1.906 . S
Zn142 O160 1.953 . S
Zn143 O140 1.945 . S
Zn143 O145 1.932 . S
Zn143 O152 1.977 . S
Zn143 O153 1.910 . S
O144 Zn141 1.933 . S
O144 C155 1.226 . S
O145 Zn143 1.932 . S
O145 C155 1.307 . S
O146 Zn139 1.919 . S
O146 C157 1.253 . S
O147 Zn141 1.941 . S
O147 C157 1.283 . S
O148 Zn141 1.965 . S
O148 C156 1.303 . S
O149 Zn142 1.938 . S
O149 C156 1.247 . S
O150 Zn142 1.906 . S
O150 C158 1.304 . S
O151 Zn139 1.924 . S
O151 C159 1.311 . S
O152 Zn143 1.977 . S
O152 C158 1.272 . S
O153 Zn143 1.910 . S
O153 C159 1.231 . S
C154 O138 1.225 . S
C154 O160 1.298 . S
C155 O144 1.226 . S
C155 O145 1.307 . S
C156 O148 1.303 . S
C156 O149 1.247 . S
C157 O146 1.253 . S
C157 O147 1.283 . S
C158 O150 1.304 . S
C158 O152 1.272 . S
C159 O151 1.311 . S
C159 O153 1.231 . S
O160 Zn142 1.953 . S
O160 C154 1.298 . S
O161 Zn162 1.953 . S
O161 C177 1.225 . S
Zn162 O161 1.953 . S
Zn162 O163 1.949 . S
Zn162 O169 1.919 . S
Zn162 O174 1.924 . S
O163 Zn162 1.949 . S
O163 Zn164 1.923 . S
O163 Zn165 1.950 . S
O163 Zn166 1.945 . S
Zn164 O163 1.923 . S
Zn164 O167 1.933 . S
Zn164 O170 1.941 . S
Zn164 O171 1.965 . S
Zn165 O163 1.950 . S
Zn165 O172 1.938 . S
Zn165 O173 1.906 . S
Zn165 O183 1.953 . S
Zn166 O163 1.945 . S
Zn166 O168 1.932 . S
Zn166 O175 1.977 . S
Zn166 O176 1.910 . S
O167 Zn164 1.933 . S
O167 C178 1.226 . S
O168 Zn166 1.932 . S
O168 C178 1.307 . S
O169 Zn162 1.919 . S
O169 C180 1.253 . S
O170 Zn164 1.941 . S
O170 C180 1.283 . S
O171 Zn164 1.965 . S
O171 C179 1.303 . S
O172 Zn165 1.938 . S
O172 C179 1.247 . S
O173 Zn165 1.906 . S
O173 C181 1.304 . S
O174 Zn162 1.924 . S
O174 C182 1.311 . S
O175 Zn166 1.977 . S
O175 C181 1.272 . S
O176 Zn166 1.910 . S
O176 C182 1.231 . S
C177 O161 1.225 . S
C177 O183 1.298 . S
C178 O167 1.226 . S
C178 O168 1.307 . S
C179 O171 1.303 . S
C179 O172 1.247 . S
C180 O169 1.253 . S
C180 O170 1.283 . S
C181 O173 1.304 . S
C181 O175 1.272 . S
C182 O174 1.311 . S
C182 O176 1.231 . S
O183 Zn165 1.953 . S
O183 C177 1.298 . S
O184 Zn185 1.953 . S
O184 C200 1.225 . S
Zn185 O184 1.953 . S
Zn185 O186 1.949 . S
Zn185 O192 1.919 . S
Zn185 O197 1.924 . S
O186 Zn185 1.949 . S
O186 Zn187 1.923 . S
O186 Zn188 1.950 . S
O186 Zn189 1.945 . S
Zn187 O186 1.923 . S
Zn187 O190 1.933 . S
Zn187 O193 1.941 . S
Zn187 O194 1.965 . S
Zn188 O186 1.950 . S
Zn188 O195 1.938 . S
Zn188 O196 1.906 . S
Zn188 O206 1.953 . S
Zn189 O186 1.945 . S
Zn189 O191 1.932 . S
Zn189 O198 1.977 . S
Zn189 O199 1.910 . S
O190 Zn187 1.933 . S
O190 C201 1.226 . S
O191 Zn189 1.932 . S
O191 C201 1.307 . S
O192 Zn185 1.919 . S
O192 C203 1.253 . S
O193 Zn187 1.941 . S
O193 C203 1.283 . S
O194 Zn187 1.965 . S
O194 C202 1.303 . S
O195 Zn188 1.938 . S
O195 C202 1.247 . S
O196 Zn188 1.906 . S
O196 C204 1.304 . S
O197 Zn185 1.924 . S
O197 C205 1.311 . S
O198 Zn189 1.977 . S
O198 C204 1.272 . S
O199 Zn189 1.910 . S
O199 C205 1.231 . S
C200 O184 1.225 . S
C200 O206 1.298 . S
C201 O190 1.226 . S
C201 O191 1.307 . S
C202 O194 1.303 . S
C202 O195 1.247 . S
C203 O192 1.253 . S
C203 O193 1.283 . S
C204 O196 1.304 . S
C204 O198 1.272 . S
C205 O197 1.311 . S
C205 O199 1.231 . S
O206 Zn188 1.953 . S
O206 C200 1.298 . S
O207 Zn208 1.953 . S
O207 C223 1.225 . S
Zn208 O207 1.953 . S
Zn208 O209 1.949 . S
Zn208 O215 1.919 . S
Zn208 O220 1.924 . S
O209 Zn208 1.949 . S
O209 Zn210 1.923 . S
O209 Zn211 1.950 . S
O209 Zn212 1.945 . S
Zn210 O209 1.923 . S
Zn210 O213 1.933 . S
Zn210 O216 1.941 . S
Zn210 O217 1.965 . S
Zn211 O209 1.950 . S
Zn211 O218 1.938 . S
Zn211 O219 1.906 . S
Zn211 O229 1.953 . S
Zn212 O209 1.945 . S
Zn212 O214 1.932 . S
Zn212 O221 1.977 . S
Zn212 O222 1.910 . S
O213 Zn210 1.933 . S
O213 C224 1.226 . S
O214 Zn212 1.932 . S
O214 C224 1.307 . S
O215 Zn208 1.919 . S
O215 C226 1.253 . S
O216 Zn210 1.941 . S
O216 C226 1.283 . S
O217 Zn210 1.965 . S
O217 C225 1.303 . S
O218 Zn211 1.938 . S
O218 C225 1.247 . S
O219 Zn211 1.906 . S
O219 C227 1.304 . S
O220 Zn208 1.924 . S
O220 C228 1.311 . S
O221 Zn212 1.977 . S
O221 C227 1.272 . S
O222 Zn212 1.910 . S
O222 C228 1.231 . S
C223 O207 1.225 . S
C223 O229 1.298 . S
C224 O213 1.226 . S
C224 O214 1.307 . S
C225 O217 1.303 . S
C225 O218 1.247 . S
C226 O215 1.253 . S
C226 O216 1.283 . S
C227 O219 1.304 . S
C227 O221 1.272 . S
C228 O220 1.311 . S
C228 O222 1.231 . S
O229 Zn211 1.953 . S
O229 C223 1.298 . S
O230 Zn231 1.953 . S
O230 C246 1.225 . S
Zn231 O230 1.953 . S
Zn231 O232 1.949 . S
Zn231 O238 1.919 . S
Zn231 O243 1.924 . S
O232 Zn231 1.949 . S
O232 Zn233 1.923 . S
O232 Zn234 1.950 . S
O232 Zn235 1.945 . S
Zn233 O232 1.923 . S
Zn233 O236 1.933 . S
Zn233 O239 1.941 . S
Zn233 O240 1.965 . S
Zn234 O232 1.950 . S
Zn234 O241 1.938 . S
Zn234 O242 1.906 . S
Zn234 O252 1.953 . S
Zn235 O232 1.945 . S
Zn235 O237 1.932 . S
Zn235 O244 1.977 . S
Zn235 O245 1.910 . S
O236 Zn233 1.933 . S
O236 C247 1.226 . S
O237 Zn235 1.932 . S
O237 C247 1.307 . S
O238 Zn231 1.919 . S
O238 C249 1.253 . S
O239 Zn233 1.941 . S
O239 C249 1.283 . S
O240 Zn233 1.965 . S
O240 C248 1.303 . S
O241 Zn234 1.938 . S
O241 C248 1.247 . S
O242 Zn234 1.906 . S
O242 C250 1.304 . S
O243 Zn231 1.924 . S
O243 C251 1.311 . S
O244 Zn235 1.977 . S
O244 C250 1.272 . S
O245 Zn235 1.910 . S
O245 C251 1.231 . S
C246 O230 1.225 . S
C246 O252 1.298 . S
C247 O236 1.226 . S
C247 O237 1.307 . S
C248 O240 1.303 . S
C248 O241 1.247 . S
C249 O238 1.253 . S
C249 O239 1.283 . S
C250 O242 1.304 . S
C250 O244 1.272 . S
C251 O243 1.311 . S
C251 O245 1.231 . S
O252 Zn234 1.953 . S
O252 C246 1.298 . S
O253 Zn254 1.953 . S
O253 C269 1.225 . S
Zn254 O253 1.953 . S
Zn254 O255 1.949 . S
Zn254 O261 1.919 . S
Zn254 O266 1.924 . S
O255 Zn254 1.949 . S
O255 Zn256 1.923 . S
O255 Zn257 1.950 . S
O255 Zn258 1.945 . S
Zn256 O255 1.923 . S
Zn256 O259 1.933 . S
Zn256 O262 1.941 . S
Zn256 O263 1.965 . S
Zn257 O255 1.950 . S
Zn257 O264 1.938 . S
Zn257 O265 1.906 . S
Zn257 O275 1.953 . S
Zn258 O255 1.945 . S
Zn258 O260 1.932 . S
Zn258 O267 1.977 . S
Zn258 O268 1.910 . S
O259 Zn256 1.933 . S
O259 C270 1.226 . S
O260 Zn258 1.932 . S
O260 C270 1.307 . S
O261 Zn254 1.919 . S
O261 C272 1.253 . S
O262 Zn256 1.941 . S
O262 C272 1.283 . S
O263 Zn256 1.965 . S
O263 C271 1.303 . S
O264 Zn257 1.938 . S
O264 C271 1.247 . S
O265 Zn257 1.906 . S
O265 C273 1.304 . S
O266 Zn254 1.924 . S
O266 C274 1.311 . S
O267 Zn258 1.977 . S
O267 C273 1.272 . S
O268 Zn258 1.910 . S
O268 C274 1.231 . S
C269 O253 1.225 . S
C269 O275 1.298 . S
C270 O259 1.226 . S
C270 O260 1.307 . S
C271 O263 1.303 . S
C271 O264 1.247 . S
C272 O261 1.253 . S
C272 O262 1.283 . S
C273 O265 1.304 . S
C273 O267 1.272 . S
C274 O266 1.311 . S
C274 O268 1.231 . S
O275 Zn257 1.953 . S
O275 C269 1.298 . S
H276 C294 0.951 . S
H277 C296 0.951 . S
H278 C298 0.950 1_545 S
H279 C299 0.950 . S
H280 C301 0.950 . S
H281 C304 0.951 1_545 S
H282 C305 0.950 . S
H283 C307 0.950 . S
H284 C308 0.950 . S
H285 C309 0.951 . S
H286 C311 0.951 . S
H287 C313 0.950 . S
H288 C314 0.950 . S
H289 C316 0.950 . S
H290 C319 0.950 . S
H291 C320 0.950 . S
H292 C322 0.950 . S
H293 C323 0.950 . S
C294 H276 0.951 . S
C294 C295 1.366 . S
C294 C296 1.388 . S
C295 C294 1.366 . S
C295 C299 1.385 . S
C296 H277 0.951 . S
C296 C294 1.388 . S
C296 C297 1.371 . S
C297 C296 1.371 . S
C297 C298 1.421 . S
C297 C300 1.486 1_565 S
C298 H278 0.950 1_565 S
C298 C297 1.421 . S
C298 C299 1.374 . S
C299 H279 0.950 . S
C299 C295 1.385 . S
C299 C298 1.374 . S
C300 C297 1.486 1_545 S
C300 C301 1.373 . S
C300 C302 1.389 . S
C301 H280 0.950 . S
C301 C300 1.373 . S
C301 C317 1.377 . S
C302 C300 1.389 . S
C302 C303 1.524 . S
C302 C316 1.377 . S
C303 C302 1.524 . S
C303 C304 1.394 1_545 S
C303 C308 1.363 . S
C304 H281 0.951 1_565 S
C304 C303 1.394 1_565 S
C304 C305 1.335 . S
C305 H282 0.950 . S
C305 C304 1.335 . S
C305 C306 1.287 . S
C306 C305 1.287 . S
C306 C307 1.524 . S
C306 H325 0.913 . S
C307 H283 0.950 . S
C307 C306 1.524 . S
C307 C308 1.415 1_565 S
C308 H284 0.950 . S
C308 C303 1.363 . S
C308 C307 1.415 1_545 S
C309 H285 0.951 . S
C309 C310 1.366 . S
C309 C311 1.388 . S
C310 C309 1.366 . S
C310 C314 1.385 . S
C311 H286 0.951 . S
C311 C309 1.388 . S
C311 C312 1.366 . S
C312 C311 1.366 . S
C312 C313 1.414 . S
C312 C315 1.499 . S
C313 H287 0.950 . S
C313 C312 1.414 . S
C313 C314 1.374 . S
C314 H288 0.950 . S
C314 C310 1.385 . S
C314 C313 1.374 . S
C315 C312 1.499 . S
C315 C316 1.373 . S
C315 C317 1.389 . S
C316 H289 0.950 . S
C316 C302 1.377 . S
C316 C315 1.373 . S
C317 C301 1.377 . S
C317 C315 1.389 . S
C317 C318 1.524 . S
C318 C317 1.524 . S
C318 C319 1.397 . S
C318 C323 1.363 . S
C319 H290 0.950 . S
C319 C318 1.397 . S
C319 C320 1.334 . S
C320 H291 0.950 . S
C320 C319 1.334 . S
C320 C321 1.287 . S
C321 C320 1.287 . S
C321 C322 1.524 . S
C321 H324 0.999 . S
C322 H292 0.950 . S
C322 C321 1.524 . S
C322 C323 1.415 . S
C323 H293 0.950 . S
C323 C318 1.363 . S
C323 C322 1.415 . S
H324 C321 0.999 . S
H325 C306 0.913 . S
H326 C344 0.951 . S
H327 C346 0.951 . S
H328 C348 0.950 . S
H329 C349 0.950 . S
H330 C351 0.950 . S
H331 C354 0.950 . S
H332 C355 0.950 . S
H333 C357 0.950 . S
H334 C358 0.950 . S
H335 C359 0.951 . S
H336 C361 0.951 . S
H337 C363 0.950 . S
H338 C364 0.950 . S
H339 C366 0.950 . S
H340 C369 0.950 . S
H341 C370 0.950 . S
H342 C372 0.950 . S
H343 C373 0.950 . S
C344 H326 0.951 . S
C344 C345 1.366 . S
C344 C346 1.388 . S
C345 C344 1.366 . S
C345 C349 1.385 . S
C346 H327 0.951 . S
C346 C344 1.388 . S
C346 C347 1.366 . S
C347 C346 1.366 . S
C347 C348 1.414 . S
C347 C350 1.499 . S
C348 H328 0.950 . S
C348 C347 1.414 . S
C348 C349 1.374 . S
C349 H329 0.950 . S
C349 C345 1.385 . S
C349 C348 1.374 . S
C350 C347 1.499 . S
C350 C351 1.373 . S
C350 C352 1.389 . S
C351 H330 0.950 . S
C351 C350 1.373 . S
C351 C367 1.377 . S
C352 C350 1.389 . S
C352 C353 1.524 . S
C352 C366 1.377 . S
C353 C352 1.524 . S
C353 C354 1.397 . S
C353 C358 1.363 . S
C354 H331 0.950 . S
C354 C353 1.397 . S
C354 C355 1.334 . S
C355 H332 0.950 . S
C355 C354 1.334 . S
C355 C356 1.287 . S
C356 C355 1.287 . S
C356 C357 1.524 . S
C356 H375 0.913 . S
C357 H333 0.950 . S
C357 C356 1.524 . S
C357 C358 1.415 . S
C358 H334 0.950 . S
C358 C353 1.363 . S
C358 C357 1.415 . S
C359 H335 0.951 . S
C359 C360 1.366 . S
C359 C361 1.388 1_655 S
C360 C359 1.366 . S
C360 C364 1.385 1_655 S
C361 H336 0.951 . S
C361 C359 1.388 1_455 S
C361 C362 1.366 . S
C362 C361 1.366 . S
C362 C363 1.414 . S
C362 C365 1.499 . S
C363 H337 0.950 . S
C363 C362 1.414 . S
C363 C364 1.374 . S
C364 H338 0.950 . S
C364 C360 1.385 1_455 S
C364 C363 1.374 . S
C365 C362 1.499 . S
C365 C366 1.373 . S
C365 C367 1.389 . S
C366 H339 0.950 . S
C366 C352 1.377 . S
C366 C365 1.373 . S
C367 C351 1.377 . S
C367 C365 1.389 . S
C367 C368 1.524 . S
C368 C367 1.524 . S
C368 C369 1.397 . S
C368 C373 1.363 . S
C369 H340 0.950 . S
C369 C368 1.397 . S
C369 C370 1.334 . S
C370 H341 0.950 . S
C370 C369 1.334 . S
C370 C371 1.287 . S
C371 C370 1.287 . S
C371 C372 1.524 . S
C371 H374 0.999 . S
C372 H342 0.950 . S
C372 C371 1.524 . S
C372 C373 1.415 . S
C373 H343 0.950 . S
C373 C368 1.363 . S
C373 C372 1.415 . S
H374 C371 0.999 . S
H375 C356 0.913 . S
H376 C394 0.951 . S
H377 C396 0.951 . S
H378 C398 0.950 . S
H379 C399 0.950 . S
H380 C401 0.950 . S
H381 C404 0.950 . S
H382 C405 0.950 . S
H383 C407 0.950 . S
H384 C408 0.950 . S
H385 C409 0.951 . S
H386 C411 0.951 1_655 S
H387 C413 0.950 . S
H388 C414 0.950 . S
H389 C416 0.950 . S
H390 C419 0.950 . S
H391 C420 0.950 . S
H392 C422 0.950 . S
H393 C423 0.950 . S
C394 H376 0.951 . S
C394 C395 1.366 . S
C394 C396 1.388 1_565 S
C395 C394 1.366 . S
C395 C399 1.385 1_565 S
C396 H377 0.951 . S
C396 C394 1.388 1_545 S
C396 C397 1.366 . S
C397 C396 1.366 . S
C397 C398 1.414 . S
C397 C400 1.499 . S
C398 H378 0.950 . S
C398 C397 1.414 . S
C398 C399 1.374 . S
C399 H379 0.950 . S
C399 C395 1.385 1_545 S
C399 C398 1.374 . S
C400 C397 1.499 . S
C400 C401 1.373 . S
C400 C402 1.389 . S
C401 H380 0.950 . S
C401 C400 1.373 . S
C401 C417 1.377 . S
C402 C400 1.389 . S
C402 C403 1.524 . S
C402 C416 1.377 . S
C403 C402 1.524 . S
C403 C404 1.397 . S
C403 C408 1.363 . S
C404 H381 0.950 . S
C404 C403 1.397 . S
C404 C405 1.334 . S
C405 H382 0.950 . S
C405 C404 1.334 . S
C405 C406 1.287 . S
C406 C405 1.287 . S
C406 C407 1.524 . S
C406 H425 0.913 . S
C407 H383 0.950 . S
C407 C406 1.524 . S
C407 C408 1.415 . S
C408 H384 0.950 . S
C408 C403 1.363 . S
C408 C407 1.415 . S
C409 H385 0.951 . S
C409 C410 1.366 . S
C409 C411 1.388 . S
C410 C409 1.366 . S
C410 C414 1.385 . S
C411 H386 0.951 1_455 S
C411 C409 1.388 . S
C411 C412 1.366 . S
C412 C411 1.366 . S
C412 C413 1.414 . S
C412 C415 1.499 1_455 S
C413 H387 0.950 . S
C413 C412 1.414 . S
C413 C414 1.374 . S
C414 H388 0.950 . S
C414 C410 1.385 . S
C414 C413 1.374 . S
C415 C412 1.499 1_655 S
C415 C416 1.373 . S
C415 C417 1.389 . S
C416 H389 0.950 . S
C416 C402 1.377 . S
C416 C415 1.373 . S
C417 C401 1.377 . S
C417 C415 1.389 . S
C417 C418 1.524 . S
C418 C417 1.524 . S
C418 C419 1.397 . S
C418 C423 1.363 . S
C419 H390 0.950 . S
C419 C418 1.397 . S
C419 C420 1.334 . S
C420 H391 0.950 . S
C420 C419 1.334 . S
C420 C421 1.287 . S
C421 C420 1.287 . S
C421 C422 1.524 . S
C421 H424 0.999 . S
C422 H392 0.950 . S
C422 C421 1.524 . S
C422 C423 1.415 . S
C423 H393 0.950 . S
C423 C418 1.363 . S
C423 C422 1.415 . S
H424 C421 0.999 . S
H425 C406 0.913 . S
H426 C444 0.951 . S
H427 C446 0.951 . S
H428 C448 0.950 . S
H429 C449 0.950 . S
H430 C451 0.950 . S
H431 C454 0.950 . S
H432 C455 0.950 . S
H433 C457 0.950 . S
H434 C458 0.950 . S
H435 C459 0.951 . S
H436 C461 0.951 . S
H437 C463 0.950 1_565 S
H438 C464 0.950 . S
H439 C466 0.950 . S
H440 C469 0.950 . S
H441 C470 0.950 . S
H442 C472 0.950 . S
H443 C473 0.950 . S
C444 H426 0.951 . S
C444 C445 1.366 . S
C444 C446 1.388 . S
C445 C444 1.366 . S
C445 C449 1.385 . S
C446 H427 0.951 . S
C446 C444 1.388 . S
C446 C447 1.366 . S
C447 C446 1.366 . S
C447 C448 1.414 . S
C447 C450 1.499 . S
C448 H428 0.950 . S
C448 C447 1.414 . S
C448 C449 1.374 . S
C449 H429 0.950 . S
C449 C445 1.385 . S
C449 C448 1.374 . S
C450 C447 1.499 . S
C450 C451 1.373 . S
C450 C452 1.389 . S
C451 H430 0.950 . S
C451 C450 1.373 . S
C451 C467 1.377 . S
C452 C450 1.389 . S
C452 C453 1.524 . S
C452 C466 1.377 . S
C453 C452 1.524 . S
C453 C454 1.397 . S
C453 C458 1.363 . S
C454 H431 0.950 . S
C454 C453 1.397 . S
C454 C455 1.334 . S
C455 H432 0.950 . S
C455 C454 1.334 . S
C455 C456 1.287 . S
C456 C455 1.287 . S
C456 C457 1.524 . S
C456 H475 0.913 . S
C457 H433 0.950 . S
C457 C456 1.524 . S
C457 C458 1.415 . S
C458 H434 0.950 . S
C458 C453 1.363 . S
C458 C457 1.415 . S
C459 H435 0.951 . S
C459 C460 1.366 . S
C459 C461 1.388 . S
C460 C459 1.366 . S
C460 C464 1.385 . S
C461 H436 0.951 . S
C461 C459 1.388 . S
C461 C462 1.356 1_545 S
C462 C461 1.356 1_565 S
C462 C463 1.405 1_565 S
C462 C465 1.517 . S
C463 H437 0.950 1_545 S
C463 C462 1.405 1_545 S
C463 C464 1.374 . S
C464 H438 0.950 . S
C464 C460 1.385 . S
C464 C463 1.374 . S
C465 C462 1.517 . S
C465 C466 1.373 . S
C465 C467 1.389 . S
C466 H439 0.950 . S
C466 C452 1.377 . S
C466 C465 1.373 . S
C467 C451 1.377 . S
C467 C465 1.389 . S
C467 C468 1.524 . S
C468 C467 1.524 . S
C468 C469 1.397 . S
C468 C473 1.363 . S
C469 H440 0.950 . S
C469 C468 1.397 . S
C469 C470 1.334 . S
C470 H441 0.950 . S
C470 C469 1.334 . S
C470 C471 1.287 . S
C471 C470 1.287 . S
C471 C472 1.524 . S
C471 H474 0.999 . S
C472 H442 0.950 . S
C472 C471 1.524 . S
C472 C473 1.415 . S
C473 H443 0.950 . S
C473 C468 1.363 . S
C473 C472 1.415 . S
H474 C471 0.999 . S
H475 C456 0.913 . S
H476 C494 0.951 1_455 S
H477 C496 0.951 . S
H478 C498 0.950 . S
H479 C499 0.967 . S
H480 C501 0.950 . S
H481 C504 0.950 . S
H482 C505 0.950 . S
H483 C507 0.950 . S
H484 C508 0.950 . S
H485 C509 0.951 . S
H486 C511 0.951 . S
H487 C513 0.950 . S
H488 C514 0.950 . S
H489 C516 0.950 . S
H490 C519 0.950 . S
H491 C520 0.950 . S
H492 C522 0.950 . S
H493 C523 0.950 . S
C494 H476 0.951 1_655 S
C494 C495 1.366 1_655 S
C494 C496 1.388 . S
C495 C494 1.366 1_455 S
C495 C499 1.385 1_455 S
C496 H477 0.951 . S
C496 C494 1.388 . S
C496 C497 1.366 . S
C497 C496 1.366 . S
C497 C498 1.414 . S
C497 C500 1.499 . S
C498 H478 0.950 . S
C498 C497 1.414 . S
C498 C499 1.374 . S
C499 H479 0.967 . S
C499 C495 1.385 1_655 S
C499 C498 1.374 . S
C500 C497 1.499 . S
C500 C501 1.373 . S
C500 C502 1.389 . S
C501 H480 0.950 . S
C501 C500 1.373 . S
C501 C517 1.377 . S
C502 C500 1.389 . S
C502 C503 1.524 . S
C502 C516 1.377 . S
C503 C502 1.524 . S
C503 C504 1.397 . S
C503 C508 1.363 . S
C504 H481 0.950 . S
C504 C503 1.397 . S
C504 C505 1.334 . S
C505 H482 0.950 . S
C505 C504 1.334 . S
C505 C506 1.287 . S
C506 C505 1.287 . S
C506 C507 1.524 . S
C506 H525 0.913 . S
C507 H483 0.950 . S
C507 C506 1.524 . S
C507 C508 1.415 . S
C508 H484 0.950 . S
C508 C503 1.363 . S
C508 C507 1.415 . S
C509 H485 0.951 . S
C509 C510 1.366 . S
C509 C511 1.388 . S
C510 C509 1.366 . S
C510 C514 1.385 . S
C511 H486 0.951 . S
C511 C509 1.388 . S
C511 C512 1.366 . S
C512 C511 1.366 . S
C512 C513 1.414 . S
C512 C515 1.499 . S
C513 H487 0.950 . S
C513 C512 1.414 . S
C513 C514 1.374 . S
C514 H488 0.950 . S
C514 C510 1.385 . S
C514 C513 1.374 . S
C515 C512 1.499 . S
C515 C516 1.373 . S
C515 C517 1.389 . S
C516 H489 0.950 . S
C516 C502 1.377 . S
C516 C515 1.373 . S
C517 C501 1.377 . S
C517 C515 1.389 . S
C517 C518 1.524 . S
C518 C517 1.524 . S
C518 C519 1.397 . S
C518 C523 1.363 . S
C519 H490 0.950 . S
C519 C518 1.397 . S
C519 C520 1.334 . S
C520 H491 0.950 . S
C520 C519 1.334 . S
C520 C521 1.287 . S
C521 C520 1.287 . S
C521 C522 1.524 . S
C521 H524 0.999 . S
C522 H492 0.950 . S
C522 C521 1.524 . S
C522 C523 1.415 . S
C523 H493 0.950 . S
C523 C518 1.363 . S
C523 C522 1.415 . S
H524 C521 0.999 . S
H525 C506 0.913 . S
H526 C544 0.951 . S
H527 C546 0.951 1_455 S
H528 C548 0.950 . S
H529 C549 0.950 . S
H530 C551 0.950 . S
H531 C554 0.950 . S
H532 C555 0.950 . S
H533 C557 0.950 . S
H534 C558 0.950 . S
H535 C559 0.951 . S
H536 C561 0.951 . S
H537 C563 0.950 . S
H538 C564 0.950 . S
H539 C566 0.950 . S
H540 C569 0.950 . S
H541 C570 0.950 . S
H542 C572 0.950 . S
H543 C573 0.950 . S
C544 H526 0.951 . S
C544 C545 1.366 . S
C544 C546 1.388 . S
C545 C544 1.366 . S
C545 C549 1.385 . S
C546 H527 0.951 1_655 S
C546 C544 1.388 . S
C546 C547 1.367 1_655 S
C547 C546 1.367 1_455 S
C547 C548 1.410 1_455 S
C547 C550 1.502 . S
C548 H528 0.950 . S
C548 C547 1.410 1_655 S
C548 C549 1.374 . S
C549 H529 0.950 . S
C549 C545 1.385 . S
C549 C548 1.374 . S
C550 C547 1.502 . S
C550 C551 1.373 . S
C550 C552 1.389 . S
C551 H530 0.950 . S
C551 C550 1.373 . S
C551 C567 1.377 . S
C552 C550 1.389 . S
C552 C553 1.524 . S
C552 C566 1.377 . S
C553 C552 1.524 . S
C553 C554 1.397 . S
C553 C558 1.363 . S
C554 H531 0.950 . S
C554 C553 1.397 . S
C554 C555 1.334 . S
C555 H532 0.950 . S
C555 C554 1.334 . S
C555 C556 1.287 . S
C556 C555 1.287 . S
C556 C557 1.524 . S
C556 H575 0.913 . S
C557 H533 0.950 . S
C557 C556 1.524 . S
C557 C558 1.415 . S
C558 H534 0.950 . S
C558 C553 1.363 . S
C558 C557 1.415 . S
C559 H535 0.951 . S
C559 C560 1.366 . S
C559 C561 1.388 1_545 S
C560 C559 1.366 . S
C560 C564 1.385 1_545 S
C561 H536 0.951 . S
C561 C559 1.388 1_565 S
C561 C562 1.366 . S
C562 C561 1.366 . S
C562 C563 1.414 . S
C562 C565 1.499 . S
C563 H537 0.950 . S
C563 C562 1.414 . S
C563 C564 1.374 . S
C564 H538 0.950 . S
C564 C560 1.385 1_565 S
C564 C563 1.374 . S
C565 C562 1.499 . S
C565 C566 1.373 . S
C565 C567 1.389 . S
C566 H539 0.950 . S
C566 C552 1.377 . S
C566 C565 1.373 . S
C567 C551 1.377 . S
C567 C565 1.389 . S
C567 C568 1.524 . S
C568 C567 1.524 . S
C568 C569 1.397 . S
C568 C573 1.363 . S
C569 H540 0.950 . S
C569 C568 1.397 . S
C569 C570 1.334 1_565 S
C570 H541 0.950 . S
C570 C569 1.334 1_545 S
C570 C571 1.287 . S
C571 C570 1.287 . S
C571 C572 1.524 . S
C571 H574 0.999 . S
C572 H542 0.950 . S
C572 C571 1.524 . S
C572 C573 1.415 1_545 S
C573 H543 0.950 . S
C573 C568 1.363 . S
C573 C572 1.415 1_565 S
H574 C571 0.999 . S
H575 C556 0.913 . S
H576 C594 0.951 . S
H577 C596 0.951 1_655 S
H578 C598 0.950 . S
H579 C599 0.950 . S
H580 C601 0.950 . S
H581 C604 0.949 1_455 S
H582 C605 0.950 . S
H583 C607 0.950 . S
H584 C608 0.950 . S
H585 C609 0.951 . S
H586 C611 0.951 . S
H587 C613 0.950 . S
H588 C614 0.950 . S
H589 C616 0.950 . S
H590 C619 0.950 . S
H591 C620 0.950 . S
H592 C622 0.950 . S
H593 C623 0.950 . S
C594 H576 0.951 . S
C594 C595 1.366 . S
C594 C596 1.388 . S
C595 C594 1.366 . S
C595 C599 1.385 . S
C596 H577 0.951 1_455 S
C596 C594 1.388 . S
C596 C597 1.383 . S
C597 C596 1.383 . S
C597 C598 1.424 . S
C597 C600 1.472 1_455 S
C598 H578 0.950 . S
C598 C597 1.424 . S
C598 C599 1.374 . S
C599 H579 0.950 . S
C599 C595 1.385 . S
C599 C598 1.374 . S
C600 C597 1.472 1_655 S
C600 C601 1.373 . S
C600 C602 1.389 . S
C601 H580 0.950 . S
C601 C600 1.373 . S
C601 C617 1.377 . S
C602 C600 1.389 . S
C602 C603 1.524 . S
C602 C616 1.377 . S
C603 C602 1.524 . S
C603 C604 1.405 . S
C603 C608 1.363 . S
C604 H581 0.949 1_655 S
C604 C603 1.405 . S
C604 C605 1.326 1_655 S
C605 H582 0.950 . S
C605 C604 1.326 1_455 S
C605 C606 1.287 . S
C606 C605 1.287 . S
C606 C607 1.524 1_455 S
C606 H625 0.913 . S
C607 H583 0.950 . S
C607 C606 1.524 1_655 S
C607 C608 1.415 . S
C608 H584 0.950 . S
C608 C603 1.363 . S
C608 C607 1.415 . S
C609 H585 0.951 . S
C609 C610 1.366 . S
C609 C611 1.388 . S
C610 C609 1.366 . S
C610 C614 1.385 . S
C611 H586 0.951 . S
C611 C609 1.388 . S
C611 C612 1.366 . S
C612 C611 1.366 . S
C612 C613 1.414 . S
C612 C615 1.499 . S
C613 H587 0.950 . S
C613 C612 1.414 . S
C613 C614 1.374 . S
C614 H588 0.950 . S
C614 C610 1.385 . S
C614 C613 1.374 . S
C615 C612 1.499 . S
C615 C616 1.373 . S
C615 C617 1.389 . S
C616 H589 0.950 . S
C616 C602 1.377 . S
C616 C615 1.373 . S
C617 C601 1.377 . S
C617 C615 1.389 . S
C617 C618 1.524 . S
C618 C617 1.524 . S
C618 C619 1.397 . S
C618 C623 1.363 . S
C619 H590 0.950 . S
C619 C618 1.397 . S
C619 C620 1.334 . S
C620 H591 0.950 . S
C620 C619 1.334 . S
C620 C621 1.287 . S
C621 C620 1.287 . S
C621 C622 1.524 . S
C621 H624 0.999 . S
C622 H592 0.950 . S
C622 C621 1.524 . S
C622 C623 1.415 . S
C623 H593 0.950 . S
C623 C618 1.363 . S
C623 C622 1.415 . S
H624 C621 0.999 . S
H625 C606 0.913 . S
H626 C644 0.951 . S
H627 C646 0.951 . S
H628 C648 0.950 . S
H629 C649 0.950 . S
H630 C651 0.950 . S
H631 C654 0.950 . S
H632 C655 0.950 . S
H633 C657 0.950 . S
H634 C658 0.950 . S
H635 C659 0.951 . S
H636 C661 0.951 . S
H637 C663 0.950 1_565 S
H638 C664 0.950 . S
H639 C666 0.950 . S
H640 C669 0.950 . S
H641 C670 0.950 . S
H642 C672 0.950 . S
H643 C673 0.950 . S
C644 H626 0.951 . S
C644 C645 1.366 1_455 S
C644 C646 1.388 . S
C645 C644 1.366 1_655 S
C645 C649 1.385 . S
C646 H627 0.951 . S
C646 C644 1.388 . S
C646 C647 1.366 . S
C647 C646 1.366 . S
C647 C648 1.414 . S
C647 C650 1.499 . S
C648 H628 0.950 . S
C648 C647 1.414 . S
C648 C649 1.374 1_455 S
C649 H629 0.950 . S
C649 C645 1.385 . S
C649 C648 1.374 1_655 S
C650 C647 1.499 . S
C650 C651 1.373 . S
C650 C652 1.389 . S
C651 H630 0.950 . S
C651 C650 1.373 . S
C651 C667 1.377 . S
C652 C650 1.389 . S
C652 C653 1.524 . S
C652 C666 1.377 . S
C653 C652 1.524 . S
C653 C654 1.397 . S
C653 C658 1.363 . S
C654 H631 0.950 . S
C654 C653 1.397 . S
C654 C655 1.334 . S
C655 H632 0.950 . S
C655 C654 1.334 . S
C655 C656 1.287 . S
C656 C655 1.287 . S
C656 C657 1.524 . S
C656 H675 0.913 . S
C657 H633 0.950 . S
C657 C656 1.524 . S
C657 C658 1.415 . S
C658 H634 0.950 . S
C658 C653 1.363 . S
C658 C657 1.415 . S
C659 H635 0.951 . S
C659 C660 1.366 . S
C659 C661 1.388 . S
C660 C659 1.366 . S
C660 C664 1.385 . S
C661 H636 0.951 . S
C661 C659 1.388 . S
C661 C662 1.366 . S
C662 C661 1.366 . S
C662 C663 1.414 . S
C662 C665 1.498 1_545 S
C663 H637 0.950 1_545 S
C663 C662 1.414 . S
C663 C664 1.374 . S
C664 H638 0.950 . S
C664 C660 1.385 . S
C664 C663 1.374 . S
C665 C662 1.498 1_565 S
C665 C666 1.373 . S
C665 C667 1.389 . S
C666 H639 0.950 . S
C666 C652 1.377 . S
C666 C665 1.373 . S
C667 C651 1.377 . S
C667 C665 1.389 . S
C667 C668 1.524 . S
C668 C667 1.524 . S
C668 C669 1.397 . S
C668 C673 1.363 . S
C669 H640 0.950 . S
C669 C668 1.397 . S
C669 C670 1.334 1_565 S
C670 H641 0.950 . S
C670 C669 1.334 1_545 S
C670 C671 1.287 . S
C671 C670 1.287 . S
C671 C672 1.524 . S
C671 H674 0.999 . S
C672 H642 0.950 . S
C672 C671 1.524 . S
C672 C673 1.415 1_545 S
C673 H643 0.950 . S
C673 C668 1.363 . S
C673 C672 1.415 1_565 S
H674 C671 0.999 . S
H675 C656 0.913 . S
H676 C694 0.951 . S
H677 C696 0.951 . S
H678 C698 0.950 . S
H679 C699 0.950 . S
H680 C701 0.950 . S
H681 C704 0.950 . S
H682 C705 0.950 . S
H683 C707 0.950 . S
H684 C708 0.950 . S
H685 C709 0.951 . S
H686 C711 0.951 . S
H687 C713 0.950 . S
H688 C714 0.950 . S
H689 C716 0.950 . S
H690 C719 0.950 . S
H691 C720 0.950 . S
H692 C722 0.950 . S
H693 C723 0.950 . S
C694 H676 0.951 . S
C694 C695 1.366 . S
C694 C696 1.388 . S
C695 C694 1.366 . S
C695 C699 1.385 . S
C696 H677 0.951 . S
C696 C694 1.388 . S
C696 C697 1.366 . S
C697 C696 1.366 . S
C697 C698 1.414 . S
C697 C700 1.499 . S
C698 H678 0.950 . S
C698 C697 1.414 . S
C698 C699 1.374 . S
C699 H679 0.950 . S
C699 C695 1.385 . S
C699 C698 1.374 . S
C700 C697 1.499 . S
C700 C701 1.373 . S
C700 C702 1.389 . S
C701 H680 0.950 . S
C701 C700 1.373 . S
C701 C717 1.377 . S
C702 C700 1.389 . S
C702 C703 1.524 . S
C702 C716 1.377 . S
C703 C702 1.524 . S
C703 C704 1.397 . S
C703 C708 1.363 . S
C704 H681 0.950 . S
C704 C703 1.397 . S
C704 C705 1.334 . S
C705 H682 0.950 . S
C705 C704 1.334 . S
C705 C706 1.287 . S
C706 C705 1.287 . S
C706 C707 1.524 . S
C706 H725 0.913 . S
C707 H683 0.950 . S
C707 C706 1.524 . S
C707 C708 1.415 . S
C708 H684 0.950 . S
C708 C703 1.363 . S
C708 C707 1.415 . S
C709 H685 0.951 . S
C709 C710 1.366 1_545 S
C709 C711 1.388 . S
C710 C709 1.366 1_565 S
C710 C714 1.385 . S
C711 H686 0.951 . S
C711 C709 1.388 . S
C711 C712 1.366 . S
C712 C711 1.366 . S
C712 C713 1.414 . S
C712 C715 1.499 . S
C713 H687 0.950 . S
C713 C712 1.414 . S
C713 C714 1.374 1_545 S
C714 H688 0.950 . S
C714 C710 1.385 . S
C714 C713 1.374 1_565 S
C715 C712 1.499 . S
C715 C716 1.373 . S
C715 C717 1.389 . S
C716 H689 0.950 . S
C716 C702 1.377 . S
C716 C715 1.373 . S
C717 C701 1.377 . S
C717 C715 1.389 . S
C717 C718 1.524 . S
C718 C717 1.524 . S
C718 C719 1.397 . S
C718 C723 1.363 . S
C719 H690 0.950 . S
C719 C718 1.397 . S
C719 C720 1.334 . S
C720 H691 0.950 . S
C720 C719 1.334 . S
C720 C721 1.287 . S
C721 C720 1.287 . S
C721 C722 1.524 . S
C721 H724 0.999 . S
C722 H692 0.950 . S
C722 C721 1.524 . S
C722 C723 1.415 . S
C723 H693 0.950 . S
C723 C718 1.363 . S
C723 C722 1.415 . S
H724 C721 0.999 . S
H725 C706 0.913 . S
H726 C744 0.951 . S
H727 C746 0.951 . S
H728 C748 0.950 . S
H729 C749 0.950 . S
H730 C751 0.950 . S
H731 C754 0.950 . S
H732 C755 0.950 . S
H733 C757 0.950 . S
H734 C758 0.950 . S
H735 C759 0.951 . S
H736 C761 0.951 1_455 S
H737 C763 0.950 . S
H738 C764 0.950 . S
H739 C766 0.950 . S
H740 C769 0.950 . S
H741 C770 0.950 1_655 S
H742 C772 0.950 . S
H743 C773 0.950 . S
C744 H726 0.951 . S
C744 C745 1.366 . S
C744 C746 1.388 . S
C745 C744 1.366 . S
C745 C749 1.385 . S
C746 H727 0.951 . S
C746 C744 1.388 . S
C746 C747 1.366 . S
C747 C746 1.366 . S
C747 C748 1.414 . S
C747 C750 1.499 . S
C748 H728 0.950 . S
C748 C747 1.414 . S
C748 C749 1.374 . S
C749 H729 0.950 . S
C749 C745 1.385 . S
C749 C748 1.374 . S
C750 C747 1.499 . S
C750 C751 1.373 . S
C750 C752 1.389 . S
C751 H730 0.950 . S
C751 C750 1.373 . S
C751 C767 1.377 . S
C752 C750 1.389 . S
C752 C753 1.524 . S
C752 C766 1.377 . S
C753 C752 1.524 . S
C753 C754 1.397 . S
C753 C758 1.363 . S
C754 H731 0.950 . S
C754 C753 1.397 . S
C754 C755 1.334 . S
C755 H732 0.950 . S
C755 C754 1.334 . S
C755 C756 1.287 . S
C756 C755 1.287 . S
C756 C757 1.524 . S
C756 H775 0.913 . S
C757 H733 0.950 . S
C757 C756 1.524 . S
C757 C758 1.415 . S
C758 H734 0.950 . S
C758 C753 1.363 . S
C758 C757 1.415 . S
C759 H735 0.951 . S
C759 C760 1.366 . S
C759 C761 1.388 . S
C760 C759 1.366 . S
C760 C764 1.385 . S
C761 H736 0.951 1_655 S
C761 C759 1.388 . S
C761 C762 1.374 . S
C762 C761 1.374 . S
C762 C763 1.421 . S
C762 C765 1.484 1_655 S
C763 H737 0.950 . S
C763 C762 1.421 . S
C763 C764 1.374 . S
C764 H738 0.950 . S
C764 C760 1.385 . S
C764 C763 1.374 . S
C765 C762 1.484 1_455 S
C765 C766 1.373 . S
C765 C767 1.389 . S
C766 H739 0.950 . S
C766 C752 1.377 . S
C766 C765 1.373 . S
C767 C751 1.377 . S
C767 C765 1.389 . S
C767 C768 1.524 . S
C768 C767 1.524 . S
C768 C769 1.397 . S
C768 C773 1.363 . S
C769 H740 0.950 . S
C769 C768 1.397 . S
C769 C770 1.334 . S
C770 H741 0.950 1_455 S
C770 C769 1.334 . S
C770 C771 1.287 . S
C771 C770 1.287 . S
C771 C772 1.524 . S
C771 H774 0.999 . S
C772 H742 0.950 . S
C772 C771 1.524 . S
C772 C773 1.415 . S
C773 H743 0.950 . S
C773 C768 1.363 . S
C773 C772 1.415 . S
H774 C771 0.999 . S
H775 C756 0.913 . S
H776 C794 0.951 . S
H777 C796 0.951 . S
H778 C798 0.950 . S
H779 C799 0.953 . S
H780 C801 0.950 . S
H781 C804 0.950 . S
H782 C805 0.950 1_455 S
H783 C807 0.950 . S
H784 C808 0.950 . S
H785 C809 0.951 . S
H786 C811 0.951 . S
H787 C813 0.950 1_545 S
H788 C814 0.950 . S
H789 C816 0.950 . S
H790 C819 0.950 . S
H791 C820 0.950 . S
H792 C822 0.950 . S
H793 C823 0.950 . S
C794 H776 0.951 . S
C794 C795 1.366 1_655 S
C794 C796 1.388 . S
C795 C794 1.366 1_455 S
C795 C799 1.384 . S
C796 H777 0.951 . S
C796 C794 1.388 . S
C796 C797 1.366 . S
C797 C796 1.366 . S
C797 C798 1.414 . S
C797 C800 1.499 . S
C798 H778 0.950 . S
C798 C797 1.414 . S
C798 C799 1.372 1_655 S
C799 H779 0.953 . S
C799 C795 1.384 . S
C799 C798 1.372 1_455 S
C800 C797 1.499 . S
C800 C801 1.373 . S
C800 C802 1.389 . S
C801 H780 0.950 . S
C801 C800 1.373 . S
C801 C817 1.377 . S
C802 C800 1.389 . S
C802 C803 1.524 . S
C802 C816 1.377 . S
C803 C802 1.524 . S
C803 C804 1.397 . S
C803 C808 1.363 . S
C804 H781 0.950 . S
C804 C803 1.397 . S
C804 C805 1.334 . S
C805 H782 0.950 1_655 S
C805 C804 1.334 . S
C805 C806 1.287 . S
C806 C805 1.287 . S
C806 C807 1.524 . S
C806 H825 0.913 1_655 S
C807 H783 0.950 . S
C807 C806 1.524 . S
C807 C808 1.415 . S
C808 H784 0.950 . S
C808 C803 1.363 . S
C808 C807 1.415 . S
C809 H785 0.951 . S
C809 C810 1.366 . S
C809 C811 1.388 . S
C810 C809 1.366 . S
C810 C814 1.385 . S
C811 H786 0.951 . S
C811 C809 1.388 . S
C811 C812 1.354 1_565 S
C812 C811 1.354 1_545 S
C812 C813 1.414 1_545 S
C812 C815 1.509 . S
C813 H787 0.950 1_565 S
C813 C812 1.414 1_565 S
C813 C814 1.374 . S
C814 H788 0.950 . S
C814 C810 1.385 . S
C814 C813 1.374 . S
C815 C812 1.509 . S
C815 C816 1.373 . S
C815 C817 1.389 . S
C816 H789 0.950 . S
C816 C802 1.377 . S
C816 C815 1.373 . S
C817 C801 1.377 . S
C817 C815 1.389 . S
C817 C818 1.524 . S
C818 C817 1.524 . S
C818 C819 1.397 . S
C818 C823 1.363 . S
C819 H790 0.950 . S
C819 C818 1.397 . S
C819 C820 1.334 . S
C820 H791 0.950 . S
C820 C819 1.334 . S
C820 C821 1.287 . S
C821 C820 1.287 . S
C821 C822 1.524 . S
C821 H824 0.999 . S
C822 H792 0.950 . S
C822 C821 1.524 . S
C822 C823 1.415 . S
C823 H793 0.950 . S
C823 C818 1.363 . S
C823 C822 1.415 . S
H824 C821 0.999 . S
H825 C806 0.913 1_455 S
H826 C844 0.951 . S
H827 C846 0.951 . S
H828 C848 0.950 . S
H829 C849 0.950 . S
H830 C851 0.950 . S
H831 C854 0.950 . S
H832 C855 0.950 . S
H833 C857 0.950 . S
H834 C858 0.950 . S
H835 C859 0.951 . S
H836 C861 0.951 . S
H837 C863 0.950 . S
H838 C864 0.950 . S
H839 C866 0.950 . S
H840 C869 0.950 . S
H841 C870 0.936 1_545 S
H842 C872 0.950 1_545 S
H843 C873 0.950 . S
C844 H826 0.951 . S
C844 C845 1.366 . S
C844 C846 1.388 . S
C845 C844 1.366 . S
C845 C849 1.385 . S
C846 H827 0.951 . S
C846 C844 1.388 . S
C846 C847 1.366 . S
C847 C846 1.366 . S
C847 C848 1.414 . S
C847 C850 1.499 . S
C848 H828 0.950 . S
C848 C847 1.414 . S
C848 C849 1.374 . S
C849 H829 0.950 . S
C849 C845 1.385 . S
C849 C848 1.374 . S
C850 C847 1.499 . S
C850 C851 1.373 . S
C850 C852 1.389 . S
C851 H830 0.950 . S
C851 C850 1.373 . S
C851 C867 1.377 . S
C852 C850 1.389 . S
C852 C853 1.524 . S
C852 C866 1.377 . S
C853 C852 1.524 . S
C853 C854 1.397 . S
C853 C858 1.363 . S
C854 H831 0.950 . S
C854 C853 1.397 . S
C854 C855 1.334 . S
C855 H832 0.950 . S
C855 C854 1.334 . S
C855 C856 1.287 . S
C856 C855 1.287 . S
C856 C857 1.524 . S
C856 H875 0.913 . S
C857 H833 0.950 . S
C857 C856 1.524 . S
C857 C858 1.415 . S
C858 H834 0.950 . S
C858 C853 1.363 . S
C858 C857 1.415 . S
C859 H835 0.951 . S
C859 C860 1.366 . S
C859 C861 1.388 1_545 S
C860 C859 1.366 . S
C860 C864 1.385 1_545 S
C861 H836 0.951 . S
C861 C859 1.388 1_565 S
C861 C862 1.366 . S
C862 C861 1.366 . S
C862 C863 1.414 . S
C862 C865 1.499 . S
C863 H837 0.950 . S
C863 C862 1.414 . S
C863 C864 1.374 . S
C864 H838 0.950 . S
C864 C860 1.385 1_565 S
C864 C863 1.374 . S
C865 C862 1.499 . S
C865 C866 1.373 . S
C865 C867 1.389 . S
C866 H839 0.950 . S
C866 C852 1.377 . S
C866 C865 1.373 . S
C867 C851 1.377 . S
C867 C865 1.389 . S
C867 C868 1.524 . S
C868 C867 1.524 . S
C868 C869 1.397 . S
C868 C873 1.363 . S
C869 H840 0.950 . S
C869 C868 1.397 . S
C869 C870 1.334 . S
C870 H841 0.936 1_565 S
C870 C869 1.334 . S
C870 C871 1.287 1_565 S
C871 C870 1.287 1_545 S
C871 C872 1.524 1_545 S
C871 H874 0.999 . S
C872 H842 0.950 1_565 S
C872 C871 1.524 1_565 S
C872 C873 1.415 . S
C873 H843 0.950 . S
C873 C868 1.363 . S
C873 C872 1.415 . S
H874 C871 0.999 . S
H875 C856 0.913 . S
H876 C894 0.951 . S
H877 C896 0.951 . S
H878 C898 0.950 . S
H879 C899 0.950 . S
H880 C901 0.950 . S
H881 C904 0.950 . S
H882 C905 0.961 . S
H883 C907 0.950 . S
H884 C908 0.950 . S
H885 C909 0.951 . S
H886 C911 0.951 . S
H887 C913 0.950 . S
H888 C914 0.950 . S
H889 C916 0.950 . S
H890 C919 0.950 . S
H891 C920 0.950 . S
H892 C922 0.950 . S
H893 C923 0.950 . S
C894 H876 0.951 . S
C894 C895 1.366 . S
C894 C896 1.388 . S
C895 C894 1.366 . S
C895 C899 1.385 . S
C896 H877 0.951 . S
C896 C894 1.388 . S
C896 C897 1.366 . S
C897 C896 1.366 . S
C897 C898 1.414 . S
C897 C900 1.499 . S
C898 H878 0.950 . S
C898 C897 1.414 . S
C898 C899 1.374 . S
C899 H879 0.950 . S
C899 C895 1.385 . S
C899 C898 1.374 . S
C900 C897 1.499 . S
C900 C901 1.373 . S
C900 C902 1.389 . S
C901 H880 0.950 . S
C901 C900 1.373 . S
C901 C917 1.377 . S
C902 C900 1.389 . S
C902 C903 1.524 . S
C902 C916 1.377 . S
C903 C902 1.524 . S
C903 C904 1.397 . S
C903 C908 1.363 . S
C904 H881 0.950 . S
C904 C903 1.397 . S
C904 C905 1.334 . S
C905 H882 0.961 . S
C905 C904 1.334 . S
C905 C906 1.287 1_455 S
C906 C905 1.287 1_655 S
C906 C907 1.524 . S
C906 H925 0.913 . S
C907 H883 0.950 . S
C907 C906 1.524 . S
C907 C908 1.415 1_655 S
C908 H884 0.950 . S
C908 C903 1.363 . S
C908 C907 1.415 1_455 S
C909 H885 0.951 . S
C909 C910 1.366 . S
C909 C911 1.388 . S
C910 C909 1.366 . S
C910 C914 1.385 . S
C911 H886 0.951 . S
C911 C909 1.388 . S
C911 C912 1.366 . S
C912 C911 1.366 . S
C912 C913 1.414 . S
C912 C915 1.499 . S
C913 H887 0.950 . S
C913 C912 1.414 . S
C913 C914 1.374 . S
C914 H888 0.950 . S
C914 C910 1.385 . S
C914 C913 1.374 . S
C915 C912 1.499 . S
C915 C916 1.373 . S
C915 C917 1.389 . S
C916 H889 0.950 . S
C916 C902 1.377 . S
C916 C915 1.373 . S
C917 C901 1.377 . S
C917 C915 1.389 . S
C917 C918 1.524 . S
C918 C917 1.524 . S
C918 C919 1.397 . S
C918 C923 1.363 . S
C919 H890 0.950 . S
C919 C918 1.397 . S
C919 C920 1.334 . S
C920 H891 0.950 . S
C920 C919 1.334 . S
C920 C921 1.287 . S
C921 C920 1.287 . S
C921 C922 1.524 . S
C921 H924 0.999 . S
C922 H892 0.950 . S
C922 C921 1.524 . S
C922 C923 1.415 . S
C923 H893 0.950 . S
C923 C918 1.363 . S
C923 C922 1.415 . S
H924 C921 0.999 . S
H925 C906 0.913 . S
H926 C944 0.951 . S
H927 C946 0.951 . S
H928 C948 0.950 . S
H929 C949 0.950 . S
H930 C951 0.950 . S
H931 C954 0.950 . S
H932 C955 0.950 . S
H933 C957 0.950 . S
H934 C958 0.950 . S
H935 C959 0.951 . S
H936 C961 0.951 . S
H937 C963 0.950 . S
H938 C964 0.950 . S
H939 C966 0.950 . S
H940 C969 0.950 . S
H941 C970 0.950 . S
H942 C972 0.950 . S
H943 C973 0.950 . S
C944 H926 0.951 . S
C944 C945 1.366 . S
C944 C946 1.388 . S
C945 C944 1.366 . S
C945 C949 1.385 . S
C946 H927 0.951 . S
C946 C944 1.388 . S
C946 C947 1.366 . S
C947 C946 1.366 . S
C947 C948 1.414 . S
C947 C950 1.499 . S
C948 H928 0.950 . S
C948 C947 1.414 . S
C948 C949 1.374 . S
C949 H929 0.950 . S
C949 C945 1.385 . S
C949 C948 1.374 . S
C950 C947 1.499 . S
C950 C951 1.373 . S
C950 C952 1.389 . S
C951 H930 0.950 . S
C951 C950 1.373 . S
C951 C967 1.377 . S
C952 C950 1.389 . S
C952 C953 1.524 . S
C952 C966 1.377 . S
C953 C952 1.524 . S
C953 C954 1.397 . S
C953 C958 1.363 . S
C954 H931 0.950 . S
C954 C953 1.397 . S
C954 C955 1.334 . S
C955 H932 0.950 . S
C955 C954 1.334 . S
C955 C956 1.287 . S
C956 C955 1.287 . S
C956 C957 1.524 . S
C956 H975 0.913 . S
C957 H933 0.950 . S
C957 C956 1.524 . S
C957 C958 1.415 . S
C958 H934 0.950 . S
C958 C953 1.363 . S
C958 C957 1.415 . S
C959 H935 0.951 . S
C959 C960 1.366 . S
C959 C961 1.388 . S
C960 C959 1.366 . S
C960 C964 1.385 . S
C961 H936 0.951 . S
C961 C959 1.388 . S
C961 C962 1.366 . S
C962 C961 1.366 . S
C962 C963 1.414 . S
C962 C965 1.499 . S
C963 H937 0.950 . S
C963 C962 1.414 . S
C963 C964 1.374 . S
C964 H938 0.950 . S
C964 C960 1.385 . S
C964 C963 1.374 . S
C965 C962 1.499 . S
C965 C966 1.373 . S
C965 C967 1.389 . S
C966 H939 0.950 . S
C966 C952 1.377 . S
C966 C965 1.373 . S
C967 C951 1.377 . S
C967 C965 1.389 . S
C967 C968 1.524 . S
C968 C967 1.524 . S
C968 C969 1.397 . S
C968 C973 1.363 . S
C969 H940 0.950 . S
C969 C968 1.397 . S
C969 C970 1.334 . S
C970 H941 0.950 . S
C970 C969 1.334 . S
C970 C971 1.287 . S
C971 C970 1.287 . S
C971 C972 1.524 . S
C971 H974 0.999 . S
C972 H942 0.950 . S
C972 C971 1.524 . S
C972 C973 1.415 . S
C973 H943 0.950 . S
C973 C968 1.363 . S
C973 C972 1.415 . S
H974 C971 0.999 . S
H975 C956 0.913 . S
H976 C994 0.951 . S
H977 C996 0.951 . S
H978 C998 0.950 . S
H979 C999 0.950 . S
H980 C1001 0.950 . S
H981 C1004 0.950 . S
H982 C1005 0.950 . S
H983 C1007 0.950 . S
H984 C1008 0.950 . S
H985 C1009 0.951 . S
H986 C1011 0.951 . S
H987 C1013 0.950 . S
H988 C1014 0.950 . S
H989 C1016 0.950 . S
H990 C1019 0.950 . S
H991 C1020 0.950 . S
H992 C1022 0.950 . S
H993 C1023 0.950 . S
C994 H976 0.951 . S
C994 C995 1.366 . S
C994 C996 1.388 . S
C995 C994 1.366 . S
C995 C999 1.385 . S
C996 H977 0.951 . S
C996 C994 1.388 . S
C996 C997 1.366 . S
C997 C996 1.366 . S
C997 C998 1.414 . S
C997 C1000 1.499 . S
C998 H978 0.950 . S
C998 C997 1.414 . S
C998 C999 1.374 . S
C999 H979 0.950 . S
C999 C995 1.385 . S
C999 C998 1.374 . S
C1000 C997 1.499 . S
C1000 C1001 1.373 . S
C1000 C1002 1.389 . S
C1001 H980 0.950 . S
C1001 C1000 1.373 . S
C1001 C1017 1.377 . S
C1002 C1000 1.389 . S
C1002 C1003 1.524 . S
C1002 C1016 1.377 . S
C1003 C1002 1.524 . S
C1003 C1004 1.397 . S
C1003 C1008 1.363 . S
C1004 H981 0.950 . S
C1004 C1003 1.397 . S
C1004 C1005 1.334 . S
C1005 H982 0.950 . S
C1005 C1004 1.334 . S
C1005 C1006 1.287 . S
C1006 C1005 1.287 . S
C1006 C1007 1.524 . S
C1006 H1025 0.913 . S
C1007 H983 0.950 . S
C1007 C1006 1.524 . S
C1007 C1008 1.415 . S
C1008 H984 0.950 . S
C1008 C1003 1.363 . S
C1008 C1007 1.415 . S
C1009 H985 0.951 . S
C1009 C1010 1.366 . S
C1009 C1011 1.388 . S
C1010 C1009 1.366 . S
C1010 C1014 1.385 . S
C1011 H986 0.951 . S
C1011 C1009 1.388 . S
C1011 C1012 1.366 . S
C1012 C1011 1.366 . S
C1012 C1013 1.414 . S
C1012 C1015 1.499 . S
C1013 H987 0.950 . S
C1013 C1012 1.414 . S
C1013 C1014 1.374 . S
C1014 H988 0.950 . S
C1014 C1010 1.385 . S
C1014 C1013 1.374 . S
C1015 C1012 1.499 . S
C1015 C1016 1.373 . S
C1015 C1017 1.389 . S
C1016 H989 0.950 . S
C1016 C1002 1.377 . S
C1016 C1015 1.373 . S
C1017 C1001 1.377 . S
C1017 C1015 1.389 . S
C1017 C1018 1.524 . S
C1018 C1017 1.524 . S
C1018 C1019 1.397 . S
C1018 C1023 1.363 . S
C1019 H990 0.950 . S
C1019 C1018 1.397 . S
C1019 C1020 1.334 . S
C1020 H991 0.950 . S
C1020 C1019 1.334 . S
C1020 C1021 1.287 . S
C1021 C1020 1.287 . S
C1021 C1022 1.524 . S
C1021 H1024 0.999 . S
C1022 H992 0.950 . S
C1022 C1021 1.524 . S
C1022 C1023 1.415 . S
C1023 H993 0.950 . S
C1023 C1018 1.363 . S
C1023 C1022 1.415 . S
H1024 C1021 0.999 . S
H1025 C1006 0.913 . S
H1026 C1044 0.951 . S
H1027 C1046 0.951 . S
H1028 C1048 0.950 . S
H1029 C1049 0.950 . S
H1030 C1051 0.950 . S
H1031 C1054 0.950 . S
H1032 C1055 0.950 . S
H1033 C1057 0.950 . S
H1034 C1058 0.950 . S
H1035 C1059 0.951 . S
H1036 C1061 0.951 . S
H1037 C1063 0.950 . S
H1038 C1064 0.950 . S
H1039 C1066 0.950 . S
H1040 C1069 0.950 . S
H1041 C1070 0.950 . S
H1042 C1072 0.950 . S
H1043 C1073 0.950 . S
C1044 H1026 0.951 . S
C1044 C1045 1.366 . S
C1044 C1046 1.388 . S
C1045 C1044 1.366 . S
C1045 C1049 1.385 . S
C1046 H1027 0.951 . S
C1046 C1044 1.388 . S
C1046 C1047 1.366 . S
C1047 C1046 1.366 . S
C1047 C1048 1.414 . S
C1047 C1050 1.499 . S
C1048 H1028 0.950 . S
C1048 C1047 1.414 . S
C1048 C1049 1.374 . S
C1049 H1029 0.950 . S
C1049 C1045 1.385 . S
C1049 C1048 1.374 . S
C1050 C1047 1.499 . S
C1050 C1051 1.373 . S
C1050 C1052 1.389 . S
C1051 H1030 0.950 . S
C1051 C1050 1.373 . S
C1051 C1067 1.377 . S
C1052 C1050 1.389 . S
C1052 C1053 1.524 . S
C1052 C1066 1.377 . S
C1053 C1052 1.524 . S
C1053 C1054 1.397 . S
C1053 C1058 1.363 . S
C1054 H1031 0.950 . S
C1054 C1053 1.397 . S
C1054 C1055 1.334 . S
C1055 H1032 0.950 . S
C1055 C1054 1.334 . S
C1055 C1056 1.287 . S
C1056 C1055 1.287 . S
C1056 C1057 1.524 . S
C1056 H1075 0.913 . S
C1057 H1033 0.950 . S
C1057 C1056 1.524 . S
C1057 C1058 1.415 . S
C1058 H1034 0.950 . S
C1058 C1053 1.363 . S
C1058 C1057 1.415 . S
C1059 H1035 0.951 . S
C1059 C1060 1.366 . S
C1059 C1061 1.388 . S
C1060 C1059 1.366 . S
C1060 C1064 1.385 . S
C1061 H1036 0.951 . S
C1061 C1059 1.388 . S
C1061 C1062 1.366 . S
C1062 C1061 1.366 . S
C1062 C1063 1.414 . S
C1062 C1065 1.499 . S
C1063 H1037 0.950 . S
C1063 C1062 1.414 . S
C1063 C1064 1.374 . S
C1064 H1038 0.950 . S
C1064 C1060 1.385 . S
C1064 C1063 1.374 . S
C1065 C1062 1.499 . S
C1065 C1066 1.373 . S
C1065 C1067 1.389 . S
C1066 H1039 0.950 . S
C1066 C1052 1.377 . S
C1066 C1065 1.373 . S
C1067 C1051 1.377 . S
C1067 C1065 1.389 . S
C1067 C1068 1.524 . S
C1068 C1067 1.524 . S
C1068 C1069 1.397 . S
C1068 C1073 1.363 . S
C1069 H1040 0.950 . S
C1069 C1068 1.397 . S
C1069 C1070 1.334 . S
C1070 H1041 0.950 . S
C1070 C1069 1.334 . S
C1070 C1071 1.287 . S
C1071 C1070 1.287 . S
C1071 C1072 1.524 . S
C1071 H1074 0.999 . S
C1072 H1042 0.950 . S
C1072 C1071 1.524 . S
C1072 C1073 1.415 . S
C1073 H1043 0.950 . S
C1073 C1068 1.363 . S
C1073 C1072 1.415 . S
H1074 C1071 0.999 . S
H1075 C1056 0.913 . S
H1076 C1094 0.951 . S
H1077 C1096 0.951 . S
H1078 C1098 0.950 . S
H1079 C1099 0.950 . S
H1080 C1101 0.950 . S
H1081 C1104 0.950 . S
H1082 C1105 0.950 . S
H1083 C1107 0.950 . S
H1084 C1108 0.950 . S
H1085 C1109 0.951 . S
H1086 C1111 0.951 . S
H1087 C1113 0.950 . S
H1088 C1114 0.950 . S
H1089 C1116 0.950 . S
H1090 C1119 0.950 . S
H1091 C1120 0.950 . S
H1092 C1122 0.950 . S
H1093 C1123 0.950 . S
C1094 H1076 0.951 . S
C1094 C1095 1.366 . S
C1094 C1096 1.388 . S
C1095 C1094 1.366 . S
C1095 C1099 1.385 . S
C1096 H1077 0.951 . S
C1096 C1094 1.388 . S
C1096 C1097 1.366 . S
C1097 C1096 1.366 . S
C1097 C1098 1.414 . S
C1097 C1100 1.499 . S
C1098 H1078 0.950 . S
C1098 C1097 1.414 . S
C1098 C1099 1.374 . S
C1099 H1079 0.950 . S
C1099 C1095 1.385 . S
C1099 C1098 1.374 . S
C1100 C1097 1.499 . S
C1100 C1101 1.373 . S
C1100 C1102 1.389 . S
C1101 H1080 0.950 . S
C1101 C1100 1.373 . S
C1101 C1117 1.377 . S
C1102 C1100 1.389 . S
C1102 C1103 1.524 . S
C1102 C1116 1.377 . S
C1103 C1102 1.524 . S
C1103 C1104 1.397 . S
C1103 C1108 1.363 . S
C1104 H1081 0.950 . S
C1104 C1103 1.397 . S
C1104 C1105 1.334 . S
C1105 H1082 0.950 . S
C1105 C1104 1.334 . S
C1105 C1106 1.287 . S
C1106 C1105 1.287 . S
C1106 C1107 1.524 . S
C1106 H1125 0.913 . S
C1107 H1083 0.950 . S
C1107 C1106 1.524 . S
C1107 C1108 1.415 . S
C1108 H1084 0.950 . S
C1108 C1103 1.363 . S
C1108 C1107 1.415 . S
C1109 H1085 0.951 . S
C1109 C1110 1.366 . S
C1109 C1111 1.388 . S
C1110 C1109 1.366 . S
C1110 C1114 1.385 . S
C1111 H1086 0.951 . S
C1111 C1109 1.388 . S
C1111 C1112 1.366 . S
C1112 C1111 1.366 . S
C1112 C1113 1.414 . S
C1112 C1115 1.499 . S
C1113 H1087 0.950 . S
C1113 C1112 1.414 . S
C1113 C1114 1.374 . S
C1114 H1088 0.950 . S
C1114 C1110 1.385 . S
C1114 C1113 1.374 . S
C1115 C1112 1.499 . S
C1115 C1116 1.373 . S
C1115 C1117 1.389 . S
C1116 H1089 0.950 . S
C1116 C1102 1.377 . S
C1116 C1115 1.373 . S
C1117 C1101 1.377 . S
C1117 C1115 1.389 . S
C1117 C1118 1.524 . S
C1118 C1117 1.524 . S
C1118 C1119 1.397 . S
C1118 C1123 1.363 . S
C1119 H1090 0.950 . S
C1119 C1118 1.397 . S
C1119 C1120 1.334 . S
C1120 H1091 0.950 . S
C1120 C1119 1.334 . S
C1120 C1121 1.287 . S
C1121 C1120 1.287 . S
C1121 C1122 1.524 . S
C1121 H1124 0.999 . S
C1122 H1092 0.950 . S
C1122 C1121 1.524 . S
C1122 C1123 1.415 . S
C1123 H1093 0.950 . S
C1123 C1118 1.363 . S
C1123 C1122 1.415 . S
H1124 C1121 0.999 . S
H1125 C1106 0.913 . S
H1126 C1144 0.951 . S
H1127 C1146 0.951 . S
H1128 C1148 0.950 . S
H1129 C1149 0.950 . S
H1130 C1151 0.950 . S
H1131 C1154 0.950 . S
H1132 C1155 0.950 . S
H1133 C1157 0.950 . S
H1134 C1158 0.950 . S
H1135 C1159 0.951 . S
H1136 C1161 0.951 . S
H1137 C1163 0.950 . S
H1138 C1164 0.950 . S
H1139 C1166 0.950 . S
H1140 C1169 0.950 . S
H1141 C1170 0.950 . S
H1142 C1172 0.950 . S
H1143 C1173 0.950 . S
C1144 H1126 0.951 . S
C1144 C1145 1.366 . S
C1144 C1146 1.388 . S
C1145 C1144 1.366 . S
C1145 C1149 1.385 . S
C1146 H1127 0.951 . S
C1146 C1144 1.388 . S
C1146 C1147 1.366 . S
C1147 C1146 1.366 . S
C1147 C1148 1.414 . S
C1147 C1150 1.499 . S
C1148 H1128 0.950 . S
C1148 C1147 1.414 . S
C1148 C1149 1.374 . S
C1149 H1129 0.950 . S
C1149 C1145 1.385 . S
C1149 C1148 1.374 . S
C1150 C1147 1.499 . S
C1150 C1151 1.373 . S
C1150 C1152 1.389 . S
C1151 H1130 0.950 . S
C1151 C1150 1.373 . S
C1151 C1167 1.377 . S
C1152 C1150 1.389 . S
C1152 C1153 1.524 . S
C1152 C1166 1.377 . S
C1153 C1152 1.524 . S
C1153 C1154 1.397 . S
C1153 C1158 1.363 . S
C1154 H1131 0.950 . S
C1154 C1153 1.397 . S
C1154 C1155 1.334 . S
C1155 H1132 0.950 . S
C1155 C1154 1.334 . S
C1155 C1156 1.287 . S
C1156 C1155 1.287 . S
C1156 C1157 1.524 . S
C1156 H1175 0.913 . S
C1157 H1133 0.950 . S
C1157 C1156 1.524 . S
C1157 C1158 1.415 . S
C1158 H1134 0.950 . S
C1158 C1153 1.363 . S
C1158 C1157 1.415 . S
C1159 H1135 0.951 . S
C1159 C1160 1.366 . S
C1159 C1161 1.388 . S
C1160 C1159 1.366 . S
C1160 C1164 1.385 . S
C1161 H1136 0.951 . S
C1161 C1159 1.388 . S
C1161 C1162 1.366 . S
C1162 C1161 1.366 . S
C1162 C1163 1.414 . S
C1162 C1165 1.499 . S
C1163 H1137 0.950 . S
C1163 C1162 1.414 . S
C1163 C1164 1.374 . S
C1164 H1138 0.950 . S
C1164 C1160 1.385 . S
C1164 C1163 1.374 . S
C1165 C1162 1.499 . S
C1165 C1166 1.373 . S
C1165 C1167 1.389 . S
C1166 H1139 0.950 . S
C1166 C1152 1.377 . S
C1166 C1165 1.373 . S
C1167 C1151 1.377 . S
C1167 C1165 1.389 . S
C1167 C1168 1.524 . S
C1168 C1167 1.524 . S
C1168 C1169 1.397 . S
C1168 C1173 1.363 . S
C1169 H1140 0.950 . S
C1169 C1168 1.397 . S
C1169 C1170 1.334 . S
C1170 H1141 0.950 . S
C1170 C1169 1.334 . S
C1170 C1171 1.287 . S
C1171 C1170 1.287 . S
C1171 C1172 1.524 . S
C1171 H1174 0.999 . S
C1172 H1142 0.950 . S
C1172 C1171 1.524 . S
C1172 C1173 1.415 . S
C1173 H1143 0.950 . S
C1173 C1168 1.363 . S
C1173 C1172 1.415 . S
H1174 C1171 0.999 . S
H1175 C1156 0.913 . S
H1176 C1194 0.951 . S
H1177 C1196 0.951 . S
H1178 C1198 0.950 . S
H1179 C1199 0.950 . S
H1180 C1201 0.950 . S
H1181 C1204 0.950 . S
H1182 C1205 0.950 . S
H1183 C1207 0.950 . S
H1184 C1208 0.950 . S
H1185 C1209 0.951 . S
H1186 C1211 0.951 . S
H1187 C1213 0.950 . S
H1188 C1214 0.950 . S
H1189 C1216 0.950 . S
H1190 C1219 0.950 . S
H1191 C1220 0.950 . S
H1192 C1222 0.950 . S
H1193 C1223 0.950 . S
C1194 H1176 0.951 . S
C1194 C1195 1.366 . S
C1194 C1196 1.388 . S
C1195 C1194 1.366 . S
C1195 C1199 1.385 . S
C1196 H1177 0.951 . S
C1196 C1194 1.388 . S
C1196 C1197 1.366 . S
C1197 C1196 1.366 . S
C1197 C1198 1.414 . S
C1197 C1200 1.499 . S
C1198 H1178 0.950 . S
C1198 C1197 1.414 . S
C1198 C1199 1.374 . S
C1199 H1179 0.950 . S
C1199 C1195 1.385 . S
C1199 C1198 1.374 . S
C1200 C1197 1.499 . S
C1200 C1201 1.373 . S
C1200 C1202 1.389 . S
C1201 H1180 0.950 . S
C1201 C1200 1.373 . S
C1201 C1217 1.377 . S
C1202 C1200 1.389 . S
C1202 C1203 1.524 . S
C1202 C1216 1.377 . S
C1203 C1202 1.524 . S
C1203 C1204 1.397 . S
C1203 C1208 1.363 . S
C1204 H1181 0.950 . S
C1204 C1203 1.397 . S
C1204 C1205 1.334 . S
C1205 H1182 0.950 . S
C1205 C1204 1.334 . S
C1205 C1206 1.287 . S
C1206 C1205 1.287 . S
C1206 C1207 1.524 . S
C1206 H1225 0.913 . S
C1207 H1183 0.950 . S
C1207 C1206 1.524 . S
C1207 C1208 1.415 . S
C1208 H1184 0.950 . S
C1208 C1203 1.363 . S
C1208 C1207 1.415 . S
C1209 H1185 0.951 . S
C1209 C1210 1.366 . S
C1209 C1211 1.388 . S
C1210 C1209 1.366 . S
C1210 C1214 1.385 . S
C1211 H1186 0.951 . S
C1211 C1209 1.388 . S
C1211 C1212 1.366 . S
C1212 C1211 1.366 . S
C1212 C1213 1.414 . S
C1212 C1215 1.499 . S
C1213 H1187 0.950 . S
C1213 C1212 1.414 . S
C1213 C1214 1.374 . S
C1214 H1188 0.950 . S
C1214 C1210 1.385 . S
C1214 C1213 1.374 . S
C1215 C1212 1.499 . S
C1215 C1216 1.373 . S
C1215 C1217 1.389 . S
C1216 H1189 0.950 . S
C1216 C1202 1.377 . S
C1216 C1215 1.373 . S
C1217 C1201 1.377 . S
C1217 C1215 1.389 . S
C1217 C1218 1.524 . S
C1218 C1217 1.524 . S
C1218 C1219 1.397 . S
C1218 C1223 1.363 . S
C1219 H1190 0.950 . S
C1219 C1218 1.397 . S
C1219 C1220 1.334 . S
C1220 H1191 0.950 . S
C1220 C1219 1.334 . S
C1220 C1221 1.287 . S
C1221 C1220 1.287 . S
C1221 C1222 1.524 . S
C1221 H1224 0.999 . S
C1222 H1192 0.950 . S
C1222 C1221 1.524 . S
C1222 C1223 1.415 . S
C1223 H1193 0.950 . S
C1223 C1218 1.363 . S
C1223 C1222 1.415 . S
H1224 C1221 0.999 . S
H1225 C1206 0.913 . S
H1226 C1244 0.951 . S
H1227 C1246 0.951 . S
H1228 C1248 0.950 . S
H1229 C1249 0.950 . S
H1230 C1251 0.950 . S
H1231 C1254 0.950 . S
H1232 C1255 0.950 . S
H1233 C1257 0.950 . S
H1234 C1258 0.950 . S
H1235 C1259 0.951 . S
H1236 C1261 0.951 . S
H1237 C1263 0.950 . S
H1238 C1264 0.950 . S
H1239 C1266 0.950 . S
H1240 C1269 0.950 . S
H1241 C1270 0.950 . S
H1242 C1272 0.950 . S
H1243 C1273 0.950 . S
C1244 H1226 0.951 . S
C1244 C1245 1.366 . S
C1244 C1246 1.388 . S
C1245 C1244 1.366 . S
C1245 C1249 1.385 . S
C1246 H1227 0.951 . S
C1246 C1244 1.388 . S
C1246 C1247 1.366 . S
C1247 C1246 1.366 . S
C1247 C1248 1.414 . S
C1247 C1250 1.499 . S
C1248 H1228 0.950 . S
C1248 C1247 1.414 . S
C1248 C1249 1.374 . S
C1249 H1229 0.950 . S
C1249 C1245 1.385 . S
C1249 C1248 1.374 . S
C1250 C1247 1.499 . S
C1250 C1251 1.373 . S
C1250 C1252 1.389 . S
C1251 H1230 0.950 . S
C1251 C1250 1.373 . S
C1251 C1267 1.377 . S
C1252 C1250 1.389 . S
C1252 C1253 1.524 . S
C1252 C1266 1.377 . S
C1253 C1252 1.524 . S
C1253 C1254 1.397 . S
C1253 C1258 1.363 . S
C1254 H1231 0.950 . S
C1254 C1253 1.397 . S
C1254 C1255 1.334 . S
C1255 H1232 0.950 . S
C1255 C1254 1.334 . S
C1255 C1256 1.287 . S
C1256 C1255 1.287 . S
C1256 C1257 1.524 . S
C1256 H1275 0.913 . S
C1257 H1233 0.950 . S
C1257 C1256 1.524 . S
C1257 C1258 1.415 . S
C1258 H1234 0.950 . S
C1258 C1253 1.363 . S
C1258 C1257 1.415 . S
C1259 H1235 0.951 . S
C1259 C1260 1.366 . S
C1259 C1261 1.388 . S
C1260 C1259 1.366 . S
C1260 C1264 1.385 . S
C1261 H1236 0.951 . S
C1261 C1259 1.388 . S
C1261 C1262 1.366 . S
C1262 C1261 1.366 . S
C1262 C1263 1.414 . S
C1262 C1265 1.499 . S
C1263 H1237 0.950 . S
C1263 C1262 1.414 . S
C1263 C1264 1.374 . S
C1264 H1238 0.950 . S
C1264 C1260 1.385 . S
C1264 C1263 1.374 . S
C1265 C1262 1.499 . S
C1265 C1266 1.373 . S
C1265 C1267 1.389 . S
C1266 H1239 0.950 . S
C1266 C1252 1.377 . S
C1266 C1265 1.373 . S
C1267 C1251 1.377 . S
C1267 C1265 1.389 . S
C1267 C1268 1.524 . S
C1268 C1267 1.524 . S
C1268 C1269 1.397 . S
C1268 C1273 1.363 . S
C1269 H1240 0.950 . S
C1269 C1268 1.397 . S
C1269 C1270 1.334 . S
C1270 H1241 0.950 . S
C1270 C1269 1.334 . S
C1270 C1271 1.287 . S
C1271 C1270 1.287 . S
C1271 C1272 1.524 . S
C1271 H1274 0.999 . S
C1272 H1242 0.950 . S
C1272 C1271 1.524 . S
C1272 C1273 1.415 . S
C1273 H1243 0.950 . S
C1273 C1268 1.363 . S
C1273 C1272 1.415 . S
H1274 C1271 0.999 . S
H1275 C1256 0.913 . S
H1276 C1294 0.951 . S
H1277 C1296 0.951 . S
H1278 C1298 0.950 . S
H1279 C1299 0.950 . S
H1280 C1301 0.950 . S
H1281 C1304 0.950 . S
H1282 C1305 0.950 . S
H1283 C1307 0.950 . S
H1284 C1308 0.950 . S
H1285 C1309 0.951 . S
H1286 C1311 0.951 . S
H1287 C1313 0.950 . S
H1288 C1314 0.950 . S
H1289 C1316 0.950 . S
H1290 C1319 0.950 . S
H1291 C1320 0.950 1_655 S
H1292 C1322 0.950 1_655 S
H1293 C1323 0.950 . S
C1294 H1276 0.951 . S
C1294 C1295 1.366 . S
C1294 C1296 1.388 . S
C1295 C1294 1.366 . S
C1295 C1299 1.385 . S
C1296 H1277 0.951 . S
C1296 C1294 1.388 . S
C1296 C1297 1.366 . S
C1297 C1296 1.366 . S
C1297 C1298 1.414 . S
C1297 C1300 1.499 . S
C1298 H1278 0.950 . S
C1298 C1297 1.414 . S
C1298 C1299 1.374 . S
C1299 H1279 0.950 . S
C1299 C1295 1.385 . S
C1299 C1298 1.374 . S
C1300 C1297 1.499 . S
C1300 C1301 1.373 . S
C1300 C1302 1.389 . S
C1301 H1280 0.950 . S
C1301 C1300 1.373 . S
C1301 C1317 1.377 . S
C1302 C1300 1.389 . S
C1302 C1303 1.524 . S
C1302 C1316 1.377 . S
C1303 C1302 1.524 . S
C1303 C1304 1.397 . S
C1303 C1308 1.363 . S
C1304 H1281 0.950 . S
C1304 C1303 1.397 . S
C1304 C1305 1.334 . S
C1305 H1282 0.950 . S
C1305 C1304 1.334 . S
C1305 C1306 1.287 . S
C1306 C1305 1.287 . S
C1306 C1307 1.524 . S
C1306 H1325 0.913 . S
C1307 H1283 0.950 . S
C1307 C1306 1.524 . S
C1307 C1308 1.415 . S
C1308 H1284 0.950 . S
C1308 C1303 1.363 . S
C1308 C1307 1.415 . S
C1309 H1285 0.951 . S
C1309 C1310 1.366 . S
C1309 C1311 1.388 . S
C1310 C1309 1.366 . S
C1310 C1314 1.385 . S
C1311 H1286 0.951 . S
C1311 C1309 1.388 . S
C1311 C1312 1.366 . S
C1312 C1311 1.366 . S
C1312 C1313 1.414 . S
C1312 C1315 1.499 . S
C1313 H1287 0.950 . S
C1313 C1312 1.414 . S
C1313 C1314 1.374 . S
C1314 H1288 0.950 . S
C1314 C1310 1.385 . S
C1314 C1313 1.374 . S
C1315 C1312 1.499 . S
C1315 C1316 1.373 . S
C1315 C1317 1.389 . S
C1316 H1289 0.950 . S
C1316 C1302 1.377 . S
C1316 C1315 1.373 . S
C1317 C1301 1.377 . S
C1317 C1315 1.389 . S
C1317 C1318 1.524 . S
C1318 C1317 1.524 . S
C1318 C1319 1.397 . S
C1318 C1323 1.363 . S
C1319 H1290 0.950 . S
C1319 C1318 1.397 . S
C1319 C1320 1.334 . S
C1320 H1291 0.950 1_455 S
C1320 C1319 1.334 . S
C1320 C1321 1.287 1_455 S
C1321 C1320 1.287 1_655 S
C1321 C1322 1.524 1_655 S
C1321 H1324 0.999 . S
C1322 H1292 0.950 1_455 S
C1322 C1321 1.524 1_455 S
C1322 C1323 1.415 . S
C1323 H1293 0.950 . S
C1323 C1318 1.363 . S
C1323 C1322 1.415 . S
H1324 C1321 0.999 . S
H1325 C1306 0.913 . S
H1326 C1344 0.951 . S
H1327 C1346 0.951 . S
H1328 C1348 0.950 . S
H1329 C1349 0.950 . S
H1330 C1351 0.950 . S
H1331 C1354 0.950 . S
H1332 C1355 0.950 . S
H1333 C1357 0.950 . S
H1334 C1358 0.950 . S
H1335 C1359 0.951 . S
H1336 C1361 0.951 . S
H1337 C1363 0.950 . S
H1338 C1364 0.950 . S
H1339 C1366 0.950 . S
H1340 C1369 0.950 . S
H1341 C1370 0.950 . S
H1342 C1372 0.950 . S
H1343 C1373 0.950 . S
C1344 H1326 0.951 . S
C1344 C1345 1.366 . S
C1344 C1346 1.388 . S
C1345 C1344 1.366 . S
C1345 C1349 1.385 . S
C1346 H1327 0.951 . S
C1346 C1344 1.388 . S
C1346 C1347 1.366 . S
C1347 C1346 1.366 . S
C1347 C1348 1.414 . S
C1347 C1350 1.499 . S
C1348 H1328 0.950 . S
C1348 C1347 1.414 . S
C1348 C1349 1.374 . S
C1349 H1329 0.950 . S
C1349 C1345 1.385 . S
C1349 C1348 1.374 . S
C1350 C1347 1.499 . S
C1350 C1351 1.373 . S
C1350 C1352 1.389 . S
C1351 H1330 0.950 . S
C1351 C1350 1.373 . S
C1351 C1367 1.377 . S
C1352 C1350 1.389 . S
C1352 C1353 1.524 . S
C1352 C1366 1.377 . S
C1353 C1352 1.524 . S
C1353 C1354 1.397 . S
C1353 C1358 1.363 . S
C1354 H1331 0.950 . S
C1354 C1353 1.397 . S
C1354 C1355 1.334 . S
C1355 H1332 0.950 . S
C1355 C1354 1.334 . S
C1355 C1356 1.287 . S
C1356 C1355 1.287 . S
C1356 C1357 1.524 . S
C1356 H1375 0.913 . S
C1357 H1333 0.950 . S
C1357 C1356 1.524 . S
C1357 C1358 1.415 . S
C1358 H1334 0.950 . S
C1358 C1353 1.363 . S
C1358 C1357 1.415 . S
C1359 H1335 0.951 . S
C1359 C1360 1.366 . S
C1359 C1361 1.388 . S
C1360 C1359 1.366 . S
C1360 C1364 1.385 . S
C1361 H1336 0.951 . S
C1361 C1359 1.388 . S
C1361 C1362 1.366 . S
C1362 C1361 1.366 . S
C1362 C1363 1.414 . S
C1362 C1365 1.499 . S
C1363 H1337 0.950 . S
C1363 C1362 1.414 . S
C1363 C1364 1.374 . S
C1364 H1338 0.950 . S
C1364 C1360 1.385 . S
C1364 C1363 1.374 . S
C1365 C1362 1.499 . S
C1365 C1366 1.373 . S
C1365 C1367 1.389 . S
C1366 H1339 0.950 . S
C1366 C1352 1.377 . S
C1366 C1365 1.373 . S
C1367 C1351 1.377 . S
C1367 C1365 1.389 . S
C1367 C1368 1.524 . S
C1368 C1367 1.524 . S
C1368 C1369 1.397 . S
C1368 C1373 1.363 . S
C1369 H1340 0.950 . S
C1369 C1368 1.397 . S
C1369 C1370 1.334 . S
C1370 H1341 0.950 . S
C1370 C1369 1.334 . S
C1370 C1371 1.287 . S
C1371 C1370 1.287 . S
C1371 C1372 1.524 . S
C1371 H1374 0.999 . S
C1372 H1342 0.950 . S
C1372 C1371 1.524 . S
C1372 C1373 1.415 . S
C1373 H1343 0.950 . S
C1373 C1368 1.363 . S
C1373 C1372 1.415 . S
H1374 C1371 0.999 . S
H1375 C1356 0.913 . S
H1376 C1394 0.951 . S
H1377 C1396 0.951 . S
H1378 C1398 0.950 . S
H1379 C1399 0.950 . S
H1380 C1401 0.950 . S
H1381 C1404 0.950 . S
H1382 C1405 0.950 . S
H1383 C1407 0.950 . S
H1384 C1408 0.950 . S
H1385 C1409 0.951 . S
H1386 C1411 0.951 . S
H1387 C1413 0.950 . S
H1388 C1414 0.950 . S
H1389 C1416 0.950 . S
H1390 C1419 0.950 . S
H1391 C1420 0.950 . S
H1392 C1422 0.950 . S
H1393 C1423 0.950 . S
C1394 H1376 0.951 . S
C1394 C1395 1.366 . S
C1394 C1396 1.388 . S
C1395 C1394 1.366 . S
C1395 C1399 1.385 . S
C1396 H1377 0.951 . S
C1396 C1394 1.388 . S
C1396 C1397 1.366 . S
C1397 C1396 1.366 . S
C1397 C1398 1.414 . S
C1397 C1400 1.499 . S
C1398 H1378 0.950 . S
C1398 C1397 1.414 . S
C1398 C1399 1.374 . S
C1399 H1379 0.950 . S
C1399 C1395 1.385 . S
C1399 C1398 1.374 . S
C1400 C1397 1.499 . S
C1400 C1401 1.373 . S
C1400 C1402 1.389 . S
C1401 H1380 0.950 . S
C1401 C1400 1.373 . S
C1401 C1417 1.377 . S
C1402 C1400 1.389 . S
C1402 C1403 1.524 . S
C1402 C1416 1.377 . S
C1403 C1402 1.524 . S
C1403 C1404 1.397 . S
C1403 C1408 1.363 . S
C1404 H1381 0.950 . S
C1404 C1403 1.397 . S
C1404 C1405 1.334 . S
C1405 H1382 0.950 . S
C1405 C1404 1.334 . S
C1405 C1406 1.287 . S
C1406 C1405 1.287 . S
C1406 C1407 1.524 . S
C1406 H1425 0.913 . S
C1407 H1383 0.950 . S
C1407 C1406 1.524 . S
C1407 C1408 1.415 . S
C1408 H1384 0.950 . S
C1408 C1403 1.363 . S
C1408 C1407 1.415 . S
C1409 H1385 0.951 . S
C1409 C1410 1.366 . S
C1409 C1411 1.388 . S
C1410 C1409 1.366 . S
C1410 C1414 1.385 . S
C1411 H1386 0.951 . S
C1411 C1409 1.388 . S
C1411 C1412 1.366 . S
C1412 C1411 1.366 . S
C1412 C1413 1.414 . S
C1412 C1415 1.499 . S
C1413 H1387 0.950 . S
C1413 C1412 1.414 . S
C1413 C1414 1.374 . S
C1414 H1388 0.950 . S
C1414 C1410 1.385 . S
C1414 C1413 1.374 . S
C1415 C1412 1.499 . S
C1415 C1416 1.373 . S
C1415 C1417 1.389 . S
C1416 H1389 0.950 . S
C1416 C1402 1.377 . S
C1416 C1415 1.373 . S
C1417 C1401 1.377 . S
C1417 C1415 1.389 . S
C1417 C1418 1.524 . S
C1418 C1417 1.524 . S
C1418 C1419 1.397 . S
C1418 C1423 1.363 . S
C1419 H1390 0.950 . S
C1419 C1418 1.397 . S
C1419 C1420 1.334 . S
C1420 H1391 0.950 . S
C1420 C1419 1.334 . S
C1420 C1421 1.287 . S
C1421 C1420 1.287 . S
C1421 C1422 1.524 . S
C1421 H1424 0.999 . S
C1422 H1392 0.950 . S
C1422 C1421 1.524 . S
C1422 C1423 1.415 . S
C1423 H1393 0.950 . S
C1423 C1418 1.363 . S
C1423 C1422 1.415 . S
H1424 C1421 0.999 . S
H1425 C1406 0.913 . S
H1426 C1444 0.951 . S
H1427 C1446 0.951 . S
H1428 C1448 0.950 . S
H1429 C1449 0.950 . S
H1430 C1451 0.950 . S
H1431 C1454 0.950 . S
H1432 C1455 0.950 . S
H1433 C1457 0.950 . S
H1434 C1458 0.950 . S
H1435 C1459 0.951 . S
H1436 C1461 0.951 . S
H1437 C1463 0.950 . S
H1438 C1464 0.950 . S
H1439 C1466 0.950 . S
H1440 C1469 0.950 . S
H1441 C1470 0.950 . S
H1442 C1472 0.950 . S
H1443 C1473 0.950 . S
C1444 H1426 0.951 . S
C1444 C1445 1.366 . S
C1444 C1446 1.388 . S
C1445 C1444 1.366 . S
C1445 C1449 1.385 . S
C1446 H1427 0.951 . S
C1446 C1444 1.388 . S
C1446 C1447 1.366 . S
C1447 C1446 1.366 . S
C1447 C1448 1.414 . S
C1447 C1450 1.499 . S
C1448 H1428 0.950 . S
C1448 C1447 1.414 . S
C1448 C1449 1.374 . S
C1449 H1429 0.950 . S
C1449 C1445 1.385 . S
C1449 C1448 1.374 . S
C1450 C1447 1.499 . S
C1450 C1451 1.373 . S
C1450 C1452 1.389 . S
C1451 H1430 0.950 . S
C1451 C1450 1.373 . S
C1451 C1467 1.377 . S
C1452 C1450 1.389 . S
C1452 C1453 1.524 . S
C1452 C1466 1.377 . S
C1453 C1452 1.524 . S
C1453 C1454 1.397 . S
C1453 C1458 1.363 . S
C1454 H1431 0.950 . S
C1454 C1453 1.397 . S
C1454 C1455 1.334 . S
C1455 H1432 0.950 . S
C1455 C1454 1.334 . S
C1455 C1456 1.287 . S
C1456 C1455 1.287 . S
C1456 C1457 1.524 . S
C1456 H1475 0.913 . S
C1457 H1433 0.950 . S
C1457 C1456 1.524 . S
C1457 C1458 1.415 . S
C1458 H1434 0.950 . S
C1458 C1453 1.363 . S
C1458 C1457 1.415 . S
C1459 H1435 0.951 . S
C1459 C1460 1.366 . S
C1459 C1461 1.388 . S
C1460 C1459 1.366 . S
C1460 C1464 1.385 . S
C1461 H1436 0.951 . S
C1461 C1459 1.388 . S
C1461 C1462 1.366 . S
C1462 C1461 1.366 . S
C1462 C1463 1.414 . S
C1462 C1465 1.499 . S
C1463 H1437 0.950 . S
C1463 C1462 1.414 . S
C1463 C1464 1.374 . S
C1464 H1438 0.950 . S
C1464 C1460 1.385 . S
C1464 C1463 1.374 . S
C1465 C1462 1.499 . S
C1465 C1466 1.373 . S
C1465 C1467 1.389 . S
C1466 H1439 0.950 . S
C1466 C1452 1.377 . S
C1466 C1465 1.373 . S
C1467 C1451 1.377 . S
C1467 C1465 1.389 . S
C1467 C1468 1.524 . S
C1468 C1467 1.524 . S
C1468 C1469 1.397 . S
C1468 C1473 1.363 . S
C1469 H1440 0.950 . S
C1469 C1468 1.397 . S
C1469 C1470 1.334 . S
C1470 H1441 0.950 . S
C1470 C1469 1.334 . S
C1470 C1471 1.287 . S
C1471 C1470 1.287 . S
C1471 C1472 1.524 . S
C1471 H1474 0.999 . S
C1472 H1442 0.950 . S
C1472 C1471 1.524 . S
C1472 C1473 1.415 . S
C1473 H1443 0.950 . S
C1473 C1468 1.363 . S
C1473 C1472 1.415 . S
H1474 C1471 0.999 . S
H1475 C1456 0.913 . S
H1476 C1494 0.951 . S
H1477 C1496 0.951 . S
H1478 C1498 0.950 . S
H1479 C1499 0.950 . S
H1480 C1501 0.950 . S
H1481 C1504 0.950 . S
H1482 C1505 0.950 . S
H1483 C1507 0.950 . S
H1484 C1508 0.950 . S
H1485 C1509 0.951 . S
H1486 C1511 0.951 . S
H1487 C1513 0.950 . S
H1488 C1514 0.950 . S
H1489 C1516 0.950 . S
H1490 C1519 0.950 . S
H1491 C1520 0.950 . S
H1492 C1522 0.950 . S
H1493 C1523 0.950 . S
C1494 H1476 0.951 . S
C1494 C1495 1.366 . S
C1494 C1496 1.388 . S
C1495 C1494 1.366 . S
C1495 C1499 1.385 . S
C1496 H1477 0.951 . S
C1496 C1494 1.388 . S
C1496 C1497 1.366 . S
C1497 C1496 1.366 . S
C1497 C1498 1.414 . S
C1497 C1500 1.499 . S
C1498 H1478 0.950 . S
C1498 C1497 1.414 . S
C1498 C1499 1.374 . S
C1499 H1479 0.950 . S
C1499 C1495 1.385 . S
C1499 C1498 1.374 . S
C1500 C1497 1.499 . S
C1500 C1501 1.373 . S
C1500 C1502 1.389 . S
C1501 H1480 0.950 . S
C1501 C1500 1.373 . S
C1501 C1517 1.377 . S
C1502 C1500 1.389 . S
C1502 C1503 1.524 . S
C1502 C1516 1.377 . S
C1503 C1502 1.524 . S
C1503 C1504 1.397 . S
C1503 C1508 1.363 . S
C1504 H1481 0.950 . S
C1504 C1503 1.397 . S
C1504 C1505 1.334 . S
C1505 H1482 0.950 . S
C1505 C1504 1.334 . S
C1505 C1506 1.287 . S
C1506 C1505 1.287 . S
C1506 C1507 1.524 . S
C1506 H1525 0.913 . S
C1507 H1483 0.950 . S
C1507 C1506 1.524 . S
C1507 C1508 1.415 . S
C1508 H1484 0.950 . S
C1508 C1503 1.363 . S
C1508 C1507 1.415 . S
C1509 H1485 0.951 . S
C1509 C1510 1.366 . S
C1509 C1511 1.388 . S
C1510 C1509 1.366 . S
C1510 C1514 1.385 . S
C1511 H1486 0.951 . S
C1511 C1509 1.388 . S
C1511 C1512 1.366 . S
C1512 C1511 1.366 . S
C1512 C1513 1.414 . S
C1512 C1515 1.499 . S
C1513 H1487 0.950 . S
C1513 C1512 1.414 . S
C1513 C1514 1.374 . S
C1514 H1488 0.950 . S
C1514 C1510 1.385 . S
C1514 C1513 1.374 . S
C1515 C1512 1.499 . S
C1515 C1516 1.373 . S
C1515 C1517 1.389 . S
C1516 H1489 0.950 . S
C1516 C1502 1.377 . S
C1516 C1515 1.373 . S
C1517 C1501 1.377 . S
C1517 C1515 1.389 . S
C1517 C1518 1.524 . S
C1518 C1517 1.524 . S
C1518 C1519 1.397 . S
C1518 C1523 1.363 . S
C1519 H1490 0.950 . S
C1519 C1518 1.397 . S
C1519 C1520 1.334 . S
C1520 H1491 0.950 . S
C1520 C1519 1.334 . S
C1520 C1521 1.287 . S
C1521 C1520 1.287 . S
C1521 C1522 1.524 . S
C1521 H1524 0.999 . S
C1522 H1492 0.950 . S
C1522 C1521 1.524 . S
C1522 C1523 1.415 . S
C1523 H1493 0.950 . S
C1523 C1518 1.363 . S
C1523 C1522 1.415 . S
H1524 C1521 0.999 . S
H1525 C1506 0.913 . S
H1526 C1544 0.951 . S
H1527 C1546 0.951 . S
H1528 C1548 0.950 . S
H1529 C1549 0.950 . S
H1530 C1551 0.950 . S
H1531 C1554 0.950 . S
H1532 C1555 0.950 . S
H1533 C1557 0.950 . S
H1534 C1558 0.950 . S
H1535 C1559 0.951 . S
H1536 C1561 0.951 . S
H1537 C1563 0.950 . S
H1538 C1564 0.950 . S
H1539 C1566 0.950 . S
H1540 C1569 0.950 . S
H1541 C1570 0.950 . S
H1542 C1572 0.950 . S
H1543 C1573 0.950 . S
C1544 H1526 0.951 . S
C1544 C1545 1.366 . S
C1544 C1546 1.388 . S
C1545 C1544 1.366 . S
C1545 C1549 1.385 . S
C1546 H1527 0.951 . S
C1546 C1544 1.388 . S
C1546 C1547 1.366 . S
C1547 C1546 1.366 . S
C1547 C1548 1.414 . S
C1547 C1550 1.499 . S
C1548 H1528 0.950 . S
C1548 C1547 1.414 . S
C1548 C1549 1.374 . S
C1549 H1529 0.950 . S
C1549 C1545 1.385 . S
C1549 C1548 1.374 . S
C1550 C1547 1.499 . S
C1550 C1551 1.373 . S
C1550 C1552 1.389 . S
C1551 H1530 0.950 . S
C1551 C1550 1.373 . S
C1551 C1567 1.377 . S
C1552 C1550 1.389 . S
C1552 C1553 1.524 . S
C1552 C1566 1.377 . S
C1553 C1552 1.524 . S
C1553 C1554 1.397 . S
C1553 C1558 1.363 . S
C1554 H1531 0.950 . S
C1554 C1553 1.397 . S
C1554 C1555 1.334 . S
C1555 H1532 0.950 . S
C1555 C1554 1.334 . S
C1555 C1556 1.287 . S
C1556 C1555 1.287 . S
C1556 C1557 1.524 . S
C1556 H1575 0.913 . S
C1557 H1533 0.950 . S
C1557 C1556 1.524 . S
C1557 C1558 1.415 . S
C1558 H1534 0.950 . S
C1558 C1553 1.363 . S
C1558 C1557 1.415 . S
C1559 H1535 0.951 . S
C1559 C1560 1.366 . S
C1559 C1561 1.388 . S
C1560 C1559 1.366 . S
C1560 C1564 1.385 . S
C1561 H1536 0.951 . S
C1561 C1559 1.388 . S
C1561 C1562 1.366 . S
C1562 C1561 1.366 . S
C1562 C1563 1.414 . S
C1562 C1565 1.499 . S
C1563 H1537 0.950 . S
C1563 C1562 1.414 . S
C1563 C1564 1.374 . S
C1564 H1538 0.950 . S
C1564 C1560 1.385 . S
C1564 C1563 1.374 . S
C1565 C1562 1.499 . S
C1565 C1566 1.373 . S
C1565 C1567 1.389 . S
C1566 H1539 0.950 . S
C1566 C1552 1.377 . S
C1566 C1565 1.373 . S
C1567 C1551 1.377 . S
C1567 C1565 1.389 . S
C1567 C1568 1.524 . S
C1568 C1567 1.524 . S
C1568 C1569 1.397 . S
C1568 C1573 1.363 . S
C1569 H1540 0.950 . S
C1569 C1568 1.397 . S
C1569 C1570 1.334 . S
C1570 H1541 0.950 . S
C1570 C1569 1.334 . S
C1570 C1571 1.287 . S
C1571 C1570 1.287 . S
C1571 C1572 1.524 . S
C1571 H1574 0.999 . S
C1572 H1542 0.950 . S
C1572 C1571 1.524 . S
C1572 C1573 1.415 . S
C1573 H1543 0.950 . S
C1573 C1568 1.363 . S
C1573 C1572 1.415 . S
H1574 C1571 0.999 . S
H1575 C1556 0.913 . S
H1576 C1594 0.951 . S
H1577 C1596 0.951 . S
H1578 C1598 0.950 . S
H1579 C1599 0.950 . S
H1580 C1601 0.950 . S
H1581 C1604 0.950 . S
H1582 C1605 0.950 . S
H1583 C1607 0.950 . S
H1584 C1608 0.950 . S
H1585 C1609 0.951 . S
H1586 C1611 0.951 . S
H1587 C1613 0.950 . S
H1588 C1614 0.950 . S
H1589 C1616 0.950 . S
H1590 C1619 0.950 . S
H1591 C1620 0.950 . S
H1592 C1622 0.950 . S
H1593 C1623 0.950 . S
C1594 H1576 0.951 . S
C1594 C1595 1.366 . S
C1594 C1596 1.388 . S
C1595 C1594 1.366 . S
C1595 C1599 1.385 . S
C1596 H1577 0.951 . S
C1596 C1594 1.388 . S
C1596 C1597 1.366 . S
C1597 C1596 1.366 . S
C1597 C1598 1.414 . S
C1597 C1600 1.499 . S
C1598 H1578 0.950 . S
C1598 C1597 1.414 . S
C1598 C1599 1.374 . S
C1599 H1579 0.950 . S
C1599 C1595 1.385 . S
C1599 C1598 1.374 . S
C1600 C1597 1.499 . S
C1600 C1601 1.373 . S
C1600 C1602 1.389 . S
C1601 H1580 0.950 . S
C1601 C1600 1.373 . S
C1601 C1617 1.377 . S
C1602 C1600 1.389 . S
C1602 C1603 1.524 . S
C1602 C1616 1.377 . S
C1603 C1602 1.524 . S
C1603 C1604 1.397 . S
C1603 C1608 1.363 . S
C1604 H1581 0.950 . S
C1604 C1603 1.397 . S
C1604 C1605 1.334 . S
C1605 H1582 0.950 . S
C1605 C1604 1.334 . S
C1605 C1606 1.287 . S
C1606 C1605 1.287 . S
C1606 C1607 1.524 . S
C1606 H1625 0.913 . S
C1607 H1583 0.950 . S
C1607 C1606 1.524 . S
C1607 C1608 1.415 . S
C1608 H1584 0.950 . S
C1608 C1603 1.363 . S
C1608 C1607 1.415 . S
C1609 H1585 0.951 . S
C1609 C1610 1.366 . S
C1609 C1611 1.388 . S
C1610 C1609 1.366 . S
C1610 C1614 1.385 . S
C1611 H1586 0.951 . S
C1611 C1609 1.388 . S
C1611 C1612 1.366 . S
C1612 C1611 1.366 . S
C1612 C1613 1.414 . S
C1612 C1615 1.499 . S
C1613 H1587 0.950 . S
C1613 C1612 1.414 . S
C1613 C1614 1.374 . S
C1614 H1588 0.950 . S
C1614 C1610 1.385 . S
C1614 C1613 1.374 . S
C1615 C1612 1.499 . S
C1615 C1616 1.373 . S
C1615 C1617 1.389 . S
C1616 H1589 0.950 . S
C1616 C1602 1.377 . S
C1616 C1615 1.373 . S
C1617 C1601 1.377 . S
C1617 C1615 1.389 . S
C1617 C1618 1.524 . S
C1618 C1617 1.524 . S
C1618 C1619 1.397 . S
C1618 C1623 1.363 . S
C1619 H1590 0.950 . S
C1619 C1618 1.397 . S
C1619 C1620 1.334 . S
C1620 H1591 0.950 . S
C1620 C1619 1.334 . S
C1620 C1621 1.287 . S
C1621 C1620 1.287 . S
C1621 C1622 1.524 . S
C1621 H1624 0.999 . S
C1622 H1592 0.950 . S
C1622 C1621 1.524 . S
C1622 C1623 1.415 . S
C1623 H1593 0.950 . S
C1623 C1618 1.363 . S
C1623 C1622 1.415 . S
H1624 C1621 0.999 . S
H1625 C1606 0.913 . S
H1626 C1644 0.951 . S
H1627 C1646 0.951 . S
H1628 C1648 0.950 . S
H1629 C1649 0.950 . S
H1630 C1651 0.950 . S
H1631 C1654 0.950 . S
H1632 C1655 0.950 . S
H1633 C1657 0.950 . S
H1634 C1658 0.950 . S
H1635 C1659 0.951 . S
H1636 C1661 0.951 . S
H1637 C1663 0.950 . S
H1638 C1664 0.950 . S
H1639 C1666 0.950 . S
H1640 C1669 0.950 . S
H1641 C1670 0.950 . S
H1642 C1672 0.950 . S
H1643 C1673 0.950 . S
C1644 H1626 0.951 . S
C1644 C1645 1.366 . S
C1644 C1646 1.388 . S
C1645 C1644 1.366 . S
C1645 C1649 1.385 . S
C1646 H1627 0.951 . S
C1646 C1644 1.388 . S
C1646 C1647 1.366 . S
C1647 C1646 1.366 . S
C1647 C1648 1.414 . S
C1647 C1650 1.499 . S
C1648 H1628 0.950 . S
C1648 C1647 1.414 . S
C1648 C1649 1.374 . S
C1649 H1629 0.950 . S
C1649 C1645 1.385 . S
C1649 C1648 1.374 . S
C1650 C1647 1.499 . S
C1650 C1651 1.373 . S
C1650 C1652 1.389 . S
C1651 H1630 0.950 . S
C1651 C1650 1.373 . S
C1651 C1667 1.377 . S
C1652 C1650 1.389 . S
C1652 C1653 1.524 . S
C1652 C1666 1.377 . S
C1653 C1652 1.524 . S
C1653 C1654 1.397 . S
C1653 C1658 1.363 . S
C1654 H1631 0.950 . S
C1654 C1653 1.397 . S
C1654 C1655 1.334 . S
C1655 H1632 0.950 . S
C1655 C1654 1.334 . S
C1655 C1656 1.287 . S
C1656 C1655 1.287 . S
C1656 C1657 1.524 . S
C1656 H1675 0.913 . S
C1657 H1633 0.950 . S
C1657 C1656 1.524 . S
C1657 C1658 1.415 . S
C1658 H1634 0.950 . S
C1658 C1653 1.363 . S
C1658 C1657 1.415 . S
C1659 H1635 0.951 . S
C1659 C1660 1.366 . S
C1659 C1661 1.388 . S
C1660 C1659 1.366 . S
C1660 C1664 1.385 . S
C1661 H1636 0.951 . S
C1661 C1659 1.388 . S
C1661 C1662 1.366 . S
C1662 C1661 1.366 . S
C1662 C1663 1.414 . S
C1662 C1665 1.499 . S
C1663 H1637 0.950 . S
C1663 C1662 1.414 . S
C1663 C1664 1.374 . S
C1664 H1638 0.950 . S
C1664 C1660 1.385 . S
C1664 C1663 1.374 . S
C1665 C1662 1.499 . S
C1665 C1666 1.373 . S
C1665 C1667 1.389 . S
C1666 H1639 0.950 . S
C1666 C1652 1.377 . S
C1666 C1665 1.373 . S
C1667 C1651 1.377 . S
C1667 C1665 1.389 . S
C1667 C1668 1.524 . S
C1668 C1667 1.524 . S
C1668 C1669 1.397 . S
C1668 C1673 1.363 . S
C1669 H1640 0.950 . S
C1669 C1668 1.397 . S
C1669 C1670 1.334 . S
C1670 H1641 0.950 . S
C1670 C1669 1.334 . S
C1670 C1671 1.287 . S
C1671 C1670 1.287 . S
C1671 C1672 1.524 . S
C1671 H1674 0.999 . S
C1672 H1642 0.950 . S
C1672 C1671 1.524 . S
C1672 C1673 1.415 . S
C1673 H1643 0.950 . S
C1673 C1668 1.363 . S
C1673 C1672 1.415 . S
H1674 C1671 0.999 . S
H1675 C1656 0.913 . S
H1676 C1694 0.951 . S
H1677 C1696 0.951 . S
H1678 C1698 0.950 . S
H1679 C1699 0.950 . S
H1680 C1701 0.950 . S
H1681 C1704 0.950 . S
H1682 C1705 0.950 . S
H1683 C1707 0.950 . S
H1684 C1708 0.950 . S
H1685 C1709 0.951 . S
H1686 C1711 0.951 . S
H1687 C1713 0.950 . S
H1688 C1714 0.950 . S
H1689 C1716 0.950 . S
H1690 C1719 0.950 . S
H1691 C1720 0.950 . S
H1692 C1722 0.950 1_545 S
H1693 C1723 0.950 . S
C1694 H1676 0.951 . S
C1694 C1695 1.366 . S
C1694 C1696 1.388 . S
C1695 C1694 1.366 . S
C1695 C1699 1.385 . S
C1696 H1677 0.951 . S
C1696 C1694 1.388 . S
C1696 C1697 1.366 . S
C1697 C1696 1.366 . S
C1697 C1698 1.414 . S
C1697 C1700 1.499 . S
C1698 H1678 0.950 . S
C1698 C1697 1.414 . S
C1698 C1699 1.374 . S
C1699 H1679 0.950 . S
C1699 C1695 1.385 . S
C1699 C1698 1.374 . S
C1700 C1697 1.499 . S
C1700 C1701 1.373 . S
C1700 C1702 1.389 . S
C1701 H1680 0.950 . S
C1701 C1700 1.373 . S
C1701 C1717 1.377 . S
C1702 C1700 1.389 . S
C1702 C1703 1.524 . S
C1702 C1716 1.377 . S
C1703 C1702 1.524 . S
C1703 C1704 1.397 . S
C1703 C1708 1.363 . S
C1704 H1681 0.950 . S
C1704 C1703 1.397 . S
C1704 C1705 1.334 . S
C1705 H1682 0.950 . S
C1705 C1704 1.334 . S
C1705 C1706 1.287 . S
C1706 C1705 1.287 . S
C1706 C1707 1.524 . S
C1706 H1725 0.913 1_455 S
C1707 H1683 0.950 . S
C1707 C1706 1.524 . S
C1707 C1708 1.415 . S
C1708 H1684 0.950 . S
C1708 C1703 1.363 . S
C1708 C1707 1.415 . S
C1709 H1685 0.951 . S
C1709 C1710 1.366 . S
C1709 C1711 1.388 . S
C1710 C1709 1.366 . S
C1710 C1714 1.385 . S
C1711 H1686 0.951 . S
C1711 C1709 1.388 . S
C1711 C1712 1.366 . S
C1712 C1711 1.366 . S
C1712 C1713 1.414 . S
C1712 C1715 1.499 . S
C1713 H1687 0.950 . S
C1713 C1712 1.414 . S
C1713 C1714 1.374 . S
C1714 H1688 0.950 . S
C1714 C1710 1.385 . S
C1714 C1713 1.374 . S
C1715 C1712 1.499 . S
C1715 C1716 1.373 . S
C1715 C1717 1.389 . S
C1716 H1689 0.950 . S
C1716 C1702 1.377 . S
C1716 C1715 1.373 . S
C1717 C1701 1.377 . S
C1717 C1715 1.389 . S
C1717 C1718 1.524 . S
C1718 C1717 1.524 . S
C1718 C1719 1.397 . S
C1718 C1723 1.363 . S
C1719 H1690 0.950 . S
C1719 C1718 1.397 . S
C1719 C1720 1.334 . S
C1720 H1691 0.950 . S
C1720 C1719 1.334 . S
C1720 C1721 1.287 . S
C1721 C1720 1.287 . S
C1721 C1722 1.524 . S
C1721 H1724 0.999 . S
C1722 H1692 0.950 1_565 S
C1722 C1721 1.524 . S
C1722 C1723 1.415 . S
C1723 H1693 0.950 . S
C1723 C1718 1.363 . S
C1723 C1722 1.415 . S
H1724 C1721 0.999 . S
H1725 C1706 0.913 1_655 S
H1726 C1744 0.951 . S
H1727 C1746 0.951 . S
H1728 C1748 0.950 . S
H1729 C1749 0.950 . S
H1730 C1751 0.950 . S
H1731 C1754 0.950 . S
H1732 C1755 0.950 . S
H1733 C1757 0.950 . S
H1734 C1758 0.950 . S
H1735 C1759 0.951 . S
H1736 C1761 0.951 . S
H1737 C1763 0.950 . S
H1738 C1764 0.950 . S
H1739 C1766 0.950 . S
H1740 C1769 0.950 . S
H1741 C1770 0.950 . S
H1742 C1772 0.950 . S
H1743 C1773 0.950 . S
C1744 H1726 0.951 . S
C1744 C1745 1.366 . S
C1744 C1746 1.388 . S
C1745 C1744 1.366 . S
C1745 C1749 1.385 . S
C1746 H1727 0.951 . S
C1746 C1744 1.388 . S
C1746 C1747 1.366 . S
C1747 C1746 1.366 . S
C1747 C1748 1.414 . S
C1747 C1750 1.499 . S
C1748 H1728 0.950 . S
C1748 C1747 1.414 . S
C1748 C1749 1.374 . S
C1749 H1729 0.950 . S
C1749 C1745 1.385 . S
C1749 C1748 1.374 . S
C1750 C1747 1.499 . S
C1750 C1751 1.373 . S
C1750 C1752 1.389 . S
C1751 H1730 0.950 . S
C1751 C1750 1.373 . S
C1751 C1767 1.377 . S
C1752 C1750 1.389 . S
C1752 C1753 1.524 . S
C1752 C1766 1.377 . S
C1753 C1752 1.524 . S
C1753 C1754 1.397 . S
C1753 C1758 1.363 . S
C1754 H1731 0.950 . S
C1754 C1753 1.397 . S
C1754 C1755 1.334 . S
C1755 H1732 0.950 . S
C1755 C1754 1.334 . S
C1755 C1756 1.287 . S
C1756 C1755 1.287 . S
C1756 C1757 1.524 . S
C1756 H1775 0.913 . S
C1757 H1733 0.950 . S
C1757 C1756 1.524 . S
C1757 C1758 1.415 . S
C1758 H1734 0.950 . S
C1758 C1753 1.363 . S
C1758 C1757 1.415 . S
C1759 H1735 0.951 . S
C1759 C1760 1.366 . S
C1759 C1761 1.388 . S
C1760 C1759 1.366 . S
C1760 C1764 1.385 . S
C1761 H1736 0.951 . S
C1761 C1759 1.388 . S
C1761 C1762 1.366 . S
C1762 C1761 1.366 . S
C1762 C1763 1.414 . S
C1762 C1765 1.499 . S
C1763 H1737 0.950 . S
C1763 C1762 1.414 . S
C1763 C1764 1.374 . S
C1764 H1738 0.950 . S
C1764 C1760 1.385 . S
C1764 C1763 1.374 . S
C1765 C1762 1.499 . S
C1765 C1766 1.373 . S
C1765 C1767 1.389 . S
C1766 H1739 0.950 . S
C1766 C1752 1.377 . S
C1766 C1765 1.373 . S
C1767 C1751 1.377 . S
C1767 C1765 1.389 . S
C1767 C1768 1.524 . S
C1768 C1767 1.524 . S
C1768 C1769 1.397 . S
C1768 C1773 1.363 . S
C1769 H1740 0.950 . S
C1769 C1768 1.397 . S
C1769 C1770 1.334 . S
C1770 H1741 0.950 . S
C1770 C1769 1.334 . S
C1770 C1771 1.287 . S
C1771 C1770 1.287 . S
C1771 C1772 1.524 . S
C1771 H1774 0.999 . S
C1772 H1742 0.950 . S
C1772 C1771 1.524 . S
C1772 C1773 1.415 . S
C1773 H1743 0.950 . S
C1773 C1768 1.363 . S
C1773 C1772 1.415 . S
H1774 C1771 0.999 . S
H1775 C1756 0.913 . S
H1776 C1794 0.951 . S
H1777 C1796 0.951 . S
H1778 C1798 0.950 . S
H1779 C1799 0.950 . S
H1780 C1801 0.950 . S
H1781 C1804 0.950 . S
H1782 C1805 0.950 . S
H1783 C1807 0.950 . S
H1784 C1808 0.950 . S
H1785 C1809 0.951 . S
H1786 C1811 0.951 . S
H1787 C1813 0.950 . S
H1788 C1814 0.950 . S
H1789 C1816 0.950 . S
H1790 C1819 0.950 . S
H1791 C1820 0.950 . S
H1792 C1822 0.950 . S
H1793 C1823 0.950 . S
C1794 H1776 0.951 . S
C1794 C1795 1.366 . S
C1794 C1796 1.388 . S
C1795 C1794 1.366 . S
C1795 C1799 1.385 . S
C1796 H1777 0.951 . S
C1796 C1794 1.388 . S
C1796 C1797 1.366 . S
C1797 C1796 1.366 . S
C1797 C1798 1.414 . S
C1797 C1800 1.499 . S
C1798 H1778 0.950 . S
C1798 C1797 1.414 . S
C1798 C1799 1.374 . S
C1799 H1779 0.950 . S
C1799 C1795 1.385 . S
C1799 C1798 1.374 . S
C1800 C1797 1.499 . S
C1800 C1801 1.373 . S
C1800 C1802 1.389 . S
C1801 H1780 0.950 . S
C1801 C1800 1.373 . S
C1801 C1817 1.377 1_556 S
C1802 C1800 1.389 . S
C1802 C1803 1.524 . S
C1802 C1816 1.377 1_556 S
C1803 C1802 1.524 . S
C1803 C1804 1.397 . S
C1803 C1808 1.363 . S
C1804 H1781 0.950 . S
C1804 C1803 1.397 . S
C1804 C1805 1.334 . S
C1805 H1782 0.950 . S
C1805 C1804 1.334 . S
C1805 C1806 1.287 . S
C1806 C1805 1.287 . S
C1806 C1807 1.524 . S
C1806 H1825 0.913 . S
C1807 H1783 0.950 . S
C1807 C1806 1.524 . S
C1807 C1808 1.415 . S
C1808 H1784 0.950 . S
C1808 C1803 1.363 . S
C1808 C1807 1.415 . S
C1809 H1785 0.951 . S
C1809 C1810 1.366 . S
C1809 C1811 1.388 . S
C1810 C1809 1.366 . S
C1810 C1814 1.385 . S
C1811 H1786 0.951 . S
C1811 C1809 1.388 . S
C1811 C1812 1.366 . S
C1812 C1811 1.366 . S
C1812 C1813 1.414 . S
C1812 C1815 1.499 . S
C1813 H1787 0.950 . S
C1813 C1812 1.414 . S
C1813 C1814 1.374 . S
C1814 H1788 0.950 . S
C1814 C1810 1.385 . S
C1814 C1813 1.374 . S
C1815 C1812 1.499 . S
C1815 C1816 1.373 . S
C1815 C1817 1.389 . S
C1816 H1789 0.950 . S
C1816 C1802 1.377 1_554 S
C1816 C1815 1.373 . S
C1817 C1801 1.377 1_554 S
C1817 C1815 1.389 . S
C1817 C1818 1.524 . S
C1818 C1817 1.524 . S
C1818 C1819 1.397 . S
C1818 C1823 1.363 . S
C1819 H1790 0.950 . S
C1819 C1818 1.397 . S
C1819 C1820 1.334 . S
C1820 H1791 0.950 . S
C1820 C1819 1.334 . S
C1820 C1821 1.287 . S
C1821 C1820 1.287 . S
C1821 C1822 1.524 . S
C1821 H1824 0.999 . S
C1822 H1792 0.950 . S
C1822 C1821 1.524 . S
C1822 C1823 1.415 . S
C1823 H1793 0.950 . S
C1823 C1818 1.363 . S
C1823 C1822 1.415 . S
H1824 C1821 0.999 . S
H1825 C1806 0.913 . S
H1826 C1844 0.951 . S
H1827 C1846 0.951 . S
H1828 C1848 0.950 1_655 S
H1829 C1849 0.950 . S
H1830 C1851 0.950 . S
H1831 C1854 0.950 . S
H1832 C1855 0.950 . S
H1833 C1857 0.950 . S
H1834 C1858 0.950 . S
H1835 C1859 0.951 . S
H1836 C1861 0.951 . S
H1837 C1863 0.950 1_455 S
H1838 C1864 0.950 . S
H1839 C1866 0.950 . S
H1840 C1869 0.950 . S
H1841 C1870 0.950 . S
H1842 C1872 0.950 . S
H1843 C1873 0.950 . S
C1844 H1826 0.951 . S
C1844 C1845 1.366 . S
C1844 C1846 1.388 . S
C1845 C1844 1.366 . S
C1845 C1849 1.385 . S
C1846 H1827 0.951 . S
C1846 C1844 1.388 . S
C1846 C1847 1.366 . S
C1847 C1846 1.366 . S
C1847 C1848 1.414 . S
C1847 C1850 1.499 . S
C1848 H1828 0.950 1_455 S
C1848 C1847 1.414 . S
C1848 C1849 1.374 . S
C1849 H1829 0.950 . S
C1849 C1845 1.385 . S
C1849 C1848 1.374 . S
C1850 C1847 1.499 . S
C1850 C1851 1.373 1_455 S
C1850 C1852 1.389 . S
C1851 H1830 0.950 . S
C1851 C1850 1.373 1_655 S
C1851 C1867 1.377 . S
C1852 C1850 1.389 . S
C1852 C1853 1.524 . S
C1852 C1866 1.377 . S
C1853 C1852 1.524 . S
C1853 C1854 1.397 . S
C1853 C1858 1.363 . S
C1854 H1831 0.950 . S
C1854 C1853 1.397 . S
C1854 C1855 1.334 . S
C1855 H1832 0.950 . S
C1855 C1854 1.334 . S
C1855 C1856 1.287 . S
C1856 C1855 1.287 . S
C1856 C1857 1.524 . S
C1856 H1875 0.913 . S
C1857 H1833 0.950 . S
C1857 C1856 1.524 . S
C1857 C1858 1.415 . S
C1858 H1834 0.950 . S
C1858 C1853 1.363 . S
C1858 C1857 1.415 . S
C1859 H1835 0.951 . S
C1859 C1860 1.366 . S
C1859 C1861 1.388 . S
C1860 C1859 1.366 . S
C1860 C1864 1.385 . S
C1861 H1836 0.951 . S
C1861 C1859 1.388 . S
C1861 C1862 1.366 . S
C1862 C1861 1.366 . S
C1862 C1863 1.414 . S
C1862 C1865 1.499 . S
C1863 H1837 0.950 1_655 S
C1863 C1862 1.414 . S
C1863 C1864 1.374 . S
C1864 H1838 0.950 . S
C1864 C1860 1.385 . S
C1864 C1863 1.374 . S
C1865 C1862 1.499 . S
C1865 C1866 1.373 1_655 S
C1865 C1867 1.389 . S
C1866 H1839 0.950 . S
C1866 C1852 1.377 . S
C1866 C1865 1.373 1_455 S
C1867 C1851 1.377 . S
C1867 C1865 1.389 . S
C1867 C1868 1.524 . S
C1868 C1867 1.524 . S
C1868 C1869 1.397 . S
C1868 C1873 1.363 . S
C1869 H1840 0.950 . S
C1869 C1868 1.397 . S
C1869 C1870 1.334 . S
C1870 H1841 0.950 . S
C1870 C1869 1.334 . S
C1870 C1871 1.287 . S
C1871 C1870 1.287 . S
C1871 C1872 1.524 . S
C1871 H1874 0.999 . S
C1872 H1842 0.950 . S
C1872 C1871 1.524 . S
C1872 C1873 1.415 . S
C1873 H1843 0.950 . S
C1873 C1868 1.363 . S
C1873 C1872 1.415 . S
H1874 C1871 0.999 . S
H1875 C1856 0.913 . S
H1876 C1894 0.951 . S
H1877 C1896 0.951 . S
H1878 C1898 0.950 . S
H1879 C1899 0.950 . S
H1880 C1901 0.950 . S
H1881 C1904 0.950 . S
H1882 C1905 0.950 . S
H1883 C1907 0.950 . S
H1884 C1908 0.950 . S
H1885 C1909 0.951 . S
H1886 C1911 0.951 . S
H1887 C1913 0.950 . S
H1888 C1914 0.950 . S
H1889 C1916 0.950 . S
H1890 C1919 0.950 . S
H1891 C1920 0.950 . S
H1892 C1922 0.950 . S
H1893 C1923 0.950 . S
C1894 H1876 0.951 . S
C1894 C1895 1.366 . S
C1894 C1896 1.388 . S
C1895 C1894 1.366 . S
C1895 C1899 1.385 . S
C1896 H1877 0.951 . S
C1896 C1894 1.388 . S
C1896 C1897 1.366 . S
C1897 C1896 1.366 . S
C1897 C1898 1.414 . S
C1897 C1900 1.499 . S
C1898 H1878 0.950 . S
C1898 C1897 1.414 . S
C1898 C1899 1.374 . S
C1899 H1879 0.950 . S
C1899 C1895 1.385 . S
C1899 C1898 1.374 . S
C1900 C1897 1.499 . S
C1900 C1901 1.373 . S
C1900 C1902 1.389 1_565 S
C1901 H1880 0.950 . S
C1901 C1900 1.373 . S
C1901 C1917 1.377 1_554 S
C1902 C1900 1.389 1_545 S
C1902 C1903 1.524 . S
C1902 C1916 1.377 1_554 S
C1903 C1902 1.524 . S
C1903 C1904 1.397 . S
C1903 C1908 1.363 . S
C1904 H1881 0.950 . S
C1904 C1903 1.397 . S
C1904 C1905 1.334 . S
C1905 H1882 0.950 . S
C1905 C1904 1.334 . S
C1905 C1906 1.287 . S
C1906 C1905 1.287 . S
C1906 C1907 1.524 . S
C1906 H1925 0.913 . S
C1907 H1883 0.950 . S
C1907 C1906 1.524 . S
C1907 C1908 1.415 . S
C1908 H1884 0.950 . S
C1908 C1903 1.363 . S
C1908 C1907 1.415 . S
C1909 H1885 0.951 . S
C1909 C1910 1.366 . S
C1909 C1911 1.388 . S
C1910 C1909 1.366 . S
C1910 C1914 1.385 . S
C1911 H1886 0.951 . S
C1911 C1909 1.388 . S
C1911 C1912 1.366 . S
C1912 C1911 1.366 . S
C1912 C1913 1.414 . S
C1912 C1915 1.499 . S
C1913 H1887 0.950 . S
C1913 C1912 1.414 . S
C1913 C1914 1.374 . S
C1914 H1888 0.950 . S
C1914 C1910 1.385 . S
C1914 C1913 1.374 . S
C1915 C1912 1.499 . S
C1915 C1916 1.373 . S
C1915 C1917 1.389 1_545 S
C1916 H1889 0.950 . S
C1916 C1902 1.377 1_556 S
C1916 C1915 1.373 . S
C1917 C1901 1.377 1_556 S
C1917 C1915 1.389 1_565 S
C1917 C1918 1.524 . S
C1918 C1917 1.524 . S
C1918 C1919 1.397 . S
C1918 C1923 1.363 . S
C1919 H1890 0.950 . S
C1919 C1918 1.397 . S
C1919 C1920 1.334 . S
C1920 H1891 0.950 . S
C1920 C1919 1.334 . S
C1920 C1921 1.287 . S
C1921 C1920 1.287 . S
C1921 C1922 1.524 . S
C1921 H1924 0.999 . S
C1922 H1892 0.950 . S
C1922 C1921 1.524 . S
C1922 C1923 1.415 . S
C1923 H1893 0.950 . S
C1923 C1918 1.363 . S
C1923 C1922 1.415 . S
H1924 C1921 0.999 . S
H1925 C1906 0.913 . S
H1926 C1944 0.951 . S
H1927 C1946 0.951 . S
H1928 C1948 0.950 . S
H1929 C1949 0.950 . S
H1930 C1951 0.950 . S
H1931 C1954 0.950 . S
H1932 C1955 0.950 . S
H1933 C1957 0.950 . S
H1934 C1958 0.950 . S
H1935 C1959 0.951 . S
H1936 C1961 0.951 . S
H1937 C1963 0.950 . S
H1938 C1964 0.950 . S
H1939 C1966 0.950 . S
H1940 C1969 0.950 . S
H1941 C1970 0.950 . S
H1942 C1972 0.950 . S
H1943 C1973 0.950 . S
C1944 H1926 0.951 . S
C1944 C1945 1.366 . S
C1944 C1946 1.388 . S
C1945 C1944 1.366 . S
C1945 C1949 1.385 . S
C1946 H1927 0.951 . S
C1946 C1944 1.388 . S
C1946 C1947 1.366 . S
C1947 C1946 1.366 . S
C1947 C1948 1.414 . S
C1947 C1950 1.499 . S
C1948 H1928 0.950 . S
C1948 C1947 1.414 . S
C1948 C1949 1.374 . S
C1949 H1929 0.950 . S
C1949 C1945 1.385 . S
C1949 C1948 1.374 . S
C1950 C1947 1.499 . S
C1950 C1951 1.373 . S
C1950 C1952 1.389 . S
C1951 H1930 0.950 . S
C1951 C1950 1.373 . S
C1951 C1967 1.377 . S
C1952 C1950 1.389 . S
C1952 C1953 1.524 . S
C1952 C1966 1.377 . S
C1953 C1952 1.524 . S
C1953 C1954 1.397 . S
C1953 C1958 1.363 . S
C1954 H1931 0.950 . S
C1954 C1953 1.397 . S
C1954 C1955 1.334 . S
C1955 H1932 0.950 . S
C1955 C1954 1.334 . S
C1955 C1956 1.287 . S
C1956 C1955 1.287 . S
C1956 C1957 1.524 . S
C1956 H1975 0.913 . S
C1957 H1933 0.950 . S
C1957 C1956 1.524 . S
C1957 C1958 1.415 . S
C1958 H1934 0.950 . S
C1958 C1953 1.363 . S
C1958 C1957 1.415 . S
C1959 H1935 0.951 . S
C1959 C1960 1.366 . S
C1959 C1961 1.388 . S
C1960 C1959 1.366 . S
C1960 C1964 1.385 . S
C1961 H1936 0.951 . S
C1961 C1959 1.388 . S
C1961 C1962 1.366 . S
C1962 C1961 1.366 . S
C1962 C1963 1.414 . S
C1962 C1965 1.499 . S
C1963 H1937 0.950 . S
C1963 C1962 1.414 . S
C1963 C1964 1.374 . S
C1964 H1938 0.950 . S
C1964 C1960 1.385 . S
C1964 C1963 1.374 . S
C1965 C1962 1.499 . S
C1965 C1966 1.373 . S
C1965 C1967 1.389 . S
C1966 H1939 0.950 . S
C1966 C1952 1.377 . S
C1966 C1965 1.373 . S
C1967 C1951 1.377 . S
C1967 C1965 1.389 . S
C1967 C1968 1.524 . S
C1968 C1967 1.524 . S
C1968 C1969 1.397 . S
C1968 C1973 1.363 . S
C1969 H1940 0.950 . S
C1969 C1968 1.397 . S
C1969 C1970 1.334 . S
C1970 H1941 0.950 . S
C1970 C1969 1.334 . S
C1970 C1971 1.287 . S
C1971 C1970 1.287 . S
C1971 C1972 1.524 . S
C1971 H1974 0.999 . S
C1972 H1942 0.950 . S
C1972 C1971 1.524 . S
C1972 C1973 1.415 . S
C1973 H1943 0.950 . S
C1973 C1968 1.363 . S
C1973 C1972 1.415 . S
H1974 C1971 0.999 . S
H1975 C1956 0.913 . S
H1976 C1994 0.951 . S
H1977 C1996 0.951 . S
H1978 C1998 0.950 1_455 S
H1979 C1999 0.950 . S
H1980 C2001 0.950 . S
H1981 C2004 0.950 . S
H1982 C2005 0.950 . S
H1983 C2007 0.946 1_554 S
H1984 C2008 0.950 . S
H1985 C2009 0.951 . S
H1986 C2011 0.951 . S
H1987 C2013 0.950 1_655 S
H1988 C2014 0.950 . S
H1989 C2016 0.950 . S
H1990 C2019 0.950 . S
H1991 C2020 0.950 . S
H1992 C2022 0.946 1_556 S
H1993 C2023 0.950 . S
C1994 H1976 0.951 . S
C1994 C1995 1.366 . S
C1994 C1996 1.388 . S
C1995 C1994 1.366 . S
C1995 C1999 1.385 . S
C1996 H1977 0.951 . S
C1996 C1994 1.388 . S
C1996 C1997 1.366 . S
C1997 C1996 1.366 . S
C1997 C1998 1.414 . S
C1997 C2000 1.499 . S
C1998 H1978 0.950 1_655 S
C1998 C1997 1.414 . S
C1998 C1999 1.374 . S
C1999 H1979 0.950 . S
C1999 C1995 1.385 . S
C1999 C1998 1.374 . S
C2000 C1997 1.499 . S
C2000 C2001 1.373 1_655 S
C2000 C2002 1.389 . S
C2001 H1980 0.950 . S
C2001 C2000 1.373 1_455 S
C2001 C2017 1.377 1_556 S
C2002 C2000 1.389 . S
C2002 C2003 1.524 . S
C2002 C2016 1.377 1_556 S
C2003 C2002 1.524 . S
C2003 C2004 1.397 . S
C2003 C2008 1.363 1_556 S
C2004 H1981 0.950 . S
C2004 C2003 1.397 . S
C2004 C2005 1.334 . S
C2005 H1982 0.950 . S
C2005 C2004 1.334 . S
C2005 C2006 1.287 . S
C2006 C2005 1.287 . S
C2006 C2007 1.529 . S
C2006 H2025 0.913 . S
C2007 H1983 0.946 1_556 S
C2007 C2006 1.529 . S
C2007 C2008 1.414 1_556 S
C2008 H1984 0.950 . S
C2008 C2003 1.363 1_554 S
C2008 C2007 1.414 1_554 S
C2009 H1985 0.951 . S
C2009 C2010 1.366 . S
C2009 C2011 1.388 . S
C2010 C2009 1.366 . S
C2010 C2014 1.385 . S
C2011 H1986 0.951 . S
C2011 C2009 1.388 . S
C2011 C2012 1.366 . S
C2012 C2011 1.366 . S
C2012 C2013 1.414 . S
C2012 C2015 1.499 . S
C2013 H1987 0.950 1_455 S
C2013 C2012 1.414 . S
C2013 C2014 1.374 . S
C2014 H1988 0.950 . S
C2014 C2010 1.385 . S
C2014 C2013 1.374 . S
C2015 C2012 1.499 . S
C2015 C2016 1.373 1_455 S
C2015 C2017 1.389 . S
C2016 H1989 0.950 . S
C2016 C2002 1.377 1_554 S
C2016 C2015 1.373 1_655 S
C2017 C2001 1.377 1_554 S
C2017 C2015 1.389 . S
C2017 C2018 1.524 . S
C2018 C2017 1.524 . S
C2018 C2019 1.397 . S
C2018 C2023 1.363 1_554 S
C2019 H1990 0.950 . S
C2019 C2018 1.397 . S
C2019 C2020 1.334 . S
C2020 H1991 0.950 . S
C2020 C2019 1.334 . S
C2020 C2021 1.287 . S
C2021 C2020 1.287 . S
C2021 C2022 1.529 . S
C2021 H2024 0.999 . S
C2022 H1992 0.946 1_554 S
C2022 C2021 1.529 . S
C2022 C2023 1.414 1_554 S
C2023 H1993 0.950 . S
C2023 C2018 1.363 1_556 S
C2023 C2022 1.414 1_556 S
H2024 C2021 0.999 . S
H2025 C2006 0.913 . S
H2026 C2044 0.951 . S
H2027 C2046 0.951 . S
H2028 C2048 0.950 . S
H2029 C2049 0.950 . S
H2030 C2051 0.950 . S
H2031 C2054 0.950 . S
H2032 C2055 0.950 . S
H2033 C2057 0.950 . S
H2034 C2058 0.950 . S
H2035 C2059 0.951 . S
H2036 C2061 0.951 . S
H2037 C2063 0.950 . S
H2038 C2064 0.950 . S
H2039 C2066 0.950 . S
H2040 C2069 0.950 . S
H2041 C2070 0.950 . S
H2042 C2072 0.950 . S
H2043 C2073 0.950 . S
C2044 H2026 0.951 . S
C2044 C2045 1.366 . S
C2044 C2046 1.388 . S
C2045 C2044 1.366 . S
C2045 C2049 1.385 . S
C2046 H2027 0.951 . S
C2046 C2044 1.388 . S
C2046 C2047 1.366 . S
C2047 C2046 1.366 . S
C2047 C2048 1.414 . S
C2047 C2050 1.499 . S
C2048 H2028 0.950 . S
C2048 C2047 1.414 . S
C2048 C2049 1.374 . S
C2049 H2029 0.950 . S
C2049 C2045 1.385 . S
C2049 C2048 1.374 . S
C2050 C2047 1.499 . S
C2050 C2051 1.373 . S
C2050 C2052 1.389 1_565 S
C2051 H2030 0.950 . S
C2051 C2050 1.373 . S
C2051 C2067 1.377 . S
C2052 C2050 1.389 1_545 S
C2052 C2053 1.524 . S
C2052 C2066 1.377 . S
C2053 C2052 1.524 . S
C2053 C2054 1.397 . S
C2053 C2058 1.363 . S
C2054 H2031 0.950 . S
C2054 C2053 1.397 . S
C2054 C2055 1.334 . S
C2055 H2032 0.950 . S
C2055 C2054 1.334 . S
C2055 C2056 1.287 . S
C2056 C2055 1.287 . S
C2056 C2057 1.524 . S
C2056 H2075 0.913 . S
C2057 H2033 0.950 . S
C2057 C2056 1.524 . S
C2057 C2058 1.415 . S
C2058 H2034 0.950 . S
C2058 C2053 1.363 . S
C2058 C2057 1.415 . S
C2059 H2035 0.951 . S
C2059 C2060 1.366 . S
C2059 C2061 1.388 . S
C2060 C2059 1.366 . S
C2060 C2064 1.385 . S
C2061 H2036 0.951 . S
C2061 C2059 1.388 . S
C2061 C2062 1.366 . S
C2062 C2061 1.366 . S
C2062 C2063 1.414 . S
C2062 C2065 1.499 . S
C2063 H2037 0.950 . S
C2063 C2062 1.414 . S
C2063 C2064 1.374 . S
C2064 H2038 0.950 . S
C2064 C2060 1.385 . S
C2064 C2063 1.374 . S
C2065 C2062 1.499 . S
C2065 C2066 1.373 . S
C2065 C2067 1.389 1_545 S
C2066 H2039 0.950 . S
C2066 C2052 1.377 . S
C2066 C2065 1.373 . S
C2067 C2051 1.377 . S
C2067 C2065 1.389 1_565 S
C2067 C2068 1.524 . S
C2068 C2067 1.524 . S
C2068 C2069 1.397 . S
C2068 C2073 1.363 . S
C2069 H2040 0.950 . S
C2069 C2068 1.397 . S
C2069 C2070 1.334 . S
C2070 H2041 0.950 . S
C2070 C2069 1.334 . S
C2070 C2071 1.287 . S
C2071 C2070 1.287 . S
C2071 C2072 1.524 . S
C2071 H2074 0.999 . S
C2072 H2042 0.950 . S
C2072 C2071 1.524 . S
C2072 C2073 1.415 . S
C2073 H2043 0.950 . S
C2073 C2068 1.363 . S
C2073 C2072 1.415 . S
H2074 C2071 0.999 . S
H2075 C2056 0.913 . S
C295 C113 0.605 . S
C310 C17 0.585 . S
C345 C136 0.604 . S
C360 C40 0.586 . S
C395 C63 0.586 . S
C410 C21 0.604 . S
C445 C86 0.587 . S
C460 C44 0.603 . S
C495 C109 0.585 . S
C510 C67 0.605 . S
C545 C90 0.603 . S
C560 C132 0.587 . S
C595 C205 0.605 . S
C610 C155 0.586 . S
C645 C178 0.586 . S
C660 C228 0.605 . S
C695 C251 0.604 . S
C710 C201 0.585 . S
C745 C224 0.585 . S
C760 C274 0.604 . S
C795 C247 0.587 . S
C810 C159 0.603 . S
C845 C182 0.603 . S
C860 C270 0.587 . S
C895 C110 1.001 . S
C910 C16 1.004 . S
C945 C39 1.004 . S
C960 C133 1.000 . S
C995 C62 1.004 . S
C1010 C18 1.001 . S
C1045 C85 1.004 . S
C1060 C41 1.001 . S
C1095 C64 1.001 . S
C1110 C108 1.003 . S
C1145 C87 1.001 . S
C1160 C131 1.004 . S
C1195 C202 1.000 . S
C1210 C154 1.004 . S
C1245 C177 1.004 . S
C1260 C225 1.000 . S
C1295 C200 1.004 . S
C1310 C248 1.001 . S
C1345 C271 1.000 . S
C1360 C223 1.004 . S
C1395 C246 1.004 . S
C1410 C156 1.001 . S
C1445 C179 1.001 . S
C1460 C269 1.003 . S
C1495 C250 1.498 . S
C1510 C20 1.498 . S
C1545 C43 1.498 . S
C1560 C273 1.498 . S
C1595 C66 1.498 . S
C1610 C158 1.498 . S
C1645 C89 1.498 . S
C1660 C181 1.498 . S
C1695 C112 1.497 . S
C1710 C204 1.497 . S
C1745 C227 1.498 . S
C1760 C135 1.498 . S
C1795 C226 1.504 . S
C1810 C19 1.504 . S
C1845 C249 1.504 . S
C1860 C42 1.504 . S
C1895 C65 1.504 . S
C1910 C272 1.504 . S
C1945 C88 1.504 . S
C1960 C157 1.504 . S
C1995 C180 1.504 . S
C2010 C111 1.504 . S
C2045 C203 1.504 . S
C2060 C134 1.504 . S
