# Generated by pormake.
# Topology umg, (4)-cn, num edge types: 1
# Building blocks:
#     Node 0, Type 0, BuildingBlock: QUQFOY_clean_sbu_3, # of connection points: 4
#     Node 1, Type 0, BuildingBlock: QUQFOY_clean_sbu_3, # of connection points: 4
#     Node 2, Type 0, BuildingBlock: QUQFOY_clean_sbu_3, # of connection points: 4
#     Node 3, Type 0, BuildingBlock: QUQFOY_clean_sbu_3, # of connection points: 4
#     Node 4, Type 0, BuildingBlock: QUQFOY_clean_sbu_3, # of connection points: 4
#     Node 5, Type 0, BuildingBlock: QUQFOY_clean_sbu_3, # of connection points: 4
#     Node 6, Type 0, BuildingBlock: QUQFOY_clean_sbu_3, # of connection points: 4
#     Node 7, Type 0, BuildingBlock: QUQFOY_clean_sbu_3, # of connection points: 4
#     Node 8, Type 0, BuildingBlock: QUQFOY_clean_sbu_3, # of connection points: 4
#     Node 9, Type 0, BuildingBlock: QUQFOY_clean_sbu_3, # of connection points: 4
#     Node 10, Type 0, BuildingBlock: QUQFOY_clean_sbu_3, # of connection points: 4
#     Node 11, Type 0, BuildingBlock: QUQFOY_clean_sbu_3, # of connection points: 4
#     Edge 12, Type (0, 0), BuildingBlock: TEMPAE_clean_linker_10, # of connection points: 2
#     Edge 13, Type (0, 0), BuildingBlock: TEMPAE_clean_linker_10, # of connection points: 2
#     Edge 14, Type (0, 0), BuildingBlock: TEMPAE_clean_linker_10, # of connection points: 2
#     Edge 15, Type (0, 0), BuildingBlock: TEMPAE_clean_linker_10, # of connection points: 2
#     Edge 16, Type (0, 0), BuildingBlock: TEMPAE_clean_linker_10, # of connection points: 2
#     Edge 17, Type (0, 0), BuildingBlock: TEMPAE_clean_linker_10, # of connection points: 2
#     Edge 18, Type (0, 0), BuildingBlock: TEMPAE_clean_linker_10, # of connection points: 2
#     Edge 19, Type (0, 0), BuildingBlock: TEMPAE_clean_linker_10, # of connection points: 2
#     Edge 20, Type (0, 0), BuildingBlock: TEMPAE_clean_linker_10, # of connection points: 2
#     Edge 21, Type (0, 0), BuildingBlock: TEMPAE_clean_linker_10, # of connection points: 2
#     Edge 22, Type (0, 0), BuildingBlock: TEMPAE_clean_linker_10, # of connection points: 2
#     Edge 23, Type (0, 0), BuildingBlock: TEMPAE_clean_linker_10, # of connection points: 2
#     Edge 24, Type (0, 0), BuildingBlock: TEMPAE_clean_linker_10, # of connection points: 2
#     Edge 25, Type (0, 0), BuildingBlock: TEMPAE_clean_linker_10, # of connection points: 2
#     Edge 26, Type (0, 0), BuildingBlock: TEMPAE_clean_linker_10, # of connection points: 2
#     Edge 27, Type (0, 0), BuildingBlock: TEMPAE_clean_linker_10, # of connection points: 2
#     Edge 28, Type (0, 0), BuildingBlock: TEMPAE_clean_linker_10, # of connection points: 2
#     Edge 29, Type (0, 0), BuildingBlock: TEMPAE_clean_linker_10, # of connection points: 2
#     Edge 30, Type (0, 0), BuildingBlock: TEMPAE_clean_linker_10, # of connection points: 2
#     Edge 31, Type (0, 0), BuildingBlock: TEMPAE_clean_linker_10, # of connection points: 2
#     Edge 32, Type (0, 0), BuildingBlock: TEMPAE_clean_linker_10, # of connection points: 2
#     Edge 33, Type (0, 0), BuildingBlock: TEMPAE_clean_linker_10, # of connection points: 2
#     Edge 34, Type (0, 0), BuildingBlock: TEMPAE_clean_linker_10, # of connection points: 2
#     Edge 35, Type (0, 0), BuildingBlock: TEMPAE_clean_linker_10, # of connection points: 2
# Relax obj value: 0.092
# Max RMSD: 0.346
# Mean RMSD: 0.214
data_MOF--net-umg--node1-QUQFOY_clean_sbu_3--edge1-TEMPAE_clean_linker_10
_symmetry_space_group_name_H-M    P1
_symmetry_Int_Tables_number       1
_symmetry_cell_setting            triclinic
loop_
_symmetry_equiv_pos_as_xyz
'x, y, z'
_cell_length_a     29.354552
_cell_length_b     29.379862
_cell_length_c     86.394804
_cell_angle_alpha  92.657944
_cell_angle_beta   92.714802
_cell_angle_gamma 120.80474
loop_
_atom_site_label
_atom_site_type_symbol
_atom_site_fract_x
_atom_site_fract_y
_atom_site_fract_z
_atom_type_partial_charge
C0 C 0.27853 0.57527 0.09146 0.0
O1 O 0.27163 0.60953 0.08505 0.0
Cd2 Cd 0.2426 0.59686 0.05799 0.0
O3 O 0.27568 0.53631 0.08346 0.0
Cd4 Cd 0.26574 0.50092 0.0564 0.0
C5 C 0.13717 0.46638 0.05644 0.0
O6 O 0.30571 0.5855 0.04483 0.0
O7 O 0.26079 0.51567 0.02888 0.0
O8 O 0.34468 0.49817 0.06437 0.0
C9 C 0.29029 0.56585 0.03091 0.0
O10 O 0.15438 0.51555 0.0552 0.0
C11 C 0.3289 0.45235 0.05786 0.0
O12 O 0.16908 0.44928 0.0581 0.0
O13 O 0.28272 0.42802 0.05068 0.0
C14 C 0.70871 0.35607 0.44087 0.0
O15 O 0.66859 0.35864 0.43616 0.0
Cd16 Cd 0.63033 0.31636 0.41034 0.0
O17 O 0.73172 0.34221 0.4313 0.0
Cd18 Cd 0.73326 0.32158 0.40377 0.0
C19 C 0.63412 0.20091 0.41088 0.0
O20 O 0.68432 0.35551 0.38889 0.0
O21 O 0.68992 0.29019 0.3783 0.0
O22 O 0.81854 0.40124 0.40089 0.0
C23 C 0.67627 0.32451 0.3769 0.0
O24 O 0.60748 0.22397 0.412 0.0
C25 C 0.84529 0.37843 0.40022 0.0
O26 O 0.68294 0.22678 0.40803 0.0
O27 O 0.81989 0.32822 0.40084 0.0
C28 C 0.2367 0.72481 0.75314 0.0
O29 O 0.20264 0.67977 0.74624 0.0
Cd30 Cd 0.19506 0.65435 0.71851 0.0
O31 O 0.26949 0.76244 0.74553 0.0
Cd32 Cd 0.2973 0.78715 0.7195 0.0
C33 C 0.3257 0.68621 0.71616 0.0
O34 O 0.21235 0.72924 0.70527 0.0
O35 O 0.27454 0.78273 0.69184 0.0
O36 O 0.30444 0.87126 0.72722 0.0
C37 C 0.22861 0.74184 0.69189 0.0
O38 O 0.27579 0.65263 0.71512 0.0
C39 C 0.35098 0.90028 0.72291 0.0
O40 O 0.34446 0.73627 0.7187 0.0
O41 O 0.37365 0.87653 0.71749 0.0
C42 C 0.59695 0.18023 0.09025 0.0
O43 O 0.56744 0.13876 0.08133 0.0
Cd44 Cd 0.61245 0.1546 0.05749 0.0
O45 O 0.63017 0.22228 0.08441 0.0
Cd46 Cd 0.62537 0.24498 0.05766 0.0
C47 C 0.74101 0.26089 0.06251 0.0
O48 O 0.57549 0.17557 0.03558 0.0
O49 O 0.65383 0.2425 0.03235 0.0
O50 O 0.54894 0.25144 0.06306 0.0
C51 C 0.61018 0.20326 0.02635 0.0
O52 O 0.71109 0.21054 0.06009 0.0
C53 C 0.56809 0.29907 0.05963 0.0
O54 O 0.7205 0.2899 0.06339 0.0
O55 O 0.61539 0.32296 0.05543 0.0
C56 C 0.42126 0.65071 0.44224 0.0
O57 O 0.4651 0.66836 0.43617 0.0
Cd58 Cd 0.47675 0.70193 0.41104 0.0
O59 O 0.38216 0.65023 0.43506 0.0
Cd60 Cd 0.35977 0.67499 0.41022 0.0
C61 C 0.45487 0.80541 0.41641 0.0
O62 O 0.40306 0.64454 0.3923 0.0
O63 O 0.38145 0.70047 0.38439 0.0
O64 O 0.27403 0.59375 0.40317 0.0
C65 C 0.39749 0.66867 0.38121 0.0
O66 O 0.48762 0.78971 0.41472 0.0
C67 C 0.24528 0.61281 0.40659 0.0
O68 O 0.40492 0.77226 0.41589 0.0
O69 O 0.26946 0.6614 0.41177 0.0
C70 C 0.62752 0.46638 0.75887 0.0
O71 O 0.66168 0.51207 0.75506 0.0
Cd72 Cd 0.6661 0.52771 0.72779 0.0
O73 O 0.59532 0.43037 0.7486 0.0
Cd74 Cd 0.5699 0.4113 0.72087 0.0
C75 C 0.54334 0.51057 0.71887 0.0
O76 O 0.66185 0.45277 0.71369 0.0
O77 O 0.60011 0.42578 0.69492 0.0
O78 O 0.55825 0.32866 0.72908 0.0
C79 C 0.64878 0.44414 0.69918 0.0
O80 O 0.59364 0.54147 0.71992 0.0
C81 C 0.51472 0.29762 0.72111 0.0
O82 O 0.52253 0.46084 0.7202 0.0
O83 O 0.49549 0.31925 0.71271 0.0
C84 C 0.38163 0.63667 0.55582 0.0
O85 O 0.34768 0.64726 0.56071 0.0
Cd86 Cd 0.3468 0.67341 0.58714 0.0
O87 O 0.41659 0.63668 0.56516 0.0
Cd88 Cd 0.44602 0.64975 0.59331 0.0
C89 C 0.47843 0.77894 0.59077 0.0
O90 O 0.35728 0.61201 0.60161 0.0
O91 O 0.41999 0.649 0.62001 0.0
O92 O 0.45117 0.57092 0.58739 0.0
C93 C 0.37043 0.6242 0.61602 0.0
O94 O 0.42844 0.76042 0.58925 0.0
C95 C 0.496 0.58766 0.59478 0.0
O96 O 0.49708 0.74836 0.59242 0.0
O97 O 0.51879 0.63438 0.60153 0.0
C98 C 0.60594 0.3834 0.87052 0.0
O99 O 0.56251 0.35356 0.87642 0.0
Cd100 Cd 0.55706 0.35389 0.90409 0.0
O101 O 0.64836 0.41392 0.87913 0.0
Cd102 Cd 0.6814 0.44042 0.90647 0.0
C103 C 0.59583 0.48545 0.9089 0.0
O104 O 0.63149 0.35217 0.91594 0.0
O105 O 0.66793 0.41879 0.93334 0.0
O106 O 0.75852 0.43997 0.89756 0.0
C107 C 0.64284 0.36879 0.9302 0.0
O108 O 0.5601 0.43727 0.91019 0.0
C109 C 0.7933 0.48381 0.9048 0.0
O110 O 0.64319 0.4982 0.9063 0.0
O111 O 0.7762 0.50836 0.91291 0.0
C112 C 0.30259 0.58183 0.20751 0.0
O113 O 0.30957 0.5477 0.2139 0.0
Cd114 Cd 0.27751 0.52854 0.23909 0.0
O115 O 0.2905 0.61111 0.21543 0.0
Cd116 Cd 0.28662 0.63428 0.24287 0.0
C117 C 0.16225 0.53442 0.23639 0.0
O118 O 0.33429 0.60034 0.25821 0.0
O119 O 0.27319 0.60814 0.26896 0.0
O120 O 0.36397 0.71986 0.23918 0.0
C121 C 0.31167 0.60016 0.2704 0.0
O122 O 0.18429 0.50665 0.23645 0.0
C123 C 0.34676 0.74808 0.24499 0.0
O124 O 0.19015 0.58495 0.23831 0.0
O125 O 0.30049 0.72344 0.24983 0.0
C126 C 0.76809 0.32126 0.55369 0.0
O127 O 0.81211 0.33013 0.55991 0.0
Cd128 Cd 0.80787 0.29857 0.58525 0.0
O129 O 0.72818 0.30519 0.56168 0.0
Cd130 Cd 0.71413 0.29968 0.58962 0.0
C131 C 0.6915 0.17736 0.58602 0.0
O132 O 0.80099 0.35667 0.60451 0.0
O133 O 0.74022 0.29077 0.61566 0.0
O134 O 0.70405 0.37534 0.58636 0.0
C135 C 0.78294 0.33576 0.61704 0.0
O136 O 0.74174 0.20237 0.58521 0.0
C137 C 0.66014 0.35777 0.59236 0.0
O138 O 0.66719 0.20277 0.5872 0.0
O139 O 0.63943 0.31139 0.59711 0.0
C140 C 0.3183 0.75183 0.86847 0.0
O141 O 0.32265 0.78711 0.87837 0.0
Cd142 Cd 0.36794 0.77329 0.90038 0.0
O143 O 0.32238 0.71396 0.87332 0.0
Cd144 Cd 0.30035 0.68833 0.90007 0.0
C145 C 0.39898 0.67684 0.89449 0.0
O146 O 0.32679 0.75178 0.92411 0.0
O147 O 0.34055 0.68589 0.92439 0.0
O148 O 0.21527 0.68173 0.89577 0.0
C149 C 0.33883 0.72305 0.93186 0.0
O150 O 0.41767 0.7267 0.8968 0.0
C151 C 0.18701 0.63325 0.89849 0.0
O152 O 0.34888 0.64488 0.89375 0.0
O153 O 0.21148 0.60896 0.90167 0.0
C154 C 0.60202 0.27168 0.203 0.0
O155 O 0.60426 0.31483 0.20705 0.0
Cd156 Cd 0.65126 0.35624 0.23215 0.0
O157 O 0.61598 0.24952 0.21287 0.0
Cd158 Cd 0.64064 0.25667 0.24066 0.0
C159 C 0.76251 0.34527 0.23216 0.0
O160 O 0.611 0.31117 0.255 0.0
O161 O 0.67799 0.30717 0.265 0.0
O162 O 0.55755 0.17348 0.2409 0.0
C163 C 0.64403 0.3211 0.26662 0.0
O164 O 0.74243 0.37455 0.23079 0.0
C165 C 0.57705 0.14687 0.2461 0.0
O166 O 0.73386 0.29704 0.23528 0.0
O167 O 0.62723 0.17174 0.24934 0.0
C168 C 0.38333 0.71776 0.95596 0.0
C169 C 0.34547 0.72731 0.94888 0.0
C170 C 0.37973 0.70311 0.97121 0.0
C171 C 0.33664 0.69712 0.97941 0.0
C172 C 0.30195 0.71275 0.97294 0.0
C173 C 0.30696 0.72803 0.95765 0.0
C174 C 0.41821 0.68781 0.97776 0.0
C175 C 0.25589 0.70745 0.9814 0.0
C176 C 0.27986 0.57693 0.00281 0.0
C177 C 0.30106 0.59999 0.01791 0.0
C178 C 0.28982 0.60846 -0.0097 0.0
C179 C 0.32197 0.66454 -0.00705 0.0
C180 C 0.34266 0.68823 0.00822 0.0
C181 C 0.332 0.65559 0.02056 0.0
C182 C 0.26692 0.58157 0.97416 0.0
C183 C 0.37707 0.7478 0.01146 0.0
H184 H 0.41331 0.7176 0.94911 0.0
H185 H 0.27755 0.73519 0.95209 0.0
H186 H 0.43047 0.70247 -0.00981 0.0
H187 H 0.39841 0.64382 0.97701 0.0
H188 H 0.45439 0.7037 0.97126 0.0
H189 H 0.24014 0.73144 0.97648 0.0
H190 H 0.22331 0.66514 0.98032 0.0
H191 H 0.26772 0.71989 -0.00603 0.0
H192 H 0.25565 0.53395 0.00071 0.0
H193 H 0.34827 0.67363 0.03222 0.0
H194 H 0.29966 0.58976 0.96671 0.0
H195 H 0.24367 0.59768 0.96874 0.0
H196 H 0.24059 0.53777 0.97422 0.0
H197 H 0.41566 0.76211 0.00636 0.0
H198 H 0.38511 0.76017 0.02411 0.0
H199 H 0.35784 0.76772 0.0059 0.0
C200 C 0.64065 0.28925 0.34965 0.0
C201 C 0.65549 0.3295 0.36155 0.0
C202 C 0.62964 0.29596 0.3343 0.0
C203 C 0.63317 0.34417 0.33071 0.0
C204 C 0.64298 0.3829 0.34288 0.0
C205 C 0.65439 0.37524 0.35823 0.0
C206 C 0.61883 0.25314 0.32177 0.0
C207 C 0.64513 0.43395 0.33967 0.0
C208 C 0.68829 0.37061 0.29192 0.0
C209 C 0.64147 0.34297 0.28203 0.0
C210 C 0.68647 0.37782 0.30793 0.0
C211 C 0.63645 0.3566 0.31417 0.0
C212 C 0.58963 0.33551 0.30399 0.0
C213 C 0.59261 0.32865 0.28791 0.0
C214 C 0.73767 0.40183 0.31827 0.0
C215 C 0.5359 0.315 0.31017 0.0
H216 H 0.64015 0.25321 0.3522 0.0
H217 H 0.66504 0.4062 0.36743 0.0
H218 H 0.58248 0.24227 0.31425 0.0
H219 H 0.65257 0.26821 0.31429 0.0
H220 H 0.61357 0.21657 0.32666 0.0
H221 H 0.63399 0.44961 0.34984 0.0
H222 H 0.68637 0.46434 0.33744 0.0
H223 H 0.61841 0.42847 0.32932 0.0
H224 H 0.72626 0.38286 0.28728 0.0
H225 H 0.55637 0.30789 0.28022 0.0
H226 H 0.73943 0.36989 0.32415 0.0
H227 H 0.73941 0.43054 0.32741 0.0
H228 H 0.7733 0.42259 0.3116 0.0
H229 H 0.52035 0.27384 0.31347 0.0
H230 H 0.50687 0.31415 0.30125 0.0
H231 H 0.53876 0.3398 0.32068 0.0
C232 C 0.19669 0.65066 0.67994 0.0
C233 C 0.21 0.70316 0.67817 0.0
C234 C 0.20598 0.6221 0.66827 0.0
C235 C 0.22901 0.6471 0.65477 0.0
C236 C 0.2329 0.69592 0.65184 0.0
C237 C 0.22298 0.72331 0.66361 0.0
C238 C 0.19808 0.56848 0.67129 0.0
C239 C 0.25536 0.72318 0.63733 0.0
C240 C 0.35009 0.64733 0.64186 0.0
C241 C 0.33184 0.62113 0.62695 0.0
C242 C 0.31581 0.65286 0.65145 0.0
C243 C 0.26159 0.63084 0.64608 0.0
C244 C 0.24186 0.60018 0.63162 0.0
C245 C 0.27742 0.59618 0.62212 0.0
C246 C 0.33892 0.68613 0.66679 0.0
C247 C 0.18416 0.57428 0.62564 0.0
H248 H 0.18534 0.63422 0.69101 0.0
H249 H 0.23214 0.76353 0.66213 0.0
H250 H 0.18176 0.5412 0.66053 0.0
H251 H 0.23701 0.573 0.67496 0.0
H252 H 0.1709 0.55019 0.6806 0.0
H253 H 0.24869 0.75673 0.63582 0.0
H254 H 0.29888 0.73904 0.63805 0.0
H255 H 0.23717 0.69461 0.62689 0.0
H256 H 0.39195 0.6662 0.64574 0.0
H257 H 0.26284 0.5751 0.61067 0.0
H258 H 0.31369 0.66571 0.67626 0.0
H259 H 0.3402 0.72436 0.66598 0.0
H260 H 0.37991 0.69499 0.67004 0.0
H261 H 0.15762 0.56449 0.63524 0.0
H262 H 0.17144 0.53733 0.61814 0.0
H263 H 0.17895 0.60183 0.61844 0.0
C264 C 0.55186 0.19341 0.00309 0.0
C265 C 0.59887 0.19783 0.00942 0.0
C266 C 0.54916 0.20884 -0.01192 0.0
C267 C 0.59438 0.2285 0.97939 0.0
C268 C 0.6389 0.22569 0.98499 0.0
C269 C 0.64074 0.21072 3e-05 0.0
C270 C 0.50057 0.21027 0.98239 0.0
C271 C 0.68754 0.24515 0.97599 0.0
C272 C 0.60111 0.27671 0.93904 0.0
C273 C 0.62619 0.33183 0.94262 0.0
C274 C 0.58804 0.24181 0.95087 0.0
C275 C 0.60061 0.26275 0.96659 0.0
C276 C 0.62408 0.31819 0.97024 0.0
C277 C 0.63661 0.35198 0.95821 0.0
C278 C 0.56282 0.183 0.94654 0.0
C279 C 0.63792 0.34223 -0.01313 0.0
H280 H 0.51951 0.18352 0.0104 0.0
H281 H 0.67693 0.21365 0.00495 0.0
H282 H 0.50833 0.25124 0.98465 0.0
H283 H 0.49132 0.19947 0.96968 0.0
H284 H 0.46524 0.18295 -0.01152 0.0
H285 H 0.71417 0.23147 0.98054 0.0
H286 H 0.67609 0.23131 0.96349 0.0
H287 H 0.7103 0.28928 0.97692 0.0
H288 H 0.5927 0.26086 0.92698 0.0
H289 H 0.65555 0.39445 0.96107 0.0
H290 H 0.53022 0.15952 0.954 0.0
H291 H 0.59307 0.17143 0.94841 0.0
H292 H 0.54671 0.17214 0.93417 0.0
H293 H 0.60242 0.32249 -0.00639 0.0
H294 H 0.65312 0.38561 -0.01229 0.0
H295 H 0.66885 0.3359 -0.00755 0.0
C296 C 0.38432 0.61039 0.28923 0.0
C297 C 0.33094 0.59509 0.28588 0.0
C298 C 0.40501 0.61645 0.30469 0.0
C299 C 0.37127 0.60678 0.31685 0.0
C300 C 0.31619 0.58596 0.3133 0.0
C301 C 0.29678 0.5806 0.29784 0.0
C302 C 0.46367 0.63757 0.308 0.0
C303 C 0.27851 0.57418 0.3259 0.0
C304 C 0.39923 0.60876 0.36002 0.0
C305 C 0.40442 0.65742 0.36499 0.0
C306 C 0.39382 0.59333 0.34409 0.0
C307 C 0.3937 0.62752 0.33309 0.0
C308 C 0.4049 0.67903 0.33815 0.0
C309 C 0.40993 0.69324 0.35406 0.0
C310 C 0.38332 0.53867 0.33911 0.0
C311 C 0.40611 0.7172 0.32681 0.0
H312 H 0.4107 0.62116 0.27994 0.0
H313 H 0.25521 0.56766 0.2952 0.0
H314 H 0.48479 0.68126 0.31074 0.0
H315 H 0.47125 0.61995 0.31817 0.0
H316 H 0.48087 0.62947 0.2978 0.0
H317 H 0.23619 0.55242 0.32114 0.0
H318 H 0.28384 0.55018 0.33453 0.0
H319 H 0.28731 0.61207 0.33213 0.0
H320 H 0.39558 0.58121 0.36849 0.0
H321 H 0.41518 0.73142 0.35792 0.0
H322 H 0.40225 0.53896 0.32827 0.0
H323 H 0.33982 0.5109 0.33676 0.0
H324 H 0.39813 0.52314 0.34832 0.0
H325 H 0.43084 0.71984 0.31719 0.0
H326 H 0.42202 0.75779 0.33249 0.0
H327 H 0.36513 0.70247 0.32162 0.0
C328 C 0.66802 0.42859 0.67236 0.0
C329 C 0.68645 0.44741 0.68791 0.0
C330 C 0.70031 0.4227 0.66204 0.0
C331 C 0.75266 0.43666 0.66739 0.0
C332 C 0.77316 0.46028 0.68267 0.0
C333 C 0.73954 0.46491 0.69284 0.0
C334 C 0.67685 0.39786 0.64573 0.0
C335 C 0.82929 0.4777 0.68867 0.0
C336 C 0.77933 0.34137 0.64552 0.0
C337 C 0.79759 0.36776 0.63205 0.0
C338 C 0.7709 0.36627 0.65832 0.0
C339 C 0.78165 0.41887 0.65756 0.0
C340 C 0.80879 0.44848 0.64513 0.0
C341 C 0.81637 0.42237 0.63238 0.0
C342 C 0.74336 0.33365 0.67157 0.0
C343 C 0.8237 0.50561 0.64438 0.0
H344 H 0.62729 0.41574 0.66841 0.0
H345 H 0.75435 0.48037 0.70481 0.0
H346 H 0.70296 0.4233 0.63704 0.0
H347 H 0.67389 0.3587 0.64412 0.0
H348 H 0.63654 0.39179 0.64321 0.0
H349 H 0.84457 0.51061 0.698 0.0
H350 H 0.82971 0.44387 0.69372 0.0
H351 H 0.85672 0.49087 0.67926 0.0
H352 H 0.76603 0.29943 0.64539 0.0
H353 H 0.83145 0.44328 0.62207 0.0
H354 H 0.70106 0.32278 0.67065 0.0
H355 H 0.76196 0.35688 0.6829 0.0
H356 H 0.74458 0.29646 0.67146 0.0
H357 H 0.78859 0.50691 0.63969 0.0
H358 H 0.85619 0.52659 0.63663 0.0
H359 H 0.83643 0.52717 0.65612 0.0
C360 C 0.34146 0.57795 0.18278 0.0
C361 C 0.30507 0.58569 0.19065 0.0
C362 C 0.34259 0.58019 0.16661 0.0
C363 C 0.30505 0.58824 0.1582 0.0
C364 C 0.26838 0.59625 0.16616 0.0
C365 C 0.2695 0.5958 0.18235 0.0
C366 C 0.38337 0.57327 0.15851 0.0
C367 C 0.22662 0.60321 0.15754 0.0
C368 C 0.31922 0.62847 0.11686 0.0
C369 C 0.28774 0.57901 0.10843 0.0
C370 C 0.32737 0.63197 0.1331 0.0
C371 C 0.30165 0.58505 0.14099 0.0
C372 C 0.26985 0.53503 0.13247 0.0
C373 C 0.26408 0.53257 0.11624 0.0
C374 C 0.36294 0.68575 0.14182 0.0
C375 C 0.24035 0.48432 0.14051 0.0
H376 H 0.36925 0.57061 0.18928 0.0
H377 H 0.24107 0.60133 0.18848 0.0
H378 H 0.36324 0.53547 0.15098 0.0
H379 H 0.40477 0.60598 0.15088 0.0
H380 H 0.41294 0.57263 0.16687 0.0
H381 H 0.20129 0.60932 0.16553 0.0
H382 H 0.24574 0.63774 0.15043 0.0
H383 H 0.20063 0.56752 0.14946 0.0
H384 H 0.3379 0.66426 0.11073 0.0
H385 H 0.23943 0.49438 0.10966 0.0
H386 H 0.39303 0.68459 0.1498 0.0
H387 H 0.339 0.69634 0.14906 0.0
H388 H 0.38388 0.71755 0.13386 0.0
H389 H 0.2687 0.47881 0.14796 0.0
H390 H 0.21739 0.44868 0.13214 0.0
H391 H 0.21239 0.48687 0.14821 0.0
C392 C 0.75368 0.33853 0.46285 0.0
C393 C 0.72507 0.36201 0.45765 0.0
C394 C 0.76373 0.3366 0.47872 0.0
C395 C 0.74609 0.36009 0.48971 0.0
C396 C 0.72004 0.38677 0.48458 0.0
C397 C 0.70903 0.38669 0.46856 0.0
C398 C 0.79043 0.30659 0.48367 0.0
C399 C 0.70225 0.41377 0.49601 0.0
C400 C 0.71517 0.2986 0.52826 0.0
C401 C 0.76297 0.3315 0.53737 0.0
C402 C 0.70898 0.30794 0.51276 0.0
C403 C 0.751 0.35239 0.50644 0.0
C404 C 0.79881 0.38676 0.51577 0.0
C405 C 0.80463 0.3753 0.53108 0.0
C406 C 0.65803 0.26936 0.50305 0.0
C407 C 0.84374 0.43545 0.50956 0.0
H408 H 0.766 0.31908 0.45451 0.0
H409 H 0.68723 0.40519 0.46459 0.0
H410 H 0.82558 0.33213 0.49197 0.0
H411 H 0.76237 0.27169 0.48975 0.0
H412 H 0.80352 0.29233 0.47366 0.0
H413 H 0.68937 0.43881 0.49024 0.0
H414 H 0.66843 0.38337 0.50196 0.0
H415 H 0.73492 0.43903 0.50509 0.0
H416 H 0.68299 0.26476 0.53317 0.0
H417 H 0.84125 0.40127 0.53826 0.0
H418 H 0.66704 0.25143 0.49294 0.0
H419 H 0.63879 0.29055 0.4984 0.0
H420 H 0.62923 0.23684 0.50976 0.0
H421 H 0.86054 0.42337 0.50008 0.0
H422 H 0.87628 0.46056 0.51871 0.0
H423 H 0.82862 0.45977 0.50453 0.0
C424 C 0.20633 0.69332 0.77935 0.0
C425 C 0.24233 0.73272 0.77036 0.0
C426 C 0.21522 0.69841 0.79563 0.0
C427 C 0.26155 0.74353 0.80302 0.0
C428 C 0.2968 0.78435 0.79407 0.0
C429 C 0.28655 0.77865 0.77788 0.0
C430 C 0.17622 0.65452 0.80486 0.0
C431 C 0.34698 0.83276 0.80149 0.0
C432 C 0.27702 0.77576 0.84678 0.0
C433 C 0.30567 0.75216 0.85176 0.0
C434 C 0.26131 0.77239 0.83095 0.0
C435 C 0.27586 0.746 0.8199 0.0
C436 C 0.3057 0.72303 0.82488 0.0
C437 C 0.31966 0.72584 0.84078 0.0
C438 C 0.22858 0.79636 0.82607 0.0
C439 C 0.32308 0.69562 0.81343 0.0
H440 H 0.17188 0.65791 0.77366 0.0
H441 H 0.31463 0.80945 0.77108 0.0
H442 H 0.19494 0.63313 0.80973 0.0
H443 H 0.16536 0.67136 0.8148 0.0
H444 H 0.1393 0.62532 0.79763 0.0
H445 H 0.3683 0.86259 0.79303 0.0
H446 H 0.3376 0.85201 0.81115 0.0
H447 H 0.37418 0.82052 0.80651 0.0
H448 H 0.26556 0.79551 0.8553 0.0
H449 H 0.34192 0.70765 0.84462 0.0
H450 H 0.19047 0.76527 0.81977 0.0
H451 H 0.24998 0.82727 0.81794 0.0
H452 H 0.21964 0.81457 0.83614 0.0
H453 H 0.28775 0.66159 0.80682 0.0
H454 H 0.34693 0.68068 0.81921 0.0
H455 H 0.34728 0.72357 0.80489 0.0
C456 C 0.54141 0.15392 0.11297 0.0
C457 C 0.59135 0.18243 0.10708 0.0
C458 C 0.53521 0.16262 0.12868 0.0
C459 C 0.58024 0.19985 0.13863 0.0
C460 C 0.63107 0.22677 0.13282 0.0
C461 C 0.63587 0.2181 0.11709 0.0
C462 C 0.48036 0.13374 0.13445 0.0
C463 C 0.68033 0.26585 0.14313 0.0
C464 C 0.57667 0.27444 0.17505 0.0
C465 C 0.58728 0.24855 0.18666 0.0
C466 C 0.57026 0.2565 0.15929 0.0
C467 C 0.57502 0.212 0.15511 0.0
C468 C 0.58219 0.18369 0.16682 0.0
C469 C 0.58801 0.20217 0.18244 0.0
C470 C 0.56175 0.2872 0.1471 0.0
C471 C 0.58768 0.1362 0.16285 0.0
H472 H 0.50688 0.12681 0.10516 0.0
H473 H 0.67455 0.23999 0.11252 0.0
H474 H 0.48058 0.11421 0.14512 0.0
H475 H 0.46809 0.16274 0.13758 0.0
H476 H 0.45021 0.10319 0.12558 0.0
H477 H 0.71716 0.28136 0.13695 0.0
H478 H 0.67676 0.29997 0.14743 0.0
H479 H 0.68447 0.24669 0.15343 0.0
H480 H 0.5755 0.30995 0.1782 0.0
H481 H 0.59557 0.18144 0.19133 0.0
H482 H 0.52952 0.25966 0.1382 0.0
H483 H 0.59863 0.30961 0.14108 0.0
H484 H 0.55151 0.3159 0.15221 0.0
H485 H 0.5559 0.10815 0.15392 0.0
H486 H 0.58601 0.11451 0.17321 0.0
H487 H 0.62639 0.14972 0.1579 0.0
C488 C 0.40163 0.59647 0.53294 0.0
C489 C 0.38358 0.62903 0.53895 0.0
C490 C 0.40655 0.59186 0.51694 0.0
C491 C 0.39503 0.6221 0.50692 0.0
C492 C 0.37646 0.65474 0.51297 0.0
C493 C 0.37013 0.65708 0.52888 0.0
C494 C 0.42464 0.55528 0.51079 0.0
C495 C 0.36505 0.68869 0.50274 0.0
C496 C 0.4606 0.66529 0.46941 0.0
C497 C 0.417 0.63624 0.45841 0.0
C498 C 0.45468 0.65919 0.48531 0.0
C499 C 0.40435 0.6219 0.4902 0.0
C500 C 0.36137 0.58933 0.47902 0.0
C501 C 0.36794 0.59762 0.46323 0.0
C502 C 0.50111 0.69567 0.49689 0.0
C503 C 0.30765 0.54788 0.48377 0.0
H504 H 0.41176 0.57455 0.54075 0.0
H505 H 0.35672 0.68272 0.53356 0.0
H506 H 0.39671 0.52819 0.50094 0.0
H507 H 0.46431 0.57891 0.50628 0.0
H508 H 0.42735 0.53101 0.51987 0.0
H509 H 0.35165 0.71247 0.50934 0.0
H510 H 0.40139 0.7163 0.49711 0.0
H511 H 0.33379 0.66328 0.49334 0.0
H512 H 0.49845 0.69545 0.46567 0.0
H513 H 0.33434 0.57483 0.45468 0.0
H514 H 0.50741 0.67262 0.50565 0.0
H515 H 0.49233 0.7237 0.50321 0.0
H516 H 0.53862 0.71915 0.4912 0.0
H517 H 0.31217 0.52462 0.49285 0.0
H518 H 0.28158 0.52007 0.47375 0.0
H519 H 0.28751 0.56768 0.4888 0.0
C520 C 0.6543 0.40371 0.84657 0.0
C521 C 0.60689 0.38755 0.85362 0.0
C522 C 0.65807 0.41459 0.83092 0.0
C523 C 0.61377 0.41048 0.82229 0.0
C524 C 0.56539 0.393 0.82926 0.0
C525 C 0.56233 0.38106 0.84483 0.0
C526 C 0.70979 0.43161 0.82373 0.0
C527 C 0.5176 0.38896 0.82045 0.0
C528 C 0.64157 0.49231 0.78745 0.0
C529 C 0.62559 0.45317 0.77516 0.0
C530 C 0.63747 0.47887 0.80291 0.0
C531 C 0.61831 0.42536 0.80604 0.0
C532 C 0.60335 0.38598 0.79366 0.0
C533 C 0.60657 0.40027 0.77835 0.0
C534 C 0.65285 0.52167 0.81588 0.0
C535 C 0.58406 0.32881 0.79656 0.0
H536 H 0.68873 0.40854 0.85338 0.0
H537 H 0.52587 0.3692 0.85035 0.0
H538 H 0.70243 0.4062 0.81289 0.0
H539 H 0.72751 0.47312 0.82052 0.0
H540 H 0.7392 0.42935 0.83173 0.0
H541 H 0.48272 0.37393 0.82749 0.0
H542 H 0.52779 0.42866 0.81686 0.0
H543 H 0.5061 0.36206 0.8097 0.0
H544 H 0.656 0.53312 0.78497 0.0
H545 H 0.59473 0.36999 0.76884 0.0
H546 H 0.68553 0.52508 0.82379 0.0
H547 H 0.61851 0.51088 0.82289 0.0
H548 H 0.66602 0.56112 0.81146 0.0
H549 H 0.61442 0.32668 0.80413 0.0
H550 H 0.57555 0.30342 0.78562 0.0
H551 H 0.54729 0.31213 0.80277 0.0
C552 C 0.83307 0.33479 0.07146 0.0
C553 C 0.79944 0.28575 0.063 0.0
C554 C 0.88856 0.36054 0.07103 0.0
C555 C 0.91071 0.33753 0.0615 0.0
C556 C 0.8769 0.28755 0.05313 0.0
C557 C 0.8217 0.26188 0.05418 0.0
C558 C 0.92337 0.41303 0.08049 0.0
C559 C 0.89875 0.2624 0.04249 0.0
C560 C 0.04378 0.43688 0.04727 0.0
C561 C 0.07932 0.42977 0.05675 0.0
C562 C 0.98869 0.40558 0.04829 0.0
C563 C 0.96879 0.36755 0.05946 0.0
C564 C 0.00454 0.35977 0.06895 0.0
C565 C 0.05947 0.39046 0.0673 0.0
C566 C 0.95185 0.41395 0.03759 0.0
C567 C 0.98501 0.32066 0.08127 0.0
H568 H 0.81594 0.35312 0.07837 0.0
H569 H 0.79572 0.22418 0.0475 0.0
H570 H 0.95576 0.41228 0.08741 0.0
H571 H 0.94233 0.44536 0.0726 0.0
H572 H 0.90051 0.42278 0.08851 0.0
H573 H 0.86748 0.22216 0.03742 0.0
H574 H 0.91691 0.28797 0.03285 0.0
H575 H 0.93057 0.25922 0.04886 0.0
H576 H 0.05919 0.46716 0.03905 0.0
H577 H 0.08707 0.38544 0.07476 0.0
H578 H 0.93159 0.43013 0.04447 0.0
H579 H 0.92051 0.37544 0.03156 0.0
H580 H 0.97333 0.44186 0.02871 0.0
H581 H 0.96603 0.33291 0.09003 0.0
H582 H 0.0177 0.31797 0.08732 0.0
H583 H 0.95429 0.28053 0.07606 0.0
C584 C 0.5681 0.1205 0.42328 0.0
C585 C 0.60738 0.14333 0.41277 0.0
C586 C 0.54144 0.06568 0.42502 0.0
C587 C 0.55306 0.0327 0.41564 0.0
C588 C 0.59235 0.05558 0.40489 0.0
C589 C 0.61972 0.1108 0.40378 0.0
C590 C 0.50122 0.04314 0.43699 0.0
C591 C 0.6049 0.02161 0.39438 0.0
C592 C 0.52358 0.89732 0.42683 0.0
C593 C 0.47574 0.86313 0.41785 0.0
C594 C 0.54777 0.95271 0.42682 0.0
C595 C 0.5246 0.97431 0.41712 0.0
C596 C 0.4756 0.93987 0.40827 0.0
C597 C 0.45126 0.88458 0.40895 0.0
C598 C 0.59892 0.98804 0.43686 0.0
C599 C 0.45034 0.96123 0.39748 0.0
H600 H 0.5588 0.14574 0.43032 0.0
H601 H 0.64972 0.12838 0.39555 0.0
H602 H 0.46142 0.01378 0.43123 0.0
H603 H 0.51236 0.02182 0.4452 0.0
H604 H 0.49813 0.07445 0.44374 0.0
H605 H 0.63482 0.04526 0.38619 0.0
H606 H 0.62037 0.0011 0.40144 0.0
H607 H 0.56806 0.99041 0.38754 0.0
H608 H 0.54241 0.88062 0.43373 0.0
H609 H 0.41463 0.85803 0.40184 0.0
H610 H 0.5961 0.01915 0.44379 0.0
H611 H 0.63228 0.00861 0.42939 0.0
H612 H 0.60865 0.96528 0.44492 0.0
H613 H 0.44449 0.99114 0.40391 0.0
H614 H 0.41131 0.92935 0.39182 0.0
H615 H 0.47725 0.9816 0.38829 0.0
C616 C 0.52624 0.57793 0.70792 0.0
C617 C 0.50957 0.53399 0.71674 0.0
C618 C 0.4971 0.60358 0.7067 0.0
C619 C 0.45118 0.58599 0.71494 0.0
C620 C 0.43388 0.54126 0.72376 0.0
C621 C 0.46287 0.51524 0.72436 0.0
C622 C 0.51572 0.64976 0.69669 0.0
C623 C 0.38569 0.52191 0.73295 0.0
C624 C 0.40709 0.68445 0.72506 0.0
C625 C 0.36156 0.66512 0.7148 0.0
C626 C 0.43682 0.65913 0.72522 0.0
C627 C 0.42157 0.61472 0.71448 0.0
C628 C 0.37714 0.59692 0.70357 0.0
C629 C 0.34706 0.62162 0.70409 0.0
C630 C 0.48321 0.67852 0.73727 0.0
C631 C 0.36063 0.55109 0.69155 0.0
H632 H 0.56221 0.59225 0.70194 0.0
H633 H 0.45026 0.48161 0.73131 0.0
H634 H 0.48278 0.64283 0.6882 0.0
H635 H 0.52755 0.68668 0.70404 0.0
H636 H 0.55011 0.65623 0.69023 0.0
H637 H 0.37786 0.48703 0.73938 0.0
H638 H 0.39148 0.55437 0.74143 0.0
H639 H 0.34995 0.51074 0.72508 0.0
H640 H 0.41784 0.7176 0.73348 0.0
H641 H 0.31172 0.60656 0.69618 0.0
H642 H 0.52001 0.68911 0.73154 0.0
H643 H 0.47573 0.64623 0.74482 0.0
H644 H 0.49016 0.71374 0.7447 0.0
H645 H 0.39529 0.55737 0.68528 0.0
H646 H 0.3287 0.54589 0.68291 0.0
H647 H 0.34595 0.51371 0.69736 0.0
C648 C 0.6174 0.09342 0.59498 0.0
C649 C 0.66191 0.11873 0.58635 0.0
C650 C 0.59051 0.03817 0.59608 0.0
C651 C 0.60743 0.00717 0.58792 0.0
C652 C 0.65196 0.03251 0.57901 0.0
C653 C 0.6792 0.08809 0.57854 0.0
C654 C 0.54405 0.01298 0.60601 0.0
C655 C 0.67018 0.00082 0.56971 0.0
C656 C 0.56042 0.86688 0.59961 0.0
C657 C 0.51428 0.83663 0.58957 0.0
C658 C 0.59144 0.92255 0.5992 0.0
C659 C 0.57681 0.94804 0.58814 0.0
C660 C 0.53145 0.91709 0.57756 0.0
C661 C 0.50033 0.86202 0.57858 0.0
C662 C 0.6387 0.95427 0.61094 0.0
C663 C 0.51528 0.94222 0.56526 0.0
H664 H 0.60434 0.11705 0.60121 0.0
H665 H 0.71352 0.10753 0.57182 0.0
H666 H 0.50699 0.98552 0.59861 0.0
H667 H 0.55023 0.98907 0.61451 0.0
H668 H 0.53823 0.04299 0.61246 0.0
H669 H 0.7055 0.0265 0.56338 0.0
H670 H 0.68021 0.97766 0.57748 0.0
H671 H 0.63745 0.97188 0.56114 0.0
H672 H 0.57101 0.84732 0.60817 0.0
H673 H 0.4649 0.83857 0.57069 0.0
H674 H 0.63237 0.98215 0.61834 0.0
H675 H 0.67519 0.97861 0.60495 0.0
H676 H 0.64548 0.9285 0.61856 0.0
H677 H 0.50336 0.96886 0.57085 0.0
H678 H 0.48156 0.91212 0.55714 0.0
H679 H 0.54946 0.96696 0.55843 0.0
C680 C 0.48554 0.68553 0.90321 0.0
C681 C 0.43555 0.65615 0.89478 0.0
C682 C 0.51774 0.6636 0.90566 0.0
C683 C 0.50014 0.61156 0.89919 0.0
C684 C 0.45106 0.5829 0.88993 0.0
C685 C 0.41896 0.60523 0.88803 0.0
C686 C 0.56909 0.69495 0.91591 0.0
C687 C 0.43154 0.52782 0.88247 0.0
C688 C 0.59544 0.56033 0.89659 0.0
C689 C 0.57915 0.52497 0.90829 0.0
C690 C 0.57112 0.59007 0.89371 0.0
C691 C 0.53072 0.58527 0.90305 0.0
C692 C 0.51691 0.55235 0.91557 0.0
C693 C 0.54064 0.52188 0.91786 0.0
C694 C 0.58619 0.62383 0.88006 0.0
C695 C 0.47532 0.54743 0.92613 0.0
H696 H 0.49833 0.72473 0.90861 0.0
H697 H 0.38047 0.5825 0.88147 0.0
H698 H 0.56541 0.6752 0.92681 0.0
H699 H 0.60245 0.696 0.91009 0.0
H700 H 0.57931 0.73644 0.91898 0.0
H701 H 0.39556 0.51328 0.87431 0.0
H702 H 0.46321 0.52747 0.87604 0.0
H703 H 0.42169 0.4996 0.89161 0.0
H704 H 0.62463 0.56207 0.88902 0.0
H705 H 0.52806 0.49449 0.92691 0.0
H706 H 0.59464 0.66435 0.88363 0.0
H707 H 0.55229 0.60597 0.871 0.0
H708 H 0.62153 0.62717 0.87483 0.0
H709 H 0.48372 0.58741 0.93041 0.0
H710 H 0.47347 0.52491 0.9363 0.0
H711 H 0.43562 0.52663 0.91955 0.0
C712 C 0.0742 0.45963 0.22494 0.0
C713 C 0.10362 0.50721 0.23445 0.0
C714 C 0.01835 0.43227 0.22339 0.0
C715 C 0.99134 0.45202 0.232 0.0
C716 C 0.02097 0.50011 0.24163 0.0
C717 C 0.07683 0.52762 0.24253 0.0
C718 C 0.98826 0.38218 0.21259 0.0
C719 C -0.00631 0.52175 0.25131 0.0
C720 C 0.84713 0.40888 0.22102 0.0
C721 C 0.82028 0.369 0.23109 0.0
C722 C 0.90266 0.43483 0.22076 0.0
C723 C 0.93213 0.42187 0.23122 0.0
C724 C 0.90507 0.38122 0.24131 0.0
C725 C 0.84932 0.35463 0.24094 0.0
C726 C 0.92984 0.47663 0.20945 0.0
C727 C 0.93513 0.36722 0.25293 0.0
H728 H 0.09496 0.44407 0.21859 0.0
H729 H 0.09958 0.5642 0.24999 0.0
H730 H 0.96404 0.34766 0.21934 0.0
H731 H 0.96038 0.38539 0.20421 0.0
H732 H 0.01523 0.37405 0.20597 0.0
H733 H 0.02249 0.55919 0.25838 0.0
H734 H 0.96734 0.52952 0.24369 0.0
H735 H 0.96819 0.49186 0.25924 0.0
H736 H 0.82461 0.41982 0.21334 0.0
H737 H 0.82862 0.32422 0.24886 0.0
H738 H 0.95624 0.46813 0.20269 0.0
H739 H 0.95522 0.51618 0.2159 0.0
H740 H 0.9009 0.47878 0.20121 0.0
H741 H 0.96019 0.35512 0.24686 0.0
H742 H 0.90814 0.33449 0.2599 0.0
H743 H 0.96221 0.40268 0.26096 0.0
C744 C 0.49023 0.30253 0.06851 0.0
C745 C 0.53546 0.32421 0.06008 0.0
C746 C 0.45685 0.32363 0.06846 0.0
C747 C 0.46838 0.36691 0.05952 0.0
C748 C 0.51419 0.38923 0.05105 0.0
C749 C 0.54752 0.36791 0.05154 0.0
C750 C 0.40904 0.29939 0.07791 0.0
C751 C 0.5274 0.43495 0.04122 0.0
C752 C 0.35348 0.38689 0.04791 0.0
C753 C 0.36355 0.42938 0.05844 0.0
C754 C 0.38768 0.36658 0.04799 0.0
C755 C 0.43237 0.38868 0.05906 0.0
C756 C 0.4422 0.43103 0.06987 0.0
C757 C 0.40796 0.45116 0.06934 0.0
C758 C 0.37625 0.32179 0.03616 0.0
C759 C 0.48876 0.45493 0.08206 0.0
H760 H 0.48086 0.26889 0.0752 0.0
H761 H 0.5822 0.38451 0.04491 0.0
H762 H 0.41051 0.33041 0.08611 0.0
H763 H 0.372 0.28288 0.07012 0.0
H764 H 0.40671 0.26709 0.08467 0.0
H765 H 0.56436 0.44768 0.03529 0.0
H766 H 0.49408 0.42328 0.03227 0.0
H767 H 0.53235 0.46945 0.04855 0.0
H768 H 0.31942 0.37014 0.0394 0.0
H769 H 0.41581 0.48386 0.07756 0.0
H770 H 0.36975 0.28659 0.04215 0.0
H771 H 0.411 0.33391 0.02923 0.0
H772 H 0.34064 0.3099 0.0281 0.0
H773 H 0.48612 0.42368 0.08935 0.0
H774 H 0.49045 0.48722 0.08975 0.0
H775 H 0.52658 0.4713 0.07639 0.0
C776 C 0.93637 0.39526 0.40752 0.0
C777 C 0.90367 0.40986 0.39959 0.0
C778 C 0.9921 0.42816 0.40846 0.0
C779 C 0.01559 0.47579 0.40081 0.0
C780 C 0.98259 0.48945 0.39224 0.0
C781 C 0.92703 0.45683 0.39198 0.0
C782 C 0.02578 0.41289 0.41807 0.0
C783 C 0.00595 0.53881 0.38347 0.0
C784 C 0.15545 0.58855 0.4148 0.0
C785 C 0.18653 0.57932 0.40478 0.0
C786 C 0.0998 0.55478 0.41376 0.0
C787 C 0.07459 0.51191 0.40207 0.0
C788 C 0.10582 0.50347 0.39163 0.0
C789 C 0.16147 0.53671 0.39329 0.0
C790 C 0.06811 0.5643 0.42537 0.0
C791 C 0.08046 0.45945 0.37868 0.0
H792 H 0.91831 0.35926 0.41357 0.0
H793 H 0.90172 0.46804 0.38578 0.0
H794 H 0.05411 0.40936 0.4108 0.0
H795 H 0.04971 0.44449 0.42754 0.0
H796 H 0.0014 0.37466 0.42332 0.0
H797 H 0.97498 0.5416 0.3764 0.0
H798 H 0.02773 0.57471 0.39175 0.0
H799 H 0.03508 0.53924 0.37565 0.0
H800 H 0.1748 0.6212 0.42378 0.0
H801 H 0.18544 0.52974 0.38545 0.0
H802 H 0.04502 0.52818 0.43166 0.0
H803 H 0.0391 0.57222 0.41927 0.0
H804 H 0.09383 0.59839 0.43402 0.0
H805 H 0.05925 0.42029 0.38361 0.0
H806 H 0.11013 0.45988 0.37107 0.0
H807 H 0.05048 0.46319 0.37143 0.0
C808 C 0.44739 0.20402 0.71063 0.0
C809 C 0.48876 0.23921 0.72166 0.0
C810 C 0.42458 0.14867 0.71083 0.0
C811 C 0.44316 0.12815 0.72245 0.0
C812 C 0.48425 0.16352 0.73377 0.0
C813 C 0.50671 0.21852 0.73319 0.0
C814 C 0.38109 0.11217 0.6985 0.0
C815 C 0.50474 0.14331 0.74647 0.0
C816 C 0.35355 0.98429 0.7313 0.0
C817 C 0.37617 0.95885 0.7234 0.0
C818 C 0.3751 0.03936 0.73116 0.0
C819 C 0.41998 0.06969 0.72276 0.0
C820 C 0.44319 0.04429 0.71484 0.0
C821 C 0.42121 0.98923 0.71534 0.0
C822 C 0.34974 0.06507 0.73997 0.0
C823 C 0.4909 0.07519 0.70569 0.0
H824 H 0.43349 0.21974 0.70168 0.0
H825 H 0.53847 0.24542 0.74182 0.0
H826 H 0.39366 0.08793 0.69178 0.0
H827 H 0.34464 0.0842 0.70401 0.0
H828 H 0.37101 0.13434 0.6903 0.0
H829 H 0.53587 0.17603 0.75465 0.0
H830 H 0.47149 0.11575 0.75318 0.0
H831 H 0.52169 0.12054 0.74128 0.0
H832 H 0.31879 0.9611 0.73759 0.0
H833 H 0.4387 0.96981 0.70913 0.0
H834 H 0.33563 0.08428 0.73185 0.0
H835 H 0.37957 0.09671 0.74864 0.0
H836 H 0.31551 0.03603 0.74612 0.0
H837 H 0.48137 0.09513 0.69657 0.0
H838 H 0.50388 0.04945 0.70003 0.0
H839 H 0.52467 0.10677 0.71345 0.0
C840 C 0.56396 0.56749 0.60582 0.0
C841 C 0.51991 0.55377 0.5954 0.0
C842 C 0.58627 0.53504 0.60645 0.0
C843 C 0.56449 0.48822 0.59626 0.0
C844 C 0.51991 0.47417 0.58577 0.0
C845 C 0.49801 0.50688 0.58554 0.0
C846 C 0.6335 0.55112 0.61789 0.0
C847 C 0.49595 0.4251 0.57454 0.0
C848 C 0.65318 0.43516 0.58496 0.0
C849 C 0.63523 0.39064 0.59362 0.0
C850 C 0.6309 0.46743 0.58586 0.0
C851 C 0.59 0.45546 0.59584 0.0
C852 C 0.57227 0.41111 0.60485 0.0
C853 C 0.59484 0.37893 0.60354 0.0
C854 C 0.65062 0.51392 0.57593 0.0
C855 C 0.52933 0.39756 0.6158 0.0
H856 H 0.58086 0.60346 0.61355 0.0
H857 H 0.46403 0.49599 0.57742 0.0
H858 H 0.62531 0.5179 0.62513 0.0
H859 H 0.66872 0.5599 0.61154 0.0
H860 H 0.64362 0.58675 0.62568 0.0
H861 H 0.46045 0.41896 0.5674 0.0
H862 H 0.52599 0.42841 0.56661 0.0
H863 H 0.48421 0.38939 0.58097 0.0
H864 H 0.6844 0.44451 0.57725 0.0
H865 H 0.58126 0.34498 0.6104 0.0
H866 H 0.66519 0.55134 0.58336 0.0
H867 H 0.6174 0.50871 0.56788 0.0
H868 H 0.68329 0.51834 0.56895 0.0
H869 H 0.5406 0.4325 0.62404 0.0
H870 H 0.5219 0.3635 0.62257 0.0
H871 H 0.49168 0.3875 0.60913 0.0
C872 C 0.10236 0.63052 0.89119 0.0
C873 C 0.12853 0.60768 0.89856 0.0
C874 C 0.04755 0.60932 0.89195 0.0
C875 C 0.01826 0.56471 0.90053 0.0
C876 C 0.04434 0.54109 0.90788 0.0
C877 C 0.09914 0.56258 0.90668 0.0
C878 C 0.02111 0.63503 0.88368 0.0
C879 C 0.01459 0.49393 0.91731 0.0
C880 C 0.88888 0.5452 0.91457 0.0
C881 C 0.85087 0.5047 0.9038 0.0
C882 C 0.94346 0.56437 0.91383 0.0
C883 C 0.96043 0.54319 0.90188 0.0
C884 C 0.9222 0.50253 0.89093 0.0
C885 C 0.8679 0.48348 0.8921 0.0
C886 C 0.98299 0.60729 0.92585 0.0
C887 C 0.93867 0.47961 0.87784 0.0
H888 H 0.12484 0.66526 0.88483 0.0
H889 H 0.11929 0.54506 0.9125 0.0
H890 H 0.98727 0.60505 0.8756 0.0
H891 H 0.0047 0.65092 0.89226 0.0
H892 H 0.04907 0.66808 0.87696 0.0
H893 H 0.04053 0.47992 0.9222 0.0
H894 H -0.00244 0.50466 0.92703 0.0
H895 H 0.98086 0.46056 0.90999 0.0
H896 H 0.87594 0.5615 0.9237 0.0
H897 H 0.83873 0.4523 0.8837 0.0
H898 H 0.01008 0.6435 0.9201 0.0
H899 H 0.00795 0.59393 0.93178 0.0
H900 H 0.96325 0.61805 0.93475 0.0
H901 H 0.96481 0.51159 0.87054 0.0
H902 H 0.904 0.44805 0.8703 0.0
H903 H 0.96198 0.4626 0.88261 0.0
C904 C 0.42106 0.8318 0.23624 0.0
C905 C 0.37971 0.80681 0.24601 0.0
C906 C 0.45322 0.88737 0.23698 0.0
C907 C 0.44471 0.91879 0.24804 0.0
C908 C 0.40356 0.89378 0.25812 0.0
C909 C 0.37105 0.83801 0.25685 0.0
C910 C 0.49575 0.91246 0.22575 0.0
C911 C 0.39397 0.92593 0.27026 0.0
C912 C 0.55975 0.06153 0.25656 0.0
C913 C 0.54263 0.08905 0.24744 0.0
C914 C 0.52741 0.00626 0.25735 0.0
C915 C 0.4775 0.97786 0.24849 0.0
C916 C 0.46 0.00562 0.23936 0.0
C917 C 0.49248 0.06087 0.23909 0.0
C918 C 0.54691 0.97816 0.26747 0.0
C919 C 0.40769 0.97677 0.22947 0.0
H920 H 0.42776 0.80784 0.22778 0.0
H921 H 0.33945 0.81879 0.26452 0.0
H922 H 0.48836 0.93883 0.2186 0.0
H923 H 0.53534 0.93752 0.23222 0.0
H924 H 0.49715 0.88237 0.21783 0.0
H925 H 0.36223 0.90038 0.27773 0.0
H926 H 0.43119 0.95221 0.27775 0.0
H927 H 0.38234 0.95193 0.26454 0.0
H928 H 0.59834 0.0832 0.2631 0.0
H929 H 0.47914 0.08185 0.23193 0.0
H930 H 0.55366 0.95055 0.26011 0.0
H931 H 0.51631 0.95392 0.2754 0.0
H932 H 0.58459 0.0064 0.27454 0.0
H933 H 0.40812 0.94811 0.22073 0.0
H934 H 0.3994 0.00437 0.22326 0.0
H935 H 0.37451 0.95359 0.23677 0.0
loop_
_geom_bond_atom_site_label_1
_geom_bond_atom_site_label_2
_geom_bond_distance
_geom_bond_site_symmetry_2
_ccdc_geom_bond_type
C0 O1 1.306 . S
C0 O3 1.160 . S
O1 C0 1.306 . S
O1 Cd2 2.228 . S
Cd2 O1 2.228 . S
Cd2 O6 2.273 . S
Cd2 O10 2.277 . S
O3 C0 1.160 . S
O3 Cd4 2.203 . S
Cd4 O3 2.203 . S
Cd4 O6 2.411 . S
Cd4 O7 2.333 . S
Cd4 O8 2.352 . S
Cd4 O12 2.277 . S
Cd4 O13 2.356 . S
C5 O10 1.209 . S
C5 O12 1.226 . S
O6 Cd2 2.273 . S
O6 Cd4 2.411 . S
O6 C9 1.320 . S
O7 Cd4 2.333 . S
O7 C9 1.214 . S
O8 Cd4 2.352 . S
O8 C11 1.258 . S
C9 O6 1.320 . S
C9 O7 1.214 . S
O10 Cd2 2.277 . S
O10 C5 1.209 . S
C11 O8 1.258 . S
C11 O13 1.282 . S
O12 Cd4 2.277 . S
O12 C5 1.226 . S
O13 Cd4 2.356 . S
O13 C11 1.282 . S
C14 O15 1.306 . S
C14 O17 1.160 . S
O15 C14 1.306 . S
O15 Cd16 2.228 . S
Cd16 O15 2.228 . S
Cd16 O20 2.273 . S
Cd16 O24 2.277 . S
O17 C14 1.160 . S
O17 Cd18 2.203 . S
Cd18 O17 2.203 . S
Cd18 O20 2.411 . S
Cd18 O21 2.333 . S
Cd18 O22 2.352 . S
Cd18 O26 2.277 . S
Cd18 O27 2.356 . S
C19 O24 1.209 . S
C19 O26 1.226 . S
O20 Cd16 2.273 . S
O20 Cd18 2.411 . S
O20 C23 1.320 . S
O21 Cd18 2.333 . S
O21 C23 1.214 . S
O22 Cd18 2.352 . S
O22 C25 1.258 . S
C23 O20 1.320 . S
C23 O21 1.214 . S
O24 Cd16 2.277 . S
O24 C19 1.209 . S
C25 O22 1.258 . S
C25 O27 1.282 . S
O26 Cd18 2.277 . S
O26 C19 1.226 . S
O27 Cd18 2.356 . S
O27 C25 1.282 . S
C28 O29 1.306 . S
C28 O31 1.160 . S
O29 C28 1.306 . S
O29 Cd30 2.228 . S
Cd30 O29 2.228 . S
Cd30 O34 2.273 . S
Cd30 O38 2.277 . S
O31 C28 1.160 . S
O31 Cd32 2.203 . S
Cd32 O31 2.203 . S
Cd32 O34 2.411 . S
Cd32 O35 2.333 . S
Cd32 O36 2.352 . S
Cd32 O40 2.277 . S
Cd32 O41 2.356 . S
C33 O38 1.209 . S
C33 O40 1.226 . S
O34 Cd30 2.273 . S
O34 Cd32 2.411 . S
O34 C37 1.320 . S
O35 Cd32 2.333 . S
O35 C37 1.214 . S
O36 Cd32 2.352 . S
O36 C39 1.258 . S
C37 O34 1.320 . S
C37 O35 1.214 . S
O38 Cd30 2.277 . S
O38 C33 1.209 . S
C39 O36 1.258 . S
C39 O41 1.282 . S
O40 Cd32 2.277 . S
O40 C33 1.226 . S
O41 Cd32 2.356 . S
O41 C39 1.282 . S
C42 O43 1.306 . S
C42 O45 1.160 . S
O43 C42 1.306 . S
O43 Cd44 2.228 . S
Cd44 O43 2.228 . S
Cd44 O48 2.273 . S
Cd44 O52 2.277 . S
O45 C42 1.160 . S
O45 Cd46 2.203 . S
Cd46 O45 2.203 . S
Cd46 O48 2.411 . S
Cd46 O49 2.333 . S
Cd46 O50 2.352 . S
Cd46 O54 2.277 . S
Cd46 O55 2.356 . S
C47 O52 1.209 . S
C47 O54 1.226 . S
O48 Cd44 2.273 . S
O48 Cd46 2.411 . S
O48 C51 1.320 . S
O49 Cd46 2.333 . S
O49 C51 1.214 . S
O50 Cd46 2.352 . S
O50 C53 1.258 . S
C51 O48 1.320 . S
C51 O49 1.214 . S
O52 Cd44 2.277 . S
O52 C47 1.209 . S
C53 O50 1.258 . S
C53 O55 1.282 . S
O54 Cd46 2.277 . S
O54 C47 1.226 . S
O55 Cd46 2.356 . S
O55 C53 1.282 . S
C56 O57 1.306 . S
C56 O59 1.160 . S
O57 C56 1.306 . S
O57 Cd58 2.228 . S
Cd58 O57 2.228 . S
Cd58 O62 2.273 . S
Cd58 O66 2.277 . S
O59 C56 1.160 . S
O59 Cd60 2.203 . S
Cd60 O59 2.203 . S
Cd60 O62 2.411 . S
Cd60 O63 2.333 . S
Cd60 O64 2.352 . S
Cd60 O68 2.277 . S
Cd60 O69 2.356 . S
C61 O66 1.209 . S
C61 O68 1.226 . S
O62 Cd58 2.273 . S
O62 Cd60 2.411 . S
O62 C65 1.320 . S
O63 Cd60 2.333 . S
O63 C65 1.214 . S
O64 Cd60 2.352 . S
O64 C67 1.258 . S
C65 O62 1.320 . S
C65 O63 1.214 . S
O66 Cd58 2.277 . S
O66 C61 1.209 . S
C67 O64 1.258 . S
C67 O69 1.282 . S
O68 Cd60 2.277 . S
O68 C61 1.226 . S
O69 Cd60 2.356 . S
O69 C67 1.282 . S
C70 O71 1.306 . S
C70 O73 1.160 . S
O71 C70 1.306 . S
O71 Cd72 2.228 . S
Cd72 O71 2.228 . S
Cd72 O76 2.273 . S
Cd72 O80 2.277 . S
O73 C70 1.160 . S
O73 Cd74 2.203 . S
Cd74 O73 2.203 . S
Cd74 O76 2.411 . S
Cd74 O77 2.333 . S
Cd74 O78 2.352 . S
Cd74 O82 2.277 . S
Cd74 O83 2.356 . S
C75 O80 1.209 . S
C75 O82 1.226 . S
O76 Cd72 2.273 . S
O76 Cd74 2.411 . S
O76 C79 1.320 . S
O77 Cd74 2.333 . S
O77 C79 1.214 . S
O78 Cd74 2.352 . S
O78 C81 1.258 . S
C79 O76 1.320 . S
C79 O77 1.214 . S
O80 Cd72 2.277 . S
O80 C75 1.209 . S
C81 O78 1.258 . S
C81 O83 1.282 . S
O82 Cd74 2.277 . S
O82 C75 1.226 . S
O83 Cd74 2.356 . S
O83 C81 1.282 . S
C84 O85 1.306 . S
C84 O87 1.160 . S
O85 C84 1.306 . S
O85 Cd86 2.228 . S
Cd86 O85 2.228 . S
Cd86 O90 2.273 . S
Cd86 O94 2.277 . S
O87 C84 1.160 . S
O87 Cd88 2.203 . S
Cd88 O87 2.203 . S
Cd88 O90 2.411 . S
Cd88 O91 2.333 . S
Cd88 O92 2.352 . S
Cd88 O96 2.277 . S
Cd88 O97 2.356 . S
C89 O94 1.209 . S
C89 O96 1.226 . S
O90 Cd86 2.273 . S
O90 Cd88 2.411 . S
O90 C93 1.320 . S
O91 Cd88 2.333 . S
O91 C93 1.214 . S
O92 Cd88 2.352 . S
O92 C95 1.258 . S
C93 O90 1.320 . S
C93 O91 1.214 . S
O94 Cd86 2.277 . S
O94 C89 1.209 . S
C95 O92 1.258 . S
C95 O97 1.282 . S
O96 Cd88 2.277 . S
O96 C89 1.226 . S
O97 Cd88 2.356 . S
O97 C95 1.282 . S
C98 O99 1.306 . S
C98 O101 1.160 . S
O99 C98 1.306 . S
O99 Cd100 2.228 . S
Cd100 O99 2.228 . S
Cd100 O104 2.273 . S
Cd100 O108 2.277 . S
O101 C98 1.160 . S
O101 Cd102 2.203 . S
Cd102 O101 2.203 . S
Cd102 O104 2.411 . S
Cd102 O105 2.333 . S
Cd102 O106 2.352 . S
Cd102 O110 2.277 . S
Cd102 O111 2.356 . S
C103 O108 1.209 . S
C103 O110 1.226 . S
O104 Cd100 2.273 . S
O104 Cd102 2.411 . S
O104 C107 1.320 . S
O105 Cd102 2.333 . S
O105 C107 1.214 . S
O106 Cd102 2.352 . S
O106 C109 1.258 . S
C107 O104 1.320 . S
C107 O105 1.214 . S
O108 Cd100 2.277 . S
O108 C103 1.209 . S
C109 O106 1.258 . S
C109 O111 1.282 . S
O110 Cd102 2.277 . S
O110 C103 1.226 . S
O111 Cd102 2.356 . S
O111 C109 1.282 . S
C112 O113 1.306 . S
C112 O115 1.160 . S
O113 C112 1.306 . S
O113 Cd114 2.228 . S
Cd114 O113 2.228 . S
Cd114 O118 2.273 . S
Cd114 O122 2.277 . S
O115 C112 1.160 . S
O115 Cd116 2.203 . S
Cd116 O115 2.203 . S
Cd116 O118 2.411 . S
Cd116 O119 2.333 . S
Cd116 O120 2.352 . S
Cd116 O124 2.277 . S
Cd116 O125 2.356 . S
C117 O122 1.209 . S
C117 O124 1.226 . S
O118 Cd114 2.273 . S
O118 Cd116 2.411 . S
O118 C121 1.320 . S
O119 Cd116 2.333 . S
O119 C121 1.214 . S
O120 Cd116 2.352 . S
O120 C123 1.258 . S
C121 O118 1.320 . S
C121 O119 1.214 . S
O122 Cd114 2.277 . S
O122 C117 1.209 . S
C123 O120 1.258 . S
C123 O125 1.282 . S
O124 Cd116 2.277 . S
O124 C117 1.226 . S
O125 Cd116 2.356 . S
O125 C123 1.282 . S
C126 O127 1.306 . S
C126 O129 1.160 . S
O127 C126 1.306 . S
O127 Cd128 2.228 . S
Cd128 O127 2.228 . S
Cd128 O132 2.273 . S
Cd128 O136 2.277 . S
O129 C126 1.160 . S
O129 Cd130 2.203 . S
Cd130 O129 2.203 . S
Cd130 O132 2.411 . S
Cd130 O133 2.333 . S
Cd130 O134 2.352 . S
Cd130 O138 2.277 . S
Cd130 O139 2.356 . S
C131 O136 1.209 . S
C131 O138 1.226 . S
O132 Cd128 2.273 . S
O132 Cd130 2.411 . S
O132 C135 1.320 . S
O133 Cd130 2.333 . S
O133 C135 1.214 . S
O134 Cd130 2.352 . S
O134 C137 1.258 . S
C135 O132 1.320 . S
C135 O133 1.214 . S
O136 Cd128 2.277 . S
O136 C131 1.209 . S
C137 O134 1.258 . S
C137 O139 1.282 . S
O138 Cd130 2.277 . S
O138 C131 1.226 . S
O139 Cd130 2.356 . S
O139 C137 1.282 . S
C140 O141 1.306 . S
C140 O143 1.160 . S
O141 C140 1.306 . S
O141 Cd142 2.228 . S
Cd142 O141 2.228 . S
Cd142 O146 2.273 . S
Cd142 O150 2.277 . S
O143 C140 1.160 . S
O143 Cd144 2.203 . S
Cd144 O143 2.203 . S
Cd144 O146 2.411 . S
Cd144 O147 2.333 . S
Cd144 O148 2.352 . S
Cd144 O152 2.277 . S
Cd144 O153 2.356 . S
C145 O150 1.209 . S
C145 O152 1.226 . S
O146 Cd142 2.273 . S
O146 Cd144 2.411 . S
O146 C149 1.320 . S
O147 Cd144 2.333 . S
O147 C149 1.214 . S
O148 Cd144 2.352 . S
O148 C151 1.258 . S
C149 O146 1.320 . S
C149 O147 1.214 . S
O150 Cd142 2.277 . S
O150 C145 1.209 . S
C151 O148 1.258 . S
C151 O153 1.282 . S
O152 Cd144 2.277 . S
O152 C145 1.226 . S
O153 Cd144 2.356 . S
O153 C151 1.282 . S
C154 O155 1.306 . S
C154 O157 1.160 . S
O155 C154 1.306 . S
O155 Cd156 2.228 . S
Cd156 O155 2.228 . S
Cd156 O160 2.273 . S
Cd156 O164 2.277 . S
O157 C154 1.160 . S
O157 Cd158 2.203 . S
Cd158 O157 2.203 . S
Cd158 O160 2.411 . S
Cd158 O161 2.333 . S
Cd158 O162 2.352 . S
Cd158 O166 2.277 . S
Cd158 O167 2.356 . S
C159 O164 1.209 . S
C159 O166 1.226 . S
O160 Cd156 2.273 . S
O160 Cd158 2.411 . S
O160 C163 1.320 . S
O161 Cd158 2.333 . S
O161 C163 1.214 . S
O162 Cd158 2.352 . S
O162 C165 1.258 . S
C163 O160 1.320 . S
C163 O161 1.214 . S
O164 Cd156 2.277 . S
O164 C159 1.209 . S
C165 O162 1.258 . S
C165 O167 1.282 . S
O166 Cd158 2.277 . S
O166 C159 1.226 . S
O167 Cd158 2.356 . S
O167 C165 1.282 . S
C168 C169 1.391 . S
C168 C170 1.394 . S
C168 H184 0.931 . S
C169 C168 1.391 . S
C169 C173 1.376 . S
C170 C168 1.394 . S
C170 C171 1.369 . S
C170 C174 1.531 1_556 S
C171 C170 1.369 . S
C171 C172 1.410 . S
C171 C179 1.503 1_556 S
C172 C171 1.410 . S
C172 C173 1.392 . S
C172 C175 1.511 . S
C173 C169 1.376 . S
C173 C172 1.392 . S
C173 H185 0.929 . S
C174 C170 1.531 1_554 S
C174 H186 0.960 . S
C174 H187 0.963 1_554 S
C174 H188 0.960 . S
C175 C172 1.511 . S
C175 H189 0.961 . S
C175 H190 0.922 1_556 S
C175 H191 0.961 1_556 S
C176 C177 1.370 . S
C176 C178 1.363 . S
C176 H192 0.931 . S
C177 C176 1.370 . S
C177 C181 1.408 . S
C178 C176 1.363 . S
C178 C179 1.370 . S
C178 C182 1.524 1_554 S
C179 C171 1.503 1_554 S
C179 C178 1.370 . S
C179 C180 1.403 . S
C180 C179 1.403 . S
C180 C181 1.404 . S
C180 C183 1.539 . S
C181 C177 1.408 . S
C181 C180 1.404 . S
C181 H193 0.930 . S
C182 C178 1.524 1_556 S
C182 H194 0.956 . S
C182 H195 0.961 . S
C182 H196 0.961 . S
C183 C180 1.539 . S
C183 H197 0.958 . S
C183 H198 0.961 . S
C183 H199 0.960 . S
H184 C168 0.931 . S
H185 C173 0.929 . S
H186 C174 0.960 . S
H187 C174 0.963 1_556 S
H188 C174 0.960 . S
H189 C175 0.961 . S
H190 C175 0.922 1_554 S
H191 C175 0.961 1_554 S
H192 C176 0.931 . S
H193 C181 0.930 . S
H194 C182 0.956 . S
H195 C182 0.961 . S
H196 C182 0.961 . S
H197 C183 0.958 . S
H198 C183 0.961 . S
H199 C183 0.960 . S
C200 C201 1.391 . S
C200 C202 1.394 . S
C200 H216 0.931 . S
C201 C200 1.391 . S
C201 C205 1.376 . S
C202 C200 1.394 . S
C202 C203 1.369 . S
C202 C206 1.531 . S
C203 C202 1.369 . S
C203 C204 1.410 . S
C203 C211 1.503 . S
C204 C203 1.410 . S
C204 C205 1.392 . S
C204 C207 1.511 . S
C205 C201 1.376 . S
C205 C204 1.392 . S
C205 H217 0.929 . S
C206 C202 1.531 . S
C206 H218 0.960 . S
C206 H219 0.962 . S
C206 H220 0.960 . S
C207 C204 1.511 . S
C207 H221 0.961 . S
C207 H222 0.961 . S
C207 H223 0.961 . S
C208 C209 1.370 . S
C208 C210 1.363 . S
C208 H224 0.931 . S
C209 C208 1.370 . S
C209 C213 1.408 . S
C210 C208 1.363 . S
C210 C211 1.370 . S
C210 C214 1.524 . S
C211 C203 1.503 . S
C211 C210 1.370 . S
C211 C212 1.403 . S
C212 C211 1.403 . S
C212 C213 1.404 . S
C212 C215 1.539 . S
C213 C209 1.408 . S
C213 C212 1.404 . S
C213 H225 0.930 . S
C214 C210 1.524 . S
C214 H226 0.956 . S
C214 H227 0.961 . S
C214 H228 0.961 . S
C215 C212 1.539 . S
C215 H229 0.958 . S
C215 H230 0.961 . S
C215 H231 0.960 . S
H216 C200 0.931 . S
H217 C205 0.929 . S
H218 C206 0.960 . S
H219 C206 0.962 . S
H220 C206 0.960 . S
H221 C207 0.961 . S
H222 C207 0.961 . S
H223 C207 0.961 . S
H224 C208 0.931 . S
H225 C213 0.930 . S
H226 C214 0.956 . S
H227 C214 0.961 . S
H228 C214 0.961 . S
H229 C215 0.958 . S
H230 C215 0.961 . S
H231 C215 0.960 . S
C232 C233 1.391 . S
C232 C234 1.394 . S
C232 H248 0.931 . S
C233 C232 1.391 . S
C233 C237 1.376 . S
C234 C232 1.394 . S
C234 C235 1.369 . S
C234 C238 1.531 . S
C235 C234 1.369 . S
C235 C236 1.410 . S
C235 C243 1.503 . S
C236 C235 1.410 . S
C236 C237 1.392 . S
C236 C239 1.511 . S
C237 C233 1.376 . S
C237 C236 1.392 . S
C237 H249 0.929 . S
C238 C234 1.531 . S
C238 H250 0.960 . S
C238 H251 0.962 . S
C238 H252 0.960 . S
C239 C236 1.511 . S
C239 H253 0.961 . S
C239 H254 0.961 . S
C239 H255 0.961 . S
C240 C241 1.370 . S
C240 C242 1.363 . S
C240 H256 0.931 . S
C241 C240 1.370 . S
C241 C245 1.408 . S
C242 C240 1.363 . S
C242 C243 1.370 . S
C242 C246 1.524 . S
C243 C235 1.503 . S
C243 C242 1.370 . S
C243 C244 1.403 . S
C244 C243 1.403 . S
C244 C245 1.404 . S
C244 C247 1.539 . S
C245 C241 1.408 . S
C245 C244 1.404 . S
C245 H257 0.930 . S
C246 C242 1.524 . S
C246 H258 0.956 . S
C246 H259 0.961 . S
C246 H260 0.961 . S
C247 C244 1.539 . S
C247 H261 0.958 . S
C247 H262 0.961 . S
C247 H263 0.960 . S
H248 C232 0.931 . S
H249 C237 0.929 . S
H250 C238 0.960 . S
H251 C238 0.962 . S
H252 C238 0.960 . S
H253 C239 0.961 . S
H254 C239 0.961 . S
H255 C239 0.961 . S
H256 C240 0.931 . S
H257 C245 0.930 . S
H258 C246 0.956 . S
H259 C246 0.961 . S
H260 C246 0.961 . S
H261 C247 0.958 . S
H262 C247 0.961 . S
H263 C247 0.960 . S
C264 C265 1.391 . S
C264 C266 1.394 . S
C264 H280 0.931 . S
C265 C264 1.391 . S
C265 C269 1.376 . S
C266 C264 1.394 . S
C266 C267 1.369 . S
C266 C270 1.531 . S
C267 C266 1.369 . S
C267 C268 1.410 . S
C267 C275 1.503 1_554 S
C268 C267 1.410 . S
C268 C269 1.392 . S
C268 C271 1.511 1_554 S
C269 C265 1.376 . S
C269 C268 1.392 . S
C269 H281 0.929 . S
C270 C266 1.531 . S
C270 H282 0.960 . S
C270 H283 0.962 . S
C270 H284 0.960 . S
C271 C268 1.511 1_556 S
C271 H285 0.961 . S
C271 H286 0.961 . S
C271 H287 0.961 . S
C272 C273 1.370 . S
C272 C274 1.363 . S
C272 H288 0.931 . S
C273 C272 1.370 . S
C273 C277 1.408 . S
C274 C272 1.363 . S
C274 C275 1.370 . S
C274 C278 1.524 . S
C275 C267 1.503 1_556 S
C275 C274 1.370 . S
C275 C276 1.403 . S
C276 C275 1.403 . S
C276 C277 1.404 . S
C276 C279 1.539 . S
C277 C273 1.408 . S
C277 C276 1.404 . S
C277 H289 0.930 . S
C278 C274 1.524 . S
C278 H290 0.956 . S
C278 H291 0.961 . S
C278 H292 0.961 . S
C279 C276 1.539 . S
C279 H293 0.958 1_556 S
C279 H294 0.961 . S
C279 H295 0.960 1_556 S
H280 C264 0.931 . S
H281 C269 0.929 . S
H282 C270 0.960 . S
H283 C270 0.962 . S
H284 C270 0.960 . S
H285 C271 0.961 . S
H286 C271 0.961 . S
H287 C271 0.961 . S
H288 C272 0.931 . S
H289 C277 0.930 . S
H290 C278 0.956 . S
H291 C278 0.961 . S
H292 C278 0.961 . S
H293 C279 0.958 1_554 S
H294 C279 0.961 . S
H295 C279 0.960 1_554 S
C296 C297 1.391 . S
C296 C298 1.394 . S
C296 H312 0.931 . S
C297 C296 1.391 . S
C297 C301 1.376 . S
C298 C296 1.394 . S
C298 C299 1.369 . S
C298 C302 1.531 . S
C299 C298 1.369 . S
C299 C300 1.410 . S
C299 C307 1.503 . S
C300 C299 1.410 . S
C300 C301 1.392 . S
C300 C303 1.511 . S
C301 C297 1.376 . S
C301 C300 1.392 . S
C301 H313 0.929 . S
C302 C298 1.531 . S
C302 H314 0.960 . S
C302 H315 0.962 . S
C302 H316 0.960 . S
C303 C300 1.511 . S
C303 H317 0.961 . S
C303 H318 0.961 . S
C303 H319 0.961 . S
C304 C305 1.370 . S
C304 C306 1.363 . S
C304 H320 0.931 . S
C305 C304 1.370 . S
C305 C309 1.408 . S
C306 C304 1.363 . S
C306 C307 1.370 . S
C306 C310 1.524 . S
C307 C299 1.503 . S
C307 C306 1.370 . S
C307 C308 1.403 . S
C308 C307 1.403 . S
C308 C309 1.404 . S
C308 C311 1.539 . S
C309 C305 1.408 . S
C309 C308 1.404 . S
C309 H321 0.930 . S
C310 C306 1.524 . S
C310 H322 0.956 . S
C310 H323 0.961 . S
C310 H324 0.961 . S
C311 C308 1.539 . S
C311 H325 0.958 . S
C311 H326 0.961 . S
C311 H327 0.960 . S
H312 C296 0.931 . S
H313 C301 0.929 . S
H314 C302 0.960 . S
H315 C302 0.962 . S
H316 C302 0.960 . S
H317 C303 0.961 . S
H318 C303 0.961 . S
H319 C303 0.961 . S
H320 C304 0.931 . S
H321 C309 0.930 . S
H322 C310 0.956 . S
H323 C310 0.961 . S
H324 C310 0.961 . S
H325 C311 0.958 . S
H326 C311 0.961 . S
H327 C311 0.960 . S
C328 C329 1.391 . S
C328 C330 1.394 . S
C328 H344 0.931 . S
C329 C328 1.391 . S
C329 C333 1.376 . S
C330 C328 1.394 . S
C330 C331 1.369 . S
C330 C334 1.531 . S
C331 C330 1.369 . S
C331 C332 1.410 . S
C331 C339 1.503 . S
C332 C331 1.410 . S
C332 C333 1.392 . S
C332 C335 1.511 . S
C333 C329 1.376 . S
C333 C332 1.392 . S
C333 H345 0.929 . S
C334 C330 1.531 . S
C334 H346 0.960 . S
C334 H347 0.962 . S
C334 H348 0.960 . S
C335 C332 1.511 . S
C335 H349 0.961 . S
C335 H350 0.961 . S
C335 H351 0.961 . S
C336 C337 1.370 . S
C336 C338 1.363 . S
C336 H352 0.931 . S
C337 C336 1.370 . S
C337 C341 1.408 . S
C338 C336 1.363 . S
C338 C339 1.370 . S
C338 C342 1.524 . S
C339 C331 1.503 . S
C339 C338 1.370 . S
C339 C340 1.403 . S
C340 C339 1.403 . S
C340 C341 1.404 . S
C340 C343 1.539 . S
C341 C337 1.408 . S
C341 C340 1.404 . S
C341 H353 0.930 . S
C342 C338 1.524 . S
C342 H354 0.956 . S
C342 H355 0.961 . S
C342 H356 0.961 . S
C343 C340 1.539 . S
C343 H357 0.958 . S
C343 H358 0.961 . S
C343 H359 0.960 . S
H344 C328 0.931 . S
H345 C333 0.929 . S
H346 C334 0.960 . S
H347 C334 0.962 . S
H348 C334 0.960 . S
H349 C335 0.961 . S
H350 C335 0.961 . S
H351 C335 0.961 . S
H352 C336 0.931 . S
H353 C341 0.930 . S
H354 C342 0.956 . S
H355 C342 0.961 . S
H356 C342 0.961 . S
H357 C343 0.958 . S
H358 C343 0.961 . S
H359 C343 0.960 . S
C360 C361 1.391 . S
C360 C362 1.394 . S
C360 H376 0.931 . S
C361 C360 1.391 . S
C361 C365 1.376 . S
C362 C360 1.394 . S
C362 C363 1.369 . S
C362 C366 1.531 . S
C363 C362 1.369 . S
C363 C364 1.410 . S
C363 C371 1.503 . S
C364 C363 1.410 . S
C364 C365 1.392 . S
C364 C367 1.511 . S
C365 C361 1.376 . S
C365 C364 1.392 . S
C365 H377 0.929 . S
C366 C362 1.531 . S
C366 H378 0.960 . S
C366 H379 0.962 . S
C366 H380 0.960 . S
C367 C364 1.511 . S
C367 H381 0.961 . S
C367 H382 0.961 . S
C367 H383 0.961 . S
C368 C369 1.370 . S
C368 C370 1.363 . S
C368 H384 0.931 . S
C369 C368 1.370 . S
C369 C373 1.408 . S
C370 C368 1.363 . S
C370 C371 1.370 . S
C370 C374 1.524 . S
C371 C363 1.503 . S
C371 C370 1.370 . S
C371 C372 1.403 . S
C372 C371 1.403 . S
C372 C373 1.404 . S
C372 C375 1.539 . S
C373 C369 1.408 . S
C373 C372 1.404 . S
C373 H385 0.930 . S
C374 C370 1.524 . S
C374 H386 0.956 . S
C374 H387 0.961 . S
C374 H388 0.961 . S
C375 C372 1.539 . S
C375 H389 0.958 . S
C375 H390 0.961 . S
C375 H391 0.960 . S
H376 C360 0.931 . S
H377 C365 0.929 . S
H378 C366 0.960 . S
H379 C366 0.962 . S
H380 C366 0.960 . S
H381 C367 0.961 . S
H382 C367 0.961 . S
H383 C367 0.961 . S
H384 C368 0.931 . S
H385 C373 0.930 . S
H386 C374 0.956 . S
H387 C374 0.961 . S
H388 C374 0.961 . S
H389 C375 0.958 . S
H390 C375 0.961 . S
H391 C375 0.960 . S
C392 C393 1.391 . S
C392 C394 1.394 . S
C392 H408 0.931 . S
C393 C392 1.391 . S
C393 C397 1.376 . S
C394 C392 1.394 . S
C394 C395 1.369 . S
C394 C398 1.531 . S
C395 C394 1.369 . S
C395 C396 1.410 . S
C395 C403 1.503 . S
C396 C395 1.410 . S
C396 C397 1.392 . S
C396 C399 1.511 . S
C397 C393 1.376 . S
C397 C396 1.392 . S
C397 H409 0.929 . S
C398 C394 1.531 . S
C398 H410 0.960 . S
C398 H411 0.962 . S
C398 H412 0.960 . S
C399 C396 1.511 . S
C399 H413 0.961 . S
C399 H414 0.961 . S
C399 H415 0.961 . S
C400 C401 1.370 . S
C400 C402 1.363 . S
C400 H416 0.931 . S
C401 C400 1.370 . S
C401 C405 1.408 . S
C402 C400 1.363 . S
C402 C403 1.370 . S
C402 C406 1.524 . S
C403 C395 1.503 . S
C403 C402 1.370 . S
C403 C404 1.403 . S
C404 C403 1.403 . S
C404 C405 1.404 . S
C404 C407 1.539 . S
C405 C401 1.408 . S
C405 C404 1.404 . S
C405 H417 0.930 . S
C406 C402 1.524 . S
C406 H418 0.956 . S
C406 H419 0.961 . S
C406 H420 0.961 . S
C407 C404 1.539 . S
C407 H421 0.958 . S
C407 H422 0.961 . S
C407 H423 0.960 . S
H408 C392 0.931 . S
H409 C397 0.929 . S
H410 C398 0.960 . S
H411 C398 0.962 . S
H412 C398 0.960 . S
H413 C399 0.961 . S
H414 C399 0.961 . S
H415 C399 0.961 . S
H416 C400 0.931 . S
H417 C405 0.930 . S
H418 C406 0.956 . S
H419 C406 0.961 . S
H420 C406 0.961 . S
H421 C407 0.958 . S
H422 C407 0.961 . S
H423 C407 0.960 . S
C424 C425 1.391 . S
C424 C426 1.394 . S
C424 H440 0.931 . S
C425 C424 1.391 . S
C425 C429 1.376 . S
C426 C424 1.394 . S
C426 C427 1.369 . S
C426 C430 1.531 . S
C427 C426 1.369 . S
C427 C428 1.410 . S
C427 C435 1.503 . S
C428 C427 1.410 . S
C428 C429 1.392 . S
C428 C431 1.511 . S
C429 C425 1.376 . S
C429 C428 1.392 . S
C429 H441 0.929 . S
C430 C426 1.531 . S
C430 H442 0.960 . S
C430 H443 0.962 . S
C430 H444 0.960 . S
C431 C428 1.511 . S
C431 H445 0.961 . S
C431 H446 0.961 . S
C431 H447 0.961 . S
C432 C433 1.370 . S
C432 C434 1.363 . S
C432 H448 0.931 . S
C433 C432 1.370 . S
C433 C437 1.408 . S
C434 C432 1.363 . S
C434 C435 1.370 . S
C434 C438 1.524 . S
C435 C427 1.503 . S
C435 C434 1.370 . S
C435 C436 1.403 . S
C436 C435 1.403 . S
C436 C437 1.404 . S
C436 C439 1.539 . S
C437 C433 1.408 . S
C437 C436 1.404 . S
C437 H449 0.930 . S
C438 C434 1.524 . S
C438 H450 0.956 . S
C438 H451 0.961 . S
C438 H452 0.961 . S
C439 C436 1.539 . S
C439 H453 0.958 . S
C439 H454 0.961 . S
C439 H455 0.960 . S
H440 C424 0.931 . S
H441 C429 0.929 . S
H442 C430 0.960 . S
H443 C430 0.962 . S
H444 C430 0.960 . S
H445 C431 0.961 . S
H446 C431 0.961 . S
H447 C431 0.961 . S
H448 C432 0.931 . S
H449 C437 0.930 . S
H450 C438 0.956 . S
H451 C438 0.961 . S
H452 C438 0.961 . S
H453 C439 0.958 . S
H454 C439 0.961 . S
H455 C439 0.960 . S
C456 C457 1.391 . S
C456 C458 1.394 . S
C456 H472 0.931 . S
C457 C456 1.391 . S
C457 C461 1.376 . S
C458 C456 1.394 . S
C458 C459 1.369 . S
C458 C462 1.531 . S
C459 C458 1.369 . S
C459 C460 1.410 . S
C459 C467 1.503 . S
C460 C459 1.410 . S
C460 C461 1.392 . S
C460 C463 1.511 . S
C461 C457 1.376 . S
C461 C460 1.392 . S
C461 H473 0.929 . S
C462 C458 1.531 . S
C462 H474 0.960 . S
C462 H475 0.962 . S
C462 H476 0.960 . S
C463 C460 1.511 . S
C463 H477 0.961 . S
C463 H478 0.961 . S
C463 H479 0.961 . S
C464 C465 1.370 . S
C464 C466 1.363 . S
C464 H480 0.931 . S
C465 C464 1.370 . S
C465 C469 1.408 . S
C466 C464 1.363 . S
C466 C467 1.370 . S
C466 C470 1.524 . S
C467 C459 1.503 . S
C467 C466 1.370 . S
C467 C468 1.403 . S
C468 C467 1.403 . S
C468 C469 1.404 . S
C468 C471 1.539 . S
C469 C465 1.408 . S
C469 C468 1.404 . S
C469 H481 0.930 . S
C470 C466 1.524 . S
C470 H482 0.956 . S
C470 H483 0.961 . S
C470 H484 0.961 . S
C471 C468 1.539 . S
C471 H485 0.958 . S
C471 H486 0.961 . S
C471 H487 0.960 . S
H472 C456 0.931 . S
H473 C461 0.929 . S
H474 C462 0.960 . S
H475 C462 0.962 . S
H476 C462 0.960 . S
H477 C463 0.961 . S
H478 C463 0.961 . S
H479 C463 0.961 . S
H480 C464 0.931 . S
H481 C469 0.930 . S
H482 C470 0.956 . S
H483 C470 0.961 . S
H484 C470 0.961 . S
H485 C471 0.958 . S
H486 C471 0.961 . S
H487 C471 0.960 . S
C488 C489 1.391 . S
C488 C490 1.394 . S
C488 H504 0.931 . S
C489 C488 1.391 . S
C489 C493 1.376 . S
C490 C488 1.394 . S
C490 C491 1.369 . S
C490 C494 1.531 . S
C491 C490 1.369 . S
C491 C492 1.410 . S
C491 C499 1.503 . S
C492 C491 1.410 . S
C492 C493 1.392 . S
C492 C495 1.511 . S
C493 C489 1.376 . S
C493 C492 1.392 . S
C493 H505 0.929 . S
C494 C490 1.531 . S
C494 H506 0.960 . S
C494 H507 0.962 . S
C494 H508 0.960 . S
C495 C492 1.511 . S
C495 H509 0.961 . S
C495 H510 0.961 . S
C495 H511 0.961 . S
C496 C497 1.370 . S
C496 C498 1.363 . S
C496 H512 0.931 . S
C497 C496 1.370 . S
C497 C501 1.408 . S
C498 C496 1.363 . S
C498 C499 1.370 . S
C498 C502 1.524 . S
C499 C491 1.503 . S
C499 C498 1.370 . S
C499 C500 1.403 . S
C500 C499 1.403 . S
C500 C501 1.404 . S
C500 C503 1.539 . S
C501 C497 1.408 . S
C501 C500 1.404 . S
C501 H513 0.930 . S
C502 C498 1.524 . S
C502 H514 0.956 . S
C502 H515 0.961 . S
C502 H516 0.961 . S
C503 C500 1.539 . S
C503 H517 0.958 . S
C503 H518 0.961 . S
C503 H519 0.960 . S
H504 C488 0.931 . S
H505 C493 0.929 . S
H506 C494 0.960 . S
H507 C494 0.962 . S
H508 C494 0.960 . S
H509 C495 0.961 . S
H510 C495 0.961 . S
H511 C495 0.961 . S
H512 C496 0.931 . S
H513 C501 0.930 . S
H514 C502 0.956 . S
H515 C502 0.961 . S
H516 C502 0.961 . S
H517 C503 0.958 . S
H518 C503 0.961 . S
H519 C503 0.960 . S
C520 C521 1.391 . S
C520 C522 1.394 . S
C520 H536 0.931 . S
C521 C520 1.391 . S
C521 C525 1.376 . S
C522 C520 1.394 . S
C522 C523 1.369 . S
C522 C526 1.531 . S
C523 C522 1.369 . S
C523 C524 1.410 . S
C523 C531 1.503 . S
C524 C523 1.410 . S
C524 C525 1.392 . S
C524 C527 1.511 . S
C525 C521 1.376 . S
C525 C524 1.392 . S
C525 H537 0.929 . S
C526 C522 1.531 . S
C526 H538 0.960 . S
C526 H539 0.962 . S
C526 H540 0.960 . S
C527 C524 1.511 . S
C527 H541 0.961 . S
C527 H542 0.961 . S
C527 H543 0.961 . S
C528 C529 1.370 . S
C528 C530 1.363 . S
C528 H544 0.931 . S
C529 C528 1.370 . S
C529 C533 1.408 . S
C530 C528 1.363 . S
C530 C531 1.370 . S
C530 C534 1.524 . S
C531 C523 1.503 . S
C531 C530 1.370 . S
C531 C532 1.403 . S
C532 C531 1.403 . S
C532 C533 1.404 . S
C532 C535 1.539 . S
C533 C529 1.408 . S
C533 C532 1.404 . S
C533 H545 0.930 . S
C534 C530 1.524 . S
C534 H546 0.956 . S
C534 H547 0.961 . S
C534 H548 0.961 . S
C535 C532 1.539 . S
C535 H549 0.958 . S
C535 H550 0.961 . S
C535 H551 0.960 . S
H536 C520 0.931 . S
H537 C525 0.929 . S
H538 C526 0.960 . S
H539 C526 0.962 . S
H540 C526 0.960 . S
H541 C527 0.961 . S
H542 C527 0.961 . S
H543 C527 0.961 . S
H544 C528 0.931 . S
H545 C533 0.930 . S
H546 C534 0.956 . S
H547 C534 0.961 . S
H548 C534 0.961 . S
H549 C535 0.958 . S
H550 C535 0.961 . S
H551 C535 0.960 . S
C552 C553 1.391 . S
C552 C554 1.394 . S
C552 H568 0.931 . S
C553 C552 1.391 . S
C553 C557 1.376 . S
C554 C552 1.394 . S
C554 C555 1.369 . S
C554 C558 1.531 . S
C555 C554 1.369 . S
C555 C556 1.410 . S
C555 C563 1.503 . S
C556 C555 1.410 . S
C556 C557 1.392 . S
C556 C559 1.511 . S
C557 C553 1.376 . S
C557 C556 1.392 . S
C557 H569 0.929 . S
C558 C554 1.531 . S
C558 H570 0.960 . S
C558 H571 0.962 . S
C558 H572 0.960 . S
C559 C556 1.511 . S
C559 H573 0.961 . S
C559 H574 0.961 . S
C559 H575 0.961 . S
C560 C561 1.370 . S
C560 C562 1.363 1_455 S
C560 H576 0.931 . S
C561 C560 1.370 . S
C561 C565 1.408 . S
C562 C560 1.363 1_655 S
C562 C563 1.370 . S
C562 C566 1.524 . S
C563 C555 1.503 . S
C563 C562 1.370 . S
C563 C564 1.403 . S
C564 C563 1.403 . S
C564 C565 1.404 1_655 S
C564 C567 1.539 . S
C565 C561 1.408 . S
C565 C564 1.404 1_455 S
C565 H577 0.930 . S
C566 C562 1.524 . S
C566 H578 0.956 . S
C566 H579 0.961 . S
C566 H580 0.961 . S
C567 C564 1.539 . S
C567 H581 0.958 . S
C567 H582 0.961 . S
C567 H583 0.960 . S
H568 C552 0.931 . S
H569 C557 0.929 . S
H570 C558 0.960 . S
H571 C558 0.962 . S
H572 C558 0.960 . S
H573 C559 0.961 . S
H574 C559 0.961 . S
H575 C559 0.961 . S
H576 C560 0.931 . S
H577 C565 0.930 . S
H578 C566 0.956 . S
H579 C566 0.961 . S
H580 C566 0.961 . S
H581 C567 0.958 . S
H582 C567 0.961 . S
H583 C567 0.960 . S
C584 C585 1.391 . S
C584 C586 1.394 . S
C584 H600 0.931 . S
C585 C584 1.391 . S
C585 C589 1.376 . S
C586 C584 1.394 . S
C586 C587 1.369 . S
C586 C590 1.531 . S
C587 C586 1.369 . S
C587 C588 1.410 . S
C587 C595 1.503 1_545 S
C588 C587 1.410 . S
C588 C589 1.392 . S
C588 C591 1.511 . S
C589 C585 1.376 . S
C589 C588 1.392 . S
C589 H601 0.929 . S
C590 C586 1.531 . S
C590 H602 0.960 . S
C590 H603 0.962 . S
C590 H604 0.960 . S
C591 C588 1.511 . S
C591 H605 0.961 . S
C591 H606 0.961 1_545 S
C591 H607 0.961 . S
C592 C593 1.370 . S
C592 C594 1.363 . S
C592 H608 0.931 . S
C593 C592 1.370 . S
C593 C597 1.408 . S
C594 C592 1.363 . S
C594 C595 1.370 . S
C594 C598 1.524 . S
C595 C587 1.503 1_565 S
C595 C594 1.370 . S
C595 C596 1.403 . S
C596 C595 1.403 . S
C596 C597 1.404 . S
C596 C599 1.539 . S
C597 C593 1.408 . S
C597 C596 1.404 . S
C597 H609 0.930 . S
C598 C594 1.524 . S
C598 H610 0.956 1_565 S
C598 H611 0.961 1_565 S
C598 H612 0.961 . S
C599 C596 1.539 . S
C599 H613 0.958 . S
C599 H614 0.961 . S
C599 H615 0.960 1_565 S
H600 C584 0.931 . S
H601 C589 0.929 . S
H602 C590 0.960 . S
H603 C590 0.962 . S
H604 C590 0.960 . S
H605 C591 0.961 . S
H606 C591 0.961 1_565 S
H607 C591 0.961 . S
H608 C592 0.931 . S
H609 C597 0.930 . S
H610 C598 0.956 1_545 S
H611 C598 0.961 1_545 S
H612 C598 0.961 . S
H613 C599 0.958 . S
H614 C599 0.961 . S
H615 C599 0.960 1_545 S
C616 C617 1.391 . S
C616 C618 1.394 . S
C616 H632 0.931 . S
C617 C616 1.391 . S
C617 C621 1.376 . S
C618 C616 1.394 . S
C618 C619 1.369 . S
C618 C622 1.531 . S
C619 C618 1.369 . S
C619 C620 1.410 . S
C619 C627 1.503 . S
C620 C619 1.410 . S
C620 C621 1.392 . S
C620 C623 1.511 . S
C621 C617 1.376 . S
C621 C620 1.392 . S
C621 H633 0.929 . S
C622 C618 1.531 . S
C622 H634 0.960 . S
C622 H635 0.962 . S
C622 H636 0.960 . S
C623 C620 1.511 . S
C623 H637 0.961 . S
C623 H638 0.961 . S
C623 H639 0.961 . S
C624 C625 1.370 . S
C624 C626 1.363 . S
C624 H640 0.931 . S
C625 C624 1.370 . S
C625 C629 1.408 . S
C626 C624 1.363 . S
C626 C627 1.370 . S
C626 C630 1.524 . S
C627 C619 1.503 . S
C627 C626 1.370 . S
C627 C628 1.403 . S
C628 C627 1.403 . S
C628 C629 1.404 . S
C628 C631 1.539 . S
C629 C625 1.408 . S
C629 C628 1.404 . S
C629 H641 0.930 . S
C630 C626 1.524 . S
C630 H642 0.956 . S
C630 H643 0.961 . S
C630 H644 0.961 . S
C631 C628 1.539 . S
C631 H645 0.958 . S
C631 H646 0.961 . S
C631 H647 0.960 . S
H632 C616 0.931 . S
H633 C621 0.929 . S
H634 C622 0.960 . S
H635 C622 0.962 . S
H636 C622 0.960 . S
H637 C623 0.961 . S
H638 C623 0.961 . S
H639 C623 0.961 . S
H640 C624 0.931 . S
H641 C629 0.930 . S
H642 C630 0.956 . S
H643 C630 0.961 . S
H644 C630 0.961 . S
H645 C631 0.958 . S
H646 C631 0.961 . S
H647 C631 0.960 . S
C648 C649 1.391 . S
C648 C650 1.394 . S
C648 H664 0.931 . S
C649 C648 1.391 . S
C649 C653 1.376 . S
C650 C648 1.394 . S
C650 C651 1.369 . S
C650 C654 1.531 . S
C651 C650 1.369 . S
C651 C652 1.410 . S
C651 C659 1.503 . S
C652 C651 1.410 . S
C652 C653 1.392 . S
C652 C655 1.511 . S
C653 C649 1.376 . S
C653 C652 1.392 . S
C653 H665 0.929 . S
C654 C650 1.531 . S
C654 H666 0.960 . S
C654 H667 0.962 . S
C654 H668 0.960 . S
C655 C652 1.511 . S
C655 H669 0.961 . S
C655 H670 0.961 . S
C655 H671 0.961 . S
C656 C657 1.370 . S
C656 C658 1.363 1_565 S
C656 H672 0.931 . S
C657 C656 1.370 . S
C657 C661 1.408 . S
C658 C656 1.363 1_545 S
C658 C659 1.370 . S
C658 C662 1.524 . S
C659 C651 1.503 . S
C659 C658 1.370 . S
C659 C660 1.403 1_545 S
C660 C659 1.403 1_565 S
C660 C661 1.404 . S
C660 C663 1.539 1_565 S
C661 C657 1.408 . S
C661 C660 1.404 . S
C661 H673 0.930 . S
C662 C658 1.524 . S
C662 H674 0.956 . S
C662 H675 0.961 . S
C662 H676 0.961 . S
C663 C660 1.539 1_545 S
C663 H677 0.958 . S
C663 H678 0.961 1_545 S
C663 H679 0.960 . S
H664 C648 0.931 . S
H665 C653 0.929 . S
H666 C654 0.960 . S
H667 C654 0.962 . S
H668 C654 0.960 . S
H669 C655 0.961 . S
H670 C655 0.961 . S
H671 C655 0.961 . S
H672 C656 0.931 . S
H673 C661 0.930 . S
H674 C662 0.956 . S
H675 C662 0.961 . S
H676 C662 0.961 . S
H677 C663 0.958 . S
H678 C663 0.961 1_565 S
H679 C663 0.960 . S
C680 C681 1.391 . S
C680 C682 1.394 . S
C680 H696 0.931 . S
C681 C680 1.391 . S
C681 C685 1.376 . S
C682 C680 1.394 . S
C682 C683 1.369 . S
C682 C686 1.531 . S
C683 C682 1.369 . S
C683 C684 1.410 . S
C683 C691 1.503 . S
C684 C683 1.410 . S
C684 C685 1.392 . S
C684 C687 1.511 . S
C685 C681 1.376 . S
C685 C684 1.392 . S
C685 H697 0.929 . S
C686 C682 1.531 . S
C686 H698 0.960 . S
C686 H699 0.962 . S
C686 H700 0.960 . S
C687 C684 1.511 . S
C687 H701 0.961 . S
C687 H702 0.961 . S
C687 H703 0.961 . S
C688 C689 1.370 . S
C688 C690 1.363 . S
C688 H704 0.931 . S
C689 C688 1.370 . S
C689 C693 1.408 . S
C690 C688 1.363 . S
C690 C691 1.370 . S
C690 C694 1.524 . S
C691 C683 1.503 . S
C691 C690 1.370 . S
C691 C692 1.403 . S
C692 C691 1.403 . S
C692 C693 1.404 . S
C692 C695 1.539 . S
C693 C689 1.408 . S
C693 C692 1.404 . S
C693 H705 0.930 . S
C694 C690 1.524 . S
C694 H706 0.956 . S
C694 H707 0.961 . S
C694 H708 0.961 . S
C695 C692 1.539 . S
C695 H709 0.958 . S
C695 H710 0.961 . S
C695 H711 0.960 . S
H696 C680 0.931 . S
H697 C685 0.929 . S
H698 C686 0.960 . S
H699 C686 0.962 . S
H700 C686 0.960 . S
H701 C687 0.961 . S
H702 C687 0.961 . S
H703 C687 0.961 . S
H704 C688 0.931 . S
H705 C693 0.930 . S
H706 C694 0.956 . S
H707 C694 0.961 . S
H708 C694 0.961 . S
H709 C695 0.958 . S
H710 C695 0.961 . S
H711 C695 0.960 . S
C712 C713 1.391 . S
C712 C714 1.394 . S
C712 H728 0.931 . S
C713 C712 1.391 . S
C713 C717 1.376 . S
C714 C712 1.394 . S
C714 C715 1.369 . S
C714 C718 1.531 . S
C715 C714 1.369 . S
C715 C716 1.410 . S
C715 C723 1.503 1_455 S
C716 C715 1.410 . S
C716 C717 1.392 . S
C716 C719 1.511 . S
C717 C713 1.376 . S
C717 C716 1.392 . S
C717 H729 0.929 . S
C718 C714 1.531 . S
C718 H730 0.960 1_455 S
C718 H731 0.962 . S
C718 H732 0.960 . S
C719 C716 1.511 . S
C719 H733 0.961 . S
C719 H734 0.961 1_455 S
C719 H735 0.961 . S
C720 C721 1.370 . S
C720 C722 1.363 . S
C720 H736 0.931 . S
C721 C720 1.370 . S
C721 C725 1.408 . S
C722 C720 1.363 . S
C722 C723 1.370 . S
C722 C726 1.524 . S
C723 C715 1.503 1_655 S
C723 C722 1.370 . S
C723 C724 1.403 . S
C724 C723 1.403 . S
C724 C725 1.404 . S
C724 C727 1.539 . S
C725 C721 1.408 . S
C725 C724 1.404 . S
C725 H737 0.930 . S
C726 C722 1.524 . S
C726 H738 0.956 . S
C726 H739 0.961 . S
C726 H740 0.961 . S
C727 C724 1.539 . S
C727 H741 0.958 . S
C727 H742 0.961 . S
C727 H743 0.960 1_655 S
H728 C712 0.931 . S
H729 C717 0.929 . S
H730 C718 0.960 1_655 S
H731 C718 0.962 . S
H732 C718 0.960 . S
H733 C719 0.961 . S
H734 C719 0.961 1_655 S
H735 C719 0.961 . S
H736 C720 0.931 . S
H737 C725 0.930 . S
H738 C726 0.956 . S
H739 C726 0.961 . S
H740 C726 0.961 . S
H741 C727 0.958 . S
H742 C727 0.961 . S
H743 C727 0.960 1_455 S
C744 C745 1.391 . S
C744 C746 1.394 . S
C744 H760 0.931 . S
C745 C744 1.391 . S
C745 C749 1.376 . S
C746 C744 1.394 . S
C746 C747 1.369 . S
C746 C750 1.531 . S
C747 C746 1.369 . S
C747 C748 1.410 . S
C747 C755 1.503 . S
C748 C747 1.410 . S
C748 C749 1.392 . S
C748 C751 1.511 . S
C749 C745 1.376 . S
C749 C748 1.392 . S
C749 H761 0.929 . S
C750 C746 1.531 . S
C750 H762 0.960 . S
C750 H763 0.962 . S
C750 H764 0.960 . S
C751 C748 1.511 . S
C751 H765 0.961 . S
C751 H766 0.961 . S
C751 H767 0.961 . S
C752 C753 1.370 . S
C752 C754 1.363 . S
C752 H768 0.931 . S
C753 C752 1.370 . S
C753 C757 1.408 . S
C754 C752 1.363 . S
C754 C755 1.370 . S
C754 C758 1.524 . S
C755 C747 1.503 . S
C755 C754 1.370 . S
C755 C756 1.403 . S
C756 C755 1.403 . S
C756 C757 1.404 . S
C756 C759 1.539 . S
C757 C753 1.408 . S
C757 C756 1.404 . S
C757 H769 0.930 . S
C758 C754 1.524 . S
C758 H770 0.956 . S
C758 H771 0.961 . S
C758 H772 0.961 . S
C759 C756 1.539 . S
C759 H773 0.958 . S
C759 H774 0.961 . S
C759 H775 0.960 . S
H760 C744 0.931 . S
H761 C749 0.929 . S
H762 C750 0.960 . S
H763 C750 0.962 . S
H764 C750 0.960 . S
H765 C751 0.961 . S
H766 C751 0.961 . S
H767 C751 0.961 . S
H768 C752 0.931 . S
H769 C757 0.930 . S
H770 C758 0.956 . S
H771 C758 0.961 . S
H772 C758 0.961 . S
H773 C759 0.958 . S
H774 C759 0.961 . S
H775 C759 0.960 . S
C776 C777 1.391 . S
C776 C778 1.394 . S
C776 H792 0.931 . S
C777 C776 1.391 . S
C777 C781 1.376 . S
C778 C776 1.394 . S
C778 C779 1.369 1_655 S
C778 C782 1.531 1_655 S
C779 C778 1.369 1_455 S
C779 C780 1.410 1_455 S
C779 C787 1.503 . S
C780 C779 1.410 1_655 S
C780 C781 1.392 . S
C780 C783 1.511 . S
C781 C777 1.376 . S
C781 C780 1.392 . S
C781 H793 0.929 . S
C782 C778 1.531 1_455 S
C782 H794 0.960 . S
C782 H795 0.962 . S
C782 H796 0.960 . S
C783 C780 1.511 . S
C783 H797 0.961 . S
C783 H798 0.961 1_655 S
C783 H799 0.961 . S
C784 C785 1.370 . S
C784 C786 1.363 . S
C784 H800 0.931 . S
C785 C784 1.370 . S
C785 C789 1.408 . S
C786 C784 1.363 . S
C786 C787 1.370 . S
C786 C790 1.524 . S
C787 C779 1.503 . S
C787 C786 1.370 . S
C787 C788 1.403 . S
C788 C787 1.403 . S
C788 C789 1.404 . S
C788 C791 1.539 . S
C789 C785 1.408 . S
C789 C788 1.404 . S
C789 H801 0.930 . S
C790 C786 1.524 . S
C790 H802 0.956 . S
C790 H803 0.961 . S
C790 H804 0.961 . S
C791 C788 1.539 . S
C791 H805 0.958 . S
C791 H806 0.961 . S
C791 H807 0.960 . S
H792 C776 0.931 . S
H793 C781 0.929 . S
H794 C782 0.960 . S
H795 C782 0.962 . S
H796 C782 0.960 . S
H797 C783 0.961 . S
H798 C783 0.961 1_455 S
H799 C783 0.961 . S
H800 C784 0.931 . S
H801 C789 0.930 . S
H802 C790 0.956 . S
H803 C790 0.961 . S
H804 C790 0.961 . S
H805 C791 0.958 . S
H806 C791 0.961 . S
H807 C791 0.960 . S
C808 C809 1.391 . S
C808 C810 1.394 . S
C808 H824 0.931 . S
C809 C808 1.391 . S
C809 C813 1.376 . S
C810 C808 1.394 . S
C810 C811 1.369 . S
C810 C814 1.531 1_545 S
C811 C810 1.369 . S
C811 C812 1.410 . S
C811 C819 1.503 1_545 S
C812 C811 1.410 . S
C812 C813 1.392 . S
C812 C815 1.511 . S
C813 C809 1.376 . S
C813 C812 1.392 . S
C813 H825 0.929 . S
C814 C810 1.531 1_565 S
C814 H826 0.960 . S
C814 H827 0.962 . S
C814 H828 0.971 . S
C815 C812 1.511 . S
C815 H829 0.961 . S
C815 H830 0.961 . S
C815 H831 0.961 . S
C816 C817 1.370 . S
C816 C818 1.363 . S
C816 H832 0.931 . S
C817 C816 1.370 . S
C817 C821 1.408 . S
C818 C816 1.363 . S
C818 C819 1.370 . S
C818 C822 1.524 . S
C819 C811 1.503 1_565 S
C819 C818 1.370 . S
C819 C820 1.403 . S
C820 C819 1.403 . S
C820 C821 1.404 . S
C820 C823 1.539 . S
C821 C817 1.408 . S
C821 C820 1.404 . S
C821 H833 0.930 . S
C822 C818 1.524 . S
C822 H834 0.956 . S
C822 H835 0.961 . S
C822 H836 0.961 . S
C823 C820 1.539 . S
C823 H837 0.958 . S
C823 H838 0.961 . S
C823 H839 0.960 . S
H824 C808 0.931 . S
H825 C813 0.929 . S
H826 C814 0.960 . S
H827 C814 0.962 . S
H828 C814 0.971 . S
H829 C815 0.961 . S
H830 C815 0.961 . S
H831 C815 0.961 . S
H832 C816 0.931 . S
H833 C821 0.930 . S
H834 C822 0.956 . S
H835 C822 0.961 . S
H836 C822 0.961 . S
H837 C823 0.958 . S
H838 C823 0.961 . S
H839 C823 0.960 . S
C840 C841 1.391 . S
C840 C842 1.394 . S
C840 H856 0.931 . S
C841 C840 1.391 . S
C841 C845 1.376 . S
C842 C840 1.394 . S
C842 C843 1.369 . S
C842 C846 1.531 . S
C843 C842 1.369 . S
C843 C844 1.410 . S
C843 C851 1.503 . S
C844 C843 1.410 . S
C844 C845 1.392 . S
C844 C847 1.511 . S
C845 C841 1.376 . S
C845 C844 1.392 . S
C845 H857 0.929 . S
C846 C842 1.531 . S
C846 H858 0.960 . S
C846 H859 0.962 . S
C846 H860 0.960 . S
C847 C844 1.511 . S
C847 H861 0.961 . S
C847 H862 0.961 . S
C847 H863 0.961 . S
C848 C849 1.370 . S
C848 C850 1.363 . S
C848 H864 0.931 . S
C849 C848 1.370 . S
C849 C853 1.408 . S
C850 C848 1.363 . S
C850 C851 1.370 . S
C850 C854 1.524 . S
C851 C843 1.503 . S
C851 C850 1.370 . S
C851 C852 1.403 . S
C852 C851 1.403 . S
C852 C853 1.404 . S
C852 C855 1.539 . S
C853 C849 1.408 . S
C853 C852 1.404 . S
C853 H865 0.930 . S
C854 C850 1.524 . S
C854 H866 0.956 . S
C854 H867 0.961 . S
C854 H868 0.961 . S
C855 C852 1.539 . S
C855 H869 0.958 . S
C855 H870 0.961 . S
C855 H871 0.960 . S
H856 C840 0.931 . S
H857 C845 0.929 . S
H858 C846 0.960 . S
H859 C846 0.962 . S
H860 C846 0.960 . S
H861 C847 0.961 . S
H862 C847 0.961 . S
H863 C847 0.961 . S
H864 C848 0.931 . S
H865 C853 0.930 . S
H866 C854 0.956 . S
H867 C854 0.961 . S
H868 C854 0.961 . S
H869 C855 0.958 . S
H870 C855 0.961 . S
H871 C855 0.960 . S
C872 C873 1.391 . S
C872 C874 1.394 . S
C872 H888 0.931 . S
C873 C872 1.391 . S
C873 C877 1.376 . S
C874 C872 1.394 . S
C874 C875 1.369 . S
C874 C878 1.531 . S
C875 C874 1.369 . S
C875 C876 1.410 . S
C875 C883 1.503 1_455 S
C876 C875 1.410 . S
C876 C877 1.392 . S
C876 C879 1.511 . S
C877 C873 1.376 . S
C877 C876 1.392 . S
C877 H889 0.929 . S
C878 C874 1.531 . S
C878 H890 0.960 . S
C878 H891 0.962 . S
C878 H892 0.960 . S
C879 C876 1.511 . S
C879 H893 0.961 . S
C879 H894 0.961 1_455 S
C879 H895 0.961 . S
C880 C881 1.370 . S
C880 C882 1.363 . S
C880 H896 0.931 . S
C881 C880 1.370 . S
C881 C885 1.408 . S
C882 C880 1.363 . S
C882 C883 1.370 . S
C882 C886 1.524 1_655 S
C883 C875 1.503 1_655 S
C883 C882 1.370 . S
C883 C884 1.403 . S
C884 C883 1.403 . S
C884 C885 1.404 . S
C884 C887 1.539 . S
C885 C881 1.408 . S
C885 C884 1.404 . S
C885 H897 0.930 . S
C886 C882 1.524 1_455 S
C886 H898 0.956 . S
C886 H899 0.961 . S
C886 H900 0.961 1_455 S
C887 C884 1.539 . S
C887 H901 0.958 . S
C887 H902 0.961 . S
C887 H903 0.960 . S
H888 C872 0.931 . S
H889 C877 0.929 . S
H890 C878 0.960 . S
H891 C878 0.962 . S
H892 C878 0.960 . S
H893 C879 0.961 . S
H894 C879 0.961 1_655 S
H895 C879 0.961 . S
H896 C880 0.931 . S
H897 C885 0.930 . S
H898 C886 0.956 . S
H899 C886 0.961 . S
H900 C886 0.961 1_655 S
H901 C887 0.958 . S
H902 C887 0.961 . S
H903 C887 0.960 . S
C904 C905 1.391 . S
C904 C906 1.394 . S
C904 H920 0.931 . S
C905 C904 1.391 . S
C905 C909 1.376 . S
C906 C904 1.394 . S
C906 C907 1.369 . S
C906 C910 1.531 . S
C907 C906 1.369 . S
C907 C908 1.410 . S
C907 C915 1.503 . S
C908 C907 1.410 . S
C908 C909 1.392 . S
C908 C911 1.511 . S
C909 C905 1.376 . S
C909 C908 1.392 . S
C909 H921 0.929 . S
C910 C906 1.531 . S
C910 H922 0.960 . S
C910 H923 0.962 . S
C910 H924 0.960 . S
C911 C908 1.511 . S
C911 H925 0.961 . S
C911 H926 0.961 . S
C911 H927 0.961 . S
C912 C913 1.370 . S
C912 C914 1.363 . S
C912 H928 0.931 . S
C913 C912 1.370 . S
C913 C917 1.408 . S
C914 C912 1.363 . S
C914 C915 1.370 1_545 S
C914 C918 1.524 1_545 S
C915 C907 1.503 . S
C915 C914 1.370 1_565 S
C915 C916 1.403 1_565 S
C916 C915 1.403 1_545 S
C916 C917 1.404 . S
C916 C919 1.539 . S
C917 C913 1.408 . S
C917 C916 1.404 . S
C917 H929 0.930 . S
C918 C914 1.524 1_565 S
C918 H930 0.956 . S
C918 H931 0.961 . S
C918 H932 0.961 1_565 S
C919 C916 1.539 . S
C919 H933 0.958 1_545 S
C919 H934 0.961 . S
C919 H935 0.960 1_545 S
H920 C904 0.931 . S
H921 C909 0.929 . S
H922 C910 0.960 . S
H923 C910 0.962 . S
H924 C910 0.960 . S
H925 C911 0.961 . S
H926 C911 0.961 . S
H927 C911 0.961 . S
H928 C912 0.931 . S
H929 C917 0.930 . S
H930 C918 0.956 . S
H931 C918 0.961 . S
H932 C918 0.961 1_545 S
H933 C919 0.958 1_565 S
H934 C919 0.961 . S
H935 C919 0.960 1_565 S
C169 C149 1.466 . S
C177 C9 1.599 . S
C201 C23 1.298 . S
C209 C163 1.291 . S
C233 C37 1.444 . S
C241 C93 1.596 . S
C265 C51 1.314 . S
C273 C107 1.513 . S
C297 C121 1.072 . S
C305 C65 1.097 . S
C329 C79 1.518 . S
C337 C135 1.368 . S
C361 C112 1.202 . S
C369 C0 1.234 . S
C393 C14 1.703 . S
C401 C126 1.659 . S
C425 C28 2.014 . S
C433 C140 2.011 . S
C457 C42 1.676 . S
C465 C154 1.704 . S
C489 C84 1.250 . S
C497 C56 1.220 . S
C521 C98 1.170 . S
C529 C70 1.165 . S
C553 C47 1.481 . S
C561 C5 1.493 . S
C585 C19 1.510 . S
C593 C61 1.519 . S
C617 C75 1.466 . S
C625 C33 1.460 . S
C649 C131 1.494 . S
C657 C89 1.488 . S
C681 C145 1.456 . S
C689 C103 1.463 . S
C713 C117 1.508 . S
C721 C159 1.520 . S
C745 C53 1.311 . S
C753 C11 1.308 . S
C777 C25 1.361 . S
C785 C67 1.367 . S
C809 C81 1.330 . S
C817 C39 1.334 . S
C841 C95 1.301 . S
C849 C137 1.308 . S
C873 C151 1.341 . S
C881 C109 1.339 . S
C905 C123 1.368 . S
C913 C165 1.372 . S
