# Generated by pormake.
# Topology kag, (6)-cn, num edge types: 1
# Building blocks:
#     Node 0, Type 0, BuildingBlock: NUHQIS_clean_sbu_0, # of connection points: 6
#     Node 1, Type 0, BuildingBlock: NUHQIS_clean_sbu_0, # of connection points: 6
#     Node 2, Type 0, BuildingBlock: NUHQIS_clean_sbu_0, # of connection points: 6
#     Edge 3, Type (0, 0), BuildingBlock: XIVTED_clean_linker_0, # of connection points: 2
#     Edge 4, Type (0, 0), BuildingBlock: XIVTED_clean_linker_0, # of connection points: 2
#     Edge 5, Type (0, 0), BuildingBlock: XIVTED_clean_linker_0, # of connection points: 2
#     Edge 6, Type (0, 0), BuildingBlock: XIVTED_clean_linker_0, # of connection points: 2
#     Edge 7, Type (0, 0), BuildingBlock: XIVTED_clean_linker_0, # of connection points: 2
#     Edge 8, Type (0, 0), BuildingBlock: XIVTED_clean_linker_0, # of connection points: 2
#     Edge 9, Type (0, 0), BuildingBlock: XIVTED_clean_linker_0, # of connection points: 2
#     Edge 10, Type (0, 0), BuildingBlock: XIVTED_clean_linker_0, # of connection points: 2
#     Edge 11, Type (0, 0), BuildingBlock: XIVTED_clean_linker_0, # of connection points: 2
# Relax obj value: 0.078
# Max RMSD: 0.192
# Mean RMSD: 0.110
data_MOF--net-kag--node1-NUHQIS_clean_sbu_0--edge1-XIVTED_clean_linker_0
_symmetry_space_group_name_H-M    P1
_symmetry_Int_Tables_number       1
_symmetry_cell_setting            triclinic
loop_
_symmetry_equiv_pos_as_xyz
'x, y, z'
_cell_length_a     49.714671
_cell_length_b     31.102819
_cell_length_c     15.352491
_cell_angle_alpha  87.836397
_cell_angle_beta   95.992854
_cell_angle_gamma 122.24032
loop_
_atom_site_label
_atom_site_type_symbol
_atom_site_fract_x
_atom_site_fract_y
_atom_site_fract_z
_atom_type_partial_charge
Tb0 Tb 0.04431 0.50182 -0.00953 0.0
Eu1 Eu 1.03191 0.59638 0.98162 0.0
C2 C 0.03926 0.54789 0.16044 0.0
C3 C 0.97375 0.47881 0.97984 0.0
C4 C 0.08822 0.43638 0.01066 0.0
C5 C 0.14528 0.4844 0.05631 0.0
C6 C 0.11571 0.48031 0.04831 0.0
C7 C 0.09054 0.39627 0.98255 0.0
C8 C 0.12007 0.40024 -0.00929 0.0
C9 C 0.14788 0.44457 0.02682 0.0
C10 C 0.05784 0.43409 -0.00667 0.0
O11 O 1.02697 0.50655 0.85622 0.0
O12 O 0.04851 0.59213 0.85406 0.0
O13 O 0.08493 0.63414 0.01655 0.0
O14 O 0.09115 0.56961 0.97551 0.0
C15 C 0.03802 0.54907 0.81309 0.0
O16 O 1.01343 0.63775 0.90685 0.0
O17 O 1.03378 0.66061 0.04133 0.0
O18 O 1.02182 0.56228 0.11437 0.0
O19 O 0.05627 0.5345 0.12243 0.0
O20 O 0.9936 0.4644 0.00887 0.0
O21 O 0.9839 0.52477 0.95082 0.0
C22 C 0.10307 0.6172 -0.00092 0.0
O23 O 0.04766 0.44473 0.05919 0.0
O24 O 0.05559 0.45699 0.92287 0.0
C25 C 0.98847 0.66413 -0.00712 0.0
C26 C 0.93107 0.65777 0.01795 0.0
C27 C 0.95525 0.69991 0.97641 0.0
C28 C 0.9837 0.703 0.96399 0.0
C29 C 0.96464 0.62224 0.03501 0.0
C30 C 0.93623 0.61915 0.04768 0.0
C31 C 1.01728 0.66555 0.97414 0.0
H32 H 0.16611 0.51881 0.08525 0.0
H33 H 0.11438 0.51181 0.07001 0.0
H34 H 0.06964 0.36238 0.95229 0.0
H35 H 0.12126 0.36917 0.96612 0.0
H36 H 0.95189 0.72992 0.9514 0.0
H37 H 1.00172 0.73528 0.9304 0.0
H38 H 0.96786 0.59162 0.05712 0.0
H39 H 0.91834 0.58649 0.08079 0.0
Tb40 Tb 0.57672 0.08632 0.97403 0.0
Eu41 Eu 0.49677 1.02593 0.95198 0.0
C42 C 0.53773 0.05503 0.13839 0.0
C43 C 0.53295 0.96483 0.97004 0.0
C44 C 0.66951 0.17353 -0.00168 0.0
C45 C 0.72321 0.20873 0.07181 0.0
C46 C 0.69041 0.17198 0.06554 0.0
C47 C 0.68195 0.21413 0.93986 0.0
C48 C 0.71477 0.25087 0.94603 0.0
C49 C 0.73598 0.24781 0.01052 0.0
C50 C 0.63678 0.12813 0.98026 0.0
O51 O 0.55825 1.05343 0.84256 0.0
O52 O 0.51546 0.06216 0.82491 0.0
O53 O 0.51546 0.10767 0.98238 0.0
O54 O 0.56802 0.14809 0.95219 0.0
C55 C 0.53757 0.05913 0.79162 0.0
O56 O 0.45097 0.97827 0.8732 0.0
O57 O 0.45256 1.01107 -0.00224 0.0
O58 O 0.51223 1.01903 0.0918 0.0
O59 O 0.56283 0.09112 0.10174 0.0
O60 O 0.55967 1.00674 -0.00084 0.0
O61 O 0.5072 0.96446 0.93821 0.0
C62 C 0.5428 0.14907 0.96836 0.0
O63 O 0.62023 0.10374 0.04542 0.0
O64 O 0.61879 0.12824 0.91223 0.0
C65 C 0.40202 0.94099 0.93966 0.0
C66 C 0.33782 0.86708 0.96441 0.0
C67 C 0.34526 0.90141 0.8954 0.0
C68 C 0.37699 0.93782 0.88315 0.0
C69 C 0.39495 0.90608 0.00756 0.0
C70 C 0.363 0.86908 0.01949 0.0
C71 C 0.43472 0.98356 0.92878 0.0
H72 H 0.73868 0.20564 0.12333 0.0
H73 H 0.68164 0.14085 0.11088 0.0
H74 H 0.66665 0.21619 0.88646 0.0
H75 H 0.72366 0.28007 0.89718 0.0
H76 H 0.32647 0.90034 0.85102 0.0
H77 H 0.38197 0.96444 0.83041 0.0
H78 H 0.414 0.9081 0.05212 0.0
H79 H 0.35796 0.84317 0.07333 0.0
Tb80 Tb 0.49863 0.52134 0.95608 0.0
Eu81 Eu 0.57782 0.59338 0.97934 0.0
C82 C 0.53761 0.55999 0.7946 0.0
C83 C 0.54085 0.47149 0.9681 0.0
C84 C 0.41043 0.46794 0.95407 0.0
C85 C 0.35279 0.42673 0.94381 0.0
C86 C 0.37983 0.42647 0.92789 0.0
C87 C 0.41382 0.51004 -0.00367 0.0
C88 C 0.38668 0.51039 0.01229 0.0
C89 C 0.35582 0.46858 0.98643 0.0
C90 C 0.43826 0.46637 0.93535 0.0
O91 O 0.51238 0.55016 0.09056 0.0
O92 O 0.56117 0.55816 0.1089 0.0
O93 O 0.56126 0.6461 0.00231 0.0
O94 O 0.50913 0.59885 0.93986 0.0
C95 C 0.53638 0.55349 0.1415 0.0
O96 O 0.62311 0.64121 0.06007 0.0
O97 O 0.62287 0.63018 0.92131 0.0
O98 O 0.56016 0.59949 0.84153 0.0
O99 O 0.5156 0.51963 0.83221 0.0
O100 O 0.51445 0.46843 0.9853 0.0
O101 O 0.56651 0.5148 0.95065 0.0
C102 C 0.53425 0.642 0.97201 0.0
O103 O 0.45575 0.4982 0.87763 0.0
O104 O 0.45566 0.46394 0.00264 0.0
C105 C 0.66793 0.64324 0.0141 0.0
C106 C 0.7242 0.64077 0.03825 0.0
C107 C 0.7214 0.67585 0.08565 0.0
C108 C 0.69361 0.67717 0.07335 0.0
C109 C 0.66999 0.60663 0.96949 0.0
C110 C 0.69789 0.60551 0.98125 0.0
C111 C 0.64029 0.64893 -0.00425 0.0
H112 H 0.32947 0.39436 0.92148 0.0
H113 H 0.37682 0.39384 0.89461 0.0
H114 H 0.43737 0.54246 0.01684 0.0
H115 H 0.38983 0.54305 0.04573 0.0
H116 H 0.74089 0.70285 0.13145 0.0
H117 H 0.69244 0.70553 0.10877 0.0
H118 H 0.65043 0.57977 0.92365 0.0
H119 H 0.69922 0.57825 0.94307 0.0
H120 H 0.04106 0.62045 0.69866 0.0
H121 H 0.05762 0.49727 0.27796 0.0
H122 H 1.03538 0.47697 0.70867 0.0
H123 H 1.02226 0.59777 0.26255 0.0
H124 H 0.05724 0.49658 0.43789 0.0
H125 H 0.04184 0.62003 0.53987 0.0
C126 C 0.04001 0.58886 0.66745 0.0
C127 C 0.03805 0.54858 0.71688 0.0
C128 C 0.04955 0.51868 0.3992 0.0
C129 C 0.03928 0.5482 0.53527 0.0
C130 C 0.04992 0.51932 0.30818 0.0
C131 C 0.03992 0.54756 0.25694 0.0
C132 C 0.03969 0.54723 0.43907 0.0
C133 C 1.03003 0.57526 0.29942 0.0
C134 C 0.04036 0.58859 0.57681 0.0
C135 C 0.03668 0.50859 0.67287 0.0
N136 N 1.03035 0.57464 0.38798 0.0
N137 N 0.03753 0.50954 0.58445 0.0
H138 H 0.48616 1.00722 0.2336 0.0
H139 H 0.58733 0.0791 0.7004 0.0
H140 H 0.58909 0.10418 0.26261 0.0
H141 H 0.48956 1.04041 0.6642 0.0
H142 H 0.58784 0.07894 0.54094 0.0
H143 H 0.48633 1.00905 0.39272 0.0
C144 C 0.50882 1.02877 0.27342 0.0
C145 C 0.53768 0.05562 0.23471 0.0
C146 C 0.56634 0.07063 0.56806 0.0
C147 C 0.53797 0.05754 0.4169 0.0
C148 C 0.56597 0.07049 0.65892 0.0
C149 C 0.53835 0.05973 0.69555 0.0
C150 C 0.53872 0.05901 0.51353 0.0
C151 C 0.5114 1.04911 0.63874 0.0
C152 C 0.50886 1.02998 0.36418 0.0
C153 C 0.56629 0.08311 0.28966 0.0
N154 N 0.51218 1.04863 0.55055 0.0
N155 N 0.56574 0.0831 0.37809 0.0
H156 H 0.58739 0.62059 0.69738 0.0
H157 H 0.48478 0.51989 0.23437 0.0
H158 H 0.4879 0.49956 0.67277 0.0
H159 H 0.587 0.5877 0.26747 0.0
H160 H 0.48485 0.52158 0.39383 0.0
H161 H 0.58707 0.61884 0.5379 0.0
C162 C 0.56545 0.59382 0.65842 0.0
C163 C 0.53763 0.56009 0.69833 0.0
C164 C 0.50721 0.53594 0.36602 0.0
C165 C 0.53708 0.55821 0.51618 0.0
C166 C 0.50723 0.53516 0.27513 0.0
C167 C 0.53593 0.55357 0.23763 0.0
C168 C 0.53616 0.55613 0.41963 0.0
C169 C 0.5643 0.57283 0.29361 0.0
C170 C 0.56534 0.59268 0.56756 0.0
C171 C 0.50991 0.52603 0.64468 0.0
N172 N 0.56374 0.57393 0.38181 0.0
N173 N 0.51028 0.52615 0.55624 0.0
H174 H 0.16228 0.37225 0.07051 0.0
H175 H 0.34517 0.54686 0.96871 0.0
H176 H 0.20565 0.5285 -0.0078 0.0
H177 H 0.30001 0.38945 0.04111 0.0
H178 H 0.29564 0.54321 -0.01292 0.0
H179 H 0.21366 0.37982 0.06846 0.0
C180 C 0.1826 0.40818 0.05283 0.0
C181 C 0.17951 0.44968 0.03098 0.0
C182 C 0.29664 0.50954 -0.00074 0.0
C183 C 0.23868 0.45879 0.02911 0.0
C184 C 0.32498 0.51169 -0.0107 0.0
C185 C 0.32671 0.46826 0.00265 0.0
C186 C 0.26984 0.46367 0.02291 0.0
C187 C 0.29964 0.42361 0.02848 0.0
C188 C 0.21202 0.41257 0.05209 0.0
C189 C 0.20691 0.4956 0.01023 0.0
N190 N 0.27236 0.42244 0.03738 0.0
N191 N 0.23528 0.49883 0.00934 0.0
H192 H 0.76994 0.35015 0.97523 0.0
H193 H 0.94116 0.37847 0.02861 0.0
H194 H 0.78286 0.22594 0.04348 0.0
H195 H 0.92629 0.49838 0.94013 0.0
H196 H 0.88357 0.32251 0.03861 0.0
H197 H 0.82749 0.40563 0.96686 0.0
C198 C 0.78481 0.33445 -0.01154 0.0
C199 C 0.77132 0.28311 0.01015 0.0
C200 C 0.89294 0.36105 0.01679 0.0
C201 C 0.83757 0.34679 0.0011 0.0
C202 C 0.92585 0.39304 0.01093 0.0
C203 C 0.93874 0.44328 0.98315 0.0
C204 C 0.8727 0.37942 -0.00486 0.0
C205 C 0.91759 0.45995 0.96144 0.0
C206 C 0.81776 0.36626 0.98391 0.0
C207 C 0.79207 0.26533 0.02783 0.0
N208 N 0.88576 0.42821 0.96806 0.0
N209 N 0.82404 0.29701 0.02273 0.0
H210 H 0.58123 0.9505 0.03182 0.0
H211 H 0.48317 0.65181 0.91698 0.0
H212 H 0.48332 0.86855 0.91593 0.0
H213 H 0.58137 0.73796 0.0301 0.0
H214 H 0.48178 0.72941 0.9183 0.0
H215 H 0.58066 0.87181 0.03409 0.0
C216 C 0.55951 0.91595 0.00696 0.0
C217 C 0.53227 0.91642 0.97348 0.0
C218 C 0.50359 0.73121 0.94287 0.0
C219 C 0.53153 0.82549 0.97581 0.0
C220 C 0.50442 0.6869 0.94213 0.0
C221 C 0.53247 0.68819 0.97324 0.0
C222 C 0.53098 0.77716 0.97496 0.0
C223 C 0.5592 0.73487 0.00527 0.0
C224 C 0.55923 0.87086 0.00825 0.0
C225 C 0.5049 0.87015 0.94229 0.0
N226 N 0.55778 0.77729 0.00515 0.0
N227 N 0.50524 0.8266 0.94407 0.0
H228 H 0.87035 0.57253 -2e-05 0.0
H229 H 0.78498 0.72527 0.05238 0.0
H230 H 0.92156 0.73356 0.05915 0.0
H231 H 0.73384 0.56134 0.03649 0.0
H232 H 0.83514 0.72869 0.0551 0.0
H233 H 0.82012 0.56726 0.01287 0.0
C234 C 0.87111 0.60673 0.01654 0.0
C235 C 0.90034 0.65364 0.02827 0.0
C236 C 0.81297 0.69193 0.05154 0.0
C237 C 0.84274 0.64792 0.04173 0.0
C238 C 0.78424 0.68988 0.05064 0.0
C239 C 0.75498 0.6429 0.04435 0.0
C240 C 0.81262 0.64672 0.04542 0.0
C241 C 0.75571 0.59846 0.04017 0.0
C242 C 0.84236 0.6037 0.02342 0.0
C243 C 0.89966 0.69675 0.04809 0.0
N244 N 0.78404 0.60148 0.04041 0.0
N245 N 0.87136 0.69286 0.05385 0.0
H246 H 0.14958 0.59568 -0.011 0.0
H247 H 0.29043 0.88662 0.96512 0.0
H248 H 0.1369 0.72132 0.01606 0.0
H249 H 0.30767 0.76469 -0.00271 0.0
H250 H 0.23387 0.82603 0.98012 0.0
H251 H 0.20709 0.65606 -0.01131 0.0
C252 C 0.15883 0.63592 -0.0048 0.0
C253 C 0.13821 0.65334 0.00236 0.0
C254 C 0.24998 0.81244 0.98441 0.0
C255 C 0.20421 0.72279 0.00137 0.0
C256 C 0.28228 0.847 0.9754 0.0
C257 C 0.30378 0.83062 0.97926 0.0
C258 C 0.23885 0.76081 -0.00342 0.0
C259 C 0.29194 0.77895 -0.00587 0.0
C260 C 0.19174 0.67038 -0.0048 0.0
C261 C 0.15175 0.706 0.01041 0.0
N262 N 0.26021 0.74577 0.00144 0.0
N263 N 0.1838 0.73878 0.00907 0.0
H264 H 0.49274 0.37439 0.0002 0.0
H265 H 0.59348 0.24605 0.93929 0.0
H266 H 0.59081 0.4608 0.93928 0.0
H267 H 0.49555 0.16439 0.00135 0.0
H268 H 0.59395 0.32544 0.94022 0.0
H269 H 0.49423 0.29739 0.00178 0.0
C270 C 0.51465 0.3773 -0.01283 0.0
C271 C 0.54167 0.42437 0.96949 0.0
C272 C 0.57242 0.29005 0.9537 0.0
C273 C 0.54356 0.3357 0.9712 0.0
C274 C 0.57214 0.2447 0.95324 0.0
C275 C 0.54444 0.19823 0.97009 0.0
C276 C 0.5448 0.28888 0.9711 0.0
C277 C 0.51751 0.19902 -0.01221 0.0
C278 C 0.51549 0.33314 -0.0119 0.0
C279 C 0.56935 0.42541 0.95312 0.0
N280 N 0.51839 0.24339 -0.01231 0.0
N281 N 0.56957 0.38177 0.95431 0.0
loop_
_geom_bond_atom_site_label_1
_geom_bond_atom_site_label_2
_geom_bond_distance
_geom_bond_site_symmetry_2
_ccdc_geom_bond_type
Tb0 C10 2.825 . S
Tb0 O11 2.347 1_554 S
Tb0 O14 2.366 . S
Tb0 O19 2.418 . S
Tb0 O20 2.384 1_455 S
Tb0 O23 2.479 . S
Tb0 O24 2.471 1_554 S
Eu1 O12 2.418 . S
Eu1 O13 2.384 1_655 S
Eu1 O16 2.479 . S
Eu1 O17 2.471 1_556 S
Eu1 O18 2.347 1_556 S
Eu1 O21 2.366 . S
Eu1 C31 2.825 . S
C2 O18 1.259 1_455 S
C2 O19 1.265 . S
C3 O20 1.255 1_556 S
C3 O21 1.265 . S
C4 C6 1.379 1_556 S
C4 C7 1.375 . S
C4 C10 1.506 1_556 S
C5 C6 1.384 . S
C5 C9 1.387 1_554 S
C5 H32 0.930 . S
C6 C4 1.379 1_554 S
C6 C5 1.384 . S
C6 H33 0.931 . S
C7 C4 1.375 . S
C7 C8 1.390 . S
C7 H34 0.930 . S
C8 C7 1.390 . S
C8 C9 1.391 . S
C8 H35 0.930 . S
C9 C5 1.387 1_556 S
C9 C8 1.391 . S
C10 Tb0 2.825 . S
C10 C4 1.506 1_554 S
C10 O23 1.238 . S
C10 O24 1.247 1_554 S
O11 Tb0 2.347 1_556 S
O11 C15 1.259 1_455 S
O12 Eu1 2.418 . S
O12 C15 1.265 . S
O13 Eu1 2.384 1_455 S
O13 C22 1.255 1_556 S
O14 Tb0 2.366 . S
O14 C22 1.265 . S
C15 O11 1.259 1_655 S
C15 O12 1.265 . S
O16 Eu1 2.479 . S
O16 C31 1.238 . S
O17 Eu1 2.471 1_554 S
O17 C31 1.247 1_554 S
O18 Eu1 2.347 1_554 S
O18 C2 1.259 1_655 S
O19 Tb0 2.418 . S
O19 C2 1.265 . S
O20 Tb0 2.384 1_655 S
O20 C3 1.255 1_554 S
O21 Eu1 2.366 . S
O21 C3 1.265 . S
C22 O13 1.255 1_554 S
C22 O14 1.265 . S
O23 Tb0 2.479 . S
O23 C10 1.238 . S
O24 Tb0 2.471 1_556 S
O24 C10 1.247 1_556 S
C25 C28 1.375 1_554 S
C25 C29 1.380 . S
C25 C31 1.505 1_554 S
C26 C27 1.387 1_554 S
C26 C30 1.391 . S
C27 C26 1.387 1_556 S
C27 C28 1.384 . S
C27 H36 0.930 . S
C28 C25 1.375 1_556 S
C28 C27 1.384 . S
C28 H37 0.931 . S
C29 C25 1.380 . S
C29 C30 1.390 . S
C29 H38 0.930 . S
C30 C26 1.391 . S
C30 C29 1.390 . S
C30 H39 0.930 . S
C31 Eu1 2.825 . S
C31 O16 1.238 . S
C31 O17 1.247 1_556 S
C31 C25 1.505 1_556 S
H32 C5 0.930 . S
H33 C6 0.931 . S
H34 C7 0.930 . S
H35 C8 0.930 . S
H36 C27 0.930 . S
H37 C28 0.931 . S
H38 C29 0.930 . S
H39 C30 0.930 . S
Tb40 C50 2.825 . S
Tb40 O51 2.347 1_554 S
Tb40 O54 2.366 . S
Tb40 O59 2.418 . S
Tb40 O60 2.384 1_545 S
Tb40 O63 2.479 . S
Tb40 O64 2.471 1_554 S
Eu41 O52 2.418 . S
Eu41 O53 2.384 1_565 S
Eu41 O56 2.479 . S
Eu41 O57 2.471 1_556 S
Eu41 O58 2.347 1_556 S
Eu41 O61 2.366 . S
Eu41 C71 2.825 . S
C42 O58 1.259 1_545 S
C42 O59 1.265 . S
C43 O60 1.253 1_556 S
C43 O61 1.267 . S
C44 C46 1.380 . S
C44 C47 1.374 1_554 S
C44 C50 1.507 . S
C45 C46 1.384 . S
C45 C49 1.387 1_554 S
C45 H72 0.930 . S
C46 C44 1.380 . S
C46 C45 1.384 . S
C46 H73 0.931 . S
C47 C44 1.374 1_556 S
C47 C48 1.390 . S
C47 H74 0.930 . S
C48 C47 1.390 . S
C48 C49 1.391 . S
C48 H75 0.930 . S
C49 C45 1.387 1_556 S
C49 C48 1.391 . S
C50 Tb40 2.825 . S
C50 C44 1.507 . S
C50 O63 1.238 . S
C50 O64 1.247 1_554 S
O51 Tb40 2.347 1_556 S
O51 C55 1.259 1_545 S
O52 Eu41 2.418 . S
O52 C55 1.265 . S
O53 Eu41 2.384 1_545 S
O53 C62 1.255 1_556 S
O54 Tb40 2.366 . S
O54 C62 1.265 . S
C55 O51 1.259 1_565 S
C55 O52 1.265 . S
O56 Eu41 2.479 . S
O56 C71 1.238 . S
O57 Eu41 2.471 1_554 S
O57 C71 1.247 1_554 S
O58 Eu41 2.347 1_554 S
O58 C42 1.259 1_565 S
O59 Tb40 2.418 . S
O59 C42 1.265 . S
O60 Tb40 2.384 1_565 S
O60 C43 1.253 1_554 S
O61 Eu41 2.366 . S
O61 C43 1.267 . S
C62 O53 1.255 1_554 S
C62 O54 1.265 . S
O63 Tb40 2.479 . S
O63 C50 1.238 . S
O64 Tb40 2.471 1_556 S
O64 C50 1.247 1_556 S
C65 C68 1.380 . S
C65 C69 1.374 1_556 S
C65 C71 1.507 . S
C66 C67 1.387 1_554 S
C66 C70 1.391 . S
C67 C66 1.387 1_556 S
C67 C68 1.384 . S
C67 H76 0.930 . S
C68 C65 1.380 . S
C68 C67 1.384 . S
C68 H77 0.931 . S
C69 C65 1.374 1_554 S
C69 C70 1.390 . S
C69 H78 0.930 . S
C70 C66 1.391 . S
C70 C69 1.390 . S
C70 H79 0.930 . S
C71 Eu41 2.825 . S
C71 O56 1.238 . S
C71 O57 1.247 1_556 S
C71 C65 1.507 . S
H72 C45 0.930 . S
H73 C46 0.931 . S
H74 C47 0.930 . S
H75 C48 0.930 . S
H76 C67 0.930 . S
H77 C68 0.931 . S
H78 C69 0.930 . S
H79 C70 0.930 . S
Tb80 C90 2.825 . S
Tb80 O91 2.347 1_556 S
Tb80 O94 2.366 . S
Tb80 O99 2.418 . S
Tb80 O100 2.384 . S
Tb80 O103 2.479 . S
Tb80 O104 2.471 1_556 S
Eu81 O92 2.418 . S
Eu81 O93 2.384 . S
Eu81 O96 2.479 . S
Eu81 O97 2.471 1_554 S
Eu81 O98 2.347 1_554 S
Eu81 O101 2.366 . S
Eu81 C111 2.825 . S
C82 O98 1.259 . S
C82 O99 1.265 . S
C83 O100 1.255 1_554 S
C83 O101 1.265 . S
C84 C86 1.380 . S
C84 C87 1.374 1_556 S
C84 C90 1.507 . S
C85 C86 1.384 . S
C85 C89 1.387 1_556 S
C85 H112 0.930 . S
C86 C84 1.380 . S
C86 C85 1.384 . S
C86 H113 0.931 . S
C87 C84 1.374 1_554 S
C87 C88 1.390 . S
C87 H114 0.930 . S
C88 C87 1.390 . S
C88 C89 1.391 . S
C88 H115 0.930 . S
C89 C85 1.387 1_554 S
C89 C88 1.391 . S
C90 Tb80 2.825 . S
C90 C84 1.507 . S
C90 O103 1.238 . S
C90 O104 1.247 1_556 S
O91 Tb80 2.347 1_554 S
O91 C95 1.259 . S
O92 Eu81 2.418 . S
O92 C95 1.265 . S
O93 Eu81 2.384 . S
O93 C102 1.255 1_554 S
O94 Tb80 2.366 . S
O94 C102 1.265 . S
C95 O91 1.259 . S
C95 O92 1.265 . S
O96 Eu81 2.479 . S
O96 C111 1.238 . S
O97 Eu81 2.471 1_556 S
O97 C111 1.247 1_556 S
O98 Eu81 2.347 1_556 S
O98 C82 1.259 . S
O99 Tb80 2.418 . S
O99 C82 1.265 . S
O100 Tb80 2.384 . S
O100 C83 1.255 1_556 S
O101 Eu81 2.366 . S
O101 C83 1.265 . S
C102 O93 1.255 1_556 S
C102 O94 1.265 . S
O103 Tb80 2.479 . S
O103 C90 1.238 . S
O104 Tb80 2.471 1_554 S
O104 C90 1.247 1_554 S
C105 C108 1.380 . S
C105 C109 1.374 1_554 S
C105 C111 1.507 . S
C106 C107 1.387 1_556 S
C106 C110 1.391 . S
C107 C106 1.387 1_554 S
C107 C108 1.384 . S
C107 H116 0.930 . S
C108 C105 1.380 . S
C108 C107 1.384 . S
C108 H117 0.931 . S
C109 C105 1.374 1_556 S
C109 C110 1.390 . S
C109 H118 0.930 . S
C110 C106 1.391 . S
C110 C109 1.390 . S
C110 H119 0.930 . S
C111 Eu81 2.825 . S
C111 O96 1.238 . S
C111 O97 1.247 1_554 S
C111 C105 1.507 . S
H112 C85 0.930 . S
H113 C86 0.931 . S
H114 C87 0.930 . S
H115 C88 0.930 . S
H116 C107 0.930 . S
H117 C108 0.931 . S
H118 C109 0.930 . S
H119 C110 0.930 . S
H120 C126 0.930 . S
H121 C130 0.930 . S
H122 C135 0.929 . S
H123 C133 0.929 . S
H124 C128 0.929 . S
H125 C134 0.929 . S
C126 H120 0.930 . S
C126 C127 1.381 . S
C126 C134 1.378 . S
C127 C126 1.381 . S
C127 C135 1.423 1_455 S
C128 H124 0.929 . S
C128 C130 1.378 . S
C128 C132 1.350 1_655 S
C129 C132 1.463 . S
C129 C134 1.350 . S
C129 N137 1.427 1_455 S
C130 H121 0.930 . S
C130 C128 1.378 . S
C130 C131 1.367 1_655 S
C131 C130 1.367 1_455 S
C131 C133 1.433 . S
C132 C128 1.350 1_455 S
C132 C129 1.463 . S
C132 N136 1.427 . S
C133 H123 0.929 . S
C133 C131 1.433 . S
C133 N136 1.384 . S
C134 H125 0.929 . S
C134 C126 1.378 . S
C134 C129 1.350 . S
C135 H122 0.929 . S
C135 C127 1.423 1_655 S
C135 N137 1.384 . S
N136 C132 1.427 . S
N136 C133 1.384 . S
N137 C129 1.427 1_655 S
N137 C135 1.384 . S
H138 C144 0.930 . S
H139 C148 0.930 . S
H140 C153 0.929 . S
H141 C151 0.929 . S
H142 C146 0.929 . S
H143 C152 0.929 . S
C144 H138 0.930 . S
C144 C145 1.360 1_545 S
C144 C152 1.378 . S
C145 C144 1.360 1_565 S
C145 C153 1.440 . S
C146 H142 0.929 . S
C146 C148 1.378 . S
C146 C150 1.351 1_565 S
C147 C150 1.462 . S
C147 C152 1.350 . S
C147 N155 1.427 1_545 S
C148 H139 0.930 . S
C148 C146 1.378 . S
C148 C149 1.367 1_565 S
C149 C148 1.367 1_545 S
C149 C151 1.433 . S
C150 C146 1.351 1_545 S
C150 C147 1.462 . S
C150 N154 1.426 . S
C151 H141 0.929 . S
C151 C149 1.433 . S
C151 N154 1.384 . S
C152 H143 0.929 . S
C152 C144 1.378 . S
C152 C147 1.350 . S
C153 H140 0.929 . S
C153 C145 1.440 . S
C153 N155 1.384 . S
N154 C150 1.426 . S
N154 C151 1.384 . S
N155 C147 1.427 1_565 S
N155 C153 1.384 . S
H156 C162 0.930 . S
H157 C166 0.930 . S
H158 C171 0.929 . S
H159 C169 0.929 . S
H160 C164 0.929 . S
H161 C170 0.929 . S
C162 H156 0.930 . S
C162 C163 1.367 . S
C162 C170 1.378 . S
C163 C162 1.367 . S
C163 C171 1.433 . S
C164 H160 0.929 . S
C164 C166 1.378 . S
C164 C168 1.350 . S
C165 C168 1.463 . S
C165 C170 1.350 . S
C165 N173 1.427 . S
C166 H157 0.930 . S
C166 C164 1.378 . S
C166 C167 1.367 . S
C167 C166 1.367 . S
C167 C169 1.433 . S
C168 C164 1.350 . S
C168 C165 1.463 . S
C168 N172 1.427 . S
C169 H159 0.929 . S
C169 C167 1.433 . S
C169 N172 1.384 . S
C170 H161 0.929 . S
C170 C162 1.378 . S
C170 C165 1.350 . S
C171 H158 0.929 . S
C171 C163 1.433 . S
C171 N173 1.384 . S
N172 C168 1.427 . S
N172 C169 1.384 . S
N173 C165 1.427 . S
N173 C171 1.384 . S
H174 C180 0.930 . S
H175 C184 0.930 . S
H176 C189 0.929 . S
H177 C187 0.929 . S
H178 C182 0.929 . S
H179 C188 0.929 . S
C180 H174 0.930 . S
C180 C181 1.367 . S
C180 C188 1.378 . S
C181 C180 1.367 . S
C181 C189 1.433 1_556 S
C182 H178 0.929 . S
C182 C184 1.378 . S
C182 C186 1.350 . S
C183 C186 1.463 1_556 S
C183 C188 1.350 . S
C183 N191 1.427 1_556 S
C184 H175 0.930 . S
C184 C182 1.378 . S
C184 C185 1.367 . S
C185 C184 1.367 . S
C185 C187 1.433 1_554 S
C186 C182 1.350 . S
C186 C183 1.463 1_554 S
C186 N190 1.427 1_554 S
C187 H177 0.929 . S
C187 C185 1.433 1_556 S
C187 N190 1.384 . S
C188 H179 0.929 . S
C188 C180 1.378 . S
C188 C183 1.350 . S
C189 H176 0.929 . S
C189 C181 1.433 1_554 S
C189 N191 1.384 . S
N190 C186 1.427 1_556 S
N190 C187 1.384 . S
N191 C183 1.427 1_554 S
N191 C189 1.384 . S
H192 C198 0.930 . S
H193 C202 0.930 . S
H194 C207 0.929 . S
H195 C205 0.929 . S
H196 C200 0.929 . S
H197 C206 0.929 . S
C198 H192 0.930 . S
C198 C199 1.367 . S
C198 C206 1.378 . S
C199 C198 1.367 . S
C199 C207 1.433 1_556 S
C200 H196 0.929 . S
C200 C202 1.378 . S
C200 C204 1.350 1_554 S
C201 C204 1.463 . S
C201 C206 1.350 . S
C201 N209 1.427 1_556 S
C202 H193 0.930 . S
C202 C200 1.378 . S
C202 C203 1.367 1_554 S
C203 C202 1.367 1_556 S
C203 C205 1.433 . S
C204 C200 1.350 1_556 S
C204 C201 1.463 . S
C204 N208 1.427 . S
C205 H195 0.929 . S
C205 C203 1.433 . S
C205 N208 1.384 . S
C206 H197 0.929 . S
C206 C198 1.378 . S
C206 C201 1.350 . S
C207 H194 0.929 . S
C207 C199 1.433 1_554 S
C207 N209 1.384 . S
N208 C204 1.427 . S
N208 C205 1.384 . S
N209 C201 1.427 1_554 S
N209 C207 1.384 . S
H210 C216 0.930 . S
H211 C220 0.930 . S
H212 C225 0.929 . S
H213 C223 0.929 . S
H214 C218 0.929 . S
H215 C224 0.929 . S
C216 H210 0.930 . S
C216 C217 1.363 1_554 S
C216 C224 1.378 . S
C217 C216 1.363 1_556 S
C217 C225 1.438 . S
C218 H214 0.929 . S
C218 C220 1.378 . S
C218 C222 1.350 . S
C219 C222 1.463 . S
C219 C224 1.350 1_556 S
C219 N227 1.427 . S
C220 H211 0.930 . S
C220 C218 1.378 . S
C220 C221 1.367 . S
C221 C220 1.367 . S
C221 C223 1.433 1_556 S
C222 C218 1.350 . S
C222 C219 1.463 . S
C222 N226 1.427 1_556 S
C223 H213 0.929 . S
C223 C221 1.433 1_554 S
C223 N226 1.384 . S
C224 H215 0.929 . S
C224 C216 1.378 . S
C224 C219 1.350 1_554 S
C225 H212 0.929 . S
C225 C217 1.438 . S
C225 N227 1.384 . S
N226 C222 1.427 1_554 S
N226 C223 1.384 . S
N227 C219 1.427 . S
N227 C225 1.384 . S
H228 C234 0.930 . S
H229 C238 0.930 . S
H230 C243 0.929 . S
H231 C241 0.929 . S
H232 C236 0.929 . S
H233 C242 0.929 . S
C234 H228 0.930 . S
C234 C235 1.367 . S
C234 C242 1.378 . S
C235 C234 1.367 . S
C235 C243 1.433 . S
C236 H232 0.929 . S
C236 C238 1.378 . S
C236 C240 1.350 1_556 S
C237 C240 1.463 . S
C237 C242 1.350 . S
C237 N245 1.427 . S
C238 H229 0.930 . S
C238 C236 1.378 . S
C238 C239 1.367 . S
C239 C238 1.367 . S
C239 C241 1.433 . S
C240 C236 1.350 1_554 S
C240 C237 1.463 . S
C240 N244 1.427 1_554 S
C241 H231 0.929 . S
C241 C239 1.433 . S
C241 N244 1.384 . S
C242 H233 0.929 . S
C242 C234 1.378 . S
C242 C237 1.350 . S
C243 H230 0.929 . S
C243 C235 1.433 . S
C243 N245 1.384 . S
N244 C240 1.427 1_556 S
N244 C241 1.384 . S
N245 C237 1.427 . S
N245 C243 1.384 . S
H246 C252 0.930 . S
H247 C256 0.930 . S
H248 C261 0.929 . S
H249 C259 0.929 . S
H250 C254 0.929 . S
H251 C260 0.929 . S
C252 H246 0.930 . S
C252 C253 1.367 . S
C252 C260 1.378 . S
C253 C252 1.367 . S
C253 C261 1.433 1_554 S
C254 H250 0.929 . S
C254 C256 1.378 . S
C254 C258 1.350 1_556 S
C255 C258 1.463 . S
C255 C260 1.350 . S
C255 N263 1.427 1_554 S
C256 H247 0.930 . S
C256 C254 1.378 . S
C256 C257 1.367 1_556 S
C257 C256 1.367 1_554 S
C257 C259 1.433 . S
C258 C254 1.350 1_554 S
C258 C255 1.463 . S
C258 N262 1.427 . S
C259 H249 0.929 . S
C259 C257 1.433 . S
C259 N262 1.384 . S
C260 H251 0.929 . S
C260 C252 1.378 . S
C260 C255 1.350 . S
C261 H248 0.929 . S
C261 C253 1.433 1_556 S
C261 N263 1.384 . S
N262 C258 1.427 . S
N262 C259 1.384 . S
N263 C255 1.427 1_556 S
N263 C261 1.384 . S
H264 C270 0.930 . S
H265 C274 0.930 . S
H266 C279 0.929 . S
H267 C277 0.929 . S
H268 C272 0.929 . S
H269 C278 0.929 . S
C270 H264 0.930 . S
C270 C271 1.367 . S
C270 C278 1.378 . S
C271 C270 1.367 . S
C271 C279 1.433 1_554 S
C272 H268 0.929 . S
C272 C274 1.378 . S
C272 C276 1.350 1_556 S
C273 C276 1.463 . S
C273 C278 1.350 . S
C273 N281 1.427 1_554 S
C274 H265 0.930 . S
C274 C272 1.378 . S
C274 C275 1.357 1_556 S
C275 C274 1.357 1_554 S
C275 C277 1.443 . S
C276 C272 1.350 1_554 S
C276 C273 1.463 . S
C276 N280 1.427 . S
C277 H267 0.929 . S
C277 C275 1.443 . S
C277 N280 1.384 . S
C278 H269 0.929 . S
C278 C270 1.378 . S
C278 C273 1.350 . S
C279 H266 0.929 . S
C279 C271 1.433 1_556 S
C279 N281 1.384 . S
N280 C276 1.427 . S
N280 C277 1.384 . S
N281 C273 1.427 1_556 S
N281 C279 1.384 . S
C127 C15 1.459 1_455 S
C131 C2 1.468 . S
C145 C42 1.466 1_565 S
C149 C55 1.465 1_545 S
C163 C82 1.473 . S
C167 C95 1.473 . S
C181 C9 0.894 . S
C185 C89 0.892 . S
C199 C49 1.941 . S
C203 C3 2.018 . S
C217 C43 2.580 . S
C221 C102 2.611 . S
C235 C26 0.888 . S
C239 C106 0.875 . S
C253 C22 2.013 . S
C257 C66 1.929 . S
C271 C83 2.611 . S
C275 C62 2.579 . S
