# Generated by pormake.
# Topology pcl, (4)-cn, num edge types: 1
# Building blocks:
#     Node 0, Type 0, BuildingBlock: QUQFOY_clean_sbu_3, # of connection points: 4
#     Node 1, Type 0, BuildingBlock: QUQFOY_clean_sbu_3, # of connection points: 4
#     Node 2, Type 0, BuildingBlock: QUQFOY_clean_sbu_3, # of connection points: 4
#     Node 3, Type 0, BuildingBlock: QUQFOY_clean_sbu_3, # of connection points: 4
#     Node 4, Type 0, BuildingBlock: QUQFOY_clean_sbu_3, # of connection points: 4
#     Node 5, Type 0, BuildingBlock: QUQFOY_clean_sbu_3, # of connection points: 4
#     Node 6, Type 0, BuildingBlock: QUQFOY_clean_sbu_3, # of connection points: 4
#     Node 7, Type 0, BuildingBlock: QUQFOY_clean_sbu_3, # of connection points: 4
#     Node 8, Type 0, BuildingBlock: QUQFOY_clean_sbu_3, # of connection points: 4
#     Node 9, Type 0, BuildingBlock: QUQFOY_clean_sbu_3, # of connection points: 4
#     Node 10, Type 0, BuildingBlock: QUQFOY_clean_sbu_3, # of connection points: 4
#     Node 11, Type 0, BuildingBlock: QUQFOY_clean_sbu_3, # of connection points: 4
#     Node 12, Type 0, BuildingBlock: QUQFOY_clean_sbu_3, # of connection points: 4
#     Node 13, Type 0, BuildingBlock: QUQFOY_clean_sbu_3, # of connection points: 4
#     Node 14, Type 0, BuildingBlock: QUQFOY_clean_sbu_3, # of connection points: 4
#     Node 15, Type 0, BuildingBlock: QUQFOY_clean_sbu_3, # of connection points: 4
#     Edge 16, Type (0, 0), None
#     Edge 17, Type (0, 0), None
#     Edge 18, Type (0, 0), None
#     Edge 19, Type (0, 0), None
#     Edge 20, Type (0, 0), None
#     Edge 21, Type (0, 0), None
#     Edge 22, Type (0, 0), None
#     Edge 23, Type (0, 0), None
#     Edge 24, Type (0, 0), None
#     Edge 25, Type (0, 0), None
#     Edge 26, Type (0, 0), None
#     Edge 27, Type (0, 0), None
#     Edge 28, Type (0, 0), None
#     Edge 29, Type (0, 0), None
#     Edge 30, Type (0, 0), None
#     Edge 31, Type (0, 0), None
#     Edge 32, Type (0, 0), None
#     Edge 33, Type (0, 0), None
#     Edge 34, Type (0, 0), None
#     Edge 35, Type (0, 0), None
#     Edge 36, Type (0, 0), None
#     Edge 37, Type (0, 0), None
#     Edge 38, Type (0, 0), None
#     Edge 39, Type (0, 0), None
#     Edge 40, Type (0, 0), None
#     Edge 41, Type (0, 0), None
#     Edge 42, Type (0, 0), None
#     Edge 43, Type (0, 0), None
#     Edge 44, Type (0, 0), None
#     Edge 45, Type (0, 0), None
#     Edge 46, Type (0, 0), None
#     Edge 47, Type (0, 0), None
# Relax obj value: 0.058
# Max RMSD: 0.054
# Mean RMSD: 0.052
data_MOF--net-pcl--node1-QUQFOY_clean_sbu_3--edge1-none
_symmetry_space_group_name_H-M    P1
_symmetry_Int_Tables_number       1
_symmetry_cell_setting            triclinic
loop_
_symmetry_equiv_pos_as_xyz
'x, y, z'
_cell_length_a     22.413541
_cell_length_b     23.521511
_cell_length_c     22.805619
_cell_angle_alpha  89.999997
_cell_angle_beta   89.999999
_cell_angle_gamma 89.999467
loop_
_atom_site_label
_atom_site_type_symbol
_atom_site_fract_x
_atom_site_fract_y
_atom_site_fract_z
_atom_type_partial_charge
C0 C 0.24012 0.40054 -0.03787 0.0
O1 O 0.23755 0.42988 0.00879 0.0
Cd2 Cd 0.21274 0.3895 0.10114 0.0
O3 O 0.23555 0.34647 -0.0368 0.0
Cd4 Cd 0.22656 0.26174 0.02788 0.0
C5 C 0.0864 0.31402 0.05163 0.0
O6 O 0.27213 0.30761 0.10795 0.0
O7 O 0.23212 0.22836 0.13275 0.0
O8 O 0.31431 0.22117 -0.02025 0.0
C9 C 0.25804 0.27382 0.14871 0.0
O10 O 0.11262 0.35441 0.07868 0.0
C11 C 0.28775 0.17746 -0.03981 0.0
O12 O 0.11587 0.27382 0.02735 0.0
O13 O 0.23284 0.1718 -0.02688 0.0
C14 C 0.85913 0.42976 0.46213 0.0
O15 O 0.8617 0.40042 0.50879 0.0
Cd16 Cd 0.88651 0.4408 0.60114 0.0
O17 O 0.86369 0.48383 0.4632 0.0
Cd18 Cd 0.87269 0.56856 0.52788 0.0
C19 C 1.01284 0.51629 0.55163 0.0
O20 O 0.82711 0.5227 0.60795 0.0
O21 O 0.86713 0.60195 0.63275 0.0
O22 O 0.78494 0.60913 0.47975 0.0
C23 C 0.84121 0.55649 0.64871 0.0
O24 O 0.98663 0.47589 0.57868 0.0
C25 C 0.8115 0.65284 0.46019 0.0
O26 O 0.98338 0.55649 0.52735 0.0
O27 O 0.86641 0.65851 0.47312 0.0
C28 C 0.24013 0.42981 0.9056 0.0
O29 O 0.23755 0.40046 0.85894 0.0
Cd30 Cd 0.21274 0.44083 0.76659 0.0
O31 O 0.23556 0.48388 0.90453 0.0
Cd32 Cd 0.22656 0.5686 0.83983 0.0
C33 C 0.08641 0.51632 0.81609 0.0
O34 O 0.27214 0.52273 0.75978 0.0
O35 O 0.23211 0.60197 0.73495 0.0
O36 O 0.31431 0.60917 0.88796 0.0
C37 C 0.25804 0.55651 0.719 0.0
O38 O 0.11262 0.47592 0.78905 0.0
C39 C 0.28775 0.65289 0.90752 0.0
O40 O 0.11587 0.55652 0.84037 0.0
O41 O 0.23284 0.65855 0.89459 0.0
C42 C 0.85912 0.40049 0.4056 0.0
O43 O 0.86169 0.42984 0.35894 0.0
Cd44 Cd 0.88651 0.38947 0.26659 0.0
O45 O 0.86369 0.34642 0.40453 0.0
Cd46 Cd 0.87269 0.2617 0.33983 0.0
C47 C 1.01284 0.31398 0.31609 0.0
O48 O 0.82711 0.30757 0.25978 0.0
O49 O 0.86714 0.22833 0.23495 0.0
O50 O 0.78494 0.22113 0.38796 0.0
C51 C 0.84121 0.2738 0.219 0.0
O52 O 0.98663 0.35438 0.28905 0.0
C53 C 0.8115 0.17742 0.40752 0.0
O54 O 0.98338 0.27378 0.34037 0.0
O55 O 0.86641 0.17175 0.39459 0.0
C56 C 0.85017 0.53326 0.7078 0.0
O57 O 0.854 0.47965 0.71228 0.0
Cd58 Cd 0.89531 0.4292 0.79218 0.0
O59 O 0.86079 0.5655 0.75162 0.0
Cd60 Cd 0.88059 0.54847 0.85948 0.0
C61 C 1.02092 0.51285 0.82106 0.0
O62 O 0.83727 0.45403 0.8737 0.0
O63 O 0.90177 0.48007 -0.0617 0.0
O64 O 0.79143 0.59742 0.89594 0.0
C65 C 0.86367 0.44375 0.9215 0.0
O66 O 0.9959 0.46761 0.80259 0.0
C67 C 0.81952 0.63512 0.92455 0.0
O68 O 0.9903 0.55297 0.84377 0.0
O69 O 0.87612 0.63431 0.92132 0.0
C70 C 0.24907 0.29704 0.2078 0.0
O71 O 0.24524 0.35065 0.21228 0.0
Cd72 Cd 0.20394 0.4011 0.29218 0.0
O73 O 0.23846 0.2648 0.25162 0.0
Cd74 Cd 0.21866 0.28183 0.35948 0.0
C75 C 0.07832 0.31745 0.32106 0.0
O76 O 0.26198 0.37627 0.3737 0.0
O77 O 0.19748 0.35024 0.4383 0.0
O78 O 0.30782 0.23288 0.39594 0.0
C79 C 0.23558 0.38656 0.4215 0.0
O80 O 0.10335 0.36269 0.30259 0.0
C81 C 0.27973 0.19518 0.42455 0.0
O82 O 0.10895 0.27734 0.34377 0.0
O83 O 0.22313 0.196 0.42132 0.0
C84 C 0.85018 0.29703 0.15992 0.0
O85 O 0.854 0.35065 0.15546 0.0
Cd86 Cd 0.89531 0.40113 0.07558 0.0
O87 O 0.86079 0.2648 0.11609 0.0
Cd88 Cd 0.88059 0.28187 0.00823 0.0
C89 C 1.02092 0.31749 0.04667 0.0
O90 O 0.83727 0.37632 -0.00595 0.0
O91 O 0.90176 0.35029 0.92942 0.0
O92 O 0.79143 0.23292 -0.02823 0.0
C93 C 0.86369 0.38661 -0.05373 0.0
O94 O 0.9959 0.36272 0.06516 0.0
C95 C 0.81952 0.19523 -0.05685 0.0
O96 O 0.9903 0.27738 0.02395 0.0
O97 O 0.87612 0.19604 -0.05362 0.0
C98 C 0.24907 0.53327 0.65992 0.0
O99 O 0.24525 0.47966 0.65546 0.0
Cd100 Cd 0.20394 0.42918 0.57558 0.0
O101 O 0.23845 0.5655 0.61609 0.0
Cd102 Cd 0.21866 0.54843 0.50823 0.0
C103 C 0.07833 0.51282 0.54667 0.0
O104 O 0.26198 0.45399 0.49405 0.0
O105 O 0.19749 0.48002 0.42942 0.0
O106 O 0.30782 0.59738 0.47177 0.0
C107 C 0.23556 0.44369 0.44627 0.0
O108 O 0.10335 0.46759 0.56516 0.0
C109 C 0.27973 0.63508 0.44315 0.0
O110 O 0.10894 0.55293 0.52395 0.0
O111 O 0.22313 0.63426 0.44638 0.0
C112 C 0.74012 0.90054 -0.03787 0.0
O113 O 0.73755 -0.07012 0.00879 0.0
Cd114 Cd 0.71274 0.8895 0.10114 0.0
O115 O 0.73555 0.84647 -0.0368 0.0
Cd116 Cd 0.72656 0.76174 0.02788 0.0
C117 C 0.5864 0.81402 0.05163 0.0
O118 O 0.77213 0.80761 0.10795 0.0
O119 O 0.73212 0.72836 0.13275 0.0
O120 O 0.81431 0.72117 -0.02025 0.0
C121 C 0.75804 0.77382 0.14871 0.0
O122 O 0.61262 0.85441 0.07868 0.0
C123 C 0.78775 0.67746 -0.03981 0.0
O124 O 0.61587 0.77382 0.02735 0.0
O125 O 0.73284 0.6718 -0.02688 0.0
C126 C 0.35913 -0.07024 0.46213 0.0
O127 O 0.3617 0.90042 0.50879 0.0
Cd128 Cd 0.38651 -0.0592 0.60114 0.0
O129 O 0.36369 -0.01617 0.4632 0.0
Cd130 Cd 0.37269 0.06856 0.52788 0.0
C131 C 0.51284 0.01629 0.55163 0.0
O132 O 0.32711 0.0227 0.60795 0.0
O133 O 0.36713 0.10195 0.63275 0.0
O134 O 0.28494 0.10913 0.47975 0.0
C135 C 0.34121 0.05649 0.64871 0.0
O136 O 0.48663 -0.02411 0.57868 0.0
C137 C 0.3115 0.15284 0.46019 0.0
O138 O 0.48338 0.05649 0.52735 0.0
O139 O 0.36641 0.15851 0.47312 0.0
C140 C 0.74013 -0.07019 0.9056 0.0
O141 O 0.73755 0.90046 0.85894 0.0
Cd142 Cd 0.71274 -0.05917 0.76659 0.0
O143 O 0.73556 -0.01612 0.90453 0.0
Cd144 Cd 0.72656 0.0686 0.83983 0.0
C145 C 0.58641 0.01632 0.81609 0.0
O146 O 0.77214 0.02273 0.75978 0.0
O147 O 0.73211 0.10197 0.73495 0.0
O148 O 0.81431 0.10917 0.88796 0.0
C149 C 0.75804 0.05651 0.719 0.0
O150 O 0.61262 -0.02408 0.78905 0.0
C151 C 0.78775 0.15289 0.90752 0.0
O152 O 0.61587 0.05652 0.84037 0.0
O153 O 0.73284 0.15855 0.89459 0.0
C154 C 0.35912 0.90049 0.4056 0.0
O155 O 0.36169 -0.07016 0.35894 0.0
Cd156 Cd 0.38651 0.88947 0.26659 0.0
O157 O 0.36369 0.84642 0.40453 0.0
Cd158 Cd 0.37269 0.7617 0.33983 0.0
C159 C 0.51284 0.81398 0.31609 0.0
O160 O 0.32711 0.80757 0.25978 0.0
O161 O 0.36714 0.72833 0.23495 0.0
O162 O 0.28494 0.72113 0.38796 0.0
C163 C 0.34121 0.7738 0.219 0.0
O164 O 0.48663 0.85438 0.28905 0.0
C165 C 0.3115 0.67742 0.40752 0.0
O166 O 0.48338 0.77378 0.34037 0.0
O167 O 0.36641 0.67175 0.39459 0.0
C168 C 0.35017 0.03326 0.7078 0.0
O169 O 0.354 -0.02035 0.71228 0.0
Cd170 Cd 0.39531 -0.0708 0.79218 0.0
O171 O 0.36079 0.0655 0.75162 0.0
Cd172 Cd 0.38059 0.04847 0.85948 0.0
C173 C 0.52092 0.01285 0.82106 0.0
O174 O 0.33727 -0.04597 0.8737 0.0
O175 O 0.40177 -0.01993 -0.0617 0.0
O176 O 0.29143 0.09742 0.89594 0.0
C177 C 0.36367 -0.05625 0.9215 0.0
O178 O 0.4959 -0.03239 0.80259 0.0
C179 C 0.31952 0.13512 0.92455 0.0
O180 O 0.4903 0.05297 0.84377 0.0
O181 O 0.37612 0.13431 0.92132 0.0
C182 C 0.74907 0.79704 0.2078 0.0
O183 O 0.74524 0.85065 0.21228 0.0
Cd184 Cd 0.70394 0.9011 0.29218 0.0
O185 O 0.73846 0.7648 0.25162 0.0
Cd186 Cd 0.71866 0.78183 0.35948 0.0
C187 C 0.57832 0.81745 0.32106 0.0
O188 O 0.76198 0.87627 0.3737 0.0
O189 O 0.69748 0.85024 0.4383 0.0
O190 O 0.80782 0.73288 0.39594 0.0
C191 C 0.73558 0.88656 0.4215 0.0
O192 O 0.60335 0.86269 0.30259 0.0
C193 C 0.77973 0.69518 0.42455 0.0
O194 O 0.60895 0.77734 0.34377 0.0
O195 O 0.72313 0.696 0.42132 0.0
C196 C 0.35018 0.79703 0.15992 0.0
O197 O 0.354 0.85065 0.15546 0.0
Cd198 Cd 0.39531 0.90113 0.07558 0.0
O199 O 0.36079 0.7648 0.11609 0.0
Cd200 Cd 0.38059 0.78187 0.00823 0.0
C201 C 0.52092 0.81749 0.04667 0.0
O202 O 0.33727 0.87632 -0.00595 0.0
O203 O 0.40176 0.85029 0.92942 0.0
O204 O 0.29143 0.73292 -0.02823 0.0
C205 C 0.36369 0.88661 -0.05373 0.0
O206 O 0.4959 0.86272 0.06516 0.0
C207 C 0.31952 0.69523 -0.05685 0.0
O208 O 0.4903 0.77738 0.02395 0.0
O209 O 0.37612 0.69604 -0.05362 0.0
C210 C 0.74907 0.03327 0.65992 0.0
O211 O 0.74525 -0.02034 0.65546 0.0
Cd212 Cd 0.70394 -0.07082 0.57558 0.0
O213 O 0.73845 0.0655 0.61609 0.0
Cd214 Cd 0.71866 0.04843 0.50823 0.0
C215 C 0.57833 0.01282 0.54667 0.0
O216 O 0.76198 -0.04601 0.49405 0.0
O217 O 0.69749 -0.01998 0.42942 0.0
O218 O 0.80782 0.09738 0.47177 0.0
C219 C 0.73556 -0.05631 0.44627 0.0
O220 O 0.60335 -0.03241 0.56516 0.0
C221 C 0.77973 0.13508 0.44315 0.0
O222 O 0.60894 0.05293 0.52395 0.0
O223 O 0.72313 0.13426 0.44638 0.0
loop_
_geom_bond_atom_site_label_1
_geom_bond_atom_site_label_2
_geom_bond_distance
_geom_bond_site_symmetry_2
_ccdc_geom_bond_type
C0 O1 1.306 . S
C0 O3 1.160 1_554 S
O1 C0 1.306 . S
O1 Cd2 2.228 . S
Cd2 O1 2.228 . S
Cd2 O6 2.273 . S
Cd2 O10 2.277 . S
O3 C0 1.160 1_556 S
O3 Cd4 2.203 1_556 S
Cd4 O3 2.203 1_554 S
Cd4 O6 2.411 . S
Cd4 O7 2.333 . S
Cd4 O8 2.352 . S
Cd4 O12 2.277 . S
Cd4 O13 2.356 . S
C5 O10 1.209 . S
C5 O12 1.226 . S
O6 Cd2 2.273 . S
O6 Cd4 2.411 . S
O6 C9 1.320 . S
O7 Cd4 2.333 . S
O7 C9 1.214 . S
O8 Cd4 2.352 . S
O8 C11 1.258 . S
C9 O6 1.320 . S
C9 O7 1.214 . S
O10 Cd2 2.277 . S
O10 C5 1.209 . S
C11 O8 1.258 . S
C11 O13 1.282 . S
O12 Cd4 2.277 . S
O12 C5 1.226 . S
O13 Cd4 2.356 . S
O13 C11 1.282 . S
C14 O15 1.306 . S
C14 O17 1.160 . S
O15 C14 1.306 . S
O15 Cd16 2.228 . S
Cd16 O15 2.228 . S
Cd16 O20 2.273 . S
Cd16 O24 2.277 . S
O17 C14 1.160 . S
O17 Cd18 2.203 . S
Cd18 O17 2.203 . S
Cd18 O20 2.411 . S
Cd18 O21 2.333 . S
Cd18 O22 2.352 . S
Cd18 O26 2.277 . S
Cd18 O27 2.356 . S
C19 O24 1.209 . S
C19 O26 1.226 . S
O20 Cd16 2.273 . S
O20 Cd18 2.411 . S
O20 C23 1.320 . S
O21 Cd18 2.333 . S
O21 C23 1.214 . S
O22 Cd18 2.352 . S
O22 C25 1.258 . S
C23 O20 1.320 . S
C23 O21 1.214 . S
O24 Cd16 2.277 . S
O24 C19 1.209 . S
C25 O22 1.258 . S
C25 O27 1.282 . S
O26 Cd18 2.277 . S
O26 C19 1.226 . S
O27 Cd18 2.356 . S
O27 C25 1.282 . S
C28 O29 1.306 . S
C28 O31 1.160 1_556 S
O29 C28 1.306 . S
O29 Cd30 2.228 . S
Cd30 O29 2.228 . S
Cd30 O34 2.273 . S
Cd30 O38 2.277 . S
O31 C28 1.160 1_554 S
O31 Cd32 2.203 1_554 S
Cd32 O31 2.203 1_556 S
Cd32 O34 2.411 . S
Cd32 O35 2.333 . S
Cd32 O36 2.352 . S
Cd32 O40 2.277 . S
Cd32 O41 2.356 . S
C33 O38 1.209 . S
C33 O40 1.226 . S
O34 Cd30 2.273 . S
O34 Cd32 2.411 . S
O34 C37 1.320 . S
O35 Cd32 2.333 . S
O35 C37 1.214 . S
O36 Cd32 2.352 . S
O36 C39 1.258 . S
C37 O34 1.320 . S
C37 O35 1.214 . S
O38 Cd30 2.277 . S
O38 C33 1.209 . S
C39 O36 1.258 . S
C39 O41 1.282 . S
O40 Cd32 2.277 . S
O40 C33 1.226 . S
O41 Cd32 2.356 . S
O41 C39 1.282 . S
C42 O43 1.306 . S
C42 O45 1.160 . S
O43 C42 1.306 . S
O43 Cd44 2.228 . S
Cd44 O43 2.228 . S
Cd44 O48 2.273 . S
Cd44 O52 2.277 . S
O45 C42 1.160 . S
O45 Cd46 2.203 . S
Cd46 O45 2.203 . S
Cd46 O48 2.411 . S
Cd46 O49 2.333 . S
Cd46 O50 2.352 . S
Cd46 O54 2.277 . S
Cd46 O55 2.356 . S
C47 O52 1.209 . S
C47 O54 1.226 . S
O48 Cd44 2.273 . S
O48 Cd46 2.411 . S
O48 C51 1.320 . S
O49 Cd46 2.333 . S
O49 C51 1.214 . S
O50 Cd46 2.352 . S
O50 C53 1.258 . S
C51 O48 1.320 . S
C51 O49 1.214 . S
O52 Cd44 2.277 . S
O52 C47 1.209 . S
C53 O50 1.258 . S
C53 O55 1.282 . S
O54 Cd46 2.277 . S
O54 C47 1.226 . S
O55 Cd46 2.356 . S
O55 C53 1.282 . S
C56 O57 1.306 . S
C56 O59 1.160 . S
O57 C56 1.306 . S
O57 Cd58 2.228 . S
Cd58 O57 2.228 . S
Cd58 O62 2.273 . S
Cd58 O66 2.277 . S
O59 C56 1.160 . S
O59 Cd60 2.203 . S
Cd60 O59 2.203 . S
Cd60 O62 2.411 . S
Cd60 O63 2.333 1_556 S
Cd60 O64 2.352 . S
Cd60 O68 2.277 . S
Cd60 O69 2.356 1_556 S
C61 O66 1.209 . S
C61 O68 1.226 . S
O62 Cd58 2.273 . S
O62 Cd60 2.411 . S
O62 C65 1.320 . S
O63 Cd60 2.333 1_554 S
O63 C65 1.214 1_554 S
O64 Cd60 2.352 . S
O64 C67 1.258 . S
C65 O62 1.320 . S
C65 O63 1.214 1_556 S
O66 Cd58 2.277 . S
O66 C61 1.209 . S
C67 O64 1.258 . S
C67 O69 1.282 1_556 S
O68 Cd60 2.277 . S
O68 C61 1.226 . S
O69 Cd60 2.356 1_554 S
O69 C67 1.282 1_554 S
C70 O71 1.306 . S
C70 O73 1.160 . S
O71 C70 1.306 . S
O71 Cd72 2.228 . S
Cd72 O71 2.228 . S
Cd72 O76 2.273 . S
Cd72 O80 2.277 . S
O73 C70 1.160 . S
O73 Cd74 2.203 . S
Cd74 O73 2.203 . S
Cd74 O76 2.411 . S
Cd74 O77 2.333 . S
Cd74 O78 2.352 . S
Cd74 O82 2.277 . S
Cd74 O83 2.356 . S
C75 O80 1.209 . S
C75 O82 1.226 . S
O76 Cd72 2.273 . S
O76 Cd74 2.411 . S
O76 C79 1.320 . S
O77 Cd74 2.333 . S
O77 C79 1.214 . S
O78 Cd74 2.352 . S
O78 C81 1.258 . S
C79 O76 1.320 . S
C79 O77 1.214 . S
O80 Cd72 2.277 . S
O80 C75 1.209 . S
C81 O78 1.258 . S
C81 O83 1.282 . S
O82 Cd74 2.277 . S
O82 C75 1.226 . S
O83 Cd74 2.356 . S
O83 C81 1.282 . S
C84 O85 1.306 . S
C84 O87 1.160 . S
O85 C84 1.306 . S
O85 Cd86 2.228 . S
Cd86 O85 2.228 . S
Cd86 O90 2.273 . S
Cd86 O94 2.277 . S
O87 C84 1.160 . S
O87 Cd88 2.203 . S
Cd88 O87 2.203 . S
Cd88 O90 2.411 . S
Cd88 O91 2.333 1_554 S
Cd88 O92 2.352 . S
Cd88 O96 2.277 . S
Cd88 O97 2.356 1_554 S
C89 O94 1.209 . S
C89 O96 1.226 . S
O90 Cd86 2.273 . S
O90 Cd88 2.411 . S
O90 C93 1.320 . S
O91 Cd88 2.333 1_556 S
O91 C93 1.214 1_556 S
O92 Cd88 2.352 . S
O92 C95 1.258 . S
C93 O90 1.320 . S
C93 O91 1.214 1_554 S
O94 Cd86 2.277 . S
O94 C89 1.209 . S
C95 O92 1.258 . S
C95 O97 1.282 1_554 S
O96 Cd88 2.277 . S
O96 C89 1.226 . S
O97 Cd88 2.356 1_556 S
O97 C95 1.282 1_556 S
C98 O99 1.306 . S
C98 O101 1.160 . S
O99 C98 1.306 . S
O99 Cd100 2.228 . S
Cd100 O99 2.228 . S
Cd100 O104 2.273 . S
Cd100 O108 2.277 . S
O101 C98 1.160 . S
O101 Cd102 2.203 . S
Cd102 O101 2.203 . S
Cd102 O104 2.411 . S
Cd102 O105 2.333 . S
Cd102 O106 2.352 . S
Cd102 O110 2.277 . S
Cd102 O111 2.356 . S
C103 O108 1.209 . S
C103 O110 1.226 . S
O104 Cd100 2.273 . S
O104 Cd102 2.411 . S
O104 C107 1.320 . S
O105 Cd102 2.333 . S
O105 C107 1.214 . S
O106 Cd102 2.352 . S
O106 C109 1.258 . S
C107 O104 1.320 . S
C107 O105 1.214 . S
O108 Cd100 2.277 . S
O108 C103 1.209 . S
C109 O106 1.258 . S
C109 O111 1.282 . S
O110 Cd102 2.277 . S
O110 C103 1.226 . S
O111 Cd102 2.356 . S
O111 C109 1.282 . S
C112 O113 1.306 . S
C112 O115 1.160 1_554 S
O113 C112 1.306 . S
O113 Cd114 2.228 . S
Cd114 O113 2.228 . S
Cd114 O118 2.273 . S
Cd114 O122 2.277 . S
O115 C112 1.160 1_556 S
O115 Cd116 2.203 1_556 S
Cd116 O115 2.203 1_554 S
Cd116 O118 2.411 . S
Cd116 O119 2.333 . S
Cd116 O120 2.352 . S
Cd116 O124 2.277 . S
Cd116 O125 2.356 . S
C117 O122 1.209 . S
C117 O124 1.226 . S
O118 Cd114 2.273 . S
O118 Cd116 2.411 . S
O118 C121 1.320 . S
O119 Cd116 2.333 . S
O119 C121 1.214 . S
O120 Cd116 2.352 . S
O120 C123 1.258 . S
C121 O118 1.320 . S
C121 O119 1.214 . S
O122 Cd114 2.277 . S
O122 C117 1.209 . S
C123 O120 1.258 . S
C123 O125 1.282 . S
O124 Cd116 2.277 . S
O124 C117 1.226 . S
O125 Cd116 2.356 . S
O125 C123 1.282 . S
C126 O127 1.306 . S
C126 O129 1.160 . S
O127 C126 1.306 . S
O127 Cd128 2.228 . S
Cd128 O127 2.228 . S
Cd128 O132 2.273 . S
Cd128 O136 2.277 . S
O129 C126 1.160 . S
O129 Cd130 2.203 . S
Cd130 O129 2.203 . S
Cd130 O132 2.411 . S
Cd130 O133 2.333 . S
Cd130 O134 2.352 . S
Cd130 O138 2.277 . S
Cd130 O139 2.356 . S
C131 O136 1.209 . S
C131 O138 1.226 . S
O132 Cd128 2.273 . S
O132 Cd130 2.411 . S
O132 C135 1.320 . S
O133 Cd130 2.333 . S
O133 C135 1.214 . S
O134 Cd130 2.352 . S
O134 C137 1.258 . S
C135 O132 1.320 . S
C135 O133 1.214 . S
O136 Cd128 2.277 . S
O136 C131 1.209 . S
C137 O134 1.258 . S
C137 O139 1.282 . S
O138 Cd130 2.277 . S
O138 C131 1.226 . S
O139 Cd130 2.356 . S
O139 C137 1.282 . S
C140 O141 1.306 . S
C140 O143 1.160 1_556 S
O141 C140 1.306 . S
O141 Cd142 2.228 . S
Cd142 O141 2.228 . S
Cd142 O146 2.273 . S
Cd142 O150 2.277 . S
O143 C140 1.160 1_554 S
O143 Cd144 2.203 1_554 S
Cd144 O143 2.203 1_556 S
Cd144 O146 2.411 . S
Cd144 O147 2.333 . S
Cd144 O148 2.352 . S
Cd144 O152 2.277 . S
Cd144 O153 2.356 . S
C145 O150 1.209 . S
C145 O152 1.226 . S
O146 Cd142 2.273 . S
O146 Cd144 2.411 . S
O146 C149 1.320 . S
O147 Cd144 2.333 . S
O147 C149 1.214 . S
O148 Cd144 2.352 . S
O148 C151 1.258 . S
C149 O146 1.320 . S
C149 O147 1.214 . S
O150 Cd142 2.277 . S
O150 C145 1.209 . S
C151 O148 1.258 . S
C151 O153 1.282 . S
O152 Cd144 2.277 . S
O152 C145 1.226 . S
O153 Cd144 2.356 . S
O153 C151 1.282 . S
C154 O155 1.306 . S
C154 O157 1.160 . S
O155 C154 1.306 . S
O155 Cd156 2.228 . S
Cd156 O155 2.228 . S
Cd156 O160 2.273 . S
Cd156 O164 2.277 . S
O157 C154 1.160 . S
O157 Cd158 2.203 . S
Cd158 O157 2.203 . S
Cd158 O160 2.411 . S
Cd158 O161 2.333 . S
Cd158 O162 2.352 . S
Cd158 O166 2.277 . S
Cd158 O167 2.356 . S
C159 O164 1.209 . S
C159 O166 1.226 . S
O160 Cd156 2.273 . S
O160 Cd158 2.411 . S
O160 C163 1.320 . S
O161 Cd158 2.333 . S
O161 C163 1.214 . S
O162 Cd158 2.352 . S
O162 C165 1.258 . S
C163 O160 1.320 . S
C163 O161 1.214 . S
O164 Cd156 2.277 . S
O164 C159 1.209 . S
C165 O162 1.258 . S
C165 O167 1.282 . S
O166 Cd158 2.277 . S
O166 C159 1.226 . S
O167 Cd158 2.356 . S
O167 C165 1.282 . S
C168 O169 1.306 . S
C168 O171 1.160 . S
O169 C168 1.306 . S
O169 Cd170 2.228 . S
Cd170 O169 2.228 . S
Cd170 O174 2.273 . S
Cd170 O178 2.277 . S
O171 C168 1.160 . S
O171 Cd172 2.203 . S
Cd172 O171 2.203 . S
Cd172 O174 2.411 . S
Cd172 O175 2.333 1_556 S
Cd172 O176 2.352 . S
Cd172 O180 2.277 . S
Cd172 O181 2.356 1_556 S
C173 O178 1.209 . S
C173 O180 1.226 . S
O174 Cd170 2.273 . S
O174 Cd172 2.411 . S
O174 C177 1.320 . S
O175 Cd172 2.333 1_554 S
O175 C177 1.214 1_554 S
O176 Cd172 2.352 . S
O176 C179 1.258 . S
C177 O174 1.320 . S
C177 O175 1.214 1_556 S
O178 Cd170 2.277 . S
O178 C173 1.209 . S
C179 O176 1.258 . S
C179 O181 1.282 1_556 S
O180 Cd172 2.277 . S
O180 C173 1.226 . S
O181 Cd172 2.356 1_554 S
O181 C179 1.282 1_554 S
C182 O183 1.306 . S
C182 O185 1.160 . S
O183 C182 1.306 . S
O183 Cd184 2.228 . S
Cd184 O183 2.228 . S
Cd184 O188 2.273 . S
Cd184 O192 2.277 . S
O185 C182 1.160 . S
O185 Cd186 2.203 . S
Cd186 O185 2.203 . S
Cd186 O188 2.411 . S
Cd186 O189 2.333 . S
Cd186 O190 2.352 . S
Cd186 O194 2.277 . S
Cd186 O195 2.356 . S
C187 O192 1.209 . S
C187 O194 1.226 . S
O188 Cd184 2.273 . S
O188 Cd186 2.411 . S
O188 C191 1.320 . S
O189 Cd186 2.333 . S
O189 C191 1.214 . S
O190 Cd186 2.352 . S
O190 C193 1.258 . S
C191 O188 1.320 . S
C191 O189 1.214 . S
O192 Cd184 2.277 . S
O192 C187 1.209 . S
C193 O190 1.258 . S
C193 O195 1.282 . S
O194 Cd186 2.277 . S
O194 C187 1.226 . S
O195 Cd186 2.356 . S
O195 C193 1.282 . S
C196 O197 1.306 . S
C196 O199 1.160 . S
O197 C196 1.306 . S
O197 Cd198 2.228 . S
Cd198 O197 2.228 . S
Cd198 O202 2.273 . S
Cd198 O206 2.277 . S
O199 C196 1.160 . S
O199 Cd200 2.203 . S
Cd200 O199 2.203 . S
Cd200 O202 2.411 . S
Cd200 O203 2.333 1_554 S
Cd200 O204 2.352 . S
Cd200 O208 2.277 . S
Cd200 O209 2.356 1_554 S
C201 O206 1.209 . S
C201 O208 1.226 . S
O202 Cd198 2.273 . S
O202 Cd200 2.411 . S
O202 C205 1.320 . S
O203 Cd200 2.333 1_556 S
O203 C205 1.214 1_556 S
O204 Cd200 2.352 . S
O204 C207 1.258 . S
C205 O202 1.320 . S
C205 O203 1.214 1_554 S
O206 Cd198 2.277 . S
O206 C201 1.209 . S
C207 O204 1.258 . S
C207 O209 1.282 1_554 S
O208 Cd200 2.277 . S
O208 C201 1.226 . S
O209 Cd200 2.356 1_556 S
O209 C207 1.282 1_556 S
C210 O211 1.306 . S
C210 O213 1.160 . S
O211 C210 1.306 . S
O211 Cd212 2.228 . S
Cd212 O211 2.228 . S
Cd212 O216 2.273 . S
Cd212 O220 2.277 . S
O213 C210 1.160 . S
O213 Cd214 2.203 . S
Cd214 O213 2.203 . S
Cd214 O216 2.411 . S
Cd214 O217 2.333 . S
Cd214 O218 2.352 . S
Cd214 O222 2.277 . S
Cd214 O223 2.356 . S
C215 O220 1.209 . S
C215 O222 1.226 . S
O216 Cd212 2.273 . S
O216 Cd214 2.411 . S
O216 C219 1.320 . S
O217 Cd214 2.333 . S
O217 C219 1.214 . S
O218 Cd214 2.352 . S
O218 C221 1.258 . S
C219 O216 1.320 . S
C219 O217 1.214 . S
O220 Cd212 2.277 . S
O220 C215 1.209 . S
C221 O218 1.258 . S
C221 O223 1.282 . S
O222 Cd214 2.277 . S
O222 C215 1.226 . S
O223 Cd214 2.356 . S
O223 C221 1.282 . S
C5 C89 1.453 1_455 S
C19 C103 1.453 1_655 S
C61 C33 1.453 1_655 S
C75 C47 1.453 1_455 S
C201 C117 1.453 . S
C215 C131 1.453 . S
C145 C173 1.453 . S
C159 C187 1.453 . S
C9 C70 1.509 . S
C23 C56 1.509 . S
C37 C98 1.509 . S
C84 C51 1.509 . S
C182 C121 1.509 . S
C168 C135 1.509 . S
C149 C210 1.509 . S
C196 C163 1.509 . S
C179 C11 1.471 1_556 S
C25 C193 1.471 . S
C207 C39 1.471 1_554 S
C221 C53 1.471 . S
C123 C67 1.471 1_554 S
C137 C81 1.471 . S
C95 C151 1.471 1_554 S
C109 C165 1.471 . S
C28 C0 1.408 1_556 S
C14 C42 1.408 . S
C93 C65 1.629 1_554 S
C79 C107 1.629 . S
C140 C112 1.408 1_546 S
C154 C126 1.408 1_565 S
C205 C177 1.629 1_564 S
C219 C191 1.629 1_545 S
