# Generated by pormake.
# Topology tfs, (6)-cn, num edge types: 1
# Building blocks:
#     Node 0, Type 0, BuildingBlock: MIDCAF_clean_sbu_0, # of connection points: 6
#     Node 1, Type 0, BuildingBlock: MIDCAF_clean_sbu_0, # of connection points: 6
#     Node 2, Type 0, BuildingBlock: MIDCAF_clean_sbu_0, # of connection points: 6
#     Node 3, Type 0, BuildingBlock: MIDCAF_clean_sbu_0, # of connection points: 6
#     Node 4, Type 0, BuildingBlock: MIDCAF_clean_sbu_0, # of connection points: 6
#     Node 5, Type 0, BuildingBlock: MIDCAF_clean_sbu_0, # of connection points: 6
#     Edge 6, Type (0, 0), BuildingBlock: UKIBIB_clean_linker_0, # of connection points: 2
#     Edge 7, Type (0, 0), BuildingBlock: UKIBIB_clean_linker_0, # of connection points: 2
#     Edge 8, Type (0, 0), BuildingBlock: UKIBIB_clean_linker_0, # of connection points: 2
#     Edge 9, Type (0, 0), BuildingBlock: UKIBIB_clean_linker_0, # of connection points: 2
#     Edge 10, Type (0, 0), BuildingBlock: UKIBIB_clean_linker_0, # of connection points: 2
#     Edge 11, Type (0, 0), BuildingBlock: UKIBIB_clean_linker_0, # of connection points: 2
#     Edge 12, Type (0, 0), BuildingBlock: UKIBIB_clean_linker_0, # of connection points: 2
#     Edge 13, Type (0, 0), BuildingBlock: UKIBIB_clean_linker_0, # of connection points: 2
#     Edge 14, Type (0, 0), BuildingBlock: UKIBIB_clean_linker_0, # of connection points: 2
#     Edge 15, Type (0, 0), BuildingBlock: UKIBIB_clean_linker_0, # of connection points: 2
#     Edge 16, Type (0, 0), BuildingBlock: UKIBIB_clean_linker_0, # of connection points: 2
#     Edge 17, Type (0, 0), BuildingBlock: UKIBIB_clean_linker_0, # of connection points: 2
#     Edge 18, Type (0, 0), BuildingBlock: UKIBIB_clean_linker_0, # of connection points: 2
#     Edge 19, Type (0, 0), BuildingBlock: UKIBIB_clean_linker_0, # of connection points: 2
#     Edge 20, Type (0, 0), BuildingBlock: UKIBIB_clean_linker_0, # of connection points: 2
#     Edge 21, Type (0, 0), BuildingBlock: UKIBIB_clean_linker_0, # of connection points: 2
#     Edge 22, Type (0, 0), BuildingBlock: UKIBIB_clean_linker_0, # of connection points: 2
#     Edge 23, Type (0, 0), BuildingBlock: UKIBIB_clean_linker_0, # of connection points: 2
# Relax obj value: 0.134
# Max RMSD: 0.125
# Mean RMSD: 0.125
data_MOF--net-tfs--node1-MIDCAF_clean_sbu_0--edge1-UKIBIB_clean_linker_0
_symmetry_space_group_name_H-M    P1
_symmetry_Int_Tables_number       1
_symmetry_cell_setting            triclinic
loop_
_symmetry_equiv_pos_as_xyz
'x, y, z'
_cell_length_a     57.665062
_cell_length_b     57.458127
_cell_length_c     21.058029
_cell_angle_alpha  89.462473
_cell_angle_beta   90.77098
_cell_angle_gamma 119.9333
loop_
_atom_site_label
_atom_site_type_symbol
_atom_site_fract_x
_atom_site_fract_y
_atom_site_fract_z
_atom_type_partial_charge
Zn0 Zn 0.1429 0.40789 0.89932 0.0
Zn1 Zn 0.24387 0.40916 0.08295 0.0
Zn2 Zn 0.19392 0.41023 -0.00856 0.0
C3 C 0.22318 0.3783 0.97776 0.0
C4 C 0.19317 0.39787 0.13583 0.0
O5 O 0.18944 0.4459 -0.00476 0.0
O6 O 0.17041 0.44594 0.90204 0.0
C7 C 0.1797 0.39554 0.84531 0.0
O8 O 0.20078 0.37705 0.98716 0.0
O9 O 0.24475 0.39842 -0.00461 0.0
O10 O 0.21086 0.39101 0.13158 0.0
O11 O 0.18832 0.41027 0.09143 0.0
O12 O 0.15469 0.38606 0.85036 0.0
O13 O 0.19612 0.40958 0.88945 0.0
O14 O 0.15363 0.37467 -0.00185 0.0
O15 O 0.13783 0.40186 -0.00754 0.0
C16 C 0.13382 0.37865 0.00307 0.0
O17 O 0.23404 0.44513 0.98245 0.0
O18 O 0.25499 0.44618 0.07341 0.0
C19 C 0.18184 0.45739 0.95372 0.0
C20 C 0.25325 0.45735 0.02294 0.0
Zn21 Zn 0.71986 0.14851 0.89513 0.0
Zn22 Zn 0.81994 0.24554 0.09097 0.0
Zn23 Zn 0.77031 0.19889 0.98908 0.0
C24 C 0.83529 0.23253 0.98182 0.0
C25 C 0.78353 0.19629 0.1299 0.0
O26 O 0.73145 0.19524 -0.00498 0.0
O27 O 0.70666 0.1712 0.91188 0.0
C28 C 0.77357 0.18951 0.84671 0.0
O29 O 0.81222 0.2114 0.97593 0.0
O30 O 0.83913 0.25296 0.01258 0.0
O31 O 0.80761 0.20741 0.11328 0.0
O32 O 0.7659 0.19507 0.09073 0.0
O33 O 0.75225 0.16782 0.8545 0.0
O34 O 0.78246 0.20807 0.88905 0.0
O35 O 0.76376 0.15866 -0.00878 0.0
O36 O 0.72032 0.13198 0.97074 0.0
C37 C 0.74184 0.13645 -0.0029 0.0
O38 O 0.77782 0.24007 0.98017 0.0
O39 O 0.79298 0.25655 0.0772 0.0
C40 C 0.71085 0.18649 0.95843 0.0
C41 C 0.78432 0.25832 0.02269 0.0
Zn42 Zn 0.56363 0.82901 0.08007 0.0
Zn43 Zn 0.56028 0.72484 0.86675 0.0
Zn44 Zn 0.56349 0.77963 0.9879 0.0
C45 C 0.59689 0.75561 -0.01079 0.0
C46 C 0.57377 0.77959 0.85084 0.0
O47 O 0.52716 0.78283 -0.00491 0.0
O48 O 0.52435 0.8049 0.07897 0.0
C49 C 0.5756 0.79117 0.12917 0.0
O50 O 0.59707 0.77435 0.02127 0.0
O51 O 0.58108 0.74749 0.94205 0.0
O52 O 0.583 0.7656 0.87514 0.0
O53 O 0.56281 0.78855 0.88783 0.0
O54 O 0.58761 0.81543 0.11186 0.0
O55 O 0.56114 0.77279 0.08935 0.0
O56 O 0.59857 0.81902 0.97405 0.0
O57 O 0.56986 0.83258 0.98703 0.0
C58 C 0.59345 0.8382 0.97578 0.0
O59 O 0.52929 0.73845 0.98802 0.0
O60 O 0.52414 0.7121 0.90352 0.0
C61 C 0.51423 0.79079 0.02947 0.0
C62 C 0.51565 0.71723 0.95415 0.0
Zn63 Zn 0.71897 0.56466 0.09345 0.0
Zn64 Zn 0.82268 0.56978 0.89755 0.0
Zn65 Zn 0.77185 0.56806 -0.00579 0.0
C66 C 0.83332 0.59996 0.00251 0.0
C67 C 0.78551 0.58353 0.84696 0.0
O68 O 0.73103 0.53551 0.98441 0.0
O69 O 0.70755 0.52831 0.07386 0.0
C70 C 0.77241 0.58033 0.13855 0.0
O71 O 0.81224 0.60189 -0.00348 0.0
O72 O 0.83257 0.57832 0.98867 0.0
O73 O 0.81044 0.59289 0.8539 0.0
O74 O 0.76902 0.57011 0.89117 0.0
O75 O 0.7512 0.58153 0.1384 0.0
O76 O 0.77923 0.57032 0.09339 0.0
O77 O 0.7634 0.59997 0.97618 0.0
O78 O 0.72456 0.58796 0.02514 0.0
C79 C 0.74299 0.60256 0.98721 0.0
O80 O 0.77839 0.53431 -0.00888 0.0
O81 O 0.79669 0.53106 0.90061 0.0
C82 C 0.71191 0.5205 0.02194 0.0
C83 C 0.78503 0.52143 0.95297 0.0
Zn84 Zn 0.14195 0.72499 0.07889 0.0
Zn85 Zn 0.23967 0.82831 0.89575 0.0
Zn86 Zn 0.19236 0.77793 -0.00725 0.0
C87 C 0.22042 0.83729 0.00161 0.0
C88 C 0.19076 0.79199 0.84792 0.0
O89 O 0.18334 0.73676 0.9851 0.0
O90 O 0.16757 0.71345 0.07523 0.0
C91 C 0.18214 0.77915 0.13388 0.0
O92 O 0.19623 0.81807 0.00617 0.0
O93 O 0.23798 0.83131 0.98873 0.0
O94 O 0.20333 0.81687 0.85931 0.0
O95 O 0.19001 0.77532 0.88969 0.0
O96 O 0.16028 0.75753 0.12644 0.0
O97 O 0.20038 0.78846 0.09147 0.0
O98 O 0.15246 0.77111 0.98657 0.0
O99 O 0.12929 0.72675 -0.00684 0.0
C100 C 0.1309 0.74878 0.97801 0.0
O101 O 0.23242 0.78228 -0.00885 0.0
O102 O 0.25201 0.80148 0.89904 0.0
C103 C 0.18045 0.71831 0.02421 0.0
C104 C 0.25155 0.78981 0.95108 0.0
Zn105 Zn 0.40183 0.24614 0.89911 0.0
Zn106 Zn 0.40495 0.15008 0.09062 0.0
Zn107 Zn 0.4044 0.2001 -0.00754 0.0
C108 C 0.37255 0.13464 0.98565 0.0
C109 C 0.39242 0.18934 0.13102 0.0
O110 O 0.43947 0.23985 -0.00378 0.0
O111 O 0.4401 0.25694 0.90028 0.0
C112 C 0.3891 0.19731 0.84989 0.0
O113 O 0.37661 0.1585 0.97861 0.0
O114 O 0.38761 0.12884 0.01813 0.0
O115 O 0.38229 0.16565 0.11108 0.0
O116 O 0.40494 0.20889 0.09248 0.0
O117 O 0.37668 0.20922 0.86582 0.0
O118 O 0.40498 0.19533 0.88976 0.0
O119 O 0.37132 0.2075 -0.00172 0.0
O120 O 0.39416 0.25138 0.98768 0.0
C121 C 0.37308 0.23044 0.00403 0.0
O122 O 0.43836 0.19372 0.98252 0.0
O123 O 0.44151 0.1735 0.07126 0.0
C124 C 0.45103 0.25821 0.95384 0.0
C125 C 0.45126 0.18649 0.0205 0.0
C126 C 0.34259 0.24076 0.94532 0.0
C127 C 0.34934 0.23321 0.00327 0.0
C128 C 0.32921 0.25529 0.94472 0.0
C129 C 0.22732 0.34266 0.02863 0.0
C130 C 0.22514 0.35435 0.97175 0.0
C131 C 0.24258 0.33005 0.03098 0.0
H132 H 0.34649 0.23358 0.10545 0.0
H133 H 0.32072 0.25725 0.10415 0.0
H134 H 0.23601 0.36147 0.87268 0.0
H135 H 0.26085 0.33697 0.87545 0.0
C136 C 0.34063 0.23845 0.06035 0.0
C137 C 0.32661 0.25251 0.05964 0.0
C138 C 0.23654 0.35148 0.91617 0.0
C139 C 0.25133 0.33829 0.91822 0.0
C140 C 0.32157 0.26157 0.00185 0.0
C141 C 0.30852 0.27725 0.00025 0.0
C142 C 0.29772 0.29043 -0.00534 0.0
C143 C 0.25488 0.32816 0.97603 0.0
C144 C 0.27084 0.31549 0.97949 0.0
C145 C 0.28391 0.30462 0.98595 0.0
H146 H 0.34992 0.23766 0.90087 0.0
H147 H 0.32556 0.26233 0.89979 0.0
H148 H 0.21972 0.34585 0.07257 0.0
H149 H 0.24545 0.32252 0.07605 0.0
C150 C 0.09257 0.33983 0.04895 0.0
C151 C 0.10559 0.35715 -0.00223 0.0
C152 C 0.06442 0.32536 0.05106 0.0
C153 C 0.87486 0.25152 0.9178 0.0
C154 C 0.85971 0.23297 0.96486 0.0
C155 C 0.9027 0.26598 0.92294 0.0
H156 H 0.09924 0.3728 0.90888 0.0
H157 H 0.05075 0.34805 0.91334 0.0
H158 H 0.86131 0.21335 0.0519 0.0
H159 H 0.91034 0.23763 0.05884 0.0
C160 C 0.08995 0.35925 0.94841 0.0
C161 C 0.06214 0.34533 0.95114 0.0
C162 C 0.87271 0.22687 0.01366 0.0
C163 C 0.9006 0.24132 0.01878 0.0
C164 C 0.04919 0.32839 0.00236 0.0
C165 C 0.02031 0.31395 0.00275 0.0
C166 C -0.00375 0.30302 -0.00235 0.0
C167 C 0.91561 0.2614 0.97428 0.0
C168 C 0.94425 0.27705 0.98108 0.0
C169 C 0.96819 0.28966 0.98869 0.0
H170 H 0.10407 0.33861 0.08864 0.0
H171 H 0.05461 0.31232 0.0912 0.0
H172 H 0.86508 0.25712 0.88135 0.0
H173 H 0.91403 0.28148 0.88827 0.0
C174 C 0.74787 0.09907 0.97213 0.0
C175 C 0.74068 0.11199 0.01742 0.0
C176 C 0.73265 0.07126 0.96538 0.0
C177 C 0.60952 0.88271 0.02384 0.0
C178 C 0.61403 0.8668 0.98069 0.0
C179 C 0.62417 0.91053 0.02081 0.0
H180 H 0.71326 0.10652 0.09287 0.0
H181 H 0.68721 0.05771 0.08245 0.0
H182 H 0.63761 0.86775 0.9006 0.0
H183 H 0.66461 0.91739 0.89718 0.0
C184 C 0.71986 0.09669 0.05981 0.0
C185 C 0.70438 0.06903 0.05226 0.0
C186 C 0.6343 0.87949 0.93549 0.0
C187 C 0.64928 0.90771 0.93283 0.0
C188 C 0.71061 0.05633 0.00463 0.0
C189 C 0.69505 0.02781 -0.00256 0.0
C190 C 0.68269 0.00395 -0.01065 0.0
C191 C 0.64403 0.92317 0.97544 0.0
C192 C 0.659 0.952 0.97501 0.0
C193 C 0.66984 0.97601 0.98025 0.0
H194 H 0.763 0.11062 0.9371 0.0
H195 H 0.73749 0.06155 0.92813 0.0
H196 H 0.59386 0.8737 0.05879 0.0
H197 H 0.61979 0.92218 0.05381 0.0
C198 C 0.75089 0.64819 0.98781 0.0
C199 C 0.73863 0.62296 0.95844 0.0
C200 C 0.73662 0.6618 -0.00527 0.0
C201 C 0.60076 0.71461 -0.01022 0.0
C202 C 0.61213 0.74186 0.00614 0.0
C203 C 0.6163 0.70229 0.98859 0.0
H204 H 0.7028 0.59275 0.91076 0.0
H205 H 0.67783 0.61628 0.92395 0.0
H206 H 0.6479 0.77663 0.04228 0.0
H207 H 0.67512 0.75427 0.04321 0.0
C208 C 0.71301 0.61276 0.93109 0.0
C209 C 0.69839 0.62566 0.94064 0.0
C210 C 0.63874 0.75573 0.02861 0.0
C211 C 0.65433 0.74312 0.02831 0.0
C212 C 0.7101 0.65014 0.97276 0.0
C213 C 0.69528 0.66388 0.9806 0.0
C214 C 0.68335 0.67586 0.98786 0.0
C215 C 0.64328 0.71663 0.00612 0.0
C216 C 0.65908 0.70368 0.00089 0.0
C217 C 0.67047 0.69106 -0.00525 0.0
H218 H 0.77015 0.65593 0.01142 0.0
H219 H 0.74587 0.68083 0.0195 0.0
H220 H 0.58007 0.70317 0.9742 0.0
H221 H 0.60734 0.68171 0.97235 0.0
C222 C 0.09185 0.74559 0.02803 0.0
C223 C 0.10518 0.7472 0.97148 0.0
C224 C 0.06403 0.73037 0.03033 0.0
C225 C 0.87414 0.62935 0.94433 0.0
C226 C 0.86008 0.62347 0.00166 0.0
C227 C 0.902 0.64254 0.94464 0.0
H228 H 0.10044 0.73525 0.87301 0.0
H229 H 0.0513 0.7103 0.87565 0.0
H230 H 0.86385 0.62723 0.10384 0.0
H231 H 0.91318 0.65261 0.10403 0.0
C232 C 0.09037 0.73521 0.91616 0.0
C233 C 0.06247 0.72033 0.9182 0.0
C234 C 0.87434 0.63255 0.05905 0.0
C235 C 0.90238 0.64634 0.05923 0.0
C236 C 0.0493 0.7174 0.9757 0.0
C237 C 0.02067 0.70143 0.97921 0.0
C238 C -0.0032 0.68845 0.98597 0.0
C239 C 0.91622 0.65078 0.00202 0.0
C240 C 0.94497 0.66391 0.001 0.0
C241 C 0.96889 0.6747 -0.00484 0.0
H242 H 0.10303 0.75361 0.0719 0.0
H243 H 0.05409 0.72801 0.07519 0.0
H244 H 0.86353 0.62161 0.89974 0.0
H245 H 0.91242 0.64563 0.90016 0.0
C246 C 0.25076 0.88257 0.95806 0.0
C247 C 0.22907 0.86633 -0.00187 0.0
C248 C 0.26365 0.9104 0.96099 0.0
C249 C 0.32756 0.09923 0.00403 0.0
C250 C 0.34889 0.11179 0.96136 0.0
C251 C 0.31426 0.07136 0.01071 0.0
H252 H 0.20434 0.86708 0.07362 0.0
H253 H 0.22674 0.91678 0.07712 0.0
H254 H 0.37109 0.10595 0.88771 0.0
H255 H 0.34753 0.05715 0.89849 0.0
C256 C 0.22034 0.87894 0.04085 0.0
C257 C 0.23339 0.90721 0.04354 0.0
C258 C 0.35419 0.09634 0.91951 0.0
C259 C 0.34147 0.06867 0.92731 0.0
C260 C 0.2551 0.92289 0.00347 0.0
C261 C 0.26873 0.95177 0.00357 0.0
C262 C 0.2819 0.97581 -0.00173 0.0
C263 C 0.32182 0.05619 0.9736 0.0
C264 C 0.30867 0.02767 0.98129 0.0
C265 C 0.2971 0.00378 -0.01064 0.0
H266 H 0.25848 0.87379 0.92518 0.0
H267 H 0.28047 0.92217 0.93004 0.0
H268 H 0.32369 0.11098 0.03787 0.0
H269 H 0.29896 0.0618 0.04651 0.0
C270 C 0.17112 0.67924 0.95988 0.0
C271 C 0.18681 0.69805 0.00617 0.0
C272 C 0.17108 0.65499 0.95627 0.0
C273 C 0.20034 0.50138 0.01276 0.0
C274 C 0.18395 0.4837 0.965 0.0
C275 C 0.20172 0.52631 0.01999 0.0
H276 H 0.21434 0.70703 0.08514 0.0
H277 H 0.21505 0.66485 0.07731 0.0
H278 H 0.15557 0.47808 0.88881 0.0
H279 H 0.15825 0.52105 0.90197 0.0
C280 C 0.20292 0.69295 0.04769 0.0
C281 C 0.20295 0.6688 0.04396 0.0
C282 C 0.16878 0.49124 0.92564 0.0
C283 C 0.17014 0.51584 0.93302 0.0
C284 C 0.1868 0.64964 -0.00128 0.0
C285 C 0.18646 0.62453 -0.00437 0.0
C286 C 0.18613 0.60346 -0.00708 0.0
C287 C 0.18654 0.53346 0.98005 0.0
C288 C 0.1872 0.55862 0.98692 0.0
C289 C 0.18668 0.57927 -0.01029 0.0
H290 H 0.15767 0.68254 0.92955 0.0
H291 H 0.15833 0.64018 0.9215 0.0
H292 H 0.21218 0.4961 0.04373 0.0
H293 H 0.21453 0.53994 0.05665 0.0
C294 C 0.48741 0.1905 0.94958 0.0
C295 C 0.47883 0.19343 0.00933 0.0
C296 C 0.51171 0.19073 0.94466 0.0
C297 C 0.68179 0.19586 0.02765 0.0
C298 C 0.6901 0.19334 0.96728 0.0
C299 C 0.65779 0.1961 0.0336 0.0
H300 H 0.48888 0.20011 0.10988 0.0
H301 H 0.53079 0.20005 0.1009 0.0
H302 H 0.68132 0.19079 0.86579 0.0
H303 H 0.63939 0.19032 0.87704 0.0
C304 C 0.4952 0.19784 0.06317 0.0
C305 C 0.51902 0.19765 0.05835 0.0
C306 C 0.67511 0.19247 0.91313 0.0
C307 C 0.65111 0.19208 0.91927 0.0
C308 C 0.52721 0.19382 -0.0007 0.0
C309 C 0.55154 0.193 -0.00479 0.0
C310 C 0.57194 0.1923 -0.00831 0.0
C311 C 0.64222 0.19355 0.97946 0.0
C312 C 0.61717 0.19274 0.98495 0.0
C313 C 0.59605 0.192 0.98779 0.0
H314 H 0.4748 0.18656 0.90785 0.0
H315 H 0.51804 0.18778 0.89869 0.0
H316 H 0.69295 0.19624 0.06983 0.0
H317 H 0.65103 0.19755 0.08036 0.0
C318 C 0.48101 0.68397 0.0273 0.0
C319 C 0.48785 0.69785 0.96927 0.0
C320 C 0.45659 0.65991 0.03268 0.0
C321 C 0.28125 0.49799 0.95425 0.0
C322 C 0.27557 0.48482 0.01324 0.0
C323 C 0.30502 0.52264 0.94683 0.0
H324 H 0.47445 0.69892 0.87321 0.0
H325 H 0.43192 0.65706 0.88291 0.0
H326 H 0.28965 0.48799 0.11141 0.0
H327 H 0.33066 0.52972 0.097 0.0
C328 C 0.46939 0.6885 0.91851 0.0
C329 C 0.44529 0.6645 0.9237 0.0
C330 C 0.29341 0.49719 0.06472 0.0
C331 C 0.31703 0.52121 0.05692 0.0
C332 C 0.43901 0.64986 0.98039 0.0
C333 C 0.41453 0.62453 0.9845 0.0
C334 C 0.39389 0.60339 0.98648 0.0
C335 C 0.32311 0.53393 -0.00201 0.0
C336 C 0.34809 0.55855 -0.00883 0.0
C337 C 0.36931 0.57906 0.98874 0.0
H338 H 0.49518 0.6906 0.06658 0.0
H339 H 0.45182 0.64872 0.07685 0.0
H340 H 0.26793 0.48898 0.91392 0.0
H341 H 0.30953 0.53259 0.90103 0.0
C342 C 0.7954 0.49135 0.01616 0.0
C343 C 0.77978 0.4947 0.96938 0.0
C344 C 0.79505 0.46691 0.02106 0.0
C345 C 0.76539 0.28408 0.96519 0.0
C346 C 0.78243 0.28272 0.01144 0.0
C347 C 0.76363 0.30752 0.95896 0.0
H348 H 0.75141 0.47606 0.89232 0.0
H349 H 0.75003 0.43282 0.90244 0.0
H350 H 0.81107 0.30492 0.08708 0.0
H351 H 0.80785 0.34519 0.07559 0.0
C352 C 0.76314 0.4734 0.92934 0.0
C353 C 0.7626 0.44897 0.93463 0.0
C354 C 0.7976 0.30512 0.05099 0.0
C355 C 0.79586 0.32828 0.04465 0.0
C356 C 0.77888 0.44581 0.97971 0.0
C357 C 0.77917 0.421 0.98304 0.0
C358 C 0.77947 0.40023 0.986 0.0
C359 C 0.77905 0.32968 -0.00148 0.0
C360 C 0.77842 0.35428 -0.0082 0.0
C361 C 0.779 0.3755 0.98911 0.0
H362 H 0.80889 0.50798 0.04623 0.0
H363 H 0.8078 0.46469 0.05596 0.0
H364 H 0.75327 0.26706 0.93474 0.0
H365 H 0.7504 0.3084 0.92323 0.0
C366 C 0.30079 0.81085 0.95018 0.0
C367 C 0.27593 0.78878 0.96709 0.0
C368 C 0.32419 0.80958 0.95643 0.0
C369 C 0.46478 0.76415 0.02776 0.0
C370 C 0.48831 0.787 0.00857 0.0
C371 C 0.44026 0.76351 0.0227 0.0
H372 H 0.256 0.74855 0.00608 0.0
H373 H 0.29757 0.74634 0.01762 0.0
H374 H 0.50524 0.82711 0.96896 0.0
H375 H 0.46207 0.82573 0.95872 0.0
C376 C 0.27497 0.76577 -0.00697 0.0
C377 C 0.29857 0.76446 -0.00096 0.0
C378 C 0.48709 0.80899 0.9825 0.0
C379 C 0.4626 0.80836 0.97742 0.0
C380 C 0.3232 0.78632 0.98017 0.0
C381 C 0.34762 0.78528 0.98513 0.0
C382 C 0.36863 0.78547 0.98828 0.0
C383 C 0.43915 0.78576 -0.00167 0.0
C384 C 0.41406 0.78554 -0.00483 0.0
C385 C 0.39322 0.78568 -0.0078 0.0
H386 H 0.30207 0.829 0.93082 0.0
H387 H 0.34303 0.82667 0.94201 0.0
H388 H 0.46558 0.7474 0.04957 0.0
H389 H 0.42229 0.74595 0.03927 0.0
C390 C 0.67005 0.49204 0.96543 0.0
C391 C 0.69116 0.49415 0.00311 0.0
C392 C 0.64589 0.46783 0.96312 0.0
C393 C 0.4964 0.28286 0.00626 0.0
C394 C 0.47666 0.28279 0.96653 0.0
C395 C 0.52139 0.30633 0.01246 0.0
H396 H 0.70383 0.47402 0.07079 0.0
H397 H 0.66173 0.43097 0.06436 0.0
H398 H 0.4669 0.30726 0.90454 0.0
H399 H 0.51022 0.34786 0.91593 0.0
C400 C 0.68808 0.47208 0.03873 0.0
C401 C 0.66399 0.44783 0.03611 0.0
C402 C 0.48191 0.3066 0.93484 0.0
C403 C 0.50664 0.32986 0.94124 0.0
C404 C 0.64279 0.44569 -0.00147 0.0
C405 C 0.61788 0.42076 -0.0042 0.0
C406 C 0.59687 0.39999 -0.00698 0.0
C407 C 0.52651 0.32986 0.9798 0.0
C408 C 0.55185 0.3543 0.98599 0.0
C409 C 0.5726 0.37535 0.98919 0.0
H410 H 0.67173 0.50948 0.94087 0.0
H411 H 0.62949 0.46654 0.93471 0.0
H412 H 0.49281 0.26473 0.03087 0.0
H413 H 0.53667 0.3061 0.04246 0.0
C414 C 0.1936 0.41996 0.7449 0.0
C415 C 0.18905 0.39742 0.78068 0.0
C416 C 0.19286 0.41885 0.67877 0.0
C417 C 0.17725 0.37136 0.23269 0.0
C418 C 0.18184 0.39441 0.19873 0.0
C419 C 0.17795 0.37156 0.29861 0.0
H420 H 0.18108 0.35643 0.77705 0.0
H421 H 0.18173 0.35514 0.66027 0.0
H422 H 0.18859 0.43489 0.20585 0.0
H423 H 0.18791 0.43454 0.32271 0.0
C424 C 0.18539 0.37426 0.74997 0.0
C425 C 0.18524 0.37335 0.68366 0.0
C426 C 0.18439 0.41674 0.23127 0.0
C427 C 0.1847 0.41677 0.29767 0.0
C428 C 0.18834 0.39542 0.64805 0.0
C429 C 0.1869 0.39417 0.57999 0.0
C430 C 0.18583 0.394 0.52293 0.0
C431 C 0.1822 0.39443 0.33123 0.0
C432 C 0.18375 0.39469 0.3992 0.0
C433 C 0.18497 0.39439 0.45618 0.0
H434 H 0.19555 0.43764 0.76807 0.0
H435 H 0.19508 0.43598 0.65176 0.0
H436 H 0.17564 0.35409 0.20814 0.0
H437 H 0.17599 0.35418 0.32399 0.0
C438 C 0.79894 0.21712 0.75034 0.0
C439 C 0.78176 0.19251 0.77947 0.0
C440 C 0.80043 0.2186 0.6836 0.0
C441 C 0.76103 0.16985 0.22725 0.0
C442 C 0.77901 0.1943 0.19839 0.0
C443 C 0.76045 0.16762 0.29366 0.0
H444 H 0.75452 0.14953 0.76001 0.0
H445 H 0.75516 0.15343 0.64748 0.0
H446 H 0.81043 0.23541 0.2148 0.0
H447 H 0.80913 0.2315 0.33026 0.0
C448 C 0.76748 0.16937 0.74051 0.0
C449 C 0.76773 0.17127 0.67532 0.0
C450 C 0.79615 0.21645 0.23625 0.0
C451 C 0.79559 0.21421 0.30199 0.0
C452 C 0.7841 0.1958 0.64648 0.0
C453 C 0.78401 0.19665 0.57855 0.0
C454 C 0.78182 0.19428 0.52184 0.0
C455 C 0.77778 0.18989 0.33091 0.0
C456 C 0.77725 0.18864 0.39891 0.0
C457 C 0.77899 0.19055 0.45576 0.0
H458 H 0.8103 0.23509 0.77845 0.0
H459 H 0.81364 0.23763 0.66097 0.0
H460 H 0.74821 0.15241 0.19861 0.0
H461 H 0.74667 0.14864 0.31579 0.0
C462 C 0.58001 0.76675 0.74276 0.0
C463 C 0.57516 0.78376 0.78106 0.0
C464 C 0.58112 0.76952 0.67703 0.0
C465 C 0.57305 0.80583 0.23668 0.0
C466 C 0.57427 0.78662 0.19812 0.0
C467 C 0.57477 0.80473 0.30227 0.0
H468 H 0.5702 0.81882 0.7804 0.0
H469 H 0.57251 0.82385 0.66345 0.0
H470 H 0.57914 0.7516 0.19774 0.0
H471 H 0.58158 0.74927 0.31509 0.0
C472 C 0.57302 0.80482 0.75197 0.0
C473 C 0.5745 0.80781 0.68545 0.0
C474 C 0.57739 0.76615 0.22663 0.0
C475 C 0.57913 0.76505 0.2932 0.0
C476 C 0.57793 0.78966 0.64792 0.0
C477 C 0.57755 0.79054 0.57951 0.0
C478 C 0.57767 0.78852 0.52256 0.0
C479 C 0.57759 0.7843 0.33097 0.0
C480 C 0.578 0.78329 0.39928 0.0
C481 C 0.578 0.78518 0.45626 0.0
H482 H 0.5824 0.75074 0.76345 0.0
H483 H 0.58408 0.75555 0.64879 0.0
H484 H 0.57091 0.82201 0.21594 0.0
H485 H 0.57371 0.81981 0.33065 0.0
C486 C 0.7746 0.60127 0.7501 0.0
C487 C 0.77657 0.58058 0.78096 0.0
C488 C 0.77478 0.60259 0.68364 0.0
C489 C 0.78752 0.56612 0.23266 0.0
C490 C 0.78523 0.58621 0.20012 0.0
C491 C 0.78683 0.5655 0.29896 0.0
H492 H 0.78079 0.54554 0.76822 0.0
H493 H 0.78135 0.54801 0.65214 0.0
H494 H 0.78203 0.62212 0.20929 0.0
H495 H 0.78025 0.62054 0.32463 0.0
C496 C 0.77822 0.56104 0.74498 0.0
C497 C 0.77901 0.5627 0.67898 0.0
C498 C 0.78449 0.60681 0.234 0.0
C499 C 0.7828 0.60558 0.29955 0.0
C500 C 0.77747 0.58355 0.64815 0.0
C501 C 0.77853 0.58507 0.58012 0.0
C502 C 0.77953 0.58518 0.52313 0.0
C503 C 0.78369 0.58481 0.33214 0.0
C504 C 0.782 0.58402 0.39986 0.0
C505 C 0.78049 0.58439 0.4566 0.0
H506 H 0.77435 0.61708 0.77723 0.0
H507 H 0.77365 0.61885 0.66012 0.0
H508 H 0.78727 0.5497 0.20716 0.0
H509 H 0.78768 0.54941 0.32413 0.0
C510 C 0.16247 0.77947 0.23579 0.0
C511 C 0.18588 0.78926 0.19908 0.0
C512 C 0.16375 0.77906 0.30129 0.0
C513 C 0.21055 0.79739 0.74301 0.0
C514 C 0.18751 0.78517 0.78049 0.0
C515 C 0.20846 0.7972 0.67723 0.0
H516 H 0.22917 0.80972 0.2026 0.0
H517 H 0.23152 0.81234 0.3199 0.0
H518 H 0.14418 0.76309 0.77955 0.0
H519 H 0.14047 0.76148 0.66223 0.0
C520 C 0.21091 0.80205 0.22958 0.0
C521 C 0.21219 0.80294 0.29621 0.0
C522 C 0.16216 0.77194 0.75123 0.0
C523 C 0.16007 0.77144 0.6847 0.0
C524 C 0.18854 0.79054 0.33179 0.0
C525 C 0.18908 0.78976 0.39977 0.0
C526 C 0.18705 0.78792 0.45655 0.0
C527 C 0.18331 0.78436 0.64781 0.0
C528 C 0.18206 0.78438 0.57971 0.0
C529 C 0.18383 0.78587 0.52281 0.0
H530 H 0.14274 0.76996 0.21383 0.0
H531 H 0.14532 0.76958 0.32805 0.0
H532 H 0.23025 0.80817 0.7649 0.0
H533 H 0.22653 0.80735 0.64932 0.0
C534 C 0.38599 0.17041 0.75286 0.0
C535 C 0.39112 0.19461 0.78105 0.0
C536 C 0.38445 0.168 0.68633 0.0
C537 C 0.39415 0.21632 0.22775 0.0
C538 C 0.38949 0.19228 0.19955 0.0
C539 C 0.39306 0.21778 0.29421 0.0
H540 H 0.39865 0.23503 0.76271 0.0
H541 H 0.39614 0.23075 0.64767 0.0
H542 H 0.37771 0.15039 0.21865 0.0
H543 H 0.37713 0.15365 0.33226 0.0
C544 C 0.39487 0.21622 0.74211 0.0
C545 C 0.39331 0.21379 0.67645 0.0
C546 C 0.3821 0.16953 0.23836 0.0
C547 C 0.38167 0.17121 0.30374 0.0
C548 C 0.38817 0.1898 0.64824 0.0
C549 C 0.38756 0.1885 0.58012 0.0
C550 C 0.38767 0.19047 0.52317 0.0
C551 C 0.38762 0.19536 0.33205 0.0
C552 C 0.3884 0.19645 0.40009 0.0
C553 C 0.38828 0.19421 0.45694 0.0
H554 H 0.3824 0.15332 0.78202 0.0
H555 H 0.3803 0.14925 0.66476 0.0
H556 H 0.39904 0.23387 0.19895 0.0
H557 H 0.39712 0.23646 0.31604 0.0
loop_
_geom_bond_atom_site_label_1
_geom_bond_atom_site_label_2
_geom_bond_distance
_geom_bond_site_symmetry_2
_ccdc_geom_bond_type
Zn0 O6 1.920 . S
Zn0 O12 1.898 . S
Zn0 O15 1.905 . S
Zn1 O9 1.905 . S
Zn1 O10 1.898 . S
Zn1 O18 1.920 . S
Zn2 O5 2.080 . S
Zn2 O8 2.114 . S
Zn2 O11 2.120 . S
Zn2 O13 2.120 1_554 S
Zn2 O14 2.114 1_554 S
Zn2 O17 2.080 1_554 S
C3 O8 1.166 . S
C3 O9 1.182 . S
C4 O10 1.167 . S
C4 O11 1.299 . S
O5 Zn2 2.080 . S
O5 C19 1.305 1_554 S
O6 Zn0 1.920 . S
O6 C19 1.234 . S
C7 O12 1.167 . S
C7 O13 1.299 . S
O8 Zn2 2.114 . S
O8 C3 1.166 . S
O9 Zn1 1.905 . S
O9 C3 1.182 . S
O10 Zn1 1.898 . S
O10 C4 1.167 . S
O11 Zn2 2.120 . S
O11 C4 1.299 . S
O12 Zn0 1.898 . S
O12 C7 1.167 . S
O13 Zn2 2.120 1_556 S
O13 C7 1.299 . S
O14 Zn2 2.114 1_556 S
O14 C16 1.166 . S
O15 Zn0 1.905 . S
O15 C16 1.182 . S
C16 O14 1.166 . S
C16 O15 1.182 . S
O17 Zn2 2.080 1_556 S
O17 C20 1.305 1_556 S
O18 Zn1 1.920 . S
O18 C20 1.234 . S
C19 O5 1.305 1_556 S
C19 O6 1.234 . S
C20 O17 1.305 1_554 S
C20 O18 1.234 . S
Zn21 O27 1.920 . S
Zn21 O33 1.898 . S
Zn21 O36 1.905 . S
Zn22 O30 1.905 . S
Zn22 O31 1.898 . S
Zn22 O39 1.920 . S
Zn23 O26 2.080 . S
Zn23 O29 2.114 . S
Zn23 O32 2.120 . S
Zn23 O34 2.120 1_554 S
Zn23 O35 2.114 1_554 S
Zn23 O38 2.080 1_554 S
C24 O29 1.166 . S
C24 O30 1.182 . S
C25 O31 1.167 . S
C25 O32 1.299 . S
O26 Zn23 2.080 . S
O26 C40 1.305 1_554 S
O27 Zn21 1.920 . S
O27 C40 1.234 . S
C28 O33 1.167 . S
C28 O34 1.299 . S
O29 Zn23 2.114 . S
O29 C24 1.166 . S
O30 Zn22 1.905 . S
O30 C24 1.182 . S
O31 Zn22 1.898 . S
O31 C25 1.167 . S
O32 Zn23 2.120 . S
O32 C25 1.299 . S
O33 Zn21 1.898 . S
O33 C28 1.167 . S
O34 Zn23 2.120 1_556 S
O34 C28 1.299 . S
O35 Zn23 2.114 1_556 S
O35 C37 1.166 . S
O36 Zn21 1.905 . S
O36 C37 1.182 . S
C37 O35 1.166 . S
C37 O36 1.182 . S
O38 Zn23 2.080 1_556 S
O38 C41 1.305 1_556 S
O39 Zn22 1.920 . S
O39 C41 1.234 . S
C40 O26 1.305 1_556 S
C40 O27 1.234 . S
C41 O38 1.305 1_554 S
C41 O39 1.234 . S
Zn42 O48 1.920 . S
Zn42 O54 1.898 . S
Zn42 O57 1.905 . S
Zn43 O51 1.905 . S
Zn43 O52 1.898 . S
Zn43 O60 1.920 . S
Zn44 O47 2.080 1_554 S
Zn44 O50 2.114 1_554 S
Zn44 O53 2.120 1_554 S
Zn44 O55 2.120 . S
Zn44 O56 2.114 . S
Zn44 O59 2.080 . S
C45 O50 1.166 . S
C45 O51 1.182 . S
C46 O52 1.167 . S
C46 O53 1.299 . S
O47 Zn44 2.080 1_556 S
O47 C61 1.305 1_556 S
O48 Zn42 1.920 . S
O48 C61 1.234 . S
C49 O54 1.167 . S
C49 O55 1.299 . S
O50 Zn44 2.114 1_556 S
O50 C45 1.166 . S
O51 Zn43 1.905 . S
O51 C45 1.182 . S
O52 Zn43 1.898 . S
O52 C46 1.167 . S
O53 Zn44 2.120 1_556 S
O53 C46 1.299 . S
O54 Zn42 1.898 . S
O54 C49 1.167 . S
O55 Zn44 2.120 . S
O55 C49 1.299 . S
O56 Zn44 2.114 . S
O56 C58 1.166 . S
O57 Zn42 1.905 . S
O57 C58 1.182 . S
C58 O56 1.166 . S
C58 O57 1.182 . S
O59 Zn44 2.080 . S
O59 C62 1.305 1_554 S
O60 Zn43 1.920 . S
O60 C62 1.234 . S
C61 O47 1.305 1_554 S
C61 O48 1.234 . S
C62 O59 1.305 1_556 S
C62 O60 1.234 . S
Zn63 O69 1.920 . S
Zn63 O75 1.898 . S
Zn63 O78 1.905 . S
Zn64 O72 1.905 . S
Zn64 O73 1.898 . S
Zn64 O81 1.920 . S
Zn65 O68 2.080 1_554 S
Zn65 O71 2.114 1_554 S
Zn65 O74 2.120 1_554 S
Zn65 O76 2.120 . S
Zn65 O77 2.114 . S
Zn65 O80 2.080 . S
C66 O71 1.166 . S
C66 O72 1.182 . S
C67 O73 1.167 . S
C67 O74 1.299 . S
O68 Zn65 2.080 1_556 S
O68 C82 1.305 1_556 S
O69 Zn63 1.920 . S
O69 C82 1.234 . S
C70 O75 1.167 . S
C70 O76 1.299 . S
O71 Zn65 2.114 1_556 S
O71 C66 1.166 . S
O72 Zn64 1.905 . S
O72 C66 1.182 . S
O73 Zn64 1.898 . S
O73 C67 1.167 . S
O74 Zn65 2.120 1_556 S
O74 C67 1.299 . S
O75 Zn63 1.898 . S
O75 C70 1.167 . S
O76 Zn65 2.120 . S
O76 C70 1.299 . S
O77 Zn65 2.114 . S
O77 C79 1.166 . S
O78 Zn63 1.905 . S
O78 C79 1.182 . S
C79 O77 1.166 . S
C79 O78 1.182 . S
O80 Zn65 2.080 . S
O80 C83 1.305 1_554 S
O81 Zn64 1.920 . S
O81 C83 1.234 . S
C82 O68 1.305 1_554 S
C82 O69 1.234 . S
C83 O80 1.305 1_556 S
C83 O81 1.234 . S
Zn84 O90 1.920 . S
Zn84 O96 1.898 . S
Zn84 O99 1.905 . S
Zn85 O93 1.905 . S
Zn85 O94 1.898 . S
Zn85 O102 1.920 . S
Zn86 O89 2.080 1_554 S
Zn86 O92 2.114 1_554 S
Zn86 O95 2.120 1_554 S
Zn86 O97 2.120 . S
Zn86 O98 2.114 . S
Zn86 O101 2.080 . S
C87 O92 1.166 . S
C87 O93 1.182 . S
C88 O94 1.167 . S
C88 O95 1.299 . S
O89 Zn86 2.080 1_556 S
O89 C103 1.305 1_556 S
O90 Zn84 1.920 . S
O90 C103 1.234 . S
C91 O96 1.167 . S
C91 O97 1.299 . S
O92 Zn86 2.114 1_556 S
O92 C87 1.166 . S
O93 Zn85 1.905 . S
O93 C87 1.182 . S
O94 Zn85 1.898 . S
O94 C88 1.167 . S
O95 Zn86 2.120 1_556 S
O95 C88 1.299 . S
O96 Zn84 1.898 . S
O96 C91 1.167 . S
O97 Zn86 2.120 . S
O97 C91 1.299 . S
O98 Zn86 2.114 . S
O98 C100 1.166 . S
O99 Zn84 1.905 . S
O99 C100 1.182 . S
C100 O98 1.166 . S
C100 O99 1.182 . S
O101 Zn86 2.080 . S
O101 C104 1.305 1_554 S
O102 Zn85 1.920 . S
O102 C104 1.234 . S
C103 O89 1.305 1_554 S
C103 O90 1.234 . S
C104 O101 1.305 1_556 S
C104 O102 1.234 . S
Zn105 O111 1.920 . S
Zn105 O117 1.898 . S
Zn105 O120 1.905 . S
Zn106 O114 1.905 . S
Zn106 O115 1.898 . S
Zn106 O123 1.920 . S
Zn107 O110 2.080 . S
Zn107 O113 2.114 . S
Zn107 O116 2.120 . S
Zn107 O118 2.120 1_554 S
Zn107 O119 2.114 1_554 S
Zn107 O122 2.080 1_554 S
C108 O113 1.166 . S
C108 O114 1.182 . S
C109 O115 1.167 . S
C109 O116 1.299 . S
O110 Zn107 2.080 . S
O110 C124 1.305 1_554 S
O111 Zn105 1.920 . S
O111 C124 1.234 . S
C112 O117 1.167 . S
C112 O118 1.299 . S
O113 Zn107 2.114 . S
O113 C108 1.166 . S
O114 Zn106 1.905 . S
O114 C108 1.182 . S
O115 Zn106 1.898 . S
O115 C109 1.167 . S
O116 Zn107 2.120 . S
O116 C109 1.299 . S
O117 Zn105 1.898 . S
O117 C112 1.167 . S
O118 Zn107 2.120 1_556 S
O118 C112 1.299 . S
O119 Zn107 2.114 1_556 S
O119 C121 1.166 . S
O120 Zn105 1.905 . S
O120 C121 1.182 . S
C121 O119 1.166 . S
C121 O120 1.182 . S
O122 Zn107 2.080 1_556 S
O122 C125 1.305 1_556 S
O123 Zn106 1.920 . S
O123 C125 1.234 . S
C124 O110 1.305 1_556 S
C124 O111 1.234 . S
C125 O122 1.305 1_554 S
C125 O123 1.234 . S
C126 C127 1.332 1_556 S
C126 C128 1.345 . S
C126 H146 0.932 . S
C127 C126 1.332 1_554 S
C127 C136 1.332 . S
C128 C126 1.345 . S
C128 C140 1.334 1_556 S
C128 H147 0.928 . S
C129 C130 1.332 1_554 S
C129 C131 1.345 . S
C129 H148 0.932 . S
C130 C129 1.332 1_556 S
C130 C138 1.332 . S
C131 C129 1.345 . S
C131 C143 1.334 1_554 S
C131 H149 0.928 . S
H132 C136 0.932 . S
H133 C137 0.928 . S
H134 C138 0.932 . S
H135 C139 0.928 . S
C136 C127 1.332 . S
C136 H132 0.932 . S
C136 C137 1.345 . S
C137 H133 0.928 . S
C137 C136 1.345 . S
C137 C140 1.334 . S
C138 C130 1.332 . S
C138 H134 0.932 . S
C138 C139 1.345 . S
C139 H135 0.928 . S
C139 C138 1.345 . S
C139 C143 1.334 . S
C140 C128 1.334 1_554 S
C140 C137 1.334 . S
C140 C141 1.487 . S
C141 C140 1.487 . S
C141 C142 1.185 . S
C142 C141 1.185 . S
C142 C145 1.482 1_554 S
C143 C131 1.334 1_556 S
C143 C139 1.334 . S
C143 C144 1.487 . S
C144 C143 1.487 . S
C144 C145 1.185 . S
C145 C142 1.482 1_556 S
C145 C144 1.185 . S
H146 C126 0.932 . S
H147 C128 0.928 . S
H148 C129 0.932 . S
H149 C131 0.928 . S
C150 C151 1.332 . S
C150 C152 1.345 . S
C150 H170 0.932 . S
C151 C150 1.332 . S
C151 C160 1.332 1_554 S
C152 C150 1.345 . S
C152 C164 1.334 . S
C152 H171 0.928 . S
C153 C154 1.332 . S
C153 C155 1.345 . S
C153 H172 0.932 . S
C154 C153 1.332 . S
C154 C162 1.332 1_556 S
C155 C153 1.345 . S
C155 C167 1.334 . S
C155 H173 0.928 . S
H156 C160 0.932 . S
H157 C161 0.928 . S
H158 C162 0.932 . S
H159 C163 0.928 . S
C160 C151 1.332 1_556 S
C160 H156 0.932 . S
C160 C161 1.345 . S
C161 H157 0.928 . S
C161 C160 1.345 . S
C161 C164 1.334 1_556 S
C162 C154 1.332 1_554 S
C162 H158 0.932 . S
C162 C163 1.345 . S
C163 H159 0.928 . S
C163 C162 1.345 . S
C163 C167 1.334 1_554 S
C164 C152 1.334 . S
C164 C161 1.334 1_554 S
C164 C165 1.487 . S
C165 C164 1.487 . S
C165 C166 1.185 . S
C166 C165 1.185 . S
C166 C169 1.482 1_454 S
C167 C155 1.334 . S
C167 C163 1.334 1_556 S
C167 C168 1.487 . S
C168 C167 1.487 . S
C168 C169 1.185 . S
C169 C166 1.482 1_656 S
C169 C168 1.185 . S
H170 C150 0.932 . S
H171 C152 0.928 . S
H172 C153 0.932 . S
H173 C155 0.928 . S
C174 C175 1.332 1_556 S
C174 C176 1.345 . S
C174 H194 0.932 . S
C175 C174 1.332 1_554 S
C175 C184 1.332 . S
C176 C174 1.345 . S
C176 C188 1.334 1_556 S
C176 H195 0.928 . S
C177 C178 1.332 1_554 S
C177 C179 1.345 . S
C177 H196 0.932 . S
C178 C177 1.332 1_556 S
C178 C186 1.332 . S
C179 C177 1.345 . S
C179 C191 1.334 1_554 S
C179 H197 0.928 . S
H180 C184 0.932 . S
H181 C185 0.928 . S
H182 C186 0.932 . S
H183 C187 0.928 . S
C184 C175 1.332 . S
C184 H180 0.932 . S
C184 C185 1.345 . S
C185 H181 0.928 . S
C185 C184 1.345 . S
C185 C188 1.334 . S
C186 C178 1.332 . S
C186 H182 0.932 . S
C186 C187 1.345 . S
C187 H183 0.928 . S
C187 C186 1.345 . S
C187 C191 1.334 . S
C188 C176 1.334 1_554 S
C188 C185 1.334 . S
C188 C189 1.487 . S
C189 C188 1.487 . S
C189 C190 1.185 . S
C190 C189 1.185 . S
C190 C193 1.482 1_544 S
C191 C179 1.334 1_556 S
C191 C187 1.334 . S
C191 C192 1.487 . S
C192 C191 1.487 . S
C192 C193 1.185 . S
C193 C190 1.482 1_566 S
C193 C192 1.185 . S
H194 C174 0.932 . S
H195 C176 0.928 . S
H196 C177 0.932 . S
H197 C179 0.928 . S
C198 C199 1.332 1_554 S
C198 C200 1.345 . S
C198 H218 0.932 . S
C199 C198 1.332 1_556 S
C199 C208 1.332 . S
C200 C198 1.345 . S
C200 C212 1.334 1_554 S
C200 H219 0.928 . S
C201 C202 1.332 1_556 S
C201 C203 1.345 . S
C201 H220 0.932 . S
C202 C201 1.332 1_554 S
C202 C210 1.332 . S
C203 C201 1.345 . S
C203 C215 1.334 1_556 S
C203 H221 0.928 . S
H204 C208 0.932 . S
H205 C209 0.928 . S
H206 C210 0.932 . S
H207 C211 0.928 . S
C208 C199 1.332 . S
C208 H204 0.932 . S
C208 C209 1.345 . S
C209 H205 0.928 . S
C209 C208 1.345 . S
C209 C212 1.334 . S
C210 C202 1.332 . S
C210 H206 0.932 . S
C210 C211 1.345 . S
C211 H207 0.928 . S
C211 C210 1.345 . S
C211 C215 1.334 . S
C212 C200 1.334 1_556 S
C212 C209 1.334 . S
C212 C213 1.487 . S
C213 C212 1.487 . S
C213 C214 1.185 . S
C214 C213 1.185 . S
C214 C217 1.482 1_556 S
C215 C203 1.334 1_554 S
C215 C211 1.334 . S
C215 C216 1.487 . S
C216 C215 1.487 . S
C216 C217 1.185 . S
C217 C214 1.482 1_554 S
C217 C216 1.185 . S
H218 C198 0.932 . S
H219 C200 0.928 . S
H220 C201 0.932 . S
H221 C203 0.928 . S
C222 C223 1.332 1_554 S
C222 C224 1.345 . S
C222 H242 0.932 . S
C223 C222 1.332 1_556 S
C223 C232 1.332 . S
C224 C222 1.345 . S
C224 C236 1.334 1_554 S
C224 H243 0.928 . S
C225 C226 1.332 1_556 S
C225 C227 1.345 . S
C225 H244 0.932 . S
C226 C225 1.332 1_554 S
C226 C234 1.332 . S
C227 C225 1.345 . S
C227 C239 1.334 1_556 S
C227 H245 0.928 . S
H228 C232 0.932 . S
H229 C233 0.928 . S
H230 C234 0.932 . S
H231 C235 0.928 . S
C232 C223 1.332 . S
C232 H228 0.932 . S
C232 C233 1.345 . S
C233 H229 0.928 . S
C233 C232 1.345 . S
C233 C236 1.334 . S
C234 C226 1.332 . S
C234 H230 0.932 . S
C234 C235 1.345 . S
C235 H231 0.928 . S
C235 C234 1.345 . S
C235 C239 1.334 . S
C236 C224 1.334 1_556 S
C236 C233 1.334 . S
C236 C237 1.487 . S
C237 C236 1.487 . S
C237 C238 1.185 . S
C238 C237 1.185 . S
C238 C241 1.482 1_456 S
C239 C227 1.334 1_554 S
C239 C235 1.334 . S
C239 C240 1.487 . S
C240 C239 1.487 . S
C240 C241 1.185 . S
C241 C238 1.482 1_654 S
C241 C240 1.185 . S
H242 C222 0.932 . S
H243 C224 0.928 . S
H244 C225 0.932 . S
H245 C227 0.928 . S
C246 C247 1.332 1_556 S
C246 C248 1.345 . S
C246 H266 0.932 . S
C247 C246 1.332 1_554 S
C247 C256 1.332 . S
C248 C246 1.345 . S
C248 C260 1.334 1_556 S
C248 H267 0.928 . S
C249 C250 1.332 1_554 S
C249 C251 1.345 . S
C249 H268 0.932 . S
C250 C249 1.332 1_556 S
C250 C258 1.332 . S
C251 C249 1.345 . S
C251 C263 1.334 1_554 S
C251 H269 0.928 . S
H252 C256 0.932 . S
H253 C257 0.928 . S
H254 C258 0.932 . S
H255 C259 0.928 . S
C256 C247 1.332 . S
C256 H252 0.932 . S
C256 C257 1.345 . S
C257 H253 0.928 . S
C257 C256 1.345 . S
C257 C260 1.334 . S
C258 C250 1.332 . S
C258 H254 0.932 . S
C258 C259 1.345 . S
C259 H255 0.928 . S
C259 C258 1.345 . S
C259 C263 1.334 . S
C260 C248 1.334 1_554 S
C260 C257 1.334 . S
C260 C261 1.487 . S
C261 C260 1.487 . S
C261 C262 1.185 . S
C262 C261 1.185 . S
C262 C265 1.482 1_564 S
C263 C251 1.334 1_556 S
C263 C259 1.334 . S
C263 C264 1.487 . S
C264 C263 1.487 . S
C264 C265 1.185 . S
C265 C262 1.482 1_546 S
C265 C264 1.185 . S
H266 C246 0.932 . S
H267 C248 0.928 . S
H268 C249 0.932 . S
H269 C251 0.928 . S
C270 C271 1.332 1_556 S
C270 C272 1.345 . S
C270 H290 0.932 . S
C271 C270 1.332 1_554 S
C271 C280 1.332 . S
C272 C270 1.345 . S
C272 C284 1.334 1_556 S
C272 H291 0.928 . S
C273 C274 1.332 1_554 S
C273 C275 1.345 . S
C273 H292 0.932 . S
C274 C273 1.332 1_556 S
C274 C282 1.332 . S
C275 C273 1.345 . S
C275 C287 1.334 1_554 S
C275 H293 0.928 . S
H276 C280 0.932 . S
H277 C281 0.928 . S
H278 C282 0.932 . S
H279 C283 0.928 . S
C280 C271 1.332 . S
C280 H276 0.932 . S
C280 C281 1.345 . S
C281 H277 0.928 . S
C281 C280 1.345 . S
C281 C284 1.334 . S
C282 C274 1.332 . S
C282 H278 0.932 . S
C282 C283 1.345 . S
C283 H279 0.928 . S
C283 C282 1.345 . S
C283 C287 1.334 . S
C284 C272 1.334 1_554 S
C284 C281 1.334 . S
C284 C285 1.487 . S
C285 C284 1.487 . S
C285 C286 1.185 . S
C286 C285 1.185 . S
C286 C289 1.482 1_554 S
C287 C275 1.334 1_556 S
C287 C283 1.334 . S
C287 C288 1.487 . S
C288 C287 1.487 . S
C288 C289 1.185 . S
C289 C286 1.482 1_556 S
C289 C288 1.185 . S
H290 C270 0.932 . S
H291 C272 0.928 . S
H292 C273 0.932 . S
H293 C275 0.928 . S
C294 C295 1.332 1_556 S
C294 C296 1.345 . S
C294 H314 0.932 . S
C295 C294 1.332 1_554 S
C295 C304 1.332 . S
C296 C294 1.345 . S
C296 C308 1.334 1_556 S
C296 H315 0.928 . S
C297 C298 1.332 1_554 S
C297 C299 1.345 . S
C297 H316 0.932 . S
C298 C297 1.332 1_556 S
C298 C306 1.332 . S
C299 C297 1.345 . S
C299 C311 1.334 1_554 S
C299 H317 0.928 . S
H300 C304 0.932 . S
H301 C305 0.928 . S
H302 C306 0.932 . S
H303 C307 0.928 . S
C304 C295 1.332 . S
C304 H300 0.932 . S
C304 C305 1.345 . S
C305 H301 0.928 . S
C305 C304 1.345 . S
C305 C308 1.334 . S
C306 C298 1.332 . S
C306 H302 0.932 . S
C306 C307 1.345 . S
C307 H303 0.928 . S
C307 C306 1.345 . S
C307 C311 1.334 . S
C308 C296 1.334 1_554 S
C308 C305 1.334 . S
C308 C309 1.487 . S
C309 C308 1.487 . S
C309 C310 1.185 . S
C310 C309 1.185 . S
C310 C313 1.482 1_554 S
C311 C299 1.334 1_556 S
C311 C307 1.334 . S
C311 C312 1.487 . S
C312 C311 1.487 . S
C312 C313 1.185 . S
C313 C310 1.482 1_556 S
C313 C312 1.185 . S
H314 C294 0.932 . S
H315 C296 0.928 . S
H316 C297 0.932 . S
H317 C299 0.928 . S
C318 C319 1.332 1_554 S
C318 C320 1.345 . S
C318 H338 0.932 . S
C319 C318 1.332 1_556 S
C319 C328 1.332 . S
C320 C318 1.345 . S
C320 C332 1.334 1_554 S
C320 H339 0.928 . S
C321 C322 1.332 1_556 S
C321 C323 1.345 . S
C321 H340 0.932 . S
C322 C321 1.332 1_554 S
C322 C330 1.332 . S
C323 C321 1.345 . S
C323 C335 1.334 1_556 S
C323 H341 0.928 . S
H324 C328 0.932 . S
H325 C329 0.928 . S
H326 C330 0.932 . S
H327 C331 0.928 . S
C328 C319 1.332 . S
C328 H324 0.932 . S
C328 C329 1.345 . S
C329 H325 0.928 . S
C329 C328 1.345 . S
C329 C332 1.334 . S
C330 C322 1.332 . S
C330 H326 0.932 . S
C330 C331 1.345 . S
C331 H327 0.928 . S
C331 C330 1.345 . S
C331 C335 1.334 . S
C332 C320 1.334 1_556 S
C332 C329 1.334 . S
C332 C333 1.487 . S
C333 C332 1.487 . S
C333 C334 1.185 . S
C334 C333 1.185 . S
C334 C337 1.482 1_556 S
C335 C323 1.334 1_554 S
C335 C331 1.334 . S
C335 C336 1.487 . S
C336 C335 1.487 . S
C336 C337 1.185 . S
C337 C334 1.482 1_554 S
C337 C336 1.185 . S
H338 C318 0.932 . S
H339 C320 0.928 . S
H340 C321 0.932 . S
H341 C323 0.928 . S
C342 C343 1.332 1_554 S
C342 C344 1.345 . S
C342 H362 0.932 . S
C343 C342 1.332 1_556 S
C343 C352 1.332 . S
C344 C342 1.345 . S
C344 C356 1.334 1_554 S
C344 H363 0.928 . S
C345 C346 1.332 1_556 S
C345 C347 1.345 . S
C345 H364 0.932 . S
C346 C345 1.332 1_554 S
C346 C354 1.332 . S
C347 C345 1.345 . S
C347 C359 1.334 1_556 S
C347 H365 0.928 . S
H348 C352 0.932 . S
H349 C353 0.928 . S
H350 C354 0.932 . S
H351 C355 0.928 . S
C352 C343 1.332 . S
C352 H348 0.932 . S
C352 C353 1.345 . S
C353 H349 0.928 . S
C353 C352 1.345 . S
C353 C356 1.334 . S
C354 C346 1.332 . S
C354 H350 0.932 . S
C354 C355 1.345 . S
C355 H351 0.928 . S
C355 C354 1.345 . S
C355 C359 1.334 . S
C356 C344 1.334 1_556 S
C356 C353 1.334 . S
C356 C357 1.487 . S
C357 C356 1.487 . S
C357 C358 1.185 . S
C358 C357 1.185 . S
C358 C361 1.482 1_556 S
C359 C347 1.334 1_554 S
C359 C355 1.334 . S
C359 C360 1.487 . S
C360 C359 1.487 . S
C360 C361 1.185 . S
C361 C358 1.482 1_554 S
C361 C360 1.185 . S
H362 C342 0.932 . S
H363 C344 0.928 . S
H364 C345 0.932 . S
H365 C347 0.928 . S
C366 C367 1.332 . S
C366 C368 1.345 . S
C366 H386 0.932 . S
C367 C366 1.332 . S
C367 C376 1.332 1_556 S
C368 C366 1.345 . S
C368 C380 1.334 . S
C368 H387 0.928 . S
C369 C370 1.332 . S
C369 C371 1.345 . S
C369 H388 0.932 . S
C370 C369 1.332 . S
C370 C378 1.332 1_554 S
C371 C369 1.345 . S
C371 C383 1.334 . S
C371 H389 0.928 . S
H372 C376 0.932 . S
H373 C377 0.928 . S
H374 C378 0.932 . S
H375 C379 0.928 . S
C376 C367 1.332 1_554 S
C376 H372 0.932 . S
C376 C377 1.345 . S
C377 H373 0.928 . S
C377 C376 1.345 . S
C377 C380 1.334 1_554 S
C378 C370 1.332 1_556 S
C378 H374 0.932 . S
C378 C379 1.345 . S
C379 H375 0.928 . S
C379 C378 1.345 . S
C379 C383 1.334 1_556 S
C380 C368 1.334 . S
C380 C377 1.334 1_556 S
C380 C381 1.487 . S
C381 C380 1.487 . S
C381 C382 1.185 . S
C382 C381 1.185 . S
C382 C385 1.482 1_556 S
C383 C371 1.334 . S
C383 C379 1.334 1_554 S
C383 C384 1.487 . S
C384 C383 1.487 . S
C384 C385 1.185 . S
C385 C382 1.482 1_554 S
C385 C384 1.185 . S
H386 C366 0.932 . S
H387 C368 0.928 . S
H388 C369 0.932 . S
H389 C371 0.928 . S
C390 C391 1.332 1_556 S
C390 C392 1.345 . S
C390 H410 0.932 . S
C391 C390 1.332 1_554 S
C391 C400 1.332 . S
C392 C390 1.345 . S
C392 C404 1.334 1_556 S
C392 H411 0.928 . S
C393 C394 1.332 1_554 S
C393 C395 1.345 . S
C393 H412 0.932 . S
C394 C393 1.332 1_556 S
C394 C402 1.332 . S
C395 C393 1.345 . S
C395 C407 1.334 1_554 S
C395 H413 0.928 . S
H396 C400 0.932 . S
H397 C401 0.928 . S
H398 C402 0.932 . S
H399 C403 0.928 . S
C400 C391 1.332 . S
C400 H396 0.932 . S
C400 C401 1.345 . S
C401 H397 0.928 . S
C401 C400 1.345 . S
C401 C404 1.334 . S
C402 C394 1.332 . S
C402 H398 0.932 . S
C402 C403 1.345 . S
C403 H399 0.928 . S
C403 C402 1.345 . S
C403 C407 1.334 . S
C404 C392 1.334 1_554 S
C404 C401 1.334 . S
C404 C405 1.487 . S
C405 C404 1.487 . S
C405 C406 1.185 . S
C406 C405 1.185 . S
C406 C409 1.482 1_554 S
C407 C395 1.334 1_556 S
C407 C403 1.334 . S
C407 C408 1.487 . S
C408 C407 1.487 . S
C408 C409 1.185 . S
C409 C406 1.482 1_556 S
C409 C408 1.185 . S
H410 C390 0.932 . S
H411 C392 0.928 . S
H412 C393 0.932 . S
H413 C395 0.928 . S
C414 C415 1.332 . S
C414 C416 1.345 . S
C414 H434 0.932 . S
C415 C414 1.332 . S
C415 C424 1.332 . S
C416 C414 1.345 . S
C416 C428 1.334 . S
C416 H435 0.928 . S
C417 C418 1.332 . S
C417 C419 1.345 . S
C417 H436 0.932 . S
C418 C417 1.332 . S
C418 C426 1.332 . S
C419 C417 1.345 . S
C419 C431 1.334 . S
C419 H437 0.928 . S
H420 C424 0.932 . S
H421 C425 0.928 . S
H422 C426 0.932 . S
H423 C427 0.928 . S
C424 C415 1.332 . S
C424 H420 0.932 . S
C424 C425 1.345 . S
C425 H421 0.928 . S
C425 C424 1.345 . S
C425 C428 1.334 . S
C426 C418 1.332 . S
C426 H422 0.932 . S
C426 C427 1.345 . S
C427 H423 0.928 . S
C427 C426 1.345 . S
C427 C431 1.334 . S
C428 C416 1.334 . S
C428 C425 1.334 . S
C428 C429 1.487 . S
C429 C428 1.487 . S
C429 C430 1.185 . S
C430 C429 1.185 . S
C430 C433 1.482 . S
C431 C419 1.334 . S
C431 C427 1.334 . S
C431 C432 1.487 . S
C432 C431 1.487 . S
C432 C433 1.185 . S
C433 C430 1.482 . S
C433 C432 1.185 . S
H434 C414 0.932 . S
H435 C416 0.928 . S
H436 C417 0.932 . S
H437 C419 0.928 . S
C438 C439 1.332 . S
C438 C440 1.345 . S
C438 H458 0.932 . S
C439 C438 1.332 . S
C439 C448 1.332 . S
C440 C438 1.345 . S
C440 C452 1.334 . S
C440 H459 0.928 . S
C441 C442 1.332 . S
C441 C443 1.345 . S
C441 H460 0.932 . S
C442 C441 1.332 . S
C442 C450 1.332 . S
C443 C441 1.345 . S
C443 C455 1.334 . S
C443 H461 0.928 . S
H444 C448 0.932 . S
H445 C449 0.928 . S
H446 C450 0.932 . S
H447 C451 0.928 . S
C448 C439 1.332 . S
C448 H444 0.932 . S
C448 C449 1.345 . S
C449 H445 0.928 . S
C449 C448 1.345 . S
C449 C452 1.334 . S
C450 C442 1.332 . S
C450 H446 0.932 . S
C450 C451 1.345 . S
C451 H447 0.928 . S
C451 C450 1.345 . S
C451 C455 1.334 . S
C452 C440 1.334 . S
C452 C449 1.334 . S
C452 C453 1.487 . S
C453 C452 1.487 . S
C453 C454 1.185 . S
C454 C453 1.185 . S
C454 C457 1.482 . S
C455 C443 1.334 . S
C455 C451 1.334 . S
C455 C456 1.487 . S
C456 C455 1.487 . S
C456 C457 1.185 . S
C457 C454 1.482 . S
C457 C456 1.185 . S
H458 C438 0.932 . S
H459 C440 0.928 . S
H460 C441 0.932 . S
H461 C443 0.928 . S
C462 C463 1.332 . S
C462 C464 1.345 . S
C462 H482 0.932 . S
C463 C462 1.332 . S
C463 C472 1.332 . S
C464 C462 1.345 . S
C464 C476 1.334 . S
C464 H483 0.928 . S
C465 C466 1.332 . S
C465 C467 1.345 . S
C465 H484 0.932 . S
C466 C465 1.332 . S
C466 C474 1.332 . S
C467 C465 1.345 . S
C467 C479 1.334 . S
C467 H485 0.928 . S
H468 C472 0.932 . S
H469 C473 0.928 . S
H470 C474 0.932 . S
H471 C475 0.928 . S
C472 C463 1.332 . S
C472 H468 0.932 . S
C472 C473 1.345 . S
C473 H469 0.928 . S
C473 C472 1.345 . S
C473 C476 1.334 . S
C474 C466 1.332 . S
C474 H470 0.932 . S
C474 C475 1.345 . S
C475 H471 0.928 . S
C475 C474 1.345 . S
C475 C479 1.334 . S
C476 C464 1.334 . S
C476 C473 1.334 . S
C476 C477 1.487 . S
C477 C476 1.487 . S
C477 C478 1.185 . S
C478 C477 1.185 . S
C478 C481 1.482 . S
C479 C467 1.334 . S
C479 C475 1.334 . S
C479 C480 1.487 . S
C480 C479 1.487 . S
C480 C481 1.185 . S
C481 C478 1.482 . S
C481 C480 1.185 . S
H482 C462 0.932 . S
H483 C464 0.928 . S
H484 C465 0.932 . S
H485 C467 0.928 . S
C486 C487 1.332 . S
C486 C488 1.345 . S
C486 H506 0.932 . S
C487 C486 1.332 . S
C487 C496 1.332 . S
C488 C486 1.345 . S
C488 C500 1.334 . S
C488 H507 0.928 . S
C489 C490 1.332 . S
C489 C491 1.345 . S
C489 H508 0.932 . S
C490 C489 1.332 . S
C490 C498 1.332 . S
C491 C489 1.345 . S
C491 C503 1.334 . S
C491 H509 0.928 . S
H492 C496 0.932 . S
H493 C497 0.928 . S
H494 C498 0.932 . S
H495 C499 0.928 . S
C496 C487 1.332 . S
C496 H492 0.932 . S
C496 C497 1.345 . S
C497 H493 0.928 . S
C497 C496 1.345 . S
C497 C500 1.334 . S
C498 C490 1.332 . S
C498 H494 0.932 . S
C498 C499 1.345 . S
C499 H495 0.928 . S
C499 C498 1.345 . S
C499 C503 1.334 . S
C500 C488 1.334 . S
C500 C497 1.334 . S
C500 C501 1.487 . S
C501 C500 1.487 . S
C501 C502 1.185 . S
C502 C501 1.185 . S
C502 C505 1.482 . S
C503 C491 1.334 . S
C503 C499 1.334 . S
C503 C504 1.487 . S
C504 C503 1.487 . S
C504 C505 1.185 . S
C505 C502 1.482 . S
C505 C504 1.185 . S
H506 C486 0.932 . S
H507 C488 0.928 . S
H508 C489 0.932 . S
H509 C491 0.928 . S
C510 C511 1.332 . S
C510 C512 1.345 . S
C510 H530 0.932 . S
C511 C510 1.332 . S
C511 C520 1.332 . S
C512 C510 1.345 . S
C512 C524 1.334 . S
C512 H531 0.928 . S
C513 C514 1.332 . S
C513 C515 1.345 . S
C513 H532 0.932 . S
C514 C513 1.332 . S
C514 C522 1.332 . S
C515 C513 1.345 . S
C515 C527 1.334 . S
C515 H533 0.928 . S
H516 C520 0.932 . S
H517 C521 0.928 . S
H518 C522 0.932 . S
H519 C523 0.928 . S
C520 C511 1.332 . S
C520 H516 0.932 . S
C520 C521 1.345 . S
C521 H517 0.928 . S
C521 C520 1.345 . S
C521 C524 1.334 . S
C522 C514 1.332 . S
C522 H518 0.932 . S
C522 C523 1.345 . S
C523 H519 0.928 . S
C523 C522 1.345 . S
C523 C527 1.334 . S
C524 C512 1.334 . S
C524 C521 1.334 . S
C524 C525 1.487 . S
C525 C524 1.487 . S
C525 C526 1.185 . S
C526 C525 1.185 . S
C526 C529 1.482 . S
C527 C515 1.334 . S
C527 C523 1.334 . S
C527 C528 1.487 . S
C528 C527 1.487 . S
C528 C529 1.185 . S
C529 C526 1.482 . S
C529 C528 1.185 . S
H530 C510 0.932 . S
H531 C512 0.928 . S
H532 C513 0.932 . S
H533 C515 0.928 . S
C534 C535 1.332 . S
C534 C536 1.345 . S
C534 H554 0.932 . S
C535 C534 1.332 . S
C535 C544 1.332 . S
C536 C534 1.345 . S
C536 C548 1.334 . S
C536 H555 0.928 . S
C537 C538 1.332 . S
C537 C539 1.345 . S
C537 H556 0.932 . S
C538 C537 1.332 . S
C538 C546 1.332 . S
C539 C537 1.345 . S
C539 C551 1.334 . S
C539 H557 0.928 . S
H540 C544 0.932 . S
H541 C545 0.928 . S
H542 C546 0.932 . S
H543 C547 0.928 . S
C544 C535 1.332 . S
C544 H540 0.932 . S
C544 C545 1.345 . S
C545 H541 0.928 . S
C545 C544 1.345 . S
C545 C548 1.334 . S
C546 C538 1.332 . S
C546 H542 0.932 . S
C546 C547 1.345 . S
C547 H543 0.928 . S
C547 C546 1.345 . S
C547 C551 1.334 . S
C548 C536 1.334 . S
C548 C545 1.334 . S
C548 C549 1.487 . S
C549 C548 1.487 . S
C549 C550 1.185 . S
C550 C549 1.185 . S
C550 C553 1.482 . S
C551 C539 1.334 . S
C551 C547 1.334 . S
C551 C552 1.487 . S
C552 C551 1.487 . S
C552 C553 1.185 . S
C553 C550 1.482 . S
C553 C552 1.185 . S
H554 C534 0.932 . S
H555 C536 0.928 . S
H556 C537 0.932 . S
H557 C539 0.928 . S
C127 C121 1.259 1_554 S
C130 C3 1.259 1_556 S
C151 C16 1.259 1_554 S
C154 C24 1.259 1_556 S
C175 C37 1.259 1_554 S
C178 C58 1.259 1_556 S
C199 C79 1.259 1_556 S
C202 C45 1.259 1_554 S
C223 C100 1.259 1_556 S
C226 C66 1.259 1_554 S
C247 C87 1.259 1_554 S
C250 C108 1.259 1_556 S
C271 C103 1.401 . S
C274 C19 1.401 . S
C295 C125 1.401 . S
C298 C40 1.401 . S
C319 C62 1.401 . S
C322 C20 1.401 . S
C343 C83 1.401 . S
C346 C41 1.401 . S
C367 C104 1.401 . S
C370 C61 1.401 . S
C391 C82 1.401 . S
C394 C124 1.401 . S
C415 C7 1.267 . S
C418 C4 1.267 . S
C439 C28 1.267 . S
C442 C25 1.267 . S
C463 C46 1.267 . S
C466 C49 1.267 . S
C487 C67 1.267 . S
C490 C70 1.267 . S
C511 C91 1.267 . S
C514 C88 1.267 . S
C535 C112 1.267 . S
C538 C109 1.267 . S
