# Generated by pormake.
# Topology gie, (4)-cn, num edge types: 1
# Building blocks:
#     Node 0, Type 0, BuildingBlock: KUFVIS_clean_sbu_0, # of connection points: 4
#     Node 1, Type 0, BuildingBlock: KUFVIS_clean_sbu_0, # of connection points: 4
#     Node 2, Type 0, BuildingBlock: KUFVIS_clean_sbu_0, # of connection points: 4
#     Node 3, Type 0, BuildingBlock: KUFVIS_clean_sbu_0, # of connection points: 4
#     Node 4, Type 0, BuildingBlock: KUFVIS_clean_sbu_0, # of connection points: 4
#     Node 5, Type 0, BuildingBlock: KUFVIS_clean_sbu_0, # of connection points: 4
#     Node 6, Type 0, BuildingBlock: KUFVIS_clean_sbu_0, # of connection points: 4
#     Node 7, Type 0, BuildingBlock: KUFVIS_clean_sbu_0, # of connection points: 4
#     Node 8, Type 0, BuildingBlock: KUFVIS_clean_sbu_0, # of connection points: 4
#     Node 9, Type 0, BuildingBlock: KUFVIS_clean_sbu_0, # of connection points: 4
#     Node 10, Type 0, BuildingBlock: KUFVIS_clean_sbu_0, # of connection points: 4
#     Node 11, Type 0, BuildingBlock: KUFVIS_clean_sbu_0, # of connection points: 4
#     Node 12, Type 0, BuildingBlock: KUFVIS_clean_sbu_0, # of connection points: 4
#     Node 13, Type 0, BuildingBlock: KUFVIS_clean_sbu_0, # of connection points: 4
#     Node 14, Type 0, BuildingBlock: KUFVIS_clean_sbu_0, # of connection points: 4
#     Node 15, Type 0, BuildingBlock: KUFVIS_clean_sbu_0, # of connection points: 4
#     Node 16, Type 0, BuildingBlock: KUFVIS_clean_sbu_0, # of connection points: 4
#     Node 17, Type 0, BuildingBlock: KUFVIS_clean_sbu_0, # of connection points: 4
#     Node 18, Type 0, BuildingBlock: KUFVIS_clean_sbu_0, # of connection points: 4
#     Node 19, Type 0, BuildingBlock: KUFVIS_clean_sbu_0, # of connection points: 4
#     Node 20, Type 0, BuildingBlock: KUFVIS_clean_sbu_0, # of connection points: 4
#     Node 21, Type 0, BuildingBlock: KUFVIS_clean_sbu_0, # of connection points: 4
#     Node 22, Type 0, BuildingBlock: KUFVIS_clean_sbu_0, # of connection points: 4
#     Node 23, Type 0, BuildingBlock: KUFVIS_clean_sbu_0, # of connection points: 4
#     Node 24, Type 0, BuildingBlock: KUFVIS_clean_sbu_0, # of connection points: 4
#     Node 25, Type 0, BuildingBlock: KUFVIS_clean_sbu_0, # of connection points: 4
#     Node 26, Type 0, BuildingBlock: KUFVIS_clean_sbu_0, # of connection points: 4
#     Node 27, Type 0, BuildingBlock: KUFVIS_clean_sbu_0, # of connection points: 4
#     Node 28, Type 0, BuildingBlock: KUFVIS_clean_sbu_0, # of connection points: 4
#     Node 29, Type 0, BuildingBlock: KUFVIS_clean_sbu_0, # of connection points: 4
#     Node 30, Type 0, BuildingBlock: KUFVIS_clean_sbu_0, # of connection points: 4
#     Node 31, Type 0, BuildingBlock: KUFVIS_clean_sbu_0, # of connection points: 4
#     Node 32, Type 0, BuildingBlock: KUFVIS_clean_sbu_0, # of connection points: 4
#     Node 33, Type 0, BuildingBlock: KUFVIS_clean_sbu_0, # of connection points: 4
#     Node 34, Type 0, BuildingBlock: KUFVIS_clean_sbu_0, # of connection points: 4
#     Node 35, Type 0, BuildingBlock: KUFVIS_clean_sbu_0, # of connection points: 4
#     Node 36, Type 0, BuildingBlock: KUFVIS_clean_sbu_0, # of connection points: 4
#     Node 37, Type 0, BuildingBlock: KUFVIS_clean_sbu_0, # of connection points: 4
#     Node 38, Type 0, BuildingBlock: KUFVIS_clean_sbu_0, # of connection points: 4
#     Node 39, Type 0, BuildingBlock: KUFVIS_clean_sbu_0, # of connection points: 4
#     Node 40, Type 0, BuildingBlock: KUFVIS_clean_sbu_0, # of connection points: 4
#     Node 41, Type 0, BuildingBlock: KUFVIS_clean_sbu_0, # of connection points: 4
#     Node 42, Type 0, BuildingBlock: KUFVIS_clean_sbu_0, # of connection points: 4
#     Node 43, Type 0, BuildingBlock: KUFVIS_clean_sbu_0, # of connection points: 4
#     Node 44, Type 0, BuildingBlock: KUFVIS_clean_sbu_0, # of connection points: 4
#     Node 45, Type 0, BuildingBlock: KUFVIS_clean_sbu_0, # of connection points: 4
#     Node 46, Type 0, BuildingBlock: KUFVIS_clean_sbu_0, # of connection points: 4
#     Node 47, Type 0, BuildingBlock: KUFVIS_clean_sbu_0, # of connection points: 4
#     Node 48, Type 0, BuildingBlock: KUFVIS_clean_sbu_0, # of connection points: 4
#     Node 49, Type 0, BuildingBlock: KUFVIS_clean_sbu_0, # of connection points: 4
#     Node 50, Type 0, BuildingBlock: KUFVIS_clean_sbu_0, # of connection points: 4
#     Node 51, Type 0, BuildingBlock: KUFVIS_clean_sbu_0, # of connection points: 4
#     Node 52, Type 0, BuildingBlock: KUFVIS_clean_sbu_0, # of connection points: 4
#     Node 53, Type 0, BuildingBlock: KUFVIS_clean_sbu_0, # of connection points: 4
#     Node 54, Type 0, BuildingBlock: KUFVIS_clean_sbu_0, # of connection points: 4
#     Node 55, Type 0, BuildingBlock: KUFVIS_clean_sbu_0, # of connection points: 4
#     Node 56, Type 0, BuildingBlock: KUFVIS_clean_sbu_0, # of connection points: 4
#     Node 57, Type 0, BuildingBlock: KUFVIS_clean_sbu_0, # of connection points: 4
#     Node 58, Type 0, BuildingBlock: KUFVIS_clean_sbu_0, # of connection points: 4
#     Node 59, Type 0, BuildingBlock: KUFVIS_clean_sbu_0, # of connection points: 4
#     Node 60, Type 0, BuildingBlock: KUFVIS_clean_sbu_0, # of connection points: 4
#     Node 61, Type 0, BuildingBlock: KUFVIS_clean_sbu_0, # of connection points: 4
#     Node 62, Type 0, BuildingBlock: KUFVIS_clean_sbu_0, # of connection points: 4
#     Node 63, Type 0, BuildingBlock: KUFVIS_clean_sbu_0, # of connection points: 4
#     Node 64, Type 0, BuildingBlock: KUFVIS_clean_sbu_0, # of connection points: 4
#     Node 65, Type 0, BuildingBlock: KUFVIS_clean_sbu_0, # of connection points: 4
#     Node 66, Type 0, BuildingBlock: KUFVIS_clean_sbu_0, # of connection points: 4
#     Node 67, Type 0, BuildingBlock: KUFVIS_clean_sbu_0, # of connection points: 4
#     Node 68, Type 0, BuildingBlock: KUFVIS_clean_sbu_0, # of connection points: 4
#     Node 69, Type 0, BuildingBlock: KUFVIS_clean_sbu_0, # of connection points: 4
#     Node 70, Type 0, BuildingBlock: KUFVIS_clean_sbu_0, # of connection points: 4
#     Node 71, Type 0, BuildingBlock: KUFVIS_clean_sbu_0, # of connection points: 4
#     Node 72, Type 0, BuildingBlock: KUFVIS_clean_sbu_0, # of connection points: 4
#     Node 73, Type 0, BuildingBlock: KUFVIS_clean_sbu_0, # of connection points: 4
#     Node 74, Type 0, BuildingBlock: KUFVIS_clean_sbu_0, # of connection points: 4
#     Node 75, Type 0, BuildingBlock: KUFVIS_clean_sbu_0, # of connection points: 4
#     Node 76, Type 0, BuildingBlock: KUFVIS_clean_sbu_0, # of connection points: 4
#     Node 77, Type 0, BuildingBlock: KUFVIS_clean_sbu_0, # of connection points: 4
#     Node 78, Type 0, BuildingBlock: KUFVIS_clean_sbu_0, # of connection points: 4
#     Node 79, Type 0, BuildingBlock: KUFVIS_clean_sbu_0, # of connection points: 4
#     Node 80, Type 0, BuildingBlock: KUFVIS_clean_sbu_0, # of connection points: 4
#     Node 81, Type 0, BuildingBlock: KUFVIS_clean_sbu_0, # of connection points: 4
#     Node 82, Type 0, BuildingBlock: KUFVIS_clean_sbu_0, # of connection points: 4
#     Node 83, Type 0, BuildingBlock: KUFVIS_clean_sbu_0, # of connection points: 4
#     Node 84, Type 0, BuildingBlock: KUFVIS_clean_sbu_0, # of connection points: 4
#     Node 85, Type 0, BuildingBlock: KUFVIS_clean_sbu_0, # of connection points: 4
#     Node 86, Type 0, BuildingBlock: KUFVIS_clean_sbu_0, # of connection points: 4
#     Node 87, Type 0, BuildingBlock: KUFVIS_clean_sbu_0, # of connection points: 4
#     Node 88, Type 0, BuildingBlock: KUFVIS_clean_sbu_0, # of connection points: 4
#     Node 89, Type 0, BuildingBlock: KUFVIS_clean_sbu_0, # of connection points: 4
#     Node 90, Type 0, BuildingBlock: KUFVIS_clean_sbu_0, # of connection points: 4
#     Node 91, Type 0, BuildingBlock: KUFVIS_clean_sbu_0, # of connection points: 4
#     Node 92, Type 0, BuildingBlock: KUFVIS_clean_sbu_0, # of connection points: 4
#     Node 93, Type 0, BuildingBlock: KUFVIS_clean_sbu_0, # of connection points: 4
#     Node 94, Type 0, BuildingBlock: KUFVIS_clean_sbu_0, # of connection points: 4
#     Node 95, Type 0, BuildingBlock: KUFVIS_clean_sbu_0, # of connection points: 4
#     Edge 96, Type (0, 0), BuildingBlock: OJICUG_clean_linker_0, # of connection points: 2
#     Edge 97, Type (0, 0), BuildingBlock: OJICUG_clean_linker_0, # of connection points: 2
#     Edge 98, Type (0, 0), BuildingBlock: OJICUG_clean_linker_0, # of connection points: 2
#     Edge 99, Type (0, 0), BuildingBlock: OJICUG_clean_linker_0, # of connection points: 2
#     Edge 100, Type (0, 0), BuildingBlock: OJICUG_clean_linker_0, # of connection points: 2
#     Edge 101, Type (0, 0), BuildingBlock: OJICUG_clean_linker_0, # of connection points: 2
#     Edge 102, Type (0, 0), BuildingBlock: OJICUG_clean_linker_0, # of connection points: 2
#     Edge 103, Type (0, 0), BuildingBlock: OJICUG_clean_linker_0, # of connection points: 2
#     Edge 104, Type (0, 0), BuildingBlock: OJICUG_clean_linker_0, # of connection points: 2
#     Edge 105, Type (0, 0), BuildingBlock: OJICUG_clean_linker_0, # of connection points: 2
#     Edge 106, Type (0, 0), BuildingBlock: OJICUG_clean_linker_0, # of connection points: 2
#     Edge 107, Type (0, 0), BuildingBlock: OJICUG_clean_linker_0, # of connection points: 2
#     Edge 108, Type (0, 0), BuildingBlock: OJICUG_clean_linker_0, # of connection points: 2
#     Edge 109, Type (0, 0), BuildingBlock: OJICUG_clean_linker_0, # of connection points: 2
#     Edge 110, Type (0, 0), BuildingBlock: OJICUG_clean_linker_0, # of connection points: 2
#     Edge 111, Type (0, 0), BuildingBlock: OJICUG_clean_linker_0, # of connection points: 2
#     Edge 112, Type (0, 0), BuildingBlock: OJICUG_clean_linker_0, # of connection points: 2
#     Edge 113, Type (0, 0), BuildingBlock: OJICUG_clean_linker_0, # of connection points: 2
#     Edge 114, Type (0, 0), BuildingBlock: OJICUG_clean_linker_0, # of connection points: 2
#     Edge 115, Type (0, 0), BuildingBlock: OJICUG_clean_linker_0, # of connection points: 2
#     Edge 116, Type (0, 0), BuildingBlock: OJICUG_clean_linker_0, # of connection points: 2
#     Edge 117, Type (0, 0), BuildingBlock: OJICUG_clean_linker_0, # of connection points: 2
#     Edge 118, Type (0, 0), BuildingBlock: OJICUG_clean_linker_0, # of connection points: 2
#     Edge 119, Type (0, 0), BuildingBlock: OJICUG_clean_linker_0, # of connection points: 2
#     Edge 120, Type (0, 0), BuildingBlock: OJICUG_clean_linker_0, # of connection points: 2
#     Edge 121, Type (0, 0), BuildingBlock: OJICUG_clean_linker_0, # of connection points: 2
#     Edge 122, Type (0, 0), BuildingBlock: OJICUG_clean_linker_0, # of connection points: 2
#     Edge 123, Type (0, 0), BuildingBlock: OJICUG_clean_linker_0, # of connection points: 2
#     Edge 124, Type (0, 0), BuildingBlock: OJICUG_clean_linker_0, # of connection points: 2
#     Edge 125, Type (0, 0), BuildingBlock: OJICUG_clean_linker_0, # of connection points: 2
#     Edge 126, Type (0, 0), BuildingBlock: OJICUG_clean_linker_0, # of connection points: 2
#     Edge 127, Type (0, 0), BuildingBlock: OJICUG_clean_linker_0, # of connection points: 2
#     Edge 128, Type (0, 0), BuildingBlock: OJICUG_clean_linker_0, # of connection points: 2
#     Edge 129, Type (0, 0), BuildingBlock: OJICUG_clean_linker_0, # of connection points: 2
#     Edge 130, Type (0, 0), BuildingBlock: OJICUG_clean_linker_0, # of connection points: 2
#     Edge 131, Type (0, 0), BuildingBlock: OJICUG_clean_linker_0, # of connection points: 2
#     Edge 132, Type (0, 0), BuildingBlock: OJICUG_clean_linker_0, # of connection points: 2
#     Edge 133, Type (0, 0), BuildingBlock: OJICUG_clean_linker_0, # of connection points: 2
#     Edge 134, Type (0, 0), BuildingBlock: OJICUG_clean_linker_0, # of connection points: 2
#     Edge 135, Type (0, 0), BuildingBlock: OJICUG_clean_linker_0, # of connection points: 2
#     Edge 136, Type (0, 0), BuildingBlock: OJICUG_clean_linker_0, # of connection points: 2
#     Edge 137, Type (0, 0), BuildingBlock: OJICUG_clean_linker_0, # of connection points: 2
#     Edge 138, Type (0, 0), BuildingBlock: OJICUG_clean_linker_0, # of connection points: 2
#     Edge 139, Type (0, 0), BuildingBlock: OJICUG_clean_linker_0, # of connection points: 2
#     Edge 140, Type (0, 0), BuildingBlock: OJICUG_clean_linker_0, # of connection points: 2
#     Edge 141, Type (0, 0), BuildingBlock: OJICUG_clean_linker_0, # of connection points: 2
#     Edge 142, Type (0, 0), BuildingBlock: OJICUG_clean_linker_0, # of connection points: 2
#     Edge 143, Type (0, 0), BuildingBlock: OJICUG_clean_linker_0, # of connection points: 2
#     Edge 144, Type (0, 0), BuildingBlock: OJICUG_clean_linker_0, # of connection points: 2
#     Edge 145, Type (0, 0), BuildingBlock: OJICUG_clean_linker_0, # of connection points: 2
#     Edge 146, Type (0, 0), BuildingBlock: OJICUG_clean_linker_0, # of connection points: 2
#     Edge 147, Type (0, 0), BuildingBlock: OJICUG_clean_linker_0, # of connection points: 2
#     Edge 148, Type (0, 0), BuildingBlock: OJICUG_clean_linker_0, # of connection points: 2
#     Edge 149, Type (0, 0), BuildingBlock: OJICUG_clean_linker_0, # of connection points: 2
#     Edge 150, Type (0, 0), BuildingBlock: OJICUG_clean_linker_0, # of connection points: 2
#     Edge 151, Type (0, 0), BuildingBlock: OJICUG_clean_linker_0, # of connection points: 2
#     Edge 152, Type (0, 0), BuildingBlock: OJICUG_clean_linker_0, # of connection points: 2
#     Edge 153, Type (0, 0), BuildingBlock: OJICUG_clean_linker_0, # of connection points: 2
#     Edge 154, Type (0, 0), BuildingBlock: OJICUG_clean_linker_0, # of connection points: 2
#     Edge 155, Type (0, 0), BuildingBlock: OJICUG_clean_linker_0, # of connection points: 2
#     Edge 156, Type (0, 0), BuildingBlock: OJICUG_clean_linker_0, # of connection points: 2
#     Edge 157, Type (0, 0), BuildingBlock: OJICUG_clean_linker_0, # of connection points: 2
#     Edge 158, Type (0, 0), BuildingBlock: OJICUG_clean_linker_0, # of connection points: 2
#     Edge 159, Type (0, 0), BuildingBlock: OJICUG_clean_linker_0, # of connection points: 2
#     Edge 160, Type (0, 0), BuildingBlock: OJICUG_clean_linker_0, # of connection points: 2
#     Edge 161, Type (0, 0), BuildingBlock: OJICUG_clean_linker_0, # of connection points: 2
#     Edge 162, Type (0, 0), BuildingBlock: OJICUG_clean_linker_0, # of connection points: 2
#     Edge 163, Type (0, 0), BuildingBlock: OJICUG_clean_linker_0, # of connection points: 2
#     Edge 164, Type (0, 0), BuildingBlock: OJICUG_clean_linker_0, # of connection points: 2
#     Edge 165, Type (0, 0), BuildingBlock: OJICUG_clean_linker_0, # of connection points: 2
#     Edge 166, Type (0, 0), BuildingBlock: OJICUG_clean_linker_0, # of connection points: 2
#     Edge 167, Type (0, 0), BuildingBlock: OJICUG_clean_linker_0, # of connection points: 2
#     Edge 168, Type (0, 0), BuildingBlock: OJICUG_clean_linker_0, # of connection points: 2
#     Edge 169, Type (0, 0), BuildingBlock: OJICUG_clean_linker_0, # of connection points: 2
#     Edge 170, Type (0, 0), BuildingBlock: OJICUG_clean_linker_0, # of connection points: 2
#     Edge 171, Type (0, 0), BuildingBlock: OJICUG_clean_linker_0, # of connection points: 2
#     Edge 172, Type (0, 0), BuildingBlock: OJICUG_clean_linker_0, # of connection points: 2
#     Edge 173, Type (0, 0), BuildingBlock: OJICUG_clean_linker_0, # of connection points: 2
#     Edge 174, Type (0, 0), BuildingBlock: OJICUG_clean_linker_0, # of connection points: 2
#     Edge 175, Type (0, 0), BuildingBlock: OJICUG_clean_linker_0, # of connection points: 2
#     Edge 176, Type (0, 0), BuildingBlock: OJICUG_clean_linker_0, # of connection points: 2
#     Edge 177, Type (0, 0), BuildingBlock: OJICUG_clean_linker_0, # of connection points: 2
#     Edge 178, Type (0, 0), BuildingBlock: OJICUG_clean_linker_0, # of connection points: 2
#     Edge 179, Type (0, 0), BuildingBlock: OJICUG_clean_linker_0, # of connection points: 2
#     Edge 180, Type (0, 0), BuildingBlock: OJICUG_clean_linker_0, # of connection points: 2
#     Edge 181, Type (0, 0), BuildingBlock: OJICUG_clean_linker_0, # of connection points: 2
#     Edge 182, Type (0, 0), BuildingBlock: OJICUG_clean_linker_0, # of connection points: 2
#     Edge 183, Type (0, 0), BuildingBlock: OJICUG_clean_linker_0, # of connection points: 2
#     Edge 184, Type (0, 0), BuildingBlock: OJICUG_clean_linker_0, # of connection points: 2
#     Edge 185, Type (0, 0), BuildingBlock: OJICUG_clean_linker_0, # of connection points: 2
#     Edge 186, Type (0, 0), BuildingBlock: OJICUG_clean_linker_0, # of connection points: 2
#     Edge 187, Type (0, 0), BuildingBlock: OJICUG_clean_linker_0, # of connection points: 2
#     Edge 188, Type (0, 0), BuildingBlock: OJICUG_clean_linker_0, # of connection points: 2
#     Edge 189, Type (0, 0), BuildingBlock: OJICUG_clean_linker_0, # of connection points: 2
#     Edge 190, Type (0, 0), BuildingBlock: OJICUG_clean_linker_0, # of connection points: 2
#     Edge 191, Type (0, 0), BuildingBlock: OJICUG_clean_linker_0, # of connection points: 2
#     Edge 192, Type (0, 0), BuildingBlock: OJICUG_clean_linker_0, # of connection points: 2
#     Edge 193, Type (0, 0), BuildingBlock: OJICUG_clean_linker_0, # of connection points: 2
#     Edge 194, Type (0, 0), BuildingBlock: OJICUG_clean_linker_0, # of connection points: 2
#     Edge 195, Type (0, 0), BuildingBlock: OJICUG_clean_linker_0, # of connection points: 2
#     Edge 196, Type (0, 0), BuildingBlock: OJICUG_clean_linker_0, # of connection points: 2
#     Edge 197, Type (0, 0), BuildingBlock: OJICUG_clean_linker_0, # of connection points: 2
#     Edge 198, Type (0, 0), BuildingBlock: OJICUG_clean_linker_0, # of connection points: 2
#     Edge 199, Type (0, 0), BuildingBlock: OJICUG_clean_linker_0, # of connection points: 2
#     Edge 200, Type (0, 0), BuildingBlock: OJICUG_clean_linker_0, # of connection points: 2
#     Edge 201, Type (0, 0), BuildingBlock: OJICUG_clean_linker_0, # of connection points: 2
#     Edge 202, Type (0, 0), BuildingBlock: OJICUG_clean_linker_0, # of connection points: 2
#     Edge 203, Type (0, 0), BuildingBlock: OJICUG_clean_linker_0, # of connection points: 2
#     Edge 204, Type (0, 0), BuildingBlock: OJICUG_clean_linker_0, # of connection points: 2
#     Edge 205, Type (0, 0), BuildingBlock: OJICUG_clean_linker_0, # of connection points: 2
#     Edge 206, Type (0, 0), BuildingBlock: OJICUG_clean_linker_0, # of connection points: 2
#     Edge 207, Type (0, 0), BuildingBlock: OJICUG_clean_linker_0, # of connection points: 2
#     Edge 208, Type (0, 0), BuildingBlock: OJICUG_clean_linker_0, # of connection points: 2
#     Edge 209, Type (0, 0), BuildingBlock: OJICUG_clean_linker_0, # of connection points: 2
#     Edge 210, Type (0, 0), BuildingBlock: OJICUG_clean_linker_0, # of connection points: 2
#     Edge 211, Type (0, 0), BuildingBlock: OJICUG_clean_linker_0, # of connection points: 2
#     Edge 212, Type (0, 0), BuildingBlock: OJICUG_clean_linker_0, # of connection points: 2
#     Edge 213, Type (0, 0), BuildingBlock: OJICUG_clean_linker_0, # of connection points: 2
#     Edge 214, Type (0, 0), BuildingBlock: OJICUG_clean_linker_0, # of connection points: 2
#     Edge 215, Type (0, 0), BuildingBlock: OJICUG_clean_linker_0, # of connection points: 2
#     Edge 216, Type (0, 0), BuildingBlock: OJICUG_clean_linker_0, # of connection points: 2
#     Edge 217, Type (0, 0), BuildingBlock: OJICUG_clean_linker_0, # of connection points: 2
#     Edge 218, Type (0, 0), BuildingBlock: OJICUG_clean_linker_0, # of connection points: 2
#     Edge 219, Type (0, 0), BuildingBlock: OJICUG_clean_linker_0, # of connection points: 2
#     Edge 220, Type (0, 0), BuildingBlock: OJICUG_clean_linker_0, # of connection points: 2
#     Edge 221, Type (0, 0), BuildingBlock: OJICUG_clean_linker_0, # of connection points: 2
#     Edge 222, Type (0, 0), BuildingBlock: OJICUG_clean_linker_0, # of connection points: 2
#     Edge 223, Type (0, 0), BuildingBlock: OJICUG_clean_linker_0, # of connection points: 2
#     Edge 224, Type (0, 0), BuildingBlock: OJICUG_clean_linker_0, # of connection points: 2
#     Edge 225, Type (0, 0), BuildingBlock: OJICUG_clean_linker_0, # of connection points: 2
#     Edge 226, Type (0, 0), BuildingBlock: OJICUG_clean_linker_0, # of connection points: 2
#     Edge 227, Type (0, 0), BuildingBlock: OJICUG_clean_linker_0, # of connection points: 2
#     Edge 228, Type (0, 0), BuildingBlock: OJICUG_clean_linker_0, # of connection points: 2
#     Edge 229, Type (0, 0), BuildingBlock: OJICUG_clean_linker_0, # of connection points: 2
#     Edge 230, Type (0, 0), BuildingBlock: OJICUG_clean_linker_0, # of connection points: 2
#     Edge 231, Type (0, 0), BuildingBlock: OJICUG_clean_linker_0, # of connection points: 2
#     Edge 232, Type (0, 0), BuildingBlock: OJICUG_clean_linker_0, # of connection points: 2
#     Edge 233, Type (0, 0), BuildingBlock: OJICUG_clean_linker_0, # of connection points: 2
#     Edge 234, Type (0, 0), BuildingBlock: OJICUG_clean_linker_0, # of connection points: 2
#     Edge 235, Type (0, 0), BuildingBlock: OJICUG_clean_linker_0, # of connection points: 2
#     Edge 236, Type (0, 0), BuildingBlock: OJICUG_clean_linker_0, # of connection points: 2
#     Edge 237, Type (0, 0), BuildingBlock: OJICUG_clean_linker_0, # of connection points: 2
#     Edge 238, Type (0, 0), BuildingBlock: OJICUG_clean_linker_0, # of connection points: 2
#     Edge 239, Type (0, 0), BuildingBlock: OJICUG_clean_linker_0, # of connection points: 2
#     Edge 240, Type (0, 0), BuildingBlock: OJICUG_clean_linker_0, # of connection points: 2
#     Edge 241, Type (0, 0), BuildingBlock: OJICUG_clean_linker_0, # of connection points: 2
#     Edge 242, Type (0, 0), BuildingBlock: OJICUG_clean_linker_0, # of connection points: 2
#     Edge 243, Type (0, 0), BuildingBlock: OJICUG_clean_linker_0, # of connection points: 2
#     Edge 244, Type (0, 0), BuildingBlock: OJICUG_clean_linker_0, # of connection points: 2
#     Edge 245, Type (0, 0), BuildingBlock: OJICUG_clean_linker_0, # of connection points: 2
#     Edge 246, Type (0, 0), BuildingBlock: OJICUG_clean_linker_0, # of connection points: 2
#     Edge 247, Type (0, 0), BuildingBlock: OJICUG_clean_linker_0, # of connection points: 2
#     Edge 248, Type (0, 0), BuildingBlock: OJICUG_clean_linker_0, # of connection points: 2
#     Edge 249, Type (0, 0), BuildingBlock: OJICUG_clean_linker_0, # of connection points: 2
#     Edge 250, Type (0, 0), BuildingBlock: OJICUG_clean_linker_0, # of connection points: 2
#     Edge 251, Type (0, 0), BuildingBlock: OJICUG_clean_linker_0, # of connection points: 2
#     Edge 252, Type (0, 0), BuildingBlock: OJICUG_clean_linker_0, # of connection points: 2
#     Edge 253, Type (0, 0), BuildingBlock: OJICUG_clean_linker_0, # of connection points: 2
#     Edge 254, Type (0, 0), BuildingBlock: OJICUG_clean_linker_0, # of connection points: 2
#     Edge 255, Type (0, 0), BuildingBlock: OJICUG_clean_linker_0, # of connection points: 2
#     Edge 256, Type (0, 0), BuildingBlock: OJICUG_clean_linker_0, # of connection points: 2
#     Edge 257, Type (0, 0), BuildingBlock: OJICUG_clean_linker_0, # of connection points: 2
#     Edge 258, Type (0, 0), BuildingBlock: OJICUG_clean_linker_0, # of connection points: 2
#     Edge 259, Type (0, 0), BuildingBlock: OJICUG_clean_linker_0, # of connection points: 2
#     Edge 260, Type (0, 0), BuildingBlock: OJICUG_clean_linker_0, # of connection points: 2
#     Edge 261, Type (0, 0), BuildingBlock: OJICUG_clean_linker_0, # of connection points: 2
#     Edge 262, Type (0, 0), BuildingBlock: OJICUG_clean_linker_0, # of connection points: 2
#     Edge 263, Type (0, 0), BuildingBlock: OJICUG_clean_linker_0, # of connection points: 2
#     Edge 264, Type (0, 0), BuildingBlock: OJICUG_clean_linker_0, # of connection points: 2
#     Edge 265, Type (0, 0), BuildingBlock: OJICUG_clean_linker_0, # of connection points: 2
#     Edge 266, Type (0, 0), BuildingBlock: OJICUG_clean_linker_0, # of connection points: 2
#     Edge 267, Type (0, 0), BuildingBlock: OJICUG_clean_linker_0, # of connection points: 2
#     Edge 268, Type (0, 0), BuildingBlock: OJICUG_clean_linker_0, # of connection points: 2
#     Edge 269, Type (0, 0), BuildingBlock: OJICUG_clean_linker_0, # of connection points: 2
#     Edge 270, Type (0, 0), BuildingBlock: OJICUG_clean_linker_0, # of connection points: 2
#     Edge 271, Type (0, 0), BuildingBlock: OJICUG_clean_linker_0, # of connection points: 2
#     Edge 272, Type (0, 0), BuildingBlock: OJICUG_clean_linker_0, # of connection points: 2
#     Edge 273, Type (0, 0), BuildingBlock: OJICUG_clean_linker_0, # of connection points: 2
#     Edge 274, Type (0, 0), BuildingBlock: OJICUG_clean_linker_0, # of connection points: 2
#     Edge 275, Type (0, 0), BuildingBlock: OJICUG_clean_linker_0, # of connection points: 2
#     Edge 276, Type (0, 0), BuildingBlock: OJICUG_clean_linker_0, # of connection points: 2
#     Edge 277, Type (0, 0), BuildingBlock: OJICUG_clean_linker_0, # of connection points: 2
#     Edge 278, Type (0, 0), BuildingBlock: OJICUG_clean_linker_0, # of connection points: 2
#     Edge 279, Type (0, 0), BuildingBlock: OJICUG_clean_linker_0, # of connection points: 2
#     Edge 280, Type (0, 0), BuildingBlock: OJICUG_clean_linker_0, # of connection points: 2
#     Edge 281, Type (0, 0), BuildingBlock: OJICUG_clean_linker_0, # of connection points: 2
#     Edge 282, Type (0, 0), BuildingBlock: OJICUG_clean_linker_0, # of connection points: 2
#     Edge 283, Type (0, 0), BuildingBlock: OJICUG_clean_linker_0, # of connection points: 2
#     Edge 284, Type (0, 0), BuildingBlock: OJICUG_clean_linker_0, # of connection points: 2
#     Edge 285, Type (0, 0), BuildingBlock: OJICUG_clean_linker_0, # of connection points: 2
#     Edge 286, Type (0, 0), BuildingBlock: OJICUG_clean_linker_0, # of connection points: 2
#     Edge 287, Type (0, 0), BuildingBlock: OJICUG_clean_linker_0, # of connection points: 2
# Relax obj value: 0.173
# Max RMSD: 0.250
# Mean RMSD: 0.250
data_MOF--net-gie--node1-KUFVIS_clean_sbu_0--edge1-OJICUG_clean_linker_0
_symmetry_space_group_name_H-M    P1
_symmetry_Int_Tables_number       1
_symmetry_cell_setting            triclinic
loop_
_symmetry_equiv_pos_as_xyz
'x, y, z'
_cell_length_a     61.913017
_cell_length_b     61.914227
_cell_length_c     61.91429
_cell_angle_alpha  89.999987
_cell_angle_beta   89.999807
_cell_angle_gamma 89.999808
loop_
_atom_site_label
_atom_site_type_symbol
_atom_site_fract_x
_atom_site_fract_y
_atom_site_fract_z
_atom_type_partial_charge
Mn0 Mn 0.99212 0.13124 0.40002 0.0
Mn1 Mn 0.99087 0.1747 0.43314 0.0
C2 C 0.9667 0.15759 0.39403 0.0
C3 C 0.9827 0.09535 0.39397 0.0
C4 C 0.02149 0.17114 0.39516 0.0
O5 O 0.01205 0.12264 0.42424 0.0
O6 O 0.00967 0.15169 0.44565 0.0
C7 C 0.96653 0.15283 0.46797 0.0
N8 N 0.96837 0.16936 0.45357 0.0
C9 C 0.93467 0.18477 0.46528 0.0
C10 C 0.93247 0.16798 0.48033 0.0
C11 C 0.94844 0.1519 0.48162 0.0
C12 C 0.95292 0.18469 0.45193 0.0
H13 H 0.97875 0.14043 0.46898 0.0
C14 C 0.01723 0.133 0.44116 0.0
O15 O 0.9992 0.10399 0.3843 0.0
O16 O 0.97203 0.10745 0.40732 0.0
N17 N 0.97395 0.19897 0.42424 0.0
C18 C 0.9797 0.21527 0.41058 0.0
C19 C 0.9659 0.23308 0.40797 0.0
C20 C 0.94669 0.23431 0.41998 0.0
C21 C 0.94166 0.2179 0.43474 0.0
C22 C 0.95606 0.20057 0.43667 0.0
H23 H 0.99462 0.21459 0.40158 0.0
O24 O 0.97077 0.14307 0.37954 0.0
O25 O 0.97643 0.15523 0.41264 0.0
O26 O 0.0154 0.15241 0.38865 0.0
O27 O 0.01347 0.18074 0.41166 0.0
C28 C 0.92313 0.21829 0.44795 0.0
C29 C 0.91956 0.20165 0.46311 0.0
H30 H 0.9186 0.16728 0.49098 0.0
H31 H 0.94682 0.13886 0.49314 0.0
H32 H 0.97013 0.24584 0.3968 0.0
H33 H 0.93611 0.24809 0.41807 0.0
H34 H 0.9116 0.23139 0.4467 0.0
H35 H 0.90529 0.20215 0.47322 0.0
Mn36 Mn 0.11839 0.74198 0.65027 0.0
Mn37 Mn 0.07499 0.7407 0.68348 0.0
C38 C 0.09202 0.71658 0.6443 0.0
C39 C 0.15427 0.73253 0.64414 0.0
C40 C 0.07849 0.77137 0.64554 0.0
O41 O 0.12705 0.76187 0.6745 0.0
O42 O 0.09803 0.75948 0.69597 0.0
C43 C 0.09693 0.71629 0.71821 0.0
N44 N 0.08037 0.71816 0.70385 0.0
C45 C 0.06503 0.68441 0.71549 0.0
C46 C 0.08185 0.68218 0.73049 0.0
C47 C 0.0979 0.69816 0.73181 0.0
C48 C 0.06506 0.7027 0.70219 0.0
H49 H 0.10932 0.72852 0.71924 0.0
C50 C 0.11672 0.76704 0.69144 0.0
O51 O 0.14562 0.74906 0.63451 0.0
O52 O 0.14219 0.72186 0.6575 0.0
N53 N 0.0507 0.72379 0.67459 0.0
C54 C 0.03436 0.72958 0.661 0.0
C55 C 0.01657 0.71577 0.65838 0.0
C56 C 0.01539 0.69651 0.67031 0.0
C57 C 0.03183 0.69144 0.68503 0.0
C58 C 0.04915 0.70587 0.68696 0.0
H59 H 0.03501 0.74454 0.65206 0.0
O60 O 0.10652 0.72066 0.62979 0.0
O61 O 0.09442 0.72628 0.66292 0.0
O62 O 0.09721 0.76529 0.63898 0.0
O63 O 0.06891 0.76334 0.66205 0.0
C64 C 0.0315 0.67287 0.69817 0.0
C65 C 0.04816 0.66928 0.7133 0.0
H66 H 0.08258 0.66828 0.7411 0.0
H67 H 0.11097 0.69653 0.74331 0.0
H68 H 0.00377 0.72003 0.64725 0.0
H69 H 0.00162 0.68592 0.66838 0.0
H70 H 0.0184 0.66133 0.69691 0.0
H71 H 0.0477 0.65498 0.72336 0.0
Mn72 Mn 0.50752 0.86836 0.89986 0.0
Mn73 Mn 0.5089 0.825 0.93311 0.0
C74 C 0.53297 0.84202 0.89389 0.0
C75 C 0.51689 0.90426 0.89371 0.0
C76 C 0.47819 0.82841 0.89519 0.0
O77 O 0.48762 0.877 0.9241 0.0
O78 O 0.4901 0.84802 0.94559 0.0
C79 C 0.53331 0.84702 0.9678 0.0
N80 N 0.53145 0.83044 0.95346 0.0
C81 C 0.56523 0.81516 0.96509 0.0
C82 C 0.56745 0.832 0.98007 0.0
C83 C 0.55145 0.84804 0.98138 0.0
C84 C 0.54693 0.81515 0.9518 0.0
H85 H 0.52106 0.85939 0.96881 0.0
C86 C 0.48249 0.86668 0.94105 0.0
O87 O 0.50038 0.89557 0.88409 0.0
O88 O 0.5276 0.8922 0.90706 0.0
N89 N 0.52584 0.80073 0.92424 0.0
C90 C 0.52007 0.78436 0.91067 0.0
C91 C 0.5339 0.76658 0.90806 0.0
C92 C 0.55317 0.76544 0.91999 0.0
C93 C 0.55822 0.78191 0.93468 0.0
C94 C 0.54378 0.79921 0.9366 0.0
H95 H 0.50511 0.78497 0.90173 0.0
O96 O 0.52885 0.85651 0.87938 0.0
O97 O 0.52327 0.84443 0.91252 0.0
O98 O 0.48424 0.84713 0.8886 0.0
O99 O 0.48626 0.81886 0.9117 0.0
C100 C 0.5768 0.78162 0.94781 0.0
C101 C 0.58038 0.79831 0.96291 0.0
H102 H 0.58136 0.83277 0.99067 0.0
H103 H 0.55307 0.86112 0.99286 0.0
H104 H 0.52965 0.75376 0.89696 0.0
H105 H 0.56378 0.75168 0.91808 0.0
H106 H 0.58836 0.76854 0.94656 0.0
H107 H 0.59469 0.79788 0.97297 0.0
Mn108 Mn 0.3813 0.25774 0.15017 0.0
Mn109 Mn 0.42473 0.25892 0.18334 0.0
C110 C 0.4077 0.28311 0.1442 0.0
C111 C 0.34542 0.26724 0.1441 0.0
C112 C 0.42116 0.2283 0.14537 0.0
O113 O 0.37264 0.23782 0.17438 0.0
O114 O 0.40167 0.24017 0.19583 0.0
C115 C 0.40287 0.28333 0.21813 0.0
N116 N 0.41941 0.28145 0.20375 0.0
C117 C 0.43483 0.31515 0.21542 0.0
C118 C 0.41803 0.31739 0.23045 0.0
C119 C 0.40195 0.30144 0.23175 0.0
C120 C 0.43475 0.29688 0.20209 0.0
H121 H 0.39046 0.27112 0.21915 0.0
C122 C 0.38297 0.23263 0.19131 0.0
O123 O 0.35404 0.25072 0.13443 0.0
O124 O 0.35754 0.27788 0.15746 0.0
N125 N 0.44904 0.2758 0.17445 0.0
C126 C 0.46536 0.26999 0.16084 0.0
C127 C 0.48319 0.28377 0.15823 0.0
C128 C 0.48441 0.30301 0.17018 0.0
C129 C 0.46799 0.30809 0.18492 0.0
C130 C 0.45064 0.2937 0.18685 0.0
H131 H 0.46468 0.25505 0.15188 0.0
O132 O 0.39317 0.27908 0.12971 0.0
O133 O 0.40531 0.27339 0.16281 0.0
O134 O 0.40245 0.23442 0.13882 0.0
O135 O 0.43075 0.2363 0.16188 0.0
C136 C 0.46838 0.32664 0.19809 0.0
C137 C 0.45173 0.33024 0.21324 0.0
H138 H 0.41734 0.33127 0.24108 0.0
H139 H 0.3889 0.30308 0.24327 0.0
H140 H 0.49596 0.2795 0.14709 0.0
H141 H 0.4982 0.31357 0.16826 0.0
H142 H 0.48149 0.33815 0.19684 0.0
H143 H 0.45223 0.34453 0.22332 0.0
Mn144 Mn 0.99212 0.8684 0.09987 0.0
Mn145 Mn 0.99092 0.82502 0.06663 0.0
C146 C 0.96672 0.84201 0.10578 0.0
C147 C 0.98267 0.90427 0.10598 0.0
C148 C 0.02151 0.82852 0.10463 0.0
O149 O 0.01206 0.87708 0.07568 0.0
O150 O 0.0097 0.84808 0.05419 0.0
C151 C 0.96656 0.84697 0.03186 0.0
N152 N 0.96842 0.8304 0.04621 0.0
C153 C 0.93472 0.81501 0.03447 0.0
C154 C 0.93251 0.83184 0.01947 0.0
C155 C 0.94847 0.84792 0.01822 0.0
C156 C 0.95298 0.81506 0.04782 0.0
H157 H 0.97878 0.85938 0.03088 0.0
C158 C 0.01725 0.86677 0.05874 0.0
O159 O 0.99917 0.89562 0.11565 0.0
O160 O 0.97202 0.89219 0.0926 0.0
N161 N 0.97401 0.80072 0.07547 0.0
C162 C 0.97978 0.78438 0.08908 0.0
C163 C 0.96599 0.76656 0.09165 0.0
C164 C 0.94678 0.76536 0.07964 0.0
C165 C 0.94173 0.7818 0.06492 0.0
C166 C 0.95613 0.79914 0.06304 0.0
H167 H 0.9947 0.78505 0.09808 0.0
O168 O 0.97076 0.85651 0.1203 0.0
O169 O 0.97645 0.84443 0.08718 0.0
O170 O 0.01541 0.84722 0.1112 0.0
O171 O 0.01352 0.81895 0.0881 0.0
C172 C 0.92319 0.78144 0.05172 0.0
C173 C 0.91962 0.79812 0.0366 0.0
H174 H 0.91864 0.83256 0.00883 0.0
H175 H 0.94685 0.861 0.00673 0.0
H176 H 0.97023 0.75377 0.10278 0.0
H177 H 0.9362 0.75156 0.08151 0.0
H178 H 0.91168 0.76833 0.05294 0.0
H179 H 0.90535 0.79764 0.02649 0.0
Mn180 Mn 0.38123 0.74211 0.34968 0.0
Mn181 Mn 0.42459 0.74087 0.31643 0.0
C182 C 0.40759 0.71669 0.35558 0.0
C183 C 0.34534 0.73267 0.35578 0.0
C184 C 0.42116 0.77146 0.35444 0.0
O185 O 0.37257 0.76207 0.3255 0.0
O186 O 0.40156 0.75969 0.304 0.0
C187 C 0.40261 0.71656 0.28166 0.0
N188 N 0.41918 0.71838 0.29601 0.0
C189 C 0.4345 0.68466 0.28427 0.0
C190 C 0.41766 0.68247 0.26927 0.0
C191 C 0.40161 0.69847 0.26801 0.0
C192 C 0.43449 0.70291 0.29761 0.0
H193 H 0.39022 0.7288 0.28068 0.0
C194 C 0.38288 0.76727 0.30856 0.0
O195 O 0.354 0.74917 0.36546 0.0
O196 O 0.35742 0.72203 0.3424 0.0
N197 N 0.44888 0.72393 0.32525 0.0
C198 C 0.46524 0.72968 0.33884 0.0
C199 C 0.48304 0.71586 0.3414 0.0
C200 C 0.4842 0.69663 0.32941 0.0
C201 C 0.46773 0.6916 0.3147 0.0
C202 C 0.45042 0.70604 0.31283 0.0
H203 H 0.46461 0.74461 0.34782 0.0
O204 O 0.39309 0.72074 0.3701 0.0
O205 O 0.40518 0.72643 0.33698 0.0
O206 O 0.40244 0.76538 0.36101 0.0
O207 O 0.43071 0.76346 0.3379 0.0
C208 C 0.46805 0.67307 0.30151 0.0
C209 C 0.45137 0.66952 0.28639 0.0
H210 H 0.41692 0.66861 0.25863 0.0
H211 H 0.38853 0.69687 0.25653 0.0
H212 H 0.49585 0.72008 0.35252 0.0
H213 H 0.49797 0.68603 0.3313 0.0
H214 H 0.48114 0.66153 0.30273 0.0
H215 H 0.45181 0.65525 0.27629 0.0
Mn216 Mn 0.50791 0.13154 0.59946 0.0
Mn217 Mn 0.50915 0.17503 0.56637 0.0
C218 C 0.53329 0.15791 0.60551 0.0
C219 C 0.51736 0.09565 0.6055 0.0
C220 C 0.47851 0.17143 0.60432 0.0
O221 O 0.48801 0.12294 0.57522 0.0
O222 O 0.49037 0.15202 0.55384 0.0
C223 C 0.53354 0.15319 0.53156 0.0
N224 N 0.53168 0.16971 0.54596 0.0
C225 C 0.56541 0.1851 0.53433 0.0
C226 C 0.56764 0.16833 0.51928 0.0
C227 C 0.55166 0.15227 0.51794 0.0
C228 C 0.54714 0.18502 0.54765 0.0
H229 H 0.52132 0.1408 0.53051 0.0
C230 C 0.48282 0.13332 0.55831 0.0
O231 O 0.50084 0.10427 0.61515 0.0
O232 O 0.52803 0.10777 0.59217 0.0
N233 N 0.52606 0.1993 0.57531 0.0
C234 C 0.52027 0.21561 0.58894 0.0
C235 C 0.53407 0.23341 0.59159 0.0
C236 C 0.55332 0.23463 0.57964 0.0
C237 C 0.55839 0.21822 0.56488 0.0
C238 C 0.54398 0.2009 0.56292 0.0
H239 H 0.50533 0.21494 0.59789 0.0
O240 O 0.52923 0.14336 0.61997 0.0
O241 O 0.52359 0.15556 0.58688 0.0
O242 O 0.4846 0.15269 0.61083 0.0
O243 O 0.48653 0.18105 0.58783 0.0
C244 C 0.57694 0.2186 0.55171 0.0
C245 C 0.58053 0.20198 0.53655 0.0
H246 H 0.58152 0.16763 0.50865 0.0
H247 H 0.55328 0.13924 0.5064 0.0
H248 H 0.52981 0.24618 0.60274 0.0
H249 H 0.5639 0.2484 0.58158 0.0
H250 H 0.58847 0.23171 0.553 0.0
H251 H 0.59482 0.20248 0.52646 0.0
Mn252 Mn 0.11841 0.25776 0.84957 0.0
Mn253 Mn 0.07499 0.25903 0.8164 0.0
C254 C 0.09205 0.28315 0.85556 0.0
C255 C 0.15431 0.26719 0.85565 0.0
C256 C 0.07851 0.22837 0.85436 0.0
O257 O 0.12704 0.23785 0.82534 0.0
O258 O 0.09801 0.24025 0.8039 0.0
C259 C 0.09689 0.28342 0.78164 0.0
N260 N 0.08034 0.28156 0.79601 0.0
C261 C 0.06498 0.3153 0.78437 0.0
C262 C 0.08178 0.31753 0.76934 0.0
C263 C 0.09784 0.30155 0.76803 0.0
C264 C 0.06503 0.29702 0.79768 0.0
H265 H 0.10928 0.2712 0.78061 0.0
C266 C 0.1167 0.23268 0.80841 0.0
O267 O 0.14566 0.25068 0.8653 0.0
O268 O 0.1422 0.27786 0.8423 0.0
N269 N 0.0507 0.27593 0.8253 0.0
C270 C 0.03437 0.27015 0.8389 0.0
C271 C 0.01657 0.28394 0.84153 0.0
C272 C 0.01537 0.3032 0.82958 0.0
C273 C 0.0318 0.30827 0.81485 0.0
C274 C 0.04913 0.29385 0.81292 0.0
H275 H 0.03502 0.25519 0.84785 0.0
O276 O 0.10657 0.27908 0.87005 0.0
O277 O 0.09443 0.27344 0.83694 0.0
O278 O 0.09723 0.23446 0.8609 0.0
O279 O 0.06893 0.2364 0.83785 0.0
C280 C 0.03145 0.32683 0.8017 0.0
C281 C 0.0481 0.33042 0.78656 0.0
H282 H 0.0825 0.33141 0.75873 0.0
H283 H 0.1109 0.30318 0.75651 0.0
H284 H 0.00378 0.27968 0.85266 0.0
H285 H 0.00159 0.31378 0.83151 0.0
H286 H 0.01835 0.33836 0.80296 0.0
H287 H 0.04762 0.34471 0.77648 0.0
Mn288 Mn 0.40001 0.99204 0.1314 0.0
Mn289 Mn 0.43318 0.99083 0.17482 0.0
C290 C 0.39405 0.96664 0.15777 0.0
C291 C 0.39395 0.9826 0.0955 0.0
C292 C 0.39521 0.02145 0.17126 0.0
O293 O 0.42422 0.01198 0.12276 0.0
O294 O 0.44569 0.00959 0.15177 0.0
C295 C 0.46797 0.96642 0.15296 0.0
N296 N 0.45359 0.9683 0.1695 0.0
C297 C 0.46526 0.9346 0.18493 0.0
C298 C 0.48029 0.93236 0.16813 0.0
C299 C 0.4816 0.94831 0.15204 0.0
C300 C 0.45193 0.95287 0.18484 0.0
H301 H 0.46899 0.97863 0.14055 0.0
C302 C 0.44115 0.01715 0.13309 0.0
O303 O 0.38428 0.99911 0.10415 0.0
O304 O 0.40731 0.97194 0.10761 0.0
N305 N 0.42428 0.97395 0.19912 0.0
C306 C 0.41066 0.97975 0.21543 0.0
C307 C 0.40804 0.96598 0.23326 0.0
C308 C 0.42001 0.94674 0.23449 0.0
C309 C 0.43475 0.94166 0.21808 0.0
C310 C 0.43668 0.95605 0.20073 0.0
H311 H 0.40169 0.99469 0.21475 0.0
O312 O 0.37956 0.97069 0.14324 0.0
O313 O 0.41266 0.97638 0.15538 0.0
O314 O 0.38865 0.01533 0.15256 0.0
O315 O 0.41173 0.01346 0.18085 0.0
C316 C 0.44793 0.92311 0.21847 0.0
C317 C 0.46308 0.91951 0.20183 0.0
H318 H 0.49092 0.91848 0.16744 0.0
H319 H 0.49312 0.94667 0.139 0.0
H320 H 0.3969 0.97024 0.24603 0.0
H321 H 0.41809 0.93618 0.24829 0.0
H322 H 0.44667 0.91161 0.23159 0.0
H323 H 0.47317 0.90523 0.20234 0.0
Mn324 Mn 0.25762 0.15002 0.38143 0.0
Mn325 Mn 0.2588 0.1832 0.42485 0.0
C326 C 0.28301 0.14407 0.40781 0.0
C327 C 0.26707 0.14394 0.34554 0.0
C328 C 0.22822 0.14519 0.4213 0.0
O329 O 0.23768 0.17422 0.37277 0.0
O330 O 0.24002 0.19567 0.40181 0.0
C331 C 0.28315 0.21801 0.40296 0.0
N332 N 0.2813 0.20363 0.41951 0.0
C333 C 0.31498 0.21537 0.43492 0.0
C334 C 0.31719 0.2304 0.41811 0.0
C335 C 0.30123 0.23167 0.40203 0.0
C336 C 0.29673 0.20201 0.43484 0.0
H337 H 0.27093 0.219 0.39055 0.0
C338 C 0.23248 0.19114 0.38311 0.0
O339 O 0.25057 0.13427 0.35418 0.0
O340 O 0.27773 0.15731 0.35765 0.0
N341 N 0.27571 0.17433 0.44914 0.0
C342 C 0.26995 0.16069 0.46545 0.0
C343 C 0.28374 0.1581 0.48327 0.0
C344 C 0.30294 0.17012 0.4845 0.0
C345 C 0.30799 0.18487 0.46808 0.0
C346 C 0.29359 0.18676 0.45074 0.0
H347 H 0.25504 0.15168 0.46477 0.0
O348 O 0.27897 0.12957 0.39329 0.0
O349 O 0.27328 0.16268 0.40542 0.0
O350 O 0.23432 0.13866 0.40258 0.0
O351 O 0.23621 0.16171 0.43089 0.0
C352 C 0.32651 0.19808 0.46847 0.0
C353 C 0.33008 0.21323 0.45182 0.0
H354 H 0.33105 0.24105 0.41742 0.0
H355 H 0.30285 0.24318 0.38897 0.0
H356 H 0.2795 0.14695 0.49605 0.0
H357 H 0.31351 0.16823 0.4983 0.0
H358 H 0.33802 0.19685 0.48158 0.0
H359 H 0.34434 0.22335 0.45232 0.0
Mn360 Mn 0.09968 0.00763 0.63155 0.0
Mn361 Mn 0.06659 0.00883 0.67504 0.0
C362 C 0.1057 0.033 0.65793 0.0
C363 C 0.10573 0.01709 0.59566 0.0
C364 C 0.10456 0.97821 0.6714 0.0
O365 O 0.07544 0.98772 0.62293 0.0
O366 O 0.05406 0.99006 0.65201 0.0
C367 C 0.03174 0.0332 0.65325 0.0
N368 N 0.04616 0.03134 0.66976 0.0
C369 C 0.03445 0.065 0.68524 0.0
C370 C 0.01938 0.06723 0.66848 0.0
C371 C 0.01807 0.05129 0.65238 0.0
C372 C 0.04782 0.04676 0.68511 0.0
H373 H 0.03071 0.021 0.64083 0.0
C374 C 0.05854 0.98252 0.63331 0.0
O375 O 0.11538 0.00057 0.60428 0.0
O376 O 0.09239 0.02775 0.60778 0.0
N377 N 0.07553 0.02571 0.69933 0.0
C378 C 0.0892 0.01993 0.7156 0.0
C379 C 0.09183 0.0337 0.73343 0.0
C380 C 0.07982 0.0529 0.73471 0.0
C381 C 0.06503 0.05797 0.71833 0.0
C382 C 0.0631 0.04359 0.70097 0.0
H383 H 0.0982 0.00501 0.71488 0.0
O384 O 0.12017 0.02895 0.64339 0.0
O385 O 0.08708 0.02329 0.65557 0.0
O386 O 0.11106 0.98431 0.65267 0.0
O387 O 0.08807 0.98621 0.68103 0.0
C388 C 0.05182 0.07649 0.71876 0.0
C389 C 0.03664 0.08008 0.70215 0.0
H390 H 0.00872 0.08109 0.66782 0.0
H391 H 0.00653 0.05292 0.63936 0.0
H392 H 0.10301 0.02944 0.74617 0.0
H393 H 0.08174 0.06345 0.74851 0.0
H394 H 0.05308 0.08798 0.73189 0.0
H395 H 0.02652 0.09434 0.7027 0.0
Mn396 Mn 0.24197 0.84959 0.88153 0.0
Mn397 Mn 0.24066 0.8165 0.92501 0.0
C398 C 0.21656 0.85564 0.90786 0.0
C399 C 0.23259 0.85563 0.84562 0.0
C400 C 0.27133 0.85443 0.92143 0.0
O401 O 0.26187 0.82532 0.87295 0.0
O402 O 0.25945 0.80394 0.90202 0.0
C403 C 0.21626 0.7817 0.90316 0.0
N404 N 0.21812 0.79611 0.91968 0.0
C405 C 0.18439 0.78449 0.93506 0.0
C406 C 0.18216 0.76944 0.91829 0.0
C407 C 0.19814 0.76809 0.90223 0.0
C408 C 0.20267 0.7978 0.93499 0.0
H409 H 0.22849 0.78065 0.89078 0.0
C410 C 0.26702 0.80841 0.88333 0.0
O411 O 0.2491 0.86527 0.85427 0.0
O412 O 0.22188 0.8423 0.85772 0.0
N413 N 0.22374 0.82545 0.94927 0.0
C414 C 0.22953 0.83909 0.96558 0.0
C415 C 0.21573 0.84174 0.98337 0.0
C416 C 0.19648 0.82979 0.98459 0.0
C417 C 0.19141 0.81504 0.96818 0.0
C418 C 0.20583 0.81307 0.95086 0.0
H419 H 0.24448 0.84804 0.96491 0.0
O420 O 0.22065 0.8701 0.89332 0.0
O421 O 0.22625 0.83701 0.90552 0.0
O422 O 0.26526 0.86094 0.90269 0.0
O423 O 0.2633 0.83795 0.93105 0.0
C424 C 0.17285 0.80188 0.96856 0.0
C425 C 0.16927 0.78671 0.95193 0.0
H426 H 0.16827 0.75882 0.91759 0.0
H427 H 0.19652 0.75655 0.8892 0.0
H428 H 0.21999 0.8529 0.99614 0.0
H429 H 0.18589 0.83174 0.99836 0.0
H430 H 0.16132 0.80316 0.98166 0.0
H431 H 0.15497 0.77663 0.95243 0.0
Mn432 Mn 0.40024 0.00782 0.36837 0.0
Mn433 Mn 0.43332 0.009 0.32487 0.0
C434 C 0.39425 0.03323 0.34201 0.0
C435 C 0.39423 0.01728 0.40427 0.0
C436 C 0.3953 0.97845 0.32849 0.0
O437 O 0.42445 0.98786 0.37696 0.0
O438 O 0.44582 0.99019 0.34787 0.0
C439 C 0.46821 0.0333 0.34669 0.0
N440 N 0.45379 0.03148 0.33018 0.0
C441 C 0.46551 0.06517 0.31476 0.0
C442 C 0.48059 0.06735 0.33153 0.0
C443 C 0.48189 0.05138 0.3476 0.0
C444 C 0.45214 0.04693 0.31486 0.0
H445 H 0.46923 0.02108 0.35908 0.0
C446 C 0.44134 0.98264 0.36658 0.0
O447 O 0.38455 0.00078 0.39564 0.0
O448 O 0.40759 0.02792 0.39215 0.0
N449 N 0.42442 0.02593 0.3006 0.0
C450 C 0.41076 0.02018 0.2843 0.0
C451 C 0.40815 0.03397 0.2665 0.0
C452 C 0.42015 0.05318 0.26526 0.0
C453 C 0.43493 0.05821 0.28166 0.0
C454 C 0.43685 0.04381 0.29899 0.0
H455 H 0.40177 0.00525 0.28498 0.0
O456 O 0.37979 0.02919 0.35656 0.0
O457 O 0.41286 0.02348 0.34436 0.0
O458 O 0.38882 0.98455 0.34723 0.0
O459 O 0.4118 0.98643 0.31886 0.0
C460 C 0.44815 0.07673 0.28126 0.0
C461 C 0.46334 0.08028 0.29788 0.0
H462 H 0.49126 0.0812 0.33221 0.0
H463 H 0.49344 0.05297 0.36062 0.0
H464 H 0.39698 0.02974 0.25374 0.0
H465 H 0.41824 0.06376 0.25148 0.0
H466 H 0.4469 0.08825 0.26816 0.0
H467 H 0.47347 0.09454 0.29737 0.0
Mn468 Mn 0.24214 0.15017 0.61829 0.0
Mn469 Mn 0.2409 0.18329 0.57482 0.0
C470 C 0.21676 0.14415 0.59192 0.0
C471 C 0.23268 0.14411 0.65418 0.0
C472 C 0.27156 0.14536 0.57842 0.0
O473 O 0.26203 0.17442 0.62691 0.0
O474 O 0.25967 0.19582 0.59785 0.0
C475 C 0.21651 0.21811 0.59666 0.0
N476 N 0.21837 0.2037 0.58014 0.0
C477 C 0.18467 0.21537 0.5647 0.0
C478 C 0.18244 0.23043 0.58148 0.0
C479 C 0.1984 0.23174 0.59756 0.0
C480 C 0.20293 0.20203 0.5648 0.0
H481 H 0.22872 0.21914 0.60906 0.0
C482 C 0.26722 0.19133 0.61655 0.0
O483 O 0.24921 0.13447 0.64555 0.0
O484 O 0.22201 0.15745 0.64206 0.0
N485 N 0.224 0.17436 0.55054 0.0
C486 C 0.22978 0.16071 0.53425 0.0
C487 C 0.216 0.15807 0.51644 0.0
C488 C 0.19677 0.17005 0.51519 0.0
C489 C 0.19171 0.18482 0.53159 0.0
C490 C 0.2061 0.18677 0.54893 0.0
H491 H 0.24471 0.15173 0.53494 0.0
O492 O 0.22083 0.12967 0.60645 0.0
O493 O 0.22646 0.16278 0.59429 0.0
O494 O 0.26546 0.13883 0.59715 0.0
O495 O 0.26353 0.16184 0.5688 0.0
C496 C 0.17317 0.19801 0.53119 0.0
C497 C 0.16958 0.21318 0.54781 0.0
H498 H 0.16857 0.24107 0.58216 0.0
H499 H 0.19677 0.24328 0.61059 0.0
H500 H 0.22025 0.14691 0.50368 0.0
H501 H 0.1862 0.16813 0.5014 0.0
H502 H 0.16165 0.19674 0.51807 0.0
H503 H 0.1553 0.22328 0.54729 0.0
Mn504 Mn 0.09983 0.99217 0.86836 0.0
Mn505 Mn 0.06672 0.99093 0.8249 0.0
C506 C 0.10584 0.96677 0.842 0.0
C507 C 0.10587 0.98274 0.90426 0.0
C508 C 0.10467 0.02156 0.82849 0.0
O509 O 0.07559 0.01209 0.87697 0.0
O510 O 0.05419 0.00971 0.84791 0.0
C511 C 0.03189 0.96656 0.84674 0.0
N512 N 0.04629 0.96841 0.83021 0.0
C513 C 0.03459 0.93473 0.81478 0.0
C514 C 0.01954 0.93251 0.83156 0.0
C515 C 0.01824 0.94846 0.84765 0.0
C516 C 0.04794 0.95298 0.81488 0.0
H517 H 0.03088 0.97877 0.85915 0.0
C518 C 0.05868 0.01727 0.86661 0.0
O519 O 0.11553 0.99925 0.89563 0.0
O520 O 0.09253 0.97206 0.89215 0.0
N521 N 0.07563 0.97402 0.80062 0.0
C522 C 0.08929 0.97979 0.78433 0.0
C523 C 0.09191 0.96601 0.76651 0.0
C524 C 0.0799 0.9468 0.76526 0.0
C525 C 0.06513 0.94175 0.78166 0.0
C526 C 0.06321 0.95614 0.799 0.0
H527 H 0.09829 0.99471 0.78502 0.0
O528 O 0.12032 0.97084 0.85653 0.0
O529 O 0.08722 0.97648 0.84436 0.0
O530 O 0.11119 0.01547 0.84722 0.0
O531 O 0.08818 0.01354 0.81887 0.0
C532 C 0.05193 0.92322 0.78125 0.0
C533 C 0.03676 0.91964 0.79788 0.0
H534 H 0.00889 0.91864 0.83225 0.0
H535 H 0.00671 0.94684 0.86069 0.0
H536 H 0.10307 0.97026 0.75375 0.0
H537 H 0.08181 0.93624 0.75146 0.0
H538 H 0.05318 0.91171 0.76813 0.0
H539 H 0.02666 0.90537 0.79737 0.0
Mn540 Mn 0.25766 0.84977 0.11847 0.0
Mn541 Mn 0.25891 0.81661 0.07504 0.0
C542 C 0.28309 0.85573 0.09212 0.0
C543 C 0.26706 0.85586 0.15437 0.0
C544 C 0.2283 0.85461 0.07856 0.0
O545 O 0.23772 0.82556 0.12709 0.0
O546 O 0.24011 0.80413 0.09805 0.0
C547 C 0.28325 0.78181 0.09694 0.0
N548 N 0.28141 0.79619 0.08039 0.0
C549 C 0.31512 0.78447 0.06502 0.0
C550 C 0.31732 0.76944 0.08182 0.0
C551 C 0.30134 0.76816 0.09788 0.0
C552 C 0.29686 0.79782 0.06508 0.0
H553 H 0.27102 0.7808 0.10933 0.0
C554 C 0.23254 0.80864 0.11674 0.0
O555 O 0.25056 0.86552 0.1457 0.0
O556 O 0.27774 0.84249 0.14228 0.0
N557 N 0.27584 0.8255 0.05076 0.0
C558 C 0.27008 0.83912 0.03444 0.0
C559 C 0.28387 0.84172 0.01663 0.0
C560 C 0.3031 0.82972 0.01542 0.0
C561 C 0.30814 0.81498 0.03185 0.0
C562 C 0.29373 0.81307 0.04918 0.0
H563 H 0.25515 0.8481 0.0351 0.0
O564 O 0.27903 0.87023 0.10664 0.0
O565 O 0.27336 0.83713 0.09449 0.0
O566 O 0.23439 0.86113 0.09729 0.0
O567 O 0.23631 0.83809 0.06897 0.0
C568 C 0.32667 0.80178 0.03148 0.0
C569 C 0.33023 0.78663 0.04814 0.0
H570 H 0.33118 0.7588 0.08253 0.0
H571 H 0.30295 0.75664 0.11093 0.0
H572 H 0.27963 0.85286 0.00385 0.0
H573 H 0.31368 0.83162 0.00164 0.0
H574 H 0.3382 0.80302 0.01838 0.0
H575 H 0.34451 0.77653 0.04765 0.0
Mn576 Mn 0.13135 0.40009 0.992 0.0
Mn577 Mn 0.17472 0.43334 0.99068 0.0
C578 C 0.15771 0.39413 0.96659 0.0
C579 C 0.09546 0.39394 0.9826 0.0
C580 C 0.17127 0.39541 0.02137 0.0
O581 O 0.12268 0.42433 0.01189 0.0
O582 O 0.15168 0.44582 0.00947 0.0
C583 C 0.15273 0.46804 0.96627 0.0
N584 N 0.1693 0.4537 0.96813 0.0
C585 C 0.18461 0.46533 0.93437 0.0
C586 C 0.16778 0.48032 0.93214 0.0
C587 C 0.15173 0.48163 0.94813 0.0
C588 C 0.18461 0.45204 0.95266 0.0
H589 H 0.14034 0.46906 0.97851 0.0
C590 C 0.133 0.44128 0.01704 0.0
O591 O 0.10414 0.38432 0.99912 0.0
O592 O 0.10753 0.4073 0.9719 0.0
N593 N 0.19901 0.42447 0.97376 0.0
C594 C 0.21536 0.41089 0.97954 0.0
C595 C 0.23315 0.40828 0.96573 0.0
C596 C 0.23431 0.42021 0.94646 0.0
C597 C 0.21785 0.43491 0.9414 0.0
C598 C 0.20054 0.43684 0.95583 0.0
H599 H 0.21473 0.40195 0.9945 0.0
O600 O 0.14322 0.37962 0.97068 0.0
O601 O 0.1553 0.41275 0.97629 0.0
O602 O 0.15255 0.38883 0.0153 0.0
O603 O 0.18083 0.41192 0.01333 0.0
C604 C 0.21816 0.44805 0.92282 0.0
C605 C 0.20147 0.46315 0.91923 0.0
H606 H 0.16702 0.49092 0.91824 0.0
H607 H 0.13865 0.49311 0.9465 0.0
H608 H 0.24596 0.39717 0.96998 0.0
H609 H 0.24807 0.41829 0.93586 0.0
H610 H 0.23125 0.44679 0.91128 0.0
H611 H 0.20192 0.47321 0.90492 0.0
Mn612 Mn 0.63113 0.09947 0.00758 0.0
Mn613 Mn 0.67444 0.06615 0.00878 0.0
C614 C 0.65748 0.10527 0.03304 0.0
C615 C 0.59524 0.10563 0.01701 0.0
C616 C 0.67109 0.10424 0.97828 0.0
O617 O 0.62244 0.07536 0.98755 0.0
O618 O 0.65139 0.05381 0.98991 0.0
C619 C 0.65237 0.03136 0.03299 0.0
N620 N 0.66896 0.04569 0.03122 0.0
C621 C 0.68421 0.03387 0.06495 0.0
C622 C 0.66735 0.01889 0.06708 0.0
C623 C 0.65132 0.01769 0.05106 0.0
C624 C 0.68425 0.04725 0.04672 0.0
H625 H 0.64 0.03042 0.02073 0.0
C626 C 0.63273 0.05842 0.98233 0.0
O627 O 0.60393 0.11532 0.00054 0.0
O628 O 0.60729 0.0922 0.02763 0.0
N629 N 0.69873 0.07489 0.02577 0.0
C630 C 0.71512 0.08845 0.02006 0.0
C631 C 0.7329 0.09096 0.03391 0.0
C632 C 0.73401 0.07895 0.05313 0.0
C633 C 0.71751 0.06426 0.0581 0.0
C634 C 0.70021 0.06244 0.04364 0.0
H635 H 0.71454 0.09745 0.00514 0.0
O636 O 0.643 0.11983 0.02902 0.0
O637 O 0.65505 0.0867 0.02325 0.0
O638 O 0.65238 0.11083 0.98436 0.0
O639 O 0.68061 0.08767 0.98625 0.0
C640 C 0.71777 0.05104 0.07662 0.0
C641 C 0.70106 0.03595 0.08011 0.0
H642 H 0.66657 0.00823 0.08093 0.0
H643 H 0.63823 0.00622 0.05262 0.0
H644 H 0.74574 0.10206 0.02972 0.0
H645 H 0.74776 0.0808 0.06375 0.0
H646 H 0.73085 0.05221 0.08818 0.0
H647 H 0.70147 0.02582 0.09437 0.0
Mn648 Mn 0.14988 0.3814 0.2576 0.0
Mn649 Mn 0.18293 0.42492 0.25888 0.0
C650 C 0.14379 0.40777 0.28298 0.0
C651 C 0.14386 0.34549 0.26703 0.0
C652 C 0.14501 0.42128 0.22821 0.0
O653 O 0.17416 0.37282 0.23772 0.0
O654 O 0.19549 0.40193 0.2401 0.0
C655 C 0.21775 0.4031 0.28327 0.0
N656 N 0.20334 0.41961 0.28141 0.0
C657 C 0.21499 0.43504 0.31512 0.0
C658 C 0.23005 0.41827 0.31735 0.0
C659 C 0.23138 0.40219 0.30138 0.0
C660 C 0.20165 0.43494 0.29685 0.0
H661 H 0.21879 0.3907 0.27105 0.0
C662 C 0.19105 0.38322 0.23254 0.0
O663 O 0.13422 0.35412 0.2505 0.0
O664 O 0.15717 0.35763 0.27772 0.0
N665 N 0.17397 0.44918 0.27579 0.0
C666 C 0.16031 0.46547 0.27001 0.0
C667 C 0.15767 0.48328 0.28379 0.0
C668 C 0.16965 0.48453 0.30302 0.0
C669 C 0.18442 0.46813 0.30809 0.0
C670 C 0.18637 0.4508 0.29369 0.0
H671 H 0.15133 0.46477 0.25508 0.0
O672 O 0.12934 0.39321 0.2789 0.0
O673 O 0.16243 0.40542 0.2733 0.0
O674 O 0.13853 0.40253 0.23428 0.0
O675 O 0.16147 0.43093 0.23625 0.0
C676 C 0.1976 0.46854 0.32663 0.0
C677 C 0.21278 0.45192 0.33022 0.0
H678 H 0.24069 0.41759 0.33122 0.0
H679 H 0.24292 0.38916 0.30301 0.0
H680 H 0.1465 0.49603 0.27954 0.0
H681 H 0.16773 0.49832 0.31359 0.0
H682 H 0.19633 0.48165 0.33814 0.0
H683 H 0.22287 0.45244 0.3445 0.0
Mn684 Mn 0.86841 0.89986 0.50777 0.0
Mn685 Mn 0.82501 0.93306 0.50893 0.0
C686 C 0.842 0.89391 0.53313 0.0
C687 C 0.90429 0.8938 0.51727 0.0
C688 C 0.82856 0.89507 0.47832 0.0
O689 O 0.87709 0.92406 0.48784 0.0
O690 O 0.84807 0.94553 0.49018 0.0
C691 C 0.84688 0.96783 0.53333 0.0
N692 N 0.83033 0.95347 0.53145 0.0
C693 C 0.8149 0.96517 0.56513 0.0
C694 C 0.83171 0.98019 0.56738 0.0
C695 C 0.84781 0.98147 0.55144 0.0
C696 C 0.81498 0.95183 0.54687 0.0
H697 H 0.85931 0.96883 0.52113 0.0
C698 C 0.86677 0.941 0.48265 0.0
O699 O 0.89567 0.88412 0.50075 0.0
O700 O 0.89217 0.90715 0.52791 0.0
N701 N 0.80068 0.92419 0.5258 0.0
C702 C 0.78436 0.91057 0.52 0.0
C703 C 0.76653 0.90798 0.53377 0.0
C704 C 0.76529 0.91997 0.55299 0.0
C705 C 0.78172 0.9347 0.55807 0.0
C706 C 0.79908 0.9366 0.54369 0.0
H707 H 0.78505 0.90159 0.50507 0.0
O708 O 0.85652 0.87941 0.5291 0.0
O709 O 0.84441 0.91252 0.5234 0.0
O710 O 0.84727 0.88851 0.48444 0.0
O711 O 0.81898 0.91159 0.48631 0.0
C712 C 0.78133 0.94789 0.57661 0.0
C713 C 0.79798 0.96302 0.58021 0.0
H714 H 0.8324 0.99082 0.58125 0.0
H715 H 0.86087 0.99297 0.55308 0.0
H716 H 0.75375 0.89685 0.5295 0.0
H717 H 0.75149 0.91807 0.56354 0.0
H718 H 0.7682 0.94665 0.58811 0.0
H719 H 0.79748 0.97312 0.59449 0.0
Mn720 Mn 0.8493 0.118 0.25787 0.0
Mn721 Mn 0.81631 0.07443 0.25904 0.0
C722 C 0.85539 0.09161 0.28322 0.0
C723 C 0.85529 0.15389 0.26734 0.0
C724 C 0.85426 0.07818 0.22841 0.0
O725 O 0.82504 0.12657 0.23797 0.0
O726 O 0.80374 0.09743 0.24027 0.0
C727 C 0.78141 0.09614 0.28341 0.0
N728 N 0.79587 0.07966 0.28155 0.0
C729 C 0.7842 0.06416 0.31522 0.0
C730 C 0.7691 0.08089 0.31745 0.0
C731 C 0.76775 0.09699 0.3015 0.0
C732 C 0.79756 0.06432 0.29697 0.0
H733 H 0.78036 0.10855 0.27121 0.0
C734 C 0.80817 0.11615 0.23275 0.0
O735 O 0.86494 0.14529 0.25081 0.0
O736 O 0.84198 0.14175 0.27801 0.0
N737 N 0.82529 0.05015 0.27592 0.0
C738 C 0.83899 0.0339 0.27013 0.0
C739 C 0.84166 0.01608 0.28389 0.0
C740 C 0.82966 0.01478 0.3031 0.0
C741 C 0.81485 0.03114 0.30818 0.0
C742 C 0.81288 0.04849 0.2938 0.0
H743 H 0.84798 0.03463 0.2552 0.0
O744 O 0.86983 0.10619 0.27917 0.0
O745 O 0.83676 0.09394 0.27352 0.0
O746 O 0.86071 0.09692 0.23453 0.0
O747 O 0.83781 0.06849 0.23642 0.0
C748 C 0.80164 0.03067 0.3267 0.0
C749 C 0.78643 0.04725 0.3303 0.0
H750 H 0.75844 0.08152 0.33131 0.0
H751 H 0.75618 0.10998 0.30313 0.0
H752 H 0.85286 0.00336 0.27963 0.0
H753 H 0.83161 0.00098 0.31366 0.0
H754 H 0.80293 0.01755 0.3382 0.0
H755 H 0.77631 0.04669 0.34456 0.0
Mn756 Mn 0.36829 0.59966 0.49188 0.0
Mn757 Mn 0.32487 0.56647 0.49067 0.0
C758 C 0.34189 0.60563 0.46651 0.0
C759 C 0.40417 0.60575 0.4824 0.0
C760 C 0.32841 0.60443 0.5213 0.0
O761 O 0.37695 0.57544 0.51179 0.0
O762 O 0.34792 0.554 0.50944 0.0
C763 C 0.34678 0.5317 0.46628 0.0
N764 N 0.33023 0.54607 0.46814 0.0
C765 C 0.31484 0.53438 0.43443 0.0
C766 C 0.33165 0.51937 0.43221 0.0
C767 C 0.34772 0.51807 0.44817 0.0
C768 C 0.3149 0.54771 0.4527 0.0
H769 H 0.35918 0.53069 0.4785 0.0
C770 C 0.36661 0.55852 0.51699 0.0
O771 O 0.39554 0.6154 0.49893 0.0
O772 O 0.39206 0.59239 0.47175 0.0
N773 N 0.30057 0.57535 0.47377 0.0
C774 C 0.28424 0.58895 0.47956 0.0
C775 C 0.26642 0.59155 0.46577 0.0
C776 C 0.26522 0.57958 0.44653 0.0
C777 C 0.28165 0.56486 0.44147 0.0
C778 C 0.29899 0.56295 0.45586 0.0
H779 H 0.28491 0.59792 0.4945 0.0
O780 O 0.35641 0.62013 0.47056 0.0
O781 O 0.34429 0.58702 0.47622 0.0
O782 O 0.34713 0.61099 0.5152 0.0
O783 O 0.31882 0.58793 0.51329 0.0
C784 C 0.28129 0.55168 0.42292 0.0
C785 C 0.29795 0.53655 0.41933 0.0
H786 H 0.33236 0.50874 0.41833 0.0
H787 H 0.36078 0.50657 0.44654 0.0
H788 H 0.25363 0.60268 0.47003 0.0
H789 H 0.25143 0.58149 0.43596 0.0
H790 H 0.26817 0.55292 0.4114 0.0
H791 H 0.29746 0.52646 0.40505 0.0
Mn792 Mn 0.14991 0.61818 0.24206 0.0
Mn793 Mn 0.18303 0.57472 0.24092 0.0
C794 C 0.14392 0.59178 0.2167 0.0
C795 C 0.14388 0.65407 0.23258 0.0
C796 C 0.14505 0.57837 0.27153 0.0
O797 O 0.17413 0.62683 0.26198 0.0
O798 O 0.19556 0.59778 0.25964 0.0
C799 C 0.21787 0.59648 0.2165 0.0
N800 N 0.20345 0.57997 0.2184 0.0
C801 C 0.21516 0.56444 0.18476 0.0
C802 C 0.23022 0.58121 0.1825 0.0
C803 C 0.23152 0.59734 0.19841 0.0
C804 C 0.2018 0.5646 0.203 0.0
H805 H 0.21889 0.60892 0.22868 0.0
C806 C 0.19106 0.61649 0.26717 0.0
O807 O 0.1342 0.64545 0.2491 0.0
O808 O 0.15722 0.64194 0.22193 0.0
N809 N 0.1741 0.5504 0.22407 0.0
C810 C 0.16042 0.53414 0.22987 0.0
C811 C 0.1578 0.51629 0.21613 0.0
C812 C 0.16981 0.51498 0.19693 0.0
C813 C 0.18459 0.53136 0.19184 0.0
C814 C 0.18652 0.54874 0.20619 0.0
H815 H 0.15142 0.53487 0.24479 0.0
O816 O 0.12944 0.60632 0.22074 0.0
O817 O 0.16253 0.59416 0.22643 0.0
O818 O 0.13852 0.59708 0.26539 0.0
O819 O 0.16155 0.56875 0.26355 0.0
C820 C 0.1978 0.5309 0.17332 0.0
C821 C 0.21298 0.54751 0.1697 0.0
H822 H 0.24088 0.58185 0.16863 0.0
H823 H 0.24306 0.61036 0.19676 0.0
H824 H 0.14662 0.50355 0.2204 0.0
H825 H 0.1679 0.50116 0.1864 0.0
H826 H 0.19654 0.51775 0.16184 0.0
H827 H 0.2231 0.54695 0.15544 0.0
Mn828 Mn 0.34952 0.38138 0.74181 0.0
Mn829 Mn 0.31637 0.42483 0.74063 0.0
C830 C 0.35547 0.40775 0.71641 0.0
C831 C 0.3556 0.34549 0.73238 0.0
C832 C 0.35438 0.42126 0.7712 0.0
O833 O 0.32532 0.37275 0.76177 0.0
O834 O 0.3039 0.4018 0.75944 0.0
C835 C 0.28153 0.40296 0.71632 0.0
N836 N 0.29592 0.41949 0.71815 0.0
C837 C 0.28418 0.4349 0.68446 0.0
C838 C 0.26914 0.41811 0.68227 0.0
C839 C 0.26786 0.40203 0.69824 0.0
C840 C 0.29755 0.43482 0.7027 0.0
H841 H 0.28053 0.39056 0.72854 0.0
C842 C 0.30842 0.38311 0.76699 0.0
O843 O 0.36526 0.35415 0.74888 0.0
O844 O 0.34222 0.35758 0.72172 0.0
N845 N 0.32524 0.44912 0.72371 0.0
C846 C 0.33887 0.46544 0.72948 0.0
C847 C 0.34146 0.48325 0.71569 0.0
C848 C 0.32946 0.48447 0.69648 0.0
C849 C 0.31471 0.46805 0.69144 0.0
C850 C 0.31281 0.45071 0.70584 0.0
H851 H 0.34786 0.46476 0.74441 0.0
O852 O 0.36996 0.39322 0.72045 0.0
O853 O 0.33687 0.40538 0.72615 0.0
O854 O 0.3609 0.40254 0.76509 0.0
O855 O 0.33787 0.43087 0.76321 0.0
C856 C 0.30149 0.46843 0.67291 0.0
C857 C 0.28633 0.45179 0.66936 0.0
H858 H 0.25848 0.41741 0.66841 0.0
H859 H 0.25633 0.38899 0.69663 0.0
H860 H 0.35261 0.49603 0.71993 0.0
H861 H 0.33135 0.49826 0.6859 0.0
H862 H 0.30273 0.48154 0.6614 0.0
H863 H 0.27621 0.45229 0.65509 0.0
Mn864 Mn 0.00766 0.86834 0.5999 0.0
Mn865 Mn 0.00896 0.8249 0.56675 0.0
C866 C 0.03305 0.84197 0.60593 0.0
C867 C 0.01711 0.90423 0.60598 0.0
C868 C 0.97826 0.82845 0.60466 0.0
O869 O 0.98778 0.87697 0.57564 0.0
O870 O 0.99018 0.84791 0.55424 0.0
C871 C 0.03337 0.84681 0.532 0.0
N872 N 0.0315 0.83026 0.54637 0.0
C873 C 0.06523 0.81489 0.53472 0.0
C874 C 0.06747 0.83169 0.5197 0.0
C875 C 0.05149 0.84776 0.51839 0.0
C876 C 0.04695 0.81494 0.54803 0.0
H877 H 0.02115 0.85921 0.53098 0.0
C878 C 0.98261 0.86661 0.55872 0.0
O879 O 0.00057 0.8956 0.61561 0.0
O880 O 0.02779 0.89212 0.59265 0.0
N881 N 0.02587 0.80062 0.57566 0.0
C882 C 0.02009 0.7843 0.58928 0.0
C883 C 0.03388 0.76649 0.5919 0.0
C884 C 0.05312 0.76529 0.57994 0.0
C885 C 0.05819 0.78171 0.56521 0.0
C886 C 0.04379 0.79904 0.56327 0.0
H887 H 0.00515 0.78497 0.59824 0.0
O888 O 0.02896 0.85649 0.62041 0.0
O889 O 0.02337 0.84435 0.5873 0.0
O890 O 0.98433 0.84718 0.6112 0.0
O891 O 0.98632 0.81884 0.58819 0.0
C892 C 0.07675 0.78135 0.55204 0.0
C893 C 0.08034 0.79801 0.53691 0.0
H894 H 0.08136 0.83241 0.50909 0.0
H895 H 0.05313 0.86082 0.50688 0.0
H896 H 0.02962 0.75371 0.60304 0.0
H897 H 0.0637 0.7515 0.58185 0.0
H898 H 0.08828 0.76825 0.5533 0.0
H899 H 0.09464 0.79752 0.52683 0.0
Mn900 Mn 0.88108 0.25739 0.34977 0.0
Mn901 Mn 0.92439 0.25864 0.31644 0.0
C902 C 0.90743 0.28284 0.35561 0.0
C903 C 0.8452 0.2668 0.35591 0.0
C904 C 0.92103 0.22806 0.35447 0.0
O905 O 0.8724 0.2374 0.32562 0.0
O906 O 0.90133 0.23983 0.30404 0.0
C907 C 0.90234 0.28297 0.28172 0.0
N908 N 0.91894 0.28114 0.29604 0.0
C909 C 0.93422 0.31489 0.28431 0.0
C910 C 0.91736 0.31708 0.26934 0.0
C911 C 0.90132 0.30108 0.26809 0.0
C912 C 0.93424 0.29662 0.29763 0.0
H913 H 0.88996 0.27073 0.28075 0.0
C914 C 0.88268 0.23223 0.30865 0.0
O915 O 0.85388 0.25033 0.36559 0.0
O916 O 0.85725 0.27745 0.3425 0.0
N917 N 0.94869 0.27559 0.32523 0.0
C918 C 0.96507 0.26984 0.33879 0.0
C919 C 0.98286 0.28366 0.34134 0.0
C920 C 0.98399 0.3029 0.32937 0.0
C921 C 0.96751 0.30793 0.31469 0.0
C922 C 0.9502 0.29349 0.31282 0.0
H923 H 0.96446 0.25489 0.34776 0.0
O924 O 0.89296 0.2788 0.37015 0.0
O925 O 0.905 0.27308 0.33702 0.0
O926 O 0.90233 0.23415 0.36108 0.0
O927 O 0.93054 0.23605 0.3379 0.0
C928 C 0.96779 0.32648 0.30151 0.0
C929 C 0.95108 0.33003 0.28643 0.0
H930 H 0.91659 0.33096 0.25871 0.0
H931 H 0.88822 0.30268 0.25663 0.0
H932 H 0.99569 0.27943 0.35243 0.0
H933 H 0.99776 0.31351 0.33125 0.0
H934 H 0.98088 0.33803 0.30272 0.0
H935 H 0.95151 0.34432 0.27633 0.0
Mn936 Mn 0.49194 0.13134 0.09964 0.0
Mn937 Mn 0.49071 0.17481 0.06653 0.0
C938 C 0.46656 0.15772 0.10566 0.0
C939 C 0.48249 0.09545 0.10571 0.0
C940 C 0.52136 0.1712 0.10447 0.0
O941 O 0.51183 0.12272 0.07539 0.0
O942 O 0.50947 0.15179 0.054 0.0
C943 C 0.4663 0.15297 0.03173 0.0
N944 N 0.46818 0.1695 0.04612 0.0
C945 C 0.43447 0.18493 0.03446 0.0
C946 C 0.43223 0.16814 0.01942 0.0
C947 C 0.44819 0.15206 0.0181 0.0
C948 C 0.45274 0.18484 0.04779 0.0
H949 H 0.47851 0.14056 0.03069 0.0
C950 C 0.51701 0.13308 0.05848 0.0
O951 O 0.49902 0.10409 0.11534 0.0
O952 O 0.47181 0.10756 0.09237 0.0
N953 N 0.47382 0.1991 0.07545 0.0
C954 C 0.47961 0.21539 0.0891 0.0
C955 C 0.46583 0.23321 0.09173 0.0
C956 C 0.4466 0.23446 0.07975 0.0
C957 C 0.44153 0.21806 0.06499 0.0
C958 C 0.45591 0.20071 0.06305 0.0
H959 H 0.49454 0.2147 0.09807 0.0
O960 O 0.47062 0.14319 0.12014 0.0
O961 O 0.47626 0.15535 0.08704 0.0
O962 O 0.51525 0.15247 0.11098 0.0
O963 O 0.51334 0.18083 0.08798 0.0
C964 C 0.42298 0.21846 0.05182 0.0
C965 C 0.41938 0.20182 0.03666 0.0
H966 H 0.41835 0.16746 0.00879 0.0
H967 H 0.44655 0.13902 0.00657 0.0
H968 H 0.47009 0.24597 0.10289 0.0
H969 H 0.43604 0.24825 0.08167 0.0
H970 H 0.41147 0.23157 0.05308 0.0
H971 H 0.40509 0.20234 0.02657 0.0
Mn972 Mn 0.61825 0.74197 0.8495 0.0
Mn973 Mn 0.57479 0.74072 0.81638 0.0
C974 C 0.59186 0.71661 0.85554 0.0
C975 C 0.65414 0.73247 0.85556 0.0
C976 C 0.57838 0.7714 0.8543 0.0
O977 O 0.62689 0.76184 0.82523 0.0
O978 O 0.59781 0.75949 0.80385 0.0
C979 C 0.59665 0.7163 0.7816 0.0
N980 N 0.58012 0.71818 0.79599 0.0
C981 C 0.56471 0.68446 0.78435 0.0
C982 C 0.5815 0.68222 0.76931 0.0
C983 C 0.59758 0.69818 0.76799 0.0
C984 C 0.56479 0.70274 0.79766 0.0
H985 H 0.60905 0.72852 0.78056 0.0
C986 C 0.61652 0.76703 0.80833 0.0
O987 O 0.64554 0.74901 0.86519 0.0
O988 O 0.64201 0.72181 0.84223 0.0
N989 N 0.5505 0.72382 0.82531 0.0
C990 C 0.5342 0.72961 0.83894 0.0
C991 C 0.51639 0.71582 0.84158 0.0
C992 C 0.51517 0.69658 0.82962 0.0
C993 C 0.53157 0.69151 0.81487 0.0
C994 C 0.54891 0.70591 0.81292 0.0
H995 H 0.53488 0.74455 0.84791 0.0
O996 O 0.6064 0.72069 0.87002 0.0
O997 O 0.59424 0.72629 0.83691 0.0
O998 O 0.59712 0.76532 0.86082 0.0
O999 O 0.56876 0.76335 0.83782 0.0
C1000 C 0.53119 0.67295 0.80171 0.0
C1001 C 0.54783 0.66935 0.78655 0.0
H1002 H 0.5822 0.66833 0.75869 0.0
H1003 H 0.61062 0.69654 0.75646 0.0
H1004 H 0.50362 0.72008 0.85274 0.0
H1005 H 0.50138 0.686 0.83156 0.0
H1006 H 0.51808 0.66143 0.80298 0.0
H1007 H 0.54733 0.65506 0.77648 0.0
Mn1008 Mn 0.00767 0.13141 0.89996 0.0
Mn1009 Mn 0.00885 0.17484 0.93313 0.0
C1010 C 0.03305 0.15781 0.894 0.0
C1011 C 0.01717 0.09554 0.89389 0.0
C1012 C 0.97824 0.17127 0.89514 0.0
O1013 O 0.98775 0.12275 0.92418 0.0
O1014 O 0.99008 0.15179 0.94562 0.0
C1015 C 0.03322 0.15298 0.96794 0.0
N1016 N 0.03136 0.16952 0.95356 0.0
C1017 C 0.06504 0.18495 0.96527 0.0
C1018 C 0.06727 0.16815 0.9803 0.0
C1019 C 0.05132 0.15206 0.98158 0.0
C1020 C 0.04679 0.18486 0.95192 0.0
H1021 H 0.02102 0.14056 0.96894 0.0
C1022 C 0.98255 0.13309 0.9411 0.0
O1023 O 0.00065 0.10415 0.88423 0.0
O1024 O 0.02781 0.10765 0.90726 0.0
N1025 N 0.02574 0.19914 0.92425 0.0
C1026 C 0.01996 0.21545 0.91061 0.0
C1027 C 0.03373 0.23327 0.90801 0.0
C1028 C 0.05295 0.23451 0.92001 0.0
C1029 C 0.05801 0.2181 0.93476 0.0
C1030 C 0.04363 0.20075 0.93667 0.0
H1031 H 0.00503 0.21476 0.90162 0.0
O1032 O 0.02901 0.14329 0.8795 0.0
O1033 O 0.02332 0.15542 0.91261 0.0
O1034 O 0.98436 0.15255 0.88861 0.0
O1035 O 0.98624 0.18087 0.91166 0.0
C1036 C 0.07655 0.21849 0.94796 0.0
C1037 C 0.08013 0.20185 0.96311 0.0
H1038 H 0.08114 0.16746 0.99094 0.0
H1039 H 0.05295 0.13901 0.9931 0.0
H1040 H 0.02948 0.24604 0.89686 0.0
H1041 H 0.06351 0.24831 0.91811 0.0
H1042 H 0.08805 0.23161 0.94672 0.0
H1043 H 0.0944 0.20236 0.97321 0.0
Mn1044 Mn 0.6183 0.25795 0.65029 0.0
Mn1045 Mn 0.57482 0.25907 0.68339 0.0
C1046 C 0.59189 0.28331 0.64431 0.0
C1047 C 0.65417 0.26745 0.64424 0.0
C1048 C 0.57847 0.2285 0.64539 0.0
O1049 O 0.62694 0.23803 0.67451 0.0
O1050 O 0.59786 0.2403 0.69589 0.0
C1051 C 0.5966 0.28342 0.71826 0.0
N1052 N 0.58009 0.28157 0.70385 0.0
C1053 C 0.56462 0.31523 0.71556 0.0
C1054 C 0.58139 0.31745 0.73063 0.0
C1055 C 0.59749 0.30151 0.73193 0.0
C1056 C 0.56475 0.29699 0.7022 0.0
H1057 H 0.60902 0.27122 0.71928 0.0
C1058 C 0.61658 0.23279 0.6914 0.0
O1059 O 0.64556 0.25093 0.63458 0.0
O1060 O 0.64205 0.27809 0.6576 0.0
N1061 N 0.55052 0.27595 0.67449 0.0
C1062 C 0.53423 0.27018 0.66082 0.0
C1063 C 0.51641 0.28395 0.6582 0.0
C1064 C 0.51514 0.30315 0.6702 0.0
C1065 C 0.53153 0.30821 0.68499 0.0
C1066 C 0.54888 0.29383 0.68692 0.0
H1067 H 0.53494 0.25525 0.65183 0.0
O1068 O 0.60644 0.27928 0.62983 0.0
O1069 O 0.59427 0.27358 0.66292 0.0
O1070 O 0.5972 0.23463 0.6389 0.0
O1071 O 0.56883 0.23648 0.66189 0.0
C1072 C 0.5311 0.32673 0.6982 0.0
C1073 C 0.54772 0.33031 0.71338 0.0
H1074 H 0.58205 0.33131 0.74129 0.0
H1075 H 0.61051 0.30313 0.74348 0.0
H1076 H 0.50366 0.27969 0.64702 0.0
H1077 H 0.50134 0.31371 0.66829 0.0
H1078 H 0.51798 0.33824 0.69694 0.0
H1079 H 0.54718 0.34458 0.7235 0.0
Mn1080 Mn 0.49212 0.86838 0.39993 0.0
Mn1081 Mn 0.49089 0.82498 0.43313 0.0
C1082 C 0.46671 0.84201 0.39399 0.0
C1083 C 0.48268 0.90427 0.39383 0.0
C1084 C 0.5215 0.82849 0.39514 0.0
O1085 O 0.51206 0.87703 0.42413 0.0
O1086 O 0.50968 0.84802 0.4456 0.0
C1087 C 0.46653 0.8469 0.46791 0.0
N1088 N 0.46838 0.83035 0.45354 0.0
C1089 C 0.43467 0.81497 0.46526 0.0
C1090 C 0.43246 0.83178 0.48027 0.0
C1091 C 0.44843 0.84785 0.48155 0.0
C1092 C 0.45293 0.81502 0.45191 0.0
H1093 H 0.47875 0.8593 0.46891 0.0
C1094 C 0.51724 0.86671 0.44106 0.0
O1095 O 0.49918 0.89562 0.38417 0.0
O1096 O 0.47202 0.89218 0.4072 0.0
N1097 N 0.47397 0.80069 0.42426 0.0
C1098 C 0.47974 0.78437 0.41064 0.0
C1099 C 0.46594 0.76656 0.40805 0.0
C1100 C 0.44672 0.76535 0.42003 0.0
C1101 C 0.44167 0.78178 0.43477 0.0
C1102 C 0.45608 0.79911 0.43668 0.0
H1103 H 0.49467 0.78503 0.40165 0.0
O1104 O 0.47076 0.85652 0.37948 0.0
O1105 O 0.47644 0.84441 0.41259 0.0
O1106 O 0.51541 0.8472 0.38858 0.0
O1107 O 0.5135 0.81891 0.41166 0.0
C1108 C 0.42313 0.78142 0.44796 0.0
C1109 C 0.41956 0.79808 0.4631 0.0
H1110 H 0.41859 0.83249 0.49091 0.0
H1111 H 0.44681 0.86091 0.49306 0.0
H1112 H 0.47018 0.75377 0.3969 0.0
H1113 H 0.43613 0.75157 0.41813 0.0
H1114 H 0.41161 0.76832 0.44673 0.0
H1115 H 0.40528 0.7976 0.4732 0.0
Mn1116 Mn 0.8812 0.74207 0.14991 0.0
Mn1117 Mn 0.92456 0.74073 0.18315 0.0
C1118 C 0.90754 0.71664 0.14396 0.0
C1119 C 0.8453 0.73266 0.14378 0.0
C1120 C 0.92115 0.7714 0.14521 0.0
O1121 O 0.87255 0.76199 0.17413 0.0
O1122 O 0.90155 0.75954 0.19561 0.0
C1123 C 0.90255 0.71636 0.21787 0.0
N1124 N 0.91913 0.7182 0.20353 0.0
C1125 C 0.9344 0.68443 0.21519 0.0
C1126 C 0.91756 0.68222 0.23018 0.0
C1127 C 0.90153 0.69823 0.23147 0.0
C1128 C 0.93441 0.70271 0.20189 0.0
H1129 H 0.89017 0.72861 0.21887 0.0
C1130 C 0.88288 0.76714 0.19107 0.0
O1131 O 0.85397 0.74917 0.13414 0.0
O1132 O 0.85738 0.72198 0.15715 0.0
N1133 N 0.94884 0.72378 0.1743 0.0
C1134 C 0.96521 0.72955 0.16074 0.0
C1135 C 0.983 0.71572 0.15815 0.0
C1136 C 0.98413 0.69646 0.17009 0.0
C1137 C 0.96766 0.69141 0.18478 0.0
C1138 C 0.95035 0.70586 0.18668 0.0
H1139 H 0.96461 0.7445 0.1518 0.0
O1140 O 0.89305 0.72072 0.12945 0.0
O1141 O 0.90514 0.72634 0.16257 0.0
O1142 O 0.90243 0.76534 0.13863 0.0
O1143 O 0.9307 0.76335 0.16172 0.0
C1144 C 0.96795 0.67284 0.19793 0.0
C1145 C 0.95125 0.66928 0.21303 0.0
H1146 H 0.91679 0.66833 0.24078 0.0
H1147 H 0.88844 0.69662 0.24295 0.0
H1148 H 0.99582 0.71996 0.14705 0.0
H1149 H 0.99789 0.68584 0.16818 0.0
H1150 H 0.98103 0.66129 0.19669 0.0
H1151 H 0.95168 0.65498 0.2231 0.0
Mn1152 Mn 0.59931 0.00769 0.86805 0.0
Mn1153 Mn 0.56624 0.00887 0.82455 0.0
C1154 C 0.60535 0.03304 0.84165 0.0
C1155 C 0.60536 0.01717 0.90394 0.0
C1156 C 0.60418 0.97823 0.82822 0.0
O1157 O 0.57506 0.9878 0.87667 0.0
O1158 O 0.55369 0.99012 0.84758 0.0
C1159 C 0.53138 0.03327 0.84631 0.0
N1160 N 0.54581 0.03139 0.82981 0.0
C1161 C 0.53414 0.06506 0.81432 0.0
C1162 C 0.51906 0.0673 0.83107 0.0
C1163 C 0.51773 0.05137 0.84717 0.0
C1164 C 0.54749 0.04681 0.81446 0.0
H1165 H 0.53034 0.02107 0.85873 0.0
C1166 C 0.55816 0.98259 0.8663 0.0
O1167 O 0.615 0.00063 0.89532 0.0
O1168 O 0.59203 0.02784 0.89181 0.0
N1169 N 0.57519 0.02574 0.80025 0.0
C1170 C 0.58887 0.01994 0.78399 0.0
C1171 C 0.59152 0.03371 0.76616 0.0
C1172 C 0.57953 0.05292 0.76488 0.0
C1173 C 0.56473 0.058 0.78125 0.0
C1174 C 0.56278 0.04363 0.7986 0.0
H1175 H 0.59785 0.00502 0.78471 0.0
O1176 O 0.61982 0.02898 0.8562 0.0
O1177 O 0.58672 0.02334 0.84402 0.0
O1178 O 0.61068 0.98435 0.84695 0.0
O1179 O 0.5877 0.98624 0.81858 0.0
C1180 C 0.55154 0.07654 0.7808 0.0
C1181 C 0.53634 0.08014 0.79741 0.0
H1182 H 0.50841 0.08117 0.83172 0.0
H1183 H 0.50618 0.05301 0.86019 0.0
H1184 H 0.6027 0.02944 0.75342 0.0
H1185 H 0.58146 0.06348 0.75108 0.0
H1186 H 0.55282 0.08803 0.76768 0.0
H1187 H 0.52624 0.09441 0.79686 0.0
Mn1188 Mn 0.74193 0.84953 0.61834 0.0
Mn1189 Mn 0.74067 0.81638 0.5749 0.0
C1190 C 0.71655 0.85554 0.59196 0.0
C1191 C 0.73249 0.85561 0.65423 0.0
C1192 C 0.77133 0.85432 0.57845 0.0
O1193 O 0.76183 0.82529 0.62697 0.0
O1194 O 0.75945 0.80387 0.59792 0.0
C1195 C 0.71627 0.78161 0.5968 0.0
N1196 N 0.71813 0.79598 0.58026 0.0
C1197 C 0.68439 0.78434 0.5649 0.0
C1198 C 0.68217 0.76932 0.5817 0.0
C1199 C 0.69815 0.768 0.59776 0.0
C1200 C 0.70268 0.79765 0.56495 0.0
H1201 H 0.7285 0.78058 0.6092 0.0
C1202 C 0.76701 0.80837 0.61662 0.0
O1203 O 0.74902 0.86525 0.64559 0.0
O1204 O 0.72181 0.84227 0.64212 0.0
N1205 N 0.72376 0.82528 0.55062 0.0
C1206 C 0.72955 0.83888 0.53429 0.0
C1207 C 0.71575 0.8415 0.51648 0.0
C1208 C 0.6965 0.82955 0.51529 0.0
C1209 C 0.69143 0.81483 0.53172 0.0
C1210 C 0.70584 0.81289 0.54905 0.0
H1211 H 0.7445 0.84783 0.53494 0.0
O1212 O 0.72061 0.87002 0.60649 0.0
O1213 O 0.72624 0.83691 0.59434 0.0
O1214 O 0.76524 0.86085 0.59717 0.0
O1215 O 0.7633 0.83782 0.56884 0.0
C1216 C 0.67286 0.80167 0.53137 0.0
C1217 C 0.66928 0.78653 0.54802 0.0
H1218 H 0.66828 0.7587 0.58242 0.0
H1219 H 0.69652 0.75649 0.61081 0.0
H1220 H 0.72001 0.85263 0.5037 0.0
H1221 H 0.68591 0.83147 0.50151 0.0
H1222 H 0.66133 0.80293 0.51827 0.0
H1223 H 0.65498 0.77646 0.54755 0.0
Mn1224 Mn 0.90027 0.9918 0.36849 0.0
Mn1225 Mn 0.93338 0.99061 0.32501 0.0
C1226 C 0.89432 0.96636 0.34215 0.0
C1227 C 0.89423 0.98239 0.40439 0.0
C1228 C 0.89534 0.02115 0.32858 0.0
O1229 O 0.92445 0.01179 0.37707 0.0
O1230 O 0.94587 0.00942 0.34802 0.0
C1231 C 0.96825 0.96632 0.34685 0.0
N1232 N 0.95384 0.96813 0.33034 0.0
C1233 C 0.96556 0.93443 0.31495 0.0
C1234 C 0.98062 0.93225 0.33172 0.0
C1235 C 0.98192 0.94824 0.34778 0.0
C1236 C 0.95219 0.95267 0.31503 0.0
H1237 H 0.96927 0.97855 0.35924 0.0
C1238 C 0.94136 0.01699 0.36671 0.0
O1239 O 0.88454 0.99887 0.39574 0.0
O1240 O 0.90761 0.97174 0.3923 0.0
N1241 N 0.92448 0.97367 0.30074 0.0
C1242 C 0.91084 0.97942 0.28443 0.0
C1243 C 0.90822 0.96562 0.26664 0.0
C1244 C 0.92022 0.9464 0.26542 0.0
C1245 C 0.93499 0.94137 0.28183 0.0
C1246 C 0.93691 0.95579 0.29915 0.0
H1247 H 0.90185 0.99435 0.2851 0.0
O1248 O 0.87984 0.9704 0.35669 0.0
O1249 O 0.91291 0.97613 0.3445 0.0
O1250 O 0.88884 0.01505 0.34731 0.0
O1251 O 0.91186 0.01318 0.31898 0.0
C1252 C 0.94821 0.92285 0.28145 0.0
C1253 C 0.96339 0.91931 0.29808 0.0
H1254 H 0.99129 0.9184 0.33242 0.0
H1255 H 0.99347 0.94664 0.36081 0.0
H1256 H 0.89706 0.96985 0.25387 0.0
H1257 H 0.91831 0.93581 0.25165 0.0
H1258 H 0.94696 0.91132 0.26835 0.0
H1259 H 0.97351 0.90505 0.29758 0.0
Mn1260 Mn 0.75754 0.14938 0.11839 0.0
Mn1261 Mn 0.75888 0.18258 0.075 0.0
C1262 C 0.78296 0.14338 0.09204 0.0
C1263 C 0.76694 0.14329 0.1543 0.0
C1264 C 0.72818 0.14467 0.07848 0.0
O1265 O 0.73765 0.17364 0.12703 0.0
O1266 O 0.7401 0.19509 0.09802 0.0
C1267 C 0.78331 0.21729 0.09697 0.0
N1268 N 0.78143 0.20295 0.0804 0.0
C1269 C 0.81517 0.2146 0.06505 0.0
C1270 C 0.81741 0.22959 0.08188 0.0
C1271 C 0.80144 0.23088 0.09795 0.0
C1272 C 0.79688 0.2013 0.06508 0.0
H1273 H 0.77108 0.2183 0.10937 0.0
C1274 C 0.73251 0.19058 0.1167 0.0
O1275 O 0.75042 0.13365 0.14563 0.0
O1276 O 0.77764 0.15662 0.1422 0.0
N1277 N 0.7758 0.17369 0.05072 0.0
C1278 C 0.77002 0.16009 0.03438 0.0
C1279 C 0.78382 0.1575 0.01657 0.0
C1280 C 0.80306 0.16946 0.01538 0.0
C1281 C 0.80813 0.18417 0.03183 0.0
C1282 C 0.79371 0.18609 0.04916 0.0
H1283 H 0.75508 0.15113 0.03504 0.0
O1284 O 0.77885 0.12888 0.10654 0.0
O1285 O 0.77327 0.16201 0.09443 0.0
O1286 O 0.73424 0.1381 0.0972 0.0
O1287 O 0.73624 0.16117 0.0689 0.0
C1288 C 0.82669 0.19733 0.03149 0.0
C1289 C 0.83029 0.21244 0.04817 0.0
H1290 H 0.83131 0.2402 0.08262 0.0
H1291 H 0.80308 0.24237 0.11103 0.0
H1292 H 0.77956 0.14638 0.00378 0.0
H1293 H 0.81364 0.16757 0.0016 0.0
H1294 H 0.83822 0.19608 0.01839 0.0
H1295 H 0.84459 0.2225 0.04771 0.0
Mn1296 Mn 0.59984 0.99218 0.63121 0.0
Mn1297 Mn 0.56661 0.99099 0.67459 0.0
C1298 C 0.60576 0.96679 0.6576 0.0
C1299 C 0.60595 0.98271 0.59533 0.0
C1300 C 0.6046 0.0216 0.67107 0.0
O1301 O 0.57565 0.01212 0.62252 0.0
O1302 O 0.55416 0.00976 0.65153 0.0
C1303 C 0.53184 0.96662 0.65267 0.0
N1304 N 0.5462 0.96848 0.66923 0.0
C1305 C 0.53445 0.93481 0.68465 0.0
C1306 C 0.51944 0.93258 0.66783 0.0
C1307 C 0.51819 0.94853 0.65173 0.0
C1308 C 0.5478 0.95306 0.68458 0.0
H1309 H 0.53086 0.97883 0.64025 0.0
C1310 C 0.55871 0.01732 0.63284 0.0
O1311 O 0.61562 0.99922 0.60397 0.0
O1312 O 0.59257 0.97206 0.60742 0.0
N1313 N 0.57546 0.97409 0.6989 0.0
C1314 C 0.58908 0.97987 0.71522 0.0
C1315 C 0.59165 0.9661 0.73305 0.0
C1316 C 0.57963 0.94689 0.73428 0.0
C1317 C 0.56491 0.94183 0.71785 0.0
C1318 C 0.56303 0.95622 0.70049 0.0
H1319 H 0.59808 0.99479 0.71454 0.0
O1320 O 0.62028 0.97083 0.6431 0.0
O1321 O 0.58716 0.97652 0.65518 0.0
O1322 O 0.61117 0.01549 0.65237 0.0
O1323 O 0.58808 0.0136 0.68065 0.0
C1324 C 0.5517 0.92331 0.71822 0.0
C1325 C 0.53657 0.91972 0.70156 0.0
H1326 H 0.50879 0.91872 0.66712 0.0
H1327 H 0.50669 0.9469 0.63866 0.0
H1328 H 0.60279 0.97034 0.74584 0.0
H1329 H 0.5815 0.93633 0.74808 0.0
H1330 H 0.55291 0.9118 0.73135 0.0
H1331 H 0.52646 0.90545 0.70205 0.0
Mn1332 Mn 0.75776 0.84945 0.38136 0.0
Mn1333 Mn 0.75897 0.81629 0.42479 0.0
C1334 C 0.78317 0.85541 0.40772 0.0
C1335 C 0.76719 0.85554 0.34547 0.0
C1336 C 0.72837 0.85429 0.42124 0.0
O1337 O 0.73782 0.82524 0.37272 0.0
O1338 O 0.74017 0.80381 0.40176 0.0
C1339 C 0.78331 0.78148 0.40291 0.0
N1340 N 0.78147 0.79586 0.41945 0.0
C1341 C 0.81517 0.78416 0.43483 0.0
C1342 C 0.81738 0.76913 0.41803 0.0
C1343 C 0.8014 0.76783 0.40197 0.0
C1344 C 0.79692 0.79751 0.43477 0.0
H1345 H 0.77108 0.78047 0.39051 0.0
C1346 C 0.73262 0.80833 0.38307 0.0
O1347 O 0.75068 0.8652 0.35412 0.0
O1348 O 0.77786 0.84217 0.35756 0.0
N1349 N 0.77588 0.82517 0.44908 0.0
C1350 C 0.77012 0.8388 0.46539 0.0
C1351 C 0.78392 0.84141 0.4832 0.0
C1352 C 0.80314 0.82942 0.48441 0.0
C1353 C 0.80819 0.81467 0.46799 0.0
C1354 C 0.79378 0.81276 0.45066 0.0
H1355 H 0.75519 0.84779 0.46473 0.0
O1356 O 0.77911 0.8699 0.3932 0.0
O1357 O 0.77343 0.8368 0.40534 0.0
O1358 O 0.73447 0.86081 0.40252 0.0
O1359 O 0.73637 0.83778 0.43084 0.0
C1360 C 0.82673 0.80148 0.46836 0.0
C1361 C 0.83029 0.78633 0.45171 0.0
H1362 H 0.83125 0.75848 0.41733 0.0
H1363 H 0.80302 0.75631 0.38892 0.0
H1364 H 0.77968 0.85256 0.49598 0.0
H1365 H 0.81373 0.83133 0.49819 0.0
H1366 H 0.83825 0.80273 0.48146 0.0
H1367 H 0.84457 0.77622 0.4522 0.0
Mn1368 Mn 0.90015 0.0077 0.13142 0.0
Mn1369 Mn 0.93327 0.00901 0.17488 0.0
C1370 C 0.89414 0.03314 0.15773 0.0
C1371 C 0.89412 0.01704 0.09549 0.0
C1372 C 0.8953 0.97838 0.17136 0.0
O1373 O 0.92438 0.98775 0.12286 0.0
O1374 O 0.94579 0.9902 0.1519 0.0
C1375 C 0.96807 0.03337 0.15299 0.0
N1376 N 0.95367 0.03154 0.16952 0.0
C1377 C 0.9653 0.06529 0.18485 0.0
C1378 C 0.98035 0.06749 0.16807 0.0
C1379 C 0.98169 0.05149 0.15203 0.0
C1380 C 0.95199 0.04701 0.18481 0.0
H1381 H 0.96911 0.02112 0.14062 0.0
C1382 C 0.9413 0.98261 0.13322 0.0
O1383 O 0.88445 0.00055 0.10417 0.0
O1384 O 0.90745 0.02774 0.10758 0.0
N1385 N 0.92435 0.02596 0.19914 0.0
C1386 C 0.91074 0.02018 0.21547 0.0
C1387 C 0.90811 0.03399 0.23326 0.0
C1388 C 0.92005 0.05325 0.23444 0.0
C1389 C 0.93478 0.05831 0.21801 0.0
C1390 C 0.93673 0.04387 0.2007 0.0
H1391 H 0.90181 0.00522 0.21484 0.0
O1392 O 0.87967 0.02907 0.14319 0.0
O1393 O 0.91276 0.02342 0.15539 0.0
O1394 O 0.88878 0.98445 0.15262 0.0
O1395 O 0.9118 0.9864 0.18095 0.0
C1396 C 0.94794 0.07687 0.21835 0.0
C1397 C 0.9631 0.08043 0.20171 0.0
H1398 H 0.99097 0.08137 0.16734 0.0
H1399 H 0.99321 0.05309 0.13899 0.0
H1400 H 0.89698 0.02974 0.24605 0.0
H1401 H 0.91812 0.06385 0.2482 0.0
H1402 H 0.94667 0.08841 0.23144 0.0
H1403 H 0.97318 0.09472 0.20218 0.0
Mn1404 Mn 0.74207 0.14994 0.88145 0.0
Mn1405 Mn 0.74092 0.18302 0.92495 0.0
C1406 C 0.71671 0.14393 0.90785 0.0
C1407 C 0.73256 0.14392 0.84557 0.0
C1408 C 0.77151 0.14504 0.92129 0.0
O1409 O 0.76199 0.17417 0.87283 0.0
O1410 O 0.75967 0.19555 0.90191 0.0
C1411 C 0.71654 0.21789 0.90318 0.0
N1412 N 0.71841 0.20346 0.91968 0.0
C1413 C 0.68476 0.21518 0.93518 0.0
C1414 C 0.68253 0.23025 0.91842 0.0
C1415 C 0.69846 0.23155 0.90231 0.0
C1416 C 0.703 0.20181 0.93504 0.0
H1417 H 0.72874 0.21891 0.89075 0.0
C1418 C 0.76719 0.19107 0.88319 0.0
O1419 O 0.74909 0.13425 0.85417 0.0
O1420 O 0.72192 0.15726 0.85771 0.0
N1421 N 0.72404 0.17409 0.94924 0.0
C1422 C 0.72982 0.1604 0.96551 0.0
C1423 C 0.71606 0.15777 0.98334 0.0
C1424 C 0.69686 0.16979 0.98463 0.0
C1425 C 0.6918 0.18459 0.96826 0.0
C1426 C 0.70617 0.18652 0.9509 0.0
H1427 H 0.74473 0.15139 0.96478 0.0
O1428 O 0.72075 0.12945 0.8933 0.0
O1429 O 0.72643 0.16254 0.90548 0.0
O1430 O 0.7654 0.13854 0.90256 0.0
O1431 O 0.76352 0.16153 0.93092 0.0
C1432 C 0.67328 0.1978 0.9687 0.0
C1433 C 0.66969 0.213 0.9521 0.0
H1434 H 0.66867 0.24091 0.91777 0.0
H1435 H 0.69683 0.2431 0.88929 0.0
H1436 H 0.72031 0.14658 0.99607 0.0
H1437 H 0.68631 0.16787 0.99843 0.0
H1438 H 0.66178 0.19654 0.98183 0.0
H1439 H 0.65543 0.22312 0.95265 0.0
Mn1440 Mn 0.86846 0.59971 0.00753 0.0
Mn1441 Mn 0.8251 0.56645 0.00881 0.0
C1442 C 0.84209 0.60564 0.03294 0.0
C1443 C 0.90435 0.60584 0.01696 0.0
C1444 C 0.82854 0.60442 0.97816 0.0
O1445 O 0.87713 0.5755 0.98761 0.0
O1446 O 0.84814 0.554 0.99001 0.0
C1447 C 0.84709 0.53172 0.03317 0.0
N1448 N 0.83052 0.54606 0.03133 0.0
C1449 C 0.81519 0.53437 0.06507 0.0
C1450 C 0.83203 0.51938 0.06728 0.0
C1451 C 0.84809 0.5181 0.05129 0.0
C1452 C 0.81521 0.54769 0.04679 0.0
H1453 H 0.85948 0.53072 0.02094 0.0
C1454 C 0.86682 0.55855 0.98245 0.0
O1455 O 0.89568 0.61549 0.00045 0.0
O1456 O 0.89227 0.59247 0.02763 0.0
N1457 N 0.80081 0.57529 0.02573 0.0
C1458 C 0.78444 0.58887 0.01996 0.0
C1459 C 0.76664 0.59145 0.03377 0.0
C1460 C 0.76549 0.57949 0.05302 0.0
C1461 C 0.78195 0.56479 0.05807 0.0
C1462 C 0.79927 0.5629 0.04365 0.0
H1463 H 0.78507 0.59782 0.00502 0.0
O1464 O 0.85659 0.62016 0.02887 0.0
O1465 O 0.84451 0.58703 0.02323 0.0
O1466 O 0.84725 0.611 0.98424 0.0
O1467 O 0.81899 0.58789 0.98619 0.0
C1468 C 0.78164 0.55162 0.07663 0.0
C1469 C 0.79832 0.53652 0.0802 0.0
H1470 H 0.83278 0.50875 0.08116 0.0
H1471 H 0.86116 0.50662 0.0529 0.0
H1472 H 0.75383 0.60255 0.02953 0.0
H1473 H 0.75171 0.58138 0.06362 0.0
H1474 H 0.76854 0.55285 0.08816 0.0
H1475 H 0.79787 0.52643 0.09449 0.0
Mn1476 Mn 0.36836 0.90012 0.99207 0.0
Mn1477 Mn 0.32494 0.93329 0.99084 0.0
C1478 C 0.34197 0.89413 0.9667 0.0
C1479 C 0.40425 0.89404 0.98257 0.0
C1480 C 0.3285 0.89534 0.0215 0.0
O1481 O 0.37702 0.92435 0.01197 0.0
O1482 O 0.34798 0.94579 0.0096 0.0
C1483 C 0.34682 0.96806 0.96644 0.0
N1484 N 0.33028 0.95369 0.96831 0.0
C1485 C 0.31487 0.96536 0.93461 0.0
C1486 C 0.33167 0.98038 0.93237 0.0
C1487 C 0.34776 0.98169 0.94833 0.0
C1488 C 0.31494 0.95204 0.95288 0.0
H1489 H 0.35923 0.96908 0.97865 0.0
C1490 C 0.36668 0.94128 0.01715 0.0
O1491 O 0.39563 0.88439 0.9991 0.0
O1492 O 0.39213 0.90739 0.97192 0.0
N1493 N 0.30063 0.9244 0.97396 0.0
C1494 C 0.28431 0.91079 0.97975 0.0
C1495 C 0.26649 0.90819 0.96598 0.0
C1496 C 0.26527 0.92015 0.94674 0.0
C1497 C 0.2817 0.93488 0.94166 0.0
C1498 C 0.29904 0.9368 0.95605 0.0
H1499 H 0.28498 0.90183 0.9947 0.0
O1500 O 0.35649 0.87964 0.97075 0.0
O1501 O 0.34436 0.91275 0.9764 0.0
O1502 O 0.34722 0.8888 0.0154 0.0
O1503 O 0.3189 0.91184 0.01347 0.0
C1504 C 0.28132 0.94805 0.92311 0.0
C1505 C 0.29797 0.96319 0.91951 0.0
H1506 H 0.33237 0.99101 0.91849 0.0
H1507 H 0.36081 0.9932 0.94669 0.0
H1508 H 0.25371 0.89705 0.97025 0.0
H1509 H 0.25148 0.91824 0.93617 0.0
H1510 H 0.2682 0.9468 0.9116 0.0
H1511 H 0.29748 0.97328 0.90522 0.0
Mn1512 Mn 0.84974 0.61815 0.7419 0.0
Mn1513 Mn 0.81667 0.57464 0.74078 0.0
C1514 C 0.85574 0.59174 0.71654 0.0
C1515 C 0.85574 0.65404 0.73243 0.0
C1516 C 0.85468 0.57831 0.77133 0.0
O1517 O 0.82552 0.62677 0.76184 0.0
O1518 O 0.80417 0.59767 0.75956 0.0
C1519 C 0.78177 0.59644 0.71646 0.0
N1520 N 0.79619 0.57993 0.7183 0.0
C1521 C 0.78443 0.56446 0.68466 0.0
C1522 C 0.76936 0.58122 0.68245 0.0
C1523 C 0.76808 0.59732 0.6984 0.0
C1524 C 0.79782 0.56458 0.70288 0.0
H1525 H 0.78077 0.60886 0.72867 0.0
C1526 C 0.80864 0.61639 0.76707 0.0
O1527 O 0.86543 0.64542 0.74894 0.0
O1528 O 0.84241 0.6419 0.72177 0.0
N1529 N 0.82556 0.55036 0.72387 0.0
C1530 C 0.83924 0.53407 0.72963 0.0
C1531 C 0.84184 0.51624 0.71586 0.0
C1532 C 0.82979 0.51497 0.69668 0.0
C1533 C 0.81501 0.53136 0.69163 0.0
C1534 C 0.81311 0.54872 0.70601 0.0
H1535 H 0.84826 0.53479 0.74454 0.0
O1536 O 0.87021 0.6063 0.72056 0.0
O1537 O 0.83713 0.59411 0.72627 0.0
O1538 O 0.86115 0.59705 0.76521 0.0
O1539 O 0.83819 0.56866 0.76335 0.0
C1540 C 0.80177 0.53093 0.67313 0.0
C1541 C 0.78658 0.54755 0.66957 0.0
H1542 H 0.75868 0.58188 0.66861 0.0
H1543 H 0.75653 0.61035 0.69679 0.0
H1544 H 0.85302 0.5035 0.7201 0.0
H1545 H 0.83169 0.50117 0.68612 0.0
H1546 H 0.803 0.5178 0.66163 0.0
H1547 H 0.77644 0.54701 0.65533 0.0
Mn1548 Mn 0.13134 0.09953 0.49212 0.0
Mn1549 Mn 0.17476 0.06636 0.49091 0.0
C1550 C 0.15768 0.10545 0.46669 0.0
C1551 C 0.09544 0.1056 0.48268 0.0
C1552 C 0.17126 0.10439 0.52146 0.0
O1553 O 0.12272 0.07536 0.51211 0.0
O1554 O 0.15174 0.0539 0.50974 0.0
C1555 C 0.15285 0.03152 0.46663 0.0
N1556 N 0.16939 0.0459 0.46844 0.0
C1557 C 0.18474 0.03417 0.43473 0.0
C1558 C 0.16794 0.01913 0.43255 0.0
C1559 C 0.15189 0.01785 0.44854 0.0
C1560 C 0.18469 0.04753 0.45297 0.0
H1561 H 0.14047 0.03051 0.47887 0.0
C1562 C 0.13306 0.05844 0.51731 0.0
O1563 O 0.10409 0.11529 0.49917 0.0
O1564 O 0.10753 0.09221 0.47205 0.0
N1565 N 0.19903 0.07521 0.47397 0.0
C1566 C 0.21536 0.08884 0.47971 0.0
C1567 C 0.23315 0.09144 0.46588 0.0
C1568 C 0.23433 0.07945 0.44666 0.0
C1569 C 0.21791 0.06469 0.44165 0.0
C1570 C 0.20059 0.06279 0.45608 0.0
H1571 H 0.21472 0.09783 0.49463 0.0
O1572 O 0.14316 0.11995 0.47073 0.0
O1573 O 0.15531 0.08686 0.47645 0.0
O1574 O 0.15253 0.11093 0.51538 0.0
O1575 O 0.18083 0.08786 0.51348 0.0
C1576 C 0.21825 0.05148 0.42312 0.0
C1577 C 0.2016 0.03633 0.41959 0.0
H1578 H 0.16722 0.00848 0.41869 0.0
H1579 H 0.13884 0.00633 0.44696 0.0
H1580 H 0.24594 0.10259 0.4701 0.0
H1581 H 0.2481 0.08136 0.43606 0.0
H1582 H 0.23134 0.05272 0.41158 0.0
H1583 H 0.20208 0.02621 0.40532 0.0
Mn1584 Mn 0.15021 0.88127 0.74214 0.0
Mn1585 Mn 0.18344 0.92465 0.74085 0.0
C1586 C 0.14428 0.90761 0.71669 0.0
C1587 C 0.1441 0.84537 0.73275 0.0
C1588 C 0.14546 0.92121 0.77148 0.0
O1589 O 0.1744 0.87264 0.76209 0.0
O1590 O 0.19591 0.90162 0.75965 0.0
C1591 C 0.2182 0.9027 0.71648 0.0
N1592 N 0.20383 0.91926 0.71833 0.0
C1593 C 0.2155 0.93459 0.68458 0.0
C1594 C 0.23052 0.91777 0.68237 0.0
C1595 C 0.23182 0.90172 0.69837 0.0
C1596 C 0.20218 0.93456 0.70286 0.0
H1597 H 0.21921 0.89032 0.72872 0.0
C1598 C 0.19135 0.88296 0.76724 0.0
O1599 O 0.13444 0.85405 0.74924 0.0
O1600 O 0.15748 0.85744 0.72207 0.0
N1601 N 0.17457 0.94894 0.72392 0.0
C1602 C 0.16098 0.96528 0.72969 0.0
C1603 C 0.15837 0.98308 0.71588 0.0
C1604 C 0.17032 0.98424 0.69662 0.0
C1605 C 0.18504 0.96779 0.69157 0.0
C1606 C 0.18696 0.95048 0.706 0.0
H1607 H 0.15203 0.96465 0.74464 0.0
O1608 O 0.12977 0.8931 0.72076 0.0
O1609 O 0.16289 0.90522 0.72643 0.0
O1610 O 0.13888 0.90249 0.7654 0.0
O1611 O 0.16199 0.93075 0.76347 0.0
C1612 C 0.1982 0.96812 0.67302 0.0
C1613 C 0.21333 0.95145 0.66945 0.0
H1614 H 0.24114 0.91704 0.66849 0.0
H1615 H 0.24332 0.88866 0.69675 0.0
H1616 H 0.14725 0.99588 0.72012 0.0
H1617 H 0.16841 0.99801 0.68602 0.0
H1618 H 0.19695 0.98121 0.66148 0.0
H1619 H 0.22341 0.95191 0.65516 0.0
Mn1620 Mn 0.63132 0.4003 0.50759 0.0
Mn1621 Mn 0.67476 0.43346 0.50869 0.0
C1622 C 0.65773 0.39438 0.53297 0.0
C1623 C 0.59545 0.39423 0.51709 0.0
C1624 C 0.67116 0.39543 0.47815 0.0
O1625 O 0.62266 0.42448 0.48763 0.0
O1626 O 0.6517 0.44591 0.48992 0.0
C1627 C 0.65292 0.46832 0.53301 0.0
N1628 N 0.66945 0.45392 0.53117 0.0
C1629 C 0.6849 0.46569 0.56483 0.0
C1630 C 0.66811 0.48073 0.56704 0.0
C1631 C 0.65201 0.482 0.55109 0.0
C1632 C 0.6848 0.45231 0.5466 0.0
H1633 H 0.6405 0.46931 0.52081 0.0
C1634 C 0.633 0.44139 0.4824 0.0
O1635 O 0.60408 0.38455 0.50058 0.0
O1636 O 0.60756 0.40761 0.52772 0.0
N1637 N 0.69907 0.4246 0.52559 0.0
C1638 C 0.71537 0.41094 0.51983 0.0
C1639 C 0.73319 0.40835 0.53361 0.0
C1640 C 0.73444 0.42038 0.55281 0.0
C1641 C 0.71803 0.43515 0.55785 0.0
C1642 C 0.70068 0.43704 0.54346 0.0
H1643 H 0.71467 0.40193 0.50492 0.0
O1644 O 0.6432 0.37988 0.52896 0.0
O1645 O 0.65533 0.41297 0.52321 0.0
O1646 O 0.65245 0.38891 0.48429 0.0
O1647 O 0.68078 0.41194 0.48612 0.0
C1648 C 0.71844 0.44838 0.57636 0.0
C1649 C 0.7018 0.46354 0.57992 0.0
H1650 H 0.66743 0.4914 0.58088 0.0
H1651 H 0.63897 0.49352 0.5527 0.0
H1652 H 0.74596 0.39718 0.52938 0.0
H1653 H 0.74824 0.41848 0.56337 0.0
H1654 H 0.73156 0.44715 0.58787 0.0
H1655 H 0.70232 0.47367 0.59418 0.0
Mn1656 Mn 0.84966 0.38148 0.75762 0.0
Mn1657 Mn 0.81665 0.42503 0.75885 0.0
C1658 C 0.85579 0.40789 0.78295 0.0
C1659 C 0.85567 0.3456 0.76713 0.0
C1660 C 0.85452 0.42128 0.72812 0.0
O1661 O 0.82535 0.37288 0.73779 0.0
O1662 O 0.80403 0.40201 0.74014 0.0
C1663 C 0.78183 0.40333 0.78335 0.0
N1664 N 0.79626 0.41982 0.78142 0.0
C1665 C 0.78466 0.43537 0.81508 0.0
C1666 C 0.76957 0.41863 0.81737 0.0
C1667 C 0.76821 0.4025 0.80147 0.0
C1668 C 0.79798 0.43519 0.7968 0.0
H1669 H 0.78076 0.39089 0.77117 0.0
C1670 C 0.80845 0.38328 0.73262 0.0
O1671 O 0.86529 0.35418 0.75056 0.0
O1672 O 0.84238 0.35776 0.77781 0.0
N1673 N 0.82566 0.44933 0.77568 0.0
C1674 C 0.83936 0.46556 0.76984 0.0
C1675 C 0.84204 0.48342 0.78356 0.0
C1676 C 0.83006 0.48475 0.80278 0.0
C1677 C 0.81526 0.4684 0.80791 0.0
C1678 C 0.81327 0.45102 0.79358 0.0
H1679 H 0.84833 0.4648 0.75491 0.0
O1680 O 0.87023 0.39332 0.77887 0.0
O1681 O 0.83714 0.40554 0.77329 0.0
O1682 O 0.861 0.40255 0.73424 0.0
O1683 O 0.83808 0.43096 0.73616 0.0
C1684 C 0.80209 0.46889 0.82646 0.0
C1685 C 0.78689 0.45231 0.83012 0.0
H1686 H 0.75895 0.41801 0.83126 0.0
H1687 H 0.75665 0.38949 0.80315 0.0
H1688 H 0.85323 0.49613 0.77926 0.0
H1689 H 0.83201 0.49858 0.8133 0.0
H1690 H 0.80339 0.48204 0.83793 0.0
H1691 H 0.77681 0.45289 0.8444 0.0
Mn1692 Mn 0.6501 0.61832 0.25751 0.0
Mn1693 Mn 0.68326 0.57489 0.25875 0.0
C1694 C 0.64413 0.59196 0.28292 0.0
C1695 C 0.64403 0.65422 0.26695 0.0
C1696 C 0.64527 0.57842 0.22814 0.0
O1697 O 0.6743 0.62695 0.23757 0.0
O1698 O 0.69575 0.59792 0.23996 0.0
C1699 C 0.71807 0.59678 0.2831 0.0
N1700 N 0.70368 0.58024 0.28126 0.0
C1701 C 0.71538 0.56485 0.31497 0.0
C1702 C 0.73041 0.58165 0.31718 0.0
C1703 C 0.73171 0.59771 0.3012 0.0
C1704 C 0.70203 0.56492 0.29671 0.0
H1705 H 0.71909 0.60917 0.27088 0.0
C1706 C 0.69123 0.61661 0.23239 0.0
O1707 O 0.63436 0.64558 0.25045 0.0
O1708 O 0.6574 0.64212 0.27761 0.0
N1709 N 0.67438 0.55061 0.27566 0.0
C1710 C 0.66075 0.53429 0.26989 0.0
C1711 C 0.65814 0.51648 0.28368 0.0
C1712 C 0.67012 0.51527 0.30292 0.0
C1713 C 0.68486 0.53169 0.30797 0.0
C1714 C 0.68678 0.54903 0.29356 0.0
H1715 H 0.65178 0.53495 0.25495 0.0
O1716 O 0.62964 0.60649 0.27887 0.0
O1717 O 0.66274 0.59434 0.27319 0.0
O1718 O 0.63873 0.59714 0.23423 0.0
O1719 O 0.66179 0.56884 0.23614 0.0
C1720 C 0.69805 0.53132 0.32651 0.0
C1721 C 0.71321 0.54797 0.33008 0.0
H1722 H 0.74106 0.58235 0.33105 0.0
H1723 H 0.74323 0.61076 0.30282 0.0
H1724 H 0.647 0.5037 0.27944 0.0
H1725 H 0.66821 0.50149 0.3135 0.0
H1726 H 0.69681 0.51822 0.33803 0.0
H1727 H 0.72331 0.54748 0.34435 0.0
Mn1728 Mn 0.49202 0.6312 0.90003 0.0
Mn1729 Mn 0.49077 0.67457 0.93326 0.0
C1730 C 0.46658 0.65754 0.89412 0.0
C1731 C 0.48262 0.59531 0.89389 0.0
C1732 C 0.52136 0.67113 0.89525 0.0
O1733 O 0.51198 0.62255 0.92421 0.0
O1734 O 0.50959 0.65155 0.9457 0.0
C1735 C 0.46646 0.65259 0.96804 0.0
N1736 N 0.46828 0.66916 0.95369 0.0
C1737 C 0.43454 0.68447 0.96541 0.0
C1738 C 0.43236 0.66764 0.98042 0.0
C1739 C 0.44836 0.6516 0.98169 0.0
C1740 C 0.4528 0.68446 0.95207 0.0
H1741 H 0.47871 0.64021 0.96903 0.0
C1742 C 0.51716 0.63287 0.94115 0.0
O1743 O 0.49912 0.60399 0.88424 0.0
O1744 O 0.47195 0.60737 0.90728 0.0
N1745 N 0.47381 0.69885 0.92443 0.0
C1746 C 0.47955 0.7152 0.91083 0.0
C1747 C 0.46572 0.73299 0.90825 0.0
C1748 C 0.44649 0.73414 0.92023 0.0
C1749 C 0.44147 0.71769 0.93496 0.0
C1750 C 0.45592 0.70038 0.93685 0.0
H1751 H 0.49448 0.71458 0.90185 0.0
O1752 O 0.47065 0.64305 0.8796 0.0
O1753 O 0.47633 0.65514 0.91272 0.0
O1754 O 0.51528 0.65241 0.8887 0.0
O1755 O 0.51335 0.68069 0.91178 0.0
C1756 C 0.42293 0.718 0.94815 0.0
C1757 C 0.4194 0.70132 0.96327 0.0
H1758 H 0.41849 0.66689 0.99106 0.0
H1759 H 0.44677 0.63853 0.99318 0.0
H1760 H 0.46994 0.74579 0.89712 0.0
H1761 H 0.43588 0.74791 0.91834 0.0
H1762 H 0.41138 0.73109 0.94692 0.0
H1763 H 0.40512 0.70177 0.97337 0.0
Mn1764 Mn 0.61845 0.24175 0.15012 0.0
Mn1765 Mn 0.57502 0.2406 0.18329 0.0
C1766 C 0.59205 0.21639 0.14417 0.0
C1767 C 0.65433 0.23222 0.14405 0.0
C1768 C 0.57858 0.27118 0.14528 0.0
O1769 O 0.62712 0.2617 0.17431 0.0
O1770 O 0.59807 0.25938 0.19574 0.0
C1771 C 0.59691 0.21625 0.2181 0.0
N1772 N 0.58037 0.2181 0.20372 0.0
C1773 C 0.56498 0.1844 0.21544 0.0
C1774 C 0.58178 0.18219 0.23046 0.0
C1775 C 0.59786 0.19816 0.23175 0.0
C1776 C 0.56504 0.20266 0.20209 0.0
H1777 H 0.60932 0.22847 0.2191 0.0
C1778 C 0.61677 0.26692 0.19122 0.0
O1779 O 0.64572 0.24875 0.13438 0.0
O1780 O 0.64221 0.22161 0.15743 0.0
N1781 N 0.55072 0.22369 0.17443 0.0
C1782 C 0.53439 0.22947 0.16082 0.0
C1783 C 0.51657 0.21568 0.15823 0.0
C1784 C 0.51537 0.19646 0.17021 0.0
C1785 C 0.5318 0.1914 0.18495 0.0
C1786 C 0.54914 0.2058 0.18685 0.0
H1787 H 0.53505 0.24441 0.15185 0.0
O1788 O 0.60658 0.2204 0.12967 0.0
O1789 O 0.59444 0.22612 0.16277 0.0
O1790 O 0.59731 0.26507 0.13875 0.0
O1791 O 0.56899 0.26319 0.1618 0.0
C1792 C 0.53143 0.17286 0.19814 0.0
C1793 C 0.54809 0.16929 0.21328 0.0
H1794 H 0.58249 0.16832 0.24111 0.0
H1795 H 0.61091 0.19654 0.24326 0.0
H1796 H 0.50378 0.21994 0.1471 0.0
H1797 H 0.50158 0.18588 0.16831 0.0
H1798 H 0.51832 0.16135 0.19691 0.0
H1799 H 0.5476 0.15502 0.22339 0.0
Mn1800 Mn 0.00746 0.36818 0.39984 0.0
Mn1801 Mn 0.00878 0.32475 0.43301 0.0
C1802 C 0.03287 0.34184 0.39383 0.0
C1803 C 0.01685 0.40408 0.39378 0.0
C1804 C 0.9781 0.32826 0.39508 0.0
O1805 O 0.98756 0.37679 0.42409 0.0
O1806 O 0.98998 0.34776 0.44552 0.0
C1807 C 0.03317 0.34669 0.46776 0.0
N1808 N 0.03132 0.33014 0.45339 0.0
C1809 C 0.06506 0.3148 0.46504 0.0
C1810 C 0.06728 0.33161 0.48006 0.0
C1811 C 0.05129 0.34766 0.48137 0.0
C1812 C 0.04678 0.31483 0.45173 0.0
H1813 H 0.02093 0.35908 0.46878 0.0
C1814 C 0.9824 0.36644 0.44101 0.0
O1815 O 0.00034 0.39543 0.38413 0.0
O1816 O 0.02755 0.39198 0.40711 0.0
N1817 N 0.02572 0.30049 0.4241 0.0
C1818 C 0.01995 0.28416 0.41048 0.0
C1819 C 0.03376 0.26637 0.40786 0.0
C1820 C 0.05301 0.26518 0.41983 0.0
C1821 C 0.05806 0.28162 0.43456 0.0
C1822 C 0.04363 0.29893 0.43649 0.0
H1823 H 0.00501 0.28481 0.40152 0.0
O1824 O 0.02878 0.35635 0.37934 0.0
O1825 O 0.02318 0.34421 0.41246 0.0
O1826 O 0.98416 0.34699 0.38853 0.0
O1827 O 0.98615 0.31867 0.41157 0.0
C1828 C 0.07662 0.28127 0.44772 0.0
C1829 C 0.08019 0.29793 0.46285 0.0
H1830 H 0.08117 0.33234 0.49067 0.0
H1831 H 0.05291 0.36072 0.49287 0.0
H1832 H 0.02952 0.25359 0.39673 0.0
H1833 H 0.0636 0.25141 0.41791 0.0
H1834 H 0.08816 0.26818 0.44646 0.0
H1835 H 0.09449 0.29747 0.47293 0.0
Mn1836 Mn 0.88123 0.75765 0.65008 0.0
Mn1837 Mn 0.9246 0.75891 0.68332 0.0
C1838 C 0.90757 0.78309 0.64418 0.0
C1839 C 0.84533 0.76704 0.64396 0.0
C1840 C 0.92118 0.72832 0.64532 0.0
O1841 O 0.87258 0.73768 0.67426 0.0
O1842 O 0.90158 0.74007 0.69574 0.0
C1843 C 0.90258 0.7832 0.71809 0.0
N1844 N 0.91916 0.7814 0.70375 0.0
C1845 C 0.93443 0.81514 0.71548 0.0
C1846 C 0.91759 0.81731 0.73048 0.0
C1847 C 0.90156 0.8013 0.73173 0.0
C1848 C 0.93444 0.79689 0.70214 0.0
H1849 H 0.89021 0.77095 0.71907 0.0
C1850 C 0.88291 0.73248 0.69119 0.0
O1851 O 0.85402 0.75056 0.6343 0.0
O1852 O 0.8574 0.77771 0.65735 0.0
N1853 N 0.94887 0.77588 0.67451 0.0
C1854 C 0.96525 0.77014 0.66094 0.0
C1855 C 0.98303 0.78398 0.65838 0.0
C1856 C 0.98416 0.80322 0.67036 0.0
C1857 C 0.96768 0.80823 0.68506 0.0
C1858 C 0.95038 0.79378 0.68693 0.0
H1859 H 0.96464 0.75521 0.65197 0.0
O1860 O 0.89308 0.77903 0.62966 0.0
O1861 O 0.90517 0.77335 0.66278 0.0
O1862 O 0.90245 0.73439 0.63875 0.0
O1863 O 0.93073 0.73634 0.66184 0.0
C1864 C 0.96797 0.82677 0.69825 0.0
C1865 C 0.95128 0.8303 0.71335 0.0
H1866 H 0.91682 0.83118 0.74111 0.0
H1867 H 0.88847 0.80288 0.74322 0.0
H1868 H 0.99586 0.77976 0.64728 0.0
H1869 H 0.99792 0.81383 0.66848 0.0
H1870 H 0.98105 0.83833 0.69703 0.0
H1871 H 0.95171 0.84458 0.72346 0.0
Mn1872 Mn 0.49202 0.36859 0.59964 0.0
Mn1873 Mn 0.49082 0.32516 0.56648 0.0
C1874 C 0.4666 0.34223 0.60558 0.0
C1875 C 0.48258 0.40449 0.60569 0.0
C1876 C 0.52138 0.32869 0.60451 0.0
O1877 O 0.51199 0.37721 0.57546 0.0
O1878 O 0.50962 0.34818 0.55401 0.0
C1879 C 0.4665 0.34705 0.53166 0.0
N1880 N 0.46834 0.33051 0.54604 0.0
C1881 C 0.43464 0.31512 0.5343 0.0
C1882 C 0.43244 0.33192 0.51927 0.0
C1883 C 0.44842 0.34799 0.518 0.0
C1884 C 0.45288 0.31518 0.54766 0.0
H1885 H 0.47872 0.35945 0.53066 0.0
C1886 C 0.51718 0.36687 0.55854 0.0
O1887 O 0.49907 0.39584 0.61538 0.0
O1888 O 0.47194 0.39239 0.59232 0.0
N1889 N 0.4739 0.30087 0.57535 0.0
C1890 C 0.47966 0.28455 0.58897 0.0
C1891 C 0.46587 0.26673 0.59156 0.0
C1892 C 0.44665 0.26552 0.57955 0.0
C1893 C 0.44161 0.28195 0.56481 0.0
C1894 C 0.45602 0.29929 0.56291 0.0
H1895 H 0.49458 0.28521 0.59796 0.0
O1896 O 0.47063 0.35676 0.62007 0.0
O1897 O 0.47635 0.34461 0.58698 0.0
O1898 O 0.51528 0.34742 0.61104 0.0
O1899 O 0.5134 0.31911 0.58798 0.0
C1900 C 0.42308 0.28158 0.5516 0.0
C1901 C 0.41953 0.29823 0.53645 0.0
H1902 H 0.41858 0.33263 0.50862 0.0
H1903 H 0.44681 0.36104 0.50648 0.0
H1904 H 0.4701 0.25395 0.6027 0.0
H1905 H 0.43607 0.25174 0.58145 0.0
H1906 H 0.41156 0.26848 0.55283 0.0
H1907 H 0.40526 0.29775 0.52634 0.0
Mn1908 Mn 0.88127 0.24206 0.84959 0.0
Mn1909 Mn 0.92467 0.24088 0.81639 0.0
C1910 C 0.90764 0.21664 0.85549 0.0
C1911 C 0.84538 0.2326 0.8557 0.0
C1912 C 0.92117 0.27143 0.85442 0.0
O1913 O 0.87262 0.26204 0.82542 0.0
O1914 O 0.90163 0.25968 0.80395 0.0
C1915 C 0.90277 0.21657 0.78156 0.0
N1916 N 0.91931 0.2184 0.79594 0.0
C1917 C 0.9347 0.18471 0.78418 0.0
C1918 C 0.91789 0.18252 0.76915 0.0
C1919 C 0.90182 0.1985 0.76788 0.0
C1920 C 0.93464 0.20295 0.79755 0.0
H1921 H 0.89037 0.2288 0.78057 0.0
C1922 C 0.88295 0.26725 0.8085 0.0
O1923 O 0.85404 0.24909 0.86537 0.0
O1924 O 0.85747 0.22197 0.8423 0.0
N1925 N 0.94897 0.22395 0.82523 0.0
C1926 C 0.9653 0.2297 0.83885 0.0
C1927 C 0.98311 0.2159 0.84143 0.0
C1928 C 0.98431 0.19669 0.82942 0.0
C1929 C 0.96788 0.19166 0.81468 0.0
C1930 C 0.95054 0.20607 0.81279 0.0
H1931 H 0.96464 0.24462 0.84785 0.0
O1932 O 0.89313 0.22067 0.87 0.0
O1933 O 0.90524 0.2264 0.8369 0.0
O1934 O 0.90245 0.26532 0.86097 0.0
O1935 O 0.93074 0.26345 0.83789 0.0
C1936 C 0.96824 0.17314 0.80146 0.0
C1937 C 0.95158 0.1696 0.78631 0.0
H1938 H 0.91719 0.16867 0.75848 0.0
H1939 H 0.88877 0.1969 0.75637 0.0
H1940 H 0.9959 0.22013 0.85257 0.0
H1941 H 0.99809 0.1861 0.83131 0.0
H1942 H 0.98135 0.16162 0.80268 0.0
H1943 H 0.95207 0.15534 0.77619 0.0
Mn1944 Mn 0.00765 0.63147 0.09957 0.0
Mn1945 Mn 0.00892 0.67494 0.06645 0.0
C1946 C 0.03302 0.65785 0.10562 0.0
C1947 C 0.01709 0.59558 0.10564 0.0
C1948 C 0.97822 0.67134 0.10436 0.0
O1949 O 0.98778 0.62285 0.0753 0.0
O1950 O 0.99017 0.65192 0.0539 0.0
C1951 C 0.03336 0.65309 0.03168 0.0
N1952 N 0.03148 0.66962 0.04607 0.0
C1953 C 0.0652 0.68504 0.03445 0.0
C1954 C 0.06745 0.66826 0.01941 0.0
C1955 C 0.05149 0.65218 0.01807 0.0
C1956 C 0.04691 0.68495 0.04776 0.0
H1957 H 0.02115 0.64069 0.03063 0.0
C1958 C 0.98262 0.63321 0.05838 0.0
O1959 O 0.00055 0.60421 0.11527 0.0
O1960 O 0.02778 0.6077 0.09232 0.0
N1961 N 0.02581 0.69922 0.0754 0.0
C1962 C 0.02001 0.71552 0.08904 0.0
C1963 C 0.03379 0.73333 0.09169 0.0
C1964 C 0.05304 0.73457 0.07973 0.0
C1965 C 0.05812 0.71817 0.06498 0.0
C1966 C 0.04373 0.70083 0.06302 0.0
H1967 H 0.00507 0.71483 0.09799 0.0
O1968 O 0.02894 0.64332 0.12009 0.0
O1969 O 0.02334 0.65548 0.08698 0.0
O1970 O 0.98431 0.65261 0.11088 0.0
O1971 O 0.98627 0.68096 0.08788 0.0
C1972 C 0.07668 0.71856 0.05182 0.0
C1973 C 0.08029 0.70193 0.03666 0.0
H1974 H 0.08134 0.66757 0.00879 0.0
H1975 H 0.05314 0.63914 0.00655 0.0
H1976 H 0.02952 0.74609 0.10284 0.0
H1977 H 0.06361 0.74836 0.08167 0.0
H1978 H 0.0882 0.73167 0.0531 0.0
H1979 H 0.09459 0.70244 0.02659 0.0
Mn1980 Mn 0.61841 0.7576 0.34953 0.0
Mn1981 Mn 0.57501 0.75891 0.31633 0.0
C1982 C 0.59207 0.78302 0.35551 0.0
C1983 C 0.65431 0.767 0.35565 0.0
C1984 C 0.57848 0.72824 0.35428 0.0
O1985 O 0.62704 0.73768 0.3253 0.0
O1986 O 0.59803 0.74011 0.30385 0.0
C1987 C 0.59697 0.78329 0.28159 0.0
N1988 N 0.58041 0.78144 0.29595 0.0
C1989 C 0.56509 0.8152 0.2843 0.0
C1990 C 0.58191 0.81741 0.26929 0.0
C1991 C 0.59795 0.80142 0.26798 0.0
C1992 C 0.56511 0.79691 0.29761 0.0
H1993 H 0.60935 0.77105 0.28057 0.0
C1994 C 0.61671 0.73252 0.30837 0.0
O1995 O 0.64564 0.75049 0.36529 0.0
O1996 O 0.64223 0.77768 0.34229 0.0
N1997 N 0.55074 0.77585 0.32522 0.0
C1998 C 0.53439 0.77008 0.33882 0.0
C1999 C 0.51661 0.7839 0.34144 0.0
C2000 C 0.51544 0.80315 0.32949 0.0
C2001 C 0.53188 0.8082 0.31476 0.0
C2002 C 0.54919 0.79377 0.31284 0.0
H2003 H 0.53503 0.75513 0.34777 0.0
O2004 O 0.60657 0.77893 0.37001 0.0
O2005 O 0.59445 0.77331 0.33689 0.0
O2006 O 0.59721 0.73431 0.36084 0.0
O2007 O 0.56891 0.73629 0.33777 0.0
C2008 C 0.53156 0.82677 0.30161 0.0
C2009 C 0.54823 0.83034 0.28648 0.0
H2010 H 0.58265 0.8313 0.25868 0.0
H2011 H 0.61102 0.80303 0.25649 0.0
H2012 H 0.50381 0.77966 0.35256 0.0
H2013 H 0.50168 0.81376 0.33141 0.0
H2014 H 0.51847 0.83831 0.30287 0.0
H2015 H 0.54777 0.84463 0.27641 0.0
Mn2016 Mn 0.90018 0.4919 0.63108 0.0
Mn2017 Mn 0.93337 0.49056 0.67449 0.0
C2018 C 0.89422 0.46643 0.6574 0.0
C2019 C 0.89408 0.48253 0.59517 0.0
C2020 C 0.89539 0.52119 0.67106 0.0
O2021 O 0.92438 0.51186 0.62248 0.0
O2022 O 0.94582 0.50943 0.6515 0.0
C2023 C 0.96814 0.46627 0.65247 0.0
N2024 N 0.95378 0.46807 0.66903 0.0
C2025 C 0.96546 0.43428 0.68426 0.0
C2026 C 0.98046 0.43212 0.66743 0.0
C2027 C 0.98176 0.44816 0.65143 0.0
C2028 C 0.95214 0.45256 0.68429 0.0
H2029 H 0.96915 0.47855 0.64011 0.0
C2030 C 0.9413 0.51703 0.63284 0.0
O2031 O 0.88442 0.49902 0.60386 0.0
O2032 O 0.90745 0.47185 0.60724 0.0
N2033 N 0.92452 0.47357 0.69873 0.0
C2034 C 0.91096 0.47931 0.71511 0.0
C2035 C 0.90837 0.46545 0.73287 0.0
C2036 C 0.92031 0.44619 0.73397 0.0
C2037 C 0.93501 0.44118 0.7175 0.0
C2038 C 0.93692 0.45565 0.70022 0.0
H2039 H 0.90201 0.49427 0.71453 0.0
O2040 O 0.87973 0.47051 0.64288 0.0
O2041 O 0.91283 0.47617 0.65502 0.0
O2042 O 0.88884 0.51514 0.65232 0.0
O2043 O 0.9119 0.51315 0.68063 0.0
C2044 C 0.94818 0.42262 0.71777 0.0
C2045 C 0.96329 0.4191 0.70108 0.0
H2046 H 0.99108 0.41824 0.66665 0.0
H2047 H 0.99325 0.44659 0.63835 0.0
H2048 H 0.89727 0.46967 0.7457 0.0
H2049 H 0.91841 0.43556 0.74772 0.0
H2050 H 0.94694 0.41104 0.73083 0.0
H2051 H 0.97337 0.40481 0.70149 0.0
Mn2052 Mn 0.75763 0.6499 0.88118 0.0
Mn2053 Mn 0.7588 0.68307 0.92461 0.0
C2054 C 0.78303 0.64396 0.90757 0.0
C2055 C 0.76712 0.64381 0.8453 0.0
C2056 C 0.72824 0.64505 0.92106 0.0
O2057 O 0.73767 0.6741 0.87253 0.0
O2058 O 0.74 0.69552 0.90158 0.0
C2059 C 0.78311 0.7179 0.90272 0.0
N2060 N 0.78128 0.70352 0.91926 0.0
C2061 C 0.81496 0.71528 0.93466 0.0
C2062 C 0.81716 0.73031 0.91785 0.0
C2063 C 0.80119 0.73157 0.90178 0.0
C2064 C 0.79673 0.70191 0.93459 0.0
H2065 H 0.77089 0.71889 0.89031 0.0
C2066 C 0.73245 0.691 0.88288 0.0
O2067 O 0.7506 0.63415 0.85393 0.0
O2068 O 0.77775 0.6572 0.8574 0.0
N2069 N 0.77573 0.67421 0.9489 0.0
C2070 C 0.76998 0.66057 0.96522 0.0
C2071 C 0.78378 0.658 0.98303 0.0
C2072 C 0.80298 0.67002 0.98425 0.0
C2073 C 0.80801 0.68477 0.96782 0.0
C2074 C 0.7936 0.68666 0.95049 0.0
H2075 H 0.75507 0.65157 0.96455 0.0
O2076 O 0.77899 0.62946 0.89305 0.0
O2077 O 0.77329 0.66256 0.90517 0.0
O2078 O 0.73434 0.63853 0.90233 0.0
O2079 O 0.73623 0.66156 0.93066 0.0
C2080 C 0.82652 0.69799 0.9682 0.0
C2081 C 0.83007 0.71314 0.95155 0.0
H2082 H 0.83101 0.74098 0.91715 0.0
H2083 H 0.80279 0.74309 0.88872 0.0
H2084 H 0.77955 0.64685 0.99581 0.0
H2085 H 0.81356 0.66814 0.99804 0.0
H2086 H 0.83804 0.69677 0.98131 0.0
H2087 H 0.84433 0.72327 0.95204 0.0
Mn2088 Mn 0.59969 0.50752 0.13126 0.0
Mn2089 Mn 0.56651 0.50873 0.17468 0.0
C2090 C 0.60561 0.53295 0.15761 0.0
C2091 C 0.60576 0.51693 0.09536 0.0
C2092 C 0.60452 0.47815 0.17115 0.0
O2093 O 0.5755 0.48755 0.12263 0.0
O2094 O 0.55404 0.48993 0.15164 0.0
C2095 C 0.53168 0.53306 0.1528 0.0
N2096 N 0.54607 0.53122 0.16933 0.0
C2097 C 0.53433 0.5649 0.18474 0.0
C2098 C 0.51929 0.5671 0.16795 0.0
C2099 C 0.51801 0.55114 0.15187 0.0
C2100 C 0.54769 0.54666 0.18466 0.0
H2101 H 0.53068 0.52084 0.1404 0.0
C2102 C 0.55858 0.48236 0.13296 0.0
O2103 O 0.61544 0.50045 0.10403 0.0
O2104 O 0.59239 0.5276 0.10745 0.0
N2105 N 0.57538 0.52565 0.19896 0.0
C2106 C 0.58902 0.51989 0.21528 0.0
C2107 C 0.59161 0.53368 0.23309 0.0
C2108 C 0.5796 0.55289 0.23431 0.0
C2109 C 0.56485 0.55793 0.21789 0.0
C2110 C 0.56295 0.54353 0.20056 0.0
H2111 H 0.59802 0.50497 0.2146 0.0
O2112 O 0.62012 0.5289 0.14309 0.0
O2113 O 0.58701 0.5232 0.15523 0.0
O2114 O 0.61107 0.48426 0.15243 0.0
O2115 O 0.58799 0.48614 0.18073 0.0
C2116 C 0.55163 0.57645 0.21828 0.0
C2117 C 0.53648 0.58001 0.20163 0.0
H2118 H 0.50862 0.58096 0.16725 0.0
H2119 H 0.50649 0.55274 0.13883 0.0
H2120 H 0.60277 0.52944 0.24586 0.0
H2121 H 0.5815 0.56347 0.2481 0.0
H2122 H 0.55287 0.58797 0.23139 0.0
H2123 H 0.52636 0.59427 0.20213 0.0
Mn2124 Mn 0.74188 0.34944 0.38132 0.0
Mn2125 Mn 0.74051 0.31637 0.42483 0.0
C2126 C 0.71646 0.35553 0.40764 0.0
C2127 C 0.73251 0.35549 0.34541 0.0
C2128 C 0.77123 0.35427 0.42125 0.0
O2129 O 0.76175 0.32515 0.37277 0.0
O2130 O 0.75932 0.3038 0.40186 0.0
C2131 C 0.71611 0.28159 0.40296 0.0
N2132 N 0.71796 0.296 0.41948 0.0
C2133 C 0.68418 0.28443 0.4348 0.0
C2134 C 0.68196 0.26938 0.41803 0.0
C2135 C 0.69797 0.268 0.402 0.0
C2136 C 0.70248 0.29772 0.43476 0.0
H2137 H 0.72836 0.28052 0.39059 0.0
C2138 C 0.7669 0.30824 0.38316 0.0
O2139 O 0.74904 0.36511 0.35406 0.0
O2140 O 0.72179 0.34217 0.35751 0.0
N2141 N 0.72357 0.32534 0.44906 0.0
C2142 C 0.72935 0.33897 0.46538 0.0
C2143 C 0.71553 0.34165 0.48315 0.0
C2144 C 0.69626 0.32974 0.48434 0.0
C2145 C 0.6912 0.31498 0.46793 0.0
C2146 C 0.70564 0.31299 0.45063 0.0
H2147 H 0.74432 0.3479 0.46473 0.0
O2148 O 0.72058 0.36998 0.3931 0.0
O2149 O 0.72614 0.33688 0.40531 0.0
O2150 O 0.76518 0.36076 0.4025 0.0
O2151 O 0.76316 0.33781 0.43088 0.0
C2152 C 0.67261 0.30185 0.46827 0.0
C2153 C 0.66904 0.28668 0.45165 0.0
H2154 H 0.66806 0.25878 0.41731 0.0
H2155 H 0.69635 0.25647 0.38897 0.0
H2156 H 0.71978 0.3528 0.49592 0.0
H2157 H 0.68565 0.33171 0.49809 0.0
H2158 H 0.66106 0.30316 0.48135 0.0
H2159 H 0.65472 0.27663 0.45212 0.0
Mn2160 Mn 0.90039 0.50774 0.86831 0.0
Mn2161 Mn 0.93362 0.50893 0.82492 0.0
C2162 C 0.89451 0.53316 0.84195 0.0
C2163 C 0.89429 0.51717 0.90419 0.0
C2164 C 0.89559 0.47836 0.82841 0.0
O2165 O 0.92455 0.48776 0.87695 0.0
O2166 O 0.94607 0.49013 0.84797 0.0
C2167 C 0.96842 0.53326 0.84683 0.0
N2168 N 0.95405 0.53143 0.83029 0.0
C2169 C 0.96574 0.56515 0.81493 0.0
C2170 C 0.98077 0.56735 0.83174 0.0
C2171 C 0.98206 0.55137 0.84779 0.0
C2172 C 0.9524 0.54689 0.81497 0.0
H2173 H 0.96943 0.52103 0.85922 0.0
C2174 C 0.94149 0.48257 0.86665 0.0
O2175 O 0.88461 0.50068 0.89552 0.0
O2176 O 0.90769 0.52781 0.89212 0.0
N2177 N 0.92477 0.52584 0.80062 0.0
C2178 C 0.91118 0.52007 0.78428 0.0
C2179 C 0.90857 0.53388 0.76648 0.0
C2180 C 0.92053 0.55312 0.7653 0.0
C2181 C 0.93526 0.55817 0.78174 0.0
C2182 C 0.93717 0.54375 0.79906 0.0
H2183 H 0.90222 0.50512 0.78492 0.0
O2184 O 0.87999 0.52914 0.85646 0.0
O2185 O 0.91309 0.5234 0.84434 0.0
O2186 O 0.88902 0.48448 0.84711 0.0
O2187 O 0.91214 0.48633 0.81885 0.0
C2188 C 0.94844 0.57672 0.7814 0.0
C2189 C 0.96357 0.58028 0.79806 0.0
H2190 H 0.9914 0.58123 0.83246 0.0
H2191 H 0.99357 0.55297 0.86085 0.0
H2192 H 0.89745 0.52963 0.75368 0.0
H2193 H 0.91861 0.56372 0.75153 0.0
H2194 H 0.94719 0.58825 0.7683 0.0
H2195 H 0.97367 0.59456 0.79759 0.0
Mn2196 Mn 0.74203 0.65 0.11816 0.0
Mn2197 Mn 0.74073 0.68312 0.0747 0.0
C2198 C 0.71665 0.64394 0.09179 0.0
C2199 C 0.73259 0.64394 0.15406 0.0
C2200 C 0.77144 0.64522 0.07829 0.0
O2201 O 0.76189 0.67428 0.12678 0.0
O2202 O 0.75949 0.69567 0.09771 0.0
C2203 C 0.71628 0.71788 0.09654 0.0
N2204 N 0.71817 0.70349 0.08002 0.0
C2205 C 0.68444 0.71509 0.0646 0.0
C2206 C 0.68219 0.73014 0.08139 0.0
C2207 C 0.69815 0.73148 0.09746 0.0
C2208 C 0.70273 0.70179 0.06469 0.0
H2209 H 0.7285 0.71893 0.10895 0.0
C2210 C 0.76705 0.6912 0.11641 0.0
O2211 O 0.74912 0.63431 0.14543 0.0
O2212 O 0.72189 0.65726 0.14194 0.0
N2213 N 0.72384 0.67416 0.05041 0.0
C2214 C 0.72965 0.66053 0.03412 0.0
C2215 C 0.71587 0.65788 0.0163 0.0
C2216 C 0.69662 0.66982 0.01507 0.0
C2217 C 0.69153 0.68457 0.03147 0.0
C2218 C 0.70592 0.68654 0.04881 0.0
H2219 H 0.7446 0.65158 0.0348 0.0
O2220 O 0.72074 0.62947 0.10633 0.0
O2221 O 0.72632 0.66258 0.09416 0.0
O2222 O 0.76536 0.63869 0.09702 0.0
O2223 O 0.76339 0.66169 0.06867 0.0
C2224 C 0.67296 0.69772 0.03108 0.0
C2225 C 0.66935 0.71288 0.04771 0.0
H2226 H 0.66829 0.74075 0.08208 0.0
H2227 H 0.6965 0.743 0.1105 0.0
H2228 H 0.72014 0.64672 0.00354 0.0
H2229 H 0.68605 0.66788 0.00128 0.0
H2230 H 0.66144 0.69643 0.01797 0.0
H2231 H 0.65504 0.72294 0.04721 0.0
Mn2232 Mn 0.59953 0.49201 0.36813 0.0
Mn2233 Mn 0.56641 0.49077 0.32466 0.0
C2234 C 0.60552 0.46659 0.34178 0.0
C2235 C 0.60559 0.48261 0.40403 0.0
C2236 C 0.60439 0.52138 0.32823 0.0
O2237 O 0.5753 0.51195 0.37672 0.0
O2238 O 0.5539 0.50956 0.34767 0.0
C2239 C 0.53157 0.46642 0.3465 0.0
N2240 N 0.54598 0.46826 0.32998 0.0
C2241 C 0.5343 0.43456 0.31457 0.0
C2242 C 0.51924 0.43235 0.33135 0.0
C2243 C 0.51792 0.44832 0.34742 0.0
C2244 C 0.54765 0.45281 0.31466 0.0
H2245 H 0.53055 0.47864 0.3589 0.0
C2246 C 0.55839 0.51713 0.36636 0.0
O2247 O 0.61525 0.49912 0.39537 0.0
O2248 O 0.59224 0.47193 0.39194 0.0
N2249 N 0.57534 0.47384 0.30039 0.0
C2250 C 0.58899 0.47961 0.2841 0.0
C2251 C 0.59162 0.46581 0.26629 0.0
C2252 C 0.57963 0.44659 0.26506 0.0
C2253 C 0.56486 0.44155 0.28146 0.0
C2254 C 0.56292 0.45595 0.29879 0.0
H2255 H 0.59798 0.49453 0.28478 0.0
O2256 O 0.62 0.47066 0.35632 0.0
O2257 O 0.58691 0.47632 0.34414 0.0
O2258 O 0.6109 0.51529 0.34696 0.0
O2259 O 0.58789 0.51337 0.31862 0.0
C2260 C 0.55166 0.42301 0.28107 0.0
C2261 C 0.53648 0.41945 0.29769 0.0
H2262 H 0.50858 0.41849 0.33203 0.0
H2263 H 0.50638 0.44671 0.36045 0.0
H2264 H 0.60279 0.47005 0.25353 0.0
H2265 H 0.58155 0.43601 0.25128 0.0
H2266 H 0.55292 0.41149 0.26796 0.0
H2267 H 0.52637 0.40518 0.29718 0.0
Mn2268 Mn 0.75759 0.34999 0.61843 0.0
Mn2269 Mn 0.75881 0.31673 0.57508 0.0
C2270 C 0.78302 0.35587 0.59208 0.0
C2271 C 0.76701 0.35608 0.65433 0.0
C2272 C 0.72825 0.35477 0.57851 0.0
O2273 O 0.73761 0.32583 0.6271 0.0
O2274 O 0.74 0.30432 0.59813 0.0
C2275 C 0.78312 0.28196 0.59709 0.0
N2276 N 0.7813 0.2963 0.58051 0.0
C2277 C 0.81501 0.28454 0.56519 0.0
C2278 C 0.8172 0.26955 0.58203 0.0
C2279 C 0.80121 0.26831 0.59809 0.0
C2280 C 0.79676 0.29789 0.5652 0.0
H2281 H 0.77088 0.281 0.60948 0.0
C2282 C 0.73242 0.30889 0.6168 0.0
O2283 O 0.75053 0.36578 0.64566 0.0
O2284 O 0.77766 0.3427 0.64224 0.0
N2285 N 0.77576 0.32553 0.55079 0.0
C2286 C 0.77001 0.33912 0.53443 0.0
C2287 C 0.78382 0.34166 0.51662 0.0
C2288 C 0.80304 0.32966 0.51546 0.0
C2289 C 0.80807 0.31496 0.53193 0.0
C2290 C 0.79364 0.3131 0.54926 0.0
H2291 H 0.75508 0.34811 0.53505 0.0
O2292 O 0.77898 0.3704 0.60657 0.0
O2293 O 0.77326 0.33728 0.59449 0.0
O2294 O 0.73433 0.36134 0.59722 0.0
O2295 O 0.73624 0.33822 0.56897 0.0
C2296 C 0.8266 0.30176 0.53162 0.0
C2297 C 0.83014 0.28665 0.54831 0.0
H2298 H 0.83106 0.25891 0.58278 0.0
H2299 H 0.8028 0.25683 0.61117 0.0
H2300 H 0.7796 0.35277 0.50381 0.0
H2301 H 0.81364 0.33152 0.50169 0.0
H2302 H 0.83814 0.30296 0.51852 0.0
H2303 H 0.84442 0.27654 0.54787 0.0
Mn2304 Mn 0.63142 0.90014 0.49192 0.0
Mn2305 Mn 0.67492 0.93322 0.49068 0.0
C2306 C 0.6578 0.89409 0.46655 0.0
C2307 C 0.59553 0.89409 0.48246 0.0
C2308 C 0.6713 0.89528 0.52133 0.0
O2309 O 0.62282 0.9244 0.51181 0.0
O2310 O 0.65191 0.94575 0.50946 0.0
C2311 C 0.65308 0.96803 0.46629 0.0
N2312 N 0.6696 0.95363 0.46815 0.0
C2313 C 0.68501 0.96527 0.43443 0.0
C2314 C 0.66823 0.98032 0.43221 0.0
C2315 C 0.65216 0.98166 0.44818 0.0
C2316 C 0.68492 0.95195 0.4527 0.0
H2317 H 0.64069 0.96908 0.47851 0.0
C2318 C 0.6332 0.94129 0.51701 0.0
O2319 O 0.60415 0.88445 0.499 0.0
O2320 O 0.60765 0.90742 0.47179 0.0
N2321 N 0.69919 0.92428 0.47377 0.0
C2322 C 0.7155 0.91064 0.47956 0.0
C2323 C 0.7333 0.908 0.46577 0.0
C2324 C 0.73453 0.91996 0.44653 0.0
C2325 C 0.71813 0.93472 0.44146 0.0
C2326 C 0.7008 0.93668 0.45587 0.0
H2327 H 0.71482 0.90168 0.4945 0.0
O2328 O 0.64325 0.87962 0.47062 0.0
O2329 O 0.65544 0.91272 0.47624 0.0
O2330 O 0.65256 0.88879 0.51524 0.0
O2331 O 0.68093 0.91175 0.5133 0.0
C2332 C 0.71851 0.9479 0.42291 0.0
C2333 C 0.70189 0.96306 0.41932 0.0
H2334 H 0.66754 0.99095 0.41833 0.0
H2335 H 0.63913 0.99319 0.44655 0.0
H2336 H 0.74607 0.89685 0.47003 0.0
H2337 H 0.74831 0.91803 0.43595 0.0
H2338 H 0.73162 0.94662 0.41139 0.0
H2339 H 0.70239 0.97315 0.40504 0.0
Mn2340 Mn 0.13125 0.59959 0.50759 0.0
Mn2341 Mn 0.17466 0.56639 0.50877 0.0
C2342 C 0.15766 0.60555 0.53295 0.0
C2343 C 0.09538 0.6057 0.51709 0.0
C2344 C 0.1711 0.60436 0.47814 0.0
O2345 O 0.12257 0.57537 0.48769 0.0
O2346 O 0.15159 0.5539 0.49003 0.0
C2347 C 0.15279 0.53162 0.53319 0.0
N2348 N 0.16934 0.54599 0.5313 0.0
C2349 C 0.18478 0.5343 0.56499 0.0
C2350 C 0.16798 0.51928 0.56724 0.0
C2351 C 0.15188 0.51799 0.5513 0.0
C2352 C 0.18469 0.54763 0.54672 0.0
H2353 H 0.14037 0.53061 0.52099 0.0
C2354 C 0.13289 0.55843 0.4825 0.0
O2355 O 0.10401 0.61535 0.50056 0.0
O2356 O 0.10749 0.59234 0.52773 0.0
N2357 N 0.19898 0.57527 0.52564 0.0
C2358 C 0.21529 0.5889 0.51984 0.0
C2359 C 0.23312 0.59151 0.5336 0.0
C2360 C 0.23436 0.57953 0.55283 0.0
C2361 C 0.21795 0.56479 0.55791 0.0
C2362 C 0.20059 0.56287 0.54353 0.0
H2363 H 0.2146 0.59788 0.5049 0.0
O2364 O 0.14315 0.62005 0.5289 0.0
O2365 O 0.15525 0.58693 0.52324 0.0
O2366 O 0.15239 0.61091 0.48426 0.0
O2367 O 0.18069 0.58784 0.48614 0.0
C2368 C 0.21834 0.55161 0.57646 0.0
C2369 C 0.20169 0.53647 0.58007 0.0
H2370 H 0.16729 0.50865 0.58112 0.0
H2371 H 0.13882 0.50648 0.55295 0.0
H2372 H 0.2459 0.60265 0.52933 0.0
H2373 H 0.24817 0.58144 0.56339 0.0
H2374 H 0.23147 0.55286 0.58796 0.0
H2375 H 0.2022 0.52638 0.59435 0.0
Mn2376 Mn 0.64991 0.88126 0.75756 0.0
Mn2377 Mn 0.68313 0.92465 0.7589 0.0
C2378 C 0.64393 0.9076 0.78298 0.0
C2379 C 0.64382 0.84536 0.76696 0.0
C2380 C 0.6452 0.9212 0.7282 0.0
O2381 O 0.67414 0.87264 0.73764 0.0
O2382 O 0.69564 0.90162 0.74012 0.0
C2383 C 0.71784 0.90269 0.78333 0.0
N2384 N 0.70348 0.91925 0.78146 0.0
C2385 C 0.71509 0.93458 0.81523 0.0
C2386 C 0.7301 0.91776 0.81746 0.0
C2387 C 0.73142 0.90171 0.80147 0.0
C2388 C 0.70181 0.93456 0.79692 0.0
H2389 H 0.71888 0.89031 0.77109 0.0
C2390 C 0.6911 0.88296 0.73252 0.0
O2391 O 0.63417 0.85402 0.75045 0.0
O2392 O 0.65717 0.85745 0.77764 0.0
N2393 N 0.67423 0.94893 0.77582 0.0
C2394 C 0.66065 0.96528 0.77002 0.0
C2395 C 0.65802 0.98307 0.78383 0.0
C2396 C 0.66994 0.98423 0.80311 0.0
C2397 C 0.68465 0.96779 0.80818 0.0
C2398 C 0.68659 0.95047 0.79375 0.0
H2399 H 0.65172 0.96465 0.75506 0.0
O2400 O 0.62943 0.89309 0.7789 0.0
O2401 O 0.66255 0.90522 0.77328 0.0
O2402 O 0.63861 0.90248 0.73427 0.0
O2403 O 0.66172 0.93075 0.73625 0.0
C2404 C 0.69778 0.96811 0.82676 0.0
C2405 C 0.71289 0.95144 0.83036 0.0
H2406 H 0.74069 0.91702 0.83136 0.0
H2407 H 0.74292 0.88864 0.8031 0.0
H2408 H 0.64691 0.99587 0.77957 0.0
H2409 H 0.66801 0.998 0.8137 0.0
H2410 H 0.69651 0.9812 0.8383 0.0
H2411 H 0.72295 0.95189 0.84467 0.0
Mn2412 Mn 0.36852 0.4 0.00761 0.0
Mn2413 Mn 0.32517 0.43327 0.00885 0.0
C2414 C 0.34215 0.39412 0.03303 0.0
C2415 C 0.4044 0.39385 0.01705 0.0
C2416 C 0.3286 0.39528 0.97824 0.0
O2417 O 0.3772 0.42418 0.98766 0.0
O2418 O 0.34822 0.44569 0.99003 0.0
C2419 C 0.34717 0.46803 0.03317 0.0
N2420 N 0.33059 0.45369 0.03134 0.0
C2421 C 0.31527 0.46544 0.06506 0.0
C2422 C 0.33211 0.48043 0.06725 0.0
C2423 C 0.34816 0.48167 0.05126 0.0
C2424 C 0.31528 0.45209 0.04681 0.0
H2425 H 0.35956 0.46901 0.02093 0.0
C2426 C 0.36689 0.44112 0.98246 0.0
O2427 O 0.39573 0.38419 0.00055 0.0
O2428 O 0.39233 0.40724 0.0277 0.0
N2429 N 0.30087 0.42446 0.02578 0.0
C2430 C 0.28451 0.41088 0.02003 0.0
C2431 C 0.26671 0.40833 0.03385 0.0
C2432 C 0.26555 0.42031 0.05308 0.0
C2433 C 0.28202 0.43502 0.0581 0.0
C2434 C 0.29934 0.43689 0.04368 0.0
H2435 H 0.28514 0.4019 0.0051 0.0
O2436 O 0.35663 0.37958 0.02898 0.0
O2437 O 0.34457 0.41271 0.02329 0.0
O2438 O 0.34731 0.38869 0.98433 0.0
O2439 O 0.31905 0.41181 0.98626 0.0
C2440 C 0.2817 0.44821 0.07664 0.0
C2441 C 0.29839 0.46332 0.08019 0.0
H2442 H 0.33286 0.49107 0.08112 0.0
H2443 H 0.36125 0.49316 0.05286 0.0
H2444 H 0.25389 0.39722 0.02962 0.0
H2445 H 0.25177 0.41844 0.06367 0.0
H2446 H 0.2686 0.447 0.08818 0.0
H2447 H 0.29795 0.47342 0.09447 0.0
Mn2448 Mn 0.34931 0.61825 0.75774 0.0
Mn2449 Mn 0.31622 0.57477 0.75888 0.0
C2450 C 0.35532 0.59185 0.7831 0.0
C2451 C 0.35535 0.65413 0.76725 0.0
C2452 C 0.35419 0.57843 0.72827 0.0
O2453 O 0.32509 0.62689 0.73782 0.0
O2454 O 0.3037 0.59781 0.74013 0.0
C2455 C 0.28136 0.59653 0.78327 0.0
N2456 N 0.29578 0.58003 0.7814 0.0
C2457 C 0.2841 0.56453 0.81506 0.0
C2458 C 0.26903 0.58129 0.8173 0.0
C2459 C 0.26771 0.59739 0.80137 0.0
C2460 C 0.29746 0.56467 0.79681 0.0
H2461 H 0.28032 0.60895 0.77108 0.0
C2462 C 0.30819 0.61652 0.73261 0.0
O2463 O 0.36502 0.64553 0.75073 0.0
O2464 O 0.342 0.642 0.77789 0.0
N2465 N 0.32515 0.55046 0.77574 0.0
C2466 C 0.33881 0.53418 0.76994 0.0
C2467 C 0.34145 0.51635 0.78369 0.0
C2468 C 0.32947 0.51507 0.80291 0.0
C2469 C 0.31469 0.53145 0.808 0.0
C2470 C 0.31274 0.54881 0.79363 0.0
H2471 H 0.34779 0.5349 0.75501 0.0
O2472 O 0.36979 0.6064 0.77907 0.0
O2473 O 0.3367 0.59422 0.77337 0.0
O2474 O 0.3607 0.59715 0.73441 0.0
O2475 O 0.3377 0.5688 0.73626 0.0
C2476 C 0.30149 0.53101 0.82653 0.0
C2477 C 0.2863 0.54762 0.83013 0.0
H2478 H 0.25838 0.58194 0.83117 0.0
H2479 H 0.25616 0.61041 0.80301 0.0
H2480 H 0.35263 0.50361 0.77942 0.0
H2481 H 0.3314 0.50127 0.81346 0.0
H2482 H 0.30276 0.51788 0.83802 0.0
H2483 H 0.27619 0.54707 0.8444 0.0
Mn2484 Mn 0.86846 0.09935 0.992 0.0
Mn2485 Mn 0.82512 0.06607 0.99068 0.0
C2486 C 0.8421 0.10529 0.96659 0.0
C2487 C 0.90434 0.10553 0.98255 0.0
C2488 C 0.82854 0.10398 0.02139 0.0
O2489 O 0.87714 0.07512 0.01189 0.0
O2490 O 0.84817 0.0536 0.00946 0.0
C2491 C 0.84711 0.03139 0.96624 0.0
N2492 N 0.83053 0.04572 0.96812 0.0
C2493 C 0.81523 0.03412 0.93434 0.0
C2494 C 0.83206 0.01913 0.9321 0.0
C2495 C 0.84811 0.01781 0.9481 0.0
C2496 C 0.81523 0.04739 0.95265 0.0
H2497 H 0.85949 0.03036 0.97848 0.0
C2498 C 0.86684 0.05816 0.01704 0.0
O2499 O 0.89568 0.11514 0.99908 0.0
O2500 O 0.89227 0.09215 0.97188 0.0
N2501 N 0.80082 0.07494 0.97377 0.0
C2502 C 0.78446 0.0885 0.97956 0.0
C2503 C 0.76667 0.09113 0.96575 0.0
C2504 C 0.76552 0.07922 0.94647 0.0
C2505 C 0.78199 0.06453 0.94139 0.0
C2506 C 0.79929 0.06259 0.95582 0.0
H2507 H 0.78508 0.09742 0.99453 0.0
O2508 O 0.85658 0.11981 0.97068 0.0
O2509 O 0.84451 0.08667 0.97629 0.0
O2510 O 0.84725 0.11059 0.01531 0.0
O2511 O 0.819 0.08747 0.01334 0.0
C2512 C 0.78168 0.05141 0.9228 0.0
C2513 C 0.79837 0.03631 0.91921 0.0
H2514 H 0.83282 0.00854 0.91819 0.0
H2515 H 0.86119 0.00633 0.94646 0.0
H2516 H 0.75386 0.10223 0.97001 0.0
H2517 H 0.75176 0.08116 0.93586 0.0
H2518 H 0.76859 0.05267 0.91126 0.0
H2519 H 0.79793 0.02626 0.90489 0.0
Mn2520 Mn 0.65007 0.11852 0.74199 0.0
Mn2521 Mn 0.68325 0.0751 0.74072 0.0
C2522 C 0.64418 0.09222 0.71649 0.0
C2523 C 0.64399 0.15444 0.73264 0.0
C2524 C 0.64519 0.07854 0.77124 0.0
O2525 O 0.67424 0.1271 0.76201 0.0
O2526 O 0.69569 0.09808 0.7596 0.0
C2527 C 0.71811 0.09706 0.7165 0.0
N2528 N 0.70372 0.08051 0.71827 0.0
C2529 C 0.7155 0.06522 0.68455 0.0
C2530 C 0.73053 0.08203 0.68242 0.0
C2531 C 0.73179 0.09806 0.69844 0.0
C2532 C 0.70212 0.06523 0.70277 0.0
H2533 H 0.71909 0.10942 0.72877 0.0
C2534 C 0.69115 0.11674 0.7672 0.0
O2535 O 0.6343 0.14573 0.7491 0.0
O2536 O 0.65739 0.14239 0.72198 0.0
N2537 N 0.67442 0.05085 0.72372 0.0
C2538 C 0.6608 0.0345 0.72942 0.0
C2539 C 0.65824 0.01673 0.71557 0.0
C2540 C 0.67025 0.01558 0.69636 0.0
C2541 C 0.68499 0.03203 0.69138 0.0
C2542 C 0.68687 0.04932 0.70584 0.0
H2543 H 0.6518 0.03511 0.74435 0.0
O2544 O 0.62967 0.10674 0.72055 0.0
O2545 O 0.66276 0.09458 0.72627 0.0
O2546 O 0.63866 0.09728 0.76518 0.0
O2547 O 0.66172 0.06898 0.76325 0.0
C2548 C 0.69822 0.03172 0.67287 0.0
C2549 C 0.71337 0.04838 0.66938 0.0
H2550 H 0.74121 0.08278 0.66857 0.0
H2551 H 0.74331 0.11111 0.69689 0.0
H2552 H 0.6471 0.00392 0.71977 0.0
H2553 H 0.66836 0.00183 0.68573 0.0
H2554 H 0.697 0.01865 0.66131 0.0
H2555 H 0.7235 0.04794 0.65512 0.0
Mn2556 Mn 0.84964 0.88135 0.24204 0.0
Mn2557 Mn 0.81651 0.92481 0.24097 0.0
C2558 C 0.85561 0.90779 0.21671 0.0
C2559 C 0.85567 0.84548 0.2325 0.0
C2560 C 0.85451 0.92113 0.27155 0.0
O2561 O 0.82544 0.87268 0.26197 0.0
O2562 O 0.80401 0.90172 0.25968 0.0
C2563 C 0.78166 0.90305 0.21656 0.0
N2564 N 0.79607 0.91956 0.21846 0.0
C2565 C 0.78433 0.93512 0.18485 0.0
C2566 C 0.76927 0.91834 0.18258 0.0
C2567 C 0.76799 0.9022 0.19848 0.0
C2568 C 0.7977 0.93495 0.20308 0.0
H2569 H 0.78065 0.8906 0.22873 0.0
C2570 C 0.80853 0.88301 0.26719 0.0
O2571 O 0.86536 0.85407 0.24902 0.0
O2572 O 0.84232 0.85762 0.22188 0.0
N2573 N 0.82541 0.94914 0.22414 0.0
C2574 C 0.83908 0.96541 0.22995 0.0
C2575 C 0.84168 0.98328 0.21623 0.0
C2576 C 0.82965 0.9846 0.19704 0.0
C2577 C 0.81488 0.96821 0.19194 0.0
C2578 C 0.81297 0.95082 0.20627 0.0
H2579 H 0.84808 0.96467 0.24486 0.0
O2580 O 0.87009 0.89324 0.22071 0.0
O2581 O 0.837 0.90539 0.22644 0.0
O2582 O 0.86104 0.90243 0.26538 0.0
O2583 O 0.838 0.93076 0.26359 0.0
C2584 C 0.80165 0.96868 0.17343 0.0
C2585 C 0.78648 0.95207 0.16981 0.0
H2586 H 0.7586 0.91772 0.16873 0.0
H2587 H 0.75645 0.88918 0.19683 0.0
H2588 H 0.85285 0.99602 0.22051 0.0
H2589 H 0.83154 0.99843 0.18652 0.0
H2590 H 0.80289 0.98184 0.16197 0.0
H2591 H 0.77635 0.95264 0.15555 0.0
Mn2592 Mn 0.5078 0.36813 0.09958 0.0
Mn2593 Mn 0.50896 0.32466 0.06647 0.0
C2594 C 0.53318 0.34174 0.10557 0.0
C2595 C 0.51726 0.40402 0.10564 0.0
C2596 C 0.47837 0.32829 0.10445 0.0
O2597 O 0.48787 0.37676 0.07536 0.0
O2598 O 0.4902 0.34769 0.05396 0.0
C2599 C 0.53333 0.34647 0.03163 0.0
N2600 N 0.53147 0.32995 0.04603 0.0
C2601 C 0.56515 0.3145 0.03433 0.0
C2602 C 0.56737 0.33128 0.01927 0.0
C2603 C 0.55142 0.34737 0.01797 0.0
C2604 C 0.5469 0.31461 0.04768 0.0
H2605 H 0.52113 0.35889 0.03061 0.0
C2606 C 0.48266 0.3664 0.05846 0.0
O2607 O 0.50074 0.39539 0.1153 0.0
O2608 O 0.52792 0.3919 0.09228 0.0
N2609 N 0.52585 0.30036 0.07538 0.0
C2610 C 0.52007 0.28407 0.08903 0.0
C2611 C 0.53384 0.26625 0.09165 0.0
C2612 C 0.55306 0.26499 0.07965 0.0
C2613 C 0.55812 0.28139 0.06488 0.0
C2614 C 0.54374 0.29874 0.06295 0.0
H2615 H 0.50515 0.28478 0.09802 0.0
O2616 O 0.52914 0.35628 0.12005 0.0
O2617 O 0.52345 0.34411 0.08696 0.0
O2618 O 0.48449 0.34701 0.11096 0.0
O2619 O 0.48636 0.31866 0.08795 0.0
C2620 C 0.57665 0.28097 0.05168 0.0
C2621 C 0.58023 0.2976 0.03651 0.0
H2622 H 0.58124 0.33195 0.00862 0.0
H2623 H 0.55305 0.3604 0.00644 0.0
H2624 H 0.52959 0.25349 0.10282 0.0
H2625 H 0.56362 0.25119 0.08156 0.0
H2626 H 0.58815 0.26785 0.05293 0.0
H2627 H 0.5945 0.29707 0.0264 0.0
Mn2628 Mn 0.38116 0.75749 0.84987 0.0
Mn2629 Mn 0.42451 0.75873 0.8166 0.0
C2630 C 0.40754 0.78289 0.85578 0.0
C2631 C 0.34528 0.76694 0.85601 0.0
C2632 C 0.42106 0.7281 0.85459 0.0
O2633 O 0.37247 0.73756 0.82567 0.0
O2634 O 0.40145 0.73994 0.80417 0.0
C2635 C 0.40252 0.78309 0.78187 0.0
N2636 N 0.41911 0.78124 0.7962 0.0
C2637 C 0.43446 0.81495 0.78447 0.0
C2638 C 0.41762 0.81717 0.76949 0.0
C2639 C 0.40154 0.80119 0.76824 0.0
C2640 C 0.43443 0.79669 0.79781 0.0
H2641 H 0.39012 0.77087 0.78089 0.0
C2642 C 0.38277 0.73238 0.80873 0.0
O2643 O 0.35394 0.75043 0.86566 0.0
O2644 O 0.35736 0.77759 0.84263 0.0
N2645 N 0.44882 0.77564 0.82543 0.0
C2646 C 0.46517 0.76988 0.83902 0.0
C2647 C 0.48298 0.78367 0.84158 0.0
C2648 C 0.48416 0.8029 0.82959 0.0
C2649 C 0.4677 0.80795 0.81489 0.0
C2650 C 0.45037 0.79354 0.81302 0.0
H2651 H 0.46452 0.75495 0.84801 0.0
O2652 O 0.39305 0.77883 0.87031 0.0
O2653 O 0.40512 0.77317 0.83718 0.0
O2654 O 0.40235 0.73419 0.86117 0.0
O2655 O 0.43061 0.73612 0.83806 0.0
C2656 C 0.46804 0.82649 0.8017 0.0
C2657 C 0.45135 0.83006 0.7866 0.0
H2658 H 0.41688 0.83104 0.75885 0.0
H2659 H 0.38846 0.80281 0.75676 0.0
H2660 H 0.49579 0.77943 0.8527 0.0
H2661 H 0.49795 0.81348 0.83147 0.0
H2662 H 0.48115 0.83801 0.80292 0.0
H2663 H 0.45181 0.84434 0.7765 0.0
Mn2664 Mn 0.99203 0.63138 0.59971 0.0
Mn2665 Mn 0.99083 0.67484 0.56659 0.0
C2666 C 0.96665 0.65775 0.6057 0.0
C2667 C 0.98258 0.59548 0.60573 0.0
C2668 C 0.02144 0.67125 0.60457 0.0
O2669 O 0.01196 0.62276 0.57549 0.0
O2670 O 0.00961 0.65182 0.55408 0.0
C2671 C 0.96647 0.65298 0.53177 0.0
N2672 N 0.96832 0.66951 0.54616 0.0
C2673 C 0.93463 0.68493 0.53446 0.0
C2674 C 0.93241 0.66813 0.51942 0.0
C2675 C 0.94837 0.65206 0.51812 0.0
C2676 C 0.95288 0.68484 0.54781 0.0
H2677 H 0.97868 0.64057 0.53075 0.0
C2678 C 0.01715 0.63311 0.55858 0.0
O2679 O 0.99909 0.60411 0.61541 0.0
O2680 O 0.97192 0.60761 0.5924 0.0
N2681 N 0.97392 0.69912 0.57549 0.0
C2682 C 0.97969 0.71543 0.58913 0.0
C2683 C 0.9659 0.73324 0.59174 0.0
C2684 C 0.94668 0.73448 0.57975 0.0
C2685 C 0.94163 0.71806 0.56499 0.0
C2686 C 0.95603 0.70073 0.56307 0.0
H2687 H 0.99462 0.71474 0.59812 0.0
O2688 O 0.9707 0.64322 0.62019 0.0
O2689 O 0.97637 0.65538 0.58709 0.0
O2690 O 0.01534 0.65252 0.61108 0.0
O2691 O 0.01343 0.68086 0.58807 0.0
C2692 C 0.9231 0.71845 0.55179 0.0
C2693 C 0.91952 0.70182 0.53663 0.0
H2694 H 0.91854 0.66744 0.50877 0.0
H2695 H 0.94675 0.63901 0.5066 0.0
H2696 H 0.97015 0.74601 0.6029 0.0
H2697 H 0.93611 0.74826 0.58166 0.0
H2698 H 0.91158 0.73156 0.55304 0.0
H2699 H 0.90525 0.70232 0.52653 0.0
Mn2700 Mn 0.11835 0.24198 0.34946 0.0
Mn2701 Mn 0.07495 0.24067 0.31625 0.0
C2702 C 0.09201 0.21654 0.35542 0.0
C2703 C 0.15425 0.23256 0.35558 0.0
C2704 C 0.07841 0.27131 0.35422 0.0
O2705 O 0.12698 0.26191 0.32524 0.0
O2706 O 0.09797 0.25949 0.30378 0.0
C2707 C 0.09691 0.21633 0.28149 0.0
N2708 N 0.08036 0.21815 0.29586 0.0
C2709 C 0.06506 0.1844 0.28419 0.0
C2710 C 0.08187 0.1822 0.26918 0.0
C2711 C 0.09791 0.19821 0.26787 0.0
C2712 C 0.06507 0.20267 0.29751 0.0
H2713 H 0.10929 0.22858 0.28047 0.0
C2714 C 0.11664 0.26708 0.30831 0.0
O2715 O 0.14558 0.24907 0.36522 0.0
O2716 O 0.14217 0.22189 0.34221 0.0
N2717 N 0.05069 0.22372 0.32513 0.0
C2718 C 0.03434 0.22948 0.33873 0.0
C2719 C 0.01656 0.21564 0.34134 0.0
C2720 C 0.01541 0.19639 0.32939 0.0
C2721 C 0.03186 0.19136 0.31467 0.0
C2722 C 0.04915 0.2058 0.31274 0.0
H2723 H 0.03496 0.24443 0.34768 0.0
O2724 O 0.10652 0.22063 0.36992 0.0
O2725 O 0.0944 0.22626 0.3368 0.0
O2726 O 0.09714 0.26525 0.36077 0.0
O2727 O 0.06885 0.26328 0.3377 0.0
C2728 C 0.03154 0.1728 0.3015 0.0
C2729 C 0.04821 0.16925 0.28637 0.0
H2730 H 0.08262 0.16832 0.25855 0.0
H2731 H 0.11097 0.19661 0.25637 0.0
H2732 H 0.00376 0.21987 0.35247 0.0
H2733 H 0.00165 0.18577 0.33132 0.0
H2734 H 0.01846 0.16124 0.30276 0.0
H2735 H 0.04776 0.15495 0.27629 0.0
Mn2736 Mn 0.50758 0.63132 0.39984 0.0
Mn2737 Mn 0.50888 0.67472 0.43303 0.0
C2738 C 0.53299 0.65767 0.39386 0.0
C2739 C 0.517 0.59542 0.39372 0.0
C2740 C 0.47822 0.67124 0.39509 0.0
O2741 O 0.48767 0.62267 0.42407 0.0
O2742 O 0.49007 0.6517 0.44551 0.0
C2743 C 0.53324 0.65276 0.46779 0.0
N2744 N 0.5314 0.66932 0.45343 0.0
C2745 C 0.56514 0.68465 0.46511 0.0
C2746 C 0.56735 0.66783 0.48011 0.0
C2747 C 0.55136 0.65178 0.48141 0.0
C2748 C 0.54687 0.68463 0.45178 0.0
H2749 H 0.52101 0.64037 0.46879 0.0
C2750 C 0.48249 0.63302 0.441 0.0
O2751 O 0.50048 0.60408 0.38409 0.0
O2752 O 0.52768 0.60751 0.40708 0.0
N2753 N 0.52582 0.69899 0.42416 0.0
C2754 C 0.52006 0.71533 0.41055 0.0
C2755 C 0.53387 0.73313 0.40796 0.0
C2756 C 0.55311 0.7343 0.41992 0.0
C2757 C 0.55815 0.71786 0.43465 0.0
C2758 C 0.54373 0.70054 0.43656 0.0
H2759 H 0.50511 0.71469 0.40159 0.0
O2760 O 0.5289 0.64317 0.37936 0.0
O2761 O 0.52329 0.65528 0.41248 0.0
O2762 O 0.48428 0.65251 0.38854 0.0
O2763 O 0.48626 0.68082 0.41159 0.0
C2764 C 0.57671 0.71819 0.44782 0.0
C2765 C 0.58027 0.70152 0.46294 0.0
H2766 H 0.58123 0.66709 0.49074 0.0
H2767 H 0.55297 0.63871 0.4929 0.0
H2768 H 0.52963 0.74593 0.39683 0.0
H2769 H 0.56371 0.74807 0.41802 0.0
H2770 H 0.58825 0.73128 0.44657 0.0
H2771 H 0.59456 0.70197 0.47303 0.0
Mn2772 Mn 0.11843 0.75768 0.15022 0.0
Mn2773 Mn 0.075 0.7589 0.18339 0.0
C2774 C 0.09208 0.78311 0.14429 0.0
C2775 C 0.15432 0.76712 0.14414 0.0
C2776 C 0.0785 0.72834 0.14536 0.0
O2777 O 0.12705 0.7377 0.1744 0.0
O2778 O 0.09801 0.74006 0.19583 0.0
C2779 C 0.09694 0.78318 0.21822 0.0
N2780 N 0.08039 0.78137 0.20384 0.0
C2781 C 0.06507 0.8151 0.21557 0.0
C2782 C 0.08187 0.81727 0.2306 0.0
C2783 C 0.09791 0.80126 0.23188 0.0
C2784 C 0.06509 0.79685 0.20221 0.0
H2785 H 0.10931 0.77093 0.21922 0.0
C2786 C 0.1167 0.73249 0.1913 0.0
O2787 O 0.14567 0.75063 0.13446 0.0
O2788 O 0.14223 0.77776 0.15753 0.0
N2789 N 0.05073 0.77586 0.17454 0.0
C2790 C 0.03439 0.77013 0.16092 0.0
C2791 C 0.01661 0.78396 0.15833 0.0
C2792 C 0.01544 0.80319 0.17032 0.0
C2793 C 0.03188 0.80819 0.18507 0.0
C2794 C 0.04919 0.79375 0.18697 0.0
H2795 H 0.03503 0.7552 0.15194 0.0
O2796 O 0.1066 0.77906 0.12979 0.0
O2797 O 0.09446 0.77336 0.16288 0.0
O2798 O 0.09724 0.73442 0.13884 0.0
O2799 O 0.06892 0.73634 0.16188 0.0
C2800 C 0.03155 0.82672 0.19827 0.0
C2801 C 0.04821 0.83025 0.21342 0.0
H2802 H 0.08261 0.83112 0.24126 0.0
H2803 H 0.11097 0.80284 0.24339 0.0
H2804 H 0.00382 0.77975 0.14719 0.0
H2805 H 0.00168 0.8138 0.16842 0.0
H2806 H 0.01847 0.83827 0.19704 0.0
H2807 H 0.04775 0.84452 0.22354 0.0
Mn2808 Mn 0.99205 0.36828 0.90014 0.0
Mn2809 Mn 0.99081 0.32482 0.93327 0.0
C2810 C 0.96664 0.34193 0.89415 0.0
C2811 C 0.98266 0.40418 0.89407 0.0
C2812 C 0.02144 0.32841 0.89531 0.0
O2813 O 0.01197 0.37689 0.92437 0.0
O2814 O 0.00959 0.34784 0.94579 0.0
C2815 C 0.96644 0.34665 0.9681 0.0
N2816 N 0.96829 0.33014 0.95369 0.0
C2817 C 0.9346 0.31471 0.96537 0.0
C2818 C 0.93238 0.33148 0.98043 0.0
C2819 C 0.94834 0.34756 0.98174 0.0
C2820 C 0.95285 0.3148 0.95203 0.0
H2821 H 0.97865 0.35906 0.96913 0.0
C2822 C 0.01715 0.36654 0.94129 0.0
O2823 O 0.99916 0.39551 0.88442 0.0
O2824 O 0.97196 0.39209 0.90742 0.0
N2825 N 0.97391 0.30054 0.92435 0.0
C2826 C 0.97968 0.28425 0.9107 0.0
C2827 C 0.9659 0.26643 0.90807 0.0
C2828 C 0.94668 0.26519 0.92005 0.0
C2829 C 0.94162 0.28159 0.93482 0.0
C2830 C 0.95601 0.29893 0.93676 0.0
H2831 H 0.99461 0.28494 0.90172 0.0
O2832 O 0.97071 0.35646 0.87967 0.0
O2833 O 0.97636 0.34429 0.91277 0.0
O2834 O 0.01533 0.34713 0.88879 0.0
O2835 O 0.01343 0.31879 0.91181 0.0
C2836 C 0.92308 0.28119 0.94802 0.0
C2837 C 0.9195 0.29782 0.96319 0.0
H2838 H 0.91851 0.33216 0.99108 0.0
H2839 H 0.94671 0.3606 0.99328 0.0
H2840 H 0.97015 0.25368 0.8969 0.0
H2841 H 0.9361 0.25141 0.91813 0.0
H2842 H 0.91157 0.26808 0.94675 0.0
H2843 H 0.90522 0.2973 0.97329 0.0
Mn2844 Mn 0.38145 0.2421 0.64991 0.0
Mn2845 Mn 0.42484 0.24092 0.68314 0.0
C2846 C 0.40786 0.21673 0.64397 0.0
C2847 C 0.34557 0.23265 0.64381 0.0
C2848 C 0.4213 0.27156 0.64517 0.0
O2849 O 0.37277 0.26202 0.67412 0.0
O2850 O 0.40176 0.25965 0.69561 0.0
C2851 C 0.40295 0.21649 0.71789 0.0
N2852 N 0.41951 0.21838 0.70353 0.0
C2853 C 0.43494 0.18469 0.71521 0.0
C2854 C 0.41813 0.18243 0.73022 0.0
C2855 C 0.40203 0.19837 0.73151 0.0
C2856 C 0.43486 0.20296 0.70188 0.0
H2857 H 0.39053 0.22869 0.7189 0.0
C2858 C 0.38307 0.2672 0.69106 0.0
O2859 O 0.35422 0.24916 0.63415 0.0
O2860 O 0.35767 0.22198 0.65717 0.0
N2861 N 0.44916 0.22405 0.67426 0.0
C2862 C 0.46549 0.22987 0.66065 0.0
C2863 C 0.48332 0.21611 0.65805 0.0
C2864 C 0.48456 0.19687 0.67002 0.0
C2865 C 0.46813 0.19178 0.68474 0.0
C2866 C 0.45077 0.20615 0.68666 0.0
H2867 H 0.4648 0.24481 0.65169 0.0
O2868 O 0.39335 0.22077 0.62946 0.0
O2869 O 0.40544 0.22645 0.66258 0.0
O2870 O 0.4026 0.26542 0.6386 0.0
O2871 O 0.43088 0.26356 0.6617 0.0
C2872 C 0.46852 0.17322 0.69792 0.0
C2873 C 0.45186 0.16961 0.71304 0.0
H2874 H 0.41744 0.16855 0.74084 0.0
H2875 H 0.38897 0.19672 0.74301 0.0
H2876 H 0.4961 0.22038 0.64693 0.0
H2877 H 0.49836 0.18632 0.66812 0.0
H2878 H 0.48164 0.16173 0.69667 0.0
H2879 H 0.45236 0.15532 0.72313 0.0
Mn2880 Mn 0.09924 0.50762 0.36839 0.0
Mn2881 Mn 0.06609 0.50893 0.32495 0.0
C2882 C 0.10522 0.53306 0.34207 0.0
C2883 C 0.10533 0.51701 0.40429 0.0
C2884 C 0.10405 0.47829 0.32845 0.0
O2885 O 0.07501 0.48768 0.37698 0.0
O2886 O 0.05359 0.4901 0.34794 0.0
C2887 C 0.03129 0.53327 0.34687 0.0
N2888 N 0.04568 0.53144 0.33033 0.0
C2889 C 0.03404 0.5652 0.31502 0.0
C2890 C 0.019 0.56739 0.33182 0.0
C2891 C 0.01767 0.55138 0.34785 0.0
C2892 C 0.04735 0.54693 0.31505 0.0
H2893 H 0.03026 0.52101 0.35924 0.0
C2894 C 0.05809 0.48251 0.36662 0.0
O2895 O 0.11497 0.5005 0.39563 0.0
O2896 O 0.09196 0.52769 0.39221 0.0
N2897 N 0.07499 0.52588 0.30069 0.0
C2898 C 0.0886 0.52013 0.28436 0.0
C2899 C 0.09124 0.53396 0.26659 0.0
C2900 C 0.07929 0.55321 0.26542 0.0
C2901 C 0.06455 0.55825 0.28186 0.0
C2902 C 0.06261 0.5438 0.29915 0.0
H2903 H 0.09755 0.50517 0.28499 0.0
O2904 O 0.11971 0.52898 0.35659 0.0
O2905 O 0.08661 0.52333 0.34442 0.0
O2906 O 0.11058 0.48435 0.34718 0.0
O2907 O 0.08755 0.48632 0.31886 0.0
C2908 C 0.05139 0.57681 0.28153 0.0
C2909 C 0.03624 0.58036 0.29818 0.0
H2910 H 0.00838 0.58128 0.33255 0.0
H2911 H 0.00615 0.55298 0.36089 0.0
H2912 H 0.10237 0.52973 0.2538 0.0
H2913 H 0.08123 0.56383 0.25167 0.0
H2914 H 0.05266 0.58836 0.26845 0.0
H2915 H 0.02616 0.59465 0.29772 0.0
Mn2916 Mn 0.2421 0.34991 0.1184 0.0
Mn2917 Mn 0.24083 0.31671 0.075 0.0
C2918 C 0.21672 0.35589 0.09201 0.0
C2919 C 0.23261 0.356 0.15428 0.0
C2920 C 0.2715 0.35465 0.07851 0.0
O2921 O 0.26199 0.32567 0.12707 0.0
O2922 O 0.25961 0.30422 0.09804 0.0
C2923 C 0.21643 0.28198 0.09695 0.0
N2924 N 0.2183 0.29632 0.08038 0.0
C2925 C 0.18457 0.28466 0.06502 0.0
C2926 C 0.18233 0.26966 0.08185 0.0
C2927 C 0.1983 0.26837 0.09792 0.0
C2928 C 0.20285 0.29797 0.06506 0.0
H2929 H 0.22865 0.28097 0.10935 0.0
C2930 C 0.26717 0.30874 0.11673 0.0
O2931 O 0.24914 0.36565 0.14566 0.0
O2932 O 0.22196 0.34265 0.14216 0.0
N2933 N 0.22393 0.32558 0.05071 0.0
C2934 C 0.22971 0.33918 0.03437 0.0
C2935 C 0.21592 0.34178 0.01656 0.0
C2936 C 0.19668 0.32981 0.01536 0.0
C2937 C 0.19161 0.3151 0.03181 0.0
C2938 C 0.20602 0.31319 0.04914 0.0
H2939 H 0.24465 0.34814 0.03503 0.0
O2940 O 0.22079 0.37039 0.10652 0.0
O2941 O 0.22642 0.33727 0.09442 0.0
O2942 O 0.26543 0.36121 0.09723 0.0
O2943 O 0.26346 0.33814 0.06893 0.0
C2944 C 0.17305 0.30194 0.03146 0.0
C2945 C 0.16946 0.28682 0.04813 0.0
H2946 H 0.16844 0.25904 0.08257 0.0
H2947 H 0.19667 0.25688 0.11099 0.0
H2948 H 0.22018 0.3529 0.00376 0.0
H2949 H 0.1861 0.33171 0.00158 0.0
H2950 H 0.16153 0.30318 0.01836 0.0
H2951 H 0.15516 0.27674 0.04766 0.0
Mn2952 Mn 0.40016 0.49188 0.86818 0.0
Mn2953 Mn 0.43325 0.49076 0.82468 0.0
C2954 C 0.39418 0.46651 0.84179 0.0
C2955 C 0.39416 0.48241 0.90407 0.0
C2956 C 0.39522 0.52131 0.82833 0.0
O2957 O 0.42437 0.51183 0.87679 0.0
O2958 O 0.44576 0.50952 0.84771 0.0
C2959 C 0.46814 0.46641 0.84645 0.0
N2960 N 0.45371 0.46827 0.82994 0.0
C2961 C 0.46544 0.43462 0.81446 0.0
C2962 C 0.48052 0.4324 0.83122 0.0
C2963 C 0.48182 0.44834 0.84732 0.0
C2964 C 0.45206 0.45285 0.81459 0.0
H2965 H 0.46916 0.47862 0.85887 0.0
C2966 C 0.44127 0.51704 0.86643 0.0
O2967 O 0.38447 0.49891 0.89545 0.0
O2968 O 0.40751 0.47176 0.89194 0.0
N2969 N 0.42433 0.47387 0.80038 0.0
C2970 C 0.41067 0.47966 0.7841 0.0
C2971 C 0.40805 0.4659 0.76627 0.0
C2972 C 0.42007 0.44669 0.76499 0.0
C2973 C 0.43485 0.44163 0.78137 0.0
C2974 C 0.43677 0.456 0.79874 0.0
H2975 H 0.40167 0.49458 0.78481 0.0
O2976 O 0.37971 0.47052 0.85635 0.0
O2977 O 0.41279 0.47625 0.84415 0.0
O2978 O 0.38873 0.51518 0.84706 0.0
O2979 O 0.41173 0.51335 0.8187 0.0
C2980 C 0.44808 0.42312 0.78093 0.0
C2981 C 0.46327 0.41954 0.79754 0.0
H2982 H 0.49119 0.41855 0.83186 0.0
H2983 H 0.49337 0.44672 0.86033 0.0
H2984 H 0.39688 0.47015 0.75352 0.0
H2985 H 0.41816 0.43614 0.75119 0.0
H2986 H 0.44683 0.41163 0.7678 0.0
H2987 H 0.4734 0.40529 0.797 0.0
Mn2988 Mn 0.2576 0.64994 0.6183 0.0
Mn2989 Mn 0.25886 0.68316 0.57491 0.0
C2990 C 0.28302 0.64401 0.59195 0.0
C2991 C 0.26699 0.64383 0.6542 0.0
C2992 C 0.22824 0.64517 0.57839 0.0
O2993 O 0.23765 0.67414 0.62694 0.0
O2994 O 0.24006 0.69563 0.59795 0.0
C2995 C 0.28322 0.71792 0.59685 0.0
N2996 N 0.28137 0.70356 0.58029 0.0
C2997 C 0.31509 0.71526 0.56493 0.0
C2998 C 0.31731 0.73027 0.58175 0.0
C2999 C 0.30133 0.73155 0.59782 0.0
C3000 C 0.29683 0.70193 0.56498 0.0
H3001 H 0.27099 0.71893 0.60925 0.0
C3002 C 0.23249 0.69109 0.61663 0.0
O3003 O 0.25049 0.63418 0.64552 0.0
O3004 O 0.27767 0.6572 0.64213 0.0
N3005 N 0.27578 0.67429 0.55062 0.0
C3006 C 0.27001 0.66069 0.53428 0.0
C3007 C 0.28381 0.6581 0.51648 0.0
C3008 C 0.30304 0.67007 0.51529 0.0
C3009 C 0.3081 0.68479 0.53173 0.0
C3010 C 0.29368 0.6867 0.54906 0.0
H3011 H 0.25507 0.65172 0.53493 0.0
O3012 O 0.27896 0.6295 0.60646 0.0
O3013 O 0.27329 0.66261 0.59434 0.0
O3014 O 0.23433 0.63861 0.5971 0.0
O3015 O 0.23624 0.6617 0.56883 0.0
C3016 C 0.32664 0.69797 0.53139 0.0
C3017 C 0.33021 0.7131 0.54806 0.0
H3018 H 0.33118 0.7409 0.58248 0.0
H3019 H 0.30295 0.74305 0.61088 0.0
H3020 H 0.27956 0.64697 0.50369 0.0
H3021 H 0.31363 0.66817 0.50151 0.0
H3022 H 0.33817 0.69673 0.51829 0.0
H3023 H 0.3445 0.72319 0.54759 0.0
Mn3024 Mn 0.09943 0.49199 0.13122 0.0
Mn3025 Mn 0.0662 0.49073 0.1746 0.0
C3026 C 0.10533 0.46653 0.15755 0.0
C3027 C 0.10554 0.48262 0.09532 0.0
C3028 C 0.10424 0.52129 0.17119 0.0
O3029 O 0.07527 0.51198 0.1226 0.0
O3030 O 0.05378 0.50959 0.1516 0.0
C3031 C 0.0314 0.46647 0.1526 0.0
N3032 N 0.04576 0.46825 0.16917 0.0
C3033 C 0.03404 0.4345 0.18442 0.0
C3034 C 0.01903 0.43235 0.1676 0.0
C3035 C 0.01776 0.44837 0.15158 0.0
C3036 C 0.04738 0.45275 0.18444 0.0
H3037 H 0.03041 0.47873 0.14024 0.0
C3038 C 0.05834 0.51718 0.13293 0.0
O3039 O 0.11522 0.49909 0.10402 0.0
O3040 O 0.09215 0.47195 0.10738 0.0
N3041 N 0.07502 0.47374 0.19887 0.0
C3042 C 0.0886 0.47947 0.21524 0.0
C3043 C 0.09117 0.46562 0.23301 0.0
C3044 C 0.0792 0.44638 0.23413 0.0
C3045 C 0.06449 0.44138 0.21766 0.0
C3046 C 0.06261 0.45584 0.20037 0.0
H3047 H 0.09756 0.49442 0.21465 0.0
O3048 O 0.11984 0.47059 0.14305 0.0
O3049 O 0.08673 0.47629 0.15516 0.0
O3050 O 0.11079 0.51522 0.15246 0.0
O3051 O 0.0877 0.51329 0.18074 0.0
C3052 C 0.0513 0.42284 0.21795 0.0
C3053 C 0.03617 0.41933 0.20126 0.0
H3054 H 0.00838 0.41848 0.16683 0.0
H3055 H 0.00626 0.4468 0.13851 0.0
H3056 H 0.10228 0.46984 0.24583 0.0
H3057 H 0.08109 0.43576 0.24788 0.0
H3058 H 0.05252 0.41128 0.23102 0.0
H3059 H 0.02607 0.40505 0.20169 0.0
Mn3060 Mn 0.2577 0.34975 0.88128 0.0
Mn3061 Mn 0.25896 0.31657 0.9247 0.0
C3062 C 0.2831 0.35572 0.90765 0.0
C3063 C 0.26714 0.35583 0.84539 0.0
C3064 C 0.22831 0.35453 0.92117 0.0
O3065 O 0.23779 0.32552 0.87264 0.0
O3066 O 0.24017 0.30408 0.90167 0.0
C3067 C 0.28334 0.2818 0.90279 0.0
N3068 N 0.28148 0.29617 0.91934 0.0
C3069 C 0.31519 0.28448 0.93473 0.0
C3070 C 0.31742 0.26946 0.91792 0.0
C3071 C 0.30144 0.26817 0.90185 0.0
C3072 C 0.29693 0.29781 0.93467 0.0
H3073 H 0.27111 0.28079 0.89039 0.0
C3074 C 0.23261 0.30859 0.88298 0.0
O3075 O 0.25062 0.36548 0.85403 0.0
O3076 O 0.27781 0.34248 0.85749 0.0
N3077 N 0.27587 0.32546 0.94899 0.0
C3078 C 0.2701 0.33908 0.96531 0.0
C3079 C 0.28389 0.34169 0.98312 0.0
C3080 C 0.30312 0.32971 0.98433 0.0
C3081 C 0.30818 0.31497 0.9679 0.0
C3082 C 0.29377 0.31305 0.95057 0.0
H3083 H 0.25516 0.34806 0.96464 0.0
O3084 O 0.27903 0.37022 0.89314 0.0
O3085 O 0.27339 0.33711 0.90526 0.0
O3086 O 0.2344 0.36107 0.90245 0.0
O3087 O 0.23634 0.33803 0.93076 0.0
C3088 C 0.32673 0.30179 0.96827 0.0
C3089 C 0.3303 0.28665 0.95161 0.0
H3090 H 0.33129 0.25883 0.91721 0.0
H3091 H 0.30307 0.25666 0.88879 0.0
H3092 H 0.27964 0.35283 0.9959 0.0
H3093 H 0.3137 0.33162 0.99811 0.0
H3094 H 0.33825 0.30304 0.98137 0.0
H3095 H 0.34459 0.27656 0.95209 0.0
Mn3096 Mn 0.39997 0.50782 0.63126 0.0
Mn3097 Mn 0.43309 0.50907 0.67472 0.0
C3098 C 0.39396 0.53321 0.65763 0.0
C3099 C 0.39392 0.51725 0.59536 0.0
C3100 C 0.39515 0.47841 0.67113 0.0
O3101 O 0.42421 0.48792 0.62265 0.0
O3102 O 0.44563 0.49032 0.65169 0.0
C3103 C 0.46788 0.53349 0.65289 0.0
N3104 N 0.45349 0.53161 0.66942 0.0
C3105 C 0.46513 0.56531 0.68486 0.0
C3106 C 0.48018 0.56756 0.66807 0.0
C3107 C 0.4815 0.55161 0.65198 0.0
C3108 C 0.45181 0.54704 0.68476 0.0
H3109 H 0.46892 0.52129 0.64048 0.0
C3110 C 0.44114 0.48276 0.633 0.0
O3111 O 0.38427 0.50073 0.604 0.0
O3112 O 0.40726 0.52793 0.60747 0.0
N3113 N 0.42416 0.52595 0.69902 0.0
C3114 C 0.41053 0.52014 0.71532 0.0
C3115 C 0.4079 0.5339 0.73314 0.0
C3116 C 0.41986 0.55314 0.73439 0.0
C3117 C 0.43461 0.55823 0.71798 0.0
C3118 C 0.43655 0.54385 0.70063 0.0
H3119 H 0.40157 0.50519 0.71463 0.0
O3120 O 0.37948 0.52915 0.64309 0.0
O3121 O 0.41258 0.52351 0.65526 0.0
O3122 O 0.38862 0.48452 0.65241 0.0
O3123 O 0.41165 0.48642 0.68074 0.0
C3124 C 0.44778 0.57679 0.71839 0.0
C3125 C 0.46293 0.5804 0.70176 0.0
H3126 H 0.4908 0.58145 0.66739 0.0
H3127 H 0.49303 0.55326 0.63895 0.0
H3128 H 0.39675 0.52963 0.74591 0.0
H3129 H 0.41793 0.5637 0.74819 0.0
H3130 H 0.44651 0.58829 0.73151 0.0
H3131 H 0.47302 0.59469 0.70227 0.0
Mn3132 Mn 0.24192 0.65011 0.38125 0.0
Mn3133 Mn 0.24062 0.68323 0.42471 0.0
C3134 C 0.21651 0.64409 0.40759 0.0
C3135 C 0.23251 0.64402 0.34536 0.0
C3136 C 0.27127 0.64529 0.42117 0.0
O3137 O 0.26183 0.67436 0.37265 0.0
O3138 O 0.25944 0.69575 0.40172 0.0
C3139 C 0.21627 0.71803 0.40281 0.0
N3140 N 0.2181 0.70364 0.41934 0.0
C3141 C 0.18436 0.7153 0.43468 0.0
C3142 C 0.18216 0.73034 0.41789 0.0
C3143 C 0.19816 0.73166 0.40184 0.0
C3144 C 0.20263 0.70198 0.43464 0.0
H3145 H 0.22851 0.71906 0.39043 0.0
C3146 C 0.26701 0.69126 0.38303 0.0
O3147 O 0.24903 0.63439 0.35401 0.0
O3148 O 0.22183 0.65737 0.35745 0.0
N3149 N 0.22367 0.67433 0.44897 0.0
C3150 C 0.22943 0.6607 0.46529 0.0
C3151 C 0.21561 0.65807 0.48307 0.0
C3152 C 0.19637 0.67004 0.48426 0.0
C3153 C 0.19133 0.68478 0.46784 0.0
C3154 C 0.20577 0.68672 0.45053 0.0
H3155 H 0.24437 0.65173 0.46464 0.0
O3156 O 0.2206 0.62961 0.39307 0.0
O3157 O 0.22621 0.66272 0.40523 0.0
O3158 O 0.26521 0.63878 0.40243 0.0
O3159 O 0.26323 0.66177 0.43078 0.0
C3160 C 0.17278 0.69796 0.46818 0.0
C3161 C 0.16922 0.71311 0.45154 0.0
H3162 H 0.16828 0.74097 0.41716 0.0
H3163 H 0.19656 0.74318 0.3888 0.0
H3164 H 0.21985 0.64692 0.49585 0.0
H3165 H 0.18577 0.66811 0.49802 0.0
H3166 H 0.16124 0.69669 0.48127 0.0
H3167 H 0.15494 0.7232 0.45201 0.0
Mn3168 Mn 0.36857 0.09985 0.50766 0.0
Mn3169 Mn 0.32522 0.06658 0.509 0.0
C3170 C 0.34224 0.10577 0.53312 0.0
C3171 C 0.40447 0.10598 0.51703 0.0
C3172 C 0.32861 0.10455 0.47835 0.0
O3173 O 0.37721 0.07565 0.48771 0.0
O3174 O 0.34825 0.05413 0.49018 0.0
C3175 C 0.34724 0.03187 0.53337 0.0
N3176 N 0.33066 0.04621 0.53152 0.0
C3177 C 0.31538 0.03455 0.5653 0.0
C3178 C 0.33222 0.01957 0.5675 0.0
C3179 C 0.34826 0.01828 0.5515 0.0
C3180 C 0.31537 0.04785 0.54701 0.0
H3181 H 0.35962 0.03087 0.52112 0.0
C3182 C 0.3669 0.05869 0.48257 0.0
O3183 O 0.39577 0.11564 0.50054 0.0
O3184 O 0.39241 0.0926 0.52771 0.0
N3185 N 0.30094 0.07543 0.52594 0.0
C3186 C 0.28456 0.08899 0.52017 0.0
C3187 C 0.26678 0.09158 0.534 0.0
C3188 C 0.26565 0.07965 0.55326 0.0
C3189 C 0.28212 0.06496 0.55831 0.0
C3190 C 0.29943 0.06305 0.54386 0.0
H3191 H 0.28517 0.09793 0.50521 0.0
O3192 O 0.35673 0.12029 0.52903 0.0
O3193 O 0.34464 0.08716 0.52339 0.0
O3194 O 0.34732 0.11115 0.48441 0.0
O3195 O 0.31908 0.08801 0.48637 0.0
C3196 C 0.28183 0.05181 0.57688 0.0
C3197 C 0.29853 0.03671 0.58045 0.0
H3198 H 0.33299 0.00896 0.5814 0.0
H3199 H 0.36134 0.0068 0.55311 0.0
H3200 H 0.25396 0.10268 0.52976 0.0
H3201 H 0.25189 0.08155 0.56388 0.0
H3202 H 0.26875 0.05305 0.58843 0.0
H3203 H 0.2981 0.02665 0.59475 0.0
Mn3204 Mn 0.86826 0.39996 0.49191 0.0
Mn3205 Mn 0.82488 0.43318 0.49061 0.0
C3206 C 0.84186 0.39394 0.46656 0.0
C3207 C 0.90414 0.39382 0.48244 0.0
C3208 C 0.8284 0.3953 0.52135 0.0
O3209 O 0.87695 0.42423 0.51175 0.0
O3210 O 0.84794 0.44569 0.50935 0.0
C3211 C 0.84682 0.46785 0.46612 0.0
N3212 N 0.83025 0.45351 0.46803 0.0
C3213 C 0.81487 0.46511 0.43428 0.0
C3214 C 0.8317 0.4801 0.432 0.0
C3215 C 0.84778 0.48142 0.44796 0.0
C3216 C 0.81492 0.45184 0.45259 0.0
H3217 H 0.85923 0.46889 0.47833 0.0
C3218 C 0.86663 0.44118 0.5169 0.0
O3219 O 0.8955 0.38421 0.49899 0.0
O3220 O 0.89203 0.40715 0.47175 0.0
N3221 N 0.80057 0.42428 0.47374 0.0
C3222 C 0.78423 0.4107 0.47957 0.0
C3223 C 0.76641 0.40807 0.46579 0.0
C3224 C 0.76521 0.41999 0.44652 0.0
C3225 C 0.78166 0.43469 0.44141 0.0
C3226 C 0.799 0.43663 0.4558 0.0
H3227 H 0.78489 0.40177 0.49453 0.0
O3228 O 0.85637 0.37944 0.47065 0.0
O3229 O 0.84428 0.41258 0.47621 0.0
O3230 O 0.84711 0.38872 0.51526 0.0
O3231 O 0.81881 0.41179 0.51329 0.0
C3232 C 0.78131 0.44781 0.42282 0.0
C3233 C 0.79798 0.46291 0.41918 0.0
H3234 H 0.83243 0.49068 0.41809 0.0
H3235 H 0.86086 0.4929 0.4463 0.0
H3236 H 0.75362 0.39697 0.47008 0.0
H3237 H 0.75142 0.41807 0.43595 0.0
H3238 H 0.7682 0.44654 0.4113 0.0
H3239 H 0.79751 0.47295 0.40486 0.0
Mn3240 Mn 0.34956 0.1184 0.24206 0.0
Mn3241 Mn 0.31644 0.07494 0.24087 0.0
C3242 C 0.35553 0.09204 0.21665 0.0
C3243 C 0.35561 0.1543 0.23263 0.0
C3244 C 0.35444 0.07852 0.27145 0.0
O3245 O 0.32536 0.12701 0.26202 0.0
O3246 O 0.30394 0.09796 0.25966 0.0
C3247 C 0.28159 0.09678 0.21654 0.0
N3248 N 0.29599 0.08026 0.21837 0.0
C3249 C 0.28426 0.06484 0.18469 0.0
C3250 C 0.26921 0.08162 0.18249 0.0
C3251 C 0.26792 0.0977 0.19845 0.0
C3252 C 0.29763 0.06493 0.20293 0.0
H3253 H 0.28058 0.10919 0.22875 0.0
C3254 C 0.30845 0.11665 0.26721 0.0
O3255 O 0.36529 0.14565 0.24913 0.0
O3256 O 0.34225 0.1422 0.22197 0.0
N3257 N 0.32533 0.05066 0.22395 0.0
C3258 C 0.33898 0.03435 0.22971 0.0
C3259 C 0.34158 0.01654 0.21593 0.0
C3260 C 0.32957 0.0153 0.19672 0.0
C3261 C 0.31481 0.03171 0.19168 0.0
C3262 C 0.3129 0.04905 0.20607 0.0
H3263 H 0.34797 0.03504 0.24464 0.0
O3264 O 0.37001 0.10658 0.22069 0.0
O3265 O 0.33692 0.09441 0.22639 0.0
O3266 O 0.36096 0.09725 0.26534 0.0
O3267 O 0.33793 0.06891 0.26346 0.0
C3268 C 0.30159 0.03131 0.17316 0.0
C3269 C 0.28642 0.04794 0.16959 0.0
H3270 H 0.25855 0.0823 0.16864 0.0
H3271 H 0.25639 0.11074 0.19684 0.0
H3272 H 0.35274 0.00377 0.22017 0.0
H3273 H 0.33147 0.00151 0.18615 0.0
H3274 H 0.30283 0.0182 0.16164 0.0
H3275 H 0.2763 0.04743 0.15533 0.0
Mn3276 Mn 0.63136 0.59935 0.99188 0.0
Mn3277 Mn 0.6748 0.56619 0.99064 0.0
C3278 C 0.65771 0.60531 0.96646 0.0
C3279 C 0.59547 0.60544 0.98247 0.0
C3280 C 0.67127 0.60418 0.02125 0.0
O3281 O 0.62274 0.57515 0.01182 0.0
O3282 O 0.65178 0.55371 0.00945 0.0
C3283 C 0.6529 0.53138 0.96631 0.0
N3284 N 0.66944 0.54576 0.96814 0.0
C3285 C 0.68479 0.53408 0.93442 0.0
C3286 C 0.66799 0.51904 0.93222 0.0
C3287 C 0.65194 0.51774 0.94821 0.0
C3288 C 0.68474 0.54741 0.95268 0.0
H3289 H 0.64051 0.53036 0.97854 0.0
C3290 C 0.63309 0.55823 0.01701 0.0
O3291 O 0.60413 0.6151 0.99897 0.0
O3292 O 0.60756 0.59207 0.9718 0.0
N3293 N 0.69907 0.57507 0.97371 0.0
C3294 C 0.7154 0.58869 0.97947 0.0
C3295 C 0.73319 0.59131 0.96566 0.0
C3296 C 0.73438 0.57934 0.94642 0.0
C3297 C 0.71795 0.56459 0.94138 0.0
C3298 C 0.70064 0.56267 0.95581 0.0
H3299 H 0.71475 0.59766 0.99441 0.0
O3300 O 0.64319 0.6198 0.97052 0.0
O3301 O 0.65534 0.5867 0.9762 0.0
O3302 O 0.65255 0.61071 0.01516 0.0
O3303 O 0.68086 0.58767 0.01324 0.0
C3304 C 0.71831 0.5514 0.92284 0.0
C3305 C 0.70166 0.53625 0.91929 0.0
H3306 H 0.66728 0.5084 0.91835 0.0
H3307 H 0.63889 0.50622 0.9466 0.0
H3308 H 0.74597 0.60245 0.96989 0.0
H3309 H 0.74815 0.58125 0.93582 0.0
H3310 H 0.7314 0.55266 0.9113 0.0
H3311 H 0.70214 0.52615 0.90501 0.0
Mn3312 Mn 0.65012 0.38121 0.24193 0.0
Mn3313 Mn 0.68331 0.42463 0.24074 0.0
C3314 C 0.6442 0.40757 0.21652 0.0
C3315 C 0.64406 0.34531 0.2325 0.0
C3316 C 0.64529 0.4211 0.27131 0.0
O3317 O 0.67431 0.37258 0.2619 0.0
O3318 O 0.69579 0.40158 0.25952 0.0
C3319 C 0.71813 0.40277 0.21638 0.0
N3320 N 0.70374 0.4193 0.21824 0.0
C3321 C 0.71546 0.43472 0.18455 0.0
C3322 C 0.7305 0.41793 0.18234 0.0
C3323 C 0.73178 0.40185 0.19829 0.0
C3324 C 0.7021 0.43464 0.2028 0.0
H3325 H 0.71914 0.39036 0.2286 0.0
C3326 C 0.69124 0.3829 0.26708 0.0
O3327 O 0.63438 0.35397 0.24899 0.0
O3328 O 0.65743 0.35741 0.22185 0.0
N3329 N 0.67443 0.44893 0.22384 0.0
C3330 C 0.66079 0.46524 0.22961 0.0
C3331 C 0.65819 0.48306 0.21583 0.0
C3332 C 0.67019 0.48429 0.19661 0.0
C3333 C 0.68494 0.46787 0.19156 0.0
C3334 C 0.68685 0.45053 0.20595 0.0
H3335 H 0.65181 0.46456 0.24454 0.0
O3336 O 0.6297 0.39305 0.22055 0.0
O3337 O 0.6628 0.40519 0.22627 0.0
O3338 O 0.63874 0.40239 0.2652 0.0
O3339 O 0.66183 0.43067 0.26334 0.0
C3340 C 0.69814 0.46826 0.17303 0.0
C3341 C 0.7133 0.45162 0.16946 0.0
H3342 H 0.74115 0.41724 0.16847 0.0
H3343 H 0.74331 0.3888 0.19668 0.0
H3344 H 0.64704 0.49583 0.22008 0.0
H3345 H 0.66828 0.49808 0.18604 0.0
H3346 H 0.6969 0.48138 0.16152 0.0
H3347 H 0.72341 0.45213 0.15519 0.0
Mn3348 Mn 0.13137 0.90034 0.00781 0.0
Mn3349 Mn 0.17483 0.93346 0.00899 0.0
C3350 C 0.15775 0.89436 0.0332 0.0
C3351 C 0.09548 0.89426 0.01729 0.0
C3352 C 0.17124 0.89547 0.9784 0.0
O3353 O 0.12274 0.92455 0.98788 0.0
O3354 O 0.15181 0.94594 0.9902 0.0
C3355 C 0.15299 0.96831 0.03333 0.0
N3356 N 0.16951 0.9539 0.03149 0.0
C3357 C 0.18493 0.96562 0.06517 0.0
C3358 C 0.16815 0.98067 0.06738 0.0
C3359 C 0.15207 0.98197 0.05141 0.0
C3360 C 0.18484 0.95226 0.04693 0.0
H3361 H 0.14059 0.96932 0.02111 0.0
C3362 C 0.1331 0.94145 0.98266 0.0
O3363 O 0.10411 0.88461 0.00077 0.0
O3364 O 0.10759 0.90763 0.02794 0.0
N3365 N 0.19912 0.92457 0.0259 0.0
C3366 C 0.21543 0.91093 0.02014 0.0
C3367 C 0.23324 0.90831 0.03393 0.0
C3368 C 0.23447 0.92031 0.05314 0.0
C3369 C 0.21806 0.93507 0.05819 0.0
C3370 C 0.20072 0.93699 0.04379 0.0
H3371 H 0.21475 0.90194 0.00521 0.0
O3372 O 0.14322 0.87987 0.02916 0.0
O3373 O 0.15538 0.91297 0.02347 0.0
O3374 O 0.15251 0.88896 0.98451 0.0
O3375 O 0.18086 0.91196 0.9864 0.0
C3376 C 0.21845 0.94828 0.07672 0.0
C3377 C 0.20182 0.96345 0.08028 0.0
H3378 H 0.16746 0.99133 0.08124 0.0
H3379 H 0.13904 0.9935 0.05302 0.0
H3380 H 0.24601 0.89716 0.02968 0.0
H3381 H 0.24825 0.9184 0.06372 0.0
H3382 H 0.23156 0.94703 0.08823 0.0
H3383 H 0.20233 0.97356 0.09455 0.0
Mn3384 Mn 0.34949 0.88152 0.25782 0.0
Mn3385 Mn 0.31635 0.92498 0.259 0.0
C3386 C 0.35547 0.9079 0.2832 0.0
C3387 C 0.35554 0.84563 0.26728 0.0
C3388 C 0.35433 0.92137 0.22839 0.0
O3389 O 0.32527 0.87289 0.23789 0.0
O3390 O 0.30384 0.90193 0.24025 0.0
C3391 C 0.28152 0.90318 0.28339 0.0
N3392 N 0.29593 0.91969 0.28152 0.0
C3393 C 0.28425 0.93516 0.3152 0.0
C3394 C 0.26919 0.91838 0.31744 0.0
C3395 C 0.26787 0.90229 0.30149 0.0
C3396 C 0.29759 0.93504 0.29694 0.0
H3397 H 0.28049 0.89076 0.27119 0.0
C3398 C 0.30835 0.88323 0.2327 0.0
O3399 O 0.36521 0.85426 0.25077 0.0
O3400 O 0.34219 0.85774 0.27794 0.0
N3401 N 0.32527 0.94928 0.27587 0.0
C3402 C 0.33892 0.96557 0.27008 0.0
C3403 C 0.34155 0.9834 0.28384 0.0
C3404 C 0.32957 0.98466 0.30307 0.0
C3405 C 0.3148 0.96826 0.30814 0.0
C3406 C 0.31286 0.95091 0.29377 0.0
H3407 H 0.34789 0.96487 0.25514 0.0
O3408 O 0.36995 0.89336 0.27916 0.0
O3409 O 0.33686 0.90553 0.27347 0.0
O3410 O 0.36086 0.90265 0.23452 0.0
O3411 O 0.33782 0.93098 0.23638 0.0
C3412 C 0.30161 0.96868 0.32668 0.0
C3413 C 0.28643 0.95206 0.33028 0.0
H3414 H 0.25854 0.91772 0.3313 0.0
H3415 H 0.25634 0.88926 0.30313 0.0
H3416 H 0.35271 0.99615 0.27957 0.0
H3417 H 0.33149 0.99846 0.31362 0.0
H3418 H 0.30287 0.98181 0.33818 0.0
H3419 H 0.27633 0.95259 0.34455 0.0
Mn3420 Mn 0.15024 0.1185 0.75769 0.0
Mn3421 Mn 0.18346 0.07511 0.75896 0.0
C3422 C 0.14434 0.09218 0.78315 0.0
C3423 C 0.14413 0.1544 0.76706 0.0
C3424 C 0.14543 0.07854 0.72839 0.0
O3425 O 0.17441 0.12711 0.7377 0.0
O3426 O 0.19589 0.09812 0.74011 0.0
C3427 C 0.21825 0.0971 0.78324 0.0
N3428 N 0.20389 0.08053 0.78144 0.0
C3429 C 0.21561 0.06525 0.81519 0.0
C3430 C 0.23063 0.08208 0.81735 0.0
C3431 C 0.2319 0.0981 0.80133 0.0
C3432 C 0.20227 0.06525 0.79693 0.0
H3433 H 0.21925 0.10946 0.77098 0.0
C3434 C 0.19134 0.11679 0.73252 0.0
O3435 O 0.13445 0.14571 0.75058 0.0
O3436 O 0.15752 0.14234 0.77772 0.0
N3437 N 0.17462 0.05085 0.77593 0.0
C3438 C 0.16103 0.03448 0.7702 0.0
C3439 C 0.15845 0.01671 0.78404 0.0
C3440 C 0.17043 0.01557 0.80328 0.0
C3441 C 0.18515 0.03203 0.80829 0.0
C3442 C 0.18704 0.04933 0.79383 0.0
H3443 H 0.15206 0.03509 0.75526 0.0
O3444 O 0.12982 0.10668 0.7791 0.0
O3445 O 0.16293 0.09456 0.77339 0.0
O3446 O 0.13887 0.09726 0.73446 0.0
O3447 O 0.16197 0.06899 0.73639 0.0
C3448 C 0.19834 0.03173 0.82683 0.0
C3449 C 0.21347 0.04841 0.83035 0.0
H3450 H 0.24127 0.08283 0.83122 0.0
H3451 H 0.2434 0.11117 0.80291 0.0
H3452 H 0.14733 0.0039 0.77983 0.0
H3453 H 0.16853 0.00182 0.8139 0.0
H3454 H 0.19711 0.01866 0.83839 0.0
H3455 H 0.22357 0.04797 0.84463 0.0
C3456 C 0.0441 0.20398 0.38958 0.0
C3457 C 0.03876 0.18279 0.38331 0.0
H3458 H 0.06485 0.23114 0.38499 0.0
C3459 C 0.05039 0.17316 0.36627 0.0
H3460 H 0.03565 0.21204 0.40259 0.0
C3461 C 0.06731 0.1844 0.35614 0.0
C3462 C 0.07243 0.20548 0.36269 0.0
H3463 H 0.04675 0.15686 0.36107 0.0
H3464 H 0.07664 0.17653 0.3436 0.0
C3465 C 0.06079 0.21505 0.3795 0.0
C3466 C 0.03461 0.81078 0.63007 0.0
C3467 C 0.04412 0.82239 0.61321 0.0
H3468 H 0.03764 0.78562 0.65314 0.0
C3469 C 0.06518 0.81725 0.6066 0.0
H3470 H 0.01853 0.81487 0.63562 0.0
C3471 C 0.07643 0.80031 0.61669 0.0
C3472 C 0.06683 0.78869 0.63376 0.0
H3473 H 0.07302 0.82656 0.59403 0.0
H3474 H 0.0927 0.79664 0.61143 0.0
C3475 C 0.04568 0.79407 0.64011 0.0
C3476 C 0.43225 0.81502 0.85635 0.0
C3477 C 0.42714 0.79397 0.863 0.0
H3478 H 0.45286 0.84256 0.86111 0.0
C3479 C 0.4388 0.78447 0.87983 0.0
H3480 H 0.42291 0.82284 0.8438 0.0
C3481 C 0.45553 0.79557 0.88982 0.0
C3482 C 0.46088 0.81672 0.88344 0.0
H3483 H 0.43473 0.7684 0.88541 0.0
H3484 H 0.46401 0.78755 0.90284 0.0
C3485 C 0.44921 0.82629 0.86639 0.0
C3486 C 0.43444 0.18247 0.10635 0.0
C3487 C 0.4555 0.1773 0.11296 0.0
H3488 H 0.40694 0.2031 0.11121 0.0
C3489 C 0.46502 0.18889 0.12983 0.0
H3490 H 0.4266 0.17319 0.09376 0.0
C3491 C 0.45395 0.20559 0.13989 0.0
C3492 C 0.4328 0.211 0.13355 0.0
H3493 H 0.48109 0.18478 0.13538 0.0
H3494 H 0.462 0.21401 0.15294 0.0
C3495 C 0.4232 0.19941 0.11646 0.0
C3496 C 0.05042 0.82647 0.13351 0.0
C3497 C 0.0388 0.81686 0.11645 0.0
H3498 H 0.07667 0.82308 0.15617 0.0
C3499 C 0.04417 0.7957 0.11013 0.0
H3500 H 0.04676 0.84275 0.13875 0.0
C3501 C 0.06088 0.78463 0.12019 0.0
C3502 C 0.07249 0.79417 0.13703 0.0
H3503 H 0.03573 0.78765 0.0971 0.0
H3504 H 0.06496 0.76855 0.11466 0.0
C3505 C 0.06736 0.81523 0.14361 0.0
C3506 C 0.45401 0.79409 0.35988 0.0
C3507 C 0.43285 0.78874 0.36624 0.0
H3508 H 0.48118 0.81486 0.36433 0.0
C3509 C 0.42328 0.80038 0.38332 0.0
H3510 H 0.46203 0.78564 0.34684 0.0
C3511 C 0.43456 0.81731 0.39339 0.0
C3512 C 0.45561 0.82243 0.38675 0.0
H3513 H 0.40701 0.79673 0.38858 0.0
H3514 H 0.42674 0.82664 0.40596 0.0
C3515 C 0.46511 0.8108 0.3699 0.0
C3516 C 0.43909 0.21526 0.61989 0.0
C3517 C 0.42747 0.2057 0.63672 0.0
H3518 H 0.46425 0.21228 0.59682 0.0
C3519 C 0.43263 0.18464 0.6433 0.0
H3520 H 0.43498 0.23134 0.61437 0.0
C3521 C 0.44959 0.17342 0.6332 0.0
C3522 C 0.4612 0.18305 0.61615 0.0
H3523 H 0.42333 0.17677 0.65585 0.0
H3524 H 0.45327 0.15715 0.63843 0.0
C3525 C 0.45581 0.20422 0.60984 0.0
C3526 C 0.07642 0.19949 0.88327 0.0
C3527 C 0.06684 0.21109 0.86617 0.0
H3528 H 0.07299 0.17327 0.90595 0.0
C3529 C 0.04569 0.2057 0.85981 0.0
H3530 H 0.09269 0.20317 0.88853 0.0
C3531 C 0.0346 0.189 0.86987 0.0
C3532 C 0.04411 0.17741 0.88674 0.0
H3533 H 0.03766 0.21412 0.84676 0.0
H3534 H 0.01854 0.1849 0.8643 0.0
C3535 C 0.06516 0.18256 0.89336 0.0
C3536 C 0.36629 0.05034 0.17331 0.0
C3537 C 0.38339 0.03875 0.18291 0.0
H3538 H 0.3436 0.07656 0.17671 0.0
C3539 C 0.38974 0.04417 0.20405 0.0
H3540 H 0.36103 0.04664 0.15705 0.0
C3541 C 0.37969 0.06087 0.21512 0.0
C3542 C 0.36281 0.07245 0.2056 0.0
H3543 H 0.4028 0.03576 0.21209 0.0
H3544 H 0.38524 0.06499 0.23118 0.0
C3545 C 0.35619 0.06728 0.18455 0.0
C3546 C 0.18888 0.12957 0.46519 0.0
C3547 C 0.17728 0.11272 0.45564 0.0
H3548 H 0.21399 0.15269 0.46217 0.0
C3549 C 0.18242 0.10614 0.43458 0.0
H3550 H 0.18479 0.13509 0.48127 0.0
C3551 C 0.19934 0.11627 0.42334 0.0
C3552 C 0.21094 0.13334 0.43295 0.0
H3553 H 0.17312 0.09358 0.42672 0.0
H3554 H 0.20301 0.11105 0.40706 0.0
C3555 C 0.20557 0.13965 0.45412 0.0
C3556 C 0.11014 0.95555 0.7042 0.0
C3557 C 0.1164 0.96091 0.68302 0.0
H3558 H 0.11474 0.93476 0.73134 0.0
C3559 C 0.13343 0.94928 0.67336 0.0
H3560 H 0.09714 0.964 0.71229 0.0
C3561 C 0.14355 0.93234 0.68457 0.0
C3562 C 0.13702 0.92721 0.70566 0.0
H3563 H 0.13862 0.95294 0.65707 0.0
H3564 H 0.15608 0.92301 0.67669 0.0
C3565 C 0.12022 0.93884 0.71525 0.0
C3566 C 0.29404 0.85996 0.95421 0.0
C3567 C 0.28864 0.86626 0.93305 0.0
H3568 H 0.31486 0.86452 0.98133 0.0
C3569 C 0.30025 0.88331 0.9234 0.0
H3570 H 0.2856 0.84694 0.96228 0.0
C3571 C 0.3172 0.89342 0.93461 0.0
C3572 C 0.32236 0.88685 0.95568 0.0
H3573 H 0.29656 0.88853 0.90713 0.0
H3574 H 0.3265 0.90597 0.92674 0.0
C3575 C 0.31076 0.87002 0.96525 0.0
C3576 C 0.36634 0.94961 0.3265 0.0
C3577 C 0.38343 0.96118 0.31686 0.0
H3578 H 0.34362 0.92341 0.32316 0.0
C3579 C 0.38972 0.95577 0.2957 0.0
H3580 H 0.36112 0.95331 0.34277 0.0
C3581 C 0.37962 0.93907 0.28466 0.0
C3582 C 0.36276 0.9275 0.29422 0.0
H3583 H 0.40276 0.96417 0.28763 0.0
H3584 H 0.38513 0.93496 0.26858 0.0
C3585 C 0.35619 0.93269 0.31528 0.0
C3586 C 0.30056 0.11655 0.57647 0.0
C3587 C 0.28888 0.13355 0.56681 0.0
H3588 H 0.32687 0.09396 0.57314 0.0
C3589 C 0.29424 0.13983 0.54563 0.0
H3590 H 0.29691 0.11136 0.59276 0.0
C3591 C 0.31097 0.12979 0.53458 0.0
C3592 C 0.32264 0.11301 0.54417 0.0
H3593 H 0.28576 0.15281 0.53754 0.0
H3594 H 0.31503 0.13528 0.51848 0.0
C3595 C 0.31752 0.10647 0.56525 0.0
C3596 C 0.11022 0.04422 0.79568 0.0
C3597 C 0.1165 0.03886 0.81686 0.0
H3598 H 0.11478 0.06501 0.76854 0.0
C3599 C 0.13353 0.05051 0.8265 0.0
H3600 H 0.09721 0.03577 0.78761 0.0
C3601 C 0.14363 0.06745 0.81528 0.0
C3602 C 0.13708 0.07258 0.7942 0.0
H3603 H 0.13873 0.04685 0.84279 0.0
H3604 H 0.15616 0.07678 0.82316 0.0
C3605 C 0.12028 0.06094 0.78463 0.0
C3606 C 0.20563 0.86013 0.04576 0.0
C3607 C 0.21103 0.86645 0.06691 0.0
H3608 H 0.18482 0.86468 0.01863 0.0
C3609 C 0.19944 0.88354 0.07653 0.0
H3610 H 0.21404 0.84708 0.03771 0.0
C3611 C 0.18251 0.89366 0.06529 0.0
C3612 C 0.17735 0.88707 0.04424 0.0
H3613 H 0.20313 0.88878 0.0928 0.0
H3614 H 0.17323 0.90624 0.07315 0.0
C3615 C 0.18893 0.87021 0.0347 0.0
C3616 C 0.21517 0.37999 0.06078 0.0
C3617 C 0.20565 0.36315 0.07242 0.0
H3618 H 0.21213 0.40302 0.0356 0.0
C3619 C 0.18459 0.35653 0.06729 0.0
H3620 H 0.23124 0.38554 0.06486 0.0
C3621 C 0.17334 0.36659 0.05034 0.0
C3622 C 0.18294 0.38364 0.03869 0.0
H3623 H 0.17675 0.34397 0.07662 0.0
H3624 H 0.15707 0.36133 0.04668 0.0
C3625 C 0.20409 0.39 0.04406 0.0
C3626 C 0.70395 0.10968 0.95566 0.0
C3627 C 0.68281 0.11608 0.96104 0.0
H3628 H 0.73113 0.11413 0.93489 0.0
C3629 C 0.67329 0.13322 0.94947 0.0
H3630 H 0.71194 0.09659 0.96407 0.0
C3631 C 0.68458 0.14332 0.93257 0.0
C3632 C 0.70562 0.13665 0.92742 0.0
H3633 H 0.65703 0.13852 0.95315 0.0
H3634 H 0.67679 0.15595 0.9233 0.0
C3635 C 0.71508 0.11973 0.93899 0.0
C3636 C 0.13944 0.45407 0.20553 0.0
C3637 C 0.13318 0.43289 0.21089 0.0
H3638 H 0.13485 0.4812 0.18473 0.0
C3639 C 0.11617 0.42322 0.19924 0.0
H3640 H 0.15243 0.46216 0.21399 0.0
C3641 C 0.10606 0.43442 0.18229 0.0
C3642 C 0.11259 0.45551 0.17716 0.0
H3643 H 0.11098 0.40692 0.2029 0.0
H3644 H 0.09354 0.42652 0.17296 0.0
C3645 C 0.12937 0.4651 0.1888 0.0
C3646 C 0.81528 0.85607 0.43247 0.0
C3647 C 0.79423 0.86268 0.42731 0.0
H3648 H 0.84279 0.86093 0.45309 0.0
C3649 C 0.7847 0.87953 0.43892 0.0
H3650 H 0.82313 0.8435 0.42317 0.0
C3651 C 0.79576 0.88959 0.45562 0.0
C3652 C 0.81692 0.88325 0.46102 0.0
H3653 H 0.76862 0.88507 0.43482 0.0
H3654 H 0.78772 0.90263 0.46405 0.0
C3655 C 0.82652 0.86617 0.44941 0.0
C3656 C 0.88313 0.07636 0.19948 0.0
C3657 C 0.86612 0.06663 0.21108 0.0
H3658 H 0.90581 0.07314 0.17323 0.0
C3659 C 0.85989 0.04546 0.20565 0.0
H3660 H 0.88829 0.09265 0.20319 0.0
C3661 C 0.87001 0.03448 0.18892 0.0
C3662 C 0.88681 0.04412 0.17733 0.0
H3663 H 0.8469 0.03732 0.21407 0.0
H3664 H 0.86456 0.01838 0.1848 0.0
C3665 C 0.89329 0.06521 0.18252 0.0
C3666 C 0.31515 0.64335 0.56722 0.0
C3667 C 0.29408 0.63675 0.57236 0.0
H3668 H 0.34266 0.63852 0.5466 0.0
C3669 C 0.28454 0.61993 0.56072 0.0
H3670 H 0.323 0.6559 0.57654 0.0
C3671 C 0.29561 0.6099 0.54399 0.0
C3672 C 0.31677 0.61623 0.53862 0.0
H3673 H 0.26846 0.6144 0.5648 0.0
H3674 H 0.28755 0.59689 0.53554 0.0
C3675 C 0.32638 0.63328 0.55026 0.0
C3676 C 0.11614 0.57641 0.30043 0.0
C3677 C 0.13319 0.56675 0.28882 0.0
H3678 H 0.09345 0.57308 0.32666 0.0
C3679 C 0.13945 0.54557 0.29419 0.0
H3680 H 0.11096 0.5927 0.29676 0.0
C3681 C 0.12934 0.53453 0.31088 0.0
C3682 C 0.11252 0.54411 0.32249 0.0
H3683 H 0.15247 0.53749 0.28577 0.0
H3684 H 0.13482 0.51843 0.31496 0.0
C3685 C 0.106 0.56519 0.31735 0.0
C3686 C 0.37 0.46506 0.81064 0.0
C3687 C 0.38688 0.4555 0.82219 0.0
H3688 H 0.34685 0.46208 0.78555 0.0
C3689 C 0.39348 0.43446 0.81697 0.0
H3690 H 0.36446 0.48112 0.81479 0.0
C3691 C 0.38334 0.42326 0.80003 0.0
C3692 C 0.36624 0.43288 0.78849 0.0
H3693 H 0.40607 0.42659 0.82623 0.0
H3694 H 0.38858 0.40699 0.79631 0.0
C3695 C 0.35991 0.45402 0.79393 0.0
C3696 C 0.9323 0.81522 0.64352 0.0
C3697 C 0.92717 0.79415 0.63694 0.0
H3698 H 0.95292 0.84273 0.63869 0.0
C3699 C 0.93884 0.78459 0.62015 0.0
H3700 H 0.92295 0.82309 0.65605 0.0
C3701 C 0.95558 0.79565 0.61013 0.0
C3702 C 0.96093 0.81681 0.61644 0.0
H3703 H 0.93477 0.76851 0.61463 0.0
H3704 H 0.96405 0.78758 0.59713 0.0
C3705 C 0.94926 0.82645 0.63346 0.0
C3706 C 0.96503 0.18876 0.36987 0.0
C3707 C 0.95558 0.17715 0.38677 0.0
H3708 H 0.96188 0.21387 0.34677 0.0
C3709 C 0.93454 0.18227 0.39344 0.0
H3710 H 0.98109 0.18468 0.36427 0.0
C3711 C 0.92323 0.19918 0.38337 0.0
C3712 C 0.93275 0.21079 0.36626 0.0
H3713 H 0.92675 0.17297 0.40605 0.0
H3714 H 0.90697 0.20283 0.38867 0.0
C3715 C 0.9539 0.20544 0.35985 0.0
C3716 C 0.55028 0.17314 0.13334 0.0
C3717 C 0.53868 0.1828 0.11629 0.0
H3718 H 0.57654 0.17643 0.156 0.0
C3719 C 0.5441 0.20396 0.11 0.0
H3720 H 0.54658 0.15686 0.13856 0.0
C3721 C 0.56084 0.21497 0.12007 0.0
C3722 C 0.57243 0.20539 0.13689 0.0
H3723 H 0.53568 0.21204 0.09698 0.0
H3724 H 0.56496 0.23105 0.11456 0.0
C3725 C 0.56724 0.18432 0.14346 0.0
C3726 C 0.54556 0.79405 0.85981 0.0
C3727 C 0.56674 0.78872 0.8661 0.0
H3728 H 0.51839 0.81481 0.86434 0.0
C3729 C 0.57638 0.8004 0.88311 0.0
H3730 H 0.53748 0.78557 0.84682 0.0
C3731 C 0.56513 0.81735 0.89319 0.0
C3732 C 0.54405 0.82244 0.88664 0.0
H3733 H 0.59267 0.79676 0.88831 0.0
H3734 H 0.573 0.8267 0.90571 0.0
C3735 C 0.53449 0.81077 0.86985 0.0
C3736 C 0.95556 0.20407 0.88964 0.0
C3737 C 0.96095 0.18291 0.88331 0.0
H3738 H 0.93475 0.23121 0.88512 0.0
C3739 C 0.94934 0.1733 0.86624 0.0
H3740 H 0.96399 0.21212 0.90267 0.0
C3741 C 0.9324 0.18453 0.85614 0.0
C3742 C 0.92724 0.20559 0.86274 0.0
H3743 H 0.95302 0.15703 0.861 0.0
H3744 H 0.9231 0.17668 0.84358 0.0
C3745 C 0.93885 0.21513 0.87958 0.0
C3746 C 0.5347 0.18907 0.62968 0.0
C3747 C 0.5443 0.17751 0.61283 0.0
H3748 H 0.53762 0.21418 0.65282 0.0
C3749 C 0.56537 0.18269 0.60631 0.0
H3750 H 0.51861 0.18495 0.63516 0.0
C3751 C 0.57655 0.19963 0.61646 0.0
C3752 C 0.56688 0.2112 0.63353 0.0
H3753 H 0.57327 0.17342 0.59375 0.0
H3754 H 0.59284 0.20333 0.61127 0.0
C3755 C 0.54571 0.20578 0.63979 0.0
C3756 C 0.54414 0.79565 0.38965 0.0
C3757 C 0.53879 0.81682 0.38333 0.0
H3758 H 0.56491 0.76848 0.38512 0.0
C3759 C 0.55044 0.82643 0.36628 0.0
H3760 H 0.53568 0.7876 0.40266 0.0
C3761 C 0.56738 0.81518 0.35619 0.0
C3762 C 0.57249 0.7941 0.36277 0.0
H3763 H 0.5468 0.84272 0.36105 0.0
H3764 H 0.5767 0.82303 0.34364 0.0
C3765 C 0.56084 0.78457 0.3796 0.0
C3766 C 0.954 0.79406 0.13984 0.0
C3767 C 0.93285 0.7887 0.13344 0.0
H3768 H 0.98116 0.81485 0.13544 0.0
C3769 C 0.9233 0.80035 0.11637 0.0
H3770 H 0.962 0.78559 0.15288 0.0
C3771 C 0.93458 0.8173 0.10633 0.0
C3772 C 0.95562 0.82242 0.11299 0.0
H3773 H 0.90703 0.7967 0.11108 0.0
H3774 H 0.92677 0.82663 0.09376 0.0
C3775 C 0.9651 0.81078 0.12985 0.0
C3776 C 0.60978 0.95555 0.79543 0.0
C3777 C 0.61602 0.96092 0.81662 0.0
H3778 H 0.6144 0.93476 0.7683 0.0
C3779 C 0.63304 0.94928 0.8263 0.0
H3780 H 0.59679 0.964 0.78733 0.0
C3781 C 0.64316 0.93233 0.8151 0.0
C3782 C 0.63665 0.9272 0.79401 0.0
H3783 H 0.63821 0.95294 0.8426 0.0
H3784 H 0.65568 0.92301 0.82301 0.0
C3785 C 0.61986 0.93883 0.78441 0.0
C3786 C 0.81722 0.89327 0.56521 0.0
C3787 C 0.82239 0.88666 0.54416 0.0
H3788 H 0.79657 0.88843 0.5927 0.0
C3789 C 0.81078 0.86982 0.53461 0.0
H3790 H 0.82652 0.90583 0.57307 0.0
C3791 C 0.79405 0.85978 0.54566 0.0
C3792 C 0.78864 0.86612 0.56681 0.0
H3793 H 0.81489 0.86427 0.51855 0.0
H3794 H 0.78561 0.84675 0.53761 0.0
C3795 C 0.80026 0.88318 0.57643 0.0
C3796 C 0.86631 0.04993 0.32654 0.0
C3797 C 0.88345 0.03841 0.31694 0.0
H3798 H 0.84352 0.07606 0.32316 0.0
C3799 C 0.88978 0.04385 0.29579 0.0
H3800 H 0.86107 0.04621 0.3428 0.0
C3801 C 0.87965 0.06052 0.28473 0.0
C3802 C 0.86273 0.07203 0.29426 0.0
H3803 H 0.90286 0.03549 0.28775 0.0
H3804 H 0.88519 0.06466 0.26867 0.0
C3805 C 0.85614 0.06683 0.31531 0.0
C3806 C 0.6822 0.10585 0.06517 0.0
C3807 C 0.67709 0.11246 0.0441 0.0
H3808 H 0.7028 0.11064 0.0927 0.0
C3809 C 0.68878 0.12925 0.03457 0.0
H3810 H 0.67283 0.09333 0.07302 0.0
C3811 C 0.70552 0.13925 0.04564 0.0
C3812 C 0.71086 0.13291 0.06681 0.0
H3813 H 0.68473 0.1348 0.01849 0.0
H3814 H 0.71401 0.15224 0.0376 0.0
C3815 C 0.69917 0.11589 0.07642 0.0
C3816 C 0.61005 0.04429 0.70388 0.0
C3817 C 0.6164 0.03891 0.68272 0.0
H3818 H 0.61454 0.06509 0.73103 0.0
C3819 C 0.63345 0.05055 0.67312 0.0
H3820 H 0.59703 0.03584 0.71192 0.0
C3821 C 0.64353 0.0675 0.68436 0.0
C3822 C 0.63692 0.07264 0.70542 0.0
H3823 H 0.6387 0.04688 0.65684 0.0
H3824 H 0.65609 0.07682 0.67651 0.0
C3825 C 0.62008 0.06101 0.71495 0.0
C3826 C 0.70567 0.85982 0.45403 0.0
C3827 C 0.71108 0.86613 0.43287 0.0
H3828 H 0.68485 0.8644 0.48115 0.0
C3829 C 0.69949 0.88321 0.42324 0.0
H3830 H 0.71408 0.84678 0.46209 0.0
C3831 C 0.68256 0.89334 0.43445 0.0
C3832 C 0.67738 0.88677 0.45551 0.0
H3833 H 0.70319 0.88843 0.40696 0.0
H3834 H 0.67328 0.90591 0.42658 0.0
C3835 C 0.68896 0.86991 0.46507 0.0
C3836 C 0.86634 0.94954 0.17342 0.0
C3837 C 0.88347 0.9611 0.18301 0.0
H3838 H 0.84363 0.92334 0.17682 0.0
C3839 C 0.88983 0.95567 0.20415 0.0
H3840 H 0.86107 0.95326 0.15717 0.0
C3841 C 0.87977 0.93895 0.2152 0.0
C3842 C 0.86288 0.9274 0.20569 0.0
H3843 H 0.9029 0.96406 0.21218 0.0
H3844 H 0.88534 0.93481 0.23125 0.0
C3845 C 0.85623 0.9326 0.18465 0.0
C3846 C 0.81083 0.12931 0.96515 0.0
C3847 C 0.82249 0.11254 0.95555 0.0
H3848 H 0.78567 0.15238 0.96221 0.0
C3849 C 0.81739 0.10604 0.93445 0.0
H3850 H 0.81489 0.13477 0.98126 0.0
C3851 C 0.80045 0.11617 0.92323 0.0
C3852 C 0.7888 0.13317 0.93291 0.0
H3853 H 0.82674 0.09354 0.92655 0.0
H3854 H 0.79682 0.11101 0.90692 0.0
C3855 C 0.79413 0.1394 0.95411 0.0
C3856 C 0.81515 0.64337 0.9323 0.0
C3857 C 0.79411 0.63671 0.92715 0.0
H3858 H 0.84267 0.63858 0.95292 0.0
C3859 C 0.78462 0.61983 0.93876 0.0
H3860 H 0.82296 0.65595 0.923 0.0
C3861 C 0.79571 0.60981 0.95548 0.0
C3862 C 0.81685 0.6162 0.96086 0.0
H3863 H 0.76856 0.61425 0.93467 0.0
H3864 H 0.7877 0.59676 0.96391 0.0
C3865 C 0.82642 0.6333 0.94924 0.0
C3866 C 0.31521 0.85639 0.06738 0.0
C3867 C 0.29416 0.863 0.07253 0.0
H3868 H 0.34272 0.86122 0.04675 0.0
C3869 C 0.28463 0.87986 0.06092 0.0
H3870 H 0.32305 0.84382 0.07668 0.0
C3871 C 0.2957 0.8899 0.0442 0.0
C3872 C 0.31685 0.88355 0.03881 0.0
H3873 H 0.26856 0.88541 0.06501 0.0
H3874 H 0.28766 0.90293 0.03577 0.0
C3875 C 0.32645 0.86648 0.05043 0.0
C3876 C 0.89374 0.56524 0.81717 0.0
C3877 C 0.88724 0.54415 0.82232 0.0
H3878 H 0.88875 0.59272 0.79654 0.0
C3879 C 0.87045 0.53452 0.81071 0.0
H3880 H 0.90626 0.57316 0.82648 0.0
C3881 C 0.86035 0.54553 0.794 0.0
C3882 C 0.86657 0.56672 0.78861 0.0
H3883 H 0.86501 0.51842 0.8148 0.0
H3884 H 0.84735 0.53742 0.78557 0.0
C3885 C 0.88359 0.57642 0.80022 0.0
C3886 C 0.17336 0.13335 0.5503 0.0
C3887 C 0.18294 0.11624 0.53871 0.0
H3888 H 0.17679 0.15606 0.57649 0.0
C3889 C 0.2041 0.10991 0.54409 0.0
H3890 H 0.15708 0.13859 0.54663 0.0
C3891 C 0.21519 0.11999 0.56076 0.0
C3892 C 0.20568 0.13687 0.57235 0.0
H3893 H 0.21213 0.09685 0.53567 0.0
H3894 H 0.23126 0.11444 0.56485 0.0
C3895 C 0.18462 0.14347 0.5672 0.0
C3896 C 0.11655 0.92335 0.80036 0.0
C3897 C 0.13366 0.9329 0.78876 0.0
H3898 H 0.09385 0.92683 0.82657 0.0
C3899 C 0.14005 0.95404 0.79415 0.0
H3900 H 0.11126 0.90709 0.79669 0.0
C3901 C 0.13002 0.96515 0.81084 0.0
C3902 C 0.11312 0.95567 0.82243 0.0
H3903 H 0.15312 0.96204 0.78573 0.0
H3904 H 0.13561 0.9812 0.81494 0.0
C3905 C 0.10646 0.93463 0.81728 0.0
C3906 C 0.67312 0.36651 0.44927 0.0
C3907 C 0.68278 0.38356 0.46087 0.0
H3908 H 0.67644 0.3438 0.42306 0.0
C3909 C 0.70396 0.38982 0.45548 0.0
H3910 H 0.65682 0.36133 0.45294 0.0
C3911 C 0.715 0.37971 0.43879 0.0
C3912 C 0.70541 0.36287 0.42721 0.0
H3913 H 0.71204 0.40284 0.4639 0.0
H3914 H 0.73109 0.38518 0.4347 0.0
C3915 C 0.68433 0.35635 0.43235 0.0
C3916 C 0.87015 0.46503 0.68863 0.0
C3917 C 0.88693 0.45541 0.677 0.0
H3918 H 0.8471 0.46214 0.71382 0.0
C3919 C 0.89344 0.43432 0.68214 0.0
H3920 H 0.86469 0.48113 0.68454 0.0
C3921 C 0.88332 0.42315 0.69911 0.0
C3922 C 0.86633 0.43285 0.71076 0.0
H3923 H 0.90595 0.42641 0.67282 0.0
H3924 H 0.8885 0.40685 0.70279 0.0
C3925 C 0.86008 0.45403 0.70537 0.0
C3926 C 0.61635 0.57633 0.19927 0.0
C3927 C 0.63345 0.56675 0.21087 0.0
H3928 H 0.59367 0.5729 0.17304 0.0
C3929 C 0.63979 0.54559 0.20549 0.0
H3930 H 0.6111 0.5926 0.20293 0.0
C3931 C 0.62973 0.53451 0.1888 0.0
C3932 C 0.61287 0.54402 0.1772 0.0
H3933 H 0.65284 0.53756 0.21392 0.0
H3934 H 0.63529 0.51843 0.18471 0.0
C3935 C 0.60625 0.56507 0.18234 0.0
C3936 C 0.56069 0.71506 0.87969 0.0
C3937 C 0.57229 0.70554 0.86283 0.0
H3938 H 0.53557 0.712 0.9028 0.0
C3939 C 0.56716 0.68447 0.85623 0.0
H3940 H 0.56477 0.73113 0.88523 0.0
C3941 C 0.55024 0.67322 0.86634 0.0
C3942 C 0.53863 0.68281 0.88343 0.0
H3943 H 0.57645 0.67664 0.84365 0.0
H3944 H 0.54658 0.65694 0.8611 0.0
C3945 C 0.544 0.70397 0.88976 0.0
C3946 C 0.53471 0.31057 0.12973 0.0
C3947 C 0.54423 0.32215 0.11285 0.0
H3948 H 0.53774 0.28547 0.15285 0.0
C3949 C 0.56528 0.31698 0.10623 0.0
H3950 H 0.51865 0.31469 0.13529 0.0
C3951 C 0.57653 0.30005 0.11634 0.0
C3952 C 0.56693 0.28846 0.13345 0.0
H3953 H 0.57312 0.32626 0.09364 0.0
H3954 H 0.59279 0.29635 0.11109 0.0
C3955 C 0.54578 0.29387 0.13979 0.0
C3956 C 0.95546 0.29542 0.3896 0.0
C3957 C 0.96079 0.3166 0.38329 0.0
H3958 H 0.93468 0.26826 0.38511 0.0
C3959 C 0.9491 0.32622 0.36628 0.0
H3960 H 0.96396 0.28737 0.40259 0.0
C3961 C 0.93214 0.31498 0.35622 0.0
C3962 C 0.92705 0.2939 0.36281 0.0
H3963 H 0.95273 0.34251 0.36105 0.0
H3964 H 0.92278 0.32284 0.34371 0.0
C3965 C 0.93873 0.28435 0.37959 0.0
C3966 C 0.93453 0.68249 0.60634 0.0
C3967 C 0.95558 0.67733 0.61298 0.0
H3968 H 0.90701 0.7031 0.61116 0.0
C3969 C 0.96508 0.68894 0.62985 0.0
H3970 H 0.9267 0.67319 0.59376 0.0
C3971 C 0.954 0.70565 0.63988 0.0
C3972 C 0.93285 0.71104 0.63351 0.0
H3973 H 0.98115 0.68484 0.63542 0.0
H3974 H 0.96202 0.71408 0.65293 0.0
C3975 C 0.92327 0.69942 0.61643 0.0
C3976 C 0.54406 0.29589 0.61004 0.0
C3977 C 0.53864 0.31704 0.61637 0.0
H3978 H 0.56486 0.26876 0.61458 0.0
C3979 C 0.5502 0.32663 0.63349 0.0
H3980 H 0.53566 0.28785 0.59697 0.0
C3981 C 0.56712 0.31539 0.64363 0.0
C3982 C 0.5723 0.29434 0.63702 0.0
H3983 H 0.5465 0.3429 0.63874 0.0
H3984 H 0.57638 0.32323 0.65623 0.0
C3985 C 0.56074 0.28482 0.62013 0.0
C3986 C 0.93451 0.3172 0.89348 0.0
C3987 C 0.95557 0.32235 0.88687 0.0
H3988 H 0.90698 0.29661 0.88861 0.0
C3989 C 0.96508 0.31076 0.86999 0.0
H3990 H 0.92668 0.32649 0.90607 0.0
C3991 C 0.954 0.29407 0.85993 0.0
C3992 C 0.93284 0.28869 0.86627 0.0
H3993 H 0.98115 0.31486 0.86445 0.0
H3994 H 0.96203 0.28566 0.84687 0.0
C3995 C 0.92326 0.30028 0.88337 0.0
C3996 C 0.94922 0.67329 0.13316 0.0
C3997 C 0.96089 0.68296 0.11615 0.0
H3998 H 0.92292 0.67662 0.15576 0.0
C3999 C 0.95553 0.70413 0.10987 0.0
H4000 H 0.95288 0.657 0.13835 0.0
C4001 C 0.9388 0.71517 0.11991 0.0
C4002 C 0.92714 0.70559 0.1367 0.0
H4003 H 0.96401 0.71222 0.09689 0.0
H4004 H 0.93473 0.73127 0.11442 0.0
C4005 C 0.93226 0.68451 0.14324 0.0
C4006 C 0.53455 0.68889 0.36976 0.0
C4007 C 0.54407 0.67725 0.3866 0.0
H4008 H 0.53761 0.71406 0.34671 0.0
C4009 C 0.56514 0.68236 0.3932 0.0
H4010 H 0.51848 0.68482 0.36422 0.0
C4011 C 0.5764 0.6993 0.38312 0.0
C4012 C 0.56681 0.71095 0.36607 0.0
H4013 H 0.57298 0.67304 0.40576 0.0
H4014 H 0.59268 0.70295 0.38837 0.0
C4015 C 0.54564 0.7056 0.35973 0.0
C4016 C 0.87994 0.5606 0.71496 0.0
C4017 C 0.86303 0.57216 0.70548 0.0
H4018 H 0.90306 0.53548 0.71188 0.0
C4019 C 0.85636 0.56697 0.68445 0.0
H4020 H 0.88554 0.56472 0.731 0.0
C4021 C 0.86645 0.55004 0.67319 0.0
C4022 C 0.88358 0.53847 0.68274 0.0
H4023 H 0.84374 0.57624 0.67664 0.0
H4024 H 0.86115 0.54634 0.65694 0.0
C4025 C 0.88998 0.54389 0.70387 0.0
C4026 C 0.70561 0.63949 0.95389 0.0
C4027 C 0.71097 0.6332 0.93271 0.0
H4028 H 0.68484 0.63492 0.98104 0.0
C4029 C 0.69936 0.61613 0.92309 0.0
H4030 H 0.71404 0.65252 0.96195 0.0
C4031 C 0.68243 0.60601 0.93433 0.0
C4032 C 0.6773 0.61258 0.9554 0.0
H4033 H 0.70302 0.61092 0.90681 0.0
H4034 H 0.67312 0.59345 0.92647 0.0
C4035 C 0.68891 0.62941 0.96496 0.0
C4036 C 0.62009 0.43877 0.21501 0.0
C4037 C 0.63694 0.42717 0.20547 0.0
H4038 H 0.59698 0.4639 0.212 0.0
C4039 C 0.64354 0.43233 0.18442 0.0
H4040 H 0.61455 0.43466 0.23108 0.0
C4041 C 0.63344 0.44927 0.17319 0.0
C4042 C 0.61635 0.46087 0.1828 0.0
H4043 H 0.65611 0.42304 0.17656 0.0
H4044 H 0.63868 0.45295 0.15691 0.0
C4045 C 0.61002 0.45547 0.20395 0.0
C4046 C 0.7939 0.35981 0.45406 0.0
C4047 C 0.78853 0.36609 0.43288 0.0
H4048 H 0.8147 0.36437 0.48119 0.0
C4049 C 0.80018 0.38311 0.42323 0.0
H4050 H 0.78544 0.34681 0.46214 0.0
C4051 C 0.81713 0.39322 0.43444 0.0
C4052 C 0.82226 0.38667 0.45552 0.0
H4053 H 0.79652 0.38831 0.40694 0.0
H4054 H 0.82645 0.40574 0.42656 0.0
C4055 C 0.81062 0.36987 0.4651 0.0
C4056 C 0.88005 0.43898 0.78453 0.0
C4057 C 0.86312 0.42745 0.79402 0.0
H4058 H 0.90322 0.46404 0.78759 0.0
C4059 C 0.85648 0.43265 0.81505 0.0
H4060 H 0.88562 0.43485 0.76847 0.0
C4061 C 0.86661 0.44955 0.82631 0.0
C4062 C 0.88375 0.46109 0.81674 0.0
H4063 H 0.84385 0.4234 0.82287 0.0
H4064 H 0.86133 0.45327 0.84256 0.0
C4065 C 0.89013 0.45566 0.79561 0.0
C4066 C 0.79411 0.63972 0.04548 0.0
C4067 C 0.78875 0.63342 0.06665 0.0
H4068 H 0.81491 0.63519 0.01834 0.0
C4069 C 0.80041 0.61639 0.07629 0.0
H4070 H 0.78565 0.65272 0.03741 0.0
C4071 C 0.81737 0.60631 0.06506 0.0
C4072 C 0.82249 0.61288 0.04399 0.0
H4073 H 0.79676 0.61117 0.09258 0.0
H4074 H 0.8267 0.59378 0.07293 0.0
C4075 C 0.81084 0.62968 0.03443 0.0
C4076 C 0.64342 0.56721 0.31502 0.0
C4077 C 0.63685 0.57237 0.29395 0.0
H4078 H 0.63852 0.54659 0.34251 0.0
C4079 C 0.62001 0.56077 0.28439 0.0
H4080 H 0.65598 0.5765 0.32289 0.0
C4081 C 0.60993 0.54406 0.29544 0.0
C4082 C 0.61623 0.53867 0.3166 0.0
H4083 H 0.6145 0.56487 0.26831 0.0
H4084 H 0.5969 0.53564 0.28737 0.0
C4085 C 0.6333 0.55027 0.32623 0.0
C4086 C 0.68891 0.37025 0.53456 0.0
C4087 C 0.67732 0.38714 0.54404 0.0
H4088 H 0.71402 0.34714 0.53766 0.0
C4089 C 0.68247 0.39379 0.56509 0.0
H4090 H 0.68481 0.36467 0.51851 0.0
C4091 C 0.69939 0.3837 0.57636 0.0
C4092 C 0.71098 0.36659 0.56681 0.0
H4093 H 0.67318 0.40639 0.5729 0.0
H4094 H 0.70306 0.38899 0.59262 0.0
C4095 C 0.7056 0.36021 0.54567 0.0
C4096 C 0.68444 0.85629 0.56721 0.0
C4097 C 0.70552 0.86283 0.57237 0.0
H4098 H 0.65696 0.86121 0.54658 0.0
C4099 C 0.71511 0.87965 0.56075 0.0
H4100 H 0.67656 0.84375 0.57651 0.0
C4101 C 0.70408 0.88972 0.54403 0.0
C4102 C 0.6829 0.88345 0.53864 0.0
H4103 H 0.73119 0.88514 0.56485 0.0
H4104 H 0.71216 0.90273 0.5356 0.0
C4105 C 0.67324 0.86641 0.55026 0.0
C4106 C 0.21498 0.61994 0.43876 0.0
C4107 C 0.20544 0.63679 0.42717 0.0
H4108 H 0.21196 0.59683 0.46388 0.0
C4109 C 0.18437 0.64337 0.43231 0.0
H4110 H 0.23106 0.61442 0.43468 0.0
C4111 C 0.17313 0.63325 0.44923 0.0
C4112 C 0.18274 0.61618 0.46084 0.0
H4113 H 0.17651 0.65594 0.42301 0.0
H4114 H 0.15685 0.63848 0.4529 0.0
C4115 C 0.20391 0.60986 0.45546 0.0
C4116 C 0.61634 0.92336 0.69926 0.0
C4117 C 0.63343 0.9329 0.7109 0.0
H4118 H 0.59372 0.92684 0.673 0.0
C4119 C 0.63984 0.95404 0.70554 0.0
H4120 H 0.61104 0.9071 0.70292 0.0
C4121 C 0.62985 0.96515 0.68882 0.0
C4122 C 0.61298 0.95569 0.67719 0.0
H4123 H 0.65289 0.96204 0.71399 0.0
H4124 H 0.63545 0.98121 0.68474 0.0
C4125 C 0.6063 0.93464 0.68232 0.0
C4126 C 0.3265 0.36642 0.94931 0.0
C4127 C 0.31692 0.38349 0.96094 0.0
H4128 H 0.32307 0.34378 0.92305 0.0
C4129 C 0.29577 0.38986 0.95557 0.0
H4130 H 0.34277 0.36115 0.95297 0.0
C4131 C 0.28468 0.37983 0.93886 0.0
C4132 C 0.29419 0.36298 0.92723 0.0
H4133 H 0.28774 0.40289 0.96402 0.0
H4134 H 0.26861 0.3854 0.93478 0.0
C4135 C 0.31524 0.35635 0.93236 0.0
C4136 C 0.36981 0.53466 0.6888 0.0
C4137 C 0.38665 0.54424 0.67723 0.0
H4138 H 0.3467 0.53761 0.71393 0.0
C4139 C 0.39322 0.5653 0.68242 0.0
H4140 H 0.36429 0.51859 0.68467 0.0
C4141 C 0.3831 0.57649 0.69937 0.0
C4142 C 0.36603 0.56684 0.71096 0.0
H4143 H 0.40579 0.57318 0.67314 0.0
H4144 H 0.38832 0.59276 0.70308 0.0
C4145 C 0.35973 0.54568 0.70552 0.0
C4146 C 0.81513 0.14279 0.06736 0.0
C4147 C 0.79407 0.13613 0.07247 0.0
H4148 H 0.84267 0.13806 0.04675 0.0
C4149 C 0.7846 0.11928 0.06081 0.0
H4150 H 0.82293 0.15536 0.07669 0.0
C4151 C 0.79571 0.10931 0.04408 0.0
C4152 C 0.81685 0.11571 0.03872 0.0
H4153 H 0.76853 0.11369 0.06488 0.0
H4154 H 0.78769 0.09628 0.0356 0.0
C4155 C 0.82641 0.13277 0.0504 0.0
C4156 C 0.62955 0.0346 0.81051 0.0
C4157 C 0.61265 0.0441 0.82208 0.0
H4158 H 0.65272 0.03767 0.78545 0.0
C4159 C 0.60604 0.06515 0.81692 0.0
H4160 H 0.6351 0.01853 0.81462 0.0
C4161 C 0.61618 0.07642 0.80003 0.0
C4162 C 0.63331 0.06685 0.78847 0.0
H4163 H 0.59343 0.07298 0.82619 0.0
H4164 H 0.61093 0.09269 0.79635 0.0
C4165 C 0.63964 0.04569 0.79385 0.0
C4166 C 0.87016 0.96491 0.31099 0.0
C4167 C 0.88702 0.95534 0.32256 0.0
H4168 H 0.84702 0.96196 0.2859 0.0
C4169 C 0.89358 0.93428 0.31736 0.0
H4170 H 0.86465 0.98099 0.31512 0.0
C4171 C 0.88344 0.92308 0.30042 0.0
C4172 C 0.86636 0.93273 0.28885 0.0
H4173 H 0.90616 0.9264 0.32663 0.0
H4174 H 0.88866 0.90681 0.29671 0.0
C4175 C 0.86006 0.95388 0.29429 0.0
C4176 C 0.44946 0.32636 0.13335 0.0
C4177 C 0.46106 0.31669 0.1163 0.0
H4178 H 0.42321 0.32307 0.15602 0.0
C4179 C 0.45564 0.29553 0.11002 0.0
H4180 H 0.45316 0.34264 0.13855 0.0
C4181 C 0.43891 0.28451 0.1201 0.0
C4182 C 0.42732 0.29411 0.13692 0.0
H4183 H 0.46406 0.28744 0.097 0.0
H4184 H 0.43479 0.26843 0.11461 0.0
C4185 C 0.4325 0.31517 0.14347 0.0
C4186 C 0.42316 0.69916 0.88343 0.0
C4187 C 0.43274 0.71082 0.86638 0.0
H4188 H 0.42659 0.67289 0.90605 0.0
C4189 C 0.45391 0.70548 0.86004 0.0
H4190 H 0.40688 0.7028 0.88868 0.0
C4191 C 0.46501 0.68878 0.87007 0.0
C4192 C 0.4555 0.67713 0.8869 0.0
H4193 H 0.46194 0.71395 0.84702 0.0
H4194 H 0.48109 0.68472 0.86452 0.0
C4195 C 0.43443 0.68223 0.8935 0.0
C4196 C 0.04408 0.70406 0.61015 0.0
C4197 C 0.03873 0.68288 0.61641 0.0
H4198 H 0.06486 0.73121 0.61474 0.0
C4199 C 0.05036 0.67323 0.63345 0.0
H4200 H 0.03563 0.71214 0.59714 0.0
C4201 C 0.0673 0.68445 0.64357 0.0
C4202 C 0.07242 0.70554 0.63703 0.0
H4203 H 0.0467 0.65694 0.63864 0.0
H4204 H 0.07662 0.67657 0.6561 0.0
C4205 C 0.06079 0.71511 0.62022 0.0
C4206 C 0.04556 0.29394 0.35967 0.0
C4207 C 0.06673 0.2886 0.36601 0.0
H4208 H 0.01838 0.3147 0.36416 0.0
C4209 C 0.07631 0.30024 0.38308 0.0
H4210 H 0.03753 0.28549 0.34664 0.0
C4211 C 0.06504 0.31716 0.39317 0.0
C4212 C 0.04397 0.32227 0.38656 0.0
H4213 H 0.09259 0.2966 0.38833 0.0
H4214 H 0.07286 0.32648 0.40573 0.0
C4215 C 0.03446 0.31064 0.36971 0.0
C4216 C 0.4323 0.68455 0.3562 0.0
C4217 C 0.42719 0.70562 0.3628 0.0
H4218 H 0.4529 0.65702 0.36101 0.0
C4219 C 0.43884 0.71515 0.37962 0.0
H4220 H 0.42296 0.67671 0.34365 0.0
C4221 C 0.45557 0.70407 0.38964 0.0
C4222 C 0.46092 0.68291 0.3833 0.0
H4223 H 0.43478 0.73123 0.38516 0.0
H4224 H 0.46404 0.71211 0.40265 0.0
C4225 C 0.44925 0.6733 0.36626 0.0
C4226 C 0.03458 0.68902 0.12977 0.0
C4227 C 0.0441 0.67742 0.11291 0.0
H4228 H 0.03762 0.71413 0.15289 0.0
C4229 C 0.06517 0.68256 0.10632 0.0
H4230 H 0.0185 0.68493 0.13531 0.0
C4231 C 0.07642 0.69947 0.11643 0.0
C4232 C 0.06683 0.71107 0.13352 0.0
H4233 H 0.07301 0.67326 0.09374 0.0
H4234 H 0.0927 0.70313 0.1112 0.0
C4235 C 0.04566 0.70571 0.13984 0.0
C4236 C 0.0673 0.31525 0.85631 0.0
C4237 C 0.07245 0.29417 0.86285 0.0
H4238 H 0.04667 0.34273 0.86123 0.0
C4239 C 0.06084 0.28459 0.87967 0.0
H4240 H 0.0766 0.32313 0.84377 0.0
C4241 C 0.04413 0.29562 0.88975 0.0
C4242 C 0.03874 0.31679 0.88347 0.0
H4243 H 0.06494 0.2685 0.88516 0.0
H4244 H 0.03569 0.28754 0.90276 0.0
C4245 C 0.05035 0.32645 0.86643 0.0
C4246 C 0.46511 0.31104 0.6297 0.0
C4247 C 0.45556 0.32263 0.61285 0.0
H4248 H 0.46211 0.28588 0.65278 0.0
C4249 C 0.43452 0.31745 0.60623 0.0
H4250 H 0.48117 0.31515 0.63525 0.0
C4251 C 0.4233 0.30049 0.61632 0.0
C4252 C 0.43292 0.28888 0.63338 0.0
H4253 H 0.42666 0.32675 0.59367 0.0
H4254 H 0.40704 0.29679 0.61106 0.0
C4255 C 0.45406 0.2943 0.63974 0.0
C4256 C 0.10951 0.4556 0.29564 0.0
C4257 C 0.11587 0.461 0.31678 0.0
H4258 H 0.11402 0.43479 0.26849 0.0
C4259 C 0.13298 0.44941 0.32636 0.0
H4260 H 0.09645 0.46401 0.28761 0.0
C4261 C 0.14309 0.43249 0.31511 0.0
C4262 C 0.13647 0.42733 0.29406 0.0
H4263 H 0.13824 0.4531 0.34263 0.0
H4264 H 0.15569 0.42322 0.32294 0.0
C4265 C 0.11958 0.4389 0.28456 0.0
C4266 C 0.31088 0.37009 0.03459 0.0
C4267 C 0.32254 0.38691 0.04411 0.0
H4268 H 0.28568 0.34707 0.03764 0.0
C4269 C 0.31744 0.39352 0.06518 0.0
H4270 H 0.31494 0.36454 0.01851 0.0
C4271 C 0.30048 0.38347 0.07644 0.0
C4272 C 0.28881 0.36643 0.06684 0.0
H4273 H 0.32678 0.40606 0.07302 0.0
H4274 H 0.29684 0.38872 0.09272 0.0
C4275 C 0.29416 0.36008 0.04568 0.0
C4276 C 0.36623 0.55012 0.82636 0.0
C4277 C 0.38333 0.53858 0.81672 0.0
H4278 H 0.34348 0.57629 0.82304 0.0
C4279 C 0.38962 0.54401 0.79556 0.0
H4280 H 0.36102 0.5464 0.84264 0.0
C4281 C 0.3795 0.5607 0.78453 0.0
C4282 C 0.36262 0.57224 0.7941 0.0
H4283 H 0.40267 0.53564 0.78749 0.0
H4284 H 0.385 0.56484 0.76846 0.0
C4285 C 0.35606 0.56704 0.81516 0.0
C4286 C 0.20558 0.6397 0.54556 0.0
C4287 C 0.21096 0.63335 0.56672 0.0
H4288 H 0.18478 0.6352 0.51842 0.0
C4289 C 0.19935 0.61627 0.57631 0.0
H4290 H 0.21401 0.65274 0.53753 0.0
C4291 C 0.18241 0.60618 0.56506 0.0
C4292 C 0.17726 0.61279 0.54401 0.0
H4293 H 0.20302 0.61101 0.59258 0.0
H4294 H 0.17311 0.5936 0.5729 0.0
C4295 C 0.18887 0.62965 0.53449 0.0
C4296 C 0.14331 0.56703 0.1846 0.0
C4297 C 0.13665 0.5722 0.20564 0.0
H4298 H 0.13849 0.54643 0.15707 0.0
C4299 C 0.11974 0.56063 0.21512 0.0
H4300 H 0.15592 0.5763 0.17679 0.0
C4301 C 0.10969 0.54394 0.20402 0.0
C4302 C 0.11607 0.53854 0.18288 0.0
H4303 H 0.11416 0.56474 0.23117 0.0
H4304 H 0.09661 0.53553 0.21203 0.0
C4305 C 0.1332 0.55011 0.17333 0.0
C4306 C 0.18896 0.37009 0.96508 0.0
C4307 C 0.1773 0.38689 0.95552 0.0
H4308 H 0.21415 0.34705 0.96207 0.0
C4309 C 0.1824 0.39344 0.93444 0.0
H4310 H 0.18491 0.36458 0.98117 0.0
C4311 C 0.19934 0.38336 0.92319 0.0
C4312 C 0.21101 0.36634 0.93282 0.0
H4313 H 0.17305 0.40597 0.92657 0.0
H4314 H 0.20298 0.38857 0.9069 0.0
C4315 C 0.20568 0.36004 0.95401 0.0
C4316 C 0.38966 0.45567 0.7039 0.0
C4317 C 0.38333 0.46109 0.68275 0.0
H4318 H 0.38514 0.43482 0.731 0.0
C4319 C 0.36626 0.4495 0.67312 0.0
H4320 H 0.4027 0.46408 0.71195 0.0
C4321 C 0.35615 0.43255 0.68433 0.0
C4322 C 0.36275 0.42736 0.70538 0.0
H4323 H 0.36101 0.4532 0.65686 0.0
H4324 H 0.34358 0.42326 0.67647 0.0
C4325 C 0.3796 0.43895 0.71494 0.0
C4326 C 0.31714 0.60632 0.43441 0.0
C4327 C 0.32229 0.6129 0.45547 0.0
H4328 H 0.29652 0.61119 0.40691 0.0
C4329 C 0.31067 0.62973 0.46503 0.0
H4330 H 0.32645 0.59376 0.42654 0.0
C4331 C 0.29395 0.63978 0.45398 0.0
C4332 C 0.28857 0.63347 0.43281 0.0
H4333 H 0.31476 0.63525 0.48111 0.0
H4334 H 0.28551 0.6528 0.46204 0.0
C4335 C 0.30019 0.61641 0.42319 0.0
C4336 C 0.29575 0.10993 0.4557 0.0
C4337 C 0.3169 0.11634 0.46107 0.0
H4338 H 0.26858 0.11435 0.43492 0.0
C4339 C 0.32643 0.13344 0.44945 0.0
H4340 H 0.28776 0.09687 0.46414 0.0
C4341 C 0.31515 0.1435 0.43252 0.0
C4342 C 0.29411 0.13683 0.42739 0.0
H4343 H 0.34269 0.13874 0.45311 0.0
H4344 H 0.32294 0.1561 0.42322 0.0
C4345 C 0.28464 0.11995 0.439 0.0
C4346 C 0.82637 0.36652 0.55036 0.0
C4347 C 0.81676 0.38355 0.5387 0.0
H4348 H 0.82298 0.34393 0.57667 0.0
C4349 C 0.7956 0.38991 0.54408 0.0
H4350 H 0.84263 0.36126 0.54669 0.0
C4351 C 0.78454 0.37991 0.56082 0.0
C4352 C 0.79408 0.36309 0.57247 0.0
H4353 H 0.78756 0.40292 0.53561 0.0
H4354 H 0.76847 0.38547 0.5649 0.0
C4355 C 0.81513 0.35647 0.56733 0.0
C4356 C 0.39353 0.0653 0.31723 0.0
C4357 C 0.38694 0.04425 0.32242 0.0
H4358 H 0.38862 0.09279 0.29659 0.0
C4359 C 0.37007 0.0347 0.31086 0.0
H4360 H 0.40611 0.07317 0.32649 0.0
C4361 C 0.35998 0.04574 0.29416 0.0
C4362 C 0.3663 0.06689 0.28873 0.0
H4363 H 0.36454 0.01863 0.31498 0.0
H4364 H 0.34693 0.03768 0.28576 0.0
C4365 C 0.38339 0.07652 0.3003 0.0
C4366 C 0.70408 0.6097 0.04392 0.0
C4367 C 0.68292 0.61601 0.03853 0.0
H4368 H 0.73122 0.61425 0.06472 0.0
C4369 C 0.6733 0.63309 0.05013 0.0
H4370 H 0.71213 0.59666 0.0355 0.0
C4371 C 0.68453 0.64321 0.06706 0.0
C4372 C 0.7056 0.63663 0.07221 0.0
H4373 H 0.65702 0.63832 0.04646 0.0
H4374 H 0.67667 0.65578 0.07635 0.0
C4375 C 0.71514 0.61978 0.06062 0.0
C4376 C 0.6297 0.46502 0.31063 0.0
C4377 C 0.61281 0.45551 0.32221 0.0
H4378 H 0.65284 0.46196 0.28555 0.0
C4379 C 0.60621 0.43445 0.31706 0.0
H4380 H 0.63524 0.48109 0.31472 0.0
C4381 C 0.61633 0.42319 0.30016 0.0
C4382 C 0.63344 0.43277 0.28858 0.0
H4383 H 0.59361 0.42662 0.32635 0.0
H4384 H 0.61109 0.40692 0.29648 0.0
C4385 C 0.63978 0.45393 0.29396 0.0
C4386 C 0.20403 0.8899 0.95572 0.0
C4387 C 0.18286 0.88362 0.96111 0.0
H4388 H 0.23116 0.88531 0.93492 0.0
C4389 C 0.17322 0.86655 0.94952 0.0
H4390 H 0.2121 0.90293 0.96413 0.0
C4391 C 0.18444 0.85641 0.93259 0.0
C4392 C 0.20551 0.86296 0.92744 0.0
H4393 H 0.15694 0.86134 0.9532 0.0
H4394 H 0.17657 0.84384 0.92331 0.0
C4395 C 0.21508 0.87981 0.93902 0.0
C4396 C 0.38323 0.92335 0.19949 0.0
C4397 C 0.36617 0.93298 0.21109 0.0
H4398 H 0.40591 0.92668 0.17325 0.0
C4399 C 0.35986 0.95414 0.20568 0.0
H4400 H 0.38846 0.90707 0.20319 0.0
C4401 C 0.36993 0.96518 0.18896 0.0
C4402 C 0.38677 0.95562 0.17737 0.0
H4403 H 0.34683 0.96221 0.21409 0.0
H4404 H 0.36441 0.98125 0.18485 0.0
C4405 C 0.39335 0.93456 0.18254 0.0
C4406 C 0.13996 0.04569 0.70576 0.0
C4407 C 0.13359 0.06684 0.71114 0.0
H4408 H 0.13547 0.01853 0.68497 0.0
C4409 C 0.11646 0.07639 0.69957 0.0
H4410 H 0.15303 0.03768 0.71416 0.0
C4411 C 0.10635 0.06512 0.68267 0.0
C4412 C 0.11299 0.04408 0.6775 0.0
H4413 H 0.11118 0.09266 0.70325 0.0
H4414 H 0.09373 0.07293 0.67339 0.0
C4415 C 0.12989 0.03459 0.68907 0.0
C4416 C 0.04472 0.10443 0.44903 0.0
C4417 C 0.03477 0.12403 0.45481 0.0
H4418 H 0.07163 0.08326 0.45339 0.0
C4419 C 0.04353 0.13605 0.47202 0.0
H4420 H 0.03837 0.09459 0.43604 0.0
C4421 C 0.06267 0.12942 0.48208 0.0
C4422 C 0.07343 0.11072 0.47504 0.0
H4423 H 0.03624 0.15115 0.477 0.0
H4424 H 0.06963 0.13955 0.49454 0.0
C4425 C 0.06386 0.09792 0.45896 0.0
C4426 C 0.1203 0.81258 0.73225 0.0
C4427 C 0.13899 0.82333 0.72517 0.0
H4428 H 0.09858 0.78612 0.72726 0.0
C4429 C 0.15178 0.81373 0.70911 0.0
H4430 H 0.11018 0.81957 0.74469 0.0
C4431 C 0.14529 0.79455 0.69924 0.0
C4432 C 0.1257 0.78461 0.70506 0.0
H4433 H 0.16644 0.82149 0.70351 0.0
H4434 H 0.15513 0.78817 0.68626 0.0
C4435 C 0.11368 0.7934 0.72225 0.0
C4436 C 0.43706 0.87027 0.982 0.0
C4437 C 0.42626 0.88893 0.97492 0.0
H4438 H 0.46354 0.84858 0.97695 0.0
C4439 C 0.43579 0.9017 0.9588 0.0
H4440 H 0.43013 0.86016 0.99448 0.0
C4441 C 0.45494 0.89521 0.94887 0.0
C4442 C 0.46494 0.87565 0.9547 0.0
H4443 H 0.428 0.91633 0.95319 0.0
H4444 H 0.46126 0.90504 0.93585 0.0
C4445 C 0.45621 0.86365 0.97194 0.0
C4446 C 0.38598 0.2063 0.22214 0.0
C4447 C 0.37399 0.21506 0.20492 0.0
H4448 H 0.38947 0.18017 0.24463 0.0
C4449 C 0.35443 0.20508 0.19906 0.0
H4450 H 0.40105 0.21361 0.22719 0.0
C4451 C 0.34794 0.1859 0.20893 0.0
C4452 C 0.36071 0.17634 0.22503 0.0
H4453 H 0.34461 0.21143 0.18605 0.0
H4454 H 0.33331 0.17811 0.2033 0.0
C4455 C 0.37936 0.18712 0.23215 0.0
C4456 C 0.0448 0.89532 0.05101 0.0
C4457 C 0.03481 0.87578 0.04513 0.0
H4458 H 0.07173 0.91647 0.04674 0.0
C4459 C 0.04354 0.86382 0.02786 0.0
H4460 H 0.03847 0.90511 0.06406 0.0
C4461 C 0.06268 0.87048 0.01781 0.0
C4462 C 0.07347 0.88913 0.02494 0.0
H4463 H 0.03622 0.84876 0.0228 0.0
H4464 H 0.06961 0.86041 0.0053 0.0
C4465 C 0.06394 0.90186 0.0411 0.0
C4466 C 0.38588 0.7936 0.27774 0.0
C4467 C 0.3739 0.78486 0.29498 0.0
H4468 H 0.38935 0.81972 0.25524 0.0
C4469 C 0.35437 0.79487 0.30088 0.0
H4470 H 0.40093 0.78626 0.27266 0.0
C4471 C 0.34789 0.81406 0.29102 0.0
C4472 C 0.36064 0.8236 0.27489 0.0
H4473 H 0.34457 0.78854 0.31391 0.0
H4474 H 0.33328 0.82186 0.29667 0.0
C4475 C 0.37926 0.81279 0.26774 0.0
C4476 C 0.43723 0.12982 0.51755 0.0
C4477 C 0.42651 0.1111 0.52459 0.0
H4478 H 0.46367 0.15156 0.52259 0.0
C4479 C 0.43616 0.09826 0.54058 0.0
H4480 H 0.43021 0.13998 0.50516 0.0
C4481 C 0.45534 0.10475 0.55044 0.0
C4482 C 0.46525 0.12437 0.54468 0.0
H4483 H 0.42843 0.08358 0.54614 0.0
H4484 H 0.46175 0.09487 0.56338 0.0
C4485 C 0.45641 0.13644 0.52755 0.0
C4486 C 0.15181 0.18606 0.79067 0.0
C4487 C 0.139 0.17643 0.77464 0.0
H4488 H 0.15515 0.21161 0.81352 0.0
C4489 C 0.12029 0.18716 0.76759 0.0
H4490 H 0.16649 0.17832 0.79625 0.0
C4491 C 0.11365 0.20632 0.7776 0.0
C4492 C 0.12568 0.21513 0.79477 0.0
H4493 H 0.11015 0.18015 0.75516 0.0
H4494 H 0.09853 0.21358 0.77262 0.0
C4495 C 0.1453 0.20522 0.80055 0.0
C4496 C 0.45879 0.06386 0.09804 0.0
C4497 C 0.47489 0.07342 0.11081 0.0
H4498 H 0.4359 0.03834 0.09472 0.0
C4499 C 0.48201 0.06264 0.12947 0.0
H4500 H 0.45317 0.07164 0.08341 0.0
C4501 C 0.47199 0.04347 0.13609 0.0
C4502 C 0.45477 0.03471 0.1241 0.0
H4503 H 0.49448 0.0696 0.13957 0.0
H4504 H 0.47703 0.03616 0.15117 0.0
C4505 C 0.44892 0.04469 0.10454 0.0
C4506 C 0.20614 0.22198 0.3861 0.0
C4507 C 0.21493 0.20477 0.37411 0.0
H4508 H 0.18002 0.24449 0.38954 0.0
C4509 C 0.205 0.19895 0.35451 0.0
H4510 H 0.21342 0.22699 0.4012 0.0
C4511 C 0.18585 0.20885 0.34797 0.0
C4512 C 0.17626 0.22495 0.36074 0.0
H4513 H 0.21137 0.18595 0.34469 0.0
H4514 H 0.17811 0.20325 0.33331 0.0
C4515 C 0.187 0.23202 0.37943 0.0
C4516 C 0.0408 0.93583 0.59828 0.0
C4517 C 0.02473 0.92626 0.61109 0.0
H4518 H 0.0637 0.96134 0.59492 0.0
C4519 C 0.01766 0.93703 0.62976 0.0
H4520 H 0.04639 0.92805 0.58364 0.0
C4521 C 0.0277 0.9562 0.63638 0.0
C4522 C 0.0449 0.96496 0.62435 0.0
H4523 H 0.00521 0.93008 0.63989 0.0
H4524 H 0.0227 0.9635 0.65147 0.0
C4525 C 0.0507 0.95499 0.60477 0.0
C4526 C 0.31366 0.79058 0.84828 0.0
C4527 C 0.32326 0.77455 0.86113 0.0
H4528 H 0.28813 0.81345 0.84489 0.0
C4529 C 0.31252 0.76754 0.87985 0.0
H4530 H 0.32141 0.79612 0.83361 0.0
C4531 C 0.29336 0.77759 0.88646 0.0
C4532 C 0.28457 0.79475 0.87438 0.0
H4533 H 0.3195 0.75513 0.89 0.0
H4534 H 0.28609 0.77264 0.90158 0.0
C4535 C 0.2945 0.80049 0.85477 0.0
C4536 C 0.48214 0.93709 0.37006 0.0
C4537 C 0.47507 0.92631 0.38874 0.0
H4538 H 0.47714 0.96358 0.34839 0.0
C4539 C 0.45901 0.93589 0.40155 0.0
H4540 H 0.49459 0.93012 0.35993 0.0
C4541 C 0.44914 0.95507 0.39508 0.0
C4542 C 0.45495 0.96505 0.37551 0.0
H4543 H 0.45342 0.92811 0.41619 0.0
H4544 H 0.43615 0.96143 0.40494 0.0
C4545 C 0.47213 0.95627 0.36347 0.0
C4546 C 0.29476 0.19914 0.64507 0.0
C4547 C 0.28479 0.20495 0.6255 0.0
H4548 H 0.32173 0.2034 0.66618 0.0
C4549 C 0.29357 0.22213 0.61345 0.0
H4550 H 0.2884 0.18616 0.65493 0.0
C4551 C 0.31276 0.23213 0.62005 0.0
C4552 C 0.32354 0.22505 0.63872 0.0
H4553 H 0.28627 0.22714 0.59837 0.0
H4554 H 0.31973 0.24457 0.60991 0.0
C4555 C 0.31395 0.209 0.65154 0.0
C4556 C 0.02782 0.04356 0.86353 0.0
C4557 C 0.04503 0.03483 0.87556 0.0
H4558 H 0.00529 0.06965 0.86 0.0
C4559 C 0.05084 0.04482 0.89512 0.0
H4560 H 0.02282 0.03624 0.84845 0.0
C4561 C 0.04092 0.06398 0.9016 0.0
C4562 C 0.02482 0.07352 0.8888 0.0
H4563 H 0.06385 0.03849 0.90496 0.0
H4564 H 0.04651 0.07177 0.91623 0.0
C4565 C 0.01776 0.06272 0.87013 0.0
C4566 C 0.20504 0.80079 0.1453 0.0
C4567 C 0.21499 0.79499 0.12571 0.0
H4568 H 0.17813 0.79644 0.16646 0.0
C4569 C 0.20625 0.77778 0.1137 0.0
H4570 H 0.21138 0.81379 0.15514 0.0
C4571 C 0.1871 0.76771 0.12033 0.0
C4572 C 0.17634 0.77477 0.13902 0.0
H4573 H 0.21354 0.77278 0.0986 0.0
H4574 H 0.18015 0.75525 0.11021 0.0
C4575 C 0.18589 0.79086 0.15181 0.0
C4576 C 0.1044 0.4491 0.04451 0.0
C4577 C 0.12401 0.45491 0.03459 0.0
H4578 H 0.08322 0.45339 0.07142 0.0
C4579 C 0.13603 0.47209 0.0434 0.0
H4580 H 0.09456 0.43612 0.03812 0.0
C4581 C 0.12938 0.48211 0.06256 0.0
C4582 C 0.11068 0.47503 0.07329 0.0
H4583 H 0.15113 0.47709 0.03613 0.0
H4584 H 0.1395 0.49454 0.06956 0.0
C4585 C 0.09788 0.45898 0.06368 0.0
C4586 C 0.59776 0.041 0.93546 0.0
C4587 C 0.61046 0.0248 0.92596 0.0
H4588 H 0.5945 0.06393 0.96096 0.0
C4589 C 0.62904 0.01759 0.93681 0.0
H4590 H 0.5832 0.04671 0.92763 0.0
C4591 C 0.63567 0.02758 0.956 0.0
C4592 C 0.62374 0.04488 0.96471 0.0
H4593 H 0.63909 0.00504 0.92991 0.0
H4594 H 0.65068 0.02245 0.96337 0.0
C4595 C 0.60426 0.05085 0.95465 0.0
C4596 C 0.2219 0.38637 0.20624 0.0
C4597 C 0.20473 0.3743 0.21499 0.0
H4598 H 0.24441 0.38994 0.18013 0.0
C4599 C 0.19898 0.35471 0.20501 0.0
H4600 H 0.22686 0.40147 0.21355 0.0
C4601 C 0.20891 0.34825 0.18586 0.0
C4602 C 0.22497 0.36109 0.1763 0.0
H4603 H 0.186 0.34483 0.21135 0.0
H4604 H 0.20336 0.33359 0.17808 0.0
C4605 C 0.23197 0.37978 0.18708 0.0
C4606 C 0.86381 0.97186 0.45635 0.0
C4607 C 0.87578 0.95462 0.4651 0.0
H4608 H 0.86037 0.99438 0.43024 0.0
C4609 C 0.89535 0.94876 0.45513 0.0
H4610 H 0.84873 0.97691 0.46365 0.0
C4611 C 0.90187 0.95865 0.43598 0.0
C4612 C 0.88911 0.97477 0.42642 0.0
H4613 H 0.90515 0.93573 0.46148 0.0
H4614 H 0.9165 0.95302 0.4282 0.0
C4615 C 0.87046 0.98189 0.43719 0.0
C4616 C 0.80033 0.14465 0.20518 0.0
C4617 C 0.79455 0.12506 0.21515 0.0
H4618 H 0.79606 0.16574 0.1782 0.0
C4619 C 0.77742 0.11297 0.20633 0.0
H4620 H 0.81326 0.15454 0.21158 0.0
C4621 C 0.76744 0.11953 0.18712 0.0
C4622 C 0.77449 0.13822 0.17635 0.0
H4623 H 0.77245 0.09787 0.21363 0.0
H4624 H 0.75505 0.10936 0.18012 0.0
C4625 C 0.79049 0.15108 0.18597 0.0
C4626 C 0.36359 0.5277 0.54333 0.0
C4627 C 0.37559 0.54492 0.53457 0.0
H4628 H 0.36009 0.50524 0.56948 0.0
C4629 C 0.39513 0.55079 0.54457 0.0
H4630 H 0.34852 0.52265 0.53601 0.0
C4631 C 0.40161 0.54093 0.56376 0.0
C4632 C 0.38883 0.52484 0.57332 0.0
H4633 H 0.40496 0.5638 0.53821 0.0
H4634 H 0.41623 0.54657 0.57155 0.0
C4635 C 0.37019 0.51771 0.56252 0.0
C4636 C 0.23197 0.62017 0.31261 0.0
C4637 C 0.2249 0.63887 0.32334 0.0
H4638 H 0.22692 0.5984 0.2862 0.0
C4639 C 0.20881 0.65164 0.31375 0.0
H4640 H 0.24443 0.61007 0.31958 0.0
C4641 C 0.1989 0.6451 0.29461 0.0
C4642 C 0.2047 0.6255 0.28469 0.0
H4643 H 0.20321 0.6663 0.3215 0.0
H4644 H 0.18589 0.65492 0.28825 0.0
C4645 C 0.22192 0.6135 0.29347 0.0
C4646 C 0.26762 0.37958 0.81255 0.0
C4647 C 0.27473 0.36093 0.82335 0.0
H4648 H 0.27258 0.40124 0.78604 0.0
C4649 C 0.29082 0.34814 0.81378 0.0
H4650 H 0.25516 0.38969 0.81951 0.0
C4651 C 0.30068 0.35461 0.79458 0.0
C4652 C 0.29482 0.37416 0.78459 0.0
H4653 H 0.29644 0.33351 0.82157 0.0
H4654 H 0.31368 0.34477 0.78823 0.0
C4655 C 0.27762 0.38618 0.79336 0.0
C4656 C 0.93714 0.87008 0.51783 0.0
C4657 C 0.92632 0.88873 0.5249 0.0
H4658 H 0.96365 0.84843 0.52286 0.0
C4659 C 0.93585 0.90154 0.54099 0.0
H4660 H 0.93021 0.85994 0.50537 0.0
C4661 C 0.95503 0.8951 0.55089 0.0
C4662 C 0.96505 0.87554 0.54508 0.0
H4663 H 0.92804 0.91617 0.54658 0.0
H4664 H 0.96136 0.90495 0.56389 0.0
C4665 C 0.95632 0.8635 0.52787 0.0
C4666 C 0.85418 0.20459 0.30104 0.0
C4667 C 0.87367 0.21464 0.29508 0.0
H4668 H 0.83311 0.17758 0.29687 0.0
C4669 C 0.88559 0.20595 0.27777 0.0
H4670 H 0.84442 0.21089 0.31412 0.0
C4671 C 0.87896 0.18677 0.26777 0.0
C4672 C 0.86038 0.17592 0.27497 0.0
H4673 H 0.90061 0.21331 0.27265 0.0
H4674 H 0.88901 0.17987 0.25522 0.0
C4675 C 0.84768 0.18541 0.29117 0.0
C4676 C 0.54336 0.13616 0.02766 0.0
C4677 C 0.53455 0.12411 0.04482 0.0
H4678 H 0.56951 0.13967 0.0052 0.0
C4679 C 0.54446 0.10448 0.05057 0.0
H4680 H 0.53611 0.15129 0.02271 0.0
C4681 C 0.56361 0.09796 0.04066 0.0
C4682 C 0.57322 0.11079 0.02462 0.0
H4683 H 0.53807 0.09461 0.06353 0.0
H4684 H 0.57133 0.08327 0.0462 0.0
C4685 C 0.56251 0.12952 0.01761 0.0
C4686 C 0.61342 0.79338 0.77751 0.0
C4687 C 0.62547 0.78459 0.79469 0.0
H4688 H 0.60988 0.81954 0.75507 0.0
C4689 C 0.64507 0.79455 0.80047 0.0
H4690 H 0.59832 0.78609 0.77253 0.0
C4691 C 0.65154 0.81373 0.79059 0.0
C4692 C 0.63872 0.82332 0.77455 0.0
H4693 H 0.65493 0.78818 0.81344 0.0
H4694 H 0.6662 0.82149 0.79617 0.0
C4695 C 0.62003 0.81256 0.76749 0.0
C4696 C 0.93594 0.09794 0.95883 0.0
C4697 C 0.92635 0.1107 0.97492 0.0
H4698 H 0.96145 0.09466 0.93591 0.0
C4699 C 0.93708 0.1294 0.98199 0.0
H4700 H 0.9282 0.08327 0.95323 0.0
C4701 C 0.95622 0.13608 0.97194 0.0
C4702 C 0.965 0.12408 0.95473 0.0
H4703 H 0.9301 0.1395 0.99446 0.0
H4704 H 0.96349 0.15118 0.97695 0.0
C4705 C 0.95508 0.10448 0.94892 0.0
C4706 C 0.62017 0.18721 0.73216 0.0
C4707 C 0.63887 0.17648 0.72508 0.0
H4708 H 0.59842 0.21365 0.72718 0.0
C4709 C 0.65167 0.18612 0.70905 0.0
H4710 H 0.61004 0.1802 0.74459 0.0
C4711 C 0.64516 0.2053 0.6992 0.0
C4712 C 0.62556 0.21522 0.70501 0.0
H4713 H 0.66634 0.17838 0.70345 0.0
H4714 H 0.65501 0.2117 0.68623 0.0
C4715 C 0.61353 0.20639 0.72217 0.0
C4716 C 0.54354 0.86371 0.47192 0.0
C4717 C 0.53481 0.87569 0.45467 0.0
H4718 H 0.56964 0.86025 0.49445 0.0
C4719 C 0.54481 0.89524 0.44881 0.0
H4720 H 0.53622 0.84865 0.47697 0.0
C4721 C 0.56397 0.90174 0.4587 0.0
C4722 C 0.57351 0.88898 0.47484 0.0
H4723 H 0.53848 0.90505 0.43578 0.0
H4724 H 0.57177 0.91636 0.45307 0.0
C4725 C 0.5627 0.87034 0.48195 0.0
C4726 C 0.87934 0.81259 0.23198 0.0
C4727 C 0.86074 0.82345 0.22485 0.0
H4728 H 0.90096 0.78604 0.22701 0.0
C4729 C 0.84797 0.81396 0.2087 0.0
H4730 H 0.88944 0.81949 0.24449 0.0
C4731 C 0.85442 0.79478 0.19881 0.0
C4732 C 0.87393 0.78472 0.20469 0.0
H4733 H 0.83337 0.8218 0.20306 0.0
H4734 H 0.8446 0.78849 0.18576 0.0
C4735 C 0.88592 0.79342 0.22195 0.0
C4736 C 0.5274 0.95619 0.86321 0.0
C4737 C 0.54453 0.96503 0.87527 0.0
H4738 H 0.505 0.92998 0.8597 0.0
C4739 C 0.55031 0.95513 0.89489 0.0
H4740 H 0.52242 0.96344 0.84809 0.0
C4741 C 0.54045 0.93595 0.9014 0.0
C4742 C 0.52444 0.9263 0.88857 0.0
H4743 H 0.56325 0.96155 0.90476 0.0
H4744 H 0.54602 0.92823 0.91608 0.0
C4745 C 0.5174 0.93701 0.86985 0.0
C4746 C 0.81368 0.79066 0.65167 0.0
C4747 C 0.82329 0.77462 0.63885 0.0
H4748 H 0.78812 0.81349 0.65504 0.0
C4749 C 0.81255 0.76757 0.62015 0.0
H4750 H 0.82143 0.79624 0.66634 0.0
C4751 C 0.79338 0.77758 0.61353 0.0
C4752 C 0.78457 0.79474 0.62558 0.0
H4753 H 0.81955 0.75514 0.61001 0.0
H4754 H 0.7861 0.77259 0.59843 0.0
C4755 C 0.79451 0.80053 0.64518 0.0
C4756 C 0.94915 0.04456 0.39522 0.0
C4757 C 0.95497 0.03458 0.37565 0.0
H4758 H 0.95342 0.07153 0.41632 0.0
C4759 C 0.97217 0.04334 0.36362 0.0
H4760 H 0.93615 0.03821 0.40506 0.0
C4761 C 0.98218 0.06252 0.37022 0.0
C4762 C 0.9751 0.07331 0.38888 0.0
H4763 H 0.97719 0.03603 0.34854 0.0
H4764 H 0.99464 0.06948 0.36009 0.0
C4765 C 0.95902 0.06374 0.40169 0.0
C4766 C 0.68584 0.2084 0.15172 0.0
C4767 C 0.67633 0.22454 0.13894 0.0
H4768 H 0.71128 0.18541 0.15505 0.0
C4769 C 0.68714 0.23159 0.12028 0.0
H4770 H 0.67804 0.20282 0.16635 0.0
C4771 C 0.70627 0.2215 0.11366 0.0
C4772 C 0.71497 0.20425 0.12566 0.0
H4773 H 0.68023 0.24408 0.11016 0.0
H4774 H 0.7136 0.2265 0.09858 0.0
C4775 C 0.70497 0.19845 0.14523 0.0
C4776 C 0.52785 0.04362 0.63582 0.0
C4777 C 0.54511 0.03489 0.62385 0.0
H4778 H 0.50532 0.06971 0.63929 0.0
C4779 C 0.55101 0.04492 0.60433 0.0
H4780 H 0.52278 0.03627 0.65087 0.0
C4781 C 0.54113 0.06409 0.59784 0.0
C4782 C 0.52498 0.07361 0.61059 0.0
H4783 H 0.56405 0.0386 0.59453 0.0
H4784 H 0.54678 0.0719 0.58324 0.0
C4785 C 0.51783 0.06279 0.6292 0.0
C4786 C 0.68594 0.79066 0.34799 0.0
C4787 C 0.67634 0.77459 0.36078 0.0
H4788 H 0.71149 0.81352 0.34466 0.0
C4789 C 0.68708 0.76751 0.37947 0.0
H4790 H 0.67819 0.79625 0.33334 0.0
C4791 C 0.70625 0.77752 0.38611 0.0
C4792 C 0.71505 0.79471 0.37409 0.0
H4793 H 0.6801 0.75506 0.38959 0.0
H4794 H 0.71353 0.77251 0.40121 0.0
C4795 C 0.70511 0.80053 0.3545 0.0
C4796 C 0.98211 0.93707 0.12977 0.0
C4797 C 0.97507 0.92631 0.11107 0.0
H4798 H 0.97707 0.96354 0.15146 0.0
C4799 C 0.95904 0.9359 0.09823 0.0
H4800 H 0.99453 0.93009 0.13992 0.0
C4801 C 0.94916 0.95508 0.1047 0.0
C4802 C 0.95493 0.96503 0.12429 0.0
H4803 H 0.95348 0.92814 0.08357 0.0
H4804 H 0.9362 0.96145 0.09482 0.0
C4805 C 0.97209 0.95625 0.13636 0.0
C4806 C 0.81264 0.23199 0.87956 0.0
C4807 C 0.82338 0.22495 0.86085 0.0
H4808 H 0.78623 0.22692 0.90132 0.0
C4809 C 0.8138 0.20886 0.84807 0.0
H4810 H 0.8196 0.24445 0.88967 0.0
C4811 C 0.79467 0.19893 0.8546 0.0
C4812 C 0.78473 0.20472 0.8742 0.0
H4813 H 0.82155 0.20328 0.83341 0.0
H4814 H 0.78831 0.18593 0.84477 0.0
C4815 C 0.7935 0.22193 0.88622 0.0
C4816 C 0.86383 0.52771 0.95612 0.0
C4817 C 0.87582 0.54493 0.9649 0.0
H4818 H 0.86037 0.50522 0.93 0.0
C4819 C 0.89541 0.55076 0.95495 0.0
H4820 H 0.84874 0.52269 0.96341 0.0
C4821 C 0.90193 0.54087 0.93579 0.0
C4822 C 0.88916 0.52478 0.92621 0.0
H4823 H 0.90523 0.56377 0.96131 0.0
H4824 H 0.91658 0.54648 0.92803 0.0
C4825 C 0.87048 0.51769 0.93697 0.0
C4826 C 0.3952 0.94905 0.04472 0.0
C4827 C 0.37564 0.95489 0.03472 0.0
H4828 H 0.41629 0.9533 0.0717 0.0
C4829 C 0.36363 0.97211 0.04348 0.0
H4830 H 0.40503 0.93605 0.03837 0.0
C4831 C 0.37023 0.98211 0.06266 0.0
C4832 C 0.38887 0.97501 0.07346 0.0
H4833 H 0.34856 0.97714 0.03615 0.0
H4834 H 0.36011 0.99458 0.06961 0.0
C4835 C 0.40167 0.95892 0.0639 0.0
C4836 C 0.76772 0.61999 0.81252 0.0
C4837 C 0.77478 0.63867 0.82329 0.0
H4838 H 0.77277 0.59826 0.78608 0.0
C4839 C 0.79089 0.65145 0.81374 0.0
H4840 H 0.75524 0.60988 0.81947 0.0
C4841 C 0.80081 0.64494 0.7946 0.0
C4842 C 0.795 0.62536 0.78463 0.0
H4843 H 0.79648 0.6661 0.82151 0.0
H4844 H 0.81383 0.65476 0.78826 0.0
C4845 C 0.77778 0.61335 0.79338 0.0
C4846 C 0.13608 0.02761 0.54364 0.0
C4847 C 0.12409 0.04485 0.53491 0.0
H4848 H 0.13956 0.00509 0.56975 0.0
C4849 C 0.10456 0.05073 0.54492 0.0
H4850 H 0.15113 0.02255 0.53631 0.0
C4851 C 0.09807 0.04085 0.5641 0.0
C4852 C 0.11083 0.02472 0.57363 0.0
H4853 H 0.09475 0.06376 0.53859 0.0
H4854 H 0.08346 0.04649 0.5719 0.0
C4855 C 0.12946 0.01759 0.56282 0.0
C4856 C 0.20894 0.84793 0.81399 0.0
C4857 C 0.22503 0.86072 0.82357 0.0
H4858 H 0.1861 0.84459 0.78843 0.0
C4859 C 0.23215 0.87937 0.81279 0.0
H4860 H 0.20331 0.83331 0.82177 0.0
C4861 C 0.22216 0.88598 0.7936 0.0
C4862 C 0.20495 0.87398 0.78482 0.0
H4863 H 0.24461 0.88948 0.81976 0.0
H4864 H 0.2272 0.90106 0.78629 0.0
C4865 C 0.1991 0.85442 0.7948 0.0
C4866 C 0.62935 0.48217 0.43684 0.0
C4867 C 0.61071 0.47503 0.42607 0.0
H4868 H 0.65106 0.47725 0.46333 0.0
C4869 C 0.59795 0.45893 0.43565 0.0
H4870 H 0.63945 0.49465 0.42987 0.0
C4871 C 0.60445 0.44909 0.45484 0.0
C4872 C 0.62401 0.45497 0.46481 0.0
H4873 H 0.58332 0.45328 0.42787 0.0
H4874 H 0.59464 0.43607 0.4612 0.0
C4875 C 0.63599 0.47219 0.45603 0.0
C4876 C 0.79059 0.34828 0.68597 0.0
C4877 C 0.7746 0.36116 0.67637 0.0
H4878 H 0.81343 0.34483 0.71152 0.0
C4879 C 0.7676 0.37987 0.68712 0.0
H4880 H 0.79612 0.3336 0.67821 0.0
C4881 C 0.77764 0.38645 0.70629 0.0
C4882 C 0.79477 0.37435 0.71508 0.0
H4883 H 0.75521 0.39006 0.68013 0.0
H4884 H 0.7727 0.40157 0.71357 0.0
C4885 C 0.80049 0.35473 0.70515 0.0
C4886 C 0.73208 0.62018 0.18688 0.0
C4887 C 0.72498 0.63884 0.17609 0.0
H4888 H 0.7271 0.5985 0.21337 0.0
C4889 C 0.70888 0.65161 0.18565 0.0
H4890 H 0.74456 0.61008 0.17993 0.0
C4891 C 0.699 0.64513 0.20482 0.0
C4892 C 0.70485 0.62557 0.21481 0.0
H4893 H 0.70325 0.66624 0.17786 0.0
H4894 H 0.68598 0.65495 0.21116 0.0
C4895 C 0.72207 0.61357 0.20606 0.0
C4896 C 0.54469 0.60431 0.9489 0.0
C4897 C 0.53473 0.62388 0.95475 0.0
H4898 H 0.57163 0.58316 0.95315 0.0
C4899 C 0.54351 0.63587 0.97197 0.0
H4900 H 0.53833 0.59449 0.93589 0.0
C4901 C 0.56268 0.62923 0.98198 0.0
C4902 C 0.57344 0.61057 0.97487 0.0
H4903 H 0.53621 0.65095 0.977 0.0
H4904 H 0.56965 0.63934 0.99445 0.0
C4905 C 0.56386 0.5978 0.95878 0.0
C4906 C 0.61374 0.29328 0.22203 0.0
C4907 C 0.62574 0.28452 0.20481 0.0
H4908 H 0.61023 0.31941 0.2445 0.0
C4909 C 0.64528 0.29452 0.19894 0.0
H4910 H 0.59868 0.28594 0.22709 0.0
C4911 C 0.65175 0.31371 0.20879 0.0
C4912 C 0.63897 0.32327 0.2249 0.0
H4913 H 0.6551 0.28818 0.18592 0.0
H4914 H 0.66636 0.32151 0.20315 0.0
C4915 C 0.62034 0.31247 0.23203 0.0
C4916 C 0.9549 0.395 0.44886 0.0
C4917 C 0.96485 0.37541 0.45466 0.0
H4918 H 0.92798 0.41615 0.45318 0.0
C4919 C 0.95607 0.36337 0.47185 0.0
H4920 H 0.96127 0.40485 0.43588 0.0
C4921 C 0.93691 0.37 0.48188 0.0
C4922 C 0.92616 0.38869 0.47483 0.0
H4923 H 0.96336 0.34827 0.47684 0.0
H4924 H 0.92994 0.35987 0.49433 0.0
C4925 C 0.93574 0.40149 0.45876 0.0
C4926 C 0.84803 0.6856 0.70869 0.0
C4927 C 0.86079 0.67608 0.72482 0.0
H4928 H 0.84466 0.71112 0.6858 0.0
C4929 C 0.87938 0.68694 0.73199 0.0
H4930 H 0.83344 0.67776 0.70302 0.0
C4931 C 0.88595 0.70614 0.72201 0.0
C4932 C 0.87397 0.71486 0.70476 0.0
H4933 H 0.88948 0.68002 0.74449 0.0
H4934 H 0.90098 0.71352 0.72709 0.0
C4935 C 0.85447 0.7048 0.69884 0.0
C4936 C 0.54348 0.36385 0.52768 0.0
C4937 C 0.53475 0.37584 0.54492 0.0
H4938 H 0.56957 0.36037 0.50515 0.0
C4939 C 0.54474 0.3954 0.55076 0.0
H4940 H 0.53615 0.34878 0.52265 0.0
C4941 C 0.5639 0.40189 0.54086 0.0
C4942 C 0.57343 0.38912 0.52474 0.0
H4943 H 0.53841 0.40522 0.56379 0.0
H4944 H 0.57169 0.41652 0.54647 0.0
C4945 C 0.56264 0.37047 0.51764 0.0
C4946 C 0.84801 0.31408 0.79095 0.0
C4947 C 0.86074 0.32357 0.77477 0.0
H4948 H 0.8447 0.28861 0.8139 0.0
C4949 C 0.87933 0.31271 0.7676 0.0
H4950 H 0.83343 0.32193 0.79662 0.0
C4951 C 0.88593 0.29353 0.77762 0.0
C4952 C 0.87398 0.28484 0.79491 0.0
H4953 H 0.8894 0.3196 0.75506 0.0
H4954 H 0.90095 0.28615 0.77253 0.0
C4955 C 0.85448 0.2949 0.80083 0.0
C4956 C 0.93711 0.62968 0.01753 0.0
C4957 C 0.92637 0.61097 0.02456 0.0
H4958 H 0.96354 0.65142 0.02259 0.0
C4959 C 0.93598 0.59814 0.0406 0.0
H4960 H 0.93012 0.63982 0.00511 0.0
C4961 C 0.95514 0.60464 0.05049 0.0
C4962 C 0.96507 0.62425 0.04473 0.0
H4963 H 0.92823 0.58347 0.04616 0.0
H4964 H 0.96152 0.59477 0.06346 0.0
C4965 C 0.95627 0.6363 0.02756 0.0
C4966 C 0.65172 0.68581 0.29066 0.0
C4967 C 0.63893 0.67625 0.27457 0.0
H4968 H 0.65507 0.71132 0.31356 0.0
C4969 C 0.62026 0.68703 0.26749 0.0
H4970 H 0.66636 0.67803 0.29626 0.0
C4971 C 0.61365 0.7062 0.27753 0.0
C4972 C 0.62567 0.71496 0.29474 0.0
H4973 H 0.61014 0.68008 0.25503 0.0
H4974 H 0.59857 0.71351 0.27251 0.0
C4975 C 0.64524 0.70498 0.30056 0.0
C4976 C 0.94904 0.54469 0.60439 0.0
C4977 C 0.9549 0.53465 0.62392 0.0
H4978 H 0.95328 0.57171 0.58336 0.0
C4979 C 0.9721 0.54339 0.63596 0.0
H4980 H 0.93604 0.53835 0.59454 0.0
C4981 C 0.98209 0.5626 0.6294 0.0
C4982 C 0.97498 0.57343 0.61078 0.0
H4983 H 0.97714 0.53604 0.65101 0.0
H4984 H 0.99455 0.56953 0.63954 0.0
C4985 C 0.9589 0.56389 0.59796 0.0
C4986 C 0.68699 0.73192 0.87929 0.0
C4987 C 0.67616 0.72481 0.86066 0.0
H4988 H 0.7135 0.72693 0.90095 0.0
C4989 C 0.68567 0.70865 0.84791 0.0
H4990 H 0.68008 0.74443 0.88938 0.0
C4991 C 0.70483 0.69874 0.85439 0.0
C4992 C 0.71486 0.70462 0.87392 0.0
H4993 H 0.67785 0.70302 0.83331 0.0
H4994 H 0.71113 0.68569 0.84459 0.0
C4995 C 0.70615 0.72188 0.8859 0.0
C4996 C 0.55085 0.45478 0.10445 0.0
C4997 C 0.54498 0.46478 0.12399 0.0
H4998 H 0.54662 0.4278 0.08335 0.0
C4999 C 0.52775 0.45603 0.13598 0.0
H5000 H 0.56387 0.46112 0.09463 0.0
C5001 C 0.51774 0.43685 0.12937 0.0
C5002 C 0.52487 0.42605 0.11073 0.0
H5003 H 0.5227 0.46336 0.15104 0.0
H5004 H 0.50526 0.4299 0.13947 0.0
C5005 C 0.54098 0.4356 0.09796 0.0
C5006 C 0.79436 0.30027 0.3546 0.0
C5007 C 0.78445 0.29457 0.37424 0.0
H5008 H 0.82126 0.29587 0.33343 0.0
C5009 C 0.79327 0.27746 0.38636 0.0
H5010 H 0.78796 0.31318 0.34469 0.0
C5011 C 0.81245 0.26742 0.37976 0.0
C5012 C 0.82316 0.27439 0.36102 0.0
H5013 H 0.78602 0.27255 0.4015 0.0
H5014 H 0.81946 0.25505 0.38996 0.0
C5015 C 0.81353 0.29036 0.34813 0.0
C5016 C 0.94917 0.45501 0.8952 0.0
C5017 C 0.95507 0.46498 0.87565 0.0
H5018 H 0.95334 0.42804 0.91633 0.0
C5019 C 0.97229 0.45619 0.86367 0.0
H5020 H 0.93616 0.46138 0.905 0.0
C5021 C 0.98225 0.43699 0.87031 0.0
C5022 C 0.9751 0.42622 0.88895 0.0
H5023 H 0.97736 0.46349 0.84861 0.0
H5024 H 0.99473 0.43002 0.86022 0.0
C5025 C 0.959 0.43582 0.90171 0.0
C5026 C 0.79451 0.69912 0.14499 0.0
C5027 C 0.78459 0.70487 0.12537 0.0
H5028 H 0.8214 0.70348 0.16617 0.0
C5029 C 0.79339 0.72202 0.11331 0.0
H5030 H 0.78812 0.68616 0.15487 0.0
C5031 C 0.81255 0.73207 0.11994 0.0
C5032 C 0.82327 0.72505 0.13866 0.0
H5033 H 0.78612 0.72698 0.09819 0.0
H5034 H 0.81954 0.74448 0.10978 0.0
C5035 C 0.81367 0.70903 0.15149 0.0
C5036 C 0.51755 0.56265 0.3699 0.0
C5037 C 0.5246 0.5734 0.3886 0.0
H5038 H 0.52259 0.5362 0.34817 0.0
C5039 C 0.54066 0.5638 0.40141 0.0
H5040 H 0.50512 0.56963 0.35976 0.0
C5041 C 0.55054 0.54464 0.39491 0.0
C5042 C 0.54476 0.53469 0.37532 0.0
H5043 H 0.54623 0.57155 0.41607 0.0
H5044 H 0.56352 0.53826 0.40477 0.0
C5045 C 0.52758 0.54348 0.36328 0.0
C5046 C 0.68569 0.29128 0.65184 0.0
C5047 C 0.67618 0.27511 0.63912 0.0
H5048 H 0.71116 0.31425 0.65511 0.0
C5049 C 0.687 0.26796 0.6205 0.0
H5050 H 0.67789 0.29694 0.66645 0.0
C5051 C 0.70615 0.278 0.61385 0.0
C5052 C 0.71486 0.29529 0.6258 0.0
H5053 H 0.68009 0.25543 0.61043 0.0
H5054 H 0.71349 0.27293 0.59881 0.0
C5055 C 0.70485 0.30118 0.64533 0.0
C5056 C 0.63632 0.9721 0.54335 0.0
C5057 C 0.62427 0.95493 0.53458 0.0
H5058 H 0.63988 0.99457 0.56949 0.0
C5059 C 0.60468 0.94915 0.54455 0.0
H5060 H 0.65142 0.97709 0.53604 0.0
C5061 C 0.59822 0.95904 0.56372 0.0
C5062 C 0.61105 0.97509 0.5733 0.0
H5063 H 0.59482 0.93617 0.53819 0.0
H5064 H 0.58356 0.95346 0.5715 0.0
C5065 C 0.62973 0.98214 0.56252 0.0
C5066 C 0.10427 0.55062 0.45504 0.0
C5067 C 0.12386 0.54479 0.46497 0.0
H5068 H 0.08307 0.54633 0.42815 0.0
C5069 C 0.13584 0.52757 0.45619 0.0
H5070 H 0.09446 0.56364 0.46141 0.0
C5071 C 0.12917 0.51753 0.43705 0.0
C5072 C 0.11048 0.52462 0.42631 0.0
H5073 H 0.15094 0.52255 0.46347 0.0
H5074 H 0.13926 0.50505 0.43008 0.0
C5075 C 0.09772 0.54072 0.4359 0.0
C5076 C 0.72194 0.886 0.7062 0.0
C5077 C 0.70473 0.87399 0.71496 0.0
H5078 H 0.74443 0.8895 0.68008 0.0
C5079 C 0.69891 0.85441 0.70499 0.0
H5080 H 0.72696 0.90109 0.71351 0.0
C5081 C 0.7088 0.84792 0.68582 0.0
C5082 C 0.72489 0.86071 0.67626 0.0
H5083 H 0.68591 0.84457 0.71134 0.0
H5084 H 0.7032 0.83328 0.67805 0.0
C5085 C 0.73197 0.87938 0.68703 0.0
C5086 C 0.40183 0.45863 0.93562 0.0
C5087 C 0.38909 0.47479 0.92611 0.0
H5088 H 0.40516 0.43572 0.96112 0.0
C5089 C 0.3705 0.48196 0.93696 0.0
H5090 H 0.41641 0.45296 0.92778 0.0
C5091 C 0.3639 0.47197 0.95615 0.0
C5092 C 0.37586 0.4547 0.96486 0.0
H5093 H 0.36042 0.49448 0.93005 0.0
H5094 H 0.34888 0.47706 0.96352 0.0
C5095 C 0.39537 0.44877 0.95481 0.0
C5096 C 0.30042 0.64507 0.70507 0.0
C5097 C 0.29459 0.62549 0.71502 0.0
H5098 H 0.29619 0.66619 0.67811 0.0
C5099 C 0.27742 0.61345 0.70621 0.0
H5100 H 0.31339 0.65492 0.71146 0.0
C5101 C 0.26745 0.62006 0.68701 0.0
C5102 C 0.27454 0.63873 0.67625 0.0
H5103 H 0.2724 0.59836 0.7135 0.0
H5104 H 0.25502 0.60992 0.68001 0.0
C5105 C 0.29058 0.65155 0.68587 0.0
C5106 C 0.89537 0.05044 0.04461 0.0
C5107 C 0.87582 0.04457 0.03463 0.0
H5108 H 0.91646 0.04627 0.07161 0.0
C5109 C 0.8638 0.02738 0.04343 0.0
H5110 H 0.9052 0.06343 0.03823 0.0
C5111 C 0.8704 0.01742 0.06264 0.0
C5112 C 0.88904 0.02457 0.07343 0.0
H5113 H 0.84874 0.02233 0.03612 0.0
H5114 H 0.86028 0.00498 0.06962 0.0
C5115 C 0.90184 0.04063 0.06382 0.0
C5116 C 0.70877 0.15163 0.81405 0.0
C5117 C 0.72491 0.13886 0.82354 0.0
H5118 H 0.68584 0.15501 0.78857 0.0
C5119 C 0.73203 0.12024 0.81269 0.0
H5120 H 0.70314 0.16623 0.82188 0.0
C5121 C 0.722 0.11367 0.79351 0.0
C5122 C 0.70475 0.12567 0.78481 0.0
H5123 H 0.74453 0.11014 0.81959 0.0
H5124 H 0.72705 0.09863 0.78614 0.0
C5125 C 0.69888 0.14518 0.79487 0.0
C5126 C 0.77769 0.88598 0.29352 0.0
C5127 C 0.79491 0.874 0.28474 0.0
H5128 H 0.7552 0.88943 0.31964 0.0
C5129 C 0.80077 0.85443 0.2947 0.0
H5130 H 0.77264 0.90106 0.28622 0.0
C5131 C 0.79089 0.84791 0.31386 0.0
C5132 C 0.77479 0.86067 0.32344 0.0
H5133 H 0.81379 0.84462 0.28834 0.0
H5134 H 0.79652 0.83327 0.32163 0.0
C5135 C 0.76767 0.87933 0.31268 0.0
C5136 C 0.45631 0.36335 0.02764 0.0
C5137 C 0.4651 0.37538 0.04483 0.0
H5138 H 0.43017 0.35987 0.00517 0.0
C5139 C 0.45518 0.39498 0.05062 0.0
H5140 H 0.46358 0.34824 0.02265 0.0
C5141 C 0.43602 0.4015 0.04073 0.0
C5142 C 0.42642 0.3887 0.02466 0.0
H5143 H 0.46156 0.40482 0.0636 0.0
H5144 H 0.42827 0.41616 0.04631 0.0
C5145 C 0.43715 0.36999 0.01761 0.0
C5146 C 0.37908 0.68697 0.76777 0.0
C5147 C 0.36046 0.67615 0.77492 0.0
H5148 H 0.40076 0.71347 0.77275 0.0
C5149 C 0.34774 0.68564 0.7911 0.0
H5150 H 0.38915 0.68007 0.75524 0.0
C5151 C 0.35425 0.7048 0.80101 0.0
C5152 C 0.37377 0.71482 0.79511 0.0
H5153 H 0.33314 0.67783 0.79675 0.0
H5154 H 0.34447 0.7111 0.81408 0.0
C5155 C 0.38572 0.70612 0.77782 0.0
C5156 C 0.06261 0.62951 0.51767 0.0
C5157 C 0.07337 0.61083 0.52473 0.0
H5158 H 0.03615 0.65123 0.52271 0.0
C5159 C 0.06382 0.59805 0.54084 0.0
H5160 H 0.06955 0.63962 0.50519 0.0
C5161 C 0.04467 0.60456 0.55075 0.0
C5162 C 0.03471 0.62414 0.54494 0.0
H5163 H 0.07159 0.58341 0.54643 0.0
H5164 H 0.03833 0.59473 0.56376 0.0
C5165 C 0.04346 0.63615 0.52772 0.0
C5166 C 0.11358 0.29343 0.27749 0.0
C5167 C 0.12559 0.28468 0.29472 0.0
H5168 H 0.11006 0.31956 0.25502 0.0
C5169 C 0.14512 0.29471 0.30059 0.0
H5170 H 0.09853 0.28608 0.27244 0.0
C5171 C 0.15158 0.3139 0.29073 0.0
C5172 C 0.1388 0.32345 0.27462 0.0
H5173 H 0.15495 0.28837 0.3136 0.0
H5174 H 0.16619 0.32172 0.29637 0.0
C5175 C 0.12017 0.31262 0.2675 0.0
C5176 C 0.45617 0.63609 0.47184 0.0
C5177 C 0.46492 0.62407 0.45462 0.0
H5178 H 0.43006 0.63961 0.49434 0.0
C5179 C 0.45492 0.60451 0.44879 0.0
H5180 H 0.4635 0.65116 0.47686 0.0
C5181 C 0.43574 0.59804 0.45868 0.0
C5182 C 0.4262 0.61084 0.47478 0.0
H5183 H 0.46125 0.59468 0.43578 0.0
H5184 H 0.42795 0.58342 0.45307 0.0
C5185 C 0.437 0.62949 0.48187 0.0
C5186 C 0.14515 0.70484 0.199 0.0
C5187 C 0.12563 0.71488 0.20489 0.0
H5188 H 0.16619 0.67781 0.2032 0.0
C5189 C 0.11363 0.70615 0.22212 0.0
H5190 H 0.15497 0.71116 0.18597 0.0
C5191 C 0.12021 0.68695 0.23211 0.0
C5192 C 0.13882 0.67611 0.22497 0.0
H5193 H 0.09859 0.71351 0.22719 0.0
H5194 H 0.1101 0.68003 0.2446 0.0
C5195 C 0.1516 0.68564 0.20885 0.0
C5196 C 0.0638 0.40162 0.959 0.0
C5197 C 0.07343 0.38881 0.97503 0.0
H5198 H 0.03823 0.40498 0.93617 0.0
C5199 C 0.06271 0.37009 0.98208 0.0
H5200 H 0.07154 0.4163 0.95342 0.0
C5201 C 0.04353 0.36346 0.97207 0.0
C5202 C 0.03471 0.37551 0.95492 0.0
H5203 H 0.06971 0.35996 0.9945 0.0
H5204 H 0.03627 0.34835 0.97706 0.0
C5205 C 0.04463 0.39512 0.94913 0.0
C5206 C 0.3545 0.29472 0.6988 0.0
C5207 C 0.37406 0.28476 0.70467 0.0
H5208 H 0.33335 0.32166 0.70303 0.0
C5209 C 0.38603 0.29353 0.72191 0.0
H5210 H 0.3447 0.28836 0.68578 0.0
C5211 C 0.37938 0.31269 0.73191 0.0
C5212 C 0.36073 0.32346 0.72478 0.0
H5213 H 0.4011 0.28623 0.72696 0.0
H5214 H 0.38947 0.31965 0.7444 0.0
C5215 C 0.34798 0.31389 0.70867 0.0
C5216 C 0.05029 0.45493 0.39511 0.0
C5217 C 0.04448 0.46492 0.37554 0.0
H5218 H 0.04603 0.42795 0.41619 0.0
C5219 C 0.02732 0.45613 0.36348 0.0
H5220 H 0.06325 0.46131 0.40498 0.0
C5221 C 0.01733 0.43692 0.37005 0.0
C5222 C 0.02441 0.42614 0.38871 0.0
H5223 H 0.02231 0.46344 0.3484 0.0
H5224 H 0.00491 0.42995 0.3599 0.0
C5225 C 0.04044 0.43573 0.40155 0.0
C5226 C 0.29344 0.27786 0.11372 0.0
C5227 C 0.28472 0.2951 0.12571 0.0
H5228 H 0.31952 0.25531 0.11024 0.0
C5229 C 0.29473 0.30095 0.14526 0.0
H5230 H 0.28611 0.27283 0.09865 0.0
C5231 C 0.31388 0.29103 0.15176 0.0
C5232 C 0.3234 0.2749 0.13899 0.0
H5233 H 0.28841 0.31398 0.15508 0.0
H5234 H 0.32168 0.29664 0.16638 0.0
C5235 C 0.3126 0.2678 0.12034 0.0
C5236 C 0.4491 0.54451 0.89502 0.0
C5237 C 0.4549 0.5346 0.87541 0.0
H5238 H 0.45341 0.5714 0.91622 0.0
C5239 C 0.47207 0.54341 0.86338 0.0
H5240 H 0.43613 0.53811 0.90487 0.0
C5241 C 0.48209 0.56257 0.87003 0.0
C5242 C 0.47503 0.57329 0.88874 0.0
H5243 H 0.47706 0.53615 0.84827 0.0
H5244 H 0.49452 0.56957 0.8599 0.0
C5245 C 0.45899 0.56367 0.90155 0.0
C5246 C 0.20617 0.72194 0.61363 0.0
C5247 C 0.21494 0.70472 0.62562 0.0
H5248 H 0.18006 0.74445 0.61019 0.0
C5249 C 0.20501 0.6989 0.64521 0.0
H5250 H 0.21345 0.72695 0.59853 0.0
C5251 C 0.18586 0.70881 0.65175 0.0
C5252 C 0.17629 0.72491 0.63898 0.0
H5253 H 0.21137 0.68589 0.65504 0.0
H5254 H 0.17811 0.70321 0.6664 0.0
C5255 C 0.18703 0.73198 0.62029 0.0
C5256 C 0.05065 0.5448 0.10444 0.0
C5257 C 0.04476 0.53479 0.12397 0.0
H5258 H 0.04644 0.57179 0.08335 0.0
C5259 C 0.02753 0.54354 0.13597 0.0
H5260 H 0.06366 0.53845 0.09462 0.0
C5261 C 0.01754 0.56274 0.12936 0.0
C5262 C 0.02468 0.57354 0.11073 0.0
H5263 H 0.02247 0.53621 0.15102 0.0
H5264 H 0.00506 0.56969 0.13946 0.0
C5265 C 0.04079 0.56399 0.09796 0.0
C5266 C 0.20629 0.27775 0.88603 0.0
C5267 C 0.21504 0.29496 0.87402 0.0
H5268 H 0.18017 0.25526 0.88953 0.0
C5269 C 0.20507 0.30079 0.85445 0.0
H5270 H 0.2136 0.27274 0.90111 0.0
C5271 C 0.1859 0.2909 0.84796 0.0
C5272 C 0.17634 0.27481 0.86075 0.0
H5273 H 0.21141 0.31379 0.84461 0.0
H5274 H 0.17812 0.2965 0.83332 0.0
C5275 C 0.18712 0.26772 0.87942 0.0
C5276 C 0.47199 0.45645 0.63607 0.0
C5277 C 0.45479 0.46521 0.62404 0.0
H5278 H 0.49448 0.43034 0.6396 0.0
C5279 C 0.449 0.45525 0.60445 0.0
H5280 H 0.47698 0.46376 0.65116 0.0
C5281 C 0.4589 0.43608 0.59797 0.0
C5282 C 0.47497 0.42652 0.61078 0.0
H5283 H 0.43601 0.4616 0.5946 0.0
H5284 H 0.45332 0.42831 0.58332 0.0
C5285 C 0.48203 0.43729 0.62946 0.0
C5286 C 0.29336 0.72207 0.38616 0.0
C5287 C 0.28458 0.7049 0.3741 0.0
H5288 H 0.31951 0.74453 0.38972 0.0
C5289 C 0.29455 0.69913 0.3545 0.0
H5290 H 0.28606 0.72705 0.40126 0.0
C5291 C 0.31372 0.70903 0.34804 0.0
C5292 C 0.3233 0.72507 0.36088 0.0
H5293 H 0.28818 0.68617 0.34463 0.0
H5294 H 0.32149 0.70346 0.33338 0.0
C5295 C 0.31254 0.7321 0.37957 0.0
C5296 C 0.39542 0.05094 0.45499 0.0
C5297 C 0.37588 0.04507 0.465 0.0
H5298 H 0.41652 0.04668 0.42802 0.0
C5299 C 0.36389 0.02782 0.45628 0.0
H5300 H 0.40523 0.06397 0.46131 0.0
C5301 C 0.37051 0.01779 0.43711 0.0
C5302 C 0.38914 0.02491 0.4263 0.0
H5303 H 0.34884 0.02277 0.46362 0.0
H5304 H 0.36041 0.00529 0.43019 0.0
C5305 C 0.40191 0.04104 0.43582 0.0
C5306 C 0.86361 0.47201 0.54323 0.0
C5307 C 0.87563 0.45482 0.53443 0.0
H5308 H 0.86013 0.49446 0.56939 0.0
C5309 C 0.89524 0.44902 0.54436 0.0
H5310 H 0.8485 0.477 0.53597 0.0
C5311 C 0.90175 0.45891 0.56352 0.0
C5312 C 0.88896 0.47496 0.57313 0.0
H5313 H 0.90508 0.43604 0.53797 0.0
H5314 H 0.91642 0.45332 0.57126 0.0
C5315 C 0.87026 0.48203 0.5624 0.0
C5316 C 0.27763 0.11358 0.29355 0.0
C5317 C 0.29483 0.1256 0.28479 0.0
H5318 H 0.25515 0.11006 0.31968 0.0
C5319 C 0.30066 0.14517 0.29478 0.0
H5320 H 0.27261 0.0985 0.28623 0.0
C5321 C 0.29077 0.15164 0.31395 0.0
C5322 C 0.27469 0.13885 0.32351 0.0
H5323 H 0.31366 0.15501 0.28843 0.0
H5324 H 0.29638 0.16628 0.32174 0.0
C5325 C 0.2676 0.12018 0.31273 0.0
C5326 C 0.60455 0.55045 0.04456 0.0
C5327 C 0.62412 0.54462 0.03459 0.0
H5328 H 0.58342 0.5462 0.07151 0.0
C5329 C 0.63615 0.52743 0.04337 0.0
H5330 H 0.59471 0.56344 0.03818 0.0
C5331 C 0.62953 0.51743 0.06255 0.0
C5332 C 0.61086 0.52452 0.07332 0.0
H5333 H 0.65123 0.52241 0.03607 0.0
H5334 H 0.63966 0.50498 0.06953 0.0
C5335 C 0.59806 0.54059 0.06374 0.0
C5336 C 0.72206 0.3859 0.29343 0.0
C5337 C 0.70485 0.37391 0.28465 0.0
H5338 H 0.74453 0.38936 0.31958 0.0
C5339 C 0.69899 0.35434 0.29461 0.0
H5340 H 0.7271 0.40098 0.28614 0.0
C5341 C 0.70885 0.34783 0.31378 0.0
C5342 C 0.72494 0.3606 0.32337 0.0
H5343 H 0.68599 0.34452 0.28824 0.0
H5344 H 0.70322 0.33319 0.32155 0.0
C5345 C 0.73206 0.37926 0.31261 0.0
C5346 C 0.09815 0.95905 0.93587 0.0
C5347 C 0.11094 0.97514 0.92631 0.0
H5348 H 0.09477 0.93619 0.9614 0.0
C5349 C 0.12958 0.98226 0.93712 0.0
H5350 H 0.08353 0.95343 0.92806 0.0
C5351 C 0.13617 0.97226 0.95631 0.0
C5352 C 0.12415 0.95505 0.96507 0.0
H5353 H 0.1397 0.99472 0.93017 0.0
H5354 H 0.15123 0.9773 0.96364 0.0
C5355 C 0.10461 0.94919 0.95506 0.0
C5356 C 0.30057 0.85467 0.20518 0.0
C5357 C 0.29474 0.87425 0.21513 0.0
H5358 H 0.29632 0.83353 0.17824 0.0
C5359 C 0.27755 0.88627 0.20634 0.0
H5360 H 0.31355 0.84484 0.21156 0.0
C5361 C 0.26755 0.87964 0.18716 0.0
C5362 C 0.27464 0.86097 0.17641 0.0
H5363 H 0.27253 0.90136 0.21363 0.0
H5364 H 0.2551 0.88977 0.18018 0.0
C5365 C 0.29071 0.84818 0.186 0.0
C5366 C 0.19907 0.14529 0.70492 0.0
C5367 C 0.20494 0.12575 0.71493 0.0
H5368 H 0.20331 0.16639 0.67795 0.0
C5369 C 0.22218 0.11376 0.70619 0.0
H5370 H 0.18604 0.15511 0.71126 0.0
C5371 C 0.23219 0.12037 0.68701 0.0
C5372 C 0.22507 0.13901 0.67621 0.0
H5373 H 0.22723 0.0987 0.71352 0.0
H5374 H 0.24468 0.11028 0.68008 0.0
C5375 C 0.20895 0.15178 0.68575 0.0
loop_
_geom_bond_atom_site_label_1
_geom_bond_atom_site_label_2
_geom_bond_distance
_geom_bond_site_symmetry_2
_ccdc_geom_bond_type
Mn0 O5 2.095 . S
Mn0 O15 2.162 1_455 S
Mn0 O16 2.297 1_455 S
Mn0 O24 2.385 1_455 S
Mn0 O25 2.209 1_455 S
Mn0 O26 2.094 . S
Mn1 O6 2.121 . S
Mn1 N8 2.257 1_455 S
Mn1 N17 2.282 1_455 S
Mn1 O25 2.215 1_455 S
Mn1 O27 2.117 . S
C2 O24 1.234 . S
C2 O25 1.283 . S
C3 O15 1.281 . S
C3 O16 1.236 . S
C4 O26 1.240 . S
C4 O27 1.264 . S
O5 Mn0 2.095 . S
O5 C14 1.250 . S
O6 Mn1 2.121 . S
O6 C14 1.258 . S
C7 N8 1.326 . S
C7 C11 1.460 . S
C7 H13 0.929 . S
N8 Mn1 2.257 1_655 S
N8 C7 1.326 . S
N8 C12 1.362 . S
C9 C10 1.258 . S
C9 C12 1.431 . S
C9 C29 1.449 . S
C10 C9 1.258 . S
C10 C11 1.477 . S
C10 H30 0.931 . S
C11 C7 1.460 . S
C11 C10 1.477 . S
C11 H31 0.930 . S
C12 N8 1.362 . S
C12 C9 1.431 . S
C12 C22 1.476 . S
H13 C7 0.929 . S
C14 O5 1.250 . S
C14 O6 1.258 . S
O15 Mn0 2.162 1_655 S
O15 C3 1.281 . S
O16 Mn0 2.297 1_655 S
O16 C3 1.236 . S
N17 Mn1 2.282 1_655 S
N17 C18 1.328 . S
N17 C22 1.318 . S
C18 N17 1.328 . S
C18 C19 1.457 . S
C18 H23 0.929 1_655 S
C19 C18 1.457 . S
C19 C20 1.291 . S
C19 H32 0.931 . S
C20 C19 1.291 . S
C20 C21 1.373 . S
C20 H33 0.929 . S
C21 C20 1.373 . S
C21 C22 1.396 . S
C21 C28 1.403 . S
C22 C12 1.476 . S
C22 N17 1.318 . S
C22 C21 1.396 . S
H23 C18 0.929 1_455 S
O24 Mn0 2.385 1_655 S
O24 C2 1.234 . S
O25 Mn0 2.209 1_655 S
O25 Mn1 2.215 1_655 S
O25 C2 1.283 . S
O26 Mn0 2.094 . S
O26 C4 1.240 . S
O27 Mn1 2.117 . S
O27 C4 1.264 . S
C28 C21 1.403 . S
C28 C29 1.399 . S
C28 H34 0.929 . S
C29 C9 1.449 . S
C29 C28 1.399 . S
C29 H35 0.930 . S
H30 C10 0.931 . S
H31 C11 0.930 . S
H32 C19 0.931 . S
H33 C20 0.929 . S
H34 C28 0.929 . S
H35 C29 0.930 . S
Mn36 O41 2.095 . S
Mn36 O51 2.162 . S
Mn36 O52 2.297 . S
Mn36 O60 2.385 . S
Mn36 O61 2.209 . S
Mn36 O62 2.094 . S
Mn37 O42 2.121 . S
Mn37 N44 2.257 . S
Mn37 N53 2.282 . S
Mn37 O61 2.215 . S
Mn37 O63 2.117 . S
C38 O60 1.234 . S
C38 O61 1.283 . S
C39 O51 1.281 . S
C39 O52 1.236 . S
C40 O62 1.240 . S
C40 O63 1.264 . S
O41 Mn36 2.095 . S
O41 C50 1.250 . S
O42 Mn37 2.121 . S
O42 C50 1.258 . S
C43 N44 1.326 . S
C43 C47 1.460 . S
C43 H49 0.929 . S
N44 Mn37 2.257 . S
N44 C43 1.326 . S
N44 C48 1.362 . S
C45 C46 1.258 . S
C45 C48 1.431 . S
C45 C65 1.449 . S
C46 C45 1.258 . S
C46 C47 1.477 . S
C46 H66 0.931 . S
C47 C43 1.460 . S
C47 C46 1.477 . S
C47 H67 0.930 . S
C48 N44 1.362 . S
C48 C45 1.431 . S
C48 C58 1.476 . S
H49 C43 0.929 . S
C50 O41 1.250 . S
C50 O42 1.258 . S
O51 Mn36 2.162 . S
O51 C39 1.281 . S
O52 Mn36 2.297 . S
O52 C39 1.236 . S
N53 Mn37 2.282 . S
N53 C54 1.328 . S
N53 C58 1.318 . S
C54 N53 1.328 . S
C54 C55 1.457 . S
C54 H59 0.929 . S
C55 C54 1.457 . S
C55 C56 1.291 . S
C55 H68 0.931 . S
C56 C55 1.291 . S
C56 C57 1.373 . S
C56 H69 0.929 1_455 S
C57 C56 1.373 . S
C57 C58 1.396 . S
C57 C64 1.390 1_455 S
C58 C48 1.476 . S
C58 N53 1.318 . S
C58 C57 1.396 . S
H59 C54 0.929 . S
O60 Mn36 2.385 . S
O60 C38 1.234 . S
O61 Mn36 2.209 . S
O61 Mn37 2.215 . S
O61 C38 1.283 . S
O62 Mn36 2.094 . S
O62 C40 1.240 . S
O63 Mn37 2.117 . S
O63 C40 1.264 . S
C64 C57 1.390 1_655 S
C64 C65 1.391 1_655 S
C64 H70 0.951 . S
C65 C45 1.449 . S
C65 C64 1.391 1_455 S
C65 H71 0.904 1_455 S
H66 C46 0.931 . S
H67 C47 0.930 . S
H68 C55 0.931 . S
H69 C56 0.929 1_655 S
H70 C64 0.951 . S
H71 C65 0.904 1_655 S
Mn72 O77 2.095 . S
Mn72 O87 2.162 . S
Mn72 O88 2.297 . S
Mn72 O96 2.385 . S
Mn72 O97 2.209 . S
Mn72 O98 2.094 . S
Mn73 O78 2.121 . S
Mn73 N80 2.257 . S
Mn73 N89 2.282 . S
Mn73 O97 2.215 . S
Mn73 O99 2.117 . S
C74 O96 1.234 . S
C74 O97 1.283 . S
C75 O87 1.281 . S
C75 O88 1.236 . S
C76 O98 1.240 . S
C76 O99 1.264 . S
O77 Mn72 2.095 . S
O77 C86 1.250 . S
O78 Mn73 2.121 . S
O78 C86 1.258 . S
C79 N80 1.326 . S
C79 C83 1.460 . S
C79 H85 0.929 . S
N80 Mn73 2.257 . S
N80 C79 1.326 . S
N80 C84 1.362 . S
C81 C82 1.258 . S
C81 C84 1.431 . S
C81 C101 1.449 . S
C82 C81 1.258 . S
C82 C83 1.477 . S
C82 H102 0.944 . S
C83 C79 1.460 . S
C83 C82 1.477 . S
C83 H103 0.930 1_556 S
C84 N80 1.362 . S
C84 C81 1.431 . S
C84 C94 1.476 . S
H85 C79 0.929 . S
C86 O77 1.250 . S
C86 O78 1.258 . S
O87 Mn72 2.162 . S
O87 C75 1.281 . S
O88 Mn72 2.297 . S
O88 C75 1.236 . S
N89 Mn73 2.282 . S
N89 C90 1.328 . S
N89 C94 1.318 . S
C90 N89 1.328 . S
C90 C91 1.457 . S
C90 H95 0.929 . S
C91 C90 1.457 . S
C91 C92 1.291 . S
C91 H104 0.931 . S
C92 C91 1.291 . S
C92 C93 1.373 . S
C92 H105 0.929 . S
C93 C92 1.373 . S
C93 C94 1.396 . S
C93 C100 1.403 . S
C94 C84 1.476 . S
C94 N89 1.318 . S
C94 C93 1.396 . S
H95 C90 0.929 . S
O96 Mn72 2.385 . S
O96 C74 1.234 . S
O97 Mn72 2.209 . S
O97 Mn73 2.215 . S
O97 C74 1.283 . S
O98 Mn72 2.094 . S
O98 C76 1.240 . S
O99 Mn73 2.117 . S
O99 C76 1.264 . S
C100 C93 1.403 . S
C100 C101 1.399 . S
C100 H106 0.929 . S
C101 C81 1.449 . S
C101 C100 1.399 . S
C101 H107 0.930 . S
H102 C82 0.944 . S
H103 C83 0.930 1_554 S
H104 C91 0.931 . S
H105 C92 0.929 . S
H106 C100 0.929 . S
H107 C101 0.930 . S
Mn108 O113 2.095 . S
Mn108 O123 2.162 . S
Mn108 O124 2.297 . S
Mn108 O132 2.385 . S
Mn108 O133 2.209 . S
Mn108 O134 2.094 . S
Mn109 O114 2.121 . S
Mn109 N116 2.257 . S
Mn109 N125 2.282 . S
Mn109 O133 2.215 . S
Mn109 O135 2.117 . S
C110 O132 1.234 . S
C110 O133 1.283 . S
C111 O123 1.281 . S
C111 O124 1.236 . S
C112 O134 1.240 . S
C112 O135 1.264 . S
O113 Mn108 2.095 . S
O113 C122 1.250 . S
O114 Mn109 2.121 . S
O114 C122 1.258 . S
C115 N116 1.326 . S
C115 C119 1.460 . S
C115 H121 0.929 . S
N116 Mn109 2.257 . S
N116 C115 1.326 . S
N116 C120 1.362 . S
C117 C118 1.258 . S
C117 C120 1.431 . S
C117 C137 1.449 . S
C118 C117 1.258 . S
C118 C119 1.477 . S
C118 H138 0.931 . S
C119 C115 1.460 . S
C119 C118 1.477 . S
C119 H139 0.930 . S
C120 N116 1.362 . S
C120 C117 1.431 . S
C120 C130 1.476 . S
H121 C115 0.929 . S
C122 O113 1.250 . S
C122 O114 1.258 . S
O123 Mn108 2.162 . S
O123 C111 1.281 . S
O124 Mn108 2.297 . S
O124 C111 1.236 . S
N125 Mn109 2.282 . S
N125 C126 1.328 . S
N125 C130 1.318 . S
C126 N125 1.328 . S
C126 C127 1.457 . S
C126 H131 0.929 . S
C127 C126 1.457 . S
C127 C128 1.291 . S
C127 H140 0.931 . S
C128 C127 1.291 . S
C128 C129 1.373 . S
C128 H141 0.929 . S
C129 C128 1.373 . S
C129 C130 1.396 . S
C129 C136 1.403 . S
C130 C120 1.476 . S
C130 N125 1.318 . S
C130 C129 1.396 . S
H131 C126 0.929 . S
O132 Mn108 2.385 . S
O132 C110 1.234 . S
O133 Mn108 2.209 . S
O133 Mn109 2.215 . S
O133 C110 1.283 . S
O134 Mn108 2.094 . S
O134 C112 1.240 . S
O135 Mn109 2.117 . S
O135 C112 1.264 . S
C136 C129 1.403 . S
C136 C137 1.399 . S
C136 H142 0.929 . S
C137 C117 1.449 . S
C137 C136 1.399 . S
C137 H143 0.930 . S
H138 C118 0.931 . S
H139 C119 0.930 . S
H140 C127 0.931 . S
H141 C128 0.929 . S
H142 C136 0.929 . S
H143 C137 0.930 . S
Mn144 O149 2.095 . S
Mn144 O159 2.162 1_455 S
Mn144 O160 2.297 1_455 S
Mn144 O168 2.385 1_455 S
Mn144 O169 2.209 1_455 S
Mn144 O170 2.094 . S
Mn145 O150 2.121 . S
Mn145 N152 2.257 1_455 S
Mn145 N161 2.282 1_455 S
Mn145 O169 2.215 1_455 S
Mn145 O171 2.117 . S
C146 O168 1.234 . S
C146 O169 1.283 . S
C147 O159 1.281 . S
C147 O160 1.236 . S
C148 O170 1.240 . S
C148 O171 1.264 . S
O149 Mn144 2.095 . S
O149 C158 1.250 . S
O150 Mn145 2.121 . S
O150 C158 1.258 . S
C151 N152 1.326 . S
C151 C155 1.460 . S
C151 H157 0.929 . S
N152 Mn145 2.257 1_655 S
N152 C151 1.326 . S
N152 C156 1.362 . S
C153 C154 1.258 . S
C153 C156 1.431 . S
C153 C173 1.449 . S
C154 C153 1.258 . S
C154 C155 1.477 . S
C154 H174 0.944 . S
C155 C151 1.460 . S
C155 C154 1.477 . S
C155 H175 0.930 1_554 S
C156 N152 1.362 . S
C156 C153 1.431 . S
C156 C166 1.476 . S
H157 C151 0.929 . S
C158 O149 1.250 . S
C158 O150 1.258 . S
O159 Mn144 2.162 1_655 S
O159 C147 1.281 . S
O160 Mn144 2.297 1_655 S
O160 C147 1.236 . S
N161 Mn145 2.282 1_655 S
N161 C162 1.328 . S
N161 C166 1.318 . S
C162 N161 1.328 . S
C162 C163 1.457 . S
C162 H167 0.929 1_655 S
C163 C162 1.457 . S
C163 C164 1.291 . S
C163 H176 0.931 . S
C164 C163 1.291 . S
C164 C165 1.373 . S
C164 H177 0.929 . S
C165 C164 1.373 . S
C165 C166 1.396 . S
C165 C172 1.403 . S
C166 C156 1.476 . S
C166 N161 1.318 . S
C166 C165 1.396 . S
H167 C162 0.929 1_455 S
O168 Mn144 2.385 1_655 S
O168 C146 1.234 . S
O169 Mn144 2.209 1_655 S
O169 Mn145 2.215 1_655 S
O169 C146 1.283 . S
O170 Mn144 2.094 . S
O170 C148 1.240 . S
O171 Mn145 2.117 . S
O171 C148 1.264 . S
C172 C165 1.403 . S
C172 C173 1.399 . S
C172 H178 0.929 . S
C173 C153 1.449 . S
C173 C172 1.399 . S
C173 H179 0.930 . S
H174 C154 0.944 . S
H175 C155 0.930 1_556 S
H176 C163 0.931 . S
H177 C164 0.929 . S
H178 C172 0.929 . S
H179 C173 0.930 . S
Mn180 O185 2.095 . S
Mn180 O195 2.162 . S
Mn180 O196 2.297 . S
Mn180 O204 2.385 . S
Mn180 O205 2.209 . S
Mn180 O206 2.094 . S
Mn181 O186 2.121 . S
Mn181 N188 2.257 . S
Mn181 N197 2.282 . S
Mn181 O205 2.215 . S
Mn181 O207 2.117 . S
C182 O204 1.234 . S
C182 O205 1.283 . S
C183 O195 1.281 . S
C183 O196 1.236 . S
C184 O206 1.240 . S
C184 O207 1.264 . S
O185 Mn180 2.095 . S
O185 C194 1.250 . S
O186 Mn181 2.121 . S
O186 C194 1.258 . S
C187 N188 1.326 . S
C187 C191 1.460 . S
C187 H193 0.929 . S
N188 Mn181 2.257 . S
N188 C187 1.326 . S
N188 C192 1.362 . S
C189 C190 1.258 . S
C189 C192 1.431 . S
C189 C209 1.449 . S
C190 C189 1.258 . S
C190 C191 1.477 . S
C190 H210 0.931 . S
C191 C187 1.460 . S
C191 C190 1.477 . S
C191 H211 0.930 . S
C192 N188 1.362 . S
C192 C189 1.431 . S
C192 C202 1.476 . S
H193 C187 0.929 . S
C194 O185 1.250 . S
C194 O186 1.258 . S
O195 Mn180 2.162 . S
O195 C183 1.281 . S
O196 Mn180 2.297 . S
O196 C183 1.236 . S
N197 Mn181 2.282 . S
N197 C198 1.328 . S
N197 C202 1.318 . S
C198 N197 1.328 . S
C198 C199 1.457 . S
C198 H203 0.929 . S
C199 C198 1.457 . S
C199 C200 1.291 . S
C199 H212 0.931 . S
C200 C199 1.291 . S
C200 C201 1.373 . S
C200 H213 0.929 . S
C201 C200 1.373 . S
C201 C202 1.396 . S
C201 C208 1.403 . S
C202 C192 1.476 . S
C202 N197 1.318 . S
C202 C201 1.396 . S
H203 C198 0.929 . S
O204 Mn180 2.385 . S
O204 C182 1.234 . S
O205 Mn180 2.209 . S
O205 Mn181 2.215 . S
O205 C182 1.283 . S
O206 Mn180 2.094 . S
O206 C184 1.240 . S
O207 Mn181 2.117 . S
O207 C184 1.264 . S
C208 C201 1.403 . S
C208 C209 1.399 . S
C208 H214 0.929 . S
C209 C189 1.449 . S
C209 C208 1.399 . S
C209 H215 0.930 . S
H210 C190 0.931 . S
H211 C191 0.930 . S
H212 C199 0.931 . S
H213 C200 0.929 . S
H214 C208 0.929 . S
H215 C209 0.930 . S
Mn216 O221 2.095 . S
Mn216 O231 2.162 . S
Mn216 O232 2.297 . S
Mn216 O240 2.385 . S
Mn216 O241 2.209 . S
Mn216 O242 2.094 . S
Mn217 O222 2.121 . S
Mn217 N224 2.257 . S
Mn217 N233 2.282 . S
Mn217 O241 2.215 . S
Mn217 O243 2.117 . S
C218 O240 1.234 . S
C218 O241 1.283 . S
C219 O231 1.281 . S
C219 O232 1.236 . S
C220 O242 1.240 . S
C220 O243 1.264 . S
O221 Mn216 2.095 . S
O221 C230 1.250 . S
O222 Mn217 2.121 . S
O222 C230 1.258 . S
C223 N224 1.326 . S
C223 C227 1.460 . S
C223 H229 0.929 . S
N224 Mn217 2.257 . S
N224 C223 1.326 . S
N224 C228 1.362 . S
C225 C226 1.258 . S
C225 C228 1.431 . S
C225 C245 1.449 . S
C226 C225 1.258 . S
C226 C227 1.477 . S
C226 H246 0.931 . S
C227 C223 1.460 . S
C227 C226 1.477 . S
C227 H247 0.930 . S
C228 N224 1.362 . S
C228 C225 1.431 . S
C228 C238 1.476 . S
H229 C223 0.929 . S
C230 O221 1.250 . S
C230 O222 1.258 . S
O231 Mn216 2.162 . S
O231 C219 1.281 . S
O232 Mn216 2.297 . S
O232 C219 1.236 . S
N233 Mn217 2.282 . S
N233 C234 1.328 . S
N233 C238 1.318 . S
C234 N233 1.328 . S
C234 C235 1.457 . S
C234 H239 0.929 . S
C235 C234 1.457 . S
C235 C236 1.291 . S
C235 H248 0.931 . S
C236 C235 1.291 . S
C236 C237 1.373 . S
C236 H249 0.929 . S
C237 C236 1.373 . S
C237 C238 1.396 . S
C237 C244 1.403 . S
C238 C228 1.476 . S
C238 N233 1.318 . S
C238 C237 1.396 . S
H239 C234 0.929 . S
O240 Mn216 2.385 . S
O240 C218 1.234 . S
O241 Mn216 2.209 . S
O241 Mn217 2.215 . S
O241 C218 1.283 . S
O242 Mn216 2.094 . S
O242 C220 1.240 . S
O243 Mn217 2.117 . S
O243 C220 1.264 . S
C244 C237 1.403 . S
C244 C245 1.399 . S
C244 H250 0.929 . S
C245 C225 1.449 . S
C245 C244 1.399 . S
C245 H251 0.930 . S
H246 C226 0.931 . S
H247 C227 0.930 . S
H248 C235 0.931 . S
H249 C236 0.929 . S
H250 C244 0.929 . S
H251 C245 0.930 . S
Mn252 O257 2.095 . S
Mn252 O267 2.162 . S
Mn252 O268 2.297 . S
Mn252 O276 2.385 . S
Mn252 O277 2.209 . S
Mn252 O278 2.094 . S
Mn253 O258 2.121 . S
Mn253 N260 2.257 . S
Mn253 N269 2.282 . S
Mn253 O277 2.215 . S
Mn253 O279 2.117 . S
C254 O276 1.234 . S
C254 O277 1.283 . S
C255 O267 1.281 . S
C255 O268 1.236 . S
C256 O278 1.240 . S
C256 O279 1.264 . S
O257 Mn252 2.095 . S
O257 C266 1.250 . S
O258 Mn253 2.121 . S
O258 C266 1.258 . S
C259 N260 1.326 . S
C259 C263 1.460 . S
C259 H265 0.929 . S
N260 Mn253 2.257 . S
N260 C259 1.326 . S
N260 C264 1.362 . S
C261 C262 1.258 . S
C261 C264 1.431 . S
C261 C281 1.449 . S
C262 C261 1.258 . S
C262 C263 1.477 . S
C262 H282 0.931 . S
C263 C259 1.460 . S
C263 C262 1.477 . S
C263 H283 0.930 . S
C264 N260 1.362 . S
C264 C261 1.431 . S
C264 C274 1.476 . S
H265 C259 0.929 . S
C266 O257 1.250 . S
C266 O258 1.258 . S
O267 Mn252 2.162 . S
O267 C255 1.281 . S
O268 Mn252 2.297 . S
O268 C255 1.236 . S
N269 Mn253 2.282 . S
N269 C270 1.328 . S
N269 C274 1.318 . S
C270 N269 1.328 . S
C270 C271 1.457 . S
C270 H275 0.929 . S
C271 C270 1.457 . S
C271 C272 1.291 . S
C271 H284 0.931 . S
C272 C271 1.291 . S
C272 C273 1.373 . S
C272 H285 0.929 1_455 S
C273 C272 1.373 . S
C273 C274 1.396 . S
C273 C280 1.390 1_455 S
C274 C264 1.476 . S
C274 N269 1.318 . S
C274 C273 1.396 . S
H275 C270 0.929 . S
O276 Mn252 2.385 . S
O276 C254 1.234 . S
O277 Mn252 2.209 . S
O277 Mn253 2.215 . S
O277 C254 1.283 . S
O278 Mn252 2.094 . S
O278 C256 1.240 . S
O279 Mn253 2.117 . S
O279 C256 1.264 . S
C280 C273 1.390 1_655 S
C280 C281 1.391 1_655 S
C280 H286 0.952 . S
C281 C261 1.449 . S
C281 C280 1.391 1_455 S
C281 H287 0.904 1_455 S
H282 C262 0.931 . S
H283 C263 0.930 . S
H284 C271 0.931 . S
H285 C272 0.929 1_655 S
H286 C280 0.952 . S
H287 C281 0.904 1_655 S
Mn288 O293 2.095 . S
Mn288 O303 2.162 1_545 S
Mn288 O304 2.297 1_545 S
Mn288 O312 2.385 1_545 S
Mn288 O313 2.209 1_545 S
Mn288 O314 2.094 . S
Mn289 O294 2.121 . S
Mn289 N296 2.257 1_545 S
Mn289 N305 2.282 1_545 S
Mn289 O313 2.215 1_545 S
Mn289 O315 2.117 . S
C290 O312 1.234 . S
C290 O313 1.283 . S
C291 O303 1.281 . S
C291 O304 1.236 . S
C292 O314 1.240 . S
C292 O315 1.264 . S
O293 Mn288 2.095 . S
O293 C302 1.250 . S
O294 Mn289 2.121 . S
O294 C302 1.258 . S
C295 N296 1.326 . S
C295 C299 1.460 . S
C295 H301 0.929 . S
N296 Mn289 2.257 1_565 S
N296 C295 1.326 . S
N296 C300 1.362 . S
C297 C298 1.258 . S
C297 C300 1.431 . S
C297 C317 1.449 . S
C298 C297 1.258 . S
C298 C299 1.477 . S
C298 H318 0.931 . S
C299 C295 1.460 . S
C299 C298 1.477 . S
C299 H319 0.930 . S
C300 N296 1.362 . S
C300 C297 1.431 . S
C300 C310 1.476 . S
H301 C295 0.929 . S
C302 O293 1.250 . S
C302 O294 1.258 . S
O303 Mn288 2.162 1_565 S
O303 C291 1.281 . S
O304 Mn288 2.297 1_565 S
O304 C291 1.236 . S
N305 Mn289 2.282 1_565 S
N305 C306 1.328 . S
N305 C310 1.318 . S
C306 N305 1.328 . S
C306 C307 1.457 . S
C306 H311 0.929 1_565 S
C307 C306 1.457 . S
C307 C308 1.291 . S
C307 H320 0.931 . S
C308 C307 1.291 . S
C308 C309 1.373 . S
C308 H321 0.929 . S
C309 C308 1.373 . S
C309 C310 1.396 . S
C309 C316 1.403 . S
C310 C300 1.476 . S
C310 N305 1.318 . S
C310 C309 1.396 . S
H311 C306 0.929 1_545 S
O312 Mn288 2.385 1_565 S
O312 C290 1.234 . S
O313 Mn288 2.209 1_565 S
O313 Mn289 2.215 1_565 S
O313 C290 1.283 . S
O314 Mn288 2.094 . S
O314 C292 1.240 . S
O315 Mn289 2.117 . S
O315 C292 1.264 . S
C316 C309 1.403 . S
C316 C317 1.399 . S
C316 H322 0.929 . S
C317 C297 1.449 . S
C317 C316 1.399 . S
C317 H323 0.930 . S
H318 C298 0.931 . S
H319 C299 0.930 . S
H320 C307 0.931 . S
H321 C308 0.929 . S
H322 C316 0.929 . S
H323 C317 0.930 . S
Mn324 O329 2.095 . S
Mn324 O339 2.162 . S
Mn324 O340 2.297 . S
Mn324 O348 2.385 . S
Mn324 O349 2.209 . S
Mn324 O350 2.094 . S
Mn325 O330 2.121 . S
Mn325 N332 2.257 . S
Mn325 N341 2.282 . S
Mn325 O349 2.215 . S
Mn325 O351 2.117 . S
C326 O348 1.234 . S
C326 O349 1.283 . S
C327 O339 1.281 . S
C327 O340 1.236 . S
C328 O350 1.240 . S
C328 O351 1.264 . S
O329 Mn324 2.095 . S
O329 C338 1.250 . S
O330 Mn325 2.121 . S
O330 C338 1.258 . S
C331 N332 1.326 . S
C331 C335 1.460 . S
C331 H337 0.929 . S
N332 Mn325 2.257 . S
N332 C331 1.326 . S
N332 C336 1.362 . S
C333 C334 1.258 . S
C333 C336 1.431 . S
C333 C353 1.449 . S
C334 C333 1.258 . S
C334 C335 1.477 . S
C334 H354 0.931 . S
C335 C331 1.460 . S
C335 C334 1.477 . S
C335 H355 0.930 . S
C336 N332 1.362 . S
C336 C333 1.431 . S
C336 C346 1.476 . S
H337 C331 0.929 . S
C338 O329 1.250 . S
C338 O330 1.258 . S
O339 Mn324 2.162 . S
O339 C327 1.281 . S
O340 Mn324 2.297 . S
O340 C327 1.236 . S
N341 Mn325 2.282 . S
N341 C342 1.328 . S
N341 C346 1.318 . S
C342 N341 1.328 . S
C342 C343 1.457 . S
C342 H347 0.929 . S
C343 C342 1.457 . S
C343 C344 1.291 . S
C343 H356 0.931 . S
C344 C343 1.291 . S
C344 C345 1.373 . S
C344 H357 0.929 . S
C345 C344 1.373 . S
C345 C346 1.396 . S
C345 C352 1.403 . S
C346 C336 1.476 . S
C346 N341 1.318 . S
C346 C345 1.396 . S
H347 C342 0.929 . S
O348 Mn324 2.385 . S
O348 C326 1.234 . S
O349 Mn324 2.209 . S
O349 Mn325 2.215 . S
O349 C326 1.283 . S
O350 Mn324 2.094 . S
O350 C328 1.240 . S
O351 Mn325 2.117 . S
O351 C328 1.264 . S
C352 C345 1.403 . S
C352 C353 1.399 . S
C352 H358 0.929 . S
C353 C333 1.449 . S
C353 C352 1.399 . S
C353 H359 0.930 . S
H354 C334 0.931 . S
H355 C335 0.930 . S
H356 C343 0.931 . S
H357 C344 0.929 . S
H358 C352 0.929 . S
H359 C353 0.930 . S
Mn360 O365 2.095 . S
Mn360 O375 2.162 1_565 S
Mn360 O376 2.297 1_565 S
Mn360 O384 2.385 1_565 S
Mn360 O385 2.209 1_565 S
Mn360 O386 2.094 . S
Mn361 O366 2.121 . S
Mn361 N368 2.257 1_565 S
Mn361 N377 2.282 1_565 S
Mn361 O385 2.215 1_565 S
Mn361 O387 2.117 . S
C362 O384 1.234 . S
C362 O385 1.283 . S
C363 O375 1.281 . S
C363 O376 1.236 . S
C364 O386 1.240 . S
C364 O387 1.264 . S
O365 Mn360 2.095 . S
O365 C374 1.250 . S
O366 Mn361 2.121 . S
O366 C374 1.258 . S
C367 N368 1.326 . S
C367 C371 1.460 . S
C367 H373 0.929 . S
N368 Mn361 2.257 1_545 S
N368 C367 1.326 . S
N368 C372 1.362 . S
C369 C370 1.258 . S
C369 C372 1.431 . S
C369 C389 1.449 . S
C370 C369 1.258 . S
C370 C371 1.477 . S
C370 H390 0.943 . S
C371 C367 1.460 . S
C371 C370 1.477 . S
C371 H391 0.930 1_455 S
C372 N368 1.362 . S
C372 C369 1.431 . S
C372 C382 1.476 . S
H373 C367 0.929 . S
C374 O365 1.250 . S
C374 O366 1.258 . S
O375 Mn360 2.162 1_545 S
O375 C363 1.281 . S
O376 Mn360 2.297 1_545 S
O376 C363 1.236 . S
N377 Mn361 2.282 1_545 S
N377 C378 1.328 . S
N377 C382 1.318 . S
C378 N377 1.328 . S
C378 C379 1.457 . S
C378 H383 0.929 1_545 S
C379 C378 1.457 . S
C379 C380 1.291 . S
C379 H392 0.931 . S
C380 C379 1.291 . S
C380 C381 1.373 . S
C380 H393 0.929 . S
C381 C380 1.373 . S
C381 C382 1.396 . S
C381 C388 1.403 . S
C382 C372 1.476 . S
C382 N377 1.318 . S
C382 C381 1.396 . S
H383 C378 0.929 1_565 S
O384 Mn360 2.385 1_545 S
O384 C362 1.234 . S
O385 Mn360 2.209 1_545 S
O385 Mn361 2.215 1_545 S
O385 C362 1.283 . S
O386 Mn360 2.094 . S
O386 C364 1.240 . S
O387 Mn361 2.117 . S
O387 C364 1.264 . S
C388 C381 1.403 . S
C388 C389 1.399 . S
C388 H394 0.929 . S
C389 C369 1.449 . S
C389 C388 1.399 . S
C389 H395 0.930 . S
H390 C370 0.943 . S
H391 C371 0.930 1_655 S
H392 C379 0.931 . S
H393 C380 0.929 . S
H394 C388 0.929 . S
H395 C389 0.930 . S
Mn396 O401 2.095 . S
Mn396 O411 2.162 . S
Mn396 O412 2.297 . S
Mn396 O420 2.385 . S
Mn396 O421 2.209 . S
Mn396 O422 2.094 . S
Mn397 O402 2.121 . S
Mn397 N404 2.257 . S
Mn397 N413 2.282 . S
Mn397 O421 2.215 . S
Mn397 O423 2.117 . S
C398 O420 1.234 . S
C398 O421 1.283 . S
C399 O411 1.281 . S
C399 O412 1.236 . S
C400 O422 1.240 . S
C400 O423 1.264 . S
O401 Mn396 2.095 . S
O401 C410 1.250 . S
O402 Mn397 2.121 . S
O402 C410 1.258 . S
C403 N404 1.326 . S
C403 C407 1.460 . S
C403 H409 0.929 . S
N404 Mn397 2.257 . S
N404 C403 1.326 . S
N404 C408 1.362 . S
C405 C406 1.258 . S
C405 C408 1.431 . S
C405 C425 1.449 . S
C406 C405 1.258 . S
C406 C407 1.477 . S
C406 H426 0.931 . S
C407 C403 1.460 . S
C407 C406 1.477 . S
C407 H427 0.930 . S
C408 N404 1.362 . S
C408 C405 1.431 . S
C408 C418 1.476 . S
H409 C403 0.929 . S
C410 O401 1.250 . S
C410 O402 1.258 . S
O411 Mn396 2.162 . S
O411 C399 1.281 . S
O412 Mn396 2.297 . S
O412 C399 1.236 . S
N413 Mn397 2.282 . S
N413 C414 1.328 . S
N413 C418 1.318 . S
C414 N413 1.328 . S
C414 C415 1.457 . S
C414 H419 0.929 . S
C415 C414 1.457 . S
C415 C416 1.291 . S
C415 H428 0.931 . S
C416 C415 1.291 . S
C416 C417 1.373 . S
C416 H429 0.929 1_556 S
C417 C416 1.373 . S
C417 C418 1.396 . S
C417 C424 1.390 1_556 S
C418 C408 1.476 . S
C418 N413 1.318 . S
C418 C417 1.396 . S
H419 C414 0.929 . S
O420 Mn396 2.385 . S
O420 C398 1.234 . S
O421 Mn396 2.209 . S
O421 Mn397 2.215 . S
O421 C398 1.283 . S
O422 Mn396 2.094 . S
O422 C400 1.240 . S
O423 Mn397 2.117 . S
O423 C400 1.264 . S
C424 C417 1.390 1_554 S
C424 C425 1.391 1_554 S
C424 H430 0.951 . S
C425 C405 1.449 . S
C425 C424 1.391 1_556 S
C425 H431 0.904 1_556 S
H426 C406 0.931 . S
H427 C407 0.930 . S
H428 C415 0.931 . S
H429 C416 0.929 1_554 S
H430 C424 0.951 . S
H431 C425 0.904 1_554 S
Mn432 O437 2.095 . S
Mn432 O447 2.162 1_565 S
Mn432 O448 2.297 1_565 S
Mn432 O456 2.385 1_565 S
Mn432 O457 2.209 1_565 S
Mn432 O458 2.094 . S
Mn433 O438 2.121 . S
Mn433 N440 2.257 1_565 S
Mn433 N449 2.282 1_565 S
Mn433 O457 2.215 1_565 S
Mn433 O459 2.117 . S
C434 O456 1.234 . S
C434 O457 1.283 . S
C435 O447 1.281 . S
C435 O448 1.236 . S
C436 O458 1.240 . S
C436 O459 1.264 . S
O437 Mn432 2.095 . S
O437 C446 1.250 . S
O438 Mn433 2.121 . S
O438 C446 1.258 . S
C439 N440 1.326 . S
C439 C443 1.460 . S
C439 H445 0.929 . S
N440 Mn433 2.257 1_545 S
N440 C439 1.326 . S
N440 C444 1.362 . S
C441 C442 1.258 . S
C441 C444 1.431 . S
C441 C461 1.449 . S
C442 C441 1.258 . S
C442 C443 1.477 . S
C442 H462 0.931 . S
C443 C439 1.460 . S
C443 C442 1.477 . S
C443 H463 0.930 . S
C444 N440 1.362 . S
C444 C441 1.431 . S
C444 C454 1.476 . S
H445 C439 0.929 . S
C446 O437 1.250 . S
C446 O438 1.258 . S
O447 Mn432 2.162 1_545 S
O447 C435 1.281 . S
O448 Mn432 2.297 1_545 S
O448 C435 1.236 . S
N449 Mn433 2.282 1_545 S
N449 C450 1.328 . S
N449 C454 1.318 . S
C450 N449 1.328 . S
C450 C451 1.457 . S
C450 H455 0.929 1_545 S
C451 C450 1.457 . S
C451 C452 1.291 . S
C451 H464 0.931 . S
C452 C451 1.291 . S
C452 C453 1.373 . S
C452 H465 0.929 . S
C453 C452 1.373 . S
C453 C454 1.396 . S
C453 C460 1.403 . S
C454 C444 1.476 . S
C454 N449 1.318 . S
C454 C453 1.396 . S
H455 C450 0.929 1_565 S
O456 Mn432 2.385 1_545 S
O456 C434 1.234 . S
O457 Mn432 2.209 1_545 S
O457 Mn433 2.215 1_545 S
O457 C434 1.283 . S
O458 Mn432 2.094 . S
O458 C436 1.240 . S
O459 Mn433 2.117 . S
O459 C436 1.264 . S
C460 C453 1.403 . S
C460 C461 1.399 . S
C460 H466 0.929 . S
C461 C441 1.449 . S
C461 C460 1.399 . S
C461 H467 0.930 . S
H462 C442 0.931 . S
H463 C443 0.930 . S
H464 C451 0.931 . S
H465 C452 0.929 . S
H466 C460 0.929 . S
H467 C461 0.930 . S
Mn468 O473 2.095 . S
Mn468 O483 2.162 . S
Mn468 O484 2.297 . S
Mn468 O492 2.385 . S
Mn468 O493 2.209 . S
Mn468 O494 2.094 . S
Mn469 O474 2.121 . S
Mn469 N476 2.257 . S
Mn469 N485 2.282 . S
Mn469 O493 2.215 . S
Mn469 O495 2.117 . S
C470 O492 1.234 . S
C470 O493 1.283 . S
C471 O483 1.281 . S
C471 O484 1.236 . S
C472 O494 1.240 . S
C472 O495 1.264 . S
O473 Mn468 2.095 . S
O473 C482 1.250 . S
O474 Mn469 2.121 . S
O474 C482 1.258 . S
C475 N476 1.326 . S
C475 C479 1.460 . S
C475 H481 0.929 . S
N476 Mn469 2.257 . S
N476 C475 1.326 . S
N476 C480 1.362 . S
C477 C478 1.258 . S
C477 C480 1.431 . S
C477 C497 1.449 . S
C478 C477 1.258 . S
C478 C479 1.477 . S
C478 H498 0.931 . S
C479 C475 1.460 . S
C479 C478 1.477 . S
C479 H499 0.930 . S
C480 N476 1.362 . S
C480 C477 1.431 . S
C480 C490 1.476 . S
H481 C475 0.929 . S
C482 O473 1.250 . S
C482 O474 1.258 . S
O483 Mn468 2.162 . S
O483 C471 1.281 . S
O484 Mn468 2.297 . S
O484 C471 1.236 . S
N485 Mn469 2.282 . S
N485 C486 1.328 . S
N485 C490 1.318 . S
C486 N485 1.328 . S
C486 C487 1.457 . S
C486 H491 0.929 . S
C487 C486 1.457 . S
C487 C488 1.291 . S
C487 H500 0.931 . S
C488 C487 1.291 . S
C488 C489 1.373 . S
C488 H501 0.929 . S
C489 C488 1.373 . S
C489 C490 1.396 . S
C489 C496 1.403 . S
C490 C480 1.476 . S
C490 N485 1.318 . S
C490 C489 1.396 . S
H491 C486 0.929 . S
O492 Mn468 2.385 . S
O492 C470 1.234 . S
O493 Mn468 2.209 . S
O493 Mn469 2.215 . S
O493 C470 1.283 . S
O494 Mn468 2.094 . S
O494 C472 1.240 . S
O495 Mn469 2.117 . S
O495 C472 1.264 . S
C496 C489 1.403 . S
C496 C497 1.399 . S
C496 H502 0.929 . S
C497 C477 1.449 . S
C497 C496 1.399 . S
C497 H503 0.930 . S
H498 C478 0.931 . S
H499 C479 0.930 . S
H500 C487 0.931 . S
H501 C488 0.929 . S
H502 C496 0.929 . S
H503 C497 0.930 . S
Mn504 O509 2.095 . S
Mn504 O519 2.162 1_545 S
Mn504 O520 2.297 1_545 S
Mn504 O528 2.385 1_545 S
Mn504 O529 2.209 1_545 S
Mn504 O530 2.094 . S
Mn505 O510 2.121 . S
Mn505 N512 2.257 1_545 S
Mn505 N521 2.282 1_545 S
Mn505 O529 2.215 1_545 S
Mn505 O531 2.117 . S
C506 O528 1.234 . S
C506 O529 1.283 . S
C507 O519 1.281 . S
C507 O520 1.236 . S
C508 O530 1.240 . S
C508 O531 1.264 . S
O509 Mn504 2.095 . S
O509 C518 1.250 . S
O510 Mn505 2.121 . S
O510 C518 1.258 . S
C511 N512 1.326 . S
C511 C515 1.460 . S
C511 H517 0.929 . S
N512 Mn505 2.257 1_565 S
N512 C511 1.326 . S
N512 C516 1.362 . S
C513 C514 1.258 . S
C513 C516 1.431 . S
C513 C533 1.449 . S
C514 C513 1.258 . S
C514 C515 1.477 . S
C514 H534 0.944 . S
C515 C511 1.460 . S
C515 C514 1.477 . S
C515 H535 0.930 1_455 S
C516 N512 1.362 . S
C516 C513 1.431 . S
C516 C526 1.476 . S
H517 C511 0.929 . S
C518 O509 1.250 . S
C518 O510 1.258 . S
O519 Mn504 2.162 1_565 S
O519 C507 1.281 . S
O520 Mn504 2.297 1_565 S
O520 C507 1.236 . S
N521 Mn505 2.282 1_565 S
N521 C522 1.328 . S
N521 C526 1.318 . S
C522 N521 1.328 . S
C522 C523 1.457 . S
C522 H527 0.929 1_565 S
C523 C522 1.457 . S
C523 C524 1.291 . S
C523 H536 0.931 . S
C524 C523 1.291 . S
C524 C525 1.373 . S
C524 H537 0.929 . S
C525 C524 1.373 . S
C525 C526 1.396 . S
C525 C532 1.403 . S
C526 C516 1.476 . S
C526 N521 1.318 . S
C526 C525 1.396 . S
H527 C522 0.929 1_545 S
O528 Mn504 2.385 1_565 S
O528 C506 1.234 . S
O529 Mn504 2.209 1_565 S
O529 Mn505 2.215 1_565 S
O529 C506 1.283 . S
O530 Mn504 2.094 . S
O530 C508 1.240 . S
O531 Mn505 2.117 . S
O531 C508 1.264 . S
C532 C525 1.403 . S
C532 C533 1.399 . S
C532 H538 0.929 . S
C533 C513 1.449 . S
C533 C532 1.399 . S
C533 H539 0.930 . S
H534 C514 0.944 . S
H535 C515 0.930 1_655 S
H536 C523 0.931 . S
H537 C524 0.929 . S
H538 C532 0.929 . S
H539 C533 0.930 . S
Mn540 O545 2.095 . S
Mn540 O555 2.162 . S
Mn540 O556 2.297 . S
Mn540 O564 2.385 . S
Mn540 O565 2.209 . S
Mn540 O566 2.094 . S
Mn541 O546 2.121 . S
Mn541 N548 2.257 . S
Mn541 N557 2.282 . S
Mn541 O565 2.215 . S
Mn541 O567 2.117 . S
C542 O564 1.234 . S
C542 O565 1.283 . S
C543 O555 1.281 . S
C543 O556 1.236 . S
C544 O566 1.240 . S
C544 O567 1.264 . S
O545 Mn540 2.095 . S
O545 C554 1.250 . S
O546 Mn541 2.121 . S
O546 C554 1.258 . S
C547 N548 1.326 . S
C547 C551 1.460 . S
C547 H553 0.929 . S
N548 Mn541 2.257 . S
N548 C547 1.326 . S
N548 C552 1.362 . S
C549 C550 1.258 . S
C549 C552 1.431 . S
C549 C569 1.449 . S
C550 C549 1.258 . S
C550 C551 1.477 . S
C550 H570 0.931 . S
C551 C547 1.460 . S
C551 C550 1.477 . S
C551 H571 0.930 . S
C552 N548 1.362 . S
C552 C549 1.431 . S
C552 C562 1.476 . S
H553 C547 0.929 . S
C554 O545 1.250 . S
C554 O546 1.258 . S
O555 Mn540 2.162 . S
O555 C543 1.281 . S
O556 Mn540 2.297 . S
O556 C543 1.236 . S
N557 Mn541 2.282 . S
N557 C558 1.328 . S
N557 C562 1.318 . S
C558 N557 1.328 . S
C558 C559 1.457 . S
C558 H563 0.929 . S
C559 C558 1.457 . S
C559 C560 1.291 . S
C559 H572 0.931 . S
C560 C559 1.291 . S
C560 C561 1.373 . S
C560 H573 0.929 1_554 S
C561 C560 1.373 . S
C561 C562 1.396 . S
C561 C568 1.390 1_554 S
C562 C552 1.476 . S
C562 N557 1.318 . S
C562 C561 1.396 . S
H563 C558 0.929 . S
O564 Mn540 2.385 . S
O564 C542 1.234 . S
O565 Mn540 2.209 . S
O565 Mn541 2.215 . S
O565 C542 1.283 . S
O566 Mn540 2.094 . S
O566 C544 1.240 . S
O567 Mn541 2.117 . S
O567 C544 1.264 . S
C568 C561 1.390 1_556 S
C568 C569 1.391 1_556 S
C568 H574 0.952 . S
C569 C549 1.449 . S
C569 C568 1.391 1_554 S
C569 H575 0.904 1_554 S
H570 C550 0.931 . S
H571 C551 0.930 . S
H572 C559 0.931 . S
H573 C560 0.929 1_556 S
H574 C568 0.952 . S
H575 C569 0.904 1_556 S
Mn576 O581 2.095 . S
Mn576 O591 2.162 1_554 S
Mn576 O592 2.297 1_554 S
Mn576 O600 2.385 1_554 S
Mn576 O601 2.209 1_554 S
Mn576 O602 2.094 . S
Mn577 O582 2.121 . S
Mn577 N584 2.257 1_554 S
Mn577 N593 2.282 1_554 S
Mn577 O601 2.215 1_554 S
Mn577 O603 2.117 . S
C578 O600 1.234 . S
C578 O601 1.283 . S
C579 O591 1.281 . S
C579 O592 1.236 . S
C580 O602 1.240 . S
C580 O603 1.264 . S
O581 Mn576 2.095 . S
O581 C590 1.250 . S
O582 Mn577 2.121 . S
O582 C590 1.258 . S
C583 N584 1.326 . S
C583 C587 1.460 . S
C583 H589 0.929 . S
N584 Mn577 2.257 1_556 S
N584 C583 1.326 . S
N584 C588 1.362 . S
C585 C586 1.258 . S
C585 C588 1.431 . S
C585 C605 1.449 . S
C586 C585 1.258 . S
C586 C587 1.477 . S
C586 H606 0.931 . S
C587 C583 1.460 . S
C587 C586 1.477 . S
C587 H607 0.930 . S
C588 N584 1.362 . S
C588 C585 1.431 . S
C588 C598 1.476 . S
H589 C583 0.929 . S
C590 O581 1.250 . S
C590 O582 1.258 . S
O591 Mn576 2.162 1_556 S
O591 C579 1.281 . S
O592 Mn576 2.297 1_556 S
O592 C579 1.236 . S
N593 Mn577 2.282 1_556 S
N593 C594 1.328 . S
N593 C598 1.318 . S
C594 N593 1.328 . S
C594 C595 1.457 . S
C594 H599 0.929 1_556 S
C595 C594 1.457 . S
C595 C596 1.291 . S
C595 H608 0.931 . S
C596 C595 1.291 . S
C596 C597 1.373 . S
C596 H609 0.929 . S
C597 C596 1.373 . S
C597 C598 1.396 . S
C597 C604 1.403 . S
C598 C588 1.476 . S
C598 N593 1.318 . S
C598 C597 1.396 . S
H599 C594 0.929 1_554 S
O600 Mn576 2.385 1_556 S
O600 C578 1.234 . S
O601 Mn576 2.209 1_556 S
O601 Mn577 2.215 1_556 S
O601 C578 1.283 . S
O602 Mn576 2.094 . S
O602 C580 1.240 . S
O603 Mn577 2.117 . S
O603 C580 1.264 . S
C604 C597 1.403 . S
C604 C605 1.399 . S
C604 H610 0.929 . S
C605 C585 1.449 . S
C605 C604 1.399 . S
C605 H611 0.930 . S
H606 C586 0.931 . S
H607 C587 0.930 . S
H608 C595 0.931 . S
H609 C596 0.929 . S
H610 C604 0.929 . S
H611 C605 0.930 . S
Mn612 O617 2.095 . S
Mn612 O627 2.162 1_556 S
Mn612 O628 2.297 1_556 S
Mn612 O636 2.385 1_556 S
Mn612 O637 2.209 1_556 S
Mn612 O638 2.094 . S
Mn613 O618 2.121 . S
Mn613 N620 2.257 1_556 S
Mn613 N629 2.282 1_556 S
Mn613 O637 2.215 1_556 S
Mn613 O639 2.117 . S
C614 O636 1.234 . S
C614 O637 1.283 . S
C615 O627 1.281 . S
C615 O628 1.236 . S
C616 O638 1.240 . S
C616 O639 1.264 . S
O617 Mn612 2.095 . S
O617 C626 1.250 . S
O618 Mn613 2.121 . S
O618 C626 1.258 . S
C619 N620 1.326 . S
C619 C623 1.460 . S
C619 H625 0.929 . S
N620 Mn613 2.257 1_554 S
N620 C619 1.326 . S
N620 C624 1.362 . S
C621 C622 1.258 . S
C621 C624 1.431 . S
C621 C641 1.449 . S
C622 C621 1.258 . S
C622 C623 1.477 . S
C622 H642 0.943 . S
C623 C619 1.460 . S
C623 C622 1.477 . S
C623 H643 0.930 1_545 S
C624 N620 1.362 . S
C624 C621 1.431 . S
C624 C634 1.476 . S
H625 C619 0.929 . S
C626 O617 1.250 . S
C626 O618 1.258 . S
O627 Mn612 2.162 1_554 S
O627 C615 1.281 . S
O628 Mn612 2.297 1_554 S
O628 C615 1.236 . S
N629 Mn613 2.282 1_554 S
N629 C630 1.328 . S
N629 C634 1.318 . S
C630 N629 1.328 . S
C630 C631 1.457 . S
C630 H635 0.929 1_554 S
C631 C630 1.457 . S
C631 C632 1.291 . S
C631 H644 0.931 . S
C632 C631 1.291 . S
C632 C633 1.373 . S
C632 H645 0.929 . S
C633 C632 1.373 . S
C633 C634 1.396 . S
C633 C640 1.403 . S
C634 C624 1.476 . S
C634 N629 1.318 . S
C634 C633 1.396 . S
H635 C630 0.929 1_556 S
O636 Mn612 2.385 1_554 S
O636 C614 1.234 . S
O637 Mn612 2.209 1_554 S
O637 Mn613 2.215 1_554 S
O637 C614 1.283 . S
O638 Mn612 2.094 . S
O638 C616 1.240 . S
O639 Mn613 2.117 . S
O639 C616 1.264 . S
C640 C633 1.403 . S
C640 C641 1.399 . S
C640 H646 0.929 . S
C641 C621 1.449 . S
C641 C640 1.399 . S
C641 H647 0.930 . S
H642 C622 0.943 . S
H643 C623 0.930 1_565 S
H644 C631 0.931 . S
H645 C632 0.929 . S
H646 C640 0.929 . S
H647 C641 0.930 . S
Mn648 O653 2.095 . S
Mn648 O663 2.162 . S
Mn648 O664 2.297 . S
Mn648 O672 2.385 . S
Mn648 O673 2.209 . S
Mn648 O674 2.094 . S
Mn649 O654 2.121 . S
Mn649 N656 2.257 . S
Mn649 N665 2.282 . S
Mn649 O673 2.215 . S
Mn649 O675 2.117 . S
C650 O672 1.234 . S
C650 O673 1.283 . S
C651 O663 1.281 . S
C651 O664 1.236 . S
C652 O674 1.240 . S
C652 O675 1.264 . S
O653 Mn648 2.095 . S
O653 C662 1.250 . S
O654 Mn649 2.121 . S
O654 C662 1.258 . S
C655 N656 1.326 . S
C655 C659 1.460 . S
C655 H661 0.929 . S
N656 Mn649 2.257 . S
N656 C655 1.326 . S
N656 C660 1.362 . S
C657 C658 1.258 . S
C657 C660 1.431 . S
C657 C677 1.449 . S
C658 C657 1.258 . S
C658 C659 1.477 . S
C658 H678 0.931 . S
C659 C655 1.460 . S
C659 C658 1.477 . S
C659 H679 0.930 . S
C660 N656 1.362 . S
C660 C657 1.431 . S
C660 C670 1.476 . S
H661 C655 0.929 . S
C662 O653 1.250 . S
C662 O654 1.258 . S
O663 Mn648 2.162 . S
O663 C651 1.281 . S
O664 Mn648 2.297 . S
O664 C651 1.236 . S
N665 Mn649 2.282 . S
N665 C666 1.328 . S
N665 C670 1.318 . S
C666 N665 1.328 . S
C666 C667 1.457 . S
C666 H671 0.929 . S
C667 C666 1.457 . S
C667 C668 1.291 . S
C667 H680 0.931 . S
C668 C667 1.291 . S
C668 C669 1.373 . S
C668 H681 0.929 . S
C669 C668 1.373 . S
C669 C670 1.396 . S
C669 C676 1.403 . S
C670 C660 1.476 . S
C670 N665 1.318 . S
C670 C669 1.396 . S
H671 C666 0.929 . S
O672 Mn648 2.385 . S
O672 C650 1.234 . S
O673 Mn648 2.209 . S
O673 Mn649 2.215 . S
O673 C650 1.283 . S
O674 Mn648 2.094 . S
O674 C652 1.240 . S
O675 Mn649 2.117 . S
O675 C652 1.264 . S
C676 C669 1.403 . S
C676 C677 1.399 . S
C676 H682 0.929 . S
C677 C657 1.449 . S
C677 C676 1.399 . S
C677 H683 0.930 . S
H678 C658 0.931 . S
H679 C659 0.930 . S
H680 C667 0.931 . S
H681 C668 0.929 . S
H682 C676 0.929 . S
H683 C677 0.930 . S
Mn684 O689 2.095 . S
Mn684 O699 2.162 . S
Mn684 O700 2.297 . S
Mn684 O708 2.385 . S
Mn684 O709 2.209 . S
Mn684 O710 2.094 . S
Mn685 O690 2.121 . S
Mn685 N692 2.257 . S
Mn685 N701 2.282 . S
Mn685 O709 2.215 . S
Mn685 O711 2.117 . S
C686 O708 1.234 . S
C686 O709 1.283 . S
C687 O699 1.281 . S
C687 O700 1.236 . S
C688 O710 1.240 . S
C688 O711 1.264 . S
O689 Mn684 2.095 . S
O689 C698 1.250 . S
O690 Mn685 2.121 . S
O690 C698 1.258 . S
C691 N692 1.326 . S
C691 C695 1.460 . S
C691 H697 0.929 . S
N692 Mn685 2.257 . S
N692 C691 1.326 . S
N692 C696 1.362 . S
C693 C694 1.258 . S
C693 C696 1.431 . S
C693 C713 1.449 . S
C694 C693 1.258 . S
C694 C695 1.477 . S
C694 H714 0.944 . S
C695 C691 1.460 . S
C695 C694 1.477 . S
C695 H715 0.930 1_565 S
C696 N692 1.362 . S
C696 C693 1.431 . S
C696 C706 1.476 . S
H697 C691 0.929 . S
C698 O689 1.250 . S
C698 O690 1.258 . S
O699 Mn684 2.162 . S
O699 C687 1.281 . S
O700 Mn684 2.297 . S
O700 C687 1.236 . S
N701 Mn685 2.282 . S
N701 C702 1.328 . S
N701 C706 1.318 . S
C702 N701 1.328 . S
C702 C703 1.457 . S
C702 H707 0.929 . S
C703 C702 1.457 . S
C703 C704 1.291 . S
C703 H716 0.931 . S
C704 C703 1.291 . S
C704 C705 1.373 . S
C704 H717 0.929 . S
C705 C704 1.373 . S
C705 C706 1.396 . S
C705 C712 1.403 . S
C706 C696 1.476 . S
C706 N701 1.318 . S
C706 C705 1.396 . S
H707 C702 0.929 . S
O708 Mn684 2.385 . S
O708 C686 1.234 . S
O709 Mn684 2.209 . S
O709 Mn685 2.215 . S
O709 C686 1.283 . S
O710 Mn684 2.094 . S
O710 C688 1.240 . S
O711 Mn685 2.117 . S
O711 C688 1.264 . S
C712 C705 1.403 . S
C712 C713 1.399 . S
C712 H718 0.929 . S
C713 C693 1.449 . S
C713 C712 1.399 . S
C713 H719 0.930 . S
H714 C694 0.944 . S
H715 C695 0.930 1_545 S
H716 C703 0.931 . S
H717 C704 0.929 . S
H718 C712 0.929 . S
H719 C713 0.930 . S
Mn720 O725 2.095 . S
Mn720 O735 2.162 . S
Mn720 O736 2.297 . S
Mn720 O744 2.385 . S
Mn720 O745 2.209 . S
Mn720 O746 2.094 . S
Mn721 O726 2.121 . S
Mn721 N728 2.257 . S
Mn721 N737 2.282 . S
Mn721 O745 2.215 . S
Mn721 O747 2.117 . S
C722 O744 1.234 . S
C722 O745 1.283 . S
C723 O735 1.281 . S
C723 O736 1.236 . S
C724 O746 1.240 . S
C724 O747 1.264 . S
O725 Mn720 2.095 . S
O725 C734 1.250 . S
O726 Mn721 2.121 . S
O726 C734 1.258 . S
C727 N728 1.326 . S
C727 C731 1.460 . S
C727 H733 0.929 . S
N728 Mn721 2.257 . S
N728 C727 1.326 . S
N728 C732 1.362 . S
C729 C730 1.258 . S
C729 C732 1.431 . S
C729 C749 1.449 . S
C730 C729 1.258 . S
C730 C731 1.477 . S
C730 H750 0.931 . S
C731 C727 1.460 . S
C731 C730 1.477 . S
C731 H751 0.930 . S
C732 N728 1.362 . S
C732 C729 1.431 . S
C732 C742 1.476 . S
H733 C727 0.929 . S
C734 O725 1.250 . S
C734 O726 1.258 . S
O735 Mn720 2.162 . S
O735 C723 1.281 . S
O736 Mn720 2.297 . S
O736 C723 1.236 . S
N737 Mn721 2.282 . S
N737 C738 1.328 . S
N737 C742 1.318 . S
C738 N737 1.328 . S
C738 C739 1.457 . S
C738 H743 0.929 . S
C739 C738 1.457 . S
C739 C740 1.291 . S
C739 H752 0.931 . S
C740 C739 1.291 . S
C740 C741 1.373 . S
C740 H753 0.929 1_545 S
C741 C740 1.373 . S
C741 C742 1.396 . S
C741 C748 1.390 1_545 S
C742 C732 1.476 . S
C742 N737 1.318 . S
C742 C741 1.396 . S
H743 C738 0.929 . S
O744 Mn720 2.385 . S
O744 C722 1.234 . S
O745 Mn720 2.209 . S
O745 Mn721 2.215 . S
O745 C722 1.283 . S
O746 Mn720 2.094 . S
O746 C724 1.240 . S
O747 Mn721 2.117 . S
O747 C724 1.264 . S
C748 C741 1.390 1_565 S
C748 C749 1.391 1_565 S
C748 H754 0.952 . S
C749 C729 1.449 . S
C749 C748 1.391 1_545 S
C749 H755 0.904 1_545 S
H750 C730 0.931 . S
H751 C731 0.930 . S
H752 C739 0.931 . S
H753 C740 0.929 1_565 S
H754 C748 0.952 . S
H755 C749 0.904 1_565 S
Mn756 O761 2.095 . S
Mn756 O771 2.162 . S
Mn756 O772 2.297 . S
Mn756 O780 2.385 . S
Mn756 O781 2.209 . S
Mn756 O782 2.094 . S
Mn757 O762 2.121 . S
Mn757 N764 2.257 . S
Mn757 N773 2.282 . S
Mn757 O781 2.215 . S
Mn757 O783 2.117 . S
C758 O780 1.234 . S
C758 O781 1.283 . S
C759 O771 1.281 . S
C759 O772 1.236 . S
C760 O782 1.240 . S
C760 O783 1.264 . S
O761 Mn756 2.095 . S
O761 C770 1.250 . S
O762 Mn757 2.121 . S
O762 C770 1.258 . S
C763 N764 1.326 . S
C763 C767 1.460 . S
C763 H769 0.929 . S
N764 Mn757 2.257 . S
N764 C763 1.326 . S
N764 C768 1.362 . S
C765 C766 1.258 . S
C765 C768 1.431 . S
C765 C785 1.449 . S
C766 C765 1.258 . S
C766 C767 1.477 . S
C766 H786 0.931 . S
C767 C763 1.460 . S
C767 C766 1.477 . S
C767 H787 0.930 . S
C768 N764 1.362 . S
C768 C765 1.431 . S
C768 C778 1.476 . S
H769 C763 0.929 . S
C770 O761 1.250 . S
C770 O762 1.258 . S
O771 Mn756 2.162 . S
O771 C759 1.281 . S
O772 Mn756 2.297 . S
O772 C759 1.236 . S
N773 Mn757 2.282 . S
N773 C774 1.328 . S
N773 C778 1.318 . S
C774 N773 1.328 . S
C774 C775 1.457 . S
C774 H779 0.929 . S
C775 C774 1.457 . S
C775 C776 1.291 . S
C775 H788 0.931 . S
C776 C775 1.291 . S
C776 C777 1.373 . S
C776 H789 0.929 . S
C777 C776 1.373 . S
C777 C778 1.396 . S
C777 C784 1.403 . S
C778 C768 1.476 . S
C778 N773 1.318 . S
C778 C777 1.396 . S
H779 C774 0.929 . S
O780 Mn756 2.385 . S
O780 C758 1.234 . S
O781 Mn756 2.209 . S
O781 Mn757 2.215 . S
O781 C758 1.283 . S
O782 Mn756 2.094 . S
O782 C760 1.240 . S
O783 Mn757 2.117 . S
O783 C760 1.264 . S
C784 C777 1.403 . S
C784 C785 1.399 . S
C784 H790 0.929 . S
C785 C765 1.449 . S
C785 C784 1.399 . S
C785 H791 0.930 . S
H786 C766 0.931 . S
H787 C767 0.930 . S
H788 C775 0.931 . S
H789 C776 0.929 . S
H790 C784 0.929 . S
H791 C785 0.930 . S
Mn792 O797 2.095 . S
Mn792 O807 2.162 . S
Mn792 O808 2.297 . S
Mn792 O816 2.385 . S
Mn792 O817 2.209 . S
Mn792 O818 2.094 . S
Mn793 O798 2.121 . S
Mn793 N800 2.257 . S
Mn793 N809 2.282 . S
Mn793 O817 2.215 . S
Mn793 O819 2.117 . S
C794 O816 1.234 . S
C794 O817 1.283 . S
C795 O807 1.281 . S
C795 O808 1.236 . S
C796 O818 1.240 . S
C796 O819 1.264 . S
O797 Mn792 2.095 . S
O797 C806 1.250 . S
O798 Mn793 2.121 . S
O798 C806 1.258 . S
C799 N800 1.326 . S
C799 C803 1.460 . S
C799 H805 0.929 . S
N800 Mn793 2.257 . S
N800 C799 1.326 . S
N800 C804 1.362 . S
C801 C802 1.258 . S
C801 C804 1.431 . S
C801 C821 1.449 . S
C802 C801 1.258 . S
C802 C803 1.477 . S
C802 H822 0.931 . S
C803 C799 1.460 . S
C803 C802 1.477 . S
C803 H823 0.930 . S
C804 N800 1.362 . S
C804 C801 1.431 . S
C804 C814 1.476 . S
H805 C799 0.929 . S
C806 O797 1.250 . S
C806 O798 1.258 . S
O807 Mn792 2.162 . S
O807 C795 1.281 . S
O808 Mn792 2.297 . S
O808 C795 1.236 . S
N809 Mn793 2.282 . S
N809 C810 1.328 . S
N809 C814 1.318 . S
C810 N809 1.328 . S
C810 C811 1.457 . S
C810 H815 0.929 . S
C811 C810 1.457 . S
C811 C812 1.291 . S
C811 H824 0.931 . S
C812 C811 1.291 . S
C812 C813 1.373 . S
C812 H825 0.929 . S
C813 C812 1.373 . S
C813 C814 1.396 . S
C813 C820 1.403 . S
C814 C804 1.476 . S
C814 N809 1.318 . S
C814 C813 1.396 . S
H815 C810 0.929 . S
O816 Mn792 2.385 . S
O816 C794 1.234 . S
O817 Mn792 2.209 . S
O817 Mn793 2.215 . S
O817 C794 1.283 . S
O818 Mn792 2.094 . S
O818 C796 1.240 . S
O819 Mn793 2.117 . S
O819 C796 1.264 . S
C820 C813 1.403 . S
C820 C821 1.399 . S
C820 H826 0.929 . S
C821 C801 1.449 . S
C821 C820 1.399 . S
C821 H827 0.930 . S
H822 C802 0.931 . S
H823 C803 0.930 . S
H824 C811 0.931 . S
H825 C812 0.929 . S
H826 C820 0.929 . S
H827 C821 0.930 . S
Mn828 O833 2.095 . S
Mn828 O843 2.162 . S
Mn828 O844 2.297 . S
Mn828 O852 2.385 . S
Mn828 O853 2.209 . S
Mn828 O854 2.094 . S
Mn829 O834 2.121 . S
Mn829 N836 2.257 . S
Mn829 N845 2.282 . S
Mn829 O853 2.215 . S
Mn829 O855 2.117 . S
C830 O852 1.234 . S
C830 O853 1.283 . S
C831 O843 1.281 . S
C831 O844 1.236 . S
C832 O854 1.240 . S
C832 O855 1.264 . S
O833 Mn828 2.095 . S
O833 C842 1.250 . S
O834 Mn829 2.121 . S
O834 C842 1.258 . S
C835 N836 1.326 . S
C835 C839 1.460 . S
C835 H841 0.929 . S
N836 Mn829 2.257 . S
N836 C835 1.326 . S
N836 C840 1.362 . S
C837 C838 1.258 . S
C837 C840 1.431 . S
C837 C857 1.449 . S
C838 C837 1.258 . S
C838 C839 1.477 . S
C838 H858 0.931 . S
C839 C835 1.460 . S
C839 C838 1.477 . S
C839 H859 0.930 . S
C840 N836 1.362 . S
C840 C837 1.431 . S
C840 C850 1.476 . S
H841 C835 0.929 . S
C842 O833 1.250 . S
C842 O834 1.258 . S
O843 Mn828 2.162 . S
O843 C831 1.281 . S
O844 Mn828 2.297 . S
O844 C831 1.236 . S
N845 Mn829 2.282 . S
N845 C846 1.328 . S
N845 C850 1.318 . S
C846 N845 1.328 . S
C846 C847 1.457 . S
C846 H851 0.929 . S
C847 C846 1.457 . S
C847 C848 1.291 . S
C847 H860 0.931 . S
C848 C847 1.291 . S
C848 C849 1.373 . S
C848 H861 0.929 . S
C849 C848 1.373 . S
C849 C850 1.396 . S
C849 C856 1.403 . S
C850 C840 1.476 . S
C850 N845 1.318 . S
C850 C849 1.396 . S
H851 C846 0.929 . S
O852 Mn828 2.385 . S
O852 C830 1.234 . S
O853 Mn828 2.209 . S
O853 Mn829 2.215 . S
O853 C830 1.283 . S
O854 Mn828 2.094 . S
O854 C832 1.240 . S
O855 Mn829 2.117 . S
O855 C832 1.264 . S
C856 C849 1.403 . S
C856 C857 1.399 . S
C856 H862 0.929 . S
C857 C837 1.449 . S
C857 C856 1.399 . S
C857 H863 0.930 . S
H858 C838 0.931 . S
H859 C839 0.930 . S
H860 C847 0.931 . S
H861 C848 0.929 . S
H862 C856 0.929 . S
H863 C857 0.930 . S
Mn864 O869 2.095 . S
Mn864 O879 2.162 1_655 S
Mn864 O880 2.297 1_655 S
Mn864 O888 2.385 1_655 S
Mn864 O889 2.209 1_655 S
Mn864 O890 2.094 . S
Mn865 O870 2.121 . S
Mn865 N872 2.257 1_655 S
Mn865 N881 2.282 1_655 S
Mn865 O889 2.215 1_655 S
Mn865 O891 2.117 . S
C866 O888 1.234 . S
C866 O889 1.283 . S
C867 O879 1.281 . S
C867 O880 1.236 . S
C868 O890 1.240 . S
C868 O891 1.264 . S
O869 Mn864 2.095 . S
O869 C878 1.250 . S
O870 Mn865 2.121 . S
O870 C878 1.258 . S
C871 N872 1.326 . S
C871 C875 1.460 . S
C871 H877 0.929 . S
N872 Mn865 2.257 1_455 S
N872 C871 1.326 . S
N872 C876 1.362 . S
C873 C874 1.258 . S
C873 C876 1.431 . S
C873 C893 1.449 . S
C874 C873 1.258 . S
C874 C875 1.477 . S
C874 H894 0.931 . S
C875 C871 1.460 . S
C875 C874 1.477 . S
C875 H895 0.930 . S
C876 N872 1.362 . S
C876 C873 1.431 . S
C876 C886 1.476 . S
H877 C871 0.929 . S
C878 O869 1.250 . S
C878 O870 1.258 . S
O879 Mn864 2.162 1_455 S
O879 C867 1.281 . S
O880 Mn864 2.297 1_455 S
O880 C867 1.236 . S
N881 Mn865 2.282 1_455 S
N881 C882 1.328 . S
N881 C886 1.318 . S
C882 N881 1.328 . S
C882 C883 1.457 . S
C882 H887 0.929 1_455 S
C883 C882 1.457 . S
C883 C884 1.291 . S
C883 H896 0.931 . S
C884 C883 1.291 . S
C884 C885 1.373 . S
C884 H897 0.929 . S
C885 C884 1.373 . S
C885 C886 1.396 . S
C885 C892 1.403 . S
C886 C876 1.476 . S
C886 N881 1.318 . S
C886 C885 1.396 . S
H887 C882 0.929 1_655 S
O888 Mn864 2.385 1_455 S
O888 C866 1.234 . S
O889 Mn864 2.209 1_455 S
O889 Mn865 2.215 1_455 S
O889 C866 1.283 . S
O890 Mn864 2.094 . S
O890 C868 1.240 . S
O891 Mn865 2.117 . S
O891 C868 1.264 . S
C892 C885 1.403 . S
C892 C893 1.399 . S
C892 H898 0.929 . S
C893 C873 1.449 . S
C893 C892 1.399 . S
C893 H899 0.930 . S
H894 C874 0.931 . S
H895 C875 0.930 . S
H896 C883 0.931 . S
H897 C884 0.929 . S
H898 C892 0.929 . S
H899 C893 0.930 . S
Mn900 O905 2.095 . S
Mn900 O915 2.162 . S
Mn900 O916 2.297 . S
Mn900 O924 2.385 . S
Mn900 O925 2.209 . S
Mn900 O926 2.094 . S
Mn901 O906 2.121 . S
Mn901 N908 2.257 . S
Mn901 N917 2.282 . S
Mn901 O925 2.215 . S
Mn901 O927 2.117 . S
C902 O924 1.234 . S
C902 O925 1.283 . S
C903 O915 1.281 . S
C903 O916 1.236 . S
C904 O926 1.240 . S
C904 O927 1.264 . S
O905 Mn900 2.095 . S
O905 C914 1.250 . S
O906 Mn901 2.121 . S
O906 C914 1.258 . S
C907 N908 1.326 . S
C907 C911 1.460 . S
C907 H913 0.929 . S
N908 Mn901 2.257 . S
N908 C907 1.326 . S
N908 C912 1.362 . S
C909 C910 1.258 . S
C909 C912 1.431 . S
C909 C929 1.449 . S
C910 C909 1.258 . S
C910 C911 1.477 . S
C910 H930 0.931 . S
C911 C907 1.460 . S
C911 C910 1.477 . S
C911 H931 0.930 . S
C912 N908 1.362 . S
C912 C909 1.431 . S
C912 C922 1.476 . S
H913 C907 0.929 . S
C914 O905 1.250 . S
C914 O906 1.258 . S
O915 Mn900 2.162 . S
O915 C903 1.281 . S
O916 Mn900 2.297 . S
O916 C903 1.236 . S
N917 Mn901 2.282 . S
N917 C918 1.328 . S
N917 C922 1.318 . S
C918 N917 1.328 . S
C918 C919 1.457 . S
C918 H923 0.929 . S
C919 C918 1.457 . S
C919 C920 1.291 . S
C919 H932 0.931 . S
C920 C919 1.291 . S
C920 C921 1.373 . S
C920 H933 0.929 1_655 S
C921 C920 1.373 . S
C921 C922 1.396 . S
C921 C928 1.390 1_655 S
C922 C912 1.476 . S
C922 N917 1.318 . S
C922 C921 1.396 . S
H923 C918 0.929 . S
O924 Mn900 2.385 . S
O924 C902 1.234 . S
O925 Mn900 2.209 . S
O925 Mn901 2.215 . S
O925 C902 1.283 . S
O926 Mn900 2.094 . S
O926 C904 1.240 . S
O927 Mn901 2.117 . S
O927 C904 1.264 . S
C928 C921 1.390 1_455 S
C928 C929 1.391 1_455 S
C928 H934 0.951 . S
C929 C909 1.449 . S
C929 C928 1.391 1_655 S
C929 H935 0.904 1_655 S
H930 C910 0.931 . S
H931 C911 0.930 . S
H932 C919 0.931 . S
H933 C920 0.929 1_455 S
H934 C928 0.951 . S
H935 C929 0.904 1_455 S
Mn936 O941 2.095 . S
Mn936 O951 2.162 . S
Mn936 O952 2.297 . S
Mn936 O960 2.385 . S
Mn936 O961 2.209 . S
Mn936 O962 2.094 . S
Mn937 O942 2.121 . S
Mn937 N944 2.257 . S
Mn937 N953 2.282 . S
Mn937 O961 2.215 . S
Mn937 O963 2.117 . S
C938 O960 1.234 . S
C938 O961 1.283 . S
C939 O951 1.281 . S
C939 O952 1.236 . S
C940 O962 1.240 . S
C940 O963 1.264 . S
O941 Mn936 2.095 . S
O941 C950 1.250 . S
O942 Mn937 2.121 . S
O942 C950 1.258 . S
C943 N944 1.326 . S
C943 C947 1.460 . S
C943 H949 0.929 . S
N944 Mn937 2.257 . S
N944 C943 1.326 . S
N944 C948 1.362 . S
C945 C946 1.258 . S
C945 C948 1.431 . S
C945 C965 1.449 . S
C946 C945 1.258 . S
C946 C947 1.477 . S
C946 H966 0.944 . S
C947 C943 1.460 . S
C947 C946 1.477 . S
C947 H967 0.930 1_554 S
C948 N944 1.362 . S
C948 C945 1.431 . S
C948 C958 1.476 . S
H949 C943 0.929 . S
C950 O941 1.250 . S
C950 O942 1.258 . S
O951 Mn936 2.162 . S
O951 C939 1.281 . S
O952 Mn936 2.297 . S
O952 C939 1.236 . S
N953 Mn937 2.282 . S
N953 C954 1.328 . S
N953 C958 1.318 . S
C954 N953 1.328 . S
C954 C955 1.457 . S
C954 H959 0.929 . S
C955 C954 1.457 . S
C955 C956 1.291 . S
C955 H968 0.931 . S
C956 C955 1.291 . S
C956 C957 1.373 . S
C956 H969 0.929 . S
C957 C956 1.373 . S
C957 C958 1.396 . S
C957 C964 1.403 . S
C958 C948 1.476 . S
C958 N953 1.318 . S
C958 C957 1.396 . S
H959 C954 0.929 . S
O960 Mn936 2.385 . S
O960 C938 1.234 . S
O961 Mn936 2.209 . S
O961 Mn937 2.215 . S
O961 C938 1.283 . S
O962 Mn936 2.094 . S
O962 C940 1.240 . S
O963 Mn937 2.117 . S
O963 C940 1.264 . S
C964 C957 1.403 . S
C964 C965 1.399 . S
C964 H970 0.929 . S
C965 C945 1.449 . S
C965 C964 1.399 . S
C965 H971 0.930 . S
H966 C946 0.944 . S
H967 C947 0.930 1_556 S
H968 C955 0.931 . S
H969 C956 0.929 . S
H970 C964 0.929 . S
H971 C965 0.930 . S
Mn972 O977 2.095 . S
Mn972 O987 2.162 . S
Mn972 O988 2.297 . S
Mn972 O996 2.385 . S
Mn972 O997 2.209 . S
Mn972 O998 2.094 . S
Mn973 O978 2.121 . S
Mn973 N980 2.257 . S
Mn973 N989 2.282 . S
Mn973 O997 2.215 . S
Mn973 O999 2.117 . S
C974 O996 1.234 . S
C974 O997 1.283 . S
C975 O987 1.281 . S
C975 O988 1.236 . S
C976 O998 1.240 . S
C976 O999 1.264 . S
O977 Mn972 2.095 . S
O977 C986 1.250 . S
O978 Mn973 2.121 . S
O978 C986 1.258 . S
C979 N980 1.326 . S
C979 C983 1.460 . S
C979 H985 0.929 . S
N980 Mn973 2.257 . S
N980 C979 1.326 . S
N980 C984 1.362 . S
C981 C982 1.258 . S
C981 C984 1.431 . S
C981 C1001 1.449 . S
C982 C981 1.258 . S
C982 C983 1.477 . S
C982 H1002 0.931 . S
C983 C979 1.460 . S
C983 C982 1.477 . S
C983 H1003 0.930 . S
C984 N980 1.362 . S
C984 C981 1.431 . S
C984 C994 1.476 . S
H985 C979 0.929 . S
C986 O977 1.250 . S
C986 O978 1.258 . S
O987 Mn972 2.162 . S
O987 C975 1.281 . S
O988 Mn972 2.297 . S
O988 C975 1.236 . S
N989 Mn973 2.282 . S
N989 C990 1.328 . S
N989 C994 1.318 . S
C990 N989 1.328 . S
C990 C991 1.457 . S
C990 H995 0.929 . S
C991 C990 1.457 . S
C991 C992 1.291 . S
C991 H1004 0.931 . S
C992 C991 1.291 . S
C992 C993 1.373 . S
C992 H1005 0.929 . S
C993 C992 1.373 . S
C993 C994 1.396 . S
C993 C1000 1.403 . S
C994 C984 1.476 . S
C994 N989 1.318 . S
C994 C993 1.396 . S
H995 C990 0.929 . S
O996 Mn972 2.385 . S
O996 C974 1.234 . S
O997 Mn972 2.209 . S
O997 Mn973 2.215 . S
O997 C974 1.283 . S
O998 Mn972 2.094 . S
O998 C976 1.240 . S
O999 Mn973 2.117 . S
O999 C976 1.264 . S
C1000 C993 1.403 . S
C1000 C1001 1.399 . S
C1000 H1006 0.929 . S
C1001 C981 1.449 . S
C1001 C1000 1.399 . S
C1001 H1007 0.930 . S
H1002 C982 0.931 . S
H1003 C983 0.930 . S
H1004 C991 0.931 . S
H1005 C992 0.929 . S
H1006 C1000 0.929 . S
H1007 C1001 0.930 . S
Mn1008 O1013 2.095 . S
Mn1008 O1023 2.162 1_655 S
Mn1008 O1024 2.297 1_655 S
Mn1008 O1032 2.385 1_655 S
Mn1008 O1033 2.209 1_655 S
Mn1008 O1034 2.094 . S
Mn1009 O1014 2.121 . S
Mn1009 N1016 2.257 1_655 S
Mn1009 N1025 2.282 1_655 S
Mn1009 O1033 2.215 1_655 S
Mn1009 O1035 2.117 . S
C1010 O1032 1.234 . S
C1010 O1033 1.283 . S
C1011 O1023 1.281 . S
C1011 O1024 1.236 . S
C1012 O1034 1.240 . S
C1012 O1035 1.264 . S
O1013 Mn1008 2.095 . S
O1013 C1022 1.250 . S
O1014 Mn1009 2.121 . S
O1014 C1022 1.258 . S
C1015 N1016 1.326 . S
C1015 C1019 1.460 . S
C1015 H1021 0.929 . S
N1016 Mn1009 2.257 1_455 S
N1016 C1015 1.326 . S
N1016 C1020 1.362 . S
C1017 C1018 1.258 . S
C1017 C1020 1.431 . S
C1017 C1037 1.449 . S
C1018 C1017 1.258 . S
C1018 C1019 1.477 . S
C1018 H1038 0.944 . S
C1019 C1015 1.460 . S
C1019 C1018 1.477 . S
C1019 H1039 0.930 1_556 S
C1020 N1016 1.362 . S
C1020 C1017 1.431 . S
C1020 C1030 1.476 . S
H1021 C1015 0.929 . S
C1022 O1013 1.250 . S
C1022 O1014 1.258 . S
O1023 Mn1008 2.162 1_455 S
O1023 C1011 1.281 . S
O1024 Mn1008 2.297 1_455 S
O1024 C1011 1.236 . S
N1025 Mn1009 2.282 1_455 S
N1025 C1026 1.328 . S
N1025 C1030 1.318 . S
C1026 N1025 1.328 . S
C1026 C1027 1.457 . S
C1026 H1031 0.929 1_455 S
C1027 C1026 1.457 . S
C1027 C1028 1.291 . S
C1027 H1040 0.931 . S
C1028 C1027 1.291 . S
C1028 C1029 1.373 . S
C1028 H1041 0.929 . S
C1029 C1028 1.373 . S
C1029 C1030 1.396 . S
C1029 C1036 1.403 . S
C1030 C1020 1.476 . S
C1030 N1025 1.318 . S
C1030 C1029 1.396 . S
H1031 C1026 0.929 1_655 S
O1032 Mn1008 2.385 1_455 S
O1032 C1010 1.234 . S
O1033 Mn1008 2.209 1_455 S
O1033 Mn1009 2.215 1_455 S
O1033 C1010 1.283 . S
O1034 Mn1008 2.094 . S
O1034 C1012 1.240 . S
O1035 Mn1009 2.117 . S
O1035 C1012 1.264 . S
C1036 C1029 1.403 . S
C1036 C1037 1.399 . S
C1036 H1042 0.929 . S
C1037 C1017 1.449 . S
C1037 C1036 1.399 . S
C1037 H1043 0.930 . S
H1038 C1018 0.944 . S
H1039 C1019 0.930 1_554 S
H1040 C1027 0.931 . S
H1041 C1028 0.929 . S
H1042 C1036 0.929 . S
H1043 C1037 0.930 . S
Mn1044 O1049 2.095 . S
Mn1044 O1059 2.162 . S
Mn1044 O1060 2.297 . S
Mn1044 O1068 2.385 . S
Mn1044 O1069 2.209 . S
Mn1044 O1070 2.094 . S
Mn1045 O1050 2.121 . S
Mn1045 N1052 2.257 . S
Mn1045 N1061 2.282 . S
Mn1045 O1069 2.215 . S
Mn1045 O1071 2.117 . S
C1046 O1068 1.234 . S
C1046 O1069 1.283 . S
C1047 O1059 1.281 . S
C1047 O1060 1.236 . S
C1048 O1070 1.240 . S
C1048 O1071 1.264 . S
O1049 Mn1044 2.095 . S
O1049 C1058 1.250 . S
O1050 Mn1045 2.121 . S
O1050 C1058 1.258 . S
C1051 N1052 1.326 . S
C1051 C1055 1.460 . S
C1051 H1057 0.929 . S
N1052 Mn1045 2.257 . S
N1052 C1051 1.326 . S
N1052 C1056 1.362 . S
C1053 C1054 1.258 . S
C1053 C1056 1.431 . S
C1053 C1073 1.449 . S
C1054 C1053 1.258 . S
C1054 C1055 1.477 . S
C1054 H1074 0.931 . S
C1055 C1051 1.460 . S
C1055 C1054 1.477 . S
C1055 H1075 0.930 . S
C1056 N1052 1.362 . S
C1056 C1053 1.431 . S
C1056 C1066 1.476 . S
H1057 C1051 0.929 . S
C1058 O1049 1.250 . S
C1058 O1050 1.258 . S
O1059 Mn1044 2.162 . S
O1059 C1047 1.281 . S
O1060 Mn1044 2.297 . S
O1060 C1047 1.236 . S
N1061 Mn1045 2.282 . S
N1061 C1062 1.328 . S
N1061 C1066 1.318 . S
C1062 N1061 1.328 . S
C1062 C1063 1.457 . S
C1062 H1067 0.929 . S
C1063 C1062 1.457 . S
C1063 C1064 1.291 . S
C1063 H1076 0.931 . S
C1064 C1063 1.291 . S
C1064 C1065 1.373 . S
C1064 H1077 0.929 . S
C1065 C1064 1.373 . S
C1065 C1066 1.396 . S
C1065 C1072 1.403 . S
C1066 C1056 1.476 . S
C1066 N1061 1.318 . S
C1066 C1065 1.396 . S
H1067 C1062 0.929 . S
O1068 Mn1044 2.385 . S
O1068 C1046 1.234 . S
O1069 Mn1044 2.209 . S
O1069 Mn1045 2.215 . S
O1069 C1046 1.283 . S
O1070 Mn1044 2.094 . S
O1070 C1048 1.240 . S
O1071 Mn1045 2.117 . S
O1071 C1048 1.264 . S
C1072 C1065 1.403 . S
C1072 C1073 1.399 . S
C1072 H1078 0.929 . S
C1073 C1053 1.449 . S
C1073 C1072 1.399 . S
C1073 H1079 0.930 . S
H1074 C1054 0.931 . S
H1075 C1055 0.930 . S
H1076 C1063 0.931 . S
H1077 C1064 0.929 . S
H1078 C1072 0.929 . S
H1079 C1073 0.930 . S
Mn1080 O1085 2.095 . S
Mn1080 O1095 2.162 . S
Mn1080 O1096 2.297 . S
Mn1080 O1104 2.385 . S
Mn1080 O1105 2.209 . S
Mn1080 O1106 2.094 . S
Mn1081 O1086 2.121 . S
Mn1081 N1088 2.257 . S
Mn1081 N1097 2.282 . S
Mn1081 O1105 2.215 . S
Mn1081 O1107 2.117 . S
C1082 O1104 1.234 . S
C1082 O1105 1.283 . S
C1083 O1095 1.281 . S
C1083 O1096 1.236 . S
C1084 O1106 1.240 . S
C1084 O1107 1.264 . S
O1085 Mn1080 2.095 . S
O1085 C1094 1.250 . S
O1086 Mn1081 2.121 . S
O1086 C1094 1.258 . S
C1087 N1088 1.326 . S
C1087 C1091 1.460 . S
C1087 H1093 0.929 . S
N1088 Mn1081 2.257 . S
N1088 C1087 1.326 . S
N1088 C1092 1.362 . S
C1089 C1090 1.258 . S
C1089 C1092 1.431 . S
C1089 C1109 1.449 . S
C1090 C1089 1.258 . S
C1090 C1091 1.477 . S
C1090 H1110 0.931 . S
C1091 C1087 1.460 . S
C1091 C1090 1.477 . S
C1091 H1111 0.930 . S
C1092 N1088 1.362 . S
C1092 C1089 1.431 . S
C1092 C1102 1.476 . S
H1093 C1087 0.929 . S
C1094 O1085 1.250 . S
C1094 O1086 1.258 . S
O1095 Mn1080 2.162 . S
O1095 C1083 1.281 . S
O1096 Mn1080 2.297 . S
O1096 C1083 1.236 . S
N1097 Mn1081 2.282 . S
N1097 C1098 1.328 . S
N1097 C1102 1.318 . S
C1098 N1097 1.328 . S
C1098 C1099 1.457 . S
C1098 H1103 0.929 . S
C1099 C1098 1.457 . S
C1099 C1100 1.291 . S
C1099 H1112 0.931 . S
C1100 C1099 1.291 . S
C1100 C1101 1.373 . S
C1100 H1113 0.929 . S
C1101 C1100 1.373 . S
C1101 C1102 1.396 . S
C1101 C1108 1.403 . S
C1102 C1092 1.476 . S
C1102 N1097 1.318 . S
C1102 C1101 1.396 . S
H1103 C1098 0.929 . S
O1104 Mn1080 2.385 . S
O1104 C1082 1.234 . S
O1105 Mn1080 2.209 . S
O1105 Mn1081 2.215 . S
O1105 C1082 1.283 . S
O1106 Mn1080 2.094 . S
O1106 C1084 1.240 . S
O1107 Mn1081 2.117 . S
O1107 C1084 1.264 . S
C1108 C1101 1.403 . S
C1108 C1109 1.399 . S
C1108 H1114 0.929 . S
C1109 C1089 1.449 . S
C1109 C1108 1.399 . S
C1109 H1115 0.930 . S
H1110 C1090 0.931 . S
H1111 C1091 0.930 . S
H1112 C1099 0.931 . S
H1113 C1100 0.929 . S
H1114 C1108 0.929 . S
H1115 C1109 0.930 . S
Mn1116 O1121 2.095 . S
Mn1116 O1131 2.162 . S
Mn1116 O1132 2.297 . S
Mn1116 O1140 2.385 . S
Mn1116 O1141 2.209 . S
Mn1116 O1142 2.094 . S
Mn1117 O1122 2.121 . S
Mn1117 N1124 2.257 . S
Mn1117 N1133 2.282 . S
Mn1117 O1141 2.215 . S
Mn1117 O1143 2.117 . S
C1118 O1140 1.234 . S
C1118 O1141 1.283 . S
C1119 O1131 1.281 . S
C1119 O1132 1.236 . S
C1120 O1142 1.240 . S
C1120 O1143 1.264 . S
O1121 Mn1116 2.095 . S
O1121 C1130 1.250 . S
O1122 Mn1117 2.121 . S
O1122 C1130 1.258 . S
C1123 N1124 1.326 . S
C1123 C1127 1.460 . S
C1123 H1129 0.929 . S
N1124 Mn1117 2.257 . S
N1124 C1123 1.326 . S
N1124 C1128 1.362 . S
C1125 C1126 1.258 . S
C1125 C1128 1.431 . S
C1125 C1145 1.449 . S
C1126 C1125 1.258 . S
C1126 C1127 1.477 . S
C1126 H1146 0.931 . S
C1127 C1123 1.460 . S
C1127 C1126 1.477 . S
C1127 H1147 0.930 . S
C1128 N1124 1.362 . S
C1128 C1125 1.431 . S
C1128 C1138 1.476 . S
H1129 C1123 0.929 . S
C1130 O1121 1.250 . S
C1130 O1122 1.258 . S
O1131 Mn1116 2.162 . S
O1131 C1119 1.281 . S
O1132 Mn1116 2.297 . S
O1132 C1119 1.236 . S
N1133 Mn1117 2.282 . S
N1133 C1134 1.328 . S
N1133 C1138 1.318 . S
C1134 N1133 1.328 . S
C1134 C1135 1.457 . S
C1134 H1139 0.929 . S
C1135 C1134 1.457 . S
C1135 C1136 1.291 . S
C1135 H1148 0.931 . S
C1136 C1135 1.291 . S
C1136 C1137 1.373 . S
C1136 H1149 0.929 1_655 S
C1137 C1136 1.373 . S
C1137 C1138 1.396 . S
C1137 C1144 1.390 1_655 S
C1138 C1128 1.476 . S
C1138 N1133 1.318 . S
C1138 C1137 1.396 . S
H1139 C1134 0.929 . S
O1140 Mn1116 2.385 . S
O1140 C1118 1.234 . S
O1141 Mn1116 2.209 . S
O1141 Mn1117 2.215 . S
O1141 C1118 1.283 . S
O1142 Mn1116 2.094 . S
O1142 C1120 1.240 . S
O1143 Mn1117 2.117 . S
O1143 C1120 1.264 . S
C1144 C1137 1.390 1_455 S
C1144 C1145 1.391 1_455 S
C1144 H1150 0.952 . S
C1145 C1125 1.449 . S
C1145 C1144 1.391 1_655 S
C1145 H1151 0.904 1_655 S
H1146 C1126 0.931 . S
H1147 C1127 0.930 . S
H1148 C1135 0.931 . S
H1149 C1136 0.929 1_455 S
H1150 C1144 0.952 . S
H1151 C1145 0.904 1_455 S
Mn1152 O1157 2.095 . S
Mn1152 O1167 2.162 1_565 S
Mn1152 O1168 2.297 1_565 S
Mn1152 O1176 2.385 1_565 S
Mn1152 O1177 2.209 1_565 S
Mn1152 O1178 2.094 . S
Mn1153 O1158 2.121 . S
Mn1153 N1160 2.257 1_565 S
Mn1153 N1169 2.282 1_565 S
Mn1153 O1177 2.215 1_565 S
Mn1153 O1179 2.117 . S
C1154 O1176 1.234 . S
C1154 O1177 1.283 . S
C1155 O1167 1.281 . S
C1155 O1168 1.236 . S
C1156 O1178 1.240 . S
C1156 O1179 1.264 . S
O1157 Mn1152 2.095 . S
O1157 C1166 1.250 . S
O1158 Mn1153 2.121 . S
O1158 C1166 1.258 . S
C1159 N1160 1.326 . S
C1159 C1163 1.460 . S
C1159 H1165 0.929 . S
N1160 Mn1153 2.257 1_545 S
N1160 C1159 1.326 . S
N1160 C1164 1.362 . S
C1161 C1162 1.258 . S
C1161 C1164 1.431 . S
C1161 C1181 1.449 . S
C1162 C1161 1.258 . S
C1162 C1163 1.477 . S
C1162 H1182 0.931 . S
C1163 C1159 1.460 . S
C1163 C1162 1.477 . S
C1163 H1183 0.930 . S
C1164 N1160 1.362 . S
C1164 C1161 1.431 . S
C1164 C1174 1.476 . S
H1165 C1159 0.929 . S
C1166 O1157 1.250 . S
C1166 O1158 1.258 . S
O1167 Mn1152 2.162 1_545 S
O1167 C1155 1.281 . S
O1168 Mn1152 2.297 1_545 S
O1168 C1155 1.236 . S
N1169 Mn1153 2.282 1_545 S
N1169 C1170 1.328 . S
N1169 C1174 1.318 . S
C1170 N1169 1.328 . S
C1170 C1171 1.457 . S
C1170 H1175 0.929 1_545 S
C1171 C1170 1.457 . S
C1171 C1172 1.291 . S
C1171 H1184 0.931 . S
C1172 C1171 1.291 . S
C1172 C1173 1.373 . S
C1172 H1185 0.929 . S
C1173 C1172 1.373 . S
C1173 C1174 1.396 . S
C1173 C1180 1.403 . S
C1174 C1164 1.476 . S
C1174 N1169 1.318 . S
C1174 C1173 1.396 . S
H1175 C1170 0.929 1_565 S
O1176 Mn1152 2.385 1_545 S
O1176 C1154 1.234 . S
O1177 Mn1152 2.209 1_545 S
O1177 Mn1153 2.215 1_545 S
O1177 C1154 1.283 . S
O1178 Mn1152 2.094 . S
O1178 C1156 1.240 . S
O1179 Mn1153 2.117 . S
O1179 C1156 1.264 . S
C1180 C1173 1.403 . S
C1180 C1181 1.399 . S
C1180 H1186 0.929 . S
C1181 C1161 1.449 . S
C1181 C1180 1.399 . S
C1181 H1187 0.930 . S
H1182 C1162 0.931 . S
H1183 C1163 0.930 . S
H1184 C1171 0.931 . S
H1185 C1172 0.929 . S
H1186 C1180 0.929 . S
H1187 C1181 0.930 . S
Mn1188 O1193 2.095 . S
Mn1188 O1203 2.162 . S
Mn1188 O1204 2.297 . S
Mn1188 O1212 2.385 . S
Mn1188 O1213 2.209 . S
Mn1188 O1214 2.094 . S
Mn1189 O1194 2.121 . S
Mn1189 N1196 2.257 . S
Mn1189 N1205 2.282 . S
Mn1189 O1213 2.215 . S
Mn1189 O1215 2.117 . S
C1190 O1212 1.234 . S
C1190 O1213 1.283 . S
C1191 O1203 1.281 . S
C1191 O1204 1.236 . S
C1192 O1214 1.240 . S
C1192 O1215 1.264 . S
O1193 Mn1188 2.095 . S
O1193 C1202 1.250 . S
O1194 Mn1189 2.121 . S
O1194 C1202 1.258 . S
C1195 N1196 1.326 . S
C1195 C1199 1.460 . S
C1195 H1201 0.929 . S
N1196 Mn1189 2.257 . S
N1196 C1195 1.326 . S
N1196 C1200 1.362 . S
C1197 C1198 1.258 . S
C1197 C1200 1.431 . S
C1197 C1217 1.449 . S
C1198 C1197 1.258 . S
C1198 C1199 1.477 . S
C1198 H1218 0.931 . S
C1199 C1195 1.460 . S
C1199 C1198 1.477 . S
C1199 H1219 0.930 . S
C1200 N1196 1.362 . S
C1200 C1197 1.431 . S
C1200 C1210 1.476 . S
H1201 C1195 0.929 . S
C1202 O1193 1.250 . S
C1202 O1194 1.258 . S
O1203 Mn1188 2.162 . S
O1203 C1191 1.281 . S
O1204 Mn1188 2.297 . S
O1204 C1191 1.236 . S
N1205 Mn1189 2.282 . S
N1205 C1206 1.328 . S
N1205 C1210 1.318 . S
C1206 N1205 1.328 . S
C1206 C1207 1.457 . S
C1206 H1211 0.929 . S
C1207 C1206 1.457 . S
C1207 C1208 1.291 . S
C1207 H1220 0.931 . S
C1208 C1207 1.291 . S
C1208 C1209 1.373 . S
C1208 H1221 0.929 . S
C1209 C1208 1.373 . S
C1209 C1210 1.396 . S
C1209 C1216 1.403 . S
C1210 C1200 1.476 . S
C1210 N1205 1.318 . S
C1210 C1209 1.396 . S
H1211 C1206 0.929 . S
O1212 Mn1188 2.385 . S
O1212 C1190 1.234 . S
O1213 Mn1188 2.209 . S
O1213 Mn1189 2.215 . S
O1213 C1190 1.283 . S
O1214 Mn1188 2.094 . S
O1214 C1192 1.240 . S
O1215 Mn1189 2.117 . S
O1215 C1192 1.264 . S
C1216 C1209 1.403 . S
C1216 C1217 1.399 . S
C1216 H1222 0.929 . S
C1217 C1197 1.449 . S
C1217 C1216 1.399 . S
C1217 H1223 0.930 . S
H1218 C1198 0.931 . S
H1219 C1199 0.930 . S
H1220 C1207 0.931 . S
H1221 C1208 0.929 . S
H1222 C1216 0.929 . S
H1223 C1217 0.930 . S
Mn1224 O1229 2.095 . S
Mn1224 O1239 2.162 1_545 S
Mn1224 O1240 2.297 1_545 S
Mn1224 O1248 2.385 1_545 S
Mn1224 O1249 2.209 1_545 S
Mn1224 O1250 2.094 . S
Mn1225 O1230 2.121 . S
Mn1225 N1232 2.257 1_545 S
Mn1225 N1241 2.282 1_545 S
Mn1225 O1249 2.215 1_545 S
Mn1225 O1251 2.117 . S
C1226 O1248 1.234 . S
C1226 O1249 1.283 . S
C1227 O1239 1.281 . S
C1227 O1240 1.236 . S
C1228 O1250 1.240 . S
C1228 O1251 1.264 . S
O1229 Mn1224 2.095 . S
O1229 C1238 1.250 . S
O1230 Mn1225 2.121 . S
O1230 C1238 1.258 . S
C1231 N1232 1.326 . S
C1231 C1235 1.460 . S
C1231 H1237 0.929 . S
N1232 Mn1225 2.257 1_565 S
N1232 C1231 1.326 . S
N1232 C1236 1.362 . S
C1233 C1234 1.258 . S
C1233 C1236 1.431 . S
C1233 C1253 1.449 . S
C1234 C1233 1.258 . S
C1234 C1235 1.477 . S
C1234 H1254 0.943 . S
C1235 C1231 1.460 . S
C1235 C1234 1.477 . S
C1235 H1255 0.930 1_655 S
C1236 N1232 1.362 . S
C1236 C1233 1.431 . S
C1236 C1246 1.476 . S
H1237 C1231 0.929 . S
C1238 O1229 1.250 . S
C1238 O1230 1.258 . S
O1239 Mn1224 2.162 1_565 S
O1239 C1227 1.281 . S
O1240 Mn1224 2.297 1_565 S
O1240 C1227 1.236 . S
N1241 Mn1225 2.282 1_565 S
N1241 C1242 1.328 . S
N1241 C1246 1.318 . S
C1242 N1241 1.328 . S
C1242 C1243 1.457 . S
C1242 H1247 0.929 1_565 S
C1243 C1242 1.457 . S
C1243 C1244 1.291 . S
C1243 H1256 0.931 . S
C1244 C1243 1.291 . S
C1244 C1245 1.373 . S
C1244 H1257 0.929 . S
C1245 C1244 1.373 . S
C1245 C1246 1.396 . S
C1245 C1252 1.403 . S
C1246 C1236 1.476 . S
C1246 N1241 1.318 . S
C1246 C1245 1.396 . S
H1247 C1242 0.929 1_545 S
O1248 Mn1224 2.385 1_565 S
O1248 C1226 1.234 . S
O1249 Mn1224 2.209 1_565 S
O1249 Mn1225 2.215 1_565 S
O1249 C1226 1.283 . S
O1250 Mn1224 2.094 . S
O1250 C1228 1.240 . S
O1251 Mn1225 2.117 . S
O1251 C1228 1.264 . S
C1252 C1245 1.403 . S
C1252 C1253 1.399 . S
C1252 H1258 0.929 . S
C1253 C1233 1.449 . S
C1253 C1252 1.399 . S
C1253 H1259 0.930 . S
H1254 C1234 0.943 . S
H1255 C1235 0.930 1_455 S
H1256 C1243 0.931 . S
H1257 C1244 0.929 . S
H1258 C1252 0.929 . S
H1259 C1253 0.930 . S
Mn1260 O1265 2.095 . S
Mn1260 O1275 2.162 . S
Mn1260 O1276 2.297 . S
Mn1260 O1284 2.385 . S
Mn1260 O1285 2.209 . S
Mn1260 O1286 2.094 . S
Mn1261 O1266 2.121 . S
Mn1261 N1268 2.257 . S
Mn1261 N1277 2.282 . S
Mn1261 O1285 2.215 . S
Mn1261 O1287 2.117 . S
C1262 O1284 1.234 . S
C1262 O1285 1.283 . S
C1263 O1275 1.281 . S
C1263 O1276 1.236 . S
C1264 O1286 1.240 . S
C1264 O1287 1.264 . S
O1265 Mn1260 2.095 . S
O1265 C1274 1.250 . S
O1266 Mn1261 2.121 . S
O1266 C1274 1.258 . S
C1267 N1268 1.326 . S
C1267 C1271 1.460 . S
C1267 H1273 0.929 . S
N1268 Mn1261 2.257 . S
N1268 C1267 1.326 . S
N1268 C1272 1.362 . S
C1269 C1270 1.258 . S
C1269 C1272 1.431 . S
C1269 C1289 1.449 . S
C1270 C1269 1.258 . S
C1270 C1271 1.477 . S
C1270 H1290 0.931 . S
C1271 C1267 1.460 . S
C1271 C1270 1.477 . S
C1271 H1291 0.930 . S
C1272 N1268 1.362 . S
C1272 C1269 1.431 . S
C1272 C1282 1.476 . S
H1273 C1267 0.929 . S
C1274 O1265 1.250 . S
C1274 O1266 1.258 . S
O1275 Mn1260 2.162 . S
O1275 C1263 1.281 . S
O1276 Mn1260 2.297 . S
O1276 C1263 1.236 . S
N1277 Mn1261 2.282 . S
N1277 C1278 1.328 . S
N1277 C1282 1.318 . S
C1278 N1277 1.328 . S
C1278 C1279 1.457 . S
C1278 H1283 0.929 . S
C1279 C1278 1.457 . S
C1279 C1280 1.291 . S
C1279 H1292 0.931 . S
C1280 C1279 1.291 . S
C1280 C1281 1.373 . S
C1280 H1293 0.929 1_554 S
C1281 C1280 1.373 . S
C1281 C1282 1.396 . S
C1281 C1288 1.390 1_554 S
C1282 C1272 1.476 . S
C1282 N1277 1.318 . S
C1282 C1281 1.396 . S
H1283 C1278 0.929 . S
O1284 Mn1260 2.385 . S
O1284 C1262 1.234 . S
O1285 Mn1260 2.209 . S
O1285 Mn1261 2.215 . S
O1285 C1262 1.283 . S
O1286 Mn1260 2.094 . S
O1286 C1264 1.240 . S
O1287 Mn1261 2.117 . S
O1287 C1264 1.264 . S
C1288 C1281 1.390 1_556 S
C1288 C1289 1.391 1_556 S
C1288 H1294 0.951 . S
C1289 C1269 1.449 . S
C1289 C1288 1.391 1_554 S
C1289 H1295 0.904 1_554 S
H1290 C1270 0.931 . S
H1291 C1271 0.930 . S
H1292 C1279 0.931 . S
H1293 C1280 0.929 1_556 S
H1294 C1288 0.951 . S
H1295 C1289 0.904 1_556 S
Mn1296 O1301 2.095 . S
Mn1296 O1311 2.162 1_545 S
Mn1296 O1312 2.297 1_545 S
Mn1296 O1320 2.385 1_545 S
Mn1296 O1321 2.209 1_545 S
Mn1296 O1322 2.094 . S
Mn1297 O1302 2.121 . S
Mn1297 N1304 2.257 1_545 S
Mn1297 N1313 2.282 1_545 S
Mn1297 O1321 2.215 1_545 S
Mn1297 O1323 2.117 . S
C1298 O1320 1.234 . S
C1298 O1321 1.283 . S
C1299 O1311 1.281 . S
C1299 O1312 1.236 . S
C1300 O1322 1.240 . S
C1300 O1323 1.264 . S
O1301 Mn1296 2.095 . S
O1301 C1310 1.250 . S
O1302 Mn1297 2.121 . S
O1302 C1310 1.258 . S
C1303 N1304 1.326 . S
C1303 C1307 1.460 . S
C1303 H1309 0.929 . S
N1304 Mn1297 2.257 1_565 S
N1304 C1303 1.326 . S
N1304 C1308 1.362 . S
C1305 C1306 1.258 . S
C1305 C1308 1.431 . S
C1305 C1325 1.449 . S
C1306 C1305 1.258 . S
C1306 C1307 1.477 . S
C1306 H1326 0.931 . S
C1307 C1303 1.460 . S
C1307 C1306 1.477 . S
C1307 H1327 0.930 . S
C1308 N1304 1.362 . S
C1308 C1305 1.431 . S
C1308 C1318 1.476 . S
H1309 C1303 0.929 . S
C1310 O1301 1.250 . S
C1310 O1302 1.258 . S
O1311 Mn1296 2.162 1_565 S
O1311 C1299 1.281 . S
O1312 Mn1296 2.297 1_565 S
O1312 C1299 1.236 . S
N1313 Mn1297 2.282 1_565 S
N1313 C1314 1.328 . S
N1313 C1318 1.318 . S
C1314 N1313 1.328 . S
C1314 C1315 1.457 . S
C1314 H1319 0.929 1_565 S
C1315 C1314 1.457 . S
C1315 C1316 1.291 . S
C1315 H1328 0.931 . S
C1316 C1315 1.291 . S
C1316 C1317 1.373 . S
C1316 H1329 0.929 . S
C1317 C1316 1.373 . S
C1317 C1318 1.396 . S
C1317 C1324 1.403 . S
C1318 C1308 1.476 . S
C1318 N1313 1.318 . S
C1318 C1317 1.396 . S
H1319 C1314 0.929 1_545 S
O1320 Mn1296 2.385 1_565 S
O1320 C1298 1.234 . S
O1321 Mn1296 2.209 1_565 S
O1321 Mn1297 2.215 1_565 S
O1321 C1298 1.283 . S
O1322 Mn1296 2.094 . S
O1322 C1300 1.240 . S
O1323 Mn1297 2.117 . S
O1323 C1300 1.264 . S
C1324 C1317 1.403 . S
C1324 C1325 1.399 . S
C1324 H1330 0.929 . S
C1325 C1305 1.449 . S
C1325 C1324 1.399 . S
C1325 H1331 0.930 . S
H1326 C1306 0.931 . S
H1327 C1307 0.930 . S
H1328 C1315 0.931 . S
H1329 C1316 0.929 . S
H1330 C1324 0.929 . S
H1331 C1325 0.930 . S
Mn1332 O1337 2.095 . S
Mn1332 O1347 2.162 . S
Mn1332 O1348 2.297 . S
Mn1332 O1356 2.385 . S
Mn1332 O1357 2.209 . S
Mn1332 O1358 2.094 . S
Mn1333 O1338 2.121 . S
Mn1333 N1340 2.257 . S
Mn1333 N1349 2.282 . S
Mn1333 O1357 2.215 . S
Mn1333 O1359 2.117 . S
C1334 O1356 1.234 . S
C1334 O1357 1.283 . S
C1335 O1347 1.281 . S
C1335 O1348 1.236 . S
C1336 O1358 1.240 . S
C1336 O1359 1.264 . S
O1337 Mn1332 2.095 . S
O1337 C1346 1.250 . S
O1338 Mn1333 2.121 . S
O1338 C1346 1.258 . S
C1339 N1340 1.326 . S
C1339 C1343 1.460 . S
C1339 H1345 0.929 . S
N1340 Mn1333 2.257 . S
N1340 C1339 1.326 . S
N1340 C1344 1.362 . S
C1341 C1342 1.258 . S
C1341 C1344 1.431 . S
C1341 C1361 1.449 . S
C1342 C1341 1.258 . S
C1342 C1343 1.477 . S
C1342 H1362 0.931 . S
C1343 C1339 1.460 . S
C1343 C1342 1.477 . S
C1343 H1363 0.930 . S
C1344 N1340 1.362 . S
C1344 C1341 1.431 . S
C1344 C1354 1.476 . S
H1345 C1339 0.929 . S
C1346 O1337 1.250 . S
C1346 O1338 1.258 . S
O1347 Mn1332 2.162 . S
O1347 C1335 1.281 . S
O1348 Mn1332 2.297 . S
O1348 C1335 1.236 . S
N1349 Mn1333 2.282 . S
N1349 C1350 1.328 . S
N1349 C1354 1.318 . S
C1350 N1349 1.328 . S
C1350 C1351 1.457 . S
C1350 H1355 0.929 . S
C1351 C1350 1.457 . S
C1351 C1352 1.291 . S
C1351 H1364 0.931 . S
C1352 C1351 1.291 . S
C1352 C1353 1.373 . S
C1352 H1365 0.929 . S
C1353 C1352 1.373 . S
C1353 C1354 1.396 . S
C1353 C1360 1.403 . S
C1354 C1344 1.476 . S
C1354 N1349 1.318 . S
C1354 C1353 1.396 . S
H1355 C1350 0.929 . S
O1356 Mn1332 2.385 . S
O1356 C1334 1.234 . S
O1357 Mn1332 2.209 . S
O1357 Mn1333 2.215 . S
O1357 C1334 1.283 . S
O1358 Mn1332 2.094 . S
O1358 C1336 1.240 . S
O1359 Mn1333 2.117 . S
O1359 C1336 1.264 . S
C1360 C1353 1.403 . S
C1360 C1361 1.399 . S
C1360 H1366 0.929 . S
C1361 C1341 1.449 . S
C1361 C1360 1.399 . S
C1361 H1367 0.930 . S
H1362 C1342 0.931 . S
H1363 C1343 0.930 . S
H1364 C1351 0.931 . S
H1365 C1352 0.929 . S
H1366 C1360 0.929 . S
H1367 C1361 0.930 . S
Mn1368 O1373 2.095 . S
Mn1368 O1383 2.162 1_565 S
Mn1368 O1384 2.297 1_565 S
Mn1368 O1392 2.385 1_565 S
Mn1368 O1393 2.209 1_565 S
Mn1368 O1394 2.094 . S
Mn1369 O1374 2.121 . S
Mn1369 N1376 2.257 1_565 S
Mn1369 N1385 2.282 1_565 S
Mn1369 O1393 2.215 1_565 S
Mn1369 O1395 2.117 . S
C1370 O1392 1.234 . S
C1370 O1393 1.283 . S
C1371 O1383 1.281 . S
C1371 O1384 1.236 . S
C1372 O1394 1.240 . S
C1372 O1395 1.264 . S
O1373 Mn1368 2.095 . S
O1373 C1382 1.250 . S
O1374 Mn1369 2.121 . S
O1374 C1382 1.258 . S
C1375 N1376 1.326 . S
C1375 C1379 1.460 . S
C1375 H1381 0.929 . S
N1376 Mn1369 2.257 1_545 S
N1376 C1375 1.326 . S
N1376 C1380 1.362 . S
C1377 C1378 1.258 . S
C1377 C1380 1.431 . S
C1377 C1397 1.449 . S
C1378 C1377 1.258 . S
C1378 C1379 1.477 . S
C1378 H1398 0.944 . S
C1379 C1375 1.460 . S
C1379 C1378 1.477 . S
C1379 H1399 0.930 1_655 S
C1380 N1376 1.362 . S
C1380 C1377 1.431 . S
C1380 C1390 1.476 . S
H1381 C1375 0.929 . S
C1382 O1373 1.250 . S
C1382 O1374 1.258 . S
O1383 Mn1368 2.162 1_545 S
O1383 C1371 1.281 . S
O1384 Mn1368 2.297 1_545 S
O1384 C1371 1.236 . S
N1385 Mn1369 2.282 1_545 S
N1385 C1386 1.328 . S
N1385 C1390 1.318 . S
C1386 N1385 1.328 . S
C1386 C1387 1.457 . S
C1386 H1391 0.929 1_545 S
C1387 C1386 1.457 . S
C1387 C1388 1.291 . S
C1387 H1400 0.931 . S
C1388 C1387 1.291 . S
C1388 C1389 1.373 . S
C1388 H1401 0.929 . S
C1389 C1388 1.373 . S
C1389 C1390 1.396 . S
C1389 C1396 1.403 . S
C1390 C1380 1.476 . S
C1390 N1385 1.318 . S
C1390 C1389 1.396 . S
H1391 C1386 0.929 1_565 S
O1392 Mn1368 2.385 1_545 S
O1392 C1370 1.234 . S
O1393 Mn1368 2.209 1_545 S
O1393 Mn1369 2.215 1_545 S
O1393 C1370 1.283 . S
O1394 Mn1368 2.094 . S
O1394 C1372 1.240 . S
O1395 Mn1369 2.117 . S
O1395 C1372 1.264 . S
C1396 C1389 1.403 . S
C1396 C1397 1.399 . S
C1396 H1402 0.929 . S
C1397 C1377 1.449 . S
C1397 C1396 1.399 . S
C1397 H1403 0.930 . S
H1398 C1378 0.944 . S
H1399 C1379 0.930 1_455 S
H1400 C1387 0.931 . S
H1401 C1388 0.929 . S
H1402 C1396 0.929 . S
H1403 C1397 0.930 . S
Mn1404 O1409 2.095 . S
Mn1404 O1419 2.162 . S
Mn1404 O1420 2.297 . S
Mn1404 O1428 2.385 . S
Mn1404 O1429 2.209 . S
Mn1404 O1430 2.094 . S
Mn1405 O1410 2.121 . S
Mn1405 N1412 2.257 . S
Mn1405 N1421 2.282 . S
Mn1405 O1429 2.215 . S
Mn1405 O1431 2.117 . S
C1406 O1428 1.234 . S
C1406 O1429 1.283 . S
C1407 O1419 1.281 . S
C1407 O1420 1.236 . S
C1408 O1430 1.240 . S
C1408 O1431 1.264 . S
O1409 Mn1404 2.095 . S
O1409 C1418 1.250 . S
O1410 Mn1405 2.121 . S
O1410 C1418 1.258 . S
C1411 N1412 1.326 . S
C1411 C1415 1.460 . S
C1411 H1417 0.929 . S
N1412 Mn1405 2.257 . S
N1412 C1411 1.326 . S
N1412 C1416 1.362 . S
C1413 C1414 1.258 . S
C1413 C1416 1.431 . S
C1413 C1433 1.449 . S
C1414 C1413 1.258 . S
C1414 C1415 1.477 . S
C1414 H1434 0.931 . S
C1415 C1411 1.460 . S
C1415 C1414 1.477 . S
C1415 H1435 0.930 . S
C1416 N1412 1.362 . S
C1416 C1413 1.431 . S
C1416 C1426 1.476 . S
H1417 C1411 0.929 . S
C1418 O1409 1.250 . S
C1418 O1410 1.258 . S
O1419 Mn1404 2.162 . S
O1419 C1407 1.281 . S
O1420 Mn1404 2.297 . S
O1420 C1407 1.236 . S
N1421 Mn1405 2.282 . S
N1421 C1422 1.328 . S
N1421 C1426 1.318 . S
C1422 N1421 1.328 . S
C1422 C1423 1.457 . S
C1422 H1427 0.929 . S
C1423 C1422 1.457 . S
C1423 C1424 1.291 . S
C1423 H1436 0.931 . S
C1424 C1423 1.291 . S
C1424 C1425 1.373 . S
C1424 H1437 0.929 1_556 S
C1425 C1424 1.373 . S
C1425 C1426 1.396 . S
C1425 C1432 1.390 1_556 S
C1426 C1416 1.476 . S
C1426 N1421 1.318 . S
C1426 C1425 1.396 . S
H1427 C1422 0.929 . S
O1428 Mn1404 2.385 . S
O1428 C1406 1.234 . S
O1429 Mn1404 2.209 . S
O1429 Mn1405 2.215 . S
O1429 C1406 1.283 . S
O1430 Mn1404 2.094 . S
O1430 C1408 1.240 . S
O1431 Mn1405 2.117 . S
O1431 C1408 1.264 . S
C1432 C1425 1.390 1_554 S
C1432 C1433 1.391 1_554 S
C1432 H1438 0.952 . S
C1433 C1413 1.449 . S
C1433 C1432 1.391 1_556 S
C1433 H1439 0.904 1_556 S
H1434 C1414 0.931 . S
H1435 C1415 0.930 . S
H1436 C1423 0.931 . S
H1437 C1424 0.929 1_554 S
H1438 C1432 0.952 . S
H1439 C1433 0.904 1_554 S
Mn1440 O1445 2.095 . S
Mn1440 O1455 2.162 1_556 S
Mn1440 O1456 2.297 1_556 S
Mn1440 O1464 2.385 1_556 S
Mn1440 O1465 2.209 1_556 S
Mn1440 O1466 2.094 . S
Mn1441 O1446 2.121 . S
Mn1441 N1448 2.257 1_556 S
Mn1441 N1457 2.282 1_556 S
Mn1441 O1465 2.215 1_556 S
Mn1441 O1467 2.117 . S
C1442 O1464 1.234 . S
C1442 O1465 1.283 . S
C1443 O1455 1.281 . S
C1443 O1456 1.236 . S
C1444 O1466 1.240 . S
C1444 O1467 1.264 . S
O1445 Mn1440 2.095 . S
O1445 C1454 1.250 . S
O1446 Mn1441 2.121 . S
O1446 C1454 1.258 . S
C1447 N1448 1.326 . S
C1447 C1451 1.460 . S
C1447 H1453 0.929 . S
N1448 Mn1441 2.257 1_554 S
N1448 C1447 1.326 . S
N1448 C1452 1.362 . S
C1449 C1450 1.258 . S
C1449 C1452 1.431 . S
C1449 C1469 1.449 . S
C1450 C1449 1.258 . S
C1450 C1451 1.477 . S
C1450 H1470 0.931 . S
C1451 C1447 1.460 . S
C1451 C1450 1.477 . S
C1451 H1471 0.930 . S
C1452 N1448 1.362 . S
C1452 C1449 1.431 . S
C1452 C1462 1.476 . S
H1453 C1447 0.929 . S
C1454 O1445 1.250 . S
C1454 O1446 1.258 . S
O1455 Mn1440 2.162 1_554 S
O1455 C1443 1.281 . S
O1456 Mn1440 2.297 1_554 S
O1456 C1443 1.236 . S
N1457 Mn1441 2.282 1_554 S
N1457 C1458 1.328 . S
N1457 C1462 1.318 . S
C1458 N1457 1.328 . S
C1458 C1459 1.457 . S
C1458 H1463 0.929 1_554 S
C1459 C1458 1.457 . S
C1459 C1460 1.291 . S
C1459 H1472 0.931 . S
C1460 C1459 1.291 . S
C1460 C1461 1.373 . S
C1460 H1473 0.929 . S
C1461 C1460 1.373 . S
C1461 C1462 1.396 . S
C1461 C1468 1.403 . S
C1462 C1452 1.476 . S
C1462 N1457 1.318 . S
C1462 C1461 1.396 . S
H1463 C1458 0.929 1_556 S
O1464 Mn1440 2.385 1_554 S
O1464 C1442 1.234 . S
O1465 Mn1440 2.209 1_554 S
O1465 Mn1441 2.215 1_554 S
O1465 C1442 1.283 . S
O1466 Mn1440 2.094 . S
O1466 C1444 1.240 . S
O1467 Mn1441 2.117 . S
O1467 C1444 1.264 . S
C1468 C1461 1.403 . S
C1468 C1469 1.399 . S
C1468 H1474 0.929 . S
C1469 C1449 1.449 . S
C1469 C1468 1.399 . S
C1469 H1475 0.930 . S
H1470 C1450 0.931 . S
H1471 C1451 0.930 . S
H1472 C1459 0.931 . S
H1473 C1460 0.929 . S
H1474 C1468 0.929 . S
H1475 C1469 0.930 . S
Mn1476 O1481 2.095 . S
Mn1476 O1491 2.162 1_554 S
Mn1476 O1492 2.297 1_554 S
Mn1476 O1500 2.385 1_554 S
Mn1476 O1501 2.209 1_554 S
Mn1476 O1502 2.094 . S
Mn1477 O1482 2.121 . S
Mn1477 N1484 2.257 1_554 S
Mn1477 N1493 2.282 1_554 S
Mn1477 O1501 2.215 1_554 S
Mn1477 O1503 2.117 . S
C1478 O1500 1.234 . S
C1478 O1501 1.283 . S
C1479 O1491 1.281 . S
C1479 O1492 1.236 . S
C1480 O1502 1.240 . S
C1480 O1503 1.264 . S
O1481 Mn1476 2.095 . S
O1481 C1490 1.250 . S
O1482 Mn1477 2.121 . S
O1482 C1490 1.258 . S
C1483 N1484 1.326 . S
C1483 C1487 1.460 . S
C1483 H1489 0.929 . S
N1484 Mn1477 2.257 1_556 S
N1484 C1483 1.326 . S
N1484 C1488 1.362 . S
C1485 C1486 1.258 . S
C1485 C1488 1.431 . S
C1485 C1505 1.449 . S
C1486 C1485 1.258 . S
C1486 C1487 1.477 . S
C1486 H1506 0.943 . S
C1487 C1483 1.460 . S
C1487 C1486 1.477 . S
C1487 H1507 0.930 1_565 S
C1488 N1484 1.362 . S
C1488 C1485 1.431 . S
C1488 C1498 1.476 . S
H1489 C1483 0.929 . S
C1490 O1481 1.250 . S
C1490 O1482 1.258 . S
O1491 Mn1476 2.162 1_556 S
O1491 C1479 1.281 . S
O1492 Mn1476 2.297 1_556 S
O1492 C1479 1.236 . S
N1493 Mn1477 2.282 1_556 S
N1493 C1494 1.328 . S
N1493 C1498 1.318 . S
C1494 N1493 1.328 . S
C1494 C1495 1.457 . S
C1494 H1499 0.929 1_556 S
C1495 C1494 1.457 . S
C1495 C1496 1.291 . S
C1495 H1508 0.931 . S
C1496 C1495 1.291 . S
C1496 C1497 1.373 . S
C1496 H1509 0.929 . S
C1497 C1496 1.373 . S
C1497 C1498 1.396 . S
C1497 C1504 1.403 . S
C1498 C1488 1.476 . S
C1498 N1493 1.318 . S
C1498 C1497 1.396 . S
H1499 C1494 0.929 1_554 S
O1500 Mn1476 2.385 1_556 S
O1500 C1478 1.234 . S
O1501 Mn1476 2.209 1_556 S
O1501 Mn1477 2.215 1_556 S
O1501 C1478 1.283 . S
O1502 Mn1476 2.094 . S
O1502 C1480 1.240 . S
O1503 Mn1477 2.117 . S
O1503 C1480 1.264 . S
C1504 C1497 1.403 . S
C1504 C1505 1.399 . S
C1504 H1510 0.929 . S
C1505 C1485 1.449 . S
C1505 C1504 1.399 . S
C1505 H1511 0.930 . S
H1506 C1486 0.943 . S
H1507 C1487 0.930 1_545 S
H1508 C1495 0.931 . S
H1509 C1496 0.929 . S
H1510 C1504 0.929 . S
H1511 C1505 0.930 . S
Mn1512 O1517 2.095 . S
Mn1512 O1527 2.162 . S
Mn1512 O1528 2.297 . S
Mn1512 O1536 2.385 . S
Mn1512 O1537 2.209 . S
Mn1512 O1538 2.094 . S
Mn1513 O1518 2.121 . S
Mn1513 N1520 2.257 . S
Mn1513 N1529 2.282 . S
Mn1513 O1537 2.215 . S
Mn1513 O1539 2.117 . S
C1514 O1536 1.234 . S
C1514 O1537 1.283 . S
C1515 O1527 1.281 . S
C1515 O1528 1.236 . S
C1516 O1538 1.240 . S
C1516 O1539 1.264 . S
O1517 Mn1512 2.095 . S
O1517 C1526 1.250 . S
O1518 Mn1513 2.121 . S
O1518 C1526 1.258 . S
C1519 N1520 1.326 . S
C1519 C1523 1.460 . S
C1519 H1525 0.929 . S
N1520 Mn1513 2.257 . S
N1520 C1519 1.326 . S
N1520 C1524 1.362 . S
C1521 C1522 1.258 . S
C1521 C1524 1.431 . S
C1521 C1541 1.449 . S
C1522 C1521 1.258 . S
C1522 C1523 1.477 . S
C1522 H1542 0.931 . S
C1523 C1519 1.460 . S
C1523 C1522 1.477 . S
C1523 H1543 0.930 . S
C1524 N1520 1.362 . S
C1524 C1521 1.431 . S
C1524 C1534 1.476 . S
H1525 C1519 0.929 . S
C1526 O1517 1.250 . S
C1526 O1518 1.258 . S
O1527 Mn1512 2.162 . S
O1527 C1515 1.281 . S
O1528 Mn1512 2.297 . S
O1528 C1515 1.236 . S
N1529 Mn1513 2.282 . S
N1529 C1530 1.328 . S
N1529 C1534 1.318 . S
C1530 N1529 1.328 . S
C1530 C1531 1.457 . S
C1530 H1535 0.929 . S
C1531 C1530 1.457 . S
C1531 C1532 1.291 . S
C1531 H1544 0.931 . S
C1532 C1531 1.291 . S
C1532 C1533 1.373 . S
C1532 H1545 0.929 . S
C1533 C1532 1.373 . S
C1533 C1534 1.396 . S
C1533 C1540 1.403 . S
C1534 C1524 1.476 . S
C1534 N1529 1.318 . S
C1534 C1533 1.396 . S
H1535 C1530 0.929 . S
O1536 Mn1512 2.385 . S
O1536 C1514 1.234 . S
O1537 Mn1512 2.209 . S
O1537 Mn1513 2.215 . S
O1537 C1514 1.283 . S
O1538 Mn1512 2.094 . S
O1538 C1516 1.240 . S
O1539 Mn1513 2.117 . S
O1539 C1516 1.264 . S
C1540 C1533 1.403 . S
C1540 C1541 1.399 . S
C1540 H1546 0.929 . S
C1541 C1521 1.449 . S
C1541 C1540 1.399 . S
C1541 H1547 0.930 . S
H1542 C1522 0.931 . S
H1543 C1523 0.930 . S
H1544 C1531 0.931 . S
H1545 C1532 0.929 . S
H1546 C1540 0.929 . S
H1547 C1541 0.930 . S
Mn1548 O1553 2.095 . S
Mn1548 O1563 2.162 . S
Mn1548 O1564 2.297 . S
Mn1548 O1572 2.385 . S
Mn1548 O1573 2.209 . S
Mn1548 O1574 2.094 . S
Mn1549 O1554 2.121 . S
Mn1549 N1556 2.257 . S
Mn1549 N1565 2.282 . S
Mn1549 O1573 2.215 . S
Mn1549 O1575 2.117 . S
C1550 O1572 1.234 . S
C1550 O1573 1.283 . S
C1551 O1563 1.281 . S
C1551 O1564 1.236 . S
C1552 O1574 1.240 . S
C1552 O1575 1.264 . S
O1553 Mn1548 2.095 . S
O1553 C1562 1.250 . S
O1554 Mn1549 2.121 . S
O1554 C1562 1.258 . S
C1555 N1556 1.326 . S
C1555 C1559 1.460 . S
C1555 H1561 0.929 . S
N1556 Mn1549 2.257 . S
N1556 C1555 1.326 . S
N1556 C1560 1.362 . S
C1557 C1558 1.258 . S
C1557 C1560 1.431 . S
C1557 C1577 1.449 . S
C1558 C1557 1.258 . S
C1558 C1559 1.477 . S
C1558 H1578 0.944 . S
C1559 C1555 1.460 . S
C1559 C1558 1.477 . S
C1559 H1579 0.930 1_545 S
C1560 N1556 1.362 . S
C1560 C1557 1.431 . S
C1560 C1570 1.476 . S
H1561 C1555 0.929 . S
C1562 O1553 1.250 . S
C1562 O1554 1.258 . S
O1563 Mn1548 2.162 . S
O1563 C1551 1.281 . S
O1564 Mn1548 2.297 . S
O1564 C1551 1.236 . S
N1565 Mn1549 2.282 . S
N1565 C1566 1.328 . S
N1565 C1570 1.318 . S
C1566 N1565 1.328 . S
C1566 C1567 1.457 . S
C1566 H1571 0.929 . S
C1567 C1566 1.457 . S
C1567 C1568 1.291 . S
C1567 H1580 0.931 . S
C1568 C1567 1.291 . S
C1568 C1569 1.373 . S
C1568 H1581 0.929 . S
C1569 C1568 1.373 . S
C1569 C1570 1.396 . S
C1569 C1576 1.403 . S
C1570 C1560 1.476 . S
C1570 N1565 1.318 . S
C1570 C1569 1.396 . S
H1571 C1566 0.929 . S
O1572 Mn1548 2.385 . S
O1572 C1550 1.234 . S
O1573 Mn1548 2.209 . S
O1573 Mn1549 2.215 . S
O1573 C1550 1.283 . S
O1574 Mn1548 2.094 . S
O1574 C1552 1.240 . S
O1575 Mn1549 2.117 . S
O1575 C1552 1.264 . S
C1576 C1569 1.403 . S
C1576 C1577 1.399 . S
C1576 H1582 0.929 . S
C1577 C1557 1.449 . S
C1577 C1576 1.399 . S
C1577 H1583 0.930 . S
H1578 C1558 0.944 . S
H1579 C1559 0.930 1_565 S
H1580 C1567 0.931 . S
H1581 C1568 0.929 . S
H1582 C1576 0.929 . S
H1583 C1577 0.930 . S
Mn1584 O1589 2.095 . S
Mn1584 O1599 2.162 . S
Mn1584 O1600 2.297 . S
Mn1584 O1608 2.385 . S
Mn1584 O1609 2.209 . S
Mn1584 O1610 2.094 . S
Mn1585 O1590 2.121 . S
Mn1585 N1592 2.257 . S
Mn1585 N1601 2.282 . S
Mn1585 O1609 2.215 . S
Mn1585 O1611 2.117 . S
C1586 O1608 1.234 . S
C1586 O1609 1.283 . S
C1587 O1599 1.281 . S
C1587 O1600 1.236 . S
C1588 O1610 1.240 . S
C1588 O1611 1.264 . S
O1589 Mn1584 2.095 . S
O1589 C1598 1.250 . S
O1590 Mn1585 2.121 . S
O1590 C1598 1.258 . S
C1591 N1592 1.326 . S
C1591 C1595 1.460 . S
C1591 H1597 0.929 . S
N1592 Mn1585 2.257 . S
N1592 C1591 1.326 . S
N1592 C1596 1.362 . S
C1593 C1594 1.258 . S
C1593 C1596 1.431 . S
C1593 C1613 1.449 . S
C1594 C1593 1.258 . S
C1594 C1595 1.477 . S
C1594 H1614 0.931 . S
C1595 C1591 1.460 . S
C1595 C1594 1.477 . S
C1595 H1615 0.930 . S
C1596 N1592 1.362 . S
C1596 C1593 1.431 . S
C1596 C1606 1.476 . S
H1597 C1591 0.929 . S
C1598 O1589 1.250 . S
C1598 O1590 1.258 . S
O1599 Mn1584 2.162 . S
O1599 C1587 1.281 . S
O1600 Mn1584 2.297 . S
O1600 C1587 1.236 . S
N1601 Mn1585 2.282 . S
N1601 C1602 1.328 . S
N1601 C1606 1.318 . S
C1602 N1601 1.328 . S
C1602 C1603 1.457 . S
C1602 H1607 0.929 . S
C1603 C1602 1.457 . S
C1603 C1604 1.291 . S
C1603 H1616 0.931 . S
C1604 C1603 1.291 . S
C1604 C1605 1.373 . S
C1604 H1617 0.929 1_565 S
C1605 C1604 1.373 . S
C1605 C1606 1.396 . S
C1605 C1612 1.390 1_565 S
C1606 C1596 1.476 . S
C1606 N1601 1.318 . S
C1606 C1605 1.396 . S
H1607 C1602 0.929 . S
O1608 Mn1584 2.385 . S
O1608 C1586 1.234 . S
O1609 Mn1584 2.209 . S
O1609 Mn1585 2.215 . S
O1609 C1586 1.283 . S
O1610 Mn1584 2.094 . S
O1610 C1588 1.240 . S
O1611 Mn1585 2.117 . S
O1611 C1588 1.264 . S
C1612 C1605 1.390 1_545 S
C1612 C1613 1.391 1_545 S
C1612 H1618 0.952 . S
C1613 C1593 1.449 . S
C1613 C1612 1.391 1_565 S
C1613 H1619 0.904 1_565 S
H1614 C1594 0.931 . S
H1615 C1595 0.930 . S
H1616 C1603 0.931 . S
H1617 C1604 0.929 1_545 S
H1618 C1612 0.952 . S
H1619 C1613 0.904 1_545 S
Mn1620 O1625 2.095 . S
Mn1620 O1635 2.162 . S
Mn1620 O1636 2.297 . S
Mn1620 O1644 2.385 . S
Mn1620 O1645 2.209 . S
Mn1620 O1646 2.094 . S
Mn1621 O1626 2.121 . S
Mn1621 N1628 2.257 . S
Mn1621 N1637 2.282 . S
Mn1621 O1645 2.215 . S
Mn1621 O1647 2.117 . S
C1622 O1644 1.234 . S
C1622 O1645 1.283 . S
C1623 O1635 1.281 . S
C1623 O1636 1.236 . S
C1624 O1646 1.240 . S
C1624 O1647 1.264 . S
O1625 Mn1620 2.095 . S
O1625 C1634 1.250 . S
O1626 Mn1621 2.121 . S
O1626 C1634 1.258 . S
C1627 N1628 1.326 . S
C1627 C1631 1.460 . S
C1627 H1633 0.929 . S
N1628 Mn1621 2.257 . S
N1628 C1627 1.326 . S
N1628 C1632 1.362 . S
C1629 C1630 1.258 . S
C1629 C1632 1.431 . S
C1629 C1649 1.449 . S
C1630 C1629 1.258 . S
C1630 C1631 1.477 . S
C1630 H1650 0.931 . S
C1631 C1627 1.460 . S
C1631 C1630 1.477 . S
C1631 H1651 0.930 . S
C1632 N1628 1.362 . S
C1632 C1629 1.431 . S
C1632 C1642 1.476 . S
H1633 C1627 0.929 . S
C1634 O1625 1.250 . S
C1634 O1626 1.258 . S
O1635 Mn1620 2.162 . S
O1635 C1623 1.281 . S
O1636 Mn1620 2.297 . S
O1636 C1623 1.236 . S
N1637 Mn1621 2.282 . S
N1637 C1638 1.328 . S
N1637 C1642 1.318 . S
C1638 N1637 1.328 . S
C1638 C1639 1.457 . S
C1638 H1643 0.929 . S
C1639 C1638 1.457 . S
C1639 C1640 1.291 . S
C1639 H1652 0.931 . S
C1640 C1639 1.291 . S
C1640 C1641 1.373 . S
C1640 H1653 0.929 . S
C1641 C1640 1.373 . S
C1641 C1642 1.396 . S
C1641 C1648 1.403 . S
C1642 C1632 1.476 . S
C1642 N1637 1.318 . S
C1642 C1641 1.396 . S
H1643 C1638 0.929 . S
O1644 Mn1620 2.385 . S
O1644 C1622 1.234 . S
O1645 Mn1620 2.209 . S
O1645 Mn1621 2.215 . S
O1645 C1622 1.283 . S
O1646 Mn1620 2.094 . S
O1646 C1624 1.240 . S
O1647 Mn1621 2.117 . S
O1647 C1624 1.264 . S
C1648 C1641 1.403 . S
C1648 C1649 1.399 . S
C1648 H1654 0.929 . S
C1649 C1629 1.449 . S
C1649 C1648 1.399 . S
C1649 H1655 0.930 . S
H1650 C1630 0.931 . S
H1651 C1631 0.930 . S
H1652 C1639 0.931 . S
H1653 C1640 0.929 . S
H1654 C1648 0.929 . S
H1655 C1649 0.930 . S
Mn1656 O1661 2.095 . S
Mn1656 O1671 2.162 . S
Mn1656 O1672 2.297 . S
Mn1656 O1680 2.385 . S
Mn1656 O1681 2.209 . S
Mn1656 O1682 2.094 . S
Mn1657 O1662 2.121 . S
Mn1657 N1664 2.257 . S
Mn1657 N1673 2.282 . S
Mn1657 O1681 2.215 . S
Mn1657 O1683 2.117 . S
C1658 O1680 1.234 . S
C1658 O1681 1.283 . S
C1659 O1671 1.281 . S
C1659 O1672 1.236 . S
C1660 O1682 1.240 . S
C1660 O1683 1.264 . S
O1661 Mn1656 2.095 . S
O1661 C1670 1.250 . S
O1662 Mn1657 2.121 . S
O1662 C1670 1.258 . S
C1663 N1664 1.326 . S
C1663 C1667 1.460 . S
C1663 H1669 0.929 . S
N1664 Mn1657 2.257 . S
N1664 C1663 1.326 . S
N1664 C1668 1.362 . S
C1665 C1666 1.258 . S
C1665 C1668 1.431 . S
C1665 C1685 1.449 . S
C1666 C1665 1.258 . S
C1666 C1667 1.477 . S
C1666 H1686 0.931 . S
C1667 C1663 1.460 . S
C1667 C1666 1.477 . S
C1667 H1687 0.930 . S
C1668 N1664 1.362 . S
C1668 C1665 1.431 . S
C1668 C1678 1.476 . S
H1669 C1663 0.929 . S
C1670 O1661 1.250 . S
C1670 O1662 1.258 . S
O1671 Mn1656 2.162 . S
O1671 C1659 1.281 . S
O1672 Mn1656 2.297 . S
O1672 C1659 1.236 . S
N1673 Mn1657 2.282 . S
N1673 C1674 1.328 . S
N1673 C1678 1.318 . S
C1674 N1673 1.328 . S
C1674 C1675 1.457 . S
C1674 H1679 0.929 . S
C1675 C1674 1.457 . S
C1675 C1676 1.291 . S
C1675 H1688 0.931 . S
C1676 C1675 1.291 . S
C1676 C1677 1.373 . S
C1676 H1689 0.929 . S
C1677 C1676 1.373 . S
C1677 C1678 1.396 . S
C1677 C1684 1.403 . S
C1678 C1668 1.476 . S
C1678 N1673 1.318 . S
C1678 C1677 1.396 . S
H1679 C1674 0.929 . S
O1680 Mn1656 2.385 . S
O1680 C1658 1.234 . S
O1681 Mn1656 2.209 . S
O1681 Mn1657 2.215 . S
O1681 C1658 1.283 . S
O1682 Mn1656 2.094 . S
O1682 C1660 1.240 . S
O1683 Mn1657 2.117 . S
O1683 C1660 1.264 . S
C1684 C1677 1.403 . S
C1684 C1685 1.399 . S
C1684 H1690 0.929 . S
C1685 C1665 1.449 . S
C1685 C1684 1.399 . S
C1685 H1691 0.930 . S
H1686 C1666 0.931 . S
H1687 C1667 0.930 . S
H1688 C1675 0.931 . S
H1689 C1676 0.929 . S
H1690 C1684 0.929 . S
H1691 C1685 0.930 . S
Mn1692 O1697 2.095 . S
Mn1692 O1707 2.162 . S
Mn1692 O1708 2.297 . S
Mn1692 O1716 2.385 . S
Mn1692 O1717 2.209 . S
Mn1692 O1718 2.094 . S
Mn1693 O1698 2.121 . S
Mn1693 N1700 2.257 . S
Mn1693 N1709 2.282 . S
Mn1693 O1717 2.215 . S
Mn1693 O1719 2.117 . S
C1694 O1716 1.234 . S
C1694 O1717 1.283 . S
C1695 O1707 1.281 . S
C1695 O1708 1.236 . S
C1696 O1718 1.240 . S
C1696 O1719 1.264 . S
O1697 Mn1692 2.095 . S
O1697 C1706 1.250 . S
O1698 Mn1693 2.121 . S
O1698 C1706 1.258 . S
C1699 N1700 1.326 . S
C1699 C1703 1.460 . S
C1699 H1705 0.929 . S
N1700 Mn1693 2.257 . S
N1700 C1699 1.326 . S
N1700 C1704 1.362 . S
C1701 C1702 1.258 . S
C1701 C1704 1.431 . S
C1701 C1721 1.449 . S
C1702 C1701 1.258 . S
C1702 C1703 1.477 . S
C1702 H1722 0.931 . S
C1703 C1699 1.460 . S
C1703 C1702 1.477 . S
C1703 H1723 0.930 . S
C1704 N1700 1.362 . S
C1704 C1701 1.431 . S
C1704 C1714 1.476 . S
H1705 C1699 0.929 . S
C1706 O1697 1.250 . S
C1706 O1698 1.258 . S
O1707 Mn1692 2.162 . S
O1707 C1695 1.281 . S
O1708 Mn1692 2.297 . S
O1708 C1695 1.236 . S
N1709 Mn1693 2.282 . S
N1709 C1710 1.328 . S
N1709 C1714 1.318 . S
C1710 N1709 1.328 . S
C1710 C1711 1.457 . S
C1710 H1715 0.929 . S
C1711 C1710 1.457 . S
C1711 C1712 1.291 . S
C1711 H1724 0.931 . S
C1712 C1711 1.291 . S
C1712 C1713 1.373 . S
C1712 H1725 0.929 . S
C1713 C1712 1.373 . S
C1713 C1714 1.396 . S
C1713 C1720 1.403 . S
C1714 C1704 1.476 . S
C1714 N1709 1.318 . S
C1714 C1713 1.396 . S
H1715 C1710 0.929 . S
O1716 Mn1692 2.385 . S
O1716 C1694 1.234 . S
O1717 Mn1692 2.209 . S
O1717 Mn1693 2.215 . S
O1717 C1694 1.283 . S
O1718 Mn1692 2.094 . S
O1718 C1696 1.240 . S
O1719 Mn1693 2.117 . S
O1719 C1696 1.264 . S
C1720 C1713 1.403 . S
C1720 C1721 1.399 . S
C1720 H1726 0.929 . S
C1721 C1701 1.449 . S
C1721 C1720 1.399 . S
C1721 H1727 0.930 . S
H1722 C1702 0.931 . S
H1723 C1703 0.930 . S
H1724 C1711 0.931 . S
H1725 C1712 0.929 . S
H1726 C1720 0.929 . S
H1727 C1721 0.930 . S
Mn1728 O1733 2.095 . S
Mn1728 O1743 2.162 . S
Mn1728 O1744 2.297 . S
Mn1728 O1752 2.385 . S
Mn1728 O1753 2.209 . S
Mn1728 O1754 2.094 . S
Mn1729 O1734 2.121 . S
Mn1729 N1736 2.257 . S
Mn1729 N1745 2.282 . S
Mn1729 O1753 2.215 . S
Mn1729 O1755 2.117 . S
C1730 O1752 1.234 . S
C1730 O1753 1.283 . S
C1731 O1743 1.281 . S
C1731 O1744 1.236 . S
C1732 O1754 1.240 . S
C1732 O1755 1.264 . S
O1733 Mn1728 2.095 . S
O1733 C1742 1.250 . S
O1734 Mn1729 2.121 . S
O1734 C1742 1.258 . S
C1735 N1736 1.326 . S
C1735 C1739 1.460 . S
C1735 H1741 0.929 . S
N1736 Mn1729 2.257 . S
N1736 C1735 1.326 . S
N1736 C1740 1.362 . S
C1737 C1738 1.258 . S
C1737 C1740 1.431 . S
C1737 C1757 1.449 . S
C1738 C1737 1.258 . S
C1738 C1739 1.477 . S
C1738 H1758 0.944 . S
C1739 C1735 1.460 . S
C1739 C1738 1.477 . S
C1739 H1759 0.930 1_556 S
C1740 N1736 1.362 . S
C1740 C1737 1.431 . S
C1740 C1750 1.476 . S
H1741 C1735 0.929 . S
C1742 O1733 1.250 . S
C1742 O1734 1.258 . S
O1743 Mn1728 2.162 . S
O1743 C1731 1.281 . S
O1744 Mn1728 2.297 . S
O1744 C1731 1.236 . S
N1745 Mn1729 2.282 . S
N1745 C1746 1.328 . S
N1745 C1750 1.318 . S
C1746 N1745 1.328 . S
C1746 C1747 1.457 . S
C1746 H1751 0.929 . S
C1747 C1746 1.457 . S
C1747 C1748 1.291 . S
C1747 H1760 0.931 . S
C1748 C1747 1.291 . S
C1748 C1749 1.373 . S
C1748 H1761 0.929 . S
C1749 C1748 1.373 . S
C1749 C1750 1.396 . S
C1749 C1756 1.403 . S
C1750 C1740 1.476 . S
C1750 N1745 1.318 . S
C1750 C1749 1.396 . S
H1751 C1746 0.929 . S
O1752 Mn1728 2.385 . S
O1752 C1730 1.234 . S
O1753 Mn1728 2.209 . S
O1753 Mn1729 2.215 . S
O1753 C1730 1.283 . S
O1754 Mn1728 2.094 . S
O1754 C1732 1.240 . S
O1755 Mn1729 2.117 . S
O1755 C1732 1.264 . S
C1756 C1749 1.403 . S
C1756 C1757 1.399 . S
C1756 H1762 0.929 . S
C1757 C1737 1.449 . S
C1757 C1756 1.399 . S
C1757 H1763 0.930 . S
H1758 C1738 0.944 . S
H1759 C1739 0.930 1_554 S
H1760 C1747 0.931 . S
H1761 C1748 0.929 . S
H1762 C1756 0.929 . S
H1763 C1757 0.930 . S
Mn1764 O1769 2.095 . S
Mn1764 O1779 2.162 . S
Mn1764 O1780 2.297 . S
Mn1764 O1788 2.385 . S
Mn1764 O1789 2.209 . S
Mn1764 O1790 2.094 . S
Mn1765 O1770 2.121 . S
Mn1765 N1772 2.257 . S
Mn1765 N1781 2.282 . S
Mn1765 O1789 2.215 . S
Mn1765 O1791 2.117 . S
C1766 O1788 1.234 . S
C1766 O1789 1.283 . S
C1767 O1779 1.281 . S
C1767 O1780 1.236 . S
C1768 O1790 1.240 . S
C1768 O1791 1.264 . S
O1769 Mn1764 2.095 . S
O1769 C1778 1.250 . S
O1770 Mn1765 2.121 . S
O1770 C1778 1.258 . S
C1771 N1772 1.326 . S
C1771 C1775 1.460 . S
C1771 H1777 0.929 . S
N1772 Mn1765 2.257 . S
N1772 C1771 1.326 . S
N1772 C1776 1.362 . S
C1773 C1774 1.258 . S
C1773 C1776 1.431 . S
C1773 C1793 1.449 . S
C1774 C1773 1.258 . S
C1774 C1775 1.477 . S
C1774 H1794 0.931 . S
C1775 C1771 1.460 . S
C1775 C1774 1.477 . S
C1775 H1795 0.930 . S
C1776 N1772 1.362 . S
C1776 C1773 1.431 . S
C1776 C1786 1.476 . S
H1777 C1771 0.929 . S
C1778 O1769 1.250 . S
C1778 O1770 1.258 . S
O1779 Mn1764 2.162 . S
O1779 C1767 1.281 . S
O1780 Mn1764 2.297 . S
O1780 C1767 1.236 . S
N1781 Mn1765 2.282 . S
N1781 C1782 1.328 . S
N1781 C1786 1.318 . S
C1782 N1781 1.328 . S
C1782 C1783 1.457 . S
C1782 H1787 0.929 . S
C1783 C1782 1.457 . S
C1783 C1784 1.291 . S
C1783 H1796 0.931 . S
C1784 C1783 1.291 . S
C1784 C1785 1.373 . S
C1784 H1797 0.929 . S
C1785 C1784 1.373 . S
C1785 C1786 1.396 . S
C1785 C1792 1.403 . S
C1786 C1776 1.476 . S
C1786 N1781 1.318 . S
C1786 C1785 1.396 . S
H1787 C1782 0.929 . S
O1788 Mn1764 2.385 . S
O1788 C1766 1.234 . S
O1789 Mn1764 2.209 . S
O1789 Mn1765 2.215 . S
O1789 C1766 1.283 . S
O1790 Mn1764 2.094 . S
O1790 C1768 1.240 . S
O1791 Mn1765 2.117 . S
O1791 C1768 1.264 . S
C1792 C1785 1.403 . S
C1792 C1793 1.399 . S
C1792 H1798 0.929 . S
C1793 C1773 1.449 . S
C1793 C1792 1.399 . S
C1793 H1799 0.930 . S
H1794 C1774 0.931 . S
H1795 C1775 0.930 . S
H1796 C1783 0.931 . S
H1797 C1784 0.929 . S
H1798 C1792 0.929 . S
H1799 C1793 0.930 . S
Mn1800 O1805 2.095 . S
Mn1800 O1815 2.162 1_655 S
Mn1800 O1816 2.297 1_655 S
Mn1800 O1824 2.385 1_655 S
Mn1800 O1825 2.209 1_655 S
Mn1800 O1826 2.094 . S
Mn1801 O1806 2.121 . S
Mn1801 N1808 2.257 1_655 S
Mn1801 N1817 2.282 1_655 S
Mn1801 O1825 2.215 1_655 S
Mn1801 O1827 2.117 . S
C1802 O1824 1.234 . S
C1802 O1825 1.283 . S
C1803 O1815 1.281 . S
C1803 O1816 1.236 . S
C1804 O1826 1.240 . S
C1804 O1827 1.264 . S
O1805 Mn1800 2.095 . S
O1805 C1814 1.250 . S
O1806 Mn1801 2.121 . S
O1806 C1814 1.258 . S
C1807 N1808 1.326 . S
C1807 C1811 1.460 . S
C1807 H1813 0.929 . S
N1808 Mn1801 2.257 1_455 S
N1808 C1807 1.326 . S
N1808 C1812 1.362 . S
C1809 C1810 1.258 . S
C1809 C1812 1.431 . S
C1809 C1829 1.449 . S
C1810 C1809 1.258 . S
C1810 C1811 1.477 . S
C1810 H1830 0.931 . S
C1811 C1807 1.460 . S
C1811 C1810 1.477 . S
C1811 H1831 0.930 . S
C1812 N1808 1.362 . S
C1812 C1809 1.431 . S
C1812 C1822 1.476 . S
H1813 C1807 0.929 . S
C1814 O1805 1.250 . S
C1814 O1806 1.258 . S
O1815 Mn1800 2.162 1_455 S
O1815 C1803 1.281 . S
O1816 Mn1800 2.297 1_455 S
O1816 C1803 1.236 . S
N1817 Mn1801 2.282 1_455 S
N1817 C1818 1.328 . S
N1817 C1822 1.318 . S
C1818 N1817 1.328 . S
C1818 C1819 1.457 . S
C1818 H1823 0.929 1_455 S
C1819 C1818 1.457 . S
C1819 C1820 1.291 . S
C1819 H1832 0.931 . S
C1820 C1819 1.291 . S
C1820 C1821 1.373 . S
C1820 H1833 0.929 . S
C1821 C1820 1.373 . S
C1821 C1822 1.396 . S
C1821 C1828 1.403 . S
C1822 C1812 1.476 . S
C1822 N1817 1.318 . S
C1822 C1821 1.396 . S
H1823 C1818 0.929 1_655 S
O1824 Mn1800 2.385 1_455 S
O1824 C1802 1.234 . S
O1825 Mn1800 2.209 1_455 S
O1825 Mn1801 2.215 1_455 S
O1825 C1802 1.283 . S
O1826 Mn1800 2.094 . S
O1826 C1804 1.240 . S
O1827 Mn1801 2.117 . S
O1827 C1804 1.264 . S
C1828 C1821 1.403 . S
C1828 C1829 1.399 . S
C1828 H1834 0.929 . S
C1829 C1809 1.449 . S
C1829 C1828 1.399 . S
C1829 H1835 0.930 . S
H1830 C1810 0.931 . S
H1831 C1811 0.930 . S
H1832 C1819 0.931 . S
H1833 C1820 0.929 . S
H1834 C1828 0.929 . S
H1835 C1829 0.930 . S
Mn1836 O1841 2.095 . S
Mn1836 O1851 2.162 . S
Mn1836 O1852 2.297 . S
Mn1836 O1860 2.385 . S
Mn1836 O1861 2.209 . S
Mn1836 O1862 2.094 . S
Mn1837 O1842 2.121 . S
Mn1837 N1844 2.257 . S
Mn1837 N1853 2.282 . S
Mn1837 O1861 2.215 . S
Mn1837 O1863 2.117 . S
C1838 O1860 1.234 . S
C1838 O1861 1.283 . S
C1839 O1851 1.281 . S
C1839 O1852 1.236 . S
C1840 O1862 1.240 . S
C1840 O1863 1.264 . S
O1841 Mn1836 2.095 . S
O1841 C1850 1.250 . S
O1842 Mn1837 2.121 . S
O1842 C1850 1.258 . S
C1843 N1844 1.326 . S
C1843 C1847 1.460 . S
C1843 H1849 0.929 . S
N1844 Mn1837 2.257 . S
N1844 C1843 1.326 . S
N1844 C1848 1.362 . S
C1845 C1846 1.258 . S
C1845 C1848 1.431 . S
C1845 C1865 1.449 . S
C1846 C1845 1.258 . S
C1846 C1847 1.477 . S
C1846 H1866 0.931 . S
C1847 C1843 1.460 . S
C1847 C1846 1.477 . S
C1847 H1867 0.930 . S
C1848 N1844 1.362 . S
C1848 C1845 1.431 . S
C1848 C1858 1.476 . S
H1849 C1843 0.929 . S
C1850 O1841 1.250 . S
C1850 O1842 1.258 . S
O1851 Mn1836 2.162 . S
O1851 C1839 1.281 . S
O1852 Mn1836 2.297 . S
O1852 C1839 1.236 . S
N1853 Mn1837 2.282 . S
N1853 C1854 1.328 . S
N1853 C1858 1.318 . S
C1854 N1853 1.328 . S
C1854 C1855 1.457 . S
C1854 H1859 0.929 . S
C1855 C1854 1.457 . S
C1855 C1856 1.291 . S
C1855 H1868 0.931 . S
C1856 C1855 1.291 . S
C1856 C1857 1.373 . S
C1856 H1869 0.929 1_655 S
C1857 C1856 1.373 . S
C1857 C1858 1.396 . S
C1857 C1864 1.391 1_655 S
C1858 C1848 1.476 . S
C1858 N1853 1.318 . S
C1858 C1857 1.396 . S
H1859 C1854 0.929 . S
O1860 Mn1836 2.385 . S
O1860 C1838 1.234 . S
O1861 Mn1836 2.209 . S
O1861 Mn1837 2.215 . S
O1861 C1838 1.283 . S
O1862 Mn1836 2.094 . S
O1862 C1840 1.240 . S
O1863 Mn1837 2.117 . S
O1863 C1840 1.264 . S
C1864 C1857 1.391 1_455 S
C1864 C1865 1.391 1_455 S
C1864 H1870 0.951 . S
C1865 C1845 1.449 . S
C1865 C1864 1.391 1_655 S
C1865 H1871 0.904 1_655 S
H1866 C1846 0.931 . S
H1867 C1847 0.930 . S
H1868 C1855 0.931 . S
H1869 C1856 0.929 1_455 S
H1870 C1864 0.951 . S
H1871 C1865 0.904 1_455 S
Mn1872 O1877 2.095 . S
Mn1872 O1887 2.162 . S
Mn1872 O1888 2.297 . S
Mn1872 O1896 2.385 . S
Mn1872 O1897 2.209 . S
Mn1872 O1898 2.094 . S
Mn1873 O1878 2.121 . S
Mn1873 N1880 2.257 . S
Mn1873 N1889 2.282 . S
Mn1873 O1897 2.215 . S
Mn1873 O1899 2.117 . S
C1874 O1896 1.234 . S
C1874 O1897 1.283 . S
C1875 O1887 1.281 . S
C1875 O1888 1.236 . S
C1876 O1898 1.240 . S
C1876 O1899 1.264 . S
O1877 Mn1872 2.095 . S
O1877 C1886 1.250 . S
O1878 Mn1873 2.121 . S
O1878 C1886 1.258 . S
C1879 N1880 1.326 . S
C1879 C1883 1.460 . S
C1879 H1885 0.929 . S
N1880 Mn1873 2.257 . S
N1880 C1879 1.326 . S
N1880 C1884 1.362 . S
C1881 C1882 1.258 . S
C1881 C1884 1.431 . S
C1881 C1901 1.449 . S
C1882 C1881 1.258 . S
C1882 C1883 1.477 . S
C1882 H1902 0.931 . S
C1883 C1879 1.460 . S
C1883 C1882 1.477 . S
C1883 H1903 0.930 . S
C1884 N1880 1.362 . S
C1884 C1881 1.431 . S
C1884 C1894 1.476 . S
H1885 C1879 0.929 . S
C1886 O1877 1.250 . S
C1886 O1878 1.258 . S
O1887 Mn1872 2.162 . S
O1887 C1875 1.281 . S
O1888 Mn1872 2.297 . S
O1888 C1875 1.236 . S
N1889 Mn1873 2.282 . S
N1889 C1890 1.328 . S
N1889 C1894 1.318 . S
C1890 N1889 1.328 . S
C1890 C1891 1.457 . S
C1890 H1895 0.929 . S
C1891 C1890 1.457 . S
C1891 C1892 1.291 . S
C1891 H1904 0.931 . S
C1892 C1891 1.291 . S
C1892 C1893 1.373 . S
C1892 H1905 0.929 . S
C1893 C1892 1.373 . S
C1893 C1894 1.396 . S
C1893 C1900 1.403 . S
C1894 C1884 1.476 . S
C1894 N1889 1.318 . S
C1894 C1893 1.396 . S
H1895 C1890 0.929 . S
O1896 Mn1872 2.385 . S
O1896 C1874 1.234 . S
O1897 Mn1872 2.209 . S
O1897 Mn1873 2.215 . S
O1897 C1874 1.283 . S
O1898 Mn1872 2.094 . S
O1898 C1876 1.240 . S
O1899 Mn1873 2.117 . S
O1899 C1876 1.264 . S
C1900 C1893 1.403 . S
C1900 C1901 1.399 . S
C1900 H1906 0.929 . S
C1901 C1881 1.449 . S
C1901 C1900 1.399 . S
C1901 H1907 0.930 . S
H1902 C1882 0.931 . S
H1903 C1883 0.930 . S
H1904 C1891 0.931 . S
H1905 C1892 0.929 . S
H1906 C1900 0.929 . S
H1907 C1901 0.930 . S
Mn1908 O1913 2.095 . S
Mn1908 O1923 2.162 . S
Mn1908 O1924 2.297 . S
Mn1908 O1932 2.385 . S
Mn1908 O1933 2.209 . S
Mn1908 O1934 2.094 . S
Mn1909 O1914 2.121 . S
Mn1909 N1916 2.257 . S
Mn1909 N1925 2.282 . S
Mn1909 O1933 2.215 . S
Mn1909 O1935 2.117 . S
C1910 O1932 1.234 . S
C1910 O1933 1.283 . S
C1911 O1923 1.281 . S
C1911 O1924 1.236 . S
C1912 O1934 1.240 . S
C1912 O1935 1.264 . S
O1913 Mn1908 2.095 . S
O1913 C1922 1.250 . S
O1914 Mn1909 2.121 . S
O1914 C1922 1.258 . S
C1915 N1916 1.326 . S
C1915 C1919 1.460 . S
C1915 H1921 0.929 . S
N1916 Mn1909 2.257 . S
N1916 C1915 1.326 . S
N1916 C1920 1.362 . S
C1917 C1918 1.258 . S
C1917 C1920 1.431 . S
C1917 C1937 1.449 . S
C1918 C1917 1.258 . S
C1918 C1919 1.477 . S
C1918 H1938 0.931 . S
C1919 C1915 1.460 . S
C1919 C1918 1.477 . S
C1919 H1939 0.930 . S
C1920 N1916 1.362 . S
C1920 C1917 1.431 . S
C1920 C1930 1.476 . S
H1921 C1915 0.929 . S
C1922 O1913 1.250 . S
C1922 O1914 1.258 . S
O1923 Mn1908 2.162 . S
O1923 C1911 1.281 . S
O1924 Mn1908 2.297 . S
O1924 C1911 1.236 . S
N1925 Mn1909 2.282 . S
N1925 C1926 1.328 . S
N1925 C1930 1.318 . S
C1926 N1925 1.328 . S
C1926 C1927 1.457 . S
C1926 H1931 0.929 . S
C1927 C1926 1.457 . S
C1927 C1928 1.291 . S
C1927 H1940 0.931 . S
C1928 C1927 1.291 . S
C1928 C1929 1.373 . S
C1928 H1941 0.929 1_655 S
C1929 C1928 1.373 . S
C1929 C1930 1.396 . S
C1929 C1936 1.390 1_655 S
C1930 C1920 1.476 . S
C1930 N1925 1.318 . S
C1930 C1929 1.396 . S
H1931 C1926 0.929 . S
O1932 Mn1908 2.385 . S
O1932 C1910 1.234 . S
O1933 Mn1908 2.209 . S
O1933 Mn1909 2.215 . S
O1933 C1910 1.283 . S
O1934 Mn1908 2.094 . S
O1934 C1912 1.240 . S
O1935 Mn1909 2.117 . S
O1935 C1912 1.264 . S
C1936 C1929 1.390 1_455 S
C1936 C1937 1.391 1_455 S
C1936 H1942 0.951 . S
C1937 C1917 1.449 . S
C1937 C1936 1.391 1_655 S
C1937 H1943 0.904 1_655 S
H1938 C1918 0.931 . S
H1939 C1919 0.930 . S
H1940 C1927 0.931 . S
H1941 C1928 0.929 1_455 S
H1942 C1936 0.951 . S
H1943 C1937 0.904 1_455 S
Mn1944 O1949 2.095 . S
Mn1944 O1959 2.162 1_655 S
Mn1944 O1960 2.297 1_655 S
Mn1944 O1968 2.385 1_655 S
Mn1944 O1969 2.209 1_655 S
Mn1944 O1970 2.094 . S
Mn1945 O1950 2.121 . S
Mn1945 N1952 2.257 1_655 S
Mn1945 N1961 2.282 1_655 S
Mn1945 O1969 2.215 1_655 S
Mn1945 O1971 2.117 . S
C1946 O1968 1.234 . S
C1946 O1969 1.283 . S
C1947 O1959 1.281 . S
C1947 O1960 1.236 . S
C1948 O1970 1.240 . S
C1948 O1971 1.264 . S
O1949 Mn1944 2.095 . S
O1949 C1958 1.250 . S
O1950 Mn1945 2.121 . S
O1950 C1958 1.258 . S
C1951 N1952 1.326 . S
C1951 C1955 1.460 . S
C1951 H1957 0.929 . S
N1952 Mn1945 2.257 1_455 S
N1952 C1951 1.326 . S
N1952 C1956 1.362 . S
C1953 C1954 1.258 . S
C1953 C1956 1.431 . S
C1953 C1973 1.449 . S
C1954 C1953 1.258 . S
C1954 C1955 1.477 . S
C1954 H1974 0.943 . S
C1955 C1951 1.460 . S
C1955 C1954 1.477 . S
C1955 H1975 0.930 1_554 S
C1956 N1952 1.362 . S
C1956 C1953 1.431 . S
C1956 C1966 1.476 . S
H1957 C1951 0.929 . S
C1958 O1949 1.250 . S
C1958 O1950 1.258 . S
O1959 Mn1944 2.162 1_455 S
O1959 C1947 1.281 . S
O1960 Mn1944 2.297 1_455 S
O1960 C1947 1.236 . S
N1961 Mn1945 2.282 1_455 S
N1961 C1962 1.328 . S
N1961 C1966 1.318 . S
C1962 N1961 1.328 . S
C1962 C1963 1.457 . S
C1962 H1967 0.929 1_455 S
C1963 C1962 1.457 . S
C1963 C1964 1.291 . S
C1963 H1976 0.931 . S
C1964 C1963 1.291 . S
C1964 C1965 1.373 . S
C1964 H1977 0.929 . S
C1965 C1964 1.373 . S
C1965 C1966 1.396 . S
C1965 C1972 1.403 . S
C1966 C1956 1.476 . S
C1966 N1961 1.318 . S
C1966 C1965 1.396 . S
H1967 C1962 0.929 1_655 S
O1968 Mn1944 2.385 1_455 S
O1968 C1946 1.234 . S
O1969 Mn1944 2.209 1_455 S
O1969 Mn1945 2.215 1_455 S
O1969 C1946 1.283 . S
O1970 Mn1944 2.094 . S
O1970 C1948 1.240 . S
O1971 Mn1945 2.117 . S
O1971 C1948 1.264 . S
C1972 C1965 1.403 . S
C1972 C1973 1.399 . S
C1972 H1978 0.929 . S
C1973 C1953 1.449 . S
C1973 C1972 1.399 . S
C1973 H1979 0.930 . S
H1974 C1954 0.943 . S
H1975 C1955 0.930 1_556 S
H1976 C1963 0.931 . S
H1977 C1964 0.929 . S
H1978 C1972 0.929 . S
H1979 C1973 0.930 . S
Mn1980 O1985 2.095 . S
Mn1980 O1995 2.162 . S
Mn1980 O1996 2.297 . S
Mn1980 O2004 2.385 . S
Mn1980 O2005 2.209 . S
Mn1980 O2006 2.094 . S
Mn1981 O1986 2.121 . S
Mn1981 N1988 2.257 . S
Mn1981 N1997 2.282 . S
Mn1981 O2005 2.215 . S
Mn1981 O2007 2.117 . S
C1982 O2004 1.234 . S
C1982 O2005 1.283 . S
C1983 O1995 1.281 . S
C1983 O1996 1.236 . S
C1984 O2006 1.240 . S
C1984 O2007 1.264 . S
O1985 Mn1980 2.095 . S
O1985 C1994 1.250 . S
O1986 Mn1981 2.121 . S
O1986 C1994 1.258 . S
C1987 N1988 1.326 . S
C1987 C1991 1.460 . S
C1987 H1993 0.929 . S
N1988 Mn1981 2.257 . S
N1988 C1987 1.326 . S
N1988 C1992 1.362 . S
C1989 C1990 1.258 . S
C1989 C1992 1.431 . S
C1989 C2009 1.449 . S
C1990 C1989 1.258 . S
C1990 C1991 1.477 . S
C1990 H2010 0.931 . S
C1991 C1987 1.460 . S
C1991 C1990 1.477 . S
C1991 H2011 0.930 . S
C1992 N1988 1.362 . S
C1992 C1989 1.431 . S
C1992 C2002 1.476 . S
H1993 C1987 0.929 . S
C1994 O1985 1.250 . S
C1994 O1986 1.258 . S
O1995 Mn1980 2.162 . S
O1995 C1983 1.281 . S
O1996 Mn1980 2.297 . S
O1996 C1983 1.236 . S
N1997 Mn1981 2.282 . S
N1997 C1998 1.328 . S
N1997 C2002 1.318 . S
C1998 N1997 1.328 . S
C1998 C1999 1.457 . S
C1998 H2003 0.929 . S
C1999 C1998 1.457 . S
C1999 C2000 1.291 . S
C1999 H2012 0.931 . S
C2000 C1999 1.291 . S
C2000 C2001 1.373 . S
C2000 H2013 0.929 . S
C2001 C2000 1.373 . S
C2001 C2002 1.396 . S
C2001 C2008 1.403 . S
C2002 C1992 1.476 . S
C2002 N1997 1.318 . S
C2002 C2001 1.396 . S
H2003 C1998 0.929 . S
O2004 Mn1980 2.385 . S
O2004 C1982 1.234 . S
O2005 Mn1980 2.209 . S
O2005 Mn1981 2.215 . S
O2005 C1982 1.283 . S
O2006 Mn1980 2.094 . S
O2006 C1984 1.240 . S
O2007 Mn1981 2.117 . S
O2007 C1984 1.264 . S
C2008 C2001 1.403 . S
C2008 C2009 1.399 . S
C2008 H2014 0.929 . S
C2009 C1989 1.449 . S
C2009 C2008 1.399 . S
C2009 H2015 0.930 . S
H2010 C1990 0.931 . S
H2011 C1991 0.930 . S
H2012 C1999 0.931 . S
H2013 C2000 0.929 . S
H2014 C2008 0.929 . S
H2015 C2009 0.930 . S
Mn2016 O2021 2.095 . S
Mn2016 O2031 2.162 . S
Mn2016 O2032 2.297 . S
Mn2016 O2040 2.385 . S
Mn2016 O2041 2.209 . S
Mn2016 O2042 2.094 . S
Mn2017 O2022 2.121 . S
Mn2017 N2024 2.257 . S
Mn2017 N2033 2.282 . S
Mn2017 O2041 2.215 . S
Mn2017 O2043 2.117 . S
C2018 O2040 1.234 . S
C2018 O2041 1.283 . S
C2019 O2031 1.281 . S
C2019 O2032 1.236 . S
C2020 O2042 1.240 . S
C2020 O2043 1.264 . S
O2021 Mn2016 2.095 . S
O2021 C2030 1.250 . S
O2022 Mn2017 2.121 . S
O2022 C2030 1.258 . S
C2023 N2024 1.326 . S
C2023 C2027 1.460 . S
C2023 H2029 0.929 . S
N2024 Mn2017 2.257 . S
N2024 C2023 1.326 . S
N2024 C2028 1.362 . S
C2025 C2026 1.258 . S
C2025 C2028 1.431 . S
C2025 C2045 1.449 . S
C2026 C2025 1.258 . S
C2026 C2027 1.477 . S
C2026 H2046 0.944 . S
C2027 C2023 1.460 . S
C2027 C2026 1.477 . S
C2027 H2047 0.930 1_655 S
C2028 N2024 1.362 . S
C2028 C2025 1.431 . S
C2028 C2038 1.476 . S
H2029 C2023 0.929 . S
C2030 O2021 1.250 . S
C2030 O2022 1.258 . S
O2031 Mn2016 2.162 . S
O2031 C2019 1.281 . S
O2032 Mn2016 2.297 . S
O2032 C2019 1.236 . S
N2033 Mn2017 2.282 . S
N2033 C2034 1.328 . S
N2033 C2038 1.318 . S
C2034 N2033 1.328 . S
C2034 C2035 1.457 . S
C2034 H2039 0.929 . S
C2035 C2034 1.457 . S
C2035 C2036 1.291 . S
C2035 H2048 0.931 . S
C2036 C2035 1.291 . S
C2036 C2037 1.373 . S
C2036 H2049 0.929 . S
C2037 C2036 1.373 . S
C2037 C2038 1.396 . S
C2037 C2044 1.403 . S
C2038 C2028 1.476 . S
C2038 N2033 1.318 . S
C2038 C2037 1.396 . S
H2039 C2034 0.929 . S
O2040 Mn2016 2.385 . S
O2040 C2018 1.234 . S
O2041 Mn2016 2.209 . S
O2041 Mn2017 2.215 . S
O2041 C2018 1.283 . S
O2042 Mn2016 2.094 . S
O2042 C2020 1.240 . S
O2043 Mn2017 2.117 . S
O2043 C2020 1.264 . S
C2044 C2037 1.403 . S
C2044 C2045 1.399 . S
C2044 H2050 0.929 . S
C2045 C2025 1.449 . S
C2045 C2044 1.399 . S
C2045 H2051 0.930 . S
H2046 C2026 0.944 . S
H2047 C2027 0.930 1_455 S
H2048 C2035 0.931 . S
H2049 C2036 0.929 . S
H2050 C2044 0.929 . S
H2051 C2045 0.930 . S
Mn2052 O2057 2.095 . S
Mn2052 O2067 2.162 . S
Mn2052 O2068 2.297 . S
Mn2052 O2076 2.385 . S
Mn2052 O2077 2.209 . S
Mn2052 O2078 2.094 . S
Mn2053 O2058 2.121 . S
Mn2053 N2060 2.257 . S
Mn2053 N2069 2.282 . S
Mn2053 O2077 2.215 . S
Mn2053 O2079 2.117 . S
C2054 O2076 1.234 . S
C2054 O2077 1.283 . S
C2055 O2067 1.281 . S
C2055 O2068 1.236 . S
C2056 O2078 1.240 . S
C2056 O2079 1.264 . S
O2057 Mn2052 2.095 . S
O2057 C2066 1.250 . S
O2058 Mn2053 2.121 . S
O2058 C2066 1.258 . S
C2059 N2060 1.326 . S
C2059 C2063 1.460 . S
C2059 H2065 0.929 . S
N2060 Mn2053 2.257 . S
N2060 C2059 1.326 . S
N2060 C2064 1.362 . S
C2061 C2062 1.258 . S
C2061 C2064 1.431 . S
C2061 C2081 1.449 . S
C2062 C2061 1.258 . S
C2062 C2063 1.477 . S
C2062 H2082 0.931 . S
C2063 C2059 1.460 . S
C2063 C2062 1.477 . S
C2063 H2083 0.930 . S
C2064 N2060 1.362 . S
C2064 C2061 1.431 . S
C2064 C2074 1.476 . S
H2065 C2059 0.929 . S
C2066 O2057 1.250 . S
C2066 O2058 1.258 . S
O2067 Mn2052 2.162 . S
O2067 C2055 1.281 . S
O2068 Mn2052 2.297 . S
O2068 C2055 1.236 . S
N2069 Mn2053 2.282 . S
N2069 C2070 1.328 . S
N2069 C2074 1.318 . S
C2070 N2069 1.328 . S
C2070 C2071 1.457 . S
C2070 H2075 0.929 . S
C2071 C2070 1.457 . S
C2071 C2072 1.291 . S
C2071 H2084 0.931 . S
C2072 C2071 1.291 . S
C2072 C2073 1.373 . S
C2072 H2085 0.929 1_556 S
C2073 C2072 1.373 . S
C2073 C2074 1.396 . S
C2073 C2080 1.391 1_556 S
C2074 C2064 1.476 . S
C2074 N2069 1.318 . S
C2074 C2073 1.396 . S
H2075 C2070 0.929 . S
O2076 Mn2052 2.385 . S
O2076 C2054 1.234 . S
O2077 Mn2052 2.209 . S
O2077 Mn2053 2.215 . S
O2077 C2054 1.283 . S
O2078 Mn2052 2.094 . S
O2078 C2056 1.240 . S
O2079 Mn2053 2.117 . S
O2079 C2056 1.264 . S
C2080 C2073 1.391 1_554 S
C2080 C2081 1.391 1_554 S
C2080 H2086 0.951 . S
C2081 C2061 1.449 . S
C2081 C2080 1.391 1_556 S
C2081 H2087 0.904 1_556 S
H2082 C2062 0.931 . S
H2083 C2063 0.930 . S
H2084 C2071 0.931 . S
H2085 C2072 0.929 1_554 S
H2086 C2080 0.951 . S
H2087 C2081 0.904 1_554 S
Mn2088 O2093 2.095 . S
Mn2088 O2103 2.162 . S
Mn2088 O2104 2.297 . S
Mn2088 O2112 2.385 . S
Mn2088 O2113 2.209 . S
Mn2088 O2114 2.094 . S
Mn2089 O2094 2.121 . S
Mn2089 N2096 2.257 . S
Mn2089 N2105 2.282 . S
Mn2089 O2113 2.215 . S
Mn2089 O2115 2.117 . S
C2090 O2112 1.234 . S
C2090 O2113 1.283 . S
C2091 O2103 1.281 . S
C2091 O2104 1.236 . S
C2092 O2114 1.240 . S
C2092 O2115 1.264 . S
O2093 Mn2088 2.095 . S
O2093 C2102 1.250 . S
O2094 Mn2089 2.121 . S
O2094 C2102 1.258 . S
C2095 N2096 1.326 . S
C2095 C2099 1.460 . S
C2095 H2101 0.929 . S
N2096 Mn2089 2.257 . S
N2096 C2095 1.326 . S
N2096 C2100 1.362 . S
C2097 C2098 1.258 . S
C2097 C2100 1.431 . S
C2097 C2117 1.449 . S
C2098 C2097 1.258 . S
C2098 C2099 1.477 . S
C2098 H2118 0.931 . S
C2099 C2095 1.460 . S
C2099 C2098 1.477 . S
C2099 H2119 0.930 . S
C2100 N2096 1.362 . S
C2100 C2097 1.431 . S
C2100 C2110 1.476 . S
H2101 C2095 0.929 . S
C2102 O2093 1.250 . S
C2102 O2094 1.258 . S
O2103 Mn2088 2.162 . S
O2103 C2091 1.281 . S
O2104 Mn2088 2.297 . S
O2104 C2091 1.236 . S
N2105 Mn2089 2.282 . S
N2105 C2106 1.328 . S
N2105 C2110 1.318 . S
C2106 N2105 1.328 . S
C2106 C2107 1.457 . S
C2106 H2111 0.929 . S
C2107 C2106 1.457 . S
C2107 C2108 1.291 . S
C2107 H2120 0.931 . S
C2108 C2107 1.291 . S
C2108 C2109 1.373 . S
C2108 H2121 0.929 . S
C2109 C2108 1.373 . S
C2109 C2110 1.396 . S
C2109 C2116 1.403 . S
C2110 C2100 1.476 . S
C2110 N2105 1.318 . S
C2110 C2109 1.396 . S
H2111 C2106 0.929 . S
O2112 Mn2088 2.385 . S
O2112 C2090 1.234 . S
O2113 Mn2088 2.209 . S
O2113 Mn2089 2.215 . S
O2113 C2090 1.283 . S
O2114 Mn2088 2.094 . S
O2114 C2092 1.240 . S
O2115 Mn2089 2.117 . S
O2115 C2092 1.264 . S
C2116 C2109 1.403 . S
C2116 C2117 1.399 . S
C2116 H2122 0.929 . S
C2117 C2097 1.449 . S
C2117 C2116 1.399 . S
C2117 H2123 0.930 . S
H2118 C2098 0.931 . S
H2119 C2099 0.930 . S
H2120 C2107 0.931 . S
H2121 C2108 0.929 . S
H2122 C2116 0.929 . S
H2123 C2117 0.930 . S
Mn2124 O2129 2.095 . S
Mn2124 O2139 2.162 . S
Mn2124 O2140 2.297 . S
Mn2124 O2148 2.385 . S
Mn2124 O2149 2.209 . S
Mn2124 O2150 2.094 . S
Mn2125 O2130 2.121 . S
Mn2125 N2132 2.257 . S
Mn2125 N2141 2.282 . S
Mn2125 O2149 2.215 . S
Mn2125 O2151 2.117 . S
C2126 O2148 1.234 . S
C2126 O2149 1.283 . S
C2127 O2139 1.281 . S
C2127 O2140 1.236 . S
C2128 O2150 1.240 . S
C2128 O2151 1.264 . S
O2129 Mn2124 2.095 . S
O2129 C2138 1.250 . S
O2130 Mn2125 2.121 . S
O2130 C2138 1.258 . S
C2131 N2132 1.326 . S
C2131 C2135 1.460 . S
C2131 H2137 0.929 . S
N2132 Mn2125 2.257 . S
N2132 C2131 1.326 . S
N2132 C2136 1.362 . S
C2133 C2134 1.258 . S
C2133 C2136 1.431 . S
C2133 C2153 1.449 . S
C2134 C2133 1.258 . S
C2134 C2135 1.477 . S
C2134 H2154 0.931 . S
C2135 C2131 1.460 . S
C2135 C2134 1.477 . S
C2135 H2155 0.930 . S
C2136 N2132 1.362 . S
C2136 C2133 1.431 . S
C2136 C2146 1.476 . S
H2137 C2131 0.929 . S
C2138 O2129 1.250 . S
C2138 O2130 1.258 . S
O2139 Mn2124 2.162 . S
O2139 C2127 1.281 . S
O2140 Mn2124 2.297 . S
O2140 C2127 1.236 . S
N2141 Mn2125 2.282 . S
N2141 C2142 1.328 . S
N2141 C2146 1.318 . S
C2142 N2141 1.328 . S
C2142 C2143 1.457 . S
C2142 H2147 0.929 . S
C2143 C2142 1.457 . S
C2143 C2144 1.291 . S
C2143 H2156 0.931 . S
C2144 C2143 1.291 . S
C2144 C2145 1.373 . S
C2144 H2157 0.929 . S
C2145 C2144 1.373 . S
C2145 C2146 1.396 . S
C2145 C2152 1.403 . S
C2146 C2136 1.476 . S
C2146 N2141 1.318 . S
C2146 C2145 1.396 . S
H2147 C2142 0.929 . S
O2148 Mn2124 2.385 . S
O2148 C2126 1.234 . S
O2149 Mn2124 2.209 . S
O2149 Mn2125 2.215 . S
O2149 C2126 1.283 . S
O2150 Mn2124 2.094 . S
O2150 C2128 1.240 . S
O2151 Mn2125 2.117 . S
O2151 C2128 1.264 . S
C2152 C2145 1.403 . S
C2152 C2153 1.399 . S
C2152 H2158 0.929 . S
C2153 C2133 1.449 . S
C2153 C2152 1.399 . S
C2153 H2159 0.930 . S
H2154 C2134 0.931 . S
H2155 C2135 0.930 . S
H2156 C2143 0.931 . S
H2157 C2144 0.929 . S
H2158 C2152 0.929 . S
H2159 C2153 0.930 . S
Mn2160 O2165 2.095 . S
Mn2160 O2175 2.162 . S
Mn2160 O2176 2.297 . S
Mn2160 O2184 2.385 . S
Mn2160 O2185 2.209 . S
Mn2160 O2186 2.094 . S
Mn2161 O2166 2.121 . S
Mn2161 N2168 2.257 . S
Mn2161 N2177 2.282 . S
Mn2161 O2185 2.215 . S
Mn2161 O2187 2.117 . S
C2162 O2184 1.234 . S
C2162 O2185 1.283 . S
C2163 O2175 1.281 . S
C2163 O2176 1.236 . S
C2164 O2186 1.240 . S
C2164 O2187 1.264 . S
O2165 Mn2160 2.095 . S
O2165 C2174 1.250 . S
O2166 Mn2161 2.121 . S
O2166 C2174 1.258 . S
C2167 N2168 1.326 . S
C2167 C2171 1.460 . S
C2167 H2173 0.929 . S
N2168 Mn2161 2.257 . S
N2168 C2167 1.326 . S
N2168 C2172 1.362 . S
C2169 C2170 1.258 . S
C2169 C2172 1.431 . S
C2169 C2189 1.449 . S
C2170 C2169 1.258 . S
C2170 C2171 1.477 . S
C2170 H2190 0.944 . S
C2171 C2167 1.460 . S
C2171 C2170 1.477 . S
C2171 H2191 0.930 1_655 S
C2172 N2168 1.362 . S
C2172 C2169 1.431 . S
C2172 C2182 1.476 . S
H2173 C2167 0.929 . S
C2174 O2165 1.250 . S
C2174 O2166 1.258 . S
O2175 Mn2160 2.162 . S
O2175 C2163 1.281 . S
O2176 Mn2160 2.297 . S
O2176 C2163 1.236 . S
N2177 Mn2161 2.282 . S
N2177 C2178 1.328 . S
N2177 C2182 1.318 . S
C2178 N2177 1.328 . S
C2178 C2179 1.457 . S
C2178 H2183 0.929 . S
C2179 C2178 1.457 . S
C2179 C2180 1.291 . S
C2179 H2192 0.931 . S
C2180 C2179 1.291 . S
C2180 C2181 1.373 . S
C2180 H2193 0.929 . S
C2181 C2180 1.373 . S
C2181 C2182 1.396 . S
C2181 C2188 1.403 . S
C2182 C2172 1.476 . S
C2182 N2177 1.318 . S
C2182 C2181 1.396 . S
H2183 C2178 0.929 . S
O2184 Mn2160 2.385 . S
O2184 C2162 1.234 . S
O2185 Mn2160 2.209 . S
O2185 Mn2161 2.215 . S
O2185 C2162 1.283 . S
O2186 Mn2160 2.094 . S
O2186 C2164 1.240 . S
O2187 Mn2161 2.117 . S
O2187 C2164 1.264 . S
C2188 C2181 1.403 . S
C2188 C2189 1.399 . S
C2188 H2194 0.929 . S
C2189 C2169 1.449 . S
C2189 C2188 1.399 . S
C2189 H2195 0.930 . S
H2190 C2170 0.944 . S
H2191 C2171 0.930 1_455 S
H2192 C2179 0.931 . S
H2193 C2180 0.929 . S
H2194 C2188 0.929 . S
H2195 C2189 0.930 . S
Mn2196 O2201 2.095 . S
Mn2196 O2211 2.162 . S
Mn2196 O2212 2.297 . S
Mn2196 O2220 2.385 . S
Mn2196 O2221 2.209 . S
Mn2196 O2222 2.094 . S
Mn2197 O2202 2.121 . S
Mn2197 N2204 2.257 . S
Mn2197 N2213 2.282 . S
Mn2197 O2221 2.215 . S
Mn2197 O2223 2.117 . S
C2198 O2220 1.234 . S
C2198 O2221 1.283 . S
C2199 O2211 1.281 . S
C2199 O2212 1.236 . S
C2200 O2222 1.240 . S
C2200 O2223 1.264 . S
O2201 Mn2196 2.095 . S
O2201 C2210 1.250 . S
O2202 Mn2197 2.121 . S
O2202 C2210 1.258 . S
C2203 N2204 1.326 . S
C2203 C2207 1.460 . S
C2203 H2209 0.929 . S
N2204 Mn2197 2.257 . S
N2204 C2203 1.326 . S
N2204 C2208 1.362 . S
C2205 C2206 1.258 . S
C2205 C2208 1.431 . S
C2205 C2225 1.449 . S
C2206 C2205 1.258 . S
C2206 C2207 1.477 . S
C2206 H2226 0.931 . S
C2207 C2203 1.460 . S
C2207 C2206 1.477 . S
C2207 H2227 0.930 . S
C2208 N2204 1.362 . S
C2208 C2205 1.431 . S
C2208 C2218 1.476 . S
H2209 C2203 0.929 . S
C2210 O2201 1.250 . S
C2210 O2202 1.258 . S
O2211 Mn2196 2.162 . S
O2211 C2199 1.281 . S
O2212 Mn2196 2.297 . S
O2212 C2199 1.236 . S
N2213 Mn2197 2.282 . S
N2213 C2214 1.328 . S
N2213 C2218 1.318 . S
C2214 N2213 1.328 . S
C2214 C2215 1.457 . S
C2214 H2219 0.929 . S
C2215 C2214 1.457 . S
C2215 C2216 1.291 . S
C2215 H2228 0.931 . S
C2216 C2215 1.291 . S
C2216 C2217 1.373 . S
C2216 H2229 0.929 1_554 S
C2217 C2216 1.373 . S
C2217 C2218 1.396 . S
C2217 C2224 1.390 1_554 S
C2218 C2208 1.476 . S
C2218 N2213 1.318 . S
C2218 C2217 1.396 . S
H2219 C2214 0.929 . S
O2220 Mn2196 2.385 . S
O2220 C2198 1.234 . S
O2221 Mn2196 2.209 . S
O2221 Mn2197 2.215 . S
O2221 C2198 1.283 . S
O2222 Mn2196 2.094 . S
O2222 C2200 1.240 . S
O2223 Mn2197 2.117 . S
O2223 C2200 1.264 . S
C2224 C2217 1.390 1_556 S
C2224 C2225 1.391 1_556 S
C2224 H2230 0.951 . S
C2225 C2205 1.449 . S
C2225 C2224 1.391 1_554 S
C2225 H2231 0.904 1_554 S
H2226 C2206 0.931 . S
H2227 C2207 0.930 . S
H2228 C2215 0.931 . S
H2229 C2216 0.929 1_556 S
H2230 C2224 0.951 . S
H2231 C2225 0.904 1_556 S
Mn2232 O2237 2.095 . S
Mn2232 O2247 2.162 . S
Mn2232 O2248 2.297 . S
Mn2232 O2256 2.385 . S
Mn2232 O2257 2.209 . S
Mn2232 O2258 2.094 . S
Mn2233 O2238 2.121 . S
Mn2233 N2240 2.257 . S
Mn2233 N2249 2.282 . S
Mn2233 O2257 2.215 . S
Mn2233 O2259 2.117 . S
C2234 O2256 1.234 . S
C2234 O2257 1.283 . S
C2235 O2247 1.281 . S
C2235 O2248 1.236 . S
C2236 O2258 1.240 . S
C2236 O2259 1.264 . S
O2237 Mn2232 2.095 . S
O2237 C2246 1.250 . S
O2238 Mn2233 2.121 . S
O2238 C2246 1.258 . S
C2239 N2240 1.326 . S
C2239 C2243 1.460 . S
C2239 H2245 0.929 . S
N2240 Mn2233 2.257 . S
N2240 C2239 1.326 . S
N2240 C2244 1.362 . S
C2241 C2242 1.258 . S
C2241 C2244 1.431 . S
C2241 C2261 1.449 . S
C2242 C2241 1.258 . S
C2242 C2243 1.477 . S
C2242 H2262 0.931 . S
C2243 C2239 1.460 . S
C2243 C2242 1.477 . S
C2243 H2263 0.930 . S
C2244 N2240 1.362 . S
C2244 C2241 1.431 . S
C2244 C2254 1.476 . S
H2245 C2239 0.929 . S
C2246 O2237 1.250 . S
C2246 O2238 1.258 . S
O2247 Mn2232 2.162 . S
O2247 C2235 1.281 . S
O2248 Mn2232 2.297 . S
O2248 C2235 1.236 . S
N2249 Mn2233 2.282 . S
N2249 C2250 1.328 . S
N2249 C2254 1.318 . S
C2250 N2249 1.328 . S
C2250 C2251 1.457 . S
C2250 H2255 0.929 . S
C2251 C2250 1.457 . S
C2251 C2252 1.291 . S
C2251 H2264 0.931 . S
C2252 C2251 1.291 . S
C2252 C2253 1.373 . S
C2252 H2265 0.929 . S
C2253 C2252 1.373 . S
C2253 C2254 1.396 . S
C2253 C2260 1.403 . S
C2254 C2244 1.476 . S
C2254 N2249 1.318 . S
C2254 C2253 1.396 . S
H2255 C2250 0.929 . S
O2256 Mn2232 2.385 . S
O2256 C2234 1.234 . S
O2257 Mn2232 2.209 . S
O2257 Mn2233 2.215 . S
O2257 C2234 1.283 . S
O2258 Mn2232 2.094 . S
O2258 C2236 1.240 . S
O2259 Mn2233 2.117 . S
O2259 C2236 1.264 . S
C2260 C2253 1.403 . S
C2260 C2261 1.399 . S
C2260 H2266 0.929 . S
C2261 C2241 1.449 . S
C2261 C2260 1.399 . S
C2261 H2267 0.930 . S
H2262 C2242 0.931 . S
H2263 C2243 0.930 . S
H2264 C2251 0.931 . S
H2265 C2252 0.929 . S
H2266 C2260 0.929 . S
H2267 C2261 0.930 . S
Mn2268 O2273 2.095 . S
Mn2268 O2283 2.162 . S
Mn2268 O2284 2.297 . S
Mn2268 O2292 2.385 . S
Mn2268 O2293 2.209 . S
Mn2268 O2294 2.094 . S
Mn2269 O2274 2.121 . S
Mn2269 N2276 2.257 . S
Mn2269 N2285 2.282 . S
Mn2269 O2293 2.215 . S
Mn2269 O2295 2.117 . S
C2270 O2292 1.234 . S
C2270 O2293 1.283 . S
C2271 O2283 1.281 . S
C2271 O2284 1.236 . S
C2272 O2294 1.240 . S
C2272 O2295 1.264 . S
O2273 Mn2268 2.095 . S
O2273 C2282 1.250 . S
O2274 Mn2269 2.121 . S
O2274 C2282 1.258 . S
C2275 N2276 1.326 . S
C2275 C2279 1.460 . S
C2275 H2281 0.929 . S
N2276 Mn2269 2.257 . S
N2276 C2275 1.326 . S
N2276 C2280 1.362 . S
C2277 C2278 1.258 . S
C2277 C2280 1.431 . S
C2277 C2297 1.449 . S
C2278 C2277 1.258 . S
C2278 C2279 1.477 . S
C2278 H2298 0.931 . S
C2279 C2275 1.460 . S
C2279 C2278 1.477 . S
C2279 H2299 0.930 . S
C2280 N2276 1.362 . S
C2280 C2277 1.431 . S
C2280 C2290 1.476 . S
H2281 C2275 0.929 . S
C2282 O2273 1.250 . S
C2282 O2274 1.258 . S
O2283 Mn2268 2.162 . S
O2283 C2271 1.281 . S
O2284 Mn2268 2.297 . S
O2284 C2271 1.236 . S
N2285 Mn2269 2.282 . S
N2285 C2286 1.328 . S
N2285 C2290 1.318 . S
C2286 N2285 1.328 . S
C2286 C2287 1.457 . S
C2286 H2291 0.929 . S
C2287 C2286 1.457 . S
C2287 C2288 1.291 . S
C2287 H2300 0.931 . S
C2288 C2287 1.291 . S
C2288 C2289 1.373 . S
C2288 H2301 0.929 . S
C2289 C2288 1.373 . S
C2289 C2290 1.396 . S
C2289 C2296 1.403 . S
C2290 C2280 1.476 . S
C2290 N2285 1.318 . S
C2290 C2289 1.396 . S
H2291 C2286 0.929 . S
O2292 Mn2268 2.385 . S
O2292 C2270 1.234 . S
O2293 Mn2268 2.209 . S
O2293 Mn2269 2.215 . S
O2293 C2270 1.283 . S
O2294 Mn2268 2.094 . S
O2294 C2272 1.240 . S
O2295 Mn2269 2.117 . S
O2295 C2272 1.264 . S
C2296 C2289 1.403 . S
C2296 C2297 1.399 . S
C2296 H2302 0.929 . S
C2297 C2277 1.449 . S
C2297 C2296 1.399 . S
C2297 H2303 0.930 . S
H2298 C2278 0.931 . S
H2299 C2279 0.930 . S
H2300 C2287 0.931 . S
H2301 C2288 0.929 . S
H2302 C2296 0.929 . S
H2303 C2297 0.930 . S
Mn2304 O2309 2.095 . S
Mn2304 O2319 2.162 . S
Mn2304 O2320 2.297 . S
Mn2304 O2328 2.385 . S
Mn2304 O2329 2.209 . S
Mn2304 O2330 2.094 . S
Mn2305 O2310 2.121 . S
Mn2305 N2312 2.257 . S
Mn2305 N2321 2.282 . S
Mn2305 O2329 2.215 . S
Mn2305 O2331 2.117 . S
C2306 O2328 1.234 . S
C2306 O2329 1.283 . S
C2307 O2319 1.281 . S
C2307 O2320 1.236 . S
C2308 O2330 1.240 . S
C2308 O2331 1.264 . S
O2309 Mn2304 2.095 . S
O2309 C2318 1.250 . S
O2310 Mn2305 2.121 . S
O2310 C2318 1.258 . S
C2311 N2312 1.326 . S
C2311 C2315 1.460 . S
C2311 H2317 0.929 . S
N2312 Mn2305 2.257 . S
N2312 C2311 1.326 . S
N2312 C2316 1.362 . S
C2313 C2314 1.258 . S
C2313 C2316 1.431 . S
C2313 C2333 1.449 . S
C2314 C2313 1.258 . S
C2314 C2315 1.477 . S
C2314 H2334 0.944 . S
C2315 C2311 1.460 . S
C2315 C2314 1.477 . S
C2315 H2335 0.930 1_565 S
C2316 N2312 1.362 . S
C2316 C2313 1.431 . S
C2316 C2326 1.476 . S
H2317 C2311 0.929 . S
C2318 O2309 1.250 . S
C2318 O2310 1.258 . S
O2319 Mn2304 2.162 . S
O2319 C2307 1.281 . S
O2320 Mn2304 2.297 . S
O2320 C2307 1.236 . S
N2321 Mn2305 2.282 . S
N2321 C2322 1.328 . S
N2321 C2326 1.318 . S
C2322 N2321 1.328 . S
C2322 C2323 1.457 . S
C2322 H2327 0.929 . S
C2323 C2322 1.457 . S
C2323 C2324 1.291 . S
C2323 H2336 0.931 . S
C2324 C2323 1.291 . S
C2324 C2325 1.373 . S
C2324 H2337 0.929 . S
C2325 C2324 1.373 . S
C2325 C2326 1.396 . S
C2325 C2332 1.403 . S
C2326 C2316 1.476 . S
C2326 N2321 1.318 . S
C2326 C2325 1.396 . S
H2327 C2322 0.929 . S
O2328 Mn2304 2.385 . S
O2328 C2306 1.234 . S
O2329 Mn2304 2.209 . S
O2329 Mn2305 2.215 . S
O2329 C2306 1.283 . S
O2330 Mn2304 2.094 . S
O2330 C2308 1.240 . S
O2331 Mn2305 2.117 . S
O2331 C2308 1.264 . S
C2332 C2325 1.403 . S
C2332 C2333 1.399 . S
C2332 H2338 0.929 . S
C2333 C2313 1.449 . S
C2333 C2332 1.399 . S
C2333 H2339 0.930 . S
H2334 C2314 0.944 . S
H2335 C2315 0.930 1_545 S
H2336 C2323 0.931 . S
H2337 C2324 0.929 . S
H2338 C2332 0.929 . S
H2339 C2333 0.930 . S
Mn2340 O2345 2.095 . S
Mn2340 O2355 2.162 . S
Mn2340 O2356 2.297 . S
Mn2340 O2364 2.385 . S
Mn2340 O2365 2.209 . S
Mn2340 O2366 2.094 . S
Mn2341 O2346 2.121 . S
Mn2341 N2348 2.257 . S
Mn2341 N2357 2.282 . S
Mn2341 O2365 2.215 . S
Mn2341 O2367 2.117 . S
C2342 O2364 1.234 . S
C2342 O2365 1.283 . S
C2343 O2355 1.281 . S
C2343 O2356 1.236 . S
C2344 O2366 1.240 . S
C2344 O2367 1.264 . S
O2345 Mn2340 2.095 . S
O2345 C2354 1.250 . S
O2346 Mn2341 2.121 . S
O2346 C2354 1.258 . S
C2347 N2348 1.326 . S
C2347 C2351 1.460 . S
C2347 H2353 0.929 . S
N2348 Mn2341 2.257 . S
N2348 C2347 1.326 . S
N2348 C2352 1.362 . S
C2349 C2350 1.258 . S
C2349 C2352 1.431 . S
C2349 C2369 1.449 . S
C2350 C2349 1.258 . S
C2350 C2351 1.477 . S
C2350 H2370 0.931 . S
C2351 C2347 1.460 . S
C2351 C2350 1.477 . S
C2351 H2371 0.930 . S
C2352 N2348 1.362 . S
C2352 C2349 1.431 . S
C2352 C2362 1.476 . S
H2353 C2347 0.929 . S
C2354 O2345 1.250 . S
C2354 O2346 1.258 . S
O2355 Mn2340 2.162 . S
O2355 C2343 1.281 . S
O2356 Mn2340 2.297 . S
O2356 C2343 1.236 . S
N2357 Mn2341 2.282 . S
N2357 C2358 1.328 . S
N2357 C2362 1.318 . S
C2358 N2357 1.328 . S
C2358 C2359 1.457 . S
C2358 H2363 0.929 . S
C2359 C2358 1.457 . S
C2359 C2360 1.291 . S
C2359 H2372 0.931 . S
C2360 C2359 1.291 . S
C2360 C2361 1.373 . S
C2360 H2373 0.929 . S
C2361 C2360 1.373 . S
C2361 C2362 1.396 . S
C2361 C2368 1.403 . S
C2362 C2352 1.476 . S
C2362 N2357 1.318 . S
C2362 C2361 1.396 . S
H2363 C2358 0.929 . S
O2364 Mn2340 2.385 . S
O2364 C2342 1.234 . S
O2365 Mn2340 2.209 . S
O2365 Mn2341 2.215 . S
O2365 C2342 1.283 . S
O2366 Mn2340 2.094 . S
O2366 C2344 1.240 . S
O2367 Mn2341 2.117 . S
O2367 C2344 1.264 . S
C2368 C2361 1.403 . S
C2368 C2369 1.399 . S
C2368 H2374 0.929 . S
C2369 C2349 1.449 . S
C2369 C2368 1.399 . S
C2369 H2375 0.930 . S
H2370 C2350 0.931 . S
H2371 C2351 0.930 . S
H2372 C2359 0.931 . S
H2373 C2360 0.929 . S
H2374 C2368 0.929 . S
H2375 C2369 0.930 . S
Mn2376 O2381 2.095 . S
Mn2376 O2391 2.162 . S
Mn2376 O2392 2.297 . S
Mn2376 O2400 2.385 . S
Mn2376 O2401 2.209 . S
Mn2376 O2402 2.094 . S
Mn2377 O2382 2.121 . S
Mn2377 N2384 2.257 . S
Mn2377 N2393 2.282 . S
Mn2377 O2401 2.215 . S
Mn2377 O2403 2.117 . S
C2378 O2400 1.234 . S
C2378 O2401 1.283 . S
C2379 O2391 1.281 . S
C2379 O2392 1.236 . S
C2380 O2402 1.240 . S
C2380 O2403 1.264 . S
O2381 Mn2376 2.095 . S
O2381 C2390 1.250 . S
O2382 Mn2377 2.121 . S
O2382 C2390 1.258 . S
C2383 N2384 1.326 . S
C2383 C2387 1.460 . S
C2383 H2389 0.929 . S
N2384 Mn2377 2.257 . S
N2384 C2383 1.326 . S
N2384 C2388 1.362 . S
C2385 C2386 1.258 . S
C2385 C2388 1.431 . S
C2385 C2405 1.449 . S
C2386 C2385 1.258 . S
C2386 C2387 1.477 . S
C2386 H2406 0.931 . S
C2387 C2383 1.460 . S
C2387 C2386 1.477 . S
C2387 H2407 0.930 . S
C2388 N2384 1.362 . S
C2388 C2385 1.431 . S
C2388 C2398 1.476 . S
H2389 C2383 0.929 . S
C2390 O2381 1.250 . S
C2390 O2382 1.258 . S
O2391 Mn2376 2.162 . S
O2391 C2379 1.281 . S
O2392 Mn2376 2.297 . S
O2392 C2379 1.236 . S
N2393 Mn2377 2.282 . S
N2393 C2394 1.328 . S
N2393 C2398 1.318 . S
C2394 N2393 1.328 . S
C2394 C2395 1.457 . S
C2394 H2399 0.929 . S
C2395 C2394 1.457 . S
C2395 C2396 1.291 . S
C2395 H2408 0.931 . S
C2396 C2395 1.291 . S
C2396 C2397 1.373 . S
C2396 H2409 0.929 1_565 S
C2397 C2396 1.373 . S
C2397 C2398 1.396 . S
C2397 C2404 1.391 1_565 S
C2398 C2388 1.476 . S
C2398 N2393 1.318 . S
C2398 C2397 1.396 . S
H2399 C2394 0.929 . S
O2400 Mn2376 2.385 . S
O2400 C2378 1.234 . S
O2401 Mn2376 2.209 . S
O2401 Mn2377 2.215 . S
O2401 C2378 1.283 . S
O2402 Mn2376 2.094 . S
O2402 C2380 1.240 . S
O2403 Mn2377 2.117 . S
O2403 C2380 1.264 . S
C2404 C2397 1.391 1_545 S
C2404 C2405 1.391 1_545 S
C2404 H2410 0.951 . S
C2405 C2385 1.449 . S
C2405 C2404 1.391 1_565 S
C2405 H2411 0.904 1_565 S
H2406 C2386 0.931 . S
H2407 C2387 0.930 . S
H2408 C2395 0.931 . S
H2409 C2396 0.929 1_545 S
H2410 C2404 0.951 . S
H2411 C2405 0.904 1_545 S
Mn2412 O2417 2.095 . S
Mn2412 O2427 2.162 1_556 S
Mn2412 O2428 2.297 1_556 S
Mn2412 O2436 2.385 1_556 S
Mn2412 O2437 2.209 1_556 S
Mn2412 O2438 2.094 . S
Mn2413 O2418 2.121 . S
Mn2413 N2420 2.257 1_556 S
Mn2413 N2429 2.282 1_556 S
Mn2413 O2437 2.215 1_556 S
Mn2413 O2439 2.117 . S
C2414 O2436 1.234 . S
C2414 O2437 1.283 . S
C2415 O2427 1.281 . S
C2415 O2428 1.236 . S
C2416 O2438 1.240 . S
C2416 O2439 1.264 . S
O2417 Mn2412 2.095 . S
O2417 C2426 1.250 . S
O2418 Mn2413 2.121 . S
O2418 C2426 1.258 . S
C2419 N2420 1.326 . S
C2419 C2423 1.460 . S
C2419 H2425 0.929 . S
N2420 Mn2413 2.257 1_554 S
N2420 C2419 1.326 . S
N2420 C2424 1.362 . S
C2421 C2422 1.258 . S
C2421 C2424 1.431 . S
C2421 C2441 1.449 . S
C2422 C2421 1.258 . S
C2422 C2423 1.477 . S
C2422 H2442 0.931 . S
C2423 C2419 1.460 . S
C2423 C2422 1.477 . S
C2423 H2443 0.930 . S
C2424 N2420 1.362 . S
C2424 C2421 1.431 . S
C2424 C2434 1.476 . S
H2425 C2419 0.929 . S
C2426 O2417 1.250 . S
C2426 O2418 1.258 . S
O2427 Mn2412 2.162 1_554 S
O2427 C2415 1.281 . S
O2428 Mn2412 2.297 1_554 S
O2428 C2415 1.236 . S
N2429 Mn2413 2.282 1_554 S
N2429 C2430 1.328 . S
N2429 C2434 1.318 . S
C2430 N2429 1.328 . S
C2430 C2431 1.457 . S
C2430 H2435 0.929 1_554 S
C2431 C2430 1.457 . S
C2431 C2432 1.291 . S
C2431 H2444 0.931 . S
C2432 C2431 1.291 . S
C2432 C2433 1.373 . S
C2432 H2445 0.929 . S
C2433 C2432 1.373 . S
C2433 C2434 1.396 . S
C2433 C2440 1.403 . S
C2434 C2424 1.476 . S
C2434 N2429 1.318 . S
C2434 C2433 1.396 . S
H2435 C2430 0.929 1_556 S
O2436 Mn2412 2.385 1_554 S
O2436 C2414 1.234 . S
O2437 Mn2412 2.209 1_554 S
O2437 Mn2413 2.215 1_554 S
O2437 C2414 1.283 . S
O2438 Mn2412 2.094 . S
O2438 C2416 1.240 . S
O2439 Mn2413 2.117 . S
O2439 C2416 1.264 . S
C2440 C2433 1.403 . S
C2440 C2441 1.399 . S
C2440 H2446 0.929 . S
C2441 C2421 1.449 . S
C2441 C2440 1.399 . S
C2441 H2447 0.930 . S
H2442 C2422 0.931 . S
H2443 C2423 0.930 . S
H2444 C2431 0.931 . S
H2445 C2432 0.929 . S
H2446 C2440 0.929 . S
H2447 C2441 0.930 . S
Mn2448 O2453 2.095 . S
Mn2448 O2463 2.162 . S
Mn2448 O2464 2.297 . S
Mn2448 O2472 2.385 . S
Mn2448 O2473 2.209 . S
Mn2448 O2474 2.094 . S
Mn2449 O2454 2.121 . S
Mn2449 N2456 2.257 . S
Mn2449 N2465 2.282 . S
Mn2449 O2473 2.215 . S
Mn2449 O2475 2.117 . S
C2450 O2472 1.234 . S
C2450 O2473 1.283 . S
C2451 O2463 1.281 . S
C2451 O2464 1.236 . S
C2452 O2474 1.240 . S
C2452 O2475 1.264 . S
O2453 Mn2448 2.095 . S
O2453 C2462 1.250 . S
O2454 Mn2449 2.121 . S
O2454 C2462 1.258 . S
C2455 N2456 1.326 . S
C2455 C2459 1.460 . S
C2455 H2461 0.929 . S
N2456 Mn2449 2.257 . S
N2456 C2455 1.326 . S
N2456 C2460 1.362 . S
C2457 C2458 1.258 . S
C2457 C2460 1.431 . S
C2457 C2477 1.449 . S
C2458 C2457 1.258 . S
C2458 C2459 1.477 . S
C2458 H2478 0.931 . S
C2459 C2455 1.460 . S
C2459 C2458 1.477 . S
C2459 H2479 0.930 . S
C2460 N2456 1.362 . S
C2460 C2457 1.431 . S
C2460 C2470 1.476 . S
H2461 C2455 0.929 . S
C2462 O2453 1.250 . S
C2462 O2454 1.258 . S
O2463 Mn2448 2.162 . S
O2463 C2451 1.281 . S
O2464 Mn2448 2.297 . S
O2464 C2451 1.236 . S
N2465 Mn2449 2.282 . S
N2465 C2466 1.328 . S
N2465 C2470 1.318 . S
C2466 N2465 1.328 . S
C2466 C2467 1.457 . S
C2466 H2471 0.929 . S
C2467 C2466 1.457 . S
C2467 C2468 1.291 . S
C2467 H2480 0.931 . S
C2468 C2467 1.291 . S
C2468 C2469 1.373 . S
C2468 H2481 0.929 . S
C2469 C2468 1.373 . S
C2469 C2470 1.396 . S
C2469 C2476 1.403 . S
C2470 C2460 1.476 . S
C2470 N2465 1.318 . S
C2470 C2469 1.396 . S
H2471 C2466 0.929 . S
O2472 Mn2448 2.385 . S
O2472 C2450 1.234 . S
O2473 Mn2448 2.209 . S
O2473 Mn2449 2.215 . S
O2473 C2450 1.283 . S
O2474 Mn2448 2.094 . S
O2474 C2452 1.240 . S
O2475 Mn2449 2.117 . S
O2475 C2452 1.264 . S
C2476 C2469 1.403 . S
C2476 C2477 1.399 . S
C2476 H2482 0.929 . S
C2477 C2457 1.449 . S
C2477 C2476 1.399 . S
C2477 H2483 0.930 . S
H2478 C2458 0.931 . S
H2479 C2459 0.930 . S
H2480 C2467 0.931 . S
H2481 C2468 0.929 . S
H2482 C2476 0.929 . S
H2483 C2477 0.930 . S
Mn2484 O2489 2.095 . S
Mn2484 O2499 2.162 1_554 S
Mn2484 O2500 2.297 1_554 S
Mn2484 O2508 2.385 1_554 S
Mn2484 O2509 2.209 1_554 S
Mn2484 O2510 2.094 . S
Mn2485 O2490 2.121 . S
Mn2485 N2492 2.257 1_554 S
Mn2485 N2501 2.282 1_554 S
Mn2485 O2509 2.215 1_554 S
Mn2485 O2511 2.117 . S
C2486 O2508 1.234 . S
C2486 O2509 1.283 . S
C2487 O2499 1.281 . S
C2487 O2500 1.236 . S
C2488 O2510 1.240 . S
C2488 O2511 1.264 . S
O2489 Mn2484 2.095 . S
O2489 C2498 1.250 . S
O2490 Mn2485 2.121 . S
O2490 C2498 1.258 . S
C2491 N2492 1.326 . S
C2491 C2495 1.460 . S
C2491 H2497 0.929 . S
N2492 Mn2485 2.257 1_556 S
N2492 C2491 1.326 . S
N2492 C2496 1.362 . S
C2493 C2494 1.258 . S
C2493 C2496 1.431 . S
C2493 C2513 1.449 . S
C2494 C2493 1.258 . S
C2494 C2495 1.477 . S
C2494 H2514 0.944 . S
C2495 C2491 1.460 . S
C2495 C2494 1.477 . S
C2495 H2515 0.930 1_545 S
C2496 N2492 1.362 . S
C2496 C2493 1.431 . S
C2496 C2506 1.476 . S
H2497 C2491 0.929 . S
C2498 O2489 1.250 . S
C2498 O2490 1.258 . S
O2499 Mn2484 2.162 1_556 S
O2499 C2487 1.281 . S
O2500 Mn2484 2.297 1_556 S
O2500 C2487 1.236 . S
N2501 Mn2485 2.282 1_556 S
N2501 C2502 1.328 . S
N2501 C2506 1.318 . S
C2502 N2501 1.328 . S
C2502 C2503 1.457 . S
C2502 H2507 0.929 1_556 S
C2503 C2502 1.457 . S
C2503 C2504 1.291 . S
C2503 H2516 0.931 . S
C2504 C2503 1.291 . S
C2504 C2505 1.373 . S
C2504 H2517 0.929 . S
C2505 C2504 1.373 . S
C2505 C2506 1.396 . S
C2505 C2512 1.403 . S
C2506 C2496 1.476 . S
C2506 N2501 1.318 . S
C2506 C2505 1.396 . S
H2507 C2502 0.929 1_554 S
O2508 Mn2484 2.385 1_556 S
O2508 C2486 1.234 . S
O2509 Mn2484 2.209 1_556 S
O2509 Mn2485 2.215 1_556 S
O2509 C2486 1.283 . S
O2510 Mn2484 2.094 . S
O2510 C2488 1.240 . S
O2511 Mn2485 2.117 . S
O2511 C2488 1.264 . S
C2512 C2505 1.403 . S
C2512 C2513 1.399 . S
C2512 H2518 0.929 . S
C2513 C2493 1.449 . S
C2513 C2512 1.399 . S
C2513 H2519 0.930 . S
H2514 C2494 0.944 . S
H2515 C2495 0.930 1_565 S
H2516 C2503 0.931 . S
H2517 C2504 0.929 . S
H2518 C2512 0.929 . S
H2519 C2513 0.930 . S
Mn2520 O2525 2.095 . S
Mn2520 O2535 2.162 . S
Mn2520 O2536 2.297 . S
Mn2520 O2544 2.385 . S
Mn2520 O2545 2.209 . S
Mn2520 O2546 2.094 . S
Mn2521 O2526 2.121 . S
Mn2521 N2528 2.257 . S
Mn2521 N2537 2.282 . S
Mn2521 O2545 2.215 . S
Mn2521 O2547 2.117 . S
C2522 O2544 1.234 . S
C2522 O2545 1.283 . S
C2523 O2535 1.281 . S
C2523 O2536 1.236 . S
C2524 O2546 1.240 . S
C2524 O2547 1.264 . S
O2525 Mn2520 2.095 . S
O2525 C2534 1.250 . S
O2526 Mn2521 2.121 . S
O2526 C2534 1.258 . S
C2527 N2528 1.326 . S
C2527 C2531 1.460 . S
C2527 H2533 0.929 . S
N2528 Mn2521 2.257 . S
N2528 C2527 1.326 . S
N2528 C2532 1.362 . S
C2529 C2530 1.258 . S
C2529 C2532 1.431 . S
C2529 C2549 1.449 . S
C2530 C2529 1.258 . S
C2530 C2531 1.477 . S
C2530 H2550 0.931 . S
C2531 C2527 1.460 . S
C2531 C2530 1.477 . S
C2531 H2551 0.930 . S
C2532 N2528 1.362 . S
C2532 C2529 1.431 . S
C2532 C2542 1.476 . S
H2533 C2527 0.929 . S
C2534 O2525 1.250 . S
C2534 O2526 1.258 . S
O2535 Mn2520 2.162 . S
O2535 C2523 1.281 . S
O2536 Mn2520 2.297 . S
O2536 C2523 1.236 . S
N2537 Mn2521 2.282 . S
N2537 C2538 1.328 . S
N2537 C2542 1.318 . S
C2538 N2537 1.328 . S
C2538 C2539 1.457 . S
C2538 H2543 0.929 . S
C2539 C2538 1.457 . S
C2539 C2540 1.291 . S
C2539 H2552 0.931 . S
C2540 C2539 1.291 . S
C2540 C2541 1.373 . S
C2540 H2553 0.929 1_545 S
C2541 C2540 1.373 . S
C2541 C2542 1.396 . S
C2541 C2548 1.390 1_545 S
C2542 C2532 1.476 . S
C2542 N2537 1.318 . S
C2542 C2541 1.396 . S
H2543 C2538 0.929 . S
O2544 Mn2520 2.385 . S
O2544 C2522 1.234 . S
O2545 Mn2520 2.209 . S
O2545 Mn2521 2.215 . S
O2545 C2522 1.283 . S
O2546 Mn2520 2.094 . S
O2546 C2524 1.240 . S
O2547 Mn2521 2.117 . S
O2547 C2524 1.264 . S
C2548 C2541 1.390 1_565 S
C2548 C2549 1.391 1_565 S
C2548 H2554 0.951 . S
C2549 C2529 1.449 . S
C2549 C2548 1.391 1_545 S
C2549 H2555 0.904 1_545 S
H2550 C2530 0.931 . S
H2551 C2531 0.930 . S
H2552 C2539 0.931 . S
H2553 C2540 0.929 1_565 S
H2554 C2548 0.951 . S
H2555 C2549 0.904 1_565 S
Mn2556 O2561 2.095 . S
Mn2556 O2571 2.162 . S
Mn2556 O2572 2.297 . S
Mn2556 O2580 2.385 . S
Mn2556 O2581 2.209 . S
Mn2556 O2582 2.094 . S
Mn2557 O2562 2.121 . S
Mn2557 N2564 2.257 . S
Mn2557 N2573 2.282 . S
Mn2557 O2581 2.215 . S
Mn2557 O2583 2.117 . S
C2558 O2580 1.234 . S
C2558 O2581 1.283 . S
C2559 O2571 1.281 . S
C2559 O2572 1.236 . S
C2560 O2582 1.240 . S
C2560 O2583 1.264 . S
O2561 Mn2556 2.095 . S
O2561 C2570 1.250 . S
O2562 Mn2557 2.121 . S
O2562 C2570 1.258 . S
C2563 N2564 1.326 . S
C2563 C2567 1.460 . S
C2563 H2569 0.929 . S
N2564 Mn2557 2.257 . S
N2564 C2563 1.326 . S
N2564 C2568 1.362 . S
C2565 C2566 1.258 . S
C2565 C2568 1.431 . S
C2565 C2585 1.449 . S
C2566 C2565 1.258 . S
C2566 C2567 1.477 . S
C2566 H2586 0.931 . S
C2567 C2563 1.460 . S
C2567 C2566 1.477 . S
C2567 H2587 0.930 . S
C2568 N2564 1.362 . S
C2568 C2565 1.431 . S
C2568 C2578 1.476 . S
H2569 C2563 0.929 . S
C2570 O2561 1.250 . S
C2570 O2562 1.258 . S
O2571 Mn2556 2.162 . S
O2571 C2559 1.281 . S
O2572 Mn2556 2.297 . S
O2572 C2559 1.236 . S
N2573 Mn2557 2.282 . S
N2573 C2574 1.328 . S
N2573 C2578 1.318 . S
C2574 N2573 1.328 . S
C2574 C2575 1.457 . S
C2574 H2579 0.929 . S
C2575 C2574 1.457 . S
C2575 C2576 1.291 . S
C2575 H2588 0.931 . S
C2576 C2575 1.291 . S
C2576 C2577 1.373 . S
C2576 H2589 0.929 1_565 S
C2577 C2576 1.373 . S
C2577 C2578 1.396 . S
C2577 C2584 1.390 1_565 S
C2578 C2568 1.476 . S
C2578 N2573 1.318 . S
C2578 C2577 1.396 . S
H2579 C2574 0.929 . S
O2580 Mn2556 2.385 . S
O2580 C2558 1.234 . S
O2581 Mn2556 2.209 . S
O2581 Mn2557 2.215 . S
O2581 C2558 1.283 . S
O2582 Mn2556 2.094 . S
O2582 C2560 1.240 . S
O2583 Mn2557 2.117 . S
O2583 C2560 1.264 . S
C2584 C2577 1.390 1_545 S
C2584 C2585 1.391 1_545 S
C2584 H2590 0.951 . S
C2585 C2565 1.449 . S
C2585 C2584 1.391 1_565 S
C2585 H2591 0.904 1_565 S
H2586 C2566 0.931 . S
H2587 C2567 0.930 . S
H2588 C2575 0.931 . S
H2589 C2576 0.929 1_545 S
H2590 C2584 0.951 . S
H2591 C2585 0.904 1_545 S
Mn2592 O2597 2.095 . S
Mn2592 O2607 2.162 . S
Mn2592 O2608 2.297 . S
Mn2592 O2616 2.385 . S
Mn2592 O2617 2.209 . S
Mn2592 O2618 2.094 . S
Mn2593 O2598 2.121 . S
Mn2593 N2600 2.257 . S
Mn2593 N2609 2.282 . S
Mn2593 O2617 2.215 . S
Mn2593 O2619 2.117 . S
C2594 O2616 1.234 . S
C2594 O2617 1.283 . S
C2595 O2607 1.281 . S
C2595 O2608 1.236 . S
C2596 O2618 1.240 . S
C2596 O2619 1.264 . S
O2597 Mn2592 2.095 . S
O2597 C2606 1.250 . S
O2598 Mn2593 2.121 . S
O2598 C2606 1.258 . S
C2599 N2600 1.326 . S
C2599 C2603 1.460 . S
C2599 H2605 0.929 . S
N2600 Mn2593 2.257 . S
N2600 C2599 1.326 . S
N2600 C2604 1.362 . S
C2601 C2602 1.258 . S
C2601 C2604 1.431 . S
C2601 C2621 1.449 . S
C2602 C2601 1.258 . S
C2602 C2603 1.477 . S
C2602 H2622 0.944 . S
C2603 C2599 1.460 . S
C2603 C2602 1.477 . S
C2603 H2623 0.930 1_554 S
C2604 N2600 1.362 . S
C2604 C2601 1.431 . S
C2604 C2614 1.476 . S
H2605 C2599 0.929 . S
C2606 O2597 1.250 . S
C2606 O2598 1.258 . S
O2607 Mn2592 2.162 . S
O2607 C2595 1.281 . S
O2608 Mn2592 2.297 . S
O2608 C2595 1.236 . S
N2609 Mn2593 2.282 . S
N2609 C2610 1.328 . S
N2609 C2614 1.318 . S
C2610 N2609 1.328 . S
C2610 C2611 1.457 . S
C2610 H2615 0.929 . S
C2611 C2610 1.457 . S
C2611 C2612 1.291 . S
C2611 H2624 0.931 . S
C2612 C2611 1.291 . S
C2612 C2613 1.373 . S
C2612 H2625 0.929 . S
C2613 C2612 1.373 . S
C2613 C2614 1.396 . S
C2613 C2620 1.403 . S
C2614 C2604 1.476 . S
C2614 N2609 1.318 . S
C2614 C2613 1.396 . S
H2615 C2610 0.929 . S
O2616 Mn2592 2.385 . S
O2616 C2594 1.234 . S
O2617 Mn2592 2.209 . S
O2617 Mn2593 2.215 . S
O2617 C2594 1.283 . S
O2618 Mn2592 2.094 . S
O2618 C2596 1.240 . S
O2619 Mn2593 2.117 . S
O2619 C2596 1.264 . S
C2620 C2613 1.403 . S
C2620 C2621 1.399 . S
C2620 H2626 0.929 . S
C2621 C2601 1.449 . S
C2621 C2620 1.399 . S
C2621 H2627 0.930 . S
H2622 C2602 0.944 . S
H2623 C2603 0.930 1_556 S
H2624 C2611 0.931 . S
H2625 C2612 0.929 . S
H2626 C2620 0.929 . S
H2627 C2621 0.930 . S
Mn2628 O2633 2.095 . S
Mn2628 O2643 2.162 . S
Mn2628 O2644 2.297 . S
Mn2628 O2652 2.385 . S
Mn2628 O2653 2.209 . S
Mn2628 O2654 2.094 . S
Mn2629 O2634 2.121 . S
Mn2629 N2636 2.257 . S
Mn2629 N2645 2.282 . S
Mn2629 O2653 2.215 . S
Mn2629 O2655 2.117 . S
C2630 O2652 1.234 . S
C2630 O2653 1.283 . S
C2631 O2643 1.281 . S
C2631 O2644 1.236 . S
C2632 O2654 1.240 . S
C2632 O2655 1.264 . S
O2633 Mn2628 2.095 . S
O2633 C2642 1.250 . S
O2634 Mn2629 2.121 . S
O2634 C2642 1.258 . S
C2635 N2636 1.326 . S
C2635 C2639 1.460 . S
C2635 H2641 0.929 . S
N2636 Mn2629 2.257 . S
N2636 C2635 1.326 . S
N2636 C2640 1.362 . S
C2637 C2638 1.258 . S
C2637 C2640 1.431 . S
C2637 C2657 1.449 . S
C2638 C2637 1.258 . S
C2638 C2639 1.477 . S
C2638 H2658 0.931 . S
C2639 C2635 1.460 . S
C2639 C2638 1.477 . S
C2639 H2659 0.930 . S
C2640 N2636 1.362 . S
C2640 C2637 1.431 . S
C2640 C2650 1.476 . S
H2641 C2635 0.929 . S
C2642 O2633 1.250 . S
C2642 O2634 1.258 . S
O2643 Mn2628 2.162 . S
O2643 C2631 1.281 . S
O2644 Mn2628 2.297 . S
O2644 C2631 1.236 . S
N2645 Mn2629 2.282 . S
N2645 C2646 1.328 . S
N2645 C2650 1.318 . S
C2646 N2645 1.328 . S
C2646 C2647 1.457 . S
C2646 H2651 0.929 . S
C2647 C2646 1.457 . S
C2647 C2648 1.291 . S
C2647 H2660 0.931 . S
C2648 C2647 1.291 . S
C2648 C2649 1.373 . S
C2648 H2661 0.929 . S
C2649 C2648 1.373 . S
C2649 C2650 1.396 . S
C2649 C2656 1.403 . S
C2650 C2640 1.476 . S
C2650 N2645 1.318 . S
C2650 C2649 1.396 . S
H2651 C2646 0.929 . S
O2652 Mn2628 2.385 . S
O2652 C2630 1.234 . S
O2653 Mn2628 2.209 . S
O2653 Mn2629 2.215 . S
O2653 C2630 1.283 . S
O2654 Mn2628 2.094 . S
O2654 C2632 1.240 . S
O2655 Mn2629 2.117 . S
O2655 C2632 1.264 . S
C2656 C2649 1.403 . S
C2656 C2657 1.399 . S
C2656 H2662 0.929 . S
C2657 C2637 1.449 . S
C2657 C2656 1.399 . S
C2657 H2663 0.930 . S
H2658 C2638 0.931 . S
H2659 C2639 0.930 . S
H2660 C2647 0.931 . S
H2661 C2648 0.929 . S
H2662 C2656 0.929 . S
H2663 C2657 0.930 . S
Mn2664 O2669 2.095 . S
Mn2664 O2679 2.162 1_455 S
Mn2664 O2680 2.297 1_455 S
Mn2664 O2688 2.385 1_455 S
Mn2664 O2689 2.209 1_455 S
Mn2664 O2690 2.094 . S
Mn2665 O2670 2.121 . S
Mn2665 N2672 2.257 1_455 S
Mn2665 N2681 2.282 1_455 S
Mn2665 O2689 2.215 1_455 S
Mn2665 O2691 2.117 . S
C2666 O2688 1.234 . S
C2666 O2689 1.283 . S
C2667 O2679 1.281 . S
C2667 O2680 1.236 . S
C2668 O2690 1.240 . S
C2668 O2691 1.264 . S
O2669 Mn2664 2.095 . S
O2669 C2678 1.250 . S
O2670 Mn2665 2.121 . S
O2670 C2678 1.258 . S
C2671 N2672 1.326 . S
C2671 C2675 1.460 . S
C2671 H2677 0.929 . S
N2672 Mn2665 2.257 1_655 S
N2672 C2671 1.326 . S
N2672 C2676 1.362 . S
C2673 C2674 1.258 . S
C2673 C2676 1.431 . S
C2673 C2693 1.449 . S
C2674 C2673 1.258 . S
C2674 C2675 1.477 . S
C2674 H2694 0.931 . S
C2675 C2671 1.460 . S
C2675 C2674 1.477 . S
C2675 H2695 0.930 . S
C2676 N2672 1.362 . S
C2676 C2673 1.431 . S
C2676 C2686 1.476 . S
H2677 C2671 0.929 . S
C2678 O2669 1.250 . S
C2678 O2670 1.258 . S
O2679 Mn2664 2.162 1_655 S
O2679 C2667 1.281 . S
O2680 Mn2664 2.297 1_655 S
O2680 C2667 1.236 . S
N2681 Mn2665 2.282 1_655 S
N2681 C2682 1.328 . S
N2681 C2686 1.318 . S
C2682 N2681 1.328 . S
C2682 C2683 1.457 . S
C2682 H2687 0.929 1_655 S
C2683 C2682 1.457 . S
C2683 C2684 1.291 . S
C2683 H2696 0.931 . S
C2684 C2683 1.291 . S
C2684 C2685 1.373 . S
C2684 H2697 0.929 . S
C2685 C2684 1.373 . S
C2685 C2686 1.396 . S
C2685 C2692 1.403 . S
C2686 C2676 1.476 . S
C2686 N2681 1.318 . S
C2686 C2685 1.396 . S
H2687 C2682 0.929 1_455 S
O2688 Mn2664 2.385 1_655 S
O2688 C2666 1.234 . S
O2689 Mn2664 2.209 1_655 S
O2689 Mn2665 2.215 1_655 S
O2689 C2666 1.283 . S
O2690 Mn2664 2.094 . S
O2690 C2668 1.240 . S
O2691 Mn2665 2.117 . S
O2691 C2668 1.264 . S
C2692 C2685 1.403 . S
C2692 C2693 1.399 . S
C2692 H2698 0.929 . S
C2693 C2673 1.449 . S
C2693 C2692 1.399 . S
C2693 H2699 0.930 . S
H2694 C2674 0.931 . S
H2695 C2675 0.930 . S
H2696 C2683 0.931 . S
H2697 C2684 0.929 . S
H2698 C2692 0.929 . S
H2699 C2693 0.930 . S
Mn2700 O2705 2.095 . S
Mn2700 O2715 2.162 . S
Mn2700 O2716 2.297 . S
Mn2700 O2724 2.385 . S
Mn2700 O2725 2.209 . S
Mn2700 O2726 2.094 . S
Mn2701 O2706 2.121 . S
Mn2701 N2708 2.257 . S
Mn2701 N2717 2.282 . S
Mn2701 O2725 2.215 . S
Mn2701 O2727 2.117 . S
C2702 O2724 1.234 . S
C2702 O2725 1.283 . S
C2703 O2715 1.281 . S
C2703 O2716 1.236 . S
C2704 O2726 1.240 . S
C2704 O2727 1.264 . S
O2705 Mn2700 2.095 . S
O2705 C2714 1.250 . S
O2706 Mn2701 2.121 . S
O2706 C2714 1.258 . S
C2707 N2708 1.326 . S
C2707 C2711 1.460 . S
C2707 H2713 0.929 . S
N2708 Mn2701 2.257 . S
N2708 C2707 1.326 . S
N2708 C2712 1.362 . S
C2709 C2710 1.258 . S
C2709 C2712 1.431 . S
C2709 C2729 1.449 . S
C2710 C2709 1.258 . S
C2710 C2711 1.477 . S
C2710 H2730 0.931 . S
C2711 C2707 1.460 . S
C2711 C2710 1.477 . S
C2711 H2731 0.930 . S
C2712 N2708 1.362 . S
C2712 C2709 1.431 . S
C2712 C2722 1.476 . S
H2713 C2707 0.929 . S
C2714 O2705 1.250 . S
C2714 O2706 1.258 . S
O2715 Mn2700 2.162 . S
O2715 C2703 1.281 . S
O2716 Mn2700 2.297 . S
O2716 C2703 1.236 . S
N2717 Mn2701 2.282 . S
N2717 C2718 1.328 . S
N2717 C2722 1.318 . S
C2718 N2717 1.328 . S
C2718 C2719 1.457 . S
C2718 H2723 0.929 . S
C2719 C2718 1.457 . S
C2719 C2720 1.291 . S
C2719 H2732 0.931 . S
C2720 C2719 1.291 . S
C2720 C2721 1.373 . S
C2720 H2733 0.929 1_455 S
C2721 C2720 1.373 . S
C2721 C2722 1.396 . S
C2721 C2728 1.391 1_455 S
C2722 C2712 1.476 . S
C2722 N2717 1.318 . S
C2722 C2721 1.396 . S
H2723 C2718 0.929 . S
O2724 Mn2700 2.385 . S
O2724 C2702 1.234 . S
O2725 Mn2700 2.209 . S
O2725 Mn2701 2.215 . S
O2725 C2702 1.283 . S
O2726 Mn2700 2.094 . S
O2726 C2704 1.240 . S
O2727 Mn2701 2.117 . S
O2727 C2704 1.264 . S
C2728 C2721 1.391 1_655 S
C2728 C2729 1.391 1_655 S
C2728 H2734 0.951 . S
C2729 C2709 1.449 . S
C2729 C2728 1.391 1_455 S
C2729 H2735 0.904 1_455 S
H2730 C2710 0.931 . S
H2731 C2711 0.930 . S
H2732 C2719 0.931 . S
H2733 C2720 0.929 1_655 S
H2734 C2728 0.951 . S
H2735 C2729 0.904 1_655 S
Mn2736 O2741 2.095 . S
Mn2736 O2751 2.162 . S
Mn2736 O2752 2.297 . S
Mn2736 O2760 2.385 . S
Mn2736 O2761 2.209 . S
Mn2736 O2762 2.094 . S
Mn2737 O2742 2.121 . S
Mn2737 N2744 2.257 . S
Mn2737 N2753 2.282 . S
Mn2737 O2761 2.215 . S
Mn2737 O2763 2.117 . S
C2738 O2760 1.234 . S
C2738 O2761 1.283 . S
C2739 O2751 1.281 . S
C2739 O2752 1.236 . S
C2740 O2762 1.240 . S
C2740 O2763 1.264 . S
O2741 Mn2736 2.095 . S
O2741 C2750 1.250 . S
O2742 Mn2737 2.121 . S
O2742 C2750 1.258 . S
C2743 N2744 1.326 . S
C2743 C2747 1.460 . S
C2743 H2749 0.929 . S
N2744 Mn2737 2.257 . S
N2744 C2743 1.326 . S
N2744 C2748 1.362 . S
C2745 C2746 1.258 . S
C2745 C2748 1.431 . S
C2745 C2765 1.449 . S
C2746 C2745 1.258 . S
C2746 C2747 1.477 . S
C2746 H2766 0.931 . S
C2747 C2743 1.460 . S
C2747 C2746 1.477 . S
C2747 H2767 0.930 . S
C2748 N2744 1.362 . S
C2748 C2745 1.431 . S
C2748 C2758 1.476 . S
H2749 C2743 0.929 . S
C2750 O2741 1.250 . S
C2750 O2742 1.258 . S
O2751 Mn2736 2.162 . S
O2751 C2739 1.281 . S
O2752 Mn2736 2.297 . S
O2752 C2739 1.236 . S
N2753 Mn2737 2.282 . S
N2753 C2754 1.328 . S
N2753 C2758 1.318 . S
C2754 N2753 1.328 . S
C2754 C2755 1.457 . S
C2754 H2759 0.929 . S
C2755 C2754 1.457 . S
C2755 C2756 1.291 . S
C2755 H2768 0.931 . S
C2756 C2755 1.291 . S
C2756 C2757 1.373 . S
C2756 H2769 0.929 . S
C2757 C2756 1.373 . S
C2757 C2758 1.396 . S
C2757 C2764 1.403 . S
C2758 C2748 1.476 . S
C2758 N2753 1.318 . S
C2758 C2757 1.396 . S
H2759 C2754 0.929 . S
O2760 Mn2736 2.385 . S
O2760 C2738 1.234 . S
O2761 Mn2736 2.209 . S
O2761 Mn2737 2.215 . S
O2761 C2738 1.283 . S
O2762 Mn2736 2.094 . S
O2762 C2740 1.240 . S
O2763 Mn2737 2.117 . S
O2763 C2740 1.264 . S
C2764 C2757 1.403 . S
C2764 C2765 1.399 . S
C2764 H2770 0.929 . S
C2765 C2745 1.449 . S
C2765 C2764 1.399 . S
C2765 H2771 0.930 . S
H2766 C2746 0.931 . S
H2767 C2747 0.930 . S
H2768 C2755 0.931 . S
H2769 C2756 0.929 . S
H2770 C2764 0.929 . S
H2771 C2765 0.930 . S
Mn2772 O2777 2.095 . S
Mn2772 O2787 2.162 . S
Mn2772 O2788 2.297 . S
Mn2772 O2796 2.385 . S
Mn2772 O2797 2.209 . S
Mn2772 O2798 2.094 . S
Mn2773 O2778 2.121 . S
Mn2773 N2780 2.257 . S
Mn2773 N2789 2.282 . S
Mn2773 O2797 2.215 . S
Mn2773 O2799 2.117 . S
C2774 O2796 1.234 . S
C2774 O2797 1.283 . S
C2775 O2787 1.281 . S
C2775 O2788 1.236 . S
C2776 O2798 1.240 . S
C2776 O2799 1.264 . S
O2777 Mn2772 2.095 . S
O2777 C2786 1.250 . S
O2778 Mn2773 2.121 . S
O2778 C2786 1.258 . S
C2779 N2780 1.326 . S
C2779 C2783 1.460 . S
C2779 H2785 0.929 . S
N2780 Mn2773 2.257 . S
N2780 C2779 1.326 . S
N2780 C2784 1.362 . S
C2781 C2782 1.258 . S
C2781 C2784 1.431 . S
C2781 C2801 1.449 . S
C2782 C2781 1.258 . S
C2782 C2783 1.477 . S
C2782 H2802 0.931 . S
C2783 C2779 1.460 . S
C2783 C2782 1.477 . S
C2783 H2803 0.930 . S
C2784 N2780 1.362 . S
C2784 C2781 1.431 . S
C2784 C2794 1.476 . S
H2785 C2779 0.929 . S
C2786 O2777 1.250 . S
C2786 O2778 1.258 . S
O2787 Mn2772 2.162 . S
O2787 C2775 1.281 . S
O2788 Mn2772 2.297 . S
O2788 C2775 1.236 . S
N2789 Mn2773 2.282 . S
N2789 C2790 1.328 . S
N2789 C2794 1.318 . S
C2790 N2789 1.328 . S
C2790 C2791 1.457 . S
C2790 H2795 0.929 . S
C2791 C2790 1.457 . S
C2791 C2792 1.291 . S
C2791 H2804 0.931 . S
C2792 C2791 1.291 . S
C2792 C2793 1.373 . S
C2792 H2805 0.929 1_455 S
C2793 C2792 1.373 . S
C2793 C2794 1.396 . S
C2793 C2800 1.390 1_455 S
C2794 C2784 1.476 . S
C2794 N2789 1.318 . S
C2794 C2793 1.396 . S
H2795 C2790 0.929 . S
O2796 Mn2772 2.385 . S
O2796 C2774 1.234 . S
O2797 Mn2772 2.209 . S
O2797 Mn2773 2.215 . S
O2797 C2774 1.283 . S
O2798 Mn2772 2.094 . S
O2798 C2776 1.240 . S
O2799 Mn2773 2.117 . S
O2799 C2776 1.264 . S
C2800 C2793 1.390 1_655 S
C2800 C2801 1.391 1_655 S
C2800 H2806 0.951 . S
C2801 C2781 1.449 . S
C2801 C2800 1.391 1_455 S
C2801 H2807 0.904 1_455 S
H2802 C2782 0.931 . S
H2803 C2783 0.930 . S
H2804 C2791 0.931 . S
H2805 C2792 0.929 1_655 S
H2806 C2800 0.951 . S
H2807 C2801 0.904 1_655 S
Mn2808 O2813 2.095 . S
Mn2808 O2823 2.162 1_455 S
Mn2808 O2824 2.297 1_455 S
Mn2808 O2832 2.385 1_455 S
Mn2808 O2833 2.209 1_455 S
Mn2808 O2834 2.094 . S
Mn2809 O2814 2.121 . S
Mn2809 N2816 2.257 1_455 S
Mn2809 N2825 2.282 1_455 S
Mn2809 O2833 2.215 1_455 S
Mn2809 O2835 2.117 . S
C2810 O2832 1.234 . S
C2810 O2833 1.283 . S
C2811 O2823 1.281 . S
C2811 O2824 1.236 . S
C2812 O2834 1.240 . S
C2812 O2835 1.264 . S
O2813 Mn2808 2.095 . S
O2813 C2822 1.250 . S
O2814 Mn2809 2.121 . S
O2814 C2822 1.258 . S
C2815 N2816 1.326 . S
C2815 C2819 1.460 . S
C2815 H2821 0.929 . S
N2816 Mn2809 2.257 1_655 S
N2816 C2815 1.326 . S
N2816 C2820 1.362 . S
C2817 C2818 1.258 . S
C2817 C2820 1.431 . S
C2817 C2837 1.449 . S
C2818 C2817 1.258 . S
C2818 C2819 1.477 . S
C2818 H2838 0.943 . S
C2819 C2815 1.460 . S
C2819 C2818 1.477 . S
C2819 H2839 0.930 1_556 S
C2820 N2816 1.362 . S
C2820 C2817 1.431 . S
C2820 C2830 1.476 . S
H2821 C2815 0.929 . S
C2822 O2813 1.250 . S
C2822 O2814 1.258 . S
O2823 Mn2808 2.162 1_655 S
O2823 C2811 1.281 . S
O2824 Mn2808 2.297 1_655 S
O2824 C2811 1.236 . S
N2825 Mn2809 2.282 1_655 S
N2825 C2826 1.328 . S
N2825 C2830 1.318 . S
C2826 N2825 1.328 . S
C2826 C2827 1.457 . S
C2826 H2831 0.929 1_655 S
C2827 C2826 1.457 . S
C2827 C2828 1.291 . S
C2827 H2840 0.931 . S
C2828 C2827 1.291 . S
C2828 C2829 1.373 . S
C2828 H2841 0.929 . S
C2829 C2828 1.373 . S
C2829 C2830 1.396 . S
C2829 C2836 1.403 . S
C2830 C2820 1.476 . S
C2830 N2825 1.318 . S
C2830 C2829 1.396 . S
H2831 C2826 0.929 1_455 S
O2832 Mn2808 2.385 1_655 S
O2832 C2810 1.234 . S
O2833 Mn2808 2.209 1_655 S
O2833 Mn2809 2.215 1_655 S
O2833 C2810 1.283 . S
O2834 Mn2808 2.094 . S
O2834 C2812 1.240 . S
O2835 Mn2809 2.117 . S
O2835 C2812 1.264 . S
C2836 C2829 1.403 . S
C2836 C2837 1.399 . S
C2836 H2842 0.929 . S
C2837 C2817 1.449 . S
C2837 C2836 1.399 . S
C2837 H2843 0.930 . S
H2838 C2818 0.943 . S
H2839 C2819 0.930 1_554 S
H2840 C2827 0.931 . S
H2841 C2828 0.929 . S
H2842 C2836 0.929 . S
H2843 C2837 0.930 . S
Mn2844 O2849 2.095 . S
Mn2844 O2859 2.162 . S
Mn2844 O2860 2.297 . S
Mn2844 O2868 2.385 . S
Mn2844 O2869 2.209 . S
Mn2844 O2870 2.094 . S
Mn2845 O2850 2.121 . S
Mn2845 N2852 2.257 . S
Mn2845 N2861 2.282 . S
Mn2845 O2869 2.215 . S
Mn2845 O2871 2.117 . S
C2846 O2868 1.234 . S
C2846 O2869 1.283 . S
C2847 O2859 1.281 . S
C2847 O2860 1.236 . S
C2848 O2870 1.240 . S
C2848 O2871 1.264 . S
O2849 Mn2844 2.095 . S
O2849 C2858 1.250 . S
O2850 Mn2845 2.121 . S
O2850 C2858 1.258 . S
C2851 N2852 1.326 . S
C2851 C2855 1.460 . S
C2851 H2857 0.929 . S
N2852 Mn2845 2.257 . S
N2852 C2851 1.326 . S
N2852 C2856 1.362 . S
C2853 C2854 1.258 . S
C2853 C2856 1.431 . S
C2853 C2873 1.449 . S
C2854 C2853 1.258 . S
C2854 C2855 1.477 . S
C2854 H2874 0.931 . S
C2855 C2851 1.460 . S
C2855 C2854 1.477 . S
C2855 H2875 0.930 . S
C2856 N2852 1.362 . S
C2856 C2853 1.431 . S
C2856 C2866 1.476 . S
H2857 C2851 0.929 . S
C2858 O2849 1.250 . S
C2858 O2850 1.258 . S
O2859 Mn2844 2.162 . S
O2859 C2847 1.281 . S
O2860 Mn2844 2.297 . S
O2860 C2847 1.236 . S
N2861 Mn2845 2.282 . S
N2861 C2862 1.328 . S
N2861 C2866 1.318 . S
C2862 N2861 1.328 . S
C2862 C2863 1.457 . S
C2862 H2867 0.929 . S
C2863 C2862 1.457 . S
C2863 C2864 1.291 . S
C2863 H2876 0.931 . S
C2864 C2863 1.291 . S
C2864 C2865 1.373 . S
C2864 H2877 0.929 . S
C2865 C2864 1.373 . S
C2865 C2866 1.396 . S
C2865 C2872 1.403 . S
C2866 C2856 1.476 . S
C2866 N2861 1.318 . S
C2866 C2865 1.396 . S
H2867 C2862 0.929 . S
O2868 Mn2844 2.385 . S
O2868 C2846 1.234 . S
O2869 Mn2844 2.209 . S
O2869 Mn2845 2.215 . S
O2869 C2846 1.283 . S
O2870 Mn2844 2.094 . S
O2870 C2848 1.240 . S
O2871 Mn2845 2.117 . S
O2871 C2848 1.264 . S
C2872 C2865 1.403 . S
C2872 C2873 1.399 . S
C2872 H2878 0.929 . S
C2873 C2853 1.449 . S
C2873 C2872 1.399 . S
C2873 H2879 0.930 . S
H2874 C2854 0.931 . S
H2875 C2855 0.930 . S
H2876 C2863 0.931 . S
H2877 C2864 0.929 . S
H2878 C2872 0.929 . S
H2879 C2873 0.930 . S
Mn2880 O2885 2.095 . S
Mn2880 O2895 2.162 . S
Mn2880 O2896 2.297 . S
Mn2880 O2904 2.385 . S
Mn2880 O2905 2.209 . S
Mn2880 O2906 2.094 . S
Mn2881 O2886 2.121 . S
Mn2881 N2888 2.257 . S
Mn2881 N2897 2.282 . S
Mn2881 O2905 2.215 . S
Mn2881 O2907 2.117 . S
C2882 O2904 1.234 . S
C2882 O2905 1.283 . S
C2883 O2895 1.281 . S
C2883 O2896 1.236 . S
C2884 O2906 1.240 . S
C2884 O2907 1.264 . S
O2885 Mn2880 2.095 . S
O2885 C2894 1.250 . S
O2886 Mn2881 2.121 . S
O2886 C2894 1.258 . S
C2887 N2888 1.326 . S
C2887 C2891 1.460 . S
C2887 H2893 0.929 . S
N2888 Mn2881 2.257 . S
N2888 C2887 1.326 . S
N2888 C2892 1.362 . S
C2889 C2890 1.258 . S
C2889 C2892 1.431 . S
C2889 C2909 1.449 . S
C2890 C2889 1.258 . S
C2890 C2891 1.477 . S
C2890 H2910 0.944 . S
C2891 C2887 1.460 . S
C2891 C2890 1.477 . S
C2891 H2911 0.930 1_455 S
C2892 N2888 1.362 . S
C2892 C2889 1.431 . S
C2892 C2902 1.476 . S
H2893 C2887 0.929 . S
C2894 O2885 1.250 . S
C2894 O2886 1.258 . S
O2895 Mn2880 2.162 . S
O2895 C2883 1.281 . S
O2896 Mn2880 2.297 . S
O2896 C2883 1.236 . S
N2897 Mn2881 2.282 . S
N2897 C2898 1.328 . S
N2897 C2902 1.318 . S
C2898 N2897 1.328 . S
C2898 C2899 1.457 . S
C2898 H2903 0.929 . S
C2899 C2898 1.457 . S
C2899 C2900 1.291 . S
C2899 H2912 0.931 . S
C2900 C2899 1.291 . S
C2900 C2901 1.373 . S
C2900 H2913 0.929 . S
C2901 C2900 1.373 . S
C2901 C2902 1.396 . S
C2901 C2908 1.403 . S
C2902 C2892 1.476 . S
C2902 N2897 1.318 . S
C2902 C2901 1.396 . S
H2903 C2898 0.929 . S
O2904 Mn2880 2.385 . S
O2904 C2882 1.234 . S
O2905 Mn2880 2.209 . S
O2905 Mn2881 2.215 . S
O2905 C2882 1.283 . S
O2906 Mn2880 2.094 . S
O2906 C2884 1.240 . S
O2907 Mn2881 2.117 . S
O2907 C2884 1.264 . S
C2908 C2901 1.403 . S
C2908 C2909 1.399 . S
C2908 H2914 0.929 . S
C2909 C2889 1.449 . S
C2909 C2908 1.399 . S
C2909 H2915 0.930 . S
H2910 C2890 0.944 . S
H2911 C2891 0.930 1_655 S
H2912 C2899 0.931 . S
H2913 C2900 0.929 . S
H2914 C2908 0.929 . S
H2915 C2909 0.930 . S
Mn2916 O2921 2.095 . S
Mn2916 O2931 2.162 . S
Mn2916 O2932 2.297 . S
Mn2916 O2940 2.385 . S
Mn2916 O2941 2.209 . S
Mn2916 O2942 2.094 . S
Mn2917 O2922 2.121 . S
Mn2917 N2924 2.257 . S
Mn2917 N2933 2.282 . S
Mn2917 O2941 2.215 . S
Mn2917 O2943 2.117 . S
C2918 O2940 1.234 . S
C2918 O2941 1.283 . S
C2919 O2931 1.281 . S
C2919 O2932 1.236 . S
C2920 O2942 1.240 . S
C2920 O2943 1.264 . S
O2921 Mn2916 2.095 . S
O2921 C2930 1.250 . S
O2922 Mn2917 2.121 . S
O2922 C2930 1.258 . S
C2923 N2924 1.326 . S
C2923 C2927 1.460 . S
C2923 H2929 0.929 . S
N2924 Mn2917 2.257 . S
N2924 C2923 1.326 . S
N2924 C2928 1.362 . S
C2925 C2926 1.258 . S
C2925 C2928 1.431 . S
C2925 C2945 1.449 . S
C2926 C2925 1.258 . S
C2926 C2927 1.477 . S
C2926 H2946 0.931 . S
C2927 C2923 1.460 . S
C2927 C2926 1.477 . S
C2927 H2947 0.930 . S
C2928 N2924 1.362 . S
C2928 C2925 1.431 . S
C2928 C2938 1.476 . S
H2929 C2923 0.929 . S
C2930 O2921 1.250 . S
C2930 O2922 1.258 . S
O2931 Mn2916 2.162 . S
O2931 C2919 1.281 . S
O2932 Mn2916 2.297 . S
O2932 C2919 1.236 . S
N2933 Mn2917 2.282 . S
N2933 C2934 1.328 . S
N2933 C2938 1.318 . S
C2934 N2933 1.328 . S
C2934 C2935 1.457 . S
C2934 H2939 0.929 . S
C2935 C2934 1.457 . S
C2935 C2936 1.291 . S
C2935 H2948 0.931 . S
C2936 C2935 1.291 . S
C2936 C2937 1.373 . S
C2936 H2949 0.929 1_554 S
C2937 C2936 1.373 . S
C2937 C2938 1.396 . S
C2937 C2944 1.391 1_554 S
C2938 C2928 1.476 . S
C2938 N2933 1.318 . S
C2938 C2937 1.396 . S
H2939 C2934 0.929 . S
O2940 Mn2916 2.385 . S
O2940 C2918 1.234 . S
O2941 Mn2916 2.209 . S
O2941 Mn2917 2.215 . S
O2941 C2918 1.283 . S
O2942 Mn2916 2.094 . S
O2942 C2920 1.240 . S
O2943 Mn2917 2.117 . S
O2943 C2920 1.264 . S
C2944 C2937 1.391 1_556 S
C2944 C2945 1.391 1_556 S
C2944 H2950 0.951 . S
C2945 C2925 1.449 . S
C2945 C2944 1.391 1_554 S
C2945 H2951 0.904 1_554 S
H2946 C2926 0.931 . S
H2947 C2927 0.930 . S
H2948 C2935 0.931 . S
H2949 C2936 0.929 1_556 S
H2950 C2944 0.951 . S
H2951 C2945 0.904 1_556 S
Mn2952 O2957 2.095 . S
Mn2952 O2967 2.162 . S
Mn2952 O2968 2.297 . S
Mn2952 O2976 2.385 . S
Mn2952 O2977 2.209 . S
Mn2952 O2978 2.094 . S
Mn2953 O2958 2.121 . S
Mn2953 N2960 2.257 . S
Mn2953 N2969 2.282 . S
Mn2953 O2977 2.215 . S
Mn2953 O2979 2.117 . S
C2954 O2976 1.234 . S
C2954 O2977 1.283 . S
C2955 O2967 1.281 . S
C2955 O2968 1.236 . S
C2956 O2978 1.240 . S
C2956 O2979 1.264 . S
O2957 Mn2952 2.095 . S
O2957 C2966 1.250 . S
O2958 Mn2953 2.121 . S
O2958 C2966 1.258 . S
C2959 N2960 1.326 . S
C2959 C2963 1.460 . S
C2959 H2965 0.929 . S
N2960 Mn2953 2.257 . S
N2960 C2959 1.326 . S
N2960 C2964 1.362 . S
C2961 C2962 1.258 . S
C2961 C2964 1.431 . S
C2961 C2981 1.449 . S
C2962 C2961 1.258 . S
C2962 C2963 1.477 . S
C2962 H2982 0.931 . S
C2963 C2959 1.460 . S
C2963 C2962 1.477 . S
C2963 H2983 0.930 . S
C2964 N2960 1.362 . S
C2964 C2961 1.431 . S
C2964 C2974 1.476 . S
H2965 C2959 0.929 . S
C2966 O2957 1.250 . S
C2966 O2958 1.258 . S
O2967 Mn2952 2.162 . S
O2967 C2955 1.281 . S
O2968 Mn2952 2.297 . S
O2968 C2955 1.236 . S
N2969 Mn2953 2.282 . S
N2969 C2970 1.328 . S
N2969 C2974 1.318 . S
C2970 N2969 1.328 . S
C2970 C2971 1.457 . S
C2970 H2975 0.929 . S
C2971 C2970 1.457 . S
C2971 C2972 1.291 . S
C2971 H2984 0.931 . S
C2972 C2971 1.291 . S
C2972 C2973 1.373 . S
C2972 H2985 0.929 . S
C2973 C2972 1.373 . S
C2973 C2974 1.396 . S
C2973 C2980 1.403 . S
C2974 C2964 1.476 . S
C2974 N2969 1.318 . S
C2974 C2973 1.396 . S
H2975 C2970 0.929 . S
O2976 Mn2952 2.385 . S
O2976 C2954 1.234 . S
O2977 Mn2952 2.209 . S
O2977 Mn2953 2.215 . S
O2977 C2954 1.283 . S
O2978 Mn2952 2.094 . S
O2978 C2956 1.240 . S
O2979 Mn2953 2.117 . S
O2979 C2956 1.264 . S
C2980 C2973 1.403 . S
C2980 C2981 1.399 . S
C2980 H2986 0.929 . S
C2981 C2961 1.449 . S
C2981 C2980 1.399 . S
C2981 H2987 0.930 . S
H2982 C2962 0.931 . S
H2983 C2963 0.930 . S
H2984 C2971 0.931 . S
H2985 C2972 0.929 . S
H2986 C2980 0.929 . S
H2987 C2981 0.930 . S
Mn2988 O2993 2.095 . S
Mn2988 O3003 2.162 . S
Mn2988 O3004 2.297 . S
Mn2988 O3012 2.385 . S
Mn2988 O3013 2.209 . S
Mn2988 O3014 2.094 . S
Mn2989 O2994 2.121 . S
Mn2989 N2996 2.257 . S
Mn2989 N3005 2.282 . S
Mn2989 O3013 2.215 . S
Mn2989 O3015 2.117 . S
C2990 O3012 1.234 . S
C2990 O3013 1.283 . S
C2991 O3003 1.281 . S
C2991 O3004 1.236 . S
C2992 O3014 1.240 . S
C2992 O3015 1.264 . S
O2993 Mn2988 2.095 . S
O2993 C3002 1.250 . S
O2994 Mn2989 2.121 . S
O2994 C3002 1.258 . S
C2995 N2996 1.326 . S
C2995 C2999 1.460 . S
C2995 H3001 0.929 . S
N2996 Mn2989 2.257 . S
N2996 C2995 1.326 . S
N2996 C3000 1.362 . S
C2997 C2998 1.258 . S
C2997 C3000 1.431 . S
C2997 C3017 1.449 . S
C2998 C2997 1.258 . S
C2998 C2999 1.477 . S
C2998 H3018 0.931 . S
C2999 C2995 1.460 . S
C2999 C2998 1.477 . S
C2999 H3019 0.930 . S
C3000 N2996 1.362 . S
C3000 C2997 1.431 . S
C3000 C3010 1.476 . S
H3001 C2995 0.929 . S
C3002 O2993 1.250 . S
C3002 O2994 1.258 . S
O3003 Mn2988 2.162 . S
O3003 C2991 1.281 . S
O3004 Mn2988 2.297 . S
O3004 C2991 1.236 . S
N3005 Mn2989 2.282 . S
N3005 C3006 1.328 . S
N3005 C3010 1.318 . S
C3006 N3005 1.328 . S
C3006 C3007 1.457 . S
C3006 H3011 0.929 . S
C3007 C3006 1.457 . S
C3007 C3008 1.291 . S
C3007 H3020 0.931 . S
C3008 C3007 1.291 . S
C3008 C3009 1.373 . S
C3008 H3021 0.929 . S
C3009 C3008 1.373 . S
C3009 C3010 1.396 . S
C3009 C3016 1.403 . S
C3010 C3000 1.476 . S
C3010 N3005 1.318 . S
C3010 C3009 1.396 . S
H3011 C3006 0.929 . S
O3012 Mn2988 2.385 . S
O3012 C2990 1.234 . S
O3013 Mn2988 2.209 . S
O3013 Mn2989 2.215 . S
O3013 C2990 1.283 . S
O3014 Mn2988 2.094 . S
O3014 C2992 1.240 . S
O3015 Mn2989 2.117 . S
O3015 C2992 1.264 . S
C3016 C3009 1.403 . S
C3016 C3017 1.399 . S
C3016 H3022 0.929 . S
C3017 C2997 1.449 . S
C3017 C3016 1.399 . S
C3017 H3023 0.930 . S
H3018 C2998 0.931 . S
H3019 C2999 0.930 . S
H3020 C3007 0.931 . S
H3021 C3008 0.929 . S
H3022 C3016 0.929 . S
H3023 C3017 0.930 . S
Mn3024 O3029 2.095 . S
Mn3024 O3039 2.162 . S
Mn3024 O3040 2.297 . S
Mn3024 O3048 2.385 . S
Mn3024 O3049 2.209 . S
Mn3024 O3050 2.094 . S
Mn3025 O3030 2.121 . S
Mn3025 N3032 2.257 . S
Mn3025 N3041 2.282 . S
Mn3025 O3049 2.215 . S
Mn3025 O3051 2.117 . S
C3026 O3048 1.234 . S
C3026 O3049 1.283 . S
C3027 O3039 1.281 . S
C3027 O3040 1.236 . S
C3028 O3050 1.240 . S
C3028 O3051 1.264 . S
O3029 Mn3024 2.095 . S
O3029 C3038 1.250 . S
O3030 Mn3025 2.121 . S
O3030 C3038 1.258 . S
C3031 N3032 1.326 . S
C3031 C3035 1.460 . S
C3031 H3037 0.929 . S
N3032 Mn3025 2.257 . S
N3032 C3031 1.326 . S
N3032 C3036 1.362 . S
C3033 C3034 1.258 . S
C3033 C3036 1.431 . S
C3033 C3053 1.449 . S
C3034 C3033 1.258 . S
C3034 C3035 1.477 . S
C3034 H3054 0.944 . S
C3035 C3031 1.460 . S
C3035 C3034 1.477 . S
C3035 H3055 0.930 1_455 S
C3036 N3032 1.362 . S
C3036 C3033 1.431 . S
C3036 C3046 1.476 . S
H3037 C3031 0.929 . S
C3038 O3029 1.250 . S
C3038 O3030 1.258 . S
O3039 Mn3024 2.162 . S
O3039 C3027 1.281 . S
O3040 Mn3024 2.297 . S
O3040 C3027 1.236 . S
N3041 Mn3025 2.282 . S
N3041 C3042 1.328 . S
N3041 C3046 1.318 . S
C3042 N3041 1.328 . S
C3042 C3043 1.457 . S
C3042 H3047 0.929 . S
C3043 C3042 1.457 . S
C3043 C3044 1.291 . S
C3043 H3056 0.931 . S
C3044 C3043 1.291 . S
C3044 C3045 1.373 . S
C3044 H3057 0.929 . S
C3045 C3044 1.373 . S
C3045 C3046 1.396 . S
C3045 C3052 1.403 . S
C3046 C3036 1.476 . S
C3046 N3041 1.318 . S
C3046 C3045 1.396 . S
H3047 C3042 0.929 . S
O3048 Mn3024 2.385 . S
O3048 C3026 1.234 . S
O3049 Mn3024 2.209 . S
O3049 Mn3025 2.215 . S
O3049 C3026 1.283 . S
O3050 Mn3024 2.094 . S
O3050 C3028 1.240 . S
O3051 Mn3025 2.117 . S
O3051 C3028 1.264 . S
C3052 C3045 1.403 . S
C3052 C3053 1.399 . S
C3052 H3058 0.929 . S
C3053 C3033 1.449 . S
C3053 C3052 1.399 . S
C3053 H3059 0.930 . S
H3054 C3034 0.944 . S
H3055 C3035 0.930 1_655 S
H3056 C3043 0.931 . S
H3057 C3044 0.929 . S
H3058 C3052 0.929 . S
H3059 C3053 0.930 . S
Mn3060 O3065 2.095 . S
Mn3060 O3075 2.162 . S
Mn3060 O3076 2.297 . S
Mn3060 O3084 2.385 . S
Mn3060 O3085 2.209 . S
Mn3060 O3086 2.094 . S
Mn3061 O3066 2.121 . S
Mn3061 N3068 2.257 . S
Mn3061 N3077 2.282 . S
Mn3061 O3085 2.215 . S
Mn3061 O3087 2.117 . S
C3062 O3084 1.234 . S
C3062 O3085 1.283 . S
C3063 O3075 1.281 . S
C3063 O3076 1.236 . S
C3064 O3086 1.240 . S
C3064 O3087 1.264 . S
O3065 Mn3060 2.095 . S
O3065 C3074 1.250 . S
O3066 Mn3061 2.121 . S
O3066 C3074 1.258 . S
C3067 N3068 1.326 . S
C3067 C3071 1.460 . S
C3067 H3073 0.929 . S
N3068 Mn3061 2.257 . S
N3068 C3067 1.326 . S
N3068 C3072 1.362 . S
C3069 C3070 1.258 . S
C3069 C3072 1.431 . S
C3069 C3089 1.449 . S
C3070 C3069 1.258 . S
C3070 C3071 1.477 . S
C3070 H3090 0.931 . S
C3071 C3067 1.460 . S
C3071 C3070 1.477 . S
C3071 H3091 0.930 . S
C3072 N3068 1.362 . S
C3072 C3069 1.431 . S
C3072 C3082 1.476 . S
H3073 C3067 0.929 . S
C3074 O3065 1.250 . S
C3074 O3066 1.258 . S
O3075 Mn3060 2.162 . S
O3075 C3063 1.281 . S
O3076 Mn3060 2.297 . S
O3076 C3063 1.236 . S
N3077 Mn3061 2.282 . S
N3077 C3078 1.328 . S
N3077 C3082 1.318 . S
C3078 N3077 1.328 . S
C3078 C3079 1.457 . S
C3078 H3083 0.929 . S
C3079 C3078 1.457 . S
C3079 C3080 1.291 . S
C3079 H3092 0.931 . S
C3080 C3079 1.291 . S
C3080 C3081 1.373 . S
C3080 H3093 0.929 1_556 S
C3081 C3080 1.373 . S
C3081 C3082 1.396 . S
C3081 C3088 1.390 1_556 S
C3082 C3072 1.476 . S
C3082 N3077 1.318 . S
C3082 C3081 1.396 . S
H3083 C3078 0.929 . S
O3084 Mn3060 2.385 . S
O3084 C3062 1.234 . S
O3085 Mn3060 2.209 . S
O3085 Mn3061 2.215 . S
O3085 C3062 1.283 . S
O3086 Mn3060 2.094 . S
O3086 C3064 1.240 . S
O3087 Mn3061 2.117 . S
O3087 C3064 1.264 . S
C3088 C3081 1.390 1_554 S
C3088 C3089 1.391 1_554 S
C3088 H3094 0.951 . S
C3089 C3069 1.449 . S
C3089 C3088 1.391 1_556 S
C3089 H3095 0.904 1_556 S
H3090 C3070 0.931 . S
H3091 C3071 0.930 . S
H3092 C3079 0.931 . S
H3093 C3080 0.929 1_554 S
H3094 C3088 0.951 . S
H3095 C3089 0.904 1_554 S
Mn3096 O3101 2.095 . S
Mn3096 O3111 2.162 . S
Mn3096 O3112 2.297 . S
Mn3096 O3120 2.385 . S
Mn3096 O3121 2.209 . S
Mn3096 O3122 2.094 . S
Mn3097 O3102 2.121 . S
Mn3097 N3104 2.257 . S
Mn3097 N3113 2.282 . S
Mn3097 O3121 2.215 . S
Mn3097 O3123 2.117 . S
C3098 O3120 1.234 . S
C3098 O3121 1.283 . S
C3099 O3111 1.281 . S
C3099 O3112 1.236 . S
C3100 O3122 1.240 . S
C3100 O3123 1.264 . S
O3101 Mn3096 2.095 . S
O3101 C3110 1.250 . S
O3102 Mn3097 2.121 . S
O3102 C3110 1.258 . S
C3103 N3104 1.326 . S
C3103 C3107 1.460 . S
C3103 H3109 0.929 . S
N3104 Mn3097 2.257 . S
N3104 C3103 1.326 . S
N3104 C3108 1.362 . S
C3105 C3106 1.258 . S
C3105 C3108 1.431 . S
C3105 C3125 1.449 . S
C3106 C3105 1.258 . S
C3106 C3107 1.477 . S
C3106 H3126 0.931 . S
C3107 C3103 1.460 . S
C3107 C3106 1.477 . S
C3107 H3127 0.930 . S
C3108 N3104 1.362 . S
C3108 C3105 1.431 . S
C3108 C3118 1.476 . S
H3109 C3103 0.929 . S
C3110 O3101 1.250 . S
C3110 O3102 1.258 . S
O3111 Mn3096 2.162 . S
O3111 C3099 1.281 . S
O3112 Mn3096 2.297 . S
O3112 C3099 1.236 . S
N3113 Mn3097 2.282 . S
N3113 C3114 1.328 . S
N3113 C3118 1.318 . S
C3114 N3113 1.328 . S
C3114 C3115 1.457 . S
C3114 H3119 0.929 . S
C3115 C3114 1.457 . S
C3115 C3116 1.291 . S
C3115 H3128 0.931 . S
C3116 C3115 1.291 . S
C3116 C3117 1.373 . S
C3116 H3129 0.929 . S
C3117 C3116 1.373 . S
C3117 C3118 1.396 . S
C3117 C3124 1.403 . S
C3118 C3108 1.476 . S
C3118 N3113 1.318 . S
C3118 C3117 1.396 . S
H3119 C3114 0.929 . S
O3120 Mn3096 2.385 . S
O3120 C3098 1.234 . S
O3121 Mn3096 2.209 . S
O3121 Mn3097 2.215 . S
O3121 C3098 1.283 . S
O3122 Mn3096 2.094 . S
O3122 C3100 1.240 . S
O3123 Mn3097 2.117 . S
O3123 C3100 1.264 . S
C3124 C3117 1.403 . S
C3124 C3125 1.399 . S
C3124 H3130 0.929 . S
C3125 C3105 1.449 . S
C3125 C3124 1.399 . S
C3125 H3131 0.930 . S
H3126 C3106 0.931 . S
H3127 C3107 0.930 . S
H3128 C3115 0.931 . S
H3129 C3116 0.929 . S
H3130 C3124 0.929 . S
H3131 C3125 0.930 . S
Mn3132 O3137 2.095 . S
Mn3132 O3147 2.162 . S
Mn3132 O3148 2.297 . S
Mn3132 O3156 2.385 . S
Mn3132 O3157 2.209 . S
Mn3132 O3158 2.094 . S
Mn3133 O3138 2.121 . S
Mn3133 N3140 2.257 . S
Mn3133 N3149 2.282 . S
Mn3133 O3157 2.215 . S
Mn3133 O3159 2.117 . S
C3134 O3156 1.234 . S
C3134 O3157 1.283 . S
C3135 O3147 1.281 . S
C3135 O3148 1.236 . S
C3136 O3158 1.240 . S
C3136 O3159 1.264 . S
O3137 Mn3132 2.095 . S
O3137 C3146 1.250 . S
O3138 Mn3133 2.121 . S
O3138 C3146 1.258 . S
C3139 N3140 1.326 . S
C3139 C3143 1.460 . S
C3139 H3145 0.929 . S
N3140 Mn3133 2.257 . S
N3140 C3139 1.326 . S
N3140 C3144 1.362 . S
C3141 C3142 1.258 . S
C3141 C3144 1.431 . S
C3141 C3161 1.449 . S
C3142 C3141 1.258 . S
C3142 C3143 1.477 . S
C3142 H3162 0.931 . S
C3143 C3139 1.460 . S
C3143 C3142 1.477 . S
C3143 H3163 0.930 . S
C3144 N3140 1.362 . S
C3144 C3141 1.431 . S
C3144 C3154 1.476 . S
H3145 C3139 0.929 . S
C3146 O3137 1.250 . S
C3146 O3138 1.258 . S
O3147 Mn3132 2.162 . S
O3147 C3135 1.281 . S
O3148 Mn3132 2.297 . S
O3148 C3135 1.236 . S
N3149 Mn3133 2.282 . S
N3149 C3150 1.328 . S
N3149 C3154 1.318 . S
C3150 N3149 1.328 . S
C3150 C3151 1.457 . S
C3150 H3155 0.929 . S
C3151 C3150 1.457 . S
C3151 C3152 1.291 . S
C3151 H3164 0.931 . S
C3152 C3151 1.291 . S
C3152 C3153 1.373 . S
C3152 H3165 0.929 . S
C3153 C3152 1.373 . S
C3153 C3154 1.396 . S
C3153 C3160 1.403 . S
C3154 C3144 1.476 . S
C3154 N3149 1.318 . S
C3154 C3153 1.396 . S
H3155 C3150 0.929 . S
O3156 Mn3132 2.385 . S
O3156 C3134 1.234 . S
O3157 Mn3132 2.209 . S
O3157 Mn3133 2.215 . S
O3157 C3134 1.283 . S
O3158 Mn3132 2.094 . S
O3158 C3136 1.240 . S
O3159 Mn3133 2.117 . S
O3159 C3136 1.264 . S
C3160 C3153 1.403 . S
C3160 C3161 1.399 . S
C3160 H3166 0.929 . S
C3161 C3141 1.449 . S
C3161 C3160 1.399 . S
C3161 H3167 0.930 . S
H3162 C3142 0.931 . S
H3163 C3143 0.930 . S
H3164 C3151 0.931 . S
H3165 C3152 0.929 . S
H3166 C3160 0.929 . S
H3167 C3161 0.930 . S
Mn3168 O3173 2.095 . S
Mn3168 O3183 2.162 . S
Mn3168 O3184 2.297 . S
Mn3168 O3192 2.385 . S
Mn3168 O3193 2.209 . S
Mn3168 O3194 2.094 . S
Mn3169 O3174 2.121 . S
Mn3169 N3176 2.257 . S
Mn3169 N3185 2.282 . S
Mn3169 O3193 2.215 . S
Mn3169 O3195 2.117 . S
C3170 O3192 1.234 . S
C3170 O3193 1.283 . S
C3171 O3183 1.281 . S
C3171 O3184 1.236 . S
C3172 O3194 1.240 . S
C3172 O3195 1.264 . S
O3173 Mn3168 2.095 . S
O3173 C3182 1.250 . S
O3174 Mn3169 2.121 . S
O3174 C3182 1.258 . S
C3175 N3176 1.326 . S
C3175 C3179 1.460 . S
C3175 H3181 0.929 . S
N3176 Mn3169 2.257 . S
N3176 C3175 1.326 . S
N3176 C3180 1.362 . S
C3177 C3178 1.258 . S
C3177 C3180 1.431 . S
C3177 C3197 1.449 . S
C3178 C3177 1.258 . S
C3178 C3179 1.477 . S
C3178 H3198 0.944 . S
C3179 C3175 1.460 . S
C3179 C3178 1.477 . S
C3179 H3199 0.930 1_545 S
C3180 N3176 1.362 . S
C3180 C3177 1.431 . S
C3180 C3190 1.476 . S
H3181 C3175 0.929 . S
C3182 O3173 1.250 . S
C3182 O3174 1.258 . S
O3183 Mn3168 2.162 . S
O3183 C3171 1.281 . S
O3184 Mn3168 2.297 . S
O3184 C3171 1.236 . S
N3185 Mn3169 2.282 . S
N3185 C3186 1.328 . S
N3185 C3190 1.318 . S
C3186 N3185 1.328 . S
C3186 C3187 1.457 . S
C3186 H3191 0.929 . S
C3187 C3186 1.457 . S
C3187 C3188 1.291 . S
C3187 H3200 0.931 . S
C3188 C3187 1.291 . S
C3188 C3189 1.373 . S
C3188 H3201 0.929 . S
C3189 C3188 1.373 . S
C3189 C3190 1.396 . S
C3189 C3196 1.403 . S
C3190 C3180 1.476 . S
C3190 N3185 1.318 . S
C3190 C3189 1.396 . S
H3191 C3186 0.929 . S
O3192 Mn3168 2.385 . S
O3192 C3170 1.234 . S
O3193 Mn3168 2.209 . S
O3193 Mn3169 2.215 . S
O3193 C3170 1.283 . S
O3194 Mn3168 2.094 . S
O3194 C3172 1.240 . S
O3195 Mn3169 2.117 . S
O3195 C3172 1.264 . S
C3196 C3189 1.403 . S
C3196 C3197 1.399 . S
C3196 H3202 0.929 . S
C3197 C3177 1.449 . S
C3197 C3196 1.399 . S
C3197 H3203 0.930 . S
H3198 C3178 0.944 . S
H3199 C3179 0.930 1_565 S
H3200 C3187 0.931 . S
H3201 C3188 0.929 . S
H3202 C3196 0.929 . S
H3203 C3197 0.930 . S
Mn3204 O3209 2.095 . S
Mn3204 O3219 2.162 . S
Mn3204 O3220 2.297 . S
Mn3204 O3228 2.385 . S
Mn3204 O3229 2.209 . S
Mn3204 O3230 2.094 . S
Mn3205 O3210 2.121 . S
Mn3205 N3212 2.257 . S
Mn3205 N3221 2.282 . S
Mn3205 O3229 2.215 . S
Mn3205 O3231 2.117 . S
C3206 O3228 1.234 . S
C3206 O3229 1.283 . S
C3207 O3219 1.281 . S
C3207 O3220 1.236 . S
C3208 O3230 1.240 . S
C3208 O3231 1.264 . S
O3209 Mn3204 2.095 . S
O3209 C3218 1.250 . S
O3210 Mn3205 2.121 . S
O3210 C3218 1.258 . S
C3211 N3212 1.326 . S
C3211 C3215 1.460 . S
C3211 H3217 0.929 . S
N3212 Mn3205 2.257 . S
N3212 C3211 1.326 . S
N3212 C3216 1.362 . S
C3213 C3214 1.258 . S
C3213 C3216 1.431 . S
C3213 C3233 1.449 . S
C3214 C3213 1.258 . S
C3214 C3215 1.477 . S
C3214 H3234 0.931 . S
C3215 C3211 1.460 . S
C3215 C3214 1.477 . S
C3215 H3235 0.930 . S
C3216 N3212 1.362 . S
C3216 C3213 1.431 . S
C3216 C3226 1.476 . S
H3217 C3211 0.929 . S
C3218 O3209 1.250 . S
C3218 O3210 1.258 . S
O3219 Mn3204 2.162 . S
O3219 C3207 1.281 . S
O3220 Mn3204 2.297 . S
O3220 C3207 1.236 . S
N3221 Mn3205 2.282 . S
N3221 C3222 1.328 . S
N3221 C3226 1.318 . S
C3222 N3221 1.328 . S
C3222 C3223 1.457 . S
C3222 H3227 0.929 . S
C3223 C3222 1.457 . S
C3223 C3224 1.291 . S
C3223 H3236 0.931 . S
C3224 C3223 1.291 . S
C3224 C3225 1.373 . S
C3224 H3237 0.929 . S
C3225 C3224 1.373 . S
C3225 C3226 1.396 . S
C3225 C3232 1.403 . S
C3226 C3216 1.476 . S
C3226 N3221 1.318 . S
C3226 C3225 1.396 . S
H3227 C3222 0.929 . S
O3228 Mn3204 2.385 . S
O3228 C3206 1.234 . S
O3229 Mn3204 2.209 . S
O3229 Mn3205 2.215 . S
O3229 C3206 1.283 . S
O3230 Mn3204 2.094 . S
O3230 C3208 1.240 . S
O3231 Mn3205 2.117 . S
O3231 C3208 1.264 . S
C3232 C3225 1.403 . S
C3232 C3233 1.399 . S
C3232 H3238 0.929 . S
C3233 C3213 1.449 . S
C3233 C3232 1.399 . S
C3233 H3239 0.930 . S
H3234 C3214 0.931 . S
H3235 C3215 0.930 . S
H3236 C3223 0.931 . S
H3237 C3224 0.929 . S
H3238 C3232 0.929 . S
H3239 C3233 0.930 . S
Mn3240 O3245 2.095 . S
Mn3240 O3255 2.162 . S
Mn3240 O3256 2.297 . S
Mn3240 O3264 2.385 . S
Mn3240 O3265 2.209 . S
Mn3240 O3266 2.094 . S
Mn3241 O3246 2.121 . S
Mn3241 N3248 2.257 . S
Mn3241 N3257 2.282 . S
Mn3241 O3265 2.215 . S
Mn3241 O3267 2.117 . S
C3242 O3264 1.234 . S
C3242 O3265 1.283 . S
C3243 O3255 1.281 . S
C3243 O3256 1.236 . S
C3244 O3266 1.240 . S
C3244 O3267 1.264 . S
O3245 Mn3240 2.095 . S
O3245 C3254 1.250 . S
O3246 Mn3241 2.121 . S
O3246 C3254 1.258 . S
C3247 N3248 1.326 . S
C3247 C3251 1.460 . S
C3247 H3253 0.929 . S
N3248 Mn3241 2.257 . S
N3248 C3247 1.326 . S
N3248 C3252 1.362 . S
C3249 C3250 1.258 . S
C3249 C3252 1.431 . S
C3249 C3269 1.449 . S
C3250 C3249 1.258 . S
C3250 C3251 1.477 . S
C3250 H3270 0.931 . S
C3251 C3247 1.460 . S
C3251 C3250 1.477 . S
C3251 H3271 0.930 . S
C3252 N3248 1.362 . S
C3252 C3249 1.431 . S
C3252 C3262 1.476 . S
H3253 C3247 0.929 . S
C3254 O3245 1.250 . S
C3254 O3246 1.258 . S
O3255 Mn3240 2.162 . S
O3255 C3243 1.281 . S
O3256 Mn3240 2.297 . S
O3256 C3243 1.236 . S
N3257 Mn3241 2.282 . S
N3257 C3258 1.328 . S
N3257 C3262 1.318 . S
C3258 N3257 1.328 . S
C3258 C3259 1.457 . S
C3258 H3263 0.929 . S
C3259 C3258 1.457 . S
C3259 C3260 1.291 . S
C3259 H3272 0.931 . S
C3260 C3259 1.291 . S
C3260 C3261 1.373 . S
C3260 H3273 0.929 1_545 S
C3261 C3260 1.373 . S
C3261 C3262 1.396 . S
C3261 C3268 1.391 1_545 S
C3262 C3252 1.476 . S
C3262 N3257 1.318 . S
C3262 C3261 1.396 . S
H3263 C3258 0.929 . S
O3264 Mn3240 2.385 . S
O3264 C3242 1.234 . S
O3265 Mn3240 2.209 . S
O3265 Mn3241 2.215 . S
O3265 C3242 1.283 . S
O3266 Mn3240 2.094 . S
O3266 C3244 1.240 . S
O3267 Mn3241 2.117 . S
O3267 C3244 1.264 . S
C3268 C3261 1.391 1_565 S
C3268 C3269 1.391 1_565 S
C3268 H3274 0.951 . S
C3269 C3249 1.449 . S
C3269 C3268 1.391 1_545 S
C3269 H3275 0.904 1_545 S
H3270 C3250 0.931 . S
H3271 C3251 0.930 . S
H3272 C3259 0.931 . S
H3273 C3260 0.929 1_565 S
H3274 C3268 0.951 . S
H3275 C3269 0.904 1_565 S
Mn3276 O3281 2.095 . S
Mn3276 O3291 2.162 1_554 S
Mn3276 O3292 2.297 1_554 S
Mn3276 O3300 2.385 1_554 S
Mn3276 O3301 2.209 1_554 S
Mn3276 O3302 2.094 . S
Mn3277 O3282 2.121 . S
Mn3277 N3284 2.257 1_554 S
Mn3277 N3293 2.282 1_554 S
Mn3277 O3301 2.215 1_554 S
Mn3277 O3303 2.117 . S
C3278 O3300 1.234 . S
C3278 O3301 1.283 . S
C3279 O3291 1.281 . S
C3279 O3292 1.236 . S
C3280 O3302 1.240 . S
C3280 O3303 1.264 . S
O3281 Mn3276 2.095 . S
O3281 C3290 1.250 . S
O3282 Mn3277 2.121 . S
O3282 C3290 1.258 . S
C3283 N3284 1.326 . S
C3283 C3287 1.460 . S
C3283 H3289 0.929 . S
N3284 Mn3277 2.257 1_556 S
N3284 C3283 1.326 . S
N3284 C3288 1.362 . S
C3285 C3286 1.258 . S
C3285 C3288 1.431 . S
C3285 C3305 1.449 . S
C3286 C3285 1.258 . S
C3286 C3287 1.477 . S
C3286 H3306 0.931 . S
C3287 C3283 1.460 . S
C3287 C3286 1.477 . S
C3287 H3307 0.930 . S
C3288 N3284 1.362 . S
C3288 C3285 1.431 . S
C3288 C3298 1.476 . S
H3289 C3283 0.929 . S
C3290 O3281 1.250 . S
C3290 O3282 1.258 . S
O3291 Mn3276 2.162 1_556 S
O3291 C3279 1.281 . S
O3292 Mn3276 2.297 1_556 S
O3292 C3279 1.236 . S
N3293 Mn3277 2.282 1_556 S
N3293 C3294 1.328 . S
N3293 C3298 1.318 . S
C3294 N3293 1.328 . S
C3294 C3295 1.457 . S
C3294 H3299 0.929 1_556 S
C3295 C3294 1.457 . S
C3295 C3296 1.291 . S
C3295 H3308 0.931 . S
C3296 C3295 1.291 . S
C3296 C3297 1.373 . S
C3296 H3309 0.929 . S
C3297 C3296 1.373 . S
C3297 C3298 1.396 . S
C3297 C3304 1.403 . S
C3298 C3288 1.476 . S
C3298 N3293 1.318 . S
C3298 C3297 1.396 . S
H3299 C3294 0.929 1_554 S
O3300 Mn3276 2.385 1_556 S
O3300 C3278 1.234 . S
O3301 Mn3276 2.209 1_556 S
O3301 Mn3277 2.215 1_556 S
O3301 C3278 1.283 . S
O3302 Mn3276 2.094 . S
O3302 C3280 1.240 . S
O3303 Mn3277 2.117 . S
O3303 C3280 1.264 . S
C3304 C3297 1.403 . S
C3304 C3305 1.399 . S
C3304 H3310 0.929 . S
C3305 C3285 1.449 . S
C3305 C3304 1.399 . S
C3305 H3311 0.930 . S
H3306 C3286 0.931 . S
H3307 C3287 0.930 . S
H3308 C3295 0.931 . S
H3309 C3296 0.929 . S
H3310 C3304 0.929 . S
H3311 C3305 0.930 . S
Mn3312 O3317 2.095 . S
Mn3312 O3327 2.162 . S
Mn3312 O3328 2.297 . S
Mn3312 O3336 2.385 . S
Mn3312 O3337 2.209 . S
Mn3312 O3338 2.094 . S
Mn3313 O3318 2.121 . S
Mn3313 N3320 2.257 . S
Mn3313 N3329 2.282 . S
Mn3313 O3337 2.215 . S
Mn3313 O3339 2.117 . S
C3314 O3336 1.234 . S
C3314 O3337 1.283 . S
C3315 O3327 1.281 . S
C3315 O3328 1.236 . S
C3316 O3338 1.240 . S
C3316 O3339 1.264 . S
O3317 Mn3312 2.095 . S
O3317 C3326 1.250 . S
O3318 Mn3313 2.121 . S
O3318 C3326 1.258 . S
C3319 N3320 1.326 . S
C3319 C3323 1.460 . S
C3319 H3325 0.929 . S
N3320 Mn3313 2.257 . S
N3320 C3319 1.326 . S
N3320 C3324 1.362 . S
C3321 C3322 1.258 . S
C3321 C3324 1.431 . S
C3321 C3341 1.449 . S
C3322 C3321 1.258 . S
C3322 C3323 1.477 . S
C3322 H3342 0.931 . S
C3323 C3319 1.460 . S
C3323 C3322 1.477 . S
C3323 H3343 0.930 . S
C3324 N3320 1.362 . S
C3324 C3321 1.431 . S
C3324 C3334 1.476 . S
H3325 C3319 0.929 . S
C3326 O3317 1.250 . S
C3326 O3318 1.258 . S
O3327 Mn3312 2.162 . S
O3327 C3315 1.281 . S
O3328 Mn3312 2.297 . S
O3328 C3315 1.236 . S
N3329 Mn3313 2.282 . S
N3329 C3330 1.328 . S
N3329 C3334 1.318 . S
C3330 N3329 1.328 . S
C3330 C3331 1.457 . S
C3330 H3335 0.929 . S
C3331 C3330 1.457 . S
C3331 C3332 1.291 . S
C3331 H3344 0.931 . S
C3332 C3331 1.291 . S
C3332 C3333 1.373 . S
C3332 H3345 0.929 . S
C3333 C3332 1.373 . S
C3333 C3334 1.396 . S
C3333 C3340 1.403 . S
C3334 C3324 1.476 . S
C3334 N3329 1.318 . S
C3334 C3333 1.396 . S
H3335 C3330 0.929 . S
O3336 Mn3312 2.385 . S
O3336 C3314 1.234 . S
O3337 Mn3312 2.209 . S
O3337 Mn3313 2.215 . S
O3337 C3314 1.283 . S
O3338 Mn3312 2.094 . S
O3338 C3316 1.240 . S
O3339 Mn3313 2.117 . S
O3339 C3316 1.264 . S
C3340 C3333 1.403 . S
C3340 C3341 1.399 . S
C3340 H3346 0.929 . S
C3341 C3321 1.449 . S
C3341 C3340 1.399 . S
C3341 H3347 0.930 . S
H3342 C3322 0.931 . S
H3343 C3323 0.930 . S
H3344 C3331 0.931 . S
H3345 C3332 0.929 . S
H3346 C3340 0.929 . S
H3347 C3341 0.930 . S
Mn3348 O3353 2.095 . S
Mn3348 O3363 2.162 1_556 S
Mn3348 O3364 2.297 1_556 S
Mn3348 O3372 2.385 1_556 S
Mn3348 O3373 2.209 1_556 S
Mn3348 O3374 2.094 . S
Mn3349 O3354 2.121 . S
Mn3349 N3356 2.257 1_556 S
Mn3349 N3365 2.282 1_556 S
Mn3349 O3373 2.215 1_556 S
Mn3349 O3375 2.117 . S
C3350 O3372 1.234 . S
C3350 O3373 1.283 . S
C3351 O3363 1.281 . S
C3351 O3364 1.236 . S
C3352 O3374 1.240 . S
C3352 O3375 1.264 . S
O3353 Mn3348 2.095 . S
O3353 C3362 1.250 . S
O3354 Mn3349 2.121 . S
O3354 C3362 1.258 . S
C3355 N3356 1.326 . S
C3355 C3359 1.460 . S
C3355 H3361 0.929 . S
N3356 Mn3349 2.257 1_554 S
N3356 C3355 1.326 . S
N3356 C3360 1.362 . S
C3357 C3358 1.258 . S
C3357 C3360 1.431 . S
C3357 C3377 1.449 . S
C3358 C3357 1.258 . S
C3358 C3359 1.477 . S
C3358 H3378 0.944 . S
C3359 C3355 1.460 . S
C3359 C3358 1.477 . S
C3359 H3379 0.930 1_565 S
C3360 N3356 1.362 . S
C3360 C3357 1.431 . S
C3360 C3370 1.476 . S
H3361 C3355 0.929 . S
C3362 O3353 1.250 . S
C3362 O3354 1.258 . S
O3363 Mn3348 2.162 1_554 S
O3363 C3351 1.281 . S
O3364 Mn3348 2.297 1_554 S
O3364 C3351 1.236 . S
N3365 Mn3349 2.282 1_554 S
N3365 C3366 1.328 . S
N3365 C3370 1.318 . S
C3366 N3365 1.328 . S
C3366 C3367 1.457 . S
C3366 H3371 0.929 1_554 S
C3367 C3366 1.457 . S
C3367 C3368 1.291 . S
C3367 H3380 0.931 . S
C3368 C3367 1.291 . S
C3368 C3369 1.373 . S
C3368 H3381 0.929 . S
C3369 C3368 1.373 . S
C3369 C3370 1.396 . S
C3369 C3376 1.403 . S
C3370 C3360 1.476 . S
C3370 N3365 1.318 . S
C3370 C3369 1.396 . S
H3371 C3366 0.929 1_556 S
O3372 Mn3348 2.385 1_554 S
O3372 C3350 1.234 . S
O3373 Mn3348 2.209 1_554 S
O3373 Mn3349 2.215 1_554 S
O3373 C3350 1.283 . S
O3374 Mn3348 2.094 . S
O3374 C3352 1.240 . S
O3375 Mn3349 2.117 . S
O3375 C3352 1.264 . S
C3376 C3369 1.403 . S
C3376 C3377 1.399 . S
C3376 H3382 0.929 . S
C3377 C3357 1.449 . S
C3377 C3376 1.399 . S
C3377 H3383 0.930 . S
H3378 C3358 0.944 . S
H3379 C3359 0.930 1_545 S
H3380 C3367 0.931 . S
H3381 C3368 0.929 . S
H3382 C3376 0.929 . S
H3383 C3377 0.930 . S
Mn3384 O3389 2.095 . S
Mn3384 O3399 2.162 . S
Mn3384 O3400 2.297 . S
Mn3384 O3408 2.385 . S
Mn3384 O3409 2.209 . S
Mn3384 O3410 2.094 . S
Mn3385 O3390 2.121 . S
Mn3385 N3392 2.257 . S
Mn3385 N3401 2.282 . S
Mn3385 O3409 2.215 . S
Mn3385 O3411 2.117 . S
C3386 O3408 1.234 . S
C3386 O3409 1.283 . S
C3387 O3399 1.281 . S
C3387 O3400 1.236 . S
C3388 O3410 1.240 . S
C3388 O3411 1.264 . S
O3389 Mn3384 2.095 . S
O3389 C3398 1.250 . S
O3390 Mn3385 2.121 . S
O3390 C3398 1.258 . S
C3391 N3392 1.326 . S
C3391 C3395 1.460 . S
C3391 H3397 0.929 . S
N3392 Mn3385 2.257 . S
N3392 C3391 1.326 . S
N3392 C3396 1.362 . S
C3393 C3394 1.258 . S
C3393 C3396 1.431 . S
C3393 C3413 1.449 . S
C3394 C3393 1.258 . S
C3394 C3395 1.477 . S
C3394 H3414 0.931 . S
C3395 C3391 1.460 . S
C3395 C3394 1.477 . S
C3395 H3415 0.930 . S
C3396 N3392 1.362 . S
C3396 C3393 1.431 . S
C3396 C3406 1.476 . S
H3397 C3391 0.929 . S
C3398 O3389 1.250 . S
C3398 O3390 1.258 . S
O3399 Mn3384 2.162 . S
O3399 C3387 1.281 . S
O3400 Mn3384 2.297 . S
O3400 C3387 1.236 . S
N3401 Mn3385 2.282 . S
N3401 C3402 1.328 . S
N3401 C3406 1.318 . S
C3402 N3401 1.328 . S
C3402 C3403 1.457 . S
C3402 H3407 0.929 . S
C3403 C3402 1.457 . S
C3403 C3404 1.291 . S
C3403 H3416 0.931 . S
C3404 C3403 1.291 . S
C3404 C3405 1.373 . S
C3404 H3417 0.929 1_565 S
C3405 C3404 1.373 . S
C3405 C3406 1.396 . S
C3405 C3412 1.390 1_565 S
C3406 C3396 1.476 . S
C3406 N3401 1.318 . S
C3406 C3405 1.396 . S
H3407 C3402 0.929 . S
O3408 Mn3384 2.385 . S
O3408 C3386 1.234 . S
O3409 Mn3384 2.209 . S
O3409 Mn3385 2.215 . S
O3409 C3386 1.283 . S
O3410 Mn3384 2.094 . S
O3410 C3388 1.240 . S
O3411 Mn3385 2.117 . S
O3411 C3388 1.264 . S
C3412 C3405 1.390 1_545 S
C3412 C3413 1.391 1_545 S
C3412 H3418 0.951 . S
C3413 C3393 1.449 . S
C3413 C3412 1.391 1_565 S
C3413 H3419 0.904 1_565 S
H3414 C3394 0.931 . S
H3415 C3395 0.930 . S
H3416 C3403 0.931 . S
H3417 C3404 0.929 1_545 S
H3418 C3412 0.951 . S
H3419 C3413 0.904 1_545 S
Mn3420 O3425 2.095 . S
Mn3420 O3435 2.162 . S
Mn3420 O3436 2.297 . S
Mn3420 O3444 2.385 . S
Mn3420 O3445 2.209 . S
Mn3420 O3446 2.094 . S
Mn3421 O3426 2.121 . S
Mn3421 N3428 2.257 . S
Mn3421 N3437 2.282 . S
Mn3421 O3445 2.215 . S
Mn3421 O3447 2.117 . S
C3422 O3444 1.234 . S
C3422 O3445 1.283 . S
C3423 O3435 1.281 . S
C3423 O3436 1.236 . S
C3424 O3446 1.240 . S
C3424 O3447 1.264 . S
O3425 Mn3420 2.095 . S
O3425 C3434 1.250 . S
O3426 Mn3421 2.121 . S
O3426 C3434 1.258 . S
C3427 N3428 1.326 . S
C3427 C3431 1.460 . S
C3427 H3433 0.929 . S
N3428 Mn3421 2.257 . S
N3428 C3427 1.326 . S
N3428 C3432 1.362 . S
C3429 C3430 1.258 . S
C3429 C3432 1.431 . S
C3429 C3449 1.449 . S
C3430 C3429 1.258 . S
C3430 C3431 1.477 . S
C3430 H3450 0.931 . S
C3431 C3427 1.460 . S
C3431 C3430 1.477 . S
C3431 H3451 0.930 . S
C3432 N3428 1.362 . S
C3432 C3429 1.431 . S
C3432 C3442 1.476 . S
H3433 C3427 0.929 . S
C3434 O3425 1.250 . S
C3434 O3426 1.258 . S
O3435 Mn3420 2.162 . S
O3435 C3423 1.281 . S
O3436 Mn3420 2.297 . S
O3436 C3423 1.236 . S
N3437 Mn3421 2.282 . S
N3437 C3438 1.328 . S
N3437 C3442 1.318 . S
C3438 N3437 1.328 . S
C3438 C3439 1.457 . S
C3438 H3443 0.929 . S
C3439 C3438 1.457 . S
C3439 C3440 1.291 . S
C3439 H3452 0.931 . S
C3440 C3439 1.291 . S
C3440 C3441 1.373 . S
C3440 H3453 0.929 1_545 S
C3441 C3440 1.373 . S
C3441 C3442 1.396 . S
C3441 C3448 1.390 1_545 S
C3442 C3432 1.476 . S
C3442 N3437 1.318 . S
C3442 C3441 1.396 . S
H3443 C3438 0.929 . S
O3444 Mn3420 2.385 . S
O3444 C3422 1.234 . S
O3445 Mn3420 2.209 . S
O3445 Mn3421 2.215 . S
O3445 C3422 1.283 . S
O3446 Mn3420 2.094 . S
O3446 C3424 1.240 . S
O3447 Mn3421 2.117 . S
O3447 C3424 1.264 . S
C3448 C3441 1.390 1_565 S
C3448 C3449 1.391 1_565 S
C3448 H3454 0.951 . S
C3449 C3429 1.449 . S
C3449 C3448 1.391 1_545 S
C3449 H3455 0.904 1_545 S
H3450 C3430 0.931 . S
H3451 C3431 0.930 . S
H3452 C3439 0.931 . S
H3453 C3440 0.929 1_565 S
H3454 C3448 0.951 . S
H3455 C3449 0.904 1_565 S
C3456 C3457 1.387 . S
C3456 H3460 0.950 . S
C3456 C3465 1.390 . S
C3457 C3456 1.387 . S
C3457 C3459 1.387 . S
H3458 C3465 0.950 . S
C3459 C3457 1.387 . S
C3459 C3461 1.390 . S
C3459 H3463 0.950 . S
H3460 C3456 0.950 . S
C3461 C3459 1.390 . S
C3461 C3462 1.387 . S
C3461 H3464 0.950 . S
C3462 C3461 1.387 . S
C3462 C3465 1.387 . S
H3463 C3459 0.950 . S
H3464 C3461 0.950 . S
C3465 C3456 1.390 . S
C3465 H3458 0.950 . S
C3465 C3462 1.387 . S
C3466 C3467 1.387 . S
C3466 H3470 0.950 . S
C3466 C3475 1.390 . S
C3467 C3466 1.387 . S
C3467 C3469 1.387 . S
H3468 C3475 0.950 . S
C3469 C3467 1.387 . S
C3469 C3471 1.390 . S
C3469 H3473 0.950 . S
H3470 C3466 0.950 . S
C3471 C3469 1.390 . S
C3471 C3472 1.387 . S
C3471 H3474 0.950 . S
C3472 C3471 1.387 . S
C3472 C3475 1.387 . S
H3473 C3469 0.950 . S
H3474 C3471 0.950 . S
C3475 C3466 1.390 . S
C3475 H3468 0.950 . S
C3475 C3472 1.387 . S
C3476 C3477 1.387 . S
C3476 H3480 0.950 . S
C3476 C3485 1.390 . S
C3477 C3476 1.387 . S
C3477 C3479 1.387 . S
H3478 C3485 0.950 . S
C3479 C3477 1.387 . S
C3479 C3481 1.390 . S
C3479 H3483 0.950 . S
H3480 C3476 0.950 . S
C3481 C3479 1.390 . S
C3481 C3482 1.387 . S
C3481 H3484 0.950 . S
C3482 C3481 1.387 . S
C3482 C3485 1.387 . S
H3483 C3479 0.950 . S
H3484 C3481 0.950 . S
C3485 C3476 1.390 . S
C3485 H3478 0.950 . S
C3485 C3482 1.387 . S
C3486 C3487 1.387 . S
C3486 H3490 0.950 . S
C3486 C3495 1.390 . S
C3487 C3486 1.387 . S
C3487 C3489 1.387 . S
H3488 C3495 0.950 . S
C3489 C3487 1.387 . S
C3489 C3491 1.390 . S
C3489 H3493 0.950 . S
H3490 C3486 0.950 . S
C3491 C3489 1.390 . S
C3491 C3492 1.387 . S
C3491 H3494 0.950 . S
C3492 C3491 1.387 . S
C3492 C3495 1.387 . S
H3493 C3489 0.950 . S
H3494 C3491 0.950 . S
C3495 C3486 1.390 . S
C3495 H3488 0.950 . S
C3495 C3492 1.387 . S
C3496 C3497 1.387 . S
C3496 H3500 0.950 . S
C3496 C3505 1.390 . S
C3497 C3496 1.387 . S
C3497 C3499 1.387 . S
H3498 C3505 0.950 . S
C3499 C3497 1.387 . S
C3499 C3501 1.390 . S
C3499 H3503 0.950 . S
H3500 C3496 0.950 . S
C3501 C3499 1.390 . S
C3501 C3502 1.387 . S
C3501 H3504 0.950 . S
C3502 C3501 1.387 . S
C3502 C3505 1.387 . S
H3503 C3499 0.950 . S
H3504 C3501 0.950 . S
C3505 C3496 1.390 . S
C3505 H3498 0.950 . S
C3505 C3502 1.387 . S
C3506 C3507 1.387 . S
C3506 H3510 0.950 . S
C3506 C3515 1.390 . S
C3507 C3506 1.387 . S
C3507 C3509 1.387 . S
H3508 C3515 0.950 . S
C3509 C3507 1.387 . S
C3509 C3511 1.390 . S
C3509 H3513 0.950 . S
H3510 C3506 0.950 . S
C3511 C3509 1.390 . S
C3511 C3512 1.387 . S
C3511 H3514 0.950 . S
C3512 C3511 1.387 . S
C3512 C3515 1.387 . S
H3513 C3509 0.950 . S
H3514 C3511 0.950 . S
C3515 C3506 1.390 . S
C3515 H3508 0.950 . S
C3515 C3512 1.387 . S
C3516 C3517 1.387 . S
C3516 H3520 0.950 . S
C3516 C3525 1.390 . S
C3517 C3516 1.387 . S
C3517 C3519 1.387 . S
H3518 C3525 0.950 . S
C3519 C3517 1.387 . S
C3519 C3521 1.390 . S
C3519 H3523 0.950 . S
H3520 C3516 0.950 . S
C3521 C3519 1.390 . S
C3521 C3522 1.387 . S
C3521 H3524 0.950 . S
C3522 C3521 1.387 . S
C3522 C3525 1.387 . S
H3523 C3519 0.950 . S
H3524 C3521 0.950 . S
C3525 C3516 1.390 . S
C3525 H3518 0.950 . S
C3525 C3522 1.387 . S
C3526 C3527 1.387 . S
C3526 H3530 0.950 . S
C3526 C3535 1.390 . S
C3527 C3526 1.387 . S
C3527 C3529 1.387 . S
H3528 C3535 0.950 . S
C3529 C3527 1.387 . S
C3529 C3531 1.390 . S
C3529 H3533 0.950 . S
H3530 C3526 0.950 . S
C3531 C3529 1.390 . S
C3531 C3532 1.387 . S
C3531 H3534 0.950 . S
C3532 C3531 1.387 . S
C3532 C3535 1.387 . S
H3533 C3529 0.950 . S
H3534 C3531 0.950 . S
C3535 C3526 1.390 . S
C3535 H3528 0.950 . S
C3535 C3532 1.387 . S
C3536 C3537 1.387 . S
C3536 H3540 0.950 . S
C3536 C3545 1.390 . S
C3537 C3536 1.387 . S
C3537 C3539 1.387 . S
H3538 C3545 0.950 . S
C3539 C3537 1.387 . S
C3539 C3541 1.390 . S
C3539 H3543 0.950 . S
H3540 C3536 0.950 . S
C3541 C3539 1.390 . S
C3541 C3542 1.387 . S
C3541 H3544 0.950 . S
C3542 C3541 1.387 . S
C3542 C3545 1.387 . S
H3543 C3539 0.950 . S
H3544 C3541 0.950 . S
C3545 C3536 1.390 . S
C3545 H3538 0.950 . S
C3545 C3542 1.387 . S
C3546 C3547 1.387 . S
C3546 H3550 0.950 . S
C3546 C3555 1.390 . S
C3547 C3546 1.387 . S
C3547 C3549 1.387 . S
H3548 C3555 0.950 . S
C3549 C3547 1.387 . S
C3549 C3551 1.390 . S
C3549 H3553 0.950 . S
H3550 C3546 0.950 . S
C3551 C3549 1.390 . S
C3551 C3552 1.387 . S
C3551 H3554 0.950 . S
C3552 C3551 1.387 . S
C3552 C3555 1.387 . S
H3553 C3549 0.950 . S
H3554 C3551 0.950 . S
C3555 C3546 1.390 . S
C3555 H3548 0.950 . S
C3555 C3552 1.387 . S
C3556 C3557 1.387 . S
C3556 H3560 0.950 . S
C3556 C3565 1.390 . S
C3557 C3556 1.387 . S
C3557 C3559 1.387 . S
H3558 C3565 0.950 . S
C3559 C3557 1.387 . S
C3559 C3561 1.390 . S
C3559 H3563 0.950 . S
H3560 C3556 0.950 . S
C3561 C3559 1.390 . S
C3561 C3562 1.387 . S
C3561 H3564 0.950 . S
C3562 C3561 1.387 . S
C3562 C3565 1.387 . S
H3563 C3559 0.950 . S
H3564 C3561 0.950 . S
C3565 C3556 1.390 . S
C3565 H3558 0.950 . S
C3565 C3562 1.387 . S
C3566 C3567 1.387 . S
C3566 H3570 0.950 . S
C3566 C3575 1.390 . S
C3567 C3566 1.387 . S
C3567 C3569 1.387 . S
H3568 C3575 0.950 . S
C3569 C3567 1.387 . S
C3569 C3571 1.390 . S
C3569 H3573 0.950 . S
H3570 C3566 0.950 . S
C3571 C3569 1.390 . S
C3571 C3572 1.387 . S
C3571 H3574 0.950 . S
C3572 C3571 1.387 . S
C3572 C3575 1.387 . S
H3573 C3569 0.950 . S
H3574 C3571 0.950 . S
C3575 C3566 1.390 . S
C3575 H3568 0.950 . S
C3575 C3572 1.387 . S
C3576 C3577 1.387 . S
C3576 H3580 0.950 . S
C3576 C3585 1.390 . S
C3577 C3576 1.387 . S
C3577 C3579 1.387 . S
H3578 C3585 0.950 . S
C3579 C3577 1.387 . S
C3579 C3581 1.390 . S
C3579 H3583 0.950 . S
H3580 C3576 0.950 . S
C3581 C3579 1.390 . S
C3581 C3582 1.387 . S
C3581 H3584 0.950 . S
C3582 C3581 1.387 . S
C3582 C3585 1.387 . S
H3583 C3579 0.950 . S
H3584 C3581 0.950 . S
C3585 C3576 1.390 . S
C3585 H3578 0.950 . S
C3585 C3582 1.387 . S
C3586 C3587 1.387 . S
C3586 H3590 0.950 . S
C3586 C3595 1.390 . S
C3587 C3586 1.387 . S
C3587 C3589 1.387 . S
H3588 C3595 0.950 . S
C3589 C3587 1.387 . S
C3589 C3591 1.390 . S
C3589 H3593 0.950 . S
H3590 C3586 0.950 . S
C3591 C3589 1.390 . S
C3591 C3592 1.387 . S
C3591 H3594 0.950 . S
C3592 C3591 1.387 . S
C3592 C3595 1.387 . S
H3593 C3589 0.950 . S
H3594 C3591 0.950 . S
C3595 C3586 1.390 . S
C3595 H3588 0.950 . S
C3595 C3592 1.387 . S
C3596 C3597 1.387 . S
C3596 H3600 0.950 . S
C3596 C3605 1.390 . S
C3597 C3596 1.387 . S
C3597 C3599 1.387 . S
H3598 C3605 0.950 . S
C3599 C3597 1.387 . S
C3599 C3601 1.390 . S
C3599 H3603 0.950 . S
H3600 C3596 0.950 . S
C3601 C3599 1.390 . S
C3601 C3602 1.387 . S
C3601 H3604 0.950 . S
C3602 C3601 1.387 . S
C3602 C3605 1.387 . S
H3603 C3599 0.950 . S
H3604 C3601 0.950 . S
C3605 C3596 1.390 . S
C3605 H3598 0.950 . S
C3605 C3602 1.387 . S
C3606 C3607 1.387 . S
C3606 H3610 0.950 . S
C3606 C3615 1.390 . S
C3607 C3606 1.387 . S
C3607 C3609 1.387 . S
H3608 C3615 0.950 . S
C3609 C3607 1.387 . S
C3609 C3611 1.390 . S
C3609 H3613 0.950 . S
H3610 C3606 0.950 . S
C3611 C3609 1.390 . S
C3611 C3612 1.387 . S
C3611 H3614 0.950 . S
C3612 C3611 1.387 . S
C3612 C3615 1.387 . S
H3613 C3609 0.950 . S
H3614 C3611 0.950 . S
C3615 C3606 1.390 . S
C3615 H3608 0.950 . S
C3615 C3612 1.387 . S
C3616 C3617 1.387 . S
C3616 H3620 0.950 . S
C3616 C3625 1.390 . S
C3617 C3616 1.387 . S
C3617 C3619 1.387 . S
H3618 C3625 0.950 . S
C3619 C3617 1.387 . S
C3619 C3621 1.390 . S
C3619 H3623 0.950 . S
H3620 C3616 0.950 . S
C3621 C3619 1.390 . S
C3621 C3622 1.387 . S
C3621 H3624 0.950 . S
C3622 C3621 1.387 . S
C3622 C3625 1.387 . S
H3623 C3619 0.950 . S
H3624 C3621 0.950 . S
C3625 C3616 1.390 . S
C3625 H3618 0.950 . S
C3625 C3622 1.387 . S
C3626 C3627 1.387 . S
C3626 H3630 0.950 . S
C3626 C3635 1.390 . S
C3627 C3626 1.387 . S
C3627 C3629 1.387 . S
H3628 C3635 0.950 . S
C3629 C3627 1.387 . S
C3629 C3631 1.390 . S
C3629 H3633 0.950 . S
H3630 C3626 0.950 . S
C3631 C3629 1.390 . S
C3631 C3632 1.387 . S
C3631 H3634 0.950 . S
C3632 C3631 1.387 . S
C3632 C3635 1.387 . S
H3633 C3629 0.950 . S
H3634 C3631 0.950 . S
C3635 C3626 1.390 . S
C3635 H3628 0.950 . S
C3635 C3632 1.387 . S
C3636 C3637 1.387 . S
C3636 H3640 0.950 . S
C3636 C3645 1.390 . S
C3637 C3636 1.387 . S
C3637 C3639 1.387 . S
H3638 C3645 0.950 . S
C3639 C3637 1.387 . S
C3639 C3641 1.390 . S
C3639 H3643 0.950 . S
H3640 C3636 0.950 . S
C3641 C3639 1.390 . S
C3641 C3642 1.387 . S
C3641 H3644 0.950 . S
C3642 C3641 1.387 . S
C3642 C3645 1.387 . S
H3643 C3639 0.950 . S
H3644 C3641 0.950 . S
C3645 C3636 1.390 . S
C3645 H3638 0.950 . S
C3645 C3642 1.387 . S
C3646 C3647 1.387 . S
C3646 H3650 0.950 . S
C3646 C3655 1.390 . S
C3647 C3646 1.387 . S
C3647 C3649 1.387 . S
H3648 C3655 0.950 . S
C3649 C3647 1.387 . S
C3649 C3651 1.390 . S
C3649 H3653 0.950 . S
H3650 C3646 0.950 . S
C3651 C3649 1.390 . S
C3651 C3652 1.387 . S
C3651 H3654 0.950 . S
C3652 C3651 1.387 . S
C3652 C3655 1.387 . S
H3653 C3649 0.950 . S
H3654 C3651 0.950 . S
C3655 C3646 1.390 . S
C3655 H3648 0.950 . S
C3655 C3652 1.387 . S
C3656 C3657 1.387 . S
C3656 H3660 0.950 . S
C3656 C3665 1.390 . S
C3657 C3656 1.387 . S
C3657 C3659 1.387 . S
H3658 C3665 0.950 . S
C3659 C3657 1.387 . S
C3659 C3661 1.390 . S
C3659 H3663 0.950 . S
H3660 C3656 0.950 . S
C3661 C3659 1.390 . S
C3661 C3662 1.387 . S
C3661 H3664 0.950 . S
C3662 C3661 1.387 . S
C3662 C3665 1.387 . S
H3663 C3659 0.950 . S
H3664 C3661 0.950 . S
C3665 C3656 1.390 . S
C3665 H3658 0.950 . S
C3665 C3662 1.387 . S
C3666 C3667 1.387 . S
C3666 H3670 0.950 . S
C3666 C3675 1.390 . S
C3667 C3666 1.387 . S
C3667 C3669 1.387 . S
H3668 C3675 0.950 . S
C3669 C3667 1.387 . S
C3669 C3671 1.390 . S
C3669 H3673 0.950 . S
H3670 C3666 0.950 . S
C3671 C3669 1.390 . S
C3671 C3672 1.387 . S
C3671 H3674 0.950 . S
C3672 C3671 1.387 . S
C3672 C3675 1.387 . S
H3673 C3669 0.950 . S
H3674 C3671 0.950 . S
C3675 C3666 1.390 . S
C3675 H3668 0.950 . S
C3675 C3672 1.387 . S
C3676 C3677 1.387 . S
C3676 H3680 0.950 . S
C3676 C3685 1.390 . S
C3677 C3676 1.387 . S
C3677 C3679 1.387 . S
H3678 C3685 0.950 . S
C3679 C3677 1.387 . S
C3679 C3681 1.390 . S
C3679 H3683 0.950 . S
H3680 C3676 0.950 . S
C3681 C3679 1.390 . S
C3681 C3682 1.387 . S
C3681 H3684 0.950 . S
C3682 C3681 1.387 . S
C3682 C3685 1.387 . S
H3683 C3679 0.950 . S
H3684 C3681 0.950 . S
C3685 C3676 1.390 . S
C3685 H3678 0.950 . S
C3685 C3682 1.387 . S
C3686 C3687 1.387 . S
C3686 H3690 0.950 . S
C3686 C3695 1.390 . S
C3687 C3686 1.387 . S
C3687 C3689 1.387 . S
H3688 C3695 0.950 . S
C3689 C3687 1.387 . S
C3689 C3691 1.390 . S
C3689 H3693 0.950 . S
H3690 C3686 0.950 . S
C3691 C3689 1.390 . S
C3691 C3692 1.387 . S
C3691 H3694 0.950 . S
C3692 C3691 1.387 . S
C3692 C3695 1.387 . S
H3693 C3689 0.950 . S
H3694 C3691 0.950 . S
C3695 C3686 1.390 . S
C3695 H3688 0.950 . S
C3695 C3692 1.387 . S
C3696 C3697 1.387 . S
C3696 H3700 0.950 . S
C3696 C3705 1.390 . S
C3697 C3696 1.387 . S
C3697 C3699 1.387 . S
H3698 C3705 0.950 . S
C3699 C3697 1.387 . S
C3699 C3701 1.390 . S
C3699 H3703 0.950 . S
H3700 C3696 0.950 . S
C3701 C3699 1.390 . S
C3701 C3702 1.387 . S
C3701 H3704 0.950 . S
C3702 C3701 1.387 . S
C3702 C3705 1.387 . S
H3703 C3699 0.950 . S
H3704 C3701 0.950 . S
C3705 C3696 1.390 . S
C3705 H3698 0.950 . S
C3705 C3702 1.387 . S
C3706 C3707 1.387 . S
C3706 H3710 0.950 . S
C3706 C3715 1.390 . S
C3707 C3706 1.387 . S
C3707 C3709 1.387 . S
H3708 C3715 0.950 . S
C3709 C3707 1.387 . S
C3709 C3711 1.390 . S
C3709 H3713 0.950 . S
H3710 C3706 0.950 . S
C3711 C3709 1.390 . S
C3711 C3712 1.387 . S
C3711 H3714 0.950 . S
C3712 C3711 1.387 . S
C3712 C3715 1.387 . S
H3713 C3709 0.950 . S
H3714 C3711 0.950 . S
C3715 C3706 1.390 . S
C3715 H3708 0.950 . S
C3715 C3712 1.387 . S
C3716 C3717 1.387 . S
C3716 H3720 0.950 . S
C3716 C3725 1.390 . S
C3717 C3716 1.387 . S
C3717 C3719 1.387 . S
H3718 C3725 0.950 . S
C3719 C3717 1.387 . S
C3719 C3721 1.390 . S
C3719 H3723 0.950 . S
H3720 C3716 0.950 . S
C3721 C3719 1.390 . S
C3721 C3722 1.387 . S
C3721 H3724 0.950 . S
C3722 C3721 1.387 . S
C3722 C3725 1.387 . S
H3723 C3719 0.950 . S
H3724 C3721 0.950 . S
C3725 C3716 1.390 . S
C3725 H3718 0.950 . S
C3725 C3722 1.387 . S
C3726 C3727 1.387 . S
C3726 H3730 0.950 . S
C3726 C3735 1.390 . S
C3727 C3726 1.387 . S
C3727 C3729 1.387 . S
H3728 C3735 0.950 . S
C3729 C3727 1.387 . S
C3729 C3731 1.390 . S
C3729 H3733 0.950 . S
H3730 C3726 0.950 . S
C3731 C3729 1.390 . S
C3731 C3732 1.387 . S
C3731 H3734 0.950 . S
C3732 C3731 1.387 . S
C3732 C3735 1.387 . S
H3733 C3729 0.950 . S
H3734 C3731 0.950 . S
C3735 C3726 1.390 . S
C3735 H3728 0.950 . S
C3735 C3732 1.387 . S
C3736 C3737 1.387 . S
C3736 H3740 0.950 . S
C3736 C3745 1.390 . S
C3737 C3736 1.387 . S
C3737 C3739 1.387 . S
H3738 C3745 0.950 . S
C3739 C3737 1.387 . S
C3739 C3741 1.390 . S
C3739 H3743 0.950 . S
H3740 C3736 0.950 . S
C3741 C3739 1.390 . S
C3741 C3742 1.387 . S
C3741 H3744 0.950 . S
C3742 C3741 1.387 . S
C3742 C3745 1.387 . S
H3743 C3739 0.950 . S
H3744 C3741 0.950 . S
C3745 C3736 1.390 . S
C3745 H3738 0.950 . S
C3745 C3742 1.387 . S
C3746 C3747 1.387 . S
C3746 H3750 0.950 . S
C3746 C3755 1.390 . S
C3747 C3746 1.387 . S
C3747 C3749 1.387 . S
H3748 C3755 0.950 . S
C3749 C3747 1.387 . S
C3749 C3751 1.390 . S
C3749 H3753 0.950 . S
H3750 C3746 0.950 . S
C3751 C3749 1.390 . S
C3751 C3752 1.387 . S
C3751 H3754 0.950 . S
C3752 C3751 1.387 . S
C3752 C3755 1.387 . S
H3753 C3749 0.950 . S
H3754 C3751 0.950 . S
C3755 C3746 1.390 . S
C3755 H3748 0.950 . S
C3755 C3752 1.387 . S
C3756 C3757 1.387 . S
C3756 H3760 0.950 . S
C3756 C3765 1.390 . S
C3757 C3756 1.387 . S
C3757 C3759 1.387 . S
H3758 C3765 0.950 . S
C3759 C3757 1.387 . S
C3759 C3761 1.390 . S
C3759 H3763 0.950 . S
H3760 C3756 0.950 . S
C3761 C3759 1.390 . S
C3761 C3762 1.387 . S
C3761 H3764 0.950 . S
C3762 C3761 1.387 . S
C3762 C3765 1.387 . S
H3763 C3759 0.950 . S
H3764 C3761 0.950 . S
C3765 C3756 1.390 . S
C3765 H3758 0.950 . S
C3765 C3762 1.387 . S
C3766 C3767 1.387 . S
C3766 H3770 0.950 . S
C3766 C3775 1.390 . S
C3767 C3766 1.387 . S
C3767 C3769 1.387 . S
H3768 C3775 0.950 . S
C3769 C3767 1.387 . S
C3769 C3771 1.390 . S
C3769 H3773 0.950 . S
H3770 C3766 0.950 . S
C3771 C3769 1.390 . S
C3771 C3772 1.387 . S
C3771 H3774 0.950 . S
C3772 C3771 1.387 . S
C3772 C3775 1.387 . S
H3773 C3769 0.950 . S
H3774 C3771 0.950 . S
C3775 C3766 1.390 . S
C3775 H3768 0.950 . S
C3775 C3772 1.387 . S
C3776 C3777 1.387 . S
C3776 H3780 0.950 . S
C3776 C3785 1.390 . S
C3777 C3776 1.387 . S
C3777 C3779 1.387 . S
H3778 C3785 0.950 . S
C3779 C3777 1.387 . S
C3779 C3781 1.390 . S
C3779 H3783 0.950 . S
H3780 C3776 0.950 . S
C3781 C3779 1.390 . S
C3781 C3782 1.387 . S
C3781 H3784 0.950 . S
C3782 C3781 1.387 . S
C3782 C3785 1.387 . S
H3783 C3779 0.950 . S
H3784 C3781 0.950 . S
C3785 C3776 1.390 . S
C3785 H3778 0.950 . S
C3785 C3782 1.387 . S
C3786 C3787 1.387 . S
C3786 H3790 0.950 . S
C3786 C3795 1.390 . S
C3787 C3786 1.387 . S
C3787 C3789 1.387 . S
H3788 C3795 0.950 . S
C3789 C3787 1.387 . S
C3789 C3791 1.390 . S
C3789 H3793 0.950 . S
H3790 C3786 0.950 . S
C3791 C3789 1.390 . S
C3791 C3792 1.387 . S
C3791 H3794 0.950 . S
C3792 C3791 1.387 . S
C3792 C3795 1.387 . S
H3793 C3789 0.950 . S
H3794 C3791 0.950 . S
C3795 C3786 1.390 . S
C3795 H3788 0.950 . S
C3795 C3792 1.387 . S
C3796 C3797 1.387 . S
C3796 H3800 0.950 . S
C3796 C3805 1.390 . S
C3797 C3796 1.387 . S
C3797 C3799 1.387 . S
H3798 C3805 0.950 . S
C3799 C3797 1.387 . S
C3799 C3801 1.390 . S
C3799 H3803 0.950 . S
H3800 C3796 0.950 . S
C3801 C3799 1.390 . S
C3801 C3802 1.387 . S
C3801 H3804 0.950 . S
C3802 C3801 1.387 . S
C3802 C3805 1.387 . S
H3803 C3799 0.950 . S
H3804 C3801 0.950 . S
C3805 C3796 1.390 . S
C3805 H3798 0.950 . S
C3805 C3802 1.387 . S
C3806 C3807 1.387 . S
C3806 H3810 0.950 . S
C3806 C3815 1.390 . S
C3807 C3806 1.387 . S
C3807 C3809 1.387 . S
H3808 C3815 0.950 . S
C3809 C3807 1.387 . S
C3809 C3811 1.390 . S
C3809 H3813 0.950 . S
H3810 C3806 0.950 . S
C3811 C3809 1.390 . S
C3811 C3812 1.387 . S
C3811 H3814 0.950 . S
C3812 C3811 1.387 . S
C3812 C3815 1.387 . S
H3813 C3809 0.950 . S
H3814 C3811 0.950 . S
C3815 C3806 1.390 . S
C3815 H3808 0.950 . S
C3815 C3812 1.387 . S
C3816 C3817 1.387 . S
C3816 H3820 0.950 . S
C3816 C3825 1.390 . S
C3817 C3816 1.387 . S
C3817 C3819 1.387 . S
H3818 C3825 0.950 . S
C3819 C3817 1.387 . S
C3819 C3821 1.390 . S
C3819 H3823 0.950 . S
H3820 C3816 0.950 . S
C3821 C3819 1.390 . S
C3821 C3822 1.387 . S
C3821 H3824 0.950 . S
C3822 C3821 1.387 . S
C3822 C3825 1.387 . S
H3823 C3819 0.950 . S
H3824 C3821 0.950 . S
C3825 C3816 1.390 . S
C3825 H3818 0.950 . S
C3825 C3822 1.387 . S
C3826 C3827 1.387 . S
C3826 H3830 0.950 . S
C3826 C3835 1.390 . S
C3827 C3826 1.387 . S
C3827 C3829 1.387 . S
H3828 C3835 0.950 . S
C3829 C3827 1.387 . S
C3829 C3831 1.390 . S
C3829 H3833 0.950 . S
H3830 C3826 0.950 . S
C3831 C3829 1.390 . S
C3831 C3832 1.387 . S
C3831 H3834 0.950 . S
C3832 C3831 1.387 . S
C3832 C3835 1.387 . S
H3833 C3829 0.950 . S
H3834 C3831 0.950 . S
C3835 C3826 1.390 . S
C3835 H3828 0.950 . S
C3835 C3832 1.387 . S
C3836 C3837 1.387 . S
C3836 H3840 0.950 . S
C3836 C3845 1.390 . S
C3837 C3836 1.387 . S
C3837 C3839 1.387 . S
H3838 C3845 0.950 . S
C3839 C3837 1.387 . S
C3839 C3841 1.390 . S
C3839 H3843 0.950 . S
H3840 C3836 0.950 . S
C3841 C3839 1.390 . S
C3841 C3842 1.387 . S
C3841 H3844 0.950 . S
C3842 C3841 1.387 . S
C3842 C3845 1.387 . S
H3843 C3839 0.950 . S
H3844 C3841 0.950 . S
C3845 C3836 1.390 . S
C3845 H3838 0.950 . S
C3845 C3842 1.387 . S
C3846 C3847 1.387 . S
C3846 H3850 0.950 . S
C3846 C3855 1.390 . S
C3847 C3846 1.387 . S
C3847 C3849 1.387 . S
H3848 C3855 0.950 . S
C3849 C3847 1.387 . S
C3849 C3851 1.390 . S
C3849 H3853 0.950 . S
H3850 C3846 0.950 . S
C3851 C3849 1.390 . S
C3851 C3852 1.387 . S
C3851 H3854 0.950 . S
C3852 C3851 1.387 . S
C3852 C3855 1.387 . S
H3853 C3849 0.950 . S
H3854 C3851 0.950 . S
C3855 C3846 1.390 . S
C3855 H3848 0.950 . S
C3855 C3852 1.387 . S
C3856 C3857 1.387 . S
C3856 H3860 0.950 . S
C3856 C3865 1.390 . S
C3857 C3856 1.387 . S
C3857 C3859 1.387 . S
H3858 C3865 0.950 . S
C3859 C3857 1.387 . S
C3859 C3861 1.390 . S
C3859 H3863 0.950 . S
H3860 C3856 0.950 . S
C3861 C3859 1.390 . S
C3861 C3862 1.387 . S
C3861 H3864 0.950 . S
C3862 C3861 1.387 . S
C3862 C3865 1.387 . S
H3863 C3859 0.950 . S
H3864 C3861 0.950 . S
C3865 C3856 1.390 . S
C3865 H3858 0.950 . S
C3865 C3862 1.387 . S
C3866 C3867 1.387 . S
C3866 H3870 0.950 . S
C3866 C3875 1.390 . S
C3867 C3866 1.387 . S
C3867 C3869 1.387 . S
H3868 C3875 0.950 . S
C3869 C3867 1.387 . S
C3869 C3871 1.390 . S
C3869 H3873 0.950 . S
H3870 C3866 0.950 . S
C3871 C3869 1.390 . S
C3871 C3872 1.387 . S
C3871 H3874 0.950 . S
C3872 C3871 1.387 . S
C3872 C3875 1.387 . S
H3873 C3869 0.950 . S
H3874 C3871 0.950 . S
C3875 C3866 1.390 . S
C3875 H3868 0.950 . S
C3875 C3872 1.387 . S
C3876 C3877 1.387 . S
C3876 H3880 0.950 . S
C3876 C3885 1.390 . S
C3877 C3876 1.387 . S
C3877 C3879 1.387 . S
H3878 C3885 0.950 . S
C3879 C3877 1.387 . S
C3879 C3881 1.390 . S
C3879 H3883 0.950 . S
H3880 C3876 0.950 . S
C3881 C3879 1.390 . S
C3881 C3882 1.387 . S
C3881 H3884 0.950 . S
C3882 C3881 1.387 . S
C3882 C3885 1.387 . S
H3883 C3879 0.950 . S
H3884 C3881 0.950 . S
C3885 C3876 1.390 . S
C3885 H3878 0.950 . S
C3885 C3882 1.387 . S
C3886 C3887 1.387 . S
C3886 H3890 0.950 . S
C3886 C3895 1.390 . S
C3887 C3886 1.387 . S
C3887 C3889 1.387 . S
H3888 C3895 0.950 . S
C3889 C3887 1.387 . S
C3889 C3891 1.390 . S
C3889 H3893 0.950 . S
H3890 C3886 0.950 . S
C3891 C3889 1.390 . S
C3891 C3892 1.387 . S
C3891 H3894 0.950 . S
C3892 C3891 1.387 . S
C3892 C3895 1.387 . S
H3893 C3889 0.950 . S
H3894 C3891 0.950 . S
C3895 C3886 1.390 . S
C3895 H3888 0.950 . S
C3895 C3892 1.387 . S
C3896 C3897 1.387 . S
C3896 H3900 0.950 . S
C3896 C3905 1.390 . S
C3897 C3896 1.387 . S
C3897 C3899 1.387 . S
H3898 C3905 0.950 . S
C3899 C3897 1.387 . S
C3899 C3901 1.390 . S
C3899 H3903 0.950 . S
H3900 C3896 0.950 . S
C3901 C3899 1.390 . S
C3901 C3902 1.387 . S
C3901 H3904 0.950 . S
C3902 C3901 1.387 . S
C3902 C3905 1.387 . S
H3903 C3899 0.950 . S
H3904 C3901 0.950 . S
C3905 C3896 1.390 . S
C3905 H3898 0.950 . S
C3905 C3902 1.387 . S
C3906 C3907 1.387 . S
C3906 H3910 0.950 . S
C3906 C3915 1.390 . S
C3907 C3906 1.387 . S
C3907 C3909 1.387 . S
H3908 C3915 0.950 . S
C3909 C3907 1.387 . S
C3909 C3911 1.390 . S
C3909 H3913 0.950 . S
H3910 C3906 0.950 . S
C3911 C3909 1.390 . S
C3911 C3912 1.387 . S
C3911 H3914 0.950 . S
C3912 C3911 1.387 . S
C3912 C3915 1.387 . S
H3913 C3909 0.950 . S
H3914 C3911 0.950 . S
C3915 C3906 1.390 . S
C3915 H3908 0.950 . S
C3915 C3912 1.387 . S
C3916 C3917 1.387 . S
C3916 H3920 0.950 . S
C3916 C3925 1.390 . S
C3917 C3916 1.387 . S
C3917 C3919 1.387 . S
H3918 C3925 0.950 . S
C3919 C3917 1.387 . S
C3919 C3921 1.390 . S
C3919 H3923 0.950 . S
H3920 C3916 0.950 . S
C3921 C3919 1.390 . S
C3921 C3922 1.387 . S
C3921 H3924 0.950 . S
C3922 C3921 1.387 . S
C3922 C3925 1.387 . S
H3923 C3919 0.950 . S
H3924 C3921 0.950 . S
C3925 C3916 1.390 . S
C3925 H3918 0.950 . S
C3925 C3922 1.387 . S
C3926 C3927 1.387 . S
C3926 H3930 0.950 . S
C3926 C3935 1.390 . S
C3927 C3926 1.387 . S
C3927 C3929 1.387 . S
H3928 C3935 0.950 . S
C3929 C3927 1.387 . S
C3929 C3931 1.390 . S
C3929 H3933 0.950 . S
H3930 C3926 0.950 . S
C3931 C3929 1.390 . S
C3931 C3932 1.387 . S
C3931 H3934 0.950 . S
C3932 C3931 1.387 . S
C3932 C3935 1.387 . S
H3933 C3929 0.950 . S
H3934 C3931 0.950 . S
C3935 C3926 1.390 . S
C3935 H3928 0.950 . S
C3935 C3932 1.387 . S
C3936 C3937 1.387 . S
C3936 H3940 0.950 . S
C3936 C3945 1.390 . S
C3937 C3936 1.387 . S
C3937 C3939 1.387 . S
H3938 C3945 0.950 . S
C3939 C3937 1.387 . S
C3939 C3941 1.390 . S
C3939 H3943 0.950 . S
H3940 C3936 0.950 . S
C3941 C3939 1.390 . S
C3941 C3942 1.387 . S
C3941 H3944 0.950 . S
C3942 C3941 1.387 . S
C3942 C3945 1.387 . S
H3943 C3939 0.950 . S
H3944 C3941 0.950 . S
C3945 C3936 1.390 . S
C3945 H3938 0.950 . S
C3945 C3942 1.387 . S
C3946 C3947 1.387 . S
C3946 H3950 0.950 . S
C3946 C3955 1.390 . S
C3947 C3946 1.387 . S
C3947 C3949 1.387 . S
H3948 C3955 0.950 . S
C3949 C3947 1.387 . S
C3949 C3951 1.390 . S
C3949 H3953 0.950 . S
H3950 C3946 0.950 . S
C3951 C3949 1.390 . S
C3951 C3952 1.387 . S
C3951 H3954 0.950 . S
C3952 C3951 1.387 . S
C3952 C3955 1.387 . S
H3953 C3949 0.950 . S
H3954 C3951 0.950 . S
C3955 C3946 1.390 . S
C3955 H3948 0.950 . S
C3955 C3952 1.387 . S
C3956 C3957 1.387 . S
C3956 H3960 0.950 . S
C3956 C3965 1.390 . S
C3957 C3956 1.387 . S
C3957 C3959 1.387 . S
H3958 C3965 0.950 . S
C3959 C3957 1.387 . S
C3959 C3961 1.390 . S
C3959 H3963 0.950 . S
H3960 C3956 0.950 . S
C3961 C3959 1.390 . S
C3961 C3962 1.387 . S
C3961 H3964 0.950 . S
C3962 C3961 1.387 . S
C3962 C3965 1.387 . S
H3963 C3959 0.950 . S
H3964 C3961 0.950 . S
C3965 C3956 1.390 . S
C3965 H3958 0.950 . S
C3965 C3962 1.387 . S
C3966 C3967 1.387 . S
C3966 H3970 0.950 . S
C3966 C3975 1.390 . S
C3967 C3966 1.387 . S
C3967 C3969 1.387 . S
H3968 C3975 0.950 . S
C3969 C3967 1.387 . S
C3969 C3971 1.390 . S
C3969 H3973 0.950 . S
H3970 C3966 0.950 . S
C3971 C3969 1.390 . S
C3971 C3972 1.387 . S
C3971 H3974 0.950 . S
C3972 C3971 1.387 . S
C3972 C3975 1.387 . S
H3973 C3969 0.950 . S
H3974 C3971 0.950 . S
C3975 C3966 1.390 . S
C3975 H3968 0.950 . S
C3975 C3972 1.387 . S
C3976 C3977 1.387 . S
C3976 H3980 0.950 . S
C3976 C3985 1.390 . S
C3977 C3976 1.387 . S
C3977 C3979 1.387 . S
H3978 C3985 0.950 . S
C3979 C3977 1.387 . S
C3979 C3981 1.390 . S
C3979 H3983 0.950 . S
H3980 C3976 0.950 . S
C3981 C3979 1.390 . S
C3981 C3982 1.387 . S
C3981 H3984 0.950 . S
C3982 C3981 1.387 . S
C3982 C3985 1.387 . S
H3983 C3979 0.950 . S
H3984 C3981 0.950 . S
C3985 C3976 1.390 . S
C3985 H3978 0.950 . S
C3985 C3982 1.387 . S
C3986 C3987 1.387 . S
C3986 H3990 0.950 . S
C3986 C3995 1.390 . S
C3987 C3986 1.387 . S
C3987 C3989 1.387 . S
H3988 C3995 0.950 . S
C3989 C3987 1.387 . S
C3989 C3991 1.390 . S
C3989 H3993 0.950 . S
H3990 C3986 0.950 . S
C3991 C3989 1.390 . S
C3991 C3992 1.387 . S
C3991 H3994 0.950 . S
C3992 C3991 1.387 . S
C3992 C3995 1.387 . S
H3993 C3989 0.950 . S
H3994 C3991 0.950 . S
C3995 C3986 1.390 . S
C3995 H3988 0.950 . S
C3995 C3992 1.387 . S
C3996 C3997 1.387 . S
C3996 H4000 0.950 . S
C3996 C4005 1.390 . S
C3997 C3996 1.387 . S
C3997 C3999 1.387 . S
H3998 C4005 0.950 . S
C3999 C3997 1.387 . S
C3999 C4001 1.390 . S
C3999 H4003 0.950 . S
H4000 C3996 0.950 . S
C4001 C3999 1.390 . S
C4001 C4002 1.387 . S
C4001 H4004 0.950 . S
C4002 C4001 1.387 . S
C4002 C4005 1.387 . S
H4003 C3999 0.950 . S
H4004 C4001 0.950 . S
C4005 C3996 1.390 . S
C4005 H3998 0.950 . S
C4005 C4002 1.387 . S
C4006 C4007 1.387 . S
C4006 H4010 0.950 . S
C4006 C4015 1.390 . S
C4007 C4006 1.387 . S
C4007 C4009 1.387 . S
H4008 C4015 0.950 . S
C4009 C4007 1.387 . S
C4009 C4011 1.390 . S
C4009 H4013 0.950 . S
H4010 C4006 0.950 . S
C4011 C4009 1.390 . S
C4011 C4012 1.387 . S
C4011 H4014 0.950 . S
C4012 C4011 1.387 . S
C4012 C4015 1.387 . S
H4013 C4009 0.950 . S
H4014 C4011 0.950 . S
C4015 C4006 1.390 . S
C4015 H4008 0.950 . S
C4015 C4012 1.387 . S
C4016 C4017 1.387 . S
C4016 H4020 0.950 . S
C4016 C4025 1.390 . S
C4017 C4016 1.387 . S
C4017 C4019 1.387 . S
H4018 C4025 0.950 . S
C4019 C4017 1.387 . S
C4019 C4021 1.390 . S
C4019 H4023 0.950 . S
H4020 C4016 0.950 . S
C4021 C4019 1.390 . S
C4021 C4022 1.387 . S
C4021 H4024 0.950 . S
C4022 C4021 1.387 . S
C4022 C4025 1.387 . S
H4023 C4019 0.950 . S
H4024 C4021 0.950 . S
C4025 C4016 1.390 . S
C4025 H4018 0.950 . S
C4025 C4022 1.387 . S
C4026 C4027 1.387 . S
C4026 H4030 0.950 . S
C4026 C4035 1.390 . S
C4027 C4026 1.387 . S
C4027 C4029 1.387 . S
H4028 C4035 0.950 . S
C4029 C4027 1.387 . S
C4029 C4031 1.390 . S
C4029 H4033 0.950 . S
H4030 C4026 0.950 . S
C4031 C4029 1.390 . S
C4031 C4032 1.387 . S
C4031 H4034 0.950 . S
C4032 C4031 1.387 . S
C4032 C4035 1.387 . S
H4033 C4029 0.950 . S
H4034 C4031 0.950 . S
C4035 C4026 1.390 . S
C4035 H4028 0.950 . S
C4035 C4032 1.387 . S
C4036 C4037 1.387 . S
C4036 H4040 0.950 . S
C4036 C4045 1.390 . S
C4037 C4036 1.387 . S
C4037 C4039 1.387 . S
H4038 C4045 0.950 . S
C4039 C4037 1.387 . S
C4039 C4041 1.390 . S
C4039 H4043 0.950 . S
H4040 C4036 0.950 . S
C4041 C4039 1.390 . S
C4041 C4042 1.387 . S
C4041 H4044 0.950 . S
C4042 C4041 1.387 . S
C4042 C4045 1.387 . S
H4043 C4039 0.950 . S
H4044 C4041 0.950 . S
C4045 C4036 1.390 . S
C4045 H4038 0.950 . S
C4045 C4042 1.387 . S
C4046 C4047 1.387 . S
C4046 H4050 0.950 . S
C4046 C4055 1.390 . S
C4047 C4046 1.387 . S
C4047 C4049 1.387 . S
H4048 C4055 0.950 . S
C4049 C4047 1.387 . S
C4049 C4051 1.390 . S
C4049 H4053 0.950 . S
H4050 C4046 0.950 . S
C4051 C4049 1.390 . S
C4051 C4052 1.387 . S
C4051 H4054 0.950 . S
C4052 C4051 1.387 . S
C4052 C4055 1.387 . S
H4053 C4049 0.950 . S
H4054 C4051 0.950 . S
C4055 C4046 1.390 . S
C4055 H4048 0.950 . S
C4055 C4052 1.387 . S
C4056 C4057 1.387 . S
C4056 H4060 0.950 . S
C4056 C4065 1.390 . S
C4057 C4056 1.387 . S
C4057 C4059 1.387 . S
H4058 C4065 0.950 . S
C4059 C4057 1.387 . S
C4059 C4061 1.390 . S
C4059 H4063 0.950 . S
H4060 C4056 0.950 . S
C4061 C4059 1.390 . S
C4061 C4062 1.387 . S
C4061 H4064 0.950 . S
C4062 C4061 1.387 . S
C4062 C4065 1.387 . S
H4063 C4059 0.950 . S
H4064 C4061 0.950 . S
C4065 C4056 1.390 . S
C4065 H4058 0.950 . S
C4065 C4062 1.387 . S
C4066 C4067 1.387 . S
C4066 H4070 0.950 . S
C4066 C4075 1.390 . S
C4067 C4066 1.387 . S
C4067 C4069 1.387 . S
H4068 C4075 0.950 . S
C4069 C4067 1.387 . S
C4069 C4071 1.390 . S
C4069 H4073 0.950 . S
H4070 C4066 0.950 . S
C4071 C4069 1.390 . S
C4071 C4072 1.387 . S
C4071 H4074 0.950 . S
C4072 C4071 1.387 . S
C4072 C4075 1.387 . S
H4073 C4069 0.950 . S
H4074 C4071 0.950 . S
C4075 C4066 1.390 . S
C4075 H4068 0.950 . S
C4075 C4072 1.387 . S
C4076 C4077 1.387 . S
C4076 H4080 0.950 . S
C4076 C4085 1.390 . S
C4077 C4076 1.387 . S
C4077 C4079 1.387 . S
H4078 C4085 0.950 . S
C4079 C4077 1.387 . S
C4079 C4081 1.390 . S
C4079 H4083 0.950 . S
H4080 C4076 0.950 . S
C4081 C4079 1.390 . S
C4081 C4082 1.387 . S
C4081 H4084 0.950 . S
C4082 C4081 1.387 . S
C4082 C4085 1.387 . S
H4083 C4079 0.950 . S
H4084 C4081 0.950 . S
C4085 C4076 1.390 . S
C4085 H4078 0.950 . S
C4085 C4082 1.387 . S
C4086 C4087 1.387 . S
C4086 H4090 0.950 . S
C4086 C4095 1.390 . S
C4087 C4086 1.387 . S
C4087 C4089 1.387 . S
H4088 C4095 0.950 . S
C4089 C4087 1.387 . S
C4089 C4091 1.390 . S
C4089 H4093 0.950 . S
H4090 C4086 0.950 . S
C4091 C4089 1.390 . S
C4091 C4092 1.387 . S
C4091 H4094 0.950 . S
C4092 C4091 1.387 . S
C4092 C4095 1.387 . S
H4093 C4089 0.950 . S
H4094 C4091 0.950 . S
C4095 C4086 1.390 . S
C4095 H4088 0.950 . S
C4095 C4092 1.387 . S
C4096 C4097 1.387 . S
C4096 H4100 0.950 . S
C4096 C4105 1.390 . S
C4097 C4096 1.387 . S
C4097 C4099 1.387 . S
H4098 C4105 0.950 . S
C4099 C4097 1.387 . S
C4099 C4101 1.390 . S
C4099 H4103 0.950 . S
H4100 C4096 0.950 . S
C4101 C4099 1.390 . S
C4101 C4102 1.387 . S
C4101 H4104 0.950 . S
C4102 C4101 1.387 . S
C4102 C4105 1.387 . S
H4103 C4099 0.950 . S
H4104 C4101 0.950 . S
C4105 C4096 1.390 . S
C4105 H4098 0.950 . S
C4105 C4102 1.387 . S
C4106 C4107 1.387 . S
C4106 H4110 0.950 . S
C4106 C4115 1.390 . S
C4107 C4106 1.387 . S
C4107 C4109 1.387 . S
H4108 C4115 0.950 . S
C4109 C4107 1.387 . S
C4109 C4111 1.390 . S
C4109 H4113 0.950 . S
H4110 C4106 0.950 . S
C4111 C4109 1.390 . S
C4111 C4112 1.387 . S
C4111 H4114 0.950 . S
C4112 C4111 1.387 . S
C4112 C4115 1.387 . S
H4113 C4109 0.950 . S
H4114 C4111 0.950 . S
C4115 C4106 1.390 . S
C4115 H4108 0.950 . S
C4115 C4112 1.387 . S
C4116 C4117 1.387 . S
C4116 H4120 0.950 . S
C4116 C4125 1.390 . S
C4117 C4116 1.387 . S
C4117 C4119 1.387 . S
H4118 C4125 0.950 . S
C4119 C4117 1.387 . S
C4119 C4121 1.390 . S
C4119 H4123 0.950 . S
H4120 C4116 0.950 . S
C4121 C4119 1.390 . S
C4121 C4122 1.387 . S
C4121 H4124 0.950 . S
C4122 C4121 1.387 . S
C4122 C4125 1.387 . S
H4123 C4119 0.950 . S
H4124 C4121 0.950 . S
C4125 C4116 1.390 . S
C4125 H4118 0.950 . S
C4125 C4122 1.387 . S
C4126 C4127 1.387 . S
C4126 H4130 0.950 . S
C4126 C4135 1.390 . S
C4127 C4126 1.387 . S
C4127 C4129 1.387 . S
H4128 C4135 0.950 . S
C4129 C4127 1.387 . S
C4129 C4131 1.390 . S
C4129 H4133 0.950 . S
H4130 C4126 0.950 . S
C4131 C4129 1.390 . S
C4131 C4132 1.387 . S
C4131 H4134 0.950 . S
C4132 C4131 1.387 . S
C4132 C4135 1.387 . S
H4133 C4129 0.950 . S
H4134 C4131 0.950 . S
C4135 C4126 1.390 . S
C4135 H4128 0.950 . S
C4135 C4132 1.387 . S
C4136 C4137 1.387 . S
C4136 H4140 0.950 . S
C4136 C4145 1.390 . S
C4137 C4136 1.387 . S
C4137 C4139 1.387 . S
H4138 C4145 0.950 . S
C4139 C4137 1.387 . S
C4139 C4141 1.390 . S
C4139 H4143 0.950 . S
H4140 C4136 0.950 . S
C4141 C4139 1.390 . S
C4141 C4142 1.387 . S
C4141 H4144 0.950 . S
C4142 C4141 1.387 . S
C4142 C4145 1.387 . S
H4143 C4139 0.950 . S
H4144 C4141 0.950 . S
C4145 C4136 1.390 . S
C4145 H4138 0.950 . S
C4145 C4142 1.387 . S
C4146 C4147 1.387 . S
C4146 H4150 0.950 . S
C4146 C4155 1.390 . S
C4147 C4146 1.387 . S
C4147 C4149 1.387 . S
H4148 C4155 0.950 . S
C4149 C4147 1.387 . S
C4149 C4151 1.390 . S
C4149 H4153 0.950 . S
H4150 C4146 0.950 . S
C4151 C4149 1.390 . S
C4151 C4152 1.387 . S
C4151 H4154 0.950 . S
C4152 C4151 1.387 . S
C4152 C4155 1.387 . S
H4153 C4149 0.950 . S
H4154 C4151 0.950 . S
C4155 C4146 1.390 . S
C4155 H4148 0.950 . S
C4155 C4152 1.387 . S
C4156 C4157 1.387 . S
C4156 H4160 0.950 . S
C4156 C4165 1.390 . S
C4157 C4156 1.387 . S
C4157 C4159 1.387 . S
H4158 C4165 0.950 . S
C4159 C4157 1.387 . S
C4159 C4161 1.390 . S
C4159 H4163 0.950 . S
H4160 C4156 0.950 . S
C4161 C4159 1.390 . S
C4161 C4162 1.387 . S
C4161 H4164 0.950 . S
C4162 C4161 1.387 . S
C4162 C4165 1.387 . S
H4163 C4159 0.950 . S
H4164 C4161 0.950 . S
C4165 C4156 1.390 . S
C4165 H4158 0.950 . S
C4165 C4162 1.387 . S
C4166 C4167 1.387 . S
C4166 H4170 0.950 . S
C4166 C4175 1.390 . S
C4167 C4166 1.387 . S
C4167 C4169 1.387 . S
H4168 C4175 0.950 . S
C4169 C4167 1.387 . S
C4169 C4171 1.390 . S
C4169 H4173 0.950 . S
H4170 C4166 0.950 . S
C4171 C4169 1.390 . S
C4171 C4172 1.387 . S
C4171 H4174 0.950 . S
C4172 C4171 1.387 . S
C4172 C4175 1.387 . S
H4173 C4169 0.950 . S
H4174 C4171 0.950 . S
C4175 C4166 1.390 . S
C4175 H4168 0.950 . S
C4175 C4172 1.387 . S
C4176 C4177 1.387 . S
C4176 H4180 0.950 . S
C4176 C4185 1.390 . S
C4177 C4176 1.387 . S
C4177 C4179 1.387 . S
H4178 C4185 0.950 . S
C4179 C4177 1.387 . S
C4179 C4181 1.390 . S
C4179 H4183 0.950 . S
H4180 C4176 0.950 . S
C4181 C4179 1.390 . S
C4181 C4182 1.387 . S
C4181 H4184 0.950 . S
C4182 C4181 1.387 . S
C4182 C4185 1.387 . S
H4183 C4179 0.950 . S
H4184 C4181 0.950 . S
C4185 C4176 1.390 . S
C4185 H4178 0.950 . S
C4185 C4182 1.387 . S
C4186 C4187 1.387 . S
C4186 H4190 0.950 . S
C4186 C4195 1.390 . S
C4187 C4186 1.387 . S
C4187 C4189 1.387 . S
H4188 C4195 0.950 . S
C4189 C4187 1.387 . S
C4189 C4191 1.390 . S
C4189 H4193 0.950 . S
H4190 C4186 0.950 . S
C4191 C4189 1.390 . S
C4191 C4192 1.387 . S
C4191 H4194 0.950 . S
C4192 C4191 1.387 . S
C4192 C4195 1.387 . S
H4193 C4189 0.950 . S
H4194 C4191 0.950 . S
C4195 C4186 1.390 . S
C4195 H4188 0.950 . S
C4195 C4192 1.387 . S
C4196 C4197 1.387 . S
C4196 H4200 0.950 . S
C4196 C4205 1.390 . S
C4197 C4196 1.387 . S
C4197 C4199 1.387 . S
H4198 C4205 0.950 . S
C4199 C4197 1.387 . S
C4199 C4201 1.390 . S
C4199 H4203 0.950 . S
H4200 C4196 0.950 . S
C4201 C4199 1.390 . S
C4201 C4202 1.387 . S
C4201 H4204 0.950 . S
C4202 C4201 1.387 . S
C4202 C4205 1.387 . S
H4203 C4199 0.950 . S
H4204 C4201 0.950 . S
C4205 C4196 1.390 . S
C4205 H4198 0.950 . S
C4205 C4202 1.387 . S
C4206 C4207 1.387 . S
C4206 H4210 0.950 . S
C4206 C4215 1.390 . S
C4207 C4206 1.387 . S
C4207 C4209 1.387 . S
H4208 C4215 0.950 . S
C4209 C4207 1.387 . S
C4209 C4211 1.390 . S
C4209 H4213 0.950 . S
H4210 C4206 0.950 . S
C4211 C4209 1.390 . S
C4211 C4212 1.387 . S
C4211 H4214 0.950 . S
C4212 C4211 1.387 . S
C4212 C4215 1.387 . S
H4213 C4209 0.950 . S
H4214 C4211 0.950 . S
C4215 C4206 1.390 . S
C4215 H4208 0.950 . S
C4215 C4212 1.387 . S
C4216 C4217 1.387 . S
C4216 H4220 0.950 . S
C4216 C4225 1.390 . S
C4217 C4216 1.387 . S
C4217 C4219 1.387 . S
H4218 C4225 0.950 . S
C4219 C4217 1.387 . S
C4219 C4221 1.390 . S
C4219 H4223 0.950 . S
H4220 C4216 0.950 . S
C4221 C4219 1.390 . S
C4221 C4222 1.387 . S
C4221 H4224 0.950 . S
C4222 C4221 1.387 . S
C4222 C4225 1.387 . S
H4223 C4219 0.950 . S
H4224 C4221 0.950 . S
C4225 C4216 1.390 . S
C4225 H4218 0.950 . S
C4225 C4222 1.387 . S
C4226 C4227 1.387 . S
C4226 H4230 0.950 . S
C4226 C4235 1.390 . S
C4227 C4226 1.387 . S
C4227 C4229 1.387 . S
H4228 C4235 0.950 . S
C4229 C4227 1.387 . S
C4229 C4231 1.390 . S
C4229 H4233 0.950 . S
H4230 C4226 0.950 . S
C4231 C4229 1.390 . S
C4231 C4232 1.387 . S
C4231 H4234 0.950 . S
C4232 C4231 1.387 . S
C4232 C4235 1.387 . S
H4233 C4229 0.950 . S
H4234 C4231 0.950 . S
C4235 C4226 1.390 . S
C4235 H4228 0.950 . S
C4235 C4232 1.387 . S
C4236 C4237 1.387 . S
C4236 H4240 0.950 . S
C4236 C4245 1.390 . S
C4237 C4236 1.387 . S
C4237 C4239 1.387 . S
H4238 C4245 0.950 . S
C4239 C4237 1.387 . S
C4239 C4241 1.390 . S
C4239 H4243 0.950 . S
H4240 C4236 0.950 . S
C4241 C4239 1.390 . S
C4241 C4242 1.387 . S
C4241 H4244 0.950 . S
C4242 C4241 1.387 . S
C4242 C4245 1.387 . S
H4243 C4239 0.950 . S
H4244 C4241 0.950 . S
C4245 C4236 1.390 . S
C4245 H4238 0.950 . S
C4245 C4242 1.387 . S
C4246 C4247 1.387 . S
C4246 H4250 0.950 . S
C4246 C4255 1.390 . S
C4247 C4246 1.387 . S
C4247 C4249 1.387 . S
H4248 C4255 0.950 . S
C4249 C4247 1.387 . S
C4249 C4251 1.390 . S
C4249 H4253 0.950 . S
H4250 C4246 0.950 . S
C4251 C4249 1.390 . S
C4251 C4252 1.387 . S
C4251 H4254 0.950 . S
C4252 C4251 1.387 . S
C4252 C4255 1.387 . S
H4253 C4249 0.950 . S
H4254 C4251 0.950 . S
C4255 C4246 1.390 . S
C4255 H4248 0.950 . S
C4255 C4252 1.387 . S
C4256 C4257 1.387 . S
C4256 H4260 0.950 . S
C4256 C4265 1.390 . S
C4257 C4256 1.387 . S
C4257 C4259 1.387 . S
H4258 C4265 0.950 . S
C4259 C4257 1.387 . S
C4259 C4261 1.390 . S
C4259 H4263 0.950 . S
H4260 C4256 0.950 . S
C4261 C4259 1.390 . S
C4261 C4262 1.387 . S
C4261 H4264 0.950 . S
C4262 C4261 1.387 . S
C4262 C4265 1.387 . S
H4263 C4259 0.950 . S
H4264 C4261 0.950 . S
C4265 C4256 1.390 . S
C4265 H4258 0.950 . S
C4265 C4262 1.387 . S
C4266 C4267 1.387 . S
C4266 H4270 0.950 . S
C4266 C4275 1.390 . S
C4267 C4266 1.387 . S
C4267 C4269 1.387 . S
H4268 C4275 0.950 . S
C4269 C4267 1.387 . S
C4269 C4271 1.390 . S
C4269 H4273 0.950 . S
H4270 C4266 0.950 . S
C4271 C4269 1.390 . S
C4271 C4272 1.387 . S
C4271 H4274 0.950 . S
C4272 C4271 1.387 . S
C4272 C4275 1.387 . S
H4273 C4269 0.950 . S
H4274 C4271 0.950 . S
C4275 C4266 1.390 . S
C4275 H4268 0.950 . S
C4275 C4272 1.387 . S
C4276 C4277 1.387 . S
C4276 H4280 0.950 . S
C4276 C4285 1.390 . S
C4277 C4276 1.387 . S
C4277 C4279 1.387 . S
H4278 C4285 0.950 . S
C4279 C4277 1.387 . S
C4279 C4281 1.390 . S
C4279 H4283 0.950 . S
H4280 C4276 0.950 . S
C4281 C4279 1.390 . S
C4281 C4282 1.387 . S
C4281 H4284 0.950 . S
C4282 C4281 1.387 . S
C4282 C4285 1.387 . S
H4283 C4279 0.950 . S
H4284 C4281 0.950 . S
C4285 C4276 1.390 . S
C4285 H4278 0.950 . S
C4285 C4282 1.387 . S
C4286 C4287 1.387 . S
C4286 H4290 0.950 . S
C4286 C4295 1.390 . S
C4287 C4286 1.387 . S
C4287 C4289 1.387 . S
H4288 C4295 0.950 . S
C4289 C4287 1.387 . S
C4289 C4291 1.390 . S
C4289 H4293 0.950 . S
H4290 C4286 0.950 . S
C4291 C4289 1.390 . S
C4291 C4292 1.387 . S
C4291 H4294 0.950 . S
C4292 C4291 1.387 . S
C4292 C4295 1.387 . S
H4293 C4289 0.950 . S
H4294 C4291 0.950 . S
C4295 C4286 1.390 . S
C4295 H4288 0.950 . S
C4295 C4292 1.387 . S
C4296 C4297 1.387 . S
C4296 H4300 0.950 . S
C4296 C4305 1.390 . S
C4297 C4296 1.387 . S
C4297 C4299 1.387 . S
H4298 C4305 0.950 . S
C4299 C4297 1.387 . S
C4299 C4301 1.390 . S
C4299 H4303 0.950 . S
H4300 C4296 0.950 . S
C4301 C4299 1.390 . S
C4301 C4302 1.387 . S
C4301 H4304 0.950 . S
C4302 C4301 1.387 . S
C4302 C4305 1.387 . S
H4303 C4299 0.950 . S
H4304 C4301 0.950 . S
C4305 C4296 1.390 . S
C4305 H4298 0.950 . S
C4305 C4302 1.387 . S
C4306 C4307 1.387 . S
C4306 H4310 0.950 . S
C4306 C4315 1.390 . S
C4307 C4306 1.387 . S
C4307 C4309 1.387 . S
H4308 C4315 0.950 . S
C4309 C4307 1.387 . S
C4309 C4311 1.390 . S
C4309 H4313 0.950 . S
H4310 C4306 0.950 . S
C4311 C4309 1.390 . S
C4311 C4312 1.387 . S
C4311 H4314 0.950 . S
C4312 C4311 1.387 . S
C4312 C4315 1.387 . S
H4313 C4309 0.950 . S
H4314 C4311 0.950 . S
C4315 C4306 1.390 . S
C4315 H4308 0.950 . S
C4315 C4312 1.387 . S
C4316 C4317 1.387 . S
C4316 H4320 0.950 . S
C4316 C4325 1.390 . S
C4317 C4316 1.387 . S
C4317 C4319 1.387 . S
H4318 C4325 0.950 . S
C4319 C4317 1.387 . S
C4319 C4321 1.390 . S
C4319 H4323 0.950 . S
H4320 C4316 0.950 . S
C4321 C4319 1.390 . S
C4321 C4322 1.387 . S
C4321 H4324 0.950 . S
C4322 C4321 1.387 . S
C4322 C4325 1.387 . S
H4323 C4319 0.950 . S
H4324 C4321 0.950 . S
C4325 C4316 1.390 . S
C4325 H4318 0.950 . S
C4325 C4322 1.387 . S
C4326 C4327 1.387 . S
C4326 H4330 0.950 . S
C4326 C4335 1.390 . S
C4327 C4326 1.387 . S
C4327 C4329 1.387 . S
H4328 C4335 0.950 . S
C4329 C4327 1.387 . S
C4329 C4331 1.390 . S
C4329 H4333 0.950 . S
H4330 C4326 0.950 . S
C4331 C4329 1.390 . S
C4331 C4332 1.387 . S
C4331 H4334 0.950 . S
C4332 C4331 1.387 . S
C4332 C4335 1.387 . S
H4333 C4329 0.950 . S
H4334 C4331 0.950 . S
C4335 C4326 1.390 . S
C4335 H4328 0.950 . S
C4335 C4332 1.387 . S
C4336 C4337 1.387 . S
C4336 H4340 0.950 . S
C4336 C4345 1.390 . S
C4337 C4336 1.387 . S
C4337 C4339 1.387 . S
H4338 C4345 0.950 . S
C4339 C4337 1.387 . S
C4339 C4341 1.390 . S
C4339 H4343 0.950 . S
H4340 C4336 0.950 . S
C4341 C4339 1.390 . S
C4341 C4342 1.387 . S
C4341 H4344 0.950 . S
C4342 C4341 1.387 . S
C4342 C4345 1.387 . S
H4343 C4339 0.950 . S
H4344 C4341 0.950 . S
C4345 C4336 1.390 . S
C4345 H4338 0.950 . S
C4345 C4342 1.387 . S
C4346 C4347 1.387 . S
C4346 H4350 0.950 . S
C4346 C4355 1.390 . S
C4347 C4346 1.387 . S
C4347 C4349 1.387 . S
H4348 C4355 0.950 . S
C4349 C4347 1.387 . S
C4349 C4351 1.390 . S
C4349 H4353 0.950 . S
H4350 C4346 0.950 . S
C4351 C4349 1.390 . S
C4351 C4352 1.387 . S
C4351 H4354 0.950 . S
C4352 C4351 1.387 . S
C4352 C4355 1.387 . S
H4353 C4349 0.950 . S
H4354 C4351 0.950 . S
C4355 C4346 1.390 . S
C4355 H4348 0.950 . S
C4355 C4352 1.387 . S
C4356 C4357 1.387 . S
C4356 H4360 0.950 . S
C4356 C4365 1.390 . S
C4357 C4356 1.387 . S
C4357 C4359 1.387 . S
H4358 C4365 0.950 . S
C4359 C4357 1.387 . S
C4359 C4361 1.390 . S
C4359 H4363 0.950 . S
H4360 C4356 0.950 . S
C4361 C4359 1.390 . S
C4361 C4362 1.387 . S
C4361 H4364 0.950 . S
C4362 C4361 1.387 . S
C4362 C4365 1.387 . S
H4363 C4359 0.950 . S
H4364 C4361 0.950 . S
C4365 C4356 1.390 . S
C4365 H4358 0.950 . S
C4365 C4362 1.387 . S
C4366 C4367 1.387 . S
C4366 H4370 0.950 . S
C4366 C4375 1.390 . S
C4367 C4366 1.387 . S
C4367 C4369 1.387 . S
H4368 C4375 0.950 . S
C4369 C4367 1.387 . S
C4369 C4371 1.390 . S
C4369 H4373 0.950 . S
H4370 C4366 0.950 . S
C4371 C4369 1.390 . S
C4371 C4372 1.387 . S
C4371 H4374 0.950 . S
C4372 C4371 1.387 . S
C4372 C4375 1.387 . S
H4373 C4369 0.950 . S
H4374 C4371 0.950 . S
C4375 C4366 1.390 . S
C4375 H4368 0.950 . S
C4375 C4372 1.387 . S
C4376 C4377 1.387 . S
C4376 H4380 0.950 . S
C4376 C4385 1.390 . S
C4377 C4376 1.387 . S
C4377 C4379 1.387 . S
H4378 C4385 0.950 . S
C4379 C4377 1.387 . S
C4379 C4381 1.390 . S
C4379 H4383 0.950 . S
H4380 C4376 0.950 . S
C4381 C4379 1.390 . S
C4381 C4382 1.387 . S
C4381 H4384 0.950 . S
C4382 C4381 1.387 . S
C4382 C4385 1.387 . S
H4383 C4379 0.950 . S
H4384 C4381 0.950 . S
C4385 C4376 1.390 . S
C4385 H4378 0.950 . S
C4385 C4382 1.387 . S
C4386 C4387 1.387 . S
C4386 H4390 0.950 . S
C4386 C4395 1.390 . S
C4387 C4386 1.387 . S
C4387 C4389 1.387 . S
H4388 C4395 0.950 . S
C4389 C4387 1.387 . S
C4389 C4391 1.390 . S
C4389 H4393 0.950 . S
H4390 C4386 0.950 . S
C4391 C4389 1.390 . S
C4391 C4392 1.387 . S
C4391 H4394 0.950 . S
C4392 C4391 1.387 . S
C4392 C4395 1.387 . S
H4393 C4389 0.950 . S
H4394 C4391 0.950 . S
C4395 C4386 1.390 . S
C4395 H4388 0.950 . S
C4395 C4392 1.387 . S
C4396 C4397 1.387 . S
C4396 H4400 0.950 . S
C4396 C4405 1.390 . S
C4397 C4396 1.387 . S
C4397 C4399 1.387 . S
H4398 C4405 0.950 . S
C4399 C4397 1.387 . S
C4399 C4401 1.390 . S
C4399 H4403 0.950 . S
H4400 C4396 0.950 . S
C4401 C4399 1.390 . S
C4401 C4402 1.387 . S
C4401 H4404 0.950 . S
C4402 C4401 1.387 . S
C4402 C4405 1.387 . S
H4403 C4399 0.950 . S
H4404 C4401 0.950 . S
C4405 C4396 1.390 . S
C4405 H4398 0.950 . S
C4405 C4402 1.387 . S
C4406 C4407 1.387 . S
C4406 H4410 0.950 . S
C4406 C4415 1.390 . S
C4407 C4406 1.387 . S
C4407 C4409 1.387 . S
H4408 C4415 0.950 . S
C4409 C4407 1.387 . S
C4409 C4411 1.390 . S
C4409 H4413 0.950 . S
H4410 C4406 0.950 . S
C4411 C4409 1.390 . S
C4411 C4412 1.387 . S
C4411 H4414 0.950 . S
C4412 C4411 1.387 . S
C4412 C4415 1.387 . S
H4413 C4409 0.950 . S
H4414 C4411 0.950 . S
C4415 C4406 1.390 . S
C4415 H4408 0.950 . S
C4415 C4412 1.387 . S
C4416 C4417 1.387 . S
C4416 H4420 0.950 . S
C4416 C4425 1.390 . S
C4417 C4416 1.387 . S
C4417 C4419 1.387 . S
H4418 C4425 0.950 . S
C4419 C4417 1.387 . S
C4419 C4421 1.390 . S
C4419 H4423 0.950 . S
H4420 C4416 0.950 . S
C4421 C4419 1.390 . S
C4421 C4422 1.387 . S
C4421 H4424 0.950 . S
C4422 C4421 1.387 . S
C4422 C4425 1.387 . S
H4423 C4419 0.950 . S
H4424 C4421 0.950 . S
C4425 C4416 1.390 . S
C4425 H4418 0.950 . S
C4425 C4422 1.387 . S
C4426 C4427 1.387 . S
C4426 H4430 0.950 . S
C4426 C4435 1.390 . S
C4427 C4426 1.387 . S
C4427 C4429 1.387 . S
H4428 C4435 0.950 . S
C4429 C4427 1.387 . S
C4429 C4431 1.390 . S
C4429 H4433 0.950 . S
H4430 C4426 0.950 . S
C4431 C4429 1.390 . S
C4431 C4432 1.387 . S
C4431 H4434 0.950 . S
C4432 C4431 1.387 . S
C4432 C4435 1.387 . S
H4433 C4429 0.950 . S
H4434 C4431 0.950 . S
C4435 C4426 1.390 . S
C4435 H4428 0.950 . S
C4435 C4432 1.387 . S
C4436 C4437 1.387 . S
C4436 H4440 0.950 . S
C4436 C4445 1.390 . S
C4437 C4436 1.387 . S
C4437 C4439 1.387 . S
H4438 C4445 0.950 . S
C4439 C4437 1.387 . S
C4439 C4441 1.390 . S
C4439 H4443 0.950 . S
H4440 C4436 0.950 . S
C4441 C4439 1.390 . S
C4441 C4442 1.387 . S
C4441 H4444 0.950 . S
C4442 C4441 1.387 . S
C4442 C4445 1.387 . S
H4443 C4439 0.950 . S
H4444 C4441 0.950 . S
C4445 C4436 1.390 . S
C4445 H4438 0.950 . S
C4445 C4442 1.387 . S
C4446 C4447 1.387 . S
C4446 H4450 0.950 . S
C4446 C4455 1.390 . S
C4447 C4446 1.387 . S
C4447 C4449 1.387 . S
H4448 C4455 0.950 . S
C4449 C4447 1.387 . S
C4449 C4451 1.390 . S
C4449 H4453 0.950 . S
H4450 C4446 0.950 . S
C4451 C4449 1.390 . S
C4451 C4452 1.387 . S
C4451 H4454 0.950 . S
C4452 C4451 1.387 . S
C4452 C4455 1.387 . S
H4453 C4449 0.950 . S
H4454 C4451 0.950 . S
C4455 C4446 1.390 . S
C4455 H4448 0.950 . S
C4455 C4452 1.387 . S
C4456 C4457 1.387 . S
C4456 H4460 0.950 . S
C4456 C4465 1.390 . S
C4457 C4456 1.387 . S
C4457 C4459 1.387 . S
H4458 C4465 0.950 . S
C4459 C4457 1.387 . S
C4459 C4461 1.390 . S
C4459 H4463 0.950 . S
H4460 C4456 0.950 . S
C4461 C4459 1.390 . S
C4461 C4462 1.387 . S
C4461 H4464 0.950 . S
C4462 C4461 1.387 . S
C4462 C4465 1.387 . S
H4463 C4459 0.950 . S
H4464 C4461 0.950 . S
C4465 C4456 1.390 . S
C4465 H4458 0.950 . S
C4465 C4462 1.387 . S
C4466 C4467 1.387 . S
C4466 H4470 0.950 . S
C4466 C4475 1.390 . S
C4467 C4466 1.387 . S
C4467 C4469 1.387 . S
H4468 C4475 0.950 . S
C4469 C4467 1.387 . S
C4469 C4471 1.390 . S
C4469 H4473 0.950 . S
H4470 C4466 0.950 . S
C4471 C4469 1.390 . S
C4471 C4472 1.387 . S
C4471 H4474 0.950 . S
C4472 C4471 1.387 . S
C4472 C4475 1.387 . S
H4473 C4469 0.950 . S
H4474 C4471 0.950 . S
C4475 C4466 1.390 . S
C4475 H4468 0.950 . S
C4475 C4472 1.387 . S
C4476 C4477 1.387 . S
C4476 H4480 0.950 . S
C4476 C4485 1.390 . S
C4477 C4476 1.387 . S
C4477 C4479 1.387 . S
H4478 C4485 0.950 . S
C4479 C4477 1.387 . S
C4479 C4481 1.390 . S
C4479 H4483 0.950 . S
H4480 C4476 0.950 . S
C4481 C4479 1.390 . S
C4481 C4482 1.387 . S
C4481 H4484 0.950 . S
C4482 C4481 1.387 . S
C4482 C4485 1.387 . S
H4483 C4479 0.950 . S
H4484 C4481 0.950 . S
C4485 C4476 1.390 . S
C4485 H4478 0.950 . S
C4485 C4482 1.387 . S
C4486 C4487 1.387 . S
C4486 H4490 0.950 . S
C4486 C4495 1.390 . S
C4487 C4486 1.387 . S
C4487 C4489 1.387 . S
H4488 C4495 0.950 . S
C4489 C4487 1.387 . S
C4489 C4491 1.390 . S
C4489 H4493 0.950 . S
H4490 C4486 0.950 . S
C4491 C4489 1.390 . S
C4491 C4492 1.387 . S
C4491 H4494 0.950 . S
C4492 C4491 1.387 . S
C4492 C4495 1.387 . S
H4493 C4489 0.950 . S
H4494 C4491 0.950 . S
C4495 C4486 1.390 . S
C4495 H4488 0.950 . S
C4495 C4492 1.387 . S
C4496 C4497 1.387 . S
C4496 H4500 0.950 . S
C4496 C4505 1.390 . S
C4497 C4496 1.387 . S
C4497 C4499 1.387 . S
H4498 C4505 0.950 . S
C4499 C4497 1.387 . S
C4499 C4501 1.390 . S
C4499 H4503 0.950 . S
H4500 C4496 0.950 . S
C4501 C4499 1.390 . S
C4501 C4502 1.387 . S
C4501 H4504 0.950 . S
C4502 C4501 1.387 . S
C4502 C4505 1.387 . S
H4503 C4499 0.950 . S
H4504 C4501 0.950 . S
C4505 C4496 1.390 . S
C4505 H4498 0.950 . S
C4505 C4502 1.387 . S
C4506 C4507 1.387 . S
C4506 H4510 0.950 . S
C4506 C4515 1.390 . S
C4507 C4506 1.387 . S
C4507 C4509 1.387 . S
H4508 C4515 0.950 . S
C4509 C4507 1.387 . S
C4509 C4511 1.390 . S
C4509 H4513 0.950 . S
H4510 C4506 0.950 . S
C4511 C4509 1.390 . S
C4511 C4512 1.387 . S
C4511 H4514 0.950 . S
C4512 C4511 1.387 . S
C4512 C4515 1.387 . S
H4513 C4509 0.950 . S
H4514 C4511 0.950 . S
C4515 C4506 1.390 . S
C4515 H4508 0.950 . S
C4515 C4512 1.387 . S
C4516 C4517 1.387 . S
C4516 H4520 0.950 . S
C4516 C4525 1.390 . S
C4517 C4516 1.387 . S
C4517 C4519 1.387 . S
H4518 C4525 0.950 . S
C4519 C4517 1.387 . S
C4519 C4521 1.390 . S
C4519 H4523 0.950 . S
H4520 C4516 0.950 . S
C4521 C4519 1.390 . S
C4521 C4522 1.387 . S
C4521 H4524 0.950 . S
C4522 C4521 1.387 . S
C4522 C4525 1.387 . S
H4523 C4519 0.950 . S
H4524 C4521 0.950 . S
C4525 C4516 1.390 . S
C4525 H4518 0.950 . S
C4525 C4522 1.387 . S
C4526 C4527 1.387 . S
C4526 H4530 0.950 . S
C4526 C4535 1.390 . S
C4527 C4526 1.387 . S
C4527 C4529 1.387 . S
H4528 C4535 0.950 . S
C4529 C4527 1.387 . S
C4529 C4531 1.390 . S
C4529 H4533 0.950 . S
H4530 C4526 0.950 . S
C4531 C4529 1.390 . S
C4531 C4532 1.387 . S
C4531 H4534 0.950 . S
C4532 C4531 1.387 . S
C4532 C4535 1.387 . S
H4533 C4529 0.950 . S
H4534 C4531 0.950 . S
C4535 C4526 1.390 . S
C4535 H4528 0.950 . S
C4535 C4532 1.387 . S
C4536 C4537 1.387 . S
C4536 H4540 0.950 . S
C4536 C4545 1.390 . S
C4537 C4536 1.387 . S
C4537 C4539 1.387 . S
H4538 C4545 0.950 . S
C4539 C4537 1.387 . S
C4539 C4541 1.390 . S
C4539 H4543 0.950 . S
H4540 C4536 0.950 . S
C4541 C4539 1.390 . S
C4541 C4542 1.387 . S
C4541 H4544 0.950 . S
C4542 C4541 1.387 . S
C4542 C4545 1.387 . S
H4543 C4539 0.950 . S
H4544 C4541 0.950 . S
C4545 C4536 1.390 . S
C4545 H4538 0.950 . S
C4545 C4542 1.387 . S
C4546 C4547 1.387 . S
C4546 H4550 0.950 . S
C4546 C4555 1.390 . S
C4547 C4546 1.387 . S
C4547 C4549 1.387 . S
H4548 C4555 0.950 . S
C4549 C4547 1.387 . S
C4549 C4551 1.390 . S
C4549 H4553 0.950 . S
H4550 C4546 0.950 . S
C4551 C4549 1.390 . S
C4551 C4552 1.387 . S
C4551 H4554 0.950 . S
C4552 C4551 1.387 . S
C4552 C4555 1.387 . S
H4553 C4549 0.950 . S
H4554 C4551 0.950 . S
C4555 C4546 1.390 . S
C4555 H4548 0.950 . S
C4555 C4552 1.387 . S
C4556 C4557 1.387 . S
C4556 H4560 0.950 . S
C4556 C4565 1.390 . S
C4557 C4556 1.387 . S
C4557 C4559 1.387 . S
H4558 C4565 0.950 . S
C4559 C4557 1.387 . S
C4559 C4561 1.390 . S
C4559 H4563 0.950 . S
H4560 C4556 0.950 . S
C4561 C4559 1.390 . S
C4561 C4562 1.387 . S
C4561 H4564 0.950 . S
C4562 C4561 1.387 . S
C4562 C4565 1.387 . S
H4563 C4559 0.950 . S
H4564 C4561 0.950 . S
C4565 C4556 1.390 . S
C4565 H4558 0.950 . S
C4565 C4562 1.387 . S
C4566 C4567 1.387 . S
C4566 H4570 0.950 . S
C4566 C4575 1.390 . S
C4567 C4566 1.387 . S
C4567 C4569 1.387 . S
H4568 C4575 0.950 . S
C4569 C4567 1.387 . S
C4569 C4571 1.390 . S
C4569 H4573 0.950 . S
H4570 C4566 0.950 . S
C4571 C4569 1.390 . S
C4571 C4572 1.387 . S
C4571 H4574 0.950 . S
C4572 C4571 1.387 . S
C4572 C4575 1.387 . S
H4573 C4569 0.950 . S
H4574 C4571 0.950 . S
C4575 C4566 1.390 . S
C4575 H4568 0.950 . S
C4575 C4572 1.387 . S
C4576 C4577 1.387 . S
C4576 H4580 0.950 . S
C4576 C4585 1.390 . S
C4577 C4576 1.387 . S
C4577 C4579 1.387 . S
H4578 C4585 0.950 . S
C4579 C4577 1.387 . S
C4579 C4581 1.390 . S
C4579 H4583 0.950 . S
H4580 C4576 0.950 . S
C4581 C4579 1.390 . S
C4581 C4582 1.387 . S
C4581 H4584 0.950 . S
C4582 C4581 1.387 . S
C4582 C4585 1.387 . S
H4583 C4579 0.950 . S
H4584 C4581 0.950 . S
C4585 C4576 1.390 . S
C4585 H4578 0.950 . S
C4585 C4582 1.387 . S
C4586 C4587 1.387 . S
C4586 H4590 0.950 . S
C4586 C4595 1.390 . S
C4587 C4586 1.387 . S
C4587 C4589 1.387 . S
H4588 C4595 0.950 . S
C4589 C4587 1.387 . S
C4589 C4591 1.390 . S
C4589 H4593 0.966 . S
H4590 C4586 0.950 . S
C4591 C4589 1.390 . S
C4591 C4592 1.387 . S
C4591 H4594 0.950 . S
C4592 C4591 1.387 . S
C4592 C4595 1.387 . S
H4593 C4589 0.966 . S
H4594 C4591 0.950 . S
C4595 C4586 1.390 . S
C4595 H4588 0.950 . S
C4595 C4592 1.387 . S
C4596 C4597 1.387 . S
C4596 H4600 0.950 . S
C4596 C4605 1.390 . S
C4597 C4596 1.387 . S
C4597 C4599 1.387 . S
H4598 C4605 0.950 . S
C4599 C4597 1.387 . S
C4599 C4601 1.390 . S
C4599 H4603 0.950 . S
H4600 C4596 0.950 . S
C4601 C4599 1.390 . S
C4601 C4602 1.387 . S
C4601 H4604 0.950 . S
C4602 C4601 1.387 . S
C4602 C4605 1.387 . S
H4603 C4599 0.950 . S
H4604 C4601 0.950 . S
C4605 C4596 1.390 . S
C4605 H4598 0.950 . S
C4605 C4602 1.387 . S
C4606 C4607 1.387 . S
C4606 H4610 0.950 . S
C4606 C4615 1.390 . S
C4607 C4606 1.387 . S
C4607 C4609 1.387 . S
H4608 C4615 0.950 . S
C4609 C4607 1.387 . S
C4609 C4611 1.390 . S
C4609 H4613 0.950 . S
H4610 C4606 0.950 . S
C4611 C4609 1.390 . S
C4611 C4612 1.387 . S
C4611 H4614 0.950 . S
C4612 C4611 1.387 . S
C4612 C4615 1.387 . S
H4613 C4609 0.950 . S
H4614 C4611 0.950 . S
C4615 C4606 1.390 . S
C4615 H4608 0.950 . S
C4615 C4612 1.387 . S
C4616 C4617 1.387 . S
C4616 H4620 0.950 . S
C4616 C4625 1.390 . S
C4617 C4616 1.387 . S
C4617 C4619 1.387 . S
H4618 C4625 0.950 . S
C4619 C4617 1.387 . S
C4619 C4621 1.390 . S
C4619 H4623 0.950 . S
H4620 C4616 0.950 . S
C4621 C4619 1.390 . S
C4621 C4622 1.387 . S
C4621 H4624 0.950 . S
C4622 C4621 1.387 . S
C4622 C4625 1.387 . S
H4623 C4619 0.950 . S
H4624 C4621 0.950 . S
C4625 C4616 1.390 . S
C4625 H4618 0.950 . S
C4625 C4622 1.387 . S
C4626 C4627 1.387 . S
C4626 H4630 0.950 . S
C4626 C4635 1.390 . S
C4627 C4626 1.387 . S
C4627 C4629 1.387 . S
H4628 C4635 0.950 . S
C4629 C4627 1.387 . S
C4629 C4631 1.390 . S
C4629 H4633 0.950 . S
H4630 C4626 0.950 . S
C4631 C4629 1.390 . S
C4631 C4632 1.387 . S
C4631 H4634 0.950 . S
C4632 C4631 1.387 . S
C4632 C4635 1.387 . S
H4633 C4629 0.950 . S
H4634 C4631 0.950 . S
C4635 C4626 1.390 . S
C4635 H4628 0.950 . S
C4635 C4632 1.387 . S
C4636 C4637 1.387 . S
C4636 H4640 0.950 . S
C4636 C4645 1.390 . S
C4637 C4636 1.387 . S
C4637 C4639 1.387 . S
H4638 C4645 0.950 . S
C4639 C4637 1.387 . S
C4639 C4641 1.390 . S
C4639 H4643 0.950 . S
H4640 C4636 0.950 . S
C4641 C4639 1.390 . S
C4641 C4642 1.387 . S
C4641 H4644 0.950 . S
C4642 C4641 1.387 . S
C4642 C4645 1.387 . S
H4643 C4639 0.950 . S
H4644 C4641 0.950 . S
C4645 C4636 1.390 . S
C4645 H4638 0.950 . S
C4645 C4642 1.387 . S
C4646 C4647 1.387 . S
C4646 H4650 0.950 . S
C4646 C4655 1.390 . S
C4647 C4646 1.387 . S
C4647 C4649 1.387 . S
H4648 C4655 0.950 . S
C4649 C4647 1.387 . S
C4649 C4651 1.390 . S
C4649 H4653 0.950 . S
H4650 C4646 0.950 . S
C4651 C4649 1.390 . S
C4651 C4652 1.387 . S
C4651 H4654 0.950 . S
C4652 C4651 1.387 . S
C4652 C4655 1.387 . S
H4653 C4649 0.950 . S
H4654 C4651 0.950 . S
C4655 C4646 1.390 . S
C4655 H4648 0.950 . S
C4655 C4652 1.387 . S
C4656 C4657 1.387 . S
C4656 H4660 0.950 . S
C4656 C4665 1.390 . S
C4657 C4656 1.387 . S
C4657 C4659 1.387 . S
H4658 C4665 0.950 . S
C4659 C4657 1.387 . S
C4659 C4661 1.390 . S
C4659 H4663 0.950 . S
H4660 C4656 0.950 . S
C4661 C4659 1.390 . S
C4661 C4662 1.387 . S
C4661 H4664 0.950 . S
C4662 C4661 1.387 . S
C4662 C4665 1.387 . S
H4663 C4659 0.950 . S
H4664 C4661 0.950 . S
C4665 C4656 1.390 . S
C4665 H4658 0.950 . S
C4665 C4662 1.387 . S
C4666 C4667 1.387 . S
C4666 H4670 0.950 . S
C4666 C4675 1.390 . S
C4667 C4666 1.387 . S
C4667 C4669 1.387 . S
H4668 C4675 0.950 . S
C4669 C4667 1.387 . S
C4669 C4671 1.390 . S
C4669 H4673 0.950 . S
H4670 C4666 0.950 . S
C4671 C4669 1.390 . S
C4671 C4672 1.387 . S
C4671 H4674 0.950 . S
C4672 C4671 1.387 . S
C4672 C4675 1.387 . S
H4673 C4669 0.950 . S
H4674 C4671 0.950 . S
C4675 C4666 1.390 . S
C4675 H4668 0.950 . S
C4675 C4672 1.387 . S
C4676 C4677 1.387 . S
C4676 H4680 0.950 . S
C4676 C4685 1.390 . S
C4677 C4676 1.387 . S
C4677 C4679 1.387 . S
H4678 C4685 0.950 . S
C4679 C4677 1.387 . S
C4679 C4681 1.390 . S
C4679 H4683 0.950 . S
H4680 C4676 0.950 . S
C4681 C4679 1.390 . S
C4681 C4682 1.387 . S
C4681 H4684 0.950 . S
C4682 C4681 1.387 . S
C4682 C4685 1.387 . S
H4683 C4679 0.950 . S
H4684 C4681 0.950 . S
C4685 C4676 1.390 . S
C4685 H4678 0.950 . S
C4685 C4682 1.387 . S
C4686 C4687 1.387 . S
C4686 H4690 0.950 . S
C4686 C4695 1.390 . S
C4687 C4686 1.387 . S
C4687 C4689 1.387 . S
H4688 C4695 0.950 . S
C4689 C4687 1.387 . S
C4689 C4691 1.390 . S
C4689 H4693 0.950 . S
H4690 C4686 0.950 . S
C4691 C4689 1.390 . S
C4691 C4692 1.387 . S
C4691 H4694 0.950 . S
C4692 C4691 1.387 . S
C4692 C4695 1.387 . S
H4693 C4689 0.950 . S
H4694 C4691 0.950 . S
C4695 C4686 1.390 . S
C4695 H4688 0.950 . S
C4695 C4692 1.387 . S
C4696 C4697 1.387 . S
C4696 H4700 0.950 . S
C4696 C4705 1.390 . S
C4697 C4696 1.387 . S
C4697 C4699 1.387 . S
H4698 C4705 0.950 . S
C4699 C4697 1.387 . S
C4699 C4701 1.390 . S
C4699 H4703 0.950 . S
H4700 C4696 0.950 . S
C4701 C4699 1.390 . S
C4701 C4702 1.387 . S
C4701 H4704 0.950 . S
C4702 C4701 1.387 . S
C4702 C4705 1.387 . S
H4703 C4699 0.950 . S
H4704 C4701 0.950 . S
C4705 C4696 1.390 . S
C4705 H4698 0.950 . S
C4705 C4702 1.387 . S
C4706 C4707 1.387 . S
C4706 H4710 0.950 . S
C4706 C4715 1.390 . S
C4707 C4706 1.387 . S
C4707 C4709 1.387 . S
H4708 C4715 0.950 . S
C4709 C4707 1.387 . S
C4709 C4711 1.390 . S
C4709 H4713 0.950 . S
H4710 C4706 0.950 . S
C4711 C4709 1.390 . S
C4711 C4712 1.387 . S
C4711 H4714 0.950 . S
C4712 C4711 1.387 . S
C4712 C4715 1.387 . S
H4713 C4709 0.950 . S
H4714 C4711 0.950 . S
C4715 C4706 1.390 . S
C4715 H4708 0.950 . S
C4715 C4712 1.387 . S
C4716 C4717 1.387 . S
C4716 H4720 0.950 . S
C4716 C4725 1.390 . S
C4717 C4716 1.387 . S
C4717 C4719 1.387 . S
H4718 C4725 0.950 . S
C4719 C4717 1.387 . S
C4719 C4721 1.390 . S
C4719 H4723 0.950 . S
H4720 C4716 0.950 . S
C4721 C4719 1.390 . S
C4721 C4722 1.387 . S
C4721 H4724 0.950 . S
C4722 C4721 1.387 . S
C4722 C4725 1.387 . S
H4723 C4719 0.950 . S
H4724 C4721 0.950 . S
C4725 C4716 1.390 . S
C4725 H4718 0.950 . S
C4725 C4722 1.387 . S
C4726 C4727 1.387 . S
C4726 H4730 0.950 . S
C4726 C4735 1.390 . S
C4727 C4726 1.387 . S
C4727 C4729 1.387 . S
H4728 C4735 0.950 . S
C4729 C4727 1.387 . S
C4729 C4731 1.390 . S
C4729 H4733 0.950 . S
H4730 C4726 0.950 . S
C4731 C4729 1.390 . S
C4731 C4732 1.387 . S
C4731 H4734 0.950 . S
C4732 C4731 1.387 . S
C4732 C4735 1.387 . S
H4733 C4729 0.950 . S
H4734 C4731 0.950 . S
C4735 C4726 1.390 . S
C4735 H4728 0.950 . S
C4735 C4732 1.387 . S
C4736 C4737 1.387 . S
C4736 H4740 0.950 . S
C4736 C4745 1.390 . S
C4737 C4736 1.387 . S
C4737 C4739 1.387 . S
H4738 C4745 0.950 . S
C4739 C4737 1.387 . S
C4739 C4741 1.390 . S
C4739 H4743 0.950 . S
H4740 C4736 0.950 . S
C4741 C4739 1.390 . S
C4741 C4742 1.387 . S
C4741 H4744 0.950 . S
C4742 C4741 1.387 . S
C4742 C4745 1.387 . S
H4743 C4739 0.950 . S
H4744 C4741 0.950 . S
C4745 C4736 1.390 . S
C4745 H4738 0.950 . S
C4745 C4742 1.387 . S
C4746 C4747 1.387 . S
C4746 H4750 0.950 . S
C4746 C4755 1.390 . S
C4747 C4746 1.387 . S
C4747 C4749 1.387 . S
H4748 C4755 0.950 . S
C4749 C4747 1.387 . S
C4749 C4751 1.390 . S
C4749 H4753 0.950 . S
H4750 C4746 0.950 . S
C4751 C4749 1.390 . S
C4751 C4752 1.387 . S
C4751 H4754 0.950 . S
C4752 C4751 1.387 . S
C4752 C4755 1.387 . S
H4753 C4749 0.950 . S
H4754 C4751 0.950 . S
C4755 C4746 1.390 . S
C4755 H4748 0.950 . S
C4755 C4752 1.387 . S
C4756 C4757 1.387 . S
C4756 H4760 0.950 . S
C4756 C4765 1.390 . S
C4757 C4756 1.387 . S
C4757 C4759 1.387 . S
H4758 C4765 0.950 . S
C4759 C4757 1.387 . S
C4759 C4761 1.390 . S
C4759 H4763 0.950 . S
H4760 C4756 0.950 . S
C4761 C4759 1.390 . S
C4761 C4762 1.387 . S
C4761 H4764 0.950 . S
C4762 C4761 1.387 . S
C4762 C4765 1.387 . S
H4763 C4759 0.950 . S
H4764 C4761 0.950 . S
C4765 C4756 1.390 . S
C4765 H4758 0.950 . S
C4765 C4762 1.387 . S
C4766 C4767 1.387 . S
C4766 H4770 0.950 . S
C4766 C4775 1.390 . S
C4767 C4766 1.387 . S
C4767 C4769 1.387 . S
H4768 C4775 0.950 . S
C4769 C4767 1.387 . S
C4769 C4771 1.390 . S
C4769 H4773 0.950 . S
H4770 C4766 0.950 . S
C4771 C4769 1.390 . S
C4771 C4772 1.387 . S
C4771 H4774 0.950 . S
C4772 C4771 1.387 . S
C4772 C4775 1.387 . S
H4773 C4769 0.950 . S
H4774 C4771 0.950 . S
C4775 C4766 1.390 . S
C4775 H4768 0.950 . S
C4775 C4772 1.387 . S
C4776 C4777 1.387 . S
C4776 H4780 0.950 . S
C4776 C4785 1.390 . S
C4777 C4776 1.387 . S
C4777 C4779 1.387 . S
H4778 C4785 0.950 . S
C4779 C4777 1.387 . S
C4779 C4781 1.390 . S
C4779 H4783 0.950 . S
H4780 C4776 0.950 . S
C4781 C4779 1.390 . S
C4781 C4782 1.387 . S
C4781 H4784 0.950 . S
C4782 C4781 1.387 . S
C4782 C4785 1.387 . S
H4783 C4779 0.950 . S
H4784 C4781 0.950 . S
C4785 C4776 1.390 . S
C4785 H4778 0.950 . S
C4785 C4782 1.387 . S
C4786 C4787 1.387 . S
C4786 H4790 0.950 . S
C4786 C4795 1.390 . S
C4787 C4786 1.387 . S
C4787 C4789 1.387 . S
H4788 C4795 0.950 . S
C4789 C4787 1.387 . S
C4789 C4791 1.390 . S
C4789 H4793 0.950 . S
H4790 C4786 0.950 . S
C4791 C4789 1.390 . S
C4791 C4792 1.387 . S
C4791 H4794 0.950 . S
C4792 C4791 1.387 . S
C4792 C4795 1.387 . S
H4793 C4789 0.950 . S
H4794 C4791 0.950 . S
C4795 C4786 1.390 . S
C4795 H4788 0.950 . S
C4795 C4792 1.387 . S
C4796 C4797 1.387 . S
C4796 H4800 0.950 . S
C4796 C4805 1.390 . S
C4797 C4796 1.387 . S
C4797 C4799 1.387 . S
H4798 C4805 0.950 . S
C4799 C4797 1.387 . S
C4799 C4801 1.390 . S
C4799 H4803 0.950 . S
H4800 C4796 0.950 . S
C4801 C4799 1.390 . S
C4801 C4802 1.387 . S
C4801 H4804 0.950 . S
C4802 C4801 1.387 . S
C4802 C4805 1.387 . S
H4803 C4799 0.950 . S
H4804 C4801 0.950 . S
C4805 C4796 1.390 . S
C4805 H4798 0.950 . S
C4805 C4802 1.387 . S
C4806 C4807 1.387 . S
C4806 H4810 0.950 . S
C4806 C4815 1.390 . S
C4807 C4806 1.387 . S
C4807 C4809 1.387 . S
H4808 C4815 0.950 . S
C4809 C4807 1.387 . S
C4809 C4811 1.390 . S
C4809 H4813 0.950 . S
H4810 C4806 0.950 . S
C4811 C4809 1.390 . S
C4811 C4812 1.387 . S
C4811 H4814 0.950 . S
C4812 C4811 1.387 . S
C4812 C4815 1.387 . S
H4813 C4809 0.950 . S
H4814 C4811 0.950 . S
C4815 C4806 1.390 . S
C4815 H4808 0.950 . S
C4815 C4812 1.387 . S
C4816 C4817 1.387 . S
C4816 H4820 0.950 . S
C4816 C4825 1.390 . S
C4817 C4816 1.387 . S
C4817 C4819 1.387 . S
H4818 C4825 0.950 . S
C4819 C4817 1.387 . S
C4819 C4821 1.390 . S
C4819 H4823 0.950 . S
H4820 C4816 0.950 . S
C4821 C4819 1.390 . S
C4821 C4822 1.387 . S
C4821 H4824 0.950 . S
C4822 C4821 1.387 . S
C4822 C4825 1.387 . S
H4823 C4819 0.950 . S
H4824 C4821 0.950 . S
C4825 C4816 1.390 . S
C4825 H4818 0.950 . S
C4825 C4822 1.387 . S
C4826 C4827 1.387 . S
C4826 H4830 0.950 . S
C4826 C4835 1.390 . S
C4827 C4826 1.387 . S
C4827 C4829 1.387 . S
H4828 C4835 0.950 . S
C4829 C4827 1.387 . S
C4829 C4831 1.390 . S
C4829 H4833 0.950 . S
H4830 C4826 0.950 . S
C4831 C4829 1.390 . S
C4831 C4832 1.387 . S
C4831 H4834 0.950 . S
C4832 C4831 1.387 . S
C4832 C4835 1.387 . S
H4833 C4829 0.950 . S
H4834 C4831 0.950 . S
C4835 C4826 1.390 . S
C4835 H4828 0.950 . S
C4835 C4832 1.387 . S
C4836 C4837 1.387 . S
C4836 H4840 0.950 . S
C4836 C4845 1.390 . S
C4837 C4836 1.387 . S
C4837 C4839 1.387 . S
H4838 C4845 0.950 . S
C4839 C4837 1.387 . S
C4839 C4841 1.390 . S
C4839 H4843 0.950 . S
H4840 C4836 0.950 . S
C4841 C4839 1.390 . S
C4841 C4842 1.387 . S
C4841 H4844 0.950 . S
C4842 C4841 1.387 . S
C4842 C4845 1.387 . S
H4843 C4839 0.950 . S
H4844 C4841 0.950 . S
C4845 C4836 1.390 . S
C4845 H4838 0.950 . S
C4845 C4842 1.387 . S
C4846 C4847 1.387 . S
C4846 H4850 0.950 . S
C4846 C4855 1.390 . S
C4847 C4846 1.387 . S
C4847 C4849 1.387 . S
H4848 C4855 0.950 . S
C4849 C4847 1.387 . S
C4849 C4851 1.390 . S
C4849 H4853 0.950 . S
H4850 C4846 0.950 . S
C4851 C4849 1.390 . S
C4851 C4852 1.387 . S
C4851 H4854 0.950 . S
C4852 C4851 1.387 . S
C4852 C4855 1.387 . S
H4853 C4849 0.950 . S
H4854 C4851 0.950 . S
C4855 C4846 1.390 . S
C4855 H4848 0.950 . S
C4855 C4852 1.387 . S
C4856 C4857 1.387 . S
C4856 H4860 0.950 . S
C4856 C4865 1.390 . S
C4857 C4856 1.387 . S
C4857 C4859 1.387 . S
H4858 C4865 0.950 . S
C4859 C4857 1.387 . S
C4859 C4861 1.390 . S
C4859 H4863 0.950 . S
H4860 C4856 0.950 . S
C4861 C4859 1.390 . S
C4861 C4862 1.387 . S
C4861 H4864 0.950 . S
C4862 C4861 1.387 . S
C4862 C4865 1.387 . S
H4863 C4859 0.950 . S
H4864 C4861 0.950 . S
C4865 C4856 1.390 . S
C4865 H4858 0.950 . S
C4865 C4862 1.387 . S
C4866 C4867 1.387 . S
C4866 H4870 0.950 . S
C4866 C4875 1.390 . S
C4867 C4866 1.387 . S
C4867 C4869 1.387 . S
H4868 C4875 0.950 . S
C4869 C4867 1.387 . S
C4869 C4871 1.390 . S
C4869 H4873 0.950 . S
H4870 C4866 0.950 . S
C4871 C4869 1.390 . S
C4871 C4872 1.387 . S
C4871 H4874 0.950 . S
C4872 C4871 1.387 . S
C4872 C4875 1.387 . S
H4873 C4869 0.950 . S
H4874 C4871 0.950 . S
C4875 C4866 1.390 . S
C4875 H4868 0.950 . S
C4875 C4872 1.387 . S
C4876 C4877 1.387 . S
C4876 H4880 0.950 . S
C4876 C4885 1.390 . S
C4877 C4876 1.387 . S
C4877 C4879 1.387 . S
H4878 C4885 0.950 . S
C4879 C4877 1.387 . S
C4879 C4881 1.390 . S
C4879 H4883 0.950 . S
H4880 C4876 0.950 . S
C4881 C4879 1.390 . S
C4881 C4882 1.387 . S
C4881 H4884 0.950 . S
C4882 C4881 1.387 . S
C4882 C4885 1.387 . S
H4883 C4879 0.950 . S
H4884 C4881 0.950 . S
C4885 C4876 1.390 . S
C4885 H4878 0.950 . S
C4885 C4882 1.387 . S
C4886 C4887 1.387 . S
C4886 H4890 0.950 . S
C4886 C4895 1.390 . S
C4887 C4886 1.387 . S
C4887 C4889 1.387 . S
H4888 C4895 0.950 . S
C4889 C4887 1.387 . S
C4889 C4891 1.390 . S
C4889 H4893 0.950 . S
H4890 C4886 0.950 . S
C4891 C4889 1.390 . S
C4891 C4892 1.387 . S
C4891 H4894 0.950 . S
C4892 C4891 1.387 . S
C4892 C4895 1.387 . S
H4893 C4889 0.950 . S
H4894 C4891 0.950 . S
C4895 C4886 1.390 . S
C4895 H4888 0.950 . S
C4895 C4892 1.387 . S
C4896 C4897 1.387 . S
C4896 H4900 0.950 . S
C4896 C4905 1.390 . S
C4897 C4896 1.387 . S
C4897 C4899 1.387 . S
H4898 C4905 0.950 . S
C4899 C4897 1.387 . S
C4899 C4901 1.390 . S
C4899 H4903 0.950 . S
H4900 C4896 0.950 . S
C4901 C4899 1.390 . S
C4901 C4902 1.387 . S
C4901 H4904 0.950 . S
C4902 C4901 1.387 . S
C4902 C4905 1.387 . S
H4903 C4899 0.950 . S
H4904 C4901 0.950 . S
C4905 C4896 1.390 . S
C4905 H4898 0.950 . S
C4905 C4902 1.387 . S
C4906 C4907 1.387 . S
C4906 H4910 0.950 . S
C4906 C4915 1.390 . S
C4907 C4906 1.387 . S
C4907 C4909 1.387 . S
H4908 C4915 0.950 . S
C4909 C4907 1.387 . S
C4909 C4911 1.390 . S
C4909 H4913 0.950 . S
H4910 C4906 0.950 . S
C4911 C4909 1.390 . S
C4911 C4912 1.387 . S
C4911 H4914 0.950 . S
C4912 C4911 1.387 . S
C4912 C4915 1.387 . S
H4913 C4909 0.950 . S
H4914 C4911 0.950 . S
C4915 C4906 1.390 . S
C4915 H4908 0.950 . S
C4915 C4912 1.387 . S
C4916 C4917 1.387 . S
C4916 H4920 0.950 . S
C4916 C4925 1.390 . S
C4917 C4916 1.387 . S
C4917 C4919 1.387 . S
H4918 C4925 0.950 . S
C4919 C4917 1.387 . S
C4919 C4921 1.390 . S
C4919 H4923 0.950 . S
H4920 C4916 0.950 . S
C4921 C4919 1.390 . S
C4921 C4922 1.387 . S
C4921 H4924 0.950 . S
C4922 C4921 1.387 . S
C4922 C4925 1.387 . S
H4923 C4919 0.950 . S
H4924 C4921 0.950 . S
C4925 C4916 1.390 . S
C4925 H4918 0.950 . S
C4925 C4922 1.387 . S
C4926 C4927 1.387 . S
C4926 H4930 0.950 . S
C4926 C4935 1.390 . S
C4927 C4926 1.387 . S
C4927 C4929 1.387 . S
H4928 C4935 0.950 . S
C4929 C4927 1.387 . S
C4929 C4931 1.390 . S
C4929 H4933 0.950 . S
H4930 C4926 0.950 . S
C4931 C4929 1.390 . S
C4931 C4932 1.387 . S
C4931 H4934 0.950 . S
C4932 C4931 1.387 . S
C4932 C4935 1.387 . S
H4933 C4929 0.950 . S
H4934 C4931 0.950 . S
C4935 C4926 1.390 . S
C4935 H4928 0.950 . S
C4935 C4932 1.387 . S
C4936 C4937 1.387 . S
C4936 H4940 0.950 . S
C4936 C4945 1.390 . S
C4937 C4936 1.387 . S
C4937 C4939 1.387 . S
H4938 C4945 0.950 . S
C4939 C4937 1.387 . S
C4939 C4941 1.390 . S
C4939 H4943 0.950 . S
H4940 C4936 0.950 . S
C4941 C4939 1.390 . S
C4941 C4942 1.387 . S
C4941 H4944 0.950 . S
C4942 C4941 1.387 . S
C4942 C4945 1.387 . S
H4943 C4939 0.950 . S
H4944 C4941 0.950 . S
C4945 C4936 1.390 . S
C4945 H4938 0.950 . S
C4945 C4942 1.387 . S
C4946 C4947 1.387 . S
C4946 H4950 0.950 . S
C4946 C4955 1.390 . S
C4947 C4946 1.387 . S
C4947 C4949 1.387 . S
H4948 C4955 0.950 . S
C4949 C4947 1.387 . S
C4949 C4951 1.390 . S
C4949 H4953 0.950 . S
H4950 C4946 0.950 . S
C4951 C4949 1.390 . S
C4951 C4952 1.387 . S
C4951 H4954 0.950 . S
C4952 C4951 1.387 . S
C4952 C4955 1.387 . S
H4953 C4949 0.950 . S
H4954 C4951 0.950 . S
C4955 C4946 1.390 . S
C4955 H4948 0.950 . S
C4955 C4952 1.387 . S
C4956 C4957 1.387 . S
C4956 H4960 0.950 . S
C4956 C4965 1.390 . S
C4957 C4956 1.387 . S
C4957 C4959 1.387 . S
H4958 C4965 0.950 . S
C4959 C4957 1.387 . S
C4959 C4961 1.390 . S
C4959 H4963 0.950 . S
H4960 C4956 0.950 . S
C4961 C4959 1.390 . S
C4961 C4962 1.387 . S
C4961 H4964 0.950 . S
C4962 C4961 1.387 . S
C4962 C4965 1.387 . S
H4963 C4959 0.950 . S
H4964 C4961 0.950 . S
C4965 C4956 1.390 . S
C4965 H4958 0.950 . S
C4965 C4962 1.387 . S
C4966 C4967 1.387 . S
C4966 H4970 0.950 . S
C4966 C4975 1.390 . S
C4967 C4966 1.387 . S
C4967 C4969 1.387 . S
H4968 C4975 0.950 . S
C4969 C4967 1.387 . S
C4969 C4971 1.390 . S
C4969 H4973 0.950 . S
H4970 C4966 0.950 . S
C4971 C4969 1.390 . S
C4971 C4972 1.387 . S
C4971 H4974 0.950 . S
C4972 C4971 1.387 . S
C4972 C4975 1.387 . S
H4973 C4969 0.950 . S
H4974 C4971 0.950 . S
C4975 C4966 1.390 . S
C4975 H4968 0.950 . S
C4975 C4972 1.387 . S
C4976 C4977 1.387 . S
C4976 H4980 0.950 . S
C4976 C4985 1.390 . S
C4977 C4976 1.387 . S
C4977 C4979 1.387 . S
H4978 C4985 0.950 . S
C4979 C4977 1.387 . S
C4979 C4981 1.390 . S
C4979 H4983 0.950 . S
H4980 C4976 0.950 . S
C4981 C4979 1.390 . S
C4981 C4982 1.387 . S
C4981 H4984 0.950 . S
C4982 C4981 1.387 . S
C4982 C4985 1.387 . S
H4983 C4979 0.950 . S
H4984 C4981 0.950 . S
C4985 C4976 1.390 . S
C4985 H4978 0.950 . S
C4985 C4982 1.387 . S
C4986 C4987 1.387 . S
C4986 H4990 0.950 . S
C4986 C4995 1.390 . S
C4987 C4986 1.387 . S
C4987 C4989 1.387 . S
H4988 C4995 0.950 . S
C4989 C4987 1.387 . S
C4989 C4991 1.390 . S
C4989 H4993 0.950 . S
H4990 C4986 0.950 . S
C4991 C4989 1.390 . S
C4991 C4992 1.387 . S
C4991 H4994 0.950 . S
C4992 C4991 1.387 . S
C4992 C4995 1.387 . S
H4993 C4989 0.950 . S
H4994 C4991 0.950 . S
C4995 C4986 1.390 . S
C4995 H4988 0.950 . S
C4995 C4992 1.387 . S
C4996 C4997 1.387 . S
C4996 H5000 0.950 . S
C4996 C5005 1.390 . S
C4997 C4996 1.387 . S
C4997 C4999 1.387 . S
H4998 C5005 0.950 . S
C4999 C4997 1.387 . S
C4999 C5001 1.390 . S
C4999 H5003 0.950 . S
H5000 C4996 0.950 . S
C5001 C4999 1.390 . S
C5001 C5002 1.387 . S
C5001 H5004 0.950 . S
C5002 C5001 1.387 . S
C5002 C5005 1.387 . S
H5003 C4999 0.950 . S
H5004 C5001 0.950 . S
C5005 C4996 1.390 . S
C5005 H4998 0.950 . S
C5005 C5002 1.387 . S
C5006 C5007 1.387 . S
C5006 H5010 0.950 . S
C5006 C5015 1.390 . S
C5007 C5006 1.387 . S
C5007 C5009 1.387 . S
H5008 C5015 0.950 . S
C5009 C5007 1.387 . S
C5009 C5011 1.390 . S
C5009 H5013 0.950 . S
H5010 C5006 0.950 . S
C5011 C5009 1.390 . S
C5011 C5012 1.387 . S
C5011 H5014 0.950 . S
C5012 C5011 1.387 . S
C5012 C5015 1.387 . S
H5013 C5009 0.950 . S
H5014 C5011 0.950 . S
C5015 C5006 1.390 . S
C5015 H5008 0.950 . S
C5015 C5012 1.387 . S
C5016 C5017 1.387 . S
C5016 H5020 0.950 . S
C5016 C5025 1.390 . S
C5017 C5016 1.387 . S
C5017 C5019 1.387 . S
H5018 C5025 0.950 . S
C5019 C5017 1.387 . S
C5019 C5021 1.390 . S
C5019 H5023 0.950 . S
H5020 C5016 0.950 . S
C5021 C5019 1.390 . S
C5021 C5022 1.387 . S
C5021 H5024 0.938 1_655 S
C5022 C5021 1.387 . S
C5022 C5025 1.387 . S
H5023 C5019 0.950 . S
H5024 C5021 0.938 1_455 S
C5025 C5016 1.390 . S
C5025 H5018 0.950 . S
C5025 C5022 1.387 . S
C5026 C5027 1.387 . S
C5026 H5030 0.950 . S
C5026 C5035 1.390 . S
C5027 C5026 1.387 . S
C5027 C5029 1.387 . S
H5028 C5035 0.950 . S
C5029 C5027 1.387 . S
C5029 C5031 1.390 . S
C5029 H5033 0.950 . S
H5030 C5026 0.950 . S
C5031 C5029 1.390 . S
C5031 C5032 1.387 . S
C5031 H5034 0.950 . S
C5032 C5031 1.387 . S
C5032 C5035 1.387 . S
H5033 C5029 0.950 . S
H5034 C5031 0.950 . S
C5035 C5026 1.390 . S
C5035 H5028 0.950 . S
C5035 C5032 1.387 . S
C5036 C5037 1.387 . S
C5036 H5040 0.950 . S
C5036 C5045 1.390 . S
C5037 C5036 1.387 . S
C5037 C5039 1.387 . S
H5038 C5045 0.950 . S
C5039 C5037 1.387 . S
C5039 C5041 1.390 . S
C5039 H5043 0.950 . S
H5040 C5036 0.950 . S
C5041 C5039 1.390 . S
C5041 C5042 1.387 . S
C5041 H5044 0.950 . S
C5042 C5041 1.387 . S
C5042 C5045 1.387 . S
H5043 C5039 0.950 . S
H5044 C5041 0.950 . S
C5045 C5036 1.390 . S
C5045 H5038 0.950 . S
C5045 C5042 1.387 . S
C5046 C5047 1.387 . S
C5046 H5050 0.950 . S
C5046 C5055 1.390 . S
C5047 C5046 1.387 . S
C5047 C5049 1.387 . S
H5048 C5055 0.950 . S
C5049 C5047 1.387 . S
C5049 C5051 1.390 . S
C5049 H5053 0.950 . S
H5050 C5046 0.950 . S
C5051 C5049 1.390 . S
C5051 C5052 1.387 . S
C5051 H5054 0.950 . S
C5052 C5051 1.387 . S
C5052 C5055 1.387 . S
H5053 C5049 0.950 . S
H5054 C5051 0.950 . S
C5055 C5046 1.390 . S
C5055 H5048 0.950 . S
C5055 C5052 1.387 . S
C5056 C5057 1.387 . S
C5056 H5060 0.950 . S
C5056 C5065 1.390 . S
C5057 C5056 1.387 . S
C5057 C5059 1.387 . S
H5058 C5065 0.950 . S
C5059 C5057 1.387 . S
C5059 C5061 1.390 . S
C5059 H5063 0.950 . S
H5060 C5056 0.950 . S
C5061 C5059 1.390 . S
C5061 C5062 1.387 . S
C5061 H5064 0.950 . S
C5062 C5061 1.387 . S
C5062 C5065 1.387 . S
H5063 C5059 0.950 . S
H5064 C5061 0.950 . S
C5065 C5056 1.390 . S
C5065 H5058 0.950 . S
C5065 C5062 1.387 . S
C5066 C5067 1.387 . S
C5066 H5070 0.950 . S
C5066 C5075 1.390 . S
C5067 C5066 1.387 . S
C5067 C5069 1.387 . S
H5068 C5075 0.950 . S
C5069 C5067 1.387 . S
C5069 C5071 1.390 . S
C5069 H5073 0.950 . S
H5070 C5066 0.950 . S
C5071 C5069 1.390 . S
C5071 C5072 1.387 . S
C5071 H5074 0.950 . S
C5072 C5071 1.387 . S
C5072 C5075 1.387 . S
H5073 C5069 0.950 . S
H5074 C5071 0.950 . S
C5075 C5066 1.390 . S
C5075 H5068 0.950 . S
C5075 C5072 1.387 . S
C5076 C5077 1.387 . S
C5076 H5080 0.950 . S
C5076 C5085 1.390 . S
C5077 C5076 1.387 . S
C5077 C5079 1.387 . S
H5078 C5085 0.950 . S
C5079 C5077 1.387 . S
C5079 C5081 1.390 . S
C5079 H5083 0.950 . S
H5080 C5076 0.950 . S
C5081 C5079 1.390 . S
C5081 C5082 1.387 . S
C5081 H5084 0.950 . S
C5082 C5081 1.387 . S
C5082 C5085 1.387 . S
H5083 C5079 0.950 . S
H5084 C5081 0.950 . S
C5085 C5076 1.390 . S
C5085 H5078 0.950 . S
C5085 C5082 1.387 . S
C5086 C5087 1.387 . S
C5086 H5090 0.950 . S
C5086 C5095 1.390 . S
C5087 C5086 1.387 . S
C5087 C5089 1.387 . S
H5088 C5095 0.950 . S
C5089 C5087 1.387 . S
C5089 C5091 1.390 . S
C5089 H5093 0.950 . S
H5090 C5086 0.950 . S
C5091 C5089 1.390 . S
C5091 C5092 1.387 . S
C5091 H5094 0.950 . S
C5092 C5091 1.387 . S
C5092 C5095 1.387 . S
H5093 C5089 0.950 . S
H5094 C5091 0.950 . S
C5095 C5086 1.390 . S
C5095 H5088 0.950 . S
C5095 C5092 1.387 . S
C5096 C5097 1.387 . S
C5096 H5100 0.950 . S
C5096 C5105 1.390 . S
C5097 C5096 1.387 . S
C5097 C5099 1.387 . S
H5098 C5105 0.950 . S
C5099 C5097 1.387 . S
C5099 C5101 1.390 . S
C5099 H5103 0.950 . S
H5100 C5096 0.950 . S
C5101 C5099 1.390 . S
C5101 C5102 1.387 . S
C5101 H5104 0.950 . S
C5102 C5101 1.387 . S
C5102 C5105 1.387 . S
H5103 C5099 0.950 . S
H5104 C5101 0.950 . S
C5105 C5096 1.390 . S
C5105 H5098 0.950 . S
C5105 C5102 1.387 . S
C5106 C5107 1.387 . S
C5106 H5110 0.950 . S
C5106 C5115 1.390 . S
C5107 C5106 1.387 . S
C5107 C5109 1.387 . S
H5108 C5115 0.950 . S
C5109 C5107 1.387 . S
C5109 C5111 1.390 . S
C5109 H5113 0.950 . S
H5110 C5106 0.950 . S
C5111 C5109 1.390 . S
C5111 C5112 1.387 . S
C5111 H5114 0.950 . S
C5112 C5111 1.387 . S
C5112 C5115 1.387 . S
H5113 C5109 0.950 . S
H5114 C5111 0.950 . S
C5115 C5106 1.390 . S
C5115 H5108 0.950 . S
C5115 C5112 1.387 . S
C5116 C5117 1.387 . S
C5116 H5120 0.950 . S
C5116 C5125 1.390 . S
C5117 C5116 1.387 . S
C5117 C5119 1.387 . S
H5118 C5125 0.950 . S
C5119 C5117 1.387 . S
C5119 C5121 1.390 . S
C5119 H5123 0.950 . S
H5120 C5116 0.950 . S
C5121 C5119 1.390 . S
C5121 C5122 1.387 . S
C5121 H5124 0.950 . S
C5122 C5121 1.387 . S
C5122 C5125 1.387 . S
H5123 C5119 0.950 . S
H5124 C5121 0.950 . S
C5125 C5116 1.390 . S
C5125 H5118 0.950 . S
C5125 C5122 1.387 . S
C5126 C5127 1.387 . S
C5126 H5130 0.950 . S
C5126 C5135 1.390 . S
C5127 C5126 1.387 . S
C5127 C5129 1.387 . S
H5128 C5135 0.950 . S
C5129 C5127 1.387 . S
C5129 C5131 1.390 . S
C5129 H5133 0.950 . S
H5130 C5126 0.950 . S
C5131 C5129 1.390 . S
C5131 C5132 1.387 . S
C5131 H5134 0.950 . S
C5132 C5131 1.387 . S
C5132 C5135 1.387 . S
H5133 C5129 0.950 . S
H5134 C5131 0.950 . S
C5135 C5126 1.390 . S
C5135 H5128 0.950 . S
C5135 C5132 1.387 . S
C5136 C5137 1.387 . S
C5136 H5140 0.950 . S
C5136 C5145 1.390 . S
C5137 C5136 1.387 . S
C5137 C5139 1.387 . S
H5138 C5145 0.950 . S
C5139 C5137 1.387 . S
C5139 C5141 1.390 . S
C5139 H5143 0.950 . S
H5140 C5136 0.950 . S
C5141 C5139 1.390 . S
C5141 C5142 1.387 . S
C5141 H5144 0.950 . S
C5142 C5141 1.387 . S
C5142 C5145 1.387 . S
H5143 C5139 0.950 . S
H5144 C5141 0.950 . S
C5145 C5136 1.390 . S
C5145 H5138 0.950 . S
C5145 C5142 1.387 . S
C5146 C5147 1.387 . S
C5146 H5150 0.950 . S
C5146 C5155 1.390 . S
C5147 C5146 1.387 . S
C5147 C5149 1.387 . S
H5148 C5155 0.950 . S
C5149 C5147 1.387 . S
C5149 C5151 1.390 . S
C5149 H5153 0.950 . S
H5150 C5146 0.950 . S
C5151 C5149 1.390 . S
C5151 C5152 1.387 . S
C5151 H5154 0.950 . S
C5152 C5151 1.387 . S
C5152 C5155 1.387 . S
H5153 C5149 0.950 . S
H5154 C5151 0.950 . S
C5155 C5146 1.390 . S
C5155 H5148 0.950 . S
C5155 C5152 1.387 . S
C5156 C5157 1.387 . S
C5156 H5160 0.950 . S
C5156 C5165 1.390 . S
C5157 C5156 1.387 . S
C5157 C5159 1.387 . S
H5158 C5165 0.950 . S
C5159 C5157 1.387 . S
C5159 C5161 1.390 . S
C5159 H5163 0.950 . S
H5160 C5156 0.950 . S
C5161 C5159 1.390 . S
C5161 C5162 1.387 . S
C5161 H5164 0.950 . S
C5162 C5161 1.387 . S
C5162 C5165 1.387 . S
H5163 C5159 0.950 . S
H5164 C5161 0.950 . S
C5165 C5156 1.390 . S
C5165 H5158 0.950 . S
C5165 C5162 1.387 . S
C5166 C5167 1.387 . S
C5166 H5170 0.950 . S
C5166 C5175 1.390 . S
C5167 C5166 1.387 . S
C5167 C5169 1.387 . S
H5168 C5175 0.950 . S
C5169 C5167 1.387 . S
C5169 C5171 1.390 . S
C5169 H5173 0.950 . S
H5170 C5166 0.950 . S
C5171 C5169 1.390 . S
C5171 C5172 1.387 . S
C5171 H5174 0.950 . S
C5172 C5171 1.387 . S
C5172 C5175 1.387 . S
H5173 C5169 0.950 . S
H5174 C5171 0.950 . S
C5175 C5166 1.390 . S
C5175 H5168 0.950 . S
C5175 C5172 1.387 . S
C5176 C5177 1.387 . S
C5176 H5180 0.950 . S
C5176 C5185 1.390 . S
C5177 C5176 1.387 . S
C5177 C5179 1.387 . S
H5178 C5185 0.950 . S
C5179 C5177 1.387 . S
C5179 C5181 1.390 . S
C5179 H5183 0.950 . S
H5180 C5176 0.950 . S
C5181 C5179 1.390 . S
C5181 C5182 1.387 . S
C5181 H5184 0.950 . S
C5182 C5181 1.387 . S
C5182 C5185 1.387 . S
H5183 C5179 0.950 . S
H5184 C5181 0.950 . S
C5185 C5176 1.390 . S
C5185 H5178 0.950 . S
C5185 C5182 1.387 . S
C5186 C5187 1.387 . S
C5186 H5190 0.950 . S
C5186 C5195 1.390 . S
C5187 C5186 1.387 . S
C5187 C5189 1.387 . S
H5188 C5195 0.950 . S
C5189 C5187 1.387 . S
C5189 C5191 1.390 . S
C5189 H5193 0.950 . S
H5190 C5186 0.950 . S
C5191 C5189 1.390 . S
C5191 C5192 1.387 . S
C5191 H5194 0.950 . S
C5192 C5191 1.387 . S
C5192 C5195 1.387 . S
H5193 C5189 0.950 . S
H5194 C5191 0.950 . S
C5195 C5186 1.390 . S
C5195 H5188 0.950 . S
C5195 C5192 1.387 . S
C5196 C5197 1.387 . S
C5196 H5200 0.950 . S
C5196 C5205 1.390 . S
C5197 C5196 1.387 . S
C5197 C5199 1.387 . S
H5198 C5205 0.950 . S
C5199 C5197 1.387 . S
C5199 C5201 1.390 . S
C5199 H5203 0.950 . S
H5200 C5196 0.950 . S
C5201 C5199 1.390 . S
C5201 C5202 1.387 . S
C5201 H5204 0.950 . S
C5202 C5201 1.387 . S
C5202 C5205 1.387 . S
H5203 C5199 0.950 . S
H5204 C5201 0.950 . S
C5205 C5196 1.390 . S
C5205 H5198 0.950 . S
C5205 C5202 1.387 . S
C5206 C5207 1.387 . S
C5206 H5210 0.950 . S
C5206 C5215 1.390 . S
C5207 C5206 1.387 . S
C5207 C5209 1.387 . S
H5208 C5215 0.950 . S
C5209 C5207 1.387 . S
C5209 C5211 1.390 . S
C5209 H5213 0.950 . S
H5210 C5206 0.950 . S
C5211 C5209 1.390 . S
C5211 C5212 1.387 . S
C5211 H5214 0.950 . S
C5212 C5211 1.387 . S
C5212 C5215 1.387 . S
H5213 C5209 0.950 . S
H5214 C5211 0.950 . S
C5215 C5206 1.390 . S
C5215 H5208 0.950 . S
C5215 C5212 1.387 . S
C5216 C5217 1.387 . S
C5216 H5220 0.950 . S
C5216 C5225 1.390 . S
C5217 C5216 1.387 . S
C5217 C5219 1.387 . S
H5218 C5225 0.950 . S
C5219 C5217 1.387 . S
C5219 C5221 1.390 . S
C5219 H5223 0.950 . S
H5220 C5216 0.950 . S
C5221 C5219 1.390 . S
C5221 C5222 1.387 . S
C5221 H5224 0.950 . S
C5222 C5221 1.387 . S
C5222 C5225 1.387 . S
H5223 C5219 0.950 . S
H5224 C5221 0.950 . S
C5225 C5216 1.390 . S
C5225 H5218 0.950 . S
C5225 C5222 1.387 . S
C5226 C5227 1.387 . S
C5226 H5230 0.950 . S
C5226 C5235 1.390 . S
C5227 C5226 1.387 . S
C5227 C5229 1.387 . S
H5228 C5235 0.950 . S
C5229 C5227 1.387 . S
C5229 C5231 1.390 . S
C5229 H5233 0.950 . S
H5230 C5226 0.950 . S
C5231 C5229 1.390 . S
C5231 C5232 1.387 . S
C5231 H5234 0.950 . S
C5232 C5231 1.387 . S
C5232 C5235 1.387 . S
H5233 C5229 0.950 . S
H5234 C5231 0.950 . S
C5235 C5226 1.390 . S
C5235 H5228 0.950 . S
C5235 C5232 1.387 . S
C5236 C5237 1.387 . S
C5236 H5240 0.950 . S
C5236 C5245 1.390 . S
C5237 C5236 1.387 . S
C5237 C5239 1.387 . S
H5238 C5245 0.950 . S
C5239 C5237 1.387 . S
C5239 C5241 1.390 . S
C5239 H5243 0.950 . S
H5240 C5236 0.950 . S
C5241 C5239 1.390 . S
C5241 C5242 1.387 . S
C5241 H5244 0.950 . S
C5242 C5241 1.387 . S
C5242 C5245 1.387 . S
H5243 C5239 0.950 . S
H5244 C5241 0.950 . S
C5245 C5236 1.390 . S
C5245 H5238 0.950 . S
C5245 C5242 1.387 . S
C5246 C5247 1.387 . S
C5246 H5250 0.950 . S
C5246 C5255 1.390 . S
C5247 C5246 1.387 . S
C5247 C5249 1.387 . S
H5248 C5255 0.950 . S
C5249 C5247 1.387 . S
C5249 C5251 1.390 . S
C5249 H5253 0.950 . S
H5250 C5246 0.950 . S
C5251 C5249 1.390 . S
C5251 C5252 1.387 . S
C5251 H5254 0.950 . S
C5252 C5251 1.387 . S
C5252 C5255 1.387 . S
H5253 C5249 0.950 . S
H5254 C5251 0.950 . S
C5255 C5246 1.390 . S
C5255 H5248 0.950 . S
C5255 C5252 1.387 . S
C5256 C5257 1.387 . S
C5256 H5260 0.950 . S
C5256 C5265 1.390 . S
C5257 C5256 1.387 . S
C5257 C5259 1.387 . S
H5258 C5265 0.950 . S
C5259 C5257 1.387 . S
C5259 C5261 1.390 . S
C5259 H5263 0.950 . S
H5260 C5256 0.950 . S
C5261 C5259 1.390 . S
C5261 C5262 1.387 . S
C5261 H5264 0.950 . S
C5262 C5261 1.387 . S
C5262 C5265 1.387 . S
H5263 C5259 0.950 . S
H5264 C5261 0.950 . S
C5265 C5256 1.390 . S
C5265 H5258 0.950 . S
C5265 C5262 1.387 . S
C5266 C5267 1.387 . S
C5266 H5270 0.950 . S
C5266 C5275 1.390 . S
C5267 C5266 1.387 . S
C5267 C5269 1.387 . S
H5268 C5275 0.950 . S
C5269 C5267 1.387 . S
C5269 C5271 1.390 . S
C5269 H5273 0.950 . S
H5270 C5266 0.950 . S
C5271 C5269 1.390 . S
C5271 C5272 1.387 . S
C5271 H5274 0.950 . S
C5272 C5271 1.387 . S
C5272 C5275 1.387 . S
H5273 C5269 0.950 . S
H5274 C5271 0.950 . S
C5275 C5266 1.390 . S
C5275 H5268 0.950 . S
C5275 C5272 1.387 . S
C5276 C5277 1.387 . S
C5276 H5280 0.950 . S
C5276 C5285 1.390 . S
C5277 C5276 1.387 . S
C5277 C5279 1.387 . S
H5278 C5285 0.950 . S
C5279 C5277 1.387 . S
C5279 C5281 1.390 . S
C5279 H5283 0.950 . S
H5280 C5276 0.950 . S
C5281 C5279 1.390 . S
C5281 C5282 1.387 . S
C5281 H5284 0.950 . S
C5282 C5281 1.387 . S
C5282 C5285 1.387 . S
H5283 C5279 0.950 . S
H5284 C5281 0.950 . S
C5285 C5276 1.390 . S
C5285 H5278 0.950 . S
C5285 C5282 1.387 . S
C5286 C5287 1.387 . S
C5286 H5290 0.950 . S
C5286 C5295 1.390 . S
C5287 C5286 1.387 . S
C5287 C5289 1.387 . S
H5288 C5295 0.950 . S
C5289 C5287 1.387 . S
C5289 C5291 1.390 . S
C5289 H5293 0.950 . S
H5290 C5286 0.950 . S
C5291 C5289 1.390 . S
C5291 C5292 1.387 . S
C5291 H5294 0.950 . S
C5292 C5291 1.387 . S
C5292 C5295 1.387 . S
H5293 C5289 0.950 . S
H5294 C5291 0.950 . S
C5295 C5286 1.390 . S
C5295 H5288 0.950 . S
C5295 C5292 1.387 . S
C5296 C5297 1.387 . S
C5296 H5300 0.950 . S
C5296 C5305 1.390 . S
C5297 C5296 1.387 . S
C5297 C5299 1.387 . S
H5298 C5305 0.950 . S
C5299 C5297 1.387 . S
C5299 C5301 1.390 . S
C5299 H5303 0.950 . S
H5300 C5296 0.950 . S
C5301 C5299 1.390 . S
C5301 C5302 1.387 . S
C5301 H5304 0.950 1_545 S
C5302 C5301 1.387 . S
C5302 C5305 1.387 . S
H5303 C5299 0.950 . S
H5304 C5301 0.950 1_565 S
C5305 C5296 1.390 . S
C5305 H5298 0.950 . S
C5305 C5302 1.387 . S
C5306 C5307 1.387 . S
C5306 H5310 0.950 . S
C5306 C5315 1.390 . S
C5307 C5306 1.387 . S
C5307 C5309 1.387 . S
H5308 C5315 0.950 . S
C5309 C5307 1.387 . S
C5309 C5311 1.390 . S
C5309 H5313 0.950 . S
H5310 C5306 0.950 . S
C5311 C5309 1.390 . S
C5311 C5312 1.387 . S
C5311 H5314 0.950 . S
C5312 C5311 1.387 . S
C5312 C5315 1.387 . S
H5313 C5309 0.950 . S
H5314 C5311 0.950 . S
C5315 C5306 1.390 . S
C5315 H5308 0.950 . S
C5315 C5312 1.387 . S
C5316 C5317 1.387 . S
C5316 H5320 0.950 . S
C5316 C5325 1.390 . S
C5317 C5316 1.387 . S
C5317 C5319 1.387 . S
H5318 C5325 0.950 . S
C5319 C5317 1.387 . S
C5319 C5321 1.390 . S
C5319 H5323 0.950 . S
H5320 C5316 0.950 . S
C5321 C5319 1.390 . S
C5321 C5322 1.387 . S
C5321 H5324 0.950 . S
C5322 C5321 1.387 . S
C5322 C5325 1.387 . S
H5323 C5319 0.950 . S
H5324 C5321 0.950 . S
C5325 C5316 1.390 . S
C5325 H5318 0.950 . S
C5325 C5322 1.387 . S
C5326 C5327 1.387 . S
C5326 H5330 0.950 . S
C5326 C5335 1.390 . S
C5327 C5326 1.387 . S
C5327 C5329 1.387 . S
H5328 C5335 0.950 . S
C5329 C5327 1.387 . S
C5329 C5331 1.390 . S
C5329 H5333 0.950 . S
H5330 C5326 0.950 . S
C5331 C5329 1.390 . S
C5331 C5332 1.387 . S
C5331 H5334 0.950 . S
C5332 C5331 1.387 . S
C5332 C5335 1.387 . S
H5333 C5329 0.950 . S
H5334 C5331 0.950 . S
C5335 C5326 1.390 . S
C5335 H5328 0.950 . S
C5335 C5332 1.387 . S
C5336 C5337 1.387 . S
C5336 H5340 0.950 . S
C5336 C5345 1.390 . S
C5337 C5336 1.387 . S
C5337 C5339 1.387 . S
H5338 C5345 0.950 . S
C5339 C5337 1.387 . S
C5339 C5341 1.390 . S
C5339 H5343 0.950 . S
H5340 C5336 0.950 . S
C5341 C5339 1.390 . S
C5341 C5342 1.387 . S
C5341 H5344 0.950 . S
C5342 C5341 1.387 . S
C5342 C5345 1.387 . S
H5343 C5339 0.950 . S
H5344 C5341 0.950 . S
C5345 C5336 1.390 . S
C5345 H5338 0.950 . S
C5345 C5342 1.387 . S
C5346 C5347 1.387 . S
C5346 H5350 0.950 . S
C5346 C5355 1.390 . S
C5347 C5346 1.387 . S
C5347 C5349 1.387 . S
H5348 C5355 0.950 . S
C5349 C5347 1.387 . S
C5349 C5351 1.390 . S
C5349 H5353 0.950 . S
H5350 C5346 0.950 . S
C5351 C5349 1.390 . S
C5351 C5352 1.387 . S
C5351 H5354 0.950 . S
C5352 C5351 1.387 . S
C5352 C5355 1.387 . S
H5353 C5349 0.950 . S
H5354 C5351 0.950 . S
C5355 C5346 1.390 . S
C5355 H5348 0.950 . S
C5355 C5352 1.387 . S
C5356 C5357 1.387 . S
C5356 H5360 0.950 . S
C5356 C5365 1.390 . S
C5357 C5356 1.387 . S
C5357 C5359 1.387 . S
H5358 C5365 0.950 . S
C5359 C5357 1.387 . S
C5359 C5361 1.390 . S
C5359 H5363 0.950 . S
H5360 C5356 0.950 . S
C5361 C5359 1.390 . S
C5361 C5362 1.387 . S
C5361 H5364 0.950 . S
C5362 C5361 1.387 . S
C5362 C5365 1.387 . S
H5363 C5359 0.950 . S
H5364 C5361 0.950 . S
C5365 C5356 1.390 . S
C5365 H5358 0.950 . S
C5365 C5362 1.387 . S
C5366 C5367 1.387 . S
C5366 H5370 0.950 . S
C5366 C5375 1.390 . S
C5367 C5366 1.387 . S
C5367 C5369 1.387 . S
H5368 C5375 0.950 . S
C5369 C5367 1.387 . S
C5369 C5371 1.390 . S
C5369 H5373 0.950 . S
H5370 C5366 0.950 . S
C5371 C5369 1.390 . S
C5371 C5372 1.387 . S
C5371 H5374 0.950 . S
C5372 C5371 1.387 . S
C5372 C5375 1.387 . S
H5373 C5369 0.950 . S
H5374 C5371 0.950 . S
C5375 C5366 1.390 . S
C5375 H5368 0.950 . S
C5375 C5372 1.387 . S
C3457 C4 1.351 . S
C3462 C2702 1.263 . S
C3467 C866 1.262 . S
C3472 C40 1.351 . S
C3477 C2630 1.261 . S
C3482 C76 1.353 . S
C3487 C938 1.260 . S
C3492 C112 1.353 . S
C3497 C148 1.353 . S
C3502 C2774 1.263 . S
C3507 C184 1.351 . S
C3512 C1082 1.262 . S
C3517 C2846 1.259 . S
C3522 C220 1.352 . S
C3527 C256 1.353 . S
C3532 C1010 1.260 . S
C3537 C292 1.353 . S
C3542 C3242 1.260 . S
C3547 C1550 1.261 . S
C3552 C328 1.351 . S
C3557 C364 1.351 . S
C3562 C1586 1.264 . S
C3567 C400 1.351 . S
C3572 C1478 1.262 . S
C3577 C436 1.353 . S
C3582 C3386 1.259 . S
C3587 C472 1.353 . S
C3592 C3170 1.262 . S
C3597 C508 1.352 . S
C3602 C3422 1.259 . S
C3607 C544 1.351 . S
C3612 C3350 1.260 . S
C3617 C2918 1.263 . S
C3622 C580 1.351 . S
C3627 C616 1.351 . S
C3632 C1406 1.263 . S
C3637 C652 1.352 . S
C3642 C3026 1.259 . S
C3647 C1334 1.261 . S
C3652 C688 1.353 . S
C3657 C724 1.352 . S
C3662 C1370 1.263 . S
C3667 C2990 1.260 . S
C3672 C760 1.353 . S
C3677 C796 1.352 . S
C3682 C2882 1.264 . S
C3687 C2954 1.264 . S
C3692 C832 1.351 . S
C3697 C1838 1.261 . S
C3702 C868 1.351 . S
C3707 C2 1.260 . S
C3712 C904 1.353 . S
C3717 C940 1.351 . S
C3722 C1766 1.262 . S
C3727 C976 1.353 . S
C3732 C74 1.260 . S
C3737 C1012 1.353 . S
C3742 C1910 1.261 . S
C3747 C218 1.262 . S
C3752 C1048 1.353 . S
C3757 C1084 1.353 . S
C3762 C1982 1.263 . S
C3767 C1120 1.353 . S
C3772 C146 1.262 . S
C3777 C1156 1.353 . S
C3782 C2378 1.259 . S
C3787 C686 1.262 . S
C3792 C1192 1.351 . S
C3797 C1228 1.351 . S
C3802 C722 1.264 . S
C3807 C614 1.260 . S
C3812 C1264 1.352 . S
C3817 C1300 1.353 . S
C3822 C2522 1.259 . S
C3827 C1336 1.353 . S
C3832 C2306 1.262 . S
C3837 C1372 1.351 . S
C3842 C2558 1.264 . S
C3847 C2486 1.264 . S
C3852 C1408 1.352 . S
C3857 C2054 1.264 . S
C3862 C1444 1.351 . S
C3867 C542 1.264 . S
C3872 C1480 1.351 . S
C3877 C2162 1.259 . S
C3882 C1516 1.352 . S
C3887 C1552 1.351 . S
C3892 C470 1.264 . S
C3897 C1588 1.352 . S
C3902 C506 1.264 . S
C3907 C1624 1.351 . S
C3912 C2126 1.262 . S
C3917 C2018 1.264 . S
C3922 C1660 1.352 . S
C3927 C1696 1.352 . S
C3932 C2090 1.264 . S
C3937 C974 1.260 . S
C3942 C1732 1.352 . S
C3947 C2594 1.264 . S
C3952 C1768 1.351 . S
C3957 C1804 1.351 . S
C3962 C902 1.261 . S
C3967 C2666 1.261 . S
C3972 C1840 1.353 . S
C3977 C1876 1.351 . S
C3982 C1046 1.261 . S
C3987 C2810 1.260 . S
C3992 C1912 1.353 . S
C3997 C1948 1.352 . S
C4002 C1118 1.263 . S
C4007 C2738 1.262 . S
C4012 C1984 1.351 . S
C4017 C1514 1.259 . S
C4022 C2020 1.352 . S
C4027 C2056 1.352 . S
C4032 C3278 1.260 . S
C4037 C3314 1.264 . S
C4042 C2092 1.351 . S
C4047 C2128 1.351 . S
C4052 C3206 1.262 . S
C4057 C1658 1.264 . S
C4062 C2164 1.351 . S
C4067 C2200 1.351 . S
C4072 C1442 1.261 . S
C4077 C1694 1.260 . S
C4082 C2236 1.353 . S
C4087 C1622 1.260 . S
C4092 C2272 1.352 . S
C4097 C1190 1.263 . S
C4102 C2308 1.353 . S
C4107 C3134 1.263 . S
C4112 C2344 1.351 . S
C4117 C2380 1.353 . S
C4122 C1298 1.259 . S
C4127 C2416 1.353 . S
C4132 C3062 1.260 . S
C4137 C3098 1.264 . S
C4142 C2452 1.351 . S
C4147 C1262 1.261 . S
C4152 C2488 1.353 . S
C4157 C1154 1.264 . S
C4162 C2524 1.352 . S
C4167 C1226 1.264 . S
C4172 C2560 1.351 . S
C4177 C2596 1.351 . S
C4182 C110 1.262 . S
C4187 C2632 1.352 . S
C4192 C1730 1.259 . S
C4197 C2668 1.353 . S
C4202 C38 1.262 . S
C4207 C2704 1.353 . S
C4212 C1802 1.261 . S
C4217 C182 1.260 . S
C4222 C2740 1.351 . S
C4227 C1946 1.261 . S
C4232 C2776 1.353 . S
C4237 C254 1.261 . S
C4242 C2812 1.351 . S
C4247 C1874 1.262 . S
C4252 C2848 1.353 . S
C4257 C2884 1.353 . S
C4262 C650 1.261 . S
C4267 C2414 1.261 . S
C4272 C2920 1.353 . S
C4277 C2956 1.351 . S
C4282 C2450 1.264 . S
C4287 C2992 1.353 . S
C4292 C2342 1.261 . S
C4297 C794 1.264 . S
C4302 C3028 1.351 . S
C4307 C578 1.264 . S
C4312 C3064 1.352 . S
C4317 C3100 1.353 . S
C4322 C830 1.260 . S
C4327 C758 1.262 . S
C4332 C3136 1.351 . S
C4337 C3172 1.353 . S
C4342 C326 1.261 . S
C4347 C3208 1.352 . S
C4352 C2270 1.260 . S
C4357 C434 1.264 . S
C4362 C3244 1.352 . S
C4367 C3280 1.353 . S
C4372 C2198 1.261 . S
C4377 C2234 1.259 . S
C4382 C3316 1.352 . S
C4387 C3352 1.353 . S
C4392 C398 1.259 . S
C4397 C3388 1.351 . S
C4402 C290 1.263 . S
C4407 C3424 1.353 . S
C4412 C362 1.259 . S
C4417 C14 1.295 . S
C4422 C1551 1.400 . S
C4427 C1587 1.400 . S
C4432 C50 1.292 . S
C4437 C1479 1.400 . S
C4442 C86 1.291 . S
C4447 C122 1.290 . S
C4452 C3243 1.400 . S
C4457 C158 1.295 . S
C4462 C3351 1.401 . S
C4467 C194 1.291 . S
C4472 C3387 1.400 . S
C4477 C3171 1.400 . S
C4482 C230 1.291 . S
C4487 C3423 1.400 . S
C4492 C266 1.295 . S
C4497 C939 1.401 . S
C4502 C302 1.294 . S
C4507 C338 1.290 . S
C4512 C2703 1.400 . S
C4517 C867 1.401 . S
C4522 C374 1.295 . S
C4527 C2631 1.401 . S
C4532 C410 1.294 . S
C4537 C1083 1.400 . S
C4542 C446 1.293 . S
C4547 C482 1.295 . S
C4552 C2847 1.401 . S
C4557 C518 1.292 . S
C4562 C1011 1.400 . S
C4567 C554 1.295 . S
C4572 C2775 1.401 . S
C4577 C590 1.293 . S
C4582 C3027 1.400 . S
C4587 C1155 1.400 . S
C4592 C626 1.294 . S
C4597 C662 1.292 . S
C4602 C2919 1.400 . S
C4607 C698 1.291 . S
C4612 C1227 1.400 . S
C4617 C734 1.293 . S
C4622 C1263 1.400 . S
C4627 C770 1.290 . S
C4632 C3099 1.400 . S
C4637 C3135 1.400 . S
C4642 C806 1.291 . S
C4647 C3063 1.400 . S
C4652 C842 1.291 . S
C4657 C687 1.401 . S
C4662 C878 1.295 . S
C4667 C914 1.291 . S
C4672 C723 1.400 . S
C4677 C950 1.293 . S
C4682 C615 1.401 . S
C4687 C986 1.295 . S
C4692 C2379 1.401 . S
C4697 C2487 1.400 . S
C4702 C1022 1.290 . S
C4707 C2523 1.401 . S
C4712 C1058 1.293 . S
C4717 C1094 1.295 . S
C4722 C2307 1.401 . S
C4727 C2559 1.400 . S
C4732 C1130 1.294 . S
C4737 C1166 1.294 . S
C4742 C75 1.401 . S
C4747 C1839 1.400 . S
C4752 C1202 1.291 . S
C4757 C1238 1.292 . S
C4762 C3 1.400 . S
C4767 C1767 1.400 . S
C4772 C1274 1.290 . S
C4777 C1310 1.295 . S
C4782 C219 1.400 . S
C4787 C1983 1.400 . S
C4792 C1346 1.291 . S
C4797 C147 1.401 . S
C4802 C1382 1.295 . S
C4807 C1911 1.400 . S
C4812 C1418 1.294 . S
C4817 C1454 1.295 . S
C4822 C2163 1.400 . S
C4827 C1490 1.291 . S
C4832 C291 1.400 . S
C4837 C2055 1.401 . S
C4842 C1526 1.294 . S
C4847 C1562 1.294 . S
C4852 C363 1.400 . S
C4857 C399 1.400 . S
C4862 C1598 1.291 . S
C4867 C2235 1.401 . S
C4872 C1634 1.295 . S
C4877 C2271 1.400 . S
C4882 C1670 1.291 . S
C4887 C2199 1.401 . S
C4892 C1706 1.295 . S
C4897 C1742 1.295 . S
C4902 C3279 1.401 . S
C4907 C1778 1.291 . S
C4912 C3315 1.400 . S
C4917 C1814 1.294 . S
C4922 C3207 1.401 . S
C4927 C1515 1.400 . S
C4932 C1850 1.295 . S
C4937 C1886 1.290 . S
C4942 C1623 1.400 . S
C4947 C1659 1.400 . S
C4952 C1922 1.294 . S
C4957 C1443 1.400 . S
C4962 C1958 1.290 . S
C4967 C1695 1.400 . S
C4972 C1994 1.295 . S
C4977 C2030 1.293 . S
C4982 C2667 1.401 . S
C4987 C975 1.400 . S
C4992 C2066 1.291 . S
C4997 C2102 1.294 . S
C5002 C2595 1.401 . S
C5007 C2138 1.293 . S
C5012 C903 1.401 . S
C5017 C2174 1.295 . S
C5022 C2811 1.400 . S
C5027 C2210 1.295 . S
C5032 C1119 1.401 . S
C5037 C2739 1.400 . S
C5042 C2246 1.293 . S
C5047 C1047 1.400 . S
C5052 C2282 1.294 . S
C5057 C2318 1.291 . S
C5062 C1299 1.400 . S
C5067 C2354 1.295 . S
C5072 C2883 1.400 . S
C5077 C2390 1.291 . S
C5082 C1191 1.400 . S
C5087 C2955 1.400 . S
C5092 C2426 1.294 . S
C5097 C2462 1.295 . S
C5102 C2991 1.401 . S
C5107 C2498 1.295 . S
C5112 C1371 1.401 . S
C5117 C1407 1.401 . S
C5122 C2534 1.295 . S
C5127 C2570 1.291 . S
C5132 C1335 1.400 . S
C5137 C2606 1.295 . S
C5142 C2415 1.401 . S
C5147 C2451 1.400 . S
C5152 C2642 1.295 . S
C5157 C2343 1.400 . S
C5162 C2678 1.295 . S
C5167 C2714 1.295 . S
C5172 C651 1.401 . S
C5177 C2750 1.295 . S
C5182 C759 1.401 . S
C5187 C2786 1.292 . S
C5192 C795 1.400 . S
C5197 C579 1.400 . S
C5202 C2822 1.291 . S
C5207 C2858 1.291 . S
C5212 C831 1.400 . S
C5217 C2894 1.291 . S
C5222 C1803 1.400 . S
C5227 C2930 1.295 . S
C5232 C111 1.401 . S
C5237 C2966 1.291 . S
C5242 C1731 1.400 . S
C5247 C3002 1.295 . S
C5252 C39 1.401 . S
C5257 C3038 1.292 . S
C5262 C1947 1.400 . S
C5267 C3074 1.295 . S
C5272 C255 1.401 . S
C5277 C3110 1.294 . S
C5282 C1875 1.401 . S
C5287 C3146 1.295 . S
C5292 C183 1.401 . S
C5297 C3182 1.291 . S
C5302 C435 1.400 . S
C5307 C3218 1.294 . S
C5312 C2019 1.401 . S
C5317 C3254 1.294 . S
C5322 C327 1.401 . S
C5327 C3290 1.291 . S
C5332 C2091 1.400 . S
C5337 C3326 1.294 . S
C5342 C2127 1.401 . S
C5347 C507 1.400 . S
C5352 C3362 1.292 . S
C5357 C3398 1.291 . S
C5362 C543 1.400 . S
C5367 C3434 1.291 . S
C5372 C471 1.400 . S
