# Generated by pormake.
# Topology snp, (6)-cn, num edge types: 1
# Building blocks:
#     Node 0, Type 0, BuildingBlock: GEDQOX_clean_sbu_0, # of connection points: 6
#     Node 1, Type 0, BuildingBlock: GEDQOX_clean_sbu_0, # of connection points: 6
#     Node 2, Type 0, BuildingBlock: GEDQOX_clean_sbu_0, # of connection points: 6
#     Node 3, Type 0, BuildingBlock: GEDQOX_clean_sbu_0, # of connection points: 6
#     Edge 4, Type (0, 0), BuildingBlock: CIFDUS_clean_linker_0, # of connection points: 2
#     Edge 5, Type (0, 0), BuildingBlock: CIFDUS_clean_linker_0, # of connection points: 2
#     Edge 6, Type (0, 0), BuildingBlock: CIFDUS_clean_linker_0, # of connection points: 2
#     Edge 7, Type (0, 0), BuildingBlock: CIFDUS_clean_linker_0, # of connection points: 2
#     Edge 8, Type (0, 0), BuildingBlock: CIFDUS_clean_linker_0, # of connection points: 2
#     Edge 9, Type (0, 0), BuildingBlock: CIFDUS_clean_linker_0, # of connection points: 2
#     Edge 10, Type (0, 0), BuildingBlock: CIFDUS_clean_linker_0, # of connection points: 2
#     Edge 11, Type (0, 0), BuildingBlock: CIFDUS_clean_linker_0, # of connection points: 2
#     Edge 12, Type (0, 0), BuildingBlock: CIFDUS_clean_linker_0, # of connection points: 2
#     Edge 13, Type (0, 0), BuildingBlock: CIFDUS_clean_linker_0, # of connection points: 2
#     Edge 14, Type (0, 0), BuildingBlock: CIFDUS_clean_linker_0, # of connection points: 2
#     Edge 15, Type (0, 0), BuildingBlock: CIFDUS_clean_linker_0, # of connection points: 2
# Relax obj value: 0.209
# Max RMSD: 0.235
# Mean RMSD: 0.220
data_MOF--net-snp--node1-GEDQOX_clean_sbu_0--edge1-CIFDUS_clean_linker_0
_symmetry_space_group_name_H-M    P1
_symmetry_Int_Tables_number       1
_symmetry_cell_setting            triclinic
loop_
_symmetry_equiv_pos_as_xyz
'x, y, z'
_cell_length_a     22.867825
_cell_length_b     23.399683
_cell_length_c     32.229662
_cell_angle_alpha  84.604672
_cell_angle_beta   105.16675
_cell_angle_gamma 96.909636
loop_
_atom_site_label
_atom_site_type_symbol
_atom_site_fract_x
_atom_site_fract_y
_atom_site_fract_z
_atom_type_partial_charge
Nd0 Nd 0.27433 0.94855 0.11026 0.0
Nd1 Nd 0.24965 0.05446 0.15312 0.0
C2 C 0.31789 0.8786 0.06867 0.0
C3 C 0.30747 0.86584 1.02326 0.0
C4 C 0.29677 0.90965 0.99007 0.0
C5 C 0.28175 0.89615 0.94697 0.0
C6 C 0.2765 0.83852 0.93627 0.0
C7 C 0.28817 0.79489 0.96961 0.0
C8 C 0.30365 0.80849 1.01272 0.0
C9 C 0.15504 0.952 0.10908 0.0
C10 C 0.24412 0.07223 0.05201 0.0
C11 C 0.21296 0.12713 0.19755 0.0
C12 C 0.21667 0.13947 0.24227 0.0
C13 C 0.17601 0.17504 0.24994 0.0
C14 C 0.17797 0.18723 0.29199 0.0
C15 C 0.22065 0.16392 0.32744 0.0
C16 C 0.26124 0.12788 0.31955 0.0
C17 C 0.25916 0.11565 0.27735 0.0
C18 C 0.3699 0.04053 0.15935 0.0
C19 C 0.26282 0.9283 0.2075 0.0
O20 O 0.34548 0.92944 0.07971 0.0
O21 O 0.27194 0.86284 0.08569 0.0
O22 O 0.17927 0.90455 0.10929 0.0
O23 O 0.19185 -0.00466 0.10382 0.0
O24 O 0.27066 0.02371 0.05716 0.0
O25 O 0.22398 0.09009 0.08297 0.0
O26 O 0.18129 0.07921 0.18412 0.0
O27 O 0.26282 0.13752 0.18429 0.0
O28 O 0.34908 0.09066 0.15339 0.0
O29 O 0.32885 0.00169 0.16351 0.0
O30 O 0.23777 -0.02256 0.20079 0.0
O31 O 0.29177 0.91199 0.18071 0.0
H32 H 0.29863 0.95415 0.99739 0.0
H33 H 0.27227 0.93062 0.92201 0.0
H34 H 0.28492 0.75018 0.96233 0.0
H35 H 0.3114 0.77405 1.03787 0.0
H36 H 0.14269 0.19361 0.22328 0.0
H37 H 0.14655 0.21569 0.29664 0.0
H38 H 0.29415 0.10853 0.34602 0.0
H39 H 0.29054 0.08755 0.2721 0.0
Nd40 Nd 0.09094 0.2466 0.72392 0.0
Nd41 Nd 0.96945 0.22118 0.74793 0.0
C42 C 0.17524 0.28206 0.68212 0.0
C43 C 0.17703 0.26766 0.63886 0.0
C44 C 0.21959 0.29689 0.61793 0.0
C45 C 0.21973 0.28293 0.5765 0.0
C46 C 0.17702 0.23969 0.55523 0.0
C47 C 0.13476 0.21043 0.57667 0.0
C48 C 0.13481 0.22424 0.61792 0.0
C49 C 0.05217 0.13132 0.73107 0.0
C50 C 0.96143 0.23243 0.64722 0.0
C51 C 0.87817 0.18241 0.78249 0.0
C52 C 0.87128 0.17704 0.8267 0.0
C53 C 0.81877 0.14746 0.83605 0.0
C54 C 0.81483 0.1379 0.87879 0.0
C55 C 0.86372 0.15731 0.91262 0.0
C56 C 0.9153 0.18877 0.90288 0.0
C57 C 0.91885 0.19883 0.86022 0.0
C58 C 0.00502 0.33524 0.73339 0.0
C59 C 0.09967 0.22593 0.82433 0.0
O60 O 0.13187 0.31327 0.68312 0.0
O61 O 0.18036 0.23891 0.7113 0.0
O62 O 0.10844 0.15252 0.7437 0.0
O63 O 0.01912 0.17091 0.71475 0.0
O64 O 0.01794 0.25703 0.65902 0.0
O65 O 0.93357 0.20703 0.67612 0.0
O66 O 0.91567 0.14899 0.7749 0.0
O67 O 0.8853 0.2351 0.7658 0.0
O68 O 0.94908 0.31263 0.72136 0.0
O69 O 0.03955 0.29855 0.75426 0.0
O70 O 0.04134 0.20695 0.81213 0.0
O71 O 0.12994 0.2514 0.79674 0.0
H72 H 0.25241 0.33064 0.63348 0.0
H73 H 0.2525 0.30672 0.56081 0.0
H74 H 0.10183 0.17636 0.56172 0.0
H75 H 0.10171 0.20087 0.63357 0.0
H76 H 0.78165 0.13039 0.81047 0.0
H77 H 0.77485 0.11304 0.88553 0.0
H78 H 0.95343 0.20447 0.92835 0.0
H79 H 0.95936 0.22238 0.85345 0.0
Nd80 Nd 0.81263 0.91243 0.19255 0.0
Nd81 Nd 0.79529 0.02184 0.23526 0.0
C82 C 0.83872 0.8369 0.14507 0.0
C83 C 0.85292 0.83355 0.10305 0.0
C84 C 0.90376 0.80638 0.10161 0.0
C85 C 0.91517 0.79795 0.06209 0.0
C86 C 0.87581 0.81637 1.02295 0.0
C87 C 0.82589 0.84521 1.02456 0.0
C88 C 0.81462 0.8538 0.06412 0.0
C89 C 0.69574 0.92834 0.19364 0.0
C90 C 0.80185 0.03738 0.13718 0.0
C91 C 0.75672 0.09474 0.27756 0.0
C92 C 0.76849 0.10818 0.32297 0.0
C93 C 0.77517 0.0643 0.35625 0.0
C94 C 0.7904 0.07809 0.39931 0.0
C95 C 0.79985 0.13602 0.40989 0.0
C96 C 0.79241 0.17979 0.37645 0.0
C97 C 0.77674 0.16594 0.33339 0.0
C98 C 0.91168 0.01636 0.23037 0.0
C99 C 0.82422 0.89783 0.29462 0.0
O100 O 0.87983 0.86392 0.1749 0.0
O101 O 0.78328 0.84628 0.14446 0.0
O102 O 0.71667 0.87813 0.20104 0.0
O103 O 0.73525 -0.03344 0.18553 0.0
O104 O 0.82746 -0.01148 0.14499 0.0
O105 O 0.7738 0.05511 0.164 0.0
O106 O 0.72685 0.04463 0.26685 0.0
O107 O 0.80243 0.1083 0.25996 0.0
O108 O 0.88899 0.06441 0.23111 0.0
O109 O 0.87549 -0.02628 0.23808 0.0
O110 O 0.80358 0.94931 0.29047 0.0
O111 O 0.83693 0.87527 0.26228 0.0
H112 H 0.93397 0.79035 0.13113 0.0
H113 H 0.95379 0.77525 0.06222 0.0
H114 H 0.79527 0.86096 0.99516 0.0
H115 H 0.77532 0.87541 0.06414 0.0
H116 H 0.76973 0.0194 0.34906 0.0
H117 H 0.79654 0.04344 0.42435 0.0
H118 H 0.7989 0.22477 0.38361 0.0
H119 H 0.77203 0.20042 0.30819 0.0
Nd120 Nd 0.10207 0.75306 0.59894 0.0
Nd121 Nd 0.98134 0.72592 0.62395 0.0
C122 C 0.19212 0.79304 0.56357 0.0
C123 C 0.19836 0.79628 0.51927 0.0
C124 C 0.15152 0.77093 0.48689 0.0
C125 C 0.15422 0.77866 0.44397 0.0
C126 C 0.20419 0.81138 0.43284 0.0
C127 C 0.25241 0.8345 0.46561 0.0
C128 C 0.24932 0.82723 0.50859 0.0
C129 C 0.06748 0.63855 0.61253 0.0
C130 C 0.97155 0.74754 0.52315 0.0
C131 C 0.89646 0.68743 0.66474 0.0
C132 C 0.88964 0.69992 0.70721 0.0
C133 C 0.84613 0.66717 0.72547 0.0
C134 C 0.83878 0.68025 0.76528 0.0
C135 C 0.87475 0.72655 0.78763 0.0
C136 C 0.91901 0.75868 0.76931 0.0
C137 C 0.92642 0.74543 0.72962 0.0
C138 C 0.01892 0.8416 0.61705 0.0
C139 C 0.11167 0.7412 0.69989 0.0
O140 O 0.1531 0.82563 0.57009 0.0
O141 O 0.18742 0.74107 0.58201 0.0
O142 O 0.12337 0.66136 0.62426 0.0
O143 O 0.03247 0.6753 0.5925 0.0
O144 O 0.02974 0.76699 0.53498 0.0
O145 O 0.94197 0.7216 0.55101 0.0
O146 O 0.94222 0.65852 0.66524 0.0
O147 O 0.89089 0.73074 0.6357 0.0
O148 O 0.96269 0.82 0.60503 0.0
O149 O 0.05231 0.80214 0.63295 0.0
O150 O 0.05514 0.71636 0.68868 0.0
O151 O 0.13863 0.76704 0.67063 0.0
H152 H 0.11218 0.74634 0.49472 0.0
H153 H 0.11665 0.76012 0.41935 0.0
H154 H 0.29111 0.86043 0.45779 0.0
H155 H 0.28583 0.84705 0.53328 0.0
H156 H 0.81761 0.63165 0.70885 0.0
H157 H 0.805 0.65384 0.77861 0.0
H158 H 0.9471 0.79497 0.78512 0.0
H159 H 0.96043 0.77125 0.71609 0.0
H160 H 0.96672 0.92271 0.22273 0.0
H161 H 0.96536 0.10526 0.18879 0.0
H162 H 0.03638 0.1008 0.14479 0.0
H163 H 0.09749 0.04462 0.11452 0.0
H164 H 0.09873 0.86192 0.14814 0.0
H165 H 0.02582 0.86588 0.19086 0.0
C166 C 0.98135 -0.03887 0.2051 0.0
C167 C 0.95994 0.01375 0.20822 0.0
C168 C 0.02102 0.95803 0.17892 0.0
C169 C 0.98114 0.06401 0.18683 0.0
C170 C 0.02128 0.06149 0.16127 0.0
C171 C 0.08157 0.00578 0.13117 0.0
C172 C 0.10412 0.95346 0.12887 0.0
C173 C 0.041 0.00863 0.1567 0.0
C174 C 0.08223 0.90297 0.14965 0.0
C175 C 0.041 0.90522 0.17445 0.0
H176 H 0.94136 0.91228 0.63005 0.0
H177 H 0.13176 0.89691 0.64366 0.0
H178 H 0.15969 -0.01696 0.68484 0.0
H179 H 0.12971 0.06059 0.71816 0.0
H180 H 0.93932 0.07604 0.70448 0.0
H181 H 0.91138 -0.01015 0.66336 0.0
C182 C 0.9889 0.92844 0.64133 0.0
C183 C 0.03458 0.89896 0.63369 0.0
C184 C 0.00451 -0.02347 0.66602 0.0
C185 C 0.096 0.91962 0.64895 0.0
C186 C 0.11194 -0.03177 0.67288 0.0
C187 C 0.08217 0.04442 0.7069 0.0
C188 C 0.0365 0.07392 0.71451 0.0
C189 C 0.06657 -0.00367 0.68221 0.0
C190 C 0.97507 0.05329 0.69923 0.0
C191 C 0.95914 0.00465 0.67533 0.0
H192 H 0.64956 0.03139 0.17607 0.0
H193 H 0.60037 0.85063 0.20358 0.0
H194 H 0.49472 0.86983 0.19509 0.0
H195 H 0.41666 0.93783 0.17888 0.0
H196 H 0.46597 0.11866 0.15175 0.0
H197 H 0.57184 0.09961 0.16097 0.0
C198 C 0.61575 -0.0038 0.18036 0.0
C199 C 0.63254 0.93961 0.1904 0.0
C200 C 0.55538 0.0076 0.17535 0.0
C201 C 0.58841 0.89448 0.19589 0.0
C202 C 0.5281 0.90546 0.19096 0.0
C203 C 0.45058 -0.0269 0.17498 0.0
C204 C 0.4337 0.02961 0.16458 0.0
C205 C 0.5111 -0.03821 0.18049 0.0
C206 C 0.47801 0.07487 0.1597 0.0
C207 C 0.53842 0.06396 0.165 0.0
H208 H 0.93751 0.40751 0.67565 0.0
H209 H 0.12048 0.38896 0.75222 0.0
H210 H 0.15644 0.48101 0.72001 0.0
H211 H 0.13548 0.56606 0.66999 0.0
H212 H 0.95238 0.58449 0.59357 0.0
H213 H 0.91659 0.49234 0.62562 0.0
C214 C 0.9852 0.42382 0.68546 0.0
C215 C 0.02641 0.39191 0.71623 0.0
C216 C 0.00541 0.47621 0.66661 0.0
C217 C 0.08805 0.41313 0.72861 0.0
C218 C 0.10858 0.4655 0.71012 0.0
C219 C 0.08782 0.54965 0.66016 0.0
C220 C 0.0465 0.58161 0.6295 0.0
C221 C 0.06766 0.49719 0.67898 0.0
C222 C 0.98489 0.5603 0.61711 0.0
C223 C 0.96445 0.50787 0.6355 0.0
H224 H 0.27339 0.2298 0.52144 0.0
H225 H 0.07697 0.21722 0.48858 0.0
H226 H 0.07319 0.19126 0.41635 0.0
H227 H 0.12519 0.17208 0.36219 0.0
H228 H 0.32157 0.18714 0.39383 0.0
H229 H 0.32563 0.21173 0.46662 0.0
C230 C 0.22977 0.22193 0.49836 0.0
C231 C 0.17558 0.22536 0.51072 0.0
C232 C 0.22781 0.20713 0.45657 0.0
C233 C 0.11946 0.21415 0.48038 0.0
C234 C 0.11719 0.19955 0.43888 0.0
C235 C 0.16897 0.18123 0.38482 0.0
C236 C 0.22298 0.17776 0.37226 0.0
C237 C 0.17103 0.19587 0.42659 0.0
C238 C 0.27919 0.18871 0.40255 0.0
C239 C 0.28159 0.20322 0.44418 0.0
H240 H 0.77481 0.16631 0.95345 0.0
H241 H 0.95263 0.10805 0.97288 0.0
H242 H 0.95055 0.0697 0.04554 0.0
H243 H 0.89518 0.04578 0.10079 0.0
H244 H 0.71886 0.10529 0.0844 0.0
H245 H 0.72325 0.15068 1.01315 0.0
C246 C 0.81313 0.14559 0.97386 0.0
C247 C 0.86365 0.13966 0.9579 0.0
C248 C 0.81175 0.1238 1.01581 0.0
C249 C 0.91346 0.11338 0.98462 0.0
C250 C 0.91217 0.09119 1.02603 0.0
C251 C 0.85801 0.06935 0.08187 0.0
C252 C 0.80652 0.07188 0.09738 0.0
C253 C 0.86115 0.09522 0.04154 0.0
C254 C 0.75895 0.10297 0.07293 0.0
C255 C 0.76136 0.12851 1.0322 0.0
H256 H 0.87245 0.80636 0.49067 0.0
H257 H 0.00337 0.71734 0.45379 0.0
H258 H 0.9654 0.75186 0.37856 0.0
H259 H 0.90186 0.815 0.32456 0.0
H260 H 0.77685 0.91122 0.36234 0.0
H261 H 0.80514 0.86646 0.4355 0.0
C262 C 0.89124 0.79329 0.46583 0.0
C263 C 0.93983 0.75861 0.47743 0.0
C264 C 0.87082 0.81544 0.42285 0.0
C265 C 0.9654 0.74344 0.44536 0.0
C266 C 0.94395 0.76348 0.40243 0.0
C267 C 0.88009 0.82555 0.3486 0.0
C268 C 0.83738 0.8666 0.3379 0.0
C269 C 0.89773 0.8007 0.39095 0.0
C270 C 0.81022 0.88017 0.3697 0.0
C271 C 0.82629 0.85446 0.41159 0.0
H272 H 0.20824 0.8164 0.73511 0.0
H273 H 0.07988 0.68069 0.76863 0.0
H274 H 0.12175 0.697 0.84491 0.0
H275 H 0.19086 0.75343 0.90177 0.0
H276 H 0.31637 0.89158 0.86808 0.0
H277 H 0.27933 0.8709 0.79214 0.0
C278 C 0.19002 0.78976 0.75912 0.0
C279 C 0.14121 0.74717 0.74617 0.0
C280 C 0.21341 0.80021 0.80288 0.0
C281 C 0.11753 0.71368 0.77771 0.0
C282 C 0.14134 0.72307 0.82135 0.0
C283 C 0.21071 0.77842 0.87786 0.0
C284 C 0.25636 0.82389 0.89052 0.0
C285 C 0.18872 0.76671 0.83426 0.0
C286 C 0.28087 0.85663 0.85908 0.0
C287 C 0.25987 0.8447 0.81571 0.0
H288 H 0.79039 0.78113 0.95103 0.0
H289 H 0.98391 0.82285 0.9999 0.0
H290 H 0.00075 0.79837 0.93216 0.0
H291 H 0.96077 0.76355 0.85931 0.0
H292 H 0.76676 0.72499 0.80986 0.0
H293 H 0.7502 0.74949 0.87748 0.0
C294 C 0.83623 0.78564 0.94675 0.0
C295 C 0.88575 0.80383 0.98077 0.0
C296 C 0.84565 0.77156 0.9076 0.0
C297 C 0.94491 0.80832 0.97464 0.0
C298 C 0.9546 0.79453 0.93577 0.0
C299 C 0.91476 0.76103 0.86305 0.0
C300 C 0.86519 0.74199 0.82928 0.0
C301 C 0.90534 0.77583 0.90206 0.0
C302 C 0.80602 0.73835 0.83532 0.0
C303 C 0.79638 0.75284 0.87397 0.0
H304 H 0.16727 0.91321 0.24178 0.0
H305 H 0.34929 0.86556 0.26159 0.0
H306 H 0.34618 0.82122 0.33332 0.0
H307 H 0.29435 0.8048 0.39273 0.0
H308 H 0.11149 0.85215 0.3706 0.0
H309 H 0.11185 0.8874 0.29703 0.0
C310 C 0.20594 0.89234 0.26161 0.0
C311 C 0.25866 0.89298 0.24698 0.0
C312 C 0.20368 0.86732 0.30235 0.0
C313 C 0.30823 0.86532 0.27243 0.0
C314 C 0.30656 0.84045 0.31344 0.0
C315 C 0.25454 0.82238 0.37154 0.0
C316 C 0.20314 0.8263 0.38703 0.0
C317 C 0.25504 0.84258 0.32915 0.0
C318 C 0.15143 0.84843 0.35928 0.0
C319 C 0.1517 0.86888 0.31733 0.0
H320 H 0.2 0.16874 0.85716 0.0
H321 H 0.06561 0.25367 0.89345 0.0
H322 H 0.10215 0.21749 0.96837 0.0
H323 H 0.16522 0.15393 1.02198 0.0
H324 H 0.29489 0.06259 0.9851 0.0
H325 H 0.26773 0.10891 0.91239 0.0
C326 C 0.18013 0.18057 0.88184 0.0
C327 C 0.1308 0.21438 0.8701 0.0
C328 C 0.19991 0.15762 0.92466 0.0
C329 C 0.10399 0.22808 0.90195 0.0
C330 C 0.12465 0.20712 0.94472 0.0
C331 C 0.18824 0.14469 0.99828 0.0
C332 C 0.23184 0.10448 1.00908 0.0
C333 C 0.17147 0.17059 0.95624 0.0
C334 C 0.26077 0.09289 0.97769 0.0
C335 C 0.24534 0.11951 0.93604 0.0
H336 H 0.88992 0.21684 0.44564 0.0
H337 H 0.75435 0.08739 0.47692 0.0
H338 H 0.78967 0.10856 0.55283 0.0
H339 H 0.86168 0.16121 0.61064 0.0
H340 H 0.99939 0.2885 0.57933 0.0
H341 H 0.96007 0.27134 0.5031 0.0
C342 C 0.86755 0.19385 0.46899 0.0
C343 C 0.81952 0.15069 0.45566 0.0
C344 C 0.88843 0.20591 0.51258 0.0
C345 C 0.79174 0.12049 0.48643 0.0
C346 C 0.81175 0.13274 0.5298 0.0
C347 C 0.8825 0.18588 0.5871 0.0
C348 C 0.93319 0.22634 0.60074 0.0
C349 C 0.86038 0.17505 0.5433 0.0
C350 C 0.96017 0.25725 0.56978 0.0
C351 C 0.93783 0.24737 0.52613 0.0
loop_
_geom_bond_atom_site_label_1
_geom_bond_atom_site_label_2
_geom_bond_distance
_geom_bond_site_symmetry_2
_ccdc_geom_bond_type
Nd0 C2 2.836 1_554 S
Nd0 O20 2.500 . S
Nd0 O21 2.492 . S
Nd0 O22 2.487 . S
Nd0 O23 2.682 1_565 S
Nd0 O24 2.410 1_565 S
Nd0 O29 2.414 1_565 S
Nd0 O31 2.424 . S
Nd1 C11 2.836 . S
Nd1 O23 2.414 . S
Nd1 O25 2.424 . S
Nd1 O26 2.500 . S
Nd1 O27 2.492 . S
Nd1 O28 2.487 . S
Nd1 O29 2.682 . S
Nd1 O30 2.410 . S
C2 Nd0 2.836 1_556 S
C2 C3 1.498 . S
C2 O20 1.258 1_556 S
C2 O21 1.239 1_556 S
C3 C2 1.498 . S
C3 C4 1.366 . S
C3 C8 1.407 . S
C4 C3 1.366 . S
C4 C5 1.392 . S
C4 H32 0.930 . S
C5 C4 1.392 . S
C5 C6 1.398 . S
C5 H33 0.929 . S
C6 C5 1.398 . S
C6 C7 1.352 . S
C7 C6 1.352 . S
C7 C8 1.384 . S
C7 H34 0.930 . S
C8 C3 1.407 . S
C8 C7 1.384 . S
C8 H35 0.929 . S
C9 O22 1.241 1_545 S
C9 O23 1.273 . S
C10 O24 1.251 . S
C10 O25 1.268 . S
C11 Nd1 2.836 . S
C11 C12 1.498 . S
C11 O26 1.258 . S
C11 O27 1.239 . S
C12 C11 1.498 . S
C12 C13 1.366 . S
C12 C17 1.407 . S
C13 C12 1.366 . S
C13 C14 1.392 . S
C13 H36 0.930 . S
C14 C13 1.392 . S
C14 C15 1.398 . S
C14 H37 0.929 . S
C15 C14 1.398 . S
C15 C16 1.352 . S
C16 C15 1.352 . S
C16 C17 1.384 . S
C16 H38 0.930 . S
C17 C12 1.407 . S
C17 C16 1.384 . S
C17 H39 0.929 . S
C18 O28 1.241 . S
C18 O29 1.273 . S
C19 O30 1.251 1_565 S
C19 O31 1.268 . S
O20 Nd0 2.500 . S
O20 C2 1.258 1_554 S
O21 Nd0 2.492 . S
O21 C2 1.239 1_554 S
O22 Nd0 2.487 . S
O22 C9 1.241 1_565 S
O23 Nd0 2.682 1_545 S
O23 Nd1 2.414 . S
O23 C9 1.273 . S
O24 Nd0 2.410 1_545 S
O24 C10 1.251 . S
O25 Nd1 2.424 . S
O25 C10 1.268 . S
O26 Nd1 2.500 . S
O26 C11 1.258 . S
O27 Nd1 2.492 . S
O27 C11 1.239 . S
O28 Nd1 2.487 . S
O28 C18 1.241 . S
O29 Nd0 2.414 1_545 S
O29 Nd1 2.682 . S
O29 C18 1.273 . S
O30 Nd1 2.410 . S
O30 C19 1.251 1_545 S
O31 Nd0 2.424 . S
O31 C19 1.268 . S
H32 C4 0.930 . S
H33 C5 0.929 . S
H34 C7 0.930 . S
H35 C8 0.929 . S
H36 C13 0.930 . S
H37 C14 0.929 . S
H38 C16 0.930 . S
H39 C17 0.929 . S
Nd40 C42 2.836 . S
Nd40 O60 2.500 . S
Nd40 O61 2.492 . S
Nd40 O62 2.487 . S
Nd40 O63 2.682 . S
Nd40 O64 2.410 . S
Nd40 O69 2.414 . S
Nd40 O71 2.424 . S
Nd41 C51 2.836 . S
Nd41 O63 2.414 1_655 S
Nd41 O65 2.424 . S
Nd41 O66 2.500 . S
Nd41 O67 2.492 . S
Nd41 O68 2.487 1_655 S
Nd41 O69 2.682 1_655 S
Nd41 O70 2.410 1_655 S
C42 Nd40 2.836 . S
C42 C43 1.498 . S
C42 O60 1.258 . S
C42 O61 1.239 . S
C43 C42 1.498 . S
C43 C44 1.366 . S
C43 C48 1.407 . S
C44 C43 1.366 . S
C44 C45 1.392 . S
C44 H72 0.930 . S
C45 C44 1.392 . S
C45 C46 1.398 . S
C45 H73 0.929 . S
C46 C45 1.398 . S
C46 C47 1.352 . S
C47 C46 1.352 . S
C47 C48 1.384 . S
C47 H74 0.930 . S
C48 C43 1.407 . S
C48 C47 1.384 . S
C48 H75 0.929 . S
C49 O62 1.241 . S
C49 O63 1.273 . S
C50 O64 1.251 . S
C50 O65 1.268 1_455 S
C51 Nd41 2.836 . S
C51 C52 1.498 . S
C51 O66 1.258 . S
C51 O67 1.239 . S
C52 C51 1.498 . S
C52 C53 1.366 . S
C52 C57 1.407 . S
C53 C52 1.366 . S
C53 C54 1.392 . S
C53 H76 0.930 . S
C54 C53 1.392 . S
C54 C55 1.398 . S
C54 H77 0.929 . S
C55 C54 1.398 . S
C55 C56 1.352 . S
C56 C55 1.352 . S
C56 C57 1.384 . S
C56 H78 0.930 . S
C57 C52 1.407 . S
C57 C56 1.384 . S
C57 H79 0.929 . S
C58 O68 1.241 . S
C58 O69 1.273 . S
C59 O70 1.251 . S
C59 O71 1.268 . S
O60 Nd40 2.500 . S
O60 C42 1.258 . S
O61 Nd40 2.492 . S
O61 C42 1.239 . S
O62 Nd40 2.487 . S
O62 C49 1.241 . S
O63 Nd40 2.682 . S
O63 Nd41 2.414 1_455 S
O63 C49 1.273 . S
O64 Nd40 2.410 . S
O64 C50 1.251 . S
O65 Nd41 2.424 . S
O65 C50 1.268 1_655 S
O66 Nd41 2.500 . S
O66 C51 1.258 . S
O67 Nd41 2.492 . S
O67 C51 1.239 . S
O68 Nd41 2.487 1_455 S
O68 C58 1.241 . S
O69 Nd40 2.414 . S
O69 Nd41 2.682 1_455 S
O69 C58 1.273 . S
O70 Nd41 2.410 1_455 S
O70 C59 1.251 . S
O71 Nd40 2.424 . S
O71 C59 1.268 . S
H72 C44 0.930 . S
H73 C45 0.929 . S
H74 C47 0.930 . S
H75 C48 0.929 . S
H76 C53 0.930 . S
H77 C54 0.929 . S
H78 C56 0.930 . S
H79 C57 0.929 . S
Nd80 C82 2.836 . S
Nd80 O100 2.500 . S
Nd80 O101 2.492 . S
Nd80 O102 2.487 . S
Nd80 O103 2.682 1_565 S
Nd80 O104 2.410 1_565 S
Nd80 O109 2.409 1_565 S
Nd80 O111 2.424 . S
Nd81 C91 2.836 . S
Nd81 O103 2.414 . S
Nd81 O105 2.424 . S
Nd81 O106 2.500 . S
Nd81 O107 2.492 . S
Nd81 O108 2.487 . S
Nd81 O109 2.689 . S
Nd81 O110 2.410 1_545 S
C82 Nd80 2.836 . S
C82 C83 1.498 . S
C82 O100 1.258 . S
C82 O101 1.239 . S
C83 C82 1.498 . S
C83 C84 1.366 . S
C83 C88 1.407 1_554 S
C84 C83 1.366 . S
C84 C85 1.392 1_554 S
C84 H112 0.930 . S
C85 C84 1.392 1_556 S
C85 C86 1.398 . S
C85 H113 0.929 . S
C86 C85 1.398 . S
C86 C87 1.352 . S
C87 C86 1.352 . S
C87 C88 1.384 . S
C87 H114 0.930 . S
C88 C83 1.407 1_556 S
C88 C87 1.384 . S
C88 H115 0.929 1_556 S
C89 O102 1.241 . S
C89 O103 1.273 1_565 S
C90 O104 1.251 . S
C90 O105 1.268 . S
C91 Nd81 2.836 . S
C91 C92 1.498 . S
C91 O106 1.258 . S
C91 O107 1.239 . S
C92 C91 1.498 . S
C92 C93 1.366 . S
C92 C97 1.407 . S
C93 C92 1.366 . S
C93 C94 1.392 . S
C93 H116 0.930 . S
C94 C93 1.392 . S
C94 C95 1.398 . S
C94 H117 0.929 . S
C95 C94 1.398 . S
C95 C96 1.352 . S
C96 C95 1.352 . S
C96 C97 1.384 . S
C96 H118 0.930 . S
C97 C92 1.407 . S
C97 C96 1.384 . S
C97 H119 0.929 . S
C98 O108 1.241 . S
C98 O109 1.275 . S
C99 O110 1.251 . S
C99 O111 1.268 . S
O100 Nd80 2.500 . S
O100 C82 1.258 . S
O101 Nd80 2.492 . S
O101 C82 1.239 . S
O102 Nd80 2.487 . S
O102 C89 1.241 . S
O103 Nd80 2.682 1_545 S
O103 Nd81 2.414 . S
O103 C89 1.273 1_545 S
O104 Nd80 2.410 1_545 S
O104 C90 1.251 . S
O105 Nd81 2.424 . S
O105 C90 1.268 . S
O106 Nd81 2.500 . S
O106 C91 1.258 . S
O107 Nd81 2.492 . S
O107 C91 1.239 . S
O108 Nd81 2.487 . S
O108 C98 1.241 . S
O109 Nd80 2.409 1_545 S
O109 Nd81 2.689 . S
O109 C98 1.275 . S
O110 Nd81 2.410 1_565 S
O110 C99 1.251 . S
O111 Nd80 2.424 . S
O111 C99 1.268 . S
H112 C84 0.930 . S
H113 C85 0.929 . S
H114 C87 0.930 . S
H115 C88 0.929 1_554 S
H116 C93 0.930 . S
H117 C94 0.929 . S
H118 C96 0.930 . S
H119 C97 0.929 . S
Nd120 C122 2.836 . S
Nd120 O140 2.500 . S
Nd120 O141 2.492 . S
Nd120 O142 2.487 . S
Nd120 O143 2.682 1_455 S
Nd120 O144 2.410 1_455 S
Nd120 O149 2.414 . S
Nd120 O151 2.424 . S
Nd121 C131 2.836 . S
Nd121 O143 2.414 . S
Nd121 O145 2.424 . S
Nd121 O146 2.500 . S
Nd121 O147 2.492 . S
Nd121 O148 2.487 . S
Nd121 O149 2.682 1_655 S
Nd121 O150 2.410 1_655 S
C122 Nd120 2.836 . S
C122 C123 1.498 . S
C122 O140 1.258 . S
C122 O141 1.239 . S
C123 C122 1.498 . S
C123 C124 1.366 . S
C123 C128 1.407 . S
C124 C123 1.366 . S
C124 C125 1.392 . S
C124 H152 0.930 . S
C125 C124 1.392 . S
C125 C126 1.398 . S
C125 H153 0.929 . S
C126 C125 1.398 . S
C126 C127 1.352 . S
C127 C126 1.352 . S
C127 C128 1.384 . S
C127 H154 0.930 . S
C128 C123 1.407 . S
C128 C127 1.384 . S
C128 H155 0.929 . S
C129 O142 1.241 . S
C129 O143 1.273 1_455 S
C130 O144 1.251 . S
C130 O145 1.268 . S
C131 Nd121 2.836 . S
C131 C132 1.498 . S
C131 O146 1.258 . S
C131 O147 1.239 . S
C132 C131 1.498 . S
C132 C133 1.366 . S
C132 C137 1.407 . S
C133 C132 1.366 . S
C133 C134 1.392 . S
C133 H156 0.930 . S
C134 C133 1.392 . S
C134 C135 1.398 . S
C134 H157 0.929 . S
C135 C134 1.398 . S
C135 C136 1.352 . S
C136 C135 1.352 . S
C136 C137 1.384 . S
C136 H158 0.930 . S
C137 C132 1.407 . S
C137 C136 1.384 . S
C137 H159 0.929 . S
C138 O148 1.241 . S
C138 O149 1.273 1_655 S
C139 O150 1.251 . S
C139 O151 1.268 . S
O140 Nd120 2.500 . S
O140 C122 1.258 . S
O141 Nd120 2.492 . S
O141 C122 1.239 . S
O142 Nd120 2.487 . S
O142 C129 1.241 . S
O143 Nd120 2.682 1_655 S
O143 Nd121 2.414 . S
O143 C129 1.273 1_655 S
O144 Nd120 2.410 1_655 S
O144 C130 1.251 . S
O145 Nd121 2.424 . S
O145 C130 1.268 . S
O146 Nd121 2.500 . S
O146 C131 1.258 . S
O147 Nd121 2.492 . S
O147 C131 1.239 . S
O148 Nd121 2.487 . S
O148 C138 1.241 . S
O149 Nd120 2.414 . S
O149 Nd121 2.682 1_455 S
O149 C138 1.273 1_455 S
O150 Nd121 2.410 1_455 S
O150 C139 1.251 . S
O151 Nd120 2.424 . S
O151 C139 1.268 . S
H152 C124 0.930 . S
H153 C125 0.929 . S
H154 C127 0.930 . S
H155 C128 0.929 . S
H156 C133 0.930 . S
H157 C134 0.929 . S
H158 C136 0.930 . S
H159 C137 0.929 . S
H160 C166 0.930 . S
H161 C169 0.930 1_565 S
H162 C170 0.930 . S
H163 C171 0.930 . S
H164 C174 0.930 . S
H165 C175 0.930 . S
C166 H160 0.930 . S
C166 C167 1.355 . S
C166 C168 1.415 1_655 S
C167 C166 1.355 . S
C167 C169 1.419 1_655 S
C168 C166 1.415 1_455 S
C168 C173 1.425 . S
C168 C175 1.409 1_455 S
C169 H161 0.930 1_545 S
C169 C167 1.419 1_455 S
C169 C170 1.362 . S
C170 H162 0.930 . S
C170 C169 1.362 . S
C170 C173 1.409 . S
C171 H163 0.930 . S
C171 C172 1.355 . S
C171 C173 1.415 . S
C172 C171 1.355 . S
C172 C174 1.419 . S
C173 C168 1.425 . S
C173 C170 1.409 . S
C173 C171 1.415 . S
C174 H164 0.930 . S
C174 C172 1.419 . S
C174 C175 1.362 1_455 S
C175 H165 0.930 . S
C175 C168 1.409 1_655 S
C175 C174 1.362 1_655 S
H176 C182 0.930 . S
H177 C185 0.930 . S
H178 C186 0.930 . S
H179 C187 0.930 . S
H180 C190 0.930 . S
H181 C191 0.930 . S
C182 H176 0.930 . S
C182 C183 1.355 1_655 S
C182 C184 1.415 1_665 S
C183 C182 1.355 1_455 S
C183 C185 1.419 . S
C184 C182 1.415 1_445 S
C184 C189 1.425 . S
C184 C191 1.409 1_455 S
C185 H177 0.930 . S
C185 C183 1.419 . S
C185 C186 1.362 1_565 S
C186 H178 0.930 . S
C186 C185 1.362 1_545 S
C186 C189 1.409 . S
C187 H179 0.930 . S
C187 C188 1.355 . S
C187 C189 1.415 . S
C188 C187 1.355 . S
C188 C190 1.419 1_455 S
C189 C184 1.425 . S
C189 C186 1.409 . S
C189 C187 1.415 . S
C190 H180 0.930 . S
C190 C188 1.419 1_655 S
C190 C191 1.362 . S
C191 H181 0.930 . S
C191 C184 1.409 1_655 S
C191 C190 1.362 . S
H192 C198 0.930 . S
H193 C201 0.930 . S
H194 C202 0.930 . S
H195 C203 0.930 1_565 S
H196 C206 0.930 . S
H197 C207 0.930 . S
C198 H192 0.930 . S
C198 C199 1.355 . S
C198 C200 1.415 . S
C199 C198 1.355 . S
C199 C201 1.419 1_545 S
C200 C198 1.415 . S
C200 C205 1.425 . S
C200 C207 1.409 . S
C201 H193 0.930 . S
C201 C199 1.419 1_565 S
C201 C202 1.362 . S
C202 H194 0.930 . S
C202 C201 1.362 . S
C202 C205 1.409 1_565 S
C203 H195 0.930 1_545 S
C203 C204 1.355 . S
C203 C205 1.415 . S
C204 C203 1.355 . S
C204 C206 1.419 . S
C205 C200 1.425 . S
C205 C202 1.409 1_545 S
C205 C203 1.415 . S
C206 H196 0.930 . S
C206 C204 1.419 . S
C206 C207 1.362 . S
C207 H197 0.930 . S
C207 C200 1.409 . S
C207 C206 1.362 . S
H208 C214 0.930 . S
H209 C217 0.930 . S
H210 C218 0.930 . S
H211 C219 0.930 1_655 S
H212 C222 0.930 . S
H213 C223 0.930 . S
C214 H208 0.930 . S
C214 C215 1.355 . S
C214 C216 1.415 . S
C215 C214 1.355 . S
C215 C217 1.419 . S
C216 C214 1.415 . S
C216 C221 1.425 . S
C216 C223 1.409 . S
C217 H209 0.930 . S
C217 C215 1.419 . S
C217 C218 1.362 . S
C218 H210 0.930 . S
C218 C217 1.362 . S
C218 C221 1.409 . S
C219 H211 0.930 1_455 S
C219 C220 1.355 . S
C219 C221 1.415 . S
C220 C219 1.355 . S
C220 C222 1.419 . S
C221 C216 1.425 . S
C221 C218 1.409 . S
C221 C219 1.415 . S
C222 H212 0.930 . S
C222 C220 1.419 . S
C222 C223 1.362 . S
C223 H213 0.930 . S
C223 C216 1.409 . S
C223 C222 1.362 . S
H224 C230 0.930 . S
H225 C233 0.930 . S
H226 C234 0.930 . S
H227 C235 0.930 . S
H228 C238 0.930 . S
H229 C239 0.930 . S
C230 H224 0.930 . S
C230 C231 1.355 . S
C230 C232 1.415 . S
C231 C230 1.355 . S
C231 C233 1.419 . S
C232 C230 1.415 . S
C232 C237 1.425 . S
C232 C239 1.409 . S
C233 H225 0.930 . S
C233 C231 1.419 . S
C233 C234 1.362 . S
C234 H226 0.930 . S
C234 C233 1.362 . S
C234 C237 1.409 . S
C235 H227 0.930 . S
C235 C236 1.355 . S
C235 C237 1.415 . S
C236 C235 1.355 . S
C236 C238 1.419 . S
C237 C232 1.425 . S
C237 C234 1.409 . S
C237 C235 1.415 . S
C238 H228 0.930 . S
C238 C236 1.419 . S
C238 C239 1.362 . S
C239 H229 0.930 . S
C239 C232 1.409 . S
C239 C238 1.362 . S
H240 C246 0.930 . S
H241 C249 0.930 . S
H242 C250 0.930 . S
H243 C251 0.930 . S
H244 C254 0.930 . S
H245 C255 0.930 1_556 S
C246 H240 0.930 . S
C246 C247 1.355 . S
C246 C248 1.415 . S
C247 C246 1.355 . S
C247 C249 1.419 . S
C248 C246 1.415 . S
C248 C253 1.425 . S
C248 C255 1.409 1_556 S
C249 H241 0.930 . S
C249 C247 1.419 . S
C249 C250 1.362 . S
C250 H242 0.930 . S
C250 C249 1.362 . S
C250 C253 1.409 . S
C251 H243 0.930 . S
C251 C252 1.355 . S
C251 C253 1.415 1_554 S
C252 C251 1.355 . S
C252 C254 1.419 . S
C253 C248 1.425 . S
C253 C250 1.409 . S
C253 C251 1.415 1_556 S
C254 H244 0.930 . S
C254 C252 1.419 . S
C254 C255 1.362 . S
C255 H245 0.930 1_554 S
C255 C248 1.409 1_554 S
C255 C254 1.362 . S
H256 C262 0.930 . S
H257 C265 0.930 . S
H258 C266 0.930 . S
H259 C267 0.930 . S
H260 C270 0.930 1_545 S
H261 C271 0.930 . S
C262 H256 0.930 . S
C262 C263 1.355 . S
C262 C264 1.415 . S
C263 C262 1.355 . S
C263 C265 1.419 . S
C264 C262 1.415 . S
C264 C269 1.425 . S
C264 C271 1.409 . S
C265 H257 0.930 . S
C265 C263 1.419 . S
C265 C266 1.362 . S
C266 H258 0.930 . S
C266 C265 1.362 . S
C266 C269 1.409 . S
C267 H259 0.930 . S
C267 C268 1.355 . S
C267 C269 1.415 . S
C268 C267 1.355 . S
C268 C270 1.419 . S
C269 C264 1.425 . S
C269 C266 1.409 . S
C269 C267 1.415 . S
C270 H260 0.930 1_565 S
C270 C268 1.419 . S
C270 C271 1.362 . S
C271 H261 0.930 . S
C271 C264 1.409 . S
C271 C270 1.362 . S
H272 C278 0.930 . S
H273 C281 0.930 . S
H274 C282 0.930 . S
H275 C283 0.930 . S
H276 C286 0.930 . S
H277 C287 0.930 . S
C278 H272 0.930 . S
C278 C279 1.355 . S
C278 C280 1.415 . S
C279 C278 1.355 . S
C279 C281 1.419 . S
C280 C278 1.415 . S
C280 C285 1.425 . S
C280 C287 1.409 . S
C281 H273 0.930 . S
C281 C279 1.419 . S
C281 C282 1.362 . S
C282 H274 0.930 . S
C282 C281 1.362 . S
C282 C285 1.409 . S
C283 H275 0.930 . S
C283 C284 1.355 . S
C283 C285 1.415 . S
C284 C283 1.355 . S
C284 C286 1.419 . S
C285 C280 1.425 . S
C285 C282 1.409 . S
C285 C283 1.415 . S
C286 H276 0.930 . S
C286 C284 1.419 . S
C286 C287 1.362 . S
C287 H277 0.930 . S
C287 C280 1.409 . S
C287 C286 1.362 . S
H288 C294 0.930 . S
H289 C297 0.930 . S
H290 C298 0.930 . S
H291 C299 0.930 . S
H292 C302 0.930 . S
H293 C303 0.930 . S
C294 H288 0.930 . S
C294 C295 1.355 . S
C294 C296 1.415 . S
C295 C294 1.355 . S
C295 C297 1.419 . S
C296 C294 1.415 . S
C296 C301 1.425 . S
C296 C303 1.409 . S
C297 H289 0.930 . S
C297 C295 1.419 . S
C297 C298 1.362 . S
C298 H290 0.930 . S
C298 C297 1.362 . S
C298 C301 1.409 . S
C299 H291 0.930 . S
C299 C300 1.355 . S
C299 C301 1.415 . S
C300 C299 1.355 . S
C300 C302 1.419 . S
C301 C296 1.425 . S
C301 C298 1.409 . S
C301 C299 1.415 . S
C302 H292 0.930 . S
C302 C300 1.419 . S
C302 C303 1.362 . S
C303 H293 0.930 . S
C303 C296 1.409 . S
C303 C302 1.362 . S
H304 C310 0.931 1_545 S
H305 C313 0.930 . S
H306 C314 0.930 . S
H307 C315 0.930 . S
H308 C318 0.930 . S
H309 C319 0.930 . S
C310 H304 0.931 1_565 S
C310 C311 1.355 . S
C310 C312 1.415 . S
C311 C310 1.355 . S
C311 C313 1.419 . S
C312 C310 1.415 . S
C312 C317 1.425 . S
C312 C319 1.409 . S
C313 H305 0.930 . S
C313 C311 1.419 . S
C313 C314 1.362 . S
C314 H306 0.930 . S
C314 C313 1.362 . S
C314 C317 1.409 . S
C315 H307 0.930 . S
C315 C316 1.355 . S
C315 C317 1.415 . S
C316 C315 1.355 . S
C316 C318 1.419 . S
C317 C312 1.425 . S
C317 C314 1.409 . S
C317 C315 1.415 . S
C318 H308 0.930 . S
C318 C316 1.419 . S
C318 C319 1.362 . S
C319 H309 0.930 . S
C319 C312 1.409 . S
C319 C318 1.362 . S
H320 C326 0.930 . S
H321 C329 0.930 . S
H322 C330 0.930 . S
H323 C331 0.930 . S
H324 C334 0.930 . S
H325 C335 0.930 . S
C326 H320 0.930 . S
C326 C327 1.355 . S
C326 C328 1.415 . S
C327 C326 1.355 . S
C327 C329 1.419 . S
C328 C326 1.415 . S
C328 C333 1.425 . S
C328 C335 1.409 . S
C329 H321 0.930 . S
C329 C327 1.419 . S
C329 C330 1.362 . S
C330 H322 0.930 . S
C330 C329 1.362 . S
C330 C333 1.409 . S
C331 H323 0.930 . S
C331 C332 1.355 . S
C331 C333 1.415 . S
C332 C331 1.355 . S
C332 C334 1.419 . S
C333 C328 1.425 . S
C333 C330 1.409 . S
C333 C331 1.415 . S
C334 H324 0.930 . S
C334 C332 1.419 . S
C334 C335 1.362 . S
C335 H325 0.930 . S
C335 C328 1.409 . S
C335 C334 1.362 . S
H336 C342 0.930 . S
H337 C345 0.930 . S
H338 C346 0.930 . S
H339 C347 0.930 . S
H340 C350 0.930 . S
H341 C351 0.930 . S
C342 H336 0.930 . S
C342 C343 1.355 . S
C342 C344 1.415 . S
C343 C342 1.355 . S
C343 C345 1.419 . S
C344 C342 1.415 . S
C344 C349 1.425 . S
C344 C351 1.409 1_655 S
C345 H337 0.930 . S
C345 C343 1.419 . S
C345 C346 1.362 . S
C346 H338 0.930 . S
C346 C345 1.362 . S
C346 C349 1.409 . S
C347 H339 0.930 . S
C347 C348 1.355 . S
C347 C349 1.415 . S
C348 C347 1.355 . S
C348 C350 1.419 1_655 S
C349 C344 1.425 . S
C349 C346 1.409 . S
C349 C347 1.415 . S
C350 H340 0.930 . S
C350 C348 1.419 1_455 S
C350 C351 1.362 . S
C351 H341 0.930 . S
C351 C344 1.409 1_455 S
C351 C350 1.362 . S
C167 C98 0.779 . S
C172 C9 0.779 . S
C183 C138 0.953 1_455 S
C188 C49 0.952 . S
C199 C89 1.000 1_545 S
C204 C18 1.000 . S
C215 C58 1.160 . S
C220 C129 1.161 . S
C231 C46 1.041 . S
C236 C15 1.109 . S
C247 C55 1.699 . S
C252 C90 1.693 . S
C263 C130 2.143 . S
C268 C99 2.082 . S
C279 C139 1.340 . S
C284 C6 1.392 . S
C295 C86 1.055 . S
C300 C135 1.085 . S
C311 C19 1.697 . S
C316 C126 1.677 . S
C327 C59 2.135 . S
C332 C10 2.107 1_556 S
C343 C95 1.391 . S
C348 C50 1.347 1_655 S
