# Generated by pormake.
# Topology gis, (4)-cn, num edge types: 1
# Building blocks:
#     Node 0, Type 0, BuildingBlock: QUQFOY_clean_sbu_3, # of connection points: 4
#     Node 1, Type 0, BuildingBlock: QUQFOY_clean_sbu_3, # of connection points: 4
#     Node 2, Type 0, BuildingBlock: QUQFOY_clean_sbu_3, # of connection points: 4
#     Node 3, Type 0, BuildingBlock: QUQFOY_clean_sbu_3, # of connection points: 4
#     Node 4, Type 0, BuildingBlock: QUQFOY_clean_sbu_3, # of connection points: 4
#     Node 5, Type 0, BuildingBlock: QUQFOY_clean_sbu_3, # of connection points: 4
#     Node 6, Type 0, BuildingBlock: QUQFOY_clean_sbu_3, # of connection points: 4
#     Node 7, Type 0, BuildingBlock: QUQFOY_clean_sbu_3, # of connection points: 4
#     Node 8, Type 0, BuildingBlock: QUQFOY_clean_sbu_3, # of connection points: 4
#     Node 9, Type 0, BuildingBlock: QUQFOY_clean_sbu_3, # of connection points: 4
#     Node 10, Type 0, BuildingBlock: QUQFOY_clean_sbu_3, # of connection points: 4
#     Node 11, Type 0, BuildingBlock: QUQFOY_clean_sbu_3, # of connection points: 4
#     Node 12, Type 0, BuildingBlock: QUQFOY_clean_sbu_3, # of connection points: 4
#     Node 13, Type 0, BuildingBlock: QUQFOY_clean_sbu_3, # of connection points: 4
#     Node 14, Type 0, BuildingBlock: QUQFOY_clean_sbu_3, # of connection points: 4
#     Node 15, Type 0, BuildingBlock: QUQFOY_clean_sbu_3, # of connection points: 4
#     Edge 16, Type (0, 0), BuildingBlock: CIFDUS_clean_linker_0, # of connection points: 2
#     Edge 17, Type (0, 0), BuildingBlock: CIFDUS_clean_linker_0, # of connection points: 2
#     Edge 18, Type (0, 0), BuildingBlock: CIFDUS_clean_linker_0, # of connection points: 2
#     Edge 19, Type (0, 0), BuildingBlock: CIFDUS_clean_linker_0, # of connection points: 2
#     Edge 20, Type (0, 0), BuildingBlock: CIFDUS_clean_linker_0, # of connection points: 2
#     Edge 21, Type (0, 0), BuildingBlock: CIFDUS_clean_linker_0, # of connection points: 2
#     Edge 22, Type (0, 0), BuildingBlock: CIFDUS_clean_linker_0, # of connection points: 2
#     Edge 23, Type (0, 0), BuildingBlock: CIFDUS_clean_linker_0, # of connection points: 2
#     Edge 24, Type (0, 0), BuildingBlock: CIFDUS_clean_linker_0, # of connection points: 2
#     Edge 25, Type (0, 0), BuildingBlock: CIFDUS_clean_linker_0, # of connection points: 2
#     Edge 26, Type (0, 0), BuildingBlock: CIFDUS_clean_linker_0, # of connection points: 2
#     Edge 27, Type (0, 0), BuildingBlock: CIFDUS_clean_linker_0, # of connection points: 2
#     Edge 28, Type (0, 0), BuildingBlock: CIFDUS_clean_linker_0, # of connection points: 2
#     Edge 29, Type (0, 0), BuildingBlock: CIFDUS_clean_linker_0, # of connection points: 2
#     Edge 30, Type (0, 0), BuildingBlock: CIFDUS_clean_linker_0, # of connection points: 2
#     Edge 31, Type (0, 0), BuildingBlock: CIFDUS_clean_linker_0, # of connection points: 2
#     Edge 32, Type (0, 0), BuildingBlock: CIFDUS_clean_linker_0, # of connection points: 2
#     Edge 33, Type (0, 0), BuildingBlock: CIFDUS_clean_linker_0, # of connection points: 2
#     Edge 34, Type (0, 0), BuildingBlock: CIFDUS_clean_linker_0, # of connection points: 2
#     Edge 35, Type (0, 0), BuildingBlock: CIFDUS_clean_linker_0, # of connection points: 2
#     Edge 36, Type (0, 0), BuildingBlock: CIFDUS_clean_linker_0, # of connection points: 2
#     Edge 37, Type (0, 0), BuildingBlock: CIFDUS_clean_linker_0, # of connection points: 2
#     Edge 38, Type (0, 0), BuildingBlock: CIFDUS_clean_linker_0, # of connection points: 2
#     Edge 39, Type (0, 0), BuildingBlock: CIFDUS_clean_linker_0, # of connection points: 2
#     Edge 40, Type (0, 0), BuildingBlock: CIFDUS_clean_linker_0, # of connection points: 2
#     Edge 41, Type (0, 0), BuildingBlock: CIFDUS_clean_linker_0, # of connection points: 2
#     Edge 42, Type (0, 0), BuildingBlock: CIFDUS_clean_linker_0, # of connection points: 2
#     Edge 43, Type (0, 0), BuildingBlock: CIFDUS_clean_linker_0, # of connection points: 2
#     Edge 44, Type (0, 0), BuildingBlock: CIFDUS_clean_linker_0, # of connection points: 2
#     Edge 45, Type (0, 0), BuildingBlock: CIFDUS_clean_linker_0, # of connection points: 2
#     Edge 46, Type (0, 0), BuildingBlock: CIFDUS_clean_linker_0, # of connection points: 2
#     Edge 47, Type (0, 0), BuildingBlock: CIFDUS_clean_linker_0, # of connection points: 2
# Relax obj value: 0.062
# Max RMSD: 0.132
# Mean RMSD: 0.124
data_MOF--net-gis--node1-QUQFOY_clean_sbu_3--edge1-CIFDUS_clean_linker_0
_symmetry_space_group_name_H-M    P1
_symmetry_Int_Tables_number       1
_symmetry_cell_setting            triclinic
loop_
_symmetry_equiv_pos_as_xyz
'x, y, z'
_cell_length_a     48.312544
_cell_length_b     51.541449
_cell_length_c     33.98921
_cell_angle_alpha  90.438822
_cell_angle_beta   90.325238
_cell_angle_gamma 90.413273
loop_
_atom_site_label
_atom_site_type_symbol
_atom_site_fract_x
_atom_site_fract_y
_atom_site_fract_z
_atom_type_partial_charge
C0 C 0.14796 0.58112 0.16577 0.0
O1 O 0.12715 0.58804 0.18578 0.0
Cd2 Cd 0.08771 0.6044 0.14951 0.0
O3 O 0.14574 0.57847 0.12869 0.0
Cd4 Cd 0.11103 0.57841 0.07558 0.0
C5 C 0.12134 0.64287 0.08131 0.0
O6 O 0.0646 0.57395 0.10626 0.0
O7 O 0.06736 0.59014 0.04766 0.0
O8 O 0.11785 0.53203 0.07348 0.0
C9 C 0.05226 0.58204 0.07549 0.0
O10 O 0.10709 0.64038 0.11245 0.0
C11 C 0.12484 0.53032 0.03764 0.0
O12 O 0.12782 0.62314 0.0604 0.0
O13 O 0.12616 0.5515 0.01853 0.0
C14 C 0.64935 0.86152 0.2683 0.0
O15 O 0.62746 0.85711 0.24846 0.0
Cd16 Cd 0.58684 0.84051 0.27983 0.0
O17 O 0.64862 0.8614 0.30581 0.0
Cd18 Cd 0.61334 0.85839 0.35943 0.0
C19 C 0.61705 0.79443 0.34102 0.0
O20 O 0.56916 0.8707 0.32665 0.0
O21 O 0.56661 0.85016 0.38177 0.0
O22 O 0.62702 0.90249 0.37761 0.0
C23 C 0.55425 0.86215 0.35446 0.0
O24 O 0.60371 0.80106 0.31032 0.0
C25 C 0.63062 0.89831 0.41401 0.0
O26 O 0.62446 0.81136 0.36668 0.0
O27 O 0.62752 0.87496 0.42527 0.0
C28 C 0.29921 0.35331 0.69122 0.0
O29 O 0.32061 0.34688 0.71053 0.0
Cd30 Cd 0.36142 0.33322 0.67661 0.0
O31 O 0.30046 0.35633 0.65411 0.0
Cd32 Cd 0.33462 0.35762 0.6 0.0
C33 C 0.331 0.29251 0.60529 0.0
O34 O 0.37824 0.36687 0.63539 0.0
O35 O 0.38133 0.35121 0.57639 0.0
O36 O 0.32233 0.4029 0.59639 0.0
C37 C 0.39349 0.36045 0.60663 0.0
O38 O 0.34471 0.29686 0.63683 0.0
C39 C 0.31736 0.40358 0.55975 0.0
O40 O 0.32302 0.31133 0.5838 0.0
O41 O 0.31931 0.38217 0.54093 0.0
C42 C 0.79892 0.07708 0.77276 0.0
O43 O 0.82046 0.08566 0.75593 0.0
Cd44 Cd 0.85952 0.10049 0.79382 0.0
O45 O 0.79933 0.07246 0.80956 0.0
Cd46 Cd 0.83456 0.07097 0.86414 0.0
C47 C 0.82845 0.13598 0.86853 0.0
O48 O 0.87981 0.06588 0.83032 0.0
O49 O 0.88056 0.07935 0.89064 0.0
O50 O 0.8252 0.02459 0.86797 0.0
C51 C 0.89399 0.07191 0.86071 0.0
O52 O 0.84168 0.13486 0.83628 0.0
C53 C 0.81915 0.02406 0.90422 0.0
O54 O 0.82188 0.11536 0.88695 0.0
O55 O 0.81937 0.04577 0.92237 0.0
C56 C 0.14338 0.35687 0.76744 0.0
O57 O 0.12126 0.35348 0.74771 0.0
Cd58 Cd 0.07867 0.34193 0.77984 0.0
O59 O 0.14263 0.35794 0.80484 0.0
Cd60 Cd 0.109 0.3594 0.85917 0.0
C61 C 0.10321 0.29512 0.84547 0.0
O62 O 0.06506 0.37269 0.82808 0.0
O63 O 0.06304 0.3533 0.88428 0.0
O64 O 0.12531 0.40347 0.86598 0.0
C65 C 0.05039 0.36457 0.85651 0.0
O66 O 0.08944 0.30276 0.81569 0.0
C67 C 0.12937 0.40336 0.90286 0.0
O68 O 0.11577 0.3115 0.8679 0.0
O69 O 0.12538 0.38184 0.92034 0.0
C70 C 0.8032 0.85759 0.18346 0.0
O71 O 0.82575 0.85308 0.20139 0.0
Cd72 Cd 0.86683 0.8409 0.16552 0.0
O73 O 0.80282 0.85881 0.14609 0.0
Cd74 Cd 0.83579 0.85841 0.09048 0.0
C75 C 0.84082 0.79401 0.10085 0.0
O76 O 0.88239 0.87079 0.1171 0.0
O77 O 0.87983 0.85056 0.06104 0.0
O78 O 0.82229 0.90306 0.08275 0.0
C79 C 0.89471 0.862 0.08677 0.0
O80 O 0.8558 0.80136 0.12988 0.0
C81 C 0.81627 0.90194 0.04641 0.0
O82 O 0.8274 0.81054 0.08048 0.0
O83 O 0.81791 0.87972 0.02984 0.0
C84 C 0.28686 0.57839 0.29422 0.0
O85 O 0.3076 0.58298 0.27254 0.0
Cd86 Cd 0.35162 0.59516 0.30078 0.0
O87 O 0.28998 0.5762 0.33126 0.0
Cd88 Cd 0.32803 0.57395 0.38036 0.0
C89 C 0.32973 0.63883 0.37315 0.0
O90 O 0.36993 0.56284 0.34268 0.0
O91 O 0.37577 0.58077 0.39994 0.0
O92 O 0.31476 0.52897 0.38595 0.0
C93 C 0.38648 0.57028 0.36982 0.0
O94 O 0.34174 0.63306 0.34098 0.0
C95 C 0.31215 0.52853 0.42304 0.0
O96 O 0.31999 0.62097 0.39517 0.0
O97 O 0.31567 0.55003 0.4413 0.0
C98 C 0.6479 0.07786 0.67607 0.0
O99 O 0.62615 0.08688 0.69167 0.0
Cd100 Cd 0.58727 0.10075 0.65202 0.0
O101 O 0.64847 0.07334 0.63921 0.0
Cd102 Cd 0.61615 0.075 0.58219 0.0
C103 C 0.62011 0.14024 0.58545 0.0
O104 O 0.56845 0.06814 0.60885 0.0
O105 O 0.57271 0.08671 0.5524 0.0
O106 O 0.62498 0.02917 0.56804 0.0
C107 C 0.55686 0.07688 0.57798 0.0
O108 O 0.60273 0.1377 0.61321 0.0
C109 C 0.63244 0.03231 0.53264 0.0
O110 O 0.63136 0.12046 0.56953 0.0
O111 O 0.63345 0.05558 0.52044 0.0
C112 C 0.792 0.34908 0.79823 0.0
O113 O 0.81347 0.34561 0.77754 0.0
Cd114 Cd 0.85424 0.32991 0.81042 0.0
O115 O 0.79384 0.34957 0.83558 0.0
Cd116 Cd 0.82826 0.35082 0.8895 0.0
C117 C 0.82159 0.28674 0.87462 0.0
O118 O 0.87255 0.36028 0.85718 0.0
O119 O 0.87404 0.34229 0.91457 0.0
O120 O 0.8145 0.39528 0.8888 0.0
C121 C 0.88701 0.35224 0.88596 0.0
O122 O 0.83536 0.29227 0.84392 0.0
C123 C 0.81077 0.39833 0.92543 0.0
O124 O 0.81451 0.30441 0.89914 0.0
O125 O 0.81425 0.37843 0.94701 0.0
C126 C 0.31588 0.04247 0.51183 0.0
O127 O 0.32036 0.06165 0.48953 0.0
Cd128 Cd 0.3381 0.10153 0.51872 0.0
O129 O 0.31692 0.04571 0.54893 0.0
Cd130 Cd 0.32317 0.08257 0.59583 0.0
C131 C 0.39107 0.07982 0.57686 0.0
O132 O 0.31066 0.12571 0.56539 0.0
O133 O 0.33814 0.1247 0.61605 0.0
O134 O 0.27694 0.07482 0.62229 0.0
C135 C 0.32339 0.13799 0.59287 0.0
O136 O 0.38339 0.09172 0.54601 0.0
C137 C 0.28479 0.07023 0.65723 0.0
O138 O 0.37311 0.072 0.60157 0.0
O139 O 0.31078 0.07047 0.66357 0.0
C140 C 0.63713 0.58034 0.27798 0.0
O141 O 0.61366 0.58583 0.26344 0.0
Cd142 Cd 0.57701 0.60153 0.30388 0.0
O143 O 0.64029 0.57873 0.31513 0.0
Cd144 Cd 0.6107 0.57829 0.37523 0.0
C145 C 0.61463 0.64302 0.36653 0.0
O146 O 0.56372 0.56934 0.34973 0.0
O147 O 0.56699 0.58633 0.40792 0.0
O148 O 0.62301 0.53303 0.37629 0.0
C149 C 0.55168 0.57682 0.38092 0.0
O150 O 0.59836 0.63835 0.33768 0.0
C151 C 0.63036 0.53199 0.4121 0.0
O152 O 0.624 0.62462 0.38771 0.0
O153 O 0.62987 0.55324 0.43156 0.0
C154 C 0.15748 0.85271 0.16777 0.0
O155 O 0.13658 0.8436 0.18559 0.0
Cd156 Cd 0.09477 0.8304 0.15353 0.0
O157 O 0.15604 0.85785 0.13114 0.0
Cd158 Cd 0.11871 0.85873 0.07899 0.0
C159 C 0.12016 0.79308 0.07651 0.0
O160 O 0.07737 0.86714 0.11956 0.0
O161 O 0.07003 0.85427 0.0599 0.0
O162 O 0.13213 0.90393 0.07134 0.0
C163 C 0.06014 0.86264 0.09201 0.0
O164 O 0.10811 0.7951 0.10958 0.0
C165 C 0.13375 0.90379 0.03411 0.0
O166 O 0.12762 0.81317 0.05742 0.0
O167 O 0.12958 0.88205 0.01696 0.0
C168 C 0.81279 0.53843 0.02651 0.0
O169 O 0.8136 0.55553 -8e-05 0.0
Cd170 Cd 0.83247 0.59739 0.01832 0.0
O171 O 0.81651 0.54515 0.06225 0.0
Cd172 Cd 0.81985 0.58704 0.09939 0.0
C173 C 0.88665 0.58254 0.08098 0.0
O174 O 0.80526 0.62544 0.05921 0.0
O175 O 0.83538 0.63137 0.1059 0.0
O176 O 0.77338 0.57939 0.12146 0.0
C177 C 0.81938 0.64121 0.08042 0.0
O178 O 0.87802 0.59033 0.04763 0.0
C179 C 0.77856 0.57946 0.15808 0.0
O180 O 0.86946 0.57778 0.1084 0.0
O181 O 0.80378 0.58266 0.16833 0.0
C182 C 0.1349 0.04966 0.95722 0.0
O183 O 0.13275 0.0697 0.97886 0.0
Cd184 Cd 0.11366 0.10918 0.95356 0.0
O185 O 0.13101 0.0514 0.92024 0.0
Cd186 Cd 0.12333 0.08739 0.8722 0.0
C187 C 0.05705 0.08612 0.90039 0.0
O188 O 0.13962 0.12944 0.90245 0.0
O189 O 0.10878 0.1307 0.85625 0.0
O190 O 0.16783 0.07752 0.8428 0.0
C191 C 0.12517 0.14302 0.87902 0.0
O192 O 0.06732 0.09807 0.93007 0.0
C193 C 0.15894 0.07376 0.80802 0.0
O194 O 0.07278 0.07791 0.87296 0.0
O195 O 0.1329 0.07552 0.80279 0.0
C196 C 0.65494 0.34945 0.66575 0.0
O197 O 0.6338 0.34311 0.68556 0.0
Cd198 Cd 0.59102 0.33125 0.65263 0.0
O199 O 0.65276 0.35321 0.62896 0.0
Cd200 Cd 0.61659 0.35615 0.57802 0.0
C201 C 0.61513 0.29095 0.57849 0.0
O202 O 0.57192 0.36411 0.61163 0.0
O203 O 0.57109 0.34829 0.55234 0.0
O204 O 0.62777 0.40184 0.57683 0.0
C205 C 0.55778 0.35702 0.58159 0.0
O206 O 0.60158 0.29468 0.61002 0.0
C207 C 0.63288 0.4034 0.54036 0.0
O208 O 0.62569 0.30992 0.55956 0.0
O209 O 0.63149 0.38232 0.52049 0.0
C210 C 0.31649 0.89121 0.45792 0.0
O211 O 0.31698 0.87196 0.48091 0.0
Cd212 Cd 0.33914 0.83351 0.45534 0.0
O213 O 0.32153 0.88771 0.42159 0.0
Cd214 Cd 0.32648 0.84942 0.37696 0.0
C215 C 0.39257 0.85786 0.39919 0.0
O216 O 0.31685 0.80568 0.40761 0.0
O217 O 0.34533 0.80864 0.35871 0.0
O218 O 0.27863 0.85481 0.36092 0.0
C219 C 0.33188 0.79427 0.38208 0.0
O220 O 0.38379 0.8472 0.43045 0.0
C221 C 0.28128 0.85842 0.32425 0.0
O222 O 0.37577 0.86294 0.37117 0.0
O223 O 0.3059 0.85852 0.31086 0.0
H224 H 0.15525 0.75802 0.10604 0.0
H225 H 0.09423 0.76876 0.01504 0.0
H226 H 0.0924 0.72173 0.00298 0.0
H227 H 0.10232 0.67728 0.02713 0.0
H228 H 0.16268 0.66742 0.11943 0.0
H229 H 0.17125 0.71417 0.12169 0.0
C230 C 0.14235 0.75006 0.0826 0.0
C231 C 0.12504 0.76665 0.06125 0.0
C232 C 0.14116 0.72308 0.07638 0.0
C233 C 0.10802 0.75627 0.03138 0.0
C234 C 0.10678 0.72938 0.02481 0.0
C235 C 0.11814 0.68538 0.04647 0.0
C236 C 0.13212 0.66904 0.0728 0.0
C237 C 0.12244 0.7125 0.04826 0.0
C238 C 0.15203 0.67969 0.09856 0.0
C239 C 0.15671 0.70643 0.10013 0.0
H240 H 0.42398 0.86683 0.33287 0.0
H241 H 0.42934 0.86015 0.45934 0.0
H242 H 0.47942 0.86201 0.45643 0.0
H243 H 0.52186 0.86203 0.41844 0.0
H244 H 0.5185 0.86966 0.29237 0.0
H245 H 0.4677 0.87108 0.29464 0.0
C246 C 0.43614 0.8662 0.35976 0.0
C247 C 0.42279 0.86295 0.3962 0.0
C248 C 0.46535 0.86716 0.35799 0.0
C249 C 0.43893 0.86224 0.43079 0.0
C250 C 0.46767 0.8633 0.42925 0.0
C251 C 0.51003 0.86413 0.39143 0.0
C252 C 0.52383 0.86538 0.35529 0.0
C253 C 0.48109 0.8651 0.39304 0.0
C254 C 0.50828 0.86858 0.3206 0.0
C255 C 0.47925 0.86932 0.3219 0.0
H256 H 0.32975 0.25254 0.65534 0.0
H257 H 0.31733 0.27047 0.53286 0.0
H258 H 0.31143 0.22393 0.51779 0.0
H259 H 0.31358 0.1775 0.53965 0.0
H260 H 0.32752 0.16205 0.66287 0.0
H261 H 0.3289 0.20818 0.67729 0.0
C262 C 0.32568 0.24642 0.62523 0.0
C263 C 0.3244 0.26499 0.59521 0.0
C264 C 0.32265 0.21992 0.61691 0.0
C265 C 0.31852 0.25659 0.55656 0.0
C266 C 0.31526 0.22996 0.54795 0.0
C267 C 0.31652 0.18435 0.56963 0.0
C268 C 0.32071 0.16629 0.60009 0.0
C269 C 0.3178 0.21132 0.57786 0.0
C270 C 0.32459 0.17544 0.6388 0.0
C271 C 0.32537 0.20187 0.64716 0.0
H272 H 0.02438 0.07025 0.83758 0.0
H273 H 0.02069 0.09392 0.95969 0.0
H274 H 0.97061 0.09099 0.95806 0.0
H275 H 0.92764 0.08323 0.92232 0.0
H276 H 0.92951 0.05993 0.80024 0.0
H277 H -0.01971 0.06109 0.80164 0.0
C278 C 0.0126 0.07456 0.86386 0.0
C279 C 0.02649 0.08243 0.89862 0.0
C280 C -0.01661 0.07302 0.86279 0.0
C281 C 0.01077 0.088 0.93237 0.0
C282 C -0.018 0.08633 0.93157 0.0
C283 C 0.93907 0.07832 0.89594 0.0
C284 C 0.92474 0.07161 0.8612 0.0
C285 C 0.96809 0.07913 0.89694 0.0
C286 C 0.94001 0.06522 0.82741 0.0
C287 C 0.96906 0.06589 0.8282 0.0
H288 H 0.14083 0.26576 0.88822 0.0
H289 H 0.0655 0.26031 0.8193 0.0
H290 H 0.06578 0.21357 0.82434 0.0
H291 H 0.08766 0.17403 0.84517 0.0
H292 H 0.16252 0.17686 0.91468 0.0
H293 H 0.16213 0.22458 0.91262 0.0
C294 C 0.1244 0.2543 0.87471 0.0
C295 C 0.10338 0.26672 0.85298 0.0
C296 C 0.12464 0.22688 0.8775 0.0
C297 C 0.08222 0.25147 0.83569 0.0
C298 C 0.08226 0.22461 0.83855 0.0
C299 C 0.10398 0.18498 0.85995 0.0
C300 C 0.12522 0.17185 0.87971 0.0
C301 C 0.10351 0.21212 0.85878 0.0
C302 C 0.14594 0.18649 0.89911 0.0
C303 C 0.14571 0.21378 0.89791 0.0
H304 H 0.93456 0.87447 0.14181 0.0
H305 H 0.9232 0.85249 0.01991 0.0
H306 H -0.02696 0.85152 0.01071 0.0
H307 H 0.01986 0.85512 0.03734 0.0
H308 H 0.03242 0.87641 0.15916 0.0
H309 H -0.01771 0.87946 0.16825 0.0
C310 C 0.94305 0.86971 0.11321 0.0
C311 C 0.92512 0.86347 0.08168 0.0
C312 C 0.97198 0.86888 0.10809 0.0
C313 C 0.93646 0.85723 0.04479 0.0
C314 C 0.96501 0.85664 0.03943 0.0
C315 C 0.01169 0.8605 0.0659 0.0
C316 C 0.02988 0.8654 0.09754 0.0
C317 C -0.01705 0.86211 0.07093 0.0
C318 C 0.01887 0.87247 0.13429 0.0
C319 C -0.00981 0.87421 0.13952 0.0
H320 H 0.35811 0.6781 0.3406 0.0
H321 H 0.29629 0.66285 0.42866 0.0
H322 H 0.29151 0.70981 0.44037 0.0
H323 H 0.30415 0.75565 0.42308 0.0
H324 H 0.36604 0.76819 0.33366 0.0
H325 H 0.37127 0.72191 0.32505 0.0
C326 C 0.34349 0.68486 0.36246 0.0
C327 C 0.3274 0.66687 0.38344 0.0
C328 C 0.34076 0.71157 0.36868 0.0
C329 C 0.30895 0.67622 0.41202 0.0
C330 C 0.30615 0.70309 0.41858 0.0
C331 C 0.31878 0.74818 0.40183 0.0
C332 C 0.33451 0.76559 0.37892 0.0
C333 C 0.32179 0.72104 0.39672 0.0
C334 C 0.35346 0.75549 0.3516 0.0
C335 C 0.35658 0.72891 0.34659 0.0
H336 H 0.51591 0.06047 0.6285 0.0
H337 H 0.52914 0.09519 0.51476 0.0
H338 H 0.47956 0.09844 0.50458 0.0
H339 H 0.43265 0.09253 0.52764 0.0
H340 H 0.41747 0.05816 0.64092 0.0
H341 H 0.4675 0.05353 0.65138 0.0
C342 C 0.50788 0.06864 0.60148 0.0
C343 C 0.52636 0.07763 0.57253 0.0
C344 C 0.47899 0.07054 0.59564 0.0
C345 C 0.51556 0.08816 0.53765 0.0
C346 C 0.48713 0.09005 0.53171 0.0
C347 C 0.44011 0.08395 0.5547 0.0
C348 C 0.4212 0.0758 0.58349 0.0
C349 C 0.4687 0.08147 0.56052 0.0
C350 C 0.4315 0.06463 0.61822 0.0
C351 C 0.46013 0.06202 0.62424 0.0
H352 H 0.79796 0.17158 0.83159 0.0
H353 H 0.8442 0.15879 0.93815 0.0
H354 H 0.84245 0.20538 0.95395 0.0
H355 H 0.83433 0.25063 0.93085 0.0
H356 H 0.78844 0.26206 0.82335 0.0
H357 H 0.7828 0.21532 0.8149 0.0
C358 C 0.80687 0.17895 0.85889 0.0
C359 C 0.82118 0.16197 0.88368 0.0
C360 C 0.80597 0.20562 0.8674 0.0
C361 C 0.83284 0.17158 0.91886 0.0
C362 C 0.83204 0.19824 0.92765 0.0
C363 C 0.8222 0.24279 0.90653 0.0
C364 C 0.8117 0.25967 0.87778 0.0
C365 C 0.81957 0.21563 0.90133 0.0
C366 C 0.79652 0.24936 0.84589 0.0
C367 C 0.7935 0.22264 0.84086 0.0
H368 H 0.63288 0.67571 0.31211 0.0
H369 H 0.61319 0.67181 0.43524 0.0
H370 H 0.6156 0.71948 0.44022 0.0
H371 H 0.6167 0.76253 0.4062 0.0
H372 H 0.6348 0.76424 0.28205 0.0
H373 H 0.64001 0.7174 0.28086 0.0
C374 C 0.6298 0.6853 0.34028 0.0
C375 C 0.62279 0.67042 0.37319 0.0
C376 C 0.63062 0.71244 0.34254 0.0
C377 C 0.61886 0.68293 0.40957 0.0
C378 C 0.61995 0.71019 0.41225 0.0
C379 C 0.62242 0.7526 0.37925 0.0
C380 C 0.62501 0.7668 0.34412 0.0
C381 C 0.62483 0.72524 0.37851 0.0
C382 C 0.63232 0.75372 0.30931 0.0
C383 C 0.63531 0.72691 0.30856 0.0
H384 H 0.86132 0.6742 0.09468 0.0
H385 H 0.77672 0.67216 0.05413 0.0
H386 H 0.77595 0.71994 0.05326 0.0
H387 H 0.79886 0.76258 0.06995 0.0
H388 H 0.88387 0.76214 0.10997 0.0
H389 H 0.885 0.71527 0.10461 0.0
C390 C 0.84271 0.68417 0.08537 0.0
C391 C 0.81902 0.66973 0.07503 0.0
C392 C 0.84251 0.71133 0.08492 0.0
C393 C 0.79524 0.68291 0.06233 0.0
C394 C 0.79479 0.71021 0.06199 0.0
C395 C 0.81768 0.75217 0.07679 0.0
C396 C 0.84111 0.7659 0.09096 0.0
C397 C 0.81821 0.72472 0.07401 0.0
C398 C 0.86539 0.75211 0.09968 0.0
C399 C 0.86612 0.72523 0.09662 0.0
H400 H 0.65801 0.25663 0.5789 0.0
H401 H 0.57213 0.2651 0.5471 0.0
H402 H 0.56692 0.2181 0.54105 0.0
H403 H 0.5846 0.17483 0.55602 0.0
H404 H 0.67015 0.16524 0.58827 0.0
H405 H 0.67799 0.21223 0.58255 0.0
C406 C 0.63856 0.24811 0.56906 0.0
C407 C 0.61552 0.26418 0.56299 0.0
C408 C 0.63557 0.22087 0.56651 0.0
C409 C 0.59017 0.25302 0.55132 0.0
C410 C 0.58712 0.22616 0.54828 0.0
C411 C 0.60514 0.18302 0.5606 0.0
C412 C 0.62677 0.16681 0.57254 0.0
C413 C 0.60932 0.20991 0.55746 0.0
C414 C 0.65329 0.17745 0.57868 0.0
C415 C 0.65767 0.20432 0.57572 0.0
H416 H 0.01582 0.34789 0.91319 0.0
H417 H 0.01625 0.38387 0.79898 0.0
H418 H 0.96552 0.38369 0.79808 0.0
H419 H 0.92101 0.37213 0.82937 0.0
H420 H 0.92179 0.33581 0.94349 0.0
H421 H 0.97212 0.33728 0.94464 0.0
C422 C 0.00489 0.3558 0.88808 0.0
C423 C 0.0198 0.36581 0.85615 0.0
C424 C -0.0241 0.35547 0.88768 0.0
C425 C 0.00525 0.37603 0.82395 0.0
C426 C -0.02375 0.37589 0.8234 0.0
C427 C 0.93222 0.3646 0.85449 0.0
C428 C 0.91761 0.3538 0.88623 0.0
C429 C 0.96135 0.36546 0.85501 0.0
C430 C 0.93245 0.34417 0.91861 0.0
C431 C 0.96128 0.345 0.91935 0.0
H432 H 0.51328 0.55968 0.32717 0.0
H433 H 0.52152 0.5925 0.44397 0.0
H434 H 0.47138 0.59279 0.45088 0.0
H435 H 0.42524 0.58466 0.42366 0.0
H436 H 0.41615 0.55203 0.30697 0.0
H437 H 0.46655 0.55064 0.30022 0.0
C438 C 0.50409 0.56681 0.35416 0.0
C439 C 0.52118 0.57611 0.38495 0.0
C440 C 0.47509 0.56699 0.35799 0.0
C441 C 0.50891 0.58527 0.41975 0.0
C442 C 0.4802 0.58546 0.42377 0.0
C443 C 0.43423 0.57717 0.39673 0.0
C444 C 0.41693 0.56853 0.36583 0.0
C445 C 0.46311 0.57651 0.39304 0.0
C446 C 0.42899 0.55882 0.33122 0.0
C447 C 0.45781 0.55805 0.32732 0.0
H448 H 0.52216 0.37159 0.64025 0.0
H449 H 0.52448 0.34328 0.52036 0.0
H450 H 0.47424 0.34228 0.51764 0.0
H451 H 0.42964 0.34855 0.54903 0.0
H452 H 0.42599 0.37667 0.66874 0.0
H453 H 0.47664 0.37871 0.6717 0.0
C454 C 0.51163 0.36531 0.61353 0.0
C455 C 0.52714 0.35749 0.58062 0.0
C456 C 0.48248 0.36469 0.61208 0.0
C457 C 0.51316 0.34938 0.5462 0.0
C458 C 0.48436 0.34877 0.54455 0.0
C459 C 0.43986 0.35517 0.57581 0.0
C460 C 0.42406 0.36237 0.60862 0.0
C461 C 0.46884 0.35624 0.57731 0.0
C462 C 0.43769 0.37099 0.64303 0.0
C463 C 0.46665 0.37214 0.64475 0.0
H464 H 0.01282 0.57071 0.13112 0.0
H465 H 0.02291 0.59341 0.0099 0.0
H466 H -0.02693 0.59472 0.00119 0.0
H467 H 0.92683 0.59047 0.02742 0.0
H468 H 0.91482 0.5685 0.14843 0.0
H469 H 0.96513 0.56576 0.15765 0.0
C470 C 0.00405 0.57585 0.10283 0.0
C471 C 0.02169 0.58202 0.07127 0.0
C472 C -0.02496 0.57674 0.0979 0.0
C473 C 0.00996 0.58867 0.03479 0.0
C474 C -0.01861 0.58942 0.02968 0.0
C475 C 0.93505 0.585 0.05591 0.0
C476 C 0.91696 0.57976 0.08719 0.0
C477 C 0.96378 0.58365 0.06101 0.0
C478 C 0.92822 0.57265 0.12379 0.0
C479 C 0.95701 0.57112 0.12909 0.0
H480 H 0.13934 0.51931 0.96159 0.0
H481 H 0.1206 0.48302 0.0724 0.0
H482 H 0.1233 0.44028 0.04166 0.0
H483 H 0.12676 0.41313 -0.01803 0.0
H484 H 0.14496 0.44945 0.87103 0.0
H485 H 0.14713 0.49185 0.90315 0.0
C486 C 0.13616 0.50205 0.97908 0.0
C487 C 0.12948 0.5045 0.01915 0.0
C488 C 0.13758 0.47736 0.96115 0.0
C489 C 0.12559 0.48183 0.04141 0.0
C490 C 0.12711 0.45729 0.02386 0.0
C491 C 0.13173 0.43026 0.96499 0.0
C492 C 0.13545 0.42806 0.9241 0.0
C493 C 0.13251 0.45479 -0.01644 0.0
C494 C 0.1418 0.45053 0.90253 0.0
C495 C 0.14296 0.47487 0.92084 0.0
H496 H 0.70146 0.8604 0.29976 0.0
H497 H 0.65743 0.86952 0.18987 0.0
H498 H 0.70116 0.87046 0.15442 0.0
H499 H 0.75159 0.86608 0.15393 0.0
H500 H 0.79584 0.85573 0.26335 0.0
H501 H 0.75235 0.85799 0.29953 0.0
C502 C 0.70143 0.86292 0.26812 0.0
C503 C 0.67611 0.86479 0.24758 0.0
C504 C 0.72669 0.86302 0.24771 0.0
C505 C 0.67654 0.86791 0.20651 0.0
C506 C 0.70156 0.86841 0.18613 0.0
C507 C 0.75182 0.86448 0.18572 0.0
C508 C 0.77703 0.86059 0.20577 0.0
C509 C 0.72672 0.86554 0.20634 0.0
C510 C 0.77679 0.85864 0.24703 0.0
C511 C 0.7519 0.85991 0.2678 0.0
H512 H 0.30847 0.41263 0.48144 0.0
H513 H 0.31413 0.45129 0.59431 0.0
H514 H 0.31077 0.49336 0.56257 0.0
H515 H 0.31023 0.51956 0.50228 0.0
H516 H 0.30455 0.48087 0.38943 0.0
H517 H 0.30362 0.43881 0.42156 0.0
C518 C 0.30861 0.43023 0.49911 0.0
C519 C 0.31182 0.4287 0.54017 0.0
C520 C 0.30682 0.45455 0.48064 0.0
C521 C 0.31185 0.45179 0.56261 0.0
C522 C 0.30998 0.47596 0.54448 0.0
C523 C 0.30838 0.50195 0.48477 0.0
C524 C 0.30773 0.50347 0.44349 0.0
C525 C 0.30806 0.47763 0.50344 0.0
C526 C 0.30527 0.48038 0.42127 0.0
C527 C 0.3048 0.45621 0.43961 0.0
H528 H 0.70054 0.07162 0.65003 0.0
H529 H 0.65255 0.07697 0.75645 0.0
H530 H 0.69495 0.07512 0.79594 0.0
H531 H 0.74594 0.07481 0.8001 0.0
H532 H 0.79364 0.0721 0.69319 0.0
H533 H 0.75113 0.06994 0.65418 0.0
C534 C 0.69928 0.07207 0.68188 0.0
C535 C 0.67334 0.07444 0.70019 0.0
C536 C 0.72377 0.07162 0.70438 0.0
C537 C 0.67221 0.07522 0.74153 0.0
C538 C 0.69647 0.07419 0.76416 0.0
C539 C 0.74702 0.07344 0.7683 0.0
C540 C 0.77298 0.07366 0.74964 0.0
C541 C 0.72241 0.07281 0.74589 0.0
C542 C 0.77398 0.07211 0.70834 0.0
C543 C 0.74965 0.07087 0.68597 0.0
H544 H 0.81627 0.41656 0.0014 0.0
H545 H 0.79213 0.4395 0.88431 0.0
H546 H 0.78892 0.48447 0.90575 0.0
H547 H 0.79688 0.51801 0.95584 0.0
H548 H 0.82117 0.49603 0.07321 0.0
H549 H 0.8202 0.45027 0.0537 0.0
C550 C 0.80982 0.43135 -0.01916 0.0
C551 C 0.80471 0.42462 0.94122 0.0
C552 C 0.80833 0.45751 -0.00674 0.0
C553 C 0.79645 0.44409 0.91491 0.0
C554 C 0.79465 0.46991 0.92709 0.0
C555 C 0.80174 0.50322 0.9773 0.0
C556 C 0.80936 0.51055 0.0158 0.0
C557 C 0.80123 0.47695 0.96589 0.0
C558 C 0.81529 0.49102 0.04329 0.0
C559 C 0.81482 0.46479 0.03213 0.0
H560 H 0.21444 0.06617 0.81283 0.0
H561 H 0.14735 0.0718 0.72904 0.0
H562 H 0.18033 0.06938 0.67479 0.0
H563 H 0.22849 0.06894 0.6514 0.0
H564 H 0.29545 0.06377 0.73556 0.0
H565 H 0.26219 0.06254 0.78937 0.0
C566 C 0.20696 0.06663 0.7827 0.0
C567 C 0.17844 0.06938 0.77506 0.0
C568 C 0.22604 0.06544 0.7517 0.0
C569 C 0.16915 0.06975 0.7358 0.0
C570 C 0.18803 0.06845 0.70475 0.0
C571 C 0.23582 0.06728 0.68148 0.0
C572 C 0.26449 0.06665 0.6894 0.0
C573 C 0.21656 0.06679 0.71238 0.0
C574 C 0.27356 0.06437 0.72857 0.0
C575 C 0.25454 0.06373 0.7594 0.0
H576 H 0.6374 0.52098 0.49017 0.0
H577 H 0.63673 0.48556 0.37472 0.0
H578 H 0.63991 0.44265 0.40388 0.0
H579 H 0.63832 0.41474 0.46225 0.0
H580 H 0.63825 0.45011 0.57775 0.0
H581 H 0.64019 0.49311 0.54859 0.0
C582 C 0.63843 0.50391 0.4714 0.0
C583 C 0.63657 0.50657 0.43033 0.0
C584 C 0.63988 0.47909 0.4884 0.0
C585 C 0.63791 0.48416 0.40646 0.0
C586 C 0.63967 0.45952 0.4231 0.0
C587 C 0.63915 0.43184 0.48104 0.0
C588 C 0.63787 0.4291 0.52211 0.0
C589 C 0.63995 0.45668 0.46406 0.0
C590 C 0.63901 0.45155 0.54599 0.0
C591 C 0.64007 0.47624 0.52936 0.0
H592 H 0.27767 0.85999 0.24325 0.0
H593 H 0.22833 0.86249 0.34883 0.0
H594 H 0.1862 0.86217 0.30971 0.0
H595 H 0.16296 0.85842 0.24635 0.0
H596 H 0.21066 0.85642 0.13956 0.0
H597 H 0.25366 0.85952 0.17818 0.0
C598 C 0.25769 0.86075 0.25758 0.0
C599 C 0.25628 0.86099 0.29901 0.0
C600 C 0.23318 0.86049 0.23474 0.0
C601 C 0.23018 0.86206 0.31709 0.0
C602 C 0.20596 0.86186 0.29473 0.0
C603 C 0.18274 0.85876 0.23141 0.0
C604 C 0.18359 0.85687 0.19019 0.0
C605 C 0.20719 0.86058 0.25367 0.0
C606 C 0.20942 0.85779 0.17132 0.0
C607 C 0.23401 0.85948 0.19341 0.0
H608 H 0.63302 -0.01896 0.55188 0.0
H609 H 0.64274 0.03285 0.45367 0.0
H610 H 0.64536 -0.00424 0.40872 0.0
H611 H 0.64098 0.94886 0.3966 0.0
H612 H 0.63085 0.89693 0.49455 0.0
H613 H 0.63263 0.93379 0.54027 0.0
C614 C 0.63604 -0.01576 0.5207 0.0
C615 C 0.63744 0.00976 0.50618 0.0
C616 C 0.63733 0.96278 0.49491 0.0
C617 C 0.64151 0.01347 0.46569 0.0
C618 C 0.64293 -0.00775 0.43991 0.0
C619 C 0.6395 0.94553 0.42799 0.0
C620 C 0.63557 0.92013 0.44206 0.0
C621 C 0.64027 0.96685 0.45408 0.0
C622 C 0.63386 0.91623 0.48287 0.0
C623 C 0.63475 0.93734 0.50904 0.0
H624 H 0.24832 0.35874 0.65774 0.0
H625 H 0.28968 0.35411 0.77042 0.0
H626 H 0.24518 0.35616 0.80382 0.0
H627 H 0.19456 0.35727 0.80102 0.0
H628 H 0.153 0.36036 0.68835 0.0
H629 H 0.19764 0.36101 0.65502 0.0
C630 C 0.24766 0.35839 0.68966 0.0
C631 C 0.27236 0.35622 0.71152 0.0
C632 C 0.22196 0.35919 0.70866 0.0
C633 C 0.27105 0.35568 0.75283 0.0
C634 C 0.24557 0.35684 0.77197 0.0
C635 C 0.1952 0.35828 0.76914 0.0
C636 C 0.1704 0.3587 0.74723 0.0
C637 C 0.22091 0.35829 0.75017 0.0
C638 C 0.17171 0.35992 0.70596 0.0
C639 C 0.19726 0.36029 0.68687 0.0
H640 H 0.80854 0.01602 -0.01789 0.0
H641 H 0.81871 -0.02446 0.8716 0.0
H642 H 0.81581 0.93394 0.90509 0.0
H643 H 0.81471 0.90895 0.96666 0.0
H644 H 0.80538 0.94964 0.07716 0.0
H645 H 0.80325 -0.00909 0.04286 0.0
C646 C 0.80978 -0.00189 0.96529 0.0
C647 C 0.81411 -0.001 0.92443 0.0
C648 C 0.80835 -0.02587 -0.01519 0.0
C649 C 0.81555 -0.02448 0.90312 0.0
C650 C 0.81393 0.95164 0.92227 0.0
C651 C 0.8117 0.9268 -0.01686 0.0
C652 C 0.81043 0.92613 0.02446 0.0
C653 C 0.81094 0.95068 0.96323 0.0
C654 C 0.80661 0.94952 0.04535 0.0
C655 C 0.80547 -0.02678 0.02577 0.0
H656 H 0.16065 0.5808 0.2444 0.0
H657 H 0.19729 0.57364 0.12923 0.0
H658 H 0.24315 0.57129 0.15875 0.0
H659 H 0.27329 0.57338 0.2168 0.0
H660 H 0.23716 0.57964 0.3323 0.0
H661 H 0.19086 0.58004 0.30311 0.0
C662 C 0.17864 0.57854 0.2258 0.0
C663 C 0.17542 0.57758 0.18463 0.0
C664 C 0.20516 0.57712 0.24297 0.0
C665 C 0.19903 0.57447 0.161 0.0
C666 C 0.22537 0.57319 0.17783 0.0
C667 C 0.2553 0.57471 0.23563 0.0
C668 C 0.25876 0.57668 0.27664 0.0
C669 C 0.22872 0.57484 0.21871 0.0
C670 C 0.23515 0.57811 0.30061 0.0
C671 C 0.20862 0.57842 0.28394 0.0
H672 H 0.30766 -0.00276 0.55147 0.0
H673 H 0.31582 0.02778 0.43414 0.0
H674 H 0.3149 -0.01623 0.40699 0.0
H675 H 0.3152 0.93654 0.41686 0.0
H676 H 0.3078 0.90608 0.53435 0.0
H677 H 0.30483 0.9501 0.56092 0.0
C678 C 0.30893 -0.00565 0.5199 0.0
C679 C 0.312 0.01592 0.49499 0.0
C680 C 0.30871 -0.03107 0.50445 0.0
C681 C 0.31352 0.01165 0.45412 0.0
C682 C 0.31308 -0.01357 0.43853 0.0
C683 C 0.31268 0.93947 0.44826 0.0
C684 C 0.31195 0.9179 0.47354 0.0
C685 C 0.31123 0.96491 0.46347 0.0
C686 C 0.30854 0.92221 0.51414 0.0
C687 C 0.30689 0.94743 0.52941 0.0
H688 H 0.72431 0.5722 0.14172 0.0
H689 H 0.78142 0.5817 0.23891 0.0
H690 H 0.74265 0.58111 0.28516 0.0
H691 H 0.69219 0.58044 0.2973 0.0
H692 H 0.63584 0.57243 0.19877 0.0
H693 H 0.67476 0.56978 0.15376 0.0
C694 C 0.7284 0.57398 0.17305 0.0
C695 C 0.75574 0.57713 0.18681 0.0
C696 C 0.7061 0.57399 0.19922 0.0
C697 C 0.76057 0.5793 0.22752 0.0
C698 C 0.7384 0.57902 0.25395 0.0
C699 C 0.68845 0.57786 0.26603 0.0
C700 C 0.66108 0.57677 0.25146 0.0
C701 C 0.71102 0.57674 0.24006 0.0
C702 C 0.65663 0.57352 0.21081 0.0
C703 C 0.67889 0.57199 0.185 0.0
H704 H 0.14625 0.95115 0.06474 0.0
H705 H 0.1301 0.9118 0.95442 0.0
H706 H 0.13113 0.95343 0.92012 0.0
H707 H 0.13281 0.00142 0.92254 0.0
H708 H 0.14803 0.0401 0.03385 0.0
H709 H 0.1513 -0.00166 0.06646 0.0
C710 C 0.14325 0.95158 0.0331 0.0
C711 C 0.13792 0.92836 0.01226 0.0
C712 C 0.14351 -0.02444 0.01372 0.0
C713 C 0.13424 0.92935 0.97123 0.0
C714 C 0.1347 0.95319 0.95162 0.0
C715 C 0.13719 0.00072 0.95384 0.0
C716 C 0.13993 0.02401 0.97567 0.0
C717 C 0.13875 -0.02351 0.9727 0.0
C718 C 0.14561 0.02262 0.01624 0.0
C719 C 0.14747 -0.00131 0.03501 0.0
H720 H 0.66681 0.34994 0.74427 0.0
H721 H 0.70515 0.354 0.63001 0.0
H722 H 0.75084 0.35522 0.6608 0.0
H723 H 0.7801 0.35327 0.71998 0.0
H724 H 0.7417 0.34994 0.83428 0.0
H725 H 0.69601 0.35048 0.8036 0.0
C726 C 0.68514 0.35118 0.72611 0.0
C727 C 0.68249 0.35167 0.6849 0.0
C728 C 0.71143 0.35199 0.74397 0.0
C729 C 0.70652 0.35355 0.66184 0.0
C730 C 0.73271 0.3542 0.67938 0.0
C731 C 0.76176 0.35281 0.73819 0.0
C732 C 0.76442 0.35138 0.77934 0.0
C733 C 0.73544 0.35315 0.72041 0.0
C734 C 0.74035 0.351 0.80249 0.0
C735 C 0.71415 0.35124 0.785 0.0
loop_
_geom_bond_atom_site_label_1
_geom_bond_atom_site_label_2
_geom_bond_distance
_geom_bond_site_symmetry_2
_ccdc_geom_bond_type
C0 O1 1.306 . S
C0 O3 1.160 . S
O1 C0 1.306 . S
O1 Cd2 2.228 . S
Cd2 O1 2.228 . S
Cd2 O6 2.273 . S
Cd2 O10 2.277 . S
O3 C0 1.160 . S
O3 Cd4 2.203 . S
Cd4 O3 2.203 . S
Cd4 O6 2.411 . S
Cd4 O7 2.333 . S
Cd4 O8 2.352 . S
Cd4 O12 2.277 . S
Cd4 O13 2.356 . S
C5 O10 1.209 . S
C5 O12 1.226 . S
O6 Cd2 2.273 . S
O6 Cd4 2.411 . S
O6 C9 1.320 . S
O7 Cd4 2.333 . S
O7 C9 1.214 . S
O8 Cd4 2.352 . S
O8 C11 1.258 . S
C9 O6 1.320 . S
C9 O7 1.214 . S
O10 Cd2 2.277 . S
O10 C5 1.209 . S
C11 O8 1.258 . S
C11 O13 1.282 . S
O12 Cd4 2.277 . S
O12 C5 1.226 . S
O13 Cd4 2.356 . S
O13 C11 1.282 . S
C14 O15 1.306 . S
C14 O17 1.160 . S
O15 C14 1.306 . S
O15 Cd16 2.228 . S
Cd16 O15 2.228 . S
Cd16 O20 2.273 . S
Cd16 O24 2.277 . S
O17 C14 1.160 . S
O17 Cd18 2.203 . S
Cd18 O17 2.203 . S
Cd18 O20 2.411 . S
Cd18 O21 2.333 . S
Cd18 O22 2.352 . S
Cd18 O26 2.277 . S
Cd18 O27 2.356 . S
C19 O24 1.209 . S
C19 O26 1.226 . S
O20 Cd16 2.273 . S
O20 Cd18 2.411 . S
O20 C23 1.320 . S
O21 Cd18 2.333 . S
O21 C23 1.214 . S
O22 Cd18 2.352 . S
O22 C25 1.258 . S
C23 O20 1.320 . S
C23 O21 1.214 . S
O24 Cd16 2.277 . S
O24 C19 1.209 . S
C25 O22 1.258 . S
C25 O27 1.282 . S
O26 Cd18 2.277 . S
O26 C19 1.226 . S
O27 Cd18 2.356 . S
O27 C25 1.282 . S
C28 O29 1.306 . S
C28 O31 1.160 . S
O29 C28 1.306 . S
O29 Cd30 2.228 . S
Cd30 O29 2.228 . S
Cd30 O34 2.273 . S
Cd30 O38 2.277 . S
O31 C28 1.160 . S
O31 Cd32 2.203 . S
Cd32 O31 2.203 . S
Cd32 O34 2.411 . S
Cd32 O35 2.333 . S
Cd32 O36 2.352 . S
Cd32 O40 2.277 . S
Cd32 O41 2.356 . S
C33 O38 1.209 . S
C33 O40 1.226 . S
O34 Cd30 2.273 . S
O34 Cd32 2.411 . S
O34 C37 1.320 . S
O35 Cd32 2.333 . S
O35 C37 1.214 . S
O36 Cd32 2.352 . S
O36 C39 1.258 . S
C37 O34 1.320 . S
C37 O35 1.214 . S
O38 Cd30 2.277 . S
O38 C33 1.209 . S
C39 O36 1.258 . S
C39 O41 1.282 . S
O40 Cd32 2.277 . S
O40 C33 1.226 . S
O41 Cd32 2.356 . S
O41 C39 1.282 . S
C42 O43 1.306 . S
C42 O45 1.160 . S
O43 C42 1.306 . S
O43 Cd44 2.228 . S
Cd44 O43 2.228 . S
Cd44 O48 2.273 . S
Cd44 O52 2.277 . S
O45 C42 1.160 . S
O45 Cd46 2.203 . S
Cd46 O45 2.203 . S
Cd46 O48 2.411 . S
Cd46 O49 2.333 . S
Cd46 O50 2.352 . S
Cd46 O54 2.277 . S
Cd46 O55 2.356 . S
C47 O52 1.209 . S
C47 O54 1.226 . S
O48 Cd44 2.273 . S
O48 Cd46 2.411 . S
O48 C51 1.320 . S
O49 Cd46 2.333 . S
O49 C51 1.214 . S
O50 Cd46 2.352 . S
O50 C53 1.258 . S
C51 O48 1.320 . S
C51 O49 1.214 . S
O52 Cd44 2.277 . S
O52 C47 1.209 . S
C53 O50 1.258 . S
C53 O55 1.282 . S
O54 Cd46 2.277 . S
O54 C47 1.226 . S
O55 Cd46 2.356 . S
O55 C53 1.282 . S
C56 O57 1.306 . S
C56 O59 1.160 . S
O57 C56 1.306 . S
O57 Cd58 2.228 . S
Cd58 O57 2.228 . S
Cd58 O62 2.273 . S
Cd58 O66 2.277 . S
O59 C56 1.160 . S
O59 Cd60 2.203 . S
Cd60 O59 2.203 . S
Cd60 O62 2.411 . S
Cd60 O63 2.333 . S
Cd60 O64 2.352 . S
Cd60 O68 2.277 . S
Cd60 O69 2.356 . S
C61 O66 1.209 . S
C61 O68 1.226 . S
O62 Cd58 2.273 . S
O62 Cd60 2.411 . S
O62 C65 1.320 . S
O63 Cd60 2.333 . S
O63 C65 1.214 . S
O64 Cd60 2.352 . S
O64 C67 1.258 . S
C65 O62 1.320 . S
C65 O63 1.214 . S
O66 Cd58 2.277 . S
O66 C61 1.209 . S
C67 O64 1.258 . S
C67 O69 1.282 . S
O68 Cd60 2.277 . S
O68 C61 1.226 . S
O69 Cd60 2.356 . S
O69 C67 1.282 . S
C70 O71 1.306 . S
C70 O73 1.160 . S
O71 C70 1.306 . S
O71 Cd72 2.228 . S
Cd72 O71 2.228 . S
Cd72 O76 2.273 . S
Cd72 O80 2.277 . S
O73 C70 1.160 . S
O73 Cd74 2.203 . S
Cd74 O73 2.203 . S
Cd74 O76 2.411 . S
Cd74 O77 2.333 . S
Cd74 O78 2.352 . S
Cd74 O82 2.277 . S
Cd74 O83 2.356 . S
C75 O80 1.209 . S
C75 O82 1.226 . S
O76 Cd72 2.273 . S
O76 Cd74 2.411 . S
O76 C79 1.320 . S
O77 Cd74 2.333 . S
O77 C79 1.214 . S
O78 Cd74 2.352 . S
O78 C81 1.258 . S
C79 O76 1.320 . S
C79 O77 1.214 . S
O80 Cd72 2.277 . S
O80 C75 1.209 . S
C81 O78 1.258 . S
C81 O83 1.282 . S
O82 Cd74 2.277 . S
O82 C75 1.226 . S
O83 Cd74 2.356 . S
O83 C81 1.282 . S
C84 O85 1.306 . S
C84 O87 1.160 . S
O85 C84 1.306 . S
O85 Cd86 2.228 . S
Cd86 O85 2.228 . S
Cd86 O90 2.273 . S
Cd86 O94 2.277 . S
O87 C84 1.160 . S
O87 Cd88 2.203 . S
Cd88 O87 2.203 . S
Cd88 O90 2.411 . S
Cd88 O91 2.333 . S
Cd88 O92 2.352 . S
Cd88 O96 2.277 . S
Cd88 O97 2.356 . S
C89 O94 1.209 . S
C89 O96 1.226 . S
O90 Cd86 2.273 . S
O90 Cd88 2.411 . S
O90 C93 1.320 . S
O91 Cd88 2.333 . S
O91 C93 1.214 . S
O92 Cd88 2.352 . S
O92 C95 1.258 . S
C93 O90 1.320 . S
C93 O91 1.214 . S
O94 Cd86 2.277 . S
O94 C89 1.209 . S
C95 O92 1.258 . S
C95 O97 1.282 . S
O96 Cd88 2.277 . S
O96 C89 1.226 . S
O97 Cd88 2.356 . S
O97 C95 1.282 . S
C98 O99 1.306 . S
C98 O101 1.160 . S
O99 C98 1.306 . S
O99 Cd100 2.228 . S
Cd100 O99 2.228 . S
Cd100 O104 2.273 . S
Cd100 O108 2.277 . S
O101 C98 1.160 . S
O101 Cd102 2.203 . S
Cd102 O101 2.203 . S
Cd102 O104 2.411 . S
Cd102 O105 2.333 . S
Cd102 O106 2.352 . S
Cd102 O110 2.277 . S
Cd102 O111 2.356 . S
C103 O108 1.209 . S
C103 O110 1.226 . S
O104 Cd100 2.273 . S
O104 Cd102 2.411 . S
O104 C107 1.320 . S
O105 Cd102 2.333 . S
O105 C107 1.214 . S
O106 Cd102 2.352 . S
O106 C109 1.258 . S
C107 O104 1.320 . S
C107 O105 1.214 . S
O108 Cd100 2.277 . S
O108 C103 1.209 . S
C109 O106 1.258 . S
C109 O111 1.282 . S
O110 Cd102 2.277 . S
O110 C103 1.226 . S
O111 Cd102 2.356 . S
O111 C109 1.282 . S
C112 O113 1.306 . S
C112 O115 1.160 . S
O113 C112 1.306 . S
O113 Cd114 2.228 . S
Cd114 O113 2.228 . S
Cd114 O118 2.273 . S
Cd114 O122 2.277 . S
O115 C112 1.160 . S
O115 Cd116 2.203 . S
Cd116 O115 2.203 . S
Cd116 O118 2.411 . S
Cd116 O119 2.333 . S
Cd116 O120 2.352 . S
Cd116 O124 2.277 . S
Cd116 O125 2.356 . S
C117 O122 1.209 . S
C117 O124 1.226 . S
O118 Cd114 2.273 . S
O118 Cd116 2.411 . S
O118 C121 1.320 . S
O119 Cd116 2.333 . S
O119 C121 1.214 . S
O120 Cd116 2.352 . S
O120 C123 1.258 . S
C121 O118 1.320 . S
C121 O119 1.214 . S
O122 Cd114 2.277 . S
O122 C117 1.209 . S
C123 O120 1.258 . S
C123 O125 1.282 . S
O124 Cd116 2.277 . S
O124 C117 1.226 . S
O125 Cd116 2.356 . S
O125 C123 1.282 . S
C126 O127 1.306 . S
C126 O129 1.160 . S
O127 C126 1.306 . S
O127 Cd128 2.228 . S
Cd128 O127 2.228 . S
Cd128 O132 2.273 . S
Cd128 O136 2.277 . S
O129 C126 1.160 . S
O129 Cd130 2.203 . S
Cd130 O129 2.203 . S
Cd130 O132 2.411 . S
Cd130 O133 2.333 . S
Cd130 O134 2.352 . S
Cd130 O138 2.277 . S
Cd130 O139 2.356 . S
C131 O136 1.209 . S
C131 O138 1.226 . S
O132 Cd128 2.273 . S
O132 Cd130 2.411 . S
O132 C135 1.320 . S
O133 Cd130 2.333 . S
O133 C135 1.214 . S
O134 Cd130 2.352 . S
O134 C137 1.258 . S
C135 O132 1.320 . S
C135 O133 1.214 . S
O136 Cd128 2.277 . S
O136 C131 1.209 . S
C137 O134 1.258 . S
C137 O139 1.282 . S
O138 Cd130 2.277 . S
O138 C131 1.226 . S
O139 Cd130 2.356 . S
O139 C137 1.282 . S
C140 O141 1.306 . S
C140 O143 1.160 . S
O141 C140 1.306 . S
O141 Cd142 2.228 . S
Cd142 O141 2.228 . S
Cd142 O146 2.273 . S
Cd142 O150 2.277 . S
O143 C140 1.160 . S
O143 Cd144 2.203 . S
Cd144 O143 2.203 . S
Cd144 O146 2.411 . S
Cd144 O147 2.333 . S
Cd144 O148 2.352 . S
Cd144 O152 2.277 . S
Cd144 O153 2.356 . S
C145 O150 1.209 . S
C145 O152 1.226 . S
O146 Cd142 2.273 . S
O146 Cd144 2.411 . S
O146 C149 1.320 . S
O147 Cd144 2.333 . S
O147 C149 1.214 . S
O148 Cd144 2.352 . S
O148 C151 1.258 . S
C149 O146 1.320 . S
C149 O147 1.214 . S
O150 Cd142 2.277 . S
O150 C145 1.209 . S
C151 O148 1.258 . S
C151 O153 1.282 . S
O152 Cd144 2.277 . S
O152 C145 1.226 . S
O153 Cd144 2.356 . S
O153 C151 1.282 . S
C154 O155 1.306 . S
C154 O157 1.160 . S
O155 C154 1.306 . S
O155 Cd156 2.228 . S
Cd156 O155 2.228 . S
Cd156 O160 2.273 . S
Cd156 O164 2.277 . S
O157 C154 1.160 . S
O157 Cd158 2.203 . S
Cd158 O157 2.203 . S
Cd158 O160 2.411 . S
Cd158 O161 2.333 . S
Cd158 O162 2.352 . S
Cd158 O166 2.277 . S
Cd158 O167 2.356 . S
C159 O164 1.209 . S
C159 O166 1.226 . S
O160 Cd156 2.273 . S
O160 Cd158 2.411 . S
O160 C163 1.320 . S
O161 Cd158 2.333 . S
O161 C163 1.214 . S
O162 Cd158 2.352 . S
O162 C165 1.258 . S
C163 O160 1.320 . S
C163 O161 1.214 . S
O164 Cd156 2.277 . S
O164 C159 1.209 . S
C165 O162 1.258 . S
C165 O167 1.282 . S
O166 Cd158 2.277 . S
O166 C159 1.226 . S
O167 Cd158 2.356 . S
O167 C165 1.282 . S
C168 O169 1.306 . S
C168 O171 1.160 . S
O169 C168 1.306 . S
O169 Cd170 2.228 . S
Cd170 O169 2.228 . S
Cd170 O174 2.273 . S
Cd170 O178 2.277 . S
O171 C168 1.160 . S
O171 Cd172 2.203 . S
Cd172 O171 2.203 . S
Cd172 O174 2.411 . S
Cd172 O175 2.333 . S
Cd172 O176 2.352 . S
Cd172 O180 2.277 . S
Cd172 O181 2.356 . S
C173 O178 1.209 . S
C173 O180 1.226 . S
O174 Cd170 2.273 . S
O174 Cd172 2.411 . S
O174 C177 1.320 . S
O175 Cd172 2.333 . S
O175 C177 1.214 . S
O176 Cd172 2.352 . S
O176 C179 1.258 . S
C177 O174 1.320 . S
C177 O175 1.214 . S
O178 Cd170 2.277 . S
O178 C173 1.209 . S
C179 O176 1.258 . S
C179 O181 1.282 . S
O180 Cd172 2.277 . S
O180 C173 1.226 . S
O181 Cd172 2.356 . S
O181 C179 1.282 . S
C182 O183 1.306 . S
C182 O185 1.160 . S
O183 C182 1.306 . S
O183 Cd184 2.228 . S
Cd184 O183 2.228 . S
Cd184 O188 2.273 . S
Cd184 O192 2.277 . S
O185 C182 1.160 . S
O185 Cd186 2.203 . S
Cd186 O185 2.203 . S
Cd186 O188 2.411 . S
Cd186 O189 2.333 . S
Cd186 O190 2.352 . S
Cd186 O194 2.277 . S
Cd186 O195 2.356 . S
C187 O192 1.209 . S
C187 O194 1.226 . S
O188 Cd184 2.273 . S
O188 Cd186 2.411 . S
O188 C191 1.320 . S
O189 Cd186 2.333 . S
O189 C191 1.214 . S
O190 Cd186 2.352 . S
O190 C193 1.258 . S
C191 O188 1.320 . S
C191 O189 1.214 . S
O192 Cd184 2.277 . S
O192 C187 1.209 . S
C193 O190 1.258 . S
C193 O195 1.282 . S
O194 Cd186 2.277 . S
O194 C187 1.226 . S
O195 Cd186 2.356 . S
O195 C193 1.282 . S
C196 O197 1.306 . S
C196 O199 1.160 . S
O197 C196 1.306 . S
O197 Cd198 2.228 . S
Cd198 O197 2.228 . S
Cd198 O202 2.273 . S
Cd198 O206 2.277 . S
O199 C196 1.160 . S
O199 Cd200 2.203 . S
Cd200 O199 2.203 . S
Cd200 O202 2.411 . S
Cd200 O203 2.333 . S
Cd200 O204 2.352 . S
Cd200 O208 2.277 . S
Cd200 O209 2.356 . S
C201 O206 1.209 . S
C201 O208 1.226 . S
O202 Cd198 2.273 . S
O202 Cd200 2.411 . S
O202 C205 1.320 . S
O203 Cd200 2.333 . S
O203 C205 1.214 . S
O204 Cd200 2.352 . S
O204 C207 1.258 . S
C205 O202 1.320 . S
C205 O203 1.214 . S
O206 Cd198 2.277 . S
O206 C201 1.209 . S
C207 O204 1.258 . S
C207 O209 1.282 . S
O208 Cd200 2.277 . S
O208 C201 1.226 . S
O209 Cd200 2.356 . S
O209 C207 1.282 . S
C210 O211 1.306 . S
C210 O213 1.160 . S
O211 C210 1.306 . S
O211 Cd212 2.228 . S
Cd212 O211 2.228 . S
Cd212 O216 2.273 . S
Cd212 O220 2.277 . S
O213 C210 1.160 . S
O213 Cd214 2.203 . S
Cd214 O213 2.203 . S
Cd214 O216 2.411 . S
Cd214 O217 2.333 . S
Cd214 O218 2.352 . S
Cd214 O222 2.277 . S
Cd214 O223 2.356 . S
C215 O220 1.209 . S
C215 O222 1.226 . S
O216 Cd212 2.273 . S
O216 Cd214 2.411 . S
O216 C219 1.320 . S
O217 Cd214 2.333 . S
O217 C219 1.214 . S
O218 Cd214 2.352 . S
O218 C221 1.258 . S
C219 O216 1.320 . S
C219 O217 1.214 . S
O220 Cd212 2.277 . S
O220 C215 1.209 . S
C221 O218 1.258 . S
C221 O223 1.282 . S
O222 Cd214 2.277 . S
O222 C215 1.226 . S
O223 Cd214 2.356 . S
O223 C221 1.282 . S
H224 C230 0.930 . S
H225 C233 0.930 . S
H226 C234 0.930 . S
H227 C235 0.930 . S
H228 C238 0.930 . S
H229 C239 0.930 . S
C230 H224 0.930 . S
C230 C231 1.355 . S
C230 C232 1.415 . S
C231 C230 1.355 . S
C231 C233 1.419 . S
C232 C230 1.415 . S
C232 C237 1.425 . S
C232 C239 1.409 . S
C233 H225 0.930 . S
C233 C231 1.419 . S
C233 C234 1.362 . S
C234 H226 0.930 . S
C234 C233 1.362 . S
C234 C237 1.409 . S
C235 H227 0.930 . S
C235 C236 1.355 . S
C235 C237 1.415 . S
C236 C235 1.355 . S
C236 C238 1.419 . S
C237 C232 1.425 . S
C237 C234 1.409 . S
C237 C235 1.415 . S
C238 H228 0.930 . S
C238 C236 1.419 . S
C238 C239 1.362 . S
C239 H229 0.930 . S
C239 C232 1.409 . S
C239 C238 1.362 . S
H240 C246 0.930 . S
H241 C249 0.930 . S
H242 C250 0.930 . S
H243 C251 0.930 . S
H244 C254 0.930 . S
H245 C255 0.930 . S
C246 H240 0.930 . S
C246 C247 1.355 . S
C246 C248 1.415 . S
C247 C246 1.355 . S
C247 C249 1.419 . S
C248 C246 1.415 . S
C248 C253 1.425 . S
C248 C255 1.409 . S
C249 H241 0.930 . S
C249 C247 1.419 . S
C249 C250 1.362 . S
C250 H242 0.930 . S
C250 C249 1.362 . S
C250 C253 1.409 . S
C251 H243 0.930 . S
C251 C252 1.355 . S
C251 C253 1.415 . S
C252 C251 1.355 . S
C252 C254 1.419 . S
C253 C248 1.425 . S
C253 C250 1.409 . S
C253 C251 1.415 . S
C254 H244 0.930 . S
C254 C252 1.419 . S
C254 C255 1.362 . S
C255 H245 0.930 . S
C255 C248 1.409 . S
C255 C254 1.362 . S
H256 C262 0.930 . S
H257 C265 0.930 . S
H258 C266 0.930 . S
H259 C267 0.930 . S
H260 C270 0.930 . S
H261 C271 0.930 . S
C262 H256 0.930 . S
C262 C263 1.355 . S
C262 C264 1.415 . S
C263 C262 1.355 . S
C263 C265 1.419 . S
C264 C262 1.415 . S
C264 C269 1.425 . S
C264 C271 1.409 . S
C265 H257 0.930 . S
C265 C263 1.419 . S
C265 C266 1.362 . S
C266 H258 0.930 . S
C266 C265 1.362 . S
C266 C269 1.409 . S
C267 H259 0.930 . S
C267 C268 1.355 . S
C267 C269 1.415 . S
C268 C267 1.355 . S
C268 C270 1.419 . S
C269 C264 1.425 . S
C269 C266 1.409 . S
C269 C267 1.415 . S
C270 H260 0.930 . S
C270 C268 1.419 . S
C270 C271 1.362 . S
C271 H261 0.930 . S
C271 C264 1.409 . S
C271 C270 1.362 . S
H272 C278 0.930 . S
H273 C281 0.930 . S
H274 C282 0.930 . S
H275 C283 0.930 . S
H276 C286 0.930 . S
H277 C287 0.930 . S
C278 H272 0.930 . S
C278 C279 1.355 . S
C278 C280 1.415 1_455 S
C279 C278 1.355 . S
C279 C281 1.419 . S
C280 C278 1.415 1_655 S
C280 C285 1.425 . S
C280 C287 1.409 . S
C281 H273 0.930 . S
C281 C279 1.419 . S
C281 C282 1.362 . S
C282 H274 0.930 . S
C282 C281 1.362 . S
C282 C285 1.409 1_455 S
C283 H275 0.930 . S
C283 C284 1.355 . S
C283 C285 1.415 . S
C284 C283 1.355 . S
C284 C286 1.419 . S
C285 C280 1.425 . S
C285 C282 1.409 1_655 S
C285 C283 1.415 . S
C286 H276 0.930 . S
C286 C284 1.419 . S
C286 C287 1.362 . S
C287 H277 0.930 . S
C287 C280 1.409 . S
C287 C286 1.362 . S
H288 C294 0.930 . S
H289 C297 0.930 . S
H290 C298 0.930 . S
H291 C299 0.930 . S
H292 C302 0.930 . S
H293 C303 0.930 . S
C294 H288 0.930 . S
C294 C295 1.355 . S
C294 C296 1.415 . S
C295 C294 1.355 . S
C295 C297 1.419 . S
C296 C294 1.415 . S
C296 C301 1.425 . S
C296 C303 1.409 . S
C297 H289 0.930 . S
C297 C295 1.419 . S
C297 C298 1.362 . S
C298 H290 0.930 . S
C298 C297 1.362 . S
C298 C301 1.409 . S
C299 H291 0.930 . S
C299 C300 1.355 . S
C299 C301 1.415 . S
C300 C299 1.355 . S
C300 C302 1.419 . S
C301 C296 1.425 . S
C301 C298 1.409 . S
C301 C299 1.415 . S
C302 H292 0.930 . S
C302 C300 1.419 . S
C302 C303 1.362 . S
C303 H293 0.930 . S
C303 C296 1.409 . S
C303 C302 1.362 . S
H304 C310 0.930 . S
H305 C313 0.930 . S
H306 C314 0.930 . S
H307 C315 0.930 . S
H308 C318 0.930 . S
H309 C319 0.930 . S
C310 H304 0.930 . S
C310 C311 1.355 . S
C310 C312 1.415 . S
C311 C310 1.355 . S
C311 C313 1.419 . S
C312 C310 1.415 . S
C312 C317 1.425 1_655 S
C312 C319 1.409 1_655 S
C313 H305 0.930 . S
C313 C311 1.419 . S
C313 C314 1.362 . S
C314 H306 0.930 . S
C314 C313 1.362 . S
C314 C317 1.409 1_655 S
C315 H307 0.930 . S
C315 C316 1.355 . S
C315 C317 1.415 . S
C316 C315 1.355 . S
C316 C318 1.419 . S
C317 C312 1.425 1_455 S
C317 C314 1.409 1_455 S
C317 C315 1.415 . S
C318 H308 0.930 . S
C318 C316 1.419 . S
C318 C319 1.362 . S
C319 H309 0.930 . S
C319 C312 1.409 1_455 S
C319 C318 1.362 . S
H320 C326 0.930 . S
H321 C329 0.930 . S
H322 C330 0.930 . S
H323 C331 0.930 . S
H324 C334 0.930 . S
H325 C335 0.930 . S
C326 H320 0.930 . S
C326 C327 1.355 . S
C326 C328 1.415 . S
C327 C326 1.355 . S
C327 C329 1.419 . S
C328 C326 1.415 . S
C328 C333 1.425 . S
C328 C335 1.409 . S
C329 H321 0.930 . S
C329 C327 1.419 . S
C329 C330 1.362 . S
C330 H322 0.930 . S
C330 C329 1.362 . S
C330 C333 1.409 . S
C331 H323 0.930 . S
C331 C332 1.355 . S
C331 C333 1.415 . S
C332 C331 1.355 . S
C332 C334 1.419 . S
C333 C328 1.425 . S
C333 C330 1.409 . S
C333 C331 1.415 . S
C334 H324 0.930 . S
C334 C332 1.419 . S
C334 C335 1.362 . S
C335 H325 0.930 . S
C335 C328 1.409 . S
C335 C334 1.362 . S
H336 C342 0.930 . S
H337 C345 0.930 . S
H338 C346 0.930 . S
H339 C347 0.930 . S
H340 C350 0.930 . S
H341 C351 0.930 . S
C342 H336 0.930 . S
C342 C343 1.355 . S
C342 C344 1.415 . S
C343 C342 1.355 . S
C343 C345 1.419 . S
C344 C342 1.415 . S
C344 C349 1.425 . S
C344 C351 1.409 . S
C345 H337 0.930 . S
C345 C343 1.419 . S
C345 C346 1.362 . S
C346 H338 0.930 . S
C346 C345 1.362 . S
C346 C349 1.409 . S
C347 H339 0.930 . S
C347 C348 1.355 . S
C347 C349 1.415 . S
C348 C347 1.355 . S
C348 C350 1.419 . S
C349 C344 1.425 . S
C349 C346 1.409 . S
C349 C347 1.415 . S
C350 H340 0.930 . S
C350 C348 1.419 . S
C350 C351 1.362 . S
C351 H341 0.930 . S
C351 C344 1.409 . S
C351 C350 1.362 . S
H352 C358 0.930 . S
H353 C361 0.930 . S
H354 C362 0.930 . S
H355 C363 0.930 . S
H356 C366 0.930 . S
H357 C367 0.930 . S
C358 H352 0.930 . S
C358 C359 1.355 . S
C358 C360 1.415 . S
C359 C358 1.355 . S
C359 C361 1.419 . S
C360 C358 1.415 . S
C360 C365 1.425 . S
C360 C367 1.409 . S
C361 H353 0.930 . S
C361 C359 1.419 . S
C361 C362 1.362 . S
C362 H354 0.930 . S
C362 C361 1.362 . S
C362 C365 1.409 . S
C363 H355 0.930 . S
C363 C364 1.355 . S
C363 C365 1.415 . S
C364 C363 1.355 . S
C364 C366 1.419 . S
C365 C360 1.425 . S
C365 C362 1.409 . S
C365 C363 1.415 . S
C366 H356 0.930 . S
C366 C364 1.419 . S
C366 C367 1.362 . S
C367 H357 0.930 . S
C367 C360 1.409 . S
C367 C366 1.362 . S
H368 C374 0.930 . S
H369 C377 0.930 . S
H370 C378 0.930 . S
H371 C379 0.930 . S
H372 C382 0.930 . S
H373 C383 0.930 . S
C374 H368 0.930 . S
C374 C375 1.355 . S
C374 C376 1.415 . S
C375 C374 1.355 . S
C375 C377 1.419 . S
C376 C374 1.415 . S
C376 C381 1.425 . S
C376 C383 1.409 . S
C377 H369 0.930 . S
C377 C375 1.419 . S
C377 C378 1.362 . S
C378 H370 0.930 . S
C378 C377 1.362 . S
C378 C381 1.409 . S
C379 H371 0.930 . S
C379 C380 1.355 . S
C379 C381 1.415 . S
C380 C379 1.355 . S
C380 C382 1.419 . S
C381 C376 1.425 . S
C381 C378 1.409 . S
C381 C379 1.415 . S
C382 H372 0.930 . S
C382 C380 1.419 . S
C382 C383 1.362 . S
C383 H373 0.930 . S
C383 C376 1.409 . S
C383 C382 1.362 . S
H384 C390 0.930 . S
H385 C393 0.930 . S
H386 C394 0.930 . S
H387 C395 0.930 . S
H388 C398 0.930 . S
H389 C399 0.930 . S
C390 H384 0.930 . S
C390 C391 1.355 . S
C390 C392 1.415 . S
C391 C390 1.355 . S
C391 C393 1.419 . S
C392 C390 1.415 . S
C392 C397 1.425 . S
C392 C399 1.409 . S
C393 H385 0.930 . S
C393 C391 1.419 . S
C393 C394 1.362 . S
C394 H386 0.930 . S
C394 C393 1.362 . S
C394 C397 1.409 . S
C395 H387 0.930 . S
C395 C396 1.355 . S
C395 C397 1.415 . S
C396 C395 1.355 . S
C396 C398 1.419 . S
C397 C392 1.425 . S
C397 C394 1.409 . S
C397 C395 1.415 . S
C398 H388 0.930 . S
C398 C396 1.419 . S
C398 C399 1.362 . S
C399 H389 0.930 . S
C399 C392 1.409 . S
C399 C398 1.362 . S
H400 C406 0.930 . S
H401 C409 0.930 . S
H402 C410 0.930 . S
H403 C411 0.930 . S
H404 C414 0.930 . S
H405 C415 0.930 . S
C406 H400 0.930 . S
C406 C407 1.355 . S
C406 C408 1.415 . S
C407 C406 1.355 . S
C407 C409 1.419 . S
C408 C406 1.415 . S
C408 C413 1.425 . S
C408 C415 1.409 . S
C409 H401 0.930 . S
C409 C407 1.419 . S
C409 C410 1.362 . S
C410 H402 0.930 . S
C410 C409 1.362 . S
C410 C413 1.409 . S
C411 H403 0.930 . S
C411 C412 1.355 . S
C411 C413 1.415 . S
C412 C411 1.355 . S
C412 C414 1.419 . S
C413 C408 1.425 . S
C413 C410 1.409 . S
C413 C411 1.415 . S
C414 H404 0.930 . S
C414 C412 1.419 . S
C414 C415 1.362 . S
C415 H405 0.930 . S
C415 C408 1.409 . S
C415 C414 1.362 . S
H416 C422 0.930 . S
H417 C425 0.930 . S
H418 C426 0.930 . S
H419 C427 0.930 . S
H420 C430 0.930 . S
H421 C431 0.930 . S
C422 H416 0.930 . S
C422 C423 1.355 . S
C422 C424 1.415 . S
C423 C422 1.355 . S
C423 C425 1.419 . S
C424 C422 1.415 . S
C424 C429 1.425 1_455 S
C424 C431 1.409 1_455 S
C425 H417 0.930 . S
C425 C423 1.419 . S
C425 C426 1.362 . S
C426 H418 0.930 . S
C426 C425 1.362 . S
C426 C429 1.409 1_455 S
C427 H419 0.930 . S
C427 C428 1.355 . S
C427 C429 1.415 . S
C428 C427 1.355 . S
C428 C430 1.419 . S
C429 C424 1.425 1_655 S
C429 C426 1.409 1_655 S
C429 C427 1.415 . S
C430 H420 0.930 . S
C430 C428 1.419 . S
C430 C431 1.362 . S
C431 H421 0.930 . S
C431 C424 1.409 1_655 S
C431 C430 1.362 . S
H432 C438 0.930 . S
H433 C441 0.930 . S
H434 C442 0.930 . S
H435 C443 0.930 . S
H436 C446 0.930 . S
H437 C447 0.930 . S
C438 H432 0.930 . S
C438 C439 1.355 . S
C438 C440 1.415 . S
C439 C438 1.355 . S
C439 C441 1.419 . S
C440 C438 1.415 . S
C440 C445 1.425 . S
C440 C447 1.409 . S
C441 H433 0.930 . S
C441 C439 1.419 . S
C441 C442 1.362 . S
C442 H434 0.930 . S
C442 C441 1.362 . S
C442 C445 1.409 . S
C443 H435 0.930 . S
C443 C444 1.355 . S
C443 C445 1.415 . S
C444 C443 1.355 . S
C444 C446 1.419 . S
C445 C440 1.425 . S
C445 C442 1.409 . S
C445 C443 1.415 . S
C446 H436 0.930 . S
C446 C444 1.419 . S
C446 C447 1.362 . S
C447 H437 0.930 . S
C447 C440 1.409 . S
C447 C446 1.362 . S
H448 C454 0.930 . S
H449 C457 0.930 . S
H450 C458 0.930 . S
H451 C459 0.930 . S
H452 C462 0.930 . S
H453 C463 0.930 . S
C454 H448 0.930 . S
C454 C455 1.355 . S
C454 C456 1.415 . S
C455 C454 1.355 . S
C455 C457 1.419 . S
C456 C454 1.415 . S
C456 C461 1.425 . S
C456 C463 1.409 . S
C457 H449 0.930 . S
C457 C455 1.419 . S
C457 C458 1.362 . S
C458 H450 0.930 . S
C458 C457 1.362 . S
C458 C461 1.409 . S
C459 H451 0.930 . S
C459 C460 1.355 . S
C459 C461 1.415 . S
C460 C459 1.355 . S
C460 C462 1.419 . S
C461 C456 1.425 . S
C461 C458 1.409 . S
C461 C459 1.415 . S
C462 H452 0.930 . S
C462 C460 1.419 . S
C462 C463 1.362 . S
C463 H453 0.930 . S
C463 C456 1.409 . S
C463 C462 1.362 . S
H464 C470 0.930 . S
H465 C473 0.930 . S
H466 C474 0.930 . S
H467 C475 0.930 . S
H468 C478 0.930 . S
H469 C479 0.930 . S
C470 H464 0.930 . S
C470 C471 1.355 . S
C470 C472 1.415 . S
C471 C470 1.355 . S
C471 C473 1.419 . S
C472 C470 1.415 . S
C472 C477 1.425 1_455 S
C472 C479 1.409 1_455 S
C473 H465 0.930 . S
C473 C471 1.419 . S
C473 C474 1.362 . S
C474 H466 0.930 . S
C474 C473 1.362 . S
C474 C477 1.409 1_455 S
C475 H467 0.930 . S
C475 C476 1.355 . S
C475 C477 1.415 . S
C476 C475 1.355 . S
C476 C478 1.419 . S
C477 C472 1.425 1_655 S
C477 C474 1.409 1_655 S
C477 C475 1.415 . S
C478 H468 0.930 . S
C478 C476 1.419 . S
C478 C479 1.362 . S
C479 H469 0.930 . S
C479 C472 1.409 1_655 S
C479 C478 1.362 . S
H480 C486 0.921 1_556 S
H481 C489 0.930 . S
H482 C490 0.930 . S
H483 C491 0.928 1_554 S
H484 C494 0.930 . S
H485 C495 0.930 . S
C486 H480 0.921 1_554 S
C486 C487 1.355 . S
C486 C488 1.415 1_554 S
C487 C486 1.355 . S
C487 C489 1.419 . S
C488 C486 1.415 1_556 S
C488 C493 1.425 1_556 S
C488 C495 1.409 . S
C489 H481 0.930 . S
C489 C487 1.419 . S
C489 C490 1.362 . S
C490 H482 0.930 . S
C490 C489 1.362 . S
C490 C493 1.409 . S
C491 H483 0.928 1_556 S
C491 C492 1.355 . S
C491 C493 1.415 1_556 S
C492 C491 1.355 . S
C492 C494 1.419 . S
C493 C488 1.425 1_554 S
C493 C490 1.409 . S
C493 C491 1.415 1_554 S
C494 H484 0.930 . S
C494 C492 1.419 . S
C494 C495 1.362 . S
C495 H485 0.930 . S
C495 C488 1.409 . S
C495 C494 1.362 . S
H496 C502 0.930 . S
H497 C505 0.930 . S
H498 C506 0.930 . S
H499 C507 0.930 . S
H500 C510 0.930 . S
H501 C511 0.930 . S
C502 H496 0.930 . S
C502 C503 1.355 . S
C502 C504 1.415 . S
C503 C502 1.355 . S
C503 C505 1.419 . S
C504 C502 1.415 . S
C504 C509 1.425 . S
C504 C511 1.409 . S
C505 H497 0.930 . S
C505 C503 1.419 . S
C505 C506 1.362 . S
C506 H498 0.930 . S
C506 C505 1.362 . S
C506 C509 1.409 . S
C507 H499 0.930 . S
C507 C508 1.355 . S
C507 C509 1.415 . S
C508 C507 1.355 . S
C508 C510 1.419 . S
C509 C504 1.425 . S
C509 C506 1.409 . S
C509 C507 1.415 . S
C510 H500 0.930 . S
C510 C508 1.419 . S
C510 C511 1.362 . S
C511 H501 0.930 . S
C511 C504 1.409 . S
C511 C510 1.362 . S
H512 C518 0.930 . S
H513 C521 0.930 . S
H514 C522 0.930 . S
H515 C523 0.930 . S
H516 C526 0.930 . S
H517 C527 0.930 . S
C518 H512 0.930 . S
C518 C519 1.355 . S
C518 C520 1.415 . S
C519 C518 1.355 . S
C519 C521 1.419 . S
C520 C518 1.415 . S
C520 C525 1.425 . S
C520 C527 1.409 . S
C521 H513 0.930 . S
C521 C519 1.419 . S
C521 C522 1.362 . S
C522 H514 0.930 . S
C522 C521 1.362 . S
C522 C525 1.409 . S
C523 H515 0.930 . S
C523 C524 1.355 . S
C523 C525 1.415 . S
C524 C523 1.355 . S
C524 C526 1.419 . S
C525 C520 1.425 . S
C525 C522 1.409 . S
C525 C523 1.415 . S
C526 H516 0.930 . S
C526 C524 1.419 . S
C526 C527 1.362 . S
C527 H517 0.930 . S
C527 C520 1.409 . S
C527 C526 1.362 . S
H528 C534 0.930 . S
H529 C537 0.930 . S
H530 C538 0.930 . S
H531 C539 0.930 . S
H532 C542 0.930 . S
H533 C543 0.930 . S
C534 H528 0.930 . S
C534 C535 1.355 . S
C534 C536 1.415 . S
C535 C534 1.355 . S
C535 C537 1.419 . S
C536 C534 1.415 . S
C536 C541 1.425 . S
C536 C543 1.409 . S
C537 H529 0.930 . S
C537 C535 1.419 . S
C537 C538 1.362 . S
C538 H530 0.930 . S
C538 C537 1.362 . S
C538 C541 1.409 . S
C539 H531 0.930 . S
C539 C540 1.355 . S
C539 C541 1.415 . S
C540 C539 1.355 . S
C540 C542 1.419 . S
C541 C536 1.425 . S
C541 C538 1.409 . S
C541 C539 1.415 . S
C542 H532 0.930 . S
C542 C540 1.419 . S
C542 C543 1.362 . S
C543 H533 0.930 . S
C543 C536 1.409 . S
C543 C542 1.362 . S
H544 C550 0.930 1_554 S
H545 C553 0.930 . S
H546 C554 0.930 . S
H547 C555 0.930 1_556 S
H548 C558 0.930 . S
H549 C559 0.930 . S
C550 H544 0.930 1_556 S
C550 C551 1.355 . S
C550 C552 1.415 1_556 S
C551 C550 1.355 . S
C551 C553 1.419 . S
C552 C550 1.415 1_554 S
C552 C557 1.425 1_554 S
C552 C559 1.409 . S
C553 H545 0.930 . S
C553 C551 1.419 . S
C553 C554 1.362 . S
C554 H546 0.930 . S
C554 C553 1.362 . S
C554 C557 1.409 . S
C555 H547 0.930 1_554 S
C555 C556 1.355 . S
C555 C557 1.415 1_554 S
C556 C555 1.355 . S
C556 C558 1.419 . S
C557 C552 1.425 1_556 S
C557 C554 1.409 . S
C557 C555 1.415 1_556 S
C558 H548 0.930 . S
C558 C556 1.419 . S
C558 C559 1.362 . S
C559 H549 0.930 . S
C559 C552 1.409 . S
C559 C558 1.362 . S
H560 C566 0.930 . S
H561 C569 0.930 . S
H562 C570 0.930 . S
H563 C571 0.930 . S
H564 C574 0.930 . S
H565 C575 0.930 . S
C566 H560 0.930 . S
C566 C567 1.355 . S
C566 C568 1.415 . S
C567 C566 1.355 . S
C567 C569 1.419 . S
C568 C566 1.415 . S
C568 C573 1.425 . S
C568 C575 1.409 . S
C569 H561 0.930 . S
C569 C567 1.419 . S
C569 C570 1.362 . S
C570 H562 0.930 . S
C570 C569 1.362 . S
C570 C573 1.409 . S
C571 H563 0.930 . S
C571 C572 1.355 . S
C571 C573 1.415 . S
C572 C571 1.355 . S
C572 C574 1.419 . S
C573 C568 1.425 . S
C573 C570 1.409 . S
C573 C571 1.415 . S
C574 H564 0.930 . S
C574 C572 1.419 . S
C574 C575 1.362 . S
C575 H565 0.930 . S
C575 C568 1.409 . S
C575 C574 1.362 . S
H576 C582 0.930 . S
H577 C585 0.930 . S
H578 C586 0.930 . S
H579 C587 0.930 . S
H580 C590 0.930 . S
H581 C591 0.930 . S
C582 H576 0.930 . S
C582 C583 1.355 . S
C582 C584 1.415 . S
C583 C582 1.355 . S
C583 C585 1.419 . S
C584 C582 1.415 . S
C584 C589 1.425 . S
C584 C591 1.409 . S
C585 H577 0.930 . S
C585 C583 1.419 . S
C585 C586 1.362 . S
C586 H578 0.930 . S
C586 C585 1.362 . S
C586 C589 1.409 . S
C587 H579 0.930 . S
C587 C588 1.355 . S
C587 C589 1.415 . S
C588 C587 1.355 . S
C588 C590 1.419 . S
C589 C584 1.425 . S
C589 C586 1.409 . S
C589 C587 1.415 . S
C590 H580 0.930 . S
C590 C588 1.419 . S
C590 C591 1.362 . S
C591 H581 0.930 . S
C591 C584 1.409 . S
C591 C590 1.362 . S
H592 C598 0.930 . S
H593 C601 0.930 . S
H594 C602 0.930 . S
H595 C603 0.930 . S
H596 C606 0.930 . S
H597 C607 0.930 . S
C598 H592 0.930 . S
C598 C599 1.355 . S
C598 C600 1.415 . S
C599 C598 1.355 . S
C599 C601 1.419 . S
C600 C598 1.415 . S
C600 C605 1.425 . S
C600 C607 1.409 . S
C601 H593 0.930 . S
C601 C599 1.419 . S
C601 C602 1.362 . S
C602 H594 0.930 . S
C602 C601 1.362 . S
C602 C605 1.409 . S
C603 H595 0.930 . S
C603 C604 1.355 . S
C603 C605 1.415 . S
C604 C603 1.355 . S
C604 C606 1.419 . S
C605 C600 1.425 . S
C605 C602 1.409 . S
C605 C603 1.415 . S
C606 H596 0.930 . S
C606 C604 1.419 . S
C606 C607 1.362 . S
C607 H597 0.930 . S
C607 C600 1.409 . S
C607 C606 1.362 . S
H608 C614 0.930 . S
H609 C617 0.930 . S
H610 C618 0.930 . S
H611 C619 0.930 . S
H612 C622 0.930 . S
H613 C623 0.930 . S
C614 H608 0.930 . S
C614 C615 1.355 . S
C614 C616 1.446 . S
C615 C614 1.355 . S
C615 C617 1.419 . S
C616 C614 1.446 . S
C616 C621 1.425 1_545 S
C616 C623 1.379 1_545 S
C617 H609 0.930 . S
C617 C615 1.419 . S
C617 C618 1.362 . S
C618 H610 0.930 . S
C618 C617 1.362 . S
C618 C621 1.408 1_545 S
C619 H611 0.930 . S
C619 C620 1.355 . S
C619 C621 1.416 . S
C620 C619 1.355 . S
C620 C622 1.419 . S
C621 C616 1.425 1_565 S
C621 C618 1.408 1_565 S
C621 C619 1.416 . S
C622 H612 0.930 . S
C622 C620 1.419 . S
C622 C623 1.362 . S
C623 H613 0.930 . S
C623 C616 1.379 1_565 S
C623 C622 1.362 . S
H624 C630 0.930 . S
H625 C633 0.930 . S
H626 C634 0.930 . S
H627 C635 0.930 . S
H628 C638 0.930 . S
H629 C639 0.930 . S
C630 H624 0.930 . S
C630 C631 1.355 . S
C630 C632 1.415 . S
C631 C630 1.355 . S
C631 C633 1.419 . S
C632 C630 1.415 . S
C632 C637 1.425 . S
C632 C639 1.409 . S
C633 H625 0.930 . S
C633 C631 1.419 . S
C633 C634 1.362 . S
C634 H626 0.930 . S
C634 C633 1.362 . S
C634 C637 1.409 . S
C635 H627 0.930 . S
C635 C636 1.355 . S
C635 C637 1.415 . S
C636 C635 1.355 . S
C636 C638 1.419 . S
C637 C632 1.425 . S
C637 C634 1.409 . S
C637 C635 1.415 . S
C638 H628 0.930 . S
C638 C636 1.419 . S
C638 C639 1.362 . S
C639 H629 0.930 . S
C639 C632 1.409 . S
C639 C638 1.362 . S
H640 C646 0.930 . S
H641 C649 0.930 . S
H642 C650 0.930 . S
H643 C651 0.930 . S
H644 C654 0.930 . S
H645 C655 0.930 . S
C646 H640 0.930 . S
C646 C647 1.355 1_554 S
C646 C648 1.415 . S
C647 C646 1.355 1_556 S
C647 C649 1.419 . S
C648 C646 1.415 . S
C648 C653 1.425 1_544 S
C648 C655 1.409 . S
C649 H641 0.930 . S
C649 C647 1.419 . S
C649 C650 1.362 1_545 S
C650 H642 0.930 . S
C650 C649 1.362 1_565 S
C650 C653 1.409 . S
C651 H643 0.930 . S
C651 C652 1.355 1_556 S
C651 C653 1.415 . S
C652 C651 1.355 1_554 S
C652 C654 1.419 . S
C653 C648 1.425 1_566 S
C653 C650 1.409 . S
C653 C651 1.415 . S
C654 H644 0.930 . S
C654 C652 1.419 . S
C654 C655 1.362 1_565 S
C655 H645 0.930 . S
C655 C648 1.409 . S
C655 C654 1.362 1_545 S
H656 C662 0.930 . S
H657 C665 0.930 . S
H658 C666 0.930 . S
H659 C667 0.930 . S
H660 C670 0.930 . S
H661 C671 0.930 . S
C662 H656 0.930 . S
C662 C663 1.355 . S
C662 C664 1.415 . S
C663 C662 1.355 . S
C663 C665 1.419 . S
C664 C662 1.415 . S
C664 C669 1.425 . S
C664 C671 1.409 . S
C665 H657 0.930 . S
C665 C663 1.419 . S
C665 C666 1.362 . S
C666 H658 0.930 . S
C666 C665 1.362 . S
C666 C669 1.409 . S
C667 H659 0.930 . S
C667 C668 1.355 . S
C667 C669 1.415 . S
C668 C667 1.355 . S
C668 C670 1.419 . S
C669 C664 1.425 . S
C669 C666 1.409 . S
C669 C667 1.415 . S
C670 H660 0.930 . S
C670 C668 1.419 . S
C670 C671 1.362 . S
C671 H661 0.930 . S
C671 C664 1.409 . S
C671 C670 1.362 . S
H672 C678 0.930 . S
H673 C681 0.930 . S
H674 C682 0.930 . S
H675 C683 0.930 . S
H676 C686 0.930 . S
H677 C687 0.930 . S
C678 H672 0.930 . S
C678 C679 1.355 . S
C678 C680 1.412 . S
C679 C678 1.355 . S
C679 C681 1.419 . S
C680 C678 1.412 . S
C680 C685 1.425 . S
C680 C687 1.412 1_545 S
C681 H673 0.930 . S
C681 C679 1.419 . S
C681 C682 1.362 . S
C682 H674 0.930 . S
C682 C681 1.362 . S
C682 C685 1.430 . S
C683 H675 0.930 . S
C683 C684 1.355 . S
C683 C685 1.395 1_565 S
C684 C683 1.355 . S
C684 C686 1.419 . S
C685 C680 1.425 . S
C685 C682 1.430 . S
C685 C683 1.395 1_545 S
C686 H676 0.930 . S
C686 C684 1.419 . S
C686 C687 1.362 . S
C687 H677 0.930 . S
C687 C680 1.412 1_565 S
C687 C686 1.362 . S
H688 C694 0.930 . S
H689 C697 0.930 . S
H690 C698 0.930 . S
H691 C699 0.930 . S
H692 C702 0.930 . S
H693 C703 0.930 . S
C694 H688 0.930 . S
C694 C695 1.355 . S
C694 C696 1.415 . S
C695 C694 1.355 . S
C695 C697 1.419 . S
C696 C694 1.415 . S
C696 C701 1.425 . S
C696 C703 1.409 . S
C697 H689 0.930 . S
C697 C695 1.419 . S
C697 C698 1.362 . S
C698 H690 0.930 . S
C698 C697 1.362 . S
C698 C701 1.409 . S
C699 H691 0.930 . S
C699 C700 1.355 . S
C699 C701 1.415 . S
C700 C699 1.355 . S
C700 C702 1.419 . S
C701 C696 1.425 . S
C701 C698 1.409 . S
C701 C699 1.415 . S
C702 H692 0.930 . S
C702 C700 1.419 . S
C702 C703 1.362 . S
C703 H693 0.930 . S
C703 C696 1.409 . S
C703 C702 1.362 . S
H704 C710 0.930 . S
H705 C713 0.930 . S
H706 C714 0.930 . S
H707 C715 0.930 . S
H708 C718 0.930 1_554 S
H709 C719 0.930 . S
C710 H704 0.930 . S
C710 C711 1.355 . S
C710 C712 1.415 1_565 S
C711 C710 1.355 . S
C711 C713 1.419 1_554 S
C712 C710 1.415 1_545 S
C712 C717 1.425 1_554 S
C712 C719 1.409 . S
C713 H705 0.930 . S
C713 C711 1.419 1_556 S
C713 C714 1.362 . S
C714 H706 0.930 . S
C714 C713 1.362 . S
C714 C717 1.409 1_565 S
C715 H707 0.930 . S
C715 C716 1.355 . S
C715 C717 1.415 . S
C716 C715 1.355 . S
C716 C718 1.419 . S
C717 C712 1.425 1_556 S
C717 C714 1.409 1_545 S
C717 C715 1.415 . S
C718 H708 0.930 1_556 S
C718 C716 1.419 . S
C718 C719 1.362 1_556 S
C719 H709 0.930 . S
C719 C712 1.409 . S
C719 C718 1.362 1_554 S
H720 C726 0.930 . S
H721 C729 0.930 . S
H722 C730 0.930 . S
H723 C731 0.930 . S
H724 C734 0.930 . S
H725 C735 0.930 . S
C726 H720 0.930 . S
C726 C727 1.355 . S
C726 C728 1.415 . S
C727 C726 1.355 . S
C727 C729 1.419 . S
C728 C726 1.415 . S
C728 C733 1.425 . S
C728 C735 1.409 . S
C729 H721 0.930 . S
C729 C727 1.419 . S
C729 C730 1.362 . S
C730 H722 0.930 . S
C730 C729 1.362 . S
C730 C733 1.409 . S
C731 H723 0.930 . S
C731 C732 1.355 . S
C731 C733 1.415 . S
C732 C731 1.355 . S
C732 C734 1.419 . S
C733 C728 1.425 . S
C733 C730 1.409 . S
C733 C731 1.415 . S
C734 H724 0.930 . S
C734 C732 1.419 . S
C734 C735 1.362 . S
C735 H725 0.930 . S
C735 C728 1.409 . S
C735 C734 1.362 . S
C231 C159 1.375 . S
C236 C5 1.359 . S
C247 C215 1.400 . S
C252 C23 1.419 . S
C263 C33 1.409 . S
C268 C135 1.364 . S
C279 C187 1.368 . S
C284 C51 1.382 . S
C295 C61 1.349 . S
C300 C191 1.376 . S
C311 C79 1.394 . S
C316 C163 1.407 . S
C327 C89 1.416 . S
C332 C219 1.375 . S
C343 C107 1.378 . S
C348 C131 1.391 . S
C359 C47 1.365 . S
C364 C117 1.353 . S
C375 C145 1.337 . S
C380 C19 1.305 . S
C391 C177 1.354 . S
C396 C75 1.343 . S
C407 C201 1.322 . S
C412 C103 1.330 . S
C423 C65 1.443 . S
C428 C121 1.426 . S
C439 C149 1.409 . S
C444 C93 1.405 . S
C455 C205 1.434 . S
C460 C37 1.433 . S
C471 C9 1.391 . S
C476 C173 1.420 . S
C487 C11 1.282 . S
C492 C67 1.311 . S
C503 C14 1.357 . S
C508 C70 1.348 . S
C519 C39 1.359 . S
C524 C95 1.372 . S
C535 C98 1.300 . S
C540 C42 1.279 . S
C551 C123 1.354 . S
C556 C168 1.322 . S
C567 C193 1.268 . S
C572 C137 1.267 . S
C583 C151 1.286 . S
C588 C207 1.283 . S
C599 C221 1.322 . S
C604 C154 1.317 . S
C615 C109 1.233 . S
C620 C25 1.202 . S
C631 C28 1.427 . S
C636 C56 1.434 . S
C647 C53 1.277 . S
C652 C81 1.287 . S
C663 C0 1.356 . S
C668 C84 1.390 . S
C679 C126 1.389 . S
C684 C210 1.370 . S
C695 C179 1.287 . S
C700 C140 1.305 . S
C711 C165 1.316 . S
C716 C182 1.334 . S
C727 C196 1.347 . S
C732 C112 1.339 . S
