# Generated by pormake.
# Topology wke, (5)-cn, num edge types: 1
# Building blocks:
#     Node 0, Type 0, BuildingBlock: BEQFEK_clean_sbu_0, # of connection points: 5
#     Node 1, Type 0, BuildingBlock: BEQFEK_clean_sbu_0, # of connection points: 5
#     Node 2, Type 0, BuildingBlock: BEQFEK_clean_sbu_0, # of connection points: 5
#     Node 3, Type 0, BuildingBlock: BEQFEK_clean_sbu_0, # of connection points: 5
#     Node 4, Type 0, BuildingBlock: BEQFEK_clean_sbu_0, # of connection points: 5
#     Node 5, Type 0, BuildingBlock: BEQFEK_clean_sbu_0, # of connection points: 5
#     Node 6, Type 0, BuildingBlock: BEQFEK_clean_sbu_0, # of connection points: 5
#     Node 7, Type 0, BuildingBlock: BEQFEK_clean_sbu_0, # of connection points: 5
#     Node 8, Type 0, BuildingBlock: BEQFEK_clean_sbu_0, # of connection points: 5
#     Node 9, Type 0, BuildingBlock: BEQFEK_clean_sbu_0, # of connection points: 5
#     Node 10, Type 0, BuildingBlock: BEQFEK_clean_sbu_0, # of connection points: 5
#     Node 11, Type 0, BuildingBlock: BEQFEK_clean_sbu_0, # of connection points: 5
#     Edge 12, Type (0, 0), BuildingBlock: XIVTED_clean_linker_0, # of connection points: 2
#     Edge 13, Type (0, 0), BuildingBlock: XIVTED_clean_linker_0, # of connection points: 2
#     Edge 14, Type (0, 0), BuildingBlock: XIVTED_clean_linker_0, # of connection points: 2
#     Edge 15, Type (0, 0), BuildingBlock: XIVTED_clean_linker_0, # of connection points: 2
#     Edge 16, Type (0, 0), BuildingBlock: XIVTED_clean_linker_0, # of connection points: 2
#     Edge 17, Type (0, 0), BuildingBlock: XIVTED_clean_linker_0, # of connection points: 2
#     Edge 18, Type (0, 0), BuildingBlock: XIVTED_clean_linker_0, # of connection points: 2
#     Edge 19, Type (0, 0), BuildingBlock: XIVTED_clean_linker_0, # of connection points: 2
#     Edge 20, Type (0, 0), BuildingBlock: XIVTED_clean_linker_0, # of connection points: 2
#     Edge 21, Type (0, 0), BuildingBlock: XIVTED_clean_linker_0, # of connection points: 2
#     Edge 22, Type (0, 0), BuildingBlock: XIVTED_clean_linker_0, # of connection points: 2
#     Edge 23, Type (0, 0), BuildingBlock: XIVTED_clean_linker_0, # of connection points: 2
#     Edge 24, Type (0, 0), BuildingBlock: XIVTED_clean_linker_0, # of connection points: 2
#     Edge 25, Type (0, 0), BuildingBlock: XIVTED_clean_linker_0, # of connection points: 2
#     Edge 26, Type (0, 0), BuildingBlock: XIVTED_clean_linker_0, # of connection points: 2
#     Edge 27, Type (0, 0), BuildingBlock: XIVTED_clean_linker_0, # of connection points: 2
#     Edge 28, Type (0, 0), BuildingBlock: XIVTED_clean_linker_0, # of connection points: 2
#     Edge 29, Type (0, 0), BuildingBlock: XIVTED_clean_linker_0, # of connection points: 2
#     Edge 30, Type (0, 0), BuildingBlock: XIVTED_clean_linker_0, # of connection points: 2
#     Edge 31, Type (0, 0), BuildingBlock: XIVTED_clean_linker_0, # of connection points: 2
#     Edge 32, Type (0, 0), BuildingBlock: XIVTED_clean_linker_0, # of connection points: 2
#     Edge 33, Type (0, 0), BuildingBlock: XIVTED_clean_linker_0, # of connection points: 2
#     Edge 34, Type (0, 0), BuildingBlock: XIVTED_clean_linker_0, # of connection points: 2
#     Edge 35, Type (0, 0), BuildingBlock: XIVTED_clean_linker_0, # of connection points: 2
#     Edge 36, Type (0, 0), BuildingBlock: XIVTED_clean_linker_0, # of connection points: 2
#     Edge 37, Type (0, 0), BuildingBlock: XIVTED_clean_linker_0, # of connection points: 2
#     Edge 38, Type (0, 0), BuildingBlock: XIVTED_clean_linker_0, # of connection points: 2
#     Edge 39, Type (0, 0), BuildingBlock: XIVTED_clean_linker_0, # of connection points: 2
#     Edge 40, Type (0, 0), BuildingBlock: XIVTED_clean_linker_0, # of connection points: 2
#     Edge 41, Type (0, 0), BuildingBlock: XIVTED_clean_linker_0, # of connection points: 2
# Relax obj value: 0.219
# Max RMSD: 0.178
# Mean RMSD: 0.178
data_MOF--net-wke--node1-BEQFEK_clean_sbu_0--edge1-XIVTED_clean_linker_0
_symmetry_space_group_name_H-M    P1
_symmetry_Int_Tables_number       1
_symmetry_cell_setting            triclinic
loop_
_symmetry_equiv_pos_as_xyz
'x, y, z'
_cell_length_a     72.716826
_cell_length_b     72.734888
_cell_length_c     18.813466
_cell_angle_alpha  89.946369
_cell_angle_beta   90.058344
_cell_angle_gamma 119.98175
loop_
_atom_site_label
_atom_site_type_symbol
_atom_site_fract_x
_atom_site_fract_y
_atom_site_fract_z
_atom_type_partial_charge
Co0 Co 0.09825 0.44432 0.25795 0.0
Co1 Co 0.11557 0.45974 0.41068 0.0
C2 C 0.06996 0.42595 0.38207 0.0
O3 O 0.07258 0.42579 0.31517 0.0
O4 O 0.08512 0.43846 0.42244 0.0
C5 C 0.08548 0.4207 0.1204 0.0
O6 O 0.08 0.40256 0.15194 0.0
C7 C 0.12224 0.45276 0.55811 0.0
C8 C 0.14041 0.48553 0.59887 0.0
C9 C 0.13001 0.46444 0.62011 0.0
N10 N 0.12749 0.46631 0.50329 0.0
N11 N 0.13885 0.48588 0.52769 0.0
C12 C 0.10796 0.42926 0.55174 0.0
H13 H 0.10423 0.42442 0.49535 0.0
H14 H 0.1159 0.42097 0.57453 0.0
H15 H 0.09313 0.42427 0.58216 0.0
C16 C 0.13634 0.43896 0.25325 0.0
N17 N 0.12259 0.44307 0.28801 0.0
N18 N 0.12967 0.44933 0.35299 0.0
C19 C 0.14793 0.44909 0.36205 0.0
C20 C 0.15275 0.44251 0.29914 0.0
C21 C 0.13433 0.43268 0.17667 0.0
H22 H 0.12034 0.41662 0.17033 0.0
H23 H 0.14847 0.43221 0.15724 0.0
H24 H 0.13189 0.44395 0.14384 0.0
O25 O 0.10448 0.47404 0.26243 0.0
O26 O 0.11803 0.48599 0.36928 0.0
H27 H 0.16452 0.4734 0.43954 0.0
H28 H 0.177 0.45784 0.41981 0.0
C29 C 0.16158 0.45725 0.42696 0.0
H30 H 0.15307 0.44678 0.47264 0.0
H31 H 0.14423 0.49947 0.49646 0.0
O32 O 0.09267 0.43765 0.15645 0.0
C33 C 0.11248 0.48892 0.30803 0.0
Co34 Co 0.65237 0.09858 0.7485 0.0
Co35 Co 0.65541 0.11578 0.90211 0.0
C36 C 0.64336 0.07035 0.87333 0.0
O37 O 0.64567 0.07299 0.80631 0.0
O38 O 0.6463 0.08549 0.91417 0.0
C39 C 0.66523 0.08762 0.61314 0.0
O40 O 0.68019 0.08595 0.6466 0.0
C41 C 0.66904 0.12245 0.04995 0.0
C42 C 0.65538 0.14161 0.08952 0.0
C43 C 0.6656 0.13079 0.11138 0.0
N44 N 0.66105 0.1279 -0.00537 0.0
N45 N 0.65338 0.13981 0.01836 0.0
C46 C 0.67763 0.1076 0.04483 0.0
H47 H 0.66724 0.09285 0.07485 0.0
H48 H 0.67897 0.10384 0.98869 0.0
H49 H 0.69367 0.11503 0.06894 0.0
C50 C 0.69531 0.13751 0.74013 0.0
N51 N 0.67804 0.12324 0.77654 0.0
N52 N 0.67963 0.12973 0.8427 0.0
C53 C 0.69828 0.14783 0.8513 0.0
C54 C 0.70884 0.15345 0.78645 0.0
C55 C 0.69723 0.13787 0.66082 0.0
H56 H 0.68137 0.13129 0.63588 0.0
H57 H 0.70444 0.12821 0.64482 0.0
H58 H 0.70746 0.15426 0.64074 0.0
O59 O 0.62892 0.10471 0.75441 0.0
O60 O 0.63133 0.11819 0.86193 0.0
H61 H 0.69569 0.16669 0.93352 0.0
H62 H 0.72256 0.17208 0.91845 0.0
C63 C 0.70561 0.15952 0.92032 0.0
H64 H 0.70363 0.14822 0.96314 0.0
H65 H 0.64548 0.14547 0.98672 0.0
O66 O 0.65305 0.09222 0.64745 0.0
C67 C 0.62243 0.11273 0.80124 0.0
Co68 Co 0.55199 0.65383 0.25948 0.0
Co69 Co 0.53655 0.65602 0.41192 0.0
C70 C 0.57025 0.64399 0.38422 0.0
O71 O 0.57054 0.6467 0.31722 0.0
O72 O 0.55769 0.64673 0.42396 0.0
C73 C 0.57561 0.66473 0.12201 0.0
O74 O 0.59359 0.67785 0.15354 0.0
C75 C 0.54406 0.6702 0.55869 0.0
C76 C 0.51148 0.6553 0.60136 0.0
C77 C 0.53268 0.66634 0.62135 0.0
N78 N 0.53024 0.66155 0.50468 0.0
N79 N 0.51078 0.65315 0.53023 0.0
C80 C 0.56757 0.67972 0.55098 0.0
H81 H 0.57302 0.67039 0.58233 0.0
H82 H 0.57211 0.68038 0.49443 0.0
H83 H 0.57573 0.69615 0.57197 0.0
C84 C 0.55737 0.69734 0.25366 0.0
N85 N 0.5533 0.67952 0.28882 0.0
N86 N 0.54711 0.68046 0.35379 0.0
C87 C 0.54743 0.699 0.36249 0.0
C88 C 0.55397 0.7103 0.29936 0.0
C89 C 0.56333 0.70141 0.17678 0.0
H90 H 0.55228 0.68739 0.14477 0.0
H91 H 0.57961 0.70408 0.17008 0.0
H92 H 0.56313 0.71563 0.15667 0.0
O93 O 0.52221 0.63044 0.26432 0.0
O94 O 0.51019 0.63231 0.3707 0.0
H95 H 0.52327 0.69146 0.44043 0.0
H96 H 0.53876 0.71944 0.41966 0.0
C97 C 0.53938 0.70464 0.42729 0.0
H98 H 0.54996 0.70675 0.47281 0.0
H99 H 0.49704 0.64466 0.49985 0.0
O100 O 0.55867 0.65468 0.15795 0.0
C101 C 0.50727 0.62373 0.30969 0.0
Co102 Co 0.89565 0.55111 0.77312 0.0
Co103 Co 0.8788 0.53591 0.92642 0.0
C104 C 0.92401 0.57014 0.89723 0.0
O105 O 0.92126 0.57012 0.83037 0.0
O106 O 0.90903 0.55751 0.93783 0.0
C107 C 0.90656 0.57514 0.63747 0.0
O108 O 0.90856 0.59194 0.67055 0.0
C109 C 0.87238 0.54281 0.07424 0.0
C110 C 0.85454 0.51004 0.11533 0.0
C111 C 0.86474 0.53115 0.13626 0.0
N112 N 0.86713 0.52925 0.01944 0.0
N113 N 0.856 0.50968 0.0441 0.0
C114 C 0.88645 0.56635 0.06794 0.0
H115 H 0.88993 0.57127 0.01154 0.0
H116 H 0.8785 0.57448 0.0917 0.0
H117 H 0.90141 0.57142 0.0977 0.0
C118 C 0.85658 0.55502 0.7678 0.0
N119 N 0.87084 0.55162 0.8027 0.0
N120 N 0.86428 0.54595 0.86848 0.0
C121 C 0.84607 0.54623 0.87825 0.0
C122 C 0.84054 0.55196 0.81469 0.0
C123 C 0.85652 0.55793 0.689 0.0
H124 H 0.86279 0.54873 0.66163 0.0
H125 H 0.86665 0.57499 0.67598 0.0
H126 H 0.84027 0.55256 0.66888 0.0
O127 O 0.89005 0.52166 0.77798 0.0
O128 O 0.87682 0.50976 0.88522 0.0
H129 H 0.82802 0.52399 0.95986 0.0
H130 H 0.82103 0.54441 0.94591 0.0
C131 C 0.83427 0.541 0.94724 0.0
H132 H 0.84531 0.55058 0.99025 0.0
H133 H 0.8507 0.49609 0.01298 0.0
O134 O 0.9017 0.55831 0.67202 0.0
C135 C 0.88238 0.50687 0.82398 0.0
Co136 Co 0.34011 0.8967 0.26794 0.0
Co137 Co 0.34268 0.8803 0.41828 0.0
C138 C 0.35252 0.92536 0.39227 0.0
O139 O 0.34843 0.9225 0.32604 0.0
O140 O 0.35105 0.91046 0.43163 0.0
C141 C 0.35003 0.9132 0.13024 0.0
O142 O 0.36902 0.92389 0.15884 0.0
C143 C 0.33354 0.87373 0.56884 0.0
C144 C 0.35149 0.85801 0.60119 0.0
C145 C 0.34018 0.86719 0.62773 0.0
N146 N 0.34072 0.86882 0.51029 0.0
N147 N 0.35098 0.85893 0.5298 0.0
C148 C 0.32303 0.88694 0.56845 0.0
H149 H 0.31941 0.88962 0.51343 0.0
H150 H 0.30796 0.87876 0.59878 0.0
H151 H 0.33346 0.90235 0.59495 0.0
C152 C 0.29719 0.85874 0.27401 0.0
N153 N 0.31584 0.87245 0.30457 0.0
N154 N 0.31677 0.86547 0.36818 0.0
C155 C 0.29862 0.84716 0.38068 0.0
C156 C 0.28556 0.84223 0.3213 0.0
C157 C 0.29207 0.8602 0.19778 0.0
H158 H 0.30517 0.86165 0.16366 0.0
H159 H 0.2909 0.87471 0.19019 0.0
H160 H 0.2771 0.84613 0.18031 0.0
O161 O 0.36411 0.89109 0.26081 0.0
O162 O 0.3656 0.87869 0.36702 0.0
H163 H 0.3057 0.8289 0.45327 0.0
H164 H 0.27775 0.8209 0.44925 0.0
C165 C 0.29417 0.83459 0.44787 0.0
H166 H 0.29635 0.84498 0.49389 0.0
H167 H 0.35901 0.85427 0.49475 0.0
O168 O 0.33436 0.90149 0.1698 0.0
C169 C 0.37244 0.8838 0.30371 0.0
Co170 Co 0.44433 0.34377 0.76523 0.0
Co171 Co 0.45975 0.34246 0.91861 0.0
C172 C 0.42559 0.35351 0.88931 0.0
O173 O 0.42555 0.35061 0.82253 0.0
O174 O 0.43822 0.35121 0.93015 0.0
C175 C 0.42025 0.33051 0.62934 0.0
O176 O 0.40339 0.31569 0.66213 0.0
C177 C 0.45306 0.32928 0.06655 0.0
C178 C 0.48587 0.34413 0.10732 0.0
C179 C 0.46478 0.33323 0.12844 0.0
N180 N 0.46657 0.3376 0.01164 0.0
N181 N 0.48617 0.34601 0.0361 0.0
C182 C 0.42952 0.31986 0.06044 0.0
H183 H 0.42455 0.31838 0.00406 0.0
H184 H 0.42136 0.3038 0.08441 0.0
H185 H 0.4245 0.32981 0.09001 0.0
C186 C 0.4404 0.30082 0.76119 0.0
N187 N 0.44379 0.31852 0.79562 0.0
N188 N 0.44957 0.31778 0.86143 0.0
C189 C 0.4494 0.29936 0.87164 0.0
C190 C 0.44362 0.28799 0.80839 0.0
C191 C 0.43742 0.29771 0.68247 0.0
H192 H 0.44661 0.31312 0.6547 0.0
H193 H 0.42035 0.29079 0.66958 0.0
H194 H 0.44274 0.28677 0.66265 0.0
O195 O 0.47381 0.36752 0.76901 0.0
O196 O 0.48585 0.36647 0.87637 0.0
H197 H 0.4719 0.30396 0.95289 0.0
H198 H 0.45173 0.27644 0.9395 0.0
C199 C 0.4549 0.29301 0.94062 0.0
H200 H 0.44529 0.29434 0.98374 0.0
H201 H 0.49974 0.35429 0.00484 0.0
O202 O 0.43701 0.34244 0.66418 0.0
C203 C 0.48868 0.37473 0.81474 0.0
Co204 Co 0.5498 0.89737 0.21237 0.0
Co205 Co 0.53427 0.88038 0.05932 0.0
C206 C 0.56892 0.9255 0.08798 0.0
O207 O 0.569 0.92281 0.15485 0.0
O208 O 0.55607 0.91055 0.04769 0.0
C209 C 0.57365 0.90827 0.34857 0.0
O210 O 0.59046 0.91007 0.31609 0.0
C211 C 0.54143 0.87375 0.9121 0.0
C212 C 0.5088 0.85637 0.86959 0.0
C213 C 0.52998 0.86624 0.84961 0.0
N214 N 0.52769 0.86873 0.96624 0.0
N215 N 0.50819 0.85788 0.94075 0.0
C216 C 0.56498 0.88754 0.91941 0.0
H217 H 0.5697 0.89094 0.976 0.0
H218 H 0.57302 0.8794 0.89632 0.0
H219 H 0.57039 0.90256 0.88964 0.0
C220 C 0.55343 0.85817 0.21802 0.0
N221 N 0.55003 0.87242 0.18309 0.0
N222 N 0.54416 0.86575 0.11749 0.0
C223 C 0.54428 0.84745 0.10792 0.0
C224 C 0.55015 0.84202 0.17137 0.0
C225 C 0.55659 0.85827 0.29671 0.0
H226 H 0.5475 0.86461 0.32435 0.0
H227 H 0.5737 0.8684 0.3091 0.0
H228 H 0.55127 0.84206 0.3171 0.0
O229 O 0.52046 0.89203 0.20729 0.0
O230 O 0.5082 0.87865 0.10043 0.0
H231 H 0.52188 0.82967 0.02633 0.0
H232 H 0.54178 0.82198 0.04092 0.0
C233 C 0.53881 0.83551 0.03918 0.0
H234 H 0.54861 0.84635 -0.00392 0.0
H235 H 0.4945 0.8528 0.97122 0.0
O236 O 0.55692 0.90349 0.31357 0.0
C237 C 0.50554 0.88439 0.16171 0.0
Co238 Co 0.65215 0.55363 0.73152 0.0
Co239 Co 0.65346 0.53743 0.57956 0.0
C240 C 0.64197 0.57158 0.6069 0.0
O241 O 0.64498 0.57214 0.67379 0.0
O242 O 0.64437 0.55874 0.56746 0.0
C243 C 0.66328 0.57727 0.86962 0.0
O244 O 0.67606 0.59547 0.83869 0.0
C245 C 0.66694 0.5442 0.43204 0.0
C246 C 0.65171 0.5114 0.39113 0.0
C247 C 0.66274 0.5325 0.36995 0.0
N248 N 0.65849 0.53066 0.48684 0.0
N249 N 0.6499 0.51107 0.46233 0.0
C250 C 0.67663 0.56775 0.43858 0.0
H251 H 0.67748 0.57256 0.49489 0.0
H252 H 0.69302 0.5757 0.41719 0.0
H253 H 0.66731 0.57316 0.407 0.0
C254 C 0.6956 0.55887 0.73542 0.0
N255 N 0.6776 0.55463 0.70113 0.0
N256 N 0.67815 0.54803 0.63645 0.0
C257 C 0.6966 0.54821 0.62709 0.0
C258 C 0.70826 0.5551 0.68948 0.0
C259 C 0.70015 0.56545 0.81168 0.0
H260 H 0.68655 0.55433 0.84514 0.0
H261 H 0.70229 0.58155 0.81743 0.0
H262 H 0.71481 0.56592 0.8308 0.0
O263 O 0.62855 0.52393 0.72816 0.0
O264 O 0.62981 0.51134 0.62218 0.0
H265 H 0.6885 0.52365 0.55026 0.0
H266 H 0.7166 0.53899 0.5697 0.0
C267 C 0.70185 0.53975 0.56245 0.0
H268 H 0.70388 0.55016 0.51649 0.0
H269 H 0.6415 0.4975 0.49352 0.0
O270 O 0.65346 0.56043 0.83302 0.0
C271 C 0.62151 0.50879 0.68355 0.0
Co272 Co 0.09702 0.65247 0.23745 0.0
Co273 Co 0.11461 0.65501 0.08473 0.0
C274 C 0.0689 0.64282 0.1128 0.0
O275 O 0.07139 0.6454 0.17981 0.0
O276 O 0.08416 0.64565 0.07264 0.0
C277 C 0.08429 0.66327 0.37477 0.0
O278 O 0.07926 0.67625 0.34295 0.0
C279 C 0.12127 0.66881 0.93731 0.0
C280 C 0.14 0.65476 0.89696 0.0
C281 C 0.12929 0.66513 0.87547 0.0
N282 N 0.12668 0.66067 0.99229 0.0
N283 N 0.13838 0.65281 0.96812 0.0
C284 C 0.10665 0.67764 0.94332 0.0
H285 H 0.0919 0.66761 0.91274 0.0
H286 H 0.10282 0.67869 -0.00038 0.0
H287 H 0.11435 0.69385 0.92049 0.0
C288 C 0.13489 0.69605 0.2437 0.0
N289 N 0.12129 0.67822 0.2084 0.0
N290 N 0.12836 0.67938 0.1432 0.0
C291 C 0.14636 0.69812 0.13447 0.0
C292 C 0.15103 0.70928 0.1978 0.0
C293 C 0.13325 0.69983 0.32101 0.0
H294 H 0.11987 0.70281 0.32884 0.0
H295 H 0.14789 0.7138 0.34123 0.0
H296 H 0.13009 0.68559 0.35211 0.0
O297 O 0.10349 0.62917 0.23218 0.0
O298 O 0.11728 0.63123 0.12549 0.0
H299 H 0.17485 0.71954 0.07609 0.0
H300 H 0.15087 0.70559 0.02382 0.0
C301 C 0.15987 0.70422 0.06916 0.0
H302 H 0.16366 0.6916 0.05626 0.0
H303 H 0.14396 0.64478 -0.00053 0.0
O304 O 0.09122 0.65324 0.33893 0.0
C305 C 0.11169 0.62256 0.18642 0.0
Co306 Co 0.4446 0.09924 0.72716 0.0
Co307 Co 0.45935 0.1162 0.57374 0.0
C308 C 0.42567 0.07073 0.60373 0.0
O309 O 0.42586 0.07349 0.67063 0.0
O310 O 0.43799 0.08579 0.56272 0.0
C311 C 0.42085 0.08662 0.86365 0.0
O312 O 0.40303 0.08195 0.83121 0.0
C313 C 0.45177 0.12276 0.42687 0.0
C314 C 0.48435 0.14059 0.38424 0.0
C315 C 0.46315 0.13039 0.36428 0.0
N316 N 0.46559 0.12793 0.48086 0.0
N317 N 0.48505 0.13907 0.45535 0.0
C318 C 0.42827 0.10865 0.43446 0.0
H319 H 0.4237 0.10502 0.49108 0.0
H320 H 0.41999 0.11667 0.41225 0.0
H321 H 0.42302 0.09377 0.40411 0.0
C322 C 0.43921 0.13735 0.73192 0.0
N323 N 0.44324 0.12353 0.6972 0.0
N324 N 0.4491 0.13037 0.63175 0.0
C325 C 0.44859 0.14847 0.62231 0.0
C326 C 0.44228 0.15346 0.68543 0.0
C327 C 0.43349 0.13572 0.80898 0.0
H328 H 0.44449 0.1326 0.84081 0.0
H329 H 0.41714 0.1223 0.81631 0.0
H330 H 0.43398 0.1503 0.82881 0.0
O331 O 0.47431 0.10546 0.72173 0.0
O332 O 0.48574 0.11872 0.61421 0.0
H333 H 0.47227 0.16485 0.54272 0.0
H334 H 0.45665 0.1772 0.5635 0.0
C335 C 0.45617 0.16182 0.55659 0.0
H336 H 0.44538 0.15305 0.51187 0.0
H337 H 0.49879 0.14435 0.48575 0.0
O338 O 0.43794 0.09349 0.82857 0.0
C339 C 0.48897 0.11335 0.67534 0.0
Co340 Co 0.34425 0.44613 0.22928 0.0
Co341 Co 0.3423 0.46018 0.07378 0.0
C342 C 0.3549 0.42736 0.10727 0.0
O343 O 0.35172 0.42736 0.17382 0.0
O344 O 0.35216 0.43953 0.06564 0.0
C345 C 0.32913 0.42135 0.36046 0.0
O346 O 0.31418 0.40606 0.32231 0.0
C347 C 0.32927 0.45047 0.927 0.0
C348 C 0.33758 0.48149 0.8803 0.0
C349 C 0.32975 0.4603 0.86378 0.0
N350 N 0.33655 0.46505 0.979 0.0
N351 N 0.34127 0.48358 0.951 0.0
C352 C 0.32145 0.42734 0.93775 0.0
H353 H 0.31679 0.42276 -0.00605 0.0
H354 H 0.30768 0.41773 0.90244 0.0
H355 H 0.33417 0.42389 0.92328 0.0
C356 C 0.30093 0.44159 0.23169 0.0
N357 N 0.31865 0.44482 0.19772 0.0
N358 N 0.31757 0.44962 0.13091 0.0
C359 C 0.29883 0.44871 0.11957 0.0
C360 C 0.28765 0.4436 0.18313 0.0
C361 C 0.29823 0.44032 0.31074 0.0
H362 H 0.31386 0.44899 0.3375 0.0
H363 H 0.28995 0.42344 0.32723 0.0
H364 H 0.28843 0.44728 0.32807 0.0
O365 O 0.36749 0.4759 0.22318 0.0
O366 O 0.36576 0.487 0.11459 0.0
H367 H 0.30207 0.46995 0.0356 0.0
H368 H 0.27506 0.44869 0.04961 0.0
C369 C 0.29197 0.45292 0.0493 0.0
H370 H 0.2941 0.4434 0.00764 0.0
H371 H 0.34773 0.49775 0.97956 0.0
O372 O 0.34264 0.43854 0.33077 0.0
C373 C 0.37419 0.49044 0.17622 0.0
Co374 Co 0.89552 0.34231 0.72051 0.0
Co375 Co 0.88061 0.34473 0.56971 0.0
C376 C 0.92592 0.35522 0.60435 0.0
O377 O 0.9226 0.35082 0.6703 0.0
O378 O 0.91116 0.35363 0.56391 0.0
C379 C 0.91018 0.33604 0.86222 0.0
O380 O 0.92936 0.34165 0.83963 0.0
C381 C 0.87685 0.33108 0.42674 0.0
C382 C 0.8595 0.34488 0.3732 0.0
C383 C 0.86978 0.33344 0.36123 0.0
N384 N 0.87138 0.34094 0.47517 0.0
N385 N 0.8608 0.34901 0.4434 0.0
C386 C 0.88805 0.31906 0.44416 0.0
H387 H 0.8846 0.31311 0.49962 0.0
H388 H 0.88319 0.30557 0.40693 0.0
H389 H 0.90541 0.32976 0.43936 0.0
C390 C 0.85926 0.29816 0.70852 0.0
N391 N 0.87243 0.31749 0.68109 0.0
N392 N 0.86524 0.3189 0.61851 0.0
C393 C 0.84707 0.30071 0.60457 0.0
C394 C 0.84269 0.28698 0.66139 0.0
C395 C 0.86194 0.29058 0.77955 0.0
H396 H 0.879 0.29676 0.79087 0.0
H397 H 0.85339 0.27297 0.7817 0.0
H398 H 0.85517 0.29634 0.82073 0.0
O399 O 0.88945 0.36625 0.72164 0.0
O400 O 0.87728 0.3673 0.61449 0.0
H401 H 0.83265 0.31217 0.5306 0.0
H402 H 0.8168 0.28409 0.55024 0.0
C403 C 0.83317 0.29745 0.54162 0.0
H404 H 0.83996 0.29387 0.49442 0.0
H405 H 0.85507 0.35784 0.46915 0.0
O406 O 0.8966 0.33618 0.82034 0.0
C407 C 0.88211 0.37433 0.67768 0.0
H408 H 0.03189 0.40163 0.31378 0.0
H409 H 0.96336 0.36532 0.67272 0.0
H410 H 0.05963 0.41913 0.52327 0.0
H411 H 0.93719 0.36281 0.46439 0.0
H412 H -0.00138 0.37987 0.61861 0.0
H413 H 0.99676 0.38175 0.36833 0.0
C414 C 0.03064 0.40113 0.37119 0.0
C415 C 0.04875 0.41223 0.41391 0.0
C416 C 0.98507 0.37595 0.58488 0.0
C417 C 0.00859 0.38953 0.47669 0.0
C418 C 0.96495 0.36762 0.61569 0.0
C419 C 0.94724 0.36284 0.57318 0.0
C420 C 0.98742 0.37935 0.51105 0.0
C421 C 0.95029 0.36618 0.49947 0.0
C422 C 0.01057 0.38984 0.40231 0.0
C423 C 0.04612 0.41096 0.48814 0.0
N424 N 0.96995 0.37424 0.47089 0.0
N425 N 0.02642 0.39991 0.51715 0.0
H426 H 0.64065 0.06016 0.01429 0.0
H427 H 0.57549 0.9356 0.94677 0.0
H428 H 0.62915 0.03212 0.80516 0.0
H429 H 0.59475 0.96343 0.15547 0.0
H430 H 0.59662 0.97063 0.89404 0.0
H431 H 0.62564 0.02497 0.06668 0.0
C432 C 0.63516 0.04663 0.97925 0.0
C433 C 0.63607 0.04916 0.90504 0.0
C434 C 0.59641 0.96908 0.95133 0.0
C435 C 0.61859 0.00862 0.96508 0.0
C436 C 0.58431 0.94904 0.98163 0.0
C437 C 0.58321 0.94652 0.05585 0.0
C438 C 0.60736 0.98687 -0.00458 0.0
C439 C 0.59506 0.96459 0.09807 0.0
C440 C 0.62657 0.02649 0.00935 0.0
C441 C 0.62872 0.03096 0.86256 0.0
N442 N 0.60648 0.98403 0.06726 0.0
N443 N 0.62009 0.01144 0.89321 0.0
H444 H 0.63849 0.57763 0.46519 0.0
H445 H 0.57686 0.64107 0.52584 0.0
H446 H 0.6287 0.59676 0.6724 0.0
H447 H 0.59477 0.62997 0.31838 0.0
H448 H 0.59706 0.62631 0.58024 0.0
H449 H 0.62394 0.59798 0.41062 0.0
C450 C 0.63344 0.58624 0.49935 0.0
C451 C 0.63472 0.58534 0.57369 0.0
C452 C 0.59675 0.62726 0.52284 0.0
C453 C 0.61781 0.60862 0.51113 0.0
C454 C 0.58518 0.63569 0.49159 0.0
C455 C 0.58398 0.63666 0.41724 0.0
C456 C 0.60707 0.61951 0.47961 0.0
C457 C 0.59518 0.62949 0.37584 0.0
C458 C 0.62513 0.5979 0.46799 0.0
C459 C 0.62797 0.59693 0.61495 0.0
N460 N 0.60609 0.62103 0.40759 0.0
N461 N 0.61962 0.60793 0.58312 0.0
H462 H 0.05888 0.63916 0.97138 0.0
H463 H 0.93417 0.57727 0.03821 0.0
H464 H 0.03071 0.62964 0.17983 0.0
H465 H 0.96214 0.59486 0.82918 0.0
H466 H 0.96931 0.59784 0.09068 0.0
H467 H 0.02376 0.62454 0.91833 0.0
C468 C 0.04534 0.63416 0.00612 0.0
C469 C 0.04779 0.63553 0.08037 0.0
C470 C 0.96778 0.59739 0.03336 0.0
C471 C 0.00738 0.61855 0.01959 0.0
C472 C 0.94768 0.58562 0.00321 0.0
C473 C 0.94515 0.5842 0.92901 0.0
C474 C 0.98563 0.6077 0.98915 0.0
C475 C 0.96331 0.59544 0.88659 0.0
C476 C 0.02525 0.62581 0.97564 0.0
C477 C 0.0296 0.62883 0.12242 0.0
N478 N 0.98281 0.60654 0.91728 0.0
N479 N 0.01015 0.62045 0.09145 0.0
H480 H 0.41775 0.06031 0.46301 0.0
H481 H 0.3583 0.93586 0.53326 0.0
H482 H 0.4019 0.03268 0.67295 0.0
H483 H 0.36404 0.96317 0.32493 0.0
H484 H 0.37317 0.97107 0.58541 0.0
H485 H 0.39716 0.02498 0.41166 0.0
C486 C 0.4098 0.04684 0.49843 0.0
C487 C 0.41169 0.0495 0.57254 0.0
C488 C 0.37101 0.96937 0.52836 0.0
C489 C 0.38819 0.00887 0.51377 0.0
C490 C 0.36252 0.94923 0.49841 0.0
C491 C 0.36 0.94651 0.42442 0.0
C492 C 0.37728 0.98705 0.48409 0.0
C493 C 0.36574 0.9645 0.38216 0.0
C494 C 0.39801 0.02664 0.46895 0.0
C495 C 0.40095 0.03141 0.61559 0.0
N496 N 0.3743 0.98403 0.41255 0.0
N497 N 0.38983 0.01184 0.58555 0.0
H498 H 0.40152 0.36736 0.81973 0.0
H499 H 0.36346 0.3989 0.17602 0.0
H500 H 0.4181 0.35664 0.0301 0.0
H501 H 0.36449 0.42491 0.96863 0.0
H502 H 0.37785 0.37792 0.12283 0.0
H503 H 0.3816 0.38271 0.87329 0.0
C504 C 0.40079 0.368 0.87711 0.0
C505 C 0.41167 0.36086 0.9204 0.0
C506 C 0.37469 0.3881 0.08909 0.0
C507 C 0.38893 0.37843 0.98201 0.0
C508 C 0.36647 0.40006 0.11937 0.0
C509 C 0.36259 0.41363 0.07677 0.0
C510 C 0.37888 0.38962 0.01573 0.0
C511 C 0.36688 0.41449 0.0036 0.0
C512 C 0.38948 0.37684 0.90766 0.0
C513 C 0.4101 0.36208 -0.00543 0.0
N514 N 0.37478 0.4027 0.97554 0.0
N515 N 0.39904 0.37079 0.02302 0.0
H516 H 0.11015 0.60614 0.31835 0.0
H517 H 0.11045 0.50345 0.17585 0.0
H518 H 0.11925 0.5972 0.09699 0.0
H519 H 0.12002 0.52193 0.39684 0.0
H520 H 0.11256 0.5371 0.14577 0.0
H521 H 0.11264 0.5748 0.34808 0.0
C522 C 0.11273 0.59762 0.27593 0.0
C523 C 0.11436 0.60424 0.20492 0.0
C524 C 0.11435 0.53387 0.20076 0.0
C525 C 0.11711 0.56823 0.23879 0.0
C526 C 0.11306 0.51461 0.2181 0.0
C527 C 0.11492 0.50979 0.28913 0.0
C528 C 0.11724 0.54833 0.25487 0.0
C529 C 0.11847 0.52496 0.34144 0.0
C530 C 0.11424 0.57977 0.29307 0.0
C531 C 0.11788 0.59266 0.15238 0.0
N532 N 0.11931 0.54347 0.32333 0.0
N533 N 0.11893 0.57508 0.17031 0.0
H534 H 0.52178 0.1213 0.58497 0.0
H535 H 0.59753 0.12036 0.89272 0.0
H536 H 0.50401 0.11123 0.80659 0.0
H537 H 0.60546 0.11131 0.67041 0.0
H538 H 0.56605 0.12283 0.86229 0.0
H539 H 0.55553 0.12349 0.61597 0.0
C540 C 0.52501 0.11969 0.64014 0.0
C541 C 0.50996 0.11589 0.69315 0.0
C542 C 0.57476 0.12037 0.82026 0.0
C543 C 0.54854 0.11848 0.72895 0.0
C544 C 0.59275 0.11903 0.83756 0.0
C545 C 0.60404 0.11543 0.78414 0.0
C546 C 0.56819 0.11836 0.74901 0.0
C547 C 0.59713 0.11387 0.71347 0.0
C548 C 0.54424 0.12087 0.65776 0.0
C549 C 0.51505 0.11396 0.76384 0.0
N550 N 0.57966 0.11533 0.698 0.0
N551 N 0.53389 0.11526 0.77965 0.0
H552 H 0.47373 0.59907 0.39787 0.0
H553 H 0.3999 0.52296 0.08577 0.0
H554 H 0.49304 0.60673 0.1778 0.0
H555 H 0.38994 0.50603 0.30813 0.0
H556 H 0.43128 0.55677 0.11793 0.0
H557 H 0.44 0.5678 0.36484 0.0
C558 C 0.47084 0.59427 0.34261 0.0
C559 C 0.48632 0.60544 0.29066 0.0
C560 C 0.42213 0.54565 0.15958 0.0
C561 C 0.44776 0.56978 0.25253 0.0
C562 C 0.4042 0.5264 0.1413 0.0
C563 C 0.39238 0.51155 0.19425 0.0
C564 C 0.42813 0.55016 0.23133 0.0
C565 C 0.39869 0.51688 0.26542 0.0
C566 C 0.45162 0.5764 0.32384 0.0
C567 C 0.48167 0.5985 0.2198 0.0
N568 N 0.41612 0.53572 0.28183 0.0
N569 N 0.46284 0.58112 0.20285 0.0
H570 H 0.87614 0.47413 0.91275 0.0
H571 H 0.87355 0.39999 0.59405 0.0
H572 H 0.8834 0.49224 0.69147 0.0
H573 H 0.88538 0.39035 0.81211 0.0
H574 H 0.87158 0.43113 0.63091 0.0
H575 H 0.87413 0.44061 0.87844 0.0
C576 C 0.87718 0.47102 0.85704 0.0
C577 C 0.8801 0.48608 0.80497 0.0
C578 C 0.87455 0.42216 0.67072 0.0
C579 C 0.87767 0.44783 0.7655 0.0
C580 C 0.87561 0.40433 0.64976 0.0
C581 C 0.87979 0.39259 0.69996 0.0
C582 C 0.8775 0.42826 0.74251 0.0
C583 C 0.88229 0.39901 0.77147 0.0
C584 C 0.8761 0.45194 0.83756 0.0
C585 C 0.88135 0.48121 0.73354 0.0
N586 N 0.88113 0.41642 0.79062 0.0
N587 N 0.88012 0.46254 0.71598 0.0
H588 H 0.49126 0.88506 0.29495 0.0
H589 H 0.38831 0.88799 0.16858 0.0
H590 H 0.47277 0.87894 0.07423 0.0
H591 H 0.39851 0.87518 0.38487 0.0
H592 H 0.41973 0.88629 0.13211 0.0
H593 H 0.458 0.88314 0.32812 0.0
C594 C 0.48018 0.88328 0.25334 0.0
C595 C 0.48488 0.88226 0.18158 0.0
C596 C 0.41497 0.88371 0.18741 0.0
C597 C 0.44667 0.88015 0.21946 0.0
C598 C 0.39709 0.88474 0.20839 0.0
C599 C 0.3908 0.88182 0.28005 0.0
C600 C 0.42681 0.87999 0.23856 0.0
C601 C 0.40275 0.87757 0.32912 0.0
C602 C 0.46112 0.88209 0.27243 0.0
C603 C 0.46979 0.87978 0.13016 0.0
N604 N 0.42025 0.87695 0.30755 0.0
N605 N 0.45141 0.879 0.15006 0.0
H606 H 0.50309 0.39026 0.68173 0.0
H607 H 0.60525 0.4952 0.81662 0.0
H608 H 0.5215 0.40134 0.90272 0.0
H609 H 0.59602 0.47502 0.59733 0.0
H610 H 0.57409 0.46157 0.84925 0.0
H611 H 0.53644 0.42181 0.64984 0.0
C612 C 0.51418 0.3993 0.72364 0.0
C613 C 0.50942 0.3932 0.79516 0.0
C614 C 0.57896 0.46444 0.79408 0.0
C615 C 0.54766 0.42948 0.75877 0.0
C616 C 0.59671 0.48368 0.77527 0.0
C617 C 0.60321 0.48801 0.70396 0.0
C618 C 0.56741 0.44947 0.74117 0.0
C619 C 0.59158 0.47238 0.65289 0.0
C620 C 0.53327 0.41728 0.70526 0.0
C621 C 0.5245 0.40546 0.84697 0.0
N622 N 0.57413 0.45388 0.67242 0.0
N623 N 0.54287 0.42314 0.8278 0.0
H624 H 0.1162 0.48217 0.71697 0.0
H625 H 0.09334 0.39713 0.02366 0.0
H626 H 0.12772 0.4299 0.68972 0.0
H627 H 0.08199 0.44977 0.04113 0.0
H628 H 0.10305 0.40639 0.89816 0.0
H629 H 0.10204 0.469 0.83476 0.0
C630 C 0.11584 0.46794 0.73605 0.0
C631 C 0.12293 0.45698 0.6933 0.0
C632 C 0.09813 0.41569 0.92935 0.0
C633 C 0.10651 0.44159 0.82828 0.0
C634 C 0.0924 0.41028 0.00058 0.0
C635 C 0.08702 0.42282 0.04257 0.0
C636 C 0.09838 0.43368 0.90062 0.0
C637 C 0.08626 0.43983 0.01063 0.0
C638 C 0.10756 0.46028 0.80314 0.0
C639 C 0.12192 0.43852 0.72038 0.0
N640 N 0.09204 0.44484 0.94185 0.0
N641 N 0.11387 0.43138 0.78642 0.0
H642 H 0.6982 0.09881 0.51961 0.0
H643 H 0.63402 0.11673 0.20825 0.0
H644 H 0.63189 0.08035 0.52984 0.0
H645 H 0.69826 0.12955 0.18144 0.0
H646 H 0.6334 0.10296 0.32669 0.0
H647 H 0.69864 0.10827 0.39399 0.0
C648 C 0.68364 0.09625 0.49495 0.0
C649 C 0.66502 0.08897 0.53508 0.0
C650 C 0.64765 0.10867 0.29499 0.0
C651 C 0.66551 0.1001 0.39278 0.0
C652 C 0.64806 0.11673 0.22762 0.0
C653 C 0.66614 0.12406 0.1849 0.0
C654 C 0.66554 0.10811 0.32037 0.0
C655 C 0.68385 0.12357 0.21223 0.0
C656 C 0.68394 0.10184 0.42358 0.0
C657 C 0.64664 0.08615 0.50094 0.0
N658 N 0.68314 0.11575 0.27852 0.0
N659 N 0.64741 0.09191 0.43207 0.0
H660 H 0.56741 0.69917 0.68811 0.0
H661 H 0.54797 0.63128 0.04288 0.0
H662 H 0.51583 0.6353 0.72045 0.0
H663 H 0.59784 0.69657 0.02514 0.0
H664 H 0.53915 0.63168 0.91844 0.0
H665 H 0.58115 0.69822 0.80642 0.0
C666 C 0.5591 0.68491 0.71978 0.0
C667 C 0.5406 0.66719 0.69422 0.0
C668 C 0.55217 0.64591 0.94121 0.0
C669 C 0.55605 0.66604 0.82921 0.0
C670 C 0.5573 0.64563 0.01218 0.0
C671 C 0.57356 0.66395 0.04415 0.0
C672 C 0.56319 0.66476 0.90188 0.0
C673 C 0.58523 0.68209 0.00211 0.0
C674 C 0.56689 0.68441 0.78734 0.0
C675 C 0.53008 0.64936 0.73824 0.0
N676 N 0.57962 0.68215 0.93305 0.0
N677 N 0.53799 0.64922 0.80334 0.0
H678 H 0.89505 0.59641 0.54268 0.0
H679 H 0.88044 0.51511 0.23293 0.0
H680 H 0.91493 0.54967 0.55555 0.0
H681 H 0.86469 0.56451 0.20538 0.0
H682 H 0.89414 0.5288 0.35092 0.0
H683 H 0.88621 0.58733 0.41672 0.0
C684 C 0.89805 0.58465 0.51852 0.0
C685 C 0.90555 0.57362 0.55942 0.0
C686 C 0.8878 0.53678 0.31918 0.0
C687 C 0.89515 0.56292 0.41681 0.0
C688 C 0.87978 0.52882 0.25206 0.0
C689 C 0.87161 0.53882 0.20932 0.0
C690 C 0.88743 0.55478 0.34432 0.0
C691 C 0.8713 0.55664 0.23625 0.0
C692 C 0.89282 0.57933 0.44697 0.0
C693 C 0.90896 0.55838 0.52598 0.0
N694 N 0.87906 0.56406 0.30235 0.0
N695 N 0.90354 0.55335 0.45693 0.0
H696 H 0.37506 0.88739 0.71102 0.0
H697 H 0.31329 0.89152 0.05326 0.0
H698 H 0.30757 0.8636 0.71073 0.0
H699 H 0.38143 0.92842 0.03016 0.0
H700 H 0.31038 0.88151 0.92805 0.0
H701 H 0.37732 0.90174 0.83003 0.0
C702 C 0.36069 0.88509 0.73644 0.0
C703 C 0.34112 0.87441 0.70132 0.0
C704 C 0.32593 0.89203 0.9502 0.0
C705 C 0.34356 0.89089 0.83692 0.0
C706 C 0.32761 0.89782 0.02159 0.0
C707 C 0.34767 0.91061 0.05243 0.0
C708 C 0.34445 0.89891 0.90977 0.0
C709 C 0.36566 0.9184 0.00881 0.0
C710 C 0.36201 0.89348 0.80392 0.0
C711 C 0.323 0.87202 0.73592 0.0
N712 N 0.36364 0.91217 0.93992 0.0
N713 N 0.32462 0.88013 0.80219 0.0
H714 H 0.39912 0.29784 0.53424 0.0
H715 H 0.48096 0.36473 0.22577 0.0
H716 H 0.44595 0.36438 0.54784 0.0
H717 H 0.43141 0.29973 0.19732 0.0
H718 H 0.46725 0.36457 0.34384 0.0
H719 H 0.40846 0.29817 0.40854 0.0
C720 C 0.41096 0.3126 0.51029 0.0
C721 C 0.42192 0.33107 0.55133 0.0
C722 C 0.45924 0.35032 0.31186 0.0
C723 C 0.43293 0.33148 0.40904 0.0
C724 C 0.46722 0.35037 0.2447 0.0
C725 C 0.45716 0.3323 0.20164 0.0
C726 C 0.44117 0.33197 0.33669 0.0
C727 C 0.43931 0.31415 0.22837 0.0
C728 C 0.41643 0.31274 0.43889 0.0
C729 C 0.43728 0.34973 0.51816 0.0
N730 N 0.43187 0.3144 0.29448 0.0
N731 N 0.44245 0.3494 0.44927 0.0
H732 H 0.54908 0.91812 0.42937 0.0
H733 H 0.56332 0.86547 0.78306 0.0
H734 H 0.59367 0.89556 0.44426 0.0
H735 H 0.51478 0.88219 0.75068 0.0
H736 H 0.57758 0.87956 0.66466 0.0
H737 H 0.54021 0.90953 0.55414 0.0
C738 C 0.55727 0.91167 0.45948 0.0
C739 C 0.572 0.90739 0.42657 0.0
C740 C 0.56387 0.8802 0.68372 0.0
C741 C 0.56154 0.89697 0.56917 0.0
C742 C 0.5558 0.87226 0.75128 0.0
C743 C 0.53801 0.87291 0.77676 0.0
C744 C 0.55405 0.88886 0.64185 0.0
C745 C 0.52845 0.88129 0.73279 0.0
C746 C 0.5521 0.90662 0.53061 0.0
C747 C 0.58226 0.89915 0.46793 0.0
N748 N 0.53664 0.88899 0.66767 0.0
N749 N 0.57661 0.8939 0.53716 0.0
H750 H 0.6314 0.51503 0.27203 0.0
H751 H 0.69454 0.60051 0.96748 0.0
H752 H 0.69526 0.567 0.30117 0.0
H753 H 0.63056 0.54801 0.94771 0.0
H754 H 0.69467 0.59094 0.09286 0.0
H755 H 0.63078 0.52839 0.15414 0.0
C756 C 0.64537 0.52924 0.25337 0.0
C757 C 0.66332 0.54006 0.29671 0.0
C758 C 0.68053 0.58173 0.06118 0.0
C759 C 0.66271 0.55566 0.16159 0.0
C760 C 0.68038 0.58732 0.99002 0.0
C761 C 0.66256 0.57492 0.94741 0.0
C762 C 0.6627 0.56371 0.08925 0.0
C763 C 0.6447 0.55785 0.97868 0.0
C764 C 0.64495 0.537 0.18621 0.0
C765 C 0.68091 0.55849 0.2701 0.0
N766 N 0.6453 0.55267 0.04742 0.0
N767 N 0.68019 0.56573 0.204 0.0
H768 H 0.0922 0.69486 0.47093 0.0
H769 H 0.11604 0.63364 0.77852 0.0
H770 H 0.08094 0.63088 0.45479 0.0
H771 H 0.12643 0.69702 0.80559 0.0
H772 H 0.10183 0.6324 0.66054 0.0
H773 H 0.10207 0.69556 0.59637 0.0
C774 C 0.0913 0.68081 0.49428 0.0
C775 C 0.0859 0.66283 0.45264 0.0
C776 C 0.10711 0.64659 0.69217 0.0
C777 C 0.09747 0.66364 0.5946 0.0
C778 C 0.11542 0.64737 0.75936 0.0
C779 C 0.1222 0.66537 0.80213 0.0
C780 C 0.10571 0.66404 0.66695 0.0
C781 C 0.12087 0.68264 0.77494 0.0
C782 C 0.09713 0.68129 0.5655 0.0
C783 C 0.08522 0.64514 0.48498 0.0
N784 N 0.11279 0.68158 0.70881 0.0
N785 N 0.09111 0.64606 0.55374 0.0
H786 H 0.44747 0.07958 0.94399 0.0
H787 H 0.42875 0.12906 0.29706 0.0
H788 H 0.39884 0.09683 0.95928 0.0
H789 H 0.47967 0.11568 0.26603 0.0
H790 H 0.41495 0.1144 0.17878 0.0
H791 H 0.456 0.08847 0.06873 0.0
C792 C 0.43834 0.08493 0.97424 0.0
C793 C 0.42254 0.08761 0.94153 0.0
C794 C 0.42908 0.11461 0.19814 0.0
C795 C 0.43259 0.09843 0.08403 0.0
C796 C 0.4369 0.12288 0.26565 0.0
C797 C 0.45523 0.12335 0.2915 0.0
C798 C 0.43972 0.10678 0.15669 0.0
C799 C 0.46556 0.11574 0.24792 0.0
C800 C 0.4433 0.09015 0.04535 0.0
C801 C 0.41109 0.09447 0.98293 0.0
N802 N 0.45763 0.10772 0.18288 0.0
N803 N 0.41655 0.09997 0.05215 0.0
H804 H 0.30258 0.45728 0.758 0.0
H805 H 0.36167 0.43552 0.45438 0.0
H806 H 0.35225 0.44342 0.80787 0.0
H807 H 0.2937 0.40789 0.4423 0.0
H808 H 0.36017 0.44178 0.58167 0.0
H809 H 0.30033 0.44299 0.63745 0.0
C810 C 0.31288 0.45112 0.74343 0.0
C811 C 0.32753 0.45136 0.79222 0.0
C812 C 0.34555 0.43401 0.55133 0.0
C813 C 0.32535 0.43549 0.65593 0.0
C814 C 0.3464 0.43039 0.47904 0.0
C815 C 0.32778 0.42111 0.43836 0.0
C816 C 0.32605 0.42898 0.58229 0.0
C817 C 0.30837 0.41494 0.47226 0.0
C818 C 0.31151 0.44287 0.6753 0.0
C819 C 0.34063 0.44329 0.7715 0.0
N820 N 0.30803 0.41942 0.54227 0.0
N821 N 0.33945 0.43594 0.70443 0.0
H822 H 0.90778 0.33834 0.31692 0.0
H823 H 0.87039 0.31865 0.91587 0.0
H824 H 0.84398 0.31798 0.24623 0.0
H825 H 0.93516 0.34013 0.97862 0.0
H826 H 0.8596 0.31203 0.03845 0.0
H827 H 0.91703 0.33317 0.19706 0.0
C828 C 0.89553 0.33215 0.27664 0.0
C829 C 0.87497 0.32826 0.29143 0.0
C830 C 0.87616 0.31797 0.02582 0.0
C831 C 0.88566 0.32302 0.15397 0.0
C832 C 0.88238 0.32168 0.95537 0.0
C833 C 0.90379 0.3301 0.93673 0.0
C834 C 0.89148 0.32317 0.07882 0.0
C835 C 0.91852 0.3338 0.99077 0.0
C836 C 0.90091 0.32943 0.20804 0.0
C837 C 0.85999 0.32115 0.23671 0.0
N838 N 0.91213 0.33062 0.05986 0.0
N839 N 0.86568 0.31887 0.17018 0.0
H840 H 0.18246 0.46741 0.20213 0.0
H841 H 0.25392 0.4133 0.25735 0.0
H842 H 0.16788 0.41829 0.35674 0.0
H843 H 0.27562 0.47244 0.14605 0.0
H844 H 0.22085 0.41285 0.28663 0.0
H845 H 0.21533 0.46752 0.17244 0.0
C846 C 0.18625 0.45661 0.22954 0.0
C847 C 0.17257 0.44271 0.28142 0.0
C848 C 0.23282 0.42589 0.25559 0.0
C849 C 0.20994 0.44272 0.24823 0.0
C850 C 0.25164 0.42614 0.23891 0.0
C851 C 0.26733 0.44281 0.19861 0.0
C852 C 0.22968 0.4424 0.23149 0.0
C853 C 0.26368 0.45906 0.17589 0.0
C854 C 0.20498 0.45671 0.21289 0.0
C855 C 0.17812 0.42916 0.31623 0.0
N856 N 0.2452 0.45843 0.19247 0.0
N857 N 0.19638 0.42941 0.29878 0.0
H858 H 0.82498 0.24979 0.5867 0.0
H859 H 0.71992 0.1941 0.82224 0.0
H860 H 0.81538 0.27955 0.76975 0.0
H861 H 0.74213 0.15782 0.70642 0.0
H862 H 0.75252 0.22668 0.79043 0.0
H863 H 0.79199 0.21673 0.61596 0.0
C864 C 0.81584 0.24929 0.63284 0.0
C865 C 0.82277 0.26716 0.67631 0.0
C866 C 0.7503 0.21157 0.77226 0.0
C867 C 0.78532 0.22992 0.70946 0.0
C868 C 0.7318 0.19299 0.79084 0.0
C869 C 0.72857 0.17326 0.76798 0.0
C870 C 0.76549 0.21044 0.72935 0.0
C871 C 0.7441 0.17277 0.72517 0.0
C872 C 0.79717 0.23052 0.64965 0.0
C873 C 0.81053 0.26594 0.73546 0.0
N874 N 0.76192 0.19112 0.70698 0.0
N875 N 0.79233 0.24765 0.75019 0.0
H876 H 0.51988 0.80098 0.14324 0.0
H877 H 0.579 0.74986 0.35384 0.0
H878 H 0.58136 0.83868 0.24035 0.0
H879 H 0.52819 0.71484 0.20514 0.0
H880 H 0.57835 0.78236 0.32248 0.0
H881 H 0.52092 0.7688 0.17398 0.0
C882 C 0.53371 0.80245 0.17028 0.0
C883 C 0.55071 0.82245 0.1884 0.0
C884 C 0.5674 0.76759 0.29652 0.0
C885 C 0.55178 0.7858 0.22548 0.0
C886 C 0.56775 0.74913 0.31452 0.0
C887 C 0.55377 0.72991 0.28135 0.0
C888 C 0.55272 0.76661 0.2458 0.0
C889 C 0.53935 0.72953 0.23116 0.0
C890 C 0.53425 0.78411 0.18822 0.0
C891 C 0.56796 0.8235 0.22541 0.0
N892 N 0.53915 0.74762 0.21495 0.0
N893 N 0.56805 0.80542 0.24292 0.0
H894 H 0.7996 0.52184 0.84492 0.0
H895 H 0.74747 0.57945 0.63146 0.0
H896 H 0.83692 0.58276 0.74393 0.0
H897 H 0.71333 0.53017 0.78586 0.0
H898 H 0.78012 0.57895 0.66195 0.0
H899 H 0.7673 0.52271 0.81472 0.0
C900 C 0.80097 0.53552 0.81712 0.0
C901 C 0.8209 0.55241 0.79778 0.0
C902 C 0.7655 0.5683 0.68932 0.0
C903 C 0.78409 0.55326 0.76129 0.0
C904 C 0.74696 0.56856 0.67181 0.0
C905 C 0.72795 0.55496 0.70683 0.0
C906 C 0.76481 0.5541 0.74141 0.0
C907 C 0.72785 0.54102 0.75836 0.0
C908 C 0.78256 0.53595 0.7995 0.0
C909 C 0.8218 0.56944 0.75983 0.0
N910 N 0.74602 0.54089 0.77405 0.0
N911 N 0.80364 0.56943 0.74263 0.0
H912 H 0.27712 0.80146 0.33685 0.0
H913 H 0.16307 0.7493 0.15303 0.0
H914 H 0.24844 0.83828 0.27203 0.0
H915 H 0.18311 0.71372 0.28298 0.0
H916 H 0.19575 0.78215 0.18543 0.0
H917 H 0.244 0.76892 0.30832 0.0
C918 C 0.26372 0.80263 0.31735 0.0
C919 C 0.26536 0.82248 0.30711 0.0
C920 C 0.19296 0.76717 0.20702 0.0
C921 C 0.22772 0.78548 0.2727 0.0
C922 C 0.17444 0.74852 0.18837 0.0
C923 C 0.17059 0.72905 0.21589 0.0
C924 C 0.20776 0.76612 0.25255 0.0
C925 C 0.18564 0.7286 0.26119 0.0
C926 C 0.24489 0.7841 0.30072 0.0
C927 C 0.24775 0.82321 0.28028 0.0
N928 N 0.20365 0.74689 0.27799 0.0
N929 N 0.22965 0.80496 0.26354 0.0
H930 H 0.47431 0.27789 0.83755 0.0
H931 H 0.41659 0.16714 0.63037 0.0
H932 H 0.41284 0.25319 0.73942 0.0
H933 H 0.468 0.18436 0.77783 0.0
H934 H 0.41665 0.20008 0.66023 0.0
H935 H 0.47393 0.24497 0.80773 0.0
C936 C 0.46062 0.26539 0.81047 0.0
C937 C 0.44343 0.26804 0.79184 0.0
C938 C 0.42786 0.19662 0.68623 0.0
C939 C 0.4431 0.23064 0.75583 0.0
C940 C 0.42784 0.17793 0.66909 0.0
C941 C 0.44217 0.17315 0.70239 0.0
C942 C 0.44253 0.21065 0.73625 0.0
C943 C 0.45659 0.18752 0.75176 0.0
C944 C 0.46045 0.24668 0.79306 0.0
C945 C 0.42636 0.25167 0.75481 0.0
N946 N 0.45644 0.20568 0.76719 0.0
N947 N 0.42663 0.23364 0.73785 0.0
loop_
_geom_bond_atom_site_label_1
_geom_bond_atom_site_label_2
_geom_bond_distance
_geom_bond_site_symmetry_2
_ccdc_geom_bond_type
Co0 O3 1.970 . S
Co0 N17 1.989 . S
Co0 O25 1.967 . S
Co0 O32 1.920 . S
Co1 O4 1.966 . S
Co1 N10 2.022 . S
Co1 N18 1.993 . S
Co1 O26 1.941 . S
C2 O3 1.258 . S
C2 O4 1.263 . S
O3 Co0 1.970 . S
O3 C2 1.258 . S
O4 Co1 1.966 . S
O4 C2 1.263 . S
C5 O6 1.235 . S
C5 O32 1.289 . S
O6 C5 1.235 . S
C7 C9 1.400 . S
C7 N10 1.351 . S
C7 C12 1.501 . S
C8 C9 1.387 . S
C8 N11 1.341 . S
C9 C7 1.400 . S
C9 C8 1.387 . S
N10 Co1 2.022 . S
N10 C7 1.351 . S
N10 N11 1.365 . S
N11 C8 1.341 . S
N11 N10 1.365 . S
N11 H31 0.862 . S
C12 C7 1.501 . S
C12 H13 0.961 . S
C12 H14 0.961 . S
C12 H15 0.960 . S
H13 C12 0.961 . S
H14 C12 0.961 . S
H15 C12 0.960 . S
C16 N17 1.342 . S
C16 C20 1.401 . S
C16 C21 1.499 . S
N17 Co0 1.989 . S
N17 C16 1.342 . S
N17 N18 1.388 . S
N18 Co1 1.993 . S
N18 N17 1.388 . S
N18 C19 1.346 . S
C19 N18 1.346 . S
C19 C20 1.396 . S
C19 C29 1.510 . S
C20 C16 1.401 . S
C20 C19 1.396 . S
C21 C16 1.499 . S
C21 H22 0.959 . S
C21 H23 0.960 . S
C21 H24 0.961 . S
H22 C21 0.959 . S
H23 C21 0.960 . S
H24 C21 0.961 . S
O25 Co0 1.967 . S
O25 C33 1.258 . S
O26 Co1 1.941 . S
O26 C33 1.266 . S
H27 C29 0.959 . S
H28 C29 0.961 . S
C29 C19 1.510 . S
C29 H27 0.959 . S
C29 H28 0.961 . S
C29 H30 0.960 . S
H30 C29 0.960 . S
H31 N11 0.862 . S
O32 Co0 1.920 . S
O32 C5 1.289 . S
C33 O25 1.258 . S
C33 O26 1.266 . S
Co34 O37 1.970 . S
Co34 N51 1.989 . S
Co34 O59 1.967 . S
Co34 O66 1.920 . S
Co35 O38 1.966 . S
Co35 N44 2.022 1_556 S
Co35 N52 1.993 . S
Co35 O60 1.941 . S
C36 O37 1.258 . S
C36 O38 1.263 . S
O37 Co34 1.970 . S
O37 C36 1.258 . S
O38 Co35 1.966 . S
O38 C36 1.263 . S
C39 O40 1.235 . S
C39 O66 1.289 . S
O40 C39 1.235 . S
C41 C43 1.400 . S
C41 N44 1.351 . S
C41 C46 1.501 . S
C42 C43 1.387 . S
C42 N45 1.341 . S
C43 C41 1.400 . S
C43 C42 1.387 . S
N44 Co35 2.022 1_554 S
N44 C41 1.351 . S
N44 N45 1.365 . S
N45 C42 1.341 . S
N45 N44 1.365 . S
N45 H65 0.862 . S
C46 C41 1.501 . S
C46 H47 0.961 . S
C46 H48 0.961 . S
C46 H49 0.960 . S
H47 C46 0.961 . S
H48 C46 0.961 . S
H49 C46 0.960 . S
C50 N51 1.342 . S
C50 C54 1.401 . S
C50 C55 1.499 . S
N51 Co34 1.989 . S
N51 C50 1.342 . S
N51 N52 1.388 . S
N52 Co35 1.993 . S
N52 N51 1.388 . S
N52 C53 1.346 . S
C53 N52 1.346 . S
C53 C54 1.396 . S
C53 C63 1.510 . S
C54 C50 1.401 . S
C54 C53 1.396 . S
C55 C50 1.499 . S
C55 H56 0.959 . S
C55 H57 0.960 . S
C55 H58 0.961 . S
H56 C55 0.959 . S
H57 C55 0.960 . S
H58 C55 0.961 . S
O59 Co34 1.967 . S
O59 C67 1.258 . S
O60 Co35 1.941 . S
O60 C67 1.266 . S
H61 C63 0.959 . S
H62 C63 0.961 . S
C63 C53 1.510 . S
C63 H61 0.959 . S
C63 H62 0.961 . S
C63 H64 0.960 1_556 S
H64 C63 0.960 1_554 S
H65 N45 0.862 . S
O66 Co34 1.920 . S
O66 C39 1.289 . S
C67 O59 1.258 . S
C67 O60 1.266 . S
Co68 O71 1.970 . S
Co68 N85 1.989 . S
Co68 O93 1.967 . S
Co68 O100 1.920 . S
Co69 O72 1.966 . S
Co69 N78 2.022 . S
Co69 N86 1.993 . S
Co69 O94 1.941 . S
C70 O71 1.258 . S
C70 O72 1.263 . S
O71 Co68 1.970 . S
O71 C70 1.258 . S
O72 Co69 1.966 . S
O72 C70 1.263 . S
C73 O74 1.235 . S
C73 O100 1.289 . S
O74 C73 1.235 . S
C75 C77 1.400 . S
C75 N78 1.351 . S
C75 C80 1.501 . S
C76 C77 1.387 . S
C76 N79 1.341 . S
C77 C75 1.400 . S
C77 C76 1.387 . S
N78 Co69 2.022 . S
N78 C75 1.351 . S
N78 N79 1.365 . S
N79 C76 1.341 . S
N79 N78 1.365 . S
N79 H99 0.862 . S
C80 C75 1.501 . S
C80 H81 0.961 . S
C80 H82 0.961 . S
C80 H83 0.960 . S
H81 C80 0.961 . S
H82 C80 0.961 . S
H83 C80 0.960 . S
C84 N85 1.342 . S
C84 C88 1.401 . S
C84 C89 1.499 . S
N85 Co68 1.989 . S
N85 C84 1.342 . S
N85 N86 1.388 . S
N86 Co69 1.993 . S
N86 N85 1.388 . S
N86 C87 1.346 . S
C87 N86 1.346 . S
C87 C88 1.396 . S
C87 C97 1.510 . S
C88 C84 1.401 . S
C88 C87 1.396 . S
C89 C84 1.499 . S
C89 H90 0.959 . S
C89 H91 0.960 . S
C89 H92 0.961 . S
H90 C89 0.959 . S
H91 C89 0.960 . S
H92 C89 0.961 . S
O93 Co68 1.967 . S
O93 C101 1.258 . S
O94 Co69 1.941 . S
O94 C101 1.266 . S
H95 C97 0.959 . S
H96 C97 0.961 . S
C97 C87 1.510 . S
C97 H95 0.959 . S
C97 H96 0.961 . S
C97 H98 0.960 . S
H98 C97 0.960 . S
H99 N79 0.862 . S
O100 Co68 1.920 . S
O100 C73 1.289 . S
C101 O93 1.258 . S
C101 O94 1.266 . S
Co102 O105 1.970 . S
Co102 N119 1.989 . S
Co102 O127 1.967 . S
Co102 O134 1.920 . S
Co103 O106 1.966 . S
Co103 N112 2.022 1_556 S
Co103 N120 1.993 . S
Co103 O128 1.941 . S
C104 O105 1.258 . S
C104 O106 1.263 . S
O105 Co102 1.970 . S
O105 C104 1.258 . S
O106 Co103 1.966 . S
O106 C104 1.263 . S
C107 O108 1.235 . S
C107 O134 1.289 . S
O108 C107 1.235 . S
C109 C111 1.400 . S
C109 N112 1.351 . S
C109 C114 1.501 . S
C110 C111 1.387 . S
C110 N113 1.341 . S
C111 C109 1.400 . S
C111 C110 1.387 . S
N112 Co103 2.022 1_554 S
N112 C109 1.351 . S
N112 N113 1.365 . S
N113 C110 1.341 . S
N113 N112 1.365 . S
N113 H133 0.862 . S
C114 C109 1.501 . S
C114 H115 0.961 . S
C114 H116 0.961 . S
C114 H117 0.960 . S
H115 C114 0.961 . S
H116 C114 0.961 . S
H117 C114 0.960 . S
C118 N119 1.342 . S
C118 C122 1.401 . S
C118 C123 1.499 . S
N119 Co102 1.989 . S
N119 C118 1.342 . S
N119 N120 1.388 . S
N120 Co103 1.993 . S
N120 N119 1.388 . S
N120 C121 1.346 . S
C121 N120 1.346 . S
C121 C122 1.396 . S
C121 C131 1.510 . S
C122 C118 1.401 . S
C122 C121 1.396 . S
C123 C118 1.499 . S
C123 H124 0.959 . S
C123 H125 0.960 . S
C123 H126 0.961 . S
H124 C123 0.959 . S
H125 C123 0.960 . S
H126 C123 0.961 . S
O127 Co102 1.967 . S
O127 C135 1.258 . S
O128 Co103 1.941 . S
O128 C135 1.266 . S
H129 C131 0.959 . S
H130 C131 0.961 . S
C131 C121 1.510 . S
C131 H129 0.959 . S
C131 H130 0.961 . S
C131 H132 0.960 1_556 S
H132 C131 0.960 1_554 S
H133 N113 0.862 . S
O134 Co102 1.920 . S
O134 C107 1.289 . S
C135 O127 1.258 . S
C135 O128 1.266 . S
Co136 O139 1.970 . S
Co136 N153 1.989 . S
Co136 O161 1.967 . S
Co136 O168 1.920 . S
Co137 O140 1.966 . S
Co137 N146 2.022 . S
Co137 N154 1.993 . S
Co137 O162 1.941 . S
C138 O139 1.258 . S
C138 O140 1.263 . S
O139 Co136 1.970 . S
O139 C138 1.258 . S
O140 Co137 1.966 . S
O140 C138 1.263 . S
C141 O142 1.235 . S
C141 O168 1.289 . S
O142 C141 1.235 . S
C143 C145 1.400 . S
C143 N146 1.351 . S
C143 C148 1.501 . S
C144 C145 1.387 . S
C144 N147 1.341 . S
C145 C143 1.400 . S
C145 C144 1.387 . S
N146 Co137 2.022 . S
N146 C143 1.351 . S
N146 N147 1.365 . S
N147 C144 1.341 . S
N147 N146 1.365 . S
N147 H167 0.862 . S
C148 C143 1.501 . S
C148 H149 0.961 . S
C148 H150 0.961 . S
C148 H151 0.960 . S
H149 C148 0.961 . S
H150 C148 0.961 . S
H151 C148 0.960 . S
C152 N153 1.342 . S
C152 C156 1.401 . S
C152 C157 1.499 . S
N153 Co136 1.989 . S
N153 C152 1.342 . S
N153 N154 1.388 . S
N154 Co137 1.993 . S
N154 N153 1.388 . S
N154 C155 1.346 . S
C155 N154 1.346 . S
C155 C156 1.396 . S
C155 C165 1.510 . S
C156 C152 1.401 . S
C156 C155 1.396 . S
C157 C152 1.499 . S
C157 H158 0.959 . S
C157 H159 0.960 . S
C157 H160 0.961 . S
H158 C157 0.959 . S
H159 C157 0.960 . S
H160 C157 0.961 . S
O161 Co136 1.967 . S
O161 C169 1.258 . S
O162 Co137 1.941 . S
O162 C169 1.266 . S
H163 C165 0.959 . S
H164 C165 0.961 . S
C165 C155 1.510 . S
C165 H163 0.959 . S
C165 H164 0.961 . S
C165 H166 0.960 . S
H166 C165 0.960 . S
H167 N147 0.862 . S
O168 Co136 1.920 . S
O168 C141 1.289 . S
C169 O161 1.258 . S
C169 O162 1.266 . S
Co170 O173 1.970 . S
Co170 N187 1.989 . S
Co170 O195 1.967 . S
Co170 O202 1.920 . S
Co171 O174 1.966 . S
Co171 N180 2.022 1_556 S
Co171 N188 1.993 . S
Co171 O196 1.941 . S
C172 O173 1.258 . S
C172 O174 1.263 . S
O173 Co170 1.970 . S
O173 C172 1.258 . S
O174 Co171 1.966 . S
O174 C172 1.263 . S
C175 O176 1.235 . S
C175 O202 1.289 . S
O176 C175 1.235 . S
C177 C179 1.400 . S
C177 N180 1.351 . S
C177 C182 1.501 . S
C178 C179 1.387 . S
C178 N181 1.341 . S
C179 C177 1.400 . S
C179 C178 1.387 . S
N180 Co171 2.022 1_554 S
N180 C177 1.351 . S
N180 N181 1.365 . S
N181 C178 1.341 . S
N181 N180 1.365 . S
N181 H201 0.862 . S
C182 C177 1.501 . S
C182 H183 0.961 . S
C182 H184 0.961 . S
C182 H185 0.960 . S
H183 C182 0.961 . S
H184 C182 0.961 . S
H185 C182 0.960 . S
C186 N187 1.342 . S
C186 C190 1.401 . S
C186 C191 1.499 . S
N187 Co170 1.989 . S
N187 C186 1.342 . S
N187 N188 1.388 . S
N188 Co171 1.993 . S
N188 N187 1.388 . S
N188 C189 1.346 . S
C189 N188 1.346 . S
C189 C190 1.396 . S
C189 C199 1.510 . S
C190 C186 1.401 . S
C190 C189 1.396 . S
C191 C186 1.499 . S
C191 H192 0.959 . S
C191 H193 0.960 . S
C191 H194 0.961 . S
H192 C191 0.959 . S
H193 C191 0.960 . S
H194 C191 0.961 . S
O195 Co170 1.967 . S
O195 C203 1.258 . S
O196 Co171 1.941 . S
O196 C203 1.266 . S
H197 C199 0.959 . S
H198 C199 0.961 . S
C199 C189 1.510 . S
C199 H197 0.959 . S
C199 H198 0.961 . S
C199 H200 0.960 1_556 S
H200 C199 0.960 1_554 S
H201 N181 0.862 . S
O202 Co170 1.920 . S
O202 C175 1.289 . S
C203 O195 1.258 . S
C203 O196 1.266 . S
Co204 O207 1.970 . S
Co204 N221 1.989 . S
Co204 O229 1.967 . S
Co204 O236 1.920 . S
Co205 O208 1.966 . S
Co205 N214 2.022 1_554 S
Co205 N222 1.993 . S
Co205 O230 1.941 . S
C206 O207 1.258 . S
C206 O208 1.263 . S
O207 Co204 1.970 . S
O207 C206 1.258 . S
O208 Co205 1.966 . S
O208 C206 1.263 . S
C209 O210 1.235 . S
C209 O236 1.289 . S
O210 C209 1.235 . S
C211 C213 1.400 . S
C211 N214 1.351 . S
C211 C216 1.501 . S
C212 C213 1.387 . S
C212 N215 1.341 . S
C213 C211 1.400 . S
C213 C212 1.387 . S
N214 Co205 2.022 1_556 S
N214 C211 1.351 . S
N214 N215 1.365 . S
N215 C212 1.341 . S
N215 N214 1.365 . S
N215 H235 0.862 . S
C216 C211 1.501 . S
C216 H217 0.961 . S
C216 H218 0.961 . S
C216 H219 0.960 . S
H217 C216 0.961 . S
H218 C216 0.961 . S
H219 C216 0.960 . S
C220 N221 1.342 . S
C220 C224 1.401 . S
C220 C225 1.499 . S
N221 Co204 1.989 . S
N221 C220 1.342 . S
N221 N222 1.388 . S
N222 Co205 1.993 . S
N222 N221 1.388 . S
N222 C223 1.346 . S
C223 N222 1.346 . S
C223 C224 1.396 . S
C223 C233 1.510 . S
C224 C220 1.401 . S
C224 C223 1.396 . S
C225 C220 1.499 . S
C225 H226 0.959 . S
C225 H227 0.960 . S
C225 H228 0.961 . S
H226 C225 0.959 . S
H227 C225 0.960 . S
H228 C225 0.961 . S
O229 Co204 1.967 . S
O229 C237 1.258 . S
O230 Co205 1.941 . S
O230 C237 1.266 . S
H231 C233 0.959 . S
H232 C233 0.961 . S
C233 C223 1.510 . S
C233 H231 0.959 . S
C233 H232 0.961 . S
C233 H234 0.960 1_554 S
H234 C233 0.960 1_556 S
H235 N215 0.862 . S
O236 Co204 1.920 . S
O236 C209 1.289 . S
C237 O229 1.258 . S
C237 O230 1.266 . S
Co238 O241 1.970 . S
Co238 N255 1.989 . S
Co238 O263 1.967 . S
Co238 O270 1.920 . S
Co239 O242 1.966 . S
Co239 N248 2.022 . S
Co239 N256 1.993 . S
Co239 O264 1.941 . S
C240 O241 1.258 . S
C240 O242 1.263 . S
O241 Co238 1.970 . S
O241 C240 1.258 . S
O242 Co239 1.966 . S
O242 C240 1.263 . S
C243 O244 1.235 . S
C243 O270 1.289 . S
O244 C243 1.235 . S
C245 C247 1.400 . S
C245 N248 1.351 . S
C245 C250 1.501 . S
C246 C247 1.387 . S
C246 N249 1.341 . S
C247 C245 1.400 . S
C247 C246 1.387 . S
N248 Co239 2.022 . S
N248 C245 1.351 . S
N248 N249 1.365 . S
N249 C246 1.341 . S
N249 N248 1.365 . S
N249 H269 0.862 . S
C250 C245 1.501 . S
C250 H251 0.961 . S
C250 H252 0.961 . S
C250 H253 0.960 . S
H251 C250 0.961 . S
H252 C250 0.961 . S
H253 C250 0.960 . S
C254 N255 1.342 . S
C254 C258 1.401 . S
C254 C259 1.499 . S
N255 Co238 1.989 . S
N255 C254 1.342 . S
N255 N256 1.388 . S
N256 Co239 1.993 . S
N256 N255 1.388 . S
N256 C257 1.346 . S
C257 N256 1.346 . S
C257 C258 1.396 . S
C257 C267 1.510 . S
C258 C254 1.401 . S
C258 C257 1.396 . S
C259 C254 1.499 . S
C259 H260 0.959 . S
C259 H261 0.960 . S
C259 H262 0.961 . S
H260 C259 0.959 . S
H261 C259 0.960 . S
H262 C259 0.961 . S
O263 Co238 1.967 . S
O263 C271 1.258 . S
O264 Co239 1.941 . S
O264 C271 1.266 . S
H265 C267 0.959 . S
H266 C267 0.961 . S
C267 C257 1.510 . S
C267 H265 0.959 . S
C267 H266 0.961 . S
C267 H268 0.960 . S
H268 C267 0.960 . S
H269 N249 0.862 . S
O270 Co238 1.920 . S
O270 C243 1.289 . S
C271 O263 1.258 . S
C271 O264 1.266 . S
Co272 O275 1.970 . S
Co272 N289 1.989 . S
Co272 O297 1.967 . S
Co272 O304 1.920 . S
Co273 O276 1.966 . S
Co273 N282 2.022 1_554 S
Co273 N290 1.993 . S
Co273 O298 1.941 . S
C274 O275 1.258 . S
C274 O276 1.263 . S
O275 Co272 1.970 . S
O275 C274 1.258 . S
O276 Co273 1.966 . S
O276 C274 1.263 . S
C277 O278 1.235 . S
C277 O304 1.289 . S
O278 C277 1.235 . S
C279 C281 1.400 . S
C279 N282 1.351 . S
C279 C284 1.501 . S
C280 C281 1.387 . S
C280 N283 1.341 . S
C281 C279 1.400 . S
C281 C280 1.387 . S
N282 Co273 2.022 1_556 S
N282 C279 1.351 . S
N282 N283 1.365 . S
N283 C280 1.341 . S
N283 N282 1.365 . S
N283 H303 0.862 . S
C284 C279 1.501 . S
C284 H285 0.961 . S
C284 H286 0.961 . S
C284 H287 0.960 . S
H285 C284 0.961 . S
H286 C284 0.961 . S
H287 C284 0.960 . S
C288 N289 1.342 . S
C288 C292 1.401 . S
C288 C293 1.499 . S
N289 Co272 1.989 . S
N289 C288 1.342 . S
N289 N290 1.388 . S
N290 Co273 1.993 . S
N290 N289 1.388 . S
N290 C291 1.346 . S
C291 N290 1.346 . S
C291 C292 1.396 . S
C291 C301 1.510 . S
C292 C288 1.401 . S
C292 C291 1.396 . S
C293 C288 1.499 . S
C293 H294 0.959 . S
C293 H295 0.960 . S
C293 H296 0.961 . S
H294 C293 0.959 . S
H295 C293 0.960 . S
H296 C293 0.961 . S
O297 Co272 1.967 . S
O297 C305 1.258 . S
O298 Co273 1.941 . S
O298 C305 1.266 . S
H299 C301 0.959 . S
H300 C301 0.961 . S
C301 C291 1.510 . S
C301 H299 0.959 . S
C301 H300 0.961 . S
C301 H302 0.960 1_554 S
H302 C301 0.960 1_556 S
H303 N283 0.862 . S
O304 Co272 1.920 . S
O304 C277 1.289 . S
C305 O297 1.258 . S
C305 O298 1.266 . S
Co306 O309 1.970 . S
Co306 N323 1.989 . S
Co306 O331 1.967 . S
Co306 O338 1.920 . S
Co307 O310 1.966 . S
Co307 N316 2.022 . S
Co307 N324 1.993 . S
Co307 O332 1.941 . S
C308 O309 1.258 . S
C308 O310 1.263 . S
O309 Co306 1.970 . S
O309 C308 1.258 . S
O310 Co307 1.966 . S
O310 C308 1.263 . S
C311 O312 1.235 . S
C311 O338 1.289 . S
O312 C311 1.235 . S
C313 C315 1.400 . S
C313 N316 1.351 . S
C313 C318 1.501 . S
C314 C315 1.387 . S
C314 N317 1.341 . S
C315 C313 1.400 . S
C315 C314 1.387 . S
N316 Co307 2.022 . S
N316 C313 1.351 . S
N316 N317 1.365 . S
N317 C314 1.341 . S
N317 N316 1.365 . S
N317 H337 0.862 . S
C318 C313 1.501 . S
C318 H319 0.961 . S
C318 H320 0.961 . S
C318 H321 0.960 . S
H319 C318 0.961 . S
H320 C318 0.961 . S
H321 C318 0.960 . S
C322 N323 1.342 . S
C322 C326 1.401 . S
C322 C327 1.499 . S
N323 Co306 1.989 . S
N323 C322 1.342 . S
N323 N324 1.388 . S
N324 Co307 1.993 . S
N324 N323 1.388 . S
N324 C325 1.346 . S
C325 N324 1.346 . S
C325 C326 1.396 . S
C325 C335 1.510 . S
C326 C322 1.401 . S
C326 C325 1.396 . S
C327 C322 1.499 . S
C327 H328 0.959 . S
C327 H329 0.960 . S
C327 H330 0.961 . S
H328 C327 0.959 . S
H329 C327 0.960 . S
H330 C327 0.961 . S
O331 Co306 1.967 . S
O331 C339 1.258 . S
O332 Co307 1.941 . S
O332 C339 1.266 . S
H333 C335 0.959 . S
H334 C335 0.961 . S
C335 C325 1.510 . S
C335 H333 0.959 . S
C335 H334 0.961 . S
C335 H336 0.960 . S
H336 C335 0.960 . S
H337 N317 0.862 . S
O338 Co306 1.920 . S
O338 C311 1.289 . S
C339 O331 1.258 . S
C339 O332 1.266 . S
Co340 O343 1.970 . S
Co340 N357 1.989 . S
Co340 O365 1.967 . S
Co340 O372 1.920 . S
Co341 O344 1.966 . S
Co341 N350 2.022 1_554 S
Co341 N358 1.993 . S
Co341 O366 1.941 . S
C342 O343 1.258 . S
C342 O344 1.263 . S
O343 Co340 1.970 . S
O343 C342 1.258 . S
O344 Co341 1.966 . S
O344 C342 1.263 . S
C345 O346 1.235 . S
C345 O372 1.289 . S
O346 C345 1.235 . S
C347 C349 1.400 . S
C347 N350 1.351 . S
C347 C352 1.501 . S
C348 C349 1.387 . S
C348 N351 1.341 . S
C349 C347 1.400 . S
C349 C348 1.387 . S
N350 Co341 2.022 1_556 S
N350 C347 1.351 . S
N350 N351 1.365 . S
N351 C348 1.341 . S
N351 N350 1.365 . S
N351 H371 0.862 . S
C352 C347 1.501 . S
C352 H353 0.961 . S
C352 H354 0.961 . S
C352 H355 0.960 . S
H353 C352 0.961 . S
H354 C352 0.961 . S
H355 C352 0.960 . S
C356 N357 1.342 . S
C356 C360 1.401 . S
C356 C361 1.499 . S
N357 Co340 1.989 . S
N357 C356 1.342 . S
N357 N358 1.388 . S
N358 Co341 1.993 . S
N358 N357 1.388 . S
N358 C359 1.346 . S
C359 N358 1.346 . S
C359 C360 1.396 . S
C359 C369 1.510 . S
C360 C356 1.401 . S
C360 C359 1.396 . S
C361 C356 1.499 . S
C361 H362 0.959 . S
C361 H363 0.960 . S
C361 H364 0.961 . S
H362 C361 0.959 . S
H363 C361 0.960 . S
H364 C361 0.961 . S
O365 Co340 1.967 . S
O365 C373 1.258 . S
O366 Co341 1.941 . S
O366 C373 1.266 . S
H367 C369 0.959 . S
H368 C369 0.961 . S
C369 C359 1.510 . S
C369 H367 0.959 . S
C369 H368 0.961 . S
C369 H370 0.960 1_554 S
H370 C369 0.960 1_556 S
H371 N351 0.862 . S
O372 Co340 1.920 . S
O372 C345 1.289 . S
C373 O365 1.258 . S
C373 O366 1.266 . S
Co374 O377 1.970 . S
Co374 N391 1.989 . S
Co374 O399 1.967 . S
Co374 O406 1.920 . S
Co375 O378 1.966 . S
Co375 N384 2.022 . S
Co375 N392 1.993 . S
Co375 O400 1.941 . S
C376 O377 1.258 . S
C376 O378 1.263 . S
O377 Co374 1.970 . S
O377 C376 1.258 . S
O378 Co375 1.966 . S
O378 C376 1.263 . S
C379 O380 1.235 . S
C379 O406 1.289 . S
O380 C379 1.235 . S
C381 C383 1.400 . S
C381 N384 1.351 . S
C381 C386 1.501 . S
C382 C383 1.387 . S
C382 N385 1.341 . S
C383 C381 1.400 . S
C383 C382 1.387 . S
N384 Co375 2.022 . S
N384 C381 1.351 . S
N384 N385 1.365 . S
N385 C382 1.341 . S
N385 N384 1.365 . S
N385 H405 0.862 . S
C386 C381 1.501 . S
C386 H387 0.961 . S
C386 H388 0.961 . S
C386 H389 0.960 . S
H387 C386 0.961 . S
H388 C386 0.961 . S
H389 C386 0.960 . S
C390 N391 1.342 . S
C390 C394 1.401 . S
C390 C395 1.499 . S
N391 Co374 1.989 . S
N391 C390 1.342 . S
N391 N392 1.388 . S
N392 Co375 1.993 . S
N392 N391 1.388 . S
N392 C393 1.346 . S
C393 N392 1.346 . S
C393 C394 1.396 . S
C393 C403 1.510 . S
C394 C390 1.401 . S
C394 C393 1.396 . S
C395 C390 1.499 . S
C395 H396 0.959 . S
C395 H397 0.960 . S
C395 H398 0.961 . S
H396 C395 0.959 . S
H397 C395 0.960 . S
H398 C395 0.961 . S
O399 Co374 1.967 . S
O399 C407 1.258 . S
O400 Co375 1.941 . S
O400 C407 1.266 . S
H401 C403 0.959 . S
H402 C403 0.961 . S
C403 C393 1.510 . S
C403 H401 0.959 . S
C403 H402 0.961 . S
C403 H404 0.960 . S
H404 C403 0.960 . S
H405 N385 0.862 . S
O406 Co374 1.920 . S
O406 C379 1.289 . S
C407 O399 1.258 . S
C407 O400 1.266 . S
H408 C414 0.930 . S
H409 C418 0.930 . S
H410 C423 0.929 . S
H411 C421 0.929 . S
H412 C416 0.929 1_455 S
H413 C422 0.929 1_655 S
C414 H408 0.930 . S
C414 C415 1.367 . S
C414 C422 1.378 . S
C415 C414 1.367 . S
C415 C423 1.433 . S
C416 H412 0.929 1_655 S
C416 C418 1.378 . S
C416 C420 1.350 . S
C417 C420 1.463 1_455 S
C417 C422 1.350 . S
C417 N425 1.427 . S
C418 H409 0.930 . S
C418 C416 1.378 . S
C418 C419 1.367 . S
C419 C418 1.367 . S
C419 C421 1.433 . S
C420 C416 1.350 . S
C420 C417 1.463 1_655 S
C420 N424 1.427 . S
C421 H411 0.929 . S
C421 C419 1.433 . S
C421 N424 1.384 . S
C422 H413 0.929 1_455 S
C422 C414 1.378 . S
C422 C417 1.350 . S
C423 H410 0.929 . S
C423 C415 1.433 . S
C423 N425 1.384 . S
N424 C420 1.427 . S
N424 C421 1.384 . S
N425 C417 1.427 . S
N425 C423 1.384 . S
H426 C432 0.930 . S
H427 C436 0.930 . S
H428 C441 0.929 . S
H429 C439 0.929 . S
H430 C434 0.929 1_556 S
H431 C440 0.929 1_554 S
C432 H426 0.930 . S
C432 C433 1.367 . S
C432 C440 1.378 . S
C433 C432 1.367 . S
C433 C441 1.433 . S
C434 H430 0.929 1_554 S
C434 C436 1.378 . S
C434 C438 1.350 . S
C435 C438 1.463 1_546 S
C435 C440 1.350 . S
C435 N443 1.427 . S
C436 H427 0.930 . S
C436 C434 1.378 . S
C436 C437 1.367 . S
C437 C436 1.367 . S
C437 C439 1.433 . S
C438 C434 1.350 . S
C438 C435 1.463 1_564 S
C438 N442 1.427 . S
C439 H429 0.929 . S
C439 C437 1.433 . S
C439 N442 1.384 . S
C440 H431 0.929 1_556 S
C440 C432 1.378 . S
C440 C435 1.350 . S
C441 H428 0.929 . S
C441 C433 1.433 . S
C441 N443 1.384 . S
N442 C438 1.427 . S
N442 C439 1.384 . S
N443 C435 1.427 . S
N443 C441 1.384 . S
H444 C450 0.930 . S
H445 C454 0.930 . S
H446 C459 0.929 . S
H447 C457 0.929 . S
H448 C452 0.929 . S
H449 C458 0.929 . S
C450 H444 0.930 . S
C450 C451 1.367 . S
C450 C458 1.378 . S
C451 C450 1.367 . S
C451 C459 1.433 . S
C452 H448 0.929 . S
C452 C454 1.378 . S
C452 C456 1.350 . S
C453 C456 1.463 . S
C453 C458 1.350 . S
C453 N461 1.427 . S
C454 H445 0.930 . S
C454 C452 1.378 . S
C454 C455 1.367 . S
C455 C454 1.367 . S
C455 C457 1.433 . S
C456 C452 1.350 . S
C456 C453 1.463 . S
C456 N460 1.427 . S
C457 H447 0.929 . S
C457 C455 1.433 . S
C457 N460 1.384 . S
C458 H449 0.929 . S
C458 C450 1.378 . S
C458 C453 1.350 . S
C459 H446 0.929 . S
C459 C451 1.433 . S
C459 N461 1.384 . S
N460 C456 1.427 . S
N460 C457 1.384 . S
N461 C453 1.427 . S
N461 C459 1.384 . S
H462 C468 0.930 . S
H463 C472 0.930 . S
H464 C477 0.929 . S
H465 C475 0.929 . S
H466 C470 0.929 . S
H467 C476 0.929 . S
C468 H462 0.930 . S
C468 C469 1.367 . S
C468 C476 1.378 1_554 S
C469 C468 1.367 . S
C469 C477 1.433 . S
C470 H466 0.929 . S
C470 C472 1.378 1_554 S
C470 C474 1.350 1_554 S
C471 C474 1.463 1_454 S
C471 C476 1.350 1_554 S
C471 N479 1.427 . S
C472 H463 0.930 . S
C472 C470 1.378 1_556 S
C472 C473 1.367 . S
C473 C472 1.367 . S
C473 C475 1.433 . S
C474 C470 1.350 1_556 S
C474 C471 1.463 1_656 S
C474 N478 1.427 . S
C475 H465 0.929 . S
C475 C473 1.433 . S
C475 N478 1.384 . S
C476 H467 0.929 . S
C476 C468 1.378 1_556 S
C476 C471 1.350 1_556 S
C477 H464 0.929 . S
C477 C469 1.433 . S
C477 N479 1.384 . S
N478 C474 1.427 . S
N478 C475 1.384 . S
N479 C471 1.427 . S
N479 C477 1.384 . S
H480 C486 0.930 . S
H481 C490 0.930 . S
H482 C495 0.929 . S
H483 C493 0.929 . S
H484 C488 0.929 . S
H485 C494 0.929 . S
C486 H480 0.930 . S
C486 C487 1.367 . S
C486 C494 1.378 . S
C487 C486 1.367 . S
C487 C495 1.433 . S
C488 H484 0.929 . S
C488 C490 1.378 . S
C488 C492 1.350 . S
C489 C492 1.463 1_545 S
C489 C494 1.350 . S
C489 N497 1.427 . S
C490 H481 0.930 . S
C490 C488 1.378 . S
C490 C491 1.367 . S
C491 C490 1.367 . S
C491 C493 1.433 . S
C492 C488 1.350 . S
C492 C489 1.463 1_565 S
C492 N496 1.427 . S
C493 H483 0.929 . S
C493 C491 1.433 . S
C493 N496 1.384 . S
C494 H485 0.929 . S
C494 C486 1.378 . S
C494 C489 1.350 . S
C495 H482 0.929 . S
C495 C487 1.433 . S
C495 N497 1.384 . S
N496 C492 1.427 . S
N496 C493 1.384 . S
N497 C489 1.427 . S
N497 C495 1.384 . S
H498 C504 0.930 . S
H499 C508 0.930 . S
H500 C513 0.929 . S
H501 C511 0.929 . S
H502 C506 0.929 . S
H503 C512 0.929 . S
C504 H498 0.930 . S
C504 C505 1.367 . S
C504 C512 1.378 . S
C505 C504 1.367 . S
C505 C513 1.433 . S
C506 H502 0.929 . S
C506 C508 1.378 . S
C506 C510 1.350 . S
C507 C510 1.463 1_556 S
C507 C512 1.350 . S
C507 N515 1.427 1_556 S
C508 H499 0.930 . S
C508 C506 1.378 . S
C508 C509 1.367 . S
C509 C508 1.367 . S
C509 C511 1.433 . S
C510 C506 1.350 . S
C510 C507 1.463 1_554 S
C510 N514 1.427 1_554 S
C511 H501 0.929 . S
C511 C509 1.433 . S
C511 N514 1.384 1_554 S
C512 H503 0.929 . S
C512 C504 1.378 . S
C512 C507 1.350 . S
C513 H500 0.929 . S
C513 C505 1.433 . S
C513 N515 1.384 1_556 S
N514 C510 1.427 1_556 S
N514 C511 1.384 1_556 S
N515 C507 1.427 1_554 S
N515 C513 1.384 1_554 S
H516 C522 0.930 . S
H517 C526 0.930 . S
H518 C531 0.929 . S
H519 C529 0.929 . S
H520 C524 0.929 . S
H521 C530 0.929 . S
C522 H516 0.930 . S
C522 C523 1.367 . S
C522 C530 1.378 . S
C523 C522 1.367 . S
C523 C531 1.433 . S
C524 H520 0.929 . S
C524 C526 1.378 . S
C524 C528 1.350 . S
C525 C528 1.463 . S
C525 C530 1.350 . S
C525 N533 1.427 . S
C526 H517 0.930 . S
C526 C524 1.378 . S
C526 C527 1.367 . S
C527 C526 1.367 . S
C527 C529 1.433 . S
C528 C524 1.350 . S
C528 C525 1.463 . S
C528 N532 1.427 . S
C529 H519 0.929 . S
C529 C527 1.433 . S
C529 N532 1.384 . S
C530 H521 0.929 . S
C530 C522 1.378 . S
C530 C525 1.350 . S
C531 H518 0.929 . S
C531 C523 1.433 . S
C531 N533 1.384 . S
N532 C528 1.427 . S
N532 C529 1.384 . S
N533 C525 1.427 . S
N533 C531 1.384 . S
H534 C540 0.930 . S
H535 C544 0.930 . S
H536 C549 0.929 . S
H537 C547 0.929 . S
H538 C542 0.929 . S
H539 C548 0.929 . S
C540 H534 0.930 . S
C540 C541 1.367 . S
C540 C548 1.378 . S
C541 C540 1.367 . S
C541 C549 1.433 . S
C542 H538 0.929 . S
C542 C544 1.378 . S
C542 C546 1.350 . S
C543 C546 1.463 . S
C543 C548 1.350 . S
C543 N551 1.427 . S
C544 H535 0.930 . S
C544 C542 1.378 . S
C544 C545 1.367 . S
C545 C544 1.367 . S
C545 C547 1.433 . S
C546 C542 1.350 . S
C546 C543 1.463 . S
C546 N550 1.427 . S
C547 H537 0.929 . S
C547 C545 1.433 . S
C547 N550 1.384 . S
C548 H539 0.929 . S
C548 C540 1.378 . S
C548 C543 1.350 . S
C549 H536 0.929 . S
C549 C541 1.433 . S
C549 N551 1.384 . S
N550 C546 1.427 . S
N550 C547 1.384 . S
N551 C543 1.427 . S
N551 C549 1.384 . S
H552 C558 0.930 . S
H553 C562 0.930 . S
H554 C567 0.929 . S
H555 C565 0.929 . S
H556 C560 0.929 . S
H557 C566 0.929 . S
C558 H552 0.930 . S
C558 C559 1.367 . S
C558 C566 1.378 . S
C559 C558 1.367 . S
C559 C567 1.433 . S
C560 H556 0.929 . S
C560 C562 1.378 . S
C560 C564 1.350 . S
C561 C564 1.463 . S
C561 C566 1.350 . S
C561 N569 1.427 . S
C562 H553 0.930 . S
C562 C560 1.378 . S
C562 C563 1.367 . S
C563 C562 1.367 . S
C563 C565 1.433 . S
C564 C560 1.350 . S
C564 C561 1.463 . S
C564 N568 1.427 . S
C565 H555 0.929 . S
C565 C563 1.433 . S
C565 N568 1.384 . S
C566 H557 0.929 . S
C566 C558 1.378 . S
C566 C561 1.350 . S
C567 H554 0.929 . S
C567 C559 1.433 . S
C567 N569 1.384 . S
N568 C564 1.427 . S
N568 C565 1.384 . S
N569 C561 1.427 . S
N569 C567 1.384 . S
H570 C576 0.930 . S
H571 C580 0.930 . S
H572 C585 0.929 . S
H573 C583 0.929 . S
H574 C578 0.929 . S
H575 C584 0.929 . S
C576 H570 0.930 . S
C576 C577 1.367 . S
C576 C584 1.378 . S
C577 C576 1.367 . S
C577 C585 1.433 . S
C578 H574 0.929 . S
C578 C580 1.378 . S
C578 C582 1.350 . S
C579 C582 1.463 . S
C579 C584 1.350 . S
C579 N587 1.427 . S
C580 H571 0.930 . S
C580 C578 1.378 . S
C580 C581 1.367 . S
C581 C580 1.367 . S
C581 C583 1.433 . S
C582 C578 1.350 . S
C582 C579 1.463 . S
C582 N586 1.427 . S
C583 H573 0.929 . S
C583 C581 1.433 . S
C583 N586 1.384 . S
C584 H575 0.929 . S
C584 C576 1.378 . S
C584 C579 1.350 . S
C585 H572 0.929 . S
C585 C577 1.433 . S
C585 N587 1.384 . S
N586 C582 1.427 . S
N586 C583 1.384 . S
N587 C579 1.427 . S
N587 C585 1.384 . S
H588 C594 0.930 . S
H589 C598 0.930 . S
H590 C603 0.929 . S
H591 C601 0.929 . S
H592 C596 0.929 . S
H593 C602 0.929 . S
C594 H588 0.930 . S
C594 C595 1.367 . S
C594 C602 1.378 . S
C595 C594 1.367 . S
C595 C603 1.433 . S
C596 H592 0.929 . S
C596 C598 1.378 . S
C596 C600 1.350 . S
C597 C600 1.463 . S
C597 C602 1.350 . S
C597 N605 1.427 . S
C598 H589 0.930 . S
C598 C596 1.378 . S
C598 C599 1.367 . S
C599 C598 1.367 . S
C599 C601 1.433 . S
C600 C596 1.350 . S
C600 C597 1.463 . S
C600 N604 1.427 . S
C601 H591 0.929 . S
C601 C599 1.433 . S
C601 N604 1.384 . S
C602 H593 0.929 . S
C602 C594 1.378 . S
C602 C597 1.350 . S
C603 H590 0.929 . S
C603 C595 1.433 . S
C603 N605 1.384 . S
N604 C600 1.427 . S
N604 C601 1.384 . S
N605 C597 1.427 . S
N605 C603 1.384 . S
H606 C612 0.930 . S
H607 C616 0.930 . S
H608 C621 0.929 . S
H609 C619 0.929 . S
H610 C614 0.929 . S
H611 C620 0.929 . S
C612 H606 0.930 . S
C612 C613 1.367 . S
C612 C620 1.378 . S
C613 C612 1.367 . S
C613 C621 1.433 . S
C614 H610 0.929 . S
C614 C616 1.378 . S
C614 C618 1.350 . S
C615 C618 1.463 . S
C615 C620 1.350 . S
C615 N623 1.427 . S
C616 H607 0.930 . S
C616 C614 1.378 . S
C616 C617 1.367 . S
C617 C616 1.367 . S
C617 C619 1.433 . S
C618 C614 1.350 . S
C618 C615 1.463 . S
C618 N622 1.427 . S
C619 H609 0.929 . S
C619 C617 1.433 . S
C619 N622 1.384 . S
C620 H611 0.929 . S
C620 C612 1.378 . S
C620 C615 1.350 . S
C621 H608 0.929 . S
C621 C613 1.433 . S
C621 N623 1.384 . S
N622 C618 1.427 . S
N622 C619 1.384 . S
N623 C615 1.427 . S
N623 C621 1.384 . S
H624 C630 0.930 . S
H625 C634 0.930 . S
H626 C639 0.929 . S
H627 C637 0.929 . S
H628 C632 0.929 . S
H629 C638 0.929 . S
C630 H624 0.930 . S
C630 C631 1.367 . S
C630 C638 1.378 . S
C631 C630 1.367 . S
C631 C639 1.433 . S
C632 H628 0.929 . S
C632 C634 1.378 1_556 S
C632 C636 1.350 . S
C633 C636 1.463 . S
C633 C638 1.350 . S
C633 N641 1.427 . S
C634 H625 0.930 . S
C634 C632 1.378 1_554 S
C634 C635 1.367 . S
C635 C634 1.367 . S
C635 C637 1.433 . S
C636 C632 1.350 . S
C636 C633 1.463 . S
C636 N640 1.427 . S
C637 H627 0.929 . S
C637 C635 1.433 . S
C637 N640 1.384 1_554 S
C638 H629 0.929 . S
C638 C630 1.378 . S
C638 C633 1.350 . S
C639 H626 0.929 . S
C639 C631 1.433 . S
C639 N641 1.384 . S
N640 C636 1.427 . S
N640 C637 1.384 1_556 S
N641 C633 1.427 . S
N641 C639 1.384 . S
H642 C648 0.930 . S
H643 C652 0.930 . S
H644 C657 0.929 . S
H645 C655 0.929 . S
H646 C650 0.929 . S
H647 C656 0.929 . S
C648 H642 0.930 . S
C648 C649 1.367 . S
C648 C656 1.378 . S
C649 C648 1.367 . S
C649 C657 1.433 . S
C650 H646 0.929 . S
C650 C652 1.378 . S
C650 C654 1.350 . S
C651 C654 1.463 . S
C651 C656 1.350 . S
C651 N659 1.427 . S
C652 H643 0.930 . S
C652 C650 1.378 . S
C652 C653 1.367 . S
C653 C652 1.367 . S
C653 C655 1.433 . S
C654 C650 1.350 . S
C654 C651 1.463 . S
C654 N658 1.427 . S
C655 H645 0.929 . S
C655 C653 1.433 . S
C655 N658 1.384 . S
C656 H647 0.929 . S
C656 C648 1.378 . S
C656 C651 1.350 . S
C657 H644 0.929 . S
C657 C649 1.433 . S
C657 N659 1.384 . S
N658 C654 1.427 . S
N658 C655 1.384 . S
N659 C651 1.427 . S
N659 C657 1.384 . S
H660 C666 0.930 . S
H661 C670 0.930 . S
H662 C675 0.929 . S
H663 C673 0.929 . S
H664 C668 0.929 . S
H665 C674 0.929 . S
C666 H660 0.930 . S
C666 C667 1.367 . S
C666 C674 1.378 . S
C667 C666 1.367 . S
C667 C675 1.433 . S
C668 H664 0.929 . S
C668 C670 1.378 1_556 S
C668 C672 1.350 . S
C669 C672 1.463 . S
C669 C674 1.350 . S
C669 N677 1.427 . S
C670 H661 0.930 . S
C670 C668 1.378 1_554 S
C670 C671 1.367 . S
C671 C670 1.367 . S
C671 C673 1.433 . S
C672 C668 1.350 . S
C672 C669 1.463 . S
C672 N676 1.427 . S
C673 H663 0.929 . S
C673 C671 1.433 . S
C673 N676 1.384 1_554 S
C674 H665 0.929 . S
C674 C666 1.378 . S
C674 C669 1.350 . S
C675 H662 0.929 . S
C675 C667 1.433 . S
C675 N677 1.384 . S
N676 C672 1.427 . S
N676 C673 1.384 1_556 S
N677 C669 1.427 . S
N677 C675 1.384 . S
H678 C684 0.930 . S
H679 C688 0.930 . S
H680 C693 0.929 . S
H681 C691 0.929 . S
H682 C686 0.929 . S
H683 C692 0.929 . S
C684 H678 0.930 . S
C684 C685 1.367 . S
C684 C692 1.378 . S
C685 C684 1.367 . S
C685 C693 1.433 . S
C686 H682 0.929 . S
C686 C688 1.378 . S
C686 C690 1.350 . S
C687 C690 1.463 . S
C687 C692 1.350 . S
C687 N695 1.427 . S
C688 H679 0.930 . S
C688 C686 1.378 . S
C688 C689 1.367 . S
C689 C688 1.367 . S
C689 C691 1.433 . S
C690 C686 1.350 . S
C690 C687 1.463 . S
C690 N694 1.427 . S
C691 H681 0.929 . S
C691 C689 1.433 . S
C691 N694 1.384 . S
C692 H683 0.929 . S
C692 C684 1.378 . S
C692 C687 1.350 . S
C693 H680 0.929 . S
C693 C685 1.433 . S
C693 N695 1.384 . S
N694 C690 1.427 . S
N694 C691 1.384 . S
N695 C687 1.427 . S
N695 C693 1.384 . S
H696 C702 0.930 . S
H697 C706 0.930 . S
H698 C711 0.929 . S
H699 C709 0.929 . S
H700 C704 0.929 . S
H701 C710 0.929 . S
C702 H696 0.930 . S
C702 C703 1.367 . S
C702 C710 1.378 . S
C703 C702 1.367 . S
C703 C711 1.433 . S
C704 H700 0.929 . S
C704 C706 1.378 1_556 S
C704 C708 1.350 . S
C705 C708 1.463 . S
C705 C710 1.350 . S
C705 N713 1.427 . S
C706 H697 0.930 . S
C706 C704 1.378 1_554 S
C706 C707 1.367 . S
C707 C706 1.367 . S
C707 C709 1.433 . S
C708 C704 1.350 . S
C708 C705 1.463 . S
C708 N712 1.427 . S
C709 H699 0.929 . S
C709 C707 1.433 . S
C709 N712 1.384 1_554 S
C710 H701 0.929 . S
C710 C702 1.378 . S
C710 C705 1.350 . S
C711 H698 0.929 . S
C711 C703 1.433 . S
C711 N713 1.384 . S
N712 C708 1.427 . S
N712 C709 1.384 1_556 S
N713 C705 1.427 . S
N713 C711 1.384 . S
H714 C720 0.930 . S
H715 C724 0.930 . S
H716 C729 0.929 . S
H717 C727 0.929 . S
H718 C722 0.929 . S
H719 C728 0.929 . S
C720 H714 0.930 . S
C720 C721 1.367 . S
C720 C728 1.378 . S
C721 C720 1.367 . S
C721 C729 1.433 . S
C722 H718 0.929 . S
C722 C724 1.378 . S
C722 C726 1.350 . S
C723 C726 1.463 . S
C723 C728 1.350 . S
C723 N731 1.427 . S
C724 H715 0.930 . S
C724 C722 1.378 . S
C724 C725 1.367 . S
C725 C724 1.367 . S
C725 C727 1.433 . S
C726 C722 1.350 . S
C726 C723 1.463 . S
C726 N730 1.427 . S
C727 H717 0.929 . S
C727 C725 1.433 . S
C727 N730 1.384 . S
C728 H719 0.929 . S
C728 C720 1.378 . S
C728 C723 1.350 . S
C729 H716 0.929 . S
C729 C721 1.433 . S
C729 N731 1.384 . S
N730 C726 1.427 . S
N730 C727 1.384 . S
N731 C723 1.427 . S
N731 C729 1.384 . S
H732 C738 0.930 . S
H733 C742 0.930 . S
H734 C747 0.929 . S
H735 C745 0.929 . S
H736 C740 0.929 . S
H737 C746 0.929 . S
C738 H732 0.930 . S
C738 C739 1.367 . S
C738 C746 1.378 . S
C739 C738 1.367 . S
C739 C747 1.433 . S
C740 H736 0.929 . S
C740 C742 1.378 . S
C740 C744 1.350 . S
C741 C744 1.463 . S
C741 C746 1.350 . S
C741 N749 1.427 . S
C742 H733 0.930 . S
C742 C740 1.378 . S
C742 C743 1.367 . S
C743 C742 1.367 . S
C743 C745 1.433 . S
C744 C740 1.350 . S
C744 C741 1.463 . S
C744 N748 1.427 . S
C745 H735 0.929 . S
C745 C743 1.433 . S
C745 N748 1.384 . S
C746 H737 0.929 . S
C746 C738 1.378 . S
C746 C741 1.350 . S
C747 H734 0.929 . S
C747 C739 1.433 . S
C747 N749 1.384 . S
N748 C744 1.427 . S
N748 C745 1.384 . S
N749 C741 1.427 . S
N749 C747 1.384 . S
H750 C756 0.930 . S
H751 C760 0.930 . S
H752 C765 0.929 . S
H753 C763 0.929 . S
H754 C758 0.929 . S
H755 C764 0.929 . S
C756 H750 0.930 . S
C756 C757 1.367 . S
C756 C764 1.378 . S
C757 C756 1.367 . S
C757 C765 1.433 . S
C758 H754 0.929 . S
C758 C760 1.378 1_554 S
C758 C762 1.350 . S
C759 C762 1.463 . S
C759 C764 1.350 . S
C759 N767 1.427 . S
C760 H751 0.930 . S
C760 C758 1.378 1_556 S
C760 C761 1.367 . S
C761 C760 1.367 . S
C761 C763 1.433 . S
C762 C758 1.350 . S
C762 C759 1.463 . S
C762 N766 1.427 . S
C763 H753 0.929 . S
C763 C761 1.433 . S
C763 N766 1.384 1_556 S
C764 H755 0.929 . S
C764 C756 1.378 . S
C764 C759 1.350 . S
C765 H752 0.929 . S
C765 C757 1.433 . S
C765 N767 1.384 . S
N766 C762 1.427 . S
N766 C763 1.384 1_554 S
N767 C759 1.427 . S
N767 C765 1.384 . S
H768 C774 0.930 . S
H769 C778 0.930 . S
H770 C783 0.929 . S
H771 C781 0.929 . S
H772 C776 0.929 . S
H773 C782 0.929 . S
C774 H768 0.930 . S
C774 C775 1.367 . S
C774 C782 1.378 . S
C775 C774 1.367 . S
C775 C783 1.433 . S
C776 H772 0.929 . S
C776 C778 1.378 . S
C776 C780 1.350 . S
C777 C780 1.463 . S
C777 C782 1.350 . S
C777 N785 1.427 . S
C778 H769 0.930 . S
C778 C776 1.378 . S
C778 C779 1.367 . S
C779 C778 1.367 . S
C779 C781 1.433 . S
C780 C776 1.350 . S
C780 C777 1.463 . S
C780 N784 1.427 . S
C781 H771 0.929 . S
C781 C779 1.433 . S
C781 N784 1.384 . S
C782 H773 0.929 . S
C782 C774 1.378 . S
C782 C777 1.350 . S
C783 H770 0.929 . S
C783 C775 1.433 . S
C783 N785 1.384 . S
N784 C780 1.427 . S
N784 C781 1.384 . S
N785 C777 1.427 . S
N785 C783 1.384 . S
H786 C792 0.930 . S
H787 C796 0.930 . S
H788 C801 0.929 . S
H789 C799 0.929 . S
H790 C794 0.929 . S
H791 C800 0.929 . S
C792 H786 0.930 . S
C792 C793 1.367 . S
C792 C800 1.378 1_556 S
C793 C792 1.367 . S
C793 C801 1.433 . S
C794 H790 0.929 . S
C794 C796 1.378 . S
C794 C798 1.350 . S
C795 C798 1.463 . S
C795 C800 1.350 . S
C795 N803 1.427 . S
C796 H787 0.930 . S
C796 C794 1.378 . S
C796 C797 1.367 . S
C797 C796 1.367 . S
C797 C799 1.433 . S
C798 C794 1.350 . S
C798 C795 1.463 . S
C798 N802 1.427 . S
C799 H789 0.929 . S
C799 C797 1.433 . S
C799 N802 1.384 . S
C800 H791 0.929 . S
C800 C792 1.378 1_554 S
C800 C795 1.350 . S
C801 H788 0.929 . S
C801 C793 1.433 . S
C801 N803 1.384 1_556 S
N802 C798 1.427 . S
N802 C799 1.384 . S
N803 C795 1.427 . S
N803 C801 1.384 1_554 S
H804 C810 0.930 . S
H805 C814 0.930 . S
H806 C819 0.929 . S
H807 C817 0.929 . S
H808 C812 0.929 . S
H809 C818 0.929 . S
C810 H804 0.930 . S
C810 C811 1.367 . S
C810 C818 1.378 . S
C811 C810 1.367 . S
C811 C819 1.433 . S
C812 H808 0.929 . S
C812 C814 1.378 . S
C812 C816 1.350 . S
C813 C816 1.463 . S
C813 C818 1.350 . S
C813 N821 1.427 . S
C814 H805 0.930 . S
C814 C812 1.378 . S
C814 C815 1.367 . S
C815 C814 1.367 . S
C815 C817 1.433 . S
C816 C812 1.350 . S
C816 C813 1.463 . S
C816 N820 1.427 . S
C817 H807 0.929 . S
C817 C815 1.433 . S
C817 N820 1.384 . S
C818 H809 0.929 . S
C818 C810 1.378 . S
C818 C813 1.350 . S
C819 H806 0.929 . S
C819 C811 1.433 . S
C819 N821 1.384 . S
N820 C816 1.427 . S
N820 C817 1.384 . S
N821 C813 1.427 . S
N821 C819 1.384 . S
H822 C828 0.930 . S
H823 C832 0.930 . S
H824 C837 0.929 . S
H825 C835 0.929 . S
H826 C830 0.929 . S
H827 C836 0.929 . S
C828 H822 0.930 . S
C828 C829 1.367 . S
C828 C836 1.378 . S
C829 C828 1.367 . S
C829 C837 1.433 . S
C830 H826 0.929 . S
C830 C832 1.378 1_554 S
C830 C834 1.350 . S
C831 C834 1.463 . S
C831 C836 1.350 . S
C831 N839 1.427 . S
C832 H823 0.930 . S
C832 C830 1.378 1_556 S
C832 C833 1.367 . S
C833 C832 1.367 . S
C833 C835 1.433 . S
C834 C830 1.350 . S
C834 C831 1.463 . S
C834 N838 1.427 . S
C835 H825 0.929 . S
C835 C833 1.433 . S
C835 N838 1.384 1_556 S
C836 H827 0.929 . S
C836 C828 1.378 . S
C836 C831 1.350 . S
C837 H824 0.929 . S
C837 C829 1.433 . S
C837 N839 1.384 . S
N838 C834 1.427 . S
N838 C835 1.384 1_554 S
N839 C831 1.427 . S
N839 C837 1.384 . S
H840 C846 0.930 . S
H841 C850 0.930 . S
H842 C855 0.929 . S
H843 C853 0.929 . S
H844 C848 0.929 . S
H845 C854 0.929 . S
C846 H840 0.930 . S
C846 C847 1.367 . S
C846 C854 1.378 . S
C847 C846 1.367 . S
C847 C855 1.433 . S
C848 H844 0.929 . S
C848 C850 1.378 . S
C848 C852 1.350 . S
C849 C852 1.463 . S
C849 C854 1.350 . S
C849 N857 1.427 . S
C850 H841 0.930 . S
C850 C848 1.378 . S
C850 C851 1.367 . S
C851 C850 1.367 . S
C851 C853 1.433 . S
C852 C848 1.350 . S
C852 C849 1.463 . S
C852 N856 1.427 . S
C853 H843 0.929 . S
C853 C851 1.433 . S
C853 N856 1.384 . S
C854 H845 0.929 . S
C854 C846 1.378 . S
C854 C849 1.350 . S
C855 H842 0.929 . S
C855 C847 1.433 . S
C855 N857 1.384 . S
N856 C852 1.427 . S
N856 C853 1.384 . S
N857 C849 1.427 . S
N857 C855 1.384 . S
H858 C864 0.930 . S
H859 C868 0.930 . S
H860 C873 0.929 . S
H861 C871 0.929 . S
H862 C866 0.929 . S
H863 C872 0.929 . S
C864 H858 0.930 . S
C864 C865 1.367 . S
C864 C872 1.378 . S
C865 C864 1.367 . S
C865 C873 1.433 . S
C866 H862 0.929 . S
C866 C868 1.378 . S
C866 C870 1.350 . S
C867 C870 1.463 . S
C867 C872 1.350 . S
C867 N875 1.427 . S
C868 H859 0.930 . S
C868 C866 1.378 . S
C868 C869 1.367 . S
C869 C868 1.367 . S
C869 C871 1.433 . S
C870 C866 1.350 . S
C870 C867 1.463 . S
C870 N874 1.427 . S
C871 H861 0.929 . S
C871 C869 1.433 . S
C871 N874 1.384 . S
C872 H863 0.929 . S
C872 C864 1.378 . S
C872 C867 1.350 . S
C873 H860 0.929 . S
C873 C865 1.433 . S
C873 N875 1.384 . S
N874 C870 1.427 . S
N874 C871 1.384 . S
N875 C867 1.427 . S
N875 C873 1.384 . S
H876 C882 0.930 . S
H877 C886 0.930 . S
H878 C891 0.929 . S
H879 C889 0.929 . S
H880 C884 0.929 . S
H881 C890 0.929 . S
C882 H876 0.930 . S
C882 C883 1.367 . S
C882 C890 1.378 . S
C883 C882 1.367 . S
C883 C891 1.433 . S
C884 H880 0.929 . S
C884 C886 1.378 . S
C884 C888 1.350 . S
C885 C888 1.463 . S
C885 C890 1.350 . S
C885 N893 1.427 . S
C886 H877 0.930 . S
C886 C884 1.378 . S
C886 C887 1.367 . S
C887 C886 1.367 . S
C887 C889 1.433 . S
C888 C884 1.350 . S
C888 C885 1.463 . S
C888 N892 1.427 . S
C889 H879 0.929 . S
C889 C887 1.433 . S
C889 N892 1.384 . S
C890 H881 0.929 . S
C890 C882 1.378 . S
C890 C885 1.350 . S
C891 H878 0.929 . S
C891 C883 1.433 . S
C891 N893 1.384 . S
N892 C888 1.427 . S
N892 C889 1.384 . S
N893 C885 1.427 . S
N893 C891 1.384 . S
H894 C900 0.930 . S
H895 C904 0.930 . S
H896 C909 0.929 . S
H897 C907 0.929 . S
H898 C902 0.929 . S
H899 C908 0.929 . S
C900 H894 0.930 . S
C900 C901 1.367 . S
C900 C908 1.378 . S
C901 C900 1.367 . S
C901 C909 1.433 . S
C902 H898 0.929 . S
C902 C904 1.378 . S
C902 C906 1.350 . S
C903 C906 1.463 . S
C903 C908 1.350 . S
C903 N911 1.427 . S
C904 H895 0.930 . S
C904 C902 1.378 . S
C904 C905 1.367 . S
C905 C904 1.367 . S
C905 C907 1.433 . S
C906 C902 1.350 . S
C906 C903 1.463 . S
C906 N910 1.427 . S
C907 H897 0.929 . S
C907 C905 1.433 . S
C907 N910 1.384 . S
C908 H899 0.929 . S
C908 C900 1.378 . S
C908 C903 1.350 . S
C909 H896 0.929 . S
C909 C901 1.433 . S
C909 N911 1.384 . S
N910 C906 1.427 . S
N910 C907 1.384 . S
N911 C903 1.427 . S
N911 C909 1.384 . S
H912 C918 0.930 . S
H913 C922 0.930 . S
H914 C927 0.929 . S
H915 C925 0.929 . S
H916 C920 0.929 . S
H917 C926 0.929 . S
C918 H912 0.930 . S
C918 C919 1.367 . S
C918 C926 1.378 . S
C919 C918 1.367 . S
C919 C927 1.433 . S
C920 H916 0.929 . S
C920 C922 1.378 . S
C920 C924 1.350 . S
C921 C924 1.463 . S
C921 C926 1.350 . S
C921 N929 1.427 . S
C922 H913 0.930 . S
C922 C920 1.378 . S
C922 C923 1.367 . S
C923 C922 1.367 . S
C923 C925 1.433 . S
C924 C920 1.350 . S
C924 C921 1.463 . S
C924 N928 1.427 . S
C925 H915 0.929 . S
C925 C923 1.433 . S
C925 N928 1.384 . S
C926 H917 0.929 . S
C926 C918 1.378 . S
C926 C921 1.350 . S
C927 H914 0.929 . S
C927 C919 1.433 . S
C927 N929 1.384 . S
N928 C924 1.427 . S
N928 C925 1.384 . S
N929 C921 1.427 . S
N929 C927 1.384 . S
H930 C936 0.930 . S
H931 C940 0.930 . S
H932 C945 0.929 . S
H933 C943 0.929 . S
H934 C938 0.929 . S
H935 C944 0.929 . S
C936 H930 0.930 . S
C936 C937 1.367 . S
C936 C944 1.378 . S
C937 C936 1.367 . S
C937 C945 1.433 . S
C938 H934 0.929 . S
C938 C940 1.378 . S
C938 C942 1.350 . S
C939 C942 1.463 . S
C939 C944 1.350 . S
C939 N947 1.427 . S
C940 H931 0.930 . S
C940 C938 1.378 . S
C940 C941 1.367 . S
C941 C940 1.367 . S
C941 C943 1.433 . S
C942 C938 1.350 . S
C942 C939 1.463 . S
C942 N946 1.427 . S
C943 H933 0.929 . S
C943 C941 1.433 . S
C943 N946 1.384 . S
C944 H935 0.929 . S
C944 C936 1.378 . S
C944 C939 1.350 . S
C945 H932 0.929 . S
C945 C937 1.433 . S
C945 N947 1.384 . S
N946 C942 1.427 . S
N946 C943 1.384 . S
N947 C939 1.427 . S
N947 C945 1.384 . S
C415 C2 1.603 . S
C419 C376 1.602 . S
C433 C36 1.596 . S
C437 C206 1.597 . S
C451 C240 1.595 . S
C455 C70 1.596 . S
C469 C274 1.596 . S
C473 C104 1.595 . S
C487 C308 1.595 . S
C491 C138 1.596 . S
C505 C172 1.602 . S
C509 C342 1.603 . S
C523 C305 1.604 . S
C527 C33 1.604 . S
C541 C339 1.607 . S
C545 C67 1.607 . S
C559 C101 1.605 . S
C563 C373 1.606 . S
C577 C135 1.607 . S
C581 C407 1.607 . S
C595 C237 1.604 . S
C599 C169 1.605 . S
C613 C203 1.604 . S
C617 C271 1.604 . S
C631 C9 1.144 . S
C635 C5 1.177 . S
C649 C39 1.180 . S
C653 C43 1.148 . S
C667 C77 1.159 . S
C671 C73 1.173 . S
C685 C107 1.171 . S
C689 C111 1.150 . S
C703 C145 1.151 . S
C707 C141 1.171 . S
C721 C175 1.171 . S
C725 C179 1.148 . S
C739 C209 1.179 . S
C743 C213 1.162 . S
C757 C247 1.144 . S
C761 C243 1.175 . S
C775 C277 1.176 . S
C779 C281 1.144 . S
C793 C311 1.182 . S
C797 C315 1.159 . S
C811 C349 1.157 . S
C815 C345 1.182 . S
C829 C383 1.155 . S
C833 C379 1.172 . S
C847 C20 1.561 . S
C851 C360 1.560 . S
C865 C394 1.565 . S
C869 C54 1.566 . S
C883 C224 1.564 . S
C887 C88 1.563 . S
C901 C122 1.565 . S
C905 C258 1.564 . S
C919 C156 1.567 . S
C923 C292 1.567 . S
C937 C190 1.565 . S
C941 C326 1.564 . S
