# Generated by pormake.
# Topology unw, (4)-cn, num edge types: 1
# Building blocks:
#     Node 0, Type 0, BuildingBlock: MUDLON_clean_sbu_0, # of connection points: 4
#     Node 1, Type 0, BuildingBlock: MUDLON_clean_sbu_0, # of connection points: 4
#     Node 2, Type 0, BuildingBlock: MUDLON_clean_sbu_0, # of connection points: 4
#     Node 3, Type 0, BuildingBlock: MUDLON_clean_sbu_0, # of connection points: 4
#     Node 4, Type 0, BuildingBlock: MUDLON_clean_sbu_0, # of connection points: 4
#     Node 5, Type 0, BuildingBlock: MUDLON_clean_sbu_0, # of connection points: 4
#     Node 6, Type 0, BuildingBlock: MUDLON_clean_sbu_0, # of connection points: 4
#     Node 7, Type 0, BuildingBlock: MUDLON_clean_sbu_0, # of connection points: 4
#     Node 8, Type 0, BuildingBlock: MUDLON_clean_sbu_0, # of connection points: 4
#     Node 9, Type 0, BuildingBlock: MUDLON_clean_sbu_0, # of connection points: 4
#     Node 10, Type 0, BuildingBlock: MUDLON_clean_sbu_0, # of connection points: 4
#     Node 11, Type 0, BuildingBlock: MUDLON_clean_sbu_0, # of connection points: 4
#     Node 12, Type 0, BuildingBlock: MUDLON_clean_sbu_0, # of connection points: 4
#     Node 13, Type 0, BuildingBlock: MUDLON_clean_sbu_0, # of connection points: 4
#     Node 14, Type 0, BuildingBlock: MUDLON_clean_sbu_0, # of connection points: 4
#     Node 15, Type 0, BuildingBlock: MUDLON_clean_sbu_0, # of connection points: 4
#     Node 16, Type 0, BuildingBlock: MUDLON_clean_sbu_0, # of connection points: 4
#     Node 17, Type 0, BuildingBlock: MUDLON_clean_sbu_0, # of connection points: 4
#     Node 18, Type 0, BuildingBlock: MUDLON_clean_sbu_0, # of connection points: 4
#     Node 19, Type 0, BuildingBlock: MUDLON_clean_sbu_0, # of connection points: 4
#     Node 20, Type 0, BuildingBlock: MUDLON_clean_sbu_0, # of connection points: 4
#     Node 21, Type 0, BuildingBlock: MUDLON_clean_sbu_0, # of connection points: 4
#     Node 22, Type 0, BuildingBlock: MUDLON_clean_sbu_0, # of connection points: 4
#     Node 23, Type 0, BuildingBlock: MUDLON_clean_sbu_0, # of connection points: 4
#     Edge 24, Type (0, 0), BuildingBlock: KIFKEQ_clean_linker_1, # of connection points: 2
#     Edge 25, Type (0, 0), BuildingBlock: KIFKEQ_clean_linker_1, # of connection points: 2
#     Edge 26, Type (0, 0), BuildingBlock: KIFKEQ_clean_linker_1, # of connection points: 2
#     Edge 27, Type (0, 0), BuildingBlock: KIFKEQ_clean_linker_1, # of connection points: 2
#     Edge 28, Type (0, 0), BuildingBlock: KIFKEQ_clean_linker_1, # of connection points: 2
#     Edge 29, Type (0, 0), BuildingBlock: KIFKEQ_clean_linker_1, # of connection points: 2
#     Edge 30, Type (0, 0), BuildingBlock: KIFKEQ_clean_linker_1, # of connection points: 2
#     Edge 31, Type (0, 0), BuildingBlock: KIFKEQ_clean_linker_1, # of connection points: 2
#     Edge 32, Type (0, 0), BuildingBlock: KIFKEQ_clean_linker_1, # of connection points: 2
#     Edge 33, Type (0, 0), BuildingBlock: KIFKEQ_clean_linker_1, # of connection points: 2
#     Edge 34, Type (0, 0), BuildingBlock: KIFKEQ_clean_linker_1, # of connection points: 2
#     Edge 35, Type (0, 0), BuildingBlock: KIFKEQ_clean_linker_1, # of connection points: 2
#     Edge 36, Type (0, 0), BuildingBlock: KIFKEQ_clean_linker_1, # of connection points: 2
#     Edge 37, Type (0, 0), BuildingBlock: KIFKEQ_clean_linker_1, # of connection points: 2
#     Edge 38, Type (0, 0), BuildingBlock: KIFKEQ_clean_linker_1, # of connection points: 2
#     Edge 39, Type (0, 0), BuildingBlock: KIFKEQ_clean_linker_1, # of connection points: 2
#     Edge 40, Type (0, 0), BuildingBlock: KIFKEQ_clean_linker_1, # of connection points: 2
#     Edge 41, Type (0, 0), BuildingBlock: KIFKEQ_clean_linker_1, # of connection points: 2
#     Edge 42, Type (0, 0), BuildingBlock: KIFKEQ_clean_linker_1, # of connection points: 2
#     Edge 43, Type (0, 0), BuildingBlock: KIFKEQ_clean_linker_1, # of connection points: 2
#     Edge 44, Type (0, 0), BuildingBlock: KIFKEQ_clean_linker_1, # of connection points: 2
#     Edge 45, Type (0, 0), BuildingBlock: KIFKEQ_clean_linker_1, # of connection points: 2
#     Edge 46, Type (0, 0), BuildingBlock: KIFKEQ_clean_linker_1, # of connection points: 2
#     Edge 47, Type (0, 0), BuildingBlock: KIFKEQ_clean_linker_1, # of connection points: 2
#     Edge 48, Type (0, 0), BuildingBlock: KIFKEQ_clean_linker_1, # of connection points: 2
#     Edge 49, Type (0, 0), BuildingBlock: KIFKEQ_clean_linker_1, # of connection points: 2
#     Edge 50, Type (0, 0), BuildingBlock: KIFKEQ_clean_linker_1, # of connection points: 2
#     Edge 51, Type (0, 0), BuildingBlock: KIFKEQ_clean_linker_1, # of connection points: 2
#     Edge 52, Type (0, 0), BuildingBlock: KIFKEQ_clean_linker_1, # of connection points: 2
#     Edge 53, Type (0, 0), BuildingBlock: KIFKEQ_clean_linker_1, # of connection points: 2
#     Edge 54, Type (0, 0), BuildingBlock: KIFKEQ_clean_linker_1, # of connection points: 2
#     Edge 55, Type (0, 0), BuildingBlock: KIFKEQ_clean_linker_1, # of connection points: 2
#     Edge 56, Type (0, 0), BuildingBlock: KIFKEQ_clean_linker_1, # of connection points: 2
#     Edge 57, Type (0, 0), BuildingBlock: KIFKEQ_clean_linker_1, # of connection points: 2
#     Edge 58, Type (0, 0), BuildingBlock: KIFKEQ_clean_linker_1, # of connection points: 2
#     Edge 59, Type (0, 0), BuildingBlock: KIFKEQ_clean_linker_1, # of connection points: 2
#     Edge 60, Type (0, 0), BuildingBlock: KIFKEQ_clean_linker_1, # of connection points: 2
#     Edge 61, Type (0, 0), BuildingBlock: KIFKEQ_clean_linker_1, # of connection points: 2
#     Edge 62, Type (0, 0), BuildingBlock: KIFKEQ_clean_linker_1, # of connection points: 2
#     Edge 63, Type (0, 0), BuildingBlock: KIFKEQ_clean_linker_1, # of connection points: 2
#     Edge 64, Type (0, 0), BuildingBlock: KIFKEQ_clean_linker_1, # of connection points: 2
#     Edge 65, Type (0, 0), BuildingBlock: KIFKEQ_clean_linker_1, # of connection points: 2
#     Edge 66, Type (0, 0), BuildingBlock: KIFKEQ_clean_linker_1, # of connection points: 2
#     Edge 67, Type (0, 0), BuildingBlock: KIFKEQ_clean_linker_1, # of connection points: 2
#     Edge 68, Type (0, 0), BuildingBlock: KIFKEQ_clean_linker_1, # of connection points: 2
#     Edge 69, Type (0, 0), BuildingBlock: KIFKEQ_clean_linker_1, # of connection points: 2
#     Edge 70, Type (0, 0), BuildingBlock: KIFKEQ_clean_linker_1, # of connection points: 2
#     Edge 71, Type (0, 0), BuildingBlock: KIFKEQ_clean_linker_1, # of connection points: 2
# Relax obj value: 0.472
# Max RMSD: 0.264
# Mean RMSD: 0.264
data_MOF--net-unw--node1-MUDLON_clean_sbu_0--edge1-KIFKEQ_clean_linker_1
_symmetry_space_group_name_H-M    P1
_symmetry_Int_Tables_number       1
_symmetry_cell_setting            triclinic
loop_
_symmetry_equiv_pos_as_xyz
'x, y, z'
_cell_length_a     50.73407
_cell_length_b     50.008717
_cell_length_c     49.987771
_cell_angle_alpha  89.995197
_cell_angle_beta   89.980008
_cell_angle_gamma 90.182227
loop_
_atom_site_label
_atom_site_type_symbol
_atom_site_fract_x
_atom_site_fract_y
_atom_site_fract_z
_atom_type_partial_charge
Mg0 Mg 0.13584 0.3848 0.25314 0.0
C1 C 0.18184 0.3512 0.26957 0.0
O2 O 0.19059 0.36058 0.24669 0.0
C3 C 0.17174 0.43369 0.25744 0.0
O4 O 0.18633 0.41655 0.27067 0.0
C5 C 0.09015 0.37885 0.29103 0.0
O6 O 0.10764 0.39066 0.30644 0.0
O7 O 0.09563 0.37552 0.26638 0.0
O8 O 0.16037 0.3603 0.27899 0.0
O9 O 0.14555 0.36772 0.21437 0.0
C10 C 0.15823 0.38208 0.19771 0.0
O11 O 0.15689 0.40819 0.19989 0.0
O12 O 0.14853 0.42679 0.25049 0.0
Mg13 Mg 0.6312 0.14188 0.25441 0.0
C14 C 0.63098 0.16289 0.1982 0.0
O15 O 0.60603 0.15578 0.19838 0.0
C16 C 0.65594 0.08716 0.25691 0.0
O17 O 0.66847 0.09747 0.23632 0.0
C18 C 0.58931 0.18328 0.24935 0.0
O19 O 0.61089 0.19785 0.25036 0.0
O20 O 0.59117 0.15819 0.25354 0.0
O21 O 0.64642 0.15228 0.21515 0.0
O22 O 0.65778 0.16434 0.28018 0.0
C23 C 0.68175 0.16339 0.27266 0.0
O24 O 0.68763 0.14978 0.25103 0.0
O25 O 0.63697 0.10028 0.26711 0.0
Mg26 Mg 0.84473 0.64338 0.30583 0.0
C27 C 0.84198 0.68061 0.35393 0.0
O28 O 0.86599 0.67172 0.35767 0.0
C29 C 0.84097 0.58927 0.28187 0.0
O30 O 0.86047 0.60042 0.26859 0.0
C31 C 0.90158 0.64032 0.3245 0.0
O32 O 0.89103 0.62128 0.33917 0.0
O33 O 0.88737 0.6514 0.30668 0.0
O34 O 0.82742 0.66901 0.33672 0.0
O35 O 0.82501 0.65951 0.27109 0.0
C36 C 0.80022 0.6584 0.27488 0.0
O37 O 0.79143 0.64867 0.29763 0.0
O38 O 0.83154 0.60169 0.30196 0.0
Mg39 Mg 0.35702 0.87053 0.24655 0.0
C40 C 0.35063 0.86787 0.18323 0.0
O41 O 0.34731 0.88082 0.16061 0.0
C42 C 0.34159 0.92512 0.26424 0.0
O43 O 0.32914 0.92272 0.24133 0.0
C44 C 0.41488 0.85862 0.23924 0.0
O45 O 0.41496 0.88474 0.23647 0.0
O46 O 0.3935 0.84699 0.24589 0.0
O47 O 0.35102 0.88155 0.2048 0.0
O48 O 0.32184 0.84988 0.26131 0.0
C49 C 0.29993 0.85528 0.25017 0.0
O50 O 0.29984 0.87098 0.2291 0.0
O51 O 0.35724 0.90656 0.27137 0.0
Mg52 Mg 0.11606 0.64216 0.76313 0.0
C53 C 0.12576 0.67152 0.71229 0.0
O54 O 0.10093 0.67751 0.71631 0.0
C55 C 0.14003 0.58592 0.77045 0.0
O56 O 0.15132 0.59126 0.74739 0.0
C57 C 0.06031 0.64473 0.74223 0.0
O58 O 0.06891 0.62296 0.73041 0.0
O59 O 0.07506 0.65589 0.7596 0.0
O60 O 0.1358 0.65251 0.72576 0.0
O61 O 0.14035 0.66705 0.78891 0.0
C62 C 0.16461 0.66218 0.78453 0.0
O63 O 0.17065 0.64322 0.76744 0.0
O64 O 0.12303 0.60216 0.77974 0.0
Mg65 Mg 0.38062 0.13369 0.77954 0.0
C66 C 0.37174 0.18361 0.80644 0.0
O67 O 0.39164 0.1874 0.79004 0.0
C68 C 0.37123 0.07997 0.7565 0.0
O69 O 0.38558 0.09225 0.73835 0.0
C70 C 0.4279 0.1417 0.81249 0.0
O71 O 0.40945 0.13384 0.82922 0.0
O72 O 0.42265 0.14135 0.78754 0.0
O73 O 0.36129 0.16044 0.8077 0.0
O74 O 0.36348 0.14939 0.74294 0.0
C75 C 0.33938 0.14217 0.74184 0.0
O76 O 0.32998 0.12699 0.76107 0.0
O77 O 0.36757 0.09166 0.77887 0.0
Mg78 Mg 0.88525 0.37786 0.74967 0.0
C79 C 0.87776 0.34785 0.69781 0.0
O80 O 0.9031 0.35241 0.69522 0.0
C81 C 0.85136 0.42305 0.76136 0.0
O82 O 0.8354 0.4027 0.7573 0.0
C83 C 0.94227 0.37674 0.73071 0.0
O84 O 0.93487 0.39919 0.71932 0.0
O85 O 0.92639 0.36516 0.74669 0.0
O86 O 0.86497 0.36079 0.71543 0.0
O87 O 0.86441 0.35893 0.78259 0.0
C88 C 0.85148 0.33747 0.77866 0.0
O89 O 0.85561 0.32387 0.7566 0.0
O90 O 0.87591 0.41973 0.75711 0.0
Mg91 Mg 0.62636 0.87815 0.75259 0.0
C92 C 0.63183 0.82797 0.78021 0.0
O93 O 0.60983 0.82611 0.76648 0.0
C94 C 0.67032 0.91789 0.74728 0.0
O95 O 0.68338 0.89525 0.74805 0.0
C96 C 0.58276 0.87708 0.79114 0.0
O97 O 0.60378 0.88221 0.80564 0.0
O98 O 0.58519 0.87686 0.76577 0.0
O99 O 0.64502 0.84964 0.77909 0.0
O100 O 0.6353 0.85929 0.71459 0.0
C101 C 0.64709 0.87244 0.69635 0.0
O102 O 0.64604 0.89867 0.69681 0.0
O103 O 0.64551 0.91733 0.75126 0.0
Mg104 Mg 0.27219 0.13662 0.38119 0.0
C105 C 0.31502 0.13195 0.34345 0.0
O106 O 0.29622 0.11604 0.33481 0.0
C107 C 0.25999 0.17419 0.42644 0.0
O108 O 0.26689 0.19101 0.40753 0.0
C109 C 0.28497 0.07909 0.3817 0.0
O110 O 0.30277 0.08963 0.39766 0.0
O111 O 0.26616 0.09391 0.37371 0.0
O112 O 0.31223 0.14277 0.36636 0.0
O113 O 0.2496 0.16381 0.35544 0.0
C114 C 0.2624 0.18423 0.34725 0.0
O115 O 0.28732 0.18665 0.35384 0.0
O116 O 0.26236 0.1492 0.42206 0.0
Mg117 Mg 0.87954 0.27461 0.39291 0.0
C118 C 0.87145 0.32769 0.36681 0.0
O119 O 0.89702 0.32597 0.36329 0.0
C120 C 0.85688 0.26582 0.44928 0.0
O121 O 0.84255 0.28668 0.44284 0.0
C122 C 0.93802 0.28914 0.38781 0.0
O123 O 0.93442 0.29684 0.41267 0.0
O124 O 0.91932 0.2771 0.37576 0.0
O125 O 0.86063 0.31259 0.38414 0.0
O126 O 0.85377 0.24881 0.36951 0.0
C127 C 0.82951 0.25405 0.37339 0.0
O128 O 0.82335 0.27277 0.39069 0.0
O129 O 0.87521 0.25843 0.4335 0.0
Mg130 Mg 0.76954 0.88226 0.35767 0.0
C131 C 0.82972 0.87788 0.35036 0.0
O132 O 0.85355 0.88762 0.34695 0.0
C133 C 0.75547 0.94059 0.35164 0.0
O134 O 0.78101 0.9415 0.34741 0.0
C135 C 0.78943 0.8651 0.41102 0.0
O136 O 0.80215 0.88762 0.40671 0.0
O137 O 0.77195 0.85784 0.39418 0.0
O138 O 0.80999 0.89339 0.34815 0.0
O139 O 0.7529 0.86187 0.32313 0.0
C140 C 0.7513 0.87666 0.30247 0.0
O141 O 0.76083 0.90109 0.30364 0.0
O142 O 0.74528 0.91859 0.35939 0.0
Mg143 Mg 0.11608 0.76625 0.38976 0.0
C144 C 0.1282 0.72174 0.35192 0.0
O145 O 0.10336 0.72619 0.34611 0.0
C146 C 0.15416 0.78507 0.43095 0.0
O147 O 0.168 0.78543 0.40873 0.0
C148 C 0.06782 0.73172 0.39253 0.0
O149 O 0.0856 0.71712 0.4048 0.0
O150 O 0.0742 0.75534 0.38537 0.0
O151 O 0.13853 0.73403 0.37163 0.0
O152 O 0.13 0.79917 0.365 0.0
C153 C 0.13149 0.79684 0.33971 0.0
O154 O 0.11817 0.77764 0.32791 0.0
O155 O 0.13048 0.77642 0.42999 0.0
Mg156 Mg 0.25928 0.87903 0.64773 0.0
C157 C 0.23369 0.83703 0.68298 0.0
O158 O 0.2566 0.83807 0.69514 0.0
C159 C 0.26421 0.92288 0.68784 0.0
O160 O 0.26185 0.90153 0.70299 0.0
C161 C 0.22826 0.87324 0.59793 0.0
O162 O 0.21093 0.88164 0.61556 0.0
O163 O 0.25243 0.87223 0.60489 0.0
O164 O 0.22852 0.85407 0.66486 0.0
O165 O 0.29534 0.86244 0.66408 0.0
C166 C 0.31325 0.87846 0.67196 0.0
O167 O 0.31436 0.90247 0.66134 0.0
O168 O 0.26073 0.92031 0.66268 0.0
Mg169 Mg 0.14647 0.26536 0.63668 0.0
C170 C 0.14668 0.31719 0.66775 0.0
O171 O 0.12265 0.31881 0.65821 0.0
C172 C 0.15258 0.2401 0.58379 0.0
O173 O 0.1408 0.22145 0.598 0.0
C174 C 0.08807 0.27747 0.63587 0.0
O175 O 0.09487 0.28771 0.61264 0.0
O176 O 0.10505 0.26387 0.6487 0.0
O177 O 0.1621 0.29946 0.65846 0.0
O178 O 0.17095 0.23384 0.65286 0.0
C179 C 0.19459 0.23572 0.64444 0.0
O180 O 0.20044 0.25483 0.62739 0.0
O181 O 0.15538 0.26324 0.59405 0.0
Mg182 Mg 0.77279 0.13118 0.65302 0.0
C183 C 0.81014 0.1608 0.68938 0.0
O184 O 0.79153 0.15648 0.70712 0.0
C185 C 0.74622 0.07835 0.6511 0.0
O186 O 0.72863 0.09428 0.64029 0.0
C187 C 0.79596 0.14571 0.6013 0.0
O188 O 0.81381 0.1309 0.61321 0.0
O189 O 0.77344 0.14794 0.61242 0.0
O190 O 0.80957 0.14785 0.66755 0.0
O191 O 0.74302 0.14704 0.68048 0.0
C192 C 0.73816 0.13243 0.70082 0.0
O193 O 0.74981 0.10911 0.70277 0.0
O194 O 0.76905 0.08777 0.65603 0.0
Mg195 Mg 0.86104 0.75301 0.62945 0.0
C196 C 0.85652 0.69988 0.65751 0.0
O197 O 0.88212 0.69934 0.65386 0.0
C198 C 0.84661 0.75166 0.56889 0.0
O199 O 0.8328 0.73026 0.57504 0.0
C200 C 0.91891 0.74215 0.63873 0.0
O201 O 0.91633 0.73398 0.61388 0.0
O202 O 0.89948 0.75393 0.64971 0.0
O203 O 0.84286 0.71621 0.64382 0.0
O204 O 0.83209 0.78173 0.64386 0.0
C205 C 0.80927 0.77546 0.63521 0.0
O206 O 0.80694 0.75398 0.62028 0.0
O207 O 0.86151 0.76219 0.58654 0.0
Mg208 Mg 0.37793 0.26863 0.14066 0.0
C209 C 0.37336 0.24203 0.19074 0.0
O210 O 0.38009 0.26698 0.19549 0.0
C211 C 0.36592 0.28968 0.08752 0.0
O212 O 0.37758 0.30951 0.10012 0.0
C213 C 0.43184 0.25004 0.14525 0.0
O214 O 0.41894 0.23095 0.13274 0.0
O215 O 0.42013 0.27226 0.14893 0.0
O216 O 0.36977 0.23474 0.16659 0.0
O217 O 0.35109 0.29914 0.15542 0.0
C218 C 0.32825 0.28912 0.15902 0.0
O219 O 0.3248 0.26339 0.15507 0.0
O220 O 0.36524 0.26686 0.09889 0.0
Mg221 Mg 0.36464 0.78679 0.88628 0.0
C222 C 0.36344 0.84243 0.86239 0.0
O223 O 0.38874 0.84247 0.86777 0.0
C224 C 0.34158 0.77911 0.94318 0.0
O225 O 0.32612 0.79907 0.93659 0.0
C226 C 0.42267 0.79876 0.88455 0.0
O227 O 0.41647 0.80774 0.90844 0.0
O228 O 0.40512 0.78637 0.87119 0.0
O229 O 0.34871 0.82535 0.87399 0.0
O230 O 0.33827 0.76027 0.86459 0.0
C231 C 0.31423 0.76721 0.86676 0.0
O232 O 0.30853 0.78852 0.88095 0.0
O233 O 0.36011 0.77235 0.92738 0.0
Mg234 Mg 0.24048 0.38225 0.88536 0.0
C235 C 0.18899 0.37526 0.85502 0.0
O236 O 0.18566 0.40041 0.86156 0.0
C237 C 0.25122 0.34661 0.93185 0.0
O238 O 0.24595 0.32952 0.91259 0.0
C239 C 0.22017 0.43968 0.88518 0.0
O240 O 0.20734 0.43067 0.9062 0.0
O241 O 0.23738 0.42468 0.87434 0.0
O242 O 0.20743 0.36212 0.86612 0.0
O243 O 0.2717 0.36188 0.864 0.0
C244 C 0.29295 0.35439 0.87514 0.0
O245 O 0.29919 0.3641 0.89873 0.0
O246 O 0.24809 0.37148 0.92719 0.0
Mg247 Mg 0.64184 0.25941 0.89291 0.0
C248 C 0.65336 0.20586 0.86709 0.0
O249 O 0.62759 0.20386 0.86763 0.0
C250 C 0.66117 0.26113 0.95183 0.0
O251 O 0.67165 0.23791 0.94581 0.0
C252 C 0.58704 0.23595 0.89297 0.0
O253 O 0.59667 0.22644 0.91543 0.0
O254 O 0.60097 0.25256 0.87973 0.0
O255 O 0.66446 0.22469 0.88005 0.0
O256 O 0.66394 0.28847 0.86933 0.0
C257 C 0.68533 0.29585 0.8805 0.0
O258 O 0.68961 0.28866 0.90537 0.0
O259 O 0.64657 0.2727 0.93466 0.0
Mg260 Mg 0.75448 0.63232 0.87429 0.0
C261 C 0.78506 0.6728 0.84285 0.0
O262 O 0.76383 0.68696 0.84769 0.0
C263 C 0.74918 0.66683 0.92367 0.0
O264 O 0.7625 0.68325 0.90819 0.0
C265 C 0.78402 0.58192 0.86627 0.0
O266 O 0.80178 0.59742 0.87756 0.0
O267 O 0.76044 0.59036 0.86441 0.0
O268 O 0.78846 0.65115 0.85571 0.0
O269 O 0.72292 0.64955 0.851 0.0
C270 C 0.70285 0.65983 0.86215 0.0
O271 O 0.69832 0.65489 0.88754 0.0
O272 O 0.7453 0.64293 0.91576 0.0
Mg273 Mg 0.62115 0.75774 0.12673 0.0
C274 C 0.63958 0.8115 0.1502 0.0
O275 O 0.61435 0.81653 0.15302 0.0
C276 C 0.64319 0.75614 0.07016 0.0
O277 O 0.65147 0.78007 0.07711 0.0
C278 C 0.57821 0.76899 0.16628 0.0
O279 O 0.59897 0.76587 0.18168 0.0
O280 O 0.58089 0.76559 0.14114 0.0
O281 O 0.64668 0.79112 0.1369 0.0
O282 O 0.64141 0.72824 0.15072 0.0
C283 C 0.66574 0.72772 0.14448 0.0
O284 O 0.6738 0.74229 0.12417 0.0
O285 O 0.62781 0.7435 0.08586 0.0
Mg286 Mg 0.26957 0.64707 0.15208 0.0
C287 C 0.3241 0.67284 0.15844 0.0
O288 O 0.32746 0.66555 0.13347 0.0
C289 C 0.27072 0.58873 0.17267 0.0
O290 O 0.29248 0.59633 0.18475 0.0
C291 C 0.28426 0.65567 0.09384 0.0
O292 O 0.29744 0.6336 0.09863 0.0
O293 O 0.26877 0.66452 0.1118 0.0
O294 O 0.30463 0.66338 0.17144 0.0
O295 O 0.23978 0.66379 0.17821 0.0
C296 C 0.24423 0.65722 0.2024 0.0
O297 O 0.26511 0.64268 0.20765 0.0
O298 O 0.2598 0.60453 0.15608 0.0
Mg299 Mg 0.73194 0.38768 0.16512 0.0
C300 C 0.76591 0.35174 0.19906 0.0
O301 O 0.74502 0.33627 0.19738 0.0
C302 C 0.73622 0.35639 0.11426 0.0
O303 O 0.74757 0.34032 0.13153 0.0
C304 C 0.75451 0.44178 0.17422 0.0
O305 O 0.77097 0.43112 0.15698 0.0
O306 O 0.73338 0.42907 0.17977 0.0
O307 O 0.76713 0.3726 0.18457 0.0
O308 O 0.70031 0.3629 0.18106 0.0
C309 C 0.68255 0.35395 0.16543 0.0
O310 O 0.67983 0.36491 0.14172 0.0
O311 O 0.7298 0.3798 0.12193 0.0
H312 H 0.21783 0.57864 0.16939 0.0
H313 H 0.29047 0.54516 0.19899 0.0
H314 H 0.19309 0.54289 0.19076 0.0
H315 H 0.26599 0.50829 0.21906 0.0
H316 H 0.2159 0.4595 0.27524 0.0
H317 H 0.23918 0.4966 0.25428 0.0
H318 H 0.18018 0.49894 0.19186 0.0
H319 H 0.15616 0.46306 0.21395 0.0
C320 C 0.22861 0.56321 0.17992 0.0
C321 C 0.25618 0.56477 0.18243 0.0
C322 C 0.21436 0.54255 0.19222 0.0
C323 C 0.2273 0.5225 0.20701 0.0
C324 C 0.25506 0.5236 0.20858 0.0
C325 C 0.26924 0.54459 0.19672 0.0
C326 C 0.20771 0.46827 0.25727 0.0
C327 C 0.18412 0.45832 0.24635 0.0
C328 C 0.22129 0.48937 0.24494 0.0
C329 C 0.21199 0.5008 0.22095 0.0
C330 C 0.188 0.49113 0.21041 0.0
C331 C 0.17414 0.47039 0.22308 0.0
H332 H 0.54284 0.15775 0.23719 0.0
H333 H 0.58087 0.2351 0.234 0.0
H334 H 0.50548 0.17568 0.21231 0.0
H335 H 0.54367 0.25288 0.20884 0.0
H336 H 0.4588 0.27928 0.18337 0.0
H337 H 0.49615 0.26428 0.21056 0.0
H338 H 0.49828 0.19025 0.16618 0.0
H339 H 0.46119 0.20502 0.13932 0.0
C340 C 0.54312 0.17865 0.23152 0.0
C341 C 0.56493 0.19491 0.23763 0.0
C342 C 0.52179 0.18889 0.217 0.0
C343 C 0.52169 0.21567 0.20825 0.0
C344 C 0.543 0.23223 0.21535 0.0
C345 C 0.56437 0.22197 0.22979 0.0
C346 C 0.46754 0.26001 0.17915 0.0
C347 C 0.45689 0.24335 0.15919 0.0
C348 C 0.48889 0.25135 0.1948 0.0
C349 C 0.49993 0.22582 0.1909 0.0
C350 C 0.48988 0.20973 0.17022 0.0
C351 C 0.46873 0.21836 0.1546 0.0
H352 H 0.73838 0.45768 0.22442 0.0
H353 H 0.791 0.47907 0.16001 0.0
H354 H 0.7586 0.49208 0.2527 0.0
H355 H 0.81044 0.51389 0.18759 0.0
H356 H 0.86215 0.55214 0.2486 0.0
H357 H 0.83952 0.51719 0.22379 0.0
H358 H 0.76622 0.53846 0.26224 0.0
H359 H 0.78937 0.57298 0.28796 0.0
C360 C 0.75382 0.47014 0.21608 0.0
C361 C 0.76316 0.4655 0.18998 0.0
C362 C 0.76549 0.48987 0.23233 0.0
C363 C 0.78666 0.50554 0.22277 0.0
C364 C 0.79485 0.50174 0.19611 0.0
C365 C 0.78345 0.48193 0.18008 0.0
C366 C 0.84128 0.54911 0.2521 0.0
C367 C 0.82761 0.56541 0.27026 0.0
C368 C 0.82815 0.52923 0.23757 0.0
C369 C 0.80078 0.52526 0.24037 0.0
C370 C 0.78727 0.54079 0.25948 0.0
C371 C 0.80055 0.56058 0.27433 0.0
H372 H 0.52887 0.77161 0.14322 0.0
H373 H 0.57106 0.79005 0.21601 0.0
H374 H 0.48875 0.79112 0.16252 0.0
H375 H 0.53132 0.80972 0.23489 0.0
H376 H 0.46602 0.87528 0.23948 0.0
H377 H 0.50466 0.85162 0.22262 0.0
H378 H 0.45588 0.78361 0.20279 0.0
H379 H 0.41708 0.80719 0.22017 0.0
C380 C 0.52957 0.77964 0.16333 0.0
C381 C 0.55323 0.77927 0.17801 0.0
C382 C 0.50659 0.7907 0.17441 0.0
C383 C 0.50693 0.80204 0.20019 0.0
C384 C 0.53047 0.80131 0.21493 0.0
C385 C 0.55323 0.78991 0.20409 0.0
C386 C 0.46356 0.85515 0.23185 0.0
C387 C 0.43853 0.84305 0.23137 0.0
C388 C 0.4857 0.84159 0.22221 0.0
C389 C 0.4833 0.81577 0.21132 0.0
C390 C 0.4583 0.80354 0.21094 0.0
C391 C 0.43617 0.81693 0.22113 0.0
H392 H 0.17437 0.46686 0.89417 0.0
H393 H 0.24239 0.46571 0.84226 0.0
H394 H 0.15437 0.50112 0.86654 0.0
H395 H 0.22297 0.50112 0.81518 0.0
H396 H 0.17049 0.54346 0.75513 0.0
H397 H 0.19016 0.50925 0.78346 0.0
H398 H 0.15391 0.54535 0.85287 0.0
H399 H 0.13329 0.57861 0.82431 0.0
C400 C 0.18539 0.47437 0.87717 0.0
C401 C 0.21004 0.46344 0.87049 0.0
C402 C 0.17388 0.49418 0.86125 0.0
C403 C 0.18683 0.504 0.83832 0.0
C404 C 0.21199 0.49374 0.83224 0.0
C405 C 0.22336 0.47362 0.848 0.0
C406 C 0.16648 0.54387 0.77641 0.0
C407 C 0.15017 0.56372 0.78737 0.0
C408 C 0.17805 0.5244 0.79279 0.0
C409 C 0.17396 0.52446 0.82069 0.0
C410 C 0.15733 0.54421 0.83153 0.0
C411 C 0.14547 0.56343 0.8151 0.0
H412 H 0.56142 0.24896 0.84602 0.0
H413 H 0.55862 0.19402 0.91262 0.0
H414 H 0.52361 0.22609 0.82579 0.0
H415 H 0.52195 0.17069 0.89213 0.0
H416 H 0.43997 0.1506 0.86469 0.0
H417 H 0.47716 0.1745 0.88327 0.0
H418 H 0.50895 0.18592 0.80385 0.0
H419 H 0.4706 0.16266 0.78497 0.0
C420 C 0.55271 0.23209 0.8564 0.0
C421 C 0.56297 0.22355 0.88112 0.0
C422 C 0.5312 0.21876 0.84464 0.0
C423 C 0.51951 0.19646 0.85725 0.0
C424 C 0.5299 0.18804 0.88196 0.0
C425 C 0.55113 0.20146 0.89376 0.0
C426 C 0.4549 0.15798 0.85105 0.0
C427 C 0.45226 0.15448 0.82326 0.0
C428 C 0.47645 0.17169 0.8618 0.0
C429 C 0.49637 0.18212 0.8452 0.0
C430 C 0.49391 0.17846 0.81731 0.0
C431 C 0.47206 0.16486 0.80647 0.0
H432 H 0.75643 0.55229 0.82953 0.0
H433 H 0.8313 0.55637 0.87043 0.0
H434 H 0.77266 0.51529 0.80248 0.0
H435 H 0.84726 0.51881 0.84411 0.0
H436 H 0.87824 0.46898 0.77509 0.0
H437 H 0.86134 0.50723 0.80016 0.0
H438 H 0.78452 0.46976 0.80357 0.0
H439 H 0.80106 0.43232 0.77783 0.0
C440 C 0.77619 0.54497 0.8331 0.0
C441 C 0.79254 0.5573 0.85217 0.0
C442 C 0.78554 0.52371 0.81757 0.0
C443 C 0.81142 0.51409 0.82087 0.0
C444 C 0.82747 0.52601 0.84051 0.0
C445 C 0.81818 0.54738 0.85587 0.0
C446 C 0.85767 0.46913 0.7809 0.0
C447 C 0.84105 0.44757 0.7744 0.0
C448 C 0.84801 0.49093 0.79554 0.0
C449 C 0.82154 0.49159 0.80415 0.0
C450 C 0.80487 0.47024 0.79706 0.0
C451 C 0.81446 0.44862 0.78233 0.0
H452 H 0.53488 0.86377 0.7685 0.0
H453 H 0.57597 0.86676 0.84411 0.0
H454 H 0.49649 0.84424 0.79095 0.0
H455 H 0.53853 0.84635 0.86613 0.0
H456 H 0.45865 0.83436 0.90401 0.0
H457 H 0.49586 0.85426 0.88096 0.0
H458 H 0.48012 0.80469 0.81191 0.0
H459 H 0.44188 0.78553 0.83478 0.0
C460 C 0.5357 0.86036 0.78988 0.0
C461 C 0.55846 0.86707 0.80449 0.0
C462 C 0.5138 0.84887 0.80274 0.0
C463 C 0.51426 0.84361 0.83046 0.0
C464 C 0.53706 0.8505 0.84493 0.0
C465 C 0.55871 0.86219 0.83219 0.0
C466 C 0.46321 0.82744 0.88401 0.0
C467 C 0.44726 0.80822 0.87134 0.0
C468 C 0.4847 0.83886 0.87073 0.0
C469 C 0.49119 0.83117 0.84445 0.0
C470 C 0.47555 0.81149 0.83194 0.0
C471 C 0.45379 0.80023 0.84518 0.0
H472 H 0.1917 0.26768 0.55766 0.0
H473 H 0.14602 0.19476 0.55421 0.0
H474 H 0.21897 0.25187 0.52075 0.0
H475 H 0.17264 0.1793 0.5168 0.0
H476 H 0.24139 0.14574 0.46968 0.0
H477 H 0.21544 0.1626 0.50718 0.0
H478 H 0.22022 0.24245 0.47442 0.0
H479 H 0.24681 0.22582 0.43768 0.0
C480 C 0.18711 0.24852 0.54865 0.0
C481 C 0.16667 0.2325 0.55891 0.0
C482 C 0.20279 0.2394 0.52747 0.0
C483 C 0.19828 0.2141 0.51587 0.0
C484 C 0.17718 0.19856 0.52558 0.0
C485 C 0.16167 0.20759 0.54687 0.0
C486 C 0.23716 0.16694 0.47068 0.0
C487 C 0.24622 0.18437 0.45062 0.0
C488 C 0.22202 0.17661 0.49205 0.0
C489 C 0.21543 0.20392 0.4938 0.0
C490 C 0.22507 0.22138 0.47401 0.0
C491 C 0.2403 0.21177 0.4528 0.0
H492 H 0.7656 0.18031 0.57122 0.0
H493 H 0.84447 0.14884 0.57829 0.0
H494 H 0.78029 0.20915 0.53451 0.0
H495 H 0.85928 0.1781 0.54276 0.0
H496 H 0.87424 0.21551 0.46169 0.0
H497 H 0.85829 0.18592 0.49677 0.0
H498 H 0.80588 0.2479 0.52473 0.0
H499 H 0.82119 0.27715 0.48886 0.0
C500 C 0.786 0.17945 0.56491 0.0
C501 C 0.80376 0.1621 0.57769 0.0
C502 C 0.79454 0.1962 0.54403 0.0
C503 C 0.82108 0.19613 0.53553 0.0
C504 C 0.83864 0.17852 0.54824 0.0
C505 C 0.83009 0.16172 0.56884 0.0
C506 C 0.85949 0.22295 0.47545 0.0
C507 C 0.84911 0.2488 0.47245 0.0
C508 C 0.8503 0.20594 0.4957 0.0
C509 C 0.83067 0.21436 0.51376 0.0
C510 C 0.82063 0.24043 0.511 0.0
C511 C 0.82965 0.25737 0.49057 0.0
H512 H 0.83513 0.86811 0.43914 0.0
H513 H 0.76377 0.82138 0.43258 0.0
H514 H 0.85072 0.83911 0.47443 0.0
H515 H 0.77865 0.79296 0.46942 0.0
H516 H 0.82035 0.73385 0.52418 0.0
H517 H 0.80737 0.75982 0.48496 0.0
H518 H 0.84516 0.82964 0.51888 0.0
H519 H 0.8592 0.80342 0.55696 0.0
C520 C 0.8225 0.85183 0.44556 0.0
C521 C 0.798 0.84732 0.43321 0.0
C522 C 0.83143 0.83515 0.46603 0.0
C523 C 0.8159 0.81371 0.47534 0.0
C524 C 0.7914 0.80902 0.46276 0.0
C525 C 0.78267 0.82549 0.44178 0.0
C526 C 0.82624 0.75465 0.52296 0.0
C527 C 0.84099 0.76645 0.54369 0.0
C528 C 0.81852 0.76969 0.50058 0.0
C529 C 0.82503 0.79704 0.49852 0.0
C530 C 0.84014 0.8086 0.51919 0.0
C531 C 0.84818 0.7935 0.54126 0.0
H532 H 0.13129 0.78996 0.48073 0.0
H533 H 0.20328 0.80651 0.43759 0.0
H534 H 0.15001 0.81103 0.52056 0.0
H535 H 0.22166 0.8281 0.47697 0.0
H536 H 0.25593 0.84379 0.56078 0.0
H537 H 0.23846 0.82122 0.52114 0.0
H538 H 0.16153 0.85437 0.53718 0.0
H539 H 0.17878 0.87627 0.57691 0.0
C540 C 0.1511 0.79802 0.47973 0.0
C541 C 0.16569 0.79653 0.45588 0.0
C542 C 0.16181 0.81033 0.50252 0.0
C543 C 0.18738 0.82151 0.50206 0.0
C544 C 0.20208 0.81952 0.4783 0.0
C545 C 0.19142 0.8072 0.45558 0.0
C546 C 0.23536 0.84647 0.55567 0.0
C547 C 0.2188 0.86186 0.57211 0.0
C548 C 0.22529 0.83351 0.53291 0.0
C549 C 0.19843 0.83567 0.52599 0.0
C550 C 0.18213 0.85167 0.54212 0.0
C551 C 0.19214 0.86451 0.56482 0.0
H552 H 0.72144 0.92366 0.73076 0.0
H553 H 0.64821 0.96697 0.73773 0.0
H554 H 0.74096 0.96122 0.70674 0.0
H555 H 0.66793 1.00475 0.71415 0.0
H556 H 0.6989 0.0532 0.64437 0.0
H557 H 0.68176 0.01484 0.66881 0.0
H558 H 0.75594 1.00736 0.71047 0.0
H559 H 0.77332 0.04562 0.68561 0.0
C560 C 0.70961 0.94137 0.7276 0.0
C561 C 0.68318 0.94221 0.73614 0.0
C562 C 0.72086 0.96295 0.71381 0.0
C563 C 0.70595 0.98592 0.70817 0.0
C564 C 0.67983 0.98715 0.71762 0.0
C565 C 0.66858 0.96558 0.73142 0.0
C566 C 0.71173 0.0432 0.65847 0.0
C567 C 0.73749 0.05258 0.66303 0.0
C568 C 0.70177 0.02134 0.67274 0.0
C569 C 0.71728 1.00825 0.69199 0.0
C570 C 0.74345 0.01691 0.69576 0.0
C571 C 0.75344 0.03883 0.68145 0.0
H572 H 0.96188 0.71429 0.62161 0.0
H573 H 0.92621 0.74613 0.69328 0.0
H574 H 0.99479 0.69155 0.64861 0.0
H575 H 0.95934 0.72312 0.72043 0.0
H576 H 0.04152 0.69483 0.75507 0.0
H577 H 0.00785 0.72051 0.73119 0.0
H578 H 0.99357 0.65299 0.67935 0.0
H579 H 0.02703 0.62749 0.70294 0.0
C580 C 0.96121 0.71674 0.64312 0.0
C581 C 0.94123 0.732 0.6552 0.0
C582 C 0.97999 0.70346 0.65865 0.0
C583 C 0.97945 0.70508 0.68674 0.0
C584 C 0.96031 0.72142 0.69885 0.0
C585 C 0.94135 0.73466 0.68326 0.0
C586 C 0.03088 0.68532 0.73886 0.0
C587 C 0.03717 0.65909 0.73087 0.0
C588 C 0.0116 0.70008 0.72515 0.0
C589 C 0.99834 0.68899 0.70303 0.0
C590 C 1.00382 0.66238 0.69589 0.0
C591 C 0.0229 0.64764 0.70962 0.0
H592 H 0.33181 0.05393 0.78441 0.0
H593 H 0.37595 0.05103 0.71057 0.0
H594 H 0.30395 0.0171 0.76857 0.0
H595 H 0.3485 0.01431 0.695 0.0
H596 H 0.27859 0.96904 0.66163 0.0
H597 H 0.30381 1.00666 0.67951 0.0
H598 H 0.30411 0.96946 0.75748 0.0
H599 H 0.27853 0.93216 0.73977 0.0
C600 C 0.33584 0.04522 0.765 0.0
C601 C 0.35614 0.05554 0.74879 0.0
C602 C 0.31983 0.02412 0.75587 0.0
C603 C 0.32368 0.01293 0.73029 0.0
C604 C 0.34449 0.02279 0.71451 0.0
C605 C 0.36046 0.04374 0.72362 0.0
C606 C 0.28365 0.96907 0.68267 0.0
C607 C 0.27643 0.94752 0.6992 0.0
C608 C 0.29837 0.99054 0.69291 0.0
C609 C 0.3063 0.99103 0.71993 0.0
C610 C 0.29823 0.96993 0.73666 0.0
C611 C 0.28354 0.94847 0.72643 0.0
H612 H 0.04902 0.3089 0.61535 0.0
H613 H 0.07383 0.27043 0.68847 0.0
H614 H 0.01447 0.33216 0.63977 0.0
H615 H 0.03945 0.2941 0.713 0.0
H616 H 0.95806 0.32551 0.7423 0.0
H617 H 0.99197 0.29941 0.71961 0.0
H618 H 0.01271 0.36842 0.67202 0.0
H619 H 0.97863 0.39434 0.69433 0.0
C620 C 0.04693 0.30512 0.63658 0.0
C621 C 0.06433 0.28783 0.6499 0.0
C622 C 0.02727 0.31872 0.65066 0.0
C623 C 0.02446 0.31543 0.67848 0.0
C624 C 0.041 0.29711 0.69161 0.0
C625 C 0.06071 0.28347 0.67749 0.0
C626 C 0.97011 0.33524 0.72728 0.0
C627 C 0.96549 0.36205 0.7201 0.0
C628 C 0.98956 0.32023 0.71423 0.0
C629 C 0.00482 0.33165 0.69365 0.0
C630 C 1.00091 0.35877 0.6873 0.0
C631 C 0.98152 0.37375 0.70033 0.0
H632 H 0.7718 0.98872 0.33213 0.0
H633 H 0.70117 0.94314 0.34869 0.0
H634 H 0.74559 0.02271 0.30991 0.0
H635 H 0.67478 0.97755 0.3263 0.0
H636 H 0.6388 0.06263 0.30328 0.0
H637 H 0.66114 0.02715 0.3284 0.0
H638 H 0.72057 0.02254 0.26681 0.0
H639 H 0.6985 0.05764 0.24183 0.0
C640 C 0.75062 0.98606 0.33136 0.0
C641 C 0.73868 0.96301 0.34207 0.0
C642 C 0.73559 1.00551 0.31841 0.0
C643 C 0.70814 1.00261 0.3159 0.0
C644 C 0.6959 0.98033 0.32786 0.0
C645 C 0.71103 0.96065 0.34072 0.0
C646 C 0.65641 0.05375 0.29493 0.0
C647 C 0.66693 0.0632 0.27059 0.0
C648 C 0.6692 0.03344 0.30933 0.0
C649 C 0.69288 0.02237 0.29983 0.0
C650 C 0.70268 0.03104 0.27498 0.0
C651 C 0.68986 0.05108 0.26054 0.0
H652 H 0.93159 0.62764 0.36795 0.0
H653 H 0.92924 0.68119 0.30023 0.0
H654 H 0.97042 0.65043 0.3847 0.0
H655 H 0.9691 0.70349 0.31645 0.0
H656 H 0.02545 0.755 0.36699 0.0
H657 H 0.98584 0.7328 0.34987 0.0
H658 H 0.01529 0.65699 0.37848 0.0
H659 H 0.05387 0.67922 0.39644 0.0
C660 C 0.93966 0.64399 0.35629 0.0
C661 C 0.92723 0.65245 0.33264 0.0
C662 C 0.96212 0.6571 0.36591 0.0
C663 C 0.97316 0.67895 0.35203 0.0
C664 C 0.96103 0.68708 0.32801 0.0
C665 C 0.93832 0.67406 0.31849 0.0
C666 C 0.02325 0.73365 0.36986 0.0
C667 C 0.04281 0.719 0.38332 0.0
C668 C 1.00065 0.72081 0.35978 0.0
C669 C 0.99715 0.69296 0.3627 0.0
C670 C 0.01681 0.67847 0.37621 0.0
C671 C 0.03914 0.69129 0.38649 0.0
H672 H 0.35149 0.92956 0.31813 0.0
H673 H 0.31536 0.97089 0.25184 0.0
H674 H 0.33579 0.96423 0.34859 0.0
H675 H 0.3005 1.00591 0.28191 0.0
H676 H 0.25601 0.0534 0.34289 0.0
H677 H 0.26945 0.0151 0.31598 0.0
H678 H 0.34148 1.00928 0.36171 0.0
H679 H 0.32758 0.04672 0.38915 0.0
C680 C 0.34057 0.94626 0.30999 0.0
C681 C 0.33468 0.94743 0.28254 0.0
C682 C 0.33151 0.96617 0.32746 0.0
C683 C 0.31654 0.98785 0.31786 0.0
C684 C 0.31132 0.98925 0.29025 0.0
C685 C 0.32014 0.96927 0.27289 0.0
C686 C 0.27445 0.0436 0.34754 0.0
C687 C 0.29073 0.05329 0.36813 0.0
C688 C 0.28236 0.02181 0.33188 0.0
C689 C 0.30684 1.00926 0.33627 0.0
C690 C 0.32247 0.0182 0.35773 0.0
C691 C 0.31448 0.03983 0.37349 0.0
H692 H 0.06798 0.3906 0.33927 0.0
H693 H 0.05863 0.33891 0.27078 0.0
H694 H 0.03161 0.36801 0.36155 0.0
H695 H 0.0229 0.3153 0.29354 0.0
H696 H 0.94375 0.29389 0.33344 0.0
H697 H 0.97933 0.31596 0.30914 0.0
H698 H 0.02095 0.32846 0.38358 0.0
H699 H 0.98476 0.30755 0.40785 0.0
C700 C 0.05811 0.37437 0.32894 0.0
C701 C 0.06625 0.3666 0.30322 0.0
C702 C 0.03738 0.36112 0.34187 0.0
C703 C 0.02439 0.33937 0.32968 0.0
C704 C 0.03214 0.33203 0.3036 0.0
C705 C 0.0527 0.34558 0.29049 0.0
C706 C 0.96067 0.30106 0.34458 0.0
C707 C 0.96135 0.299 0.37264 0.0
C708 C 0.98117 0.31376 0.3306 0.0
C709 C 1.00307 0.32446 0.34428 0.0
C710 C 1.00417 0.32126 0.37229 0.0
C711 C 0.98352 0.30893 0.38626 0.0
H712 H 0.75968 0.71264 0.95138 0.0
H713 H 0.7056 0.64592 0.94859 0.0
H714 H 0.73334 0.73324 0.98639 0.0
H715 H 0.67837 0.66707 0.98267 0.0
H716 H 0.6468 0.70223 0.06117 0.0
H717 H 0.67303 0.67957 0.02729 0.0
H718 H 0.69408 0.75611 0.993 0.0
H719 H 0.66892 0.77864 0.02774 0.0
C720 C 0.74217 0.70231 0.95833 0.0
C721 C 0.73481 0.6776 0.94721 0.0
C722 C 0.7268 0.7143 0.97822 0.0
C723 C 0.70331 0.70217 0.98724 0.0
C724 C 0.69637 0.67703 0.97657 0.0
C725 C 0.71201 0.66483 0.95694 0.0
C726 C 0.65676 0.71419 0.04617 0.0
C727 C 0.65578 0.74227 0.0472 0.0
C728 C 0.67187 0.70117 0.02665 0.0
C729 C 0.68612 0.71588 1.0074 0.0
C730 C 0.68411 0.74399 1.00784 0.0
C731 C 0.66936 0.75698 0.0276 0.0
H732 H 0.25641 0.69712 0.07151 0.0
H733 H 0.32926 0.65341 0.06428 0.0
H734 H 0.27033 0.72678 0.03534 0.0
H735 H 0.34398 0.68378 0.02959 0.0
H736 H 0.35552 0.72709 0.95126 0.0
H737 H 0.34052 0.69698 0.98613 0.0
H738 H 0.29758 0.76184 0.02309 0.0
H739 H 0.31139 0.79151 0.98695 0.0
C740 C 0.2754 0.69385 0.06217 0.0
C741 C 0.29157 0.67271 0.07061 0.0
C742 C 0.2836 0.71109 0.0416 0.0
C743 C 0.30845 0.70798 0.02931 0.0
C744 C 0.3245 0.68669 0.03789 0.0
C745 C 0.31606 0.66919 0.05799 0.0
C746 C 0.34308 0.73501 0.96697 0.0
C747 C 0.33476 0.76178 0.96634 0.0
C748 C 0.33446 0.71768 0.98717 0.0
C749 C 0.31771 0.72672 1.00775 0.0
C750 C 0.30995 0.75379 1.00742 0.0
C751 C 0.31815 0.77099 0.98684 0.0
H752 H 0.26615 0.29557 0.94403 0.0
H753 H 0.26877 0.37631 0.97462 0.0
H754 H 0.29398 0.28069 0.9807 0.0
H755 H 0.29603 0.36124 1.01188 0.0
H756 H 0.36897 0.33395 0.05601 0.0
H757 H 0.34014 0.34684 0.01945 0.0
H758 H 0.29744 0.2724 0.02775 0.0
H759 H 0.32692 0.25919 0.0641 0.0
C760 C 0.27227 0.31012 0.95885 0.0
C761 C 0.26524 0.33722 0.95625 0.0
C762 C 0.28824 0.30151 0.97999 0.0
C763 C 0.29759 0.31974 0.99922 0.0
C764 C 0.28972 0.34669 0.99716 0.0
C765 C 0.27382 0.35532 0.97593 0.0
C766 C 0.35362 0.32015 0.04988 0.0
C767 C 0.3503 0.29551 0.06304 0.0
C768 C 0.33684 0.32771 0.02905 0.0
C769 C 0.31607 0.31093 0.02082 0.0
C770 C 0.31325 0.28584 0.0334 0.0
C771 C 0.3302 0.2782 0.05424 0.0
H772 H 0.75542 0.31332 0.08728 0.0
H773 H 0.69497 0.37365 0.0832 0.0
H774 H 0.7369 0.29133 0.04817 0.0
H775 H 0.67543 0.35094 0.04479 0.0
H776 H 0.65848 0.31492 0.96211 0.0
H777 H 0.67745 0.33925 0.9997 0.0
H778 H 0.70205 0.26443 0.03498 0.0
H779 H 0.68424 0.24038 0.99668 0.0
C780 C 0.73819 0.32197 0.07791 0.0
C781 C 0.72676 0.3453 0.08835 0.0
C782 C 0.72727 0.30912 0.05561 0.0
C783 C 0.70424 0.31891 0.04333 0.0
C784 C 0.69326 0.34278 0.05337 0.0
C785 C 0.70448 0.35589 0.07547 0.0
C786 C 0.66773 0.30365 0.97803 0.0
C787 C 0.66986 0.27565 0.97631 0.0
C788 C 0.67863 0.31765 0.99972 0.0
C789 C 0.69168 0.30401 0.02051 0.0
C790 C 0.69289 0.27587 0.01914 0.0
C791 C 0.68237 0.26194 0.99727 0.0
H792 H 0.22349 0.32302 0.25003 0.0
H793 H 0.16785 0.32466 0.31553 0.0
H794 H 0.24138 0.28127 0.26676 0.0
H795 H 0.18634 0.283 0.33273 0.0
H796 H 0.20937 0.19474 0.34172 0.0
H797 H 0.18952 0.23508 0.32251 0.0
H798 H 0.26717 0.26524 0.30331 0.0
H799 H 0.28671 0.2251 0.32159 0.0
C800 C 0.21532 0.3147 0.26826 0.0
C801 C 0.19433 0.3273 0.28154 0.0
C802 C 0.22558 0.29069 0.27785 0.0
C803 C 0.21525 0.27872 0.30107 0.0
C804 C 0.19446 0.29147 0.31456 0.0
C805 C 0.1841 0.31551 0.30489 0.0
C806 C 0.22207 0.20984 0.33298 0.0
C807 C 0.24958 0.20675 0.33323 0.0
C808 C 0.21076 0.23305 0.32227 0.0
C809 C 0.22678 0.25347 0.31151 0.0
C810 C 0.2542 0.24987 0.31114 0.0
C811 C 0.26543 0.22684 0.3218 0.0
H812 H 0.77798 0.26824 0.37099 0.0
H813 H 0.83282 0.20879 0.34243 0.0
H814 H 0.74243 0.24627 0.34704 0.0
H815 H 0.79684 0.18612 0.31897 0.0
H816 H 0.73261 0.17041 0.25701 0.0
H817 H 0.76826 0.19177 0.28142 0.0
H818 H 0.71531 0.20722 0.34737 0.0
H819 H 0.67925 0.18649 0.32242 0.0
C820 C 0.78242 0.25028 0.35976 0.0
C821 C 0.80824 0.2402 0.35863 0.0
C822 C 0.76193 0.23757 0.34615 0.0
C823 C 0.76667 0.21433 0.33119 0.0
C824 C 0.79254 0.20419 0.33006 0.0
C825 C 0.81315 0.21708 0.34357 0.0
C826 C 0.72851 0.17837 0.27673 0.0
C827 C 0.70306 0.17679 0.28778 0.0
C828 C 0.74907 0.19045 0.29082 0.0
C829 C 0.74476 0.20111 0.31643 0.0
C830 C 0.71927 0.19951 0.32753 0.0
C831 C 0.6986 0.18756 0.3133 0.0
H832 H 0.87446 0.71678 0.378 0.0
H833 H 0.79463 0.70693 0.34959 0.0
H834 H 0.86776 0.76432 0.382 0.0
H835 H 0.78716 0.75474 0.35528 0.0
H836 H 0.79944 0.84118 0.32477 0.0
H837 H 0.79809 0.79313 0.33226 0.0
H838 H 0.85102 0.80266 0.39957 0.0
H839 H 0.85352 0.85052 0.39046 0.0
C840 C 0.8551 0.72464 0.37347 0.0
C841 C 0.83524 0.70802 0.36299 0.0
C842 C 0.85114 0.75215 0.37593 0.0
C843 C 0.827 0.76382 0.3685 0.0
C844 C 0.80631 0.74676 0.3604 0.0
C845 C 0.81046 0.71921 0.35745 0.0
C846 C 0.81022 0.83294 0.3415 0.0
C847 C 0.82637 0.84941 0.35716 0.0
C848 C 0.80947 0.80532 0.34594 0.0
C849 C 0.82461 0.7936 0.36648 0.0
C850 C 0.83965 0.8106 0.38307 0.0
C851 C 0.84098 0.83808 0.37806 0.0
H852 H 0.29189 0.83068 0.2985 0.0
H853 H 0.25057 0.86037 0.22906 0.0
H854 H 0.24978 0.81926 0.31934 0.0
H855 H 0.20854 0.84911 0.24999 0.0
H856 H 0.1425 0.79454 0.28618 0.0
H857 H 0.18286 0.80911 0.26391 0.0
H858 H 0.21084 0.84318 0.33805 0.0
H859 H 0.1706 0.82855 0.36043 0.0
C860 C 0.27386 0.83463 0.28761 0.0
C861 C 0.27461 0.84644 0.26212 0.0
C862 C 0.24972 0.82833 0.29966 0.0
C863 C 0.22582 0.83352 0.2864 0.0
C864 C 0.22661 0.84478 0.26067 0.0
C865 C 0.25071 0.85126 0.24871 0.0
C866 C 0.15701 0.80561 0.29764 0.0
C867 C 0.15332 0.81025 0.32513 0.0
C868 C 0.18016 0.81392 0.28486 0.0
C869 C 0.20021 0.82693 0.29932 0.0
C870 C 0.19596 0.83275 0.32649 0.0
C871 C 0.17274 0.82462 0.33923 0.0
H872 H 0.11074 0.71555 0.68428 0.0
H873 H 0.17978 0.67517 0.7145 0.0
H874 H 0.13679 0.75541 0.67606 0.0
H875 H 0.20625 0.71485 0.70514 0.0
H876 H 0.23572 0.7994 0.72251 0.0
H877 H 0.21093 0.75771 0.72528 0.0
H878 H 0.16992 0.77799 0.65226 0.0
H879 H 0.19391 0.82012 0.65018 0.0
C880 C 0.13169 0.71489 0.68841 0.0
C881 C 0.14306 0.69227 0.7004 0.0
C882 C 0.1467 0.73783 0.68363 0.0
C883 C 0.17357 0.73863 0.69046 0.0
C884 C 0.18544 0.71521 0.70035 0.0
C885 C 0.17035 0.69227 0.70531 0.0
C886 C 0.22117 0.79508 0.70724 0.0
C887 C 0.21667 0.81317 0.68625 0.0
C888 C 0.20721 0.77097 0.70858 0.0
C889 C 0.18861 0.76422 0.68879 0.0
C890 C 0.18388 0.78256 0.668 0.0
C891 C 0.19761 0.8068 0.66684 0.0
H892 H 0.29356 0.11941 0.72606 0.0
H893 H 0.34319 0.18838 0.71246 0.0
H894 H 0.25898 0.13932 0.69898 0.0
H895 H 0.3082 0.2088 0.68578 0.0
H896 H 0.24513 0.23244 0.62643 0.0
H897 H 0.28143 0.20724 0.64573 0.0
H898 H 0.22874 0.17556 0.70594 0.0
H899 H 0.19227 0.20031 0.68622 0.0
C900 C 0.29716 0.13876 0.71699 0.0
C901 C 0.32094 0.1525 0.72155 0.0
C902 C 0.27727 0.15024 0.70164 0.0
C903 C 0.28059 0.17586 0.69064 0.0
C904 C 0.30503 0.18896 0.69387 0.0
C905 C 0.3251 0.17731 0.70913 0.0
C906 C 0.24122 0.21989 0.64365 0.0
C907 C 0.21583 0.21847 0.65491 0.0
C908 C 0.26209 0.20557 0.65478 0.0
C909 C 0.25808 0.18951 0.67746 0.0
C910 C 0.23248 0.18748 0.68824 0.0
C911 C 0.21156 0.20175 0.67704 0.0
H912 H 0.81083 0.19752 0.72973 0.0
H913 H 0.84265 0.18209 0.65096 0.0
H914 H 0.8269 0.24334 0.7273 0.0
H915 H 0.85851 0.22815 0.64855 0.0
H916 H 0.9038 0.30746 0.67209 0.0
H917 H 0.88961 0.26096 0.66909 0.0
H918 H 0.81321 0.28271 0.70019 0.0
H919 H 0.82734 0.32917 0.70342 0.0
C920 C 0.82165 0.20372 0.71209 0.0
C921 C 0.82519 0.18618 0.69045 0.0
C922 C 0.83054 0.2301 0.71056 0.0
C923 C 0.8433 0.2395 0.68741 0.0
C924 C 0.84855 0.2215 0.66654 0.0
C925 C 0.83957 0.19507 0.66802 0.0
C926 C 0.88373 0.3025 0.67761 0.0
C927 C 0.86687 0.32197 0.68853 0.0
C928 C 0.87566 0.2758 0.67597 0.0
C929 C 0.85061 0.26813 0.68518 0.0
C930 C 0.83294 0.28797 0.69371 0.0
C931 C 0.84094 0.31464 0.69524 0.0
H932 H 0.80533 0.82199 0.66452 0.0
H933 H 0.75898 0.7645 0.6201 0.0
H934 H 0.76495 0.84647 0.67555 0.0
H935 H 0.71911 0.78891 0.63086 0.0
H936 H 0.65378 0.81887 0.68841 0.0
H937 H 0.69315 0.79661 0.67173 0.0
H938 H 0.7286 0.8733 0.65441 0.0
H939 H 0.68925 0.89568 0.67125 0.0
C940 C 0.78663 0.81467 0.65702 0.0
C941 C 0.7854 0.79121 0.64161 0.0
C942 C 0.76354 0.82876 0.66316 0.0
C943 C 0.73884 0.81953 0.65412 0.0
C944 C 0.73777 0.79634 0.63838 0.0
C945 C 0.76072 0.78241 0.63218 0.0
C946 C 0.66972 0.83099 0.6805 0.0
C947 C 0.66833 0.85903 0.68115 0.0
C948 C 0.69231 0.81824 0.67097 0.0
C949 C 0.71409 0.83323 0.66202 0.0
C950 C 0.71227 0.86125 0.66154 0.0
C951 C 0.68956 0.87402 0.67085 0.0
H952 H 0.34917 0.1745 0.34875 0.0
H953 H 0.32309 0.1141 0.29285 0.0
H954 H 0.37017 0.19883 0.31218 0.0
H955 H 0.34221 0.13903 0.25635 0.0
H956 H 0.37962 0.18759 0.19171 0.0
H957 H 0.37473 0.15798 0.23035 0.0
H958 H 0.35292 0.22596 0.27911 0.0
H959 H 0.35944 0.25524 0.24114 0.0
C960 C 0.34838 0.16613 0.32879 0.0
C961 C 0.3339 0.14274 0.32362 0.0
C962 C 0.36007 0.18026 0.3077 0.0
C963 C 0.35712 0.17148 0.28103 0.0
C964 C 0.34497 0.14662 0.27643 0.0
C965 C 0.33374 0.13232 0.29749 0.0
C966 C 0.37388 0.19603 0.21079 0.0
C967 C 0.36974 0.22361 0.21345 0.0
C968 C 0.37108 0.17913 0.23298 0.0
C969 C 0.36349 0.18946 0.25809 0.0
C970 C 0.35951 0.21718 0.26049 0.0
C971 C 0.36287 0.23402 0.23855 0.0
H972 H 0.88829 0.35459 0.32234 0.0
H973 H 0.81788 0.3239 0.36039 0.0
H974 H 0.86381 0.36124 0.28103 0.0
H975 H 0.79331 0.33114 0.31921 0.0
H976 H 0.76813 0.31046 0.23468 0.0
H977 H 0.79313 0.30856 0.27618 0.0
H978 H 0.82909 0.38478 0.25764 0.0
H979 H 0.80446 0.38645 0.21578 0.0
C980 C 0.86742 0.34993 0.32215 0.0
C981 C 0.85517 0.33833 0.34461 0.0
C982 C 0.85338 0.35373 0.2984 0.0
C983 C 0.82676 0.34611 0.29661 0.0
C984 C 0.814 0.33652 0.31971 0.0
C985 C 0.82802 0.3327 0.34346 0.0
C986 C 0.78164 0.32665 0.23924 0.0
C987 C 0.78422 0.34863 0.22192 0.0
C988 C 0.79572 0.32574 0.26323 0.0
C989 C 0.8127 0.3468 0.27052 0.0
C990 C 0.81617 0.36824 0.25265 0.0
C991 C 0.8021 0.36913 0.22859 0.0
H992 H 0.63322 0.85699 0.17997 0.0
H993 H 0.68957 0.79491 0.16171 0.0
H994 H 0.66231 0.87356 0.21532 0.0
H995 H 0.71829 0.81134 0.1972 0.0
H996 H 0.73713 0.8256 0.28834 0.0
H997 H 0.71231 0.81171 0.24864 0.0
H998 H 0.70862 0.8938 0.22226 0.0
H999 H 0.73355 0.9077 0.2616 0.0
C1000 C 0.65198 0.84721 0.18313 0.0
C1001 C 0.659 0.82462 0.16805 0.0
C1002 C 0.66861 0.85667 0.20338 0.0
C1003 C 0.69237 0.84349 0.20916 0.0
C1004 C 0.69992 0.82164 0.19335 0.0
C1005 C 0.68354 0.81244 0.17286 0.0
C1006 C 0.73116 0.84062 0.27397 0.0
C1007 C 0.73728 0.86771 0.27811 0.0
C1008 C 0.7171 0.83268 0.25121 0.0
C1009 C 0.70857 0.85173 0.23242 0.0
C1010 C 0.71484 0.87875 0.23649 0.0
C1011 C 0.72922 0.88664 0.25898 0.0
H1012 H 0.1985 0.6864 0.19976 0.0
H1013 H 0.25019 0.64597 0.25523 0.0
H1014 H 0.1701 0.69952 0.23706 0.0
H1015 H 0.22176 0.65871 0.29216 0.0
H1016 H 0.18191 0.71639 0.35225 0.0
H1017 H 0.20956 0.69974 0.31603 0.0
H1018 H 0.14001 0.67924 0.27053 0.0
H1019 H 0.11233 0.69607 0.30656 0.0
C1020 C 0.20374 0.68026 0.21983 0.0
C1021 C 0.22662 0.66525 0.22452 0.0
C1022 C 0.18742 0.6876 0.24116 0.0
C1023 C 0.19374 0.68013 0.26754 0.0
C1024 C 0.21654 0.66503 0.27213 0.0
C1025 C 0.23276 0.65766 0.25089 0.0
C1026 C 0.17251 0.7079 0.33474 0.0
C1027 C 0.14493 0.70768 0.33226 0.0
C1028 C 0.18835 0.69839 0.31397 0.0
C1029 C 0.17693 0.68848 0.2903 0.0
C1030 C 0.14936 0.68722 0.28831 0.0
C1031 C 0.13353 0.69664 0.30909 0.0
H1032 H 0.31595 0.83524 0.83726 0.0
H1033 H 0.39107 0.87543 0.82875 0.0
H1034 H 0.30574 0.84527 0.79075 0.0
H1035 H 0.3808 0.88525 0.78209 0.0
H1036 H 0.33944 0.91457 0.7036 0.0
H1037 H 0.35063 0.90951 0.75081 0.0
H1038 H 0.32448 0.8273 0.7483 0.0
H1039 H 0.3132 0.83226 0.70121 0.0
C1040 C 0.33006 0.84672 0.8257 0.0
C1041 C 0.3545 0.85423 0.83672 0.0
C1042 C 0.32432 0.85218 0.79892 0.0
C1043 C 0.34276 0.86545 0.78259 0.0
C1044 C 0.36627 0.87486 0.79413 0.0
C1045 C 0.3721 0.86926 0.82091 0.0
C1046 C 0.33664 0.89521 0.71292 0.0
C1047 C 0.32529 0.87383 0.69859 0.0
C1048 C 0.34291 0.89239 0.74004 0.0
C1049 C 0.33792 0.86818 0.7534 0.0
C1050 C 0.32793 0.84642 0.73872 0.0
C1051 C 0.32176 0.84918 0.71164 0.0
H1052 H 0.15601 0.40172 0.82093 0.0
H1053 H 0.19665 0.32656 0.83123 0.0
H1054 H 0.14561 0.38965 0.77498 0.0
H1055 H 0.18564 0.31425 0.78543 0.0
H1056 H 0.19314 0.31532 0.69545 0.0
H1057 H 0.20059 0.32893 0.74161 0.0
H1058 H 0.12134 0.36004 0.7457 0.0
H1059 H 0.11405 0.34702 0.69936 0.0
C1060 C 0.16217 0.38233 0.81364 0.0
C1061 C 0.17745 0.36524 0.82971 0.0
C1062 C 0.15622 0.37543 0.78722 0.0
C1063 C 0.16531 0.35126 0.77634 0.0
C1064 C 0.179 0.33337 0.79299 0.0
C1065 C 0.185 0.34028 0.81938 0.0
C1066 C 0.17746 0.3255 0.70602 0.0
C1067 C 0.15296 0.32995 0.69371 0.0
C1068 C 0.1816 0.33297 0.73261 0.0
C1069 C 0.16136 0.34502 0.74754 0.0
C1070 C 0.13735 0.35078 0.7348 0.0
C1071 C 0.13321 0.34337 0.70816 0.0
H1072 H 0.71584 0.10318 0.74059 0.0
H1073 H 0.72785 0.18458 0.71424 0.0
H1074 H 0.69661 0.11935 0.7822 0.0
H1075 H 0.7084 0.20082 0.75605 0.0
H1076 H 0.70152 0.21867 0.84575 0.0
H1077 H 0.72108 0.20059 0.80495 0.0
H1078 H 0.65716 0.14374 0.79858 0.0
H1079 H 0.63761 0.1617 0.83935 0.0
C1080 C 0.71406 0.12456 0.74356 0.0
C1081 C 0.72333 0.14263 0.72413 0.0
C1082 C 0.70303 0.13379 0.76741 0.0
C1083 C 0.70124 0.16133 0.77251 0.0
C1084 C 0.70989 0.17946 0.75281 0.0
C1085 C 0.72069 0.17019 0.72875 0.0
C1086 C 0.69194 0.20192 0.836 0.0
C1087 C 0.66799 0.1916 0.84582 0.0
C1088 C 0.70295 0.19184 0.81242 0.0
C1089 C 0.69043 0.17103 0.79836 0.0
C1090 C 0.66727 0.15978 0.80896 0.0
C1091 C 0.65611 0.17003 0.83237 0.0
H1092 H 0.80566 0.70324 0.6756 0.0
H1093 H 0.88286 0.67454 0.69798 0.0
H1094 H 0.79031 0.69606 0.72121 0.0
H1095 H 0.86762 0.66798 0.7437 0.0
H1096 H 0.8219 0.64031 0.81934 0.0
H1097 H 0.83881 0.64349 0.77378 0.0
H1098 H 0.79819 0.71858 0.76348 0.0
H1099 H 0.78083 0.71517 0.80874 0.0
C1100 C 0.81925 0.69496 0.69009 0.0
C1101 C 0.84558 0.68974 0.68312 0.0
C1102 C 0.81054 0.69119 0.71636 0.0
C1103 C 0.82793 0.6821 0.73629 0.0
C1104 C 0.85373 0.67508 0.7289 0.0
C1105 C 0.86244 0.6788 0.7026 0.0
C1106 C 0.81697 0.65776 0.80754 0.0
C1107 C 0.79983 0.67741 0.81767 0.0
C1108 C 0.8266 0.65952 0.78136 0.0
C1109 C 0.81937 0.68098 0.76476 0.0
C1110 C 0.80352 0.70138 0.77546 0.0
C1111 C 0.79386 0.69961 0.80157 0.0
H1112 H 0.20369 0.40718 0.18267 0.0
H1113 H 0.16564 0.32981 0.18383 0.0
H1114 H 0.24559 0.38611 0.17271 0.0
H1115 H 0.20733 0.30871 0.17235 0.0
H1116 H 0.28721 0.27545 0.19043 0.0
H1117 H 0.24576 0.29895 0.19598 0.0
H1118 H 0.27433 0.36237 0.14459 0.0
H1119 H 0.31659 0.3392 0.14041 0.0
C1120 C 0.20406 0.38572 0.17981 0.0
C1121 C 0.18136 0.3701 0.18431 0.0
C1122 C 0.2282 0.37359 0.17413 0.0
C1123 C 0.23011 0.3456 0.17239 0.0
C1124 C 0.20685 0.33025 0.1745 0.0
C1125 C 0.18282 0.34234 0.18064 0.0
C1126 C 0.28472 0.29464 0.18068 0.0
C1127 C 0.30504 0.30561 0.16511 0.0
C1128 C 0.26079 0.30794 0.18347 0.0
C1129 C 0.25629 0.3323 0.17016 0.0
C1130 C 0.27704 0.34372 0.15521 0.0
C1131 C 0.3013 0.33056 0.15287 0.0
H1132 H 0.26349 0.78292 0.8598 0.0
H1133 H 0.31607 0.71662 0.84569 0.0
H1134 H 0.22728 0.75774 0.84029 0.0
H1135 H 0.27949 0.69088 0.82696 0.0
H1136 H 0.21584 0.66368 0.76925 0.0
H1137 H 0.25176 0.68896 0.78887 0.0
H1138 H 0.1984 0.72094 0.84817 0.0
H1139 H 0.16197 0.69614 0.8277 0.0
C1140 C 0.26728 0.76285 0.85266 0.0
C1141 C 0.29266 0.75174 0.85425 0.0
C1142 C 0.24642 0.74832 0.84166 0.0
C1143 C 0.25036 0.7222 0.83217 0.0
C1144 C 0.27581 0.71109 0.83374 0.0
C1145 C 0.29678 0.72577 0.84454 0.0
C1146 C 0.2117 0.67605 0.78653 0.0
C1147 C 0.18605 0.67784 0.79702 0.0
C1148 C 0.23241 0.69044 0.7979 0.0
C1149 C 0.2281 0.70686 0.82024 0.0
C1150 C 0.20238 0.70871 0.83076 0.0
C1151 C 0.18151 0.69444 0.81916 0.0
H1152 H 0.27784 0.32217 0.83372 0.0
H1153 H 0.33858 0.3318 0.89364 0.0
H1154 H 0.29697 0.27959 0.82044 0.0
H1155 H 0.3578 0.2891 0.88006 0.0
H1156 H 0.39824 0.22828 0.82118 0.0
H1157 H 0.38001 0.26969 0.83893 0.0
H1158 H 0.30273 0.23336 0.84157 0.0
H1159 H 0.32109 0.19163 0.82382 0.0
C1160 C 0.29547 0.3154 0.84386 0.0
C1161 C 0.30673 0.33048 0.86473 0.0
C1162 C 0.3062 0.29082 0.83645 0.0
C1163 C 0.32862 0.28088 0.84949 0.0
C1164 C 0.34046 0.29629 0.86972 0.0
C1165 C 0.32952 0.32078 0.87739 0.0
C1166 C 0.37741 0.22899 0.82594 0.0
C1167 C 0.36102 0.20681 0.82102 0.0
C1168 C 0.36703 0.25267 0.83618 0.0
C1169 C 0.33995 0.25481 0.84137 0.0
C1170 C 0.32366 0.2323 0.83744 0.0
C1171 C 0.33416 0.20839 0.82754 0.0
H1172 H 0.72974 0.319 0.90009 0.0
H1173 H 0.69154 0.2974 0.82591 0.0
H1174 H 0.76998 0.32956 0.87591 0.0
H1175 H 0.73188 0.30863 0.80147 0.0
H1176 H 0.81706 0.29563 0.77341 0.0
H1177 H 0.77568 0.28869 0.79724 0.0
H1178 H 0.79073 0.35947 0.84444 0.0
H1179 H 0.83234 0.36614 0.82103 0.0
C1180 C 0.72976 0.31705 0.8785 0.0
C1181 C 0.70749 0.30722 0.86493 0.0
C1182 C 0.75286 0.32318 0.86462 0.0
C1183 C 0.75429 0.31962 0.83679 0.0
C1184 C 0.73156 0.31111 0.823 0.0
C1185 C 0.70834 0.30502 0.83693 0.0
C1186 C 0.81172 0.30952 0.78912 0.0
C1187 C 0.82811 0.33136 0.7954 0.0
C1188 C 0.78781 0.30575 0.80252 0.0
C1189 C 0.77972 0.32371 0.82253 0.0
C1190 C 0.79642 0.34518 0.82925 0.0
C1191 C 0.82034 0.34895 0.81586 0.0
H1192 H 0.71611 0.684 0.815 0.0
H1193 H 0.65937 0.687 0.87952 0.0
H1194 H 0.69855 0.72556 0.79705 0.0
H1195 H 0.64163 0.72855 0.86117 0.0
H1196 H 0.60256 0.78637 0.79852 0.0
H1197 H 0.61829 0.74482 0.81843 0.0
H1198 H 0.69827 0.77432 0.81449 0.0
H1199 H 0.68251 0.81616 0.79468 0.0
C1200 C 0.69961 0.69325 0.82513 0.0
C1201 C 0.68919 0.68222 0.84879 0.0
C1202 C 0.68978 0.71721 0.81498 0.0
C1203 C 0.66906 0.73041 0.82799 0.0
C1204 C 0.6577 0.71875 0.85083 0.0
C1205 C 0.66779 0.69495 0.86125 0.0
C1206 C 0.62349 0.7841 0.80216 0.0
C1207 C 0.64137 0.80439 0.79495 0.0
C1208 C 0.63243 0.76037 0.81361 0.0
C1209 C 0.65946 0.75633 0.81771 0.0
C1210 C 0.67732 0.7769 0.8112 0.0
C1211 C 0.66832 0.80086 0.80011 0.0
H1212 H 0.65725 0.69129 0.18467 0.0
H1213 H 0.71887 0.73404 0.14282 0.0
H1214 H 0.6902 0.67199 0.21453 0.0
H1215 H 0.75142 0.716 0.17321 0.0
H1216 H 0.80812 0.66543 0.22104 0.0
H1217 H 0.77538 0.67865 0.18775 0.0
H1218 H 0.71689 0.6859 0.2503 0.0
H1219 H 0.74913 0.67157 0.28302 0.0
C1220 C 0.67781 0.6965 0.18183 0.0
C1221 C 0.68543 0.7142 0.16147 0.0
C1222 C 0.6967 0.68563 0.19903 0.0
C1223 C 0.72353 0.6926 0.19647 0.0
C1224 C 0.73109 0.7098 0.17561 0.0
C1225 C 0.71231 0.72031 0.15823 0.0
C1226 C 0.78825 0.66988 0.22754 0.0
C1227 C 0.78117 0.66748 0.25457 0.0
C1228 C 0.76946 0.67749 0.20853 0.0
C1229 C 0.74336 0.68323 0.21627 0.0
C1230 C 0.73653 0.68101 0.24342 0.0
C1231 C 0.75513 0.67306 0.26227 0.0
H1232 H 0.35704 0.83627 0.13935 0.0
H1233 H 0.34961 0.83144 0.22509 0.0
H1234 H 0.35691 0.78788 0.1368 0.0
H1235 H 0.35134 0.78332 0.22294 0.0
H1236 H 0.31098 0.70268 0.2023 0.0
H1237 H 0.32264 0.74895 0.21042 0.0
H1238 H 0.37776 0.74655 0.14448 0.0
H1239 H 0.3651 0.70034 0.13559 0.0
C1240 C 0.35593 0.82503 0.15784 0.0
C1241 C 0.35332 0.83818 0.18259 0.0
C1242 C 0.3562 0.7971 0.15638 0.0
C1243 C 0.35409 0.78145 0.17968 0.0
C1244 C 0.35263 0.79458 0.20449 0.0
C1245 C 0.35199 0.8225 0.20583 0.0
C1246 C 0.32608 0.71174 0.18991 0.0
C1247 C 0.33673 0.69789 0.16796 0.0
C1248 C 0.33288 0.73842 0.19463 0.0
C1249 C 0.35079 0.75183 0.17776 0.0
C1250 C 0.36332 0.73714 0.1574 0.0
C1251 C 0.35628 0.71051 0.15248 0.0
H1252 H 0.68975 0.32189 0.20917 0.0
H1253 H 0.64863 0.32558 0.13353 0.0
H1254 H 0.67668 0.27525 0.21407 0.0
H1255 H 0.63564 0.27878 0.13851 0.0
H1256 H 0.59877 0.20007 0.17468 0.0
H1257 H 0.60891 0.24715 0.16671 0.0
H1258 H 0.68962 0.23349 0.19026 0.0
H1259 H 0.6796 0.18656 0.19841 0.0
C1260 C 0.67759 0.31292 0.19377 0.0
C1261 C 0.67043 0.32748 0.17086 0.0
C1262 C 0.67033 0.28609 0.19646 0.0
C1263 C 0.6556 0.27321 0.1764 0.0
C1264 C 0.64707 0.28814 0.15425 0.0
C1265 C 0.65447 0.31499 0.15146 0.0
C1266 C 0.61885 0.20692 0.17752 0.0
C1267 C 0.63834 0.1895 0.18736 0.0
C1268 C 0.6246 0.23396 0.17307 0.0
C1269 C 0.64991 0.24411 0.17841 0.0
C1270 C 0.66976 0.22637 0.1866 0.0
C1271 C 0.66407 0.19938 0.19096 0.0
loop_
_geom_bond_atom_site_label_1
_geom_bond_atom_site_label_2
_geom_bond_distance
_geom_bond_site_symmetry_2
_ccdc_geom_bond_type
Mg0 O7 2.141 . S
Mg0 O8 2.048 . S
Mg0 O9 2.048 . S
Mg0 O12 2.141 . S
C1 O2 1.313 . S
C1 O8 1.195 . S
O2 C1 1.313 . S
C3 O4 1.245 . S
C3 O12 1.289 . S
O4 C3 1.245 . S
C5 O6 1.245 . S
C5 O7 1.289 . S
O6 C5 1.245 . S
O7 Mg0 2.141 . S
O7 C5 1.289 . S
O8 Mg0 2.048 . S
O8 C1 1.195 . S
O9 Mg0 2.048 . S
O9 C10 1.195 . S
C10 O9 1.195 . S
C10 O11 1.313 . S
O11 C10 1.313 . S
O12 Mg0 2.141 . S
O12 C3 1.289 . S
Mg13 O20 2.141 . S
Mg13 O21 2.048 . S
Mg13 O22 2.048 . S
Mg13 O25 2.141 . S
C14 O15 1.313 . S
C14 O21 1.195 . S
O15 C14 1.313 . S
C16 O17 1.245 . S
C16 O25 1.289 . S
O17 C16 1.245 . S
C18 O19 1.245 . S
C18 O20 1.289 . S
O19 C18 1.245 . S
O20 Mg13 2.141 . S
O20 C18 1.289 . S
O21 Mg13 2.048 . S
O21 C14 1.195 . S
O22 Mg13 2.048 . S
O22 C23 1.195 . S
C23 O22 1.195 . S
C23 O24 1.313 . S
O24 C23 1.313 . S
O25 Mg13 2.141 . S
O25 C16 1.289 . S
Mg26 O33 2.141 . S
Mg26 O34 2.048 . S
Mg26 O35 2.048 . S
Mg26 O38 2.141 . S
C27 O28 1.313 . S
C27 O34 1.195 . S
O28 C27 1.313 . S
C29 O30 1.245 . S
C29 O38 1.289 . S
O30 C29 1.245 . S
C31 O32 1.245 . S
C31 O33 1.289 . S
O32 C31 1.245 . S
O33 Mg26 2.141 . S
O33 C31 1.289 . S
O34 Mg26 2.048 . S
O34 C27 1.195 . S
O35 Mg26 2.048 . S
O35 C36 1.195 . S
C36 O35 1.195 . S
C36 O37 1.313 . S
O37 C36 1.313 . S
O38 Mg26 2.141 . S
O38 C29 1.289 . S
Mg39 O46 2.141 . S
Mg39 O47 2.048 . S
Mg39 O48 2.048 . S
Mg39 O51 2.141 . S
C40 O41 1.313 . S
C40 O47 1.195 . S
O41 C40 1.313 . S
C42 O43 1.245 . S
C42 O51 1.289 . S
O43 C42 1.245 . S
C44 O45 1.245 . S
C44 O46 1.289 . S
O45 C44 1.245 . S
O46 Mg39 2.141 . S
O46 C44 1.289 . S
O47 Mg39 2.048 . S
O47 C40 1.195 . S
O48 Mg39 2.048 . S
O48 C49 1.195 . S
C49 O48 1.195 . S
C49 O50 1.313 . S
O50 C49 1.313 . S
O51 Mg39 2.141 . S
O51 C42 1.289 . S
Mg52 O59 2.141 . S
Mg52 O60 2.048 . S
Mg52 O61 2.048 . S
Mg52 O64 2.141 . S
C53 O54 1.313 . S
C53 O60 1.195 . S
O54 C53 1.313 . S
C55 O56 1.245 . S
C55 O64 1.289 . S
O56 C55 1.245 . S
C57 O58 1.245 . S
C57 O59 1.289 . S
O58 C57 1.245 . S
O59 Mg52 2.141 . S
O59 C57 1.289 . S
O60 Mg52 2.048 . S
O60 C53 1.195 . S
O61 Mg52 2.048 . S
O61 C62 1.195 . S
C62 O61 1.195 . S
C62 O63 1.313 . S
O63 C62 1.313 . S
O64 Mg52 2.141 . S
O64 C55 1.289 . S
Mg65 O72 2.141 . S
Mg65 O73 2.048 . S
Mg65 O74 2.048 . S
Mg65 O77 2.141 . S
C66 O67 1.313 . S
C66 O73 1.195 . S
O67 C66 1.313 . S
C68 O69 1.245 . S
C68 O77 1.289 . S
O69 C68 1.245 . S
C70 O71 1.245 . S
C70 O72 1.289 . S
O71 C70 1.245 . S
O72 Mg65 2.141 . S
O72 C70 1.289 . S
O73 Mg65 2.048 . S
O73 C66 1.195 . S
O74 Mg65 2.048 . S
O74 C75 1.195 . S
C75 O74 1.195 . S
C75 O76 1.313 . S
O76 C75 1.313 . S
O77 Mg65 2.141 . S
O77 C68 1.289 . S
Mg78 O85 2.141 . S
Mg78 O86 2.048 . S
Mg78 O87 2.048 . S
Mg78 O90 2.141 . S
C79 O80 1.313 . S
C79 O86 1.195 . S
O80 C79 1.313 . S
C81 O82 1.245 . S
C81 O90 1.289 . S
O82 C81 1.245 . S
C83 O84 1.245 . S
C83 O85 1.289 . S
O84 C83 1.245 . S
O85 Mg78 2.141 . S
O85 C83 1.289 . S
O86 Mg78 2.048 . S
O86 C79 1.195 . S
O87 Mg78 2.048 . S
O87 C88 1.195 . S
C88 O87 1.195 . S
C88 O89 1.313 . S
O89 C88 1.313 . S
O90 Mg78 2.141 . S
O90 C81 1.289 . S
Mg91 O98 2.141 . S
Mg91 O99 2.048 . S
Mg91 O100 2.048 . S
Mg91 O103 2.141 . S
C92 O93 1.313 . S
C92 O99 1.195 . S
O93 C92 1.313 . S
C94 O95 1.245 . S
C94 O103 1.289 . S
O95 C94 1.245 . S
C96 O97 1.245 . S
C96 O98 1.289 . S
O97 C96 1.245 . S
O98 Mg91 2.141 . S
O98 C96 1.289 . S
O99 Mg91 2.048 . S
O99 C92 1.195 . S
O100 Mg91 2.048 . S
O100 C101 1.195 . S
C101 O100 1.195 . S
C101 O102 1.313 . S
O102 C101 1.313 . S
O103 Mg91 2.141 . S
O103 C94 1.289 . S
Mg104 O111 2.141 . S
Mg104 O112 2.048 . S
Mg104 O113 2.048 . S
Mg104 O116 2.141 . S
C105 O106 1.313 . S
C105 O112 1.195 . S
O106 C105 1.313 . S
C107 O108 1.245 . S
C107 O116 1.289 . S
O108 C107 1.245 . S
C109 O110 1.245 . S
C109 O111 1.289 . S
O110 C109 1.245 . S
O111 Mg104 2.141 . S
O111 C109 1.289 . S
O112 Mg104 2.048 . S
O112 C105 1.195 . S
O113 Mg104 2.048 . S
O113 C114 1.195 . S
C114 O113 1.195 . S
C114 O115 1.313 . S
O115 C114 1.313 . S
O116 Mg104 2.141 . S
O116 C107 1.289 . S
Mg117 O124 2.141 . S
Mg117 O125 2.048 . S
Mg117 O126 2.048 . S
Mg117 O129 2.141 . S
C118 O119 1.313 . S
C118 O125 1.195 . S
O119 C118 1.313 . S
C120 O121 1.245 . S
C120 O129 1.289 . S
O121 C120 1.245 . S
C122 O123 1.245 . S
C122 O124 1.289 . S
O123 C122 1.245 . S
O124 Mg117 2.141 . S
O124 C122 1.289 . S
O125 Mg117 2.048 . S
O125 C118 1.195 . S
O126 Mg117 2.048 . S
O126 C127 1.195 . S
C127 O126 1.195 . S
C127 O128 1.313 . S
O128 C127 1.313 . S
O129 Mg117 2.141 . S
O129 C120 1.289 . S
Mg130 O137 2.141 . S
Mg130 O138 2.048 . S
Mg130 O139 2.048 . S
Mg130 O142 2.141 . S
C131 O132 1.313 . S
C131 O138 1.195 . S
O132 C131 1.313 . S
C133 O134 1.245 . S
C133 O142 1.289 . S
O134 C133 1.245 . S
C135 O136 1.245 . S
C135 O137 1.289 . S
O136 C135 1.245 . S
O137 Mg130 2.141 . S
O137 C135 1.289 . S
O138 Mg130 2.048 . S
O138 C131 1.195 . S
O139 Mg130 2.048 . S
O139 C140 1.195 . S
C140 O139 1.195 . S
C140 O141 1.313 . S
O141 C140 1.313 . S
O142 Mg130 2.141 . S
O142 C133 1.289 . S
Mg143 O150 2.141 . S
Mg143 O151 2.048 . S
Mg143 O152 2.048 . S
Mg143 O155 2.141 . S
C144 O145 1.313 . S
C144 O151 1.195 . S
O145 C144 1.313 . S
C146 O147 1.245 . S
C146 O155 1.289 . S
O147 C146 1.245 . S
C148 O149 1.245 . S
C148 O150 1.289 . S
O149 C148 1.245 . S
O150 Mg143 2.141 . S
O150 C148 1.289 . S
O151 Mg143 2.048 . S
O151 C144 1.195 . S
O152 Mg143 2.048 . S
O152 C153 1.195 . S
C153 O152 1.195 . S
C153 O154 1.313 . S
O154 C153 1.313 . S
O155 Mg143 2.141 . S
O155 C146 1.289 . S
Mg156 O163 2.141 . S
Mg156 O164 2.048 . S
Mg156 O165 2.048 . S
Mg156 O168 2.141 . S
C157 O158 1.313 . S
C157 O164 1.195 . S
O158 C157 1.313 . S
C159 O160 1.245 . S
C159 O168 1.289 . S
O160 C159 1.245 . S
C161 O162 1.245 . S
C161 O163 1.289 . S
O162 C161 1.245 . S
O163 Mg156 2.141 . S
O163 C161 1.289 . S
O164 Mg156 2.048 . S
O164 C157 1.195 . S
O165 Mg156 2.048 . S
O165 C166 1.195 . S
C166 O165 1.195 . S
C166 O167 1.313 . S
O167 C166 1.313 . S
O168 Mg156 2.141 . S
O168 C159 1.289 . S
Mg169 O176 2.141 . S
Mg169 O177 2.048 . S
Mg169 O178 2.048 . S
Mg169 O181 2.141 . S
C170 O171 1.313 . S
C170 O177 1.195 . S
O171 C170 1.313 . S
C172 O173 1.245 . S
C172 O181 1.289 . S
O173 C172 1.245 . S
C174 O175 1.245 . S
C174 O176 1.289 . S
O175 C174 1.245 . S
O176 Mg169 2.141 . S
O176 C174 1.289 . S
O177 Mg169 2.048 . S
O177 C170 1.195 . S
O178 Mg169 2.048 . S
O178 C179 1.195 . S
C179 O178 1.195 . S
C179 O180 1.313 . S
O180 C179 1.313 . S
O181 Mg169 2.141 . S
O181 C172 1.289 . S
Mg182 O189 2.141 . S
Mg182 O190 2.048 . S
Mg182 O191 2.048 . S
Mg182 O194 2.141 . S
C183 O184 1.313 . S
C183 O190 1.195 . S
O184 C183 1.313 . S
C185 O186 1.245 . S
C185 O194 1.289 . S
O186 C185 1.245 . S
C187 O188 1.245 . S
C187 O189 1.289 . S
O188 C187 1.245 . S
O189 Mg182 2.141 . S
O189 C187 1.289 . S
O190 Mg182 2.048 . S
O190 C183 1.195 . S
O191 Mg182 2.048 . S
O191 C192 1.195 . S
C192 O191 1.195 . S
C192 O193 1.313 . S
O193 C192 1.313 . S
O194 Mg182 2.141 . S
O194 C185 1.289 . S
Mg195 O202 2.141 . S
Mg195 O203 2.048 . S
Mg195 O204 2.048 . S
Mg195 O207 2.141 . S
C196 O197 1.313 . S
C196 O203 1.195 . S
O197 C196 1.313 . S
C198 O199 1.245 . S
C198 O207 1.289 . S
O199 C198 1.245 . S
C200 O201 1.245 . S
C200 O202 1.289 . S
O201 C200 1.245 . S
O202 Mg195 2.141 . S
O202 C200 1.289 . S
O203 Mg195 2.048 . S
O203 C196 1.195 . S
O204 Mg195 2.048 . S
O204 C205 1.195 . S
C205 O204 1.195 . S
C205 O206 1.313 . S
O206 C205 1.313 . S
O207 Mg195 2.141 . S
O207 C198 1.289 . S
Mg208 O215 2.141 . S
Mg208 O216 2.048 . S
Mg208 O217 2.048 . S
Mg208 O220 2.141 . S
C209 O210 1.313 . S
C209 O216 1.195 . S
O210 C209 1.313 . S
C211 O212 1.245 . S
C211 O220 1.289 . S
O212 C211 1.245 . S
C213 O214 1.245 . S
C213 O215 1.289 . S
O214 C213 1.245 . S
O215 Mg208 2.141 . S
O215 C213 1.289 . S
O216 Mg208 2.048 . S
O216 C209 1.195 . S
O217 Mg208 2.048 . S
O217 C218 1.195 . S
C218 O217 1.195 . S
C218 O219 1.313 . S
O219 C218 1.313 . S
O220 Mg208 2.141 . S
O220 C211 1.289 . S
Mg221 O228 2.141 . S
Mg221 O229 2.048 . S
Mg221 O230 2.048 . S
Mg221 O233 2.141 . S
C222 O223 1.313 . S
C222 O229 1.195 . S
O223 C222 1.313 . S
C224 O225 1.245 . S
C224 O233 1.289 . S
O225 C224 1.245 . S
C226 O227 1.245 . S
C226 O228 1.289 . S
O227 C226 1.245 . S
O228 Mg221 2.141 . S
O228 C226 1.289 . S
O229 Mg221 2.048 . S
O229 C222 1.195 . S
O230 Mg221 2.048 . S
O230 C231 1.195 . S
C231 O230 1.195 . S
C231 O232 1.313 . S
O232 C231 1.313 . S
O233 Mg221 2.141 . S
O233 C224 1.289 . S
Mg234 O241 2.141 . S
Mg234 O242 2.048 . S
Mg234 O243 2.048 . S
Mg234 O246 2.141 . S
C235 O236 1.313 . S
C235 O242 1.195 . S
O236 C235 1.313 . S
C237 O238 1.245 . S
C237 O246 1.289 . S
O238 C237 1.245 . S
C239 O240 1.245 . S
C239 O241 1.289 . S
O240 C239 1.245 . S
O241 Mg234 2.141 . S
O241 C239 1.289 . S
O242 Mg234 2.048 . S
O242 C235 1.195 . S
O243 Mg234 2.048 . S
O243 C244 1.195 . S
C244 O243 1.195 . S
C244 O245 1.313 . S
O245 C244 1.313 . S
O246 Mg234 2.141 . S
O246 C237 1.289 . S
Mg247 O254 2.141 . S
Mg247 O255 2.048 . S
Mg247 O256 2.048 . S
Mg247 O259 2.141 . S
C248 O249 1.313 . S
C248 O255 1.195 . S
O249 C248 1.313 . S
C250 O251 1.245 . S
C250 O259 1.289 . S
O251 C250 1.245 . S
C252 O253 1.245 . S
C252 O254 1.289 . S
O253 C252 1.245 . S
O254 Mg247 2.141 . S
O254 C252 1.289 . S
O255 Mg247 2.048 . S
O255 C248 1.195 . S
O256 Mg247 2.048 . S
O256 C257 1.195 . S
C257 O256 1.195 . S
C257 O258 1.313 . S
O258 C257 1.313 . S
O259 Mg247 2.141 . S
O259 C250 1.289 . S
Mg260 O267 2.141 . S
Mg260 O268 2.048 . S
Mg260 O269 2.048 . S
Mg260 O272 2.141 . S
C261 O262 1.313 . S
C261 O268 1.195 . S
O262 C261 1.313 . S
C263 O264 1.245 . S
C263 O272 1.289 . S
O264 C263 1.245 . S
C265 O266 1.245 . S
C265 O267 1.289 . S
O266 C265 1.245 . S
O267 Mg260 2.141 . S
O267 C265 1.289 . S
O268 Mg260 2.048 . S
O268 C261 1.195 . S
O269 Mg260 2.048 . S
O269 C270 1.195 . S
C270 O269 1.195 . S
C270 O271 1.313 . S
O271 C270 1.313 . S
O272 Mg260 2.141 . S
O272 C263 1.289 . S
Mg273 O280 2.141 . S
Mg273 O281 2.048 . S
Mg273 O282 2.048 . S
Mg273 O285 2.141 . S
C274 O275 1.313 . S
C274 O281 1.195 . S
O275 C274 1.313 . S
C276 O277 1.245 . S
C276 O285 1.289 . S
O277 C276 1.245 . S
C278 O279 1.245 . S
C278 O280 1.289 . S
O279 C278 1.245 . S
O280 Mg273 2.141 . S
O280 C278 1.289 . S
O281 Mg273 2.048 . S
O281 C274 1.195 . S
O282 Mg273 2.048 . S
O282 C283 1.195 . S
C283 O282 1.195 . S
C283 O284 1.313 . S
O284 C283 1.313 . S
O285 Mg273 2.141 . S
O285 C276 1.289 . S
Mg286 O293 2.141 . S
Mg286 O294 2.048 . S
Mg286 O295 2.048 . S
Mg286 O298 2.141 . S
C287 O288 1.313 . S
C287 O294 1.195 . S
O288 C287 1.313 . S
C289 O290 1.245 . S
C289 O298 1.289 . S
O290 C289 1.245 . S
C291 O292 1.245 . S
C291 O293 1.289 . S
O292 C291 1.245 . S
O293 Mg286 2.141 . S
O293 C291 1.289 . S
O294 Mg286 2.048 . S
O294 C287 1.195 . S
O295 Mg286 2.048 . S
O295 C296 1.195 . S
C296 O295 1.195 . S
C296 O297 1.313 . S
O297 C296 1.313 . S
O298 Mg286 2.141 . S
O298 C289 1.289 . S
Mg299 O306 2.141 . S
Mg299 O307 2.048 . S
Mg299 O308 2.048 . S
Mg299 O311 2.141 . S
C300 O301 1.313 . S
C300 O307 1.195 . S
O301 C300 1.313 . S
C302 O303 1.245 . S
C302 O311 1.289 . S
O303 C302 1.245 . S
C304 O305 1.245 . S
C304 O306 1.289 . S
O305 C304 1.245 . S
O306 Mg299 2.141 . S
O306 C304 1.289 . S
O307 Mg299 2.048 . S
O307 C300 1.195 . S
O308 Mg299 2.048 . S
O308 C309 1.195 . S
C309 O308 1.195 . S
C309 O310 1.313 . S
O310 C309 1.313 . S
O311 Mg299 2.141 . S
O311 C302 1.289 . S
H312 C320 0.950 . S
H313 C325 0.950 . S
H314 C322 0.950 . S
H315 C324 0.950 . S
H316 C326 0.950 . S
H317 C328 0.950 . S
H318 C330 0.950 . S
H319 C331 0.950 . S
C320 H312 0.950 . S
C320 C321 1.386 . S
C320 C322 1.391 . S
C321 C320 1.386 . S
C321 C325 1.393 . S
C322 H314 0.950 . S
C322 C320 1.391 . S
C322 C323 1.400 . S
C323 C322 1.400 . S
C323 C324 1.398 . S
C323 C329 1.491 . S
C324 H315 0.950 . S
C324 C323 1.398 . S
C324 C325 1.391 . S
C325 H313 0.950 . S
C325 C321 1.393 . S
C325 C324 1.391 . S
C326 H316 0.950 . S
C326 C327 1.386 . S
C326 C328 1.391 . S
C327 C326 1.386 . S
C327 C331 1.393 . S
C328 H317 0.950 . S
C328 C326 1.391 . S
C328 C329 1.400 . S
C329 C323 1.491 . S
C329 C328 1.400 . S
C329 C330 1.398 . S
C330 H318 0.950 . S
C330 C329 1.398 . S
C330 C331 1.391 . S
C331 H319 0.950 . S
C331 C327 1.393 . S
C331 C330 1.391 . S
H332 C340 0.950 . S
H333 C345 0.950 . S
H334 C342 0.950 . S
H335 C344 0.950 . S
H336 C346 0.950 . S
H337 C348 0.950 . S
H338 C350 0.950 . S
H339 C351 0.950 . S
C340 H332 0.950 . S
C340 C341 1.386 . S
C340 C342 1.391 . S
C341 C340 1.386 . S
C341 C345 1.393 . S
C342 H334 0.950 . S
C342 C340 1.391 . S
C342 C343 1.400 . S
C343 C342 1.400 . S
C343 C344 1.398 . S
C343 C349 1.491 . S
C344 H335 0.950 . S
C344 C343 1.398 . S
C344 C345 1.391 . S
C345 H333 0.950 . S
C345 C341 1.393 . S
C345 C344 1.391 . S
C346 H336 0.950 . S
C346 C347 1.386 . S
C346 C348 1.391 . S
C347 C346 1.386 . S
C347 C351 1.393 . S
C348 H337 0.950 . S
C348 C346 1.391 . S
C348 C349 1.400 . S
C349 C343 1.491 . S
C349 C348 1.400 . S
C349 C350 1.398 . S
C350 H338 0.950 . S
C350 C349 1.398 . S
C350 C351 1.391 . S
C351 H339 0.950 . S
C351 C347 1.393 . S
C351 C350 1.391 . S
H352 C360 0.950 . S
H353 C365 0.950 . S
H354 C362 0.950 . S
H355 C364 0.950 . S
H356 C366 0.950 . S
H357 C368 0.950 . S
H358 C370 0.950 . S
H359 C371 0.950 . S
C360 H352 0.950 . S
C360 C361 1.386 . S
C360 C362 1.391 . S
C361 C360 1.386 . S
C361 C365 1.393 . S
C362 H354 0.950 . S
C362 C360 1.391 . S
C362 C363 1.400 . S
C363 C362 1.400 . S
C363 C364 1.398 . S
C363 C369 1.491 . S
C364 H355 0.950 . S
C364 C363 1.398 . S
C364 C365 1.391 . S
C365 H353 0.950 . S
C365 C361 1.393 . S
C365 C364 1.391 . S
C366 H356 0.950 . S
C366 C367 1.386 . S
C366 C368 1.391 . S
C367 C366 1.386 . S
C367 C371 1.393 . S
C368 H357 0.950 . S
C368 C366 1.391 . S
C368 C369 1.400 . S
C369 C363 1.491 . S
C369 C368 1.400 . S
C369 C370 1.398 . S
C370 H358 0.950 . S
C370 C369 1.398 . S
C370 C371 1.391 . S
C371 H359 0.950 . S
C371 C367 1.393 . S
C371 C370 1.391 . S
H372 C380 0.950 . S
H373 C385 0.950 . S
H374 C382 0.950 . S
H375 C384 0.950 . S
H376 C386 0.950 . S
H377 C388 0.950 . S
H378 C390 0.950 . S
H379 C391 0.950 . S
C380 H372 0.950 . S
C380 C381 1.386 . S
C380 C382 1.391 . S
C381 C380 1.386 . S
C381 C385 1.393 . S
C382 H374 0.950 . S
C382 C380 1.391 . S
C382 C383 1.400 . S
C383 C382 1.400 . S
C383 C384 1.398 . S
C383 C389 1.491 . S
C384 H375 0.950 . S
C384 C383 1.398 . S
C384 C385 1.391 . S
C385 H373 0.950 . S
C385 C381 1.393 . S
C385 C384 1.391 . S
C386 H376 0.950 . S
C386 C387 1.386 . S
C386 C388 1.391 . S
C387 C386 1.386 . S
C387 C391 1.393 . S
C388 H377 0.950 . S
C388 C386 1.391 . S
C388 C389 1.400 . S
C389 C383 1.491 . S
C389 C388 1.400 . S
C389 C390 1.398 . S
C390 H378 0.950 . S
C390 C389 1.398 . S
C390 C391 1.391 . S
C391 H379 0.950 . S
C391 C387 1.393 . S
C391 C390 1.391 . S
H392 C400 0.950 . S
H393 C405 0.950 . S
H394 C402 0.950 . S
H395 C404 0.950 . S
H396 C406 0.950 . S
H397 C408 0.950 . S
H398 C410 0.950 . S
H399 C411 0.950 . S
C400 H392 0.950 . S
C400 C401 1.386 . S
C400 C402 1.391 . S
C401 C400 1.386 . S
C401 C405 1.393 . S
C402 H394 0.950 . S
C402 C400 1.391 . S
C402 C403 1.400 . S
C403 C402 1.400 . S
C403 C404 1.398 . S
C403 C409 1.491 . S
C404 H395 0.950 . S
C404 C403 1.398 . S
C404 C405 1.391 . S
C405 H393 0.950 . S
C405 C401 1.393 . S
C405 C404 1.391 . S
C406 H396 0.950 . S
C406 C407 1.386 . S
C406 C408 1.391 . S
C407 C406 1.386 . S
C407 C411 1.393 . S
C408 H397 0.950 . S
C408 C406 1.391 . S
C408 C409 1.400 . S
C409 C403 1.491 . S
C409 C408 1.400 . S
C409 C410 1.398 . S
C410 H398 0.950 . S
C410 C409 1.398 . S
C410 C411 1.391 . S
C411 H399 0.950 . S
C411 C407 1.393 . S
C411 C410 1.391 . S
H412 C420 0.950 . S
H413 C425 0.950 . S
H414 C422 0.950 . S
H415 C424 0.950 . S
H416 C426 0.950 . S
H417 C428 0.950 . S
H418 C430 0.950 . S
H419 C431 0.950 . S
C420 H412 0.950 . S
C420 C421 1.386 . S
C420 C422 1.391 . S
C421 C420 1.386 . S
C421 C425 1.393 . S
C422 H414 0.950 . S
C422 C420 1.391 . S
C422 C423 1.400 . S
C423 C422 1.400 . S
C423 C424 1.398 . S
C423 C429 1.491 . S
C424 H415 0.950 . S
C424 C423 1.398 . S
C424 C425 1.391 . S
C425 H413 0.950 . S
C425 C421 1.393 . S
C425 C424 1.391 . S
C426 H416 0.950 . S
C426 C427 1.386 . S
C426 C428 1.391 . S
C427 C426 1.386 . S
C427 C431 1.393 . S
C428 H417 0.950 . S
C428 C426 1.391 . S
C428 C429 1.400 . S
C429 C423 1.491 . S
C429 C428 1.400 . S
C429 C430 1.398 . S
C430 H418 0.950 . S
C430 C429 1.398 . S
C430 C431 1.391 . S
C431 H419 0.950 . S
C431 C427 1.393 . S
C431 C430 1.391 . S
H432 C440 0.950 . S
H433 C445 0.950 . S
H434 C442 0.950 . S
H435 C444 0.950 . S
H436 C446 0.950 . S
H437 C448 0.950 . S
H438 C450 0.950 . S
H439 C451 0.950 . S
C440 H432 0.950 . S
C440 C441 1.386 . S
C440 C442 1.391 . S
C441 C440 1.386 . S
C441 C445 1.393 . S
C442 H434 0.950 . S
C442 C440 1.391 . S
C442 C443 1.400 . S
C443 C442 1.400 . S
C443 C444 1.398 . S
C443 C449 1.491 . S
C444 H435 0.950 . S
C444 C443 1.398 . S
C444 C445 1.391 . S
C445 H433 0.950 . S
C445 C441 1.393 . S
C445 C444 1.391 . S
C446 H436 0.950 . S
C446 C447 1.386 . S
C446 C448 1.391 . S
C447 C446 1.386 . S
C447 C451 1.393 . S
C448 H437 0.950 . S
C448 C446 1.391 . S
C448 C449 1.400 . S
C449 C443 1.491 . S
C449 C448 1.400 . S
C449 C450 1.398 . S
C450 H438 0.950 . S
C450 C449 1.398 . S
C450 C451 1.391 . S
C451 H439 0.950 . S
C451 C447 1.393 . S
C451 C450 1.391 . S
H452 C460 0.950 . S
H453 C465 0.950 . S
H454 C462 0.950 . S
H455 C464 0.950 . S
H456 C466 0.950 . S
H457 C468 0.950 . S
H458 C470 0.950 . S
H459 C471 0.950 . S
C460 H452 0.950 . S
C460 C461 1.386 . S
C460 C462 1.391 . S
C461 C460 1.386 . S
C461 C465 1.393 . S
C462 H454 0.950 . S
C462 C460 1.391 . S
C462 C463 1.400 . S
C463 C462 1.400 . S
C463 C464 1.398 . S
C463 C469 1.491 . S
C464 H455 0.950 . S
C464 C463 1.398 . S
C464 C465 1.391 . S
C465 H453 0.950 . S
C465 C461 1.393 . S
C465 C464 1.391 . S
C466 H456 0.950 . S
C466 C467 1.386 . S
C466 C468 1.391 . S
C467 C466 1.386 . S
C467 C471 1.393 . S
C468 H457 0.950 . S
C468 C466 1.391 . S
C468 C469 1.400 . S
C469 C463 1.491 . S
C469 C468 1.400 . S
C469 C470 1.398 . S
C470 H458 0.950 . S
C470 C469 1.398 . S
C470 C471 1.391 . S
C471 H459 0.950 . S
C471 C467 1.393 . S
C471 C470 1.391 . S
H472 C480 0.950 . S
H473 C485 0.950 . S
H474 C482 0.950 . S
H475 C484 0.950 . S
H476 C486 0.950 . S
H477 C488 0.950 . S
H478 C490 0.950 . S
H479 C491 0.950 . S
C480 H472 0.950 . S
C480 C481 1.386 . S
C480 C482 1.391 . S
C481 C480 1.386 . S
C481 C485 1.393 . S
C482 H474 0.950 . S
C482 C480 1.391 . S
C482 C483 1.400 . S
C483 C482 1.400 . S
C483 C484 1.398 . S
C483 C489 1.491 . S
C484 H475 0.950 . S
C484 C483 1.398 . S
C484 C485 1.391 . S
C485 H473 0.950 . S
C485 C481 1.393 . S
C485 C484 1.391 . S
C486 H476 0.950 . S
C486 C487 1.386 . S
C486 C488 1.391 . S
C487 C486 1.386 . S
C487 C491 1.393 . S
C488 H477 0.950 . S
C488 C486 1.391 . S
C488 C489 1.400 . S
C489 C483 1.491 . S
C489 C488 1.400 . S
C489 C490 1.398 . S
C490 H478 0.950 . S
C490 C489 1.398 . S
C490 C491 1.391 . S
C491 H479 0.950 . S
C491 C487 1.393 . S
C491 C490 1.391 . S
H492 C500 0.950 . S
H493 C505 0.950 . S
H494 C502 0.950 . S
H495 C504 0.950 . S
H496 C506 0.950 . S
H497 C508 0.950 . S
H498 C510 0.950 . S
H499 C511 0.950 . S
C500 H492 0.950 . S
C500 C501 1.386 . S
C500 C502 1.391 . S
C501 C500 1.386 . S
C501 C505 1.393 . S
C502 H494 0.950 . S
C502 C500 1.391 . S
C502 C503 1.400 . S
C503 C502 1.400 . S
C503 C504 1.398 . S
C503 C509 1.491 . S
C504 H495 0.950 . S
C504 C503 1.398 . S
C504 C505 1.391 . S
C505 H493 0.950 . S
C505 C501 1.393 . S
C505 C504 1.391 . S
C506 H496 0.950 . S
C506 C507 1.386 . S
C506 C508 1.391 . S
C507 C506 1.386 . S
C507 C511 1.393 . S
C508 H497 0.950 . S
C508 C506 1.391 . S
C508 C509 1.400 . S
C509 C503 1.491 . S
C509 C508 1.400 . S
C509 C510 1.398 . S
C510 H498 0.950 . S
C510 C509 1.398 . S
C510 C511 1.391 . S
C511 H499 0.950 . S
C511 C507 1.393 . S
C511 C510 1.391 . S
H512 C520 0.950 . S
H513 C525 0.950 . S
H514 C522 0.950 . S
H515 C524 0.950 . S
H516 C526 0.950 . S
H517 C528 0.950 . S
H518 C530 0.950 . S
H519 C531 0.950 . S
C520 H512 0.950 . S
C520 C521 1.386 . S
C520 C522 1.391 . S
C521 C520 1.386 . S
C521 C525 1.393 . S
C522 H514 0.950 . S
C522 C520 1.391 . S
C522 C523 1.400 . S
C523 C522 1.400 . S
C523 C524 1.398 . S
C523 C529 1.491 . S
C524 H515 0.950 . S
C524 C523 1.398 . S
C524 C525 1.391 . S
C525 H513 0.950 . S
C525 C521 1.393 . S
C525 C524 1.391 . S
C526 H516 0.950 . S
C526 C527 1.386 . S
C526 C528 1.391 . S
C527 C526 1.386 . S
C527 C531 1.393 . S
C528 H517 0.950 . S
C528 C526 1.391 . S
C528 C529 1.400 . S
C529 C523 1.491 . S
C529 C528 1.400 . S
C529 C530 1.398 . S
C530 H518 0.950 . S
C530 C529 1.398 . S
C530 C531 1.391 . S
C531 H519 0.950 . S
C531 C527 1.393 . S
C531 C530 1.391 . S
H532 C540 0.950 . S
H533 C545 0.950 . S
H534 C542 0.950 . S
H535 C544 0.950 . S
H536 C546 0.950 . S
H537 C548 0.950 . S
H538 C550 0.950 . S
H539 C551 0.950 . S
C540 H532 0.950 . S
C540 C541 1.386 . S
C540 C542 1.391 . S
C541 C540 1.386 . S
C541 C545 1.393 . S
C542 H534 0.950 . S
C542 C540 1.391 . S
C542 C543 1.400 . S
C543 C542 1.400 . S
C543 C544 1.398 . S
C543 C549 1.491 . S
C544 H535 0.950 . S
C544 C543 1.398 . S
C544 C545 1.391 . S
C545 H533 0.950 . S
C545 C541 1.393 . S
C545 C544 1.391 . S
C546 H536 0.950 . S
C546 C547 1.386 . S
C546 C548 1.391 . S
C547 C546 1.386 . S
C547 C551 1.393 . S
C548 H537 0.950 . S
C548 C546 1.391 . S
C548 C549 1.400 . S
C549 C543 1.491 . S
C549 C548 1.400 . S
C549 C550 1.398 . S
C550 H538 0.950 . S
C550 C549 1.398 . S
C550 C551 1.391 . S
C551 H539 0.950 . S
C551 C547 1.393 . S
C551 C550 1.391 . S
H552 C560 0.950 . S
H553 C565 0.950 . S
H554 C562 0.950 1_545 S
H555 C564 0.950 . S
H556 C566 0.950 . S
H557 C568 0.950 1_565 S
H558 C570 0.950 . S
H559 C571 0.950 . S
C560 H552 0.950 . S
C560 C561 1.386 . S
C560 C562 1.391 . S
C561 C560 1.386 . S
C561 C565 1.393 . S
C562 H554 0.950 1_565 S
C562 C560 1.391 . S
C562 C563 1.400 . S
C563 C562 1.400 . S
C563 C564 1.398 . S
C563 C569 1.491 1_565 S
C564 H555 0.950 . S
C564 C563 1.398 . S
C564 C565 1.391 . S
C565 H553 0.950 . S
C565 C561 1.393 . S
C565 C564 1.391 . S
C566 H556 0.950 . S
C566 C567 1.386 . S
C566 C568 1.391 . S
C567 C566 1.386 . S
C567 C571 1.393 . S
C568 H557 0.950 1_545 S
C568 C566 1.391 . S
C568 C569 1.400 . S
C569 C563 1.491 1_545 S
C569 C568 1.400 . S
C569 C570 1.398 . S
C570 H558 0.950 . S
C570 C569 1.398 . S
C570 C571 1.391 . S
C571 H559 0.950 . S
C571 C567 1.393 . S
C571 C570 1.391 . S
H572 C580 0.950 . S
H573 C585 0.950 . S
H574 C582 0.950 1_455 S
H575 C584 0.950 . S
H576 C586 0.950 . S
H577 C588 0.950 1_655 S
H578 C590 0.950 . S
H579 C591 0.950 . S
C580 H572 0.950 . S
C580 C581 1.386 . S
C580 C582 1.391 . S
C581 C580 1.386 . S
C581 C585 1.393 . S
C582 H574 0.950 1_655 S
C582 C580 1.391 . S
C582 C583 1.400 . S
C583 C582 1.400 . S
C583 C584 1.398 . S
C583 C589 1.491 1_655 S
C584 H575 0.950 . S
C584 C583 1.398 . S
C584 C585 1.391 . S
C585 H573 0.950 . S
C585 C581 1.393 . S
C585 C584 1.391 . S
C586 H576 0.950 . S
C586 C587 1.386 . S
C586 C588 1.391 . S
C587 C586 1.386 . S
C587 C591 1.393 . S
C588 H577 0.950 1_455 S
C588 C586 1.391 . S
C588 C589 1.400 . S
C589 C583 1.491 1_455 S
C589 C588 1.400 . S
C589 C590 1.398 . S
C590 H578 0.950 . S
C590 C589 1.398 . S
C590 C591 1.391 . S
C591 H579 0.950 . S
C591 C587 1.393 . S
C591 C590 1.391 . S
H592 C600 0.950 . S
H593 C605 0.950 . S
H594 C602 0.950 . S
H595 C604 0.950 1_565 S
H596 C606 0.950 . S
H597 C608 0.950 . S
H598 C610 0.950 1_545 S
H599 C611 0.950 . S
C600 H592 0.950 . S
C600 C601 1.386 . S
C600 C602 1.391 . S
C601 C600 1.386 . S
C601 C605 1.393 . S
C602 H594 0.950 . S
C602 C600 1.391 . S
C602 C603 1.400 . S
C603 C602 1.400 . S
C603 C604 1.398 . S
C603 C609 1.491 1_545 S
C604 H595 0.950 1_545 S
C604 C603 1.398 . S
C604 C605 1.391 . S
C605 H593 0.950 . S
C605 C601 1.393 . S
C605 C604 1.391 . S
C606 H596 0.950 . S
C606 C607 1.386 . S
C606 C608 1.391 . S
C607 C606 1.386 . S
C607 C611 1.393 . S
C608 H597 0.950 . S
C608 C606 1.391 . S
C608 C609 1.400 . S
C609 C603 1.491 1_565 S
C609 C608 1.400 . S
C609 C610 1.398 . S
C610 H598 0.950 1_565 S
C610 C609 1.398 . S
C610 C611 1.391 . S
C611 H599 0.950 . S
C611 C607 1.393 . S
C611 C610 1.391 . S
H612 C620 0.950 . S
H613 C625 0.950 . S
H614 C622 0.950 1_655 S
H615 C624 0.950 . S
H616 C626 0.950 . S
H617 C628 0.950 1_455 S
H618 C630 0.950 . S
H619 C631 0.950 . S
C620 H612 0.950 . S
C620 C621 1.386 . S
C620 C622 1.391 . S
C621 C620 1.386 . S
C621 C625 1.393 . S
C622 H614 0.950 1_455 S
C622 C620 1.391 . S
C622 C623 1.400 . S
C623 C622 1.400 . S
C623 C624 1.398 . S
C623 C629 1.491 1_455 S
C624 H615 0.950 . S
C624 C623 1.398 . S
C624 C625 1.391 . S
C625 H613 0.950 . S
C625 C621 1.393 . S
C625 C624 1.391 . S
C626 H616 0.950 . S
C626 C627 1.386 . S
C626 C628 1.391 . S
C627 C626 1.386 . S
C627 C631 1.393 . S
C628 H617 0.950 1_655 S
C628 C626 1.391 . S
C628 C629 1.400 . S
C629 C623 1.491 1_655 S
C629 C628 1.400 . S
C629 C630 1.398 . S
C630 H618 0.950 . S
C630 C629 1.398 . S
C630 C631 1.391 . S
C631 H619 0.950 . S
C631 C627 1.393 . S
C631 C630 1.391 . S
H632 C640 0.950 . S
H633 C645 0.950 . S
H634 C642 0.950 1_545 S
H635 C644 0.950 . S
H636 C646 0.950 . S
H637 C648 0.950 1_565 S
H638 C650 0.950 . S
H639 C651 0.950 . S
C640 H632 0.950 . S
C640 C641 1.386 . S
C640 C642 1.391 . S
C641 C640 1.386 . S
C641 C645 1.393 . S
C642 H634 0.950 1_565 S
C642 C640 1.391 . S
C642 C643 1.400 . S
C643 C642 1.400 . S
C643 C644 1.398 . S
C643 C649 1.491 1_565 S
C644 H635 0.950 . S
C644 C643 1.398 . S
C644 C645 1.391 . S
C645 H633 0.950 . S
C645 C641 1.393 . S
C645 C644 1.391 . S
C646 H636 0.950 . S
C646 C647 1.386 . S
C646 C648 1.391 . S
C647 C646 1.386 . S
C647 C651 1.393 . S
C648 H637 0.950 1_545 S
C648 C646 1.391 . S
C648 C649 1.400 . S
C649 C643 1.491 1_545 S
C649 C648 1.400 . S
C649 C650 1.398 . S
C650 H638 0.950 . S
C650 C649 1.398 . S
C650 C651 1.391 . S
C651 H639 0.950 . S
C651 C647 1.393 . S
C651 C650 1.391 . S
H652 C660 0.950 . S
H653 C665 0.950 . S
H654 C662 0.950 . S
H655 C664 0.950 1_455 S
H656 C666 0.950 . S
H657 C668 0.950 . S
H658 C670 0.950 1_655 S
H659 C671 0.950 . S
C660 H652 0.950 . S
C660 C661 1.386 . S
C660 C662 1.391 . S
C661 C660 1.386 . S
C661 C665 1.393 . S
C662 H654 0.950 . S
C662 C660 1.391 . S
C662 C663 1.400 . S
C663 C662 1.400 . S
C663 C664 1.398 . S
C663 C669 1.491 1_655 S
C664 H655 0.950 1_655 S
C664 C663 1.398 . S
C664 C665 1.391 . S
C665 H653 0.950 . S
C665 C661 1.393 . S
C665 C664 1.391 . S
C666 H656 0.950 . S
C666 C667 1.386 . S
C666 C668 1.391 . S
C667 C666 1.386 . S
C667 C671 1.393 . S
C668 H657 0.950 . S
C668 C666 1.391 . S
C668 C669 1.400 . S
C669 C663 1.491 1_455 S
C669 C668 1.400 . S
C669 C670 1.398 . S
C670 H658 0.950 1_455 S
C670 C669 1.398 . S
C670 C671 1.391 . S
C671 H659 0.950 . S
C671 C667 1.393 . S
C671 C670 1.391 . S
H672 C680 0.950 . S
H673 C685 0.950 . S
H674 C682 0.957 . S
H675 C684 0.950 . S
H676 C686 0.950 . S
H677 C688 0.957 . S
H678 C690 0.950 . S
H679 C691 0.950 . S
C680 H672 0.950 . S
C680 C681 1.386 . S
C680 C682 1.391 . S
C681 C680 1.386 . S
C681 C685 1.393 . S
C682 H674 0.957 . S
C682 C680 1.391 . S
C682 C683 1.400 . S
C683 C682 1.400 . S
C683 C684 1.398 . S
C683 C689 1.491 1_565 S
C684 H675 0.950 . S
C684 C683 1.398 . S
C684 C685 1.391 . S
C685 H673 0.950 . S
C685 C681 1.393 . S
C685 C684 1.391 . S
C686 H676 0.950 . S
C686 C687 1.386 . S
C686 C688 1.391 . S
C687 C686 1.386 . S
C687 C691 1.393 . S
C688 H677 0.957 . S
C688 C686 1.391 . S
C688 C689 1.400 . S
C689 C683 1.491 1_545 S
C689 C688 1.400 . S
C689 C690 1.398 . S
C690 H678 0.950 . S
C690 C689 1.398 . S
C690 C691 1.391 . S
C691 H679 0.950 . S
C691 C687 1.393 . S
C691 C690 1.391 . S
H692 C700 0.950 . S
H693 C705 0.950 . S
H694 C702 0.950 . S
H695 C704 0.950 1_655 S
H696 C706 0.950 . S
H697 C708 0.950 . S
H698 C710 0.950 1_455 S
H699 C711 0.950 . S
C700 H692 0.950 . S
C700 C701 1.386 . S
C700 C702 1.391 . S
C701 C700 1.386 . S
C701 C705 1.393 . S
C702 H694 0.950 . S
C702 C700 1.391 . S
C702 C703 1.400 . S
C703 C702 1.400 . S
C703 C704 1.398 . S
C703 C709 1.491 1_455 S
C704 H695 0.950 1_455 S
C704 C703 1.398 . S
C704 C705 1.391 . S
C705 H693 0.950 . S
C705 C701 1.393 . S
C705 C704 1.391 . S
C706 H696 0.950 . S
C706 C707 1.386 . S
C706 C708 1.391 . S
C707 C706 1.386 . S
C707 C711 1.393 . S
C708 H697 0.950 . S
C708 C706 1.391 . S
C708 C709 1.400 . S
C709 C703 1.491 1_655 S
C709 C708 1.400 . S
C709 C710 1.398 . S
C710 H698 0.950 1_655 S
C710 C709 1.398 . S
C710 C711 1.391 . S
C711 H699 0.950 . S
C711 C707 1.393 . S
C711 C710 1.391 . S
H712 C720 0.950 . S
H713 C725 0.950 . S
H714 C722 0.950 . S
H715 C724 0.950 . S
H716 C726 0.950 . S
H717 C728 0.950 . S
H718 C730 0.950 . S
H719 C731 0.950 . S
C720 H712 0.950 . S
C720 C721 1.386 . S
C720 C722 1.391 . S
C721 C720 1.386 . S
C721 C725 1.393 . S
C722 H714 0.950 . S
C722 C720 1.391 . S
C722 C723 1.400 . S
C723 C722 1.400 . S
C723 C724 1.398 . S
C723 C729 1.491 1_556 S
C724 H715 0.950 . S
C724 C723 1.398 . S
C724 C725 1.391 . S
C725 H713 0.950 . S
C725 C721 1.393 . S
C725 C724 1.391 . S
C726 H716 0.950 . S
C726 C727 1.386 . S
C726 C728 1.391 . S
C727 C726 1.386 . S
C727 C731 1.393 . S
C728 H717 0.950 . S
C728 C726 1.391 . S
C728 C729 1.400 . S
C729 C723 1.491 1_554 S
C729 C728 1.400 . S
C729 C730 1.398 . S
C730 H718 0.950 . S
C730 C729 1.398 . S
C730 C731 1.391 . S
C731 H719 0.950 . S
C731 C727 1.393 . S
C731 C730 1.391 . S
H732 C740 0.950 . S
H733 C745 0.950 . S
H734 C742 0.950 . S
H735 C744 0.950 . S
H736 C746 0.950 . S
H737 C748 0.950 . S
H738 C750 0.950 . S
H739 C751 0.950 . S
C740 H732 0.950 . S
C740 C741 1.386 . S
C740 C742 1.391 . S
C741 C740 1.386 . S
C741 C745 1.393 . S
C742 H734 0.950 . S
C742 C740 1.391 . S
C742 C743 1.400 . S
C743 C742 1.400 . S
C743 C744 1.398 . S
C743 C749 1.491 1_554 S
C744 H735 0.950 . S
C744 C743 1.398 . S
C744 C745 1.391 . S
C745 H733 0.950 . S
C745 C741 1.393 . S
C745 C744 1.391 . S
C746 H736 0.950 . S
C746 C747 1.386 . S
C746 C748 1.391 . S
C747 C746 1.386 . S
C747 C751 1.393 . S
C748 H737 0.950 . S
C748 C746 1.391 . S
C748 C749 1.400 . S
C749 C743 1.491 1_556 S
C749 C748 1.400 . S
C749 C750 1.398 . S
C750 H738 0.950 . S
C750 C749 1.398 . S
C750 C751 1.391 . S
C751 H739 0.950 . S
C751 C747 1.393 . S
C751 C750 1.391 . S
H752 C760 0.950 . S
H753 C765 0.950 . S
H754 C762 0.950 1_554 S
H755 C764 0.950 . S
H756 C766 0.950 . S
H757 C768 0.950 1_556 S
H758 C770 0.950 . S
H759 C771 0.950 . S
C760 H752 0.950 . S
C760 C761 1.386 . S
C760 C762 1.391 . S
C761 C760 1.386 . S
C761 C765 1.393 . S
C762 H754 0.950 1_556 S
C762 C760 1.391 . S
C762 C763 1.400 . S
C763 C762 1.400 . S
C763 C764 1.398 . S
C763 C769 1.491 1_556 S
C764 H755 0.950 . S
C764 C763 1.398 . S
C764 C765 1.391 . S
C765 H753 0.950 . S
C765 C761 1.393 . S
C765 C764 1.391 . S
C766 H756 0.950 . S
C766 C767 1.386 . S
C766 C768 1.391 . S
C767 C766 1.386 . S
C767 C771 1.393 . S
C768 H757 0.950 1_554 S
C768 C766 1.391 . S
C768 C769 1.400 . S
C769 C763 1.491 1_554 S
C769 C768 1.400 . S
C769 C770 1.398 . S
C770 H758 0.950 . S
C770 C769 1.398 . S
C770 C771 1.391 . S
C771 H759 0.950 . S
C771 C767 1.393 . S
C771 C770 1.391 . S
H772 C780 0.950 . S
H773 C785 0.950 . S
H774 C782 0.950 . S
H775 C784 0.950 . S
H776 C786 0.950 . S
H777 C788 0.950 . S
H778 C790 0.950 . S
H779 C791 0.950 . S
C780 H772 0.950 . S
C780 C781 1.386 . S
C780 C782 1.391 . S
C781 C780 1.386 . S
C781 C785 1.393 . S
C782 H774 0.950 . S
C782 C780 1.391 . S
C782 C783 1.400 . S
C783 C782 1.400 . S
C783 C784 1.398 . S
C783 C789 1.491 1_554 S
C784 H775 0.950 . S
C784 C783 1.398 . S
C784 C785 1.391 . S
C785 H773 0.950 . S
C785 C781 1.393 . S
C785 C784 1.391 . S
C786 H776 0.950 . S
C786 C787 1.386 . S
C786 C788 1.391 . S
C787 C786 1.386 . S
C787 C791 1.393 . S
C788 H777 0.950 . S
C788 C786 1.391 . S
C788 C789 1.400 . S
C789 C783 1.491 1_556 S
C789 C788 1.400 . S
C789 C790 1.398 . S
C790 H778 0.950 . S
C790 C789 1.398 . S
C790 C791 1.391 . S
C791 H779 0.950 . S
C791 C787 1.393 . S
C791 C790 1.391 . S
H792 C800 0.950 . S
H793 C805 0.950 . S
H794 C802 0.950 . S
H795 C804 0.950 . S
H796 C806 0.950 . S
H797 C808 0.950 . S
H798 C810 0.950 . S
H799 C811 0.950 . S
C800 H792 0.950 . S
C800 C801 1.386 . S
C800 C802 1.391 . S
C801 C800 1.386 . S
C801 C805 1.393 . S
C802 H794 0.950 . S
C802 C800 1.391 . S
C802 C803 1.400 . S
C803 C802 1.400 . S
C803 C804 1.398 . S
C803 C809 1.491 . S
C804 H795 0.950 . S
C804 C803 1.398 . S
C804 C805 1.391 . S
C805 H793 0.950 . S
C805 C801 1.393 . S
C805 C804 1.391 . S
C806 H796 0.950 . S
C806 C807 1.386 . S
C806 C808 1.391 . S
C807 C806 1.386 . S
C807 C811 1.393 . S
C808 H797 0.950 . S
C808 C806 1.391 . S
C808 C809 1.400 . S
C809 C803 1.491 . S
C809 C808 1.400 . S
C809 C810 1.398 . S
C810 H798 0.950 . S
C810 C809 1.398 . S
C810 C811 1.391 . S
C811 H799 0.950 . S
C811 C807 1.393 . S
C811 C810 1.391 . S
H812 C820 0.950 . S
H813 C825 0.950 . S
H814 C822 0.950 . S
H815 C824 0.950 . S
H816 C826 0.950 . S
H817 C828 0.950 . S
H818 C830 0.950 . S
H819 C831 0.950 . S
C820 H812 0.950 . S
C820 C821 1.386 . S
C820 C822 1.391 . S
C821 C820 1.386 . S
C821 C825 1.393 . S
C822 H814 0.950 . S
C822 C820 1.391 . S
C822 C823 1.400 . S
C823 C822 1.400 . S
C823 C824 1.398 . S
C823 C829 1.491 . S
C824 H815 0.950 . S
C824 C823 1.398 . S
C824 C825 1.391 . S
C825 H813 0.950 . S
C825 C821 1.393 . S
C825 C824 1.391 . S
C826 H816 0.950 . S
C826 C827 1.386 . S
C826 C828 1.391 . S
C827 C826 1.386 . S
C827 C831 1.393 . S
C828 H817 0.950 . S
C828 C826 1.391 . S
C828 C829 1.400 . S
C829 C823 1.491 . S
C829 C828 1.400 . S
C829 C830 1.398 . S
C830 H818 0.950 . S
C830 C829 1.398 . S
C830 C831 1.391 . S
C831 H819 0.950 . S
C831 C827 1.393 . S
C831 C830 1.391 . S
H832 C840 0.950 . S
H833 C845 0.950 . S
H834 C842 0.950 . S
H835 C844 0.950 . S
H836 C846 0.950 . S
H837 C848 0.950 . S
H838 C850 0.950 . S
H839 C851 0.950 . S
C840 H832 0.950 . S
C840 C841 1.386 . S
C840 C842 1.391 . S
C841 C840 1.386 . S
C841 C845 1.393 . S
C842 H834 0.950 . S
C842 C840 1.391 . S
C842 C843 1.400 . S
C843 C842 1.400 . S
C843 C844 1.398 . S
C843 C849 1.491 . S
C844 H835 0.950 . S
C844 C843 1.398 . S
C844 C845 1.391 . S
C845 H833 0.950 . S
C845 C841 1.393 . S
C845 C844 1.391 . S
C846 H836 0.950 . S
C846 C847 1.386 . S
C846 C848 1.391 . S
C847 C846 1.386 . S
C847 C851 1.393 . S
C848 H837 0.950 . S
C848 C846 1.391 . S
C848 C849 1.400 . S
C849 C843 1.491 . S
C849 C848 1.400 . S
C849 C850 1.398 . S
C850 H838 0.950 . S
C850 C849 1.398 . S
C850 C851 1.391 . S
C851 H839 0.950 . S
C851 C847 1.393 . S
C851 C850 1.391 . S
H852 C860 0.950 . S
H853 C865 0.950 . S
H854 C862 0.950 . S
H855 C864 0.950 . S
H856 C866 0.950 . S
H857 C868 0.950 . S
H858 C870 0.950 . S
H859 C871 0.950 . S
C860 H852 0.950 . S
C860 C861 1.386 . S
C860 C862 1.391 . S
C861 C860 1.386 . S
C861 C865 1.393 . S
C862 H854 0.950 . S
C862 C860 1.391 . S
C862 C863 1.400 . S
C863 C862 1.400 . S
C863 C864 1.398 . S
C863 C869 1.491 . S
C864 H855 0.950 . S
C864 C863 1.398 . S
C864 C865 1.391 . S
C865 H853 0.950 . S
C865 C861 1.393 . S
C865 C864 1.391 . S
C866 H856 0.950 . S
C866 C867 1.386 . S
C866 C868 1.391 . S
C867 C866 1.386 . S
C867 C871 1.393 . S
C868 H857 0.950 . S
C868 C866 1.391 . S
C868 C869 1.400 . S
C869 C863 1.491 . S
C869 C868 1.400 . S
C869 C870 1.398 . S
C870 H858 0.950 . S
C870 C869 1.398 . S
C870 C871 1.391 . S
C871 H859 0.950 . S
C871 C867 1.393 . S
C871 C870 1.391 . S
H872 C880 0.950 . S
H873 C885 0.950 . S
H874 C882 0.950 . S
H875 C884 0.950 . S
H876 C886 0.950 . S
H877 C888 0.950 . S
H878 C890 0.950 . S
H879 C891 0.950 . S
C880 H872 0.950 . S
C880 C881 1.386 . S
C880 C882 1.391 . S
C881 C880 1.386 . S
C881 C885 1.393 . S
C882 H874 0.950 . S
C882 C880 1.391 . S
C882 C883 1.400 . S
C883 C882 1.400 . S
C883 C884 1.398 . S
C883 C889 1.491 . S
C884 H875 0.950 . S
C884 C883 1.398 . S
C884 C885 1.391 . S
C885 H873 0.950 . S
C885 C881 1.393 . S
C885 C884 1.391 . S
C886 H876 0.950 . S
C886 C887 1.386 . S
C886 C888 1.391 . S
C887 C886 1.386 . S
C887 C891 1.393 . S
C888 H877 0.950 . S
C888 C886 1.391 . S
C888 C889 1.400 . S
C889 C883 1.491 . S
C889 C888 1.400 . S
C889 C890 1.398 . S
C890 H878 0.950 . S
C890 C889 1.398 . S
C890 C891 1.391 . S
C891 H879 0.950 . S
C891 C887 1.393 . S
C891 C890 1.391 . S
H892 C900 0.950 . S
H893 C905 0.950 . S
H894 C902 0.950 . S
H895 C904 0.950 . S
H896 C906 0.950 . S
H897 C908 0.950 . S
H898 C910 0.950 . S
H899 C911 0.950 . S
C900 H892 0.950 . S
C900 C901 1.386 . S
C900 C902 1.391 . S
C901 C900 1.386 . S
C901 C905 1.393 . S
C902 H894 0.950 . S
C902 C900 1.391 . S
C902 C903 1.400 . S
C903 C902 1.400 . S
C903 C904 1.398 . S
C903 C909 1.491 . S
C904 H895 0.950 . S
C904 C903 1.398 . S
C904 C905 1.391 . S
C905 H893 0.950 . S
C905 C901 1.393 . S
C905 C904 1.391 . S
C906 H896 0.950 . S
C906 C907 1.386 . S
C906 C908 1.391 . S
C907 C906 1.386 . S
C907 C911 1.393 . S
C908 H897 0.950 . S
C908 C906 1.391 . S
C908 C909 1.400 . S
C909 C903 1.491 . S
C909 C908 1.400 . S
C909 C910 1.398 . S
C910 H898 0.950 . S
C910 C909 1.398 . S
C910 C911 1.391 . S
C911 H899 0.950 . S
C911 C907 1.393 . S
C911 C910 1.391 . S
H912 C920 0.950 . S
H913 C925 0.950 . S
H914 C922 0.950 . S
H915 C924 0.950 . S
H916 C926 0.950 . S
H917 C928 0.950 . S
H918 C930 0.950 . S
H919 C931 0.950 . S
C920 H912 0.950 . S
C920 C921 1.386 . S
C920 C922 1.391 . S
C921 C920 1.386 . S
C921 C925 1.393 . S
C922 H914 0.950 . S
C922 C920 1.391 . S
C922 C923 1.400 . S
C923 C922 1.400 . S
C923 C924 1.398 . S
C923 C929 1.491 . S
C924 H915 0.950 . S
C924 C923 1.398 . S
C924 C925 1.391 . S
C925 H913 0.950 . S
C925 C921 1.393 . S
C925 C924 1.391 . S
C926 H916 0.950 . S
C926 C927 1.386 . S
C926 C928 1.391 . S
C927 C926 1.386 . S
C927 C931 1.393 . S
C928 H917 0.950 . S
C928 C926 1.391 . S
C928 C929 1.400 . S
C929 C923 1.491 . S
C929 C928 1.400 . S
C929 C930 1.398 . S
C930 H918 0.950 . S
C930 C929 1.398 . S
C930 C931 1.391 . S
C931 H919 0.950 . S
C931 C927 1.393 . S
C931 C930 1.391 . S
H932 C940 0.950 . S
H933 C945 0.950 . S
H934 C942 0.950 . S
H935 C944 0.950 . S
H936 C946 0.950 . S
H937 C948 0.950 . S
H938 C950 0.950 . S
H939 C951 0.950 . S
C940 H932 0.950 . S
C940 C941 1.386 . S
C940 C942 1.391 . S
C941 C940 1.386 . S
C941 C945 1.393 . S
C942 H934 0.950 . S
C942 C940 1.391 . S
C942 C943 1.400 . S
C943 C942 1.400 . S
C943 C944 1.398 . S
C943 C949 1.491 . S
C944 H935 0.950 . S
C944 C943 1.398 . S
C944 C945 1.391 . S
C945 H933 0.950 . S
C945 C941 1.393 . S
C945 C944 1.391 . S
C946 H936 0.950 . S
C946 C947 1.386 . S
C946 C948 1.391 . S
C947 C946 1.386 . S
C947 C951 1.393 . S
C948 H937 0.950 . S
C948 C946 1.391 . S
C948 C949 1.400 . S
C949 C943 1.491 . S
C949 C948 1.400 . S
C949 C950 1.398 . S
C950 H938 0.950 . S
C950 C949 1.398 . S
C950 C951 1.391 . S
C951 H939 0.950 . S
C951 C947 1.393 . S
C951 C950 1.391 . S
H952 C960 0.950 . S
H953 C965 0.950 . S
H954 C962 0.950 . S
H955 C964 0.950 . S
H956 C966 0.950 . S
H957 C968 0.950 . S
H958 C970 0.950 . S
H959 C971 0.950 . S
C960 H952 0.950 . S
C960 C961 1.386 . S
C960 C962 1.391 . S
C961 C960 1.386 . S
C961 C965 1.393 . S
C962 H954 0.950 . S
C962 C960 1.391 . S
C962 C963 1.400 . S
C963 C962 1.400 . S
C963 C964 1.398 . S
C963 C969 1.491 . S
C964 H955 0.950 . S
C964 C963 1.398 . S
C964 C965 1.391 . S
C965 H953 0.950 . S
C965 C961 1.393 . S
C965 C964 1.391 . S
C966 H956 0.950 . S
C966 C967 1.386 . S
C966 C968 1.391 . S
C967 C966 1.386 . S
C967 C971 1.393 . S
C968 H957 0.950 . S
C968 C966 1.391 . S
C968 C969 1.400 . S
C969 C963 1.491 . S
C969 C968 1.400 . S
C969 C970 1.398 . S
C970 H958 0.950 . S
C970 C969 1.398 . S
C970 C971 1.391 . S
C971 H959 0.950 . S
C971 C967 1.393 . S
C971 C970 1.391 . S
H972 C980 0.950 . S
H973 C985 0.950 . S
H974 C982 0.950 . S
H975 C984 0.950 . S
H976 C986 0.950 . S
H977 C988 0.950 . S
H978 C990 0.950 . S
H979 C991 0.950 . S
C980 H972 0.950 . S
C980 C981 1.386 . S
C980 C982 1.391 . S
C981 C980 1.386 . S
C981 C985 1.393 . S
C982 H974 0.950 . S
C982 C980 1.391 . S
C982 C983 1.400 . S
C983 C982 1.400 . S
C983 C984 1.398 . S
C983 C989 1.491 . S
C984 H975 0.950 . S
C984 C983 1.398 . S
C984 C985 1.391 . S
C985 H973 0.950 . S
C985 C981 1.393 . S
C985 C984 1.391 . S
C986 H976 0.950 . S
C986 C987 1.386 . S
C986 C988 1.391 . S
C987 C986 1.386 . S
C987 C991 1.393 . S
C988 H977 0.950 . S
C988 C986 1.391 . S
C988 C989 1.400 . S
C989 C983 1.491 . S
C989 C988 1.400 . S
C989 C990 1.398 . S
C990 H978 0.950 . S
C990 C989 1.398 . S
C990 C991 1.391 . S
C991 H979 0.950 . S
C991 C987 1.393 . S
C991 C990 1.391 . S
H992 C1000 0.950 . S
H993 C1005 0.950 . S
H994 C1002 0.950 . S
H995 C1004 0.950 . S
H996 C1006 0.950 . S
H997 C1008 0.950 . S
H998 C1010 0.950 . S
H999 C1011 0.950 . S
C1000 H992 0.950 . S
C1000 C1001 1.386 . S
C1000 C1002 1.391 . S
C1001 C1000 1.386 . S
C1001 C1005 1.393 . S
C1002 H994 0.950 . S
C1002 C1000 1.391 . S
C1002 C1003 1.400 . S
C1003 C1002 1.400 . S
C1003 C1004 1.398 . S
C1003 C1009 1.491 . S
C1004 H995 0.950 . S
C1004 C1003 1.398 . S
C1004 C1005 1.391 . S
C1005 H993 0.950 . S
C1005 C1001 1.393 . S
C1005 C1004 1.391 . S
C1006 H996 0.950 . S
C1006 C1007 1.386 . S
C1006 C1008 1.391 . S
C1007 C1006 1.386 . S
C1007 C1011 1.393 . S
C1008 H997 0.950 . S
C1008 C1006 1.391 . S
C1008 C1009 1.400 . S
C1009 C1003 1.491 . S
C1009 C1008 1.400 . S
C1009 C1010 1.398 . S
C1010 H998 0.950 . S
C1010 C1009 1.398 . S
C1010 C1011 1.391 . S
C1011 H999 0.950 . S
C1011 C1007 1.393 . S
C1011 C1010 1.391 . S
H1012 C1020 0.950 . S
H1013 C1025 0.950 . S
H1014 C1022 0.950 . S
H1015 C1024 0.950 . S
H1016 C1026 0.950 . S
H1017 C1028 0.950 . S
H1018 C1030 0.950 . S
H1019 C1031 0.950 . S
C1020 H1012 0.950 . S
C1020 C1021 1.386 . S
C1020 C1022 1.391 . S
C1021 C1020 1.386 . S
C1021 C1025 1.393 . S
C1022 H1014 0.950 . S
C1022 C1020 1.391 . S
C1022 C1023 1.400 . S
C1023 C1022 1.400 . S
C1023 C1024 1.398 . S
C1023 C1029 1.491 . S
C1024 H1015 0.950 . S
C1024 C1023 1.398 . S
C1024 C1025 1.391 . S
C1025 H1013 0.950 . S
C1025 C1021 1.393 . S
C1025 C1024 1.391 . S
C1026 H1016 0.950 . S
C1026 C1027 1.386 . S
C1026 C1028 1.391 . S
C1027 C1026 1.386 . S
C1027 C1031 1.393 . S
C1028 H1017 0.950 . S
C1028 C1026 1.391 . S
C1028 C1029 1.400 . S
C1029 C1023 1.491 . S
C1029 C1028 1.400 . S
C1029 C1030 1.398 . S
C1030 H1018 0.950 . S
C1030 C1029 1.398 . S
C1030 C1031 1.391 . S
C1031 H1019 0.950 . S
C1031 C1027 1.393 . S
C1031 C1030 1.391 . S
H1032 C1040 0.950 . S
H1033 C1045 0.950 . S
H1034 C1042 0.950 . S
H1035 C1044 0.950 . S
H1036 C1046 0.950 . S
H1037 C1048 0.950 . S
H1038 C1050 0.950 . S
H1039 C1051 0.950 . S
C1040 H1032 0.950 . S
C1040 C1041 1.386 . S
C1040 C1042 1.391 . S
C1041 C1040 1.386 . S
C1041 C1045 1.393 . S
C1042 H1034 0.950 . S
C1042 C1040 1.391 . S
C1042 C1043 1.400 . S
C1043 C1042 1.400 . S
C1043 C1044 1.398 . S
C1043 C1049 1.491 . S
C1044 H1035 0.950 . S
C1044 C1043 1.398 . S
C1044 C1045 1.391 . S
C1045 H1033 0.950 . S
C1045 C1041 1.393 . S
C1045 C1044 1.391 . S
C1046 H1036 0.950 . S
C1046 C1047 1.386 . S
C1046 C1048 1.391 . S
C1047 C1046 1.386 . S
C1047 C1051 1.393 . S
C1048 H1037 0.950 . S
C1048 C1046 1.391 . S
C1048 C1049 1.400 . S
C1049 C1043 1.491 . S
C1049 C1048 1.400 . S
C1049 C1050 1.398 . S
C1050 H1038 0.950 . S
C1050 C1049 1.398 . S
C1050 C1051 1.391 . S
C1051 H1039 0.950 . S
C1051 C1047 1.393 . S
C1051 C1050 1.391 . S
H1052 C1060 0.950 . S
H1053 C1065 0.950 . S
H1054 C1062 0.950 . S
H1055 C1064 0.950 . S
H1056 C1066 0.950 . S
H1057 C1068 0.950 . S
H1058 C1070 0.950 . S
H1059 C1071 0.950 . S
C1060 H1052 0.950 . S
C1060 C1061 1.386 . S
C1060 C1062 1.391 . S
C1061 C1060 1.386 . S
C1061 C1065 1.393 . S
C1062 H1054 0.950 . S
C1062 C1060 1.391 . S
C1062 C1063 1.400 . S
C1063 C1062 1.400 . S
C1063 C1064 1.398 . S
C1063 C1069 1.491 . S
C1064 H1055 0.950 . S
C1064 C1063 1.398 . S
C1064 C1065 1.391 . S
C1065 H1053 0.950 . S
C1065 C1061 1.393 . S
C1065 C1064 1.391 . S
C1066 H1056 0.950 . S
C1066 C1067 1.386 . S
C1066 C1068 1.391 . S
C1067 C1066 1.386 . S
C1067 C1071 1.393 . S
C1068 H1057 0.950 . S
C1068 C1066 1.391 . S
C1068 C1069 1.400 . S
C1069 C1063 1.491 . S
C1069 C1068 1.400 . S
C1069 C1070 1.398 . S
C1070 H1058 0.950 . S
C1070 C1069 1.398 . S
C1070 C1071 1.391 . S
C1071 H1059 0.950 . S
C1071 C1067 1.393 . S
C1071 C1070 1.391 . S
H1072 C1080 0.950 . S
H1073 C1085 0.950 . S
H1074 C1082 0.950 . S
H1075 C1084 0.950 . S
H1076 C1086 0.950 . S
H1077 C1088 0.950 . S
H1078 C1090 0.950 . S
H1079 C1091 0.950 . S
C1080 H1072 0.950 . S
C1080 C1081 1.386 . S
C1080 C1082 1.391 . S
C1081 C1080 1.386 . S
C1081 C1085 1.393 . S
C1082 H1074 0.950 . S
C1082 C1080 1.391 . S
C1082 C1083 1.400 . S
C1083 C1082 1.400 . S
C1083 C1084 1.398 . S
C1083 C1089 1.491 . S
C1084 H1075 0.950 . S
C1084 C1083 1.398 . S
C1084 C1085 1.391 . S
C1085 H1073 0.950 . S
C1085 C1081 1.393 . S
C1085 C1084 1.391 . S
C1086 H1076 0.950 . S
C1086 C1087 1.386 . S
C1086 C1088 1.391 . S
C1087 C1086 1.386 . S
C1087 C1091 1.393 . S
C1088 H1077 0.950 . S
C1088 C1086 1.391 . S
C1088 C1089 1.400 . S
C1089 C1083 1.491 . S
C1089 C1088 1.400 . S
C1089 C1090 1.398 . S
C1090 H1078 0.950 . S
C1090 C1089 1.398 . S
C1090 C1091 1.391 . S
C1091 H1079 0.950 . S
C1091 C1087 1.393 . S
C1091 C1090 1.391 . S
H1092 C1100 0.950 . S
H1093 C1105 0.950 . S
H1094 C1102 0.950 . S
H1095 C1104 0.950 . S
H1096 C1106 0.950 . S
H1097 C1108 0.950 . S
H1098 C1110 0.950 . S
H1099 C1111 0.950 . S
C1100 H1092 0.950 . S
C1100 C1101 1.386 . S
C1100 C1102 1.391 . S
C1101 C1100 1.386 . S
C1101 C1105 1.393 . S
C1102 H1094 0.950 . S
C1102 C1100 1.391 . S
C1102 C1103 1.400 . S
C1103 C1102 1.400 . S
C1103 C1104 1.398 . S
C1103 C1109 1.491 . S
C1104 H1095 0.950 . S
C1104 C1103 1.398 . S
C1104 C1105 1.391 . S
C1105 H1093 0.950 . S
C1105 C1101 1.393 . S
C1105 C1104 1.391 . S
C1106 H1096 0.950 . S
C1106 C1107 1.386 . S
C1106 C1108 1.391 . S
C1107 C1106 1.386 . S
C1107 C1111 1.393 . S
C1108 H1097 0.950 . S
C1108 C1106 1.391 . S
C1108 C1109 1.400 . S
C1109 C1103 1.491 . S
C1109 C1108 1.400 . S
C1109 C1110 1.398 . S
C1110 H1098 0.950 . S
C1110 C1109 1.398 . S
C1110 C1111 1.391 . S
C1111 H1099 0.950 . S
C1111 C1107 1.393 . S
C1111 C1110 1.391 . S
H1112 C1120 0.950 . S
H1113 C1125 0.950 . S
H1114 C1122 0.950 . S
H1115 C1124 0.950 . S
H1116 C1126 0.950 . S
H1117 C1128 0.950 . S
H1118 C1130 0.950 . S
H1119 C1131 0.950 . S
C1120 H1112 0.950 . S
C1120 C1121 1.386 . S
C1120 C1122 1.391 . S
C1121 C1120 1.386 . S
C1121 C1125 1.393 . S
C1122 H1114 0.950 . S
C1122 C1120 1.391 . S
C1122 C1123 1.400 . S
C1123 C1122 1.400 . S
C1123 C1124 1.398 . S
C1123 C1129 1.491 . S
C1124 H1115 0.950 . S
C1124 C1123 1.398 . S
C1124 C1125 1.391 . S
C1125 H1113 0.950 . S
C1125 C1121 1.393 . S
C1125 C1124 1.391 . S
C1126 H1116 0.950 . S
C1126 C1127 1.386 . S
C1126 C1128 1.391 . S
C1127 C1126 1.386 . S
C1127 C1131 1.393 . S
C1128 H1117 0.950 . S
C1128 C1126 1.391 . S
C1128 C1129 1.400 . S
C1129 C1123 1.491 . S
C1129 C1128 1.400 . S
C1129 C1130 1.398 . S
C1130 H1118 0.950 . S
C1130 C1129 1.398 . S
C1130 C1131 1.391 . S
C1131 H1119 0.950 . S
C1131 C1127 1.393 . S
C1131 C1130 1.391 . S
H1132 C1140 0.950 . S
H1133 C1145 0.950 . S
H1134 C1142 0.950 . S
H1135 C1144 0.950 . S
H1136 C1146 0.950 . S
H1137 C1148 0.950 . S
H1138 C1150 0.950 . S
H1139 C1151 0.950 . S
C1140 H1132 0.950 . S
C1140 C1141 1.386 . S
C1140 C1142 1.391 . S
C1141 C1140 1.386 . S
C1141 C1145 1.393 . S
C1142 H1134 0.950 . S
C1142 C1140 1.391 . S
C1142 C1143 1.400 . S
C1143 C1142 1.400 . S
C1143 C1144 1.398 . S
C1143 C1149 1.491 . S
C1144 H1135 0.950 . S
C1144 C1143 1.398 . S
C1144 C1145 1.391 . S
C1145 H1133 0.950 . S
C1145 C1141 1.393 . S
C1145 C1144 1.391 . S
C1146 H1136 0.950 . S
C1146 C1147 1.386 . S
C1146 C1148 1.391 . S
C1147 C1146 1.386 . S
C1147 C1151 1.393 . S
C1148 H1137 0.950 . S
C1148 C1146 1.391 . S
C1148 C1149 1.400 . S
C1149 C1143 1.491 . S
C1149 C1148 1.400 . S
C1149 C1150 1.398 . S
C1150 H1138 0.950 . S
C1150 C1149 1.398 . S
C1150 C1151 1.391 . S
C1151 H1139 0.950 . S
C1151 C1147 1.393 . S
C1151 C1150 1.391 . S
H1152 C1160 0.950 . S
H1153 C1165 0.950 . S
H1154 C1162 0.950 . S
H1155 C1164 0.950 . S
H1156 C1166 0.950 . S
H1157 C1168 0.950 . S
H1158 C1170 0.950 . S
H1159 C1171 0.950 . S
C1160 H1152 0.950 . S
C1160 C1161 1.386 . S
C1160 C1162 1.391 . S
C1161 C1160 1.386 . S
C1161 C1165 1.393 . S
C1162 H1154 0.950 . S
C1162 C1160 1.391 . S
C1162 C1163 1.400 . S
C1163 C1162 1.400 . S
C1163 C1164 1.398 . S
C1163 C1169 1.491 . S
C1164 H1155 0.950 . S
C1164 C1163 1.398 . S
C1164 C1165 1.391 . S
C1165 H1153 0.950 . S
C1165 C1161 1.393 . S
C1165 C1164 1.391 . S
C1166 H1156 0.950 . S
C1166 C1167 1.386 . S
C1166 C1168 1.391 . S
C1167 C1166 1.386 . S
C1167 C1171 1.393 . S
C1168 H1157 0.950 . S
C1168 C1166 1.391 . S
C1168 C1169 1.400 . S
C1169 C1163 1.491 . S
C1169 C1168 1.400 . S
C1169 C1170 1.398 . S
C1170 H1158 0.950 . S
C1170 C1169 1.398 . S
C1170 C1171 1.391 . S
C1171 H1159 0.950 . S
C1171 C1167 1.393 . S
C1171 C1170 1.391 . S
H1172 C1180 0.950 . S
H1173 C1185 0.950 . S
H1174 C1182 0.950 . S
H1175 C1184 0.950 . S
H1176 C1186 0.950 . S
H1177 C1188 0.950 . S
H1178 C1190 0.950 . S
H1179 C1191 0.950 . S
C1180 H1172 0.950 . S
C1180 C1181 1.386 . S
C1180 C1182 1.391 . S
C1181 C1180 1.386 . S
C1181 C1185 1.393 . S
C1182 H1174 0.950 . S
C1182 C1180 1.391 . S
C1182 C1183 1.400 . S
C1183 C1182 1.400 . S
C1183 C1184 1.398 . S
C1183 C1189 1.491 . S
C1184 H1175 0.950 . S
C1184 C1183 1.398 . S
C1184 C1185 1.391 . S
C1185 H1173 0.950 . S
C1185 C1181 1.393 . S
C1185 C1184 1.391 . S
C1186 H1176 0.950 . S
C1186 C1187 1.386 . S
C1186 C1188 1.391 . S
C1187 C1186 1.386 . S
C1187 C1191 1.393 . S
C1188 H1177 0.950 . S
C1188 C1186 1.391 . S
C1188 C1189 1.400 . S
C1189 C1183 1.491 . S
C1189 C1188 1.400 . S
C1189 C1190 1.398 . S
C1190 H1178 0.950 . S
C1190 C1189 1.398 . S
C1190 C1191 1.391 . S
C1191 H1179 0.950 . S
C1191 C1187 1.393 . S
C1191 C1190 1.391 . S
H1192 C1200 0.950 . S
H1193 C1205 0.950 . S
H1194 C1202 0.950 . S
H1195 C1204 0.950 . S
H1196 C1206 0.950 . S
H1197 C1208 0.950 . S
H1198 C1210 0.950 . S
H1199 C1211 0.950 . S
C1200 H1192 0.950 . S
C1200 C1201 1.386 . S
C1200 C1202 1.391 . S
C1201 C1200 1.386 . S
C1201 C1205 1.393 . S
C1202 H1194 0.950 . S
C1202 C1200 1.391 . S
C1202 C1203 1.400 . S
C1203 C1202 1.400 . S
C1203 C1204 1.398 . S
C1203 C1209 1.491 . S
C1204 H1195 0.950 . S
C1204 C1203 1.398 . S
C1204 C1205 1.391 . S
C1205 H1193 0.950 . S
C1205 C1201 1.393 . S
C1205 C1204 1.391 . S
C1206 H1196 0.950 . S
C1206 C1207 1.386 . S
C1206 C1208 1.391 . S
C1207 C1206 1.386 . S
C1207 C1211 1.393 . S
C1208 H1197 0.950 . S
C1208 C1206 1.391 . S
C1208 C1209 1.400 . S
C1209 C1203 1.491 . S
C1209 C1208 1.400 . S
C1209 C1210 1.398 . S
C1210 H1198 0.950 . S
C1210 C1209 1.398 . S
C1210 C1211 1.391 . S
C1211 H1199 0.950 . S
C1211 C1207 1.393 . S
C1211 C1210 1.391 . S
H1212 C1220 0.950 . S
H1213 C1225 0.950 . S
H1214 C1222 0.950 . S
H1215 C1224 0.950 . S
H1216 C1226 0.950 . S
H1217 C1228 0.950 . S
H1218 C1230 0.950 . S
H1219 C1231 0.950 . S
C1220 H1212 0.950 . S
C1220 C1221 1.386 . S
C1220 C1222 1.391 . S
C1221 C1220 1.386 . S
C1221 C1225 1.393 . S
C1222 H1214 0.950 . S
C1222 C1220 1.391 . S
C1222 C1223 1.400 . S
C1223 C1222 1.400 . S
C1223 C1224 1.398 . S
C1223 C1229 1.491 . S
C1224 H1215 0.950 . S
C1224 C1223 1.398 . S
C1224 C1225 1.391 . S
C1225 H1213 0.950 . S
C1225 C1221 1.393 . S
C1225 C1224 1.391 . S
C1226 H1216 0.950 . S
C1226 C1227 1.386 . S
C1226 C1228 1.391 . S
C1227 C1226 1.386 . S
C1227 C1231 1.393 . S
C1228 H1217 0.950 . S
C1228 C1226 1.391 . S
C1228 C1229 1.400 . S
C1229 C1223 1.491 . S
C1229 C1228 1.400 . S
C1229 C1230 1.398 . S
C1230 H1218 0.950 . S
C1230 C1229 1.398 . S
C1230 C1231 1.391 . S
C1231 H1219 0.950 . S
C1231 C1227 1.393 . S
C1231 C1230 1.391 . S
H1232 C1240 0.950 . S
H1233 C1245 0.950 . S
H1234 C1242 0.950 . S
H1235 C1244 0.950 . S
H1236 C1246 0.950 . S
H1237 C1248 0.950 . S
H1238 C1250 0.950 . S
H1239 C1251 0.950 . S
C1240 H1232 0.950 . S
C1240 C1241 1.386 . S
C1240 C1242 1.391 . S
C1241 C1240 1.386 . S
C1241 C1245 1.393 . S
C1242 H1234 0.950 . S
C1242 C1240 1.391 . S
C1242 C1243 1.400 . S
C1243 C1242 1.400 . S
C1243 C1244 1.398 . S
C1243 C1249 1.491 . S
C1244 H1235 0.950 . S
C1244 C1243 1.398 . S
C1244 C1245 1.391 . S
C1245 H1233 0.950 . S
C1245 C1241 1.393 . S
C1245 C1244 1.391 . S
C1246 H1236 0.950 . S
C1246 C1247 1.386 . S
C1246 C1248 1.391 . S
C1247 C1246 1.386 . S
C1247 C1251 1.393 . S
C1248 H1237 0.950 . S
C1248 C1246 1.391 . S
C1248 C1249 1.400 . S
C1249 C1243 1.491 . S
C1249 C1248 1.400 . S
C1249 C1250 1.398 . S
C1250 H1238 0.950 . S
C1250 C1249 1.398 . S
C1250 C1251 1.391 . S
C1251 H1239 0.950 . S
C1251 C1247 1.393 . S
C1251 C1250 1.391 . S
H1252 C1260 0.950 . S
H1253 C1265 0.950 . S
H1254 C1262 0.950 . S
H1255 C1264 0.950 . S
H1256 C1266 0.950 . S
H1257 C1268 0.950 . S
H1258 C1270 0.950 . S
H1259 C1271 0.950 . S
C1260 H1252 0.950 . S
C1260 C1261 1.386 . S
C1260 C1262 1.391 . S
C1261 C1260 1.386 . S
C1261 C1265 1.393 . S
C1262 H1254 0.950 . S
C1262 C1260 1.391 . S
C1262 C1263 1.400 . S
C1263 C1262 1.400 . S
C1263 C1264 1.398 . S
C1263 C1269 1.491 . S
C1264 H1255 0.950 . S
C1264 C1263 1.398 . S
C1264 C1265 1.391 . S
C1265 H1253 0.950 . S
C1265 C1261 1.393 . S
C1265 C1264 1.391 . S
C1266 H1256 0.950 . S
C1266 C1267 1.386 . S
C1266 C1268 1.391 . S
C1267 C1266 1.386 . S
C1267 C1271 1.393 . S
C1268 H1257 0.950 . S
C1268 C1266 1.391 . S
C1268 C1269 1.400 . S
C1269 C1263 1.491 . S
C1269 C1268 1.400 . S
C1269 C1270 1.398 . S
C1270 H1258 0.950 . S
C1270 C1269 1.398 . S
C1270 C1271 1.391 . S
C1271 H1259 0.950 . S
C1271 C1267 1.393 . S
C1271 C1270 1.391 . S
C321 C289 1.901 . S
C327 C3 1.912 . S
C341 C18 1.929 . S
C347 C213 1.934 . S
C361 C304 1.927 . S
C367 C29 1.912 . S
C381 C278 1.921 . S
C387 C44 1.923 . S
C401 C239 1.935 . S
C407 C55 1.913 . S
C421 C252 1.921 . S
C427 C70 1.923 . S
C441 C265 1.923 . S
C447 C81 1.907 . S
C461 C96 1.921 . S
C467 C226 1.921 . S
C481 C172 1.912 . S
C487 C107 1.891 . S
C501 C187 1.921 . S
C507 C120 1.898 . S
C521 C135 1.940 . S
C527 C198 1.905 . S
C541 C146 1.895 . S
C547 C161 1.937 . S
C561 C94 1.891 . S
C567 C185 1.910 . S
C581 C200 1.929 . S
C587 C57 1.934 . S
C601 C68 1.911 . S
C607 C159 1.891 . S
C621 C174 1.930 . S
C627 C83 1.934 . S
C641 C133 1.892 . S
C647 C16 1.904 . S
C661 C31 1.938 . S
C667 C148 1.935 . S
C681 C42 1.899 . S
C687 C109 1.939 . S
C701 C5 1.938 . S
C707 C122 1.935 . S
C721 C263 1.900 . S
C727 C276 1.894 . S
C741 C291 1.925 . S
C747 C224 1.891 . S
C761 C237 1.891 . S
C767 C211 1.907 . S
C781 C302 1.899 . S
C787 C250 1.895 . S
C801 C1 0.970 . S
C807 C114 0.981 . S
C821 C127 0.982 . S
C827 C23 1.006 . S
C841 C27 0.980 . S
C847 C131 0.963 . S
C861 C49 1.004 . S
C867 C153 1.009 . S
C881 C53 0.991 . S
C887 C157 0.977 . S
C901 C75 1.001 . S
C907 C179 1.010 . S
C921 C183 0.974 . S
C927 C79 0.957 . S
C941 C205 1.010 . S
C947 C101 1.000 . S
C961 C105 0.946 . S
C967 C209 0.954 . S
C981 C118 0.994 . S
C987 C300 0.989 . S
C1001 C274 0.982 . S
C1007 C140 0.985 . S
C1021 C296 1.011 . S
C1027 C144 0.984 . S
C1041 C222 0.947 . S
C1047 C166 0.995 . S
C1061 C235 0.984 . S
C1067 C170 0.994 . S
C1081 C192 0.983 . S
C1087 C248 0.977 . S
C1101 C196 0.946 . S
C1107 C261 0.954 . S
C1121 C10 0.983 . S
C1127 C218 1.007 . S
C1141 C231 0.981 . S
C1147 C62 1.003 . S
C1161 C244 0.993 . S
C1167 C66 0.946 . S
C1181 C257 0.981 . S
C1187 C88 1.005 . S
C1201 C270 1.009 . S
C1207 C92 0.963 . S
C1221 C283 1.011 . S
C1227 C36 0.987 . S
C1241 C40 0.984 . S
C1247 C287 0.994 . S
C1261 C309 1.004 . S
C1267 C14 0.954 . S
