# Generated by pormake.
# Topology vmx, (8)-cn, num edge types: 1
# Building blocks:
#     Node 0, Type 0, BuildingBlock: TAGTUT_clean_sbu_3, # of connection points: 8
#     Node 1, Type 0, BuildingBlock: TAGTUT_clean_sbu_3, # of connection points: 8
#     Node 2, Type 0, BuildingBlock: TAGTUT_clean_sbu_3, # of connection points: 8
#     Node 3, Type 0, BuildingBlock: TAGTUT_clean_sbu_3, # of connection points: 8
#     Node 4, Type 0, BuildingBlock: TAGTUT_clean_sbu_3, # of connection points: 8
#     Node 5, Type 0, BuildingBlock: TAGTUT_clean_sbu_3, # of connection points: 8
#     Node 6, Type 0, BuildingBlock: TAGTUT_clean_sbu_3, # of connection points: 8
#     Node 7, Type 0, BuildingBlock: TAGTUT_clean_sbu_3, # of connection points: 8
#     Edge 8, Type (0, 0), BuildingBlock: CIFDUS_clean_linker_0, # of connection points: 2
#     Edge 9, Type (0, 0), BuildingBlock: CIFDUS_clean_linker_0, # of connection points: 2
#     Edge 10, Type (0, 0), BuildingBlock: CIFDUS_clean_linker_0, # of connection points: 2
#     Edge 11, Type (0, 0), BuildingBlock: CIFDUS_clean_linker_0, # of connection points: 2
#     Edge 12, Type (0, 0), BuildingBlock: CIFDUS_clean_linker_0, # of connection points: 2
#     Edge 13, Type (0, 0), BuildingBlock: CIFDUS_clean_linker_0, # of connection points: 2
#     Edge 14, Type (0, 0), BuildingBlock: CIFDUS_clean_linker_0, # of connection points: 2
#     Edge 15, Type (0, 0), BuildingBlock: CIFDUS_clean_linker_0, # of connection points: 2
#     Edge 16, Type (0, 0), BuildingBlock: CIFDUS_clean_linker_0, # of connection points: 2
#     Edge 17, Type (0, 0), BuildingBlock: CIFDUS_clean_linker_0, # of connection points: 2
#     Edge 18, Type (0, 0), BuildingBlock: CIFDUS_clean_linker_0, # of connection points: 2
#     Edge 19, Type (0, 0), BuildingBlock: CIFDUS_clean_linker_0, # of connection points: 2
#     Edge 20, Type (0, 0), BuildingBlock: CIFDUS_clean_linker_0, # of connection points: 2
#     Edge 21, Type (0, 0), BuildingBlock: CIFDUS_clean_linker_0, # of connection points: 2
#     Edge 22, Type (0, 0), BuildingBlock: CIFDUS_clean_linker_0, # of connection points: 2
#     Edge 23, Type (0, 0), BuildingBlock: CIFDUS_clean_linker_0, # of connection points: 2
#     Edge 24, Type (0, 0), BuildingBlock: CIFDUS_clean_linker_0, # of connection points: 2
#     Edge 25, Type (0, 0), BuildingBlock: CIFDUS_clean_linker_0, # of connection points: 2
#     Edge 26, Type (0, 0), BuildingBlock: CIFDUS_clean_linker_0, # of connection points: 2
#     Edge 27, Type (0, 0), BuildingBlock: CIFDUS_clean_linker_0, # of connection points: 2
#     Edge 28, Type (0, 0), BuildingBlock: CIFDUS_clean_linker_0, # of connection points: 2
#     Edge 29, Type (0, 0), BuildingBlock: CIFDUS_clean_linker_0, # of connection points: 2
#     Edge 30, Type (0, 0), BuildingBlock: CIFDUS_clean_linker_0, # of connection points: 2
#     Edge 31, Type (0, 0), BuildingBlock: CIFDUS_clean_linker_0, # of connection points: 2
#     Edge 32, Type (0, 0), BuildingBlock: CIFDUS_clean_linker_0, # of connection points: 2
#     Edge 33, Type (0, 0), BuildingBlock: CIFDUS_clean_linker_0, # of connection points: 2
#     Edge 34, Type (0, 0), BuildingBlock: CIFDUS_clean_linker_0, # of connection points: 2
#     Edge 35, Type (0, 0), BuildingBlock: CIFDUS_clean_linker_0, # of connection points: 2
#     Edge 36, Type (0, 0), BuildingBlock: CIFDUS_clean_linker_0, # of connection points: 2
#     Edge 37, Type (0, 0), BuildingBlock: CIFDUS_clean_linker_0, # of connection points: 2
#     Edge 38, Type (0, 0), BuildingBlock: CIFDUS_clean_linker_0, # of connection points: 2
#     Edge 39, Type (0, 0), BuildingBlock: CIFDUS_clean_linker_0, # of connection points: 2
# Relax obj value: 0.259
# Max RMSD: 0.281
# Mean RMSD: 0.281
data_MOF--net-vmx--node1-TAGTUT_clean_sbu_3--edge1-CIFDUS_clean_linker_0
_symmetry_space_group_name_H-M    P1
_symmetry_Int_Tables_number       1
_symmetry_cell_setting            triclinic
loop_
_symmetry_equiv_pos_as_xyz
'x, y, z'
_cell_length_a     26.980403
_cell_length_b     52.287518
_cell_length_c     16.608129
_cell_angle_alpha  89.802119
_cell_angle_beta   107.63319
_cell_angle_gamma 89.742091
loop_
_atom_site_label
_atom_site_type_symbol
_atom_site_fract_x
_atom_site_fract_y
_atom_site_fract_z
_atom_type_partial_charge
C0 C 0.41662 0.39388 0.47041 0.0
C1 C 0.40214 0.34948 0.20363 0.0
C2 C 0.25186 0.38018 0.10603 0.0
Mg3 Mg 0.34114 0.41533 0.56342 0.0
Mg4 Mg 0.22462 0.39444 0.54696 0.0
O5 O 0.27017 0.40461 0.49009 0.0
Mg6 Mg 0.292 0.38383 0.40405 0.0
O7 O 0.32298 0.36803 0.31997 0.0
Mg8 Mg 0.34868 0.39917 0.27466 0.0
Mg9 Mg 0.3004 0.34168 0.245 0.0
C10 C 0.16384 0.37971 0.3573 0.0
O11 O 0.28051 0.34241 0.45039 0.0
O12 O 0.30285 0.44213 0.63251 0.0
O13 O 0.2744 0.3198 0.3314 0.0
O14 O 0.34032 0.38564 0.66731 0.0
O15 O 0.22145 0.42934 0.61897 0.0
O16 O 0.26636 0.36401 0.62189 0.0
O17 O 0.30029 0.42163 0.34386 0.0
O18 O 0.3323 0.4455 0.45884 0.0
C19 C 0.31401 0.44324 0.37848 0.0
C20 C 0.25933 0.44492 0.64698 0.0
O21 O 0.204 0.38014 0.33026 0.0
O22 O 0.39705 0.37336 0.21603 0.0
O23 O 0.16593 0.38369 0.43442 0.0
O24 O 0.28301 0.39685 0.14988 0.0
O25 O 0.37148 0.33252 0.21688 0.0
O26 O 0.24713 0.35809 0.13553 0.0
O27 O 0.37533 0.38786 0.48822 0.0
O28 O 0.41555 0.39921 0.39506 0.0
C29 C 0.30923 0.36841 0.67802 0.0
C30 C 0.27132 0.32158 0.40666 0.0
C31 C 0.66309 0.38506 0.87842 0.0
C32 C 0.68318 0.34815 0.16934 0.0
C33 C 0.83291 0.37642 0.24459 0.0
Mg34 Mg 0.73794 0.40077 0.77466 0.0
Mg35 Mg 0.85095 0.35753 0.80788 0.0
O36 O 0.80695 0.3808 0.85102 0.0
Mg37 Mg 0.78168 0.3676 0.94629 0.0
O38 O 0.75107 0.35801 0.03732 0.0
Mg39 Mg 0.73396 0.39254 0.07302 0.0
Mg40 Mg 0.78457 0.33604 0.12583 0.0
C41 C 0.90328 0.34752 0.00166 0.0
O42 O 0.77488 0.32373 0.91552 0.0
O43 O 0.826 0.39876 0.81271 0.0
O44 O 0.80385 0.30741 0.0485 0.0
O45 O 0.73563 0.37027 0.67301 0.0
O46 O 0.88247 0.38856 0.74893 0.0
O47 O 0.79276 0.33778 0.71169 0.0
O48 O 0.78434 0.40907 -0.00524 0.0
O49 O 0.74858 0.43111 0.87566 0.0
C50 C 0.76936 0.43017 0.95567 0.0
C51 C 0.85173 0.40541 0.76233 0.0
O52 O 0.86579 0.35855 0.02116 0.0
O53 O 0.68418 0.37065 0.1389 0.0
O54 O 0.90105 0.34208 0.92541 0.0
O55 O 0.79949 0.39222 0.19978 0.0
O56 O 0.71839 0.33123 0.17316 0.0
O57 O 0.84539 0.35655 0.2114 0.0
O58 O 0.70277 0.37645 0.86033 0.0
O59 O 0.66615 0.39207 0.95314 0.0
C60 C 0.75637 0.34962 0.65615 0.0
C61 C 0.78875 0.30478 0.96807 0.0
C62 C 0.64853 0.59143 0.46361 0.0
C63 C 0.6936 0.63356 0.75552 0.0
C64 C 0.81548 0.59155 0.82848 0.0
Mg65 Mg 0.72412 0.57031 0.36142 0.0
Mg66 Mg 0.84096 0.59322 0.38378 0.0
O67 O 0.79389 0.58131 0.43586 0.0
Mg68 Mg 0.77346 0.59864 0.52881 0.0
O69 O 0.7489 0.61275 0.62038 0.0
Mg70 Mg 0.72054 0.58122 0.65797 0.0
Mg71 Mg 0.79332 0.63285 0.70563 0.0
C72 C 0.8986 0.60717 0.57498 0.0
O73 O 0.78081 0.64162 0.49492 0.0
O74 O 0.76561 0.54622 0.28761 0.0
O75 O 0.82354 0.65624 0.62513 0.0
O76 O 0.7222 0.60222 0.26287 0.0
O77 O 0.84878 0.55886 0.31542 0.0
O78 O 0.79978 0.62103 0.29449 0.0
O79 O 0.76235 0.55883 0.57689 0.0
O80 O 0.73171 0.53737 0.45687 0.0
C81 C 0.7472 0.53798 0.53761 0.0
C82 C 0.81107 0.54396 0.2793 0.0
O83 O 0.85935 0.60198 0.60065 0.0
O84 O 0.68573 0.61007 0.73223 0.0
O85 O 0.89763 0.60611 0.4973 0.0
O86 O 0.79363 0.57553 0.77145 0.0
O87 O 0.73142 0.64691 0.74745 0.0
O88 O 0.83947 0.61022 0.80844 0.0
O89 O 0.69093 0.59557 0.44702 0.0
O90 O 0.64841 0.58684 0.53936 0.0
C91 C 0.75343 0.61832 0.24603 0.0
C92 C 0.80264 0.65987 0.54559 0.0
C93 C 0.42446 0.61434 0.03074 0.0
C94 C 0.41722 0.65812 0.75206 0.0
C95 C 0.26886 0.62654 0.65309 0.0
Mg96 Mg 0.33755 0.59933 0.10815 0.0
Mg97 Mg 0.22094 0.62559 0.0642 0.0
O98 O 0.27181 0.61156 0.02287 0.0
Mg99 Mg 0.30335 0.6288 0.94297 0.0
O100 O 0.34141 0.64259 0.86711 0.0
Mg101 Mg 0.36534 0.60968 0.82925 0.0
Mg102 Mg 0.31143 0.66557 0.78062 0.0
C103 C 0.17767 0.63833 0.86778 0.0
O104 O 0.29232 0.67113 -0.01956 0.0
O105 O 0.28648 0.57609 0.16417 0.0
O106 O 0.28486 0.69109 0.85623 0.0
O107 O 0.33326 0.63107 0.20087 0.0
O108 O 0.20483 0.59175 0.12943 0.0
O109 O 0.2589 0.65302 0.15537 0.0
O110 O 0.31099 0.58878 0.89127 0.0
O111 O 0.3366 0.56749 0.01388 0.0
C112 C 0.3239 0.56796 0.93319 0.0
C113 C 0.23954 0.57515 0.1659 0.0
O114 O 0.22114 0.63391 0.85341 0.0
O115 O 0.41707 0.63509 0.77863 0.0
O116 O 0.17224 0.63782 0.94202 0.0
O117 O 0.30585 0.6122 0.69654 0.0
O118 O 0.38 0.674 0.74531 0.0
O119 O 0.25487 0.6462 0.68518 0.0
O120 O 0.3826 0.62318 0.04085 0.0
O121 O 0.42674 0.60836 0.9575 0.0
C122 C 0.3025 0.64864 0.21071 0.0
C123 C 0.28271 0.69113 0.93207 0.0
C124 C 0.8312 0.89426 0.60542 0.0
C125 C 0.81938 0.86835 0.29984 0.0
C126 C 0.67052 0.88309 0.23555 0.0
Mg127 Mg 0.74865 0.89725 0.70394 0.0
Mg128 Mg 0.64211 0.86266 0.6739 0.0
O129 O 0.68824 0.87858 0.62675 0.0
Mg130 Mg 0.71537 0.86978 0.52991 0.0
O131 O 0.74895 0.86563 0.43696 0.0
Mg132 Mg 0.75677 0.90291 0.40895 0.0
Mg133 Mg 0.72586 0.84388 0.34422 0.0
C134 C 0.58997 0.85181 0.47707 0.0
O135 O 0.72944 0.8253 0.55252 0.0
O136 O 0.69629 0.91387 0.77372 0.0
O137 O 0.72058 0.8115 0.41945 0.0
O138 O 0.76326 0.86375 0.80047 0.0
O139 O 0.61854 0.89463 0.73815 0.0
O140 O 0.69169 0.83952 0.7725 0.0
O141 O 0.70255 0.91187 0.48893 0.0
O142 O 0.7272 0.93143 0.61299 0.0
C143 C 0.70868 0.93223 0.53263 0.0
C144 C 0.65005 0.91182 0.77788 0.0
O145 O 0.62984 0.85927 0.45542 0.0
O146 O 0.81108 0.88896 0.33555 0.0
O147 O 0.58993 0.84993 0.55431 0.0
O148 O 0.68859 0.90227 0.28265 0.0
O149 O 0.7914 0.84833 0.29526 0.0
O150 O 0.6588 0.86326 0.26991 0.0
O151 O 0.79514 0.88089 0.61949 0.0
O152 O 0.82594 0.90377 0.53214 0.0
C153 C 0.73595 0.8464 0.82171 0.0
C154 C 0.72667 0.80724 0.49797 0.0
C155 C 0.10705 0.9221 0.93776 0.0
C156 C 0.08927 0.88359 0.2034 0.0
C157 C 0.25051 0.89225 0.30744 0.0
Mg158 Mg 0.19855 0.93144 0.86465 0.0
Mg159 Mg 0.29975 0.89408 0.88583 0.0
O160 O 0.2592 0.91166 0.9401 0.0
Mg161 Mg 0.22245 0.89666 0.01853 0.0
O162 O 0.17856 0.88738 0.09301 0.0
Mg163 Mg 0.16856 0.92199 0.13845 0.0
Mg164 Mg 0.18541 0.86024 0.16611 0.0
C165 C 0.34488 0.87489 0.07774 0.0
O166 O 0.21272 0.85455 0.96973 0.0
O167 O 0.25366 0.94996 0.80662 0.0
O168 O 0.19982 0.8333 0.08088 0.0
O169 O 0.1851 0.90115 0.76042 0.0
O170 O 0.32378 0.92546 0.8167 0.0
O171 O 0.24589 0.87072 0.79814 0.0
O172 O 0.23213 0.93527 0.08128 0.0
O173 O 0.21975 0.96137 0.97105 0.0
C174 C 0.23303 0.95761 0.0509 0.0
C175 C 0.29704 0.946 0.79295 0.0
O176 O 0.30481 0.88196 0.09994 0.0
O177 O 0.1056 0.90552 0.18866 0.0
O178 O 0.34728 0.87703 0.00184 0.0
O179 O 0.22641 0.91191 0.26801 0.0
O180 O 0.11213 0.86271 0.19478 0.0
O181 O 0.24828 0.87061 0.27187 0.0
O182 O 0.14655 0.91084 0.92728 0.0
O183 O 0.10636 0.92882 0.0112 0.0
C184 C 0.20556 0.8803 0.74517 0.0
C185 C 0.2078 0.83369 0.00871 0.0
C186 C 0.20173 0.06395 0.51428 0.0
C187 C 0.29028 0.08122 0.28974 0.0
C188 C 0.18288 0.14052 0.20812 0.0
Mg189 Mg 0.12214 0.09669 0.58104 0.0
Mg190 Mg 0.11375 0.15962 0.58812 0.0
O191 O 0.1245 0.13116 0.52946 0.0
Mg192 Mg 0.17792 0.12395 0.47105 0.0
O193 O 0.2264 0.11179 0.40889 0.0
Mg194 Mg 0.17638 0.08896 0.32689 0.0
Mg195 Mg 0.26981 0.13229 0.36765 0.0
C196 C 0.15196 0.18638 0.44589 0.0
O197 O 0.25143 0.14149 0.56603 0.0
O198 O 0.04862 0.10971 0.61202 0.0
O199 O 0.30406 0.15124 0.48663 0.0
O200 O 0.17265 0.11167 0.70922 0.0
O201 O 0.03692 0.15215 0.59879 0.0
O202 O 0.16941 0.15444 0.70732 0.0
O203 O 0.11027 0.10562 0.36983 0.0
O204 O 0.07134 0.08506 0.45149 0.0
C205 C 0.07346 0.09158 0.37841 0.0
C206 C 0.02139 0.12985 0.61206 0.0
O207 O 0.16402 0.16522 0.41623 0.0
O208 O 0.24474 0.07475 0.28984 0.0
O209 O 0.13364 0.18741 0.50861 0.0
O210 O 0.16499 0.11891 0.22228 0.0
O211 O 0.31049 0.10284 0.31737 0.0
O212 O 0.21878 0.15197 0.26376 0.0
O213 O 0.19326 0.08609 0.53946 0.0
O214 O 0.19559 0.05978 0.43606 0.0
C215 C 0.18589 0.13336 0.74469 0.0
C216 C 0.29359 0.15106 0.55719 0.0
C217 C 0.78996 0.0924 0.0506 0.0
C218 C 0.76365 0.12928 0.7501 0.0
C219 C 0.61634 0.1036 0.6886 0.0
Mg220 Mg 0.712 0.07848 0.1509 0.0
Mg221 Mg 0.59472 0.10095 0.12836 0.0
O222 O 0.6457 0.0941 0.07854 0.0
Mg223 Mg 0.66828 0.10969 -0.01595 0.0
O224 O 0.69888 0.1205 0.89281 0.0
Mg225 Mg 0.71628 0.08585 0.85517 0.0
Mg226 Mg 0.66597 0.14291 0.80571 0.0
C227 C 0.53896 0.11936 0.93879 0.0
O228 O 0.67392 0.15342 0.01833 0.0
O229 O 0.67025 0.0548 0.22374 0.0
O230 O 0.65034 0.17129 0.88706 0.0
O231 O 0.71637 0.11012 0.25112 0.0
O232 O 0.58571 0.06482 0.18986 0.0
O233 O 0.63574 0.1263 0.22427 0.0
O234 O 0.66631 0.06916 0.93347 0.0
O235 O 0.6972 0.04656 0.05216 0.0
C236 C 0.67764 0.04774 0.97183 0.0
C237 C 0.62486 0.051 0.22951 0.0
O238 O 0.57981 0.11769 0.91355 0.0
O239 O 0.76358 0.10709 0.78327 0.0
O240 O 0.53912 0.11472 0.01481 0.0
O241 O 0.64875 0.08678 0.72983 0.0
O242 O 0.72992 0.14659 0.75113 0.0
O243 O 0.60311 0.12195 0.72758 0.0
O244 O 0.75051 0.10149 0.06814 0.0
O245 O 0.78684 0.08564 0.97541 0.0
C246 C 0.68302 0.12452 0.27083 0.0
C247 C 0.66248 0.17294 0.96768 0.0
H248 H 0.23325 0.5286 0.1037 0.0
H249 H 0.2256 0.57125 0.32076 0.0
H250 H 0.24955 0.53277 0.40935 0.0
H251 H 0.28588 0.48903 0.42757 0.0
H252 H 0.30027 0.44799 0.21048 0.0
H253 H 0.26234 0.48419 0.1192 0.0
C254 C 0.23443 0.52903 0.16964 0.0
C255 C 0.22694 0.55232 0.20591 0.0
C256 C 0.25217 0.50757 0.2206 0.0
C257 C 0.22987 0.5532 0.29154 0.0
C258 C 0.24497 0.53143 0.34238 0.0
C259 C 0.28131 0.48818 0.36045 0.0
C260 C 0.29695 0.46617 0.32588 0.0
C261 C 0.25889 0.50893 0.30827 0.0
C262 C 0.28931 0.46494 0.23852 0.0
C263 C 0.26709 0.48547 0.18626 0.0
H264 H 0.75186 0.53613 0.12156 0.0
H265 H 0.88456 0.50612 0.31498 0.0
H266 H 0.88341 0.46749 0.23051 0.0
H267 H 0.83955 0.44116 0.10647 0.0
H268 H 0.70864 0.47261 0.91152 0.0
H269 H 0.71398 0.51199 -0.00809 0.0
C270 C 0.78107 0.52127 0.14416 0.0
C271 C 0.81813 0.52361 0.2237 0.0
C272 C 0.77986 0.49938 0.09579 0.0
C273 C 0.85606 0.50457 0.2532 0.0
C274 C 0.85498 0.48247 0.20545 0.0
C275 C 0.8122 0.45665 0.08192 0.0
C276 C 0.77315 0.4539 0.0042 0.0
C277 C 0.81615 0.47942 0.12765 0.0
C278 C 0.73868 0.47425 0.9717 0.0
C279 C 0.74176 0.49676 0.01742 0.0
H280 H 0.8143 0.44906 0.80432 0.0
H281 H 0.85024 0.41212 0.59711 0.0
H282 H 0.81574 0.44926 0.50608 0.0
H283 H 0.777 0.49265 0.48741 0.0
H284 H 0.74393 0.52955 0.69759 0.0
H285 H 0.77397 0.49153 0.78523 0.0
C286 C 0.81402 0.44905 0.73894 0.0
C287 C 0.83447 0.42796 0.70722 0.0
C288 C 0.79408 0.47029 0.68757 0.0
C289 C 0.83519 0.42832 0.62307 0.0
C290 C 0.81504 0.44942 0.57098 0.0
C291 C 0.77543 0.49214 0.55189 0.0
C292 C 0.75786 0.51377 0.58595 0.0
C293 C 0.79438 0.47052 0.60265 0.0
C294 C 0.75715 0.51311 0.67009 0.0
C295 C 0.77457 0.49146 0.72024 0.0
H296 H 0.24703 0.55425 0.79278 0.0
H297 H 0.38645 0.52639 0.97742 0.0
H298 H 0.37437 0.48439 0.91027 0.0
H299 H 0.32662 0.45641 0.79583 0.0
H300 H 0.1858 0.48299 0.61261 0.0
H301 H 0.19464 0.5246 0.68408 0.0
C302 C 0.27494 0.539 0.81746 0.0
C303 C 0.31827 0.54341 0.88851 0.0
C304 C 0.26679 0.51468 0.78009 0.0
C305 C 0.35335 0.52341 0.92195 0.0
C306 C 0.34624 0.49941 0.88405 0.0
C307 C 0.29725 0.47118 0.77286 0.0
C308 C 0.25555 0.46685 0.69971 0.0
C309 C 0.30327 0.49491 0.81308 0.0
C310 C 0.2177 0.48593 0.66981 0.0
C311 C 0.22329 0.50976 0.70984 0.0
H312 H 0.67701 0.04509 0.39258 0.0
H313 H 0.56627 0.00803 0.18367 0.0
H314 H 0.58239 0.96716 0.26091 0.0
H315 H 0.6361 0.94138 0.38118 0.0
H316 H 0.74665 0.97913 0.58977 0.0
H317 H 0.72297 0.02042 0.51906 0.0
C318 C 0.65515 0.02818 0.3654 0.0
C319 C 0.62016 0.02941 0.28334 0.0
C320 C 0.66579 0.00485 0.40907 0.0
C321 C 0.5925 0.0075 0.24762 0.0
C322 C 0.60247 0.98412 0.29118 0.0
C323 C 0.65499 0.95867 0.411 0.0
C324 C 0.69387 0.95717 0.48977 0.0
C325 C 0.64048 0.98242 0.37061 0.0
C326 C 0.71709 0.97976 0.52876 0.0
C327 C 0.70342 0.00337 0.48857 0.0
H328 H 0.32109 0.03467 0.34727 0.0
H329 H 0.31011 0.08582 0.13935 0.0
H330 H 0.29309 0.04968 0.04139 0.0
H331 H 0.2603 0.00547 0.01262 0.0
H332 H 0.26114 0.95618 0.22245 0.0
H333 H 0.30081 0.98969 0.32143 0.0
C334 C 0.31787 0.03763 0.28109 0.0
C335 C 0.31607 0.06269 0.25003 0.0
C336 C 0.30268 0.01725 0.22482 0.0
C337 C 0.31179 0.06658 0.16453 0.0
C338 C 0.30034 0.046 0.10824 0.0
C339 C 0.26914 0.00208 0.07997 0.0
C340 C 0.25631 0.97853 0.10978 0.0
C341 C 0.29179 0.02161 0.13708 0.0
C342 C 0.26937 0.97426 0.19743 0.0
C343 C 0.29269 0.99333 0.25435 0.0
H344 H 0.31013 0.99521 0.82983 0.0
H345 H 0.30742 0.9405 0.63574 0.0
H346 H 0.27827 0.97389 0.52741 0.0
H347 H 0.23669 0.01633 0.48788 0.0
H348 H 0.22944 0.06859 0.68528 0.0
H349 H 0.27719 0.0383 0.79201 0.0
C350 C 0.30568 0.99099 0.76402 0.0
C351 C 0.31095 0.96561 0.74053 0.0
C352 C 0.28403 0.00954 0.70238 0.0
C353 C 0.3045 0.96005 0.65534 0.0
C354 C 0.28622 0.97899 0.5933 0.0
C355 C 0.24541 0.02106 0.55423 0.0
C356 C 0.22832 0.04455 0.57823 0.0
C357 C 0.27271 0.00335 0.61594 0.0
C358 C 0.24096 0.05051 0.66463 0.0
C359 C 0.26892 0.03331 0.72595 0.0
H360 H 0.62088 0.95747 0.71197 0.0
H361 H 0.64834 0.91335 0.94049 0.0
H362 H 0.65846 0.95278 0.02359 0.0
H363 H 0.67215 -0.00051 0.0314 0.0
H364 H 0.65108 0.04264 0.80116 0.0
H365 H 0.62665 0.00394 0.71823 0.0
C366 C 0.62658 0.95664 0.77954 0.0
C367 C 0.63279 0.93284 0.82039 0.0
C368 C 0.63559 0.97918 0.82659 0.0
C369 C 0.64209 0.93164 0.90806 0.0
C370 C 0.64898 0.95414 0.95545 0.0
C371 C 0.66233 0.0004 0.96311 0.0
C372 C 0.66435 0.02392 0.92261 0.0
C373 C 0.64823 0.97797 0.91561 0.0
C374 C 0.65046 0.02483 0.834 0.0
C375 C 0.63609 0.00271 0.78641 0.0
H376 H 0.9287 0.36586 0.16006 0.0
H377 H -0.00697 0.32552 -0.01202 0.0
H378 H 0.08077 0.33191 0.08358 0.0
H379 H 0.13936 0.35266 0.2103 0.0
H380 H 0.07203 0.39413 0.37668 0.0
H381 H 0.98527 0.38378 0.2881 0.0
C382 C 0.96162 0.35789 0.144 0.0
C383 C 0.95426 0.34549 0.06671 0.0
C384 C 0.01163 0.36237 0.19731 0.0
C385 C -0.00237 0.33533 0.04711 0.0
C386 C 0.04786 0.33917 0.10128 0.0
C387 C 0.1056 0.35953 0.22648 0.0
C388 C 0.11205 0.37428 0.29928 0.0
C389 C 0.05537 0.35346 0.17521 0.0
C390 C 0.0681 0.38274 0.32073 0.0
C391 C 0.0184 0.37678 0.27041 0.0
H392 H 0.08101 0.64807 0.87519 0.0
H393 H 0.16662 0.63107 0.69992 0.0
H394 H 0.08567 0.6218 0.5903 0.0
H395 H -0.00686 0.61201 0.5525 0.0
H396 H 0.90944 0.62488 0.73329 0.0
H397 H 0.98804 0.64133 0.83438 0.0
C398 C 0.08211 0.64269 0.81271 0.0
C399 C 0.12985 0.63975 0.79621 0.0
C400 C 0.03607 0.63577 0.75217 0.0
C401 C 0.13041 0.6334 0.71438 0.0
C402 C 0.0842 0.62773 0.65203 0.0
C403 C -0.00799 0.61848 0.6139 0.0
C404 C 0.94597 0.61673 0.63627 0.0
C405 C 0.03725 0.62767 0.67172 0.0
C406 C 0.94487 0.62542 0.71559 0.0
C407 C 0.98955 0.6351 0.77296 0.0
H408 H 0.57144 0.84974 0.30694 0.0
H409 H 0.49373 0.84818 0.49909 0.0
H410 H 0.40986 0.85324 0.39176 0.0
H411 H 0.35946 0.86361 0.24484 0.0
H412 H 0.43851 0.86475 0.05392 0.0
H413 H 0.52021 0.85443 0.15911 0.0
C414 C 0.53617 0.85012 0.32531 0.0
C415 C 0.53924 0.84912 0.41101 0.0
C416 C 0.48796 0.85337 0.26348 0.0
C417 C 0.49284 0.84912 0.43351 0.0
C418 C 0.44466 0.8522 0.3722 0.0
C419 C 0.39441 0.86132 0.22616 0.0
C420 C 0.39265 0.86549 0.14175 0.0
C421 C 0.4419 0.85528 0.2872 0.0
C422 C 0.43838 0.86201 0.11853 0.0
C423 C 0.48546 0.85607 0.17867 0.0
H424 H 0.51912 0.1507 0.80075 0.0
H425 H 0.44473 0.10405 0.94505 0.0
H426 H 0.35963 0.11484 0.84874 0.0
H427 H 0.30724 0.13334 0.71556 0.0
H428 H 0.38032 0.17928 0.56767 0.0
H429 H 0.46446 0.17395 0.67521 0.0
C430 C 0.4842 0.14295 0.81074 0.0
C431 C 0.48819 0.12629 0.87882 0.0
C432 C 0.43503 0.14942 0.75539 0.0
C433 C 0.44267 0.11679 0.89254 0.0
C434 C 0.39391 0.12302 0.83779 0.0
C435 C 0.34116 0.14294 0.70803 0.0
C436 C 0.33771 0.15623 0.63305 0.0
C437 C 0.38967 0.13892 0.76818 0.0
C438 C 0.38211 0.16865 0.6246 0.0
C439 C 0.4304 0.16534 0.6855 0.0
H440 H 0.58878 0.35438 0.06244 0.0
H441 H 0.66976 0.32495 0.31018 0.0
H442 H 0.58618 0.31846 0.33847 0.0
H443 H 0.49096 0.32687 0.29752 0.0
H444 H 0.41274 0.35769 0.05039 0.0
H445 H 0.49436 0.3573 0.01516 0.0
C446 C 0.58795 0.34626 0.1223 0.0
C447 C 0.63472 0.34068 0.18514 0.0
C448 C 0.54035 0.34266 0.13737 0.0
C449 C 0.63381 0.32963 0.26165 0.0
C450 C 0.5862 0.32596 0.27757 0.0
C451 C 0.49184 0.33255 0.23507 0.0
C452 C 0.44645 0.34201 0.17588 0.0
C453 C 0.5393 0.3331 0.21662 0.0
C454 C 0.44748 0.35003 0.0959 0.0
C455 C 0.49407 0.35006 0.07627 0.0
H456 H 0.61492 0.65713 0.64496 0.0
H457 H 0.67886 0.63857 0.90909 0.0
H458 H 0.59822 0.65252 0.93466 0.0
H459 H 0.50527 0.66071 0.87536 0.0
H460 H 0.4375 0.67332 0.60805 0.0
H461 H 0.52429 0.67202 0.58906 0.0
C462 C 0.61131 0.65696 0.70832 0.0
C463 C 0.65165 0.64686 0.7754 0.0
C464 C 0.56428 0.66389 0.72112 0.0
C465 C 0.64766 0.6463 0.85729 0.0
C466 C 0.60171 0.6542 0.87153 0.0
C467 C 0.51008 0.66417 0.81362 0.0
C468 C 0.46613 0.66692 0.74292 0.0
C469 C 0.5591 0.66175 0.80313 0.0
C470 C 0.47149 0.6713 0.66288 0.0
C471 C 0.52082 0.67021 0.65217 0.0
H472 H 0.89585 0.90327 0.32863 0.0
H473 H 0.84778 0.83093 0.20584 0.0
H474 H 0.92873 0.82844 0.16805 0.0
H475 H 0.01391 0.84699 0.17161 0.0
H476 H 0.05918 0.91946 0.29525 0.0
H477 H 0.97867 0.92146 0.33229 0.0
C478 C 0.90262 0.88698 0.29301 0.0
C479 C 0.86577 0.86731 0.27017 0.0
C480 C 0.94909 0.88555 0.2726 0.0
C481 C 0.8756 0.84633 0.22439 0.0
C482 C 0.92192 0.84485 0.20304 0.0
C483 C 0.00617 0.86303 0.20735 0.0
C484 C 0.04223 0.88306 0.23061 0.0
C485 C 0.9592 0.86428 0.22751 0.0
C486 C 0.03174 0.90391 0.27615 0.0
C487 C 0.98574 0.9051 0.29727 0.0
H488 H 0.95422 0.16689 0.63537 0.0
H489 H 0.97341 0.08499 0.62211 0.0
H490 H 0.89343 0.07813 0.65638 0.0
H491 H 0.82171 0.09463 0.69965 0.0
H492 H 0.79971 0.17601 0.71536 0.0
H493 H 0.87659 0.18377 0.66913 0.0
C494 C 0.94069 0.14758 0.63948 0.0
C495 C 0.9705 0.12653 0.6275 0.0
C496 C 0.89422 0.1436 0.65972 0.0
C497 C 0.95199 0.10162 0.63225 0.0
C498 C 0.90603 0.09759 0.65166 0.0
C499 C 0.83346 0.11414 0.69275 0.0
C500 C 0.80554 0.1347 0.71218 0.0
C501 C 0.87751 0.11837 0.66715 0.0
C502 C 0.82069 0.15982 0.70101 0.0
C503 C 0.86478 0.16424 0.67503 0.0
H504 H 0.43348 0.39579 0.63981 0.0
H505 H 0.51279 0.39222 0.44994 0.0
H506 H 0.59639 0.38935 0.55963 0.0
H507 H 0.64641 0.38614 0.70886 0.0
H508 H 0.56759 0.39113 0.89909 0.0
H509 H 0.48408 0.39506 0.78945 0.0
C510 C 0.46903 0.39452 0.6225 0.0
C511 C 0.46694 0.39412 0.53713 0.0
C512 C 0.51695 0.39301 0.68572 0.0
C513 C 0.51339 0.39268 0.51545 0.0
C514 C 0.56121 0.39091 0.57801 0.0
C515 C 0.61109 0.38824 0.72639 0.0
C516 C 0.6132 0.38835 0.81177 0.0
C517 C 0.56336 0.3908 0.66327 0.0
C518 C 0.56699 0.39114 0.83356 0.0
C519 C 0.51921 0.39332 0.77104 0.0
H520 H 0.63766 0.58735 0.29803 0.0
H521 H 0.54927 0.59977 0.47161 0.0
H522 H 0.47096 0.60798 0.35215 0.0
H523 H 0.42969 0.61386 0.19822 0.0
H524 H 0.52154 0.60161 0.02875 0.0
H525 H 0.59716 0.59155 0.14779 0.0
C526 C 0.60143 0.59175 0.31022 0.0
C527 C 0.59947 0.59315 0.39353 0.0
C528 C 0.5574 0.59676 0.24202 0.0
C529 C 0.55174 0.59848 0.40785 0.0
C530 C 0.50714 0.60337 0.33967 0.0
C531 C 0.46617 0.60894 0.18738 0.0
C532 C 0.46981 0.6085 0.10454 0.0
C533 C 0.5098 0.60297 0.25643 0.0
C534 C 0.51746 0.60203 0.09166 0.0
C535 C 0.56081 0.59623 0.15967 0.0
H536 H 0.92471 0.91164 0.5973 0.0
H537 H 0.84255 0.89142 0.77442 0.0
H538 H 0.91856 0.90187 0.89203 0.0
H539 H 0.01008 0.91414 0.94549 0.0
H540 H 0.09591 0.92993 0.77043 0.0
H541 H 0.01689 0.9242 0.65128 0.0
C542 C 0.92333 0.9097 0.66163 0.0
C543 C 0.87767 0.90088 0.6767 0.0
C544 C 0.96794 0.91506 0.72946 0.0
C545 C 0.87688 0.89818 0.76057 0.0
C546 C 0.92044 0.9042 0.82813 0.0
C547 C 0.01116 0.91691 0.88126 0.0
C548 C 0.05845 0.9228 0.86659 0.0
C549 C 0.96629 0.91242 0.81338 0.0
C550 C 0.05977 0.92559 0.7831 0.0
C551 C 0.01469 0.92218 0.71508 0.0
H552 H 0.97668 0.08206 0.38379 0.0
H553 H 0.06518 0.09261 0.2091 0.0
H554 H 0.98464 0.09146 0.09024 0.0
H555 H 0.88829 0.09108 0.03795 0.0
H556 H 0.80226 0.08544 0.21816 0.0
H557 H 0.88267 0.08101 0.33289 0.0
C558 C 0.97871 0.08363 0.3197 0.0
C559 C 0.0269 0.08726 0.30524 0.0
C560 C 0.93248 0.08411 0.2527 0.0
C561 C 0.02852 0.08973 0.22179 0.0
C562 C 0.98249 0.08919 0.15398 0.0
C563 C 0.88727 0.08858 0.10228 0.0
C564 C 0.83917 0.08845 0.11923 0.0
C565 C 0.9341 0.08696 0.1689 0.0
C566 C 0.83844 0.08559 0.20298 0.0
C567 C 0.88454 0.08304 0.26888 0.0
H568 H 0.24353 0.34127 -0.00394 0.0
H569 H 0.24199 0.42374 0.0112 0.0
H570 H 0.26883 0.42675 0.88369 0.0
H571 H 0.30245 0.40599 0.77964 0.0
H572 H 0.30109 0.32386 0.75953 0.0
H573 H 0.26957 0.32049 0.88336 0.0
C574 C 0.24724 0.35998 0.97012 0.0
C575 C 0.24159 0.38231 0.01401 0.0
C576 C 0.26567 0.36151 0.9001 0.0
C577 C 0.24617 0.40631 0.97868 0.0
C578 C 0.26283 0.40802 0.90719 0.0
C579 C 0.29674 0.38732 0.80405 0.0
C580 C 0.30633 0.36511 0.7637 0.0
C581 C 0.27523 0.38574 0.8704 0.0
C582 C 0.29616 0.34107 0.79252 0.0
C583 C 0.27691 0.33925 0.86155 0.0
H584 H 0.74938 0.38444 0.29764 0.0
H585 H 0.90802 0.35705 0.38188 0.0
H586 H 0.89463 0.34129 0.51319 0.0
H587 H 0.83774 0.33583 0.60237 0.0
H588 H 0.67823 0.36205 0.5135 0.0
H589 H 0.69116 0.3761 0.38092 0.0
C590 C 0.78156 0.37548 0.34519 0.0
C591 C 0.83023 0.37253 0.33111 0.0
C592 C 0.7726 0.3652 0.41721 0.0
C593 C 0.87076 0.36015 0.3925 0.0
C594 C 0.86273 0.35072 0.46649 0.0
C595 C 0.80511 0.34374 0.55294 0.0
C596 C 0.75692 0.34787 0.56786 0.0
C597 C 0.81355 0.35285 0.47877 0.0
C598 C 0.71545 0.35847 0.50326 0.0
C599 C 0.72321 0.36703 0.42841 0.0
H600 H 0.82598 0.63279 0.93337 0.0
H601 H 0.75012 0.55952 0.87684 0.0
H602 H 0.7102 0.56572 -0.01138 0.0
H603 H 0.70605 0.58899 0.11284 0.0
H604 H 0.78889 0.65996 0.1798 0.0
H605 H 0.81393 0.65845 0.05002 0.0
C606 C 0.80069 0.61817 0.94532 0.0
C607 C 0.79173 0.59555 0.89722 0.0
C608 C 0.7782 0.6217 0.01053 0.0
C609 C 0.75821 0.577 0.91319 0.0
C610 C 0.73504 0.58059 0.97684 0.0
C611 C 0.72775 0.60474 0.09755 0.0
C612 C 0.74594 0.62449 0.15633 0.0
C613 C 0.74565 0.60259 0.02699 0.0
C614 C 0.77427 0.64461 0.13543 0.0
C615 C 0.78963 0.6434 0.06228 0.0
H616 H 0.22323 0.65784 0.27434 0.0
H617 H 0.39063 0.65111 0.34508 0.0
H618 H 0.39333 0.64057 0.48965 0.0
H619 H 0.34763 0.62807 0.58917 0.0
H620 H 0.18059 0.63455 0.52076 0.0
H621 H 0.1778 0.64891 0.3783 0.0
C622 C 0.26058 0.65501 0.32189 0.0
C623 C 0.30674 0.65491 0.29876 0.0
C624 C 0.26149 0.64736 0.40308 0.0
C625 C 0.35466 0.65131 0.36143 0.0
C626 C 0.35608 0.64468 0.44343 0.0
C627 C 0.3104 0.63191 0.54229 0.0
C628 C 0.26401 0.62911 0.56339 0.0
C629 C 0.30957 0.64136 0.46333 0.0
C630 C 0.21638 0.63557 0.50408 0.0
C631 C 0.21502 0.64429 0.42377 0.0
H632 H 0.66663 0.83934 0.14383 0.0
H633 H 0.72372 0.91693 0.16635 0.0
H634 H 0.76238 0.90931 0.05379 0.0
H635 H 0.77198 0.88255 0.94009 0.0
H636 H 0.70702 0.80665 0.90589 0.0
H637 H 0.68229 0.8112 0.03539 0.0
C638 C 0.68757 0.85463 0.12437 0.0
C639 C 0.69185 0.87876 0.16378 0.0
C640 C 0.70947 0.85022 0.05879 0.0
C641 C 0.71937 0.89822 0.13733 0.0
C642 C 0.742 0.89381 0.07334 0.0
C643 C 0.75426 0.86651 0.96238 0.0
C644 C 0.7415 0.84419 0.91306 0.0
C645 C 0.7366 0.87004 0.03282 0.0
C646 C 0.71773 0.82391 0.94288 0.0
C647 C 0.70264 0.82674 0.01598 0.0
H648 H 0.27555 0.85897 0.67813 0.0
H649 H 0.12027 0.89096 0.61091 0.0
H650 H 0.1246 0.90062 0.46929 0.0
H651 H 0.17619 0.90483 0.37285 0.0
H652 H 0.33056 0.87242 0.43671 0.0
H653 H 0.32454 0.85972 0.57614 0.0
C654 C 0.24187 0.86733 0.63193 0.0
C655 C 0.19791 0.87473 0.65553 0.0
C656 C 0.24596 0.87428 0.55291 0.0
C657 C 0.15455 0.8852 0.59431 0.0
C658 C 0.15754 0.8913 0.51421 0.0
C659 C 0.20923 0.89569 0.41835 0.0
C660 C 0.25486 0.89062 0.39696 0.0
C661 C 0.20404 0.88716 0.49487 0.0
C662 C 0.29614 0.87744 0.45399 0.0
C663 C 0.29208 0.8697 0.53237 0.0
H664 H 0.18549 0.1733 0.84764 0.0
H665 H 0.23407 0.09433 0.84877 0.0
H666 H 0.2357 0.09008 -0.00438 0.0
H667 H 0.21032 0.1066 0.1136 0.0
H668 H 0.16096 0.18507 0.11545 0.0
H669 H 0.17069 0.19161 0.97401 0.0
C670 C 0.19801 0.15534 0.8806 0.0
C671 C 0.208 0.13385 0.83686 0.0
C672 C 0.19627 0.15268 0.9633 0.0
C673 C 0.22531 0.11096 0.88089 0.0
C674 C 0.22555 0.10842 0.96432 0.0
C675 C 0.20071 0.12503 0.08219 0.0
C676 C 0.18214 0.14502 0.12144 0.0
C677 C 0.20817 0.12869 0.0039 0.0
C678 C 0.173 0.16924 0.08363 0.0
C679 C 0.17942 0.173 0.00403 0.0
H680 H 0.61876 0.15054 0.3409 0.0
H681 H 0.76523 0.10967 0.40639 0.0
H682 H 0.75413 0.09731 0.54107 0.0
H683 H 0.6967 0.09202 0.62819 0.0
H684 H 0.54969 0.13233 0.56435 0.0
H685 H 0.56566 0.1495 0.43703 0.0
C686 C 0.64921 0.13961 0.38569 0.0
C687 C 0.69158 0.13005 0.36149 0.0
C688 C 0.64103 0.13119 0.46082 0.0
C689 C 0.73156 0.11687 0.42199 0.0
C690 C 0.72472 0.10928 0.49853 0.0
C691 C 0.66769 0.10437 0.58636 0.0
C692 C 0.62129 0.11039 0.60486 0.0
C693 C 0.67816 0.11501 0.5159 0.0
C694 C 0.58503 0.12692 0.55045 0.0
C695 C 0.59463 0.1371 0.47868 0.0
H696 H 0.14358 0.234 0.50725 0.0
H697 H 0.20496 0.19345 0.33153 0.0
H698 H 0.25423 0.23097 0.31678 0.0
H699 H 0.28214 0.27402 0.35704 0.0
H700 H 0.21676 0.31696 0.52243 0.0
H701 H 0.16934 0.27868 0.54343 0.0
C702 C 0.16705 0.23341 0.46458 0.0
C703 C 0.1708 0.21069 0.42083 0.0
C704 C 0.196 0.255 0.4575 0.0
C705 C 0.20125 0.21049 0.36577 0.0
C706 C 0.23002 0.23186 0.35825 0.0
C707 C 0.25763 0.27513 0.3981 0.0
C708 C 0.25258 0.29831 0.43776 0.0
C709 C 0.22836 0.2539 0.40504 0.0
C710 C 0.22162 0.29925 0.49197 0.0
C711 C 0.19383 0.27755 0.5025 0.0
H712 H 0.69194 0.2888 0.93715 0.0
H713 H 0.84739 0.26317 0.95944 0.0
H714 H 0.82368 0.21924 -0.01621 0.0
H715 H 0.75947 0.18877 0.00438 0.0
H716 H 0.60365 0.21421 -0.01995 0.0
H717 H 0.62769 0.25828 0.95807 0.0
C718 C 0.71983 0.27332 0.94351 0.0
C719 C 0.7707 0.27887 0.94292 0.0
C720 C 0.70684 0.24863 0.9633 0.0
C721 C 0.80745 0.25903 0.95579 0.0
C722 C 0.79429 0.23415 0.97238 0.0
C723 C 0.73155 0.20423 -0.00176 0.0
C724 C 0.68043 0.19855 -0.00283 0.0
C725 C 0.7446 0.22895 0.97888 0.0
C726 C 0.64374 0.2184 -0.01516 0.0
C727 C 0.65708 0.24338 0.96947 0.0
H728 H 0.8245 0.70176 0.64611 0.0
H729 H 0.75273 0.67895 0.38689 0.0
H730 H 0.71809 0.72231 0.35261 0.0
H731 H 0.70545 0.76561 0.39757 0.0
H732 H 0.77629 0.78828 0.65687 0.0
H733 H 0.81139 0.74492 0.6912 0.0
C734 C 0.80187 0.70615 0.58154 0.0
C735 C 0.7914 0.68693 0.51895 0.0
C736 C 0.78034 0.73069 0.56327 0.0
C737 C 0.76183 0.69328 0.43608 0.0
C738 C 0.7414 0.71797 0.41681 0.0
C739 C 0.72827 0.76113 0.462 0.0
C740 C 0.73841 0.78028 0.52469 0.0
C741 C 0.74963 0.73659 0.48034 0.0
C742 C 0.76746 0.77393 0.60774 0.0
C743 C 0.7882 0.74928 0.62694 0.0
H744 H 0.20325 0.78759 0.0804 0.0
H745 H 0.23452 0.82313 0.8652 0.0
H746 H 0.26156 0.78163 0.82499 0.0
H747 H 0.28033 0.73671 0.85551 0.0
H748 H 0.25113 0.70103 0.07197 0.0
H749 H 0.22076 0.74227 0.10968 0.0
C750 C 0.21562 0.78643 0.02422 0.0
C751 C 0.21716 0.80857 0.97597 0.0
C752 C 0.23241 0.76286 0.00316 0.0
C753 C 0.23294 0.80645 0.90328 0.0
C754 C 0.24876 0.78282 0.88076 0.0
C755 C 0.26718 0.73772 0.91097 0.0
C756 C 0.26777 0.71575 0.96092 0.0
C757 C 0.24944 0.76111 0.93122 0.0
C758 C 0.25128 0.71767 0.03294 0.0
C759 C 0.23359 0.74112 0.05394 0.0
loop_
_geom_bond_atom_site_label_1
_geom_bond_atom_site_label_2
_geom_bond_distance
_geom_bond_site_symmetry_2
_ccdc_geom_bond_type
C0 O27 1.312 . S
C0 O28 1.208 . S
C1 O22 1.331 . S
C1 O25 1.244 . S
C2 O24 1.264 . S
C2 O26 1.273 . S
Mg3 O5 1.936 . S
Mg3 O12 2.081 . S
Mg3 O14 2.023 . S
Mg3 O18 2.031 . S
Mg3 O27 2.291 . S
Mg4 O5 1.963 . S
Mg4 O15 1.942 . S
Mg4 O16 1.955 . S
Mg4 O23 1.986 . S
O5 Mg3 1.936 . S
O5 Mg4 1.963 . S
O5 Mg6 1.915 . S
Mg6 O5 1.915 . S
Mg6 O7 1.915 . S
Mg6 O11 2.013 . S
Mg6 O17 2.114 . S
Mg6 O21 2.013 . S
Mg6 O27 2.114 . S
O7 Mg6 1.915 . S
O7 Mg8 1.936 . S
O7 Mg9 1.963 . S
Mg8 O7 1.936 . S
Mg8 O17 2.291 . S
Mg8 O22 2.081 . S
Mg8 O24 2.023 . S
Mg8 O28 2.031 . S
Mg9 O7 1.963 . S
Mg9 O13 1.986 . S
Mg9 O25 1.942 . S
Mg9 O26 1.955 . S
C10 O21 1.191 . S
C10 O23 1.307 . S
O11 Mg6 2.013 . S
O11 C30 1.191 . S
O12 Mg3 2.081 . S
O12 C20 1.331 . S
O13 Mg9 1.986 . S
O13 C30 1.307 . S
O14 Mg3 2.023 . S
O14 C29 1.264 . S
O15 Mg4 1.942 . S
O15 C20 1.244 . S
O16 Mg4 1.955 . S
O16 C29 1.273 . S
O17 Mg6 2.114 . S
O17 Mg8 2.291 . S
O17 C19 1.312 . S
O18 Mg3 2.031 . S
O18 C19 1.208 . S
C19 O17 1.312 . S
C19 O18 1.208 . S
C20 O12 1.331 . S
C20 O15 1.244 . S
O21 Mg6 2.013 . S
O21 C10 1.191 . S
O22 C1 1.331 . S
O22 Mg8 2.081 . S
O23 Mg4 1.986 . S
O23 C10 1.307 . S
O24 C2 1.264 . S
O24 Mg8 2.023 . S
O25 C1 1.244 . S
O25 Mg9 1.942 . S
O26 C2 1.273 . S
O26 Mg9 1.955 . S
O27 C0 1.312 . S
O27 Mg3 2.291 . S
O27 Mg6 2.114 . S
O28 C0 1.208 . S
O28 Mg8 2.031 . S
C29 O14 1.264 . S
C29 O16 1.273 . S
C30 O11 1.191 . S
C30 O13 1.307 . S
C31 O58 1.312 . S
C31 O59 1.208 1_556 S
C32 O53 1.331 . S
C32 O56 1.244 . S
C33 O55 1.264 . S
C33 O57 1.273 . S
Mg34 O36 1.936 . S
Mg34 O43 2.081 . S
Mg34 O45 2.023 . S
Mg34 O49 2.038 . S
Mg34 O58 2.291 . S
Mg35 O36 1.963 . S
Mg35 O46 1.942 . S
Mg35 O47 1.955 . S
Mg35 O54 1.986 1_556 S
O36 Mg34 1.936 . S
O36 Mg35 1.963 . S
O36 Mg37 1.915 1_556 S
Mg37 O36 1.915 1_554 S
Mg37 O38 1.915 . S
Mg37 O42 2.013 1_554 S
Mg37 O48 2.114 . S
Mg37 O52 2.013 . S
Mg37 O58 2.114 1_554 S
O38 Mg37 1.915 . S
O38 Mg39 1.936 . S
O38 Mg40 1.963 . S
Mg39 O38 1.936 . S
Mg39 O48 2.291 . S
Mg39 O53 2.081 . S
Mg39 O55 2.023 . S
Mg39 O59 2.031 . S
Mg40 O38 1.963 . S
Mg40 O44 1.986 . S
Mg40 O56 1.942 . S
Mg40 O57 1.955 . S
C41 O52 1.191 . S
C41 O54 1.307 . S
O42 Mg37 2.013 1_556 S
O42 C61 1.191 1_556 S
O43 Mg34 2.081 . S
O43 C51 1.331 . S
O44 Mg40 1.986 . S
O44 C61 1.307 . S
O45 Mg34 2.023 . S
O45 C60 1.264 . S
O46 Mg35 1.942 . S
O46 C51 1.244 . S
O47 Mg35 1.955 . S
O47 C60 1.273 . S
O48 Mg37 2.114 . S
O48 Mg39 2.291 . S
O48 C50 1.312 . S
O49 Mg34 2.038 . S
O49 C50 1.200 1_556 S
C50 O48 1.312 . S
C50 O49 1.200 1_554 S
C51 O43 1.331 . S
C51 O46 1.244 . S
O52 Mg37 2.013 . S
O52 C41 1.191 . S
O53 C32 1.331 . S
O53 Mg39 2.081 . S
O54 Mg35 1.986 1_554 S
O54 C41 1.307 . S
O55 C33 1.264 . S
O55 Mg39 2.023 . S
O56 C32 1.244 . S
O56 Mg40 1.942 . S
O57 C33 1.273 . S
O57 Mg40 1.955 . S
O58 C31 1.312 . S
O58 Mg34 2.291 . S
O58 Mg37 2.114 1_556 S
O59 C31 1.208 1_554 S
O59 Mg39 2.031 . S
C60 O45 1.264 . S
C60 O47 1.273 . S
C61 O42 1.191 1_554 S
C61 O44 1.307 . S
C62 O89 1.312 . S
C62 O90 1.208 . S
C63 O84 1.331 . S
C63 O87 1.244 . S
C64 O86 1.264 . S
C64 O88 1.273 . S
Mg65 O67 1.936 . S
Mg65 O74 2.081 . S
Mg65 O76 2.023 . S
Mg65 O80 2.031 . S
Mg65 O89 2.291 . S
Mg66 O67 1.963 . S
Mg66 O77 1.942 . S
Mg66 O78 1.955 . S
Mg66 O85 1.986 . S
O67 Mg65 1.936 . S
O67 Mg66 1.963 . S
O67 Mg68 1.915 . S
Mg68 O67 1.915 . S
Mg68 O69 1.915 . S
Mg68 O73 2.013 . S
Mg68 O79 2.114 . S
Mg68 O83 2.013 . S
Mg68 O89 2.114 . S
O69 Mg68 1.915 . S
O69 Mg70 1.936 . S
O69 Mg71 1.963 . S
Mg70 O69 1.936 . S
Mg70 O79 2.291 . S
Mg70 O84 2.081 . S
Mg70 O86 2.023 . S
Mg70 O90 2.031 . S
Mg71 O69 1.963 . S
Mg71 O75 1.986 . S
Mg71 O87 1.942 . S
Mg71 O88 1.955 . S
C72 O83 1.191 . S
C72 O85 1.307 . S
O73 Mg68 2.013 . S
O73 C92 1.191 . S
O74 Mg65 2.081 . S
O74 C82 1.331 . S
O75 Mg71 1.986 . S
O75 C92 1.307 . S
O76 Mg65 2.023 . S
O76 C91 1.264 . S
O77 Mg66 1.942 . S
O77 C82 1.244 . S
O78 Mg66 1.955 . S
O78 C91 1.273 . S
O79 Mg68 2.114 . S
O79 Mg70 2.291 . S
O79 C81 1.312 . S
O80 Mg65 2.031 . S
O80 C81 1.208 . S
C81 O79 1.312 . S
C81 O80 1.208 . S
C82 O74 1.331 . S
C82 O77 1.244 . S
O83 Mg68 2.013 . S
O83 C72 1.191 . S
O84 C63 1.331 . S
O84 Mg70 2.081 . S
O85 Mg66 1.986 . S
O85 C72 1.307 . S
O86 C64 1.264 . S
O86 Mg70 2.023 . S
O87 C63 1.244 . S
O87 Mg71 1.942 . S
O88 C64 1.273 . S
O88 Mg71 1.955 . S
O89 C62 1.312 . S
O89 Mg65 2.291 . S
O89 Mg68 2.114 . S
O90 C62 1.208 . S
O90 Mg70 2.031 . S
C91 O76 1.264 . S
C91 O78 1.273 . S
C92 O73 1.191 . S
C92 O75 1.307 . S
C93 O120 1.312 . S
C93 O121 1.208 1_554 S
C94 O115 1.331 . S
C94 O118 1.244 . S
C95 O117 1.264 . S
C95 O119 1.273 . S
Mg96 O98 1.936 . S
Mg96 O105 2.081 . S
Mg96 O107 2.023 . S
Mg96 O111 2.038 . S
Mg96 O120 2.291 . S
Mg97 O98 1.963 . S
Mg97 O108 1.942 . S
Mg97 O109 1.955 . S
Mg97 O116 1.986 1_554 S
O98 Mg96 1.936 . S
O98 Mg97 1.963 . S
O98 Mg99 1.915 1_554 S
Mg99 O98 1.915 1_556 S
Mg99 O100 1.915 . S
Mg99 O104 2.013 1_556 S
Mg99 O110 2.114 . S
Mg99 O114 2.013 . S
Mg99 O120 2.114 1_556 S
O100 Mg99 1.915 . S
O100 Mg101 1.936 . S
O100 Mg102 1.963 . S
Mg101 O100 1.936 . S
Mg101 O110 2.291 . S
Mg101 O115 2.081 . S
Mg101 O117 2.023 . S
Mg101 O121 2.031 . S
Mg102 O100 1.963 . S
Mg102 O106 1.986 . S
Mg102 O118 1.942 . S
Mg102 O119 1.955 . S
C103 O114 1.191 . S
C103 O116 1.307 . S
O104 Mg99 2.013 1_554 S
O104 C123 1.191 1_554 S
O105 Mg96 2.081 . S
O105 C113 1.331 . S
O106 Mg102 1.986 . S
O106 C123 1.307 . S
O107 Mg96 2.023 . S
O107 C122 1.264 . S
O108 Mg97 1.942 . S
O108 C113 1.244 . S
O109 Mg97 1.955 . S
O109 C122 1.273 . S
O110 Mg99 2.114 . S
O110 Mg101 2.291 . S
O110 C112 1.312 . S
O111 Mg96 2.038 . S
O111 C112 1.200 1_554 S
C112 O110 1.312 . S
C112 O111 1.200 1_556 S
C113 O105 1.331 . S
C113 O108 1.244 . S
O114 Mg99 2.013 . S
O114 C103 1.191 . S
O115 C94 1.331 . S
O115 Mg101 2.081 . S
O116 Mg97 1.986 1_556 S
O116 C103 1.307 . S
O117 C95 1.264 . S
O117 Mg101 2.023 . S
O118 C94 1.244 . S
O118 Mg102 1.942 . S
O119 C95 1.273 . S
O119 Mg102 1.955 . S
O120 C93 1.312 . S
O120 Mg96 2.291 . S
O120 Mg99 2.114 1_554 S
O121 C93 1.208 1_556 S
O121 Mg101 2.031 . S
C122 O107 1.264 . S
C122 O109 1.273 . S
C123 O104 1.191 1_556 S
C123 O106 1.307 . S
C124 O151 1.312 . S
C124 O152 1.208 . S
C125 O146 1.331 . S
C125 O149 1.244 . S
C126 O148 1.264 . S
C126 O150 1.273 . S
Mg127 O129 1.936 . S
Mg127 O136 2.081 . S
Mg127 O138 2.023 . S
Mg127 O142 2.031 . S
Mg127 O151 2.291 . S
Mg128 O129 1.963 . S
Mg128 O139 1.942 . S
Mg128 O140 1.955 . S
Mg128 O147 1.986 . S
O129 Mg127 1.936 . S
O129 Mg128 1.963 . S
O129 Mg130 1.915 . S
Mg130 O129 1.915 . S
Mg130 O131 1.915 . S
Mg130 O135 2.013 . S
Mg130 O141 2.114 . S
Mg130 O145 2.013 . S
Mg130 O151 2.114 . S
O131 Mg130 1.915 . S
O131 Mg132 1.936 . S
O131 Mg133 1.963 . S
Mg132 O131 1.936 . S
Mg132 O141 2.291 . S
Mg132 O146 2.081 . S
Mg132 O148 2.023 . S
Mg132 O152 2.031 . S
Mg133 O131 1.963 . S
Mg133 O137 1.986 . S
Mg133 O149 1.942 . S
Mg133 O150 1.955 . S
C134 O145 1.191 . S
C134 O147 1.307 . S
O135 Mg130 2.013 . S
O135 C154 1.191 . S
O136 Mg127 2.081 . S
O136 C144 1.331 . S
O137 Mg133 1.986 . S
O137 C154 1.307 . S
O138 Mg127 2.023 . S
O138 C153 1.264 . S
O139 Mg128 1.942 . S
O139 C144 1.244 . S
O140 Mg128 1.955 . S
O140 C153 1.273 . S
O141 Mg130 2.114 . S
O141 Mg132 2.291 . S
O141 C143 1.312 . S
O142 Mg127 2.031 . S
O142 C143 1.208 . S
C143 O141 1.312 . S
C143 O142 1.208 . S
C144 O136 1.331 . S
C144 O139 1.244 . S
O145 Mg130 2.013 . S
O145 C134 1.191 . S
O146 C125 1.331 . S
O146 Mg132 2.081 . S
O147 Mg128 1.986 . S
O147 C134 1.307 . S
O148 C126 1.264 . S
O148 Mg132 2.023 . S
O149 C125 1.244 . S
O149 Mg133 1.942 . S
O150 C126 1.273 . S
O150 Mg133 1.955 . S
O151 C124 1.312 . S
O151 Mg127 2.291 . S
O151 Mg130 2.114 . S
O152 C124 1.208 . S
O152 Mg132 2.031 . S
C153 O138 1.264 . S
C153 O140 1.273 . S
C154 O135 1.191 . S
C154 O137 1.307 . S
C155 O182 1.312 . S
C155 O183 1.208 1_556 S
C156 O177 1.331 . S
C156 O180 1.244 . S
C157 O179 1.264 . S
C157 O181 1.273 . S
Mg158 O160 1.936 . S
Mg158 O167 2.081 . S
Mg158 O169 2.023 . S
Mg158 O173 2.038 . S
Mg158 O182 2.291 . S
Mg159 O160 1.963 . S
Mg159 O170 1.942 . S
Mg159 O171 1.955 . S
Mg159 O178 1.986 1_556 S
O160 Mg158 1.936 . S
O160 Mg159 1.963 . S
O160 Mg161 1.915 1_556 S
Mg161 O160 1.915 1_554 S
Mg161 O162 1.915 . S
Mg161 O166 2.013 1_554 S
Mg161 O172 2.114 . S
Mg161 O176 2.013 . S
Mg161 O182 2.114 1_554 S
O162 Mg161 1.915 . S
O162 Mg163 1.936 . S
O162 Mg164 1.963 . S
Mg163 O162 1.936 . S
Mg163 O172 2.291 . S
Mg163 O177 2.081 . S
Mg163 O179 2.023 . S
Mg163 O183 2.031 . S
Mg164 O162 1.963 . S
Mg164 O168 1.986 . S
Mg164 O180 1.942 . S
Mg164 O181 1.955 . S
C165 O176 1.191 . S
C165 O178 1.307 . S
O166 Mg161 2.013 1_556 S
O166 C185 1.191 1_556 S
O167 Mg158 2.081 . S
O167 C175 1.331 . S
O168 Mg164 1.986 . S
O168 C185 1.307 . S
O169 Mg158 2.023 . S
O169 C184 1.264 . S
O170 Mg159 1.942 . S
O170 C175 1.244 . S
O171 Mg159 1.955 . S
O171 C184 1.273 . S
O172 Mg161 2.114 . S
O172 Mg163 2.291 . S
O172 C174 1.312 . S
O173 Mg158 2.038 . S
O173 C174 1.200 1_556 S
C174 O172 1.312 . S
C174 O173 1.200 1_554 S
C175 O167 1.331 . S
C175 O170 1.244 . S
O176 Mg161 2.013 . S
O176 C165 1.191 . S
O177 C156 1.331 . S
O177 Mg163 2.081 . S
O178 Mg159 1.986 1_554 S
O178 C165 1.307 . S
O179 C157 1.264 . S
O179 Mg163 2.023 . S
O180 C156 1.244 . S
O180 Mg164 1.942 . S
O181 C157 1.273 . S
O181 Mg164 1.955 . S
O182 C155 1.312 . S
O182 Mg158 2.291 . S
O182 Mg161 2.114 1_556 S
O183 C155 1.208 1_554 S
O183 Mg163 2.031 . S
C184 O169 1.264 . S
C184 O171 1.273 . S
C185 O166 1.191 1_554 S
C185 O168 1.307 . S
C186 O213 1.312 . S
C186 O214 1.208 . S
C187 O208 1.331 . S
C187 O211 1.244 . S
C188 O210 1.264 . S
C188 O212 1.273 . S
Mg189 O191 1.936 . S
Mg189 O198 2.081 . S
Mg189 O200 2.023 . S
Mg189 O204 2.031 . S
Mg189 O213 2.291 . S
Mg190 O191 1.963 . S
Mg190 O201 1.942 . S
Mg190 O202 1.955 . S
Mg190 O209 1.986 . S
O191 Mg189 1.936 . S
O191 Mg190 1.963 . S
O191 Mg192 1.915 . S
Mg192 O191 1.915 . S
Mg192 O193 1.915 . S
Mg192 O197 2.013 . S
Mg192 O203 2.114 . S
Mg192 O207 2.013 . S
Mg192 O213 2.114 . S
O193 Mg192 1.915 . S
O193 Mg194 1.936 . S
O193 Mg195 1.963 . S
Mg194 O193 1.936 . S
Mg194 O203 2.291 . S
Mg194 O208 2.081 . S
Mg194 O210 2.023 . S
Mg194 O214 2.031 . S
Mg195 O193 1.963 . S
Mg195 O199 1.986 . S
Mg195 O211 1.942 . S
Mg195 O212 1.955 . S
C196 O207 1.191 . S
C196 O209 1.307 . S
O197 Mg192 2.013 . S
O197 C216 1.191 . S
O198 Mg189 2.081 . S
O198 C206 1.331 . S
O199 Mg195 1.986 . S
O199 C216 1.307 . S
O200 Mg189 2.023 . S
O200 C215 1.264 . S
O201 Mg190 1.942 . S
O201 C206 1.244 . S
O202 Mg190 1.955 . S
O202 C215 1.273 . S
O203 Mg192 2.114 . S
O203 Mg194 2.291 . S
O203 C205 1.312 . S
O204 Mg189 2.031 . S
O204 C205 1.208 . S
C205 O203 1.312 . S
C205 O204 1.208 . S
C206 O198 1.331 . S
C206 O201 1.244 . S
O207 Mg192 2.013 . S
O207 C196 1.191 . S
O208 C187 1.331 . S
O208 Mg194 2.081 . S
O209 Mg190 1.986 . S
O209 C196 1.307 . S
O210 C188 1.264 . S
O210 Mg194 2.023 . S
O211 C187 1.244 . S
O211 Mg195 1.942 . S
O212 C188 1.273 . S
O212 Mg195 1.955 . S
O213 C186 1.312 . S
O213 Mg189 2.291 . S
O213 Mg192 2.114 . S
O214 C186 1.208 . S
O214 Mg194 2.031 . S
C215 O200 1.264 . S
C215 O202 1.273 . S
C216 O197 1.191 . S
C216 O199 1.307 . S
C217 O244 1.312 . S
C217 O245 1.208 1_554 S
C218 O239 1.331 . S
C218 O242 1.244 . S
C219 O241 1.264 . S
C219 O243 1.273 . S
Mg220 O222 1.936 . S
Mg220 O229 2.081 . S
Mg220 O231 2.023 . S
Mg220 O235 2.038 . S
Mg220 O244 2.291 . S
Mg221 O222 1.963 . S
Mg221 O232 1.942 . S
Mg221 O233 1.955 . S
Mg221 O240 1.986 1_554 S
O222 Mg220 1.936 . S
O222 Mg221 1.963 . S
O222 Mg223 1.915 1_554 S
Mg223 O222 1.915 1_556 S
Mg223 O224 1.915 . S
Mg223 O228 2.013 1_556 S
Mg223 O234 2.114 . S
Mg223 O238 2.013 . S
Mg223 O244 2.114 1_556 S
O224 Mg223 1.915 . S
O224 Mg225 1.936 . S
O224 Mg226 1.963 . S
Mg225 O224 1.936 . S
Mg225 O234 2.291 . S
Mg225 O239 2.081 . S
Mg225 O241 2.023 . S
Mg225 O245 2.031 . S
Mg226 O224 1.963 . S
Mg226 O230 1.986 . S
Mg226 O242 1.942 . S
Mg226 O243 1.955 . S
C227 O238 1.191 . S
C227 O240 1.307 . S
O228 Mg223 2.013 1_554 S
O228 C247 1.191 1_554 S
O229 Mg220 2.081 . S
O229 C237 1.331 . S
O230 Mg226 1.986 . S
O230 C247 1.307 . S
O231 Mg220 2.023 . S
O231 C246 1.264 . S
O232 Mg221 1.942 . S
O232 C237 1.244 . S
O233 Mg221 1.955 . S
O233 C246 1.273 . S
O234 Mg223 2.114 . S
O234 Mg225 2.291 . S
O234 C236 1.312 . S
O235 Mg220 2.038 . S
O235 C236 1.200 1_554 S
C236 O234 1.312 . S
C236 O235 1.200 1_556 S
C237 O229 1.331 . S
C237 O232 1.244 . S
O238 Mg223 2.013 . S
O238 C227 1.191 . S
O239 C218 1.331 . S
O239 Mg225 2.081 . S
O240 Mg221 1.986 1_556 S
O240 C227 1.307 . S
O241 C219 1.264 . S
O241 Mg225 2.023 . S
O242 C218 1.244 . S
O242 Mg226 1.942 . S
O243 C219 1.273 . S
O243 Mg226 1.955 . S
O244 C217 1.312 . S
O244 Mg220 2.291 . S
O244 Mg223 2.114 1_554 S
O245 C217 1.208 1_556 S
O245 Mg225 2.031 . S
C246 O231 1.264 . S
C246 O233 1.273 . S
C247 O228 1.191 1_556 S
C247 O230 1.307 . S
H248 C254 0.930 . S
H249 C257 0.930 . S
H250 C258 0.930 . S
H251 C259 0.930 . S
H252 C262 0.930 . S
H253 C263 0.930 . S
C254 H248 0.930 . S
C254 C255 1.355 . S
C254 C256 1.415 . S
C255 C254 1.355 . S
C255 C257 1.419 . S
C256 C254 1.415 . S
C256 C261 1.425 . S
C256 C263 1.409 . S
C257 H249 0.930 . S
C257 C255 1.419 . S
C257 C258 1.362 . S
C258 H250 0.930 . S
C258 C257 1.362 . S
C258 C261 1.409 . S
C259 H251 0.930 . S
C259 C260 1.355 . S
C259 C261 1.415 . S
C260 C259 1.355 . S
C260 C262 1.419 . S
C261 C256 1.425 . S
C261 C258 1.409 . S
C261 C259 1.415 . S
C262 H252 0.930 . S
C262 C260 1.419 . S
C262 C263 1.362 . S
C263 H253 0.930 . S
C263 C256 1.409 . S
C263 C262 1.362 . S
H264 C270 0.930 . S
H265 C273 0.930 . S
H266 C274 0.930 . S
H267 C275 0.930 . S
H268 C278 0.930 . S
H269 C279 0.930 . S
C270 H264 0.930 . S
C270 C271 1.355 . S
C270 C272 1.415 . S
C271 C270 1.355 . S
C271 C273 1.419 . S
C272 C270 1.415 . S
C272 C277 1.425 . S
C272 C279 1.409 . S
C273 H265 0.930 . S
C273 C271 1.419 . S
C273 C274 1.362 . S
C274 H266 0.930 . S
C274 C273 1.362 . S
C274 C277 1.409 . S
C275 H267 0.930 . S
C275 C276 1.355 . S
C275 C277 1.415 . S
C276 C275 1.355 . S
C276 C278 1.419 . S
C277 C272 1.425 . S
C277 C274 1.409 . S
C277 C275 1.415 . S
C278 H268 0.930 . S
C278 C276 1.419 . S
C278 C279 1.362 . S
C279 H269 0.930 . S
C279 C272 1.409 . S
C279 C278 1.362 . S
H280 C286 0.930 . S
H281 C289 0.930 . S
H282 C290 0.930 . S
H283 C291 0.930 . S
H284 C294 0.930 . S
H285 C295 0.930 . S
C286 H280 0.930 . S
C286 C287 1.355 . S
C286 C288 1.415 . S
C287 C286 1.355 . S
C287 C289 1.419 . S
C288 C286 1.415 . S
C288 C293 1.425 . S
C288 C295 1.409 . S
C289 H281 0.930 . S
C289 C287 1.419 . S
C289 C290 1.362 . S
C290 H282 0.930 . S
C290 C289 1.362 . S
C290 C293 1.409 . S
C291 H283 0.930 . S
C291 C292 1.355 . S
C291 C293 1.415 . S
C292 C291 1.355 . S
C292 C294 1.419 . S
C293 C288 1.425 . S
C293 C290 1.409 . S
C293 C291 1.415 . S
C294 H284 0.930 . S
C294 C292 1.419 . S
C294 C295 1.362 . S
C295 H285 0.930 . S
C295 C288 1.409 . S
C295 C294 1.362 . S
H296 C302 0.930 . S
H297 C305 0.930 . S
H298 C306 0.930 . S
H299 C307 0.930 . S
H300 C310 0.930 . S
H301 C311 0.930 . S
C302 H296 0.930 . S
C302 C303 1.355 . S
C302 C304 1.415 . S
C303 C302 1.355 . S
C303 C305 1.419 . S
C304 C302 1.415 . S
C304 C309 1.425 . S
C304 C311 1.409 . S
C305 H297 0.930 . S
C305 C303 1.419 . S
C305 C306 1.362 . S
C306 H298 0.930 . S
C306 C305 1.362 . S
C306 C309 1.409 . S
C307 H299 0.930 . S
C307 C308 1.355 . S
C307 C309 1.415 . S
C308 C307 1.355 . S
C308 C310 1.419 . S
C309 C304 1.425 . S
C309 C306 1.409 . S
C309 C307 1.415 . S
C310 H300 0.930 . S
C310 C308 1.419 . S
C310 C311 1.362 . S
C311 H301 0.930 . S
C311 C304 1.409 . S
C311 C310 1.362 . S
H312 C318 0.930 . S
H313 C321 0.930 . S
H314 C322 0.930 . S
H315 C323 0.930 . S
H316 C326 0.930 . S
H317 C327 0.930 . S
C318 H312 0.930 . S
C318 C319 1.355 . S
C318 C320 1.415 . S
C319 C318 1.355 . S
C319 C321 1.419 . S
C320 C318 1.415 . S
C320 C325 1.425 1_545 S
C320 C327 1.409 . S
C321 H313 0.930 . S
C321 C319 1.419 . S
C321 C322 1.362 1_545 S
C322 H314 0.930 . S
C322 C321 1.362 1_565 S
C322 C325 1.409 . S
C323 H315 0.930 . S
C323 C324 1.355 . S
C323 C325 1.415 . S
C324 C323 1.355 . S
C324 C326 1.419 . S
C325 C320 1.425 1_565 S
C325 C322 1.409 . S
C325 C323 1.415 . S
C326 H316 0.930 . S
C326 C324 1.419 . S
C326 C327 1.362 1_565 S
C327 H317 0.930 . S
C327 C320 1.409 . S
C327 C326 1.362 1_545 S
H328 C334 0.930 . S
H329 C337 0.930 . S
H330 C338 0.930 . S
H331 C339 0.930 . S
H332 C342 0.930 . S
H333 C343 0.930 . S
C334 H328 0.930 . S
C334 C335 1.355 . S
C334 C336 1.415 1_545 S
C335 C334 1.355 . S
C335 C337 1.419 . S
C336 C334 1.415 1_565 S
C336 C341 1.420 1_565 S
C336 C343 1.409 . S
C337 H329 0.930 . S
C337 C335 1.419 . S
C337 C338 1.362 . S
C338 H330 0.930 . S
C338 C337 1.362 . S
C338 C341 1.447 . S
C339 H331 0.930 . S
C339 C340 1.355 . S
C339 C341 1.383 1_565 S
C340 C339 1.355 . S
C340 C342 1.419 . S
C341 C336 1.420 1_545 S
C341 C338 1.447 . S
C341 C339 1.383 1_545 S
C342 H332 0.930 . S
C342 C340 1.419 . S
C342 C343 1.362 . S
C343 H333 0.930 . S
C343 C336 1.409 . S
C343 C342 1.362 . S
H344 C350 0.930 . S
H345 C353 0.930 . S
H346 C354 0.930 . S
H347 C355 0.930 . S
H348 C358 0.930 . S
H349 C359 0.930 . S
C350 H344 0.930 . S
C350 C351 1.355 . S
C350 C352 1.415 . S
C351 C350 1.355 . S
C351 C353 1.419 . S
C352 C350 1.415 . S
C352 C357 1.425 1_565 S
C352 C359 1.409 1_565 S
C353 H345 0.930 . S
C353 C351 1.419 . S
C353 C354 1.362 . S
C354 H346 0.930 . S
C354 C353 1.362 . S
C354 C357 1.409 1_565 S
C355 H347 0.930 . S
C355 C356 1.355 . S
C355 C357 1.415 . S
C356 C355 1.355 . S
C356 C358 1.419 . S
C357 C352 1.425 1_545 S
C357 C354 1.409 1_545 S
C357 C355 1.415 . S
C358 H348 0.930 . S
C358 C356 1.419 . S
C358 C359 1.362 . S
C359 H349 0.930 . S
C359 C352 1.409 1_545 S
C359 C358 1.362 . S
H360 C366 0.930 . S
H361 C369 0.930 . S
H362 C370 0.930 . S
H363 C371 0.930 . S
H364 C374 0.930 . S
H365 C375 0.930 . S
C366 H360 0.930 . S
C366 C367 1.355 . S
C366 C368 1.415 1_565 S
C367 C366 1.355 . S
C367 C369 1.419 . S
C368 C366 1.415 1_545 S
C368 C373 1.425 1_545 S
C368 C375 1.409 . S
C369 H361 0.930 . S
C369 C367 1.419 . S
C369 C370 1.362 . S
C370 H362 0.930 . S
C370 C369 1.362 . S
C370 C373 1.409 . S
C371 H363 0.930 . S
C371 C372 1.355 . S
C371 C373 1.415 1_545 S
C372 C371 1.355 . S
C372 C374 1.419 . S
C373 C368 1.425 1_565 S
C373 C370 1.409 . S
C373 C371 1.415 1_565 S
C374 H364 0.930 . S
C374 C372 1.419 . S
C374 C375 1.362 . S
C375 H365 0.930 . S
C375 C368 1.409 . S
C375 C374 1.362 . S
H376 C382 0.930 . S
H377 C385 0.930 . S
H378 C386 0.930 . S
H379 C387 0.930 . S
H380 C390 0.930 . S
H381 C391 0.930 . S
C382 H376 0.930 . S
C382 C383 1.355 . S
C382 C384 1.415 . S
C383 C382 1.355 . S
C383 C385 1.419 . S
C384 C382 1.415 . S
C384 C389 1.425 1_655 S
C384 C391 1.409 1_655 S
C385 H377 0.930 . S
C385 C383 1.419 . S
C385 C386 1.362 . S
C386 H378 0.930 . S
C386 C385 1.362 . S
C386 C389 1.409 1_655 S
C387 H379 0.930 . S
C387 C388 1.355 . S
C387 C389 1.415 . S
C388 C387 1.355 . S
C388 C390 1.419 . S
C389 C384 1.425 1_455 S
C389 C386 1.409 1_455 S
C389 C387 1.415 . S
C390 H380 0.930 . S
C390 C388 1.419 . S
C390 C391 1.362 . S
C391 H381 0.930 . S
C391 C384 1.409 1_455 S
C391 C390 1.362 . S
H392 C398 0.930 . S
H393 C401 0.930 . S
H394 C402 0.930 . S
H395 C403 0.930 . S
H396 C406 0.930 . S
H397 C407 0.930 . S
C398 H392 0.930 . S
C398 C399 1.355 . S
C398 C400 1.415 . S
C399 C398 1.355 . S
C399 C401 1.419 . S
C400 C398 1.415 . S
C400 C405 1.425 1_455 S
C400 C407 1.409 1_455 S
C401 H393 0.930 . S
C401 C399 1.419 . S
C401 C402 1.362 . S
C402 H394 0.930 . S
C402 C401 1.362 . S
C402 C405 1.409 1_455 S
C403 H395 0.930 . S
C403 C404 1.355 . S
C403 C405 1.415 . S
C404 C403 1.355 . S
C404 C406 1.419 . S
C405 C400 1.425 1_655 S
C405 C402 1.409 1_655 S
C405 C403 1.415 . S
C406 H396 0.930 . S
C406 C404 1.419 . S
C406 C407 1.362 . S
C407 H397 0.930 . S
C407 C400 1.409 1_655 S
C407 C406 1.362 . S
H408 C414 0.930 . S
H409 C417 0.930 . S
H410 C418 0.930 . S
H411 C419 0.930 . S
H412 C422 0.930 . S
H413 C423 0.930 . S
C414 H408 0.930 . S
C414 C415 1.355 . S
C414 C416 1.415 . S
C415 C414 1.355 . S
C415 C417 1.419 . S
C416 C414 1.415 . S
C416 C421 1.425 . S
C416 C423 1.409 . S
C417 H409 0.930 . S
C417 C415 1.419 . S
C417 C418 1.362 . S
C418 H410 0.930 . S
C418 C417 1.362 . S
C418 C421 1.409 . S
C419 H411 0.930 . S
C419 C420 1.355 . S
C419 C421 1.415 . S
C420 C419 1.355 . S
C420 C422 1.419 . S
C421 C416 1.425 . S
C421 C418 1.409 . S
C421 C419 1.415 . S
C422 H412 0.930 . S
C422 C420 1.419 . S
C422 C423 1.362 . S
C423 H413 0.930 . S
C423 C416 1.409 . S
C423 C422 1.362 . S
H424 C430 0.930 . S
H425 C433 0.930 . S
H426 C434 0.930 . S
H427 C435 0.930 . S
H428 C438 0.930 . S
H429 C439 0.930 . S
C430 H424 0.930 . S
C430 C431 1.355 . S
C430 C432 1.415 . S
C431 C430 1.355 . S
C431 C433 1.419 . S
C432 C430 1.415 . S
C432 C437 1.425 . S
C432 C439 1.409 . S
C433 H425 0.930 . S
C433 C431 1.419 . S
C433 C434 1.362 . S
C434 H426 0.930 . S
C434 C433 1.362 . S
C434 C437 1.409 . S
C435 H427 0.930 . S
C435 C436 1.355 . S
C435 C437 1.415 . S
C436 C435 1.355 . S
C436 C438 1.419 . S
C437 C432 1.425 . S
C437 C434 1.409 . S
C437 C435 1.415 . S
C438 H428 0.930 . S
C438 C436 1.419 . S
C438 C439 1.362 . S
C439 H429 0.930 . S
C439 C432 1.409 . S
C439 C438 1.362 . S
H440 C446 0.930 . S
H441 C449 0.930 . S
H442 C450 0.930 . S
H443 C451 0.930 . S
H444 C454 0.930 . S
H445 C455 0.930 . S
C446 H440 0.930 . S
C446 C447 1.355 . S
C446 C448 1.415 . S
C447 C446 1.355 . S
C447 C449 1.419 . S
C448 C446 1.415 . S
C448 C453 1.425 . S
C448 C455 1.409 . S
C449 H441 0.930 . S
C449 C447 1.419 . S
C449 C450 1.362 . S
C450 H442 0.930 . S
C450 C449 1.362 . S
C450 C453 1.409 . S
C451 H443 0.930 . S
C451 C452 1.355 . S
C451 C453 1.415 . S
C452 C451 1.355 . S
C452 C454 1.419 . S
C453 C448 1.425 . S
C453 C450 1.409 . S
C453 C451 1.415 . S
C454 H444 0.930 . S
C454 C452 1.419 . S
C454 C455 1.362 . S
C455 H445 0.930 . S
C455 C448 1.409 . S
C455 C454 1.362 . S
H456 C462 0.930 . S
H457 C465 0.930 . S
H458 C466 0.930 . S
H459 C467 0.930 . S
H460 C470 0.930 . S
H461 C471 0.930 . S
C462 H456 0.930 . S
C462 C463 1.355 . S
C462 C464 1.415 . S
C463 C462 1.355 . S
C463 C465 1.419 . S
C464 C462 1.415 . S
C464 C469 1.425 . S
C464 C471 1.409 . S
C465 H457 0.930 . S
C465 C463 1.419 . S
C465 C466 1.362 . S
C466 H458 0.930 . S
C466 C465 1.362 . S
C466 C469 1.409 . S
C467 H459 0.930 . S
C467 C468 1.355 . S
C467 C469 1.415 . S
C468 C467 1.355 . S
C468 C470 1.419 . S
C469 C464 1.425 . S
C469 C466 1.409 . S
C469 C467 1.415 . S
C470 H460 0.930 . S
C470 C468 1.419 . S
C470 C471 1.362 . S
C471 H461 0.930 . S
C471 C464 1.409 . S
C471 C470 1.362 . S
H472 C478 0.930 . S
H473 C481 0.930 . S
H474 C482 0.930 . S
H475 C483 0.930 . S
H476 C486 0.930 . S
H477 C487 0.930 . S
C478 H472 0.930 . S
C478 C479 1.355 . S
C478 C480 1.415 . S
C479 C478 1.355 . S
C479 C481 1.419 . S
C480 C478 1.415 . S
C480 C485 1.425 1_655 S
C480 C487 1.409 . S
C481 H473 0.930 . S
C481 C479 1.419 . S
C481 C482 1.362 1_655 S
C482 H474 0.930 . S
C482 C481 1.362 1_455 S
C482 C485 1.409 . S
C483 H475 0.930 . S
C483 C484 1.355 . S
C483 C485 1.415 . S
C484 C483 1.355 . S
C484 C486 1.419 . S
C485 C480 1.425 1_455 S
C485 C482 1.409 . S
C485 C483 1.415 . S
C486 H476 0.930 . S
C486 C484 1.419 . S
C486 C487 1.362 1_455 S
C487 H477 0.930 . S
C487 C480 1.409 . S
C487 C486 1.362 1_655 S
H488 C494 0.930 . S
H489 C497 0.930 . S
H490 C498 0.930 . S
H491 C499 0.930 . S
H492 C502 0.930 . S
H493 C503 0.930 . S
C494 H488 0.930 . S
C494 C495 1.355 . S
C494 C496 1.415 . S
C495 C494 1.355 . S
C495 C497 1.419 . S
C496 C494 1.415 . S
C496 C501 1.425 1_455 S
C496 C503 1.409 . S
C497 H489 0.930 . S
C497 C495 1.419 . S
C497 C498 1.362 1_455 S
C498 H490 0.930 . S
C498 C497 1.362 1_655 S
C498 C501 1.409 . S
C499 H491 0.930 . S
C499 C500 1.355 . S
C499 C501 1.415 . S
C500 C499 1.355 . S
C500 C502 1.419 . S
C501 C496 1.425 1_655 S
C501 C498 1.409 . S
C501 C499 1.415 . S
C502 H492 0.930 . S
C502 C500 1.419 . S
C502 C503 1.362 1_655 S
C503 H493 0.930 . S
C503 C496 1.409 . S
C503 C502 1.362 1_455 S
H504 C510 0.930 . S
H505 C513 0.930 . S
H506 C514 0.930 . S
H507 C515 0.930 . S
H508 C518 0.930 . S
H509 C519 0.930 . S
C510 H504 0.930 . S
C510 C511 1.355 . S
C510 C512 1.415 . S
C511 C510 1.355 . S
C511 C513 1.419 . S
C512 C510 1.415 . S
C512 C517 1.425 . S
C512 C519 1.409 . S
C513 H505 0.930 . S
C513 C511 1.419 . S
C513 C514 1.362 . S
C514 H506 0.930 . S
C514 C513 1.362 . S
C514 C517 1.409 . S
C515 H507 0.930 . S
C515 C516 1.355 . S
C515 C517 1.415 . S
C516 C515 1.355 . S
C516 C518 1.419 . S
C517 C512 1.425 . S
C517 C514 1.409 . S
C517 C515 1.415 . S
C518 H508 0.930 . S
C518 C516 1.419 . S
C518 C519 1.362 . S
C519 H509 0.930 . S
C519 C512 1.409 . S
C519 C518 1.362 . S
H520 C526 0.930 . S
H521 C529 0.930 . S
H522 C530 0.930 . S
H523 C531 0.930 . S
H524 C534 0.930 . S
H525 C535 0.930 . S
C526 H520 0.930 . S
C526 C527 1.355 . S
C526 C528 1.415 . S
C527 C526 1.355 . S
C527 C529 1.419 . S
C528 C526 1.415 . S
C528 C533 1.425 . S
C528 C535 1.409 . S
C529 H521 0.930 . S
C529 C527 1.419 . S
C529 C530 1.362 . S
C530 H522 0.930 . S
C530 C529 1.362 . S
C530 C533 1.409 . S
C531 H523 0.930 . S
C531 C532 1.355 . S
C531 C533 1.415 . S
C532 C531 1.355 . S
C532 C534 1.419 . S
C533 C528 1.425 . S
C533 C530 1.409 . S
C533 C531 1.415 . S
C534 H524 0.930 . S
C534 C532 1.419 . S
C534 C535 1.362 . S
C535 H525 0.930 . S
C535 C528 1.409 . S
C535 C534 1.362 . S
H536 C542 0.930 . S
H537 C545 0.930 . S
H538 C546 0.930 . S
H539 C547 0.930 . S
H540 C550 0.930 . S
H541 C551 0.930 . S
C542 H536 0.930 . S
C542 C543 1.355 . S
C542 C544 1.411 1_655 S
C543 C542 1.355 . S
C543 C545 1.419 . S
C544 C542 1.411 1_455 S
C544 C549 1.423 1_455 S
C544 C551 1.414 . S
C545 H537 0.930 . S
C545 C543 1.419 . S
C545 C546 1.362 . S
C546 H538 0.930 . S
C546 C545 1.362 . S
C546 C549 1.414 . S
C547 H539 0.930 . S
C547 C548 1.355 . S
C547 C549 1.411 1_455 S
C548 C547 1.355 . S
C548 C550 1.419 . S
C549 C544 1.423 1_655 S
C549 C546 1.414 . S
C549 C547 1.411 1_655 S
C550 H540 0.930 . S
C550 C548 1.419 . S
C550 C551 1.362 . S
C551 H541 0.930 . S
C551 C544 1.414 . S
C551 C550 1.362 . S
H552 C558 0.930 . S
H553 C561 0.930 . S
H554 C562 0.930 . S
H555 C563 0.930 . S
H556 C566 0.930 . S
H557 C567 0.930 . S
C558 H552 0.930 . S
C558 C559 1.355 . S
C558 C560 1.415 1_455 S
C559 C558 1.355 . S
C559 C561 1.419 . S
C560 C558 1.415 1_655 S
C560 C565 1.425 1_655 S
C560 C567 1.409 . S
C561 H553 0.930 . S
C561 C559 1.419 . S
C561 C562 1.362 . S
C562 H554 0.930 . S
C562 C561 1.362 . S
C562 C565 1.409 . S
C563 H555 0.930 . S
C563 C564 1.355 . S
C563 C565 1.415 1_655 S
C564 C563 1.355 . S
C564 C566 1.419 . S
C565 C560 1.425 1_455 S
C565 C562 1.409 . S
C565 C563 1.415 1_455 S
C566 H556 0.930 . S
C566 C564 1.419 . S
C566 C567 1.362 . S
C567 H557 0.930 . S
C567 C560 1.409 . S
C567 C566 1.362 . S
H568 C574 0.930 . S
H569 C577 0.930 . S
H570 C578 0.930 . S
H571 C579 0.930 . S
H572 C582 0.930 . S
H573 C583 0.930 . S
C574 H568 0.930 . S
C574 C575 1.355 . S
C574 C576 1.415 1_554 S
C575 C574 1.355 . S
C575 C577 1.419 . S
C576 C574 1.415 1_556 S
C576 C581 1.425 . S
C576 C583 1.409 . S
C577 H569 0.930 . S
C577 C575 1.419 . S
C577 C578 1.362 1_554 S
C578 H570 0.930 . S
C578 C577 1.362 1_556 S
C578 C581 1.409 . S
C579 H571 0.930 . S
C579 C580 1.355 . S
C579 C581 1.415 . S
C580 C579 1.355 . S
C580 C582 1.419 . S
C581 C576 1.425 . S
C581 C578 1.409 . S
C581 C579 1.415 . S
C582 H572 0.930 . S
C582 C580 1.419 . S
C582 C583 1.362 . S
C583 H573 0.930 . S
C583 C576 1.409 . S
C583 C582 1.362 . S
H584 C590 0.930 . S
H585 C593 0.930 . S
H586 C594 0.930 . S
H587 C595 0.930 . S
H588 C598 0.930 . S
H589 C599 0.930 . S
C590 H584 0.930 . S
C590 C591 1.355 . S
C590 C592 1.415 . S
C591 C590 1.355 . S
C591 C593 1.419 . S
C592 C590 1.415 . S
C592 C597 1.425 . S
C592 C599 1.409 . S
C593 H585 0.930 . S
C593 C591 1.419 . S
C593 C594 1.362 . S
C594 H586 0.930 . S
C594 C593 1.362 . S
C594 C597 1.409 . S
C595 H587 0.930 . S
C595 C596 1.355 . S
C595 C597 1.415 . S
C596 C595 1.355 . S
C596 C598 1.419 . S
C597 C592 1.425 . S
C597 C594 1.409 . S
C597 C595 1.415 . S
C598 H588 0.930 . S
C598 C596 1.419 . S
C598 C599 1.362 . S
C599 H589 0.930 . S
C599 C592 1.409 . S
C599 C598 1.362 . S
H600 C606 0.930 . S
H601 C609 0.930 . S
H602 C610 0.930 . S
H603 C611 0.930 . S
H604 C614 0.930 . S
H605 C615 0.930 . S
C606 H600 0.930 . S
C606 C607 1.355 . S
C606 C608 1.415 1_556 S
C607 C606 1.355 . S
C607 C609 1.419 . S
C608 C606 1.415 1_554 S
C608 C613 1.425 . S
C608 C615 1.409 . S
C609 H601 0.930 . S
C609 C607 1.419 . S
C609 C610 1.362 . S
C610 H602 0.930 . S
C610 C609 1.362 . S
C610 C613 1.409 1_556 S
C611 H603 0.930 . S
C611 C612 1.355 . S
C611 C613 1.415 . S
C612 C611 1.355 . S
C612 C614 1.419 . S
C613 C608 1.425 . S
C613 C610 1.409 1_554 S
C613 C611 1.415 . S
C614 H604 0.930 . S
C614 C612 1.419 . S
C614 C615 1.362 . S
C615 H605 0.930 . S
C615 C608 1.409 . S
C615 C614 1.362 . S
H616 C622 0.930 . S
H617 C625 0.930 . S
H618 C626 0.930 . S
H619 C627 0.930 . S
H620 C630 0.930 . S
H621 C631 0.930 . S
C622 H616 0.930 . S
C622 C623 1.355 . S
C622 C624 1.415 . S
C623 C622 1.355 . S
C623 C625 1.419 . S
C624 C622 1.415 . S
C624 C629 1.425 . S
C624 C631 1.409 . S
C625 H617 0.930 . S
C625 C623 1.419 . S
C625 C626 1.362 . S
C626 H618 0.930 . S
C626 C625 1.362 . S
C626 C629 1.409 . S
C627 H619 0.930 . S
C627 C628 1.355 . S
C627 C629 1.415 . S
C628 C627 1.355 . S
C628 C630 1.419 . S
C629 C624 1.425 . S
C629 C626 1.409 . S
C629 C627 1.415 . S
C630 H620 0.930 . S
C630 C628 1.419 . S
C630 C631 1.362 . S
C631 H621 0.930 . S
C631 C624 1.409 . S
C631 C630 1.362 . S
H632 C638 0.930 . S
H633 C641 0.930 . S
H634 C642 0.932 . S
H635 C643 0.930 . S
H636 C646 0.930 . S
H637 C647 0.930 . S
C638 H632 0.930 . S
C638 C639 1.355 . S
C638 C640 1.415 1_554 S
C639 C638 1.355 . S
C639 C641 1.419 . S
C640 C638 1.415 1_556 S
C640 C645 1.425 . S
C640 C647 1.409 . S
C641 H633 0.930 . S
C641 C639 1.419 . S
C641 C642 1.362 . S
C642 H634 0.932 . S
C642 C641 1.362 . S
C642 C645 1.409 1_554 S
C643 H635 0.930 . S
C643 C644 1.355 . S
C643 C645 1.415 . S
C644 C643 1.355 . S
C644 C646 1.419 . S
C645 C640 1.425 . S
C645 C642 1.409 1_556 S
C645 C643 1.415 . S
C646 H636 0.930 . S
C646 C644 1.419 . S
C646 C647 1.362 . S
C647 H637 0.930 . S
C647 C640 1.409 . S
C647 C646 1.362 . S
H648 C654 0.930 . S
H649 C657 0.930 . S
H650 C658 0.930 . S
H651 C659 0.930 . S
H652 C662 0.930 . S
H653 C663 0.930 . S
C654 H648 0.930 . S
C654 C655 1.355 . S
C654 C656 1.415 . S
C655 C654 1.355 . S
C655 C657 1.419 . S
C656 C654 1.415 . S
C656 C661 1.425 . S
C656 C663 1.409 . S
C657 H649 0.930 . S
C657 C655 1.419 . S
C657 C658 1.362 . S
C658 H650 0.930 . S
C658 C657 1.362 . S
C658 C661 1.409 . S
C659 H651 0.930 . S
C659 C660 1.355 . S
C659 C661 1.415 . S
C660 C659 1.355 . S
C660 C662 1.419 . S
C661 C656 1.425 . S
C661 C658 1.409 . S
C661 C659 1.415 . S
C662 H652 0.930 . S
C662 C660 1.419 . S
C662 C663 1.362 . S
C663 H653 0.930 . S
C663 C656 1.409 . S
C663 C662 1.362 . S
H664 C670 0.930 . S
H665 C673 0.930 . S
H666 C674 0.930 . S
H667 C675 0.930 . S
H668 C678 0.930 . S
H669 C679 0.930 . S
C670 H664 0.930 . S
C670 C671 1.355 . S
C670 C672 1.415 1_556 S
C671 C670 1.355 . S
C671 C673 1.419 . S
C672 C670 1.415 1_554 S
C672 C677 1.425 . S
C672 C679 1.409 . S
C673 H665 0.930 . S
C673 C671 1.419 . S
C673 C674 1.362 . S
C674 H666 0.930 . S
C674 C673 1.362 . S
C674 C677 1.409 1_556 S
C675 H667 0.930 . S
C675 C676 1.355 . S
C675 C677 1.415 . S
C676 C675 1.355 . S
C676 C678 1.419 . S
C677 C672 1.425 . S
C677 C674 1.409 1_554 S
C677 C675 1.415 . S
C678 H668 0.930 . S
C678 C676 1.419 . S
C678 C679 1.362 . S
C679 H669 0.930 . S
C679 C672 1.409 . S
C679 C678 1.362 . S
H680 C686 0.930 . S
H681 C689 0.930 . S
H682 C690 0.930 . S
H683 C691 0.930 . S
H684 C694 0.930 . S
H685 C695 0.930 . S
C686 H680 0.930 . S
C686 C687 1.355 . S
C686 C688 1.415 . S
C687 C686 1.355 . S
C687 C689 1.419 . S
C688 C686 1.415 . S
C688 C693 1.425 . S
C688 C695 1.409 . S
C689 H681 0.930 . S
C689 C687 1.419 . S
C689 C690 1.362 . S
C690 H682 0.930 . S
C690 C689 1.362 . S
C690 C693 1.409 . S
C691 H683 0.930 . S
C691 C692 1.355 . S
C691 C693 1.415 . S
C692 C691 1.355 . S
C692 C694 1.419 . S
C693 C688 1.425 . S
C693 C690 1.409 . S
C693 C691 1.415 . S
C694 H684 0.930 . S
C694 C692 1.419 . S
C694 C695 1.362 . S
C695 H685 0.930 . S
C695 C688 1.409 . S
C695 C694 1.362 . S
H696 C702 0.930 . S
H697 C705 0.930 . S
H698 C706 0.930 . S
H699 C707 0.930 . S
H700 C710 0.930 . S
H701 C711 0.930 . S
C702 H696 0.930 . S
C702 C703 1.355 . S
C702 C704 1.415 . S
C703 C702 1.355 . S
C703 C705 1.419 . S
C704 C702 1.415 . S
C704 C709 1.425 . S
C704 C711 1.409 . S
C705 H697 0.930 . S
C705 C703 1.419 . S
C705 C706 1.362 . S
C706 H698 0.930 . S
C706 C705 1.362 . S
C706 C709 1.409 . S
C707 H699 0.930 . S
C707 C708 1.355 . S
C707 C709 1.415 . S
C708 C707 1.355 . S
C708 C710 1.419 . S
C709 C704 1.425 . S
C709 C706 1.409 . S
C709 C707 1.415 . S
C710 H700 0.930 . S
C710 C708 1.419 . S
C710 C711 1.362 . S
C711 H701 0.930 . S
C711 C704 1.409 . S
C711 C710 1.362 . S
H712 C718 0.930 . S
H713 C721 0.930 . S
H714 C722 0.930 . S
H715 C723 0.930 . S
H716 C726 0.930 . S
H717 C727 0.930 . S
C718 H712 0.930 . S
C718 C719 1.355 . S
C718 C720 1.415 . S
C719 C718 1.355 . S
C719 C721 1.419 1_556 S
C720 C718 1.415 . S
C720 C725 1.425 1_556 S
C720 C727 1.409 . S
C721 H713 0.930 . S
C721 C719 1.419 1_554 S
C721 C722 1.362 . S
C722 H714 0.930 . S
C722 C721 1.362 . S
C722 C725 1.409 . S
C723 H715 0.930 . S
C723 C724 1.355 . S
C723 C725 1.415 . S
C724 C723 1.355 . S
C724 C726 1.419 1_554 S
C725 C720 1.425 1_554 S
C725 C722 1.409 . S
C725 C723 1.415 . S
C726 H716 0.930 . S
C726 C724 1.419 1_556 S
C726 C727 1.362 . S
C727 H717 0.930 . S
C727 C720 1.409 . S
C727 C726 1.362 . S
H728 C734 0.930 . S
H729 C737 0.930 . S
H730 C738 0.930 . S
H731 C739 0.930 . S
H732 C742 0.930 . S
H733 C743 0.930 . S
C734 H728 0.930 . S
C734 C735 1.355 . S
C734 C736 1.415 . S
C735 C734 1.355 . S
C735 C737 1.419 . S
C736 C734 1.415 . S
C736 C741 1.425 . S
C736 C743 1.409 . S
C737 H729 0.930 . S
C737 C735 1.419 . S
C737 C738 1.362 . S
C738 H730 0.930 . S
C738 C737 1.362 . S
C738 C741 1.409 . S
C739 H731 0.930 . S
C739 C740 1.355 . S
C739 C741 1.415 . S
C740 C739 1.355 . S
C740 C742 1.419 . S
C741 C736 1.425 . S
C741 C738 1.409 . S
C741 C739 1.415 . S
C742 H732 0.930 . S
C742 C740 1.419 . S
C742 C743 1.362 . S
C743 H733 0.930 . S
C743 C736 1.409 . S
C743 C742 1.362 . S
H744 C750 0.930 . S
H745 C753 0.930 . S
H746 C754 0.930 . S
H747 C755 0.930 . S
H748 C758 0.930 . S
H749 C759 0.930 . S
C750 H744 0.930 . S
C750 C751 1.355 1_554 S
C750 C752 1.415 . S
C751 C750 1.355 1_556 S
C751 C753 1.419 . S
C752 C750 1.415 . S
C752 C757 1.425 1_554 S
C752 C759 1.409 . S
C753 H745 0.930 . S
C753 C751 1.419 . S
C753 C754 1.362 . S
C754 H746 0.930 . S
C754 C753 1.362 . S
C754 C757 1.409 . S
C755 H747 0.930 . S
C755 C756 1.355 1_556 S
C755 C757 1.415 . S
C756 C755 1.355 1_554 S
C756 C758 1.419 . S
C757 C752 1.425 1_556 S
C757 C754 1.409 . S
C757 C755 1.415 . S
C758 H748 0.930 . S
C758 C756 1.419 . S
C758 C759 1.362 . S
C759 H749 0.930 . S
C759 C752 1.409 . S
C759 C758 1.362 . S
C255 C113 1.841 . S
C260 C19 2.067 . S
C271 C82 1.828 . S
C276 C50 2.050 . S
C287 C51 1.754 . S
C292 C81 2.046 . S
C303 C112 2.052 . S
C308 C20 1.832 . S
C319 C237 1.788 . S
C324 C143 2.044 . S
C335 C187 1.810 . S
C340 C174 2.069 . S
C351 C175 1.805 . S
C356 C186 2.069 . S
C367 C144 1.757 . S
C372 C236 2.060 . S
C383 C41 0.896 . S
C388 C10 0.886 . S
C399 C103 0.979 . S
C404 C72 0.971 . S
C415 C134 0.914 . S
C420 C165 0.901 . S
C431 C227 0.878 . S
C436 C216 0.879 . S
C447 C32 1.867 . S
C452 C1 1.908 . S
C463 C63 1.922 . S
C468 C94 1.864 . S
C479 C125 1.936 . S
C484 C156 1.886 . S
C495 C206 1.922 . S
C500 C218 1.914 . S
C511 C0 1.676 . S
C516 C31 1.687 . S
C527 C62 1.688 . S
C532 C93 1.675 . S
C543 C124 1.711 . S
C548 C155 1.689 . S
C559 C205 1.703 . S
C564 C217 1.711 . S
C575 C2 1.270 . S
C580 C29 1.278 . S
C591 C33 1.286 . S
C596 C60 1.288 . S
C607 C64 1.177 . S
C612 C91 1.186 . S
C623 C122 1.288 . S
C628 C95 1.285 . S
C639 C126 1.217 . S
C644 C153 1.229 . S
C655 C184 1.171 . S
C660 C157 1.167 . S
C671 C215 1.187 . S
C676 C188 1.198 . S
C687 C246 1.183 . S
C692 C219 1.187 . S
C703 C196 1.243 . S
C708 C30 1.243 . S
C719 C61 1.174 1_556 S
C724 C247 1.174 1_554 S
C735 C92 1.173 . S
C740 C154 1.173 . S
C751 C185 1.290 1_556 S
C756 C123 1.290 1_554 S
