# Generated by pormake.
# Topology afw, (4)-cn, num edge types: 1
# Building blocks:
#     Node 0, Type 0, BuildingBlock: GALJAG_clean_sbu_0, # of connection points: 4
#     Node 1, Type 0, BuildingBlock: GALJAG_clean_sbu_0, # of connection points: 4
#     Node 2, Type 0, BuildingBlock: GALJAG_clean_sbu_0, # of connection points: 4
#     Node 3, Type 0, BuildingBlock: GALJAG_clean_sbu_0, # of connection points: 4
#     Node 4, Type 0, BuildingBlock: GALJAG_clean_sbu_0, # of connection points: 4
#     Node 5, Type 0, BuildingBlock: GALJAG_clean_sbu_0, # of connection points: 4
#     Node 6, Type 0, BuildingBlock: GALJAG_clean_sbu_0, # of connection points: 4
#     Node 7, Type 0, BuildingBlock: GALJAG_clean_sbu_0, # of connection points: 4
#     Node 8, Type 0, BuildingBlock: GALJAG_clean_sbu_0, # of connection points: 4
#     Edge 9, Type (0, 0), BuildingBlock: XIVTED_clean_linker_0, # of connection points: 2
#     Edge 10, Type (0, 0), BuildingBlock: XIVTED_clean_linker_0, # of connection points: 2
#     Edge 11, Type (0, 0), BuildingBlock: XIVTED_clean_linker_0, # of connection points: 2
#     Edge 12, Type (0, 0), BuildingBlock: XIVTED_clean_linker_0, # of connection points: 2
#     Edge 13, Type (0, 0), BuildingBlock: XIVTED_clean_linker_0, # of connection points: 2
#     Edge 14, Type (0, 0), BuildingBlock: XIVTED_clean_linker_0, # of connection points: 2
#     Edge 15, Type (0, 0), BuildingBlock: XIVTED_clean_linker_0, # of connection points: 2
#     Edge 16, Type (0, 0), BuildingBlock: XIVTED_clean_linker_0, # of connection points: 2
#     Edge 17, Type (0, 0), BuildingBlock: XIVTED_clean_linker_0, # of connection points: 2
#     Edge 18, Type (0, 0), BuildingBlock: XIVTED_clean_linker_0, # of connection points: 2
#     Edge 19, Type (0, 0), BuildingBlock: XIVTED_clean_linker_0, # of connection points: 2
#     Edge 20, Type (0, 0), BuildingBlock: XIVTED_clean_linker_0, # of connection points: 2
#     Edge 21, Type (0, 0), BuildingBlock: XIVTED_clean_linker_0, # of connection points: 2
#     Edge 22, Type (0, 0), BuildingBlock: XIVTED_clean_linker_0, # of connection points: 2
#     Edge 23, Type (0, 0), BuildingBlock: XIVTED_clean_linker_0, # of connection points: 2
#     Edge 24, Type (0, 0), BuildingBlock: XIVTED_clean_linker_0, # of connection points: 2
#     Edge 25, Type (0, 0), BuildingBlock: XIVTED_clean_linker_0, # of connection points: 2
#     Edge 26, Type (0, 0), BuildingBlock: XIVTED_clean_linker_0, # of connection points: 2
# Relax obj value: 0.092
# Max RMSD: 0.157
# Mean RMSD: 0.157
data_MOF--net-afw--node1-GALJAG_clean_sbu_0--edge1-XIVTED_clean_linker_0
_symmetry_space_group_name_H-M    P1
_symmetry_Int_Tables_number       1
_symmetry_cell_setting            triclinic
loop_
_symmetry_equiv_pos_as_xyz
'x, y, z'
_cell_length_a     46.422368
_cell_length_b     46.132605
_cell_length_c     27.304527
_cell_angle_alpha  89.78168
_cell_angle_beta   90.183715
_cell_angle_gamma 119.72496
loop_
_atom_site_label
_atom_site_type_symbol
_atom_site_fract_x
_atom_site_fract_y
_atom_site_fract_z
_atom_type_partial_charge
In0 In 0.00356 0.21305 0.98382 0.0
O1 O -0.00353 0.22982 0.90835 0.0
O2 O 0.0301 0.26644 0.95879 0.0
C3 C 0.95837 0.14823 -0.00638 0.0
C4 C 0.97853 0.23637 0.05062 0.0
C5 C 0.05961 0.20998 0.97497 0.0
O6 O 0.96045 0.16428 0.95484 0.0
O7 O 0.9791 0.16487 0.02651 0.0
O8 O 0.05308 0.22082 0.01346 0.0
O9 O 0.03796 0.20088 0.94172 0.0
C10 C 0.01676 0.26028 0.91693 0.0
O11 O 0.00473 0.23503 0.05875 0.0
O12 O 0.96535 0.22597 0.00917 0.0
In13 In 0.83567 0.84134 0.01014 0.0
O14 O 0.80918 0.81861 0.93849 0.0
O15 O 0.7808 0.81982 -0.00065 0.0
C16 C 0.89961 0.85902 -0.00172 0.0
C17 C 0.81612 0.7898 0.07125 0.0
C18 C 0.84276 0.90262 0.01444 0.0
O19 O 0.8795 0.84912 0.96263 0.0
O20 O 0.88715 0.85921 0.03915 0.0
O21 O 0.83917 0.88568 0.05284 0.0
O22 O 0.84223 0.88836 0.97492 0.0
C23 C 0.78103 0.81158 0.95536 0.0
O24 O 0.81911 0.81735 0.08519 0.0
O25 O 0.82364 0.78881 0.02711 0.0
In26 In 0.20678 0.05394 0.96985 0.0
O27 O 0.22514 0.05565 0.04707 0.0
O28 O 0.26053 0.08566 -0.00749 0.0
C29 C 0.14298 0.00554 0.97375 0.0
C30 C 0.22949 0.02204 0.91429 0.0
C31 C 0.19952 0.10802 0.96173 0.0
O32 O 0.16176 0.01392 0.01082 0.0
O33 O 0.15634 0.02181 0.93527 0.0
O34 O 0.20671 0.09617 0.92499 0.0
O35 O 0.19674 0.09295 0.00153 0.0
C36 C 0.25507 0.07611 0.03668 0.0
O37 O 0.22741 0.04665 0.8977 0.0
O38 O 0.22041 0.01423 0.95812 0.0
In39 In 0.68063 0.53954 0.35207 0.0
O40 O 0.68662 0.56348 0.27694 0.0
O41 O 0.72324 0.58986 0.33198 0.0
C42 C 0.62396 0.48078 0.35038 0.0
C43 C 0.66294 0.57432 0.41031 0.0
C44 C 0.72301 0.51609 0.35927 0.0
O45 O 0.63634 0.49765 0.31175 0.0
O46 O 0.63981 0.49399 0.38915 0.0
O47 O 0.71596 0.52813 0.39588 0.0
O48 O 0.70912 0.51652 0.31973 0.0
C49 C 0.71317 0.58962 0.28891 0.0
O50 O 0.68333 0.56523 0.42421 0.0
O51 O 0.65137 0.56534 0.36766 0.0
In52 In 0.48095 0.17219 0.35756 0.0
O53 O 0.46439 0.15597 0.27898 0.0
O54 O 0.43068 0.15931 0.32893 0.0
C55 C 0.54095 0.17796 0.36965 0.0
C56 C 0.44612 0.11836 0.41346 0.0
C57 C 0.49646 0.23637 0.35637 0.0
O58 O 0.52517 0.16821 0.32966 0.0
O59 O 0.5265 0.18494 0.40277 0.0
O60 O 0.483 0.218 0.39345 0.0
O61 O 0.5022 0.22235 0.32117 0.0
C62 C 0.43592 0.15262 0.28616 0.0
O63 O 0.45323 0.14721 0.42811 0.0
O64 O 0.45686 0.11722 0.37153 0.0
In65 In 0.84082 0.3221 0.37284 0.0
O66 O 0.87589 0.32285 0.43269 0.0
O67 O 0.8909 0.36602 0.38795 0.0
C68 C 0.78049 0.26923 0.38881 0.0
C69 C 0.86602 0.30177 0.30199 0.0
C70 C 0.82385 0.36972 0.36939 0.0
O71 O 0.79939 0.28553 0.42398 0.0
O72 O 0.79265 0.27906 0.3468 0.0
O73 O 0.83149 0.35946 0.33135 0.0
O74 O 0.8248 0.35589 0.40891 0.0
C75 C 0.8985 0.35197 0.42117 0.0
O76 O 0.85558 0.32199 0.29355 0.0
O77 O 0.86263 0.29124 0.34551 0.0
In78 In 0.31817 0.8522 0.66176 0.0
O79 O 0.3194 0.87873 0.59058 0.0
O80 O 0.35417 0.90642 0.64701 0.0
C81 C 0.27189 0.78876 0.64234 0.0
C82 C 0.29114 0.8768 0.72349 0.0
C83 C 0.36988 0.84204 0.67551 0.0
O84 O 0.2875 0.80959 0.60878 0.0
O85 O 0.2786 0.80043 0.68514 0.0
O86 O 0.35278 0.84283 0.71086 0.0
O87 O 0.36132 0.84719 0.634 0.0
C88 C 0.34282 0.90657 0.605 0.0
O89 O 0.31489 0.87231 0.73612 0.0
O90 O 0.28007 0.86719 0.68079 0.0
In91 In 0.17456 0.4821 0.60589 0.0
O92 O 0.1486 0.44509 0.54337 0.0
O93 O 0.1392 0.4854 0.5525 0.0
C94 C 0.23406 0.48609 0.61827 0.0
C95 C 0.13213 0.43691 0.66959 0.0
C96 C 0.19033 0.54634 0.61037 0.0
O97 O 0.2223 0.48542 0.57622 0.0
O98 O 0.21549 0.48392 0.65322 0.0
O99 O 0.1731 0.52535 0.64299 0.0
O100 O 0.19993 0.53492 0.57596 0.0
C101 C 0.13238 0.45906 0.52984 0.0
O102 O 0.14529 0.46791 0.67734 0.0
O103 O 0.14096 0.42906 0.63056 0.0
In104 In 0.5254 0.6839 0.68975 0.0
O105 O 0.54775 0.6849 0.76471 0.0
O106 O 0.57402 0.72587 0.71535 0.0
C107 C 0.46926 0.62554 0.6783 0.0
C108 C 0.56301 0.67134 0.62975 0.0
C109 C 0.50153 0.72621 0.69068 0.0
O110 O 0.48267 0.63504 0.72002 0.0
O111 O 0.48412 0.64547 0.64357 0.0
O112 O 0.5174 0.72426 0.65441 0.0
O113 O 0.49785 0.70687 0.72588 0.0
C114 C 0.57358 0.71265 0.75611 0.0
O115 O 0.55203 0.69054 0.61709 0.0
O116 O 0.55464 0.65862 0.67195 0.0
H117 H 0.18247 0.13115 0.88021 0.0
H118 H 0.10573 0.21876 0.04489 0.0
H119 H 0.19574 0.14457 0.03655 0.0
H120 H 0.08017 0.19165 0.89338 0.0
H121 H 0.14955 0.20412 0.03785 0.0
H122 H 0.15628 0.16606 0.87987 0.0
C123 C 0.18059 0.14211 0.91422 0.0
C124 C 0.19069 0.13456 0.95858 0.0
C125 C 0.13463 0.2018 0.00597 0.0
C126 C 0.1606 0.17403 0.95864 0.0
C127 C 0.10966 0.21018 0.00999 0.0
C128 C 0.08897 0.20581 0.96993 0.0
C129 C 0.13882 0.18896 0.96159 0.0
C130 C 0.09527 0.19487 0.92542 0.0
C131 C 0.16548 0.16185 0.9141 0.0
C132 C 0.18774 0.14937 0.00165 0.0
N133 N 0.11938 0.18644 0.92259 0.0
N134 N 0.17257 0.16804 0.00072 0.0
H135 H 0.84072 0.93901 0.93744 0.0
H136 H 0.94621 0.11116 0.07668 0.0
H137 H 0.86286 0.94595 0.09195 0.0
H138 H 0.9164 0.1039 0.92531 0.0
H139 H 0.91059 0.05097 0.08539 0.0
H140 H 0.86231 -0.00089 0.93479 0.0
C141 C 0.84972 0.95319 0.97101 0.0
C142 C 0.85043 0.93765 0.01489 0.0
C143 C 0.91152 0.06252 0.05039 0.0
C144 C 0.87563 0.00652 0.01199 0.0
C145 C 0.93193 0.09688 0.04533 0.0
C146 C 0.93455 0.11241 -1e-05 0.0
C147 C 0.89382 0.04347 0.00968 0.0
C148 C 0.91528 0.09282 0.96079 0.0
C149 C 0.86207 0.98752 0.96947 0.0
C150 C 0.86204 0.95706 0.05735 0.0
N151 N 0.89598 0.05926 0.96638 0.0
N152 N 0.87469 0.99065 0.0547 0.0
H153 H 0.94468 0.87178 0.0705 0.0
H154 H 0.09905 0.98204 0.89772 0.0
H155 H 0.93632 0.87813 0.91388 0.0
H156 H 0.10729 0.9689 0.05273 0.0
H157 H 0.0402 0.94026 0.90135 0.0
H158 H 0.00489 0.90264 0.06314 0.0
C159 C 0.95559 0.87932 0.03442 0.0
C160 C 0.93558 0.87274 -0.00725 0.0
C161 C 0.05491 0.94629 0.9345 0.0
C162 C 0.0045 0.90853 0.9841 0.0
C163 C 0.08847 0.97021 0.9325 0.0
C164 C 0.10792 0.97913 0.97513 0.0
C165 C 0.04069 0.93135 0.97953 0.0
C166 C 0.09309 0.9629 0.01909 0.0
C167 C -0.01002 0.89698 0.03024 0.0
C168 C 0.95093 0.88282 0.9469 0.0
N169 N 0.06026 0.93996 0.02023 0.0
N170 N 0.98457 0.90067 0.94384 0.0
H171 H 0.81734 0.40142 0.28898 0.0
H172 H 0.74695 0.50082 0.44152 0.0
H173 H 0.80771 0.39651 0.4464 0.0
H174 H 0.74607 0.49519 0.28374 0.0
H175 H 0.77622 0.46886 0.44478 0.0
H176 H 0.79789 0.44186 0.28707 0.0
C177 C 0.81129 0.409 0.32315 0.0
C178 C 0.81384 0.39543 0.36786 0.0
C179 C 0.76985 0.4749 0.40946 0.0
C180 C 0.79159 0.44162 0.36603 0.0
C181 C 0.75329 0.49322 0.40761 0.0
C182 C 0.74387 0.50036 0.36233 0.0
C183 C 0.77704 0.46382 0.36569 0.0
C184 C 0.75264 0.48996 0.31946 0.0
C185 C 0.80019 0.43207 0.32208 0.0
C186 C 0.80585 0.40622 0.41109 0.0
N187 N 0.76855 0.47205 0.32221 0.0
N188 N 0.79491 0.42858 0.4091 0.0
H189 H 0.51374 0.27581 0.27546 0.0
H190 H 0.59011 0.44304 0.42923 0.0
H191 H 0.50142 0.27786 0.43173 0.0
H192 H 0.59386 0.4403 0.27154 0.0
H193 H 0.55066 0.38325 0.43001 0.0
H194 H 0.53621 0.33598 0.2723 0.0
C195 C 0.51552 0.28896 0.30913 0.0
C196 C 0.50623 0.27199 0.35408 0.0
C197 C 0.55966 0.39576 0.39516 0.0
C198 C 0.53221 0.341 0.3508 0.0
C199 C 0.58217 0.42991 0.39467 0.0
C200 C 0.59563 0.44647 0.35026 0.0
C201 C 0.55086 0.37799 0.35094 0.0
C202 C 0.58428 0.4284 0.30659 0.0
C203 C 0.52826 0.32333 0.30727 0.0
C204 C 0.50859 0.29011 0.39641 0.0
N205 N 0.56293 0.39497 0.30807 0.0
N206 N 0.52185 0.3238 0.39386 0.0
H207 H 0.57824 0.1655 0.30463 0.0
H208 H 0.74103 0.25767 0.46932 0.0
H209 H 0.57949 0.20013 0.45165 0.0
H210 H 0.73945 0.22514 0.32093 0.0
H211 H 0.68026 0.2266 0.46991 0.0
H212 H 0.63552 0.17786 0.31559 0.0
C213 C 0.5905 0.17544 0.33934 0.0
C214 C 0.57435 0.18231 0.37698 0.0
C215 C 0.69323 0.22573 0.43755 0.0
C216 C 0.63981 0.1966 0.38984 0.0
C217 C 0.7279 0.24325 0.43738 0.0
C218 C 0.74514 0.24437 0.39474 0.0
C219 C 0.67593 0.2094 0.39474 0.0
C220 C 0.72701 0.22532 0.35431 0.0
C221 C 0.62316 0.18243 0.34567 0.0
C222 C 0.59122 0.19485 0.42143 0.0
N223 N 0.69339 0.20903 0.35503 0.0
N224 N 0.62317 0.20197 0.42644 0.0
H225 H 0.41236 0.8435 0.60573 0.0
H226 H 0.46955 0.73637 0.76646 0.0
H227 H 0.38549 0.81819 0.7574 0.0
H228 H 0.50108 0.76669 0.61741 0.0
H229 H 0.4427 0.77037 0.76618 0.0
H230 H 0.44938 0.82029 0.61179 0.0
C231 C 0.41459 0.83341 0.64053 0.0
C232 C 0.39564 0.83246 0.68104 0.0
C233 C 0.4557 0.76984 0.73364 0.0
C234 C 0.43766 0.80549 0.68808 0.0
C235 C 0.47099 0.75038 0.73373 0.0
C236 C 0.48729 0.74851 0.69171 0.0
C237 C 0.45654 0.78741 0.69109 0.0
C238 C 0.48859 0.76731 0.65048 0.0
C239 C 0.4357 0.82012 0.64394 0.0
C240 C 0.39959 0.81929 0.72526 0.0
N241 N 0.47315 0.78578 0.65106 0.0
N242 N 0.41991 0.80595 0.72746 0.0
H243 H 0.23224 0.74042 0.70729 0.0
H244 H 0.2222 0.59446 0.54082 0.0
H245 H 0.26618 0.75494 0.55756 0.0
H246 H 0.17569 0.57781 0.68261 0.0
H247 H 0.2358 0.65281 0.54438 0.0
H248 H 0.20745 0.68021 0.69666 0.0
C249 C 0.23396 0.73086 0.67188 0.0
C250 C 0.25152 0.75264 0.63336 0.0
C251 C 0.22241 0.63636 0.57458 0.0
C252 C 0.2238 0.68386 0.6212 0.0
C253 C 0.2148 0.6031 0.57268 0.0
C254 C 0.19807 0.58141 0.6117 0.0
C255 C 0.21344 0.64805 0.61598 0.0
C256 C 0.18882 0.59379 0.65188 0.0
C257 C 0.21989 0.69649 0.66587 0.0
C258 C 0.25292 0.73898 0.58824 0.0
N259 N 0.19685 0.62638 0.65315 0.0
N260 N 0.23966 0.70544 0.5836 0.0
H261 H 0.26338 0.48741 0.70549 0.0
H262 H 0.4428 0.59581 0.5913 0.0
H263 H 0.28328 0.50306 0.55053 0.0
H264 H 0.42302 0.58579 0.74654 0.0
H265 H 0.38631 0.55115 0.57615 0.0
H266 H 0.32273 0.51197 0.72101 0.0
C267 C 0.28022 0.49543 0.67462 0.0
C268 C 0.26853 0.49386 0.62669 0.0
C269 C 0.39438 0.55831 0.6136 0.0
C270 C 0.33644 0.52231 0.64427 0.0
C271 C 0.42663 0.58385 0.6223 0.0
C272 C 0.43729 0.59491 0.67021 0.0
C273 C 0.37246 0.544 0.65308 0.0
C274 C 0.41559 0.57821 0.70902 0.0
C275 C 0.31411 0.5095 0.68355 0.0
C276 C 0.29133 0.50421 0.58808 0.0
N277 N 0.38392 0.55392 0.69955 0.0
N278 N 0.3243 0.51854 0.59778 0.0
H279 H 0.04924 0.32717 0.93271 0.0
H280 H 0.09353 0.37038 0.65296 0.0
H281 H 0.00589 0.2537 0.81801 0.0
H282 H 0.1177 0.44563 0.76357 0.0
H283 H 0.05844 0.32753 0.7119 0.0
H284 H 0.0713 0.37122 0.87095 0.0
C285 C 0.04408 0.32038 0.89444 0.0
C286 C 0.02614 0.28682 0.88023 0.0
C287 C 0.07109 0.35343 0.72318 0.0
C288 C 0.05157 0.33699 0.80944 0.0
C289 C 0.09125 0.37787 0.68965 0.0
C290 C 0.10884 0.41147 0.70378 0.0
C291 C 0.06889 0.36265 0.77134 0.0
C292 C 0.10473 0.41992 0.75144 0.0
C293 C 0.0566 0.34553 0.85922 0.0
C294 C 0.01981 0.27932 0.83035 0.0
N295 N 0.08547 0.39557 0.7838 0.0
N296 N 0.03298 0.30425 0.79658 0.0
H297 H 0.77538 0.80643 0.85584 0.0
H298 H 0.57856 0.69573 0.8511 0.0
H299 H 0.71742 0.78002 -0.01146 0.0
H300 H 0.63534 0.76228 0.73348 0.0
H301 H 0.62942 0.71882 0.90088 0.0
H302 H 0.7239 0.7816 0.80803 0.0
C303 C 0.75181 0.79521 0.87482 0.0
C304 C 0.75049 0.79538 0.92602 0.0
C305 C 0.63051 0.72836 0.86422 0.0
C306 C 0.69189 0.76692 0.87198 0.0
C307 C 0.60163 0.71527 0.83595 0.0
C308 C 0.60283 0.72725 0.78833 0.0
C309 C 0.66065 0.75298 0.8441 0.0
C310 C 0.6333 0.75248 0.77018 0.0
C311 C 0.72254 0.78124 0.84764 0.0
C312 C 0.71939 0.78057 0.94901 0.0
N313 N 0.66107 0.76432 0.79795 0.0
N314 N 0.6912 0.76679 0.92178 0.0
H315 H 0.30505 0.89412 0.81982 0.0
H316 H 0.23319 0.01934 0.81431 0.0
H317 H 0.25299 0.90353 0.69495 0.0
H318 H 0.25029 0.98025 0.94833 0.0
H319 H 0.24751 0.9828 0.76766 0.0
H320 H 0.29107 0.93076 0.86628 0.0
C321 C 0.29041 0.90364 0.8024 0.0
C322 C 0.28001 0.89573 0.75366 0.0
C323 C 0.24815 0.98236 0.80729 0.0
C324 C 0.26463 0.93806 0.80595 0.0
C325 C 0.24026 0.00332 0.83379 0.0
C326 C 0.24049 0.00263 0.88508 0.0
C327 C 0.25675 0.96108 0.83245 0.0
C328 C 0.24964 0.98135 0.90875 0.0
C329 C 0.28253 0.92458 0.8288 0.0
C330 C 0.26127 0.90886 0.73263 0.0
N331 N 0.25748 0.96146 0.88224 0.0
N332 N 0.2544 0.92965 0.75879 0.0
H333 H 0.4424 0.14643 0.1875 0.0
H334 H 0.24863 0.06725 0.13549 0.0
H335 H 0.37085 0.13315 0.29855 0.0
H336 H 0.322 0.11059 0.02104 0.0
H337 H 0.29315 0.08567 0.1959 0.0
H338 H 0.39836 0.12777 0.12548 0.0
C339 C 0.41745 0.13954 0.19876 0.0
C340 C 0.41017 0.14134 0.24806 0.0
C341 C 0.29952 0.09123 0.15758 0.0
C342 C 0.36001 0.11994 0.1779 0.0
C343 C 0.27414 0.08067 0.12313 0.0
C344 C 0.28173 0.08753 0.07334 0.0
C345 C 0.33269 0.10843 0.14203 0.0
C346 C 0.31517 0.10498 0.0592 0.0
C347 C 0.39244 0.12904 0.16346 0.0
C348 C 0.37753 0.13222 0.26087 0.0
N349 N 0.33951 0.11475 0.09343 0.0
N350 N 0.35362 0.12179 0.22602 0.0
H351 H 0.93108 0.25351 0.03467 0.0
H352 H 0.90153 0.27016 0.3168 0.0
H353 H -0.0081 0.24634 0.14866 0.0
H354 H 0.86875 0.31243 0.20304 0.0
H355 H 0.93066 0.25608 0.25535 0.0
H356 H 0.90418 0.27067 0.09569 0.0
C357 C 0.93883 0.25568 0.07259 0.0
C358 C 0.96363 0.24844 0.08685 0.0
C359 C 0.91716 0.2685 0.24387 0.0
C360 C 0.93282 0.26768 0.15662 0.0
C361 C 0.90034 0.27632 0.27879 0.0
C362 C 0.88265 0.29236 0.26478 0.0
C363 C 0.91588 0.27638 0.19457 0.0
C364 C 0.88211 0.30003 0.21522 0.0
C365 C 0.92355 0.26555 0.10728 0.0
C366 C 0.97289 0.25175 0.13627 0.0
N367 N 0.89838 0.29178 0.18171 0.0
N368 N 0.95722 0.26088 0.16959 0.0
H369 H 0.76055 0.65233 0.31416 0.0
H370 H 0.79249 0.72538 0.04343 0.0
H371 H 0.70477 0.59311 0.19015 0.0
H372 H 0.8099 0.78696 0.17097 0.0
H373 H 0.76859 0.67589 0.09608 0.0
H374 H 0.78737 0.70136 0.26099 0.0
C375 C 0.75413 0.64962 0.27563 0.0
C376 C 0.73039 0.61871 0.25639 0.0
C377 C 0.77771 0.70025 0.11245 0.0
C378 C 0.76104 0.67453 0.19563 0.0
C379 C 0.79149 0.72847 0.08259 0.0
C380 C 0.80309 0.76021 0.10305 0.0
C381 C 0.77607 0.70393 0.16312 0.0
C382 C 0.80109 0.76288 0.15386 0.0
C383 C 0.76931 0.67761 0.24547 0.0
C384 C 0.72287 0.61657 0.20633 0.0
N385 N 0.78791 0.73502 0.1823 0.0
N386 N 0.73828 0.64418 0.1775 0.0
H387 H 0.1044 0.48835 0.47669 0.0
H388 H 0.92827 0.32176 0.47035 0.0
H389 H 0.09117 0.39215 0.51776 0.0
H390 H 0.94714 0.41622 0.41018 0.0
H391 H 0.98773 0.34648 0.48825 0.0
H392 H 0.04726 0.46128 0.4476 0.0
C393 C 0.08963 0.46138 0.47827 0.0
C394 C 0.10234 0.44241 0.49959 0.0
C395 C 0.97876 0.36174 0.47121 0.0
C396 C 0.03659 0.4113 0.46829 0.0
C397 C 0.94485 0.34779 0.46164 0.0
C398 C 0.93286 0.36707 0.43905 0.0
C399 C 0.00058 0.39515 0.45823 0.0
C400 C 0.95535 0.4005 0.42776 0.0
C401 C 0.05691 0.44592 0.46216 0.0
C402 C 0.08224 0.40758 0.50116 0.0
N403 N 0.98808 0.41344 0.43745 0.0
N404 N 0.05004 0.39311 0.48653 0.0
H405 H 0.627 0.60378 0.38339 0.0
H406 H 0.59996 0.64313 0.6562 0.0
H407 H 0.67599 0.58889 0.50762 0.0
H408 H 0.5718 0.68056 0.53059 0.0
H409 H 0.62916 0.62437 0.60227 0.0
H410 H 0.60748 0.63303 0.4362 0.0
C411 C 0.63377 0.60682 0.42181 0.0
C412 C 0.65283 0.59364 0.44141 0.0
C413 C 0.61691 0.63699 0.58646 0.0
C414 C 0.63053 0.62694 0.50192 0.0
C415 C 0.60015 0.64759 0.61719 0.0
C416 C 0.58321 0.66307 0.59761 0.0
C417 C 0.61631 0.64146 0.5357 0.0
C418 C 0.58449 0.66859 0.54699 0.0
C419 C 0.62275 0.62365 0.45184 0.0
C420 C 0.66116 0.59853 0.4912 0.0
N421 N 0.60043 0.65737 0.51758 0.0
N422 N 0.64965 0.61452 0.51993 0.0
H423 H 0.3313 0.91324 0.5084 0.0
H424 H 0.43419 0.11282 0.51229 0.0
H425 H 0.3823 0.97014 0.63675 0.0
H426 H 0.41492 0.0546 0.38054 0.0
H427 H 0.40586 0.06078 0.55986 0.0
H428 H 0.35304 0.96547 0.46184 0.0
C429 C 0.34701 0.93672 0.52671 0.0
C430 C 0.35534 0.93748 0.57622 0.0
C431 C 0.40774 0.05953 0.52048 0.0
C432 C 0.37977 -0.00302 0.52375 0.0
C433 C 0.42372 0.08911 0.49343 0.0
C434 C 0.42709 0.08785 0.44265 0.0
C435 C 0.39475 0.02871 0.49628 0.0
C436 C 0.41313 0.05658 0.41979 0.0
C437 C 0.35938 0.96643 0.50024 0.0
C438 C 0.37561 0.9685 0.59843 0.0
N439 N 0.39757 0.02821 0.44678 0.0
N440 N 0.38714 -0.00292 0.57202 0.0
loop_
_geom_bond_atom_site_label_1
_geom_bond_atom_site_label_2
_geom_bond_distance
_geom_bond_site_symmetry_2
_ccdc_geom_bond_type
In0 O1 2.294 1_554 S
In0 O2 2.326 1_554 S
In0 O6 2.266 1_454 S
In0 O7 2.326 1_455 S
In0 O8 2.266 . S
In0 O9 2.326 1_554 S
In0 O11 2.294 . S
In0 O12 2.326 1_455 S
O1 In0 2.294 1_556 S
O1 C10 1.240 . S
O2 In0 2.326 1_556 S
O2 C10 1.252 . S
C3 O6 1.252 1_554 S
C3 O7 1.260 . S
C4 O11 1.240 1_655 S
C4 O12 1.252 . S
C5 O8 1.252 . S
C5 O9 1.260 1_554 S
O6 In0 2.266 1_656 S
O6 C3 1.252 1_556 S
O7 In0 2.326 1_655 S
O7 C3 1.260 . S
O8 In0 2.266 . S
O8 C5 1.252 . S
O9 In0 2.326 1_556 S
O9 C5 1.260 1_556 S
C10 O1 1.240 . S
C10 O2 1.252 . S
O11 In0 2.294 . S
O11 C4 1.240 1_455 S
O12 In0 2.326 1_655 S
O12 C4 1.252 . S
In13 O14 2.294 1_554 S
In13 O15 2.326 1_554 S
In13 O19 2.266 1_554 S
In13 O20 2.326 . S
In13 O21 2.266 . S
In13 O22 2.326 1_554 S
In13 O24 2.294 . S
In13 O25 2.326 . S
O14 In13 2.294 1_556 S
O14 C23 1.240 . S
O15 In13 2.326 1_556 S
O15 C23 1.252 . S
C16 O19 1.252 1_554 S
C16 O20 1.260 . S
C17 O24 1.240 . S
C17 O25 1.252 . S
C18 O21 1.252 . S
C18 O22 1.260 1_554 S
O19 In13 2.266 1_556 S
O19 C16 1.252 1_556 S
O20 In13 2.326 . S
O20 C16 1.260 . S
O21 In13 2.266 . S
O21 C18 1.252 . S
O22 In13 2.326 1_556 S
O22 C18 1.260 1_556 S
C23 O14 1.240 . S
C23 O15 1.252 . S
O24 In13 2.294 . S
O24 C17 1.240 . S
O25 In13 2.326 . S
O25 C17 1.252 . S
In26 O27 2.294 . S
In26 O28 2.326 . S
In26 O32 2.266 1_545 S
In26 O33 2.326 1_544 S
In26 O34 2.266 1_554 S
In26 O35 2.326 . S
In26 O37 2.294 1_554 S
In26 O38 2.326 1_544 S
O27 In26 2.294 . S
O27 C36 1.240 . S
O28 In26 2.326 . S
O28 C36 1.252 . S
C29 O32 1.252 . S
C29 O33 1.260 1_554 S
C30 O37 1.244 . S
C30 O38 1.251 1_545 S
C31 O34 1.252 1_554 S
C31 O35 1.260 . S
O32 In26 2.266 1_565 S
O32 C29 1.252 . S
O33 In26 2.326 1_566 S
O33 C29 1.260 1_556 S
O34 In26 2.266 1_556 S
O34 C31 1.252 1_556 S
O35 In26 2.326 . S
O35 C31 1.260 . S
C36 O27 1.240 . S
C36 O28 1.252 . S
O37 In26 2.294 1_556 S
O37 C30 1.244 . S
O38 In26 2.326 1_566 S
O38 C30 1.251 1_565 S
In39 O40 2.294 . S
In39 O41 2.326 . S
In39 O45 2.266 . S
In39 O46 2.326 . S
In39 O47 2.266 . S
In39 O48 2.326 . S
In39 O50 2.294 . S
In39 O51 2.326 . S
O40 In39 2.294 . S
O40 C49 1.240 . S
O41 In39 2.326 . S
O41 C49 1.252 . S
C42 O45 1.252 . S
C42 O46 1.260 . S
C43 O50 1.240 . S
C43 O51 1.252 . S
C44 O47 1.252 . S
C44 O48 1.260 . S
O45 In39 2.266 . S
O45 C42 1.252 . S
O46 In39 2.326 . S
O46 C42 1.260 . S
O47 In39 2.266 . S
O47 C44 1.252 . S
O48 In39 2.326 . S
O48 C44 1.260 . S
C49 O40 1.240 . S
C49 O41 1.252 . S
O50 In39 2.294 . S
O50 C43 1.240 . S
O51 In39 2.326 . S
O51 C43 1.252 . S
In52 O53 2.294 . S
In52 O54 2.326 . S
In52 O58 2.266 . S
In52 O59 2.326 . S
In52 O60 2.266 . S
In52 O61 2.326 . S
In52 O63 2.294 . S
In52 O64 2.326 . S
O53 In52 2.294 . S
O53 C62 1.240 . S
O54 In52 2.326 . S
O54 C62 1.252 . S
C55 O58 1.252 . S
C55 O59 1.260 . S
C56 O63 1.240 . S
C56 O64 1.252 . S
C57 O60 1.252 . S
C57 O61 1.260 . S
O58 In52 2.266 . S
O58 C55 1.252 . S
O59 In52 2.326 . S
O59 C55 1.260 . S
O60 In52 2.266 . S
O60 C57 1.252 . S
O61 In52 2.326 . S
O61 C57 1.260 . S
C62 O53 1.240 . S
C62 O54 1.252 . S
O63 In52 2.294 . S
O63 C56 1.240 . S
O64 In52 2.326 . S
O64 C56 1.252 . S
In65 O66 2.294 . S
In65 O67 2.326 . S
In65 O71 2.266 . S
In65 O72 2.326 . S
In65 O73 2.266 . S
In65 O74 2.326 . S
In65 O76 2.294 . S
In65 O77 2.326 . S
O66 In65 2.294 . S
O66 C75 1.240 . S
O67 In65 2.326 . S
O67 C75 1.252 . S
C68 O71 1.252 . S
C68 O72 1.260 . S
C69 O76 1.240 . S
C69 O77 1.252 . S
C70 O73 1.252 . S
C70 O74 1.260 . S
O71 In65 2.266 . S
O71 C68 1.252 . S
O72 In65 2.326 . S
O72 C68 1.260 . S
O73 In65 2.266 . S
O73 C70 1.252 . S
O74 In65 2.326 . S
O74 C70 1.260 . S
C75 O66 1.240 . S
C75 O67 1.252 . S
O76 In65 2.294 . S
O76 C69 1.240 . S
O77 In65 2.326 . S
O77 C69 1.252 . S
In78 O79 2.294 . S
In78 O80 2.326 . S
In78 O84 2.266 . S
In78 O85 2.326 . S
In78 O86 2.266 . S
In78 O87 2.326 . S
In78 O89 2.294 . S
In78 O90 2.326 . S
O79 In78 2.294 . S
O79 C88 1.240 . S
O80 In78 2.326 . S
O80 C88 1.252 . S
C81 O84 1.252 . S
C81 O85 1.260 . S
C82 O89 1.240 . S
C82 O90 1.252 . S
C83 O86 1.252 . S
C83 O87 1.260 . S
O84 In78 2.266 . S
O84 C81 1.252 . S
O85 In78 2.326 . S
O85 C81 1.260 . S
O86 In78 2.266 . S
O86 C83 1.252 . S
O87 In78 2.326 . S
O87 C83 1.260 . S
C88 O79 1.240 . S
C88 O80 1.252 . S
O89 In78 2.294 . S
O89 C82 1.240 . S
O90 In78 2.326 . S
O90 C82 1.252 . S
In91 O92 2.294 . S
In91 O93 2.326 . S
In91 O97 2.266 . S
In91 O98 2.326 . S
In91 O99 2.266 . S
In91 O100 2.326 . S
In91 O102 2.294 . S
In91 O103 2.326 . S
O92 In91 2.294 . S
O92 C101 1.240 . S
O93 In91 2.326 . S
O93 C101 1.252 . S
C94 O97 1.252 . S
C94 O98 1.260 . S
C95 O102 1.240 . S
C95 O103 1.252 . S
C96 O99 1.252 . S
C96 O100 1.260 . S
O97 In91 2.266 . S
O97 C94 1.252 . S
O98 In91 2.326 . S
O98 C94 1.260 . S
O99 In91 2.266 . S
O99 C96 1.252 . S
O100 In91 2.326 . S
O100 C96 1.260 . S
C101 O92 1.240 . S
C101 O93 1.252 . S
O102 In91 2.294 . S
O102 C95 1.240 . S
O103 In91 2.326 . S
O103 C95 1.252 . S
In104 O105 2.294 . S
In104 O106 2.326 . S
In104 O110 2.266 . S
In104 O111 2.326 . S
In104 O112 2.266 . S
In104 O113 2.326 . S
In104 O115 2.294 . S
In104 O116 2.326 . S
O105 In104 2.294 . S
O105 C114 1.240 . S
O106 In104 2.326 . S
O106 C114 1.252 . S
C107 O110 1.252 . S
C107 O111 1.260 . S
C108 O115 1.240 . S
C108 O116 1.252 . S
C109 O112 1.252 . S
C109 O113 1.260 . S
O110 In104 2.266 . S
O110 C107 1.252 . S
O111 In104 2.326 . S
O111 C107 1.260 . S
O112 In104 2.266 . S
O112 C109 1.252 . S
O113 In104 2.326 . S
O113 C109 1.260 . S
C114 O105 1.240 . S
C114 O106 1.252 . S
O115 In104 2.294 . S
O115 C108 1.240 . S
O116 In104 2.326 . S
O116 C108 1.252 . S
H117 C123 0.930 . S
H118 C127 0.930 . S
H119 C132 0.929 . S
H120 C130 0.929 . S
H121 C125 0.929 . S
H122 C131 0.929 . S
C123 H117 0.930 . S
C123 C124 1.367 1_556 S
C123 C131 1.378 . S
C124 C123 1.367 1_554 S
C124 C132 1.433 . S
C125 H121 0.929 . S
C125 C127 1.378 . S
C125 C129 1.350 . S
C126 C129 1.463 . S
C126 C131 1.350 1_554 S
C126 N134 1.427 . S
C127 H118 0.930 . S
C127 C125 1.378 . S
C127 C128 1.367 . S
C128 C127 1.367 . S
C128 C130 1.433 1_554 S
C129 C125 1.350 . S
C129 C126 1.463 . S
C129 N133 1.427 1_554 S
C130 H120 0.929 . S
C130 C128 1.433 1_556 S
C130 N133 1.384 . S
C131 H122 0.929 . S
C131 C123 1.378 . S
C131 C126 1.350 1_556 S
C132 H119 0.929 . S
C132 C124 1.433 . S
C132 N134 1.384 . S
N133 C129 1.427 1_556 S
N133 C130 1.384 . S
N134 C126 1.427 . S
N134 C132 1.384 . S
H135 C141 0.930 . S
H136 C145 0.930 . S
H137 C150 0.929 . S
H138 C148 0.929 . S
H139 C143 0.929 . S
H140 C149 0.929 . S
C141 H135 0.930 . S
C141 C142 1.367 1_556 S
C141 C149 1.378 . S
C142 C141 1.367 1_554 S
C142 C150 1.433 . S
C143 H139 0.929 . S
C143 C145 1.378 . S
C143 C147 1.350 . S
C144 C147 1.463 . S
C144 C149 1.350 1_544 S
C144 N152 1.427 1_545 S
C145 H136 0.930 . S
C145 C143 1.378 . S
C145 C146 1.367 . S
C146 C145 1.367 . S
C146 C148 1.433 1_554 S
C147 C143 1.350 . S
C147 C144 1.463 . S
C147 N151 1.427 1_554 S
C148 H138 0.929 . S
C148 C146 1.433 1_556 S
C148 N151 1.384 . S
C149 H140 0.929 . S
C149 C141 1.378 . S
C149 C144 1.350 1_566 S
C150 H137 0.929 . S
C150 C142 1.433 . S
C150 N152 1.384 . S
N151 C147 1.427 1_556 S
N151 C148 1.384 . S
N152 C144 1.427 1_565 S
N152 C150 1.384 . S
H153 C159 0.930 . S
H154 C163 0.930 . S
H155 C168 0.929 . S
H156 C166 0.929 . S
H157 C161 0.929 . S
H158 C167 0.929 . S
C159 H153 0.930 . S
C159 C160 1.367 . S
C159 C167 1.378 . S
C160 C159 1.367 . S
C160 C168 1.433 1_554 S
C161 H157 0.929 . S
C161 C163 1.378 . S
C161 C165 1.350 1_556 S
C162 C165 1.463 1_655 S
C162 C167 1.350 . S
C162 N170 1.427 1_554 S
C163 H154 0.930 . S
C163 C161 1.378 . S
C163 C164 1.367 1_556 S
C164 C163 1.367 1_554 S
C164 C166 1.433 . S
C165 C161 1.350 1_554 S
C165 C162 1.463 1_455 S
C165 N169 1.427 . S
C166 H156 0.929 . S
C166 C164 1.433 . S
C166 N169 1.384 . S
C167 H158 0.929 . S
C167 C159 1.378 . S
C167 C162 1.350 . S
C168 H155 0.929 . S
C168 C160 1.433 1_556 S
C168 N170 1.384 . S
N169 C165 1.427 . S
N169 C166 1.384 . S
N170 C162 1.427 1_556 S
N170 C168 1.384 . S
H171 C177 0.930 . S
H172 C181 0.930 . S
H173 C186 0.929 . S
H174 C184 0.929 . S
H175 C179 0.929 . S
H176 C185 0.929 . S
C177 H171 0.930 . S
C177 C178 1.367 . S
C177 C185 1.378 . S
C178 C177 1.367 . S
C178 C186 1.433 . S
C179 H175 0.929 . S
C179 C181 1.378 . S
C179 C183 1.350 . S
C180 C183 1.463 . S
C180 C185 1.350 . S
C180 N188 1.427 . S
C181 H172 0.930 . S
C181 C179 1.378 . S
C181 C182 1.367 . S
C182 C181 1.367 . S
C182 C184 1.433 . S
C183 C179 1.350 . S
C183 C180 1.463 . S
C183 N187 1.427 . S
C184 H174 0.929 . S
C184 C182 1.433 . S
C184 N187 1.384 . S
C185 H176 0.929 . S
C185 C177 1.378 . S
C185 C180 1.350 . S
C186 H173 0.929 . S
C186 C178 1.433 . S
C186 N188 1.384 . S
N187 C183 1.427 . S
N187 C184 1.384 . S
N188 C180 1.427 . S
N188 C186 1.384 . S
H189 C195 0.930 . S
H190 C199 0.930 . S
H191 C204 0.929 . S
H192 C202 0.929 . S
H193 C197 0.929 . S
H194 C203 0.929 . S
C195 H189 0.930 . S
C195 C196 1.367 . S
C195 C203 1.378 . S
C196 C195 1.367 . S
C196 C204 1.433 . S
C197 H193 0.929 . S
C197 C199 1.378 . S
C197 C201 1.350 . S
C198 C201 1.463 . S
C198 C203 1.350 . S
C198 N206 1.427 . S
C199 H190 0.930 . S
C199 C197 1.378 . S
C199 C200 1.367 . S
C200 C199 1.367 . S
C200 C202 1.433 . S
C201 C197 1.350 . S
C201 C198 1.463 . S
C201 N205 1.427 . S
C202 H192 0.929 . S
C202 C200 1.433 . S
C202 N205 1.384 . S
C203 H194 0.929 . S
C203 C195 1.378 . S
C203 C198 1.350 . S
C204 H191 0.929 . S
C204 C196 1.433 . S
C204 N206 1.384 . S
N205 C201 1.427 . S
N205 C202 1.384 . S
N206 C198 1.427 . S
N206 C204 1.384 . S
H207 C213 0.930 . S
H208 C217 0.930 . S
H209 C222 0.929 . S
H210 C220 0.929 . S
H211 C215 0.929 . S
H212 C221 0.929 . S
C213 H207 0.930 . S
C213 C214 1.367 . S
C213 C221 1.378 . S
C214 C213 1.367 . S
C214 C222 1.433 . S
C215 H211 0.929 . S
C215 C217 1.378 . S
C215 C219 1.350 . S
C216 C219 1.463 . S
C216 C221 1.350 . S
C216 N224 1.427 . S
C217 H208 0.930 . S
C217 C215 1.378 . S
C217 C218 1.367 . S
C218 C217 1.367 . S
C218 C220 1.433 . S
C219 C215 1.350 . S
C219 C216 1.463 . S
C219 N223 1.427 . S
C220 H210 0.929 . S
C220 C218 1.433 . S
C220 N223 1.384 . S
C221 H212 0.929 . S
C221 C213 1.378 . S
C221 C216 1.350 . S
C222 H209 0.929 . S
C222 C214 1.433 . S
C222 N224 1.384 . S
N223 C219 1.427 . S
N223 C220 1.384 . S
N224 C216 1.427 . S
N224 C222 1.384 . S
H225 C231 0.930 . S
H226 C235 0.930 . S
H227 C240 0.929 . S
H228 C238 0.929 . S
H229 C233 0.929 . S
H230 C239 0.929 . S
C231 H225 0.930 . S
C231 C232 1.367 . S
C231 C239 1.378 . S
C232 C231 1.367 . S
C232 C240 1.433 . S
C233 H229 0.929 . S
C233 C235 1.378 . S
C233 C237 1.350 . S
C234 C237 1.463 . S
C234 C239 1.350 . S
C234 N242 1.427 . S
C235 H226 0.930 . S
C235 C233 1.378 . S
C235 C236 1.367 . S
C236 C235 1.367 . S
C236 C238 1.433 . S
C237 C233 1.350 . S
C237 C234 1.463 . S
C237 N241 1.427 . S
C238 H228 0.929 . S
C238 C236 1.433 . S
C238 N241 1.384 . S
C239 H230 0.929 . S
C239 C231 1.378 . S
C239 C234 1.350 . S
C240 H227 0.929 . S
C240 C232 1.433 . S
C240 N242 1.384 . S
N241 C237 1.427 . S
N241 C238 1.384 . S
N242 C234 1.427 . S
N242 C240 1.384 . S
H243 C249 0.930 . S
H244 C253 0.930 . S
H245 C258 0.929 . S
H246 C256 0.929 . S
H247 C251 0.929 . S
H248 C257 0.929 . S
C249 H243 0.930 . S
C249 C250 1.367 . S
C249 C257 1.378 . S
C250 C249 1.367 . S
C250 C258 1.433 . S
C251 H247 0.929 . S
C251 C253 1.378 . S
C251 C255 1.350 . S
C252 C255 1.463 . S
C252 C257 1.350 . S
C252 N260 1.427 . S
C253 H244 0.930 . S
C253 C251 1.378 . S
C253 C254 1.367 . S
C254 C253 1.367 . S
C254 C256 1.433 . S
C255 C251 1.350 . S
C255 C252 1.463 . S
C255 N259 1.427 . S
C256 H246 0.929 . S
C256 C254 1.433 . S
C256 N259 1.384 . S
C257 H248 0.929 . S
C257 C249 1.378 . S
C257 C252 1.350 . S
C258 H245 0.929 . S
C258 C250 1.433 . S
C258 N260 1.384 . S
N259 C255 1.427 . S
N259 C256 1.384 . S
N260 C252 1.427 . S
N260 C258 1.384 . S
H261 C267 0.930 . S
H262 C271 0.930 . S
H263 C276 0.929 . S
H264 C274 0.929 . S
H265 C269 0.929 . S
H266 C275 0.929 . S
C267 H261 0.930 . S
C267 C268 1.367 . S
C267 C275 1.378 . S
C268 C267 1.367 . S
C268 C276 1.433 . S
C269 H265 0.929 . S
C269 C271 1.378 . S
C269 C273 1.350 . S
C270 C273 1.463 . S
C270 C275 1.350 . S
C270 N278 1.427 . S
C271 H262 0.930 . S
C271 C269 1.378 . S
C271 C272 1.367 . S
C272 C271 1.367 . S
C272 C274 1.433 . S
C273 C269 1.350 . S
C273 C270 1.463 . S
C273 N277 1.427 . S
C274 H264 0.929 . S
C274 C272 1.433 . S
C274 N277 1.384 . S
C275 H266 0.929 . S
C275 C267 1.378 . S
C275 C270 1.350 . S
C276 H263 0.929 . S
C276 C268 1.433 . S
C276 N278 1.384 . S
N277 C273 1.427 . S
N277 C274 1.384 . S
N278 C270 1.427 . S
N278 C276 1.384 . S
H279 C285 0.930 . S
H280 C289 0.930 . S
H281 C294 0.929 . S
H282 C292 0.929 . S
H283 C287 0.929 . S
H284 C293 0.929 . S
C285 H279 0.930 . S
C285 C286 1.367 . S
C285 C293 1.378 . S
C286 C285 1.367 . S
C286 C294 1.433 . S
C287 H283 0.929 . S
C287 C289 1.378 . S
C287 C291 1.350 . S
C288 C291 1.463 . S
C288 C293 1.350 . S
C288 N296 1.427 . S
C289 H280 0.930 . S
C289 C287 1.378 . S
C289 C290 1.367 . S
C290 C289 1.367 . S
C290 C292 1.433 . S
C291 C287 1.350 . S
C291 C288 1.463 . S
C291 N295 1.427 . S
C292 H282 0.929 . S
C292 C290 1.433 . S
C292 N295 1.384 . S
C293 H284 0.929 . S
C293 C285 1.378 . S
C293 C288 1.350 . S
C294 H281 0.929 . S
C294 C286 1.433 . S
C294 N296 1.384 . S
N295 C291 1.427 . S
N295 C292 1.384 . S
N296 C288 1.427 . S
N296 C294 1.384 . S
H297 C303 0.930 . S
H298 C307 0.930 . S
H299 C312 0.929 . S
H300 C310 0.929 . S
H301 C305 0.929 . S
H302 C311 0.929 . S
C303 H297 0.930 . S
C303 C304 1.367 . S
C303 C311 1.378 . S
C304 C303 1.367 . S
C304 C312 1.433 . S
C305 H301 0.929 . S
C305 C307 1.378 . S
C305 C309 1.350 . S
C306 C309 1.463 . S
C306 C311 1.350 . S
C306 N314 1.427 . S
C307 H298 0.930 . S
C307 C305 1.378 . S
C307 C308 1.367 . S
C308 C307 1.367 . S
C308 C310 1.433 . S
C309 C305 1.350 . S
C309 C306 1.463 . S
C309 N313 1.427 . S
C310 H300 0.929 . S
C310 C308 1.433 . S
C310 N313 1.384 . S
C311 H302 0.929 . S
C311 C303 1.378 . S
C311 C306 1.350 . S
C312 H299 0.929 . S
C312 C304 1.433 . S
C312 N314 1.384 . S
N313 C309 1.427 . S
N313 C310 1.384 . S
N314 C306 1.427 . S
N314 C312 1.384 . S
H315 C321 0.930 . S
H316 C325 0.930 . S
H317 C330 0.929 . S
H318 C328 0.929 . S
H319 C323 0.929 . S
H320 C329 0.929 . S
C321 H315 0.930 . S
C321 C322 1.367 . S
C321 C329 1.378 . S
C322 C321 1.367 . S
C322 C330 1.433 . S
C323 H319 0.929 . S
C323 C325 1.378 . S
C323 C327 1.350 . S
C324 C327 1.463 . S
C324 C329 1.350 . S
C324 N332 1.427 . S
C325 H316 0.930 . S
C325 C323 1.378 . S
C325 C326 1.367 . S
C326 C325 1.367 . S
C326 C328 1.433 . S
C327 C323 1.350 . S
C327 C324 1.463 . S
C327 N331 1.427 . S
C328 H318 0.929 . S
C328 C326 1.433 . S
C328 N331 1.384 . S
C329 H320 0.929 . S
C329 C321 1.378 . S
C329 C324 1.350 . S
C330 H317 0.929 . S
C330 C322 1.433 . S
C330 N332 1.384 . S
N331 C327 1.427 . S
N331 C328 1.384 . S
N332 C324 1.427 . S
N332 C330 1.384 . S
H333 C339 0.930 . S
H334 C343 0.930 . S
H335 C348 0.929 . S
H336 C346 0.929 . S
H337 C341 0.929 . S
H338 C347 0.929 . S
C339 H333 0.930 . S
C339 C340 1.367 . S
C339 C347 1.378 . S
C340 C339 1.367 . S
C340 C348 1.433 . S
C341 H337 0.929 . S
C341 C343 1.378 . S
C341 C345 1.350 . S
C342 C345 1.463 . S
C342 C347 1.350 . S
C342 N350 1.427 . S
C343 H334 0.930 . S
C343 C341 1.378 . S
C343 C344 1.367 . S
C344 C343 1.367 . S
C344 C346 1.433 . S
C345 C341 1.350 . S
C345 C342 1.463 . S
C345 N349 1.427 . S
C346 H336 0.929 . S
C346 C344 1.433 . S
C346 N349 1.384 . S
C347 H338 0.929 . S
C347 C339 1.378 . S
C347 C342 1.350 . S
C348 H335 0.929 . S
C348 C340 1.433 . S
C348 N350 1.384 . S
N349 C345 1.427 . S
N349 C346 1.384 . S
N350 C342 1.427 . S
N350 C348 1.384 . S
H351 C357 0.930 . S
H352 C361 0.930 . S
H353 C366 0.929 . S
H354 C364 0.929 . S
H355 C359 0.929 . S
H356 C365 0.929 . S
C357 H351 0.930 . S
C357 C358 1.367 . S
C357 C365 1.378 . S
C358 C357 1.367 . S
C358 C366 1.433 . S
C359 H355 0.929 . S
C359 C361 1.378 . S
C359 C363 1.350 . S
C360 C363 1.463 . S
C360 C365 1.350 . S
C360 N368 1.427 . S
C361 H352 0.930 . S
C361 C359 1.378 . S
C361 C362 1.367 . S
C362 C361 1.367 . S
C362 C364 1.433 . S
C363 C359 1.350 . S
C363 C360 1.463 . S
C363 N367 1.427 . S
C364 H354 0.929 . S
C364 C362 1.433 . S
C364 N367 1.384 . S
C365 H356 0.929 . S
C365 C357 1.378 . S
C365 C360 1.350 . S
C366 H353 0.929 . S
C366 C358 1.433 . S
C366 N368 1.384 . S
N367 C363 1.427 . S
N367 C364 1.384 . S
N368 C360 1.427 . S
N368 C366 1.384 . S
H369 C375 0.930 . S
H370 C379 0.930 . S
H371 C384 0.929 . S
H372 C382 0.929 . S
H373 C377 0.929 . S
H374 C383 0.929 . S
C375 H369 0.930 . S
C375 C376 1.367 . S
C375 C383 1.378 . S
C376 C375 1.367 . S
C376 C384 1.433 . S
C377 H373 0.929 . S
C377 C379 1.378 . S
C377 C381 1.350 . S
C378 C381 1.463 . S
C378 C383 1.350 . S
C378 N386 1.427 . S
C379 H370 0.930 . S
C379 C377 1.378 . S
C379 C380 1.367 . S
C380 C379 1.367 . S
C380 C382 1.433 . S
C381 C377 1.350 . S
C381 C378 1.463 . S
C381 N385 1.427 . S
C382 H372 0.929 . S
C382 C380 1.433 . S
C382 N385 1.384 . S
C383 H374 0.929 . S
C383 C375 1.378 . S
C383 C378 1.350 . S
C384 H371 0.929 . S
C384 C376 1.433 . S
C384 N386 1.384 . S
N385 C381 1.427 . S
N385 C382 1.384 . S
N386 C378 1.427 . S
N386 C384 1.384 . S
H387 C393 0.930 . S
H388 C397 0.930 . S
H389 C402 0.929 . S
H390 C400 0.929 . S
H391 C395 0.929 . S
H392 C401 0.929 . S
C393 H387 0.930 . S
C393 C394 1.367 . S
C393 C401 1.378 . S
C394 C393 1.367 . S
C394 C402 1.433 . S
C395 H391 0.929 . S
C395 C397 1.378 . S
C395 C399 1.350 1_655 S
C396 C399 1.463 . S
C396 C401 1.350 . S
C396 N404 1.427 . S
C397 H388 0.930 . S
C397 C395 1.378 . S
C397 C398 1.367 . S
C398 C397 1.367 . S
C398 C400 1.433 . S
C399 C395 1.350 1_455 S
C399 C396 1.463 . S
C399 N403 1.427 1_455 S
C400 H390 0.929 . S
C400 C398 1.433 . S
C400 N403 1.384 . S
C401 H392 0.929 . S
C401 C393 1.378 . S
C401 C396 1.350 . S
C402 H389 0.929 . S
C402 C394 1.433 . S
C402 N404 1.384 . S
N403 C399 1.427 1_655 S
N403 C400 1.384 . S
N404 C396 1.427 . S
N404 C402 1.384 . S
H405 C411 0.930 . S
H406 C415 0.930 . S
H407 C420 0.929 . S
H408 C418 0.929 . S
H409 C413 0.929 . S
H410 C419 0.929 . S
C411 H405 0.930 . S
C411 C412 1.367 . S
C411 C419 1.378 . S
C412 C411 1.367 . S
C412 C420 1.433 . S
C413 H409 0.929 . S
C413 C415 1.378 . S
C413 C417 1.350 . S
C414 C417 1.463 . S
C414 C419 1.350 . S
C414 N422 1.427 . S
C415 H406 0.930 . S
C415 C413 1.378 . S
C415 C416 1.367 . S
C416 C415 1.367 . S
C416 C418 1.433 . S
C417 C413 1.350 . S
C417 C414 1.463 . S
C417 N421 1.427 . S
C418 H408 0.929 . S
C418 C416 1.433 . S
C418 N421 1.384 . S
C419 H410 0.929 . S
C419 C411 1.378 . S
C419 C414 1.350 . S
C420 H407 0.929 . S
C420 C412 1.433 . S
C420 N422 1.384 . S
N421 C417 1.427 . S
N421 C418 1.384 . S
N422 C414 1.427 . S
N422 C420 1.384 . S
H423 C429 0.930 . S
H424 C433 0.930 . S
H425 C438 0.929 . S
H426 C436 0.929 . S
H427 C431 0.929 . S
H428 C437 0.929 . S
C429 H423 0.930 . S
C429 C430 1.367 . S
C429 C437 1.378 . S
C430 C429 1.367 . S
C430 C438 1.433 . S
C431 H427 0.929 . S
C431 C433 1.378 . S
C431 C435 1.350 . S
C432 C435 1.463 . S
C432 C437 1.350 1_545 S
C432 N440 1.427 . S
C433 H424 0.930 . S
C433 C431 1.378 . S
C433 C434 1.367 . S
C434 C433 1.367 . S
C434 C436 1.433 . S
C435 C431 1.350 . S
C435 C432 1.463 . S
C435 N439 1.427 . S
C436 H426 0.929 . S
C436 C434 1.433 . S
C436 N439 1.384 . S
C437 H428 0.929 . S
C437 C429 1.378 . S
C437 C432 1.350 1_565 S
C438 H425 0.929 . S
C438 C430 1.433 . S
C438 N440 1.384 1_565 S
N439 C435 1.427 . S
N439 C436 1.384 . S
N440 C432 1.427 . S
N440 C438 1.384 1_545 S
C124 C31 1.117 . S
C128 C5 1.111 . S
C142 C18 1.112 . S
C146 C3 1.106 . S
C160 C16 1.108 . S
C164 C29 1.109 . S
C178 C70 1.108 . S
C182 C44 1.117 . S
C196 C57 1.110 . S
C200 C42 1.107 . S
C214 C55 1.117 . S
C218 C68 1.109 . S
C232 C83 1.117 . S
C236 C109 1.107 . S
C250 C81 1.110 . S
C254 C96 1.107 . S
C268 C94 1.112 . S
C272 C107 1.106 . S
C286 C10 1.418 . S
C290 C95 1.417 . S
C304 C23 1.419 . S
C308 C114 1.419 . S
C322 C82 1.419 . S
C326 C30 1.416 1_565 S
C340 C62 1.419 . S
C344 C36 1.419 . S
C358 C4 1.417 . S
C362 C69 1.417 . S
C376 C49 1.417 . S
C380 C17 1.417 . S
C394 C101 1.418 . S
C398 C75 1.419 . S
C412 C43 1.417 . S
C416 C108 1.417 . S
C430 C88 1.419 . S
C434 C56 1.419 . S
