# Generated by pormake.
# Topology wio, (6)-cn, num edge types: 1
# Building blocks:
#     Node 0, Type 0, BuildingBlock: BETFAJ_clean_sbu_0, # of connection points: 6
#     Node 1, Type 0, BuildingBlock: BETFAJ_clean_sbu_0, # of connection points: 6
#     Node 2, Type 0, BuildingBlock: BETFAJ_clean_sbu_0, # of connection points: 6
#     Node 3, Type 0, BuildingBlock: BETFAJ_clean_sbu_0, # of connection points: 6
#     Node 4, Type 0, BuildingBlock: BETFAJ_clean_sbu_0, # of connection points: 6
#     Node 5, Type 0, BuildingBlock: BETFAJ_clean_sbu_0, # of connection points: 6
#     Node 6, Type 0, BuildingBlock: BETFAJ_clean_sbu_0, # of connection points: 6
#     Node 7, Type 0, BuildingBlock: BETFAJ_clean_sbu_0, # of connection points: 6
#     Node 8, Type 0, BuildingBlock: BETFAJ_clean_sbu_0, # of connection points: 6
#     Node 9, Type 0, BuildingBlock: BETFAJ_clean_sbu_0, # of connection points: 6
#     Node 10, Type 0, BuildingBlock: BETFAJ_clean_sbu_0, # of connection points: 6
#     Node 11, Type 0, BuildingBlock: BETFAJ_clean_sbu_0, # of connection points: 6
#     Node 12, Type 0, BuildingBlock: BETFAJ_clean_sbu_0, # of connection points: 6
#     Node 13, Type 0, BuildingBlock: BETFAJ_clean_sbu_0, # of connection points: 6
#     Node 14, Type 0, BuildingBlock: BETFAJ_clean_sbu_0, # of connection points: 6
#     Node 15, Type 0, BuildingBlock: BETFAJ_clean_sbu_0, # of connection points: 6
#     Node 16, Type 0, BuildingBlock: BETFAJ_clean_sbu_0, # of connection points: 6
#     Node 17, Type 0, BuildingBlock: BETFAJ_clean_sbu_0, # of connection points: 6
#     Node 18, Type 0, BuildingBlock: BETFAJ_clean_sbu_0, # of connection points: 6
#     Node 19, Type 0, BuildingBlock: BETFAJ_clean_sbu_0, # of connection points: 6
#     Node 20, Type 0, BuildingBlock: BETFAJ_clean_sbu_0, # of connection points: 6
#     Node 21, Type 0, BuildingBlock: BETFAJ_clean_sbu_0, # of connection points: 6
#     Node 22, Type 0, BuildingBlock: BETFAJ_clean_sbu_0, # of connection points: 6
#     Node 23, Type 0, BuildingBlock: BETFAJ_clean_sbu_0, # of connection points: 6
#     Node 24, Type 0, BuildingBlock: BETFAJ_clean_sbu_0, # of connection points: 6
#     Node 25, Type 0, BuildingBlock: BETFAJ_clean_sbu_0, # of connection points: 6
#     Node 26, Type 0, BuildingBlock: BETFAJ_clean_sbu_0, # of connection points: 6
#     Node 27, Type 0, BuildingBlock: BETFAJ_clean_sbu_0, # of connection points: 6
#     Node 28, Type 0, BuildingBlock: BETFAJ_clean_sbu_0, # of connection points: 6
#     Node 29, Type 0, BuildingBlock: BETFAJ_clean_sbu_0, # of connection points: 6
#     Node 30, Type 0, BuildingBlock: BETFAJ_clean_sbu_0, # of connection points: 6
#     Node 31, Type 0, BuildingBlock: BETFAJ_clean_sbu_0, # of connection points: 6
#     Edge 32, Type (0, 0), BuildingBlock: KIFKEQ_clean_linker_1, # of connection points: 2
#     Edge 33, Type (0, 0), BuildingBlock: KIFKEQ_clean_linker_1, # of connection points: 2
#     Edge 34, Type (0, 0), BuildingBlock: KIFKEQ_clean_linker_1, # of connection points: 2
#     Edge 35, Type (0, 0), BuildingBlock: KIFKEQ_clean_linker_1, # of connection points: 2
#     Edge 36, Type (0, 0), BuildingBlock: KIFKEQ_clean_linker_1, # of connection points: 2
#     Edge 37, Type (0, 0), BuildingBlock: KIFKEQ_clean_linker_1, # of connection points: 2
#     Edge 38, Type (0, 0), BuildingBlock: KIFKEQ_clean_linker_1, # of connection points: 2
#     Edge 39, Type (0, 0), BuildingBlock: KIFKEQ_clean_linker_1, # of connection points: 2
#     Edge 40, Type (0, 0), BuildingBlock: KIFKEQ_clean_linker_1, # of connection points: 2
#     Edge 41, Type (0, 0), BuildingBlock: KIFKEQ_clean_linker_1, # of connection points: 2
#     Edge 42, Type (0, 0), BuildingBlock: KIFKEQ_clean_linker_1, # of connection points: 2
#     Edge 43, Type (0, 0), BuildingBlock: KIFKEQ_clean_linker_1, # of connection points: 2
#     Edge 44, Type (0, 0), BuildingBlock: KIFKEQ_clean_linker_1, # of connection points: 2
#     Edge 45, Type (0, 0), BuildingBlock: KIFKEQ_clean_linker_1, # of connection points: 2
#     Edge 46, Type (0, 0), BuildingBlock: KIFKEQ_clean_linker_1, # of connection points: 2
#     Edge 47, Type (0, 0), BuildingBlock: KIFKEQ_clean_linker_1, # of connection points: 2
#     Edge 48, Type (0, 0), BuildingBlock: KIFKEQ_clean_linker_1, # of connection points: 2
#     Edge 49, Type (0, 0), BuildingBlock: KIFKEQ_clean_linker_1, # of connection points: 2
#     Edge 50, Type (0, 0), BuildingBlock: KIFKEQ_clean_linker_1, # of connection points: 2
#     Edge 51, Type (0, 0), BuildingBlock: KIFKEQ_clean_linker_1, # of connection points: 2
#     Edge 52, Type (0, 0), BuildingBlock: KIFKEQ_clean_linker_1, # of connection points: 2
#     Edge 53, Type (0, 0), BuildingBlock: KIFKEQ_clean_linker_1, # of connection points: 2
#     Edge 54, Type (0, 0), BuildingBlock: KIFKEQ_clean_linker_1, # of connection points: 2
#     Edge 55, Type (0, 0), BuildingBlock: KIFKEQ_clean_linker_1, # of connection points: 2
#     Edge 56, Type (0, 0), BuildingBlock: KIFKEQ_clean_linker_1, # of connection points: 2
#     Edge 57, Type (0, 0), BuildingBlock: KIFKEQ_clean_linker_1, # of connection points: 2
#     Edge 58, Type (0, 0), BuildingBlock: KIFKEQ_clean_linker_1, # of connection points: 2
#     Edge 59, Type (0, 0), BuildingBlock: KIFKEQ_clean_linker_1, # of connection points: 2
#     Edge 60, Type (0, 0), BuildingBlock: KIFKEQ_clean_linker_1, # of connection points: 2
#     Edge 61, Type (0, 0), BuildingBlock: KIFKEQ_clean_linker_1, # of connection points: 2
#     Edge 62, Type (0, 0), BuildingBlock: KIFKEQ_clean_linker_1, # of connection points: 2
#     Edge 63, Type (0, 0), BuildingBlock: KIFKEQ_clean_linker_1, # of connection points: 2
#     Edge 64, Type (0, 0), BuildingBlock: KIFKEQ_clean_linker_1, # of connection points: 2
#     Edge 65, Type (0, 0), BuildingBlock: KIFKEQ_clean_linker_1, # of connection points: 2
#     Edge 66, Type (0, 0), BuildingBlock: KIFKEQ_clean_linker_1, # of connection points: 2
#     Edge 67, Type (0, 0), BuildingBlock: KIFKEQ_clean_linker_1, # of connection points: 2
#     Edge 68, Type (0, 0), BuildingBlock: KIFKEQ_clean_linker_1, # of connection points: 2
#     Edge 69, Type (0, 0), BuildingBlock: KIFKEQ_clean_linker_1, # of connection points: 2
#     Edge 70, Type (0, 0), BuildingBlock: KIFKEQ_clean_linker_1, # of connection points: 2
#     Edge 71, Type (0, 0), BuildingBlock: KIFKEQ_clean_linker_1, # of connection points: 2
#     Edge 72, Type (0, 0), BuildingBlock: KIFKEQ_clean_linker_1, # of connection points: 2
#     Edge 73, Type (0, 0), BuildingBlock: KIFKEQ_clean_linker_1, # of connection points: 2
#     Edge 74, Type (0, 0), BuildingBlock: KIFKEQ_clean_linker_1, # of connection points: 2
#     Edge 75, Type (0, 0), BuildingBlock: KIFKEQ_clean_linker_1, # of connection points: 2
#     Edge 76, Type (0, 0), BuildingBlock: KIFKEQ_clean_linker_1, # of connection points: 2
#     Edge 77, Type (0, 0), BuildingBlock: KIFKEQ_clean_linker_1, # of connection points: 2
#     Edge 78, Type (0, 0), BuildingBlock: KIFKEQ_clean_linker_1, # of connection points: 2
#     Edge 79, Type (0, 0), BuildingBlock: KIFKEQ_clean_linker_1, # of connection points: 2
#     Edge 80, Type (0, 0), BuildingBlock: KIFKEQ_clean_linker_1, # of connection points: 2
#     Edge 81, Type (0, 0), BuildingBlock: KIFKEQ_clean_linker_1, # of connection points: 2
#     Edge 82, Type (0, 0), BuildingBlock: KIFKEQ_clean_linker_1, # of connection points: 2
#     Edge 83, Type (0, 0), BuildingBlock: KIFKEQ_clean_linker_1, # of connection points: 2
#     Edge 84, Type (0, 0), BuildingBlock: KIFKEQ_clean_linker_1, # of connection points: 2
#     Edge 85, Type (0, 0), BuildingBlock: KIFKEQ_clean_linker_1, # of connection points: 2
#     Edge 86, Type (0, 0), BuildingBlock: KIFKEQ_clean_linker_1, # of connection points: 2
#     Edge 87, Type (0, 0), BuildingBlock: KIFKEQ_clean_linker_1, # of connection points: 2
#     Edge 88, Type (0, 0), BuildingBlock: KIFKEQ_clean_linker_1, # of connection points: 2
#     Edge 89, Type (0, 0), BuildingBlock: KIFKEQ_clean_linker_1, # of connection points: 2
#     Edge 90, Type (0, 0), BuildingBlock: KIFKEQ_clean_linker_1, # of connection points: 2
#     Edge 91, Type (0, 0), BuildingBlock: KIFKEQ_clean_linker_1, # of connection points: 2
#     Edge 92, Type (0, 0), BuildingBlock: KIFKEQ_clean_linker_1, # of connection points: 2
#     Edge 93, Type (0, 0), BuildingBlock: KIFKEQ_clean_linker_1, # of connection points: 2
#     Edge 94, Type (0, 0), BuildingBlock: KIFKEQ_clean_linker_1, # of connection points: 2
#     Edge 95, Type (0, 0), BuildingBlock: KIFKEQ_clean_linker_1, # of connection points: 2
#     Edge 96, Type (0, 0), BuildingBlock: KIFKEQ_clean_linker_1, # of connection points: 2
#     Edge 97, Type (0, 0), BuildingBlock: KIFKEQ_clean_linker_1, # of connection points: 2
#     Edge 98, Type (0, 0), BuildingBlock: KIFKEQ_clean_linker_1, # of connection points: 2
#     Edge 99, Type (0, 0), BuildingBlock: KIFKEQ_clean_linker_1, # of connection points: 2
#     Edge 100, Type (0, 0), BuildingBlock: KIFKEQ_clean_linker_1, # of connection points: 2
#     Edge 101, Type (0, 0), BuildingBlock: KIFKEQ_clean_linker_1, # of connection points: 2
#     Edge 102, Type (0, 0), BuildingBlock: KIFKEQ_clean_linker_1, # of connection points: 2
#     Edge 103, Type (0, 0), BuildingBlock: KIFKEQ_clean_linker_1, # of connection points: 2
#     Edge 104, Type (0, 0), BuildingBlock: KIFKEQ_clean_linker_1, # of connection points: 2
#     Edge 105, Type (0, 0), BuildingBlock: KIFKEQ_clean_linker_1, # of connection points: 2
#     Edge 106, Type (0, 0), BuildingBlock: KIFKEQ_clean_linker_1, # of connection points: 2
#     Edge 107, Type (0, 0), BuildingBlock: KIFKEQ_clean_linker_1, # of connection points: 2
#     Edge 108, Type (0, 0), BuildingBlock: KIFKEQ_clean_linker_1, # of connection points: 2
#     Edge 109, Type (0, 0), BuildingBlock: KIFKEQ_clean_linker_1, # of connection points: 2
#     Edge 110, Type (0, 0), BuildingBlock: KIFKEQ_clean_linker_1, # of connection points: 2
#     Edge 111, Type (0, 0), BuildingBlock: KIFKEQ_clean_linker_1, # of connection points: 2
#     Edge 112, Type (0, 0), BuildingBlock: KIFKEQ_clean_linker_1, # of connection points: 2
#     Edge 113, Type (0, 0), BuildingBlock: KIFKEQ_clean_linker_1, # of connection points: 2
#     Edge 114, Type (0, 0), BuildingBlock: KIFKEQ_clean_linker_1, # of connection points: 2
#     Edge 115, Type (0, 0), BuildingBlock: KIFKEQ_clean_linker_1, # of connection points: 2
#     Edge 116, Type (0, 0), BuildingBlock: KIFKEQ_clean_linker_1, # of connection points: 2
#     Edge 117, Type (0, 0), BuildingBlock: KIFKEQ_clean_linker_1, # of connection points: 2
#     Edge 118, Type (0, 0), BuildingBlock: KIFKEQ_clean_linker_1, # of connection points: 2
#     Edge 119, Type (0, 0), BuildingBlock: KIFKEQ_clean_linker_1, # of connection points: 2
#     Edge 120, Type (0, 0), BuildingBlock: KIFKEQ_clean_linker_1, # of connection points: 2
#     Edge 121, Type (0, 0), BuildingBlock: KIFKEQ_clean_linker_1, # of connection points: 2
#     Edge 122, Type (0, 0), BuildingBlock: KIFKEQ_clean_linker_1, # of connection points: 2
#     Edge 123, Type (0, 0), BuildingBlock: KIFKEQ_clean_linker_1, # of connection points: 2
#     Edge 124, Type (0, 0), BuildingBlock: KIFKEQ_clean_linker_1, # of connection points: 2
#     Edge 125, Type (0, 0), BuildingBlock: KIFKEQ_clean_linker_1, # of connection points: 2
#     Edge 126, Type (0, 0), BuildingBlock: KIFKEQ_clean_linker_1, # of connection points: 2
#     Edge 127, Type (0, 0), BuildingBlock: KIFKEQ_clean_linker_1, # of connection points: 2
# Relax obj value: 0.200
# Max RMSD: 0.235
# Mean RMSD: 0.235
data_MOF--net-wio--node1-BETFAJ_clean_sbu_0--edge1-KIFKEQ_clean_linker_1
_symmetry_space_group_name_H-M    P1
_symmetry_Int_Tables_number       1
_symmetry_cell_setting            triclinic
loop_
_symmetry_equiv_pos_as_xyz
'x, y, z'
_cell_length_a     63.166805
_cell_length_b     63.203711
_cell_length_c     55.900616
_cell_angle_alpha  90.031447
_cell_angle_beta   90.093658
_cell_angle_gamma 90.013783
loop_
_atom_site_label
_atom_site_type_symbol
_atom_site_fract_x
_atom_site_fract_y
_atom_site_fract_z
_atom_type_partial_charge
Sm0 Sm 0.1482 0.11417 0.2829 0.0
Sm1 Sm 0.10133 0.12141 0.29328 0.0
C2 C 0.18588 0.10333 0.26572 0.0
C3 C 0.20121 0.10768 0.24627 0.0
C4 C 0.20835 0.09083 0.23206 0.0
C5 C 0.22395 0.09402 0.2147 0.0
C6 C 0.23291 0.11418 0.21114 0.0
C7 C 0.22558 0.13113 0.22523 0.0
C8 C 0.20988 0.12793 0.24259 0.0
C9 C 0.14007 0.15076 0.30784 0.0
C10 C 0.11754 0.13274 0.23919 0.0
C11 C 0.06508 0.13425 0.31301 0.0
C12 C 0.05045 0.13125 0.33372 0.0
C13 C 0.05266 0.14345 0.35468 0.0
C14 C 0.03768 0.14214 0.37317 0.0
C15 C 0.01998 0.12867 0.37123 0.0
C16 C 0.01793 0.11632 0.35035 0.0
C17 C 0.03288 0.11765 0.33187 0.0
C18 C 0.11 0.08208 0.2738 0.0
C19 C 0.13119 0.09629 0.33378 0.0
O20 O 0.16835 0.09344 0.26006 0.0
O21 O 0.18312 0.11788 0.28208 0.0
O22 O 0.12893 0.14412 0.2904 0.0
O23 O 0.15643 0.13875 0.31122 0.0
O24 O 0.136 0.12493 0.24588 0.0
O25 O 0.10164 0.13481 0.25451 0.0
O26 O 0.08335 0.14341 0.31686 0.0
O27 O 0.06623 0.11926 0.29691 0.0
O28 O 0.12103 0.09186 0.28897 0.0
O29 O 0.09285 0.09276 0.26925 0.0
O30 O 0.11358 0.10713 0.32946 0.0
O31 O 0.14607 0.09447 0.31729 0.0
H32 H 0.20213 0.07503 0.2347 0.0
H33 H 0.22938 0.08053 0.20447 0.0
H34 H 0.23195 0.14689 0.2228 0.0
H35 H 0.20473 0.14126 0.25327 0.0
H36 H 0.0658 0.15432 0.35667 0.0
H37 H 0.04001 0.15172 0.38902 0.0
H38 H 0.0044 0.10601 0.34793 0.0
H39 H 0.03039 0.10832 0.31585 0.0
Sm40 Sm 0.14312 0.90087 0.5312 0.0
Sm41 Sm 0.13595 0.85045 0.54066 0.0
C42 C 0.15901 0.93698 0.51519 0.0
C43 C 0.15443 0.95461 0.49856 0.0
C44 C 0.17115 0.96351 0.48554 0.0
C45 C 0.16753 0.98019 0.46962 0.0
C46 C 0.14703 0.98848 0.46634 0.0
C47 C 0.13022 0.9794 0.47935 0.0
C48 C 0.13387 0.96261 0.49529 0.0
C49 C 0.10291 0.89276 0.54965 0.0
C50 C 0.12497 0.8696 0.48722 0.0
C51 C 0.12463 0.81327 0.55908 0.0
C52 C 0.12593 0.80042 0.58146 0.0
C53 C 0.10818 0.79809 0.59645 0.0
C54 C 0.10881 0.78451 0.61636 0.0
C55 C 0.12719 0.77283 0.62181 0.0
C56 C 0.14498 0.77538 0.60689 0.0
C57 C 0.14435 0.78892 0.58706 0.0
C58 C 0.17442 0.86198 0.52113 0.0
C59 C 0.15939 0.88083 0.58247 0.0
O60 O 0.16313 0.91857 0.50542 0.0
O61 O 0.14772 0.93558 0.53483 0.0
O62 O 0.11708 0.87992 0.54346 0.0
O63 O 0.10958 0.91166 0.54442 0.0
O64 O 0.13373 0.88761 0.49429 0.0
O65 O 0.12179 0.85347 0.50215 0.0
O66 O 0.11211 0.82979 0.55875 0.0
O67 O 0.14214 0.81635 0.54708 0.0
O68 O 0.16399 0.87215 0.53654 0.0
O69 O 0.16469 0.84433 0.5161 0.0
O70 O 0.15025 0.86247 0.57686 0.0
O71 O 0.15983 0.89712 0.56751 0.0
H72 H 0.18711 0.95748 0.48764 0.0
H73 H 0.18082 0.98638 0.45962 0.0
H74 H 0.11426 0.98543 0.47745 0.0
H75 H 0.12067 0.95594 0.50506 0.0
H76 H 0.09365 0.80653 0.59256 0.0
H77 H 0.09484 0.78317 0.62747 0.0
H78 H 0.15931 0.76642 0.61007 0.0
H79 H 0.15826 0.78998 0.57581 0.0
Sm80 Sm 0.35566 0.89151 0.78389 0.0
Sm81 Sm 0.4027 0.88401 0.79208 0.0
C82 C 0.31704 0.90133 0.76846 0.0
C83 C 0.30199 0.89786 0.74841 0.0
C84 C 0.29397 0.91538 0.73593 0.0
C85 C 0.27854 0.91278 0.71816 0.0
C86 C 0.27063 0.89256 0.7125 0.0
C87 C 0.27887 0.87496 0.72482 0.0
C88 C 0.2944 0.87757 0.74255 0.0
C89 C 0.36458 0.85524 0.80912 0.0
C90 C 0.38497 0.87453 0.73823 0.0
C91 C 0.43954 0.87058 0.81001 0.0
C92 C 0.45408 0.87244 0.83076 0.0
C93 C 0.47189 0.85924 0.83195 0.0
C94 C 0.48623 0.86078 0.85104 0.0
C95 C 0.48313 0.87558 0.86957 0.0
C96 C 0.46503 0.88868 0.8684 0.0
C97 C 0.45067 0.88712 0.84921 0.0
C98 C 0.39356 0.92342 0.77307 0.0
C99 C 0.37428 0.90933 0.83387 0.0
O100 O 0.33368 0.91314 0.7644 0.0
O101 O 0.3211 0.88535 0.78259 0.0
O102 O 0.37491 0.86139 0.79086 0.0
O103 O 0.34877 0.86771 0.8134 0.0
O104 O 0.36717 0.88295 0.74605 0.0
O105 O 0.40104 0.87095 0.75302 0.0
O106 O 0.42151 0.86089 0.81344 0.0
O107 O 0.43772 0.88694 0.79586 0.0
O108 O 0.38309 0.91374 0.78876 0.0
O109 O 0.41037 0.91255 0.76757 0.0
O110 O 0.39172 0.89843 0.8288 0.0
O111 O 0.35882 0.91119 0.81806 0.0
H112 H 0.29935 0.93121 0.74025 0.0
H113 H 0.2724 0.92673 0.7093 0.0
H114 H 0.27335 0.85915 0.72073 0.0
H115 H 0.30023 0.86371 0.75183 0.0
H116 H 0.47487 0.84782 0.81789 0.0
H117 H 0.50006 0.85066 0.85093 0.0
H118 H 0.46188 0.90011 0.88239 0.0
H119 H 0.43697 0.89742 0.84873 0.0
Sm120 Sm 0.36352 0.1055 0.03373 0.0
Sm121 Sm 0.37257 0.15227 0.04281 0.0
C122 C 0.35158 0.06781 1.01745 0.0
C123 C 0.35572 0.05202 0.99842 0.0
C124 C 0.33857 0.04349 0.98571 0.0
C125 C 0.34169 0.02736 0.96893 0.0
C126 C 0.36207 0.01925 0.96451 0.0
C127 C 0.37934 0.02819 0.97688 0.0
C128 C 0.37621 0.0444 0.99367 0.0
C129 C 0.40115 0.11301 0.05712 0.0
C130 C 0.38181 0.1347 0.9888 0.0
C131 C 0.38775 0.18799 0.06155 0.0
C132 C 0.3851 0.20411 0.08059 0.0
C133 C 0.37673 0.19918 0.1032 0.0
C134 C 0.37549 0.21475 0.12116 0.0
C135 C 0.38258 0.23558 0.11685 0.0
C136 C 0.39098 0.24029 0.09413 0.0
C137 C 0.39218 0.22478 0.07629 0.0
C138 C 0.33251 0.14472 0.02455 0.0
C139 C 0.34643 0.1241 0.08419 0.0
O140 O 0.34227 0.08547 1.01123 0.0
O141 O 0.36609 0.07049 0.03388 0.0
O142 O 0.39426 0.12397 0.03971 0.0
O143 O 0.38881 0.09706 0.06129 0.0
O144 O 0.3726 0.11714 0.99618 0.0
O145 O 0.38592 0.15039 1.00392 0.0
O146 O 0.39399 0.1691 0.06799 0.0
O147 O 0.37395 0.18761 0.04407 0.0
O148 O 0.34229 0.13356 0.03956 0.0
O149 O 0.34353 0.16159 1.01973 0.0
O150 O 0.35757 0.14143 0.0793 0.0
O151 O 0.3443 0.10885 0.06818 0.0
H152 H 0.32263 0.04909 0.98903 0.0
H153 H 0.32805 0.02122 0.95943 0.0
H154 H 0.39524 0.02229 0.97408 0.0
H155 H 0.38977 0.05067 1.00321 0.0
H156 H 0.37121 0.18331 0.10701 0.0
H157 H 0.36872 0.21054 0.13829 0.0
H158 H 0.39694 0.25596 0.09016 0.0
H159 H 0.39893 0.22892 0.0591 0.0
Sm160 Sm 0.14957 0.89096 0.26095 0.0
Sm161 Sm 0.10262 0.88291 0.25245 0.0
C162 C 0.18786 0.90152 0.27681 0.0
C163 C 0.20333 0.89781 0.29637 0.0
C164 C 0.21096 0.91513 0.30953 0.0
C165 C 0.227 0.91249 0.32656 0.0
C166 C 0.23597 0.89244 0.3308 0.0
C167 C 0.22792 0.87497 0.31803 0.0
C168 C 0.2118 0.87762 0.30099 0.0
C169 C 0.14116 0.85448 0.23586 0.0
C170 C 0.12039 0.87258 0.30597 0.0
C171 C 0.06612 0.86988 0.23334 0.0
C172 C 0.05147 0.87312 0.21263 0.0
C173 C 0.0537 0.86122 0.19147 0.0
C174 C 0.03885 0.86292 0.17284 0.0
C175 C 0.02126 0.87651 0.17483 0.0
C176 C 0.01916 0.88854 0.19593 0.0
C177 C 0.03399 0.88682 0.21456 0.0
C178 C 0.11123 0.92229 0.27185 0.0
C179 C 0.13092 0.90887 0.21109 0.0
O180 O 0.17078 0.91236 0.28184 0.0
O181 O 0.18435 0.88612 0.26169 0.0
O182 O 0.13065 0.86064 0.25397 0.0
O183 O 0.15694 0.86702 0.23168 0.0
O184 O 0.13804 0.88156 0.29847 0.0
O185 O 0.10443 0.86898 0.29104 0.0
O186 O 0.08436 0.86072 0.22931 0.0
O187 O 0.06743 0.88477 0.24954 0.0
O188 O 0.12187 0.91283 0.25613 0.0
O189 O 0.09449 0.91123 0.27711 0.0
O190 O 0.1136 0.89774 0.216 0.0
O191 O 0.1463 0.91082 0.22698 0.0
H192 H 0.20476 0.93086 0.30631 0.0
H193 H 0.23245 0.92625 0.33635 0.0
H194 H 0.2345 0.85933 0.32067 0.0
H195 H 0.20633 0.86393 0.2911 0.0
H196 H 0.06678 0.85031 0.1894 0.0
H197 H 0.04121 0.85358 0.15683 0.0
H198 H 0.00572 0.89893 0.19838 0.0
H199 H 0.0315 0.89594 0.23072 0.0
Sm200 Sm 0.36606 0.90158 0.50991 0.0
Sm201 Sm 0.37305 0.85454 0.50231 0.0
C202 C 0.35717 0.9406 0.52462 0.0
C203 C 0.36048 0.95551 0.54484 0.0
C204 C 0.34358 0.96043 0.56017 0.0
C205 C 0.3459 0.97571 0.57812 0.0
C206 C 0.36517 0.98659 0.58114 0.0
C207 C 0.38216 0.98153 0.56593 0.0
C208 C 0.37985 0.96619 0.548 0.0
C209 C 0.40175 0.8921 0.48393 0.0
C210 C 0.3827 0.87243 0.55598 0.0
C211 C 0.38602 0.81736 0.485 0.0
C212 C 0.38533 0.80337 0.4637 0.0
C213 C 0.39977 0.78657 0.46203 0.0
C214 C 0.39903 0.77242 0.44272 0.0
C215 C 0.3838 0.77471 0.42446 0.0
C216 C 0.36956 0.7919 0.42599 0.0
C217 C 0.37032 0.80606 0.4454 0.0
C218 C 0.33411 0.86422 0.52214 0.0
C219 C 0.34744 0.88263 0.46052 0.0
O220 O 0.34454 0.92445 0.52803 0.0
O221 O 0.37351 0.93587 0.51133 0.0
O222 O 0.39595 0.88212 0.50258 0.0
O223 O 0.38912 0.90774 0.47945 0.0
O224 O 0.37454 0.8903 0.54794 0.0
O225 O 0.38603 0.85622 0.54137 0.0
O226 O 0.39708 0.83478 0.48341 0.0
O227 O 0.3685 0.8199 0.49707 0.0
O228 O 0.3435 0.87437 0.50597 0.0
O229 O 0.34505 0.84749 0.52782 0.0
O230 O 0.35856 0.86532 0.46553 0.0
O231 O 0.34576 0.89816 0.47622 0.0
H232 H 0.32836 0.95275 0.55798 0.0
H233 H 0.33237 0.97939 0.58924 0.0
H234 H 0.39729 0.98941 0.56789 0.0
H235 H 0.39319 0.96295 0.53642 0.0
H236 H 0.41147 0.78415 0.47596 0.0
H237 H 0.41004 0.75931 0.44253 0.0
H238 H 0.35778 0.79443 0.4122 0.0
H239 H 0.35907 0.81896 0.44623 0.0
Sm240 Sm 0.35405 0.11462 0.76226 0.0
Sm241 Sm 0.40093 0.12293 0.75328 0.0
C242 C 0.31606 0.10361 0.7785 0.0
C243 C 0.30064 0.10759 0.79801 0.0
C244 C 0.29424 0.09072 0.81263 0.0
C245 C 0.27838 0.09351 0.8298 0.0
C246 C 0.26837 0.11325 0.83272 0.0
C247 C 0.27514 0.13028 0.81841 0.0
C248 C 0.29107 0.12749 0.80124 0.0
C249 C 0.36201 0.1514 0.73758 0.0
C250 C 0.38367 0.13268 0.80721 0.0
C251 C 0.43726 0.13707 0.73492 0.0
C252 C 0.45176 0.13519 0.71423 0.0
C253 C 0.46912 0.14894 0.71261 0.0
C254 C 0.48337 0.1475 0.69349 0.0
C255 C 0.48061 0.13223 0.67537 0.0
C256 C 0.46296 0.11856 0.67696 0.0
C257 C 0.44869 0.12004 0.69618 0.0
C258 C 0.39267 0.08332 0.77229 0.0
C259 C 0.37237 0.09713 0.712 0.0
O260 O 0.33342 0.09332 0.78388 0.0
O261 O 0.31914 0.11859 0.76276 0.0
O262 O 0.37281 0.14501 0.7554 0.0
O263 O 0.34607 0.13897 0.7336 0.0
O264 O 0.36584 0.12399 0.79975 0.0
O265 O 0.39955 0.1362 0.79221 0.0
O266 O 0.41892 0.14605 0.73115 0.0
O267 O 0.43602 0.121 0.74957 0.0
O268 O 0.38179 0.09292 0.75686 0.0
O269 O 0.40947 0.09437 0.77744 0.0
O270 O 0.38959 0.10854 0.71666 0.0
O271 O 0.35732 0.09485 0.72819 0.0
H272 H 0.30128 0.0752 0.8105 0.0
H273 H 0.27391 0.08011 0.84076 0.0
H274 H 0.26772 0.14566 0.81999 0.0
H275 H 0.29555 0.14083 0.7902 0.0
H276 H 0.47181 0.16075 0.72635 0.0
H277 H 0.49686 0.15806 0.69326 0.0
H278 H 0.46009 0.10676 0.66329 0.0
H279 H 0.43534 0.10932 0.69701 0.0
Sm280 Sm 0.14098 0.10787 1.01465 0.0
Sm281 Sm 0.13333 0.15477 1.00441 0.0
C282 C 0.15255 0.07025 0.0313 0.0
C283 C 0.14829 0.05423 0.05 0.0
C284 C 0.16538 0.04574 0.06283 0.0
C285 C 0.16226 0.02928 0.07915 0.0
C286 C 0.14194 0.02079 0.08297 0.0
C287 C 0.1247 0.02972 0.07055 0.0
C288 C 0.12784 0.04626 0.0542 0.0
C289 C 0.10451 0.11574 0.98933 0.0
C290 C 0.1223 0.1382 0.05854 0.0
C291 C 0.11964 0.19112 0.98565 0.0
C292 C 0.12081 0.20497 0.96432 0.0
C293 C 0.10695 0.22223 0.96253 0.0
C294 C 0.10805 0.23615 0.94306 0.0
C295 C 0.12308 0.23316 0.92477 0.0
C296 C 0.13677 0.21555 0.92647 0.0
C297 C 0.13565 0.20161 0.94604 0.0
C298 C 0.17258 0.14623 0.02424 0.0
C299 C 0.15884 0.12546 0.96401 0.0
O300 O 0.16161 0.08795 0.03792 0.0
O301 O 0.13833 0.07288 1.01452 0.0
O302 O 0.11093 0.12687 1.00687 0.0
O303 O 0.11661 0.09944 0.98611 0.0
O304 O 0.12974 0.11965 0.05163 0.0
O305 O 0.12054 0.1543 0.04344 0.0
O306 O 0.10957 0.17315 0.98341 0.0
O307 O 0.13657 0.18953 0.99899 0.0
O308 O 0.16296 0.13528 1.00888 0.0
O309 O 0.16175 0.16326 0.02889 0.0
O310 O 0.14741 0.14273 0.96807 0.0
O311 O 0.16107 0.11078 0.98067 0.0
H312 H 0.18129 0.05161 0.05991 0.0
H313 H 0.17585 0.02314 0.08873 0.0
H314 H 0.10886 0.02354 0.07294 0.0
H315 H 0.11434 0.05249 0.04454 0.0
H316 H 0.09539 0.22515 0.97645 0.0
H317 H 0.09746 0.24961 0.94274 0.0
H318 H 0.14838 0.21249 0.91267 0.0
H319 H 0.14647 0.18835 0.947 0.0
Sm320 Sm 0.90365 0.88423 0.74993 0.0
Sm321 Sm 0.85684 0.89206 0.75874 0.0
C322 C 0.93997 0.87113 0.73063 0.0
C323 C 0.95483 0.8746 0.71022 0.0
C324 C 0.95388 0.86158 0.6898 0.0
C325 C 0.96895 0.86343 0.67149 0.0
C326 C 0.98553 0.87827 0.67308 0.0
C327 C 0.98632 0.89146 0.6934 0.0
C328 C 0.97125 0.88961 0.71173 0.0
C329 C 0.89528 0.92365 0.76909 0.0
C330 C 0.87482 0.90993 0.70859 0.0
C331 C 0.81856 0.90233 0.77477 0.0
C332 C 0.80352 0.89911 0.79486 0.0
C333 C 0.79837 0.9162 0.80983 0.0
C334 C 0.7827 0.91417 0.82737 0.0
C335 C 0.77162 0.89502 0.8303 0.0
C336 C 0.77713 0.87775 0.81566 0.0
C337 C 0.79285 0.87977 0.79812 0.0
C338 C 0.86528 0.8554 0.73396 0.0
C339 C 0.88639 0.87425 0.80372 0.0
O340 O 0.92158 0.8625 0.72601 0.0
O341 O 0.93887 0.88554 0.7474 0.0
O342 O 0.88434 0.91413 0.75361 0.0
O343 O 0.91209 0.91265 0.77422 0.0
O344 O 0.89243 0.89924 0.71354 0.0
O345 O 0.85944 0.91153 0.72445 0.0
O346 O 0.83545 0.91382 0.77877 0.0
O347 O 0.82219 0.88638 0.76044 0.0
O348 O 0.87581 0.86176 0.75199 0.0
O349 O 0.84947 0.86788 0.72963 0.0
O350 O 0.86878 0.88338 0.79633 0.0
O351 O 0.9021 0.87032 0.7886 0.0
H352 H 0.94164 0.84966 0.68811 0.0
H353 H 0.96757 0.85316 0.65605 0.0
H354 H 0.99897 0.90288 0.69554 0.0
H355 H 0.97276 0.89968 0.72732 0.0
H356 H 0.8062 0.93134 0.80767 0.0
H357 H 0.77919 0.92771 0.83855 0.0
H358 H 0.76884 0.86282 0.81721 0.0
H359 H 0.79626 0.86631 0.78679 0.0
Sm360 Sm 0.86911 0.15854 0.50415 0.0
Sm361 Sm 0.86298 0.10834 0.51436 0.0
C362 C 0.88031 0.196 0.48648 0.0
C363 C 0.88245 0.20815 0.46393 0.0
C364 C 0.8958 0.22589 0.46336 0.0
C365 C 0.8963 0.23918 0.44329 0.0
C366 C 0.88339 0.23509 0.42323 0.0
C367 C 0.8706 0.21677 0.42355 0.0
C368 C 0.87012 0.20347 0.44367 0.0
C369 C 0.83111 0.14681 0.5245 0.0
C370 C 0.84674 0.12753 0.4626 0.0
C371 C 0.84743 0.07202 0.53013 0.0
C372 C 0.85216 0.05455 0.54687 0.0
C373 C 0.8354 0.04518 0.55938 0.0
C374 C 0.83919 0.02895 0.57582 0.0
C375 C 0.8599 0.02166 0.58017 0.0
C376 C 0.87672 0.03091 0.56735 0.0
C377 C 0.87289 0.04728 0.55092 0.0
C378 C 0.90283 0.11655 0.49511 0.0
C379 C 0.88063 0.14008 0.55801 0.0
O380 O 0.89394 0.18082 0.49077 0.0
O381 O 0.86107 0.19128 0.49329 0.0
O382 O 0.84139 0.13653 0.50903 0.0
O383 O 0.84077 0.16456 0.52922 0.0
O384 O 0.85606 0.14588 0.46777 0.0
O385 O 0.84606 0.11158 0.47802 0.0
O386 O 0.84293 0.09037 0.53982 0.0
O387 O 0.85892 0.07356 0.51066 0.0
O388 O 0.88851 0.12944 0.50073 0.0
O389 O 0.89646 0.09773 0.50112 0.0
O390 O 0.87333 0.12137 0.55119 0.0
O391 O 0.8822 0.15645 0.54312 0.0
H392 H 0.90536 0.22989 0.47882 0.0
H393 H 0.90615 0.25319 0.44396 0.0
H394 H 0.86069 0.21285 0.40836 0.0
H395 H 0.85972 0.18985 0.44363 0.0
H396 H 0.81929 0.05049 0.5565 0.0
H397 H 0.82582 0.02201 0.58504 0.0
H398 H 0.89286 0.0258 0.5704 0.0
H399 H 0.88612 0.05437 0.54156 0.0
Sm400 Sm 0.60058 0.12212 0.25517 0.0
Sm401 Sm 0.65107 0.11543 0.26467 0.0
C402 C 0.56327 0.13309 0.23668 0.0
C403 C 0.5504 0.13163 0.21429 0.0
C404 C 0.54736 0.14951 0.19968 0.0
C405 C 0.5337 0.14872 0.17981 0.0
C406 C 0.52263 0.13003 0.17405 0.0
C407 C 0.52594 0.1121 0.18857 0.0
C408 C 0.53957 0.11289 0.20835 0.0
C409 C 0.61238 0.08372 0.2746 0.0
C410 C 0.63101 0.09883 0.21345 0.0
C411 C 0.68736 0.09975 0.28064 0.0
C412 C 0.70504 0.10431 0.29726 0.0
C413 C 0.71465 0.08744 0.30939 0.0
C414 C 0.73134 0.09103 0.32536 0.0
C415 C 0.73895 0.11165 0.32959 0.0
C416 C 0.72917 0.12861 0.31745 0.0
C417 C 0.71237 0.12497 0.30145 0.0
C418 C 0.64267 0.15553 0.24607 0.0
C419 C 0.61964 0.13306 0.30867 0.0
O420 O 0.5797 0.14575 0.23698 0.0
O421 O 0.56652 0.11564 0.24874 0.0
O422 O 0.62255 0.09428 0.2593 0.0
O423 O 0.59465 0.0933 0.27961 0.0
O424 O 0.61263 0.10795 0.21899 0.0
O425 O 0.64732 0.0985 0.22846 0.0
O426 O 0.66898 0.09552 0.29041 0.0
O427 O 0.68585 0.11114 0.26107 0.0
O428 O 0.6299 0.14123 0.25207 0.0
O429 O 0.66161 0.14904 0.25151 0.0
O430 O 0.63776 0.12459 0.30158 0.0
O431 O 0.60345 0.13612 0.29373 0.0
H432 H 0.55528 0.16427 0.20385 0.0
H433 H 0.53179 0.1628 0.16901 0.0
H434 H 0.51747 0.09751 0.18513 0.0
H435 H 0.54122 0.09885 0.21929 0.0
H436 H 0.70915 0.07138 0.30658 0.0
H437 H 0.73808 0.0776 0.33467 0.0
H438 H 0.73465 0.14468 0.32008 0.0
H439 H 0.70514 0.13828 0.29238 0.0
Sm440 Sm 0.63468 0.85722 1.0009 0.0
Sm441 Sm 0.64211 0.90395 1.01111 0.0
C442 C 0.62057 0.82124 0.98167 0.0
C443 C 0.62335 0.80512 0.96261 0.0
C444 C 0.63101 0.81017 0.9397 0.0
C445 C 0.63248 0.79448 0.92188 0.0
C446 C 0.62635 0.77341 0.92661 0.0
C447 C 0.61862 0.76861 0.94961 0.0
C448 C 0.61719 0.78422 0.96731 0.0
C449 C 0.67424 0.86542 1.02025 0.0
C450 C 0.66077 0.88636 0.96073 0.0
C451 C 0.6526 0.94202 0.02757 0.0
C452 C 0.64755 0.95773 0.04633 0.0
C453 C 0.64345 0.95178 0.07009 0.0
C454 C 0.63997 0.96723 0.08769 0.0
C455 C 0.64041 0.98893 0.08185 0.0
C456 C 0.64405 0.99472 0.05791 0.0
C457 C 0.64761 0.9793 0.0404 0.0
C458 C 0.60547 0.89563 0.98604 0.0
C459 C 0.62381 0.87367 0.05505 0.0
O460 O 0.61374 0.83999 0.97547 0.0
O461 O 0.63448 0.82189 0.99901 0.0
O462 O 0.66446 0.87673 1.00537 0.0
O463 O 0.66352 0.84822 0.02434 0.0
O464 O 0.64965 0.8689 0.96489 0.0
O465 O 0.66246 0.90128 0.97722 0.0
O466 O 0.6621 0.92454 0.03414 0.0
O467 O 0.63845 0.93901 1.01083 0.0
O468 O 0.61201 0.88482 1.00374 0.0
O469 O 0.61766 0.91178 0.98235 0.0
O470 O 0.63181 0.89202 0.04834 0.0
O471 O 0.62131 0.85789 0.03965 0.0
H472 H 0.63581 0.82622 0.93558 0.0
H473 H 0.6387 0.79879 0.90452 0.0
H474 H 0.61338 0.75276 0.95393 0.0
H475 H 0.61101 0.77997 0.98473 0.0
H476 H 0.64318 0.93523 0.07512 0.0
H477 H 0.63694 0.96218 0.10587 0.0
H478 H 0.64478 0.01122 0.05279 0.0
H479 H 0.65079 0.98425 1.0222 0.0
Sm480 Sm 0.90404 0.12264 0.79268 0.0
Sm481 Sm 0.85721 0.11448 0.7826 0.0
C482 C 0.94028 0.13679 0.81139 0.0
C483 C 0.95446 0.13546 0.83246 0.0
C484 C 0.95083 0.12112 0.85118 0.0
C485 C 0.96489 0.12004 0.87068 0.0
C486 C 0.98288 0.1333 0.87187 0.0
C487 C 0.98619 0.14777 0.85308 0.0
C488 C 0.97215 0.14882 0.83368 0.0
C489 C 0.89598 0.08335 0.77296 0.0
C490 C 0.87508 0.09688 0.83327 0.0
C491 C 0.81962 0.10284 0.76582 0.0
C492 C 0.80405 0.1071 0.74657 0.0
C493 C 0.7967 0.09018 0.7326 0.0
C494 C 0.78102 0.09333 0.71528 0.0
C495 C 0.77221 0.11352 0.71156 0.0
C496 C 0.77972 0.13054 0.72544 0.0
C497 C 0.79552 0.12738 0.74274 0.0
C498 C 0.86494 0.15115 0.80756 0.0
C499 C 0.88713 0.13355 0.73863 0.0
O500 O 0.92205 0.14623 0.81427 0.0
O501 O 0.93899 0.1202 0.79749 0.0
O502 O 0.88485 0.09276 0.78829 0.0
O503 O 0.9129 0.09436 0.76834 0.0
O504 O 0.89226 0.10842 0.82907 0.0
O505 O 0.86031 0.09454 0.81669 0.0
O506 O 0.83731 0.09347 0.75977 0.0
O507 O 0.8222 0.11725 0.78237 0.0
O508 O 0.87593 0.14475 0.78996 0.0
O509 O 0.84884 0.13884 0.81113 0.0
O510 O 0.86878 0.12565 0.74553 0.0
O511 O 0.90322 0.13565 0.75373 0.0
H512 H 0.93722 0.11071 0.85066 0.0
H513 H 0.96161 0.10886 0.88486 0.0
H514 H 0.99995 0.15798 0.85301 0.0
H515 H 0.97528 0.15999 0.81941 0.0
H516 H 0.80286 0.07436 0.73536 0.0
H517 H 0.77542 0.0798 0.7052 0.0
H518 H 0.77345 0.14632 0.72286 0.0
H519 H 0.80087 0.14077 0.75323 0.0
Sm520 Sm 0.63177 0.15169 0.54388 0.0
Sm521 Sm 0.63991 0.10488 0.53506 0.0
C522 C 0.61754 0.18779 0.56265 0.0
C523 C 0.62062 0.20401 0.58158 0.0
C524 C 0.62782 0.1989 0.6047 0.0
C525 C 0.62944 0.21463 0.62245 0.0
C526 C 0.62393 0.23583 0.61748 0.0
C527 C 0.61673 0.24072 0.59425 0.0
C528 C 0.61514 0.22505 0.57661 0.0
C529 C 0.67137 0.14358 0.52482 0.0
C530 C 0.65812 0.12335 0.58503 0.0
C531 C 0.64994 0.0665 0.5191 0.0
C532 C 0.64674 0.05175 0.49866 0.0
C533 C 0.66348 0.04768 0.48278 0.0
C534 C 0.66137 0.03251 0.46466 0.0
C535 C 0.6425 0.02087 0.46203 0.0
C536 C 0.62566 0.02513 0.47776 0.0
C537 C 0.62775 0.04035 0.49585 0.0
C538 C 0.60341 0.11329 0.56013 0.0
C539 C 0.62212 0.1343 0.49007 0.0
O540 O 0.61086 0.16906 0.56912 0.0
O541 O 0.63119 0.18705 0.5451 0.0
O542 O 0.6618 0.13254 0.5401 0.0
O543 O 0.66042 0.16051 0.5201 0.0
O544 O 0.6473 0.14087 0.58009 0.0
O545 O 0.65961 0.10785 0.56925 0.0
O546 O 0.66182 0.0832 0.51566 0.0
O547 O 0.63377 0.07034 0.53302 0.0
O548 O 0.60954 0.12368 0.54193 0.0
O549 O 0.6161 0.09766 0.56454 0.0
O550 O 0.63153 0.11683 0.4974 0.0
O551 O 0.61778 0.14982 0.50528 0.0
H552 H 0.63212 0.18276 0.60905 0.0
H553 H 0.63527 0.21024 0.63999 0.0
H554 H 0.61197 0.25668 0.58972 0.0
H555 H 0.60932 0.22937 0.55903 0.0
H556 H 0.67843 0.05593 0.48468 0.0
H557 H 0.6748 0.02948 0.45313 0.0
H558 H 0.61081 0.01667 0.47611 0.0
H559 H 0.61455 0.04293 0.50785 0.0
Sm560 Sm 0.60462 0.88562 0.2903 0.0
Sm561 Sm 0.65164 0.89143 0.28043 0.0
C562 C 0.5675 0.87363 0.30861 0.0
C563 C 0.55414 0.87389 0.33041 0.0
C564 C 0.53795 0.85884 0.33276 0.0
C565 C 0.52396 0.85951 0.35219 0.0
C566 C 0.5258 0.8753 0.36988 0.0
C567 C 0.54249 0.89007 0.36776 0.0
C568 C 0.55648 0.88938 0.34824 0.0
C569 C 0.61445 0.92429 0.27001 0.0
C570 C 0.6345 0.91037 0.33073 0.0
C571 C 0.69011 0.90073 0.26429 0.0
C572 C 0.70524 0.89697 0.24446 0.0
C573 C 0.71309 0.91433 0.23157 0.0
C574 C 0.72862 0.91157 0.21403 0.0
C575 C 0.73682 0.89135 0.20897 0.0
C576 C 0.72877 0.8739 0.22172 0.0
C577 C 0.71314 0.87667 0.23925 0.0
C578 C 0.64221 0.85593 0.30681 0.0
C579 C 0.62056 0.87478 0.23603 0.0
O580 O 0.58437 0.86165 0.3087 0.0
O581 O 0.57052 0.89158 0.29754 0.0
O582 O 0.62512 0.91461 0.28558 0.0
O583 O 0.59729 0.91371 0.26512 0.0
O584 O 0.61704 0.89919 0.32671 0.0
O585 O 0.64932 0.91202 0.31415 0.0
O586 O 0.67339 0.9123 0.25974 0.0
O587 O 0.68619 0.88514 0.27901 0.0
O588 O 0.63167 0.86212 0.28871 0.0
O589 O 0.65859 0.8679 0.3103 0.0
O590 O 0.6394 0.88133 0.24314 0.0
O591 O 0.60441 0.87342 0.25107 0.0
H592 H 0.53578 0.84678 0.31918 0.0
H593 H 0.51123 0.84805 0.35285 0.0
H594 H 0.54468 0.90228 0.38113 0.0
H595 H 0.56891 0.90113 0.34688 0.0
H596 H 0.70748 0.93017 0.23541 0.0
H597 H 0.73461 0.92542 0.20486 0.0
H598 H 0.73453 0.85808 0.21811 0.0
H599 H 0.70747 0.86294 0.24889 0.0
Sm600 Sm 0.87197 0.84991 0.03851 0.0
Sm601 Sm 0.86592 0.90039 0.02971 0.0
C602 C 0.8829 0.81221 0.05587 0.0
C603 C 0.88426 0.79995 0.07845 0.0
C604 C 0.87211 0.80528 0.09858 0.0
C605 C 0.87197 0.79213 0.11884 0.0
C606 C 0.88396 0.77328 0.11944 0.0
C607 C 0.89667 0.76847 0.09946 0.0
C608 C 0.89679 0.78163 0.07925 0.0
C609 C 0.83397 0.86217 1.01834 0.0
C610 C 0.84901 0.88013 0.08045 0.0
C611 C 0.85117 0.93733 1.01467 0.0
C612 C 0.85688 0.95527 0.99896 0.0
C613 C 0.869 0.95231 0.97817 0.0
C614 C 0.87261 0.96921 0.96243 0.0
C615 C 0.8642 0.98944 0.96717 0.0
C616 C 0.85265 0.9924 0.98845 0.0
C617 C 0.84902 0.9755 1.00411 0.0
C618 C 0.90574 0.89159 0.04896 0.0
C619 C 0.88313 0.86934 0.98516 0.0
O620 O 0.8965 0.82758 0.05253 0.0
O621 O 0.86389 0.81685 0.04813 0.0
O622 O 0.84431 0.8721 0.03409 0.0
O623 O 0.84358 0.84449 1.01318 0.0
O624 O 0.85845 0.8619 0.075 0.0
O625 O 0.84845 0.89636 0.06543 0.0
O626 O 0.84702 0.91926 1.0041 0.0
O627 O 0.86177 0.93516 0.03473 0.0
O628 O 0.89139 0.87892 0.04279 0.0
O629 O 0.89947 0.91054 0.04343 0.0
O630 O 0.87522 0.8876 0.99261 0.0
O631 O 0.88558 0.85284 0.99976 0.0
H632 H 0.86235 0.81936 0.09843 0.0
H633 H 0.86223 0.79661 0.13394 0.0
H634 H 0.90591 0.75405 0.09899 0.0
H635 H 0.90621 0.77712 0.0639 0.0
H636 H 0.87526 0.93683 0.97381 0.0
H637 H 0.8814 0.96622 0.94617 0.0
H638 H 0.84624 0.00778 0.99295 0.0
H639 H 0.83968 0.97816 1.02007 0.0
Sm640 Sm 0.6532 0.61491 0.78461 0.0
Sm641 Sm 0.60655 0.62445 0.79302 0.0
C642 C 0.69122 0.60252 0.76981 0.0
C643 C 0.7078 0.60659 0.75186 0.0
C644 C 0.70336 0.61657 0.72999 0.0
C645 C 0.71946 0.61955 0.71304 0.0
C646 C 0.74028 0.61261 0.71771 0.0
C647 C 0.74461 0.60303 0.73991 0.0
C648 C 0.72854 0.60004 0.75674 0.0
C649 C 0.64604 0.65231 0.80856 0.0
C650 C 0.6245 0.63348 0.73926 0.0
C651 C 0.57071 0.63925 0.81185 0.0
C652 C 0.55533 0.63642 0.83186 0.0
C653 C 0.55681 0.64888 0.85271 0.0
C654 C 0.54114 0.64788 0.87049 0.0
C655 C 0.52343 0.63456 0.8678 0.0
C656 C 0.52224 0.62178 0.84717 0.0
C657 C 0.53789 0.62274 0.82945 0.0
C658 C 0.61386 0.58444 0.77452 0.0
C659 C 0.63395 0.59797 0.83469 0.0
O660 O 0.6735 0.594 0.76237 0.0
O661 O 0.68834 0.617 0.78616 0.0
O662 O 0.63515 0.6459 0.79082 0.0
O663 O 0.66168 0.6396 0.81275 0.0
O664 O 0.64193 0.62409 0.74685 0.0
O665 O 0.60883 0.63793 0.75423 0.0
O666 O 0.58946 0.64681 0.81697 0.0
O667 O 0.57129 0.62496 0.7949 0.0
O668 O 0.62491 0.59391 0.78991 0.0
O669 O 0.59728 0.59577 0.76931 0.0
O670 O 0.61701 0.60965 0.82973 0.0
O671 O 0.64908 0.5953 0.8187 0.0
H672 H 0.68745 0.62185 0.72594 0.0
H673 H 0.71549 0.62684 0.69609 0.0
H674 H 0.76047 0.59784 0.74435 0.0
H675 H 0.73232 0.59245 0.77359 0.0
H676 H 0.56984 0.65984 0.85506 0.0
H677 H 0.54257 0.65811 0.88595 0.0
H678 H 0.50906 0.61105 0.84459 0.0
H679 H 0.53607 0.61304 0.8136 0.0
Sm680 Sm 0.64094 0.39778 0.03074 0.0
Sm681 Sm 0.63478 0.35086 0.0405 0.0
C682 C 0.65095 0.43607 1.01473 0.0
C683 C 0.64719 0.45187 0.9956 0.0
C684 C 0.66457 0.45991 0.98292 0.0
C685 C 0.66196 0.47636 0.96646 0.0
C686 C 0.64188 0.48532 0.96234 0.0
C687 C 0.62435 0.47684 0.97456 0.0
C688 C 0.62697 0.46031 0.99106 0.0
C689 C 0.60524 0.3888 0.05697 0.0
C690 C 0.62309 0.36729 0.98655 0.0
C691 C 0.62305 0.31416 0.06007 0.0
C692 C 0.6261 0.30015 0.08134 0.0
C693 C 0.61279 0.30182 0.10145 0.0
C694 C 0.61435 0.28736 0.12045 0.0
C695 C 0.62919 0.27072 0.11989 0.0
C696 C 0.64264 0.26923 0.09987 0.0
C697 C 0.64107 0.28366 0.08087 0.0
C698 C 0.67375 0.36044 1.02058 0.0
C699 C 0.66005 0.38054 0.08092 0.0
O700 O 0.6617 0.41904 1.00926 0.0
O701 O 0.63573 0.43248 0.03003 0.0
O702 O 0.61138 0.37804 0.03901 0.0
O703 O 0.61731 0.40512 0.0603 0.0
O704 O 0.63029 0.3859 0.99356 0.0
O705 O 0.62151 0.35115 1.00161 0.0
O706 O 0.61264 0.33188 0.06292 0.0
O707 O 0.63863 0.316 0.04483 0.0
O708 O 0.66397 0.37109 0.03604 0.0
O709 O 0.66318 0.34328 1.01576 0.0
O710 O 0.64928 0.36288 0.07667 0.0
O711 O 0.66139 0.39553 0.06453 0.0
H712 H 0.68033 0.45374 0.98612 0.0
H713 H 0.67577 0.48215 0.95705 0.0
H714 H 0.60868 0.4834 0.97196 0.0
H715 H 0.61325 0.45451 1.00061 0.0
H716 H 0.60089 0.31412 0.10237 0.0
H717 H 0.60387 0.28925 0.13561 0.0
H718 H 0.65404 0.2565 0.0985 0.0
H719 H 0.65133 0.28159 0.06554 0.0
Sm720 Sm 0.85823 0.3924 0.28007 0.0
Sm721 Sm 0.90519 0.38569 0.29068 0.0
C722 C 0.82043 0.40305 0.26302 0.0
C723 C 0.80505 0.39868 0.24357 0.0
C724 C 0.79869 0.41529 0.22855 0.0
C725 C 0.78309 0.41212 0.21113 0.0
C726 C 0.77336 0.39224 0.20835 0.0
C727 C 0.77988 0.37551 0.22326 0.0
C728 C 0.79558 0.37868 0.24067 0.0
C729 C 0.86664 0.35635 0.30581 0.0
C730 C 0.88917 0.37435 0.23645 0.0
C731 C 0.94195 0.37296 0.30934 0.0
C732 C 0.95533 0.37333 0.33112 0.0
C733 C 0.97239 0.35923 0.33286 0.0
C734 C 0.98613 0.35984 0.35255 0.0
C735 C 0.98314 0.37462 0.37112 0.0
C736 C 0.96565 0.38848 0.36954 0.0
C737 C 0.9519 0.38785 0.34974 0.0
C738 C 0.89598 0.42461 0.27047 0.0
C739 C 0.87524 0.41058 0.33079 0.0
O740 O 0.83788 0.41302 0.25733 0.0
O741 O 0.82331 0.38851 0.27935 0.0
O742 O 0.8777 0.36277 0.28825 0.0
O743 O 0.85018 0.36828 0.30891 0.0
O744 O 0.87042 0.38135 0.24321 0.0
O745 O 0.90526 0.37303 0.25164 0.0
O746 O 0.92465 0.36162 0.30992 0.0
O747 O 0.93951 0.39072 0.2977 0.0
O748 O 0.88519 0.41495 0.28589 0.0
O749 O 0.91313 0.41395 0.26583 0.0
O750 O 0.89255 0.39912 0.32705 0.0
O751 O 0.86076 0.41275 0.31388 0.0
H752 H 0.80553 0.43092 0.23058 0.0
H753 H 0.77828 0.42545 0.20024 0.0
H754 H 0.77288 0.35995 0.22144 0.0
H755 H 0.80009 0.36554 0.252 0.0
H756 H 0.97537 0.34793 0.31867 0.0
H757 H 0.99951 0.34914 0.35279 0.0
H758 H 0.9626 0.39989 0.38356 0.0
H759 H 0.93878 0.39884 0.34883 0.0
Sm760 Sm 0.86612 0.60326 0.53444 0.0
Sm761 Sm 0.87394 0.65018 0.54285 0.0
C762 C 0.85563 0.56443 0.52037 0.0
C763 C 0.85842 0.54861 0.50127 0.0
C764 C 0.87062 0.55276 0.48085 0.0
C765 C 0.87307 0.53718 0.46315 0.0
C766 C 0.86338 0.51719 0.46563 0.0
C767 C 0.85135 0.5132 0.48632 0.0
C768 C 0.84889 0.52875 0.50388 0.0
C769 C 0.90246 0.61194 0.55979 0.0
C770 C 0.88346 0.63262 0.48906 0.0
C771 C 0.8873 0.68663 0.56165 0.0
C772 C 0.88468 0.70106 0.58256 0.0
C773 C 0.90144 0.70375 0.59889 0.0
C774 C 0.90001 0.71849 0.61761 0.0
C775 C 0.88179 0.73107 0.62049 0.0
C776 C 0.86491 0.72815 0.60426 0.0
C777 C 0.86634 0.71339 0.58556 0.0
C778 C 0.83454 0.64138 0.52352 0.0
C779 C 0.84812 0.62199 0.58429 0.0
O780 O 0.84431 0.5812 0.51544 0.0
O781 O 0.87217 0.56865 0.53359 0.0
O782 O 0.89635 0.62231 0.54154 0.0
O783 O 0.88985 0.59626 0.56409 0.0
O784 O 0.87472 0.61486 0.49662 0.0
O785 O 0.88729 0.64847 0.50403 0.0
O786 O 0.89669 0.66848 0.56532 0.0
O787 O 0.87189 0.68526 0.54605 0.0
O788 O 0.84408 0.63079 0.53923 0.0
O789 O 0.8455 0.65819 0.51827 0.0
O790 O 0.85924 0.6393 0.57941 0.0
O791 O 0.84622 0.60665 0.56837 0.0
H792 H 0.8782 0.568 0.47861 0.0
H793 H 0.88228 0.54091 0.44738 0.0
H794 H 0.84398 0.49793 0.48913 0.0
H795 H 0.83956 0.52519 0.51963 0.0
H796 H 0.91586 0.69462 0.59698 0.0
H797 H 0.91324 0.72001 0.62983 0.0
H798 H 0.85074 0.73771 0.60555 0.0
H799 H 0.85318 0.71196 0.57322 0.0
Sm800 Sm 0.65051 0.39302 0.7619 0.0
Sm801 Sm 0.60372 0.38509 0.75144 0.0
C802 C 0.68792 0.40497 0.77896 0.0
C803 C 0.70373 0.40094 0.79803 0.0
C804 C 0.71086 0.41793 0.81204 0.0
C805 C 0.72708 0.41512 0.8288 0.0
C806 C 0.73669 0.39521 0.8319 0.0
C807 C 0.72916 0.37804 0.81825 0.0
C808 C 0.71287 0.38087 0.80147 0.0
C809 C 0.64304 0.35638 0.73672 0.0
C810 C 0.62017 0.37412 0.80567 0.0
C811 C 0.56743 0.37117 0.73266 0.0
C812 C 0.55344 0.37234 0.71143 0.0
C813 C 0.53713 0.35744 0.7089 0.0
C814 C 0.52298 0.35854 0.68961 0.0
C815 C 0.52479 0.37458 0.67225 0.0
C816 C 0.5415 0.38929 0.67464 0.0
C817 C 0.55567 0.38819 0.69403 0.0
C818 C 0.612 0.42448 0.77103 0.0
C819 C 0.63299 0.41041 0.71088 0.0
O820 O 0.67009 0.41401 0.78514 0.0
O821 O 0.68554 0.39063 0.76229 0.0
O822 O 0.63172 0.3628 0.75409 0.0
O823 O 0.65933 0.36856 0.73369 0.0
O824 O 0.63868 0.38175 0.79888 0.0
O825 O 0.60415 0.37223 0.79044 0.0
O826 O 0.5855 0.36134 0.73024 0.0
O827 O 0.56889 0.38799 0.74617 0.0
O828 O 0.62304 0.41489 0.75577 0.0
O829 O 0.59505 0.41355 0.77571 0.0
O830 O 0.61568 0.39907 0.71505 0.0
O831 O 0.64772 0.41271 0.72752 0.0
H832 H 0.70411 0.43356 0.80972 0.0
H833 H 0.73213 0.42862 0.83929 0.0
H834 H 0.73626 0.36252 0.82002 0.0
H835 H 0.70774 0.36744 0.7909 0.0
H836 H 0.53509 0.34509 0.72214 0.0
H837 H 0.51022 0.34712 0.68875 0.0
H838 H 0.54366 0.40171 0.66154 0.0
H839 H 0.56821 0.3998 0.69556 0.0
Sm840 Sm 0.8655 0.40066 1.01244 0.0
Sm841 Sm 0.87338 0.35397 1.0019 0.0
C842 C 0.85408 0.43815 0.02958 0.0
C843 C 0.85826 0.45354 0.04901 0.0
C844 C 0.84119 0.46118 0.0625 0.0
C845 C 0.84428 0.47678 0.0799 0.0
C846 C 0.86456 0.48522 0.0842 0.0
C847 C 0.88173 0.4774 0.07082 0.0
C848 C 0.87863 0.46169 0.05344 0.0
C849 C 0.90223 0.39299 0.98757 0.0
C850 C 0.88445 0.3702 0.05603 0.0
C851 C 0.88709 0.31825 0.98183 0.0
C852 C 0.88432 0.30404 0.96077 0.0
C853 C 0.90079 0.3019 0.94404 0.0
C854 C 0.89929 0.28732 0.92516 0.0
C855 C 0.88128 0.27438 0.92253 0.0
C856 C 0.86468 0.27677 0.93916 0.0
C857 C 0.86617 0.29137 0.95801 0.0
C858 C 0.8338 0.36198 1.02114 0.0
C859 C 0.84776 0.38344 0.96155 0.0
O860 O 0.8445 0.42049 0.0353 0.0
O861 O 0.86865 0.43561 1.01322 0.0
O862 O 0.8957 0.38183 1.00499 0.0
O863 O 0.89002 0.40919 0.98414 0.0
O864 O 0.87641 0.38857 0.04942 0.0
O865 O 0.88671 0.35436 0.04068 0.0
O866 O 0.89591 0.33671 0.97823 0.0
O867 O 0.87208 0.31895 0.99791 0.0
O868 O 0.84351 0.37322 1.00617 0.0
O869 O 0.8447 0.34495 0.02559 0.0
O870 O 0.85891 0.36601 0.96576 0.0
O871 O 0.84574 0.39823 0.97811 0.0
H872 H 0.82531 0.45532 0.05927 0.0
H873 H 0.83064 0.48261 0.08959 0.0
H874 H 0.89758 0.48338 0.07385 0.0
H875 H 0.89213 0.4561 0.04332 0.0
H876 H 0.91506 0.3113 0.94576 0.0
H877 H 0.9123 0.2862 0.91263 0.0
H878 H 0.85069 0.26692 0.93806 0.0
H879 H 0.85325 0.29239 0.97066 0.0
Sm880 Sm 0.85487 0.61601 0.2614 0.0
Sm881 Sm 0.90183 0.62434 0.25323 0.0
C882 C 0.81627 0.60478 0.27565 0.0
C883 C 0.79987 0.60845 0.29397 0.0
C884 C 0.80427 0.61904 0.31549 0.0
C885 C 0.78831 0.62188 0.33266 0.0
C886 C 0.76763 0.61422 0.32858 0.0
C887 C 0.76335 0.60394 0.30674 0.0
C888 C 0.77929 0.60108 0.2897 0.0
C889 C 0.86329 0.65317 0.23754 0.0
C890 C 0.88396 0.6332 0.30711 0.0
C891 C 0.93811 0.6388 0.23519 0.0
C892 C 0.95409 0.63596 0.21603 0.0
C893 C 0.94876 0.6285 0.19309 0.0
C894 C 0.96428 0.62697 0.17513 0.0
C895 C 0.98546 0.63283 0.17974 0.0
C896 C 0.99056 0.64033 0.20279 0.0
C897 C 0.97511 0.64184 0.22064 0.0
C898 C 0.89352 0.58441 0.27132 0.0
C899 C 0.87393 0.59864 0.21129 0.0
O900 O 0.83354 0.59493 0.28225 0.0
O901 O 0.81989 0.62013 0.26057 0.0
O902 O 0.87381 0.64649 0.25542 0.0
O903 O 0.84741 0.64083 0.23305 0.0
O904 O 0.86628 0.6244 0.29934 0.0
O905 O 0.89978 0.63737 0.29224 0.0
O906 O 0.91945 0.64592 0.22901 0.0
O907 O 0.93721 0.62458 0.25215 0.0
O908 O 0.88265 0.59427 0.25608 0.0
O909 O 0.91036 0.59532 0.2766 0.0
O910 O 0.89129 0.60961 0.21649 0.0
O911 O 0.85851 0.59661 0.22707 0.0
H912 H 0.82004 0.62497 0.31904 0.0
H913 H 0.79229 0.6297 0.34931 0.0
H914 H 0.7476 0.59819 0.30268 0.0
H915 H 0.77552 0.59301 0.27312 0.0
H916 H 0.93262 0.62391 0.18904 0.0
H917 H 0.95975 0.62091 0.15774 0.0
H918 H 0.00653 0.64536 0.20703 0.0
H919 H 0.97958 0.64785 0.23809 0.0
Sm920 Sm 0.64357 0.60629 0.51361 0.0
Sm921 Sm 0.63683 0.65673 0.50394 0.0
C922 C 0.65928 0.57008 0.52963 0.0
C923 C 0.65476 0.55241 0.54624 0.0
C924 C 0.67148 0.54378 0.55954 0.0
C925 C 0.66797 0.52705 0.57542 0.0
C926 C 0.64758 0.51842 0.57837 0.0
C927 C 0.63075 0.52724 0.5651 0.0
C928 C 0.6343 0.54408 0.5492 0.0
C929 C 0.60362 0.61451 0.49434 0.0
C930 C 0.62606 0.63776 0.55766 0.0
C931 C 0.6255 0.69421 0.48634 0.0
C932 C 0.62398 0.70665 0.46388 0.0
C933 C 0.61014 0.72398 0.46278 0.0
C934 C 0.6101 0.73754 0.44291 0.0
C935 C 0.62397 0.73412 0.42357 0.0
C936 C 0.6373 0.7162 0.42438 0.0
C937 C 0.63732 0.70265 0.4443 0.0
C938 C 0.67496 0.64497 0.52417 0.0
C939 C 0.65996 0.62611 0.46238 0.0
O940 O 0.66349 0.58846 0.53942 0.0
O941 O 0.64795 0.57153 0.50998 0.0
O942 O 0.6178 0.62737 0.50057 0.0
O943 O 0.61015 0.59562 0.49991 0.0
O944 O 0.63401 0.61944 0.55044 0.0
O945 O 0.62354 0.65412 0.54289 0.0
O946 O 0.61205 0.67869 0.48965 0.0
O947 O 0.64455 0.68981 0.49412 0.0
O948 O 0.66462 0.63488 0.50859 0.0
O949 O 0.66531 0.6627 0.52904 0.0
O950 O 0.65029 0.6443 0.46755 0.0
O951 O 0.66079 0.6101 0.47771 0.0
H952 H 0.68737 0.55005 0.5577 0.0
H953 H 0.68126 0.52108 0.58563 0.0
H954 H 0.61487 0.52096 0.56675 0.0
H955 H 0.62109 0.55053 0.53921 0.0
H956 H 0.59979 0.72747 0.47771 0.0
H957 H 0.59979 0.75122 0.44322 0.0
H958 H 0.64796 0.71278 0.40974 0.0
H959 H 0.64814 0.68936 0.44467 0.0
Sm960 Sm 0.40326 0.38297 0.25226 0.0
Sm961 Sm 0.35642 0.39186 0.26191 0.0
C962 C 0.43913 0.3682 0.23327 0.0
C963 C 0.45385 0.36984 0.2127 0.0
C964 C 0.47127 0.35611 0.21156 0.0
C965 C 0.48565 0.3572 0.19252 0.0
C966 C 0.483 0.37207 0.17399 0.0
C967 C 0.46533 0.38575 0.17512 0.0
C968 C 0.45091 0.38463 0.19426 0.0
C969 C 0.3957 0.42262 0.27146 0.0
C970 C 0.37457 0.40938 0.21154 0.0
C971 C 0.31873 0.4032 0.27871 0.0
C972 C 0.30352 0.39901 0.29837 0.0
C973 C 0.29773 0.41558 0.31376 0.0
C974 C 0.28231 0.41255 0.33138 0.0
C975 C 0.27214 0.39286 0.334 0.0
C976 C 0.27809 0.37619 0.31872 0.0
C977 C 0.29361 0.37921 0.30113 0.0
C978 C 0.36376 0.35514 0.23687 0.0
C979 C 0.38614 0.37314 0.30637 0.0
O980 O 0.4205 0.35988 0.22929 0.0
O981 O 0.4384 0.38402 0.24833 0.0
O982 O 0.38443 0.41313 0.25629 0.0
O983 O 0.41255 0.4115 0.27612 0.0
O984 O 0.39173 0.39781 0.21594 0.0
O985 O 0.35967 0.41172 0.22791 0.0
O986 O 0.33628 0.41316 0.28409 0.0
O987 O 0.32145 0.38845 0.26259 0.0
O988 O 0.37477 0.36131 0.25463 0.0
O989 O 0.34788 0.36771 0.23323 0.0
O990 O 0.36836 0.38204 0.29913 0.0
O991 O 0.40193 0.3696 0.29122 0.0
H992 H 0.47388 0.34457 0.22559 0.0
H993 H 0.49914 0.34664 0.19266 0.0
H994 H 0.46253 0.39726 0.16114 0.0
H995 H 0.43752 0.39532 0.19469 0.0
H996 H 0.3049 0.43107 0.31188 0.0
H997 H 0.27795 0.42585 0.34255 0.0
H998 H 0.27079 0.36076 0.32039 0.0
H999 H 0.29765 0.36608 0.28954 0.0
Sm1000 Sm 0.37319 0.65294 1.00319 0.0
Sm1001 Sm 0.36659 0.60588 1.01079 0.0
C1002 C 0.3856 0.69029 0.98584 0.0
C1003 C 0.38467 0.70413 0.96444 0.0
C1004 C 0.39905 0.72096 0.96244 0.0
C1005 C 0.39807 0.73497 0.94302 0.0
C1006 C 0.38266 0.73251 0.92498 0.0
C1007 C 0.36849 0.71529 0.92684 0.0
C1008 C 0.36949 0.70127 0.94635 0.0
C1009 C 0.33388 0.64285 1.02187 0.0
C1010 C 0.34873 0.62434 0.96091 0.0
C1011 C 0.35765 0.5669 0.02558 0.0
C1012 C 0.36119 0.5519 0.04566 0.0
C1013 C 0.34434 0.54662 0.0609 0.0
C1014 C 0.34686 0.53125 0.07871 0.0
C1015 C 0.36628 0.52064 0.08165 0.0
C1016 C 0.38322 0.52607 0.06653 0.0
C1017 C 0.38071 0.5415 0.04875 0.0
C1018 C 0.40232 0.61562 0.98508 0.0
C1019 C 0.38309 0.63519 0.05681 0.0
O1020 O 0.39696 0.67305 0.98435 0.0
O1021 O 0.36813 0.6875 0.99792 0.0
O1022 O 0.34377 0.63281 1.00599 0.0
O1023 O 0.34474 0.65939 0.02841 0.0
O1024 O 0.35964 0.64177 0.96606 0.0
O1025 O 0.3468 0.60895 0.97674 0.0
O1026 O 0.34521 0.58314 0.02935 0.0
O1027 O 0.37379 0.57153 1.01193 0.0
O1028 O 0.39632 0.62558 1.00367 0.0
O1029 O 0.39003 0.59966 0.98076 0.0
O1030 O 0.37501 0.61727 0.04879 0.0
O1031 O 0.38624 0.65143 0.04222 0.0
H1032 H 0.41089 0.72352 0.9762 0.0
H1033 H 0.40905 0.74812 0.94259 0.0
H1034 H 0.35658 0.71261 0.91322 0.0
H1035 H 0.35827 0.68834 0.94744 0.0
H1036 H 0.32902 0.55408 0.05875 0.0
H1037 H 0.33337 0.52729 0.08975 0.0
H1038 H 0.39846 0.5184 0.06844 0.0
H1039 H 0.39402 0.54503 0.03723 0.0
Sm1040 Sm 0.10528 0.62254 0.75416 0.0
Sm1041 Sm 0.15206 0.61429 0.76234 0.0
C1042 C 0.06907 0.63646 0.73524 0.0
C1043 C 0.05451 0.63356 0.71445 0.0
C1044 C 0.0526 0.64964 0.69717 0.0
C1045 C 0.03795 0.64793 0.67837 0.0
C1046 C 0.02467 0.63011 0.67633 0.0
C1047 C 0.02674 0.61394 0.69357 0.0
C1048 C 0.04142 0.61564 0.71235 0.0
C1049 C 0.11352 0.58268 0.7723 0.0
C1050 C 0.13312 0.5969 0.71227 0.0
C1051 C 0.19063 0.60302 0.77662 0.0
C1052 C 0.20743 0.60742 0.79428 0.0
C1053 C 0.20317 0.61727 0.81626 0.0
C1054 C 0.21949 0.62051 0.83294 0.0
C1055 C 0.24036 0.61398 0.82789 0.0
C1056 C 0.2445 0.60455 0.80556 0.0
C1057 C 0.22822 0.60129 0.789 0.0
C1058 C 0.14371 0.65159 0.73869 0.0
C1059 C 0.12309 0.63141 0.80813 0.0
O1060 O 0.08749 0.64516 0.7311 0.0
O1061 O 0.07008 0.62154 0.75143 0.0
O1062 O 0.12441 0.59243 0.75701 0.0
O1063 O 0.09678 0.59369 0.77772 0.0
O1064 O 0.11593 0.60817 0.71729 0.0
O1065 O 0.14833 0.59458 0.72828 0.0
O1066 O 0.17328 0.59401 0.78431 0.0
O1067 O 0.18711 0.61746 0.7604 0.0
O1068 O 0.13323 0.64487 0.75653 0.0
O1069 O 0.15953 0.63923 0.73415 0.0
O1070 O 0.14083 0.62285 0.80026 0.0
O1071 O 0.10712 0.63535 0.79331 0.0
H1072 H 0.06232 0.66373 0.69837 0.0
H1073 H 0.03707 0.66061 0.66538 0.0
H1074 H 0.01663 0.60012 0.69294 0.0
H1075 H 0.04223 0.60304 0.72543 0.0
H1076 H 0.18723 0.62222 0.82061 0.0
H1077 H 0.21566 0.62767 0.85 0.0
H1078 H 0.26039 0.59968 0.80082 0.0
H1079 H 0.23186 0.59381 0.77205 0.0
Sm1080 Sm 0.13406 0.35223 0.50286 0.0
Sm1081 Sm 0.14177 0.39898 0.51337 0.0
C1082 C 0.11982 0.31615 0.48392 0.0
C1083 C 0.12103 0.30187 0.46296 0.0
C1084 C 0.13447 0.30595 0.44352 0.0
C1085 C 0.13537 0.2918 0.42411 0.0
C1086 C 0.12284 0.27329 0.42374 0.0
C1087 C 0.10929 0.26951 0.44326 0.0
C1088 C 0.10841 0.28362 0.46257 0.0
C1089 C 0.17341 0.36034 0.52259 0.0
C1090 C 0.16001 0.38157 0.46276 0.0
C1091 C 0.15279 0.43675 0.53017 0.0
C1092 C 0.14865 0.45214 0.54961 0.0
C1093 C 0.16572 0.4597 0.56323 0.0
C1094 C 0.16266 0.47531 0.58062 0.0
C1095 C 0.14242 0.48384 0.58479 0.0
C1096 C 0.12525 0.47613 0.57127 0.0
C1097 C 0.12831 0.4604 0.55389 0.0
C1098 C 0.10538 0.39107 0.48787 0.0
C1099 C 0.12344 0.36849 0.55719 0.0
O1100 O 0.11053 0.33445 0.48094 0.0
O1101 O 0.13638 0.31731 0.49792 0.0
O1102 O 0.16381 0.3716 0.50751 0.0
O1103 O 0.16251 0.34331 0.52699 0.0
O1104 O 0.14872 0.36417 0.46674 0.0
O1105 O 0.16189 0.39633 0.4794 0.0
O1106 O 0.16277 0.41928 0.5358 0.0
O1107 O 0.13802 0.43388 0.51406 0.0
O1108 O 0.11167 0.3801 0.50557 0.0
O1109 O 0.11769 0.40718 0.48443 0.0
O1110 O 0.13102 0.387 0.55041 0.0
O1111 O 0.12139 0.35254 0.54192 0.0
H1112 H 0.14428 0.32 0.4434 0.0
H1113 H 0.14584 0.29544 0.40936 0.0
H1114 H 0.09968 0.25534 0.44397 0.0
H1115 H 0.09795 0.28014 0.4774 0.0
H1116 H 0.18158 0.45377 0.56011 0.0
H1117 H 0.17631 0.48106 0.59042 0.0
H1118 H 0.10943 0.48218 0.57418 0.0
H1119 H 0.11481 0.45491 0.54366 0.0
Sm1120 Sm 0.40503 0.6219 0.29241 0.0
Sm1121 Sm 0.35816 0.61462 0.28448 0.0
C1122 C 0.44184 0.63456 0.31113 0.0
C1123 C 0.4566 0.63143 0.33177 0.0
C1124 C 0.45454 0.64348 0.35284 0.0
C1125 C 0.46953 0.64191 0.37134 0.0
C1126 C 0.48711 0.6283 0.36931 0.0
C1127 C 0.48902 0.61611 0.3483 0.0
C1128 C 0.47405 0.6177 0.3298 0.0
C1129 C 0.39598 0.58254 0.27328 0.0
C1130 C 0.37672 0.59637 0.33413 0.0
C1131 C 0.31933 0.6052 0.26939 0.0
C1132 C 0.30412 0.60874 0.24951 0.0
C1133 C 0.29717 0.59143 0.23585 0.0
C1134 C 0.28154 0.59398 0.21831 0.0
C1135 C 0.27234 0.61391 0.21406 0.0
C1136 C 0.27949 0.63131 0.22757 0.0
C1137 C 0.2952 0.62877 0.24508 0.0
C1138 C 0.36732 0.65075 0.30997 0.0
C1139 C 0.38715 0.63196 0.23885 0.0
O1140 O 0.42378 0.64406 0.3151 0.0
O1141 O 0.44019 0.61946 0.29522 0.0
O1142 O 0.38541 0.59213 0.28898 0.0
O1143 O 0.41273 0.59349 0.26779 0.0
O1144 O 0.3942 0.60717 0.32902 0.0
O1145 O 0.36119 0.59471 0.31841 0.0
O1146 O 0.33582 0.59322 0.26518 0.0
O1147 O 0.32367 0.62116 0.28346 0.0
O1148 O 0.37741 0.64477 0.29147 0.0
O1149 O 0.35168 0.63811 0.31445 0.0
O1150 O 0.36948 0.62326 0.24664 0.0
O1151 O 0.40323 0.63555 0.25363 0.0
H1152 H 0.44147 0.65442 0.35494 0.0
H1153 H 0.46731 0.65138 0.38728 0.0
H1154 H 0.50245 0.6057 0.34581 0.0
H1155 H 0.47642 0.60846 0.3137 0.0
H1156 H 0.30353 0.57577 0.23907 0.0
H1157 H 0.27625 0.58016 0.20852 0.0
H1158 H 0.27294 0.64693 0.2246 0.0
H1159 H 0.30012 0.64246 0.25533 0.0
Sm1160 Sm 0.13417 0.65046 0.04413 0.0
Sm1161 Sm 0.14191 0.60364 0.03591 0.0
C1162 C 0.12058 0.68732 0.06166 0.0
C1163 C 0.12187 0.70175 0.08249 0.0
C1164 C 0.10795 0.719 0.08377 0.0
C1165 C 0.10897 0.73331 0.10289 0.0
C1166 C 0.12396 0.73073 0.12134 0.0
C1167 C 0.13775 0.71317 0.12014 0.0
C1168 C 0.13671 0.69883 0.10091 0.0
C1169 C 0.17396 0.64149 0.026 0.0
C1170 C 0.15906 0.6221 0.08629 0.0
C1171 C 0.15233 0.56535 1.0201 0.0
C1172 C 0.14849 0.5504 1.00004 0.0
C1173 C 0.16505 0.54545 0.98426 0.0
C1174 C 0.16228 0.53028 0.96627 0.0
C1175 C 0.14288 0.51954 0.96366 0.0
C1176 C 0.12623 0.52462 0.97935 0.0
C1177 C 0.12899 0.53986 0.99731 0.0
C1178 C 0.1053 0.61205 0.06054 0.0
C1179 C 0.12477 0.63296 0.99026 0.0
O1180 O 0.11062 0.6694 0.06465 0.0
O1181 O 0.13738 0.6854 0.04822 0.0
O1182 O 0.16407 0.63103 0.04152 0.0
O1183 O 0.16286 0.6579 1.01962 0.0
O1184 O 0.14808 0.63947 0.08115 0.0
O1185 O 0.16118 0.60677 0.07039 0.0
O1186 O 0.16354 0.58232 1.01564 0.0
O1187 O 0.1368 0.5689 0.03501 0.0
O1188 O 0.11158 0.62265 0.04251 0.0
O1189 O 0.11772 0.59617 0.0647 0.0
O1190 O 0.13314 0.61513 0.99807 0.0
O1191 O 0.12132 0.64902 1.00503 0.0
H1192 H 0.09638 0.72157 0.06974 0.0
H1193 H 0.09832 0.74673 0.10284 0.0
H1194 H 0.14935 0.71044 0.13408 0.0
H1195 H 0.14755 0.68557 0.10036 0.0
H1196 H 0.18034 0.55306 0.98611 0.0
H1197 H 0.17555 0.52659 0.95477 0.0
H1198 H 0.11102 0.51684 0.97771 0.0
H1199 H 0.11589 0.54319 1.00921 0.0
Sm1200 Sm 0.10321 0.38379 0.79205 0.0
Sm1201 Sm 0.15012 0.39086 0.78208 0.0
C1202 C 0.0666 0.37051 0.81052 0.0
C1203 C 0.05259 0.37178 0.83171 0.0
C1204 C 0.03492 0.3584 0.83299 0.0
C1205 C 0.02086 0.3596 0.85231 0.0
C1206 C 0.02412 0.37424 0.87098 0.0
C1207 C 0.04213 0.38746 0.86977 0.0
C1208 C 0.0562 0.38625 0.85034 0.0
C1209 C 0.11202 0.42287 0.77212 0.0
C1210 C 0.13245 0.40942 0.83237 0.0
C1211 C 0.18822 0.40183 0.76626 0.0
C1212 C 0.20491 0.39685 0.74867 0.0
C1213 C 0.20027 0.38829 0.72606 0.0
C1214 C 0.21653 0.38491 0.70939 0.0
C1215 C 0.23768 0.39009 0.71503 0.0
C1216 C 0.24218 0.39816 0.73795 0.0
C1217 C 0.22598 0.40149 0.75453 0.0
C1218 C 0.14167 0.3546 0.80755 0.0
C1219 C 0.11977 0.37257 0.73798 0.0
O1220 O 0.08446 0.36026 0.81287 0.0
O1221 O 0.06845 0.38743 0.79727 0.0
O1222 O 0.123 0.41329 0.78748 0.0
O1223 O 0.09493 0.4121 0.76748 0.0
O1224 O 0.11523 0.39785 0.82845 0.0
O1225 O 0.14701 0.41159 0.81558 0.0
O1226 O 0.17059 0.41014 0.75827 0.0
O1227 O 0.18525 0.38831 0.78362 0.0
O1228 O 0.13082 0.36099 0.78979 0.0
O1229 O 0.15801 0.36662 0.81093 0.0
O1230 O 0.13841 0.37976 0.74498 0.0
O1231 O 0.10363 0.37099 0.75302 0.0
H1232 H 0.03178 0.34715 0.81878 0.0
H1233 H 0.00709 0.34939 0.85224 0.0
H1234 H 0.0454 0.39876 0.88386 0.0
H1235 H 0.06979 0.39669 0.84977 0.0
H1236 H 0.18409 0.38455 0.72118 0.0
H1237 H 0.21246 0.37881 0.69187 0.0
H1238 H 0.25827 0.40197 0.74309 0.0
H1239 H 0.22991 0.40801 0.77192 0.0
Sm1240 Sm 0.37307 0.35277 0.54173 0.0
Sm1241 Sm 0.36424 0.39954 0.53278 0.0
C1242 C 0.38726 0.3171 0.56155 0.0
C1243 C 0.38422 0.30272 0.58243 0.0
C1244 C 0.40039 0.3006 0.5996 0.0
C1245 C 0.39857 0.28605 0.61846 0.0
C1246 C 0.38053 0.27309 0.62067 0.0
C1247 C 0.36425 0.27541 0.60355 0.0
C1248 C 0.36607 0.28998 0.58472 0.0
C1249 C 0.33333 0.36045 0.52278 0.0
C1250 C 0.34657 0.38099 0.5828 0.0
C1251 C 0.35301 0.43749 0.51673 0.0
C1252 C 0.35728 0.4532 0.49769 0.0
C1253 C 0.34021 0.46191 0.48502 0.0
C1254 C 0.34346 0.47806 0.46832 0.0
C1255 C 0.36392 0.48601 0.46394 0.0
C1256 C 0.38112 0.47687 0.47623 0.0
C1257 C 0.37784 0.46065 0.49294 0.0
C1258 C 0.40107 0.39176 0.55754 0.0
C1259 C 0.3829 0.37024 0.48791 0.0
O1260 O 0.39562 0.3357 0.56564 0.0
O1261 O 0.37262 0.31764 0.54496 0.0
O1262 O 0.34287 0.37157 0.53804 0.0
O1263 O 0.34443 0.34364 0.5179 0.0
O1264 O 0.35806 0.36387 0.5781 0.0
O1265 O 0.34428 0.39611 0.56668 0.0
O1266 O 0.34317 0.42006 0.51065 0.0
O1267 O 0.36768 0.43445 0.5329 0.0
O1268 O 0.39485 0.38114 0.53954 0.0
O1269 O 0.38843 0.40746 0.56171 0.0
O1270 O 0.37386 0.38789 0.49532 0.0
O1271 O 0.38664 0.35441 0.50294 0.0
H1272 H 0.41465 0.31005 0.59827 0.0
H1273 H 0.41134 0.285 0.63135 0.0
H1274 H 0.35025 0.26555 0.6043 0.0
H1275 H 0.35336 0.29098 0.57174 0.0
H1276 H 0.32421 0.45645 0.48835 0.0
H1277 H 0.32988 0.48435 0.45887 0.0
H1278 H 0.39706 0.48265 0.47346 0.0
H1279 H 0.39135 0.45425 0.50245 0.0
H1280 H 0.23538 0.09723 0.16618 0.0
H1281 H 0.26922 0.13809 0.21497 0.0
H1282 H 0.26409 0.10025 0.13746 0.0
H1283 H 0.29812 0.14113 0.18606 0.0
H1284 H 0.33498 0.15639 0.11481 0.0
H1285 H 0.30795 0.15502 0.1462 0.0
H1286 H 0.30019 0.08803 0.13372 0.0
H1287 H 0.32671 0.08943 0.10239 0.0
C1288 C 0.24901 0.10678 0.17086 0.0
C1289 C 0.25002 0.11723 0.19304 0.0
C1290 C 0.26553 0.1085 0.15437 0.0
C1291 C 0.28362 0.12069 0.15955 0.0
C1292 C 0.28441 0.13168 0.18143 0.0
C1293 C 0.26781 0.12995 0.19799 0.0
C1294 C 0.32774 0.14132 0.11908 0.0
C1295 C 0.33288 0.12307 0.10589 0.0
C1296 C 0.31222 0.14054 0.13705 0.0
C1297 C 0.30156 0.12149 0.14218 0.0
C1298 C 0.30762 0.10309 0.12983 0.0
C1299 C 0.323 0.10387 0.11195 0.0
H1300 H 0.16661 0.07696 0.35116 0.0
H1301 H 0.10013 0.08577 0.36618 0.0
H1302 H 0.16942 0.05255 0.38462 0.0
H1303 H 0.10302 0.06127 0.39998 0.0
H1304 H 0.11344 0.99463 0.43559 0.0
H1305 H 0.10892 0.02262 0.40589 0.0
H1306 H 0.16798 0.05072 0.42837 0.0
H1307 H 0.17239 0.02302 0.45822 0.0
C1308 C 0.15262 0.0739 0.36179 0.0
C1309 C 0.13313 0.08335 0.3559 0.0
C1310 C 0.15426 0.05994 0.3811 0.0
C1311 C 0.13644 0.05487 0.39501 0.0
C1312 C 0.11702 0.06467 0.3895 0.0
C1313 C 0.11541 0.07885 0.37025 0.0
C1314 C 0.1253 0.00696 0.43451 0.0
C1315 C 0.14341 0.00634 0.44922 0.0
C1316 C 0.1227 0.02304 0.41744 0.0
C1317 C 0.13817 0.03885 0.41458 0.0
C1318 C 0.15594 0.03859 0.42976 0.0
C1319 C 0.15849 0.02262 0.44687 0.0
H1320 H 0.267 0.91272 0.66932 0.0
H1321 H 0.2357 0.86658 0.71391 0.0
H1322 H 0.23877 0.90962 0.63986 0.0
H1323 H 0.20727 0.86353 0.68439 0.0
H1324 H 0.17274 0.84874 0.61221 0.0
H1325 H 0.19901 0.85106 0.64425 0.0
H1326 H 0.20222 0.91878 0.63457 0.0
H1327 H 0.17642 0.91644 0.6024 0.0
C1328 C 0.254 0.90202 0.67295 0.0
C1329 C 0.25363 0.89 0.6941 0.0
C1330 C 0.23773 0.90027 0.65605 0.0
C1331 C 0.22054 0.88648 0.6598 0.0
C1332 C 0.22031 0.87419 0.68078 0.0
C1333 C 0.23664 0.87592 0.69771 0.0
C1334 C 0.17879 0.86417 0.61718 0.0
C1335 C 0.17255 0.88237 0.60452 0.0
C1336 C 0.19389 0.8655 0.63558 0.0
C1337 C 0.20307 0.88507 0.64177 0.0
C1338 C 0.19595 0.90336 0.62991 0.0
C1339 C 0.18097 0.90203 0.61154 0.0
H1340 H 0.40656 0.92099 0.86437 0.0
H1341 H 0.33926 0.9278 0.85297 0.0
H1342 H 0.40461 0.94612 0.89771 0.0
H1343 H 0.33738 0.95288 0.88584 0.0
H1344 H 0.33683 0.9844 0.95824 0.0
H1345 H 0.34058 0.95603 0.92908 0.0
H1346 H 0.39812 0.98465 0.9029 0.0
H1347 H 0.39428 0.01325 0.93201 0.0
C1348 C 0.39132 0.92758 0.86917 0.0
C1349 C 0.37307 0.92237 0.85596 0.0
C1350 C 0.39024 0.94213 0.88812 0.0
C1351 C 0.37085 0.9516 0.89443 0.0
C1352 C 0.35254 0.94577 0.8817 0.0
C1353 C 0.35365 0.93142 0.86272 0.0
C1354 C 0.35023 0.98478 0.94619 0.0
C1355 C 0.3651 1.00134 0.94735 0.0
C1356 C 0.35242 0.96842 0.9295 0.0
C1357 C 0.36959 0.96808 0.91352 0.0
C1358 C 0.38483 0.98427 0.91511 0.0
C1359 C 0.3826 1.00071 0.9318 0.0
H1360 H 0.32755 0.91721 0.44212 0.0
H1361 H 0.33632 0.85031 0.42981 0.0
H1362 H 0.30197 0.91863 0.40971 0.0
H1363 H 0.3107 0.85181 0.39688 0.0
H1364 H 0.24325 0.86011 0.36285 0.0
H1365 H 0.27208 0.85698 0.39185 0.0
H1366 H 0.2983 0.91599 0.36667 0.0
H1367 H 0.26968 0.91906 0.33769 0.0
C1368 C 0.32426 0.90281 0.43227 0.0
C1369 C 0.33402 0.88363 0.43866 0.0
C1370 C 0.30961 0.90366 0.41354 0.0
C1371 C 0.30419 0.88533 0.40066 0.0
C1372 C 0.31434 0.86619 0.40659 0.0
C1373 C 0.32918 0.86537 0.42532 0.0
C1374 C 0.2553 0.87229 0.36329 0.0
C1375 C 0.25393 0.88997 0.34805 0.0
C1376 C 0.27188 0.87047 0.37991 0.0
C1377 C 0.28748 0.88629 0.38173 0.0
C1378 C 0.28637 0.90369 0.36609 0.0
C1379 C 0.26987 0.90549 0.34949 0.0
H1380 H 0.34991 0.98624 0.62696 0.0
H1381 H 0.38532 0.02506 0.57762 0.0
H1382 H 0.35194 0.01416 0.65688 0.0
H1383 H 0.38739 0.05309 0.6077 0.0
H1384 H 0.4038 0.08857 0.67917 0.0
H1385 H 0.40276 0.06234 0.64694 0.0
H1386 H 0.33732 0.04907 0.66344 0.0
H1387 H 0.33841 0.07485 0.69562 0.0
C1388 C 0.35802 1.00079 0.62242 0.0
C1389 C 0.36731 0.0034 0.59977 0.0
C1390 C 0.35918 0.01684 0.63959 0.0
C1391 C 0.36963 0.03601 0.63463 0.0
C1392 C 0.37934 0.03849 0.61218 0.0
C1393 C 0.37817 0.02239 0.59495 0.0
C1394 C 0.38912 0.08027 0.67568 0.0
C1395 C 0.37126 0.08371 0.69017 0.0
C1396 C 0.38852 0.06521 0.6572 0.0
C1397 C 0.37006 0.0533 0.65285 0.0
C1398 C 0.35197 0.05754 0.66665 0.0
C1399 C 0.35256 0.07249 0.68503 0.0
H1400 H 0.16788 0.15625 0.93063 0.0
H1401 H 0.18038 0.09087 0.94813 0.0
H1402 H 0.19298 0.15394 0.89737 0.0
H1403 H 0.20547 0.08868 0.91537 0.0
H1404 H 0.23638 0.0853 0.84269 0.0
H1405 H 0.20826 0.08868 0.87216 0.0
H1406 H 0.23166 0.1505 0.8918 0.0
H1407 H 0.25998 0.14708 0.86233 0.0
C1408 C 0.17575 0.14133 0.92724 0.0
C1409 C 0.17209 0.12376 0.94211 0.0
C1410 C 0.19029 0.14006 0.90831 0.0
C1411 C 0.20134 0.12114 0.9037 0.0
C1412 C 0.19713 0.10344 0.91816 0.0
C1413 C 0.18275 0.10474 0.93708 0.0
C1414 C 0.23568 0.09957 0.85338 0.0
C1415 C 0.25068 0.11581 0.85024 0.0
C1416 C 0.21947 0.10154 0.87026 0.0
C1417 C 0.21771 0.11982 0.88449 0.0
C1418 C 0.23236 0.1363 0.88097 0.0
C1419 C 0.24864 0.13432 0.86408 0.0
H1420 H 0.0985 0.92032 0.18075 0.0
H1421 H 0.16569 0.92802 0.19231 0.0
H1422 H 0.10009 0.94589 0.14784 0.0
H1423 H 0.16721 0.95352 0.15987 0.0
H1424 H 0.16744 0.98608 0.08828 0.0
H1425 H 0.16393 0.95712 0.11668 0.0
H1426 H 0.10606 0.98462 0.14346 0.0
H1427 H 0.10963 0.01379 0.11505 0.0
C1428 C 0.11364 0.92719 0.17606 0.0
C1429 C 0.13196 0.92212 0.1892 0.0
C1430 C 0.11451 0.942 0.15736 0.0
C1431 C 0.13377 0.95183 0.15125 0.0
C1432 C 0.15216 0.94613 0.16388 0.0
C1433 C 0.15126 0.93153 0.1826 0.0
C1434 C 0.15401 0.98607 0.10029 0.0
C1435 C 0.13898 1.00249 0.09954 0.0
C1436 C 0.15196 0.96939 0.11654 0.0
C1437 C 0.13479 0.96859 0.13249 0.0
C1438 C 0.11936 0.98461 0.13126 0.0
C1439 C 0.12144 1.00137 0.11499 0.0
H1440 H 0.76177 0.86149 0.8597 0.0
H1441 H 0.74137 0.9246 0.84109 0.0
H1442 H 0.73337 0.85918 0.88918 0.0
H1443 H 0.71312 0.92232 0.87054 0.0
H1444 H 0.6839 0.92033 0.94581 0.0
H1445 H 0.70954 0.92189 0.91354 0.0
H1446 H 0.69479 0.85734 0.89434 0.0
H1447 H 0.6692 0.85562 0.9271 0.0
C1448 C 0.75113 0.8748 0.8617 0.0
C1449 C 0.75405 0.89331 0.8481 0.0
C1450 C 0.73479 0.87346 0.87859 0.0
C1451 C 0.72096 0.89059 0.88235 0.0
C1452 C 0.72368 0.90894 0.86846 0.0
C1453 C 0.73996 0.91028 0.85158 0.0
C1454 C 0.6859 0.90649 0.9346 0.0
C1455 C 0.67445 0.88783 0.93915 0.0
C1456 C 0.7006 0.90743 0.91596 0.0
C1457 C 0.70434 0.88973 0.90132 0.0
C1458 C 0.69251 0.87119 0.90545 0.0
C1459 C 0.67768 0.87028 0.9241 0.0
H1460 H 0.8866 0.98724 0.57733 0.0
H1461 H 0.84192 0.01789 0.62432 0.0
H1462 H 0.89094 0.95863 0.60653 0.0
H1463 H 0.8463 0.98963 0.65334 0.0
H1464 H 0.83929 0.92714 0.68925 0.0
H1465 H 0.83671 0.95305 0.65735 0.0
H1466 H 0.90434 0.94971 0.64676 0.0
H1467 H 0.90688 0.92321 0.67866 0.0
C1468 C 0.87786 0.98799 0.59396 0.0
C1469 C 0.86369 0.00474 0.59832 0.0
C1470 C 0.88034 0.97158 0.6107 0.0
C1471 C 0.86871 0.97159 0.63216 0.0
C1472 C 0.85508 0.98872 0.63674 0.0
C1473 C 0.85258 0.005 0.62008 0.0
C1474 C 0.85363 0.93169 0.67998 0.0
C1475 C 0.87332 0.9232 0.6867 0.0
C1476 C 0.85216 0.94673 0.66176 0.0
C1477 C 0.87037 0.95387 0.64978 0.0
C1478 C 0.88999 0.94458 0.6556 0.0
C1479 C 0.89145 0.92937 0.67387 0.0
H1480 H 0.74408 0.14423 0.36188 0.0
H1481 H 0.77445 0.08727 0.33645 0.0
H1482 H 0.77211 0.14871 0.39158 0.0
H1483 H 0.80225 0.09166 0.36629 0.0
H1484 H 0.82965 0.09164 0.44319 0.0
H1485 H 0.80522 0.0888 0.40967 0.0
H1486 H 0.81019 0.15609 0.39761 0.0
H1487 H 0.83459 0.15902 0.43146 0.0
C1488 C 0.75686 0.13281 0.36235 0.0
C1489 C 0.75679 0.11526 0.34682 0.0
C1490 C 0.77296 0.1354 0.37943 0.0
C1491 C 0.78941 0.12047 0.38149 0.0
C1492 C 0.78965 0.10326 0.36553 0.0
C1493 C 0.77363 0.10072 0.34842 0.0
C1494 C 0.82579 0.10584 0.43326 0.0
C1495 C 0.83413 0.12558 0.44015 0.0
C1496 C 0.8118 0.10418 0.41391 0.0
C1497 C 0.80561 0.12223 0.40094 0.0
C1498 C 0.81441 0.1419 0.40736 0.0
C1499 C 0.82858 0.14354 0.42666 0.0
H1500 H 0.61824 0.02633 0.07932 0.0
H1501 H 0.65713 0.98924 0.1271 0.0
H1502 H 0.61605 0.05431 0.10943 0.0
H1503 H 0.65442 0.01685 0.15736 0.0
H1504 H 0.66587 0.07838 0.19603 0.0
H1505 H 0.6675 0.05263 0.16382 0.0
H1506 H 0.6011 0.06241 0.14915 0.0
H1507 H 0.59943 0.08851 0.1814 0.0
C1508 C 0.62629 0.02411 0.09625 0.0
C1509 C 0.63793 0.00551 0.10071 0.0
C1510 C 0.62487 0.04009 0.11359 0.0
C1511 C 0.63519 0.03795 0.13578 0.0
C1512 C 0.64654 0.01921 0.14034 0.0
C1513 C 0.64787 1.00322 0.12308 0.0
C1514 C 0.65161 0.0753 0.18582 0.0
C1515 C 0.63247 0.08552 0.19151 0.0
C1516 C 0.65253 0.06034 0.16743 0.0
C1517 C 0.63436 0.05514 0.15411 0.0
C1518 C 0.61542 0.06604 0.159 0.0
C1519 C 0.61447 0.08104 0.17752 0.0
H1520 H 0.7696 0.09648 0.66668 0.0
H1521 H 0.73597 0.13744 0.71542 0.0
H1522 H 0.74078 0.09946 0.63798 0.0
H1523 H 0.70695 0.14042 0.68655 0.0
H1524 H 0.6699 0.15564 0.61546 0.0
H1525 H 0.69709 0.15427 0.64673 0.0
H1526 H 0.70465 0.08724 0.63433 0.0
H1527 H 0.67795 0.08864 0.60309 0.0
C1528 C 0.75599 0.10604 0.67134 0.0
C1529 C 0.75506 0.11654 0.69349 0.0
C1530 C 0.73941 0.10773 0.65488 0.0
C1531 C 0.72136 0.11993 0.66007 0.0
C1532 C 0.72064 0.13096 0.68192 0.0
C1533 C 0.7373 0.12927 0.69845 0.0
C1534 C 0.67714 0.14056 0.6197 0.0
C1535 C 0.67188 0.1223 0.60657 0.0
C1536 C 0.69275 0.13978 0.63761 0.0
C1537 C 0.70338 0.12072 0.64273 0.0
C1538 C 0.69723 0.10231 0.63044 0.0
C1539 C 0.68175 0.10309 0.61261 0.0
H1540 H 0.62392 0.98165 0.46574 0.0
H1541 H 0.65686 0.02198 0.41578 0.0
H1542 H 0.622 0.95384 0.43546 0.0
H1543 H 0.65494 0.99427 0.38559 0.0
H1544 H 0.66829 0.93422 0.34494 0.0
H1545 H 0.66988 0.96002 0.37712 0.0
H1546 H 0.60579 0.94435 0.39726 0.0
H1547 H 0.60429 0.91811 0.36514 0.0
C1548 C 0.63056 0.9847 0.44823 0.0
C1549 C 0.64064 0.00409 0.44329 0.0
C1550 C 0.62948 0.96871 0.43086 0.0
C1551 C 0.63847 0.97167 0.4081 0.0
C1552 C 0.64825 0.99119 0.40307 0.0
C1553 C 0.64933 0.00714 0.4204 0.0
C1554 C 0.65456 0.93606 0.35634 0.0
C1555 C 0.63611 0.9241 0.3523 0.0
C1556 C 0.65543 0.95104 0.37472 0.0
C1557 C 0.63786 0.95457 0.38962 0.0
C1558 C 0.61966 0.94202 0.38622 0.0
C1559 C 0.61879 0.92696 0.36776 0.0
H1560 H 0.83149 0.91558 0.10007 0.0
H1561 H 0.83586 0.84796 0.11017 0.0
H1562 H 0.80543 0.9177 0.13188 0.0
H1563 H 0.80937 0.85007 0.14192 0.0
H1564 H 0.77206 0.86582 0.21119 0.0
H1565 H 0.80073 0.86283 0.18204 0.0
H1566 H 0.76884 0.90783 0.13639 0.0
H1567 H 0.74034 0.91083 0.1654 0.0
C1568 C 0.82706 0.90115 0.10922 0.0
C1569 C 0.83574 0.88157 0.10237 0.0
C1570 C 0.81192 0.90235 0.12738 0.0
C1571 C 0.80494 0.88401 0.13922 0.0
C1572 C 0.81439 0.86453 0.13324 0.0
C1573 C 0.82962 0.86333 0.11503 0.0
C1574 C 0.77107 0.87491 0.19481 0.0
C1575 C 0.75391 0.88868 0.19076 0.0
C1576 C 0.78755 0.87322 0.17811 0.0
C1577 C 0.78728 0.88527 0.15695 0.0
C1578 C 0.76989 0.8987 0.15273 0.0
C1579 C 0.75348 0.90039 0.16938 0.0
H1580 H 0.84119 0.07383 0.84847 0.0
H1581 H 0.90547 0.08978 0.86787 0.0
H1582 H 0.8393 0.04938 0.88183 0.0
H1583 H 0.90341 0.06538 0.9018 0.0
H1584 H 0.89897 0.99967 0.93973 0.0
H1585 H 0.90181 0.02716 0.9092 0.0
H1586 H 0.83792 0.04717 0.92466 0.0
H1587 H 0.83477 0.01926 0.95436 0.0
C1588 C 0.85487 0.07236 0.86005 0.0
C1589 C 0.87351 0.08382 0.85536 0.0
C1590 C 0.85373 0.05835 0.87934 0.0
C1591 C 0.8712 0.05532 0.89459 0.0
C1592 C 0.88973 0.06713 0.89028 0.0
C1593 C 0.89085 0.08127 0.87094 0.0
C1594 C 0.8855 0.00988 0.93657 0.0
C1595 C 0.8666 0.00709 0.94953 0.0
C1596 C 0.88722 0.02585 0.91924 0.0
C1597 C 0.87007 0.0394 0.91434 0.0
C1598 C 0.85138 0.0369 0.92769 0.0
C1599 C 0.84966 0.02099 0.94499 0.0
H1600 H 0.74809 0.64598 0.68726 0.0
H1601 H 0.77119 0.58394 0.70649 0.0
H1602 H 0.77555 0.64867 0.65663 0.0
H1603 H 0.799 0.58699 0.67671 0.0
H1604 H 0.82658 0.5878 0.60112 0.0
H1605 H 0.80152 0.58634 0.63389 0.0
H1606 H 0.81398 0.65201 0.65009 0.0
H1607 H 0.83899 0.65363 0.61667 0.0
C1608 C 0.75903 0.63295 0.68503 0.0
C1609 C 0.75734 0.61473 0.69938 0.0
C1610 C 0.77496 0.6346 0.66767 0.0
C1611 C 0.78952 0.61804 0.66415 0.0
C1612 C 0.78796 0.59997 0.67871 0.0
C1613 C 0.77209 0.59832 0.69602 0.0
C1614 C 0.8242 0.60194 0.61175 0.0
C1615 C 0.83484 0.62085 0.60618 0.0
C1616 C 0.80984 0.60105 0.63069 0.0
C1617 C 0.80566 0.61905 0.64468 0.0
C1618 C 0.81664 0.6379 0.63951 0.0
C1619 C 0.83114 0.63877 0.62051 0.0
H1620 H 0.66823 0.57815 0.85377 0.0
H1621 H 0.60117 0.58717 0.86476 0.0
H1622 H 0.66908 0.55247 0.88606 0.0
H1623 H 0.60208 0.56141 0.89753 0.0
H1624 H 0.60996 0.49316 0.9299 0.0
H1625 H 0.60719 0.52255 0.90166 0.0
H1626 H 0.66556 0.54859 0.92916 0.0
H1627 H 0.66827 0.51941 0.95739 0.0
C1628 C 0.65369 0.57489 0.86334 0.0
C1629 C 0.63463 0.58472 0.85662 0.0
C1630 C 0.65421 0.56019 0.88198 0.0
C1631 C 0.63564 0.55479 0.89439 0.0
C1632 C 0.61663 0.56506 0.88817 0.0
C1633 C 0.61615 0.57997 0.86956 0.0
C1634 C 0.62205 0.5053 0.93014 0.0
C1635 C 0.63949 0.50371 0.94576 0.0
C1636 C 0.62044 0.52219 0.91397 0.0
C1637 C 0.63623 0.53788 0.91301 0.0
C1638 C 0.65331 0.53659 0.9291 0.0
C1639 C 0.6549 0.51978 0.94525 0.0
H1640 H 0.67061 0.34952 0.11344 0.0
H1641 H 0.68124 0.4154 0.09671 0.0
H1642 H 0.69755 0.35156 0.14488 0.0
H1643 H 0.70771 0.41749 0.12817 0.0
H1644 H 0.7719 0.4075 0.16258 0.0
H1645 H 0.74331 0.40436 0.13358 0.0
H1646 H 0.7073 0.36701 0.1838 0.0
H1647 H 0.73606 0.37014 0.21295 0.0
C1648 C 0.67838 0.36452 0.11673 0.0
C1649 C 0.67387 0.38224 0.10237 0.0
C1650 C 0.69384 0.36569 0.13476 0.0
C1651 C 0.70509 0.3846 0.1388 0.0
C1652 C 0.69977 0.40253 0.12518 0.0
C1653 C 0.68442 0.40136 0.10723 0.0
C1654 C 0.75785 0.39871 0.16754 0.0
C1655 C 0.75625 0.38923 0.19021 0.0
C1656 C 0.7414 0.39693 0.1509 0.0
C1657 C 0.72283 0.38566 0.15644 0.0
C1658 C 0.72141 0.37571 0.17889 0.0
C1659 C 0.73792 0.37748 0.19558 0.0
H1660 H 0.89852 0.50684 0.43893 0.0
H1661 H 0.83296 0.48979 0.44945 0.0
H1662 H 0.90149 0.47987 0.40777 0.0
H1663 H 0.8362 0.46233 0.41925 0.0
H1664 H 0.84166 0.43495 0.34399 0.0
H1665 H 0.83939 0.45985 0.37685 0.0
H1666 H 0.90201 0.44174 0.4003 0.0
H1667 H 0.90453 0.41694 0.36676 0.0
C1668 C 0.88475 0.49736 0.43465 0.0
C1669 C 0.86548 0.50058 0.44674 0.0
C1670 C 0.88654 0.48167 0.417 0.0
C1671 C 0.8691 0.46886 0.41095 0.0
C1672 C 0.84992 0.47201 0.4232 0.0
C1673 C 0.84813 0.48765 0.44077 0.0
C1674 C 0.85493 0.43605 0.35622 0.0
C1675 C 0.8733 0.42389 0.35263 0.0
C1676 C 0.85357 0.45034 0.37522 0.0
C1677 C 0.87051 0.45289 0.3913 0.0
C1678 C 0.88876 0.44039 0.38809 0.0
C1679 C 0.89012 0.426 0.36899 0.0
H1680 H 0.7449 0.36191 0.86228 0.0
H1681 H 0.76959 0.42254 0.8401 0.0
H1682 H 0.77372 0.35857 0.89124 0.0
H1683 H 0.79821 0.41925 0.86909 0.0
H1684 H 0.8269 0.41823 0.94502 0.0
H1685 H 0.8015 0.42027 0.91243 0.0
H1686 H 0.81251 0.35444 0.8959 0.0
H1687 H 0.83793 0.35228 0.92894 0.0
C1688 C 0.75658 0.37442 0.86336 0.0
C1689 C 0.75472 0.39261 0.84899 0.0
C1690 C 0.77314 0.37248 0.87995 0.0
C1691 C 0.78824 0.3887 0.88261 0.0
C1692 C 0.78666 0.40662 0.86783 0.0
C1693 C 0.77018 0.40854 0.85124 0.0
C1694 C 0.82414 0.40421 0.93431 0.0
C1695 C 0.83446 0.38508 0.93968 0.0
C1696 C 0.8096 0.40542 0.91549 0.0
C1697 C 0.80488 0.3875 0.90155 0.0
C1698 C 0.81561 0.36847 0.90647 0.0
C1699 C 0.83033 0.36729 0.92526 0.0
H1700 H 0.83921 0.57962 0.19216 0.0
H1701 H 0.90656 0.58666 0.18152 0.0
H1702 H 0.83792 0.55314 0.16071 0.0
H1703 H 0.90532 0.55966 0.15008 0.0
H1704 H 0.88923 0.52101 0.08102 0.0
H1705 H 0.89213 0.54996 0.10994 0.0
H1706 H 0.84953 0.51688 0.15732 0.0
H1707 H 0.84663 0.48814 0.12857 0.0
C1708 C 0.85376 0.57565 0.18296 0.0
C1709 C 0.87303 0.58516 0.18954 0.0
C1710 C 0.85304 0.56029 0.16502 0.0
C1711 C 0.87158 0.55389 0.15318 0.0
C1712 C 0.89073 0.5642 0.15883 0.0
C1713 C 0.89144 0.5797 0.17683 0.0
C1714 C 0.88068 0.51983 0.09774 0.0
C1715 C 0.86752 0.50231 0.10234 0.0
C1716 C 0.88232 0.53645 0.1143 0.0
C1717 C 0.87082 0.53594 0.13582 0.0
C1718 C 0.85818 0.51811 0.14067 0.0
C1719 C 0.85654 0.50157 0.12417 0.0
H1720 H 0.75966 0.64805 0.35842 0.0
H1721 H 0.73695 0.58548 0.34074 0.0
H1722 H 0.73228 0.65113 0.38904 0.0
H1723 H 0.70911 0.58896 0.37041 0.0
H1724 H 0.68046 0.59117 0.44541 0.0
H1725 H 0.70548 0.58897 0.4127 0.0
H1726 H 0.69447 0.65479 0.39606 0.0
H1727 H 0.66962 0.65718 0.42948 0.0
C1728 C 0.74884 0.63496 0.36099 0.0
C1729 C 0.75064 0.61649 0.34704 0.0
C1730 C 0.73292 0.63685 0.37835 0.0
C1731 C 0.7184 0.62031 0.38228 0.0
C1732 C 0.7201 0.60196 0.36814 0.0
C1733 C 0.73598 0.60006 0.35086 0.0
C1734 C 0.68312 0.60519 0.43469 0.0
C1735 C 0.67295 0.62439 0.44024 0.0
C1736 C 0.69748 0.60388 0.41576 0.0
C1737 C 0.70213 0.6217 0.40166 0.0
C1738 C 0.69152 0.6408 0.40672 0.0
C1739 C 0.67707 0.64212 0.42574 0.0
H1740 H 0.60183 0.42028 0.67819 0.0
H1741 H 0.66807 0.43037 0.6937 0.0
H1742 H 0.60437 0.44479 0.64436 0.0
H1743 H 0.67054 0.45479 0.66023 0.0
H1744 H 0.6734 0.48429 0.58675 0.0
H1745 H 0.66927 0.4565 0.61653 0.0
H1746 H 0.6096 0.48356 0.63831 0.0
H1747 H 0.61384 0.51164 0.60866 0.0
C1748 C 0.61698 0.42748 0.67422 0.0
C1749 C 0.63474 0.42333 0.68871 0.0
C1750 C 0.61839 0.44167 0.65496 0.0
C1751 C 0.63765 0.45183 0.64957 0.0
C1752 C 0.65551 0.44712 0.66365 0.0
C1753 C 0.65406 0.43314 0.68296 0.0
C1754 C 0.65942 0.48444 0.59793 0.0
C1755 C 0.6441 0.50047 0.59541 0.0
C1756 C 0.65703 0.46842 0.61499 0.0
C1757 C 0.63918 0.46785 0.62998 0.0
C1758 C 0.62345 0.48339 0.62692 0.0
C1759 C 0.6259 0.49952 0.60989 0.0
H1760 H 0.16975 0.35072 0.42961 0.0
H1761 H 0.18186 0.41614 0.44742 0.0
H1762 H 0.19641 0.35267 0.39793 0.0
H1763 H 0.20804 0.41815 0.41577 0.0
H1764 H 0.27147 0.40778 0.38 0.0
H1765 H 0.24327 0.4047 0.40939 0.0
H1766 H 0.20605 0.36832 0.35922 0.0
H1767 H 0.23441 0.37139 0.32968 0.0
C1768 C 0.17778 0.36561 0.42652 0.0
C1769 C 0.17374 0.38321 0.44124 0.0
C1770 C 0.19309 0.36672 0.40835 0.0
C1771 C 0.20469 0.38547 0.40453 0.0
C1772 C 0.19986 0.40329 0.41856 0.0
C1773 C 0.18466 0.40217 0.43664 0.0
C1774 C 0.25724 0.39922 0.37513 0.0
C1775 C 0.2552 0.38999 0.35235 0.0
C1776 C 0.24101 0.39747 0.392 0.0
C1777 C 0.22221 0.38647 0.38663 0.0
C1778 C 0.22034 0.37679 0.36405 0.0
C1779 C 0.23663 0.37853 0.34712 0.0
H1780 H 0.40595 0.41842 0.17882 0.0
H1781 H 0.34041 0.43137 0.19528 0.0
H1782 H 0.40468 0.44483 0.14679 0.0
H1783 H 0.3391 0.45731 0.16332 0.0
H1784 H 0.35096 0.52047 0.12745 0.0
H1785 H 0.3533 0.49239 0.1571 0.0
H1786 H 0.38933 0.45426 0.10763 0.0
H1787 H 0.38697 0.48247 0.07783 0.0
C1788 C 0.39119 0.42659 0.17536 0.0
C1789 C 0.37335 0.42288 0.18981 0.0
C1790 C 0.39046 0.44175 0.15701 0.0
C1791 C 0.37188 0.4535 0.15274 0.0
C1792 C 0.35383 0.44899 0.16648 0.0
C1793 C 0.35455 0.43394 0.18473 0.0
C1794 C 0.35927 0.50607 0.12278 0.0
C1795 C 0.36863 0.50373 0.10014 0.0
C1796 C 0.3606 0.48992 0.1398 0.0
C1797 C 0.3713 0.47091 0.13469 0.0
C1798 C 0.38109 0.46872 0.11224 0.0
C1799 C 0.37975 0.48492 0.09516 0.0
H1800 H 0.24801 0.64733 0.85849 0.0
H1801 H 0.27199 0.58585 0.83836 0.0
H1802 H 0.27578 0.6503 0.88883 0.0
H1803 H 0.30011 0.58921 0.86784 0.0
H1804 H 0.32802 0.58988 0.94344 0.0
H1805 H 0.30296 0.58823 0.91061 0.0
H1806 H 0.31419 0.65425 0.89524 0.0
H1807 H 0.3392 0.65604 0.92873 0.0
C1808 C 0.25921 0.63449 0.86045 0.0
C1809 C 0.25767 0.61633 0.84596 0.0
C1810 C 0.27532 0.63632 0.87764 0.0
C1811 C 0.29022 0.61999 0.88084 0.0
C1812 C 0.28882 0.60201 0.86609 0.0
C1813 C 0.27277 0.60018 0.84896 0.0
C1814 C 0.32539 0.60405 0.93297 0.0
C1815 C 0.33566 0.62311 0.93882 0.0
C1816 C 0.31103 0.60306 0.91399 0.0
C1817 C 0.30648 0.62111 0.90022 0.0
C1818 C 0.31714 0.64011 0.90563 0.0
C1819 C 0.33165 0.64108 0.92468 0.0
H1820 H 0.16779 0.57783 0.69333 0.0
H1821 H 0.10051 0.58514 0.68222 0.0
H1822 H 0.16908 0.55146 0.66177 0.0
H1823 H 0.10175 0.55824 0.65064 0.0
H1824 H 0.11791 0.51974 0.58154 0.0
H1825 H 0.11503 0.54862 0.61055 0.0
H1826 H 0.15736 0.51526 0.65812 0.0
H1827 H 0.16025 0.4866 0.62928 0.0
C1828 C 0.15326 0.57394 0.68399 0.0
C1829 C 0.13401 0.5835 0.69047 0.0
C1830 C 0.15398 0.55864 0.66599 0.0
C1831 C 0.13545 0.55234 0.65398 0.0
C1832 C 0.11633 0.5627 0.65953 0.0
C1833 C 0.11561 0.57815 0.6776 0.0
C1834 C 0.12641 0.51849 0.59832 0.0
C1835 C 0.13949 0.50091 0.60295 0.0
C1836 C 0.12477 0.53507 0.61493 0.0
C1837 C 0.1362 0.53445 0.63654 0.0
C1838 C 0.14877 0.51657 0.64141 0.0
C1839 C 0.1504 0.50007 0.62486 0.0
H1840 H 0.17044 0.6545 0.11676 0.0
H1841 H 0.17862 0.58747 0.10491 0.0
H1842 H 0.19733 0.65331 0.14835 0.0
H1843 H 0.20503 0.58622 0.13649 0.0
H1844 H 0.2698 0.59583 0.16964 0.0
H1845 H 0.24108 0.59826 0.14072 0.0
H1846 H 0.20695 0.63991 0.18824 0.0
H1847 H 0.23584 0.6375 0.2173 0.0
C1848 C 0.17761 0.63945 0.12121 0.0
C1849 C 0.17248 0.62112 0.10813 0.0
C1850 C 0.19306 0.63876 0.1393 0.0
C1851 C 0.20367 0.61974 0.14468 0.0
C1852 C 0.19763 0.60126 0.13242 0.0
C1853 C 0.18231 0.60195 0.11441 0.0
C1854 C 0.25614 0.60541 0.17404 0.0
C1855 C 0.25512 0.61633 0.19592 0.0
C1856 C 0.23961 0.60678 0.15744 0.0
C1857 C 0.22152 0.61907 0.16224 0.0
C1858 C 0.22067 0.6304 0.18388 0.0
C1859 C 0.23727 0.62904 0.20053 0.0
H1860 H 0.10196 0.41785 0.86634 0.0
H1861 H 0.1666 0.43227 0.84719 0.0
H1862 H 0.10376 0.44405 0.89855 0.0
H1863 H 0.1685 0.45798 0.8794 0.0
H1864 H 0.15705 0.52025 0.9174 0.0
H1865 H 0.15424 0.49262 0.88723 0.0
H1866 H 0.11994 0.4533 0.93707 0.0
H1867 H 0.12273 0.48108 0.96735 0.0
C1868 C 0.11665 0.42631 0.86921 0.0
C1869 C 0.13407 0.42304 0.854 0.0
C1870 C 0.11769 0.44135 0.8877 0.0
C1871 C 0.13617 0.45342 0.89136 0.0
C1872 C 0.15383 0.4494 0.87676 0.0
C1873 C 0.15278 0.43448 0.85836 0.0
C1874 C 0.14902 0.50567 0.92202 0.0
C1875 C 0.14026 0.50289 0.94491 0.0
C1876 C 0.14742 0.48977 0.9047 0.0
C1877 C 0.13706 0.47057 0.90975 0.0
C1878 C 0.12789 0.46792 0.93248 0.0
C1879 C 0.12948 0.48388 0.94984 0.0
H1880 H 0.33633 0.34887 0.61403 0.0
H1881 H 0.32603 0.41539 0.60065 0.0
H1882 H 0.31101 0.35032 0.64717 0.0
H1883 H 0.30075 0.41674 0.6333 0.0
H1884 H 0.27015 0.4176 0.70612 0.0
H1885 H 0.2982 0.41456 0.67654 0.0
H1886 H 0.27216 0.35501 0.65262 0.0
H1887 H 0.2443 0.35774 0.68286 0.0
C1888 C 0.32891 0.36384 0.61833 0.0
C1889 C 0.33325 0.38201 0.60466 0.0
C1890 C 0.31424 0.36462 0.63716 0.0
C1891 C 0.30377 0.38363 0.64288 0.0
C1892 C 0.30864 0.40188 0.62962 0.0
C1893 C 0.32312 0.40107 0.61077 0.0
C1894 C 0.27052 0.40368 0.69481 0.0
C1895 C 0.25493 0.3879 0.69695 0.0
C1896 C 0.28653 0.40204 0.67766 0.0
C1897 C 0.28744 0.38457 0.66212 0.0
C1898 C 0.27205 0.36859 0.66444 0.0
C1899 C 0.25593 0.37027 0.68158 0.0
H1900 H 0.39611 0.49186 0.43141 0.0
H1901 H 0.33904 0.52114 0.4581 0.0
H1902 H 0.40016 0.52058 0.40252 0.0
H1903 H 0.34302 0.54964 0.42919 0.0
H1904 H 0.34164 0.57809 0.35327 0.0
H1905 H 0.33968 0.55291 0.38598 0.0
H1906 H 0.407 0.55912 0.39759 0.0
H1907 H 0.40904 0.58438 0.36439 0.0
C1908 C 0.38456 0.50452 0.43134 0.0
C1909 C 0.36709 0.50398 0.44694 0.0
C1910 C 0.38692 0.52102 0.41479 0.0
C1911 C 0.37184 0.53737 0.41341 0.0
C1912 C 0.35473 0.53712 0.42946 0.0
C1913 C 0.3524 0.5207 0.446 0.0
C1914 C 0.35603 0.57433 0.36293 0.0
C1915 C 0.37551 0.58325 0.35613 0.0
C1916 C 0.35488 0.55992 0.38181 0.0
C1917 C 0.37318 0.55391 0.39442 0.0
C1918 C 0.39263 0.56325 0.38809 0.0
C1919 C 0.39377 0.57787 0.36922 0.0
H1920 H 0.09099 0.24958 0.40293 0.0
H1921 H 0.15833 0.26093 0.39898 0.0
H1922 H 0.09435 0.22138 0.37326 0.0
H1923 H 0.16148 0.23347 0.3687 0.0
H1924 H 0.16474 0.16511 0.34377 0.0
H1925 H 0.15986 0.19564 0.36925 0.0
H1926 H 0.10233 0.21134 0.33138 0.0
H1927 H 0.10724 0.18011 0.30556 0.0
C1928 C 0.10651 0.24621 0.39565 0.0
C1929 C 0.12443 0.2575 0.40372 0.0
C1930 C 0.10837 0.23017 0.37836 0.0
C1931 C 0.12822 0.2249 0.36866 0.0
C1932 C 0.14597 0.23678 0.37601 0.0
C1933 C 0.14412 0.25278 0.39326 0.0
C1934 C 0.15106 0.17506 0.34065 0.0
C1935 C 0.1364 0.17011 0.32251 0.0
C1936 C 0.14834 0.19276 0.35526 0.0
C1937 C 0.13083 0.20623 0.35233 0.0
C1938 C 0.11599 0.2013 0.33423 0.0
C1939 C 0.11881 0.18346 0.31937 0.0
H1940 H 0.0677 0.9169 0.55447 0.0
H1941 H 0.09694 0.86023 0.58159 0.0
H1942 H 0.03879 0.91284 0.58301 0.0
H1943 H 0.0681 0.85599 0.61031 0.0
H1944 H 0.00408 0.84595 0.64743 0.0
H1945 H 0.03107 0.84839 0.61639 0.0
H1946 H 0.0324 0.91629 0.62483 0.0
H1947 H 0.00484 0.91394 0.6551 0.0
C1948 C 0.06778 0.90335 0.56634 0.0
C1949 C 0.08437 0.88858 0.56535 0.0
C1950 C 0.05129 0.90111 0.5829 0.0
C1951 C 0.05101 0.88412 0.59919 0.0
C1952 C 0.06748 0.86909 0.59786 0.0
C1953 C 0.08398 0.87135 0.5812 0.0
C1954 C 0.0099 0.86145 0.64247 0.0
C1955 C 1.0021 0.87975 0.65389 0.0
C1956 C 0.02563 0.86282 0.6248 0.0
C1957 C 0.03403 0.88254 0.61792 0.0
C1958 C 0.02619 0.90083 0.62931 0.0
C1959 C 0.0105 0.89946 0.64698 0.0
H1960 H 0.39553 0.82398 0.80447 0.0
H1961 H 0.34258 0.84322 0.84808 0.0
H1962 H 0.40056 0.79281 0.83041 0.0
H1963 H 0.34764 0.81285 0.87367 0.0
H1964 H 0.34648 0.74782 0.90375 0.0
H1965 H 0.34311 0.77536 0.87369 0.0
H1966 H 0.41109 0.78205 0.87148 0.0
H1967 H 0.41456 0.75368 0.90094 0.0
C1968 C 0.38501 0.8216 0.81951 0.0
C1969 C 0.36858 0.83608 0.82405 0.0
C1970 C 0.3879 0.80379 0.83443 0.0
C1971 C 0.37432 0.80006 0.85405 0.0
C1972 C 0.35811 0.81475 0.85849 0.0
C1973 C 0.3553 0.83237 0.84379 0.0
C1974 C 0.36079 0.75477 0.89659 0.0
C1975 C 0.38079 0.74845 0.9051 0.0
C1976 C 0.35885 0.77085 0.87947 0.0
C1977 C 0.37681 0.78127 0.87029 0.0
C1978 C 0.39688 0.77443 0.87804 0.0
C1979 C 0.39884 0.75828 0.89522 0.0
H1980 H 0.41785 0.08697 0.09039 0.0
H1981 H 0.42901 0.14715 0.05618 0.0
H1982 H 0.44849 0.09231 0.11581 0.0
H1983 H 0.45999 0.15275 0.08236 0.0
H1984 H 0.49499 0.16102 0.15837 0.0
H1985 H 0.46767 0.15816 0.12745 0.0
H1986 H 0.48761 0.09423 0.11258 0.0
H1987 H 0.51511 0.09713 0.14296 0.0
C1988 C 0.42692 0.10138 0.08818 0.0
C1989 C 0.42084 0.11668 0.07125 0.0
C1990 C 0.44463 0.10438 0.10277 0.0
C1991 C 0.45682 0.12291 0.10114 0.0
C1992 C 0.45087 0.13833 0.08415 0.0
C1993 C 0.43317 0.13513 0.06915 0.0
C1994 C 0.49388 0.14649 0.1482 0.0
C1995 C 0.5072 0.1292 0.15357 0.0
C1996 C 0.47816 0.14487 0.13043 0.0
C1997 C 0.47525 0.12588 0.11769 0.0
C1998 C 0.48914 0.10896 0.12234 0.0
C1999 C 0.50488 0.11061 0.13991 0.0
H2000 H 0.16398 0.84178 0.19777 0.0
H2001 H 0.10994 0.82355 0.2402 0.0
H2002 H 0.15916 0.81111 0.17249 0.0
H2003 H 0.10515 0.79211 0.21462 0.0
H2004 H 0.09196 0.75254 0.14434 0.0
H2005 H 0.09529 0.78117 0.17351 0.0
H2006 H 0.1632 0.77354 0.17301 0.0
H2007 H 0.15998 0.74571 0.14321 0.0
C2008 C 0.15108 0.83108 0.20186 0.0
C2009 C 0.13741 0.83515 0.22116 0.0
C2010 C 0.1484 0.8133 0.18735 0.0
C2011 C 0.13195 0.79883 0.19158 0.0
C2012 C 0.118 0.80292 0.21078 0.0
C2013 C 0.12076 0.82087 0.2255 0.0
C2014 C 0.10763 0.757 0.15038 0.0
C2015 C 0.12572 0.74683 0.14105 0.0
C2016 C 0.1095 0.77329 0.16739 0.0
C2017 C 0.12952 0.77993 0.17552 0.0
C2018 C 0.14751 0.76918 0.16691 0.0
C2019 C 0.14565 0.75295 0.14994 0.0
H2020 H 0.50901 0.91132 0.3898 0.0
H2021 H 0.50562 0.8432 0.39464 0.0
H2022 H 0.48101 0.91435 0.41933 0.0
H2023 H 0.47679 0.8463 0.42358 0.0
H2024 H 0.43387 0.86225 0.48981 0.0
H2025 H 0.46533 0.85753 0.46427 0.0
H2026 H 0.44362 0.90829 0.41874 0.0
H2027 H 0.41293 0.91304 0.44393 0.0
C2028 C 0.50251 0.89694 0.39731 0.0
C2029 C 0.50966 0.877 0.38953 0.0
C2030 C 0.48617 0.89868 0.41412 0.0
C2031 C 0.47631 0.88057 0.42369 0.0
C2032 C 0.48397 0.8606 0.41669 0.0
C2033 C 0.50038 0.85885 0.39982 0.0
C2034 C 0.43593 0.87234 0.47434 0.0
C2035 C 0.42093 0.88812 0.46907 0.0
C2036 C 0.45391 0.86964 0.45966 0.0
C2037 C 0.45727 0.88275 0.43955 0.0
C2038 C 0.442 0.89823 0.43431 0.0
C2039 C 0.42421 0.90086 0.44878 0.0
H2040 H 0.41195 0.24796 0.64015 0.0
H2041 H 0.34516 0.26155 0.64616 0.0
H2042 H 0.40844 0.22027 0.67043 0.0
H2043 H 0.34168 0.23381 0.67607 0.0
H2044 H 0.33787 0.16521 0.70094 0.0
H2045 H 0.34314 0.19536 0.67496 0.0
H2046 H 0.40005 0.21173 0.71363 0.0
H2047 H 0.39462 0.18105 0.74017 0.0
C2048 C 0.39657 0.24531 0.64811 0.0
C2049 C 0.37879 0.25697 0.64034 0.0
C2050 C 0.39458 0.22938 0.66553 0.0
C2051 C 0.37474 0.22459 0.67559 0.0
C2052 C 0.35715 0.23673 0.66841 0.0
C2053 C 0.35913 0.25265 0.65112 0.0
C2054 C 0.3515 0.17523 0.70414 0.0
C2055 C 0.36584 0.17061 0.72271 0.0
C2056 C 0.35445 0.19268 0.68922 0.0
C2057 C 0.37193 0.20617 0.6922 0.0
C2058 C 0.38645 0.20161 0.71074 0.0
C2059 C 0.38334 0.18408 0.72598 0.0
H2060 H 0.07411 0.14756 0.99232 0.0
H2061 H 0.09176 0.09223 0.95171 0.0
H2062 H 0.04319 0.15247 0.96597 0.0
H2063 H 0.06153 0.09712 0.9257 0.0
H2064 H 0.99649 0.09738 0.89494 0.0
H2065 H 0.0238 0.09408 0.92543 0.0
H2066 H 0.03332 0.16171 0.92435 0.0
H2067 H 0.00525 0.16516 0.89448 0.0
C2068 C 0.07143 0.1365 0.97784 0.0
C2069 C 0.08541 0.11948 0.97421 0.0
C2070 C 0.05376 0.13931 0.96269 0.0
C2071 C 0.04964 0.12504 0.94377 0.0
C2072 C 0.06377 0.10816 0.94031 0.0
C2073 C 0.08129 0.10544 0.95524 0.0
C2074 C 0.00404 0.11165 0.90147 0.0
C2075 C 0.99863 0.13153 0.89194 0.0
C2076 C 0.01996 0.10972 0.91883 0.0
C2077 C 0.03108 0.12759 0.92722 0.0
C2078 C 0.02513 0.14759 0.91843 0.0
C2079 C 0.00917 0.14952 0.90102 0.0
H2080 H 0.84012 0.84008 0.69899 0.0
H2081 H 0.89836 0.82634 0.73637 0.0
H2082 H 0.845 0.80918 0.674 0.0
H2083 H 0.90341 0.79492 0.71082 0.0
H2084 H 0.91339 0.75726 0.63768 0.0
H2085 H 0.91044 0.78556 0.66734 0.0
H2086 H 0.84434 0.77061 0.67687 0.0
H2087 H 0.84726 0.74224 0.64759 0.0
C2088 C 0.85399 0.83036 0.70201 0.0
C2089 C 0.86885 0.83576 0.71976 0.0
C2090 C 0.85672 0.81249 0.68767 0.0
C2091 C 0.8745 0.79938 0.69043 0.0
C2092 C 0.88954 0.80472 0.70815 0.0
C2093 C 0.88665 0.82266 0.72283 0.0
C2094 C 0.89829 0.75973 0.64638 0.0
C2095 C 0.88049 0.74749 0.63988 0.0
C2096 C 0.89663 0.776 0.66344 0.0
C2097 C 0.87711 0.78056 0.67437 0.0
C2098 C 0.85954 0.76785 0.6685 0.0
C2099 C 0.86121 0.75157 0.65158 0.0
H2100 H 0.0041 0.16126 0.39876 0.0
H2101 H 0.99837 0.09387 0.38781 0.0
H2102 H 0.97721 0.15956 0.43005 0.0
H2103 H 0.97097 0.09231 0.41826 0.0
H2104 H 0.93667 0.09086 0.48873 0.0
H2105 H 0.96557 0.09453 0.46024 0.0
H2106 H 0.93971 0.15428 0.4367 0.0
H2107 H 0.91087 0.15058 0.46564 0.0
C2108 C 0.99721 0.14604 0.40305 0.0
C2109 C 1.00357 0.12769 0.39064 0.0
C2110 C 0.98155 0.14512 0.42086 0.0
C2111 C 0.97182 0.12579 0.42689 0.0
C2112 C 0.97823 0.10746 0.41449 0.0
C2113 C 0.99383 0.10839 0.3967 0.0
C2114 C 0.93731 0.10494 0.4777 0.0
C2115 C 0.92157 0.12054 0.47966 0.0
C2116 C 0.95381 0.10696 0.46115 0.0
C2117 C 0.955 0.1246 0.44583 0.0
C2118 C 0.93954 0.14057 0.4483 0.0
C2119 C 0.92301 0.13854 0.465 0.0
H2120 H 0.66461 0.252 0.13927 0.0
H2121 H 0.59651 0.25298 0.14573 0.0
H2122 H 0.66659 0.22516 0.17038 0.0
H2123 H 0.59855 0.22669 0.17763 0.0
H2124 H 0.6101 0.1613 0.214 0.0
H2125 H 0.60601 0.1898 0.18481 0.0
H2126 H 0.66273 0.21943 0.2122 0.0
H2127 H 0.66668 0.19083 0.24117 0.0
C2128 C 0.65002 0.24655 0.14733 0.0
C2129 C 0.6304 0.25476 0.13978 0.0
C2130 C 0.65117 0.23127 0.16548 0.0
C2131 C 0.63274 0.22367 0.17677 0.0
C2132 C 0.6131 0.23195 0.16932 0.0
C2133 C 0.61195 0.24728 0.15115 0.0
C2134 C 0.62123 0.17426 0.2143 0.0
C2135 C 0.63843 0.17401 0.23027 0.0
C2136 C 0.61904 0.19058 0.19738 0.0
C2137 C 0.6341 0.20702 0.19591 0.0
C2138 C 0.651 0.20694 0.21239 0.0
C2139 C 0.65317 0.19063 0.22921 0.0
H2140 H 0.49668 0.91194 0.89195 0.0
H2141 H 0.50616 0.84427 0.89231 0.0
H2142 H 0.52415 0.9159 0.92213 0.0
H2143 H 0.53443 0.84838 0.92182 0.0
H2144 H 0.57568 0.86322 0.98905 0.0
H2145 H 0.54468 0.85781 0.96294 0.0
H2146 H 0.56173 0.91364 0.92282 0.0
H2147 H 0.59196 0.91907 0.94869 0.0
C2148 C 0.50444 0.89784 0.89857 0.0
C2149 C 0.49914 0.87779 0.88937 0.0
C2150 C 0.52048 0.90014 0.91576 0.0
C2151 C 0.53185 0.88249 0.92431 0.0
C2152 C 0.52606 0.86234 0.9158 0.0
C2153 C 0.50997 0.86003 0.89857 0.0
C2154 C 0.57266 0.87432 0.9747 0.0
C2155 C 0.58629 0.89162 0.97109 0.0
C2156 C 0.55495 0.8712 0.95965 0.0
C2157 C 0.55045 0.88542 0.94081 0.0
C2158 C 0.56423 0.9026 0.93736 0.0
C2159 C 0.58178 0.90564 0.95221 0.0
H2160 H 0.91305 0.24899 0.90445 0.0
H2161 H 0.84647 0.26278 0.89602 0.0
H2162 H 0.91009 0.22089 0.87454 0.0
H2163 H 0.84354 0.2346 0.8665 0.0
H2164 H 0.84028 0.16533 0.8435 0.0
H2165 H 0.84507 0.19599 0.86893 0.0
H2166 H 0.90238 0.21197 0.83105 0.0
H2167 H 0.89742 0.18083 0.80504 0.0
C2168 C 0.89784 0.2463 0.89602 0.0
C2169 C 0.87994 0.25812 0.903 0.0
C2170 C 0.89618 0.23015 0.87883 0.0
C2171 C 0.87655 0.2253 0.86824 0.0
C2172 C 0.85885 0.2376 0.8746 0.0
C2173 C 0.86051 0.25376 0.89165 0.0
C2174 C 0.85389 0.17537 0.84036 0.0
C2175 C 0.86849 0.17054 0.82218 0.0
C2176 C 0.85657 0.1931 0.85495 0.0
C2177 C 0.87401 0.20662 0.852 0.0
C2178 C 0.88879 0.20183 0.83387 0.0
C2179 C 0.88597 0.18404 0.81896 0.0
H2180 H 0.49525 0.09586 0.65407 0.0
H2181 H 0.5024 0.16379 0.65163 0.0
H2182 H 0.5228 0.09212 0.62406 0.0
H2183 H 0.53077 0.15995 0.62228 0.0
H2184 H 0.57259 0.14456 0.55566 0.0
H2185 H 0.54133 0.14966 0.58138 0.0
H2186 H 0.56034 0.09587 0.62391 0.0
H2187 H 0.5908 0.09071 0.59845 0.0
C2188 C 0.5025 0.11006 0.64701 0.0
C2189 C 0.49656 0.13012 0.65559 0.0
C2190 C 0.51858 0.1079 0.62992 0.0
C2191 C 0.52934 0.12572 0.62088 0.0
C2192 C 0.52287 0.14585 0.62872 0.0
C2193 C 0.50674 0.14802 0.64584 0.0
C2194 C 0.56993 0.13384 0.57046 0.0
C2195 C 0.58416 0.11717 0.57487 0.0
C2196 C 0.55209 0.13678 0.58527 0.0
C2197 C 0.54807 0.12301 0.60466 0.0
C2198 C 0.56248 0.1065 0.60892 0.0
C2199 C 0.58015 0.10364 0.59431 0.0
H2200 H 0.61007 0.82581 0.30346 0.0
H2201 H 0.66506 0.84323 0.34496 0.0
H2202 H 0.60467 0.79497 0.32977 0.0
H2203 H 0.65974 0.81304 0.37083 0.0
H2204 H 0.6596 0.74755 0.39998 0.0
H2205 H 0.66278 0.77504 0.36984 0.0
H2206 H 0.59525 0.78518 0.37202 0.0
H2207 H 0.59189 0.75693 0.40173 0.0
C2208 C 0.62094 0.82311 0.31813 0.0
C2209 C 0.63803 0.83699 0.322 0.0
C2210 C 0.61785 0.80548 0.33324 0.0
C2211 C 0.63193 0.80129 0.35232 0.0
C2212 C 0.64883 0.81536 0.35608 0.0
C2213 C 0.65181 0.83285 0.34123 0.0
C2214 C 0.64531 0.75524 0.39377 0.0
C2215 C 0.62549 0.74993 0.40355 0.0
C2216 C 0.64717 0.77127 0.3766 0.0
C2217 C 0.62931 0.78262 0.36863 0.0
C2218 C 0.60935 0.7768 0.37765 0.0
C2219 C 0.60748 0.76072 0.39493 0.0
H2220 H 0.91294 0.8572 0.07818 0.0
H2221 H 0.93983 0.91679 0.05634 0.0
H2222 H 0.94137 0.85281 0.10759 0.0
H2223 H 0.96832 0.91247 0.08539 0.0
H2224 H 1.00018 0.91179 0.15858 0.0
H2225 H 0.97318 0.9141 0.12761 0.0
H2226 H 0.97878 0.84696 0.11472 0.0
H2227 H 0.00527 0.8445 0.14646 0.0
C2228 C 0.92526 0.86905 0.07917 0.0
C2229 C 0.92425 0.8872 0.0647 0.0
C2230 C 0.94154 0.86664 0.09616 0.0
C2231 C 0.95718 0.88238 0.09915 0.0
C2232 C 0.95642 0.90019 0.08406 0.0
C2233 C 0.94017 0.90259 0.06719 0.0
C2234 C 0.99558 0.89745 0.14932 0.0
C2235 C 0.00503 0.87795 0.1552 0.0
C2236 C 0.98021 0.89881 0.13125 0.0
C2237 C 0.97375 0.88074 0.1184 0.0
C2238 C 0.98317 0.86122 0.12426 0.0
C2239 C 0.9986 0.85986 0.14234 0.0
H2240 H 0.67046 0.66591 0.845 0.0
H2241 H 0.61362 0.68228 0.80625 0.0
H2242 H 0.66513 0.69546 0.87175 0.0
H2243 H 0.60787 0.71215 0.83394 0.0
H2244 H 0.61845 0.77549 0.87788 0.0
H2245 H 0.6222 0.74722 0.84806 0.0
H2246 H 0.64168 0.70418 0.90383 0.0
H2247 H 0.63878 0.7323 0.93317 0.0
C2248 C 0.6567 0.67583 0.84217 0.0
C2249 C 0.64234 0.67149 0.82355 0.0
C2250 C 0.65356 0.6928 0.85774 0.0
C2251 C 0.63586 0.70609 0.85541 0.0
C2252 C 0.62169 0.70224 0.83631 0.0
C2253 C 0.6249 0.68508 0.82052 0.0
C2254 C 0.62371 0.76003 0.88372 0.0
C2255 C 0.62834 0.75631 0.90806 0.0
C2256 C 0.6256 0.74374 0.86664 0.0
C2257 C 0.63236 0.72337 0.87342 0.0
C2258 C 0.63672 0.71968 0.89778 0.0
C2259 C 0.63482 0.73584 0.91475 0.0
H2260 H 0.57471 0.35694 0.05414 0.0
H2261 H 0.59284 0.4121 0.09486 0.0
H2262 H 0.54378 0.35224 0.08048 0.0
H2263 H 0.56271 0.40737 0.12088 0.0
H2264 H 0.49769 0.40792 0.15153 0.0
H2265 H 0.5252 0.41092 0.12136 0.0
H2266 H 0.53329 0.3431 0.12175 0.0
H2267 H 0.50498 0.33998 0.15128 0.0
C2268 C 0.57214 0.36802 0.06863 0.0
C2269 C 0.58623 0.38497 0.07223 0.0
C2270 C 0.55446 0.36532 0.0838 0.0
C2271 C 0.55047 0.3796 0.10274 0.0
C2272 C 0.56479 0.39633 0.10624 0.0
C2273 C 0.58228 0.39896 0.0913 0.0
C2274 C 0.50497 0.39355 0.14494 0.0
C2275 C 0.49904 0.37371 0.15418 0.0
C2276 C 0.52103 0.39529 0.12775 0.0
C2277 C 0.53182 0.37728 0.11922 0.0
C2278 C 0.52539 0.35734 0.12776 0.0
C2279 C 0.50928 0.35559 0.145 0.0
H2280 H 0.89916 0.32664 0.30345 0.0
H2281 H 0.84268 0.34298 0.3427 0.0
H2282 H 0.90429 0.2958 0.32984 0.0
H2283 H 0.84769 0.31274 0.3686 0.0
H2284 H 0.84833 0.24727 0.39769 0.0
H2285 H 0.84552 0.27454 0.36723 0.0
H2286 H 0.91261 0.28653 0.37271 0.0
H2287 H 0.91563 0.25853 0.40278 0.0
C2288 C 0.8879 0.3237 0.31764 0.0
C2289 C 0.87051 0.3373 0.3209 0.0
C2290 C 0.89082 0.30607 0.33278 0.0
C2291 C 0.87626 0.30159 0.35125 0.0
C2292 C 0.859 0.31532 0.35434 0.0
C2293 C 0.85619 0.33283 0.33947 0.0
C2294 C 0.86262 0.25532 0.39213 0.0
C2295 C 0.8822 0.25063 0.40295 0.0
C2296 C 0.86096 0.27121 0.37478 0.0
C2297 C 0.87879 0.283 0.36766 0.0
C2298 C 0.89855 0.27777 0.37768 0.0
C2299 C 0.90022 0.26185 0.39515 0.0
H2300 H 0.91597 0.58827 0.59689 0.0
H2301 H 0.93239 0.64428 0.55682 0.0
H2302 H 0.94625 0.59353 0.62277 0.0
H2303 H 0.96322 0.64969 0.58327 0.0
H2304 H 0.9999 0.66174 0.65673 0.0
H2305 H 0.97203 0.65839 0.62652 0.0
H2306 H 0.98475 0.59148 0.6212 0.0
H2307 H 0.01265 0.59479 0.65103 0.0
C2308 C 0.92614 0.60173 0.59348 0.0
C2309 C 0.92168 0.61585 0.57468 0.0
C2310 C 0.94366 0.60468 0.60834 0.0
C2311 C 0.95738 0.62191 0.60507 0.0
C2312 C 0.95294 0.63625 0.58635 0.0
C2313 C 0.93533 0.63316 0.57116 0.0
C2314 C 0.99702 0.64635 0.64885 0.0
C2315 C 0.00848 0.62848 0.65669 0.0
C2316 C 0.981 0.64446 0.63148 0.0
C2317 C 0.97593 0.62463 0.62155 0.0
C2318 C 0.98789 0.60694 0.62877 0.0
C2319 C 0.0039 0.60883 0.64602 0.0
H2320 H 0.66767 0.3432 0.7003 0.0
H2321 H 0.61046 0.32654 0.73799 0.0
H2322 H 0.66258 0.31383 0.6732 0.0
H2323 H 0.6049 0.29694 0.70991 0.0
H2324 H 0.61516 0.23393 0.66599 0.0
H2325 H 0.61883 0.26212 0.69588 0.0
H2326 H 0.63999 0.30485 0.64064 0.0
H2327 H 0.63721 0.27675 0.61125 0.0
C2328 C 0.65386 0.33327 0.7028 0.0
C2329 C 0.63934 0.33747 0.72125 0.0
C2330 C 0.65086 0.31642 0.68701 0.0
C2331 C 0.63312 0.3031 0.68894 0.0
C2332 C 0.61876 0.30685 0.70783 0.0
C2333 C 0.62184 0.32389 0.72383 0.0
C2334 C 0.62079 0.2493 0.66027 0.0
C2335 C 0.62592 0.25292 0.63606 0.0
C2336 C 0.62263 0.26556 0.6774 0.0
C2337 C 0.62982 0.28583 0.67082 0.0
C2338 C 0.63471 0.28943 0.64658 0.0
C2339 C 0.63286 0.27328 0.62956 0.0
H2340 H 0.93225 0.36085 0.99056 0.0
H2341 H 0.91543 0.41663 0.95029 0.0
H2342 H 0.9632 0.35571 0.96443 0.0
H2343 H 0.94566 0.41149 0.92444 0.0
H2344 H 0.01064 0.41037 0.89375 0.0
H2345 H 0.98328 0.41402 0.924 0.0
H2346 H 0.97326 0.34646 0.92317 0.0
H2347 H 1.00143 0.34265 0.89359 0.0
C2348 C 0.93513 0.37198 0.9762 0.0
C2349 C 0.92137 0.38918 0.97261 0.0
C2350 C 0.95282 0.36903 0.96117 0.0
C2351 C 0.95716 0.38332 0.94237 0.0
C2352 C 0.94325 0.4004 0.93895 0.0
C2353 C 0.92572 0.40328 0.95378 0.0
C2354 C 1.00297 0.39619 0.90029 0.0
C2355 C 0.0083 0.37622 0.89091 0.0
C2356 C 0.98701 0.39831 0.91751 0.0
C2357 C 0.97573 0.38057 0.92591 0.0
C2358 C 0.98157 0.36049 0.91725 0.0
C2359 C 0.99759 0.35836 0.9 0.0
H2360 H 0.91526 0.74871 0.14021 0.0
H2361 H 0.84854 0.76291 0.14529 0.0
H2362 H 0.91121 0.72128 0.17077 0.0
H2363 H 0.84473 0.73619 0.17624 0.0
H2364 H 0.83929 0.66787 0.20127 0.0
H2365 H 0.84524 0.69793 0.1754 0.0
H2366 H 0.90271 0.71272 0.21383 0.0
H2367 H 0.89663 0.68205 0.24022 0.0
C2368 C 0.89977 0.74616 0.14793 0.0
C2369 C 0.8822 0.75804 0.13997 0.0
C2370 C 0.89751 0.73056 0.1657 0.0
C2371 C 0.8776 0.72631 0.17588 0.0
C2372 C 0.86026 0.73876 0.1686 0.0
C2373 C 0.86251 0.75433 0.15095 0.0
C2374 C 0.85318 0.67753 0.20446 0.0
C2375 C 0.86748 0.67245 0.22291 0.0
C2376 C 0.85652 0.69495 0.18961 0.0
C2377 C 0.87435 0.70798 0.19254 0.0
C2378 C 0.88883 0.70298 0.21099 0.0
C2379 C 0.88534 0.68547 0.22616 0.0
H2380 H 0.56971 0.589 0.48724 0.0
H2381 H 0.59616 0.64857 0.46471 0.0
H2382 H 0.54103 0.59299 0.45838 0.0
H2383 H 0.56753 0.65264 0.43549 0.0
H2384 H 0.5033 0.66053 0.39722 0.0
H2385 H 0.53009 0.65833 0.42867 0.0
H2386 H 0.5357 0.59112 0.41629 0.0
H2387 H 0.5084 0.59317 0.38564 0.0
C2388 C 0.56925 0.60313 0.47627 0.0
C2389 C 0.58508 0.61863 0.47855 0.0
C2390 C 0.55288 0.60534 0.45951 0.0
C2391 C 0.55191 0.62306 0.44429 0.0
C2392 C 0.56751 0.63889 0.44702 0.0
C2393 C 0.58391 0.63666 0.46391 0.0
C2394 C 0.51003 0.64521 0.4014 0.0
C2395 C 0.50352 0.62702 0.38877 0.0
C2396 C 0.52564 0.644 0.4193 0.0
C2397 C 0.53516 0.62454 0.42522 0.0
C2398 C 0.5286 0.60637 0.4126 0.0
C2399 C 0.51306 0.60759 0.39471 0.0
H2400 H 0.38952 0.23264 0.16567 0.0
H2401 H 0.37185 0.27719 0.1106 0.0
H2402 H 0.38612 0.26064 0.19585 0.0
H2403 H 0.36929 0.30503 0.14033 0.0
H2404 H 0.33997 0.34293 0.19931 0.0
H2405 H 0.34524 0.31378 0.17199 0.0
H2406 H 0.40133 0.29515 0.21086 0.0
H2407 H 0.39566 0.32462 0.2391 0.0
C2408 C 0.38493 0.24835 0.15995 0.0
C2409 C 0.3809 0.25253 0.13558 0.0
C2410 C 0.38325 0.26447 0.17725 0.0
C2411 C 0.37731 0.28513 0.17063 0.0
C2412 C 0.37361 0.28929 0.14624 0.0
C2413 C 0.37531 0.27329 0.12905 0.0
C2414 C 0.35347 0.33267 0.20224 0.0
C2415 C 0.36753 0.33633 0.22134 0.0
C2416 C 0.35657 0.31595 0.18635 0.0
C2417 C 0.37392 0.30223 0.18884 0.0
C2418 C 0.38779 0.30542 0.20836 0.0
C2419 C 0.38464 0.32235 0.22446 0.0
H2420 H 0.52618 0.63658 0.91717 0.0
H2421 H 0.48073 0.63264 0.85956 0.0
H2422 H 0.49729 0.63452 0.94632 0.0
H2423 H 0.45212 0.63055 0.88848 0.0
H2424 H 0.41144 0.59691 0.94312 0.0
H2425 H 0.44056 0.60337 0.91614 0.0
H2426 H 0.46423 0.65218 0.96318 0.0
H2427 H 0.43456 0.64542 0.99088 0.0
C2428 C 0.51006 0.6355 0.91068 0.0
C2429 C 0.50591 0.63439 0.8859 0.0
C2430 C 0.49348 0.63438 0.92743 0.0
C2431 C 0.47235 0.6321 0.91982 0.0
C2432 C 0.46821 0.63182 0.89506 0.0
C2433 C 0.48469 0.63293 0.87841 0.0
C2434 C 0.42276 0.60909 0.94788 0.0
C2435 C 0.42057 0.62067 0.96923 0.0
C2436 C 0.43947 0.61291 0.93221 0.0
C2437 C 0.45471 0.62846 0.93724 0.0
C2438 C 0.45278 0.64004 0.95876 0.0
C2439 C 0.43577 0.63626 0.97456 0.0
H2440 H 0.09562 0.74623 0.63828 0.0
H2441 H 0.1603 0.76468 0.65237 0.0
H2442 H 0.09825 0.71898 0.66928 0.0
H2443 H 0.16294 0.73731 0.68283 0.0
H2444 H 0.16906 0.66757 0.70444 0.0
H2445 H 0.16374 0.69817 0.67914 0.0
H2446 H 0.10444 0.71113 0.71448 0.0
H2447 H 0.11004 0.68014 0.7406 0.0
C2448 C 0.11028 0.74478 0.64819 0.0
C2449 C 0.12786 0.75756 0.6424 0.0
C2450 C 0.11176 0.72911 0.666 0.0
C2451 C 0.13088 0.72576 0.67837 0.0
C2452 C 0.14809 0.73918 0.67336 0.0
C2453 C 0.14659 0.75485 0.65574 0.0
C2454 C 0.1549 0.67694 0.70711 0.0
C2455 C 0.13993 0.67126 0.72458 0.0
C2456 C 0.15191 0.69463 0.69257 0.0
C2457 C 0.13373 0.70725 0.69479 0.0
C2458 C 0.1186 0.70169 0.71226 0.0
C2459 C 0.1218 0.68397 0.72722 0.0
H2460 H 0.99764 0.41043 0.39371 0.0
H2461 H 0.00459 0.34245 0.39431 0.0
H2462 H 0.02507 0.41344 0.42405 0.0
H2463 H 0.03285 0.34559 0.42403 0.0
H2464 H 0.07442 0.35984 0.49152 0.0
H2465 H 0.04326 0.35519 0.46542 0.0
H2466 H 0.06269 0.40946 0.42398 0.0
H2467 H 0.0931 0.41412 0.44975 0.0
C2468 C 0.0048 0.39606 0.40046 0.0
C2469 C 0.99886 0.3762 0.39125 0.0
C2470 C 0.02081 0.39781 0.41773 0.0
C2471 C 0.0315 0.37978 0.42634 0.0
C2472 C 0.025 0.35983 0.41791 0.0
C2473 C 0.00893 0.35806 0.4006 0.0
C2474 C 0.07191 0.37072 0.47683 0.0
C2475 C 0.08623 0.38739 0.47283 0.0
C2476 C 0.05411 0.36806 0.46183 0.0
C2477 C 0.05023 0.38212 0.44268 0.0
C2478 C 0.06473 0.39861 0.43879 0.0
C2479 C 0.08236 0.4012 0.45358 0.0
H2480 H 0.41602 0.75353 0.401 0.0
H2481 H 0.34789 0.75909 0.40292 0.0
H2482 H 0.41294 0.72486 0.3718 0.0
H2483 H 0.34492 0.73125 0.37312 0.0
H2484 H 0.345 0.66306 0.34857 0.0
H2485 H 0.3497 0.69376 0.37377 0.0
H2486 H 0.40278 0.71364 0.3307 0.0
H2487 H 0.39812 0.68213 0.30515 0.0
C2488 C 0.40037 0.74879 0.39513 0.0
C2489 C 0.38219 0.75862 0.40469 0.0
C2490 C 0.39864 0.73248 0.3781 0.0
C2491 C 0.37868 0.72547 0.37019 0.0
C2492 C 0.36058 0.7359 0.37903 0.0
C2493 C 0.36229 0.75214 0.396 0.0
C2494 C 0.35768 0.67394 0.34424 0.0
C2495 C 0.3711 0.67011 0.32465 0.0
C2496 C 0.36027 0.69175 0.35871 0.0
C2497 C 0.37642 0.7065 0.3542 0.0
C2498 C 0.39016 0.70263 0.33475 0.0
C2499 C 0.38748 0.68463 0.32005 0.0
H2500 H 0.09157 0.58773 0.09686 0.0
H2501 H 0.07557 0.64478 0.05843 0.0
H2502 H 0.06228 0.59333 0.12383 0.0
H2503 H 0.04601 0.65085 0.08643 0.0
H2504 H 0.98299 0.6411 0.13114 0.0
H2505 H 0.0109 0.63711 0.10098 0.0
H2506 H 0.05428 0.61676 0.15609 0.0
H2507 H 0.0265 0.61987 0.18575 0.0
C2508 C 0.0818 0.60161 0.09416 0.0
C2509 C 0.0862 0.61596 0.07558 0.0
C2510 C 0.06499 0.60491 0.10985 0.0
C2511 C 0.05192 0.62279 0.10774 0.0
C2512 C 0.05576 0.63693 0.08865 0.0
C2513 C 0.07277 0.63353 0.07271 0.0
C2514 C 0.99846 0.6356 0.13676 0.0
C2515 C 1.00236 0.63077 0.16101 0.0
C2516 C 0.01454 0.63357 0.11948 0.0
C2517 C 0.03488 0.62648 0.12597 0.0
C2518 C 0.03878 0.62196 0.15025 0.0
C2519 C 0.02282 0.62399 0.16741 0.0
H2520 H 0.11003 0.324 0.8039 0.0
H2521 H 0.16435 0.34238 0.84601 0.0
H2522 H 0.10488 0.29314 0.8302 0.0
H2523 H 0.15918 0.31227 0.872 0.0
H2524 H 0.15926 0.24744 0.9028 0.0
H2525 H 0.16277 0.27472 0.87244 0.0
H2526 H 0.09493 0.28298 0.87142 0.0
H2527 H 0.0913 0.25488 0.90115 0.0
C2528 C 0.12082 0.3215 0.8187 0.0
C2529 C 0.13765 0.33564 0.82273 0.0
C2530 C 0.11786 0.30386 0.83383 0.0
C2531 C 0.13178 0.29997 0.85315 0.0
C2532 C 0.14843 0.31431 0.85706 0.0
C2533 C 0.1513 0.33177 0.84214 0.0
C2534 C 0.145 0.25469 0.89583 0.0
C2535 C 0.125 0.2489 0.90474 0.0
C2536 C 0.14703 0.27061 0.87855 0.0
C2537 C 0.12916 0.28139 0.86961 0.0
C2538 C 0.10907 0.27507 0.87778 0.0
C2539 C 0.10702 0.25909 0.89511 0.0
H2540 H 0.508 0.41079 0.65276 0.0
H2541 H 0.50474 0.34271 0.64695 0.0
H2542 H 0.48013 0.41407 0.62302 0.0
H2543 H 0.47597 0.34603 0.61792 0.0
H2544 H 0.43301 0.36177 0.55206 0.0
H2545 H 0.46444 0.35712 0.57772 0.0
H2546 H 0.44296 0.40836 0.62271 0.0
H2547 H 0.41238 0.41314 0.59726 0.0
C2548 C 0.50154 0.39648 0.64501 0.0
C2549 C 0.50868 0.37648 0.65256 0.0
C2550 C 0.48526 0.39835 0.62809 0.0
C2551 C 0.47545 0.38031 0.61822 0.0
C2552 C 0.48311 0.36029 0.62503 0.0
C2553 C 0.49948 0.3584 0.64197 0.0
C2554 C 0.43515 0.37202 0.56741 0.0
C2555 C 0.42025 0.38793 0.57245 0.0
C2556 C 0.45309 0.36934 0.58218 0.0
C2557 C 0.4565 0.38258 0.60219 0.0
C2558 C 0.44133 0.39822 0.6072 0.0
C2559 C 0.4236 0.40086 0.5926 0.0
H2560 H 0.07959 0.05482 0.25721 0.0
H2561 H 0.14328 0.05666 0.28527 0.0
H2562 H 0.08049 0.01612 0.25792 0.0
H2563 H 0.14418 0.01802 0.28602 0.0
H2564 H 0.08093 0.94899 0.28973 0.0
H2565 H 0.08121 0.98772 0.28919 0.0
H2566 H 0.14401 0.98693 0.25882 0.0
H2567 H 0.14373 0.94829 0.25941 0.0
C2568 C 0.09387 0.04696 0.26324 0.0
C2569 C 0.11136 0.05878 0.27119 0.0
C2570 C 0.09431 0.0248 0.2639 0.0
C2571 C 0.11233 0.01398 0.27228 0.0
C2572 C 0.13009 0.02584 0.2794 0.0
C2573 C 0.12958 0.04798 0.27896 0.0
C2574 C 0.09489 0.9571 0.28325 0.0
C2575 C 0.1123 0.9456 0.2746 0.0
C2576 C 0.09497 0.97928 0.28269 0.0
C2577 C 0.11255 0.99042 0.27372 0.0
C2578 C 0.13026 0.97886 0.26592 0.0
C2579 C 0.1301 0.95672 0.26626 0.0
H2580 H 0.20258 0.83332 0.50314 0.0
H2581 H 0.19895 0.89549 0.53493 0.0
H2582 H 0.24118 0.83482 0.50507 0.0
H2583 H 0.23768 0.89704 0.53669 0.0
H2584 H 0.30705 0.83408 0.53963 0.0
H2585 H 0.26832 0.83465 0.53856 0.0
H2586 H 0.26978 0.89787 0.50942 0.0
H2587 H 0.3085 0.89725 0.51034 0.0
C2588 C 0.21002 0.84744 0.51021 0.0
C2589 C 0.1977 0.86427 0.51891 0.0
C2590 C 0.23214 0.8482 0.51155 0.0
C2591 C 0.24248 0.86592 0.52134 0.0
C2592 C 0.23019 0.88317 0.52906 0.0
C2593 C 0.20802 0.8823 0.528 0.0
C2594 C 0.29911 0.84821 0.53335 0.0
C2595 C 0.31082 0.8656 0.52503 0.0
C2596 C 0.27693 0.84847 0.5325 0.0
C2597 C 0.26599 0.86622 0.52363 0.0
C2598 C 0.27772 0.88398 0.51638 0.0
C2599 C 0.29989 0.88362 0.51693 0.0
H2600 H 0.36073 0.94896 0.78562 0.0
H2601 H 0.42364 0.95062 0.75563 0.0
H2602 H 0.35997 0.9876 0.78651 0.0
H2603 H 0.4229 0.98935 0.75652 0.0
H2604 H 0.3599 0.05742 0.76032 0.0
H2605 H 0.35955 0.01878 0.75936 0.0
H2606 H 0.42305 0.01771 0.78804 0.0
H2607 H 0.42338 0.05643 0.789 0.0
C2608 C 0.37429 0.9576 0.77891 0.0
C2609 C 0.39224 0.94674 0.77055 0.0
C2610 C 0.37386 0.97974 0.77943 0.0
C2611 C 0.39146 0.99157 0.77182 0.0
C2612 C 0.40921 0.9807 0.76287 0.0
C2613 C 0.40956 0.95852 0.76211 0.0
C2614 C 0.37368 0.04892 0.76672 0.0
C2615 C 0.39166 0.05998 0.77475 0.0
C2616 C 0.37348 0.02678 0.76616 0.0
C2617 C 0.39135 0.01514 0.77339 0.0
C2618 C 0.40915 0.02621 0.78199 0.0
C2619 C 0.40926 0.04838 0.78279 0.0
H2620 H 0.19983 0.17663 0.04103 0.0
H2621 H 0.19803 0.11302 1.01293 0.0
H2622 H 0.23857 0.17576 0.0403 0.0
H2623 H 0.23666 0.11217 1.01208 0.0
H2624 H 0.30562 0.17544 1.00792 0.0
H2625 H 0.26689 0.1753 1.00921 0.0
H2626 H 0.26792 0.11214 0.0386 0.0
H2627 H 0.30655 0.11225 0.03718 0.0
C2628 C 0.20771 0.16237 0.035 0.0
C2629 C 0.19589 0.1449 0.02702 0.0
C2630 C 0.22989 0.16195 0.03433 0.0
C2631 C 0.24073 0.14398 0.02589 0.0
C2632 C 0.22885 0.12623 1.01877 0.0
C2633 C 0.20671 0.12672 1.01926 0.0
C2634 C 0.29755 0.16144 1.01436 0.0
C2635 C 0.30913 0.14385 0.02244 0.0
C2636 C 0.27537 0.16144 1.01536 0.0
C2637 C 0.26429 0.14379 0.02424 0.0
C2638 C 0.27592 0.12595 0.03157 0.0
C2639 C 0.29806 0.12602 0.03075 0.0
H2640 H 0.92657 0.05654 0.75591 0.0
H2641 H 0.86286 0.0576 0.78374 0.0
H2642 H 0.92585 0.01781 0.75589 0.0
H2643 H 0.86215 0.01898 0.78379 0.0
H2644 H 0.92562 0.95032 0.78704 0.0
H2645 H 0.92528 0.98904 0.78672 0.0
H2646 H 0.86244 0.98827 0.75619 0.0
H2647 H 0.86277 0.94963 0.75658 0.0
C2648 C 0.91233 0.04851 0.76172 0.0
C2649 C 0.89478 0.0601 0.76984 0.0
C2650 C 0.91199 0.02633 0.76196 0.0
C2651 C 0.89402 0.0153 0.77008 0.0
C2652 C 0.87621 0.02696 0.77735 0.0
C2653 C 0.87661 0.04909 0.77732 0.0
C2654 C 0.91164 0.95844 0.78055 0.0
C2655 C 0.89422 0.94694 0.77184 0.0
C2656 C 0.91153 0.9806 0.78012 0.0
C2657 C 0.89392 0.99174 0.7712 0.0
C2658 C 0.87622 0.9802 0.76326 0.0
C2659 C 0.87641 0.95806 0.76349 0.0
H2660 H 0.69726 0.11058 0.53609 0.0
H2661 H 0.69825 0.17432 0.50841 0.0
H2662 H 0.73597 0.11023 0.53702 0.0
H2663 H 0.73697 0.174 0.50943 0.0
H2664 H 0.80654 0.11325 0.51097 0.0
H2665 H 0.76782 0.11154 0.50988 0.0
H2666 H 0.76448 0.17351 0.54216 0.0
H2667 H 0.8031 0.17519 0.54336 0.0
C2668 C 0.70576 0.12441 0.52988 0.0
C2669 C 0.6947 0.14249 0.5222 0.0
C2670 C 0.72793 0.1242 0.53044 0.0
C2671 C 0.73954 0.14217 0.52358 0.0
C2672 C 0.72847 0.16003 0.5152 0.0
C2673 C 0.70629 0.16014 0.51438 0.0
C2674 C 0.79752 0.12635 0.51819 0.0
C2675 C 0.80788 0.14437 0.52721 0.0
C2676 C 0.77535 0.12538 0.51752 0.0
C2677 C 0.76308 0.14252 0.5256 0.0
C2678 C 0.77348 0.16021 0.53538 0.0
C2679 C 0.79561 0.16108 0.53631 0.0
H2680 H 0.64585 0.0595 0.26024 0.0
H2681 H 0.58391 0.0553 0.29246 0.0
H2682 H 0.64737 0.02086 0.25759 0.0
H2683 H 0.5854 0.01676 0.28972 0.0
H2684 H 0.58408 0.9517 0.25377 0.0
H2685 H 0.58474 0.99036 0.25585 0.0
H2686 H 0.64854 0.98821 0.28353 0.0
H2687 H 0.64787 0.94957 0.28152 0.0
C2688 C 0.63271 0.05031 0.2671 0.0
C2689 C 0.61474 0.06045 0.27653 0.0
C2690 C 0.63356 0.0282 0.26553 0.0
C2691 C 0.61636 0.01577 0.27311 0.0
C2692 C 0.59874 0.02591 0.28332 0.0
C2693 C 0.59798 0.04799 0.28514 0.0
C2694 C 0.59836 0.95949 0.25993 0.0
C2695 C 0.6159 0.94759 0.26753 0.0
C2696 C 0.59866 0.98162 0.26137 0.0
C2697 C 0.6166 0.99233 0.27017 0.0
C2698 C 0.63451 0.98045 0.27666 0.0
C2699 C 0.63411 0.95832 0.27548 0.0
H2700 H 0.70138 0.83439 0.03539 0.0
H2701 H 0.69995 0.89873 1.00958 0.0
H2702 H 0.74007 0.83474 0.03371 0.0
H2703 H 0.73865 0.89911 1.00795 0.0
H2704 H 0.8057 0.83417 0.99906 0.0
H2705 H 0.7671 0.83587 1.00074 0.0
H2706 H 0.77093 0.89727 0.03434 0.0
H2707 H 0.80962 0.89554 0.03273 0.0
C2708 C 0.70933 0.8487 0.02969 0.0
C2709 C 0.69761 0.86651 0.02257 0.0
C2710 C 0.73148 0.84884 0.02848 0.0
C2711 C 0.74243 0.86687 1.0204 0.0
C2712 C 0.73071 0.88499 1.01427 0.0
C2713 C 0.70855 0.88477 1.01522 0.0
C2714 C 0.79832 0.84817 1.00648 0.0
C2715 C 0.81073 0.8647 1.01581 0.0
C2716 C 0.7762 0.84904 1.00768 0.0
C2717 C 0.76594 0.86656 1.01799 0.0
C2718 C 0.77834 0.88355 0.02629 0.0
C2719 C 0.80049 0.88258 0.02532 0.0
H2720 H 0.58304 0.558 0.75705 0.0
H2721 H 0.64613 0.55809 0.78683 0.0
H2722 H 0.58302 0.51926 0.75733 0.0
H2723 H 0.64611 0.51945 0.78719 0.0
H2724 H 0.64516 0.45012 0.75991 0.0
H2725 H 0.64604 0.48875 0.75976 0.0
H2726 H 0.5824 0.49028 0.78778 0.0
H2727 H 0.58152 0.45155 0.78788 0.0
C2728 C 0.59699 0.54975 0.76339 0.0
C2729 C 0.61459 0.5611 0.77191 0.0
C2730 C 0.5969 0.52756 0.7638 0.0
C2731 C 0.61449 0.51623 0.7725 0.0
C2732 C 0.63234 0.52764 0.78028 0.0
C2733 C 0.63235 0.54979 0.78008 0.0
C2734 C 0.63145 0.45871 0.76633 0.0
C2735 C 0.61327 0.44778 0.77391 0.0
C2736 C 0.63196 0.48085 0.76624 0.0
C2737 C 0.61422 0.49264 0.77354 0.0
C2738 C 0.59621 0.48168 0.78169 0.0
C2739 C 0.59578 0.4595 0.782 0.0
H2740 H 0.80787 0.39481 1.00942 0.0
H2741 H 0.80683 0.3311 0.0372 0.0
H2742 H 0.76921 0.39504 1.00805 0.0
H2743 H 0.76811 0.33134 0.0359 0.0
H2744 H 0.70121 0.3305 1.00334 0.0
H2745 H 0.73993 0.33145 1.00452 0.0
H2746 H 0.73774 0.39444 0.03435 0.0
H2747 H 0.6991 0.39351 0.03309 0.0
C2748 C 0.79936 0.38095 1.01555 0.0
C2749 C 0.81041 0.36293 0.02341 0.0
C2750 C 0.7772 0.38108 1.01475 0.0
C2751 C 0.76554 0.36312 1.02162 0.0
C2752 C 0.77661 0.3453 0.0301 0.0
C2753 C 0.79879 0.34524 0.0311 0.0
C2754 C 0.70901 0.34465 1.00983 0.0
C2755 C 0.69709 0.36193 1.01813 0.0
C2756 C 0.73119 0.34511 1.01076 0.0
C2757 C 0.74196 0.36293 1.01978 0.0
C2758 C 0.72999 0.3805 0.02723 0.0
C2759 C 0.70784 0.37997 0.0265 0.0
H2760 H 0.86129 0.55844 0.2576 0.0
H2761 H 0.92394 0.55751 0.28855 0.0
H2762 H 0.86133 0.51981 0.25584 0.0
H2763 H 0.92397 0.51883 0.28685 0.0
H2764 H 0.86237 0.44971 0.28131 0.0
H2765 H 0.86116 0.48832 0.28232 0.0
H2766 H 0.92506 0.49085 0.25514 0.0
H2767 H 0.92627 0.45214 0.25418 0.0
C2768 C 0.87497 0.54996 0.26432 0.0
C2769 C 0.89262 0.56103 0.27321 0.0
C2770 C 0.87499 0.52782 0.26329 0.0
C2771 C 0.89274 0.51623 0.27096 0.0
C2772 C 0.91019 0.5273 0.28043 0.0
C2773 C 0.91009 0.54945 0.28166 0.0
C2774 C 0.87605 0.45852 0.27522 0.0
C2775 C 0.89442 0.44788 0.26769 0.0
C2776 C 0.87535 0.48065 0.2758 0.0
C2777 C 0.89309 0.49269 0.26906 0.0
C2778 C 0.91125 0.48203 0.26082 0.0
C2779 C 0.91187 0.45987 0.26001 0.0
H2780 H 0.69922 0.61121 0.51084 0.0
H2781 H 0.70323 0.6734 0.54256 0.0
H2782 H 0.73791 0.60935 0.50941 0.0
H2783 H 0.74184 0.67157 0.541 0.0
H2784 H 0.80872 0.60854 0.53539 0.0
H2785 H 0.77001 0.60826 0.53653 0.0
H2786 H 0.76893 0.6716 0.50771 0.0
H2787 H 0.80764 0.67185 0.50646 0.0
C2788 C 0.70837 0.62433 0.51785 0.0
C2789 C 0.69818 0.64246 0.52678 0.0
C2790 C 0.73052 0.62328 0.51697 0.0
C2791 C 0.74292 0.64045 0.52476 0.0
C2792 C 0.73271 0.65825 0.53446 0.0
C2793 C 0.71059 0.6592 0.5356 0.0
C2794 C 0.80019 0.62227 0.52894 0.0
C2795 C 0.81122 0.64023 0.52087 0.0
C2796 C 0.77803 0.62211 0.52962 0.0
C2797 C 0.76642 0.64 0.52251 0.0
C2798 C 0.77745 0.6577 0.51368 0.0
C2799 C 0.79961 0.65777 0.51273 0.0
H2800 H 0.36346 0.55674 0.28615 0.0
H2801 H 0.4261 0.55557 0.25543 0.0
H2802 H 0.36296 0.51811 0.28692 0.0
H2803 H 0.4256 0.51684 0.25614 0.0
H2804 H 0.42671 0.44947 0.28768 0.0
H2805 H 0.42629 0.48822 0.28709 0.0
H2806 H 0.36229 0.48714 0.25985 0.0
H2807 H 0.36271 0.44852 0.26051 0.0
C2808 C 0.37701 0.54821 0.27926 0.0
C2809 C 0.39481 0.55921 0.27072 0.0
C2810 C 0.37673 0.52607 0.27971 0.0
C2811 C 0.39433 0.51437 0.27182 0.0
C2812 C 0.41193 0.52538 0.26271 0.0
C2813 C 0.41213 0.54756 0.26205 0.0
C2814 C 0.41247 0.45753 0.28188 0.0
C2815 C 0.39475 0.44594 0.27416 0.0
C2816 C 0.4123 0.47972 0.28129 0.0
C2817 C 0.39432 0.49079 0.27319 0.0
C2818 C 0.37636 0.47914 0.26627 0.0
C2819 C 0.3766 0.457 0.26666 0.0
H2820 H 0.3067 0.6246 0.99014 0.0
H2821 H 0.30809 0.65923 0.05676 0.0
H2822 H 0.26809 0.62491 0.99071 0.0
H2823 H 0.2691 0.6588 0.05767 0.0
H2824 H 0.20125 0.62421 0.05829 0.0
H2825 H 0.23988 0.62514 0.05797 0.0
H2826 H 0.23865 0.65827 0.99056 0.0
H2827 H 0.19967 0.65807 0.99123 0.0
C2828 C 0.29878 0.63208 1.00508 0.0
C2829 C 0.31047 0.64187 0.02349 0.0
C2830 C 0.27665 0.63237 1.00525 0.0
C2831 C 0.26568 0.64197 0.02412 0.0
C2832 C 0.27727 0.65133 0.04288 0.0
C2833 C 0.2995 0.65154 0.0424 0.0
C2834 C 0.20914 0.63165 0.04332 0.0
C2835 C 0.1974 0.64101 0.02468 0.0
C2836 C 0.23127 0.63231 0.04329 0.0
C2837 C 0.24218 0.64185 0.02433 0.0
C2838 C 0.23054 0.65084 1.00541 0.0
C2839 C 0.20831 0.65069 1.00575 0.0
H2840 H 0.08148 0.45014 0.75578 0.0
H2841 H 0.1454 0.44827 0.78312 0.0
H2842 H 0.08238 0.48886 0.75669 0.0
H2843 H 0.14629 0.48687 0.78414 0.0
H2844 H 0.08308 0.55577 0.78947 0.0
H2845 H 0.08323 0.51706 0.78808 0.0
H2846 H 0.146 0.51818 0.75762 0.0
H2847 H 0.14587 0.55679 0.75912 0.0
C2848 C 0.09581 0.45799 0.76166 0.0
C2849 C 0.11336 0.44616 0.76939 0.0
C2850 C 0.09625 0.48016 0.76245 0.0
C2851 C 0.11433 0.49097 0.77074 0.0
C2852 C 0.13215 0.47908 0.77758 0.0
C2853 C 0.13164 0.45695 0.77699 0.0
C2854 C 0.097 0.54772 0.78277 0.0
C2855 C 0.11446 0.55932 0.7744 0.0
C2856 C 0.097 0.52556 0.78172 0.0
C2857 C 0.11454 0.51452 0.7725 0.0
C2858 C 0.13227 0.52616 0.7649 0.0
C2859 C 0.1322 0.54829 0.76577 0.0
H2860 H 0.19917 0.3932 0.51086 0.0
H2861 H 0.20044 0.32966 0.53915 0.0
H2862 H 0.23776 0.39359 0.50957 0.0
H2863 H 0.23918 0.3301 0.53805 0.0
H2864 H 0.30635 0.32968 0.50622 0.0
H2865 H 0.26759 0.33009 0.50725 0.0
H2866 H 0.26896 0.39361 0.53573 0.0
H2867 H 0.30755 0.39324 0.5345 0.0
C2868 C 0.20772 0.37942 0.51714 0.0
C2869 C 0.19675 0.3614 0.5251 0.0
C2870 C 0.22986 0.37964 0.5164 0.0
C2871 C 0.24159 0.3618 0.52348 0.0
C2872 C 0.23061 0.34397 0.53208 0.0
C2873 C 0.20843 0.34381 0.53298 0.0
C2874 C 0.29834 0.34382 0.51236 0.0
C2875 C 0.30999 0.36143 0.52027 0.0
C2876 C 0.27615 0.34397 0.51322 0.0
C2877 C 0.26516 0.36181 0.52181 0.0
C2878 C 0.27687 0.37966 0.52892 0.0
C2879 C 0.29901 0.37944 0.52822 0.0
H2880 H 0.12805 0.17297 0.08771 0.0
H2881 H 0.10557 0.10855 0.0886 0.0
H2882 H 0.12472 0.1745 0.13154 0.0
H2883 H 0.10161 0.11032 0.1321 0.0
H2884 H 0.08255 0.12733 0.21018 0.0
H2885 H 0.08085 0.1308 0.16635 0.0
H2886 H 0.14521 0.15349 0.16559 0.0
H2887 H 0.14714 0.14938 0.20907 0.0
C2888 C 0.12186 0.15934 0.09714 0.0
C2889 C 0.117 0.14067 0.08453 0.0
C2890 C 0.12009 0.16016 0.12229 0.0
C2891 C 0.11286 0.14253 0.13543 0.0
C2892 C 0.10705 0.12425 0.12264 0.0
C2893 C 0.10936 0.12324 0.09765 0.0
C2894 C 0.09617 0.13347 0.20071 0.0
C2895 C 0.11494 0.13816 0.21325 0.0
C2896 C 0.09526 0.13531 0.17556 0.0
C2897 C 0.1129 0.14246 0.16236 0.0
C2898 C 0.13128 0.14812 0.17509 0.0
C2899 C 0.13238 0.14573 0.20007 0.0
H2900 H 0.11202 0.83452 0.46028 0.0
H2901 H 0.12673 0.90107 0.45391 0.0
H2902 H 0.10833 0.83243 0.41631 0.0
H2903 H 0.12346 0.8987 0.41083 0.0
H2904 H 0.15165 0.87693 0.33926 0.0
H2905 H 0.14957 0.87406 0.38237 0.0
H2906 H 0.08432 0.85474 0.37715 0.0
H2907 H 0.08611 0.858 0.33311 0.0
C2908 C 0.11415 0.84872 0.44972 0.0
C2909 C 0.11991 0.8679 0.46094 0.0
C2910 C 0.11199 0.84751 0.42453 0.0
C2911 C 0.11572 0.8654 0.41006 0.0
C2912 C 0.12059 0.88461 0.42138 0.0
C2913 C 0.12252 0.88589 0.44627 0.0
C2914 C 0.13677 0.87187 0.34696 0.0
C2915 C 0.11896 0.86792 0.33234 0.0
C2916 C 0.13565 0.8702 0.37187 0.0
C2917 C 0.1168 0.86425 0.38327 0.0
C2918 C 0.09913 0.85926 0.36887 0.0
C2919 C 0.10016 0.86117 0.34364 0.0
H2920 H 0.41915 0.86011 0.71068 0.0
H2921 H 0.35392 0.88008 0.70488 0.0
H2922 H 0.42093 0.85747 0.66659 0.0
H2923 H 0.35595 0.87778 0.66175 0.0
H2924 H 0.37616 0.90319 0.5894 0.0
H2925 H 0.37859 0.90112 0.63254 0.0
H2926 H 0.40065 0.83677 0.62756 0.0
H2927 H 0.3979 0.83859 0.58349 0.0
C2928 C 0.40517 0.8637 0.70021 0.0
C2929 C 0.38646 0.8705 0.71167 0.0
C2930 C 0.40619 0.86214 0.67492 0.0
C2931 C 0.38862 0.86761 0.66055 0.0
C2932 C 0.36986 0.87366 0.67213 0.0
C2933 C 0.36875 0.87496 0.69709 0.0
C2934 C 0.3817 0.88851 0.59717 0.0
C2935 C 0.38665 0.87098 0.58256 0.0
C2936 C 0.38307 0.88737 0.62213 0.0
C2937 C 0.38967 0.86876 0.63367 0.0
C2938 C 0.39557 0.85139 0.61926 0.0
C2939 C 0.39394 0.85243 0.59399 0.0
H2940 H 0.35262 0.12872 0.84071 0.0
H2941 H 0.41845 0.14641 0.83426 0.0
H2942 H 0.35514 0.13123 0.88383 0.0
H2943 H 0.42072 0.14929 0.8783 0.0
H2944 H 0.39657 0.16905 0.96188 0.0
H2945 H 0.39945 0.17125 0.91783 0.0
H2946 H 0.37931 0.10631 0.91209 0.0
H2947 H 0.37679 0.10385 0.95519 0.0
C2948 C 0.36767 0.13342 0.84835 0.0
C2949 C 0.38542 0.13713 0.83363 0.0
C2950 C 0.36905 0.13487 0.87328 0.0
C2951 C 0.38812 0.14033 0.88462 0.0
C2952 C 0.40574 0.14512 0.87011 0.0
C2953 C 0.40444 0.14343 0.84486 0.0
C2954 C 0.39312 0.15516 0.95122 0.0
C2955 C 0.38623 0.13635 0.96239 0.0
C2956 C 0.39481 0.15642 0.92598 0.0
C2957 C 0.38944 0.13898 0.91141 0.0
C2958 C 0.3834 0.12009 0.92269 0.0
C2959 C 0.38194 0.11875 0.94761 0.0
H2960 H 0.91995 0.85715 0.83038 0.0
H2961 H 0.85629 0.88136 0.83764 0.0
H2962 H 0.92204 0.85341 0.87438 0.0
H2963 H 0.85869 0.87799 0.88065 0.0
H2964 H 0.8834 0.9015 0.95264 0.0
H2965 H 0.88636 0.8998 0.90952 0.0
H2966 H 0.89717 0.83259 0.91329 0.0
H2967 H 0.8938 0.83406 0.95731 0.0
C2968 C 0.90638 0.86145 0.84113 0.0
C2969 C 0.88803 0.86972 0.83013 0.0
C2970 C 0.90756 0.85924 0.86634 0.0
C2971 C 0.89053 0.86551 0.88104 0.0
C2972 C 0.87212 0.87312 0.86994 0.0
C2973 C 0.87083 0.87506 0.84506 0.0
C2974 C 0.8866 0.88624 0.94462 0.0
C2975 C 0.88807 0.86785 0.95884 0.0
C2976 C 0.88836 0.88534 0.9197 0.0
C2977 C 0.89191 0.86609 0.90786 0.0
C2978 C 0.89454 0.84772 0.92189 0.0
C2979 C 0.89256 0.84857 0.94712 0.0
H2980 H 0.85694 0.1498 0.70887 0.0
H2981 H 0.92189 0.12882 0.70923 0.0
H2982 H 0.85836 0.1542 0.66542 0.0
H2983 H 0.9231 0.1326 0.66543 0.0
H2984 H 0.89829 0.11061 0.58765 0.0
H2985 H 0.90258 0.11212 0.63113 0.0
H2986 H 0.87796 0.17573 0.63141 0.0
H2987 H 0.87427 0.17446 0.58759 0.0
C2988 C 0.87166 0.14643 0.69971 0.0
C2989 C 0.88935 0.13908 0.71267 0.0
C2990 C 0.87248 0.149 0.67475 0.0
C2991 C 0.89082 0.14375 0.66181 0.0
C2992 C 0.9087 0.1368 0.67479 0.0
C2993 C 0.90807 0.13477 0.69993 0.0
C2994 C 0.89423 0.12513 0.59688 0.0
C2995 C 0.88605 0.14247 0.584 0.0
C2996 C 0.89673 0.12599 0.62186 0.0
C2997 C 0.8906 0.14403 0.63488 0.0
C2998 C 0.88284 0.16158 0.62198 0.0
C2999 C 0.88086 0.16092 0.59684 0.0
H3000 H 0.63 0.10463 0.45584 0.0
H3001 H 0.60491 0.16787 0.4637 0.0
H3002 H 0.62725 0.10753 0.4128 0.0
H3003 H 0.60181 0.17047 0.41968 0.0
H3004 H 0.58405 0.1437 0.33593 0.0
H3005 H 0.58198 0.14649 0.37996 0.0
H3006 H 0.64913 0.13536 0.38488 0.0
H3007 H 0.65143 0.13297 0.34172 0.0
C3008 C 0.62363 0.11917 0.44853 0.0
C3009 C 0.61787 0.13612 0.46363 0.0
C3010 C 0.62206 0.12076 0.42364 0.0
C3011 C 0.61441 0.13923 0.41271 0.0
C3012 C 0.60769 0.15597 0.42757 0.0
C3013 C 0.60952 0.15449 0.45279 0.0
C3014 C 0.59842 0.14229 0.34638 0.0
C3015 C 0.61786 0.13785 0.33499 0.0
C3016 C 0.59723 0.14391 0.37162 0.0
C3017 C 0.61539 0.14098 0.38595 0.0
C3018 C 0.63482 0.13754 0.37445 0.0
C3019 C 0.63606 0.13613 0.34952 0.0
H3020 H 0.62781 0.83797 0.08309 0.0
H3021 H 0.60953 0.90365 0.08635 0.0
H3022 H 0.62493 0.83562 0.12692 0.0
H3023 H 0.60598 0.90109 0.12983 0.0
H3024 H 0.58587 0.88263 0.20737 0.0
H3025 H 0.58389 0.8805 0.16347 0.0
H3026 H 0.64715 0.85499 0.16149 0.0
H3027 H 0.64941 0.85779 0.20511 0.0
C3028 C 0.62263 0.85174 0.09304 0.0
C3029 C 0.6188 0.87097 0.08108 0.0
C3030 C 0.62113 0.85044 0.11819 0.0
C3031 C 0.61517 0.86816 0.13197 0.0
C3032 C 0.61041 0.88708 0.11985 0.0
C3033 C 0.61248 0.88854 0.09487 0.0
C3034 C 0.59919 0.87618 0.19761 0.0
C3035 C 0.61776 0.87028 0.20987 0.0
C3036 C 0.59812 0.8751 0.17242 0.0
C3037 C 0.61536 0.86754 0.15888 0.0
C3038 C 0.63352 0.86072 0.17128 0.0
C3039 C 0.63481 0.86235 0.19633 0.0
H3040 H 0.65245 0.62152 0.70475 0.0
H3041 H 0.5929 0.65434 0.713 0.0
H3042 H 0.64983 0.62486 0.66178 0.0
H3043 H 0.59052 0.65788 0.66901 0.0
H3044 H 0.6179 0.67353 0.58576 0.0
H3045 H 0.61519 0.67501 0.62984 0.0
H3046 H 0.62115 0.60716 0.63303 0.0
H3047 H 0.62349 0.6055 0.58984 0.0
C3048 C 0.63883 0.62973 0.69755 0.0
C3049 C 0.62284 0.63758 0.71276 0.0
C3050 C 0.63735 0.63159 0.67268 0.0
C3051 C 0.61996 0.64155 0.66183 0.0
C3052 C 0.6042 0.65018 0.67681 0.0
C3053 C 0.60554 0.64807 0.70202 0.0
C3054 C 0.61818 0.65891 0.59585 0.0
C3055 C 0.62119 0.63943 0.58397 0.0
C3056 C 0.61661 0.65977 0.62112 0.0
C3057 C 0.61817 0.6412 0.63501 0.0
C3058 C 0.62011 0.62179 0.62299 0.0
C3059 C 0.62149 0.6209 0.59803 0.0
H3060 H 0.6501 0.35851 0.83631 0.0
H3061 H 0.58482 0.37837 0.83427 0.0
H3062 H 0.64783 0.354 0.87971 0.0
H3063 H 0.58276 0.37449 0.87801 0.0
H3064 H 0.60546 0.39654 0.95662 0.0
H3065 H 0.60218 0.39517 0.91302 0.0
H3066 H 0.62777 0.33194 0.9131 0.0
H3067 H 0.63042 0.33306 0.95703 0.0
C3068 C 0.63514 0.36163 0.84508 0.0
C3069 C 0.6176 0.36869 0.83165 0.0
C3070 C 0.63384 0.35899 0.87002 0.0
C3071 C 0.61513 0.36388 0.88248 0.0
C3072 C 0.59743 0.37058 0.86903 0.0
C3073 C 0.59856 0.37267 0.84392 0.0
C3074 C 0.60991 0.38211 0.94743 0.0
C3075 C 0.61804 0.36483 0.96046 0.0
C3076 C 0.60801 0.38134 0.92237 0.0
C3077 C 0.61473 0.36347 0.90942 0.0
C3078 C 0.62245 0.34597 0.92246 0.0
C3079 C 0.62381 0.34653 0.94767 0.0
H3080 H 0.90038 0.39999 0.08648 0.0
H3081 H 0.8798 0.33495 0.08461 0.0
H3082 H 0.90445 0.39789 0.12995 0.0
H3083 H 0.88324 0.33306 0.12842 0.0
H3084 H 0.86003 0.35704 0.2061 0.0
H3085 H 0.86211 0.35323 0.1626 0.0
H3086 H 0.92584 0.37764 0.16389 0.0
H3087 H 0.924 0.38084 0.20771 0.0
C3088 C 0.89705 0.3851 0.09532 0.0
C3089 C 0.88989 0.36759 0.08195 0.0
C3090 C 0.89942 0.3839 0.12027 0.0
C3091 C 0.89416 0.36532 0.13277 0.0
C3092 C 0.88744 0.34761 0.11938 0.0
C3093 C 0.88561 0.34864 0.09425 0.0
C3094 C 0.87469 0.36114 0.1972 0.0
C3095 C 0.8919 0.36912 0.2105 0.0
C3096 C 0.87588 0.35892 0.17223 0.0
C3097 C 0.89412 0.36515 0.15966 0.0
C3098 C 0.91155 0.37269 0.17298 0.0
C3099 C 0.91055 0.37438 0.19812 0.0
H3100 H 0.85377 0.62572 0.34083 0.0
H3101 H 0.91792 0.64869 0.33433 0.0
H3102 H 0.85636 0.62752 0.3839 0.0
H3103 H 0.92033 0.65068 0.37843 0.0
H3104 H 0.89776 0.66718 0.46222 0.0
H3105 H 0.90011 0.66973 0.41819 0.0
H3106 H 0.88014 0.60475 0.41213 0.0
H3107 H 0.87801 0.60202 0.45521 0.0
C3108 C 0.86845 0.63143 0.34845 0.0
C3109 C 0.88569 0.63691 0.33369 0.0
C3110 C 0.8699 0.6324 0.37339 0.0
C3111 C 0.88859 0.63905 0.38476 0.0
C3112 C 0.90567 0.64552 0.37024 0.0
C3113 C 0.90429 0.64434 0.34496 0.0
C3114 C 0.89421 0.65336 0.45149 0.0
C3115 C 0.88752 0.63444 0.46258 0.0
C3116 C 0.8956 0.65482 0.42624 0.0
C3117 C 0.89011 0.63749 0.41156 0.0
C3118 C 0.88426 0.61849 0.42277 0.0
C3119 C 0.88307 0.61696 0.44769 0.0
H3120 H 0.35473 0.37566 0.33959 0.0
H3121 H 0.42114 0.36016 0.33359 0.0
H3122 H 0.357 0.37292 0.3827 0.0
H3123 H 0.42315 0.35701 0.37765 0.0
H3124 H 0.39809 0.33603 0.46099 0.0
H3125 H 0.40144 0.33395 0.41698 0.0
H3126 H 0.38089 0.39874 0.41122 0.0
H3127 H 0.37792 0.40109 0.4543 0.0
C3128 C 0.36987 0.37139 0.34733 0.0
C3129 C 0.38784 0.36839 0.33273 0.0
C3130 C 0.37109 0.36979 0.37225 0.0
C3131 C 0.39024 0.36486 0.38373 0.0
C3132 C 0.40811 0.36075 0.36934 0.0
C3133 C 0.40695 0.36258 0.34409 0.0
C3134 C 0.39464 0.34992 0.45035 0.0
C3135 C 0.38753 0.36865 0.46152 0.0
C3136 C 0.39662 0.34873 0.42512 0.0
C3137 C 0.39131 0.36617 0.41055 0.0
C3138 C 0.38499 0.38498 0.42183 0.0
C3139 C 0.38326 0.38625 0.44673 0.0
H3140 H 0.35567 0.62738 0.20586 0.0
H3141 H 0.42129 0.64618 0.2111 0.0
H3142 H 0.35732 0.63006 0.16275 0.0
H3143 H 0.42268 0.64921 0.16703 0.0
H3144 H 0.39847 0.66901 0.08428 0.0
H3145 H 0.40174 0.67069 0.12832 0.0
H3146 H 0.37987 0.60627 0.13328 0.0
H3147 H 0.37693 0.60433 0.09017 0.0
C3148 C 0.37051 0.63233 0.19795 0.0
C3149 C 0.38844 0.63633 0.21236 0.0
C3150 C 0.37138 0.63386 0.17301 0.0
C3151 C 0.39014 0.63969 0.16128 0.0
C3152 C 0.40794 0.64473 0.17549 0.0
C3153 C 0.40714 0.64295 0.20076 0.0
C3154 C 0.39465 0.65513 0.09476 0.0
C3155 C 0.38726 0.6366 0.08335 0.0
C3156 C 0.39659 0.65608 0.12002 0.0
C3157 C 0.39091 0.63864 0.1344 0.0
C3158 C 0.38421 0.62006 0.12287 0.0
C3159 C 0.38254 0.61901 0.09793 0.0
H3160 H 0.15283 0.62227 0.84194 0.0
H3161 H 0.08995 0.64853 0.83533 0.0
H3162 H 0.15056 0.62458 0.88499 0.0
H3163 H 0.08788 0.65102 0.87942 0.0
H3164 H 0.11182 0.66766 0.96271 0.0
H3165 H 0.10919 0.66955 0.91865 0.0
H3166 H 0.12609 0.60363 0.91394 0.0
H3167 H 0.12845 0.60154 0.95709 0.0
C3168 C 0.1385 0.62881 0.84953 0.0
C3169 C 0.12152 0.6351 0.83473 0.0
C3170 C 0.13723 0.63006 0.87446 0.0
C3171 C 0.119 0.63782 0.88582 0.0
C3172 C 0.1022 0.645 0.87126 0.0
C3173 C 0.10337 0.64351 0.84597 0.0
C3174 C 0.11464 0.65351 0.95228 0.0
C3175 C 0.12057 0.63451 0.96376 0.0
C3176 C 0.11308 0.65459 0.927 0.0
C3177 C 0.11764 0.63677 0.91268 0.0
C3178 C 0.12272 0.61773 0.92429 0.0
C3179 C 0.12406 0.61658 0.94924 0.0
H3180 H 0.08468 0.37798 0.70918 0.0
H3181 H 0.14949 0.3566 0.70742 0.0
H3182 H 0.08281 0.37487 0.66535 0.0
H3183 H 0.14738 0.35285 0.66391 0.0
H3184 H 0.12949 0.33355 0.58595 0.0
H3185 H 0.12659 0.33175 0.62981 0.0
H3186 H 0.10341 0.39589 0.63121 0.0
H3187 H 0.10698 0.39793 0.58768 0.0
C3188 C 0.09833 0.37208 0.69956 0.0
C3189 C 0.1172 0.36745 0.71194 0.0
C3190 C 0.09731 0.37044 0.67441 0.0
C3191 C 0.11494 0.36356 0.66103 0.0
C3192 C 0.13345 0.35801 0.67357 0.0
C3193 C 0.13465 0.36019 0.69857 0.0
C3194 C 0.12338 0.34711 0.59558 0.0
C3195 C 0.11837 0.36585 0.5832 0.0
C3196 C 0.12186 0.34614 0.62074 0.0
C3197 C 0.11473 0.36368 0.63411 0.0
C3198 C 0.10878 0.38203 0.62156 0.0
C3199 C 0.11085 0.38319 0.59656 0.0
loop_
_geom_bond_atom_site_label_1
_geom_bond_atom_site_label_2
_geom_bond_distance
_geom_bond_site_symmetry_2
_ccdc_geom_bond_type
Sm0 C2 2.846 . S
Sm0 O20 2.543 . S
Sm0 O21 2.450 . S
Sm0 O22 2.681 . S
Sm0 O23 2.464 . S
Sm0 O24 2.396 . S
Sm0 O28 2.386 . S
Sm0 O31 2.408 . S
Sm1 C11 2.846 . S
Sm1 O22 2.386 . S
Sm1 O25 2.408 . S
Sm1 O26 2.543 . S
Sm1 O27 2.450 . S
Sm1 O28 2.681 . S
Sm1 O29 2.464 . S
Sm1 O30 2.396 . S
C2 Sm0 2.846 . S
C2 C3 1.506 . S
C2 O20 1.261 . S
C2 O21 1.242 . S
C3 C2 1.506 . S
C3 C4 1.358 . S
C3 C8 1.382 . S
C4 C3 1.358 . S
C4 C5 1.385 . S
C4 H32 0.930 . S
C5 C4 1.385 . S
C5 C6 1.395 . S
C5 H33 0.929 . S
C6 C5 1.395 . S
C6 C7 1.335 . S
C7 C6 1.335 . S
C7 C8 1.398 . S
C7 H34 0.930 . S
C8 C3 1.382 . S
C8 C7 1.398 . S
C8 H35 0.929 . S
C9 O22 1.271 . S
C9 O23 1.251 . S
C10 O24 1.252 . S
C10 O25 1.272 . S
C11 Sm1 2.846 . S
C11 C12 1.506 . S
C11 O26 1.261 . S
C11 O27 1.242 . S
C12 C11 1.506 . S
C12 C13 1.358 . S
C12 C17 1.382 . S
C13 C12 1.358 . S
C13 C14 1.385 . S
C13 H36 0.930 . S
C14 C13 1.385 . S
C14 C15 1.395 . S
C14 H37 0.929 . S
C15 C14 1.395 . S
C15 C16 1.335 . S
C16 C15 1.335 . S
C16 C17 1.398 . S
C16 H38 0.930 . S
C17 C12 1.382 . S
C17 C16 1.398 . S
C17 H39 0.929 . S
C18 O28 1.271 . S
C18 O29 1.251 . S
C19 O30 1.252 . S
C19 O31 1.272 . S
O20 Sm0 2.543 . S
O20 C2 1.261 . S
O21 Sm0 2.450 . S
O21 C2 1.242 . S
O22 Sm0 2.681 . S
O22 Sm1 2.386 . S
O22 C9 1.271 . S
O23 Sm0 2.464 . S
O23 C9 1.251 . S
O24 Sm0 2.396 . S
O24 C10 1.252 . S
O25 Sm1 2.408 . S
O25 C10 1.272 . S
O26 Sm1 2.543 . S
O26 C11 1.261 . S
O27 Sm1 2.450 . S
O27 C11 1.242 . S
O28 Sm0 2.386 . S
O28 Sm1 2.681 . S
O28 C18 1.271 . S
O29 Sm1 2.464 . S
O29 C18 1.251 . S
O30 Sm1 2.396 . S
O30 C19 1.252 . S
O31 Sm0 2.408 . S
O31 C19 1.272 . S
H32 C4 0.930 . S
H33 C5 0.929 . S
H34 C7 0.930 . S
H35 C8 0.929 . S
H36 C13 0.930 . S
H37 C14 0.929 . S
H38 C16 0.930 . S
H39 C17 0.929 . S
Sm40 C42 2.846 . S
Sm40 O60 2.543 . S
Sm40 O61 2.450 . S
Sm40 O62 2.681 . S
Sm40 O63 2.464 . S
Sm40 O64 2.396 . S
Sm40 O68 2.386 . S
Sm40 O71 2.408 . S
Sm41 C51 2.846 . S
Sm41 O62 2.386 . S
Sm41 O65 2.408 . S
Sm41 O66 2.543 . S
Sm41 O67 2.450 . S
Sm41 O68 2.681 . S
Sm41 O69 2.464 . S
Sm41 O70 2.396 . S
C42 Sm40 2.846 . S
C42 C43 1.506 . S
C42 O60 1.261 . S
C42 O61 1.242 . S
C43 C42 1.506 . S
C43 C44 1.358 . S
C43 C48 1.382 . S
C44 C43 1.358 . S
C44 C45 1.385 . S
C44 H72 0.930 . S
C45 C44 1.385 . S
C45 C46 1.395 . S
C45 H73 0.929 . S
C46 C45 1.395 . S
C46 C47 1.335 . S
C47 C46 1.335 . S
C47 C48 1.398 . S
C47 H74 0.930 . S
C48 C43 1.382 . S
C48 C47 1.398 . S
C48 H75 0.929 . S
C49 O62 1.271 . S
C49 O63 1.251 . S
C50 O64 1.252 . S
C50 O65 1.272 . S
C51 Sm41 2.846 . S
C51 C52 1.506 . S
C51 O66 1.261 . S
C51 O67 1.242 . S
C52 C51 1.506 . S
C52 C53 1.358 . S
C52 C57 1.382 . S
C53 C52 1.358 . S
C53 C54 1.385 . S
C53 H76 0.930 . S
C54 C53 1.385 . S
C54 C55 1.395 . S
C54 H77 0.929 . S
C55 C54 1.395 . S
C55 C56 1.335 . S
C56 C55 1.335 . S
C56 C57 1.398 . S
C56 H78 0.930 . S
C57 C52 1.382 . S
C57 C56 1.398 . S
C57 H79 0.929 . S
C58 O68 1.271 . S
C58 O69 1.251 . S
C59 O70 1.252 . S
C59 O71 1.272 . S
O60 Sm40 2.543 . S
O60 C42 1.261 . S
O61 Sm40 2.450 . S
O61 C42 1.242 . S
O62 Sm40 2.681 . S
O62 Sm41 2.386 . S
O62 C49 1.271 . S
O63 Sm40 2.464 . S
O63 C49 1.251 . S
O64 Sm40 2.396 . S
O64 C50 1.252 . S
O65 Sm41 2.408 . S
O65 C50 1.272 . S
O66 Sm41 2.543 . S
O66 C51 1.261 . S
O67 Sm41 2.450 . S
O67 C51 1.242 . S
O68 Sm40 2.386 . S
O68 Sm41 2.681 . S
O68 C58 1.271 . S
O69 Sm41 2.464 . S
O69 C58 1.251 . S
O70 Sm41 2.396 . S
O70 C59 1.252 . S
O71 Sm40 2.408 . S
O71 C59 1.272 . S
H72 C44 0.930 . S
H73 C45 0.929 . S
H74 C47 0.930 . S
H75 C48 0.929 . S
H76 C53 0.930 . S
H77 C54 0.929 . S
H78 C56 0.930 . S
H79 C57 0.929 . S
Sm80 C82 2.846 . S
Sm80 O100 2.543 . S
Sm80 O101 2.450 . S
Sm80 O102 2.681 . S
Sm80 O103 2.464 . S
Sm80 O104 2.396 . S
Sm80 O108 2.386 . S
Sm80 O111 2.408 . S
Sm81 C91 2.846 . S
Sm81 O102 2.386 . S
Sm81 O105 2.408 . S
Sm81 O106 2.543 . S
Sm81 O107 2.450 . S
Sm81 O108 2.681 . S
Sm81 O109 2.464 . S
Sm81 O110 2.396 . S
C82 Sm80 2.846 . S
C82 C83 1.506 . S
C82 O100 1.261 . S
C82 O101 1.242 . S
C83 C82 1.506 . S
C83 C84 1.358 . S
C83 C88 1.382 . S
C84 C83 1.358 . S
C84 C85 1.385 . S
C84 H112 0.930 . S
C85 C84 1.385 . S
C85 C86 1.395 . S
C85 H113 0.929 . S
C86 C85 1.395 . S
C86 C87 1.335 . S
C87 C86 1.335 . S
C87 C88 1.398 . S
C87 H114 0.930 . S
C88 C83 1.382 . S
C88 C87 1.398 . S
C88 H115 0.929 . S
C89 O102 1.271 . S
C89 O103 1.251 . S
C90 O104 1.252 . S
C90 O105 1.272 . S
C91 Sm81 2.846 . S
C91 C92 1.506 . S
C91 O106 1.261 . S
C91 O107 1.242 . S
C92 C91 1.506 . S
C92 C93 1.358 . S
C92 C97 1.382 . S
C93 C92 1.358 . S
C93 C94 1.385 . S
C93 H116 0.930 . S
C94 C93 1.385 . S
C94 C95 1.395 . S
C94 H117 0.929 . S
C95 C94 1.395 . S
C95 C96 1.335 . S
C96 C95 1.335 . S
C96 C97 1.398 . S
C96 H118 0.930 . S
C97 C92 1.382 . S
C97 C96 1.398 . S
C97 H119 0.929 . S
C98 O108 1.271 . S
C98 O109 1.251 . S
C99 O110 1.252 . S
C99 O111 1.272 . S
O100 Sm80 2.543 . S
O100 C82 1.261 . S
O101 Sm80 2.450 . S
O101 C82 1.242 . S
O102 Sm80 2.681 . S
O102 Sm81 2.386 . S
O102 C89 1.271 . S
O103 Sm80 2.464 . S
O103 C89 1.251 . S
O104 Sm80 2.396 . S
O104 C90 1.252 . S
O105 Sm81 2.408 . S
O105 C90 1.272 . S
O106 Sm81 2.543 . S
O106 C91 1.261 . S
O107 Sm81 2.450 . S
O107 C91 1.242 . S
O108 Sm80 2.386 . S
O108 Sm81 2.681 . S
O108 C98 1.271 . S
O109 Sm81 2.464 . S
O109 C98 1.251 . S
O110 Sm81 2.396 . S
O110 C99 1.252 . S
O111 Sm80 2.408 . S
O111 C99 1.272 . S
H112 C84 0.930 . S
H113 C85 0.929 . S
H114 C87 0.930 . S
H115 C88 0.929 . S
H116 C93 0.930 . S
H117 C94 0.929 . S
H118 C96 0.930 . S
H119 C97 0.929 . S
Sm120 C122 2.846 1_554 S
Sm120 O140 2.543 1_554 S
Sm120 O141 2.450 . S
Sm120 O142 2.681 . S
Sm120 O143 2.464 . S
Sm120 O144 2.396 1_554 S
Sm120 O148 2.386 . S
Sm120 O151 2.408 . S
Sm121 C131 2.846 . S
Sm121 O142 2.386 . S
Sm121 O145 2.408 1_554 S
Sm121 O146 2.543 . S
Sm121 O147 2.450 . S
Sm121 O148 2.681 . S
Sm121 O149 2.464 . S
Sm121 O150 2.396 . S
C122 Sm120 2.846 1_556 S
C122 C123 1.506 . S
C122 O140 1.261 . S
C122 O141 1.242 1_556 S
C123 C122 1.506 . S
C123 C124 1.358 . S
C123 C128 1.382 . S
C124 C123 1.358 . S
C124 C125 1.385 . S
C124 H152 0.930 . S
C125 C124 1.385 . S
C125 C126 1.395 . S
C125 H153 0.929 . S
C126 C125 1.395 . S
C126 C127 1.335 . S
C127 C126 1.335 . S
C127 C128 1.398 . S
C127 H154 0.930 . S
C128 C123 1.382 . S
C128 C127 1.398 . S
C128 H155 0.929 . S
C129 O142 1.271 . S
C129 O143 1.251 . S
C130 O144 1.252 . S
C130 O145 1.272 . S
C131 Sm121 2.846 . S
C131 C132 1.506 . S
C131 O146 1.261 . S
C131 O147 1.242 . S
C132 C131 1.506 . S
C132 C133 1.358 . S
C132 C137 1.382 . S
C133 C132 1.358 . S
C133 C134 1.385 . S
C133 H156 0.930 . S
C134 C133 1.385 . S
C134 C135 1.395 . S
C134 H157 0.929 . S
C135 C134 1.395 . S
C135 C136 1.335 . S
C136 C135 1.335 . S
C136 C137 1.398 . S
C136 H158 0.930 . S
C137 C132 1.382 . S
C137 C136 1.398 . S
C137 H159 0.929 . S
C138 O148 1.271 . S
C138 O149 1.251 . S
C139 O150 1.252 . S
C139 O151 1.272 . S
O140 Sm120 2.543 1_556 S
O140 C122 1.261 . S
O141 Sm120 2.450 . S
O141 C122 1.242 1_554 S
O142 Sm120 2.681 . S
O142 Sm121 2.386 . S
O142 C129 1.271 . S
O143 Sm120 2.464 . S
O143 C129 1.251 . S
O144 Sm120 2.396 1_556 S
O144 C130 1.252 . S
O145 Sm121 2.408 1_556 S
O145 C130 1.272 . S
O146 Sm121 2.543 . S
O146 C131 1.261 . S
O147 Sm121 2.450 . S
O147 C131 1.242 . S
O148 Sm120 2.386 . S
O148 Sm121 2.681 . S
O148 C138 1.271 . S
O149 Sm121 2.464 . S
O149 C138 1.251 . S
O150 Sm121 2.396 . S
O150 C139 1.252 . S
O151 Sm120 2.408 . S
O151 C139 1.272 . S
H152 C124 0.930 . S
H153 C125 0.929 . S
H154 C127 0.930 . S
H155 C128 0.929 . S
H156 C133 0.930 . S
H157 C134 0.929 . S
H158 C136 0.930 . S
H159 C137 0.929 . S
Sm160 C162 2.846 . S
Sm160 O180 2.543 . S
Sm160 O181 2.450 . S
Sm160 O182 2.681 . S
Sm160 O183 2.464 . S
Sm160 O184 2.396 . S
Sm160 O188 2.386 . S
Sm160 O191 2.408 . S
Sm161 C171 2.846 . S
Sm161 O182 2.386 . S
Sm161 O185 2.408 . S
Sm161 O186 2.543 . S
Sm161 O187 2.450 . S
Sm161 O188 2.681 . S
Sm161 O189 2.464 . S
Sm161 O190 2.396 . S
C162 Sm160 2.846 . S
C162 C163 1.506 . S
C162 O180 1.261 . S
C162 O181 1.242 . S
C163 C162 1.506 . S
C163 C164 1.358 . S
C163 C168 1.382 . S
C164 C163 1.358 . S
C164 C165 1.385 . S
C164 H192 0.930 . S
C165 C164 1.385 . S
C165 C166 1.395 . S
C165 H193 0.929 . S
C166 C165 1.395 . S
C166 C167 1.335 . S
C167 C166 1.335 . S
C167 C168 1.398 . S
C167 H194 0.930 . S
C168 C163 1.382 . S
C168 C167 1.398 . S
C168 H195 0.929 . S
C169 O182 1.271 . S
C169 O183 1.251 . S
C170 O184 1.252 . S
C170 O185 1.272 . S
C171 Sm161 2.846 . S
C171 C172 1.506 . S
C171 O186 1.261 . S
C171 O187 1.242 . S
C172 C171 1.506 . S
C172 C173 1.358 . S
C172 C177 1.382 . S
C173 C172 1.358 . S
C173 C174 1.385 . S
C173 H196 0.930 . S
C174 C173 1.385 . S
C174 C175 1.395 . S
C174 H197 0.929 . S
C175 C174 1.395 . S
C175 C176 1.335 . S
C176 C175 1.335 . S
C176 C177 1.398 . S
C176 H198 0.930 . S
C177 C172 1.382 . S
C177 C176 1.398 . S
C177 H199 0.929 . S
C178 O188 1.271 . S
C178 O189 1.251 . S
C179 O190 1.252 . S
C179 O191 1.272 . S
O180 Sm160 2.543 . S
O180 C162 1.261 . S
O181 Sm160 2.450 . S
O181 C162 1.242 . S
O182 Sm160 2.681 . S
O182 Sm161 2.386 . S
O182 C169 1.271 . S
O183 Sm160 2.464 . S
O183 C169 1.251 . S
O184 Sm160 2.396 . S
O184 C170 1.252 . S
O185 Sm161 2.408 . S
O185 C170 1.272 . S
O186 Sm161 2.543 . S
O186 C171 1.261 . S
O187 Sm161 2.450 . S
O187 C171 1.242 . S
O188 Sm160 2.386 . S
O188 Sm161 2.681 . S
O188 C178 1.271 . S
O189 Sm161 2.464 . S
O189 C178 1.251 . S
O190 Sm161 2.396 . S
O190 C179 1.252 . S
O191 Sm160 2.408 . S
O191 C179 1.272 . S
H192 C164 0.930 . S
H193 C165 0.929 . S
H194 C167 0.930 . S
H195 C168 0.929 . S
H196 C173 0.930 . S
H197 C174 0.929 . S
H198 C176 0.930 . S
H199 C177 0.929 . S
Sm200 C202 2.846 . S
Sm200 O220 2.543 . S
Sm200 O221 2.450 . S
Sm200 O222 2.681 . S
Sm200 O223 2.464 . S
Sm200 O224 2.396 . S
Sm200 O228 2.386 . S
Sm200 O231 2.408 . S
Sm201 C211 2.846 . S
Sm201 O222 2.386 . S
Sm201 O225 2.408 . S
Sm201 O226 2.543 . S
Sm201 O227 2.450 . S
Sm201 O228 2.681 . S
Sm201 O229 2.464 . S
Sm201 O230 2.396 . S
C202 Sm200 2.846 . S
C202 C203 1.506 . S
C202 O220 1.261 . S
C202 O221 1.242 . S
C203 C202 1.506 . S
C203 C204 1.358 . S
C203 C208 1.382 . S
C204 C203 1.358 . S
C204 C205 1.385 . S
C204 H232 0.930 . S
C205 C204 1.385 . S
C205 C206 1.395 . S
C205 H233 0.929 . S
C206 C205 1.395 . S
C206 C207 1.335 . S
C207 C206 1.335 . S
C207 C208 1.398 . S
C207 H234 0.930 . S
C208 C203 1.382 . S
C208 C207 1.398 . S
C208 H235 0.929 . S
C209 O222 1.271 . S
C209 O223 1.251 . S
C210 O224 1.252 . S
C210 O225 1.272 . S
C211 Sm201 2.846 . S
C211 C212 1.506 . S
C211 O226 1.261 . S
C211 O227 1.242 . S
C212 C211 1.506 . S
C212 C213 1.358 . S
C212 C217 1.382 . S
C213 C212 1.358 . S
C213 C214 1.385 . S
C213 H236 0.930 . S
C214 C213 1.385 . S
C214 C215 1.395 . S
C214 H237 0.929 . S
C215 C214 1.395 . S
C215 C216 1.335 . S
C216 C215 1.335 . S
C216 C217 1.398 . S
C216 H238 0.930 . S
C217 C212 1.382 . S
C217 C216 1.398 . S
C217 H239 0.929 . S
C218 O228 1.271 . S
C218 O229 1.251 . S
C219 O230 1.252 . S
C219 O231 1.272 . S
O220 Sm200 2.543 . S
O220 C202 1.261 . S
O221 Sm200 2.450 . S
O221 C202 1.242 . S
O222 Sm200 2.681 . S
O222 Sm201 2.386 . S
O222 C209 1.271 . S
O223 Sm200 2.464 . S
O223 C209 1.251 . S
O224 Sm200 2.396 . S
O224 C210 1.252 . S
O225 Sm201 2.408 . S
O225 C210 1.272 . S
O226 Sm201 2.543 . S
O226 C211 1.261 . S
O227 Sm201 2.450 . S
O227 C211 1.242 . S
O228 Sm200 2.386 . S
O228 Sm201 2.681 . S
O228 C218 1.271 . S
O229 Sm201 2.464 . S
O229 C218 1.251 . S
O230 Sm201 2.396 . S
O230 C219 1.252 . S
O231 Sm200 2.408 . S
O231 C219 1.272 . S
H232 C204 0.930 . S
H233 C205 0.929 . S
H234 C207 0.930 . S
H235 C208 0.929 . S
H236 C213 0.930 . S
H237 C214 0.929 . S
H238 C216 0.930 . S
H239 C217 0.929 . S
Sm240 C242 2.846 . S
Sm240 O260 2.543 . S
Sm240 O261 2.450 . S
Sm240 O262 2.681 . S
Sm240 O263 2.464 . S
Sm240 O264 2.396 . S
Sm240 O268 2.386 . S
Sm240 O271 2.408 . S
Sm241 C251 2.846 . S
Sm241 O262 2.386 . S
Sm241 O265 2.408 . S
Sm241 O266 2.543 . S
Sm241 O267 2.450 . S
Sm241 O268 2.681 . S
Sm241 O269 2.464 . S
Sm241 O270 2.396 . S
C242 Sm240 2.846 . S
C242 C243 1.506 . S
C242 O260 1.261 . S
C242 O261 1.242 . S
C243 C242 1.506 . S
C243 C244 1.358 . S
C243 C248 1.382 . S
C244 C243 1.358 . S
C244 C245 1.385 . S
C244 H272 0.930 . S
C245 C244 1.385 . S
C245 C246 1.395 . S
C245 H273 0.929 . S
C246 C245 1.395 . S
C246 C247 1.335 . S
C247 C246 1.335 . S
C247 C248 1.398 . S
C247 H274 0.930 . S
C248 C243 1.382 . S
C248 C247 1.398 . S
C248 H275 0.929 . S
C249 O262 1.271 . S
C249 O263 1.251 . S
C250 O264 1.252 . S
C250 O265 1.272 . S
C251 Sm241 2.846 . S
C251 C252 1.506 . S
C251 O266 1.261 . S
C251 O267 1.242 . S
C252 C251 1.506 . S
C252 C253 1.358 . S
C252 C257 1.382 . S
C253 C252 1.358 . S
C253 C254 1.385 . S
C253 H276 0.930 . S
C254 C253 1.385 . S
C254 C255 1.395 . S
C254 H277 0.929 . S
C255 C254 1.395 . S
C255 C256 1.335 . S
C256 C255 1.335 . S
C256 C257 1.398 . S
C256 H278 0.930 . S
C257 C252 1.382 . S
C257 C256 1.398 . S
C257 H279 0.929 . S
C258 O268 1.271 . S
C258 O269 1.251 . S
C259 O270 1.252 . S
C259 O271 1.272 . S
O260 Sm240 2.543 . S
O260 C242 1.261 . S
O261 Sm240 2.450 . S
O261 C242 1.242 . S
O262 Sm240 2.681 . S
O262 Sm241 2.386 . S
O262 C249 1.271 . S
O263 Sm240 2.464 . S
O263 C249 1.251 . S
O264 Sm240 2.396 . S
O264 C250 1.252 . S
O265 Sm241 2.408 . S
O265 C250 1.272 . S
O266 Sm241 2.543 . S
O266 C251 1.261 . S
O267 Sm241 2.450 . S
O267 C251 1.242 . S
O268 Sm240 2.386 . S
O268 Sm241 2.681 . S
O268 C258 1.271 . S
O269 Sm241 2.464 . S
O269 C258 1.251 . S
O270 Sm241 2.396 . S
O270 C259 1.252 . S
O271 Sm240 2.408 . S
O271 C259 1.272 . S
H272 C244 0.930 . S
H273 C245 0.929 . S
H274 C247 0.930 . S
H275 C248 0.929 . S
H276 C253 0.930 . S
H277 C254 0.929 . S
H278 C256 0.930 . S
H279 C257 0.929 . S
Sm280 C282 2.846 1_556 S
Sm280 O300 2.543 1_556 S
Sm280 O301 2.450 . S
Sm280 O302 2.681 . S
Sm280 O303 2.464 . S
Sm280 O304 2.396 1_556 S
Sm280 O308 2.386 . S
Sm280 O311 2.408 . S
Sm281 C291 2.846 . S
Sm281 O302 2.386 . S
Sm281 O305 2.408 1_556 S
Sm281 O306 2.543 . S
Sm281 O307 2.450 . S
Sm281 O308 2.681 . S
Sm281 O309 2.464 . S
Sm281 O310 2.396 . S
C282 Sm280 2.846 1_554 S
C282 C283 1.506 . S
C282 O300 1.261 . S
C282 O301 1.242 1_554 S
C283 C282 1.506 . S
C283 C284 1.358 . S
C283 C288 1.382 . S
C284 C283 1.358 . S
C284 C285 1.385 . S
C284 H312 0.930 . S
C285 C284 1.385 . S
C285 C286 1.395 . S
C285 H313 0.929 . S
C286 C285 1.395 . S
C286 C287 1.335 . S
C287 C286 1.335 . S
C287 C288 1.398 . S
C287 H314 0.930 . S
C288 C283 1.382 . S
C288 C287 1.398 . S
C288 H315 0.929 . S
C289 O302 1.271 . S
C289 O303 1.251 . S
C290 O304 1.252 . S
C290 O305 1.272 . S
C291 Sm281 2.846 . S
C291 C292 1.506 . S
C291 O306 1.261 . S
C291 O307 1.242 . S
C292 C291 1.506 . S
C292 C293 1.358 . S
C292 C297 1.382 . S
C293 C292 1.358 . S
C293 C294 1.385 . S
C293 H316 0.930 . S
C294 C293 1.385 . S
C294 C295 1.395 . S
C294 H317 0.929 . S
C295 C294 1.395 . S
C295 C296 1.335 . S
C296 C295 1.335 . S
C296 C297 1.398 . S
C296 H318 0.930 . S
C297 C292 1.382 . S
C297 C296 1.398 . S
C297 H319 0.929 . S
C298 O308 1.271 . S
C298 O309 1.251 . S
C299 O310 1.252 . S
C299 O311 1.272 . S
O300 Sm280 2.543 1_554 S
O300 C282 1.261 . S
O301 Sm280 2.450 . S
O301 C282 1.242 1_556 S
O302 Sm280 2.681 . S
O302 Sm281 2.386 . S
O302 C289 1.271 . S
O303 Sm280 2.464 . S
O303 C289 1.251 . S
O304 Sm280 2.396 1_554 S
O304 C290 1.252 . S
O305 Sm281 2.408 1_554 S
O305 C290 1.272 . S
O306 Sm281 2.543 . S
O306 C291 1.261 . S
O307 Sm281 2.450 . S
O307 C291 1.242 . S
O308 Sm280 2.386 . S
O308 Sm281 2.681 . S
O308 C298 1.271 . S
O309 Sm281 2.464 . S
O309 C298 1.251 . S
O310 Sm281 2.396 . S
O310 C299 1.252 . S
O311 Sm280 2.408 . S
O311 C299 1.272 . S
H312 C284 0.930 . S
H313 C285 0.929 . S
H314 C287 0.930 . S
H315 C288 0.929 . S
H316 C293 0.930 . S
H317 C294 0.929 . S
H318 C296 0.930 . S
H319 C297 0.929 . S
Sm320 C322 2.846 . S
Sm320 O340 2.543 . S
Sm320 O341 2.450 . S
Sm320 O342 2.681 . S
Sm320 O343 2.464 . S
Sm320 O344 2.396 . S
Sm320 O348 2.386 . S
Sm320 O351 2.408 . S
Sm321 C331 2.846 . S
Sm321 O342 2.386 . S
Sm321 O345 2.408 . S
Sm321 O346 2.543 . S
Sm321 O347 2.450 . S
Sm321 O348 2.681 . S
Sm321 O349 2.464 . S
Sm321 O350 2.396 . S
C322 Sm320 2.846 . S
C322 C323 1.506 . S
C322 O340 1.261 . S
C322 O341 1.242 . S
C323 C322 1.506 . S
C323 C324 1.358 . S
C323 C328 1.382 . S
C324 C323 1.358 . S
C324 C325 1.385 . S
C324 H352 0.930 . S
C325 C324 1.385 . S
C325 C326 1.395 . S
C325 H353 0.929 . S
C326 C325 1.395 . S
C326 C327 1.335 . S
C327 C326 1.335 . S
C327 C328 1.398 . S
C327 H354 0.930 . S
C328 C323 1.382 . S
C328 C327 1.398 . S
C328 H355 0.929 . S
C329 O342 1.271 . S
C329 O343 1.251 . S
C330 O344 1.252 . S
C330 O345 1.272 . S
C331 Sm321 2.846 . S
C331 C332 1.506 . S
C331 O346 1.261 . S
C331 O347 1.242 . S
C332 C331 1.506 . S
C332 C333 1.358 . S
C332 C337 1.382 . S
C333 C332 1.358 . S
C333 C334 1.385 . S
C333 H356 0.930 . S
C334 C333 1.385 . S
C334 C335 1.395 . S
C334 H357 0.929 . S
C335 C334 1.395 . S
C335 C336 1.335 . S
C336 C335 1.335 . S
C336 C337 1.398 . S
C336 H358 0.930 . S
C337 C332 1.382 . S
C337 C336 1.398 . S
C337 H359 0.929 . S
C338 O348 1.271 . S
C338 O349 1.251 . S
C339 O350 1.252 . S
C339 O351 1.272 . S
O340 Sm320 2.543 . S
O340 C322 1.261 . S
O341 Sm320 2.450 . S
O341 C322 1.242 . S
O342 Sm320 2.681 . S
O342 Sm321 2.386 . S
O342 C329 1.271 . S
O343 Sm320 2.464 . S
O343 C329 1.251 . S
O344 Sm320 2.396 . S
O344 C330 1.252 . S
O345 Sm321 2.408 . S
O345 C330 1.272 . S
O346 Sm321 2.543 . S
O346 C331 1.261 . S
O347 Sm321 2.450 . S
O347 C331 1.242 . S
O348 Sm320 2.386 . S
O348 Sm321 2.681 . S
O348 C338 1.271 . S
O349 Sm321 2.464 . S
O349 C338 1.251 . S
O350 Sm321 2.396 . S
O350 C339 1.252 . S
O351 Sm320 2.408 . S
O351 C339 1.272 . S
H352 C324 0.930 . S
H353 C325 0.929 . S
H354 C327 0.930 . S
H355 C328 0.929 . S
H356 C333 0.930 . S
H357 C334 0.929 . S
H358 C336 0.930 . S
H359 C337 0.929 . S
Sm360 C362 2.846 . S
Sm360 O380 2.543 . S
Sm360 O381 2.450 . S
Sm360 O382 2.681 . S
Sm360 O383 2.464 . S
Sm360 O384 2.396 . S
Sm360 O388 2.386 . S
Sm360 O391 2.408 . S
Sm361 C371 2.846 . S
Sm361 O382 2.386 . S
Sm361 O385 2.408 . S
Sm361 O386 2.543 . S
Sm361 O387 2.450 . S
Sm361 O388 2.681 . S
Sm361 O389 2.464 . S
Sm361 O390 2.396 . S
C362 Sm360 2.846 . S
C362 C363 1.506 . S
C362 O380 1.261 . S
C362 O381 1.242 . S
C363 C362 1.506 . S
C363 C364 1.358 . S
C363 C368 1.382 . S
C364 C363 1.358 . S
C364 C365 1.385 . S
C364 H392 0.930 . S
C365 C364 1.385 . S
C365 C366 1.395 . S
C365 H393 0.929 . S
C366 C365 1.395 . S
C366 C367 1.335 . S
C367 C366 1.335 . S
C367 C368 1.398 . S
C367 H394 0.930 . S
C368 C363 1.382 . S
C368 C367 1.398 . S
C368 H395 0.929 . S
C369 O382 1.271 . S
C369 O383 1.251 . S
C370 O384 1.252 . S
C370 O385 1.272 . S
C371 Sm361 2.846 . S
C371 C372 1.506 . S
C371 O386 1.261 . S
C371 O387 1.242 . S
C372 C371 1.506 . S
C372 C373 1.358 . S
C372 C377 1.382 . S
C373 C372 1.358 . S
C373 C374 1.385 . S
C373 H396 0.930 . S
C374 C373 1.385 . S
C374 C375 1.395 . S
C374 H397 0.929 . S
C375 C374 1.395 . S
C375 C376 1.335 . S
C376 C375 1.335 . S
C376 C377 1.398 . S
C376 H398 0.930 . S
C377 C372 1.382 . S
C377 C376 1.398 . S
C377 H399 0.929 . S
C378 O388 1.271 . S
C378 O389 1.251 . S
C379 O390 1.252 . S
C379 O391 1.272 . S
O380 Sm360 2.543 . S
O380 C362 1.261 . S
O381 Sm360 2.450 . S
O381 C362 1.242 . S
O382 Sm360 2.681 . S
O382 Sm361 2.386 . S
O382 C369 1.271 . S
O383 Sm360 2.464 . S
O383 C369 1.251 . S
O384 Sm360 2.396 . S
O384 C370 1.252 . S
O385 Sm361 2.408 . S
O385 C370 1.272 . S
O386 Sm361 2.543 . S
O386 C371 1.261 . S
O387 Sm361 2.450 . S
O387 C371 1.242 . S
O388 Sm360 2.386 . S
O388 Sm361 2.681 . S
O388 C378 1.271 . S
O389 Sm361 2.464 . S
O389 C378 1.251 . S
O390 Sm361 2.396 . S
O390 C379 1.252 . S
O391 Sm360 2.408 . S
O391 C379 1.272 . S
H392 C364 0.930 . S
H393 C365 0.929 . S
H394 C367 0.930 . S
H395 C368 0.929 . S
H396 C373 0.930 . S
H397 C374 0.929 . S
H398 C376 0.930 . S
H399 C377 0.929 . S
Sm400 C402 2.846 . S
Sm400 O420 2.543 . S
Sm400 O421 2.450 . S
Sm400 O422 2.681 . S
Sm400 O423 2.464 . S
Sm400 O424 2.396 . S
Sm400 O428 2.386 . S
Sm400 O431 2.408 . S
Sm401 C411 2.846 . S
Sm401 O422 2.386 . S
Sm401 O425 2.408 . S
Sm401 O426 2.543 . S
Sm401 O427 2.450 . S
Sm401 O428 2.681 . S
Sm401 O429 2.464 . S
Sm401 O430 2.396 . S
C402 Sm400 2.846 . S
C402 C403 1.506 . S
C402 O420 1.261 . S
C402 O421 1.242 . S
C403 C402 1.506 . S
C403 C404 1.358 . S
C403 C408 1.382 . S
C404 C403 1.358 . S
C404 C405 1.385 . S
C404 H432 0.930 . S
C405 C404 1.385 . S
C405 C406 1.395 . S
C405 H433 0.929 . S
C406 C405 1.395 . S
C406 C407 1.335 . S
C407 C406 1.335 . S
C407 C408 1.398 . S
C407 H434 0.930 . S
C408 C403 1.382 . S
C408 C407 1.398 . S
C408 H435 0.929 . S
C409 O422 1.271 . S
C409 O423 1.251 . S
C410 O424 1.252 . S
C410 O425 1.272 . S
C411 Sm401 2.846 . S
C411 C412 1.506 . S
C411 O426 1.261 . S
C411 O427 1.242 . S
C412 C411 1.506 . S
C412 C413 1.358 . S
C412 C417 1.382 . S
C413 C412 1.358 . S
C413 C414 1.385 . S
C413 H436 0.930 . S
C414 C413 1.385 . S
C414 C415 1.395 . S
C414 H437 0.929 . S
C415 C414 1.395 . S
C415 C416 1.335 . S
C416 C415 1.335 . S
C416 C417 1.398 . S
C416 H438 0.930 . S
C417 C412 1.382 . S
C417 C416 1.398 . S
C417 H439 0.929 . S
C418 O428 1.271 . S
C418 O429 1.251 . S
C419 O430 1.252 . S
C419 O431 1.272 . S
O420 Sm400 2.543 . S
O420 C402 1.261 . S
O421 Sm400 2.450 . S
O421 C402 1.242 . S
O422 Sm400 2.681 . S
O422 Sm401 2.386 . S
O422 C409 1.271 . S
O423 Sm400 2.464 . S
O423 C409 1.251 . S
O424 Sm400 2.396 . S
O424 C410 1.252 . S
O425 Sm401 2.408 . S
O425 C410 1.272 . S
O426 Sm401 2.543 . S
O426 C411 1.261 . S
O427 Sm401 2.450 . S
O427 C411 1.242 . S
O428 Sm400 2.386 . S
O428 Sm401 2.681 . S
O428 C418 1.271 . S
O429 Sm401 2.464 . S
O429 C418 1.251 . S
O430 Sm401 2.396 . S
O430 C419 1.252 . S
O431 Sm400 2.408 . S
O431 C419 1.272 . S
H432 C404 0.930 . S
H433 C405 0.929 . S
H434 C407 0.930 . S
H435 C408 0.929 . S
H436 C413 0.930 . S
H437 C414 0.929 . S
H438 C416 0.930 . S
H439 C417 0.929 . S
Sm440 C442 2.846 . S
Sm440 O460 2.543 . S
Sm440 O461 2.450 . S
Sm440 O462 2.681 . S
Sm440 O463 2.464 . S
Sm440 O464 2.396 . S
Sm440 O468 2.386 . S
Sm440 O471 2.408 1_556 S
Sm441 C451 2.846 1_556 S
Sm441 O462 2.386 . S
Sm441 O465 2.408 . S
Sm441 O466 2.543 1_556 S
Sm441 O467 2.450 . S
Sm441 O468 2.681 . S
Sm441 O469 2.464 . S
Sm441 O470 2.396 1_556 S
C442 Sm440 2.846 . S
C442 C443 1.506 . S
C442 O460 1.261 . S
C442 O461 1.242 . S
C443 C442 1.506 . S
C443 C444 1.358 . S
C443 C448 1.382 . S
C444 C443 1.358 . S
C444 C445 1.385 . S
C444 H472 0.930 . S
C445 C444 1.385 . S
C445 C446 1.395 . S
C445 H473 0.929 . S
C446 C445 1.395 . S
C446 C447 1.335 . S
C447 C446 1.335 . S
C447 C448 1.398 . S
C447 H474 0.930 . S
C448 C443 1.382 . S
C448 C447 1.398 . S
C448 H475 0.929 . S
C449 O462 1.271 . S
C449 O463 1.251 . S
C450 O464 1.252 . S
C450 O465 1.272 . S
C451 Sm441 2.846 1_554 S
C451 C452 1.506 . S
C451 O466 1.261 . S
C451 O467 1.242 1_554 S
C452 C451 1.506 . S
C452 C453 1.358 . S
C452 C457 1.382 . S
C453 C452 1.358 . S
C453 C454 1.385 . S
C453 H476 0.930 . S
C454 C453 1.385 . S
C454 C455 1.395 . S
C454 H477 0.929 . S
C455 C454 1.395 . S
C455 C456 1.335 . S
C456 C455 1.335 . S
C456 C457 1.398 . S
C456 H478 0.930 . S
C457 C452 1.382 . S
C457 C456 1.398 . S
C457 H479 0.929 . S
C458 O468 1.271 . S
C458 O469 1.251 . S
C459 O470 1.252 . S
C459 O471 1.272 . S
O460 Sm440 2.543 . S
O460 C442 1.261 . S
O461 Sm440 2.450 . S
O461 C442 1.242 . S
O462 Sm440 2.681 . S
O462 Sm441 2.386 . S
O462 C449 1.271 . S
O463 Sm440 2.464 . S
O463 C449 1.251 . S
O464 Sm440 2.396 . S
O464 C450 1.252 . S
O465 Sm441 2.408 . S
O465 C450 1.272 . S
O466 Sm441 2.543 1_554 S
O466 C451 1.261 . S
O467 Sm441 2.450 . S
O467 C451 1.242 1_556 S
O468 Sm440 2.386 . S
O468 Sm441 2.681 . S
O468 C458 1.271 . S
O469 Sm441 2.464 . S
O469 C458 1.251 . S
O470 Sm441 2.396 1_554 S
O470 C459 1.252 . S
O471 Sm440 2.408 1_554 S
O471 C459 1.272 . S
H472 C444 0.930 . S
H473 C445 0.929 . S
H474 C447 0.930 . S
H475 C448 0.929 . S
H476 C453 0.930 . S
H477 C454 0.929 . S
H478 C456 0.930 . S
H479 C457 0.929 . S
Sm480 C482 2.846 . S
Sm480 O500 2.543 . S
Sm480 O501 2.450 . S
Sm480 O502 2.681 . S
Sm480 O503 2.464 . S
Sm480 O504 2.396 . S
Sm480 O508 2.386 . S
Sm480 O511 2.408 . S
Sm481 C491 2.846 . S
Sm481 O502 2.386 . S
Sm481 O505 2.408 . S
Sm481 O506 2.543 . S
Sm481 O507 2.450 . S
Sm481 O508 2.681 . S
Sm481 O509 2.464 . S
Sm481 O510 2.396 . S
C482 Sm480 2.846 . S
C482 C483 1.506 . S
C482 O500 1.261 . S
C482 O501 1.242 . S
C483 C482 1.506 . S
C483 C484 1.358 . S
C483 C488 1.382 . S
C484 C483 1.358 . S
C484 C485 1.385 . S
C484 H512 0.930 . S
C485 C484 1.385 . S
C485 C486 1.395 . S
C485 H513 0.929 . S
C486 C485 1.395 . S
C486 C487 1.335 . S
C487 C486 1.335 . S
C487 C488 1.398 . S
C487 H514 0.930 . S
C488 C483 1.382 . S
C488 C487 1.398 . S
C488 H515 0.929 . S
C489 O502 1.271 . S
C489 O503 1.251 . S
C490 O504 1.252 . S
C490 O505 1.272 . S
C491 Sm481 2.846 . S
C491 C492 1.506 . S
C491 O506 1.261 . S
C491 O507 1.242 . S
C492 C491 1.506 . S
C492 C493 1.358 . S
C492 C497 1.382 . S
C493 C492 1.358 . S
C493 C494 1.385 . S
C493 H516 0.930 . S
C494 C493 1.385 . S
C494 C495 1.395 . S
C494 H517 0.929 . S
C495 C494 1.395 . S
C495 C496 1.335 . S
C496 C495 1.335 . S
C496 C497 1.398 . S
C496 H518 0.930 . S
C497 C492 1.382 . S
C497 C496 1.398 . S
C497 H519 0.929 . S
C498 O508 1.271 . S
C498 O509 1.251 . S
C499 O510 1.252 . S
C499 O511 1.272 . S
O500 Sm480 2.543 . S
O500 C482 1.261 . S
O501 Sm480 2.450 . S
O501 C482 1.242 . S
O502 Sm480 2.681 . S
O502 Sm481 2.386 . S
O502 C489 1.271 . S
O503 Sm480 2.464 . S
O503 C489 1.251 . S
O504 Sm480 2.396 . S
O504 C490 1.252 . S
O505 Sm481 2.408 . S
O505 C490 1.272 . S
O506 Sm481 2.543 . S
O506 C491 1.261 . S
O507 Sm481 2.450 . S
O507 C491 1.242 . S
O508 Sm480 2.386 . S
O508 Sm481 2.681 . S
O508 C498 1.271 . S
O509 Sm481 2.464 . S
O509 C498 1.251 . S
O510 Sm481 2.396 . S
O510 C499 1.252 . S
O511 Sm480 2.408 . S
O511 C499 1.272 . S
H512 C484 0.930 . S
H513 C485 0.929 . S
H514 C487 0.930 . S
H515 C488 0.929 . S
H516 C493 0.930 . S
H517 C494 0.929 . S
H518 C496 0.930 . S
H519 C497 0.929 . S
Sm520 C522 2.846 . S
Sm520 O540 2.543 . S
Sm520 O541 2.450 . S
Sm520 O542 2.681 . S
Sm520 O543 2.464 . S
Sm520 O544 2.396 . S
Sm520 O548 2.386 . S
Sm520 O551 2.408 . S
Sm521 C531 2.846 . S
Sm521 O542 2.386 . S
Sm521 O545 2.408 . S
Sm521 O546 2.543 . S
Sm521 O547 2.450 . S
Sm521 O548 2.681 . S
Sm521 O549 2.464 . S
Sm521 O550 2.396 . S
C522 Sm520 2.846 . S
C522 C523 1.506 . S
C522 O540 1.261 . S
C522 O541 1.242 . S
C523 C522 1.506 . S
C523 C524 1.358 . S
C523 C528 1.382 . S
C524 C523 1.358 . S
C524 C525 1.385 . S
C524 H552 0.930 . S
C525 C524 1.385 . S
C525 C526 1.395 . S
C525 H553 0.929 . S
C526 C525 1.395 . S
C526 C527 1.335 . S
C527 C526 1.335 . S
C527 C528 1.398 . S
C527 H554 0.930 . S
C528 C523 1.382 . S
C528 C527 1.398 . S
C528 H555 0.929 . S
C529 O542 1.271 . S
C529 O543 1.251 . S
C530 O544 1.252 . S
C530 O545 1.272 . S
C531 Sm521 2.846 . S
C531 C532 1.506 . S
C531 O546 1.261 . S
C531 O547 1.242 . S
C532 C531 1.506 . S
C532 C533 1.358 . S
C532 C537 1.382 . S
C533 C532 1.358 . S
C533 C534 1.385 . S
C533 H556 0.930 . S
C534 C533 1.385 . S
C534 C535 1.395 . S
C534 H557 0.929 . S
C535 C534 1.395 . S
C535 C536 1.335 . S
C536 C535 1.335 . S
C536 C537 1.398 . S
C536 H558 0.930 . S
C537 C532 1.382 . S
C537 C536 1.398 . S
C537 H559 0.929 . S
C538 O548 1.271 . S
C538 O549 1.251 . S
C539 O550 1.252 . S
C539 O551 1.272 . S
O540 Sm520 2.543 . S
O540 C522 1.261 . S
O541 Sm520 2.450 . S
O541 C522 1.242 . S
O542 Sm520 2.681 . S
O542 Sm521 2.386 . S
O542 C529 1.271 . S
O543 Sm520 2.464 . S
O543 C529 1.251 . S
O544 Sm520 2.396 . S
O544 C530 1.252 . S
O545 Sm521 2.408 . S
O545 C530 1.272 . S
O546 Sm521 2.543 . S
O546 C531 1.261 . S
O547 Sm521 2.450 . S
O547 C531 1.242 . S
O548 Sm520 2.386 . S
O548 Sm521 2.681 . S
O548 C538 1.271 . S
O549 Sm521 2.464 . S
O549 C538 1.251 . S
O550 Sm521 2.396 . S
O550 C539 1.252 . S
O551 Sm520 2.408 . S
O551 C539 1.272 . S
H552 C524 0.930 . S
H553 C525 0.929 . S
H554 C527 0.930 . S
H555 C528 0.929 . S
H556 C533 0.930 . S
H557 C534 0.929 . S
H558 C536 0.930 . S
H559 C537 0.929 . S
Sm560 C562 2.846 . S
Sm560 O580 2.543 . S
Sm560 O581 2.450 . S
Sm560 O582 2.681 . S
Sm560 O583 2.464 . S
Sm560 O584 2.396 . S
Sm560 O588 2.386 . S
Sm560 O591 2.408 . S
Sm561 C571 2.846 . S
Sm561 O582 2.386 . S
Sm561 O585 2.408 . S
Sm561 O586 2.543 . S
Sm561 O587 2.450 . S
Sm561 O588 2.681 . S
Sm561 O589 2.464 . S
Sm561 O590 2.396 . S
C562 Sm560 2.846 . S
C562 C563 1.506 . S
C562 O580 1.261 . S
C562 O581 1.242 . S
C563 C562 1.506 . S
C563 C564 1.358 . S
C563 C568 1.382 . S
C564 C563 1.358 . S
C564 C565 1.385 . S
C564 H592 0.930 . S
C565 C564 1.385 . S
C565 C566 1.395 . S
C565 H593 0.929 . S
C566 C565 1.395 . S
C566 C567 1.335 . S
C567 C566 1.335 . S
C567 C568 1.398 . S
C567 H594 0.930 . S
C568 C563 1.382 . S
C568 C567 1.398 . S
C568 H595 0.929 . S
C569 O582 1.271 . S
C569 O583 1.251 . S
C570 O584 1.252 . S
C570 O585 1.272 . S
C571 Sm561 2.846 . S
C571 C572 1.506 . S
C571 O586 1.261 . S
C571 O587 1.242 . S
C572 C571 1.506 . S
C572 C573 1.358 . S
C572 C577 1.382 . S
C573 C572 1.358 . S
C573 C574 1.385 . S
C573 H596 0.930 . S
C574 C573 1.385 . S
C574 C575 1.395 . S
C574 H597 0.929 . S
C575 C574 1.395 . S
C575 C576 1.335 . S
C576 C575 1.335 . S
C576 C577 1.398 . S
C576 H598 0.930 . S
C577 C572 1.382 . S
C577 C576 1.398 . S
C577 H599 0.929 . S
C578 O588 1.271 . S
C578 O589 1.251 . S
C579 O590 1.252 . S
C579 O591 1.272 . S
O580 Sm560 2.543 . S
O580 C562 1.261 . S
O581 Sm560 2.450 . S
O581 C562 1.242 . S
O582 Sm560 2.681 . S
O582 Sm561 2.386 . S
O582 C569 1.271 . S
O583 Sm560 2.464 . S
O583 C569 1.251 . S
O584 Sm560 2.396 . S
O584 C570 1.252 . S
O585 Sm561 2.408 . S
O585 C570 1.272 . S
O586 Sm561 2.543 . S
O586 C571 1.261 . S
O587 Sm561 2.450 . S
O587 C571 1.242 . S
O588 Sm560 2.386 . S
O588 Sm561 2.681 . S
O588 C578 1.271 . S
O589 Sm561 2.464 . S
O589 C578 1.251 . S
O590 Sm561 2.396 . S
O590 C579 1.252 . S
O591 Sm560 2.408 . S
O591 C579 1.272 . S
H592 C564 0.930 . S
H593 C565 0.929 . S
H594 C567 0.930 . S
H595 C568 0.929 . S
H596 C573 0.930 . S
H597 C574 0.929 . S
H598 C576 0.930 . S
H599 C577 0.929 . S
Sm600 C602 2.846 . S
Sm600 O620 2.543 . S
Sm600 O621 2.450 . S
Sm600 O622 2.681 . S
Sm600 O623 2.464 . S
Sm600 O624 2.396 . S
Sm600 O628 2.386 . S
Sm600 O631 2.408 1_554 S
Sm601 C611 2.846 1_554 S
Sm601 O622 2.386 . S
Sm601 O625 2.408 . S
Sm601 O626 2.543 1_554 S
Sm601 O627 2.450 . S
Sm601 O628 2.681 . S
Sm601 O629 2.464 . S
Sm601 O630 2.396 1_554 S
C602 Sm600 2.846 . S
C602 C603 1.506 . S
C602 O620 1.261 . S
C602 O621 1.242 . S
C603 C602 1.506 . S
C603 C604 1.358 . S
C603 C608 1.382 . S
C604 C603 1.358 . S
C604 C605 1.385 . S
C604 H632 0.930 . S
C605 C604 1.385 . S
C605 C606 1.395 . S
C605 H633 0.929 . S
C606 C605 1.395 . S
C606 C607 1.335 . S
C607 C606 1.335 . S
C607 C608 1.398 . S
C607 H634 0.930 . S
C608 C603 1.382 . S
C608 C607 1.398 . S
C608 H635 0.929 . S
C609 O622 1.271 . S
C609 O623 1.251 . S
C610 O624 1.252 . S
C610 O625 1.272 . S
C611 Sm601 2.846 1_556 S
C611 C612 1.506 . S
C611 O626 1.261 . S
C611 O627 1.242 1_556 S
C612 C611 1.506 . S
C612 C613 1.358 . S
C612 C617 1.382 . S
C613 C612 1.358 . S
C613 C614 1.385 . S
C613 H636 0.930 . S
C614 C613 1.385 . S
C614 C615 1.395 . S
C614 H637 0.929 . S
C615 C614 1.395 . S
C615 C616 1.335 . S
C616 C615 1.335 . S
C616 C617 1.398 . S
C616 H638 0.930 . S
C617 C612 1.382 . S
C617 C616 1.398 . S
C617 H639 0.929 . S
C618 O628 1.271 . S
C618 O629 1.251 . S
C619 O630 1.252 . S
C619 O631 1.272 . S
O620 Sm600 2.543 . S
O620 C602 1.261 . S
O621 Sm600 2.450 . S
O621 C602 1.242 . S
O622 Sm600 2.681 . S
O622 Sm601 2.386 . S
O622 C609 1.271 . S
O623 Sm600 2.464 . S
O623 C609 1.251 . S
O624 Sm600 2.396 . S
O624 C610 1.252 . S
O625 Sm601 2.408 . S
O625 C610 1.272 . S
O626 Sm601 2.543 1_556 S
O626 C611 1.261 . S
O627 Sm601 2.450 . S
O627 C611 1.242 1_554 S
O628 Sm600 2.386 . S
O628 Sm601 2.681 . S
O628 C618 1.271 . S
O629 Sm601 2.464 . S
O629 C618 1.251 . S
O630 Sm601 2.396 1_556 S
O630 C619 1.252 . S
O631 Sm600 2.408 1_556 S
O631 C619 1.272 . S
H632 C604 0.930 . S
H633 C605 0.929 . S
H634 C607 0.930 . S
H635 C608 0.929 . S
H636 C613 0.930 . S
H637 C614 0.929 . S
H638 C616 0.930 . S
H639 C617 0.929 . S
Sm640 C642 2.846 . S
Sm640 O660 2.543 . S
Sm640 O661 2.450 . S
Sm640 O662 2.681 . S
Sm640 O663 2.464 . S
Sm640 O664 2.396 . S
Sm640 O668 2.386 . S
Sm640 O671 2.408 . S
Sm641 C651 2.846 . S
Sm641 O662 2.386 . S
Sm641 O665 2.408 . S
Sm641 O666 2.543 . S
Sm641 O667 2.450 . S
Sm641 O668 2.681 . S
Sm641 O669 2.464 . S
Sm641 O670 2.396 . S
C642 Sm640 2.846 . S
C642 C643 1.506 . S
C642 O660 1.261 . S
C642 O661 1.242 . S
C643 C642 1.506 . S
C643 C644 1.358 . S
C643 C648 1.382 . S
C644 C643 1.358 . S
C644 C645 1.385 . S
C644 H672 0.930 . S
C645 C644 1.385 . S
C645 C646 1.395 . S
C645 H673 0.929 . S
C646 C645 1.395 . S
C646 C647 1.335 . S
C647 C646 1.335 . S
C647 C648 1.398 . S
C647 H674 0.930 . S
C648 C643 1.382 . S
C648 C647 1.398 . S
C648 H675 0.929 . S
C649 O662 1.271 . S
C649 O663 1.251 . S
C650 O664 1.252 . S
C650 O665 1.272 . S
C651 Sm641 2.846 . S
C651 C652 1.506 . S
C651 O666 1.261 . S
C651 O667 1.242 . S
C652 C651 1.506 . S
C652 C653 1.358 . S
C652 C657 1.382 . S
C653 C652 1.358 . S
C653 C654 1.385 . S
C653 H676 0.930 . S
C654 C653 1.385 . S
C654 C655 1.395 . S
C654 H677 0.929 . S
C655 C654 1.395 . S
C655 C656 1.335 . S
C656 C655 1.335 . S
C656 C657 1.398 . S
C656 H678 0.930 . S
C657 C652 1.382 . S
C657 C656 1.398 . S
C657 H679 0.929 . S
C658 O668 1.271 . S
C658 O669 1.251 . S
C659 O670 1.252 . S
C659 O671 1.272 . S
O660 Sm640 2.543 . S
O660 C642 1.261 . S
O661 Sm640 2.450 . S
O661 C642 1.242 . S
O662 Sm640 2.681 . S
O662 Sm641 2.386 . S
O662 C649 1.271 . S
O663 Sm640 2.464 . S
O663 C649 1.251 . S
O664 Sm640 2.396 . S
O664 C650 1.252 . S
O665 Sm641 2.408 . S
O665 C650 1.272 . S
O666 Sm641 2.543 . S
O666 C651 1.261 . S
O667 Sm641 2.450 . S
O667 C651 1.242 . S
O668 Sm640 2.386 . S
O668 Sm641 2.681 . S
O668 C658 1.271 . S
O669 Sm641 2.464 . S
O669 C658 1.251 . S
O670 Sm641 2.396 . S
O670 C659 1.252 . S
O671 Sm640 2.408 . S
O671 C659 1.272 . S
H672 C644 0.930 . S
H673 C645 0.929 . S
H674 C647 0.930 . S
H675 C648 0.929 . S
H676 C653 0.930 . S
H677 C654 0.929 . S
H678 C656 0.930 . S
H679 C657 0.929 . S
Sm680 C682 2.846 1_554 S
Sm680 O700 2.543 1_554 S
Sm680 O701 2.450 . S
Sm680 O702 2.681 . S
Sm680 O703 2.464 . S
Sm680 O704 2.396 1_554 S
Sm680 O708 2.386 . S
Sm680 O711 2.408 . S
Sm681 C691 2.846 . S
Sm681 O702 2.386 . S
Sm681 O705 2.408 1_554 S
Sm681 O706 2.543 . S
Sm681 O707 2.450 . S
Sm681 O708 2.681 . S
Sm681 O709 2.464 . S
Sm681 O710 2.396 . S
C682 Sm680 2.846 1_556 S
C682 C683 1.506 . S
C682 O700 1.261 . S
C682 O701 1.242 1_556 S
C683 C682 1.506 . S
C683 C684 1.358 . S
C683 C688 1.382 . S
C684 C683 1.358 . S
C684 C685 1.385 . S
C684 H712 0.930 . S
C685 C684 1.385 . S
C685 C686 1.395 . S
C685 H713 0.929 . S
C686 C685 1.395 . S
C686 C687 1.335 . S
C687 C686 1.335 . S
C687 C688 1.398 . S
C687 H714 0.930 . S
C688 C683 1.382 . S
C688 C687 1.398 . S
C688 H715 0.929 . S
C689 O702 1.271 . S
C689 O703 1.251 . S
C690 O704 1.252 . S
C690 O705 1.272 . S
C691 Sm681 2.846 . S
C691 C692 1.506 . S
C691 O706 1.261 . S
C691 O707 1.242 . S
C692 C691 1.506 . S
C692 C693 1.358 . S
C692 C697 1.382 . S
C693 C692 1.358 . S
C693 C694 1.385 . S
C693 H716 0.930 . S
C694 C693 1.385 . S
C694 C695 1.395 . S
C694 H717 0.929 . S
C695 C694 1.395 . S
C695 C696 1.335 . S
C696 C695 1.335 . S
C696 C697 1.398 . S
C696 H718 0.930 . S
C697 C692 1.382 . S
C697 C696 1.398 . S
C697 H719 0.929 . S
C698 O708 1.271 . S
C698 O709 1.251 . S
C699 O710 1.252 . S
C699 O711 1.272 . S
O700 Sm680 2.543 1_556 S
O700 C682 1.261 . S
O701 Sm680 2.450 . S
O701 C682 1.242 1_554 S
O702 Sm680 2.681 . S
O702 Sm681 2.386 . S
O702 C689 1.271 . S
O703 Sm680 2.464 . S
O703 C689 1.251 . S
O704 Sm680 2.396 1_556 S
O704 C690 1.252 . S
O705 Sm681 2.408 1_556 S
O705 C690 1.272 . S
O706 Sm681 2.543 . S
O706 C691 1.261 . S
O707 Sm681 2.450 . S
O707 C691 1.242 . S
O708 Sm680 2.386 . S
O708 Sm681 2.681 . S
O708 C698 1.271 . S
O709 Sm681 2.464 . S
O709 C698 1.251 . S
O710 Sm681 2.396 . S
O710 C699 1.252 . S
O711 Sm680 2.408 . S
O711 C699 1.272 . S
H712 C684 0.930 . S
H713 C685 0.929 . S
H714 C687 0.930 . S
H715 C688 0.929 . S
H716 C693 0.930 . S
H717 C694 0.929 . S
H718 C696 0.930 . S
H719 C697 0.929 . S
Sm720 C722 2.846 . S
Sm720 O740 2.543 . S
Sm720 O741 2.450 . S
Sm720 O742 2.681 . S
Sm720 O743 2.464 . S
Sm720 O744 2.396 . S
Sm720 O748 2.386 . S
Sm720 O751 2.408 . S
Sm721 C731 2.846 . S
Sm721 O742 2.386 . S
Sm721 O745 2.408 . S
Sm721 O746 2.543 . S
Sm721 O747 2.450 . S
Sm721 O748 2.681 . S
Sm721 O749 2.464 . S
Sm721 O750 2.396 . S
C722 Sm720 2.846 . S
C722 C723 1.506 . S
C722 O740 1.261 . S
C722 O741 1.242 . S
C723 C722 1.506 . S
C723 C724 1.358 . S
C723 C728 1.382 . S
C724 C723 1.358 . S
C724 C725 1.385 . S
C724 H752 0.930 . S
C725 C724 1.385 . S
C725 C726 1.395 . S
C725 H753 0.929 . S
C726 C725 1.395 . S
C726 C727 1.335 . S
C727 C726 1.335 . S
C727 C728 1.398 . S
C727 H754 0.930 . S
C728 C723 1.382 . S
C728 C727 1.398 . S
C728 H755 0.929 . S
C729 O742 1.271 . S
C729 O743 1.251 . S
C730 O744 1.252 . S
C730 O745 1.272 . S
C731 Sm721 2.846 . S
C731 C732 1.506 . S
C731 O746 1.261 . S
C731 O747 1.242 . S
C732 C731 1.506 . S
C732 C733 1.358 . S
C732 C737 1.382 . S
C733 C732 1.358 . S
C733 C734 1.385 . S
C733 H756 0.930 . S
C734 C733 1.385 . S
C734 C735 1.395 . S
C734 H757 0.929 . S
C735 C734 1.395 . S
C735 C736 1.335 . S
C736 C735 1.335 . S
C736 C737 1.398 . S
C736 H758 0.930 . S
C737 C732 1.382 . S
C737 C736 1.398 . S
C737 H759 0.929 . S
C738 O748 1.271 . S
C738 O749 1.251 . S
C739 O750 1.252 . S
C739 O751 1.272 . S
O740 Sm720 2.543 . S
O740 C722 1.261 . S
O741 Sm720 2.450 . S
O741 C722 1.242 . S
O742 Sm720 2.681 . S
O742 Sm721 2.386 . S
O742 C729 1.271 . S
O743 Sm720 2.464 . S
O743 C729 1.251 . S
O744 Sm720 2.396 . S
O744 C730 1.252 . S
O745 Sm721 2.408 . S
O745 C730 1.272 . S
O746 Sm721 2.543 . S
O746 C731 1.261 . S
O747 Sm721 2.450 . S
O747 C731 1.242 . S
O748 Sm720 2.386 . S
O748 Sm721 2.681 . S
O748 C738 1.271 . S
O749 Sm721 2.464 . S
O749 C738 1.251 . S
O750 Sm721 2.396 . S
O750 C739 1.252 . S
O751 Sm720 2.408 . S
O751 C739 1.272 . S
H752 C724 0.930 . S
H753 C725 0.929 . S
H754 C727 0.930 . S
H755 C728 0.929 . S
H756 C733 0.930 . S
H757 C734 0.929 . S
H758 C736 0.930 . S
H759 C737 0.929 . S
Sm760 C762 2.846 . S
Sm760 O780 2.543 . S
Sm760 O781 2.450 . S
Sm760 O782 2.681 . S
Sm760 O783 2.464 . S
Sm760 O784 2.396 . S
Sm760 O788 2.386 . S
Sm760 O791 2.408 . S
Sm761 C771 2.846 . S
Sm761 O782 2.386 . S
Sm761 O785 2.408 . S
Sm761 O786 2.543 . S
Sm761 O787 2.450 . S
Sm761 O788 2.681 . S
Sm761 O789 2.464 . S
Sm761 O790 2.396 . S
C762 Sm760 2.846 . S
C762 C763 1.506 . S
C762 O780 1.261 . S
C762 O781 1.242 . S
C763 C762 1.506 . S
C763 C764 1.358 . S
C763 C768 1.382 . S
C764 C763 1.358 . S
C764 C765 1.385 . S
C764 H792 0.930 . S
C765 C764 1.385 . S
C765 C766 1.395 . S
C765 H793 0.929 . S
C766 C765 1.395 . S
C766 C767 1.335 . S
C767 C766 1.335 . S
C767 C768 1.398 . S
C767 H794 0.930 . S
C768 C763 1.382 . S
C768 C767 1.398 . S
C768 H795 0.929 . S
C769 O782 1.271 . S
C769 O783 1.251 . S
C770 O784 1.252 . S
C770 O785 1.272 . S
C771 Sm761 2.846 . S
C771 C772 1.506 . S
C771 O786 1.261 . S
C771 O787 1.242 . S
C772 C771 1.506 . S
C772 C773 1.358 . S
C772 C777 1.382 . S
C773 C772 1.358 . S
C773 C774 1.385 . S
C773 H796 0.930 . S
C774 C773 1.385 . S
C774 C775 1.395 . S
C774 H797 0.929 . S
C775 C774 1.395 . S
C775 C776 1.335 . S
C776 C775 1.335 . S
C776 C777 1.398 . S
C776 H798 0.930 . S
C777 C772 1.382 . S
C777 C776 1.398 . S
C777 H799 0.929 . S
C778 O788 1.271 . S
C778 O789 1.251 . S
C779 O790 1.252 . S
C779 O791 1.272 . S
O780 Sm760 2.543 . S
O780 C762 1.261 . S
O781 Sm760 2.450 . S
O781 C762 1.242 . S
O782 Sm760 2.681 . S
O782 Sm761 2.386 . S
O782 C769 1.271 . S
O783 Sm760 2.464 . S
O783 C769 1.251 . S
O784 Sm760 2.396 . S
O784 C770 1.252 . S
O785 Sm761 2.408 . S
O785 C770 1.272 . S
O786 Sm761 2.543 . S
O786 C771 1.261 . S
O787 Sm761 2.450 . S
O787 C771 1.242 . S
O788 Sm760 2.386 . S
O788 Sm761 2.681 . S
O788 C778 1.271 . S
O789 Sm761 2.464 . S
O789 C778 1.251 . S
O790 Sm761 2.396 . S
O790 C779 1.252 . S
O791 Sm760 2.408 . S
O791 C779 1.272 . S
H792 C764 0.930 . S
H793 C765 0.929 . S
H794 C767 0.930 . S
H795 C768 0.929 . S
H796 C773 0.930 . S
H797 C774 0.929 . S
H798 C776 0.930 . S
H799 C777 0.929 . S
Sm800 C802 2.846 . S
Sm800 O820 2.543 . S
Sm800 O821 2.450 . S
Sm800 O822 2.681 . S
Sm800 O823 2.464 . S
Sm800 O824 2.396 . S
Sm800 O828 2.386 . S
Sm800 O831 2.408 . S
Sm801 C811 2.846 . S
Sm801 O822 2.386 . S
Sm801 O825 2.408 . S
Sm801 O826 2.543 . S
Sm801 O827 2.450 . S
Sm801 O828 2.681 . S
Sm801 O829 2.464 . S
Sm801 O830 2.396 . S
C802 Sm800 2.846 . S
C802 C803 1.506 . S
C802 O820 1.261 . S
C802 O821 1.242 . S
C803 C802 1.506 . S
C803 C804 1.358 . S
C803 C808 1.382 . S
C804 C803 1.358 . S
C804 C805 1.385 . S
C804 H832 0.930 . S
C805 C804 1.385 . S
C805 C806 1.395 . S
C805 H833 0.929 . S
C806 C805 1.395 . S
C806 C807 1.335 . S
C807 C806 1.335 . S
C807 C808 1.398 . S
C807 H834 0.930 . S
C808 C803 1.382 . S
C808 C807 1.398 . S
C808 H835 0.929 . S
C809 O822 1.271 . S
C809 O823 1.251 . S
C810 O824 1.252 . S
C810 O825 1.272 . S
C811 Sm801 2.846 . S
C811 C812 1.506 . S
C811 O826 1.261 . S
C811 O827 1.242 . S
C812 C811 1.506 . S
C812 C813 1.358 . S
C812 C817 1.382 . S
C813 C812 1.358 . S
C813 C814 1.385 . S
C813 H836 0.930 . S
C814 C813 1.385 . S
C814 C815 1.395 . S
C814 H837 0.929 . S
C815 C814 1.395 . S
C815 C816 1.335 . S
C816 C815 1.335 . S
C816 C817 1.398 . S
C816 H838 0.930 . S
C817 C812 1.382 . S
C817 C816 1.398 . S
C817 H839 0.929 . S
C818 O828 1.271 . S
C818 O829 1.251 . S
C819 O830 1.252 . S
C819 O831 1.272 . S
O820 Sm800 2.543 . S
O820 C802 1.261 . S
O821 Sm800 2.450 . S
O821 C802 1.242 . S
O822 Sm800 2.681 . S
O822 Sm801 2.386 . S
O822 C809 1.271 . S
O823 Sm800 2.464 . S
O823 C809 1.251 . S
O824 Sm800 2.396 . S
O824 C810 1.252 . S
O825 Sm801 2.408 . S
O825 C810 1.272 . S
O826 Sm801 2.543 . S
O826 C811 1.261 . S
O827 Sm801 2.450 . S
O827 C811 1.242 . S
O828 Sm800 2.386 . S
O828 Sm801 2.681 . S
O828 C818 1.271 . S
O829 Sm801 2.464 . S
O829 C818 1.251 . S
O830 Sm801 2.396 . S
O830 C819 1.252 . S
O831 Sm800 2.408 . S
O831 C819 1.272 . S
H832 C804 0.930 . S
H833 C805 0.929 . S
H834 C807 0.930 . S
H835 C808 0.929 . S
H836 C813 0.930 . S
H837 C814 0.929 . S
H838 C816 0.930 . S
H839 C817 0.929 . S
Sm840 C842 2.846 1_556 S
Sm840 O860 2.543 1_556 S
Sm840 O861 2.450 . S
Sm840 O862 2.681 . S
Sm840 O863 2.464 . S
Sm840 O864 2.396 1_556 S
Sm840 O868 2.386 . S
Sm840 O871 2.408 . S
Sm841 C851 2.846 . S
Sm841 O862 2.386 . S
Sm841 O865 2.408 1_556 S
Sm841 O866 2.543 . S
Sm841 O867 2.450 . S
Sm841 O868 2.681 . S
Sm841 O869 2.464 . S
Sm841 O870 2.396 . S
C842 Sm840 2.846 1_554 S
C842 C843 1.506 . S
C842 O860 1.261 . S
C842 O861 1.242 1_554 S
C843 C842 1.506 . S
C843 C844 1.358 . S
C843 C848 1.382 . S
C844 C843 1.358 . S
C844 C845 1.385 . S
C844 H872 0.930 . S
C845 C844 1.385 . S
C845 C846 1.395 . S
C845 H873 0.929 . S
C846 C845 1.395 . S
C846 C847 1.335 . S
C847 C846 1.335 . S
C847 C848 1.398 . S
C847 H874 0.930 . S
C848 C843 1.382 . S
C848 C847 1.398 . S
C848 H875 0.929 . S
C849 O862 1.271 . S
C849 O863 1.251 . S
C850 O864 1.252 . S
C850 O865 1.272 . S
C851 Sm841 2.846 . S
C851 C852 1.506 . S
C851 O866 1.261 . S
C851 O867 1.242 . S
C852 C851 1.506 . S
C852 C853 1.358 . S
C852 C857 1.382 . S
C853 C852 1.358 . S
C853 C854 1.385 . S
C853 H876 0.930 . S
C854 C853 1.385 . S
C854 C855 1.395 . S
C854 H877 0.929 . S
C855 C854 1.395 . S
C855 C856 1.335 . S
C856 C855 1.335 . S
C856 C857 1.398 . S
C856 H878 0.930 . S
C857 C852 1.382 . S
C857 C856 1.398 . S
C857 H879 0.929 . S
C858 O868 1.271 . S
C858 O869 1.251 . S
C859 O870 1.252 . S
C859 O871 1.272 . S
O860 Sm840 2.543 1_554 S
O860 C842 1.261 . S
O861 Sm840 2.450 . S
O861 C842 1.242 1_556 S
O862 Sm840 2.681 . S
O862 Sm841 2.386 . S
O862 C849 1.271 . S
O863 Sm840 2.464 . S
O863 C849 1.251 . S
O864 Sm840 2.396 1_554 S
O864 C850 1.252 . S
O865 Sm841 2.408 1_554 S
O865 C850 1.272 . S
O866 Sm841 2.543 . S
O866 C851 1.261 . S
O867 Sm841 2.450 . S
O867 C851 1.242 . S
O868 Sm840 2.386 . S
O868 Sm841 2.681 . S
O868 C858 1.271 . S
O869 Sm841 2.464 . S
O869 C858 1.251 . S
O870 Sm841 2.396 . S
O870 C859 1.252 . S
O871 Sm840 2.408 . S
O871 C859 1.272 . S
H872 C844 0.930 . S
H873 C845 0.929 . S
H874 C847 0.930 . S
H875 C848 0.929 . S
H876 C853 0.930 . S
H877 C854 0.929 . S
H878 C856 0.930 . S
H879 C857 0.929 . S
Sm880 C882 2.846 . S
Sm880 O900 2.543 . S
Sm880 O901 2.450 . S
Sm880 O902 2.681 . S
Sm880 O903 2.464 . S
Sm880 O904 2.396 . S
Sm880 O908 2.386 . S
Sm880 O911 2.408 . S
Sm881 C891 2.846 . S
Sm881 O902 2.386 . S
Sm881 O905 2.408 . S
Sm881 O906 2.543 . S
Sm881 O907 2.450 . S
Sm881 O908 2.681 . S
Sm881 O909 2.464 . S
Sm881 O910 2.396 . S
C882 Sm880 2.846 . S
C882 C883 1.506 . S
C882 O900 1.261 . S
C882 O901 1.242 . S
C883 C882 1.506 . S
C883 C884 1.358 . S
C883 C888 1.382 . S
C884 C883 1.358 . S
C884 C885 1.385 . S
C884 H912 0.930 . S
C885 C884 1.385 . S
C885 C886 1.395 . S
C885 H913 0.929 . S
C886 C885 1.395 . S
C886 C887 1.335 . S
C887 C886 1.335 . S
C887 C888 1.398 . S
C887 H914 0.930 . S
C888 C883 1.382 . S
C888 C887 1.398 . S
C888 H915 0.929 . S
C889 O902 1.271 . S
C889 O903 1.251 . S
C890 O904 1.252 . S
C890 O905 1.272 . S
C891 Sm881 2.846 . S
C891 C892 1.506 . S
C891 O906 1.261 . S
C891 O907 1.242 . S
C892 C891 1.506 . S
C892 C893 1.358 . S
C892 C897 1.382 . S
C893 C892 1.358 . S
C893 C894 1.385 . S
C893 H916 0.930 . S
C894 C893 1.385 . S
C894 C895 1.395 . S
C894 H917 0.929 . S
C895 C894 1.395 . S
C895 C896 1.335 . S
C896 C895 1.335 . S
C896 C897 1.398 . S
C896 H918 0.930 . S
C897 C892 1.382 . S
C897 C896 1.398 . S
C897 H919 0.929 . S
C898 O908 1.271 . S
C898 O909 1.251 . S
C899 O910 1.252 . S
C899 O911 1.272 . S
O900 Sm880 2.543 . S
O900 C882 1.261 . S
O901 Sm880 2.450 . S
O901 C882 1.242 . S
O902 Sm880 2.681 . S
O902 Sm881 2.386 . S
O902 C889 1.271 . S
O903 Sm880 2.464 . S
O903 C889 1.251 . S
O904 Sm880 2.396 . S
O904 C890 1.252 . S
O905 Sm881 2.408 . S
O905 C890 1.272 . S
O906 Sm881 2.543 . S
O906 C891 1.261 . S
O907 Sm881 2.450 . S
O907 C891 1.242 . S
O908 Sm880 2.386 . S
O908 Sm881 2.681 . S
O908 C898 1.271 . S
O909 Sm881 2.464 . S
O909 C898 1.251 . S
O910 Sm881 2.396 . S
O910 C899 1.252 . S
O911 Sm880 2.408 . S
O911 C899 1.272 . S
H912 C884 0.930 . S
H913 C885 0.929 . S
H914 C887 0.930 . S
H915 C888 0.929 . S
H916 C893 0.930 . S
H917 C894 0.929 . S
H918 C896 0.930 . S
H919 C897 0.929 . S
Sm920 C922 2.846 . S
Sm920 O940 2.543 . S
Sm920 O941 2.450 . S
Sm920 O942 2.681 . S
Sm920 O943 2.464 . S
Sm920 O944 2.396 . S
Sm920 O948 2.386 . S
Sm920 O951 2.408 . S
Sm921 C931 2.846 . S
Sm921 O942 2.386 . S
Sm921 O945 2.408 . S
Sm921 O946 2.543 . S
Sm921 O947 2.450 . S
Sm921 O948 2.681 . S
Sm921 O949 2.464 . S
Sm921 O950 2.396 . S
C922 Sm920 2.846 . S
C922 C923 1.506 . S
C922 O940 1.261 . S
C922 O941 1.242 . S
C923 C922 1.506 . S
C923 C924 1.358 . S
C923 C928 1.382 . S
C924 C923 1.358 . S
C924 C925 1.385 . S
C924 H952 0.930 . S
C925 C924 1.385 . S
C925 C926 1.395 . S
C925 H953 0.929 . S
C926 C925 1.395 . S
C926 C927 1.335 . S
C927 C926 1.335 . S
C927 C928 1.398 . S
C927 H954 0.930 . S
C928 C923 1.382 . S
C928 C927 1.398 . S
C928 H955 0.929 . S
C929 O942 1.271 . S
C929 O943 1.251 . S
C930 O944 1.252 . S
C930 O945 1.272 . S
C931 Sm921 2.846 . S
C931 C932 1.506 . S
C931 O946 1.261 . S
C931 O947 1.242 . S
C932 C931 1.506 . S
C932 C933 1.358 . S
C932 C937 1.382 . S
C933 C932 1.358 . S
C933 C934 1.385 . S
C933 H956 0.930 . S
C934 C933 1.385 . S
C934 C935 1.395 . S
C934 H957 0.929 . S
C935 C934 1.395 . S
C935 C936 1.335 . S
C936 C935 1.335 . S
C936 C937 1.398 . S
C936 H958 0.930 . S
C937 C932 1.382 . S
C937 C936 1.398 . S
C937 H959 0.929 . S
C938 O948 1.271 . S
C938 O949 1.251 . S
C939 O950 1.252 . S
C939 O951 1.272 . S
O940 Sm920 2.543 . S
O940 C922 1.261 . S
O941 Sm920 2.450 . S
O941 C922 1.242 . S
O942 Sm920 2.681 . S
O942 Sm921 2.386 . S
O942 C929 1.271 . S
O943 Sm920 2.464 . S
O943 C929 1.251 . S
O944 Sm920 2.396 . S
O944 C930 1.252 . S
O945 Sm921 2.408 . S
O945 C930 1.272 . S
O946 Sm921 2.543 . S
O946 C931 1.261 . S
O947 Sm921 2.450 . S
O947 C931 1.242 . S
O948 Sm920 2.386 . S
O948 Sm921 2.681 . S
O948 C938 1.271 . S
O949 Sm921 2.464 . S
O949 C938 1.251 . S
O950 Sm921 2.396 . S
O950 C939 1.252 . S
O951 Sm920 2.408 . S
O951 C939 1.272 . S
H952 C924 0.930 . S
H953 C925 0.929 . S
H954 C927 0.930 . S
H955 C928 0.929 . S
H956 C933 0.930 . S
H957 C934 0.929 . S
H958 C936 0.930 . S
H959 C937 0.929 . S
Sm960 C962 2.846 . S
Sm960 O980 2.543 . S
Sm960 O981 2.450 . S
Sm960 O982 2.681 . S
Sm960 O983 2.464 . S
Sm960 O984 2.396 . S
Sm960 O988 2.386 . S
Sm960 O991 2.408 . S
Sm961 C971 2.846 . S
Sm961 O982 2.386 . S
Sm961 O985 2.408 . S
Sm961 O986 2.543 . S
Sm961 O987 2.450 . S
Sm961 O988 2.681 . S
Sm961 O989 2.464 . S
Sm961 O990 2.396 . S
C962 Sm960 2.846 . S
C962 C963 1.506 . S
C962 O980 1.261 . S
C962 O981 1.242 . S
C963 C962 1.506 . S
C963 C964 1.358 . S
C963 C968 1.382 . S
C964 C963 1.358 . S
C964 C965 1.385 . S
C964 H992 0.930 . S
C965 C964 1.385 . S
C965 C966 1.395 . S
C965 H993 0.929 . S
C966 C965 1.395 . S
C966 C967 1.335 . S
C967 C966 1.335 . S
C967 C968 1.398 . S
C967 H994 0.930 . S
C968 C963 1.382 . S
C968 C967 1.398 . S
C968 H995 0.929 . S
C969 O982 1.271 . S
C969 O983 1.251 . S
C970 O984 1.252 . S
C970 O985 1.272 . S
C971 Sm961 2.846 . S
C971 C972 1.506 . S
C971 O986 1.261 . S
C971 O987 1.242 . S
C972 C971 1.506 . S
C972 C973 1.358 . S
C972 C977 1.382 . S
C973 C972 1.358 . S
C973 C974 1.385 . S
C973 H996 0.930 . S
C974 C973 1.385 . S
C974 C975 1.395 . S
C974 H997 0.929 . S
C975 C974 1.395 . S
C975 C976 1.335 . S
C976 C975 1.335 . S
C976 C977 1.398 . S
C976 H998 0.930 . S
C977 C972 1.382 . S
C977 C976 1.398 . S
C977 H999 0.929 . S
C978 O988 1.271 . S
C978 O989 1.251 . S
C979 O990 1.252 . S
C979 O991 1.272 . S
O980 Sm960 2.543 . S
O980 C962 1.261 . S
O981 Sm960 2.450 . S
O981 C962 1.242 . S
O982 Sm960 2.681 . S
O982 Sm961 2.386 . S
O982 C969 1.271 . S
O983 Sm960 2.464 . S
O983 C969 1.251 . S
O984 Sm960 2.396 . S
O984 C970 1.252 . S
O985 Sm961 2.408 . S
O985 C970 1.272 . S
O986 Sm961 2.543 . S
O986 C971 1.261 . S
O987 Sm961 2.450 . S
O987 C971 1.242 . S
O988 Sm960 2.386 . S
O988 Sm961 2.681 . S
O988 C978 1.271 . S
O989 Sm961 2.464 . S
O989 C978 1.251 . S
O990 Sm961 2.396 . S
O990 C979 1.252 . S
O991 Sm960 2.408 . S
O991 C979 1.272 . S
H992 C964 0.930 . S
H993 C965 0.929 . S
H994 C967 0.930 . S
H995 C968 0.929 . S
H996 C973 0.930 . S
H997 C974 0.929 . S
H998 C976 0.930 . S
H999 C977 0.929 . S
Sm1000 C1002 2.846 . S
Sm1000 O1020 2.543 . S
Sm1000 O1021 2.450 . S
Sm1000 O1022 2.681 . S
Sm1000 O1023 2.464 . S
Sm1000 O1024 2.396 . S
Sm1000 O1028 2.386 . S
Sm1000 O1031 2.408 1_556 S
Sm1001 C1011 2.846 1_556 S
Sm1001 O1022 2.386 . S
Sm1001 O1025 2.408 . S
Sm1001 O1026 2.543 1_556 S
Sm1001 O1027 2.450 . S
Sm1001 O1028 2.681 . S
Sm1001 O1029 2.464 . S
Sm1001 O1030 2.396 1_556 S
C1002 Sm1000 2.846 . S
C1002 C1003 1.506 . S
C1002 O1020 1.261 . S
C1002 O1021 1.242 . S
C1003 C1002 1.506 . S
C1003 C1004 1.358 . S
C1003 C1008 1.382 . S
C1004 C1003 1.358 . S
C1004 C1005 1.385 . S
C1004 H1032 0.930 . S
C1005 C1004 1.385 . S
C1005 C1006 1.395 . S
C1005 H1033 0.929 . S
C1006 C1005 1.395 . S
C1006 C1007 1.335 . S
C1007 C1006 1.335 . S
C1007 C1008 1.398 . S
C1007 H1034 0.930 . S
C1008 C1003 1.382 . S
C1008 C1007 1.398 . S
C1008 H1035 0.929 . S
C1009 O1022 1.271 . S
C1009 O1023 1.251 . S
C1010 O1024 1.252 . S
C1010 O1025 1.272 . S
C1011 Sm1001 2.846 1_554 S
C1011 C1012 1.506 . S
C1011 O1026 1.261 . S
C1011 O1027 1.242 1_554 S
C1012 C1011 1.506 . S
C1012 C1013 1.358 . S
C1012 C1017 1.382 . S
C1013 C1012 1.358 . S
C1013 C1014 1.385 . S
C1013 H1036 0.930 . S
C1014 C1013 1.385 . S
C1014 C1015 1.395 . S
C1014 H1037 0.929 . S
C1015 C1014 1.395 . S
C1015 C1016 1.335 . S
C1016 C1015 1.335 . S
C1016 C1017 1.398 . S
C1016 H1038 0.930 . S
C1017 C1012 1.382 . S
C1017 C1016 1.398 . S
C1017 H1039 0.929 . S
C1018 O1028 1.271 . S
C1018 O1029 1.251 . S
C1019 O1030 1.252 . S
C1019 O1031 1.272 . S
O1020 Sm1000 2.543 . S
O1020 C1002 1.261 . S
O1021 Sm1000 2.450 . S
O1021 C1002 1.242 . S
O1022 Sm1000 2.681 . S
O1022 Sm1001 2.386 . S
O1022 C1009 1.271 . S
O1023 Sm1000 2.464 . S
O1023 C1009 1.251 . S
O1024 Sm1000 2.396 . S
O1024 C1010 1.252 . S
O1025 Sm1001 2.408 . S
O1025 C1010 1.272 . S
O1026 Sm1001 2.543 1_554 S
O1026 C1011 1.261 . S
O1027 Sm1001 2.450 . S
O1027 C1011 1.242 1_556 S
O1028 Sm1000 2.386 . S
O1028 Sm1001 2.681 . S
O1028 C1018 1.271 . S
O1029 Sm1001 2.464 . S
O1029 C1018 1.251 . S
O1030 Sm1001 2.396 1_554 S
O1030 C1019 1.252 . S
O1031 Sm1000 2.408 1_554 S
O1031 C1019 1.272 . S
H1032 C1004 0.930 . S
H1033 C1005 0.929 . S
H1034 C1007 0.930 . S
H1035 C1008 0.929 . S
H1036 C1013 0.930 . S
H1037 C1014 0.929 . S
H1038 C1016 0.930 . S
H1039 C1017 0.929 . S
Sm1040 C1042 2.846 . S
Sm1040 O1060 2.543 . S
Sm1040 O1061 2.450 . S
Sm1040 O1062 2.681 . S
Sm1040 O1063 2.464 . S
Sm1040 O1064 2.396 . S
Sm1040 O1068 2.386 . S
Sm1040 O1071 2.408 . S
Sm1041 C1051 2.846 . S
Sm1041 O1062 2.386 . S
Sm1041 O1065 2.408 . S
Sm1041 O1066 2.543 . S
Sm1041 O1067 2.450 . S
Sm1041 O1068 2.681 . S
Sm1041 O1069 2.464 . S
Sm1041 O1070 2.396 . S
C1042 Sm1040 2.846 . S
C1042 C1043 1.506 . S
C1042 O1060 1.261 . S
C1042 O1061 1.242 . S
C1043 C1042 1.506 . S
C1043 C1044 1.358 . S
C1043 C1048 1.382 . S
C1044 C1043 1.358 . S
C1044 C1045 1.385 . S
C1044 H1072 0.930 . S
C1045 C1044 1.385 . S
C1045 C1046 1.395 . S
C1045 H1073 0.929 . S
C1046 C1045 1.395 . S
C1046 C1047 1.335 . S
C1047 C1046 1.335 . S
C1047 C1048 1.398 . S
C1047 H1074 0.930 . S
C1048 C1043 1.382 . S
C1048 C1047 1.398 . S
C1048 H1075 0.929 . S
C1049 O1062 1.271 . S
C1049 O1063 1.251 . S
C1050 O1064 1.252 . S
C1050 O1065 1.272 . S
C1051 Sm1041 2.846 . S
C1051 C1052 1.506 . S
C1051 O1066 1.261 . S
C1051 O1067 1.242 . S
C1052 C1051 1.506 . S
C1052 C1053 1.358 . S
C1052 C1057 1.382 . S
C1053 C1052 1.358 . S
C1053 C1054 1.385 . S
C1053 H1076 0.930 . S
C1054 C1053 1.385 . S
C1054 C1055 1.395 . S
C1054 H1077 0.929 . S
C1055 C1054 1.395 . S
C1055 C1056 1.335 . S
C1056 C1055 1.335 . S
C1056 C1057 1.398 . S
C1056 H1078 0.930 . S
C1057 C1052 1.382 . S
C1057 C1056 1.398 . S
C1057 H1079 0.929 . S
C1058 O1068 1.271 . S
C1058 O1069 1.251 . S
C1059 O1070 1.252 . S
C1059 O1071 1.272 . S
O1060 Sm1040 2.543 . S
O1060 C1042 1.261 . S
O1061 Sm1040 2.450 . S
O1061 C1042 1.242 . S
O1062 Sm1040 2.681 . S
O1062 Sm1041 2.386 . S
O1062 C1049 1.271 . S
O1063 Sm1040 2.464 . S
O1063 C1049 1.251 . S
O1064 Sm1040 2.396 . S
O1064 C1050 1.252 . S
O1065 Sm1041 2.408 . S
O1065 C1050 1.272 . S
O1066 Sm1041 2.543 . S
O1066 C1051 1.261 . S
O1067 Sm1041 2.450 . S
O1067 C1051 1.242 . S
O1068 Sm1040 2.386 . S
O1068 Sm1041 2.681 . S
O1068 C1058 1.271 . S
O1069 Sm1041 2.464 . S
O1069 C1058 1.251 . S
O1070 Sm1041 2.396 . S
O1070 C1059 1.252 . S
O1071 Sm1040 2.408 . S
O1071 C1059 1.272 . S
H1072 C1044 0.930 . S
H1073 C1045 0.929 . S
H1074 C1047 0.930 . S
H1075 C1048 0.929 . S
H1076 C1053 0.930 . S
H1077 C1054 0.929 . S
H1078 C1056 0.930 . S
H1079 C1057 0.929 . S
Sm1080 C1082 2.846 . S
Sm1080 O1100 2.543 . S
Sm1080 O1101 2.450 . S
Sm1080 O1102 2.681 . S
Sm1080 O1103 2.464 . S
Sm1080 O1104 2.396 . S
Sm1080 O1108 2.386 . S
Sm1080 O1111 2.408 . S
Sm1081 C1091 2.846 . S
Sm1081 O1102 2.386 . S
Sm1081 O1105 2.408 . S
Sm1081 O1106 2.543 . S
Sm1081 O1107 2.450 . S
Sm1081 O1108 2.681 . S
Sm1081 O1109 2.464 . S
Sm1081 O1110 2.396 . S
C1082 Sm1080 2.846 . S
C1082 C1083 1.506 . S
C1082 O1100 1.261 . S
C1082 O1101 1.242 . S
C1083 C1082 1.506 . S
C1083 C1084 1.358 . S
C1083 C1088 1.382 . S
C1084 C1083 1.358 . S
C1084 C1085 1.385 . S
C1084 H1112 0.930 . S
C1085 C1084 1.385 . S
C1085 C1086 1.395 . S
C1085 H1113 0.929 . S
C1086 C1085 1.395 . S
C1086 C1087 1.335 . S
C1087 C1086 1.335 . S
C1087 C1088 1.398 . S
C1087 H1114 0.930 . S
C1088 C1083 1.382 . S
C1088 C1087 1.398 . S
C1088 H1115 0.929 . S
C1089 O1102 1.271 . S
C1089 O1103 1.251 . S
C1090 O1104 1.252 . S
C1090 O1105 1.272 . S
C1091 Sm1081 2.846 . S
C1091 C1092 1.506 . S
C1091 O1106 1.261 . S
C1091 O1107 1.242 . S
C1092 C1091 1.506 . S
C1092 C1093 1.358 . S
C1092 C1097 1.382 . S
C1093 C1092 1.358 . S
C1093 C1094 1.385 . S
C1093 H1116 0.930 . S
C1094 C1093 1.385 . S
C1094 C1095 1.395 . S
C1094 H1117 0.929 . S
C1095 C1094 1.395 . S
C1095 C1096 1.335 . S
C1096 C1095 1.335 . S
C1096 C1097 1.398 . S
C1096 H1118 0.930 . S
C1097 C1092 1.382 . S
C1097 C1096 1.398 . S
C1097 H1119 0.929 . S
C1098 O1108 1.271 . S
C1098 O1109 1.251 . S
C1099 O1110 1.252 . S
C1099 O1111 1.272 . S
O1100 Sm1080 2.543 . S
O1100 C1082 1.261 . S
O1101 Sm1080 2.450 . S
O1101 C1082 1.242 . S
O1102 Sm1080 2.681 . S
O1102 Sm1081 2.386 . S
O1102 C1089 1.271 . S
O1103 Sm1080 2.464 . S
O1103 C1089 1.251 . S
O1104 Sm1080 2.396 . S
O1104 C1090 1.252 . S
O1105 Sm1081 2.408 . S
O1105 C1090 1.272 . S
O1106 Sm1081 2.543 . S
O1106 C1091 1.261 . S
O1107 Sm1081 2.450 . S
O1107 C1091 1.242 . S
O1108 Sm1080 2.386 . S
O1108 Sm1081 2.681 . S
O1108 C1098 1.271 . S
O1109 Sm1081 2.464 . S
O1109 C1098 1.251 . S
O1110 Sm1081 2.396 . S
O1110 C1099 1.252 . S
O1111 Sm1080 2.408 . S
O1111 C1099 1.272 . S
H1112 C1084 0.930 . S
H1113 C1085 0.929 . S
H1114 C1087 0.930 . S
H1115 C1088 0.929 . S
H1116 C1093 0.930 . S
H1117 C1094 0.929 . S
H1118 C1096 0.930 . S
H1119 C1097 0.929 . S
Sm1120 C1122 2.846 . S
Sm1120 O1140 2.543 . S
Sm1120 O1141 2.450 . S
Sm1120 O1142 2.681 . S
Sm1120 O1143 2.464 . S
Sm1120 O1144 2.396 . S
Sm1120 O1148 2.386 . S
Sm1120 O1151 2.408 . S
Sm1121 C1131 2.846 . S
Sm1121 O1142 2.386 . S
Sm1121 O1145 2.408 . S
Sm1121 O1146 2.543 . S
Sm1121 O1147 2.450 . S
Sm1121 O1148 2.681 . S
Sm1121 O1149 2.464 . S
Sm1121 O1150 2.396 . S
C1122 Sm1120 2.846 . S
C1122 C1123 1.506 . S
C1122 O1140 1.261 . S
C1122 O1141 1.242 . S
C1123 C1122 1.506 . S
C1123 C1124 1.358 . S
C1123 C1128 1.382 . S
C1124 C1123 1.358 . S
C1124 C1125 1.385 . S
C1124 H1152 0.930 . S
C1125 C1124 1.385 . S
C1125 C1126 1.395 . S
C1125 H1153 0.929 . S
C1126 C1125 1.395 . S
C1126 C1127 1.335 . S
C1127 C1126 1.335 . S
C1127 C1128 1.398 . S
C1127 H1154 0.930 . S
C1128 C1123 1.382 . S
C1128 C1127 1.398 . S
C1128 H1155 0.929 . S
C1129 O1142 1.271 . S
C1129 O1143 1.251 . S
C1130 O1144 1.252 . S
C1130 O1145 1.272 . S
C1131 Sm1121 2.846 . S
C1131 C1132 1.506 . S
C1131 O1146 1.261 . S
C1131 O1147 1.242 . S
C1132 C1131 1.506 . S
C1132 C1133 1.358 . S
C1132 C1137 1.382 . S
C1133 C1132 1.358 . S
C1133 C1134 1.385 . S
C1133 H1156 0.930 . S
C1134 C1133 1.385 . S
C1134 C1135 1.395 . S
C1134 H1157 0.929 . S
C1135 C1134 1.395 . S
C1135 C1136 1.335 . S
C1136 C1135 1.335 . S
C1136 C1137 1.398 . S
C1136 H1158 0.930 . S
C1137 C1132 1.382 . S
C1137 C1136 1.398 . S
C1137 H1159 0.929 . S
C1138 O1148 1.271 . S
C1138 O1149 1.251 . S
C1139 O1150 1.252 . S
C1139 O1151 1.272 . S
O1140 Sm1120 2.543 . S
O1140 C1122 1.261 . S
O1141 Sm1120 2.450 . S
O1141 C1122 1.242 . S
O1142 Sm1120 2.681 . S
O1142 Sm1121 2.386 . S
O1142 C1129 1.271 . S
O1143 Sm1120 2.464 . S
O1143 C1129 1.251 . S
O1144 Sm1120 2.396 . S
O1144 C1130 1.252 . S
O1145 Sm1121 2.408 . S
O1145 C1130 1.272 . S
O1146 Sm1121 2.543 . S
O1146 C1131 1.261 . S
O1147 Sm1121 2.450 . S
O1147 C1131 1.242 . S
O1148 Sm1120 2.386 . S
O1148 Sm1121 2.681 . S
O1148 C1138 1.271 . S
O1149 Sm1121 2.464 . S
O1149 C1138 1.251 . S
O1150 Sm1121 2.396 . S
O1150 C1139 1.252 . S
O1151 Sm1120 2.408 . S
O1151 C1139 1.272 . S
H1152 C1124 0.930 . S
H1153 C1125 0.929 . S
H1154 C1127 0.930 . S
H1155 C1128 0.929 . S
H1156 C1133 0.930 . S
H1157 C1134 0.929 . S
H1158 C1136 0.930 . S
H1159 C1137 0.929 . S
Sm1160 C1162 2.846 . S
Sm1160 O1180 2.543 . S
Sm1160 O1181 2.450 . S
Sm1160 O1182 2.681 . S
Sm1160 O1183 2.464 . S
Sm1160 O1184 2.396 . S
Sm1160 O1188 2.386 . S
Sm1160 O1191 2.408 1_554 S
Sm1161 C1171 2.846 1_554 S
Sm1161 O1182 2.386 . S
Sm1161 O1185 2.408 . S
Sm1161 O1186 2.543 1_554 S
Sm1161 O1187 2.450 . S
Sm1161 O1188 2.681 . S
Sm1161 O1189 2.464 . S
Sm1161 O1190 2.396 1_554 S
C1162 Sm1160 2.846 . S
C1162 C1163 1.506 . S
C1162 O1180 1.261 . S
C1162 O1181 1.242 . S
C1163 C1162 1.506 . S
C1163 C1164 1.358 . S
C1163 C1168 1.382 . S
C1164 C1163 1.358 . S
C1164 C1165 1.385 . S
C1164 H1192 0.930 . S
C1165 C1164 1.385 . S
C1165 C1166 1.395 . S
C1165 H1193 0.929 . S
C1166 C1165 1.395 . S
C1166 C1167 1.335 . S
C1167 C1166 1.335 . S
C1167 C1168 1.398 . S
C1167 H1194 0.930 . S
C1168 C1163 1.382 . S
C1168 C1167 1.398 . S
C1168 H1195 0.929 . S
C1169 O1182 1.271 . S
C1169 O1183 1.251 . S
C1170 O1184 1.252 . S
C1170 O1185 1.272 . S
C1171 Sm1161 2.846 1_556 S
C1171 C1172 1.506 . S
C1171 O1186 1.261 . S
C1171 O1187 1.242 1_556 S
C1172 C1171 1.506 . S
C1172 C1173 1.358 . S
C1172 C1177 1.382 . S
C1173 C1172 1.358 . S
C1173 C1174 1.385 . S
C1173 H1196 0.930 . S
C1174 C1173 1.385 . S
C1174 C1175 1.395 . S
C1174 H1197 0.929 . S
C1175 C1174 1.395 . S
C1175 C1176 1.335 . S
C1176 C1175 1.335 . S
C1176 C1177 1.398 . S
C1176 H1198 0.930 . S
C1177 C1172 1.382 . S
C1177 C1176 1.398 . S
C1177 H1199 0.929 . S
C1178 O1188 1.271 . S
C1178 O1189 1.251 . S
C1179 O1190 1.252 . S
C1179 O1191 1.272 . S
O1180 Sm1160 2.543 . S
O1180 C1162 1.261 . S
O1181 Sm1160 2.450 . S
O1181 C1162 1.242 . S
O1182 Sm1160 2.681 . S
O1182 Sm1161 2.386 . S
O1182 C1169 1.271 . S
O1183 Sm1160 2.464 . S
O1183 C1169 1.251 . S
O1184 Sm1160 2.396 . S
O1184 C1170 1.252 . S
O1185 Sm1161 2.408 . S
O1185 C1170 1.272 . S
O1186 Sm1161 2.543 1_556 S
O1186 C1171 1.261 . S
O1187 Sm1161 2.450 . S
O1187 C1171 1.242 1_554 S
O1188 Sm1160 2.386 . S
O1188 Sm1161 2.681 . S
O1188 C1178 1.271 . S
O1189 Sm1161 2.464 . S
O1189 C1178 1.251 . S
O1190 Sm1161 2.396 1_556 S
O1190 C1179 1.252 . S
O1191 Sm1160 2.408 1_556 S
O1191 C1179 1.272 . S
H1192 C1164 0.930 . S
H1193 C1165 0.929 . S
H1194 C1167 0.930 . S
H1195 C1168 0.929 . S
H1196 C1173 0.930 . S
H1197 C1174 0.929 . S
H1198 C1176 0.930 . S
H1199 C1177 0.929 . S
Sm1200 C1202 2.846 . S
Sm1200 O1220 2.543 . S
Sm1200 O1221 2.450 . S
Sm1200 O1222 2.681 . S
Sm1200 O1223 2.464 . S
Sm1200 O1224 2.396 . S
Sm1200 O1228 2.386 . S
Sm1200 O1231 2.408 . S
Sm1201 C1211 2.846 . S
Sm1201 O1222 2.386 . S
Sm1201 O1225 2.408 . S
Sm1201 O1226 2.543 . S
Sm1201 O1227 2.450 . S
Sm1201 O1228 2.681 . S
Sm1201 O1229 2.464 . S
Sm1201 O1230 2.396 . S
C1202 Sm1200 2.846 . S
C1202 C1203 1.506 . S
C1202 O1220 1.261 . S
C1202 O1221 1.242 . S
C1203 C1202 1.506 . S
C1203 C1204 1.358 . S
C1203 C1208 1.382 . S
C1204 C1203 1.358 . S
C1204 C1205 1.385 . S
C1204 H1232 0.930 . S
C1205 C1204 1.385 . S
C1205 C1206 1.395 . S
C1205 H1233 0.929 . S
C1206 C1205 1.395 . S
C1206 C1207 1.335 . S
C1207 C1206 1.335 . S
C1207 C1208 1.398 . S
C1207 H1234 0.930 . S
C1208 C1203 1.382 . S
C1208 C1207 1.398 . S
C1208 H1235 0.929 . S
C1209 O1222 1.271 . S
C1209 O1223 1.251 . S
C1210 O1224 1.252 . S
C1210 O1225 1.272 . S
C1211 Sm1201 2.846 . S
C1211 C1212 1.506 . S
C1211 O1226 1.261 . S
C1211 O1227 1.242 . S
C1212 C1211 1.506 . S
C1212 C1213 1.358 . S
C1212 C1217 1.382 . S
C1213 C1212 1.358 . S
C1213 C1214 1.385 . S
C1213 H1236 0.930 . S
C1214 C1213 1.385 . S
C1214 C1215 1.395 . S
C1214 H1237 0.929 . S
C1215 C1214 1.395 . S
C1215 C1216 1.335 . S
C1216 C1215 1.335 . S
C1216 C1217 1.398 . S
C1216 H1238 0.930 . S
C1217 C1212 1.382 . S
C1217 C1216 1.398 . S
C1217 H1239 0.929 . S
C1218 O1228 1.271 . S
C1218 O1229 1.251 . S
C1219 O1230 1.252 . S
C1219 O1231 1.272 . S
O1220 Sm1200 2.543 . S
O1220 C1202 1.261 . S
O1221 Sm1200 2.450 . S
O1221 C1202 1.242 . S
O1222 Sm1200 2.681 . S
O1222 Sm1201 2.386 . S
O1222 C1209 1.271 . S
O1223 Sm1200 2.464 . S
O1223 C1209 1.251 . S
O1224 Sm1200 2.396 . S
O1224 C1210 1.252 . S
O1225 Sm1201 2.408 . S
O1225 C1210 1.272 . S
O1226 Sm1201 2.543 . S
O1226 C1211 1.261 . S
O1227 Sm1201 2.450 . S
O1227 C1211 1.242 . S
O1228 Sm1200 2.386 . S
O1228 Sm1201 2.681 . S
O1228 C1218 1.271 . S
O1229 Sm1201 2.464 . S
O1229 C1218 1.251 . S
O1230 Sm1201 2.396 . S
O1230 C1219 1.252 . S
O1231 Sm1200 2.408 . S
O1231 C1219 1.272 . S
H1232 C1204 0.930 . S
H1233 C1205 0.929 . S
H1234 C1207 0.930 . S
H1235 C1208 0.929 . S
H1236 C1213 0.930 . S
H1237 C1214 0.929 . S
H1238 C1216 0.930 . S
H1239 C1217 0.929 . S
Sm1240 C1242 2.846 . S
Sm1240 O1260 2.543 . S
Sm1240 O1261 2.450 . S
Sm1240 O1262 2.681 . S
Sm1240 O1263 2.464 . S
Sm1240 O1264 2.396 . S
Sm1240 O1268 2.386 . S
Sm1240 O1271 2.408 . S
Sm1241 C1251 2.846 . S
Sm1241 O1262 2.386 . S
Sm1241 O1265 2.408 . S
Sm1241 O1266 2.543 . S
Sm1241 O1267 2.450 . S
Sm1241 O1268 2.681 . S
Sm1241 O1269 2.464 . S
Sm1241 O1270 2.396 . S
C1242 Sm1240 2.846 . S
C1242 C1243 1.506 . S
C1242 O1260 1.261 . S
C1242 O1261 1.242 . S
C1243 C1242 1.506 . S
C1243 C1244 1.358 . S
C1243 C1248 1.382 . S
C1244 C1243 1.358 . S
C1244 C1245 1.385 . S
C1244 H1272 0.930 . S
C1245 C1244 1.385 . S
C1245 C1246 1.395 . S
C1245 H1273 0.929 . S
C1246 C1245 1.395 . S
C1246 C1247 1.335 . S
C1247 C1246 1.335 . S
C1247 C1248 1.398 . S
C1247 H1274 0.930 . S
C1248 C1243 1.382 . S
C1248 C1247 1.398 . S
C1248 H1275 0.929 . S
C1249 O1262 1.271 . S
C1249 O1263 1.251 . S
C1250 O1264 1.252 . S
C1250 O1265 1.272 . S
C1251 Sm1241 2.846 . S
C1251 C1252 1.506 . S
C1251 O1266 1.261 . S
C1251 O1267 1.242 . S
C1252 C1251 1.506 . S
C1252 C1253 1.358 . S
C1252 C1257 1.382 . S
C1253 C1252 1.358 . S
C1253 C1254 1.385 . S
C1253 H1276 0.930 . S
C1254 C1253 1.385 . S
C1254 C1255 1.395 . S
C1254 H1277 0.929 . S
C1255 C1254 1.395 . S
C1255 C1256 1.335 . S
C1256 C1255 1.335 . S
C1256 C1257 1.398 . S
C1256 H1278 0.930 . S
C1257 C1252 1.382 . S
C1257 C1256 1.398 . S
C1257 H1279 0.929 . S
C1258 O1268 1.271 . S
C1258 O1269 1.251 . S
C1259 O1270 1.252 . S
C1259 O1271 1.272 . S
O1260 Sm1240 2.543 . S
O1260 C1242 1.261 . S
O1261 Sm1240 2.450 . S
O1261 C1242 1.242 . S
O1262 Sm1240 2.681 . S
O1262 Sm1241 2.386 . S
O1262 C1249 1.271 . S
O1263 Sm1240 2.464 . S
O1263 C1249 1.251 . S
O1264 Sm1240 2.396 . S
O1264 C1250 1.252 . S
O1265 Sm1241 2.408 . S
O1265 C1250 1.272 . S
O1266 Sm1241 2.543 . S
O1266 C1251 1.261 . S
O1267 Sm1241 2.450 . S
O1267 C1251 1.242 . S
O1268 Sm1240 2.386 . S
O1268 Sm1241 2.681 . S
O1268 C1258 1.271 . S
O1269 Sm1241 2.464 . S
O1269 C1258 1.251 . S
O1270 Sm1241 2.396 . S
O1270 C1259 1.252 . S
O1271 Sm1240 2.408 . S
O1271 C1259 1.272 . S
H1272 C1244 0.930 . S
H1273 C1245 0.929 . S
H1274 C1247 0.930 . S
H1275 C1248 0.929 . S
H1276 C1253 0.930 . S
H1277 C1254 0.929 . S
H1278 C1256 0.930 . S
H1279 C1257 0.929 . S
H1280 C1288 0.950 . S
H1281 C1293 0.950 . S
H1282 C1290 0.950 . S
H1283 C1292 0.950 . S
H1284 C1294 0.950 . S
H1285 C1296 0.950 . S
H1286 C1298 0.950 . S
H1287 C1299 0.950 . S
C1288 H1280 0.950 . S
C1288 C1289 1.386 . S
C1288 C1290 1.391 . S
C1289 C1288 1.386 . S
C1289 C1293 1.393 . S
C1290 H1282 0.950 . S
C1290 C1288 1.391 . S
C1290 C1291 1.400 . S
C1291 C1290 1.400 . S
C1291 C1292 1.398 . S
C1291 C1297 1.491 . S
C1292 H1283 0.950 . S
C1292 C1291 1.398 . S
C1292 C1293 1.391 . S
C1293 H1281 0.950 . S
C1293 C1289 1.393 . S
C1293 C1292 1.391 . S
C1294 H1284 0.950 . S
C1294 C1295 1.386 . S
C1294 C1296 1.391 . S
C1295 C1294 1.386 . S
C1295 C1299 1.393 . S
C1296 H1285 0.950 . S
C1296 C1294 1.391 . S
C1296 C1297 1.400 . S
C1297 C1291 1.491 . S
C1297 C1296 1.400 . S
C1297 C1298 1.398 . S
C1298 H1286 0.950 . S
C1298 C1297 1.398 . S
C1298 C1299 1.391 . S
C1299 H1287 0.950 . S
C1299 C1295 1.393 . S
C1299 C1298 1.391 . S
H1300 C1308 0.950 . S
H1301 C1313 0.950 . S
H1302 C1310 0.950 . S
H1303 C1312 0.950 . S
H1304 C1314 0.950 . S
H1305 C1316 0.950 . S
H1306 C1318 0.950 . S
H1307 C1319 0.950 1_565 S
C1308 H1300 0.950 . S
C1308 C1309 1.386 . S
C1308 C1310 1.391 . S
C1309 C1308 1.386 . S
C1309 C1313 1.393 . S
C1310 H1302 0.950 . S
C1310 C1308 1.391 . S
C1310 C1311 1.400 . S
C1311 C1310 1.400 . S
C1311 C1312 1.398 . S
C1311 C1317 1.491 . S
C1312 H1303 0.950 . S
C1312 C1311 1.398 . S
C1312 C1313 1.391 . S
C1313 H1301 0.950 . S
C1313 C1309 1.393 . S
C1313 C1312 1.391 . S
C1314 H1304 0.950 . S
C1314 C1315 1.374 1_545 S
C1314 C1316 1.391 . S
C1315 C1314 1.374 1_565 S
C1315 C1319 1.390 1_565 S
C1316 H1305 0.950 . S
C1316 C1314 1.391 . S
C1316 C1317 1.400 . S
C1317 C1311 1.491 . S
C1317 C1316 1.400 . S
C1317 C1318 1.398 . S
C1318 H1306 0.950 . S
C1318 C1317 1.398 . S
C1318 C1319 1.391 . S
C1319 H1307 0.950 1_545 S
C1319 C1315 1.390 1_545 S
C1319 C1318 1.391 . S
H1320 C1328 0.950 . S
H1321 C1333 0.950 . S
H1322 C1330 0.950 . S
H1323 C1332 0.950 . S
H1324 C1334 0.950 . S
H1325 C1336 0.950 . S
H1326 C1338 0.950 . S
H1327 C1339 0.950 . S
C1328 H1320 0.950 . S
C1328 C1329 1.386 . S
C1328 C1330 1.391 . S
C1329 C1328 1.386 . S
C1329 C1333 1.393 . S
C1330 H1322 0.950 . S
C1330 C1328 1.391 . S
C1330 C1331 1.400 . S
C1331 C1330 1.400 . S
C1331 C1332 1.398 . S
C1331 C1337 1.491 . S
C1332 H1323 0.950 . S
C1332 C1331 1.398 . S
C1332 C1333 1.391 . S
C1333 H1321 0.950 . S
C1333 C1329 1.393 . S
C1333 C1332 1.391 . S
C1334 H1324 0.950 . S
C1334 C1335 1.386 . S
C1334 C1336 1.391 . S
C1335 C1334 1.386 . S
C1335 C1339 1.393 . S
C1336 H1325 0.950 . S
C1336 C1334 1.391 . S
C1336 C1337 1.400 . S
C1337 C1331 1.491 . S
C1337 C1336 1.400 . S
C1337 C1338 1.398 . S
C1338 H1326 0.950 . S
C1338 C1337 1.398 . S
C1338 C1339 1.391 . S
C1339 H1327 0.950 . S
C1339 C1335 1.393 . S
C1339 C1338 1.391 . S
H1340 C1348 0.950 . S
H1341 C1353 0.950 . S
H1342 C1350 0.950 . S
H1343 C1352 0.950 . S
H1344 C1354 0.950 . S
H1345 C1356 0.950 . S
H1346 C1358 0.950 . S
H1347 C1359 0.916 1_545 S
C1348 H1340 0.950 . S
C1348 C1349 1.386 . S
C1348 C1350 1.391 . S
C1349 C1348 1.386 . S
C1349 C1353 1.393 . S
C1350 H1342 0.950 . S
C1350 C1348 1.391 . S
C1350 C1351 1.400 . S
C1351 C1350 1.400 . S
C1351 C1352 1.398 . S
C1351 C1357 1.491 . S
C1352 H1343 0.950 . S
C1352 C1351 1.398 . S
C1352 C1353 1.391 . S
C1353 H1341 0.950 . S
C1353 C1349 1.393 . S
C1353 C1352 1.391 . S
C1354 H1344 0.950 . S
C1354 C1355 1.405 . S
C1354 C1356 1.391 . S
C1355 C1354 1.405 . S
C1355 C1359 1.393 . S
C1356 H1345 0.950 . S
C1356 C1354 1.391 . S
C1356 C1357 1.400 . S
C1357 C1351 1.491 . S
C1357 C1356 1.400 . S
C1357 C1358 1.398 . S
C1358 H1346 0.950 . S
C1358 C1357 1.398 . S
C1358 C1359 1.426 . S
C1359 H1347 0.916 1_565 S
C1359 C1355 1.393 . S
C1359 C1358 1.426 . S
H1360 C1368 0.950 . S
H1361 C1373 0.950 . S
H1362 C1370 0.950 . S
H1363 C1372 0.950 . S
H1364 C1374 0.950 . S
H1365 C1376 0.950 . S
H1366 C1378 0.950 . S
H1367 C1379 0.950 . S
C1368 H1360 0.950 . S
C1368 C1369 1.386 . S
C1368 C1370 1.391 . S
C1369 C1368 1.386 . S
C1369 C1373 1.393 . S
C1370 H1362 0.950 . S
C1370 C1368 1.391 . S
C1370 C1371 1.400 . S
C1371 C1370 1.400 . S
C1371 C1372 1.398 . S
C1371 C1377 1.491 . S
C1372 H1363 0.950 . S
C1372 C1371 1.398 . S
C1372 C1373 1.391 . S
C1373 H1361 0.950 . S
C1373 C1369 1.393 . S
C1373 C1372 1.391 . S
C1374 H1364 0.950 . S
C1374 C1375 1.386 . S
C1374 C1376 1.391 . S
C1375 C1374 1.386 . S
C1375 C1379 1.393 . S
C1376 H1365 0.950 . S
C1376 C1374 1.391 . S
C1376 C1377 1.400 . S
C1377 C1371 1.491 . S
C1377 C1376 1.400 . S
C1377 C1378 1.398 . S
C1378 H1366 0.950 . S
C1378 C1377 1.398 . S
C1378 C1379 1.391 . S
C1379 H1367 0.950 . S
C1379 C1375 1.393 . S
C1379 C1378 1.391 . S
H1380 C1388 0.950 . S
H1381 C1393 0.950 . S
H1382 C1390 0.950 . S
H1383 C1392 0.950 . S
H1384 C1394 0.950 . S
H1385 C1396 0.950 . S
H1386 C1398 0.950 . S
H1387 C1399 0.950 . S
C1388 H1380 0.950 . S
C1388 C1389 1.384 1_565 S
C1388 C1390 1.391 1_565 S
C1389 C1388 1.384 1_545 S
C1389 C1393 1.399 . S
C1390 H1382 0.950 . S
C1390 C1388 1.391 1_545 S
C1390 C1391 1.400 . S
C1391 C1390 1.400 . S
C1391 C1392 1.398 . S
C1391 C1397 1.491 . S
C1392 H1383 0.950 . S
C1392 C1391 1.398 . S
C1392 C1393 1.391 . S
C1393 H1381 0.950 . S
C1393 C1389 1.399 . S
C1393 C1392 1.391 . S
C1394 H1384 0.950 . S
C1394 C1395 1.386 . S
C1394 C1396 1.391 . S
C1395 C1394 1.386 . S
C1395 C1399 1.393 . S
C1396 H1385 0.950 . S
C1396 C1394 1.391 . S
C1396 C1397 1.400 . S
C1397 C1391 1.491 . S
C1397 C1396 1.400 . S
C1397 C1398 1.398 . S
C1398 H1386 0.950 . S
C1398 C1397 1.398 . S
C1398 C1399 1.391 . S
C1399 H1387 0.950 . S
C1399 C1395 1.393 . S
C1399 C1398 1.391 . S
H1400 C1408 0.950 . S
H1401 C1413 0.950 . S
H1402 C1410 0.950 . S
H1403 C1412 0.950 . S
H1404 C1414 0.950 . S
H1405 C1416 0.950 . S
H1406 C1418 0.950 . S
H1407 C1419 0.950 . S
C1408 H1400 0.950 . S
C1408 C1409 1.386 . S
C1408 C1410 1.391 . S
C1409 C1408 1.386 . S
C1409 C1413 1.393 . S
C1410 H1402 0.950 . S
C1410 C1408 1.391 . S
C1410 C1411 1.400 . S
C1411 C1410 1.400 . S
C1411 C1412 1.398 . S
C1411 C1417 1.491 . S
C1412 H1403 0.950 . S
C1412 C1411 1.398 . S
C1412 C1413 1.391 . S
C1413 H1401 0.950 . S
C1413 C1409 1.393 . S
C1413 C1412 1.391 . S
C1414 H1404 0.950 . S
C1414 C1415 1.386 . S
C1414 C1416 1.391 . S
C1415 C1414 1.386 . S
C1415 C1419 1.393 . S
C1416 H1405 0.950 . S
C1416 C1414 1.391 . S
C1416 C1417 1.400 . S
C1417 C1411 1.491 . S
C1417 C1416 1.400 . S
C1417 C1418 1.398 . S
C1418 H1406 0.950 . S
C1418 C1417 1.398 . S
C1418 C1419 1.391 . S
C1419 H1407 0.950 . S
C1419 C1415 1.393 . S
C1419 C1418 1.391 . S
H1420 C1428 0.950 . S
H1421 C1433 0.950 . S
H1422 C1430 0.950 . S
H1423 C1432 0.950 . S
H1424 C1434 0.950 1_545 S
H1425 C1436 0.950 . S
H1426 C1438 0.950 . S
H1427 C1439 0.950 . S
C1428 H1420 0.950 . S
C1428 C1429 1.386 . S
C1428 C1430 1.391 . S
C1429 C1428 1.386 . S
C1429 C1433 1.393 . S
C1430 H1422 0.950 . S
C1430 C1428 1.391 . S
C1430 C1431 1.400 . S
C1431 C1430 1.400 . S
C1431 C1432 1.398 . S
C1431 C1437 1.491 . S
C1432 H1423 0.950 . S
C1432 C1431 1.398 . S
C1432 C1433 1.391 . S
C1433 H1421 0.950 . S
C1433 C1429 1.393 . S
C1433 C1432 1.391 . S
C1434 H1424 0.950 1_565 S
C1434 C1435 1.389 . S
C1434 C1436 1.391 . S
C1435 C1434 1.389 . S
C1435 C1439 1.414 . S
C1436 H1425 0.950 . S
C1436 C1434 1.391 . S
C1436 C1437 1.400 . S
C1437 C1431 1.491 . S
C1437 C1436 1.400 . S
C1437 C1438 1.398 . S
C1438 H1426 0.950 . S
C1438 C1437 1.398 . S
C1438 C1439 1.391 . S
C1439 H1427 0.950 . S
C1439 C1435 1.414 . S
C1439 C1438 1.391 . S
H1440 C1448 0.950 . S
H1441 C1453 0.950 . S
H1442 C1450 0.950 . S
H1443 C1452 0.950 . S
H1444 C1454 0.950 . S
H1445 C1456 0.950 . S
H1446 C1458 0.950 . S
H1447 C1459 0.950 . S
C1448 H1440 0.950 . S
C1448 C1449 1.386 . S
C1448 C1450 1.391 . S
C1449 C1448 1.386 . S
C1449 C1453 1.393 . S
C1450 H1442 0.950 . S
C1450 C1448 1.391 . S
C1450 C1451 1.400 . S
C1451 C1450 1.400 . S
C1451 C1452 1.398 . S
C1451 C1457 1.491 . S
C1452 H1443 0.950 . S
C1452 C1451 1.398 . S
C1452 C1453 1.391 . S
C1453 H1441 0.950 . S
C1453 C1449 1.393 . S
C1453 C1452 1.391 . S
C1454 H1444 0.950 . S
C1454 C1455 1.386 . S
C1454 C1456 1.391 . S
C1455 C1454 1.386 . S
C1455 C1459 1.393 . S
C1456 H1445 0.950 . S
C1456 C1454 1.391 . S
C1456 C1457 1.400 . S
C1457 C1451 1.491 . S
C1457 C1456 1.400 . S
C1457 C1458 1.398 . S
C1458 H1446 0.950 . S
C1458 C1457 1.398 . S
C1458 C1459 1.391 . S
C1459 H1447 0.950 . S
C1459 C1455 1.393 . S
C1459 C1458 1.391 . S
H1460 C1468 0.950 . S
H1461 C1473 0.950 . S
H1462 C1470 0.950 . S
H1463 C1472 0.950 . S
H1464 C1474 0.950 . S
H1465 C1476 0.950 . S
H1466 C1478 0.950 . S
H1467 C1479 0.950 . S
C1468 H1460 0.950 . S
C1468 C1469 1.386 . S
C1468 C1470 1.391 . S
C1469 C1468 1.386 . S
C1469 C1473 1.393 1_565 S
C1470 H1462 0.950 . S
C1470 C1468 1.391 . S
C1470 C1471 1.400 . S
C1471 C1470 1.400 . S
C1471 C1472 1.398 . S
C1471 C1477 1.491 . S
C1472 H1463 0.950 . S
C1472 C1471 1.398 . S
C1472 C1473 1.391 1_565 S
C1473 H1461 0.950 . S
C1473 C1469 1.393 1_545 S
C1473 C1472 1.391 1_545 S
C1474 H1464 0.950 . S
C1474 C1475 1.386 . S
C1474 C1476 1.391 . S
C1475 C1474 1.386 . S
C1475 C1479 1.393 . S
C1476 H1465 0.950 . S
C1476 C1474 1.391 . S
C1476 C1477 1.400 . S
C1477 C1471 1.491 . S
C1477 C1476 1.400 . S
C1477 C1478 1.398 . S
C1478 H1466 0.950 . S
C1478 C1477 1.398 . S
C1478 C1479 1.391 . S
C1479 H1467 0.950 . S
C1479 C1475 1.393 . S
C1479 C1478 1.391 . S
H1480 C1488 0.950 . S
H1481 C1493 0.950 . S
H1482 C1490 0.950 . S
H1483 C1492 0.950 . S
H1484 C1494 0.950 . S
H1485 C1496 0.950 . S
H1486 C1498 0.950 . S
H1487 C1499 0.950 . S
C1488 H1480 0.950 . S
C1488 C1489 1.386 . S
C1488 C1490 1.391 . S
C1489 C1488 1.386 . S
C1489 C1493 1.393 . S
C1490 H1482 0.950 . S
C1490 C1488 1.391 . S
C1490 C1491 1.400 . S
C1491 C1490 1.400 . S
C1491 C1492 1.398 . S
C1491 C1497 1.491 . S
C1492 H1483 0.950 . S
C1492 C1491 1.398 . S
C1492 C1493 1.391 . S
C1493 H1481 0.950 . S
C1493 C1489 1.393 . S
C1493 C1492 1.391 . S
C1494 H1484 0.950 . S
C1494 C1495 1.386 . S
C1494 C1496 1.391 . S
C1495 C1494 1.386 . S
C1495 C1499 1.393 . S
C1496 H1485 0.950 . S
C1496 C1494 1.391 . S
C1496 C1497 1.400 . S
C1497 C1491 1.491 . S
C1497 C1496 1.400 . S
C1497 C1498 1.398 . S
C1498 H1486 0.950 . S
C1498 C1497 1.398 . S
C1498 C1499 1.391 . S
C1499 H1487 0.950 . S
C1499 C1495 1.393 . S
C1499 C1498 1.391 . S
H1500 C1508 0.950 . S
H1501 C1513 0.950 1_565 S
H1502 C1510 0.950 . S
H1503 C1512 0.950 . S
H1504 C1514 0.950 . S
H1505 C1516 0.950 . S
H1506 C1518 0.950 . S
H1507 C1519 0.950 . S
C1508 H1500 0.950 . S
C1508 C1509 1.376 1_545 S
C1508 C1510 1.391 . S
C1509 C1508 1.376 1_565 S
C1509 C1513 1.387 1_565 S
C1510 H1502 0.950 . S
C1510 C1508 1.391 . S
C1510 C1511 1.400 . S
C1511 C1510 1.400 . S
C1511 C1512 1.398 . S
C1511 C1517 1.491 . S
C1512 H1503 0.950 . S
C1512 C1511 1.398 . S
C1512 C1513 1.391 . S
C1513 H1501 0.950 1_545 S
C1513 C1509 1.387 1_545 S
C1513 C1512 1.391 . S
C1514 H1504 0.950 . S
C1514 C1515 1.386 . S
C1514 C1516 1.391 . S
C1515 C1514 1.386 . S
C1515 C1519 1.393 . S
C1516 H1505 0.950 . S
C1516 C1514 1.391 . S
C1516 C1517 1.400 . S
C1517 C1511 1.491 . S
C1517 C1516 1.400 . S
C1517 C1518 1.398 . S
C1518 H1506 0.950 . S
C1518 C1517 1.398 . S
C1518 C1519 1.391 . S
C1519 H1507 0.950 . S
C1519 C1515 1.393 . S
C1519 C1518 1.391 . S
H1520 C1528 0.950 . S
H1521 C1533 0.950 . S
H1522 C1530 0.950 . S
H1523 C1532 0.950 . S
H1524 C1534 0.950 . S
H1525 C1536 0.950 . S
H1526 C1538 0.950 . S
H1527 C1539 0.950 . S
C1528 H1520 0.950 . S
C1528 C1529 1.386 . S
C1528 C1530 1.391 . S
C1529 C1528 1.386 . S
C1529 C1533 1.393 . S
C1530 H1522 0.950 . S
C1530 C1528 1.391 . S
C1530 C1531 1.400 . S
C1531 C1530 1.400 . S
C1531 C1532 1.398 . S
C1531 C1537 1.491 . S
C1532 H1523 0.950 . S
C1532 C1531 1.398 . S
C1532 C1533 1.391 . S
C1533 H1521 0.950 . S
C1533 C1529 1.393 . S
C1533 C1532 1.391 . S
C1534 H1524 0.950 . S
C1534 C1535 1.386 . S
C1534 C1536 1.391 . S
C1535 C1534 1.386 . S
C1535 C1539 1.393 . S
C1536 H1525 0.950 . S
C1536 C1534 1.391 . S
C1536 C1537 1.400 . S
C1537 C1531 1.491 . S
C1537 C1536 1.400 . S
C1537 C1538 1.398 . S
C1538 H1526 0.950 . S
C1538 C1537 1.398 . S
C1538 C1539 1.391 . S
C1539 H1527 0.950 . S
C1539 C1535 1.393 . S
C1539 C1538 1.391 . S
H1540 C1548 0.950 . S
H1541 C1553 0.950 . S
H1542 C1550 0.950 . S
H1543 C1552 0.950 . S
H1544 C1554 0.950 . S
H1545 C1556 0.950 . S
H1546 C1558 0.950 . S
H1547 C1559 0.950 . S
C1548 H1540 0.950 . S
C1548 C1549 1.377 1_565 S
C1548 C1550 1.391 . S
C1549 C1548 1.377 1_545 S
C1549 C1553 1.395 . S
C1550 H1542 0.950 . S
C1550 C1548 1.391 . S
C1550 C1551 1.400 . S
C1551 C1550 1.400 . S
C1551 C1552 1.398 . S
C1551 C1557 1.491 . S
C1552 H1543 0.950 . S
C1552 C1551 1.398 . S
C1552 C1553 1.391 1_565 S
C1553 H1541 0.950 . S
C1553 C1549 1.395 . S
C1553 C1552 1.391 1_545 S
C1554 H1544 0.950 . S
C1554 C1555 1.386 . S
C1554 C1556 1.391 . S
C1555 C1554 1.386 . S
C1555 C1559 1.393 . S
C1556 H1545 0.950 . S
C1556 C1554 1.391 . S
C1556 C1557 1.400 . S
C1557 C1551 1.491 . S
C1557 C1556 1.400 . S
C1557 C1558 1.398 . S
C1558 H1546 0.950 . S
C1558 C1557 1.398 . S
C1558 C1559 1.391 . S
C1559 H1547 0.950 . S
C1559 C1555 1.393 . S
C1559 C1558 1.391 . S
H1560 C1568 0.950 . S
H1561 C1573 0.950 . S
H1562 C1570 0.950 . S
H1563 C1572 0.950 . S
H1564 C1574 0.950 . S
H1565 C1576 0.950 . S
H1566 C1578 0.950 . S
H1567 C1579 0.950 . S
C1568 H1560 0.950 . S
C1568 C1569 1.386 . S
C1568 C1570 1.391 . S
C1569 C1568 1.386 . S
C1569 C1573 1.393 . S
C1570 H1562 0.950 . S
C1570 C1568 1.391 . S
C1570 C1571 1.400 . S
C1571 C1570 1.400 . S
C1571 C1572 1.398 . S
C1571 C1577 1.491 . S
C1572 H1563 0.950 . S
C1572 C1571 1.398 . S
C1572 C1573 1.391 . S
C1573 H1561 0.950 . S
C1573 C1569 1.393 . S
C1573 C1572 1.391 . S
C1574 H1564 0.950 . S
C1574 C1575 1.386 . S
C1574 C1576 1.391 . S
C1575 C1574 1.386 . S
C1575 C1579 1.393 . S
C1576 H1565 0.950 . S
C1576 C1574 1.391 . S
C1576 C1577 1.400 . S
C1577 C1571 1.491 . S
C1577 C1576 1.400 . S
C1577 C1578 1.398 . S
C1578 H1566 0.950 . S
C1578 C1577 1.398 . S
C1578 C1579 1.391 . S
C1579 H1567 0.950 . S
C1579 C1575 1.393 . S
C1579 C1578 1.391 . S
H1580 C1588 0.950 . S
H1581 C1593 0.950 . S
H1582 C1590 0.950 . S
H1583 C1592 0.950 . S
H1584 C1594 0.950 . S
H1585 C1596 0.950 . S
H1586 C1598 0.950 . S
H1587 C1599 0.950 . S
C1588 H1580 0.950 . S
C1588 C1589 1.386 . S
C1588 C1590 1.391 . S
C1589 C1588 1.386 . S
C1589 C1593 1.393 . S
C1590 H1582 0.950 . S
C1590 C1588 1.391 . S
C1590 C1591 1.400 . S
C1591 C1590 1.400 . S
C1591 C1592 1.398 . S
C1591 C1597 1.491 . S
C1592 H1583 0.950 . S
C1592 C1591 1.398 . S
C1592 C1593 1.391 . S
C1593 H1581 0.950 . S
C1593 C1589 1.393 . S
C1593 C1592 1.391 . S
C1594 H1584 0.950 . S
C1594 C1595 1.382 1_565 S
C1594 C1596 1.391 1_565 S
C1595 C1594 1.382 1_545 S
C1595 C1599 1.413 . S
C1596 H1585 0.950 . S
C1596 C1594 1.391 1_545 S
C1596 C1597 1.400 . S
C1597 C1591 1.491 . S
C1597 C1596 1.400 . S
C1597 C1598 1.398 . S
C1598 H1586 0.950 . S
C1598 C1597 1.398 . S
C1598 C1599 1.391 . S
C1599 H1587 0.950 . S
C1599 C1595 1.413 . S
C1599 C1598 1.391 . S
H1600 C1608 0.950 . S
H1601 C1613 0.950 . S
H1602 C1610 0.950 . S
H1603 C1612 0.950 . S
H1604 C1614 0.950 . S
H1605 C1616 0.950 . S
H1606 C1618 0.950 . S
H1607 C1619 0.950 . S
C1608 H1600 0.950 . S
C1608 C1609 1.386 . S
C1608 C1610 1.391 . S
C1609 C1608 1.386 . S
C1609 C1613 1.393 . S
C1610 H1602 0.950 . S
C1610 C1608 1.391 . S
C1610 C1611 1.400 . S
C1611 C1610 1.400 . S
C1611 C1612 1.398 . S
C1611 C1617 1.491 . S
C1612 H1603 0.950 . S
C1612 C1611 1.398 . S
C1612 C1613 1.391 . S
C1613 H1601 0.950 . S
C1613 C1609 1.393 . S
C1613 C1612 1.391 . S
C1614 H1604 0.950 . S
C1614 C1615 1.386 . S
C1614 C1616 1.391 . S
C1615 C1614 1.386 . S
C1615 C1619 1.393 . S
C1616 H1605 0.950 . S
C1616 C1614 1.391 . S
C1616 C1617 1.400 . S
C1617 C1611 1.491 . S
C1617 C1616 1.400 . S
C1617 C1618 1.398 . S
C1618 H1606 0.950 . S
C1618 C1617 1.398 . S
C1618 C1619 1.391 . S
C1619 H1607 0.950 . S
C1619 C1615 1.393 . S
C1619 C1618 1.391 . S
H1620 C1628 0.950 . S
H1621 C1633 0.950 . S
H1622 C1630 0.950 . S
H1623 C1632 0.950 . S
H1624 C1634 0.950 . S
H1625 C1636 0.950 . S
H1626 C1638 0.950 . S
H1627 C1639 0.950 . S
C1628 H1620 0.950 . S
C1628 C1629 1.386 . S
C1628 C1630 1.391 . S
C1629 C1628 1.386 . S
C1629 C1633 1.393 . S
C1630 H1622 0.950 . S
C1630 C1628 1.391 . S
C1630 C1631 1.400 . S
C1631 C1630 1.400 . S
C1631 C1632 1.398 . S
C1631 C1637 1.491 . S
C1632 H1623 0.950 . S
C1632 C1631 1.398 . S
C1632 C1633 1.391 . S
C1633 H1621 0.950 . S
C1633 C1629 1.393 . S
C1633 C1632 1.391 . S
C1634 H1624 0.950 . S
C1634 C1635 1.386 . S
C1634 C1636 1.391 . S
C1635 C1634 1.386 . S
C1635 C1639 1.393 . S
C1636 H1625 0.950 . S
C1636 C1634 1.391 . S
C1636 C1637 1.400 . S
C1637 C1631 1.491 . S
C1637 C1636 1.400 . S
C1637 C1638 1.398 . S
C1638 H1626 0.950 . S
C1638 C1637 1.398 . S
C1638 C1639 1.391 . S
C1639 H1627 0.950 . S
C1639 C1635 1.393 . S
C1639 C1638 1.391 . S
H1640 C1648 0.950 . S
H1641 C1653 0.950 . S
H1642 C1650 0.950 . S
H1643 C1652 0.950 . S
H1644 C1654 0.950 . S
H1645 C1656 0.950 . S
H1646 C1658 0.950 . S
H1647 C1659 0.950 . S
C1648 H1640 0.950 . S
C1648 C1649 1.386 . S
C1648 C1650 1.391 . S
C1649 C1648 1.386 . S
C1649 C1653 1.393 . S
C1650 H1642 0.950 . S
C1650 C1648 1.391 . S
C1650 C1651 1.400 . S
C1651 C1650 1.400 . S
C1651 C1652 1.398 . S
C1651 C1657 1.491 . S
C1652 H1643 0.950 . S
C1652 C1651 1.398 . S
C1652 C1653 1.391 . S
C1653 H1641 0.950 . S
C1653 C1649 1.393 . S
C1653 C1652 1.391 . S
C1654 H1644 0.950 . S
C1654 C1655 1.386 . S
C1654 C1656 1.391 . S
C1655 C1654 1.386 . S
C1655 C1659 1.393 . S
C1656 H1645 0.950 . S
C1656 C1654 1.391 . S
C1656 C1657 1.400 . S
C1657 C1651 1.491 . S
C1657 C1656 1.400 . S
C1657 C1658 1.398 . S
C1658 H1646 0.950 . S
C1658 C1657 1.398 . S
C1658 C1659 1.391 . S
C1659 H1647 0.950 . S
C1659 C1655 1.393 . S
C1659 C1658 1.391 . S
H1660 C1668 0.950 . S
H1661 C1673 0.950 . S
H1662 C1670 0.950 . S
H1663 C1672 0.950 . S
H1664 C1674 0.950 . S
H1665 C1676 0.950 . S
H1666 C1678 0.950 . S
H1667 C1679 0.950 . S
C1668 H1660 0.950 . S
C1668 C1669 1.386 . S
C1668 C1670 1.391 . S
C1669 C1668 1.386 . S
C1669 C1673 1.393 . S
C1670 H1662 0.950 . S
C1670 C1668 1.391 . S
C1670 C1671 1.400 . S
C1671 C1670 1.400 . S
C1671 C1672 1.398 . S
C1671 C1677 1.491 . S
C1672 H1663 0.950 . S
C1672 C1671 1.398 . S
C1672 C1673 1.391 . S
C1673 H1661 0.950 . S
C1673 C1669 1.393 . S
C1673 C1672 1.391 . S
C1674 H1664 0.950 . S
C1674 C1675 1.386 . S
C1674 C1676 1.391 . S
C1675 C1674 1.386 . S
C1675 C1679 1.393 . S
C1676 H1665 0.950 . S
C1676 C1674 1.391 . S
C1676 C1677 1.400 . S
C1677 C1671 1.491 . S
C1677 C1676 1.400 . S
C1677 C1678 1.398 . S
C1678 H1666 0.950 . S
C1678 C1677 1.398 . S
C1678 C1679 1.391 . S
C1679 H1667 0.950 . S
C1679 C1675 1.393 . S
C1679 C1678 1.391 . S
H1680 C1688 0.950 . S
H1681 C1693 0.950 . S
H1682 C1690 0.950 . S
H1683 C1692 0.950 . S
H1684 C1694 0.950 . S
H1685 C1696 0.950 . S
H1686 C1698 0.950 . S
H1687 C1699 0.950 . S
C1688 H1680 0.950 . S
C1688 C1689 1.386 . S
C1688 C1690 1.391 . S
C1689 C1688 1.386 . S
C1689 C1693 1.393 . S
C1690 H1682 0.950 . S
C1690 C1688 1.391 . S
C1690 C1691 1.400 . S
C1691 C1690 1.400 . S
C1691 C1692 1.398 . S
C1691 C1697 1.491 . S
C1692 H1683 0.950 . S
C1692 C1691 1.398 . S
C1692 C1693 1.391 . S
C1693 H1681 0.950 . S
C1693 C1689 1.393 . S
C1693 C1692 1.391 . S
C1694 H1684 0.950 . S
C1694 C1695 1.386 . S
C1694 C1696 1.391 . S
C1695 C1694 1.386 . S
C1695 C1699 1.393 . S
C1696 H1685 0.950 . S
C1696 C1694 1.391 . S
C1696 C1697 1.400 . S
C1697 C1691 1.491 . S
C1697 C1696 1.400 . S
C1697 C1698 1.398 . S
C1698 H1686 0.950 . S
C1698 C1697 1.398 . S
C1698 C1699 1.391 . S
C1699 H1687 0.950 . S
C1699 C1695 1.393 . S
C1699 C1698 1.391 . S
H1700 C1708 0.950 . S
H1701 C1713 0.950 . S
H1702 C1710 0.950 . S
H1703 C1712 0.950 . S
H1704 C1714 0.950 . S
H1705 C1716 0.950 . S
H1706 C1718 0.950 . S
H1707 C1719 0.950 . S
C1708 H1700 0.950 . S
C1708 C1709 1.386 . S
C1708 C1710 1.391 . S
C1709 C1708 1.386 . S
C1709 C1713 1.393 . S
C1710 H1702 0.950 . S
C1710 C1708 1.391 . S
C1710 C1711 1.400 . S
C1711 C1710 1.400 . S
C1711 C1712 1.398 . S
C1711 C1717 1.491 . S
C1712 H1703 0.950 . S
C1712 C1711 1.398 . S
C1712 C1713 1.391 . S
C1713 H1701 0.950 . S
C1713 C1709 1.393 . S
C1713 C1712 1.391 . S
C1714 H1704 0.950 . S
C1714 C1715 1.386 . S
C1714 C1716 1.391 . S
C1715 C1714 1.386 . S
C1715 C1719 1.393 . S
C1716 H1705 0.950 . S
C1716 C1714 1.391 . S
C1716 C1717 1.400 . S
C1717 C1711 1.491 . S
C1717 C1716 1.400 . S
C1717 C1718 1.398 . S
C1718 H1706 0.950 . S
C1718 C1717 1.398 . S
C1718 C1719 1.391 . S
C1719 H1707 0.950 . S
C1719 C1715 1.393 . S
C1719 C1718 1.391 . S
H1720 C1728 0.950 . S
H1721 C1733 0.950 . S
H1722 C1730 0.950 . S
H1723 C1732 0.950 . S
H1724 C1734 0.950 . S
H1725 C1736 0.950 . S
H1726 C1738 0.950 . S
H1727 C1739 0.950 . S
C1728 H1720 0.950 . S
C1728 C1729 1.386 . S
C1728 C1730 1.391 . S
C1729 C1728 1.386 . S
C1729 C1733 1.393 . S
C1730 H1722 0.950 . S
C1730 C1728 1.391 . S
C1730 C1731 1.400 . S
C1731 C1730 1.400 . S
C1731 C1732 1.398 . S
C1731 C1737 1.491 . S
C1732 H1723 0.950 . S
C1732 C1731 1.398 . S
C1732 C1733 1.391 . S
C1733 H1721 0.950 . S
C1733 C1729 1.393 . S
C1733 C1732 1.391 . S
C1734 H1724 0.950 . S
C1734 C1735 1.386 . S
C1734 C1736 1.391 . S
C1735 C1734 1.386 . S
C1735 C1739 1.393 . S
C1736 H1725 0.950 . S
C1736 C1734 1.391 . S
C1736 C1737 1.400 . S
C1737 C1731 1.491 . S
C1737 C1736 1.400 . S
C1737 C1738 1.398 . S
C1738 H1726 0.950 . S
C1738 C1737 1.398 . S
C1738 C1739 1.391 . S
C1739 H1727 0.950 . S
C1739 C1735 1.393 . S
C1739 C1738 1.391 . S
H1740 C1748 0.950 . S
H1741 C1753 0.950 . S
H1742 C1750 0.950 . S
H1743 C1752 0.950 . S
H1744 C1754 0.950 . S
H1745 C1756 0.950 . S
H1746 C1758 0.950 . S
H1747 C1759 0.950 . S
C1748 H1740 0.950 . S
C1748 C1749 1.386 . S
C1748 C1750 1.391 . S
C1749 C1748 1.386 . S
C1749 C1753 1.393 . S
C1750 H1742 0.950 . S
C1750 C1748 1.391 . S
C1750 C1751 1.400 . S
C1751 C1750 1.400 . S
C1751 C1752 1.398 . S
C1751 C1757 1.491 . S
C1752 H1743 0.950 . S
C1752 C1751 1.398 . S
C1752 C1753 1.391 . S
C1753 H1741 0.950 . S
C1753 C1749 1.393 . S
C1753 C1752 1.391 . S
C1754 H1744 0.950 . S
C1754 C1755 1.386 . S
C1754 C1756 1.391 . S
C1755 C1754 1.386 . S
C1755 C1759 1.393 . S
C1756 H1745 0.950 . S
C1756 C1754 1.391 . S
C1756 C1757 1.400 . S
C1757 C1751 1.491 . S
C1757 C1756 1.400 . S
C1757 C1758 1.398 . S
C1758 H1746 0.950 . S
C1758 C1757 1.398 . S
C1758 C1759 1.391 . S
C1759 H1747 0.950 . S
C1759 C1755 1.393 . S
C1759 C1758 1.391 . S
H1760 C1768 0.950 . S
H1761 C1773 0.950 . S
H1762 C1770 0.950 . S
H1763 C1772 0.950 . S
H1764 C1774 0.950 . S
H1765 C1776 0.950 . S
H1766 C1778 0.950 . S
H1767 C1779 0.950 . S
C1768 H1760 0.950 . S
C1768 C1769 1.386 . S
C1768 C1770 1.391 . S
C1769 C1768 1.386 . S
C1769 C1773 1.393 . S
C1770 H1762 0.950 . S
C1770 C1768 1.391 . S
C1770 C1771 1.400 . S
C1771 C1770 1.400 . S
C1771 C1772 1.398 . S
C1771 C1777 1.491 . S
C1772 H1763 0.950 . S
C1772 C1771 1.398 . S
C1772 C1773 1.391 . S
C1773 H1761 0.950 . S
C1773 C1769 1.393 . S
C1773 C1772 1.391 . S
C1774 H1764 0.950 . S
C1774 C1775 1.386 . S
C1774 C1776 1.391 . S
C1775 C1774 1.386 . S
C1775 C1779 1.393 . S
C1776 H1765 0.950 . S
C1776 C1774 1.391 . S
C1776 C1777 1.400 . S
C1777 C1771 1.491 . S
C1777 C1776 1.400 . S
C1777 C1778 1.398 . S
C1778 H1766 0.950 . S
C1778 C1777 1.398 . S
C1778 C1779 1.391 . S
C1779 H1767 0.950 . S
C1779 C1775 1.393 . S
C1779 C1778 1.391 . S
H1780 C1788 0.950 . S
H1781 C1793 0.950 . S
H1782 C1790 0.950 . S
H1783 C1792 0.950 . S
H1784 C1794 0.950 . S
H1785 C1796 0.950 . S
H1786 C1798 0.950 . S
H1787 C1799 0.950 . S
C1788 H1780 0.950 . S
C1788 C1789 1.386 . S
C1788 C1790 1.391 . S
C1789 C1788 1.386 . S
C1789 C1793 1.393 . S
C1790 H1782 0.950 . S
C1790 C1788 1.391 . S
C1790 C1791 1.400 . S
C1791 C1790 1.400 . S
C1791 C1792 1.398 . S
C1791 C1797 1.491 . S
C1792 H1783 0.950 . S
C1792 C1791 1.398 . S
C1792 C1793 1.391 . S
C1793 H1781 0.950 . S
C1793 C1789 1.393 . S
C1793 C1792 1.391 . S
C1794 H1784 0.950 . S
C1794 C1795 1.386 . S
C1794 C1796 1.391 . S
C1795 C1794 1.386 . S
C1795 C1799 1.393 . S
C1796 H1785 0.950 . S
C1796 C1794 1.391 . S
C1796 C1797 1.400 . S
C1797 C1791 1.491 . S
C1797 C1796 1.400 . S
C1797 C1798 1.398 . S
C1798 H1786 0.950 . S
C1798 C1797 1.398 . S
C1798 C1799 1.391 . S
C1799 H1787 0.950 . S
C1799 C1795 1.393 . S
C1799 C1798 1.391 . S
H1800 C1808 0.950 . S
H1801 C1813 0.950 . S
H1802 C1810 0.950 . S
H1803 C1812 0.950 . S
H1804 C1814 0.950 . S
H1805 C1816 0.950 . S
H1806 C1818 0.950 . S
H1807 C1819 0.950 . S
C1808 H1800 0.950 . S
C1808 C1809 1.386 . S
C1808 C1810 1.391 . S
C1809 C1808 1.386 . S
C1809 C1813 1.393 . S
C1810 H1802 0.950 . S
C1810 C1808 1.391 . S
C1810 C1811 1.400 . S
C1811 C1810 1.400 . S
C1811 C1812 1.398 . S
C1811 C1817 1.491 . S
C1812 H1803 0.950 . S
C1812 C1811 1.398 . S
C1812 C1813 1.391 . S
C1813 H1801 0.950 . S
C1813 C1809 1.393 . S
C1813 C1812 1.391 . S
C1814 H1804 0.950 . S
C1814 C1815 1.386 . S
C1814 C1816 1.391 . S
C1815 C1814 1.386 . S
C1815 C1819 1.393 . S
C1816 H1805 0.950 . S
C1816 C1814 1.391 . S
C1816 C1817 1.400 . S
C1817 C1811 1.491 . S
C1817 C1816 1.400 . S
C1817 C1818 1.398 . S
C1818 H1806 0.950 . S
C1818 C1817 1.398 . S
C1818 C1819 1.391 . S
C1819 H1807 0.950 . S
C1819 C1815 1.393 . S
C1819 C1818 1.391 . S
H1820 C1828 0.950 . S
H1821 C1833 0.950 . S
H1822 C1830 0.950 . S
H1823 C1832 0.950 . S
H1824 C1834 0.950 . S
H1825 C1836 0.950 . S
H1826 C1838 0.950 . S
H1827 C1839 0.950 . S
C1828 H1820 0.950 . S
C1828 C1829 1.386 . S
C1828 C1830 1.391 . S
C1829 C1828 1.386 . S
C1829 C1833 1.393 . S
C1830 H1822 0.950 . S
C1830 C1828 1.391 . S
C1830 C1831 1.400 . S
C1831 C1830 1.400 . S
C1831 C1832 1.398 . S
C1831 C1837 1.491 . S
C1832 H1823 0.950 . S
C1832 C1831 1.398 . S
C1832 C1833 1.391 . S
C1833 H1821 0.950 . S
C1833 C1829 1.393 . S
C1833 C1832 1.391 . S
C1834 H1824 0.950 . S
C1834 C1835 1.386 . S
C1834 C1836 1.391 . S
C1835 C1834 1.386 . S
C1835 C1839 1.393 . S
C1836 H1825 0.950 . S
C1836 C1834 1.391 . S
C1836 C1837 1.400 . S
C1837 C1831 1.491 . S
C1837 C1836 1.400 . S
C1837 C1838 1.398 . S
C1838 H1826 0.950 . S
C1838 C1837 1.398 . S
C1838 C1839 1.391 . S
C1839 H1827 0.950 . S
C1839 C1835 1.393 . S
C1839 C1838 1.391 . S
H1840 C1848 0.950 . S
H1841 C1853 0.950 . S
H1842 C1850 0.950 . S
H1843 C1852 0.950 . S
H1844 C1854 0.950 . S
H1845 C1856 0.950 . S
H1846 C1858 0.950 . S
H1847 C1859 0.950 . S
C1848 H1840 0.950 . S
C1848 C1849 1.386 . S
C1848 C1850 1.391 . S
C1849 C1848 1.386 . S
C1849 C1853 1.393 . S
C1850 H1842 0.950 . S
C1850 C1848 1.391 . S
C1850 C1851 1.400 . S
C1851 C1850 1.400 . S
C1851 C1852 1.398 . S
C1851 C1857 1.491 . S
C1852 H1843 0.950 . S
C1852 C1851 1.398 . S
C1852 C1853 1.391 . S
C1853 H1841 0.950 . S
C1853 C1849 1.393 . S
C1853 C1852 1.391 . S
C1854 H1844 0.950 . S
C1854 C1855 1.386 . S
C1854 C1856 1.391 . S
C1855 C1854 1.386 . S
C1855 C1859 1.393 . S
C1856 H1845 0.950 . S
C1856 C1854 1.391 . S
C1856 C1857 1.400 . S
C1857 C1851 1.491 . S
C1857 C1856 1.400 . S
C1857 C1858 1.398 . S
C1858 H1846 0.950 . S
C1858 C1857 1.398 . S
C1858 C1859 1.391 . S
C1859 H1847 0.950 . S
C1859 C1855 1.393 . S
C1859 C1858 1.391 . S
H1860 C1868 0.950 . S
H1861 C1873 0.950 . S
H1862 C1870 0.950 . S
H1863 C1872 0.950 . S
H1864 C1874 0.950 . S
H1865 C1876 0.950 . S
H1866 C1878 0.950 . S
H1867 C1879 0.950 . S
C1868 H1860 0.950 . S
C1868 C1869 1.386 . S
C1868 C1870 1.391 . S
C1869 C1868 1.386 . S
C1869 C1873 1.393 . S
C1870 H1862 0.950 . S
C1870 C1868 1.391 . S
C1870 C1871 1.400 . S
C1871 C1870 1.400 . S
C1871 C1872 1.398 . S
C1871 C1877 1.491 . S
C1872 H1863 0.950 . S
C1872 C1871 1.398 . S
C1872 C1873 1.391 . S
C1873 H1861 0.950 . S
C1873 C1869 1.393 . S
C1873 C1872 1.391 . S
C1874 H1864 0.950 . S
C1874 C1875 1.386 . S
C1874 C1876 1.391 . S
C1875 C1874 1.386 . S
C1875 C1879 1.393 . S
C1876 H1865 0.950 . S
C1876 C1874 1.391 . S
C1876 C1877 1.400 . S
C1877 C1871 1.491 . S
C1877 C1876 1.400 . S
C1877 C1878 1.398 . S
C1878 H1866 0.950 . S
C1878 C1877 1.398 . S
C1878 C1879 1.391 . S
C1879 H1867 0.950 . S
C1879 C1875 1.393 . S
C1879 C1878 1.391 . S
H1880 C1888 0.950 . S
H1881 C1893 0.950 . S
H1882 C1890 0.950 . S
H1883 C1892 0.950 . S
H1884 C1894 0.950 . S
H1885 C1896 0.950 . S
H1886 C1898 0.950 . S
H1887 C1899 0.950 . S
C1888 H1880 0.950 . S
C1888 C1889 1.386 . S
C1888 C1890 1.391 . S
C1889 C1888 1.386 . S
C1889 C1893 1.393 . S
C1890 H1882 0.950 . S
C1890 C1888 1.391 . S
C1890 C1891 1.400 . S
C1891 C1890 1.400 . S
C1891 C1892 1.398 . S
C1891 C1897 1.491 . S
C1892 H1883 0.950 . S
C1892 C1891 1.398 . S
C1892 C1893 1.391 . S
C1893 H1881 0.950 . S
C1893 C1889 1.393 . S
C1893 C1892 1.391 . S
C1894 H1884 0.950 . S
C1894 C1895 1.386 . S
C1894 C1896 1.391 . S
C1895 C1894 1.386 . S
C1895 C1899 1.393 . S
C1896 H1885 0.950 . S
C1896 C1894 1.391 . S
C1896 C1897 1.400 . S
C1897 C1891 1.491 . S
C1897 C1896 1.400 . S
C1897 C1898 1.398 . S
C1898 H1886 0.950 . S
C1898 C1897 1.398 . S
C1898 C1899 1.391 . S
C1899 H1887 0.950 . S
C1899 C1895 1.393 . S
C1899 C1898 1.391 . S
H1900 C1908 0.950 . S
H1901 C1913 0.950 . S
H1902 C1910 0.950 . S
H1903 C1912 0.950 . S
H1904 C1914 0.950 . S
H1905 C1916 0.950 . S
H1906 C1918 0.950 . S
H1907 C1919 0.950 . S
C1908 H1900 0.950 . S
C1908 C1909 1.386 . S
C1908 C1910 1.391 . S
C1909 C1908 1.386 . S
C1909 C1913 1.393 . S
C1910 H1902 0.950 . S
C1910 C1908 1.391 . S
C1910 C1911 1.400 . S
C1911 C1910 1.400 . S
C1911 C1912 1.398 . S
C1911 C1917 1.491 . S
C1912 H1903 0.950 . S
C1912 C1911 1.398 . S
C1912 C1913 1.391 . S
C1913 H1901 0.950 . S
C1913 C1909 1.393 . S
C1913 C1912 1.391 . S
C1914 H1904 0.950 . S
C1914 C1915 1.386 . S
C1914 C1916 1.391 . S
C1915 C1914 1.386 . S
C1915 C1919 1.393 . S
C1916 H1905 0.950 . S
C1916 C1914 1.391 . S
C1916 C1917 1.400 . S
C1917 C1911 1.491 . S
C1917 C1916 1.400 . S
C1917 C1918 1.398 . S
C1918 H1906 0.950 . S
C1918 C1917 1.398 . S
C1918 C1919 1.391 . S
C1919 H1907 0.950 . S
C1919 C1915 1.393 . S
C1919 C1918 1.391 . S
H1920 C1928 0.950 . S
H1921 C1933 0.950 . S
H1922 C1930 0.950 . S
H1923 C1932 0.950 . S
H1924 C1934 0.950 . S
H1925 C1936 0.950 . S
H1926 C1938 0.950 . S
H1927 C1939 0.950 . S
C1928 H1920 0.950 . S
C1928 C1929 1.386 . S
C1928 C1930 1.391 . S
C1929 C1928 1.386 . S
C1929 C1933 1.393 . S
C1930 H1922 0.950 . S
C1930 C1928 1.391 . S
C1930 C1931 1.400 . S
C1931 C1930 1.400 . S
C1931 C1932 1.398 . S
C1931 C1937 1.491 . S
C1932 H1923 0.950 . S
C1932 C1931 1.398 . S
C1932 C1933 1.391 . S
C1933 H1921 0.950 . S
C1933 C1929 1.393 . S
C1933 C1932 1.391 . S
C1934 H1924 0.950 . S
C1934 C1935 1.386 . S
C1934 C1936 1.391 . S
C1935 C1934 1.386 . S
C1935 C1939 1.393 . S
C1936 H1925 0.950 . S
C1936 C1934 1.391 . S
C1936 C1937 1.400 . S
C1937 C1931 1.491 . S
C1937 C1936 1.400 . S
C1937 C1938 1.398 . S
C1938 H1926 0.950 . S
C1938 C1937 1.398 . S
C1938 C1939 1.391 . S
C1939 H1927 0.950 . S
C1939 C1935 1.393 . S
C1939 C1938 1.391 . S
H1940 C1948 0.950 . S
H1941 C1953 0.950 . S
H1942 C1950 0.950 . S
H1943 C1952 0.950 . S
H1944 C1954 0.950 1_655 S
H1945 C1956 0.950 . S
H1946 C1958 0.950 . S
H1947 C1959 0.950 . S
C1948 H1940 0.950 . S
C1948 C1949 1.386 . S
C1948 C1950 1.391 . S
C1949 C1948 1.386 . S
C1949 C1953 1.393 . S
C1950 H1942 0.950 . S
C1950 C1948 1.391 . S
C1950 C1951 1.400 . S
C1951 C1950 1.400 . S
C1951 C1952 1.398 . S
C1951 C1957 1.491 . S
C1952 H1943 0.950 . S
C1952 C1951 1.398 . S
C1952 C1953 1.391 . S
C1953 H1941 0.950 . S
C1953 C1949 1.393 . S
C1953 C1952 1.391 . S
C1954 H1944 0.950 1_455 S
C1954 C1955 1.374 1_455 S
C1954 C1956 1.391 . S
C1955 C1954 1.374 1_655 S
C1955 C1959 1.373 1_655 S
C1956 H1945 0.950 . S
C1956 C1954 1.391 . S
C1956 C1957 1.400 . S
C1957 C1951 1.491 . S
C1957 C1956 1.400 . S
C1957 C1958 1.398 . S
C1958 H1946 0.950 . S
C1958 C1957 1.398 . S
C1958 C1959 1.391 . S
C1959 H1947 0.950 . S
C1959 C1955 1.373 1_455 S
C1959 C1958 1.391 . S
H1960 C1968 0.950 . S
H1961 C1973 0.950 . S
H1962 C1970 0.950 . S
H1963 C1972 0.950 . S
H1964 C1974 0.950 . S
H1965 C1976 0.950 . S
H1966 C1978 0.950 . S
H1967 C1979 0.950 . S
C1968 H1960 0.950 . S
C1968 C1969 1.386 . S
C1968 C1970 1.391 . S
C1969 C1968 1.386 . S
C1969 C1973 1.393 . S
C1970 H1962 0.950 . S
C1970 C1968 1.391 . S
C1970 C1971 1.400 . S
C1971 C1970 1.400 . S
C1971 C1972 1.398 . S
C1971 C1977 1.491 . S
C1972 H1963 0.950 . S
C1972 C1971 1.398 . S
C1972 C1973 1.391 . S
C1973 H1961 0.950 . S
C1973 C1969 1.393 . S
C1973 C1972 1.391 . S
C1974 H1964 0.950 . S
C1974 C1975 1.386 . S
C1974 C1976 1.391 . S
C1975 C1974 1.386 . S
C1975 C1979 1.393 . S
C1976 H1965 0.950 . S
C1976 C1974 1.391 . S
C1976 C1977 1.400 . S
C1977 C1971 1.491 . S
C1977 C1976 1.400 . S
C1977 C1978 1.398 . S
C1978 H1966 0.950 . S
C1978 C1977 1.398 . S
C1978 C1979 1.391 . S
C1979 H1967 0.950 . S
C1979 C1975 1.393 . S
C1979 C1978 1.391 . S
H1980 C1988 0.950 . S
H1981 C1993 0.950 . S
H1982 C1990 0.950 . S
H1983 C1992 0.950 . S
H1984 C1994 0.950 . S
H1985 C1996 0.950 . S
H1986 C1998 0.950 . S
H1987 C1999 0.950 . S
C1988 H1980 0.950 . S
C1988 C1989 1.386 . S
C1988 C1990 1.391 . S
C1989 C1988 1.386 . S
C1989 C1993 1.393 . S
C1990 H1982 0.950 . S
C1990 C1988 1.391 . S
C1990 C1991 1.400 . S
C1991 C1990 1.400 . S
C1991 C1992 1.398 . S
C1991 C1997 1.491 . S
C1992 H1983 0.950 . S
C1992 C1991 1.398 . S
C1992 C1993 1.391 . S
C1993 H1981 0.950 . S
C1993 C1989 1.393 . S
C1993 C1992 1.391 . S
C1994 H1984 0.950 . S
C1994 C1995 1.386 . S
C1994 C1996 1.391 . S
C1995 C1994 1.386 . S
C1995 C1999 1.393 . S
C1996 H1985 0.950 . S
C1996 C1994 1.391 . S
C1996 C1997 1.400 . S
C1997 C1991 1.491 . S
C1997 C1996 1.400 . S
C1997 C1998 1.398 . S
C1998 H1986 0.950 . S
C1998 C1997 1.398 . S
C1998 C1999 1.391 . S
C1999 H1987 0.950 . S
C1999 C1995 1.393 . S
C1999 C1998 1.391 . S
H2000 C2008 0.950 . S
H2001 C2013 0.950 . S
H2002 C2010 0.950 . S
H2003 C2012 0.950 . S
H2004 C2014 0.950 . S
H2005 C2016 0.950 . S
H2006 C2018 0.950 . S
H2007 C2019 0.950 . S
C2008 H2000 0.950 . S
C2008 C2009 1.386 . S
C2008 C2010 1.391 . S
C2009 C2008 1.386 . S
C2009 C2013 1.393 . S
C2010 H2002 0.950 . S
C2010 C2008 1.391 . S
C2010 C2011 1.400 . S
C2011 C2010 1.400 . S
C2011 C2012 1.398 . S
C2011 C2017 1.491 . S
C2012 H2003 0.950 . S
C2012 C2011 1.398 . S
C2012 C2013 1.391 . S
C2013 H2001 0.950 . S
C2013 C2009 1.393 . S
C2013 C2012 1.391 . S
C2014 H2004 0.950 . S
C2014 C2015 1.386 . S
C2014 C2016 1.391 . S
C2015 C2014 1.386 . S
C2015 C2019 1.393 . S
C2016 H2005 0.950 . S
C2016 C2014 1.391 . S
C2016 C2017 1.400 . S
C2017 C2011 1.491 . S
C2017 C2016 1.400 . S
C2017 C2018 1.398 . S
C2018 H2006 0.950 . S
C2018 C2017 1.398 . S
C2018 C2019 1.391 . S
C2019 H2007 0.950 . S
C2019 C2015 1.393 . S
C2019 C2018 1.391 . S
H2020 C2028 0.950 . S
H2021 C2033 0.950 . S
H2022 C2030 0.950 . S
H2023 C2032 0.950 . S
H2024 C2034 0.950 . S
H2025 C2036 0.950 . S
H2026 C2038 0.950 . S
H2027 C2039 0.950 . S
C2028 H2020 0.950 . S
C2028 C2029 1.386 . S
C2028 C2030 1.391 . S
C2029 C2028 1.386 . S
C2029 C2033 1.393 . S
C2030 H2022 0.950 . S
C2030 C2028 1.391 . S
C2030 C2031 1.400 . S
C2031 C2030 1.400 . S
C2031 C2032 1.398 . S
C2031 C2037 1.491 . S
C2032 H2023 0.950 . S
C2032 C2031 1.398 . S
C2032 C2033 1.391 . S
C2033 H2021 0.950 . S
C2033 C2029 1.393 . S
C2033 C2032 1.391 . S
C2034 H2024 0.950 . S
C2034 C2035 1.386 . S
C2034 C2036 1.391 . S
C2035 C2034 1.386 . S
C2035 C2039 1.393 . S
C2036 H2025 0.950 . S
C2036 C2034 1.391 . S
C2036 C2037 1.400 . S
C2037 C2031 1.491 . S
C2037 C2036 1.400 . S
C2037 C2038 1.398 . S
C2038 H2026 0.950 . S
C2038 C2037 1.398 . S
C2038 C2039 1.391 . S
C2039 H2027 0.950 . S
C2039 C2035 1.393 . S
C2039 C2038 1.391 . S
H2040 C2048 0.950 . S
H2041 C2053 0.950 . S
H2042 C2050 0.950 . S
H2043 C2052 0.950 . S
H2044 C2054 0.950 . S
H2045 C2056 0.950 . S
H2046 C2058 0.950 . S
H2047 C2059 0.950 . S
C2048 H2040 0.950 . S
C2048 C2049 1.386 . S
C2048 C2050 1.391 . S
C2049 C2048 1.386 . S
C2049 C2053 1.393 . S
C2050 H2042 0.950 . S
C2050 C2048 1.391 . S
C2050 C2051 1.400 . S
C2051 C2050 1.400 . S
C2051 C2052 1.398 . S
C2051 C2057 1.491 . S
C2052 H2043 0.950 . S
C2052 C2051 1.398 . S
C2052 C2053 1.391 . S
C2053 H2041 0.950 . S
C2053 C2049 1.393 . S
C2053 C2052 1.391 . S
C2054 H2044 0.950 . S
C2054 C2055 1.386 . S
C2054 C2056 1.391 . S
C2055 C2054 1.386 . S
C2055 C2059 1.393 . S
C2056 H2045 0.950 . S
C2056 C2054 1.391 . S
C2056 C2057 1.400 . S
C2057 C2051 1.491 . S
C2057 C2056 1.400 . S
C2057 C2058 1.398 . S
C2058 H2046 0.950 . S
C2058 C2057 1.398 . S
C2058 C2059 1.391 . S
C2059 H2047 0.950 . S
C2059 C2055 1.393 . S
C2059 C2058 1.391 . S
H2060 C2068 0.950 . S
H2061 C2073 0.950 . S
H2062 C2070 0.950 . S
H2063 C2072 0.950 . S
H2064 C2074 0.950 1_655 S
H2065 C2076 0.950 . S
H2066 C2078 0.950 . S
H2067 C2079 0.950 . S
C2068 H2060 0.950 . S
C2068 C2069 1.386 . S
C2068 C2070 1.391 . S
C2069 C2068 1.386 . S
C2069 C2073 1.393 . S
C2070 H2062 0.950 . S
C2070 C2068 1.391 . S
C2070 C2071 1.400 . S
C2071 C2070 1.400 . S
C2071 C2072 1.398 . S
C2071 C2077 1.491 . S
C2072 H2063 0.950 . S
C2072 C2071 1.398 . S
C2072 C2073 1.391 . S
C2073 H2061 0.950 . S
C2073 C2069 1.393 . S
C2073 C2072 1.391 . S
C2074 H2064 0.950 1_455 S
C2074 C2075 1.386 1_455 S
C2074 C2076 1.391 . S
C2075 C2074 1.386 1_655 S
C2075 C2079 1.393 1_655 S
C2076 H2065 0.950 . S
C2076 C2074 1.391 . S
C2076 C2077 1.400 . S
C2077 C2071 1.491 . S
C2077 C2076 1.400 . S
C2077 C2078 1.398 . S
C2078 H2066 0.950 . S
C2078 C2077 1.398 . S
C2078 C2079 1.391 . S
C2079 H2067 0.950 . S
C2079 C2075 1.393 1_455 S
C2079 C2078 1.391 . S
H2080 C2088 0.950 . S
H2081 C2093 0.950 . S
H2082 C2090 0.950 . S
H2083 C2092 0.950 . S
H2084 C2094 0.950 . S
H2085 C2096 0.950 . S
H2086 C2098 0.950 . S
H2087 C2099 0.950 . S
C2088 H2080 0.950 . S
C2088 C2089 1.386 . S
C2088 C2090 1.391 . S
C2089 C2088 1.386 . S
C2089 C2093 1.393 . S
C2090 H2082 0.950 . S
C2090 C2088 1.391 . S
C2090 C2091 1.400 . S
C2091 C2090 1.400 . S
C2091 C2092 1.398 . S
C2091 C2097 1.491 . S
C2092 H2083 0.950 . S
C2092 C2091 1.398 . S
C2092 C2093 1.391 . S
C2093 H2081 0.950 . S
C2093 C2089 1.393 . S
C2093 C2092 1.391 . S
C2094 H2084 0.950 . S
C2094 C2095 1.386 . S
C2094 C2096 1.391 . S
C2095 C2094 1.386 . S
C2095 C2099 1.393 . S
C2096 H2085 0.950 . S
C2096 C2094 1.391 . S
C2096 C2097 1.400 . S
C2097 C2091 1.491 . S
C2097 C2096 1.400 . S
C2097 C2098 1.398 . S
C2098 H2086 0.950 . S
C2098 C2097 1.398 . S
C2098 C2099 1.391 . S
C2099 H2087 0.950 . S
C2099 C2095 1.393 . S
C2099 C2098 1.391 . S
H2100 C2108 0.950 1_455 S
H2101 C2113 0.950 . S
H2102 C2110 0.950 . S
H2103 C2112 0.950 . S
H2104 C2114 0.950 . S
H2105 C2116 0.950 . S
H2106 C2118 0.950 . S
H2107 C2119 0.950 . S
C2108 H2100 0.950 1_655 S
C2108 C2109 1.376 1_655 S
C2108 C2110 1.391 . S
C2109 C2108 1.376 1_455 S
C2109 C2113 1.370 1_455 S
C2110 H2102 0.950 . S
C2110 C2108 1.391 . S
C2110 C2111 1.400 . S
C2111 C2110 1.400 . S
C2111 C2112 1.398 . S
C2111 C2117 1.491 . S
C2112 H2103 0.950 . S
C2112 C2111 1.398 . S
C2112 C2113 1.391 . S
C2113 H2101 0.950 . S
C2113 C2109 1.370 1_655 S
C2113 C2112 1.391 . S
C2114 H2104 0.950 . S
C2114 C2115 1.386 . S
C2114 C2116 1.391 . S
C2115 C2114 1.386 . S
C2115 C2119 1.393 . S
C2116 H2105 0.950 . S
C2116 C2114 1.391 . S
C2116 C2117 1.400 . S
C2117 C2111 1.491 . S
C2117 C2116 1.400 . S
C2117 C2118 1.398 . S
C2118 H2106 0.950 . S
C2118 C2117 1.398 . S
C2118 C2119 1.391 . S
C2119 H2107 0.950 . S
C2119 C2115 1.393 . S
C2119 C2118 1.391 . S
H2120 C2128 0.950 . S
H2121 C2133 0.950 . S
H2122 C2130 0.950 . S
H2123 C2132 0.950 . S
H2124 C2134 0.950 . S
H2125 C2136 0.950 . S
H2126 C2138 0.950 . S
H2127 C2139 0.950 . S
C2128 H2120 0.950 . S
C2128 C2129 1.386 . S
C2128 C2130 1.391 . S
C2129 C2128 1.386 . S
C2129 C2133 1.393 . S
C2130 H2122 0.950 . S
C2130 C2128 1.391 . S
C2130 C2131 1.400 . S
C2131 C2130 1.400 . S
C2131 C2132 1.398 . S
C2131 C2137 1.491 . S
C2132 H2123 0.950 . S
C2132 C2131 1.398 . S
C2132 C2133 1.391 . S
C2133 H2121 0.950 . S
C2133 C2129 1.393 . S
C2133 C2132 1.391 . S
C2134 H2124 0.950 . S
C2134 C2135 1.386 . S
C2134 C2136 1.391 . S
C2135 C2134 1.386 . S
C2135 C2139 1.393 . S
C2136 H2125 0.950 . S
C2136 C2134 1.391 . S
C2136 C2137 1.400 . S
C2137 C2131 1.491 . S
C2137 C2136 1.400 . S
C2137 C2138 1.398 . S
C2138 H2126 0.950 . S
C2138 C2137 1.398 . S
C2138 C2139 1.391 . S
C2139 H2127 0.950 . S
C2139 C2135 1.393 . S
C2139 C2138 1.391 . S
H2140 C2148 0.950 . S
H2141 C2153 0.950 . S
H2142 C2150 0.950 . S
H2143 C2152 0.950 . S
H2144 C2154 0.950 . S
H2145 C2156 0.950 . S
H2146 C2158 0.950 . S
H2147 C2159 0.950 . S
C2148 H2140 0.950 . S
C2148 C2149 1.386 . S
C2148 C2150 1.391 . S
C2149 C2148 1.386 . S
C2149 C2153 1.393 . S
C2150 H2142 0.950 . S
C2150 C2148 1.391 . S
C2150 C2151 1.400 . S
C2151 C2150 1.400 . S
C2151 C2152 1.398 . S
C2151 C2157 1.491 . S
C2152 H2143 0.950 . S
C2152 C2151 1.398 . S
C2152 C2153 1.391 . S
C2153 H2141 0.950 . S
C2153 C2149 1.393 . S
C2153 C2152 1.391 . S
C2154 H2144 0.950 . S
C2154 C2155 1.386 . S
C2154 C2156 1.391 . S
C2155 C2154 1.386 . S
C2155 C2159 1.393 . S
C2156 H2145 0.950 . S
C2156 C2154 1.391 . S
C2156 C2157 1.400 . S
C2157 C2151 1.491 . S
C2157 C2156 1.400 . S
C2157 C2158 1.398 . S
C2158 H2146 0.950 . S
C2158 C2157 1.398 . S
C2158 C2159 1.391 . S
C2159 H2147 0.950 . S
C2159 C2155 1.393 . S
C2159 C2158 1.391 . S
H2160 C2168 0.950 . S
H2161 C2173 0.950 . S
H2162 C2170 0.950 . S
H2163 C2172 0.950 . S
H2164 C2174 0.950 . S
H2165 C2176 0.950 . S
H2166 C2178 0.950 . S
H2167 C2179 0.950 . S
C2168 H2160 0.950 . S
C2168 C2169 1.386 . S
C2168 C2170 1.391 . S
C2169 C2168 1.386 . S
C2169 C2173 1.393 . S
C2170 H2162 0.950 . S
C2170 C2168 1.391 . S
C2170 C2171 1.400 . S
C2171 C2170 1.400 . S
C2171 C2172 1.398 . S
C2171 C2177 1.491 . S
C2172 H2163 0.950 . S
C2172 C2171 1.398 . S
C2172 C2173 1.391 . S
C2173 H2161 0.950 . S
C2173 C2169 1.393 . S
C2173 C2172 1.391 . S
C2174 H2164 0.950 . S
C2174 C2175 1.386 . S
C2174 C2176 1.391 . S
C2175 C2174 1.386 . S
C2175 C2179 1.393 . S
C2176 H2165 0.950 . S
C2176 C2174 1.391 . S
C2176 C2177 1.400 . S
C2177 C2171 1.491 . S
C2177 C2176 1.400 . S
C2177 C2178 1.398 . S
C2178 H2166 0.950 . S
C2178 C2177 1.398 . S
C2178 C2179 1.391 . S
C2179 H2167 0.950 . S
C2179 C2175 1.393 . S
C2179 C2178 1.391 . S
H2180 C2188 0.950 . S
H2181 C2193 0.950 . S
H2182 C2190 0.950 . S
H2183 C2192 0.950 . S
H2184 C2194 0.950 . S
H2185 C2196 0.950 . S
H2186 C2198 0.950 . S
H2187 C2199 0.950 . S
C2188 H2180 0.950 . S
C2188 C2189 1.386 . S
C2188 C2190 1.391 . S
C2189 C2188 1.386 . S
C2189 C2193 1.393 . S
C2190 H2182 0.950 . S
C2190 C2188 1.391 . S
C2190 C2191 1.400 . S
C2191 C2190 1.400 . S
C2191 C2192 1.398 . S
C2191 C2197 1.491 . S
C2192 H2183 0.950 . S
C2192 C2191 1.398 . S
C2192 C2193 1.391 . S
C2193 H2181 0.950 . S
C2193 C2189 1.393 . S
C2193 C2192 1.391 . S
C2194 H2184 0.950 . S
C2194 C2195 1.386 . S
C2194 C2196 1.391 . S
C2195 C2194 1.386 . S
C2195 C2199 1.393 . S
C2196 H2185 0.950 . S
C2196 C2194 1.391 . S
C2196 C2197 1.400 . S
C2197 C2191 1.491 . S
C2197 C2196 1.400 . S
C2197 C2198 1.398 . S
C2198 H2186 0.950 . S
C2198 C2197 1.398 . S
C2198 C2199 1.391 . S
C2199 H2187 0.950 . S
C2199 C2195 1.393 . S
C2199 C2198 1.391 . S
H2200 C2208 0.950 . S
H2201 C2213 0.950 . S
H2202 C2210 0.950 . S
H2203 C2212 0.950 . S
H2204 C2214 0.950 . S
H2205 C2216 0.950 . S
H2206 C2218 0.950 . S
H2207 C2219 0.950 . S
C2208 H2200 0.950 . S
C2208 C2209 1.386 . S
C2208 C2210 1.391 . S
C2209 C2208 1.386 . S
C2209 C2213 1.393 . S
C2210 H2202 0.950 . S
C2210 C2208 1.391 . S
C2210 C2211 1.400 . S
C2211 C2210 1.400 . S
C2211 C2212 1.398 . S
C2211 C2217 1.491 . S
C2212 H2203 0.950 . S
C2212 C2211 1.398 . S
C2212 C2213 1.391 . S
C2213 H2201 0.950 . S
C2213 C2209 1.393 . S
C2213 C2212 1.391 . S
C2214 H2204 0.950 . S
C2214 C2215 1.386 . S
C2214 C2216 1.391 . S
C2215 C2214 1.386 . S
C2215 C2219 1.393 . S
C2216 H2205 0.950 . S
C2216 C2214 1.391 . S
C2216 C2217 1.400 . S
C2217 C2211 1.491 . S
C2217 C2216 1.400 . S
C2217 C2218 1.398 . S
C2218 H2206 0.950 . S
C2218 C2217 1.398 . S
C2218 C2219 1.391 . S
C2219 H2207 0.950 . S
C2219 C2215 1.393 . S
C2219 C2218 1.391 . S
H2220 C2228 0.950 . S
H2221 C2233 0.950 . S
H2222 C2230 0.950 . S
H2223 C2232 0.950 . S
H2224 C2234 0.950 . S
H2225 C2236 0.950 . S
H2226 C2238 0.950 . S
H2227 C2239 0.950 1_455 S
C2228 H2220 0.950 . S
C2228 C2229 1.386 . S
C2228 C2230 1.391 . S
C2229 C2228 1.386 . S
C2229 C2233 1.393 . S
C2230 H2222 0.950 . S
C2230 C2228 1.391 . S
C2230 C2231 1.400 . S
C2231 C2230 1.400 . S
C2231 C2232 1.398 . S
C2231 C2237 1.491 . S
C2232 H2223 0.950 . S
C2232 C2231 1.398 . S
C2232 C2233 1.391 . S
C2233 H2221 0.950 . S
C2233 C2229 1.393 . S
C2233 C2232 1.391 . S
C2234 H2224 0.950 . S
C2234 C2235 1.363 1_655 S
C2234 C2236 1.391 . S
C2235 C2234 1.363 1_455 S
C2235 C2239 1.381 1_455 S
C2236 H2225 0.950 . S
C2236 C2234 1.391 . S
C2236 C2237 1.400 . S
C2237 C2231 1.491 . S
C2237 C2236 1.400 . S
C2237 C2238 1.398 . S
C2238 H2226 0.950 . S
C2238 C2237 1.398 . S
C2238 C2239 1.391 . S
C2239 H2227 0.950 1_655 S
C2239 C2235 1.381 1_655 S
C2239 C2238 1.391 . S
H2240 C2248 0.950 . S
H2241 C2253 0.950 . S
H2242 C2250 0.950 . S
H2243 C2252 0.950 . S
H2244 C2254 0.950 . S
H2245 C2256 0.950 . S
H2246 C2258 0.950 . S
H2247 C2259 0.950 . S
C2248 H2240 0.950 . S
C2248 C2249 1.386 . S
C2248 C2250 1.391 . S
C2249 C2248 1.386 . S
C2249 C2253 1.393 . S
C2250 H2242 0.950 . S
C2250 C2248 1.391 . S
C2250 C2251 1.400 . S
C2251 C2250 1.400 . S
C2251 C2252 1.398 . S
C2251 C2257 1.491 . S
C2252 H2243 0.950 . S
C2252 C2251 1.398 . S
C2252 C2253 1.391 . S
C2253 H2241 0.950 . S
C2253 C2249 1.393 . S
C2253 C2252 1.391 . S
C2254 H2244 0.950 . S
C2254 C2255 1.386 . S
C2254 C2256 1.391 . S
C2255 C2254 1.386 . S
C2255 C2259 1.393 . S
C2256 H2245 0.950 . S
C2256 C2254 1.391 . S
C2256 C2257 1.400 . S
C2257 C2251 1.491 . S
C2257 C2256 1.400 . S
C2257 C2258 1.398 . S
C2258 H2246 0.950 . S
C2258 C2257 1.398 . S
C2258 C2259 1.391 . S
C2259 H2247 0.950 . S
C2259 C2255 1.393 . S
C2259 C2258 1.391 . S
H2260 C2268 0.950 . S
H2261 C2273 0.950 . S
H2262 C2270 0.950 . S
H2263 C2272 0.950 . S
H2264 C2274 0.950 . S
H2265 C2276 0.950 . S
H2266 C2278 0.950 . S
H2267 C2279 0.950 . S
C2268 H2260 0.950 . S
C2268 C2269 1.386 . S
C2268 C2270 1.391 . S
C2269 C2268 1.386 . S
C2269 C2273 1.393 . S
C2270 H2262 0.950 . S
C2270 C2268 1.391 . S
C2270 C2271 1.400 . S
C2271 C2270 1.400 . S
C2271 C2272 1.398 . S
C2271 C2277 1.491 . S
C2272 H2263 0.950 . S
C2272 C2271 1.398 . S
C2272 C2273 1.391 . S
C2273 H2261 0.950 . S
C2273 C2269 1.393 . S
C2273 C2272 1.391 . S
C2274 H2264 0.950 . S
C2274 C2275 1.386 . S
C2274 C2276 1.391 . S
C2275 C2274 1.386 . S
C2275 C2279 1.393 . S
C2276 H2265 0.950 . S
C2276 C2274 1.391 . S
C2276 C2277 1.400 . S
C2277 C2271 1.491 . S
C2277 C2276 1.400 . S
C2277 C2278 1.398 . S
C2278 H2266 0.950 . S
C2278 C2277 1.398 . S
C2278 C2279 1.391 . S
C2279 H2267 0.950 . S
C2279 C2275 1.393 . S
C2279 C2278 1.391 . S
H2280 C2288 0.950 . S
H2281 C2293 0.950 . S
H2282 C2290 0.950 . S
H2283 C2292 0.950 . S
H2284 C2294 0.950 . S
H2285 C2296 0.950 . S
H2286 C2298 0.950 . S
H2287 C2299 0.950 . S
C2288 H2280 0.950 . S
C2288 C2289 1.386 . S
C2288 C2290 1.391 . S
C2289 C2288 1.386 . S
C2289 C2293 1.393 . S
C2290 H2282 0.950 . S
C2290 C2288 1.391 . S
C2290 C2291 1.400 . S
C2291 C2290 1.400 . S
C2291 C2292 1.398 . S
C2291 C2297 1.491 . S
C2292 H2283 0.950 . S
C2292 C2291 1.398 . S
C2292 C2293 1.391 . S
C2293 H2281 0.950 . S
C2293 C2289 1.393 . S
C2293 C2292 1.391 . S
C2294 H2284 0.950 . S
C2294 C2295 1.386 . S
C2294 C2296 1.391 . S
C2295 C2294 1.386 . S
C2295 C2299 1.393 . S
C2296 H2285 0.950 . S
C2296 C2294 1.391 . S
C2296 C2297 1.400 . S
C2297 C2291 1.491 . S
C2297 C2296 1.400 . S
C2297 C2298 1.398 . S
C2298 H2286 0.950 . S
C2298 C2297 1.398 . S
C2298 C2299 1.391 . S
C2299 H2287 0.950 . S
C2299 C2295 1.393 . S
C2299 C2298 1.391 . S
H2300 C2308 0.950 . S
H2301 C2313 0.950 . S
H2302 C2310 0.950 . S
H2303 C2312 0.950 . S
H2304 C2314 0.925 1_455 S
H2305 C2316 0.950 . S
H2306 C2318 0.950 . S
H2307 C2319 0.950 . S
C2308 H2300 0.950 . S
C2308 C2309 1.386 . S
C2308 C2310 1.391 . S
C2309 C2308 1.386 . S
C2309 C2313 1.393 . S
C2310 H2302 0.950 . S
C2310 C2308 1.391 . S
C2310 C2311 1.400 . S
C2311 C2310 1.400 . S
C2311 C2312 1.398 . S
C2311 C2317 1.491 . S
C2312 H2303 0.950 . S
C2312 C2311 1.398 . S
C2312 C2313 1.391 . S
C2313 H2301 0.950 . S
C2313 C2309 1.393 . S
C2313 C2312 1.391 . S
C2314 H2304 0.925 1_655 S
C2314 C2315 1.383 1_655 S
C2314 C2316 1.418 . S
C2315 C2314 1.383 1_455 S
C2315 C2319 1.358 1_455 S
C2316 H2305 0.950 . S
C2316 C2314 1.418 . S
C2316 C2317 1.400 . S
C2317 C2311 1.491 . S
C2317 C2316 1.400 . S
C2317 C2318 1.398 . S
C2318 H2306 0.950 . S
C2318 C2317 1.398 . S
C2318 C2319 1.391 . S
C2319 H2307 0.950 . S
C2319 C2315 1.358 1_655 S
C2319 C2318 1.391 . S
H2320 C2328 0.950 . S
H2321 C2333 0.950 . S
H2322 C2330 0.950 . S
H2323 C2332 0.950 . S
H2324 C2334 0.950 . S
H2325 C2336 0.950 . S
H2326 C2338 0.950 . S
H2327 C2339 0.950 . S
C2328 H2320 0.950 . S
C2328 C2329 1.386 . S
C2328 C2330 1.391 . S
C2329 C2328 1.386 . S
C2329 C2333 1.393 . S
C2330 H2322 0.950 . S
C2330 C2328 1.391 . S
C2330 C2331 1.400 . S
C2331 C2330 1.400 . S
C2331 C2332 1.398 . S
C2331 C2337 1.491 . S
C2332 H2323 0.950 . S
C2332 C2331 1.398 . S
C2332 C2333 1.391 . S
C2333 H2321 0.950 . S
C2333 C2329 1.393 . S
C2333 C2332 1.391 . S
C2334 H2324 0.950 . S
C2334 C2335 1.386 . S
C2334 C2336 1.391 . S
C2335 C2334 1.386 . S
C2335 C2339 1.393 . S
C2336 H2325 0.950 . S
C2336 C2334 1.391 . S
C2336 C2337 1.400 . S
C2337 C2331 1.491 . S
C2337 C2336 1.400 . S
C2337 C2338 1.398 . S
C2338 H2326 0.950 . S
C2338 C2337 1.398 . S
C2338 C2339 1.391 . S
C2339 H2327 0.950 . S
C2339 C2335 1.393 . S
C2339 C2338 1.391 . S
H2340 C2348 0.950 . S
H2341 C2353 0.950 . S
H2342 C2350 0.950 . S
H2343 C2352 0.950 . S
H2344 C2354 0.950 . S
H2345 C2356 0.950 . S
H2346 C2358 0.950 . S
H2347 C2359 0.950 . S
C2348 H2340 0.950 . S
C2348 C2349 1.386 . S
C2348 C2350 1.391 . S
C2349 C2348 1.386 . S
C2349 C2353 1.393 . S
C2350 H2342 0.950 . S
C2350 C2348 1.391 . S
C2350 C2351 1.400 . S
C2351 C2350 1.400 . S
C2351 C2352 1.398 . S
C2351 C2357 1.491 . S
C2352 H2343 0.950 . S
C2352 C2351 1.398 . S
C2352 C2353 1.391 . S
C2353 H2341 0.950 . S
C2353 C2349 1.393 . S
C2353 C2352 1.391 . S
C2354 H2344 0.950 . S
C2354 C2355 1.386 1_655 S
C2354 C2356 1.391 . S
C2355 C2354 1.386 1_455 S
C2355 C2359 1.393 . S
C2356 H2345 0.950 . S
C2356 C2354 1.391 . S
C2356 C2357 1.400 . S
C2357 C2351 1.491 . S
C2357 C2356 1.400 . S
C2357 C2358 1.398 . S
C2358 H2346 0.950 . S
C2358 C2357 1.398 . S
C2358 C2359 1.391 1_655 S
C2359 H2347 0.950 . S
C2359 C2355 1.393 . S
C2359 C2358 1.391 1_455 S
H2360 C2368 0.950 . S
H2361 C2373 0.950 . S
H2362 C2370 0.950 . S
H2363 C2372 0.950 . S
H2364 C2374 0.950 . S
H2365 C2376 0.950 . S
H2366 C2378 0.950 . S
H2367 C2379 0.950 . S
C2368 H2360 0.950 . S
C2368 C2369 1.386 . S
C2368 C2370 1.391 . S
C2369 C2368 1.386 . S
C2369 C2373 1.393 . S
C2370 H2362 0.950 . S
C2370 C2368 1.391 . S
C2370 C2371 1.400 . S
C2371 C2370 1.400 . S
C2371 C2372 1.398 . S
C2371 C2377 1.491 . S
C2372 H2363 0.950 . S
C2372 C2371 1.398 . S
C2372 C2373 1.391 . S
C2373 H2361 0.950 . S
C2373 C2369 1.393 . S
C2373 C2372 1.391 . S
C2374 H2364 0.950 . S
C2374 C2375 1.386 . S
C2374 C2376 1.391 . S
C2375 C2374 1.386 . S
C2375 C2379 1.393 . S
C2376 H2365 0.950 . S
C2376 C2374 1.391 . S
C2376 C2377 1.400 . S
C2377 C2371 1.491 . S
C2377 C2376 1.400 . S
C2377 C2378 1.398 . S
C2378 H2366 0.950 . S
C2378 C2377 1.398 . S
C2378 C2379 1.391 . S
C2379 H2367 0.950 . S
C2379 C2375 1.393 . S
C2379 C2378 1.391 . S
H2380 C2388 0.950 . S
H2381 C2393 0.950 . S
H2382 C2390 0.950 . S
H2383 C2392 0.950 . S
H2384 C2394 0.950 . S
H2385 C2396 0.950 . S
H2386 C2398 0.950 . S
H2387 C2399 0.950 . S
C2388 H2380 0.950 . S
C2388 C2389 1.386 . S
C2388 C2390 1.391 . S
C2389 C2388 1.386 . S
C2389 C2393 1.393 . S
C2390 H2382 0.950 . S
C2390 C2388 1.391 . S
C2390 C2391 1.400 . S
C2391 C2390 1.400 . S
C2391 C2392 1.398 . S
C2391 C2397 1.491 . S
C2392 H2383 0.950 . S
C2392 C2391 1.398 . S
C2392 C2393 1.391 . S
C2393 H2381 0.950 . S
C2393 C2389 1.393 . S
C2393 C2392 1.391 . S
C2394 H2384 0.950 . S
C2394 C2395 1.386 . S
C2394 C2396 1.391 . S
C2395 C2394 1.386 . S
C2395 C2399 1.393 . S
C2396 H2385 0.950 . S
C2396 C2394 1.391 . S
C2396 C2397 1.400 . S
C2397 C2391 1.491 . S
C2397 C2396 1.400 . S
C2397 C2398 1.398 . S
C2398 H2386 0.950 . S
C2398 C2397 1.398 . S
C2398 C2399 1.391 . S
C2399 H2387 0.950 . S
C2399 C2395 1.393 . S
C2399 C2398 1.391 . S
H2400 C2408 0.950 . S
H2401 C2413 0.950 . S
H2402 C2410 0.950 . S
H2403 C2412 0.950 . S
H2404 C2414 0.950 . S
H2405 C2416 0.950 . S
H2406 C2418 0.950 . S
H2407 C2419 0.950 . S
C2408 H2400 0.950 . S
C2408 C2409 1.386 . S
C2408 C2410 1.391 . S
C2409 C2408 1.386 . S
C2409 C2413 1.393 . S
C2410 H2402 0.950 . S
C2410 C2408 1.391 . S
C2410 C2411 1.400 . S
C2411 C2410 1.400 . S
C2411 C2412 1.398 . S
C2411 C2417 1.491 . S
C2412 H2403 0.950 . S
C2412 C2411 1.398 . S
C2412 C2413 1.391 . S
C2413 H2401 0.950 . S
C2413 C2409 1.393 . S
C2413 C2412 1.391 . S
C2414 H2404 0.950 . S
C2414 C2415 1.386 . S
C2414 C2416 1.391 . S
C2415 C2414 1.386 . S
C2415 C2419 1.393 . S
C2416 H2405 0.950 . S
C2416 C2414 1.391 . S
C2416 C2417 1.400 . S
C2417 C2411 1.491 . S
C2417 C2416 1.400 . S
C2417 C2418 1.398 . S
C2418 H2406 0.950 . S
C2418 C2417 1.398 . S
C2418 C2419 1.391 . S
C2419 H2407 0.950 . S
C2419 C2415 1.393 . S
C2419 C2418 1.391 . S
H2420 C2428 0.950 . S
H2421 C2433 0.950 . S
H2422 C2430 0.950 . S
H2423 C2432 0.950 . S
H2424 C2434 0.950 . S
H2425 C2436 0.950 . S
H2426 C2438 0.950 . S
H2427 C2439 0.950 . S
C2428 H2420 0.950 . S
C2428 C2429 1.386 . S
C2428 C2430 1.391 . S
C2429 C2428 1.386 . S
C2429 C2433 1.393 . S
C2430 H2422 0.950 . S
C2430 C2428 1.391 . S
C2430 C2431 1.400 . S
C2431 C2430 1.400 . S
C2431 C2432 1.398 . S
C2431 C2437 1.491 . S
C2432 H2423 0.950 . S
C2432 C2431 1.398 . S
C2432 C2433 1.391 . S
C2433 H2421 0.950 . S
C2433 C2429 1.393 . S
C2433 C2432 1.391 . S
C2434 H2424 0.950 . S
C2434 C2435 1.386 . S
C2434 C2436 1.391 . S
C2435 C2434 1.386 . S
C2435 C2439 1.393 . S
C2436 H2425 0.950 . S
C2436 C2434 1.391 . S
C2436 C2437 1.400 . S
C2437 C2431 1.491 . S
C2437 C2436 1.400 . S
C2437 C2438 1.398 . S
C2438 H2426 0.950 . S
C2438 C2437 1.398 . S
C2438 C2439 1.391 . S
C2439 H2427 0.950 . S
C2439 C2435 1.393 . S
C2439 C2438 1.391 . S
H2440 C2448 0.950 . S
H2441 C2453 0.950 . S
H2442 C2450 0.950 . S
H2443 C2452 0.950 . S
H2444 C2454 0.950 . S
H2445 C2456 0.950 . S
H2446 C2458 0.950 . S
H2447 C2459 0.950 . S
C2448 H2440 0.950 . S
C2448 C2449 1.386 . S
C2448 C2450 1.391 . S
C2449 C2448 1.386 . S
C2449 C2453 1.393 . S
C2450 H2442 0.950 . S
C2450 C2448 1.391 . S
C2450 C2451 1.400 . S
C2451 C2450 1.400 . S
C2451 C2452 1.398 . S
C2451 C2457 1.491 . S
C2452 H2443 0.950 . S
C2452 C2451 1.398 . S
C2452 C2453 1.391 . S
C2453 H2441 0.950 . S
C2453 C2449 1.393 . S
C2453 C2452 1.391 . S
C2454 H2444 0.950 . S
C2454 C2455 1.386 . S
C2454 C2456 1.391 . S
C2455 C2454 1.386 . S
C2455 C2459 1.393 . S
C2456 H2445 0.950 . S
C2456 C2454 1.391 . S
C2456 C2457 1.400 . S
C2457 C2451 1.491 . S
C2457 C2456 1.400 . S
C2457 C2458 1.398 . S
C2458 H2446 0.950 . S
C2458 C2457 1.398 . S
C2458 C2459 1.391 . S
C2459 H2447 0.950 . S
C2459 C2455 1.393 . S
C2459 C2458 1.391 . S
H2460 C2468 0.950 . S
H2461 C2473 0.950 . S
H2462 C2470 0.950 . S
H2463 C2472 0.950 . S
H2464 C2474 0.950 . S
H2465 C2476 0.950 . S
H2466 C2478 0.950 . S
H2467 C2479 0.950 . S
C2468 H2460 0.950 . S
C2468 C2469 1.386 1_455 S
C2468 C2470 1.391 . S
C2469 C2468 1.386 1_655 S
C2469 C2473 1.393 . S
C2470 H2462 0.950 . S
C2470 C2468 1.391 . S
C2470 C2471 1.400 . S
C2471 C2470 1.400 . S
C2471 C2472 1.398 . S
C2471 C2477 1.491 . S
C2472 H2463 0.950 . S
C2472 C2471 1.398 . S
C2472 C2473 1.391 1_455 S
C2473 H2461 0.950 . S
C2473 C2469 1.393 . S
C2473 C2472 1.391 1_655 S
C2474 H2464 0.950 . S
C2474 C2475 1.386 . S
C2474 C2476 1.391 . S
C2475 C2474 1.386 . S
C2475 C2479 1.393 . S
C2476 H2465 0.950 . S
C2476 C2474 1.391 . S
C2476 C2477 1.400 . S
C2477 C2471 1.491 . S
C2477 C2476 1.400 . S
C2477 C2478 1.398 . S
C2478 H2466 0.950 . S
C2478 C2477 1.398 . S
C2478 C2479 1.391 . S
C2479 H2467 0.950 . S
C2479 C2475 1.393 . S
C2479 C2478 1.391 . S
H2480 C2488 0.950 . S
H2481 C2493 0.950 . S
H2482 C2490 0.950 . S
H2483 C2492 0.950 . S
H2484 C2494 0.950 . S
H2485 C2496 0.950 . S
H2486 C2498 0.950 . S
H2487 C2499 0.950 . S
C2488 H2480 0.950 . S
C2488 C2489 1.386 . S
C2488 C2490 1.391 . S
C2489 C2488 1.386 . S
C2489 C2493 1.393 . S
C2490 H2482 0.950 . S
C2490 C2488 1.391 . S
C2490 C2491 1.400 . S
C2491 C2490 1.400 . S
C2491 C2492 1.398 . S
C2491 C2497 1.491 . S
C2492 H2483 0.950 . S
C2492 C2491 1.398 . S
C2492 C2493 1.391 . S
C2493 H2481 0.950 . S
C2493 C2489 1.393 . S
C2493 C2492 1.391 . S
C2494 H2484 0.950 . S
C2494 C2495 1.386 . S
C2494 C2496 1.391 . S
C2495 C2494 1.386 . S
C2495 C2499 1.393 . S
C2496 H2485 0.950 . S
C2496 C2494 1.391 . S
C2496 C2497 1.400 . S
C2497 C2491 1.491 . S
C2497 C2496 1.400 . S
C2497 C2498 1.398 . S
C2498 H2486 0.950 . S
C2498 C2497 1.398 . S
C2498 C2499 1.391 . S
C2499 H2487 0.950 . S
C2499 C2495 1.393 . S
C2499 C2498 1.391 . S
H2500 C2508 0.950 . S
H2501 C2513 0.950 . S
H2502 C2510 0.950 . S
H2503 C2512 0.950 . S
H2504 C2514 0.950 . S
H2505 C2516 0.950 . S
H2506 C2518 0.950 . S
H2507 C2519 0.950 1_655 S
C2508 H2500 0.950 . S
C2508 C2509 1.386 . S
C2508 C2510 1.391 . S
C2509 C2508 1.386 . S
C2509 C2513 1.393 . S
C2510 H2502 0.950 . S
C2510 C2508 1.391 . S
C2510 C2511 1.400 . S
C2511 C2510 1.400 . S
C2511 C2512 1.398 . S
C2511 C2517 1.491 . S
C2512 H2503 0.950 . S
C2512 C2511 1.398 . S
C2512 C2513 1.391 . S
C2513 H2501 0.950 . S
C2513 C2509 1.393 . S
C2513 C2512 1.391 . S
C2514 H2504 0.950 . S
C2514 C2515 1.386 1_455 S
C2514 C2516 1.391 . S
C2515 C2514 1.386 1_655 S
C2515 C2519 1.393 1_655 S
C2516 H2505 0.950 . S
C2516 C2514 1.391 . S
C2516 C2517 1.400 . S
C2517 C2511 1.491 . S
C2517 C2516 1.400 . S
C2517 C2518 1.398 . S
C2518 H2506 0.950 . S
C2518 C2517 1.398 . S
C2518 C2519 1.391 . S
C2519 H2507 0.950 1_455 S
C2519 C2515 1.393 1_455 S
C2519 C2518 1.391 . S
H2520 C2528 0.950 . S
H2521 C2533 0.950 . S
H2522 C2530 0.950 . S
H2523 C2532 0.950 . S
H2524 C2534 0.950 . S
H2525 C2536 0.950 . S
H2526 C2538 0.950 . S
H2527 C2539 0.950 . S
C2528 H2520 0.950 . S
C2528 C2529 1.386 . S
C2528 C2530 1.391 . S
C2529 C2528 1.386 . S
C2529 C2533 1.393 . S
C2530 H2522 0.950 . S
C2530 C2528 1.391 . S
C2530 C2531 1.400 . S
C2531 C2530 1.400 . S
C2531 C2532 1.398 . S
C2531 C2537 1.491 . S
C2532 H2523 0.950 . S
C2532 C2531 1.398 . S
C2532 C2533 1.391 . S
C2533 H2521 0.950 . S
C2533 C2529 1.393 . S
C2533 C2532 1.391 . S
C2534 H2524 0.950 . S
C2534 C2535 1.386 . S
C2534 C2536 1.391 . S
C2535 C2534 1.386 . S
C2535 C2539 1.393 . S
C2536 H2525 0.950 . S
C2536 C2534 1.391 . S
C2536 C2537 1.400 . S
C2537 C2531 1.491 . S
C2537 C2536 1.400 . S
C2537 C2538 1.398 . S
C2538 H2526 0.950 . S
C2538 C2537 1.398 . S
C2538 C2539 1.391 . S
C2539 H2527 0.950 . S
C2539 C2535 1.393 . S
C2539 C2538 1.391 . S
H2540 C2548 0.950 . S
H2541 C2553 0.950 . S
H2542 C2550 0.950 . S
H2543 C2552 0.950 . S
H2544 C2554 0.950 . S
H2545 C2556 0.950 . S
H2546 C2558 0.950 . S
H2547 C2559 0.950 . S
C2548 H2540 0.950 . S
C2548 C2549 1.386 . S
C2548 C2550 1.391 . S
C2549 C2548 1.386 . S
C2549 C2553 1.393 . S
C2550 H2542 0.950 . S
C2550 C2548 1.391 . S
C2550 C2551 1.400 . S
C2551 C2550 1.400 . S
C2551 C2552 1.398 . S
C2551 C2557 1.491 . S
C2552 H2543 0.950 . S
C2552 C2551 1.398 . S
C2552 C2553 1.391 . S
C2553 H2541 0.950 . S
C2553 C2549 1.393 . S
C2553 C2552 1.391 . S
C2554 H2544 0.950 . S
C2554 C2555 1.386 . S
C2554 C2556 1.391 . S
C2555 C2554 1.386 . S
C2555 C2559 1.393 . S
C2556 H2545 0.950 . S
C2556 C2554 1.391 . S
C2556 C2557 1.400 . S
C2557 C2551 1.491 . S
C2557 C2556 1.400 . S
C2557 C2558 1.398 . S
C2558 H2546 0.950 . S
C2558 C2557 1.398 . S
C2558 C2559 1.391 . S
C2559 H2547 0.950 . S
C2559 C2555 1.393 . S
C2559 C2558 1.391 . S
H2560 C2568 0.950 . S
H2561 C2573 0.950 . S
H2562 C2570 0.950 . S
H2563 C2572 0.950 . S
H2564 C2574 0.950 . S
H2565 C2576 0.950 . S
H2566 C2578 0.950 . S
H2567 C2579 0.950 . S
C2568 H2560 0.950 . S
C2568 C2569 1.386 . S
C2568 C2570 1.391 . S
C2569 C2568 1.386 . S
C2569 C2573 1.393 . S
C2570 H2562 0.950 . S
C2570 C2568 1.391 . S
C2570 C2571 1.400 . S
C2571 C2570 1.400 . S
C2571 C2572 1.398 . S
C2571 C2577 1.491 1_545 S
C2572 H2563 0.950 . S
C2572 C2571 1.398 . S
C2572 C2573 1.391 . S
C2573 H2561 0.950 . S
C2573 C2569 1.393 . S
C2573 C2572 1.391 . S
C2574 H2564 0.950 . S
C2574 C2575 1.386 . S
C2574 C2576 1.391 . S
C2575 C2574 1.386 . S
C2575 C2579 1.393 . S
C2576 H2565 0.950 . S
C2576 C2574 1.391 . S
C2576 C2577 1.400 . S
C2577 C2571 1.491 1_565 S
C2577 C2576 1.400 . S
C2577 C2578 1.398 . S
C2578 H2566 0.950 . S
C2578 C2577 1.398 . S
C2578 C2579 1.391 . S
C2579 H2567 0.950 . S
C2579 C2575 1.393 . S
C2579 C2578 1.391 . S
H2580 C2588 0.950 . S
H2581 C2593 0.950 . S
H2582 C2590 0.950 . S
H2583 C2592 0.950 . S
H2584 C2594 0.950 . S
H2585 C2596 0.950 . S
H2586 C2598 0.950 . S
H2587 C2599 0.950 . S
C2588 H2580 0.950 . S
C2588 C2589 1.386 . S
C2588 C2590 1.391 . S
C2589 C2588 1.386 . S
C2589 C2593 1.393 . S
C2590 H2582 0.950 . S
C2590 C2588 1.391 . S
C2590 C2591 1.400 . S
C2591 C2590 1.400 . S
C2591 C2592 1.398 . S
C2591 C2597 1.491 . S
C2592 H2583 0.950 . S
C2592 C2591 1.398 . S
C2592 C2593 1.391 . S
C2593 H2581 0.950 . S
C2593 C2589 1.393 . S
C2593 C2592 1.391 . S
C2594 H2584 0.950 . S
C2594 C2595 1.386 . S
C2594 C2596 1.391 . S
C2595 C2594 1.386 . S
C2595 C2599 1.393 . S
C2596 H2585 0.950 . S
C2596 C2594 1.391 . S
C2596 C2597 1.400 . S
C2597 C2591 1.491 . S
C2597 C2596 1.400 . S
C2597 C2598 1.398 . S
C2598 H2586 0.950 . S
C2598 C2597 1.398 . S
C2598 C2599 1.391 . S
C2599 H2587 0.950 . S
C2599 C2595 1.393 . S
C2599 C2598 1.391 . S
H2600 C2608 0.950 . S
H2601 C2613 0.950 . S
H2602 C2610 0.950 . S
H2603 C2612 0.950 . S
H2604 C2614 0.950 . S
H2605 C2616 0.950 . S
H2606 C2618 0.950 . S
H2607 C2619 0.950 . S
C2608 H2600 0.950 . S
C2608 C2609 1.386 . S
C2608 C2610 1.391 . S
C2609 C2608 1.386 . S
C2609 C2613 1.393 . S
C2610 H2602 0.950 . S
C2610 C2608 1.391 . S
C2610 C2611 1.400 . S
C2611 C2610 1.400 . S
C2611 C2612 1.398 . S
C2611 C2617 1.491 1_565 S
C2612 H2603 0.950 . S
C2612 C2611 1.398 . S
C2612 C2613 1.391 . S
C2613 H2601 0.950 . S
C2613 C2609 1.393 . S
C2613 C2612 1.391 . S
C2614 H2604 0.950 . S
C2614 C2615 1.386 . S
C2614 C2616 1.391 . S
C2615 C2614 1.386 . S
C2615 C2619 1.393 . S
C2616 H2605 0.950 . S
C2616 C2614 1.391 . S
C2616 C2617 1.400 . S
C2617 C2611 1.491 1_545 S
C2617 C2616 1.400 . S
C2617 C2618 1.398 . S
C2618 H2606 0.950 . S
C2618 C2617 1.398 . S
C2618 C2619 1.391 . S
C2619 H2607 0.950 . S
C2619 C2615 1.393 . S
C2619 C2618 1.391 . S
H2620 C2628 0.950 . S
H2621 C2633 0.950 . S
H2622 C2630 0.950 . S
H2623 C2632 0.950 . S
H2624 C2634 0.950 . S
H2625 C2636 0.950 . S
H2626 C2638 0.950 . S
H2627 C2639 0.950 . S
C2628 H2620 0.950 . S
C2628 C2629 1.386 1_554 S
C2628 C2630 1.391 . S
C2629 C2628 1.386 1_556 S
C2629 C2633 1.393 . S
C2630 H2622 0.950 . S
C2630 C2628 1.391 . S
C2630 C2631 1.369 1_554 S
C2631 C2630 1.369 1_556 S
C2631 C2632 1.434 . S
C2631 C2637 1.487 1_556 S
C2632 H2623 0.950 . S
C2632 C2631 1.434 . S
C2632 C2633 1.391 . S
C2633 H2621 0.950 . S
C2633 C2629 1.393 . S
C2633 C2632 1.391 . S
C2634 H2624 0.950 . S
C2634 C2635 1.386 1_556 S
C2634 C2636 1.391 . S
C2635 C2634 1.386 1_554 S
C2635 C2639 1.393 . S
C2636 H2625 0.950 . S
C2636 C2634 1.391 . S
C2636 C2637 1.369 1_556 S
C2637 C2631 1.487 1_554 S
C2637 C2636 1.369 1_554 S
C2637 C2638 1.434 . S
C2638 H2626 0.950 . S
C2638 C2637 1.434 . S
C2638 C2639 1.391 . S
C2639 H2627 0.950 . S
C2639 C2635 1.393 . S
C2639 C2638 1.391 . S
H2640 C2648 0.950 . S
H2641 C2653 0.950 . S
H2642 C2650 0.950 . S
H2643 C2652 0.950 . S
H2644 C2654 0.950 . S
H2645 C2656 0.950 . S
H2646 C2658 0.950 . S
H2647 C2659 0.950 . S
C2648 H2640 0.950 . S
C2648 C2649 1.386 . S
C2648 C2650 1.391 . S
C2649 C2648 1.386 . S
C2649 C2653 1.393 . S
C2650 H2642 0.950 . S
C2650 C2648 1.391 . S
C2650 C2651 1.400 . S
C2651 C2650 1.400 . S
C2651 C2652 1.398 . S
C2651 C2657 1.491 1_545 S
C2652 H2643 0.950 . S
C2652 C2651 1.398 . S
C2652 C2653 1.391 . S
C2653 H2641 0.950 . S
C2653 C2649 1.393 . S
C2653 C2652 1.391 . S
C2654 H2644 0.950 . S
C2654 C2655 1.386 . S
C2654 C2656 1.391 . S
C2655 C2654 1.386 . S
C2655 C2659 1.393 . S
C2656 H2645 0.950 . S
C2656 C2654 1.391 . S
C2656 C2657 1.400 . S
C2657 C2651 1.491 1_565 S
C2657 C2656 1.400 . S
C2657 C2658 1.398 . S
C2658 H2646 0.950 . S
C2658 C2657 1.398 . S
C2658 C2659 1.391 . S
C2659 H2647 0.950 . S
C2659 C2655 1.393 . S
C2659 C2658 1.391 . S
H2660 C2668 0.950 . S
H2661 C2673 0.950 . S
H2662 C2670 0.950 . S
H2663 C2672 0.950 . S
H2664 C2674 0.950 . S
H2665 C2676 0.950 . S
H2666 C2678 0.950 . S
H2667 C2679 0.950 . S
C2668 H2660 0.950 . S
C2668 C2669 1.386 . S
C2668 C2670 1.391 . S
C2669 C2668 1.386 . S
C2669 C2673 1.393 . S
C2670 H2662 0.950 . S
C2670 C2668 1.391 . S
C2670 C2671 1.400 . S
C2671 C2670 1.400 . S
C2671 C2672 1.398 . S
C2671 C2677 1.491 . S
C2672 H2663 0.950 . S
C2672 C2671 1.398 . S
C2672 C2673 1.391 . S
C2673 H2661 0.950 . S
C2673 C2669 1.393 . S
C2673 C2672 1.391 . S
C2674 H2664 0.950 . S
C2674 C2675 1.386 . S
C2674 C2676 1.391 . S
C2675 C2674 1.386 . S
C2675 C2679 1.393 . S
C2676 H2665 0.950 . S
C2676 C2674 1.391 . S
C2676 C2677 1.400 . S
C2677 C2671 1.491 . S
C2677 C2676 1.400 . S
C2677 C2678 1.398 . S
C2678 H2666 0.950 . S
C2678 C2677 1.398 . S
C2678 C2679 1.391 . S
C2679 H2667 0.950 . S
C2679 C2675 1.393 . S
C2679 C2678 1.391 . S
H2680 C2688 0.950 . S
H2681 C2693 0.950 . S
H2682 C2690 0.950 . S
H2683 C2692 0.950 . S
H2684 C2694 0.950 . S
H2685 C2696 0.950 . S
H2686 C2698 0.950 . S
H2687 C2699 0.950 . S
C2688 H2680 0.950 . S
C2688 C2689 1.386 . S
C2688 C2690 1.391 . S
C2689 C2688 1.386 . S
C2689 C2693 1.393 . S
C2690 H2682 0.950 . S
C2690 C2688 1.391 . S
C2690 C2691 1.400 . S
C2691 C2690 1.400 . S
C2691 C2692 1.398 . S
C2691 C2697 1.491 1_545 S
C2692 H2683 0.950 . S
C2692 C2691 1.398 . S
C2692 C2693 1.391 . S
C2693 H2681 0.950 . S
C2693 C2689 1.393 . S
C2693 C2692 1.391 . S
C2694 H2684 0.950 . S
C2694 C2695 1.386 . S
C2694 C2696 1.391 . S
C2695 C2694 1.386 . S
C2695 C2699 1.393 . S
C2696 H2685 0.950 . S
C2696 C2694 1.391 . S
C2696 C2697 1.400 . S
C2697 C2691 1.491 1_565 S
C2697 C2696 1.400 . S
C2697 C2698 1.398 . S
C2698 H2686 0.950 . S
C2698 C2697 1.398 . S
C2698 C2699 1.391 . S
C2699 H2687 0.950 . S
C2699 C2695 1.393 . S
C2699 C2698 1.391 . S
H2700 C2708 0.950 . S
H2701 C2713 0.950 . S
H2702 C2710 0.950 . S
H2703 C2712 0.950 . S
H2704 C2714 0.950 . S
H2705 C2716 0.950 . S
H2706 C2718 0.950 . S
H2707 C2719 0.950 . S
C2708 H2700 0.950 . S
C2708 C2709 1.386 1_554 S
C2708 C2710 1.391 . S
C2709 C2708 1.386 1_556 S
C2709 C2713 1.393 . S
C2710 H2702 0.950 . S
C2710 C2708 1.391 . S
C2710 C2711 1.368 1_554 S
C2711 C2710 1.368 1_556 S
C2711 C2712 1.435 . S
C2711 C2717 1.487 1_556 S
C2712 H2703 0.950 . S
C2712 C2711 1.435 . S
C2712 C2713 1.391 . S
C2713 H2701 0.950 . S
C2713 C2709 1.393 . S
C2713 C2712 1.391 . S
C2714 H2704 0.950 . S
C2714 C2715 1.386 1_556 S
C2714 C2716 1.391 . S
C2715 C2714 1.386 1_554 S
C2715 C2719 1.393 . S
C2716 H2705 0.950 . S
C2716 C2714 1.391 . S
C2716 C2717 1.368 1_556 S
C2717 C2711 1.487 1_554 S
C2717 C2716 1.368 1_554 S
C2717 C2718 1.435 . S
C2718 H2706 0.950 . S
C2718 C2717 1.435 . S
C2718 C2719 1.391 . S
C2719 H2707 0.950 . S
C2719 C2715 1.393 . S
C2719 C2718 1.391 . S
H2720 C2728 0.950 . S
H2721 C2733 0.950 . S
H2722 C2730 0.950 . S
H2723 C2732 0.950 . S
H2724 C2734 0.950 . S
H2725 C2736 0.950 . S
H2726 C2738 0.950 . S
H2727 C2739 0.950 . S
C2728 H2720 0.950 . S
C2728 C2729 1.386 . S
C2728 C2730 1.391 . S
C2729 C2728 1.386 . S
C2729 C2733 1.393 . S
C2730 H2722 0.950 . S
C2730 C2728 1.391 . S
C2730 C2731 1.400 . S
C2731 C2730 1.400 . S
C2731 C2732 1.398 . S
C2731 C2737 1.491 . S
C2732 H2723 0.950 . S
C2732 C2731 1.398 . S
C2732 C2733 1.391 . S
C2733 H2721 0.950 . S
C2733 C2729 1.393 . S
C2733 C2732 1.391 . S
C2734 H2724 0.950 . S
C2734 C2735 1.386 . S
C2734 C2736 1.391 . S
C2735 C2734 1.386 . S
C2735 C2739 1.393 . S
C2736 H2725 0.950 . S
C2736 C2734 1.391 . S
C2736 C2737 1.400 . S
C2737 C2731 1.491 . S
C2737 C2736 1.400 . S
C2737 C2738 1.398 . S
C2738 H2726 0.950 . S
C2738 C2737 1.398 . S
C2738 C2739 1.391 . S
C2739 H2727 0.950 . S
C2739 C2735 1.393 . S
C2739 C2738 1.391 . S
H2740 C2748 0.950 . S
H2741 C2753 0.950 . S
H2742 C2750 0.950 . S
H2743 C2752 0.950 . S
H2744 C2754 0.950 . S
H2745 C2756 0.950 . S
H2746 C2758 0.950 . S
H2747 C2759 0.950 . S
C2748 H2740 0.950 . S
C2748 C2749 1.386 . S
C2748 C2750 1.391 . S
C2749 C2748 1.386 . S
C2749 C2753 1.393 1_556 S
C2750 H2742 0.950 . S
C2750 C2748 1.391 . S
C2750 C2751 1.400 . S
C2751 C2750 1.400 . S
C2751 C2752 1.398 1_556 S
C2751 C2757 1.491 1_556 S
C2752 H2743 0.950 . S
C2752 C2751 1.398 1_554 S
C2752 C2753 1.391 . S
C2753 H2741 0.950 . S
C2753 C2749 1.393 1_554 S
C2753 C2752 1.391 . S
C2754 H2744 0.950 . S
C2754 C2755 1.386 . S
C2754 C2756 1.391 . S
C2755 C2754 1.386 . S
C2755 C2759 1.393 1_554 S
C2756 H2745 0.950 . S
C2756 C2754 1.391 . S
C2756 C2757 1.400 . S
C2757 C2751 1.491 1_554 S
C2757 C2756 1.400 . S
C2757 C2758 1.398 1_554 S
C2758 H2746 0.950 . S
C2758 C2757 1.398 1_556 S
C2758 C2759 1.391 . S
C2759 H2747 0.950 . S
C2759 C2755 1.393 1_556 S
C2759 C2758 1.391 . S
H2760 C2768 0.950 . S
H2761 C2773 0.950 . S
H2762 C2770 0.950 . S
H2763 C2772 0.950 . S
H2764 C2774 0.950 . S
H2765 C2776 0.950 . S
H2766 C2778 0.950 . S
H2767 C2779 0.950 . S
C2768 H2760 0.950 . S
C2768 C2769 1.386 . S
C2768 C2770 1.391 . S
C2769 C2768 1.386 . S
C2769 C2773 1.393 . S
C2770 H2762 0.950 . S
C2770 C2768 1.391 . S
C2770 C2771 1.400 . S
C2771 C2770 1.400 . S
C2771 C2772 1.398 . S
C2771 C2777 1.491 . S
C2772 H2763 0.950 . S
C2772 C2771 1.398 . S
C2772 C2773 1.391 . S
C2773 H2761 0.950 . S
C2773 C2769 1.393 . S
C2773 C2772 1.391 . S
C2774 H2764 0.950 . S
C2774 C2775 1.386 . S
C2774 C2776 1.391 . S
C2775 C2774 1.386 . S
C2775 C2779 1.393 . S
C2776 H2765 0.950 . S
C2776 C2774 1.391 . S
C2776 C2777 1.400 . S
C2777 C2771 1.491 . S
C2777 C2776 1.400 . S
C2777 C2778 1.398 . S
C2778 H2766 0.950 . S
C2778 C2777 1.398 . S
C2778 C2779 1.391 . S
C2779 H2767 0.950 . S
C2779 C2775 1.393 . S
C2779 C2778 1.391 . S
H2780 C2788 0.950 . S
H2781 C2793 0.950 . S
H2782 C2790 0.950 . S
H2783 C2792 0.950 . S
H2784 C2794 0.950 . S
H2785 C2796 0.950 . S
H2786 C2798 0.950 . S
H2787 C2799 0.950 . S
C2788 H2780 0.950 . S
C2788 C2789 1.386 . S
C2788 C2790 1.391 . S
C2789 C2788 1.386 . S
C2789 C2793 1.393 . S
C2790 H2782 0.950 . S
C2790 C2788 1.391 . S
C2790 C2791 1.400 . S
C2791 C2790 1.400 . S
C2791 C2792 1.398 . S
C2791 C2797 1.491 . S
C2792 H2783 0.950 . S
C2792 C2791 1.398 . S
C2792 C2793 1.391 . S
C2793 H2781 0.950 . S
C2793 C2789 1.393 . S
C2793 C2792 1.391 . S
C2794 H2784 0.950 . S
C2794 C2795 1.386 . S
C2794 C2796 1.391 . S
C2795 C2794 1.386 . S
C2795 C2799 1.393 . S
C2796 H2785 0.950 . S
C2796 C2794 1.391 . S
C2796 C2797 1.400 . S
C2797 C2791 1.491 . S
C2797 C2796 1.400 . S
C2797 C2798 1.398 . S
C2798 H2786 0.950 . S
C2798 C2797 1.398 . S
C2798 C2799 1.391 . S
C2799 H2787 0.950 . S
C2799 C2795 1.393 . S
C2799 C2798 1.391 . S
H2800 C2808 0.950 . S
H2801 C2813 0.950 . S
H2802 C2810 0.950 . S
H2803 C2812 0.950 . S
H2804 C2814 0.950 . S
H2805 C2816 0.950 . S
H2806 C2818 0.950 . S
H2807 C2819 0.950 . S
C2808 H2800 0.950 . S
C2808 C2809 1.386 . S
C2808 C2810 1.391 . S
C2809 C2808 1.386 . S
C2809 C2813 1.393 . S
C2810 H2802 0.950 . S
C2810 C2808 1.391 . S
C2810 C2811 1.400 . S
C2811 C2810 1.400 . S
C2811 C2812 1.398 . S
C2811 C2817 1.491 . S
C2812 H2803 0.950 . S
C2812 C2811 1.398 . S
C2812 C2813 1.391 . S
C2813 H2801 0.950 . S
C2813 C2809 1.393 . S
C2813 C2812 1.391 . S
C2814 H2804 0.950 . S
C2814 C2815 1.386 . S
C2814 C2816 1.391 . S
C2815 C2814 1.386 . S
C2815 C2819 1.393 . S
C2816 H2805 0.950 . S
C2816 C2814 1.391 . S
C2816 C2817 1.400 . S
C2817 C2811 1.491 . S
C2817 C2816 1.400 . S
C2817 C2818 1.398 . S
C2818 H2806 0.950 . S
C2818 C2817 1.398 . S
C2818 C2819 1.391 . S
C2819 H2807 0.950 . S
C2819 C2815 1.393 . S
C2819 C2818 1.391 . S
H2820 C2828 0.950 . S
H2821 C2833 0.950 . S
H2822 C2830 0.950 . S
H2823 C2832 0.950 . S
H2824 C2834 0.950 . S
H2825 C2836 0.950 . S
H2826 C2838 0.950 . S
H2827 C2839 0.950 . S
C2828 H2820 0.950 . S
C2828 C2829 1.386 . S
C2828 C2830 1.391 . S
C2829 C2828 1.386 . S
C2829 C2833 1.393 1_556 S
C2830 H2822 0.950 . S
C2830 C2828 1.391 . S
C2830 C2831 1.413 . S
C2831 C2830 1.413 . S
C2831 C2832 1.386 1_556 S
C2831 C2837 1.490 1_556 S
C2832 H2823 0.950 . S
C2832 C2831 1.386 1_554 S
C2832 C2833 1.391 . S
C2833 H2821 0.950 . S
C2833 C2829 1.393 1_554 S
C2833 C2832 1.391 . S
C2834 H2824 0.950 . S
C2834 C2835 1.386 . S
C2834 C2836 1.391 . S
C2835 C2834 1.386 . S
C2835 C2839 1.393 1_554 S
C2836 H2825 0.950 . S
C2836 C2834 1.391 . S
C2836 C2837 1.413 . S
C2837 C2831 1.490 1_554 S
C2837 C2836 1.413 . S
C2837 C2838 1.386 1_554 S
C2838 H2826 0.950 . S
C2838 C2837 1.386 1_556 S
C2838 C2839 1.391 . S
C2839 H2827 0.950 . S
C2839 C2835 1.393 1_556 S
C2839 C2838 1.391 . S
H2840 C2848 0.950 . S
H2841 C2853 0.950 . S
H2842 C2850 0.950 . S
H2843 C2852 0.950 . S
H2844 C2854 0.950 . S
H2845 C2856 0.950 . S
H2846 C2858 0.950 . S
H2847 C2859 0.950 . S
C2848 H2840 0.950 . S
C2848 C2849 1.386 . S
C2848 C2850 1.391 . S
C2849 C2848 1.386 . S
C2849 C2853 1.393 . S
C2850 H2842 0.950 . S
C2850 C2848 1.391 . S
C2850 C2851 1.400 . S
C2851 C2850 1.400 . S
C2851 C2852 1.398 . S
C2851 C2857 1.491 . S
C2852 H2843 0.950 . S
C2852 C2851 1.398 . S
C2852 C2853 1.391 . S
C2853 H2841 0.950 . S
C2853 C2849 1.393 . S
C2853 C2852 1.391 . S
C2854 H2844 0.950 . S
C2854 C2855 1.386 . S
C2854 C2856 1.391 . S
C2855 C2854 1.386 . S
C2855 C2859 1.393 . S
C2856 H2845 0.950 . S
C2856 C2854 1.391 . S
C2856 C2857 1.400 . S
C2857 C2851 1.491 . S
C2857 C2856 1.400 . S
C2857 C2858 1.398 . S
C2858 H2846 0.950 . S
C2858 C2857 1.398 . S
C2858 C2859 1.391 . S
C2859 H2847 0.950 . S
C2859 C2855 1.393 . S
C2859 C2858 1.391 . S
H2860 C2868 0.950 . S
H2861 C2873 0.950 . S
H2862 C2870 0.950 . S
H2863 C2872 0.950 . S
H2864 C2874 0.950 . S
H2865 C2876 0.950 . S
H2866 C2878 0.950 . S
H2867 C2879 0.950 . S
C2868 H2860 0.950 . S
C2868 C2869 1.386 . S
C2868 C2870 1.391 . S
C2869 C2868 1.386 . S
C2869 C2873 1.393 . S
C2870 H2862 0.950 . S
C2870 C2868 1.391 . S
C2870 C2871 1.400 . S
C2871 C2870 1.400 . S
C2871 C2872 1.398 . S
C2871 C2877 1.491 . S
C2872 H2863 0.950 . S
C2872 C2871 1.398 . S
C2872 C2873 1.391 . S
C2873 H2861 0.950 . S
C2873 C2869 1.393 . S
C2873 C2872 1.391 . S
C2874 H2864 0.950 . S
C2874 C2875 1.386 . S
C2874 C2876 1.391 . S
C2875 C2874 1.386 . S
C2875 C2879 1.393 . S
C2876 H2865 0.950 . S
C2876 C2874 1.391 . S
C2876 C2877 1.400 . S
C2877 C2871 1.491 . S
C2877 C2876 1.400 . S
C2877 C2878 1.398 . S
C2878 H2866 0.950 . S
C2878 C2877 1.398 . S
C2878 C2879 1.391 . S
C2879 H2867 0.950 . S
C2879 C2875 1.393 . S
C2879 C2878 1.391 . S
H2880 C2888 0.950 . S
H2881 C2893 0.950 . S
H2882 C2890 0.950 . S
H2883 C2892 0.950 . S
H2884 C2894 0.950 . S
H2885 C2896 0.950 . S
H2886 C2898 0.950 . S
H2887 C2899 0.950 . S
C2888 H2880 0.950 . S
C2888 C2889 1.386 . S
C2888 C2890 1.391 . S
C2889 C2888 1.386 . S
C2889 C2893 1.393 . S
C2890 H2882 0.950 . S
C2890 C2888 1.391 . S
C2890 C2891 1.400 . S
C2891 C2890 1.400 . S
C2891 C2892 1.398 . S
C2891 C2897 1.491 . S
C2892 H2883 0.950 . S
C2892 C2891 1.398 . S
C2892 C2893 1.391 . S
C2893 H2881 0.950 . S
C2893 C2889 1.393 . S
C2893 C2892 1.391 . S
C2894 H2884 0.950 . S
C2894 C2895 1.386 . S
C2894 C2896 1.391 . S
C2895 C2894 1.386 . S
C2895 C2899 1.393 . S
C2896 H2885 0.950 . S
C2896 C2894 1.391 . S
C2896 C2897 1.400 . S
C2897 C2891 1.491 . S
C2897 C2896 1.400 . S
C2897 C2898 1.398 . S
C2898 H2886 0.950 . S
C2898 C2897 1.398 . S
C2898 C2899 1.391 . S
C2899 H2887 0.950 . S
C2899 C2895 1.393 . S
C2899 C2898 1.391 . S
H2900 C2908 0.950 . S
H2901 C2913 0.950 . S
H2902 C2910 0.950 . S
H2903 C2912 0.950 . S
H2904 C2914 0.950 . S
H2905 C2916 0.950 . S
H2906 C2918 0.950 . S
H2907 C2919 0.950 . S
C2908 H2900 0.950 . S
C2908 C2909 1.386 . S
C2908 C2910 1.391 . S
C2909 C2908 1.386 . S
C2909 C2913 1.393 . S
C2910 H2902 0.950 . S
C2910 C2908 1.391 . S
C2910 C2911 1.400 . S
C2911 C2910 1.400 . S
C2911 C2912 1.398 . S
C2911 C2917 1.491 . S
C2912 H2903 0.950 . S
C2912 C2911 1.398 . S
C2912 C2913 1.391 . S
C2913 H2901 0.950 . S
C2913 C2909 1.393 . S
C2913 C2912 1.391 . S
C2914 H2904 0.950 . S
C2914 C2915 1.386 . S
C2914 C2916 1.391 . S
C2915 C2914 1.386 . S
C2915 C2919 1.393 . S
C2916 H2905 0.950 . S
C2916 C2914 1.391 . S
C2916 C2917 1.400 . S
C2917 C2911 1.491 . S
C2917 C2916 1.400 . S
C2917 C2918 1.398 . S
C2918 H2906 0.950 . S
C2918 C2917 1.398 . S
C2918 C2919 1.391 . S
C2919 H2907 0.950 . S
C2919 C2915 1.393 . S
C2919 C2918 1.391 . S
H2920 C2928 0.950 . S
H2921 C2933 0.950 . S
H2922 C2930 0.950 . S
H2923 C2932 0.950 . S
H2924 C2934 0.950 . S
H2925 C2936 0.950 . S
H2926 C2938 0.950 . S
H2927 C2939 0.950 . S
C2928 H2920 0.950 . S
C2928 C2929 1.386 . S
C2928 C2930 1.391 . S
C2929 C2928 1.386 . S
C2929 C2933 1.393 . S
C2930 H2922 0.950 . S
C2930 C2928 1.391 . S
C2930 C2931 1.400 . S
C2931 C2930 1.400 . S
C2931 C2932 1.398 . S
C2931 C2937 1.491 . S
C2932 H2923 0.950 . S
C2932 C2931 1.398 . S
C2932 C2933 1.391 . S
C2933 H2921 0.950 . S
C2933 C2929 1.393 . S
C2933 C2932 1.391 . S
C2934 H2924 0.950 . S
C2934 C2935 1.386 . S
C2934 C2936 1.391 . S
C2935 C2934 1.386 . S
C2935 C2939 1.393 . S
C2936 H2925 0.950 . S
C2936 C2934 1.391 . S
C2936 C2937 1.400 . S
C2937 C2931 1.491 . S
C2937 C2936 1.400 . S
C2937 C2938 1.398 . S
C2938 H2926 0.950 . S
C2938 C2937 1.398 . S
C2938 C2939 1.391 . S
C2939 H2927 0.950 . S
C2939 C2935 1.393 . S
C2939 C2938 1.391 . S
H2940 C2948 0.950 . S
H2941 C2953 0.950 . S
H2942 C2950 0.950 . S
H2943 C2952 0.950 . S
H2944 C2954 0.950 . S
H2945 C2956 0.950 . S
H2946 C2958 0.950 . S
H2947 C2959 0.950 . S
C2948 H2940 0.950 . S
C2948 C2949 1.386 . S
C2948 C2950 1.391 . S
C2949 C2948 1.386 . S
C2949 C2953 1.393 . S
C2950 H2942 0.950 . S
C2950 C2948 1.391 . S
C2950 C2951 1.400 . S
C2951 C2950 1.400 . S
C2951 C2952 1.398 . S
C2951 C2957 1.491 . S
C2952 H2943 0.950 . S
C2952 C2951 1.398 . S
C2952 C2953 1.391 . S
C2953 H2941 0.950 . S
C2953 C2949 1.393 . S
C2953 C2952 1.391 . S
C2954 H2944 0.950 . S
C2954 C2955 1.386 . S
C2954 C2956 1.391 . S
C2955 C2954 1.386 . S
C2955 C2959 1.393 . S
C2956 H2945 0.950 . S
C2956 C2954 1.391 . S
C2956 C2957 1.400 . S
C2957 C2951 1.491 . S
C2957 C2956 1.400 . S
C2957 C2958 1.398 . S
C2958 H2946 0.950 . S
C2958 C2957 1.398 . S
C2958 C2959 1.391 . S
C2959 H2947 0.950 . S
C2959 C2955 1.393 . S
C2959 C2958 1.391 . S
H2960 C2968 0.950 . S
H2961 C2973 0.950 . S
H2962 C2970 0.950 . S
H2963 C2972 0.950 . S
H2964 C2974 0.950 . S
H2965 C2976 0.950 . S
H2966 C2978 0.950 . S
H2967 C2979 0.950 . S
C2968 H2960 0.950 . S
C2968 C2969 1.386 . S
C2968 C2970 1.391 . S
C2969 C2968 1.386 . S
C2969 C2973 1.393 . S
C2970 H2962 0.950 . S
C2970 C2968 1.391 . S
C2970 C2971 1.400 . S
C2971 C2970 1.400 . S
C2971 C2972 1.398 . S
C2971 C2977 1.491 . S
C2972 H2963 0.950 . S
C2972 C2971 1.398 . S
C2972 C2973 1.391 . S
C2973 H2961 0.950 . S
C2973 C2969 1.393 . S
C2973 C2972 1.391 . S
C2974 H2964 0.950 . S
C2974 C2975 1.386 . S
C2974 C2976 1.391 . S
C2975 C2974 1.386 . S
C2975 C2979 1.393 . S
C2976 H2965 0.950 . S
C2976 C2974 1.391 . S
C2976 C2977 1.400 . S
C2977 C2971 1.491 . S
C2977 C2976 1.400 . S
C2977 C2978 1.398 . S
C2978 H2966 0.950 . S
C2978 C2977 1.398 . S
C2978 C2979 1.391 . S
C2979 H2967 0.950 . S
C2979 C2975 1.393 . S
C2979 C2978 1.391 . S
H2980 C2988 0.950 . S
H2981 C2993 0.950 . S
H2982 C2990 0.950 . S
H2983 C2992 0.950 . S
H2984 C2994 0.950 . S
H2985 C2996 0.950 . S
H2986 C2998 0.950 . S
H2987 C2999 0.950 . S
C2988 H2980 0.950 . S
C2988 C2989 1.386 . S
C2988 C2990 1.391 . S
C2989 C2988 1.386 . S
C2989 C2993 1.393 . S
C2990 H2982 0.950 . S
C2990 C2988 1.391 . S
C2990 C2991 1.400 . S
C2991 C2990 1.400 . S
C2991 C2992 1.398 . S
C2991 C2997 1.491 . S
C2992 H2983 0.950 . S
C2992 C2991 1.398 . S
C2992 C2993 1.391 . S
C2993 H2981 0.950 . S
C2993 C2989 1.393 . S
C2993 C2992 1.391 . S
C2994 H2984 0.950 . S
C2994 C2995 1.386 . S
C2994 C2996 1.391 . S
C2995 C2994 1.386 . S
C2995 C2999 1.393 . S
C2996 H2985 0.950 . S
C2996 C2994 1.391 . S
C2996 C2997 1.400 . S
C2997 C2991 1.491 . S
C2997 C2996 1.400 . S
C2997 C2998 1.398 . S
C2998 H2986 0.950 . S
C2998 C2997 1.398 . S
C2998 C2999 1.391 . S
C2999 H2987 0.950 . S
C2999 C2995 1.393 . S
C2999 C2998 1.391 . S
H3000 C3008 0.950 . S
H3001 C3013 0.950 . S
H3002 C3010 0.950 . S
H3003 C3012 0.950 . S
H3004 C3014 0.950 . S
H3005 C3016 0.950 . S
H3006 C3018 0.950 . S
H3007 C3019 0.950 . S
C3008 H3000 0.950 . S
C3008 C3009 1.386 . S
C3008 C3010 1.391 . S
C3009 C3008 1.386 . S
C3009 C3013 1.393 . S
C3010 H3002 0.950 . S
C3010 C3008 1.391 . S
C3010 C3011 1.400 . S
C3011 C3010 1.400 . S
C3011 C3012 1.398 . S
C3011 C3017 1.491 . S
C3012 H3003 0.950 . S
C3012 C3011 1.398 . S
C3012 C3013 1.391 . S
C3013 H3001 0.950 . S
C3013 C3009 1.393 . S
C3013 C3012 1.391 . S
C3014 H3004 0.950 . S
C3014 C3015 1.386 . S
C3014 C3016 1.391 . S
C3015 C3014 1.386 . S
C3015 C3019 1.393 . S
C3016 H3005 0.950 . S
C3016 C3014 1.391 . S
C3016 C3017 1.400 . S
C3017 C3011 1.491 . S
C3017 C3016 1.400 . S
C3017 C3018 1.398 . S
C3018 H3006 0.950 . S
C3018 C3017 1.398 . S
C3018 C3019 1.391 . S
C3019 H3007 0.950 . S
C3019 C3015 1.393 . S
C3019 C3018 1.391 . S
H3020 C3028 0.950 . S
H3021 C3033 0.950 . S
H3022 C3030 0.950 . S
H3023 C3032 0.950 . S
H3024 C3034 0.950 . S
H3025 C3036 0.950 . S
H3026 C3038 0.950 . S
H3027 C3039 0.950 . S
C3028 H3020 0.950 . S
C3028 C3029 1.386 . S
C3028 C3030 1.391 . S
C3029 C3028 1.386 . S
C3029 C3033 1.393 . S
C3030 H3022 0.950 . S
C3030 C3028 1.391 . S
C3030 C3031 1.400 . S
C3031 C3030 1.400 . S
C3031 C3032 1.398 . S
C3031 C3037 1.491 . S
C3032 H3023 0.950 . S
C3032 C3031 1.398 . S
C3032 C3033 1.391 . S
C3033 H3021 0.950 . S
C3033 C3029 1.393 . S
C3033 C3032 1.391 . S
C3034 H3024 0.950 . S
C3034 C3035 1.386 . S
C3034 C3036 1.391 . S
C3035 C3034 1.386 . S
C3035 C3039 1.393 . S
C3036 H3025 0.950 . S
C3036 C3034 1.391 . S
C3036 C3037 1.400 . S
C3037 C3031 1.491 . S
C3037 C3036 1.400 . S
C3037 C3038 1.398 . S
C3038 H3026 0.950 . S
C3038 C3037 1.398 . S
C3038 C3039 1.391 . S
C3039 H3027 0.950 . S
C3039 C3035 1.393 . S
C3039 C3038 1.391 . S
H3040 C3048 0.950 . S
H3041 C3053 0.950 . S
H3042 C3050 0.950 . S
H3043 C3052 0.950 . S
H3044 C3054 0.950 . S
H3045 C3056 0.950 . S
H3046 C3058 0.950 . S
H3047 C3059 0.950 . S
C3048 H3040 0.950 . S
C3048 C3049 1.386 . S
C3048 C3050 1.391 . S
C3049 C3048 1.386 . S
C3049 C3053 1.393 . S
C3050 H3042 0.950 . S
C3050 C3048 1.391 . S
C3050 C3051 1.400 . S
C3051 C3050 1.400 . S
C3051 C3052 1.398 . S
C3051 C3057 1.491 . S
C3052 H3043 0.950 . S
C3052 C3051 1.398 . S
C3052 C3053 1.391 . S
C3053 H3041 0.950 . S
C3053 C3049 1.393 . S
C3053 C3052 1.391 . S
C3054 H3044 0.950 . S
C3054 C3055 1.386 . S
C3054 C3056 1.391 . S
C3055 C3054 1.386 . S
C3055 C3059 1.393 . S
C3056 H3045 0.950 . S
C3056 C3054 1.391 . S
C3056 C3057 1.400 . S
C3057 C3051 1.491 . S
C3057 C3056 1.400 . S
C3057 C3058 1.398 . S
C3058 H3046 0.950 . S
C3058 C3057 1.398 . S
C3058 C3059 1.391 . S
C3059 H3047 0.950 . S
C3059 C3055 1.393 . S
C3059 C3058 1.391 . S
H3060 C3068 0.950 . S
H3061 C3073 0.950 . S
H3062 C3070 0.950 . S
H3063 C3072 0.950 . S
H3064 C3074 0.950 . S
H3065 C3076 0.950 . S
H3066 C3078 0.950 . S
H3067 C3079 0.950 . S
C3068 H3060 0.950 . S
C3068 C3069 1.386 . S
C3068 C3070 1.391 . S
C3069 C3068 1.386 . S
C3069 C3073 1.393 . S
C3070 H3062 0.950 . S
C3070 C3068 1.391 . S
C3070 C3071 1.400 . S
C3071 C3070 1.400 . S
C3071 C3072 1.398 . S
C3071 C3077 1.491 . S
C3072 H3063 0.950 . S
C3072 C3071 1.398 . S
C3072 C3073 1.391 . S
C3073 H3061 0.950 . S
C3073 C3069 1.393 . S
C3073 C3072 1.391 . S
C3074 H3064 0.950 . S
C3074 C3075 1.386 . S
C3074 C3076 1.391 . S
C3075 C3074 1.386 . S
C3075 C3079 1.393 . S
C3076 H3065 0.950 . S
C3076 C3074 1.391 . S
C3076 C3077 1.400 . S
C3077 C3071 1.491 . S
C3077 C3076 1.400 . S
C3077 C3078 1.398 . S
C3078 H3066 0.950 . S
C3078 C3077 1.398 . S
C3078 C3079 1.391 . S
C3079 H3067 0.950 . S
C3079 C3075 1.393 . S
C3079 C3078 1.391 . S
H3080 C3088 0.950 . S
H3081 C3093 0.950 . S
H3082 C3090 0.950 . S
H3083 C3092 0.950 . S
H3084 C3094 0.950 . S
H3085 C3096 0.950 . S
H3086 C3098 0.950 . S
H3087 C3099 0.950 . S
C3088 H3080 0.950 . S
C3088 C3089 1.386 . S
C3088 C3090 1.391 . S
C3089 C3088 1.386 . S
C3089 C3093 1.393 . S
C3090 H3082 0.950 . S
C3090 C3088 1.391 . S
C3090 C3091 1.400 . S
C3091 C3090 1.400 . S
C3091 C3092 1.398 . S
C3091 C3097 1.491 . S
C3092 H3083 0.950 . S
C3092 C3091 1.398 . S
C3092 C3093 1.391 . S
C3093 H3081 0.950 . S
C3093 C3089 1.393 . S
C3093 C3092 1.391 . S
C3094 H3084 0.950 . S
C3094 C3095 1.386 . S
C3094 C3096 1.391 . S
C3095 C3094 1.386 . S
C3095 C3099 1.393 . S
C3096 H3085 0.950 . S
C3096 C3094 1.391 . S
C3096 C3097 1.400 . S
C3097 C3091 1.491 . S
C3097 C3096 1.400 . S
C3097 C3098 1.398 . S
C3098 H3086 0.950 . S
C3098 C3097 1.398 . S
C3098 C3099 1.391 . S
C3099 H3087 0.950 . S
C3099 C3095 1.393 . S
C3099 C3098 1.391 . S
H3100 C3108 0.950 . S
H3101 C3113 0.950 . S
H3102 C3110 0.950 . S
H3103 C3112 0.950 . S
H3104 C3114 0.950 . S
H3105 C3116 0.950 . S
H3106 C3118 0.950 . S
H3107 C3119 0.950 . S
C3108 H3100 0.950 . S
C3108 C3109 1.386 . S
C3108 C3110 1.391 . S
C3109 C3108 1.386 . S
C3109 C3113 1.393 . S
C3110 H3102 0.950 . S
C3110 C3108 1.391 . S
C3110 C3111 1.400 . S
C3111 C3110 1.400 . S
C3111 C3112 1.398 . S
C3111 C3117 1.491 . S
C3112 H3103 0.950 . S
C3112 C3111 1.398 . S
C3112 C3113 1.391 . S
C3113 H3101 0.950 . S
C3113 C3109 1.393 . S
C3113 C3112 1.391 . S
C3114 H3104 0.950 . S
C3114 C3115 1.386 . S
C3114 C3116 1.391 . S
C3115 C3114 1.386 . S
C3115 C3119 1.393 . S
C3116 H3105 0.950 . S
C3116 C3114 1.391 . S
C3116 C3117 1.400 . S
C3117 C3111 1.491 . S
C3117 C3116 1.400 . S
C3117 C3118 1.398 . S
C3118 H3106 0.950 . S
C3118 C3117 1.398 . S
C3118 C3119 1.391 . S
C3119 H3107 0.950 . S
C3119 C3115 1.393 . S
C3119 C3118 1.391 . S
H3120 C3128 0.950 . S
H3121 C3133 0.950 . S
H3122 C3130 0.950 . S
H3123 C3132 0.950 . S
H3124 C3134 0.950 . S
H3125 C3136 0.950 . S
H3126 C3138 0.950 . S
H3127 C3139 0.950 . S
C3128 H3120 0.950 . S
C3128 C3129 1.386 . S
C3128 C3130 1.391 . S
C3129 C3128 1.386 . S
C3129 C3133 1.393 . S
C3130 H3122 0.950 . S
C3130 C3128 1.391 . S
C3130 C3131 1.400 . S
C3131 C3130 1.400 . S
C3131 C3132 1.398 . S
C3131 C3137 1.491 . S
C3132 H3123 0.950 . S
C3132 C3131 1.398 . S
C3132 C3133 1.391 . S
C3133 H3121 0.950 . S
C3133 C3129 1.393 . S
C3133 C3132 1.391 . S
C3134 H3124 0.950 . S
C3134 C3135 1.386 . S
C3134 C3136 1.391 . S
C3135 C3134 1.386 . S
C3135 C3139 1.393 . S
C3136 H3125 0.950 . S
C3136 C3134 1.391 . S
C3136 C3137 1.400 . S
C3137 C3131 1.491 . S
C3137 C3136 1.400 . S
C3137 C3138 1.398 . S
C3138 H3126 0.950 . S
C3138 C3137 1.398 . S
C3138 C3139 1.391 . S
C3139 H3127 0.950 . S
C3139 C3135 1.393 . S
C3139 C3138 1.391 . S
H3140 C3148 0.950 . S
H3141 C3153 0.950 . S
H3142 C3150 0.950 . S
H3143 C3152 0.950 . S
H3144 C3154 0.950 . S
H3145 C3156 0.950 . S
H3146 C3158 0.950 . S
H3147 C3159 0.950 . S
C3148 H3140 0.950 . S
C3148 C3149 1.386 . S
C3148 C3150 1.391 . S
C3149 C3148 1.386 . S
C3149 C3153 1.393 . S
C3150 H3142 0.950 . S
C3150 C3148 1.391 . S
C3150 C3151 1.400 . S
C3151 C3150 1.400 . S
C3151 C3152 1.398 . S
C3151 C3157 1.491 . S
C3152 H3143 0.950 . S
C3152 C3151 1.398 . S
C3152 C3153 1.391 . S
C3153 H3141 0.950 . S
C3153 C3149 1.393 . S
C3153 C3152 1.391 . S
C3154 H3144 0.950 . S
C3154 C3155 1.386 . S
C3154 C3156 1.391 . S
C3155 C3154 1.386 . S
C3155 C3159 1.393 . S
C3156 H3145 0.950 . S
C3156 C3154 1.391 . S
C3156 C3157 1.400 . S
C3157 C3151 1.491 . S
C3157 C3156 1.400 . S
C3157 C3158 1.398 . S
C3158 H3146 0.950 . S
C3158 C3157 1.398 . S
C3158 C3159 1.391 . S
C3159 H3147 0.950 . S
C3159 C3155 1.393 . S
C3159 C3158 1.391 . S
H3160 C3168 0.950 . S
H3161 C3173 0.950 . S
H3162 C3170 0.950 . S
H3163 C3172 0.950 . S
H3164 C3174 0.950 . S
H3165 C3176 0.950 . S
H3166 C3178 0.950 . S
H3167 C3179 0.950 . S
C3168 H3160 0.950 . S
C3168 C3169 1.386 . S
C3168 C3170 1.391 . S
C3169 C3168 1.386 . S
C3169 C3173 1.393 . S
C3170 H3162 0.950 . S
C3170 C3168 1.391 . S
C3170 C3171 1.400 . S
C3171 C3170 1.400 . S
C3171 C3172 1.398 . S
C3171 C3177 1.491 . S
C3172 H3163 0.950 . S
C3172 C3171 1.398 . S
C3172 C3173 1.391 . S
C3173 H3161 0.950 . S
C3173 C3169 1.393 . S
C3173 C3172 1.391 . S
C3174 H3164 0.950 . S
C3174 C3175 1.386 . S
C3174 C3176 1.391 . S
C3175 C3174 1.386 . S
C3175 C3179 1.393 . S
C3176 H3165 0.950 . S
C3176 C3174 1.391 . S
C3176 C3177 1.400 . S
C3177 C3171 1.491 . S
C3177 C3176 1.400 . S
C3177 C3178 1.398 . S
C3178 H3166 0.950 . S
C3178 C3177 1.398 . S
C3178 C3179 1.391 . S
C3179 H3167 0.950 . S
C3179 C3175 1.393 . S
C3179 C3178 1.391 . S
H3180 C3188 0.950 . S
H3181 C3193 0.950 . S
H3182 C3190 0.950 . S
H3183 C3192 0.950 . S
H3184 C3194 0.950 . S
H3185 C3196 0.950 . S
H3186 C3198 0.950 . S
H3187 C3199 0.950 . S
C3188 H3180 0.950 . S
C3188 C3189 1.386 . S
C3188 C3190 1.391 . S
C3189 C3188 1.386 . S
C3189 C3193 1.393 . S
C3190 H3182 0.950 . S
C3190 C3188 1.391 . S
C3190 C3191 1.400 . S
C3191 C3190 1.400 . S
C3191 C3192 1.398 . S
C3191 C3197 1.491 . S
C3192 H3183 0.950 . S
C3192 C3191 1.398 . S
C3192 C3193 1.391 . S
C3193 H3181 0.950 . S
C3193 C3189 1.393 . S
C3193 C3192 1.391 . S
C3194 H3184 0.950 . S
C3194 C3195 1.386 . S
C3194 C3196 1.391 . S
C3195 C3194 1.386 . S
C3195 C3199 1.393 . S
C3196 H3185 0.950 . S
C3196 C3194 1.391 . S
C3196 C3197 1.400 . S
C3197 C3191 1.491 . S
C3197 C3196 1.400 . S
C3197 C3198 1.398 . S
C3198 H3186 0.950 . S
C3198 C3197 1.398 . S
C3198 C3199 1.391 . S
C3199 H3187 0.950 . S
C3199 C3195 1.393 . S
C3199 C3198 1.391 . S
C1289 C6 1.081 . S
C1295 C139 1.039 . S
C1309 C19 1.056 . S
C1315 C46 1.094 . S
C1329 C86 1.080 . S
C1335 C59 1.043 . S
C1349 C99 1.018 . S
C1355 C126 1.063 1_565 S
C1369 C219 1.057 . S
C1375 C166 1.078 . S
C1389 C206 1.078 1_545 S
C1395 C259 1.029 . S
C1409 C299 1.022 . S
C1415 C246 1.084 . S
C1429 C179 1.019 . S
C1435 C286 1.058 1_565 S
C1449 C335 1.078 . S
C1455 C450 1.058 . S
C1469 C375 1.081 1_565 S
C1475 C330 1.032 . S
C1489 C415 1.078 . S
C1495 C370 1.056 . S
C1509 C455 1.094 . S
C1515 C410 1.057 . S
C1529 C495 1.082 . S
C1535 C530 1.035 . S
C1549 C535 1.087 . S
C1555 C570 1.047 . S
C1569 C610 1.034 . S
C1575 C575 1.082 . S
C1589 C490 1.020 . S
C1595 C615 1.066 1_545 S
C1609 C646 1.084 . S
C1615 C779 1.018 . S
C1629 C659 1.058 . S
C1635 C686 1.078 . S
C1649 C699 1.036 . S
C1655 C726 1.082 . S
C1669 C766 1.084 . S
C1675 C739 1.020 . S
C1689 C806 1.084 . S
C1695 C859 1.016 . S
C1709 C899 1.044 . S
C1715 C846 1.080 . S
C1729 C886 1.083 . S
C1735 C939 1.024 . S
C1749 C819 1.023 . S
C1755 C926 1.083 . S
C1769 C1090 1.028 . S
C1775 C975 1.082 . S
C1789 C970 1.024 . S
C1795 C1015 1.083 . S
C1809 C1055 1.081 . S
C1815 C1010 1.040 . S
C1829 C1050 1.034 . S
C1835 C1095 1.082 . S
C1849 C1170 1.024 . S
C1855 C1135 1.083 . S
C1869 C1210 1.047 . S
C1875 C1175 1.079 . S
C1889 C1250 1.050 . S
C1895 C1215 1.079 . S
C1909 C1255 1.078 . S
C1915 C1130 1.057 . S
C1929 C1086 1.591 . S
C1935 C9 1.529 . S
C1949 C49 1.546 . S
C1955 C326 1.622 . S
C1969 C89 1.554 . S
C1975 C1006 1.598 . S
C1989 C129 1.541 . S
C1995 C406 1.588 . S
C2009 C169 1.527 . S
C2015 C1166 1.586 . S
C2029 C566 1.589 . S
C2035 C209 1.527 . S
C2049 C1246 1.600 . S
C2055 C249 1.548 . S
C2069 C289 1.527 . S
C2075 C486 1.589 . S
C2089 C338 1.543 . S
C2095 C775 1.599 . S
C2109 C15 1.621 . S
C2115 C378 1.544 . S
C2129 C695 1.596 . S
C2135 C418 1.536 . S
C2149 C95 1.600 . S
C2155 C458 1.551 . S
C2169 C855 1.586 . S
C2175 C498 1.537 . S
C2189 C255 1.599 . S
C2195 C538 1.553 . S
C2209 C578 1.527 . S
C2215 C935 1.589 . S
C2229 C618 1.541 . S
C2235 C175 1.622 . S
C2249 C649 1.551 . S
C2255 C446 1.593 . S
C2269 C689 1.551 . S
C2275 C966 1.600 . S
C2289 C729 1.553 . S
C2295 C366 1.599 . S
C2309 C769 1.537 . S
C2315 C1046 1.624 . S
C2329 C809 1.552 . S
C2335 C526 1.595 . S
C2349 C849 1.552 . S
C2355 C1206 1.600 . S
C2369 C606 1.591 . S
C2375 C889 1.529 . S
C2389 C929 1.545 . S
C2395 C1126 1.590 . S
C2409 C135 1.594 . S
C2415 C978 1.551 . S
C2429 C655 1.585 . S
C2435 C1018 1.532 . S
C2449 C55 1.586 . S
C2455 C1058 1.535 . S
C2469 C735 1.599 . S
C2475 C1098 1.553 . S
C2489 C215 1.587 . S
C2495 C1138 1.527 . S
C2509 C1178 1.532 . S
C2515 C895 1.593 . S
C2529 C1218 1.527 . S
C2535 C295 1.586 . S
C2549 C815 1.596 . S
C2555 C1258 1.553 . S
C2569 C18 0.634 . S
C2575 C178 0.606 . S
C2589 C58 0.654 . S
C2595 C218 0.610 . S
C2609 C98 0.610 . S
C2615 C258 0.655 . S
C2629 C298 0.638 . S
C2635 C138 0.606 . S
C2649 C489 0.610 . S
C2655 C329 0.654 . S
C2669 C529 0.666 . S
C2675 C369 0.631 . S
C2689 C409 0.641 . S
C2695 C569 0.665 . S
C2709 C449 0.606 . S
C2715 C609 0.640 . S
C2729 C658 0.649 . S
C2735 C818 0.662 . S
C2749 C858 0.607 . S
C2755 C698 0.631 . S
C2769 C898 0.611 . S
C2775 C738 0.655 . S
C2789 C938 0.610 . S
C2795 C778 0.655 . S
C2809 C1129 0.666 . S
C2815 C969 0.633 . S
C2829 C1009 0.666 . S
C2835 C1169 0.631 . S
C2849 C1209 0.621 . S
C2855 C1049 0.663 . S
C2869 C1089 0.659 . S
C2875 C1249 0.654 . S
C2889 C290 2.737 . S
C2895 C10 2.735 . S
C2909 C50 2.738 . S
C2915 C170 2.738 . S
C2929 C90 2.738 . S
C2935 C210 2.737 . S
C2949 C250 2.734 . S
C2955 C130 2.735 . S
C2969 C339 2.734 . S
C2975 C619 2.735 . S
C2989 C499 2.736 . S
C2995 C379 2.735 . S
C3009 C539 2.738 . S
C3015 C419 2.737 . S
C3029 C459 2.737 . S
C3035 C579 2.738 . S
C3049 C650 2.734 . S
C3055 C930 2.735 . S
C3069 C810 2.736 . S
C3075 C690 2.738 . S
C3089 C850 2.734 . S
C3095 C730 2.736 . S
C3109 C890 2.735 . S
C3115 C770 2.734 . S
C3129 C979 2.738 . S
C3135 C1259 2.737 . S
C3149 C1139 2.738 . S
C3155 C1019 2.736 . S
C3169 C1059 2.738 . S
C3175 C1179 2.737 . S
C3189 C1219 2.736 . S
C3195 C1099 2.737 . S
