# Generated by pormake.
# Topology zfv, (5)-cn, num edge types: 1
# Building blocks:
#     Node 0, Type 0, BuildingBlock: XOMCOT_clean_sbu_0, # of connection points: 5
#     Node 1, Type 0, BuildingBlock: XOMCOT_clean_sbu_0, # of connection points: 5
#     Node 2, Type 0, BuildingBlock: XOMCOT_clean_sbu_0, # of connection points: 5
#     Node 3, Type 0, BuildingBlock: XOMCOT_clean_sbu_0, # of connection points: 5
#     Node 4, Type 0, BuildingBlock: XOMCOT_clean_sbu_0, # of connection points: 5
#     Node 5, Type 0, BuildingBlock: XOMCOT_clean_sbu_0, # of connection points: 5
#     Node 6, Type 0, BuildingBlock: XOMCOT_clean_sbu_0, # of connection points: 5
#     Node 7, Type 0, BuildingBlock: XOMCOT_clean_sbu_0, # of connection points: 5
#     Node 8, Type 0, BuildingBlock: XOMCOT_clean_sbu_0, # of connection points: 5
#     Node 9, Type 0, BuildingBlock: XOMCOT_clean_sbu_0, # of connection points: 5
#     Node 10, Type 0, BuildingBlock: XOMCOT_clean_sbu_0, # of connection points: 5
#     Node 11, Type 0, BuildingBlock: XOMCOT_clean_sbu_0, # of connection points: 5
#     Node 12, Type 0, BuildingBlock: XOMCOT_clean_sbu_0, # of connection points: 5
#     Node 13, Type 0, BuildingBlock: XOMCOT_clean_sbu_0, # of connection points: 5
#     Node 14, Type 0, BuildingBlock: XOMCOT_clean_sbu_0, # of connection points: 5
#     Node 15, Type 0, BuildingBlock: XOMCOT_clean_sbu_0, # of connection points: 5
#     Edge 16, Type (0, 0), BuildingBlock: TEMPAE_clean_linker_10, # of connection points: 2
#     Edge 17, Type (0, 0), BuildingBlock: TEMPAE_clean_linker_10, # of connection points: 2
#     Edge 18, Type (0, 0), BuildingBlock: TEMPAE_clean_linker_10, # of connection points: 2
#     Edge 19, Type (0, 0), BuildingBlock: TEMPAE_clean_linker_10, # of connection points: 2
#     Edge 20, Type (0, 0), BuildingBlock: TEMPAE_clean_linker_10, # of connection points: 2
#     Edge 21, Type (0, 0), BuildingBlock: TEMPAE_clean_linker_10, # of connection points: 2
#     Edge 22, Type (0, 0), BuildingBlock: TEMPAE_clean_linker_10, # of connection points: 2
#     Edge 23, Type (0, 0), BuildingBlock: TEMPAE_clean_linker_10, # of connection points: 2
#     Edge 24, Type (0, 0), BuildingBlock: TEMPAE_clean_linker_10, # of connection points: 2
#     Edge 25, Type (0, 0), BuildingBlock: TEMPAE_clean_linker_10, # of connection points: 2
#     Edge 26, Type (0, 0), BuildingBlock: TEMPAE_clean_linker_10, # of connection points: 2
#     Edge 27, Type (0, 0), BuildingBlock: TEMPAE_clean_linker_10, # of connection points: 2
#     Edge 28, Type (0, 0), BuildingBlock: TEMPAE_clean_linker_10, # of connection points: 2
#     Edge 29, Type (0, 0), BuildingBlock: TEMPAE_clean_linker_10, # of connection points: 2
#     Edge 30, Type (0, 0), BuildingBlock: TEMPAE_clean_linker_10, # of connection points: 2
#     Edge 31, Type (0, 0), BuildingBlock: TEMPAE_clean_linker_10, # of connection points: 2
#     Edge 32, Type (0, 0), BuildingBlock: TEMPAE_clean_linker_10, # of connection points: 2
#     Edge 33, Type (0, 0), BuildingBlock: TEMPAE_clean_linker_10, # of connection points: 2
#     Edge 34, Type (0, 0), BuildingBlock: TEMPAE_clean_linker_10, # of connection points: 2
#     Edge 35, Type (0, 0), BuildingBlock: TEMPAE_clean_linker_10, # of connection points: 2
#     Edge 36, Type (0, 0), BuildingBlock: TEMPAE_clean_linker_10, # of connection points: 2
#     Edge 37, Type (0, 0), BuildingBlock: TEMPAE_clean_linker_10, # of connection points: 2
#     Edge 38, Type (0, 0), BuildingBlock: TEMPAE_clean_linker_10, # of connection points: 2
#     Edge 39, Type (0, 0), BuildingBlock: TEMPAE_clean_linker_10, # of connection points: 2
#     Edge 40, Type (0, 0), BuildingBlock: TEMPAE_clean_linker_10, # of connection points: 2
#     Edge 41, Type (0, 0), BuildingBlock: TEMPAE_clean_linker_10, # of connection points: 2
#     Edge 42, Type (0, 0), BuildingBlock: TEMPAE_clean_linker_10, # of connection points: 2
#     Edge 43, Type (0, 0), BuildingBlock: TEMPAE_clean_linker_10, # of connection points: 2
#     Edge 44, Type (0, 0), BuildingBlock: TEMPAE_clean_linker_10, # of connection points: 2
#     Edge 45, Type (0, 0), BuildingBlock: TEMPAE_clean_linker_10, # of connection points: 2
#     Edge 46, Type (0, 0), BuildingBlock: TEMPAE_clean_linker_10, # of connection points: 2
#     Edge 47, Type (0, 0), BuildingBlock: TEMPAE_clean_linker_10, # of connection points: 2
#     Edge 48, Type (0, 0), BuildingBlock: TEMPAE_clean_linker_10, # of connection points: 2
#     Edge 49, Type (0, 0), BuildingBlock: TEMPAE_clean_linker_10, # of connection points: 2
#     Edge 50, Type (0, 0), BuildingBlock: TEMPAE_clean_linker_10, # of connection points: 2
#     Edge 51, Type (0, 0), BuildingBlock: TEMPAE_clean_linker_10, # of connection points: 2
#     Edge 52, Type (0, 0), BuildingBlock: TEMPAE_clean_linker_10, # of connection points: 2
#     Edge 53, Type (0, 0), BuildingBlock: TEMPAE_clean_linker_10, # of connection points: 2
#     Edge 54, Type (0, 0), BuildingBlock: TEMPAE_clean_linker_10, # of connection points: 2
#     Edge 55, Type (0, 0), BuildingBlock: TEMPAE_clean_linker_10, # of connection points: 2
# Relax obj value: 0.143
# Max RMSD: 0.143
# Mean RMSD: 0.143
data_MOF--net-zfv--node1-XOMCOT_clean_sbu_0--edge1-TEMPAE_clean_linker_10
_symmetry_space_group_name_H-M    P1
_symmetry_Int_Tables_number       1
_symmetry_cell_setting            triclinic
loop_
_symmetry_equiv_pos_as_xyz
'x, y, z'
_cell_length_a     77.378256
_cell_length_b     77.373671
_cell_length_c     17.890721
_cell_angle_alpha  90.081939
_cell_angle_beta   89.977845
_cell_angle_gamma 89.981131
loop_
_atom_site_label
_atom_site_type_symbol
_atom_site_fract_x
_atom_site_fract_y
_atom_site_fract_z
_atom_type_partial_charge
Co0 Co 0.06541 0.58726 0.05714 0.0
C1 C 0.06577 0.59044 0.89126 0.0
C2 C 0.09037 0.59608 0.94112 0.0
C3 C 0.09217 0.59668 0.86485 0.0
N4 N 0.07384 0.59226 0.95778 0.0
N5 N 0.07675 0.59302 0.83338 0.0
H6 H 0.05242 0.58647 0.88545 0.0
H7 H 0.10063 0.59753 0.98154 0.0
C8 C 0.07917 0.61921 0.13664 0.0
O9 O 0.06415 0.62205 0.16874 0.0
N10 N 0.05741 0.58165 0.1583 0.0
C11 C 0.04465 0.57043 0.17603 0.0
C12 C 0.04367 0.56874 0.25224 0.0
C13 C 0.06452 0.58594 0.22503 0.0
N14 N 0.05611 0.57855 0.28312 0.0
C15 C 0.03009 0.59827 0.05829 0.0
C16 C 0.0363 0.6328 0.03024 0.0
C17 C 0.02006 0.62777 0.05748 0.0
C18 C 0.01676 0.61016 0.06748 0.0
C19 C 0.04937 0.62038 0.02241 0.0
N20 N 0.04652 0.60364 0.04355 0.0
H21 H 0.02728 0.5848 0.06588 0.0
H22 H 0.06208 0.62444 1.00453 0.0
H23 H 0.03679 0.56335 0.13662 0.0
H24 H 0.07609 0.59356 0.23152 0.0
O25 O 0.05431 0.56676 0.01894 0.0
O26 O 0.08112 0.56791 0.06291 0.0
O27 O 0.08147 0.60583 0.09586 0.0
C28 C 0.06866 0.55873 0.03427 0.0
H29 H 0.10404 0.59923 0.83487 0.0
H30 H 0.03452 0.56082 0.28253 0.0
H31 H 0.03918 0.64628 0.0197 0.0
H32 H 0.00411 0.60569 0.08484 0.0
Co33 Co 0.70684 0.76737 0.31241 0.0
C34 C 0.70566 0.76844 0.1466 0.0
C35 C 0.70036 0.79322 0.19586 0.0
C36 C 0.69943 0.79481 0.11938 0.0
N37 N 0.70404 0.77667 0.2129 0.0
N38 N 0.70282 0.77927 0.0886 0.0
H39 H 0.70877 0.75486 0.14093 0.0
H40 H 0.6988 0.80352 0.2361 0.0
C41 C 0.6765 0.78323 0.39461 0.0
O42 O 0.67377 0.76852 0.42932 0.0
N43 N 0.71009 0.75825 0.41339 0.0
C44 C 0.71525 0.74216 0.43248 0.0
C45 C 0.71592 0.74087 0.50895 0.0
C46 C 0.70884 0.76683 0.47932 0.0
N47 N 0.71181 0.75633 0.53831 0.0
C48 C 0.69319 0.73319 0.28946 0.0
C49 C 0.65886 0.74276 0.28322 0.0
C50 C 0.66299 0.72538 0.297 0.0
C51 C 0.68044 0.72051 0.29442 0.0
C52 C 0.67215 0.75496 0.27774 0.0
N53 N 0.68891 0.75028 0.29074 0.0
H54 H 0.70653 0.72924 0.28736 0.0
H55 H 0.6688 0.76829 0.26747 0.0
H56 H 0.71894 0.73204 0.39436 0.0
H57 H 0.7055 0.78036 0.48434 0.0
O58 O 0.72686 0.75463 0.27886 0.0
O59 O 0.72743 0.78119 0.32572 0.0
O60 O 0.68923 0.78475 0.34943 0.0
C61 C 0.73588 0.76812 0.29787 0.0
H62 H 0.69691 0.80658 0.08858 0.0
H63 H 0.71946 0.7295 0.54071 0.0
H64 H 0.64557 0.7471 0.28103 0.0
H65 H 0.68424 0.70708 0.29896 0.0
Co66 Co 0.53069 0.40654 0.57335 0.0
C67 C 0.52592 0.40642 0.40609 0.0
C68 C 0.52594 0.38099 0.45379 0.0
C69 C 0.52466 0.37943 0.37742 0.0
N70 N 0.52689 0.39789 0.47212 0.0
N71 N 0.52462 0.3954 0.34761 0.0
H72 H 0.52679 0.42029 0.40007 0.0
H73 H 0.52657 0.37044 0.49333 0.0
C74 C 0.49726 0.38982 0.58294 0.0
O75 O 0.49247 0.40182 0.53538 0.0
N76 N 0.53496 0.41486 0.67425 0.0
C77 C 0.54993 0.42217 0.69584 0.0
C78 C 0.54969 0.42445 0.77178 0.0
C79 C 0.52576 0.41272 0.738 0.0
N80 N 0.53453 0.41851 0.79891 0.0
C81 C 0.56214 0.38797 0.54204 0.0
C82 C 0.56012 0.36676 0.66639 0.0
C83 C 0.5744 0.36536 0.61897 0.0
C84 C 0.57531 0.37593 0.55549 0.0
C85 C 0.54714 0.37861 0.65014 0.0
N86 N 0.54829 0.3891 0.58903 0.0
H87 H 0.56303 0.39646 0.49421 0.0
H88 H 0.53632 0.37962 0.68802 0.0
H89 H 0.56075 0.42482 0.65935 0.0
H90 H 0.51324 0.40652 0.73997 0.0
O91 O 0.5447 0.4253 0.53471 0.0
O92 O 0.51645 0.42655 0.55509 0.0
O93 O 0.51254 0.39012 0.60952 0.0
C94 C 0.53055 0.43442 0.53509 0.0
H95 H 0.52402 0.36748 0.34599 0.0
H96 H 0.56042 0.4292 0.8047 0.0
H97 H 0.55902 0.35874 0.71578 0.0
H98 H 0.58626 0.37517 0.51788 0.0
Co99 Co 0.89176 0.22824 0.81128 0.0
C100 C 0.89296 0.22721 0.64533 0.0
C101 C 0.89765 0.20232 0.69432 0.0
C102 C 0.8985 0.20068 0.61785 0.0
N103 N 0.89441 0.21896 0.71154 0.0
N104 N 0.89549 0.2163 0.5872 0.0
H105 H 0.89016 0.24086 0.63981 0.0
H106 H 0.89899 0.19198 0.73446 0.0
C107 C 0.92093 0.21031 0.89524 0.0
O108 O 0.92428 0.22413 0.93546 0.0
N109 N 0.8887 0.23736 0.91238 0.0
C110 C 0.88472 0.25378 0.93161 0.0
C111 C 0.88397 0.25508 1.00804 0.0
C112 C 0.88917 0.22868 0.97812 0.0
N113 N 0.88688 0.23935 0.03725 0.0
C114 C 0.90598 0.26205 0.78603 0.0
C115 C 0.94026 0.25224 0.78999 0.0
C116 C 0.93611 0.26975 0.7999 0.0
C117 C 0.91875 0.2747 0.7924 0.0
C118 C 0.92698 0.24007 0.78318 0.0
N119 N 0.9101 0.24495 0.79071 0.0
H120 H 0.89269 0.26607 0.78101 0.0
H121 H 0.93041 0.22668 0.77528 0.0
H122 H 0.88203 0.26419 0.89357 0.0
H123 H 0.89161 0.21496 0.98291 0.0
O124 O 0.87195 0.2414 0.7783 0.0
O125 O 0.871 0.21478 0.82408 0.0
O126 O 0.90874 0.21031 0.84716 0.0
C127 C 0.86275 0.22799 0.79676 0.0
H128 H 0.90069 0.18884 0.58696 0.0
H129 H 0.88131 0.26669 0.0399 0.0
H130 H 0.95353 0.24781 0.79167 0.0
H131 H 0.915 0.28818 0.79431 0.0
Co132 Co 0.06768 0.40031 0.9641 0.0
C133 C 0.06871 0.39781 0.13004 0.0
C134 C 0.09373 0.39492 0.07948 0.0
C135 C 0.0957 0.39476 0.15578 0.0
N136 N 0.07684 0.39677 0.06333 0.0
N137 N 0.08 0.39667 0.18765 0.0
H138 H 0.05499 0.40016 0.13616 0.0
H139 H 0.10399 0.39445 0.03856 0.0
C140 C 0.0829 0.36923 0.88374 0.0
O141 O 0.06819 0.3662 0.84942 0.0
N142 N 0.05884 0.40443 0.86313 0.0
C143 C 0.04436 0.41326 0.84502 0.0
C144 C 0.04336 0.41492 0.76876 0.0
C145 C 0.06684 0.40163 0.79679 0.0
N146 N 0.05744 0.40752 0.73836 0.0
C147 C 0.03293 0.38773 0.97669 0.0
C148 C 0.04137 0.35324 0.99209 0.0
C149 C 0.02438 0.35769 0.97234 0.0
C150 C 0.02002 0.37527 0.96995 0.0
C151 C 0.05386 0.36625 0.99919 0.0
N152 N 0.04984 0.38302 0.98292 0.0
H153 H 0.02936 0.40114 0.97413 0.0
H154 H 0.06698 0.36265 1.01278 0.0
H155 H 0.03541 0.41898 0.88407 0.0
H156 H 0.07959 0.39608 0.79107 0.0
O157 O 0.05574 0.42068 0.99942 0.0
O158 O 0.08234 0.42031 0.95284 0.0
O159 O 0.08449 0.38229 0.92698 0.0
C160 C 0.06962 0.42919 0.98108 0.0
H161 H 0.10783 0.39365 0.18553 0.0
H162 H 0.0331 0.42124 0.73808 0.0
H163 H 0.04526 0.33986 0.99752 0.0
H164 H 0.00683 0.37938 0.96005 0.0
Co165 Co 0.89419 0.76518 0.21116 0.0
C166 C 0.89682 0.76526 0.3791 0.0
C167 C 0.9001 0.79032 0.33031 0.0
C168 C 0.90115 0.79201 0.40652 0.0
N169 N 0.89798 0.77348 0.31259 0.0
N170 N 0.89905 0.77628 0.43697 0.0
H171 H 0.89391 0.75173 0.38591 0.0
H172 H 0.90044 0.8008 0.29041 0.0
C173 C 0.92691 0.78465 0.20562 0.0
O174 O 0.93176 0.7749 0.26189 0.0
N175 N 0.88987 0.75725 0.1105 0.0
C176 C 0.88563 0.74089 0.09213 0.0
C177 C 0.88556 0.73938 0.01566 0.0
C178 C 0.89207 0.76561 0.04502 0.0
N179 N 0.8896 0.75488 0.98629 0.0
C180 C 0.90945 0.73303 0.26408 0.0
C181 C 0.93635 0.73317 0.16208 0.0
C182 C 0.93467 0.71917 0.21041 0.0
C183 C 0.92091 0.71896 0.26133 0.0
C184 C 0.92445 0.74658 0.16522 0.0
N185 N 0.91168 0.74698 0.21824 0.0
H186 H 0.89829 0.7322 0.29988 0.0
H187 H 0.92523 0.75642 0.12266 0.0
H188 H 0.8834 0.7306 0.13181 0.0
H189 H 0.89612 0.77895 0.04036 0.0
O190 O 0.87412 0.75252 0.24485 0.0
O191 O 0.87398 0.77975 0.20591 0.0
O192 O 0.91206 0.78251 0.17514 0.0
C193 C 0.86536 0.76655 0.23129 0.0
H194 H 0.90265 0.80396 0.43743 0.0
H195 H 0.88301 0.72773 0.9839 0.0
H196 H 0.94635 0.73337 0.11964 0.0
H197 H 0.91884 0.70792 0.2974 0.0
Co198 Co 0.53322 0.59231 0.44375 0.0
C199 C 0.53183 0.59426 0.60984 0.0
C200 C 0.50671 0.59522 0.5589 0.0
C201 C 0.50465 0.5952 0.63517 0.0
N202 N 0.5237 0.59468 0.54303 0.0
N203 N 0.52041 0.59452 0.66725 0.0
H204 H 0.54569 0.59308 0.61617 0.0
H205 H 0.49649 0.59507 0.51772 0.0
C206 C 0.51644 0.62298 0.36637 0.0
O207 O 0.53082 0.62662 0.33054 0.0
N208 N 0.54242 0.58942 0.34269 0.0
C209 C 0.55768 0.5821 0.32392 0.0
C210 C 0.55873 0.58063 0.24759 0.0
C211 C 0.5341 0.59153 0.27669 0.0
N212 N 0.54394 0.58663 0.21782 0.0
C213 C 0.56728 0.60614 0.46302 0.0
C214 C 0.55755 0.64034 0.47568 0.0
C215 C 0.57484 0.63643 0.45882 0.0
C216 C 0.57982 0.619 0.45807 0.0
C217 C 0.54546 0.62693 0.48123 0.0
N218 N 0.55018 0.61028 0.4659 0.0
H219 H 0.57134 0.59284 0.46161 0.0
H220 H 0.53215 0.63011 0.49329 0.0
H221 H 0.56719 0.57721 0.36248 0.0
H222 H 0.52087 0.59588 0.27164 0.0
O223 O 0.54609 0.57231 0.47644 0.0
O224 O 0.51961 0.57167 0.42885 0.0
O225 O 0.51558 0.60977 0.40899 0.0
C226 C 0.53271 0.56325 0.45634 0.0
H227 H 0.49245 0.59545 0.66477 0.0
H228 H 0.56951 0.57535 0.21643 0.0
H229 H 0.55316 0.65359 0.48011 0.0
H230 H 0.59322 0.61532 0.45068 0.0
Co231 Co 0.70401 0.23067 0.73187 0.0
C232 C 0.70343 0.22924 0.89782 0.0
C233 C 0.69864 0.20444 0.8478 0.0
C234 C 0.69797 0.20267 0.92427 0.0
N235 N 0.70185 0.22111 0.83125 0.0
N236 N 0.70102 0.21822 0.95559 0.0
H237 H 0.70615 0.24289 0.90385 0.0
H238 H 0.69717 0.19421 0.80717 0.0
C239 C 0.67388 0.21444 0.6486 0.0
O240 O 0.67115 0.22888 0.61182 0.0
N241 N 0.70651 0.24009 0.63118 0.0
C242 C 0.70935 0.25672 0.61201 0.0
C243 C 0.70996 0.25802 0.53552 0.0
C244 C 0.70641 0.23136 0.56541 0.0
N245 N 0.70801 0.24211 0.50623 0.0
C246 C 0.69176 0.26467 0.76845 0.0
C247 C 0.65694 0.25719 0.76282 0.0
C248 C 0.66216 0.27458 0.76066 0.0
C249 C 0.67982 0.27817 0.76924 0.0
C250 C 0.66942 0.2441 0.76397 0.0
N251 N 0.68656 0.24803 0.75727 0.0
H252 H 0.7053 0.2678 0.77281 0.0
H253 H 0.66513 0.23089 0.76745 0.0
H254 H 0.71125 0.26733 0.65006 0.0
H255 H 0.70462 0.21753 0.56078 0.0
O256 O 0.72446 0.24301 0.76285 0.0
O257 O 0.72428 0.21659 0.71472 0.0
O258 O 0.68613 0.21347 0.69636 0.0
C259 C 0.73312 0.22944 0.74199 0.0
H260 H 0.69579 0.19077 0.95465 0.0
H261 H 0.71184 0.26976 0.50368 0.0
H262 H 0.64345 0.25359 0.75993 0.0
H263 H 0.68448 0.29132 0.7736 0.0
Co264 Co 0.39495 0.26444 0.71276 0.0
C265 C 0.39727 0.26573 0.87866 0.0
C266 C 0.39813 0.29091 0.8284 0.0
C267 C 0.39809 0.29287 0.90476 0.0
N268 N 0.39766 0.27393 0.81204 0.0
N269 N 0.39748 0.27706 0.93643 0.0
H270 H 0.39607 0.25186 0.88461 0.0
H271 H 0.39781 0.30119 0.78759 0.0
C272 C 0.42445 0.28224 0.63134 0.0
O273 O 0.42892 0.2678 0.59765 0.0
N274 N 0.39166 0.25519 0.61184 0.0
C275 C 0.38435 0.23989 0.59368 0.0
C276 C 0.38279 0.2387 0.51737 0.0
C277 C 0.39364 0.2634 0.54551 0.0
N278 N 0.38873 0.25345 0.48703 0.0
C279 C 0.41039 0.23081 0.72803 0.0
C280 C 0.44401 0.24232 0.74273 0.0
C281 C 0.44103 0.22484 0.72669 0.0
C282 C 0.42394 0.21893 0.72398 0.0
C283 C 0.42999 0.25368 0.74798 0.0
N284 N 0.41363 0.24811 0.73232 0.0
H285 H 0.39733 0.22611 0.72512 0.0
H286 H 0.43245 0.26713 0.76022 0.0
H287 H 0.37959 0.23041 0.63273 0.0
H288 H 0.39788 0.27664 0.53984 0.0
O289 O 0.37546 0.25103 0.74781 0.0
O290 O 0.374 0.27753 0.70077 0.0
O291 O 0.41147 0.28262 0.67542 0.0
C292 C 0.36601 0.26428 0.72913 0.0
H293 H 0.39822 0.30504 0.93468 0.0
H294 H 0.37754 0.22785 0.48661 0.0
H295 H 0.45704 0.24724 0.74859 0.0
H296 H 0.42106 0.2054 0.7144 0.0
Co297 Co 0.20334 0.72619 0.21806 0.0
C298 C 0.20214 0.72513 0.38394 0.0
C299 C 0.19711 0.70032 0.33446 0.0
C300 C 0.19618 0.69868 0.41091 0.0
N301 N 0.2006 0.71692 0.31759 0.0
N302 N 0.19939 0.71424 0.44183 0.0
H303 H 0.20512 0.73873 0.38973 0.0
H304 H 0.1957 0.69003 0.29408 0.0
C305 C 0.17265 0.71057 0.13644 0.0
O306 O 0.17016 0.72507 0.09983 0.0
N307 N 0.20648 0.73525 0.11703 0.0
C308 C 0.21135 0.75141 0.09769 0.0
C309 C 0.21197 0.75265 0.02121 0.0
C310 C 0.20531 0.72661 0.05126 0.0
N311 N 0.20809 0.73711 0.99209 0.0
C312 C 0.19088 0.76065 0.2444 0.0
C313 C 0.15616 0.75254 0.2453 0.0
C314 C 0.1611 0.76979 0.23388 0.0
C315 C 0.17871 0.77389 0.23924 0.0
C316 C 0.16888 0.73974 0.25105 0.0
N317 N 0.18591 0.74377 0.24063 0.0
H318 H 0.20436 0.76403 0.24785 0.0
H319 H 0.1649 0.72654 0.25987 0.0
H320 H 0.21481 0.76164 0.13561 0.0
H321 H 0.20209 0.71304 0.04654 0.0
O322 O 0.22376 0.73843 0.25042 0.0
O323 O 0.22359 0.71188 0.20353 0.0
O324 O 0.18526 0.70917 0.18227 0.0
C325 C 0.23242 0.72474 0.23092 0.0
H326 H 0.19378 0.68687 0.4416 0.0
H327 H 0.21527 0.76406 0.98925 0.0
H328 H 0.14269 0.74878 0.24545 0.0
H329 H 0.1831 0.78716 0.23643 0.0
Co330 Co 0.20745 0.26328 0.79974 0.0
C331 C 0.20678 0.26465 0.6339 0.0
C332 C 0.20073 0.28921 0.68356 0.0
C333 C 0.19989 0.29087 0.60707 0.0
N334 N 0.20484 0.27274 0.70036 0.0
N335 N 0.20375 0.27546 0.57604 0.0
H336 H 0.21017 0.25114 0.62801 0.0
H337 H 0.19872 0.29939 0.72396 0.0
C338 C 0.17701 0.27872 0.882 0.0
O339 O 0.17433 0.26386 0.91559 0.0
N340 N 0.21047 0.254 0.90061 0.0
C341 C 0.2153 0.23781 0.9197 0.0
C342 C 0.21601 0.23653 0.99618 0.0
C343 C 0.20941 0.26261 0.96654 0.0
N344 N 0.21222 0.25207 0.0256 0.0
C345 C 0.19417 0.22913 0.77333 0.0
C346 C 0.15977 0.2384 0.76664 0.0
C347 C 0.16406 0.22099 0.77866 0.0
C348 C 0.18155 0.2163 0.77624 0.0
C349 C 0.17293 0.25076 0.76313 0.0
N350 N 0.1897 0.24616 0.77639 0.0
H351 H 0.20756 0.22532 0.77154 0.0
H352 H 0.16946 0.26411 0.7541 0.0
H353 H 0.21874 0.2276 0.88162 0.0
H354 H 0.20631 0.2762 0.97146 0.0
O355 O 0.22755 0.25066 0.76682 0.0
O356 O 0.22791 0.27715 0.81459 0.0
O357 O 0.18971 0.28046 0.83684 0.0
C358 C 0.23647 0.26413 0.78687 0.0
H359 H 0.19704 0.30259 0.57645 0.0
H360 H 0.21936 0.2251 0.02789 0.0
H361 H 0.14643 0.24261 0.76446 0.0
H362 H 0.18548 0.20289 0.77962 0.0
Co363 Co 0.39098 0.72786 0.30788 0.0
C364 C 0.39263 0.72738 0.14212 0.0
C365 C 0.40064 0.70321 0.18977 0.0
C366 C 0.40185 0.70198 0.11325 0.0
N367 N 0.39507 0.71918 0.20792 0.0
N368 N 0.39675 0.71713 0.0835 0.0
H369 H 0.38798 0.74053 0.13721 0.0
H370 H 0.4033 0.693 0.2291 0.0
C371 C 0.42167 0.71268 0.39068 0.0
O372 O 0.42432 0.72745 0.42521 0.0
N373 N 0.38643 0.7364 0.40905 0.0
C374 C 0.37891 0.75159 0.42759 0.0
C375 C 0.37799 0.75297 0.50398 0.0
C376 C 0.38882 0.72826 0.47529 0.0
N377 N 0.38429 0.73835 0.53387 0.0
C378 C 0.40386 0.76269 0.29585 0.0
C379 C 0.43835 0.75394 0.2848 0.0
C380 C 0.43396 0.77102 0.30348 0.0
C381 C 0.41639 0.77553 0.30362 0.0
C382 C 0.42528 0.74157 0.27651 0.0
N383 N 0.40845 0.74572 0.29126 0.0
H384 H 0.39046 0.7664 0.29566 0.0
H385 H 0.42887 0.72843 0.26312 0.0
H386 H 0.37379 0.76095 0.38893 0.0
H387 H 0.3939 0.71531 0.48102 0.0
O388 O 0.37073 0.73994 0.27213 0.0
O389 O 0.37092 0.71317 0.31629 0.0
O390 O 0.40886 0.71096 0.34613 0.0
C391 C 0.36213 0.72598 0.28849 0.0
H392 H 0.4057 0.69067 0.08167 0.0
H393 H 0.37278 0.76376 0.53532 0.0
H394 H 0.45171 0.74988 0.2808 0.0
H395 H 0.41233 0.78879 0.31202 0.0
Co396 Co 0.56691 0.09055 0.56208 0.0
C397 C 0.56828 0.09267 0.39619 0.0
C398 C 0.59332 0.09506 0.44692 0.0
C399 C 0.59533 0.09509 0.37056 0.0
N400 N 0.57639 0.09358 0.46296 0.0
N401 N 0.57961 0.09352 0.33861 0.0
H402 H 0.5545 0.0907 0.39002 0.0
H403 H 0.60356 0.09549 0.48795 0.0
C404 C 0.58256 0.12113 0.64219 0.0
O405 O 0.56757 0.12436 0.67384 0.0
N406 N 0.55776 0.08687 0.66299 0.0
C407 C 0.54306 0.07841 0.68109 0.0
C408 C 0.54201 0.07674 0.75739 0.0
C409 C 0.56583 0.08939 0.72939 0.0
N410 N 0.55628 0.08374 0.78782 0.0
C411 C 0.53292 0.10565 0.55169 0.0
C412 C 0.54411 0.13903 0.52605 0.0
C413 C 0.52689 0.13627 0.54715 0.0
C414 C 0.52107 0.11925 0.55543 0.0
C415 C 0.55542 0.12497 0.52139 0.0
N416 N 0.55012 0.10882 0.5423 0.0
H417 H 0.52829 0.09267 0.55887 0.0
H418 H 0.56874 0.12728 0.5063 0.0
H419 H 0.53398 0.07291 0.64195 0.0
H420 H 0.57875 0.09451 0.73515 0.0
O421 O 0.554 0.07082 0.52637 0.0
O422 O 0.58049 0.0698 0.57373 0.0
O423 O 0.5844 0.10788 0.60005 0.0
C424 C 0.56739 0.06159 0.54498 0.0
H425 H 0.60749 0.09598 0.34084 0.0
H426 H 0.5316 0.07066 0.78805 0.0
H427 H 0.54893 0.15197 0.51613 0.0
H428 H 0.50771 0.11651 0.56908 0.0
Co429 Co 0.03437 0.90535 0.07264 0.0
C430 C 0.0333 0.90326 0.90657 0.0
C431 C 0.00833 0.89988 0.95701 0.0
C432 C 0.00635 0.89988 0.88069 0.0
N433 N 0.02519 0.90198 0.97325 0.0
N434 N 0.02201 0.90208 0.84895 0.0
H435 H 0.04699 0.90577 0.90049 0.0
H436 H -0.00192 0.89901 0.99793 0.0
C437 C 0.01831 0.8752 0.1552 0.0
O438 O 0.03273 0.87219 0.19169 0.0
N439 N 0.04324 0.90931 0.17373 0.0
C440 C 0.05821 0.91725 0.19214 0.0
C441 C 0.05911 0.91912 0.2684 0.0
C442 C 0.03489 0.90732 0.23977 0.0
N443 N 0.0445 0.91275 0.29838 0.0
C444 C 0.0688 0.89173 0.05887 0.0
C445 C 0.05921 0.85748 0.04577 0.0
C446 C 0.07641 0.86143 0.06407 0.0
C447 C 0.08134 0.87887 0.06547 0.0
C448 C 0.04713 0.87085 0.0389 0.0
N449 N 0.05173 0.88755 0.05388 0.0
H450 H 0.07279 0.90504 0.06032 0.0
H451 H 0.03388 0.86762 0.0261 0.0
H452 H 0.06761 0.92225 0.15331 0.0
H453 H 0.0218 0.90261 0.24509 0.0
O454 O 0.04679 0.92547 0.0379 0.0
O455 O 0.02015 0.92559 0.08413 0.0
O456 O 0.01716 0.88778 0.1094 0.0
C457 C 0.03308 0.93424 0.05656 0.0
H458 H 0.99425 0.89862 0.85079 0.0
H459 H 0.0697 0.92481 0.29937 0.0
H460 H 0.05486 0.84423 0.04118 0.0
H461 H 0.09468 0.88256 0.07428 0.0
Co462 Co 0.56466 0.90294 0.46633 0.0
C463 C 0.56571 0.90048 0.63229 0.0
C464 C 0.59081 0.89828 0.5818 0.0
C465 C 0.59278 0.89819 0.65809 0.0
N466 N 0.57388 0.89966 0.5656 0.0
N467 N 0.57703 0.89966 0.68991 0.0
H468 H 0.55193 0.90245 0.63839 0.0
H469 H 0.60109 0.89809 0.54091 0.0
C470 C 0.58095 0.87233 0.3858 0.0
O471 O 0.56641 0.86887 0.35089 0.0
N472 N 0.55574 0.90678 0.36537 0.0
C473 C 0.54089 0.91497 0.34721 0.0
C474 C 0.53985 0.9166 0.27094 0.0
C475 C 0.56386 0.90432 0.29909 0.0
N476 N 0.55425 0.90981 0.24063 0.0
C477 C 0.53023 0.88961 0.48057 0.0
C478 C 0.53933 0.85522 0.49225 0.0
C479 C 0.52216 0.85944 0.47434 0.0
C480 C 0.5175 0.87696 0.47397 0.0
C481 C 0.55161 0.86842 0.49966 0.0
N482 N 0.54724 0.88519 0.48506 0.0
H483 H 0.5264 0.90297 0.47938 0.0
H484 H 0.56482 0.86499 0.51236 0.0
H485 H 0.53167 0.92025 0.38622 0.0
H486 H 0.57682 0.89927 0.29347 0.0
O487 O 0.55217 0.92303 0.50149 0.0
O488 O 0.57877 0.92336 0.45517 0.0
O489 O 0.58202 0.88539 0.42939 0.0
C490 C 0.56582 0.93192 0.48334 0.0
H491 H 0.60493 0.89742 0.68787 0.0
H492 H 0.52933 0.92246 0.24019 0.0
H493 H 0.5435 0.8419 0.49625 0.0
H494 H 0.5042 0.8809 0.46587 0.0
Co495 Co 0.03175 0.09211 0.97158 0.0
C496 C 0.03215 0.09656 0.1369 0.0
C497 C 0.00731 0.10238 0.08998 0.0
C498 C 0.00612 0.1035 0.16638 0.0
N499 N 0.02362 0.09807 0.07113 0.0
N500 N 0.02167 0.0997 0.19613 0.0
H501 H 0.04546 0.09238 0.14139 0.0
H502 H -0.00332 0.10391 0.05172 0.0
C503 C -9e-05 0.10682 0.90634 0.0
O504 O 0.99363 0.09106 0.90535 0.0
N505 N 0.03986 0.086 0.87132 0.0
C506 C 0.05184 0.07392 0.85439 0.0
C507 C 0.05379 0.07306 0.7782 0.0
C508 C 0.03479 0.0924 0.80428 0.0
N509 N 0.04303 0.08461 0.74645 0.0
C510 C 0.06629 0.10474 0.96885 0.0
C511 C 0.0578 0.13948 0.96947 0.0
C512 C 0.07483 0.13458 0.95252 0.0
C513 C 0.07915 0.11699 0.95579 0.0
C514 C 0.04534 0.12678 0.98273 0.0
N515 N 0.04951 0.10967 0.9778 0.0
H516 H 0.06968 0.09121 0.96788 0.0
H517 H 0.03219 0.13076 0.99363 0.0
H518 H 0.05883 0.06614 0.89432 0.0
H519 H 0.02509 0.1023 0.79741 0.0
O520 O 0.04412 0.07269 1.01378 0.0
O521 O 0.0172 0.07182 0.97188 0.0
O522 O 0.01536 0.10947 0.92798 0.0
C523 C 0.03024 0.06368 1.0011 0.0
H524 H 0.99453 0.10649 0.1977 0.0
H525 H 0.06261 0.06462 0.74857 0.0
H526 H 0.0539 0.15292 0.96859 0.0
H527 H 0.09226 0.11266 0.94575 0.0
C528 C 0.05719 0.59477 0.72419 0.0
C529 C 0.07343 0.59089 0.7545 0.0
C530 C 0.05409 0.59315 0.64696 0.0
C531 C 0.06752 0.58734 0.59916 0.0
C532 C 0.08387 0.58323 0.62968 0.0
C533 C 0.08662 0.58508 0.70674 0.0
C534 C 0.0365 0.59772 0.61644 0.0
C535 C 0.09847 0.57677 0.58095 0.0
C536 C 0.05591 0.56716 0.41195 0.0
C537 C 0.05948 0.58065 0.36194 0.0
C538 C 0.05836 0.56921 0.48918 0.0
C539 C 0.06445 0.58518 0.51739 0.0
C540 C 0.06814 0.59885 0.46723 0.0
C541 C 0.06569 0.5964 0.39006 0.0
C542 C 0.05452 0.55422 0.54057 0.0
C543 C 0.0746 0.6161 0.49513 0.0
H544 H 0.04701 0.59938 0.76072 0.0
H545 H 0.09911 0.58172 0.72985 0.0
H546 H 0.03774 0.60802 0.5737 0.0
H547 H 0.03072 0.5863 0.58841 0.0
H548 H 0.02751 0.60223 0.66079 0.0
H549 H 0.11044 0.57422 0.61337 0.0
H550 H 0.09455 0.56467 0.55231 0.0
H551 H 0.10143 0.58641 0.53693 0.0
H552 H 0.05134 0.55489 0.39052 0.0
H553 H 0.06825 0.60692 0.35177 0.0
H554 H 0.04469 0.55806 0.58258 0.0
H555 H 0.06638 0.55053 0.57157 0.0
H556 H 0.04971 0.5427 0.50981 0.0
H557 H 0.06523 0.62165 0.53557 0.0
H558 H 0.07657 0.62551 0.44904 0.0
H559 H 0.08702 0.61438 0.52516 0.0
C560 C 0.69145 0.78251 0.96091 0.0
C561 C 0.70372 0.7755 1.00986 0.0
C562 C 0.69244 0.77957 0.88354 0.0
C563 C 0.70634 0.76977 0.85412 0.0
C564 C 0.71884 0.76274 0.90343 0.0
C565 C 0.71724 0.7655 0.98088 0.0
C566 C 0.67856 0.78686 0.83336 0.0
C567 C 0.73404 0.75252 0.87427 0.0
C568 C 0.70169 0.74834 0.6638 0.0
C569 C 0.71001 0.76017 0.61669 0.0
C570 C 0.70017 0.75144 0.74082 0.0
C571 C 0.70756 0.76656 0.77198 0.0
C572 C 0.71601 0.77857 0.72454 0.0
C573 C 0.71691 0.77534 0.64716 0.0
C574 C 0.6906 0.73856 0.78879 0.0
C575 C 0.72436 0.79466 0.75575 0.0
H576 H 0.68093 0.79015 0.98356 0.0
H577 H 0.72683 0.76028 0.01875 0.0
H578 H 0.68435 0.7959 0.79236 0.0
H579 H 0.67238 0.77627 0.80112 0.0
H580 H 0.66839 0.79384 0.86526 0.0
H581 H 0.74293 0.74842 0.91968 0.0
H582 H 0.72942 0.74083 0.84438 0.0
H583 H 0.74141 0.76039 0.83344 0.0
H584 H 0.69618 0.7367 0.6399 0.0
H585 H 0.72345 0.78439 0.61065 0.0
H586 H 0.67997 0.74511 0.81937 0.0
H587 H 0.69946 0.73303 0.83122 0.0
H588 H 0.68504 0.72779 0.75543 0.0
H589 H 0.71455 0.80275 0.78441 0.0
H590 H 0.73069 0.80253 0.71167 0.0
H591 H 0.7342 0.79105 0.79808 0.0
C592 C 0.51386 0.41249 0.24068 0.0
C593 C 0.52462 0.3995 0.26907 0.0
C594 C 0.51341 0.41609 0.16351 0.0
C595 C 0.5244 0.40685 0.11411 0.0
C596 C 0.53543 0.39385 0.14304 0.0
C597 C 0.5352 0.39018 0.21988 0.0
C598 C 0.50114 0.42971 0.13478 0.0
C599 C 0.54775 0.38404 0.09308 0.0
C600 C 0.51816 0.40463 0.9026 0.0
C601 C 0.53015 0.41696 0.87749 0.0
C602 C 0.51545 0.40181 0.97958 0.0
C603 C 0.52518 0.41129 0.03284 0.0
C604 C 0.53674 0.42421 1.00792 0.0
C605 C 0.53885 0.42706 0.931 0.0
C606 C 0.50265 0.38822 1.00385 0.0
C607 C 0.54758 0.43448 0.06239 0.0
H608 H 0.50556 0.41955 0.27878 0.0
H609 H 0.54361 0.38023 0.24208 0.0
H610 H 0.50852 0.44048 0.10926 0.0
H611 H 0.49279 0.42416 0.09041 0.0
H612 H 0.49279 0.43505 0.17974 0.0
H613 H 0.55553 0.3744 0.12441 0.0
H614 H 0.54049 0.37722 0.04851 0.0
H615 H 0.5567 0.39321 0.06522 0.0
H616 H 0.51132 0.39673 0.86239 0.0
H617 H 0.54773 0.437 0.9129 0.0
H618 H 0.49405 0.39341 0.04816 0.0
H619 H 0.50966 0.37702 0.02786 0.0
H620 H 0.49458 0.38355 0.95662 0.0
H621 H 0.53922 0.44088 0.1045 0.0
H622 H 0.5555 0.44452 0.0342 0.0
H623 H 0.55638 0.42565 0.09301 0.0
C624 C 0.88148 0.23058 0.47989 0.0
C625 C 0.89461 0.22003 0.50847 0.0
C626 C 0.87987 0.23333 0.40249 0.0
C627 C 0.89196 0.2257 0.3528 0.0
C628 C 0.90545 0.21532 0.38176 0.0
C629 C 0.90647 0.21244 0.45912 0.0
C630 C 0.86511 0.24422 0.3738 0.0
C631 C 0.9189 0.20735 0.33113 0.0
C632 C 0.8809 0.22064 0.14604 0.0
C633 C 0.88852 0.23544 0.11558 0.0
C634 C 0.88173 0.21737 0.22337 0.0
C635 C 0.8908 0.22896 0.27074 0.0
C636 C 0.8989 0.24368 0.23959 0.0
C637 C 0.89748 0.24684 0.16264 0.0
C638 C 0.87265 0.2017 0.2546 0.0
C639 C 0.90911 0.25611 0.2875 0.0
H640 H 0.87219 0.23626 0.51805 0.0
H641 H 0.91669 0.20438 0.48143 0.0
H642 H 0.87022 0.25568 0.34384 0.0
H643 H 0.85734 0.23667 0.33312 0.0
H644 H 0.85648 0.24874 0.41947 0.0
H645 H 0.92874 0.19987 0.36266 0.0
H646 H 0.91262 0.19862 0.29013 0.0
H647 H 0.92557 0.21762 0.29889 0.0
H648 H 0.87389 0.21191 0.10958 0.0
H649 H 0.90356 0.25817 0.13878 0.0
H650 H 0.86303 0.20577 0.29715 0.0
H651 H 0.88209 0.19316 0.28301 0.0
H652 H 0.86592 0.19412 0.21057 0.0
H653 H 0.90057 0.26202 0.33028 0.0
H654 H 0.91512 0.26661 0.25416 0.0
H655 H 0.91946 0.24906 0.31765 0.0
C656 C 0.08884 0.40597 0.31399 0.0
C657 C 0.07652 0.39837 0.26661 0.0
C658 C 0.08595 0.40744 0.39118 0.0
C659 C 0.07039 0.40106 0.42221 0.0
C660 C 0.05786 0.39341 0.37475 0.0
C661 C 0.06103 0.39226 0.2974 0.0
C662 C 0.09953 0.41593 0.43946 0.0
C663 C 0.04115 0.38635 0.40577 0.0
C664 C 0.06994 0.39161 0.6313 0.0
C665 C 0.06134 0.40617 0.65968 0.0
C666 C 0.07282 0.38967 0.55409 0.0
C667 C 0.06716 0.40271 0.50417 0.0
C668 C 0.05873 0.41756 0.53273 0.0
C669 C 0.05586 0.41906 0.60997 0.0
C670 C 0.08176 0.3736 0.52585 0.0
C671 C 0.05275 0.4319 0.4817 0.0
H672 H 0.1007 0.41101 0.29045 0.0
H673 H 0.05155 0.38627 0.26114 0.0
H674 H 0.09393 0.42731 0.46851 0.0
H675 H 0.10397 0.4068 0.48318 0.0
H676 H 0.11093 0.42024 0.40663 0.0
H677 H 0.03285 0.38059 0.36166 0.0
H678 H 0.04394 0.37633 0.44841 0.0
H679 H 0.03382 0.39681 0.43402 0.0
H680 H 0.074 0.38152 0.66938 0.0
H681 H 0.04942 0.43044 0.63168 0.0
H682 H 0.09374 0.37716 0.49546 0.0
H683 H 0.07327 0.36673 0.48564 0.0
H684 H 0.08519 0.36458 0.5718 0.0
H685 H 0.06391 0.43719 0.45022 0.0
H686 H 0.04645 0.44263 0.5128 0.0
H687 H 0.04345 0.42676 0.44007 0.0
C688 C 0.91036 0.7802 0.56406 0.0
C689 C 0.89838 0.77256 0.51555 0.0
C690 C 0.90949 0.77744 0.64143 0.0
C691 C 0.89602 0.76714 0.67107 0.0
C692 C 0.88385 0.75941 0.62218 0.0
C693 C 0.88532 0.76203 0.54473 0.0
C694 C 0.92301 0.7855 0.69136 0.0
C695 C 0.8691 0.74863 0.65177 0.0
C696 C 0.90098 0.74687 0.86293 0.0
C697 C 0.89192 0.75854 0.90827 0.0
C698 C 0.90271 0.7497 0.7859 0.0
C699 C 0.89478 0.76433 0.75319 0.0
C700 C 0.88565 0.77622 0.79893 0.0
C701 C 0.88454 0.77329 0.87631 0.0
C702 C 0.91299 0.737 0.73956 0.0
C703 C 0.87674 0.79179 0.76589 0.0
H704 H 0.9205 0.78825 0.54104 0.0
H705 H 0.87595 0.75634 0.50704 0.0
H706 H 0.9168 0.79455 0.73131 0.0
H707 H 0.92952 0.77533 0.7248 0.0
H708 H 0.93296 0.79267 0.65914 0.0
H709 H 0.86052 0.74385 0.60646 0.0
H710 H 0.87421 0.73736 0.68297 0.0
H711 H 0.86127 0.75638 0.69154 0.0
H712 H 0.90682 0.73557 0.88816 0.0
H713 H 0.87742 0.78218 0.91164 0.0
H714 H 0.92334 0.74387 0.70862 0.0
H715 H 0.90448 0.73081 0.69746 0.0
H716 H 0.91899 0.72672 0.7742 0.0
H717 H 0.88626 0.80008 0.73662 0.0
H718 H 0.87004 0.79969 0.80899 0.0
H719 H 0.86711 0.78755 0.72372 0.0
C720 C 0.53882 0.6008 0.77705 0.0
C721 C 0.52395 0.5933 0.74629 0.0
C722 C 0.54201 0.60011 0.85445 0.0
C723 C 0.53015 0.59151 0.90201 0.0
C724 C 0.51521 0.58376 0.87103 0.0
C725 C 0.51227 0.58481 0.79376 0.0
C726 C 0.55802 0.60864 0.88542 0.0
C727 C 0.50238 0.57422 0.91943 0.0
C728 C 0.5463 0.57506 0.08962 0.0
C729 C 0.53979 0.58751 0.13931 0.0
C730 C 0.54322 0.57619 1.01247 0.0
C731 C 0.53351 0.59022 0.98395 0.0
C732 C 0.52678 0.60278 0.03387 0.0
C733 C 0.52991 0.60121 0.11104 0.0
C734 C 0.55037 0.56236 0.96145 0.0
C735 C 0.51646 0.61799 1.00566 0.0
H736 H 0.54779 0.6075 0.7407 0.0
H737 H 0.5009 0.57873 0.77023 0.0
H738 H 0.55436 0.6184 0.92808 0.0
H739 H 0.56625 0.59889 0.91361 0.0
H740 H 0.56578 0.61509 0.84128 0.0
H741 H 0.49138 0.56895 0.88666 0.0
H742 H 0.5089 0.56338 0.94853 0.0
H743 H 0.49719 0.583 0.96309 0.0
H744 H 0.55374 0.56433 0.11129 0.0
H745 H 0.52503 0.61096 0.14915 0.0
H746 H 0.55921 0.56822 0.91979 0.0
H747 H 0.53969 0.55613 0.93002 0.0
H748 H 0.55754 0.55222 0.99256 0.0
H749 H 0.52432 0.62555 0.96541 0.0
H750 H 0.51225 0.6267 0.05161 0.0
H751 H 0.50484 0.61337 0.97531 0.0
C752 C 0.69739 0.24903 0.38015 0.0
C753 C 0.70666 0.23805 0.4278 0.0
C754 C 0.69626 0.24572 0.30316 0.0
C755 C 0.70495 0.23125 0.27251 0.0
C756 C 0.71435 0.22007 0.32044 0.0
C757 C 0.7149 0.22349 0.39778 0.0
C758 C 0.68571 0.2577 0.25466 0.0
C759 C 0.72404 0.20469 0.28983 0.0
C760 C 0.69014 0.21398 0.08372 0.0
C761 C 0.7018 0.22191 0.03453 0.0
C762 C 0.69097 0.21695 0.16112 0.0
C763 C 0.70406 0.22782 0.19039 0.0
C764 C 0.71596 0.23578 0.14091 0.0
C765 C 0.71454 0.23289 0.06345 0.0
C766 C 0.67773 0.2086 0.21147 0.0
C767 C 0.73028 0.2472 0.16987 0.0
H768 H 0.69083 0.26017 0.40356 0.0
H769 H 0.72216 0.21508 0.43459 0.0
H770 H 0.69411 0.26382 0.21199 0.0
H771 H 0.67565 0.25026 0.22435 0.0
H772 H 0.67929 0.26807 0.28756 0.0
H773 H 0.73095 0.19742 0.33423 0.0
H774 H 0.71497 0.19577 0.26124 0.0
H775 H 0.73359 0.20903 0.24755 0.0
H776 H 0.68019 0.2056 0.06127 0.0
H777 H 0.72368 0.23886 0.02551 0.0
H778 H 0.67061 0.21868 0.24312 0.0
H779 H 0.68425 0.2002 0.25299 0.0
H780 H 0.66826 0.20068 0.17979 0.0
H781 H 0.72472 0.25854 0.19933 0.0
H782 H 0.73885 0.25191 0.12441 0.0
H783 H 0.73822 0.24 0.21103 0.0
C784 C 0.37737 0.25083 0.35853 0.0
C785 C 0.38972 0.25745 0.40835 0.0
C786 C 0.37859 0.25386 0.28132 0.0
C787 C 0.3926 0.2636 0.25287 0.0
C788 C 0.40509 0.27039 0.30292 0.0
C789 C 0.40343 0.26733 0.3801 0.0
C790 C 0.36482 0.24665 0.23019 0.0
C791 C 0.4203 0.28072 0.27485 0.0
C792 C 0.40352 0.25849 0.04595 0.0
C793 C 0.39609 0.27342 0.01536 0.0
C794 C 0.40266 0.2552 0.12325 0.0
C795 C 0.39395 0.267 0.17091 0.0
C796 C 0.38623 0.28196 0.14007 0.0
C797 C 0.38746 0.28501 0.06292 0.0
C798 C 0.41117 0.23916 0.15404 0.0
C799 C 0.37658 0.29472 0.18853 0.0
H800 H 0.36664 0.24337 0.38015 0.0
H801 H 0.4131 0.27228 0.41828 0.0
H802 H 0.35856 0.25731 0.19881 0.0
H803 H 0.37076 0.23785 0.18848 0.0
H804 H 0.3547 0.23944 0.2612 0.0
H805 H 0.42898 0.28492 0.32086 0.0
H806 H 0.42789 0.27288 0.23451 0.0
H807 H 0.41568 0.29235 0.24465 0.0
H808 H 0.41031 0.24958 1.00956 0.0
H809 H 0.38142 0.29641 0.03954 0.0
H810 H 0.4014 0.23093 0.18212 0.0
H811 H 0.4209 0.2428 0.19676 0.0
H812 H 0.41764 0.23141 0.10981 0.0
H813 H 0.36576 0.28813 0.21752 0.0
H814 H 0.37126 0.3057 0.15583 0.0
H815 H 0.38529 0.29995 0.23227 0.0
C816 C 0.21367 0.72803 0.54977 0.0
C817 C 0.20023 0.71797 0.5206 0.0
C818 C 0.21522 0.73074 0.62726 0.0
C819 C 0.20274 0.72359 0.6764 0.0
C820 C 0.18893 0.71372 0.6468 0.0
C821 C 0.18799 0.71084 0.56938 0.0
C822 C 0.23033 0.74105 0.65663 0.0
C823 C 0.17508 0.70631 0.69681 0.0
C824 C 0.21329 0.71809 0.88337 0.0
C825 C 0.20626 0.73321 0.91379 0.0
C826 C 0.21242 0.71484 0.80599 0.0
C827 C 0.20388 0.72679 0.75855 0.0
C828 C 0.19636 0.74184 0.78967 0.0
C829 C 0.19784 0.74496 0.86667 0.0
C830 C 0.2209 0.69881 0.77481 0.0
C831 C 0.18671 0.75466 0.74168 0.0
H832 H 0.22324 0.73334 0.512 0.0
H833 H 0.17754 0.70315 0.54657 0.0
H834 H 0.22561 0.75269 0.68654 0.0
H835 H 0.23772 0.7332 0.69748 0.0
H836 H 0.23922 0.74522 0.61133 0.0
H837 H 0.165 0.69925 0.66479 0.0
H838 H 0.18092 0.6973 0.73782 0.0
H839 H 0.16878 0.71683 0.72906 0.0
H840 H 0.21992 0.7091 0.91988 0.0
H841 H 0.19223 0.75656 0.89054 0.0
H842 H 0.23076 0.70249 0.73265 0.0
H843 H 0.21117 0.69067 0.74593 0.0
H844 H 0.22724 0.69095 0.81893 0.0
H845 H 0.19555 0.76027 0.69935 0.0
H846 H 0.18103 0.76538 0.77503 0.0
H847 H 0.17616 0.74803 0.71097 0.0
C848 C 0.19219 0.2784 0.44848 0.0
C849 C 0.20471 0.27176 0.49723 0.0
C850 C 0.19317 0.27543 0.37111 0.0
C851 C 0.20728 0.26598 0.34146 0.0
C852 C 0.22005 0.25936 0.39055 0.0
C853 C 0.21847 0.26212 0.46802 0.0
C854 C 0.179 0.28227 0.32121 0.0
C855 C 0.23548 0.24953 0.36115 0.0
C856 C 0.2027 0.24406 0.15208 0.0
C857 C 0.2106 0.25598 0.10407 0.0
C858 C 0.20132 0.24726 0.22909 0.0
C859 C 0.2084 0.26262 0.25935 0.0
C860 C 0.21643 0.27474 0.21105 0.0
C861 C 0.21722 0.27138 0.13373 0.0
C862 C 0.19223 0.23423 0.278 0.0
C863 C 0.22443 0.29111 0.24126 0.0
H864 H 0.18149 0.28575 0.4713 0.0
H865 H 0.22825 0.25719 0.50573 0.0
H866 H 0.18448 0.29135 0.27959 0.0
H867 H 0.17301 0.27146 0.28967 0.0
H868 H 0.16874 0.28907 0.35324 0.0
H869 H 0.24458 0.24579 0.40634 0.0
H870 H 0.23114 0.23765 0.33193 0.0
H871 H 0.24252 0.25753 0.31969 0.0
H872 H 0.19738 0.23225 0.12894 0.0
H873 H 0.22344 0.28052 0.09663 0.0
H874 H 0.18148 0.24055 0.30866 0.0
H875 H 0.20133 0.22907 0.32036 0.0
H876 H 0.18692 0.22322 0.24535 0.0
H877 H 0.21447 0.29901 0.27001 0.0
H878 H 0.23044 0.29905 0.1966 0.0
H879 H 0.23445 0.28786 0.28332 0.0
C880 C 0.39302 0.74799 0.65919 0.0
C881 C 0.38656 0.73498 0.61233 0.0
C882 C 0.39503 0.74525 0.7362 0.0
C883 C 0.39002 0.72923 0.76757 0.0
C884 C 0.38343 0.71603 0.72042 0.0
C885 C 0.38202 0.71899 0.64304 0.0
C886 C 0.40259 0.75948 0.7839 0.0
C887 C 0.37761 0.6989 0.7519 0.0
C888 C 0.40849 0.71585 0.95585 0.0
C889 C 0.39534 0.72093 1.00506 0.0
C890 C 0.40703 0.71867 0.87859 0.0
C891 C 0.3918 0.72631 0.84962 0.0
C892 C 0.37844 0.73141 0.89924 0.0
C893 C 0.38048 0.72888 0.97658 0.0
C894 C 0.4218 0.71354 0.82805 0.0
C895 C 0.36186 0.73925 0.87053 0.0
H896 H 0.39672 0.76029 0.63508 0.0
H897 H 0.37691 0.709 0.60671 0.0
H898 H 0.39306 0.76362 0.82665 0.0
H899 H 0.41414 0.75463 0.8141 0.0
H900 H 0.4064 0.77094 0.75039 0.0
H901 H 0.37243 0.69014 0.70804 0.0
H902 H 0.38856 0.69237 0.78011 0.0
H903 H 0.36743 0.70105 0.79465 0.0
H904 H 0.42 0.70979 0.97821 0.0
H905 H 0.37024 0.73258 0.01473 0.0
H906 H 0.42623 0.7249 0.79548 0.0
H907 H 0.41742 0.70365 0.78736 0.0
H908 H 0.43296 0.70825 0.85971 0.0
H909 H 0.36466 0.75144 0.84034 0.0
H910 H 0.35254 0.74206 0.9162 0.0
H911 H 0.35566 0.73031 0.83004 0.0
C912 C 0.55456 0.07209 0.9161 0.0
C913 C 0.56028 0.08491 0.8665 0.0
C914 C 0.55759 0.07341 0.9933 0.0
C915 C 0.56642 0.08801 0.02199 0.0
C916 C 0.5723 0.10098 0.97217 0.0
C917 C 0.56926 0.09921 0.89499 0.0
C918 C 0.55137 0.05915 0.04417 0.0
C919 C 0.58163 0.11681 1.0005 0.0
C920 C 0.56069 0.09844 0.2291 0.0
C921 C 0.57608 0.09198 0.25959 0.0
C922 C 0.55743 0.09741 0.1518 0.0
C923 C 0.56976 0.08952 0.10398 0.0
C924 C 0.58521 0.0828 0.13469 0.0
C925 C 0.5882 0.08418 0.21187 0.0
C926 C 0.54085 0.10485 0.12119 0.0
C927 C 0.59857 0.07405 0.08604 0.0
H928 H 0.54781 0.0609 0.89432 0.0
H929 H 0.57351 0.10924 0.85702 0.0
H930 H 0.56245 0.05359 0.07536 0.0
H931 H 0.54221 0.06444 0.08607 0.0
H932 H 0.54484 0.04859 1.01299 0.0
H933 H 0.58521 0.12579 0.95464 0.0
H934 H 0.57334 0.12383 0.04104 0.0
H935 H 0.59356 0.11294 0.03052 0.0
H936 H 0.55136 0.10461 0.26558 0.0
H937 H 0.59998 0.07889 0.23514 0.0
H938 H 0.53327 0.09457 0.09299 0.0
H939 H 0.54382 0.11483 0.07859 0.0
H940 H 0.53271 0.11078 0.16552 0.0
H941 H 0.5927 0.06283 0.05692 0.0
H942 H 0.60989 0.06946 0.11862 0.0
H943 H 0.60318 0.08312 0.0424 0.0
C944 C 0.04078 0.89753 0.73865 0.0
C945 C 0.02546 0.90393 0.77008 0.0
C946 C 0.04386 0.89872 0.66126 0.0
C947 C 0.03144 0.90674 0.61445 0.0
C948 C 0.01609 0.91345 0.64621 0.0
C949 C 0.01325 0.91188 0.7234 0.0
C950 C 0.06032 0.89125 0.62944 0.0
C951 C 0.00266 0.92239 0.5987 0.0
C952 C 0.04638 0.92433 0.42671 0.0
C953 C 0.04045 0.91163 0.37693 0.0
C954 C 0.04345 0.92295 0.50395 0.0
C955 C 0.03457 0.90837 0.53241 0.0
C956 C 0.02845 0.89554 0.48234 0.0
C957 C 0.03135 0.8974 0.40514 0.0
C958 C 0.04989 0.93709 0.5551 0.0
C959 C 0.01906 0.87973 0.51042 0.0
H960 H 0.05017 0.89127 0.77445 0.0
H961 H 0.00152 0.9171 0.74755 0.0
H962 H 0.05719 0.88135 0.58659 0.0
H963 H 0.06788 0.90153 0.60127 0.0
H964 H 0.06855 0.88521 0.67309 0.0
H965 H 0.99149 0.92705 0.63213 0.0
H966 H 0.00855 0.93359 0.56956 0.0
H967 H -0.00217 0.91341 0.55506 0.0
H968 H 0.05324 0.93545 0.40504 0.0
H969 H 0.02695 0.88745 0.36693 0.0
H970 H 0.05919 0.93169 0.59606 0.0
H971 H 0.03894 0.94261 0.58736 0.0
H972 H 0.05634 0.9477 0.524 0.0
H973 H 0.02743 0.87253 0.54993 0.0
H974 H 0.01522 0.8709 0.46431 0.0
H975 H 0.00728 0.88364 0.54154 0.0
C976 C 0.55225 0.9213 0.11227 0.0
C977 C 0.5582 0.90861 0.16196 0.0
C978 C 0.55515 0.9199 0.03503 0.0
C979 C 0.56409 0.90535 1.00644 0.0
C980 C 0.57023 0.89253 0.05635 0.0
C981 C 0.56731 0.89437 0.13357 0.0
C982 C 0.54866 0.93401 0.98401 0.0
C983 C 0.57973 0.87678 0.02808 0.0
C984 C 0.55825 0.89466 0.79976 0.0
C985 C 0.57351 0.90129 0.76886 0.0
C986 C 0.55506 0.89572 0.87712 0.0
C987 C 0.56735 0.9038 0.92447 0.0
C988 C 0.58266 0.91071 0.8933 0.0
C989 C 0.58557 0.90932 0.81611 0.0
C990 C 0.53863 0.88809 0.9083 0.0
C991 C 0.59596 0.91968 0.94145 0.0
H992 H 0.5454 0.93243 0.13401 0.0
H993 H 0.57174 0.88444 0.17166 0.0
H994 H 0.55961 0.93968 0.95239 0.0
H995 H 0.53952 0.92854 0.9425 0.0
H996 H 0.54202 0.94453 0.01514 0.0
H997 H 0.5835 0.8679 0.07402 0.0
H998 H 0.57147 0.8696 0.98796 0.0
H999 H 0.59156 0.88076 0.99759 0.0
H1000 H 0.54897 0.88834 0.76358 0.0
H1001 H 0.59725 0.91475 0.79246 0.0
H1002 H 0.53095 0.89829 0.93659 0.0
H1003 H 0.54179 0.87817 0.95093 0.0
H1004 H 0.53051 0.88203 0.86427 0.0
H1005 H 0.58997 0.93085 0.97056 0.0
H1006 H 0.60718 0.92439 0.90851 0.0
H1007 H 0.60075 0.91071 0.98512 0.0
C1008 C 0.04196 0.10148 0.30317 0.0
C1009 C 0.02546 0.09784 0.27485 0.0
C1010 C 0.0455 0.10006 0.38021 0.0
C1011 C 0.03228 0.09469 0.42994 0.0
C1012 C 0.01565 0.09087 0.40143 0.0
C1013 C 0.01246 0.09251 0.32456 0.0
C1014 C 0.06338 0.1043 0.40844 0.0
C1015 C 0.00123 0.08486 0.45206 0.0
C1016 C 0.04379 0.07395 0.61607 0.0
C1017 C 0.04059 0.08739 0.66715 0.0
C1018 C 0.0415 0.07628 0.53888 0.0
C1019 C 0.03584 0.09247 0.51149 0.0
C1020 C 0.03269 0.10616 0.56251 0.0
C1021 C 0.03506 0.10344 0.63967 0.0
C1022 C 0.04482 0.06127 0.48673 0.0
C1023 C 0.02665 0.12362 0.53559 0.0
H1024 H 0.05201 0.10571 0.26521 0.0
H1025 H -0.00023 0.08932 0.30312 0.0
H1026 H 0.06263 0.11464 0.45136 0.0
H1027 H 0.06913 0.09278 0.43565 0.0
H1028 H 0.07214 0.10863 0.36293 0.0
H1029 H 0.98897 0.08265 0.42126 0.0
H1030 H 0.005 0.07265 0.48008 0.0
H1031 H -0.00114 0.09459 0.49651 0.0
H1032 H 0.04777 0.06141 0.63654 0.0
H1033 H 0.03274 0.11395 0.67843 0.0
H1034 H 0.05428 0.06503 0.44307 0.0
H1035 H 0.03267 0.05765 0.45779 0.0
H1036 H 0.04985 0.04973 0.51655 0.0
H1037 H 0.03581 0.12878 0.49347 0.0
H1038 H 0.02544 0.13312 0.58191 0.0
H1039 H 0.01389 0.12233 0.50781 0.0
C1040 C 0.08224 0.53032 0.06472 0.0
C1041 C 0.07029 0.53991 0.02298 0.0
C1042 C 0.08297 0.51224 0.05857 0.0
C1043 C 0.07175 0.50364 1.00823 0.0
C1044 C 0.06007 0.51335 0.96414 0.0
C1045 C 0.05934 0.53136 0.97274 0.0
C1046 C 0.09535 0.5023 0.10754 0.0
C1047 C 0.04817 0.5047 0.90865 0.0
C1048 C 0.08245 0.45776 0.94764 0.0
C1049 C 0.07067 0.44813 0.99006 0.0
C1050 C 0.083 0.47585 0.95308 0.0
C1051 C 0.07176 0.48444 1.00338 0.0
C1052 C 0.06015 0.47471 0.04773 0.0
C1053 C 0.0596 0.45667 0.03987 0.0
C1054 C 0.09531 0.48581 0.90378 0.0
C1055 C 0.0482 0.48336 0.10311 0.0
H1056 H 0.09063 0.53691 0.10404 0.0
H1057 H 0.05017 0.53878 0.94004 0.0
H1058 H 0.08801 0.49353 0.14489 0.0
H1059 H 0.10395 0.49411 0.07271 0.0
H1060 H 0.10348 0.51095 0.14252 0.0
H1061 H 0.04067 0.51419 0.87528 0.0
H1062 H 0.05574 0.49644 0.86986 0.0
H1063 H 0.03897 0.49617 0.93853 0.0
H1064 H 0.09095 0.45117 0.9087 0.0
H1065 H 0.05056 0.44923 0.07312 0.0
H1066 H 0.104 0.49392 0.93845 0.0
H1067 H 0.08792 0.49465 0.86692 0.0
H1068 H 0.10335 0.47717 0.86828 0.0
H1069 H 0.05576 0.49157 0.14212 0.0
H1070 H 0.04063 0.47388 0.13624 0.0
H1071 H 0.03905 0.49196 0.0732 0.0
C1072 C 0.83648 0.77955 0.20454 0.0
C1073 C 0.84648 0.76737 0.24308 0.0
C1074 C 0.81845 0.78008 0.21313 0.0
C1075 C 0.81029 0.76842 0.26286 0.0
C1076 C 0.8204 0.75635 0.30319 0.0
C1077 C 0.83836 0.75583 0.29209 0.0
C1078 C 0.80809 0.79288 0.16789 0.0
C1079 C 0.81224 0.74396 0.35795 0.0
C1080 C 0.76507 0.77958 0.33159 0.0
C1081 C 0.75484 0.76847 0.28832 0.0
C1082 C 0.78316 0.77961 0.32441 0.0
C1083 C 0.79113 0.76857 0.27137 0.0
C1084 C 0.7808 0.75756 0.22659 0.0
C1085 C 0.76279 0.75749 0.23629 0.0
C1086 C 0.79375 0.79127 0.37425 0.0
C1087 C 0.78875 0.74588 0.16824 0.0
H1088 H 0.84272 0.78843 0.16624 0.0
H1089 H 0.84609 0.74648 0.3224 0.0
H1090 H 0.79867 0.7859 0.13216 0.0
H1091 H 0.80058 0.80145 0.20559 0.0
H1092 H 0.8164 0.80104 0.13156 0.0
H1093 H 0.822 0.73599 0.38764 0.0
H1094 H 0.80456 0.75122 0.39997 0.0
H1095 H 0.80321 0.7352 0.32817 0.0
H1096 H 0.75895 0.78801 0.37222 0.0
H1097 H 0.75489 0.74898 0.20234 0.0
H1098 H 0.80145 0.80036 0.33983 0.0
H1099 H 0.80302 0.78343 0.40727 0.0
H1100 H 0.7856 0.79887 0.41344 0.0
H1101 H 0.79657 0.75363 0.12855 0.0
H1102 H 0.77886 0.73859 0.13613 0.0
H1103 H 0.79759 0.7365 0.19527 0.0
C1104 C 0.52226 0.53412 0.41675 0.0
C1105 C 0.53248 0.54428 0.46418 0.0
C1106 C 0.52211 0.51603 0.42327 0.0
C1107 C 0.532 0.50801 0.48006 0.0
C1108 C 0.54226 0.51827 0.52842 0.0
C1109 C 0.54257 0.53627 0.51914 0.0
C1110 C 0.51137 0.50551 0.36945 0.0
C1111 C 0.55262 0.51026 0.59095 0.0
C1112 C 0.51787 0.4638 0.54848 0.0
C1113 C 0.53051 0.45302 0.51722 0.0
C1114 C 0.51819 0.48171 0.5367 0.0
C1115 C 0.5312 0.48895 0.49074 0.0
C1116 C 0.5437 0.47804 0.45705 0.0
C1117 C 0.54336 0.4602 0.47168 0.0
C1118 C 0.50491 0.49293 0.57518 0.0
C1119 C 0.55747 0.48522 0.40607 0.0
H1120 H 0.51459 0.54031 0.37372 0.0
H1121 H 0.55041 0.54414 0.55612 0.0
H1122 H 0.51955 0.49561 0.34174 0.0
H1123 H 0.50107 0.49855 0.40027 0.0
H1124 H 0.50522 0.51364 0.32576 0.0
H1125 H 0.5598 0.52006 0.62406 0.0
H1126 H 0.5439 0.50307 0.62907 0.0
H1127 H 0.56202 0.50082 0.56791 0.0
H1128 H 0.50801 0.45828 0.58432 0.0
H1129 H 0.55309 0.45184 0.44714 0.0
H1130 H 0.4975 0.50044 0.53326 0.0
H1131 H 0.51148 0.50237 0.61227 0.0
H1132 H 0.49567 0.48527 0.60922 0.0
H1133 H 0.55144 0.49295 0.36086 0.0
H1134 H 0.56549 0.47489 0.38035 0.0
H1135 H 0.56608 0.49401 0.43794 0.0
C1136 C 0.83366 0.21613 0.82821 0.0
C1137 C 0.8438 0.22776 0.78727 0.0
C1138 C 0.8156 0.21602 0.82098 0.0
C1139 C 0.80756 0.22755 0.77036 0.0
C1140 C 0.8178 0.23908 0.7278 0.0
C1141 C 0.8358 0.23919 0.73742 0.0
C1142 C 0.8051 0.20377 0.86842 0.0
C1143 C 0.80973 0.25133 0.67221 0.0
C1144 C 0.76185 0.21716 0.70642 0.0
C1145 C 0.7521 0.22874 0.74949 0.0
C1146 C 0.77996 0.21672 0.7121 0.0
C1147 C 0.7884 0.22785 0.76331 0.0
C1148 C 0.77855 0.23936 0.80778 0.0
C1149 C 0.76053 0.2398 0.79971 0.0
C1150 C 0.79005 0.20451 0.66276 0.0
C1151 C 0.78704 0.25118 0.86412 0.0
H1152 H 0.83982 0.20734 0.8671 0.0
H1153 H 0.84364 0.24809 0.70523 0.0
H1154 H 0.79598 0.21121 0.90397 0.0
H1155 H 0.79725 0.19517 0.83225 0.0
H1156 H 0.81333 0.19563 0.90512 0.0
H1157 H 0.81956 0.25891 0.64102 0.0
H1158 H 0.80176 0.24401 0.6315 0.0
H1159 H 0.801 0.26047 0.70157 0.0
H1160 H 0.75536 0.20867 0.66723 0.0
H1161 H 0.75299 0.24867 0.83352 0.0
H1162 H 0.79765 0.19542 0.69761 0.0
H1163 H 0.79938 0.2119 0.62818 0.0
H1164 H 0.78155 0.19689 0.62506 0.0
H1165 H 0.79479 0.24346 0.9042 0.0
H1166 H 0.77748 0.25897 0.896 0.0
H1167 H 0.79605 0.26012 0.83533 0.0
C1168 C 0.2636 0.25317 0.72871 0.0
C1169 C 0.25544 0.26446 0.77886 0.0
C1170 C 0.28163 0.25318 0.72051 0.0
C1171 C 0.29174 0.26449 0.76476 0.0
C1172 C 0.28356 0.27582 0.81601 0.0
C1173 C 0.26546 0.2758 0.82184 0.0
C1174 C 0.28984 0.24118 0.66409 0.0
C1175 C 0.29394 0.28785 0.86507 0.0
C1176 C 0.33914 0.25288 0.78879 0.0
C1177 C 0.34708 0.26432 0.73884 0.0
C1178 C 0.32114 0.253 0.79886 0.0
C1179 C 0.31087 0.26458 0.75667 0.0
C1180 C 0.31883 0.27606 0.70571 0.0
C1181 C 0.33687 0.27592 0.69801 0.0
C1182 C 0.31313 0.24078 0.85473 0.0
C1183 C 0.30829 0.28835 0.65863 0.0
H1184 H 0.25586 0.24445 0.69505 0.0
H1185 H 0.25917 0.28445 0.86105 0.0
H1186 H 0.29755 0.24874 0.62335 0.0
H1187 H 0.29883 0.23219 0.69262 0.0
H1188 H 0.28011 0.23344 0.63296 0.0
H1189 H 0.28563 0.29553 0.9034 0.0
H1190 H 0.30328 0.28031 0.89895 0.0
H1191 H 0.30154 0.29688 0.82996 0.0
H1192 H 0.34703 0.24398 0.8208 0.0
H1193 H 0.34297 0.28472 0.65898 0.0
H1194 H 0.30416 0.23181 0.82584 0.0
H1195 H 0.30542 0.24817 0.8962 0.0
H1196 H 0.32297 0.23304 0.885 0.0
H1197 H 0.29895 0.28098 0.62401 0.0
H1198 H 0.31648 0.29633 0.62106 0.0
H1199 H 0.30069 0.29711 0.69512 0.0
C1200 C 0.26134 0.71296 0.19446 0.0
C1201 C 0.2514 0.724 0.23937 0.0
C1202 C 0.27946 0.71272 0.20021 0.0
C1203 C 0.28775 0.72345 0.25348 0.0
C1204 C 0.2777 0.73432 0.30013 0.0
C1205 C 0.25966 0.73462 0.29182 0.0
C1206 C 0.28975 0.70123 0.14842 0.0
C1207 C 0.28599 0.74566 0.35879 0.0
C1208 C 0.33347 0.71247 0.31572 0.0
C1209 C 0.34322 0.72489 0.27739 0.0
C1210 C 0.31541 0.71177 0.30816 0.0
C1211 C 0.30696 0.72356 0.25992 0.0
C1212 C 0.31682 0.73584 0.21964 0.0
C1213 C 0.33482 0.73648 0.22949 0.0
C1214 C 0.30534 0.6987 0.35314 0.0
C1215 C 0.30834 0.74841 0.16656 0.0
H1216 H 0.25497 0.70482 0.15352 0.0
H1217 H 0.25199 0.74307 0.32706 0.0
H1218 H 0.29875 0.70919 0.1146 0.0
H1219 H 0.29772 0.69207 0.18131 0.0
H1220 H 0.28135 0.69371 0.10993 0.0
H1221 H 0.27629 0.75276 0.39281 0.0
H1222 H 0.29406 0.7377 0.39672 0.0
H1223 H 0.29465 0.7552 0.33172 0.0
H1224 H 0.33992 0.70354 0.35311 0.0
H1225 H 0.34233 0.74602 0.19932 0.0
H1226 H 0.29756 0.6904 0.31544 0.0
H1227 H 0.29618 0.70548 0.39089 0.0
H1228 H 0.31387 0.69031 0.3874 0.0
H1229 H 0.3004 0.7413 0.12501 0.0
H1230 H 0.31792 0.75647 0.13624 0.0
H1231 H 0.29951 0.75708 0.19793 0.0
C1232 C 0.57894 0.03236 0.57688 0.0
C1233 C 0.56757 0.04262 0.53514 0.0
C1234 C 0.5789 0.01428 0.56967 0.0
C1235 C 0.56748 0.00633 0.51822 0.0
C1236 C 0.55617 0.01668 0.47499 0.0
C1237 C 0.55621 0.0347 0.48463 0.0
C1238 C 0.5909 0.00368 0.61784 0.0
C1239 C 0.54406 0.00873 0.41843 0.0
C1240 C 0.57819 0.96083 0.45189 0.0
C1241 C 0.56646 0.95088 0.49315 0.0
C1242 C 0.57859 0.97891 0.45907 0.0
C1243 C 0.56724 0.98717 0.51002 0.0
C1244 C 0.55557 0.97712 0.55275 0.0
C1245 C 0.55518 0.9591 0.54314 0.0
C1246 C 0.59097 0.98919 0.41143 0.0
C1247 C 0.54352 0.98539 0.60877 0.0
H1248 H 0.58765 0.03845 0.61638 0.0
H1249 H 0.54748 0.04261 0.45192 0.0
H1250 H 0.58329 0.99446 0.65209 0.0
H1251 H 0.5997 0.99593 0.58214 0.0
H1252 H 0.59882 0.01183 0.65581 0.0
H1253 H 0.53653 0.01862 0.38742 0.0
H1254 H 0.5515 0.00088 0.37763 0.0
H1255 H 0.53489 -0.0001 0.44687 0.0
H1256 H 0.58685 0.95452 0.41279 0.0
H1257 H 0.54616 0.95142 0.57548 0.0
H1258 H 0.59988 -0.00329 0.44751 0.0
H1259 H 0.58369 -0.00139 0.37685 0.0
H1260 H 0.59877 0.98084 0.3738 0.0
H1261 H 0.55106 0.99304 0.6499 0.0
H1262 H 0.53566 0.9757 0.63945 0.0
H1263 H 0.53465 0.99445 0.57993 0.0
C1264 C 0.02081 0.96282 0.0928 0.0
C1265 C 0.03236 0.9532 0.04903 0.0
C1266 C 0.02023 0.9809 0.08782 0.0
C1267 C 0.03118 0.9895 0.03653 0.0
C1268 C 0.04272 0.9798 0.99148 0.0
C1269 C 0.04332 0.96175 0.99896 0.0
C1270 C 0.00802 0.99082 0.13791 0.0
C1271 C 0.05433 0.98848 0.935 0.0
C1272 C 0.01826 0.0345 0.97329 0.0
C1273 C 0.02982 0.04486 1.01362 0.0
C1274 C 0.01859 0.01644 0.98006 0.0
C1275 C 0.0305 0.00863 0.0297 0.0
C1276 C 0.04188 0.01909 0.07211 0.0
C1277 C 0.04156 0.0371 0.06282 0.0
C1278 C 0.00649 0.0057 0.93278 0.0
C1279 C 0.05448 0.01125 0.12688 0.0
H1280 H 0.01243 0.95623 0.13207 0.0
H1281 H 0.0522 0.95431 0.96482 0.0
H1282 H 0.01537 0.0003 0.17197 0.0
H1283 H -0.00132 -0.00176 0.1036 0.0
H1284 H 0.00069 0.98222 0.17614 0.0
H1285 H 0.06223 0.97904 0.90296 0.0
H1286 H 0.04643 0.99609 0.89507 0.0
H1287 H 0.06314 -0.00236 0.96364 0.0
H1288 H 0.0093 0.04048 0.9346 0.0
H1289 H 0.05047 0.04512 0.09422 0.0
H1290 H -0.00181 -0.00242 0.96903 0.0
H1291 H 0.01407 -0.00316 0.89659 0.0
H1292 H -0.00194 0.01378 0.89672 0.0
H1293 H 0.04748 0.003 0.16753 0.0
H1294 H 0.06185 0.02123 0.15818 0.0
H1295 H 0.06378 0.00284 0.09679 0.0
C1296 C 0.14592 0.69718 0.0817 0.0
C1297 C 0.15928 0.69681 0.13461 0.0
C1298 C 0.1327 0.6847 0.08252 0.0
C1299 C 0.13276 0.67166 0.13807 0.0
C1300 C 0.14621 0.67123 0.19154 0.0
C1301 C 0.15933 0.68371 0.18887 0.0
C1302 C 0.11869 0.68544 0.02393 0.0
C1303 C 0.1467 0.65763 0.25201 0.0
C1304 C 0.0908 0.64783 0.18054 0.0
C1305 C 0.09316 0.63232 0.14105 0.0
C1306 C 0.1036 0.66074 0.18036 0.0
C1307 C 0.11904 0.65815 0.13922 0.0
C1308 C 0.12155 0.64247 0.09994 0.0
C1309 C 0.10867 0.62974 0.10184 0.0
C1310 C 0.10057 0.67721 0.2238 0.0
C1311 C 0.13779 0.6392 0.0552 0.0
H1312 H 0.14575 0.70725 0.03963 0.0
H1313 H 0.16946 0.68336 0.23047 0.0
H1314 H 0.11849 0.6732 0.99151 0.0
H1315 H 0.10588 0.68679 0.05114 0.0
H1316 H 0.1205 0.69637 0.98451 0.0
H1317 H 0.15784 0.65933 0.29049 0.0
H1318 H 0.1346 0.65808 0.28525 0.0
H1319 H 0.14752 0.64458 0.22649 0.0
H1320 H 0.07888 0.64997 0.21102 0.0
H1321 H 0.11074 0.6178 0.07152 0.0
H1322 H 0.10081 0.68844 0.18538 0.0
H1323 H 0.11108 0.67912 0.26513 0.0
H1324 H 0.088 0.67713 0.25387 0.0
H1325 H 0.13944 0.64945 1.01246 0.0
H1326 H 0.13761 0.62645 0.02656 0.0
H1327 H 0.14925 0.63971 0.09237 0.0
C1328 C 0.60974 0.86208 0.43137 0.0
C1329 C 0.59555 0.85988 0.38336 0.0
C1330 C 0.62308 0.84984 0.43459 0.0
C1331 C 0.62239 0.83508 0.38801 0.0
C1332 C 0.60831 0.83292 0.33821 0.0
C1333 C 0.59501 0.84531 0.3367 0.0
C1334 C 0.63781 0.8526 0.48873 0.0
C1335 C 0.60724 0.81743 0.28701 0.0
C1336 C 0.66449 0.81142 0.34957 0.0
C1337 C 0.6632 0.79706 0.39714 0.0
C1338 C 0.65128 0.82381 0.34575 0.0
C1339 C 0.63647 0.82197 0.39139 0.0
C1340 C 0.63523 0.80775 0.44093 0.0
C1341 C 0.64858 0.79543 0.443 0.0
C1342 C 0.65308 0.83874 0.29203 0.0
C1343 C 0.61973 0.80549 0.49127 0.0
H1344 H 0.61032 0.87324 0.46781 0.0
H1345 H 0.58413 0.84349 0.29939 0.0
H1346 H 0.63853 0.84161 0.52837 0.0
H1347 H 0.65026 0.85304 0.45806 0.0
H1348 H 0.63639 0.86476 0.52132 0.0
H1349 H 0.59566 0.81783 0.25038 0.0
H1350 H 0.61895 0.81674 0.25129 0.0
H1351 H 0.60682 0.80539 0.32057 0.0
H1352 H 0.67569 0.81286 0.31394 0.0
H1353 H 0.64744 0.7844 0.47999 0.0
H1354 H 0.65259 0.85116 0.323 0.0
H1355 H 0.64212 0.83873 0.25204 0.0
H1356 H 0.66535 0.83821 0.25983 0.0
H1357 H 0.61812 0.81705 0.52732 0.0
H1358 H 0.62087 0.7939 0.52756 0.0
H1359 H 0.60784 0.80425 0.45705 0.0
C1360 C 0.47075 0.37265 0.55411 0.0
C1361 C 0.48612 0.37452 0.59496 0.0
C1362 C 0.46083 0.35754 0.55913 0.0
C1363 C 0.46631 0.34401 0.60665 0.0
C1364 C 0.48162 0.34592 0.64922 0.0
C1365 C 0.49137 0.36115 0.64273 0.0
C1366 C 0.44458 0.35597 0.51285 0.0
C1367 C 0.48776 0.33184 0.70114 0.0
C1368 C 0.43214 0.31223 0.67066 0.0
C1369 C 0.43516 0.298 0.6236 0.0
C1370 C 0.44231 0.32717 0.66622 0.0
C1371 C 0.45577 0.32801 0.61295 0.0
C1372 C 0.45889 0.31376 0.56498 0.0
C1373 C 0.44858 0.29887 0.57107 0.0
C1374 C 0.43862 0.34205 0.71865 0.0
C1375 C 0.47308 0.31428 0.50706 0.0
H1376 H 0.46662 0.38287 0.51678 0.0
H1377 H 0.50324 0.36248 0.67439 0.0
H1378 H 0.44551 0.34456 0.47541 0.0
H1379 H 0.43326 0.35391 0.54985 0.0
H1380 H 0.44218 0.36762 0.47816 0.0
H1381 H 0.49986 0.3354 0.7308 0.0
H1382 H 0.47764 0.32897 0.74329 0.0
H1383 H 0.49007 0.31977 0.66908 0.0
H1384 H 0.42189 0.31169 0.71178 0.0
H1385 H 0.45099 0.28795 0.5345 0.0
H1386 H 0.43517 0.35374 0.68609 0.0
H1387 H 0.45035 0.3452 0.75156 0.0
H1388 H 0.4279 0.33917 0.75804 0.0
H1389 H 0.47081 0.32516 0.46792 0.0
H1390 H 0.4739 0.3021 0.4743 0.0
H1391 H 0.48572 0.3166 0.53452 0.0
C1392 C 0.97048 0.12006 0.90839 0.0
C1393 C 0.98831 0.12183 0.89676 0.0
C1394 C 0.95958 0.13455 0.90894 0.0
C1395 C 0.96664 0.15117 0.89607 0.0
C1396 C 0.98455 0.15297 0.88193 0.0
C1397 C 0.9952 0.13829 0.88315 0.0
C1398 C 0.94057 0.13214 0.92505 0.0
C1399 C 0.99249 0.17042 0.8662 0.0
C1400 C 0.93554 0.18584 0.83086 0.0
C1401 C 0.93283 0.1954 0.89651 0.0
C1402 C 0.94672 0.17161 0.82973 0.0
C1403 C 0.95521 0.16662 0.89625 0.0
C1404 C 0.95258 0.17625 0.96282 0.0
C1405 C 0.94155 0.19069 0.96193 0.0
C1406 C 0.94946 0.16194 0.75725 0.0
C1407 C 0.96123 0.17113 0.03509 0.0
H1408 H 0.96511 0.1074 0.91988 0.0
H1409 H 0.00899 0.13971 0.87408 0.0
H1410 H 0.93688 0.13975 0.97521 0.0
H1411 H 0.93276 0.13705 0.87765 0.0
H1412 H 0.93716 0.11838 0.93475 0.0
H1413 H 0.00654 0.16953 0.85406 0.0
H1414 H 0.98595 0.17653 0.81779 0.0
H1415 H 0.99061 0.17909 0.91496 0.0
H1416 H 0.92912 0.18967 0.7797 0.0
H1417 H 0.93946 0.19809 1.01266 0.0
H1418 H 0.94521 0.14833 0.76347 0.0
H1419 H 0.96341 0.16171 0.74298 0.0
H1420 H 0.94226 0.16782 0.70996 0.0
H1421 H 0.95746 0.15775 0.05027 0.0
H1422 H 0.95776 0.1799 0.08199 0.0
H1423 H 0.97548 0.17124 0.0281 0.0
C1424 C 0.1655 0.30754 0.84256 0.0
C1425 C 0.16377 0.29256 0.88614 0.0
C1426 C 0.15243 0.32008 0.84034 0.0
C1427 C 0.1373 0.31774 0.88352 0.0
C1428 C 0.13559 0.30287 0.929 0.0
C1429 C 0.14882 0.29042 0.9296 0.0
C1430 C 0.15473 0.33575 0.79107 0.0
C1431 C 0.11973 0.30004 0.97661 0.0
C1432 C 0.11097 0.35762 0.93103 0.0
C1433 C 0.09713 0.35641 0.88055 0.0
C1434 C 0.12404 0.34509 0.93278 0.0
C1435 C 0.12342 0.33106 0.88218 0.0
C1436 C 0.10966 0.32985 0.83017 0.0
C1437 C 0.09661 0.34251 0.83023 0.0
C1438 C 0.13842 0.34679 0.98946 0.0
C1439 C 0.1087 0.31516 0.77473 0.0
H1440 H 0.17699 0.30939 0.80899 0.0
H1441 H 0.14735 0.27892 0.96347 0.0
H1442 H 0.14399 0.33652 0.75011 0.0
H1443 H 0.15426 0.34769 0.82541 0.0
H1444 H 0.16717 0.33551 0.76002 0.0
H1445 H 0.12048 0.28791 1.00958 0.0
H1446 H 0.11801 0.31105 0.01573 0.0
H1447 H 0.10806 0.29951 0.94067 0.0
H1448 H 0.11148 0.36822 0.97052 0.0
H1449 H 0.08598 0.34147 0.79103 0.0
H1450 H 0.15108 0.34753 0.96056 0.0
H1451 H 0.13873 0.33519 0.02584 0.0
H1452 H 0.13692 0.35842 0.02535 0.0
H1453 H 0.12059 0.31487 0.74003 0.0
H1454 H 0.09732 0.31623 0.7372 0.0
H1455 H 0.10799 0.30266 0.80484 0.0
C1456 C 0.99415 0.85927 0.09492 0.0
C1457 C 0.00391 0.86279 0.1592 0.0
C1458 C 0.98088 0.84696 0.09598 0.0
C1459 C 0.97696 0.83834 0.16355 0.0
C1460 C 0.98647 0.84221 0.22921 0.0
C1461 C 7e-05 0.85421 0.22592 0.0
C1462 C 0.97143 0.84279 0.02434 0.0
C1463 C 0.98238 0.83359 0.30276 0.0
C1464 C 0.93367 0.81569 0.18596 0.0
C1465 C 0.93869 0.79836 0.18122 0.0
C1466 C 0.94595 0.82896 0.17897 0.0
C1467 C 0.96347 0.82467 0.16491 0.0
C1468 C 0.9683 0.80715 0.15548 0.0
C1469 C 0.95588 0.79417 0.16522 0.0
C1470 C 0.9404 0.84745 0.19106 0.0
C1471 C 0.98671 0.80205 0.13801 0.0
H1472 H -0.00272 0.86576 0.04297 0.0
H1473 H 0.00757 0.85704 0.27565 0.0
H1474 H 0.97353 0.82902 1.00947 0.0
H1475 H 0.95732 0.84463 0.03187 0.0
H1476 H 0.9758 0.85095 0.97691 0.0
H1477 H 0.99007 0.83903 0.34966 0.0
H1478 H 0.96844 0.83507 0.31596 0.0
H1479 H 0.9851 0.81954 0.29877 0.0
H1480 H 0.92038 0.81881 0.19983 0.0
H1481 H 0.95968 0.78069 0.16218 0.0
H1482 H 0.94463 0.85565 0.14367 0.0
H1483 H 0.94667 0.8526 0.24222 0.0
H1484 H 0.92617 0.84869 0.19739 0.0
H1485 H 0.99164 0.80962 0.08987 0.0
H1486 H 0.98793 0.78807 0.12481 0.0
H1487 H 0.9951 0.805 0.18662 0.0
C1488 C 0.48938 0.63455 0.42406 0.0
C1489 C 0.50202 0.63561 0.36784 0.0
C1490 C 0.47627 0.64697 0.43029 0.0
C1491 C 0.47557 0.66072 0.3784 0.0
C1492 C 0.4881 0.66176 0.32073 0.0
C1493 C 0.50126 0.64925 0.31645 0.0
C1494 C 0.46329 0.64548 0.49306 0.0
C1495 C 0.4876 0.67611 0.26369 0.0
C1496 C 0.43246 0.68342 0.35333 0.0
C1497 C 0.43497 0.69886 0.39314 0.0
C1498 C 0.44558 0.67098 0.34771 0.0
C1499 C 0.46156 0.67385 0.38406 0.0
C1500 C 0.46402 0.68913 0.42651 0.0
C1501 C 0.45072 0.70149 0.43028 0.0
C1502 C 0.44244 0.65489 0.30178 0.0
C1503 C 0.48078 0.6925 0.46717 0.0
H1504 H 0.48993 0.62419 0.46463 0.0
H1505 H 0.51096 0.65016 0.2729 0.0
H1506 H 0.46362 0.65733 0.52808 0.0
H1507 H 0.45005 0.64437 0.46988 0.0
H1508 H 0.46579 0.63412 0.52941 0.0
H1509 H 0.49812 0.67494 0.22169 0.0
H1510 H 0.475 0.67601 0.2341 0.0
H1511 H 0.48878 0.68881 0.29208 0.0
H1512 H 0.42029 0.6811 0.3253 0.0
H1513 H 0.45281 0.71336 0.46126 0.0
H1514 H 0.44385 0.64324 0.33733 0.0
H1515 H 0.45224 0.65393 0.25665 0.0
H1516 H 0.42938 0.65473 0.27603 0.0
H1517 H 0.4836 0.68172 0.50613 0.0
H1518 H 0.48048 0.70477 0.49946 0.0
H1519 H 0.49159 0.69311 0.42652 0.0
C1520 C 0.64714 0.2009 0.5946 0.0
C1521 C 0.66118 0.20009 0.64403 0.0
C1522 C 0.63449 0.18786 0.59368 0.0
C1523 C 0.63586 0.17374 0.64369 0.0
C1524 C 0.65012 0.17274 0.69292 0.0
C1525 C 0.66262 0.18585 0.6922 0.0
C1526 C 0.61954 0.18927 0.5398 0.0
C1527 C 0.65204 0.15793 0.74727 0.0
C1528 C 0.59505 0.14873 0.69211 0.0
C1529 C 0.59667 0.13406 0.64644 0.0
C1530 C 0.60776 0.1617 0.69209 0.0
C1531 C 0.62237 0.16003 0.6449 0.0
C1532 C 0.62418 0.14517 0.59937 0.0
C1533 C 0.61137 0.13235 0.60095 0.0
C1534 C 0.60547 0.17728 0.74206 0.0
C1535 C 0.63954 0.14293 0.54813 0.0
H1536 H 0.64591 0.21182 0.55707 0.0
H1537 H 0.67339 0.18504 0.7306 0.0
H1538 H 0.61891 0.17756 0.50405 0.0
H1539 H 0.60721 0.19003 0.57124 0.0
H1540 H 0.62058 0.20082 0.50321 0.0
H1541 H 0.66394 0.15903 0.78166 0.0
H1542 H 0.64071 0.15751 0.78523 0.0
H1543 H 0.65241 0.14547 0.71655 0.0
H1544 H 0.58376 0.15018 0.72742 0.0
H1545 H 0.61274 0.12112 0.56519 0.0
H1546 H 0.60492 0.18919 0.70772 0.0
H1547 H 0.61672 0.17855 0.78009 0.0
H1548 H 0.59352 0.1765 0.77632 0.0
H1549 H 0.64015 0.15382 0.50796 0.0
H1550 H 0.639 0.13063 0.51612 0.0
H1551 H 0.65168 0.14316 0.58105 0.0
C1552 C 0.00092 0.34754 0.88677 0.0
C1553 C 0.01161 0.34437 0.9487 0.0
C1554 C 0.98903 0.33517 0.86165 0.0
C1555 C 0.98779 0.31912 0.89898 0.0
C1556 C -0.00138 0.31571 0.96112 0.0
C1557 C 0.01042 0.32838 0.98525 0.0
C1558 C 0.97773 0.33933 0.79519 0.0
C1559 C -0.00236 0.29874 1.00239 0.0
C1560 C 0.94542 0.29485 0.87848 0.0
C1561 C 0.94942 0.28256 0.82324 0.0
C1562 C 0.95783 0.30666 0.9041 0.0
C1563 C 0.97474 0.30618 0.87409 0.0
C1564 C 0.97894 0.29378 0.81861 0.0
C1565 C 0.96623 0.28212 0.79383 0.0
C1566 C 0.95281 0.31967 0.96327 0.0
C1567 C -0.00317 0.29292 0.78513 0.0
H1568 H 0.00203 0.35967 0.85695 0.0
H1569 H 0.01857 0.32584 0.03324 0.0
H1570 H 0.97968 0.32955 0.75056 0.0
H1571 H 0.96392 0.3388 0.81171 0.0
H1572 H 0.98046 0.35233 0.77173 0.0
H1573 H 0.00727 0.2979 0.04829 0.0
H1574 H 0.98453 0.29705 0.02645 0.0
H1575 H -0.00016 0.28786 0.96308 0.0
H1576 H 0.9326 0.29505 0.90288 0.0
H1577 H 0.96942 0.27274 0.75093 0.0
H1578 H 0.95455 0.33297 0.94143 0.0
H1579 H 0.96136 0.31832 1.0127 0.0
H1580 H 0.93919 0.31816 0.98169 0.0
H1581 H -0.00013 0.30528 0.75666 0.0
H1582 H -0.00183 0.28222 0.7441 0.0
H1583 H 0.00658 0.29113 0.82994 0.0
C1584 C 0.52109 0.163 0.62098 0.0
C1585 C 0.51551 0.15093 0.56766 0.0
C1586 C 0.50985 0.17575 0.64852 0.0
C1587 C 0.49273 0.17666 0.62099 0.0
C1588 C 0.48724 0.16489 0.56503 0.0
C1589 C 0.49864 0.15202 0.53968 0.0
C1590 C 0.51611 0.18783 0.70911 0.0
C1591 C 0.4692 0.16567 0.53303 0.0
C1592 C 0.45685 0.19669 0.73779 0.0
C1593 C 0.45542 0.21315 0.70585 0.0
C1594 C 0.46934 0.18488 0.71234 0.0
C1595 C 0.48035 0.18953 0.65231 0.0
C1596 C 0.47914 0.20625 0.62078 0.0
C1597 C 0.46679 0.21792 0.64844 0.0
C1598 C 0.47049 0.16731 0.74859 0.0
C1599 C 0.49042 0.21159 0.55589 0.0
H1600 H 0.53406 0.16198 0.64354 0.0
H1601 H 0.49434 0.14269 0.4984 0.0
H1602 H 0.51423 0.20147 0.6919 0.0
H1603 H 0.50839 0.1858 0.76065 0.0
H1604 H 0.52998 0.18583 0.7226 0.0
H1605 H 0.46734 0.15636 0.48639 0.0
H1606 H 0.45962 0.16275 0.57739 0.0
H1607 H 0.46641 0.17889 0.51232 0.0
H1608 H 0.44807 0.19302 0.78224 0.0
H1609 H 0.4655 0.23056 0.62289 0.0
H1610 H 0.48396 0.16471 0.76659 0.0
H1611 H 0.46692 0.15716 0.70756 0.0
H1612 H 0.46184 0.16616 0.79789 0.0
H1613 H 0.50425 0.20984 0.57017 0.0
H1614 H 0.48829 0.22527 0.5395 0.0
H1615 H 0.48766 0.20321 0.50693 0.0
C1616 C 0.65296 0.70082 0.3767 0.0
C1617 C 0.64949 0.71266 0.31922 0.0
C1618 C 0.64044 0.68898 0.40072 0.0
C1619 C 0.62392 0.68901 0.3669 0.0
C1620 C 0.6202 0.70103 0.30943 0.0
C1621 C 0.63304 0.71272 0.2862 0.0
C1622 C 0.64494 0.67636 0.46205 0.0
C1623 C 0.60273 0.70142 0.27201 0.0
C1624 C 0.59874 0.64703 0.37676 0.0
C1625 C 0.58735 0.6501 0.43647 0.0
C1626 C 0.61051 0.65965 0.3531 0.0
C1627 C 0.61087 0.67587 0.38955 0.0
C1628 C 0.59927 0.67921 0.4492 0.0
C1629 C 0.58764 0.66628 0.472 0.0
C1630 C 0.62266 0.65555 0.28936 0.0
C1631 C 0.59929 0.69638 0.48937 0.0
H1632 H 0.66547 0.70094 0.40392 0.0
H1633 H 0.63026 0.72176 0.24161 0.0
H1634 H 0.63571 0.67772 0.50919 0.0
H1635 H 0.6438 0.66292 0.44082 0.0
H1636 H 0.65826 0.67827 0.48369 0.0
H1637 H 0.60165 0.71202 0.23043 0.0
H1638 H 0.60032 0.68895 0.24324 0.0
H1639 H 0.59241 0.70307 0.31452 0.0
H1640 H 0.59833 0.63475 0.3476 0.0
H1641 H 0.57894 0.66875 0.51826 0.0
H1642 H 0.63624 0.65643 0.30884 0.0
H1643 H 0.62103 0.66514 0.24388 0.0
H1644 H 0.62049 0.64242 0.26596 0.0
H1645 H 0.61199 0.69846 0.5167 0.0
H1646 H 0.58901 0.69719 0.53259 0.0
H1647 H 0.59743 0.70704 0.44877 0.0
C1648 C 0.08914 0.83155 0.0512 0.0
C1649 C 0.08881 0.84769 0.08701 0.0
C1650 C 0.10041 0.81841 0.0752 0.0
C1651 C 0.11162 0.82151 0.1364 0.0
C1652 C 0.11132 0.83774 0.17279 0.0
C1653 C 0.09991 0.85058 0.14785 0.0
C1654 C 0.1004 0.80126 0.03487 0.0
C1655 C 0.12307 0.84158 0.23815 0.0
C1656 C 0.13167 0.78373 0.24176 0.0
C1657 C 0.14834 0.78319 0.21095 0.0
C1658 C 0.11949 0.79601 0.2175 0.0
C1659 C 0.12409 0.80801 0.16113 0.0
C1660 C 0.14086 0.80748 0.12972 0.0
C1661 C 0.15273 0.79508 0.15481 0.0
C1662 C 0.10172 0.7962 0.25239 0.0
C1663 C 0.1463 0.82003 0.06955 0.0
H1664 H 0.08069 0.82922 1.00396 0.0
H1665 H 0.09949 0.86285 0.17708 0.0
H1666 H 0.11333 0.79881 1.01017 0.0
H1667 H 0.09778 0.79066 0.07495 0.0
H1668 H 0.0906 0.80075 0.98958 0.0
H1669 H 0.1211 0.85481 0.26087 0.0
H1670 H 0.12078 0.83211 0.28359 0.0
H1671 H 0.13677 0.84025 0.22075 0.0
H1672 H 0.12818 0.77467 0.28532 0.0
H1673 H 0.16542 0.79452 0.12929 0.0
H1674 H 0.09172 0.79474 0.20845 0.0
H1675 H 0.09943 0.80882 0.28026 0.0
H1676 H 0.10002 0.78574 0.29422 0.0
H1677 H 0.13753 0.81894 0.02074 0.0
H1678 H 0.15977 0.81778 0.05034 0.0
H1679 H 0.14529 0.83348 0.09076 0.0
C1680 C 0.96442 0.707 0.2103 0.0
C1681 C 0.94662 0.70443 0.20166 0.0
C1682 C 0.97627 0.69409 0.19017 0.0
C1683 C 0.97016 0.67842 0.15893 0.0
C1684 C 0.95213 0.6756 0.15196 0.0
C1685 C 0.94054 0.68863 0.17406 0.0
C1686 C 0.99536 0.69745 0.20016 0.0
C1687 C 0.94512 0.65916 0.11803 0.0
C1688 C 0.0017 0.65397 0.03427 0.0
C1689 C 0.00709 0.64068 0.08186 0.0
C1690 C 0.98938 0.66615 0.05812 0.0
C1691 C 0.98267 0.66521 0.13182 0.0
C1692 C 0.98825 0.65188 0.18019 0.0
C1693 C 0.00027 0.6397 0.15437 0.0
C1694 C 0.98353 0.68002 1.00453 0.0
C1695 C 0.98174 0.65066 0.25961 0.0
H1696 H 0.96905 0.71933 0.23112 0.0
H1697 H 0.92676 0.68683 0.16619 0.0
H1698 H 0.00143 0.6867 0.23162 0.0
H1699 H 0.00175 0.69806 0.14473 0.0
H1700 H -0.0021 0.70975 0.23033 0.0
H1701 H 0.93077 0.6587 0.11921 0.0
H1702 H 0.94949 0.65808 0.05912 0.0
H1703 H 0.95022 0.64775 0.1483 0.0
H1704 H 0.00695 0.65467 0.97817 0.0
H1705 H 0.00464 0.62954 0.19155 0.0
H1706 H 0.987 0.69294 0.02684 0.0
H1707 H 0.96925 0.67967 0.9987 0.0
H1708 H 0.98943 0.67853 0.94827 0.0
H1709 H 0.98504 0.66266 0.29051 0.0
H1710 H 0.98733 0.63946 0.28997 0.0
H1711 H 0.96746 0.64946 0.26004 0.0
C1712 C 0.15421 0.19623 0.85726 0.0
C1713 C 0.1507 0.20809 0.79992 0.0
C1714 C 0.14166 0.18448 0.88168 0.0
C1715 C 0.1251 0.18461 0.84835 0.0
C1716 C 0.12141 0.19651 0.7904 0.0
C1717 C 0.13426 0.20813 0.76683 0.0
C1718 C 0.14612 0.17199 0.94362 0.0
C1719 C 0.10387 0.197 0.75354 0.0
C1720 C 0.0987 0.14354 0.8665 0.0
C1721 C 0.0877 0.14752 0.92657 0.0
C1722 C 0.11074 0.15558 0.83988 0.0
C1723 C 0.11178 0.17208 0.87376 0.0
C1724 C 0.10061 0.17629 0.93383 0.0
C1725 C 0.08871 0.16394 0.95961 0.0
C1726 C 0.12246 0.15059 0.77582 0.0
C1727 C 0.10137 0.19376 0.97138 0.0
H1728 H 0.16673 0.19637 0.88447 0.0
H1729 H 0.13147 0.21719 0.72231 0.0
H1730 H 0.13729 0.17398 0.99176 0.0
H1731 H 0.14431 0.1585 0.92402 0.0
H1732 H 0.15964 0.1735 0.96338 0.0
H1733 H 0.10302 0.20712 0.7097 0.0
H1734 H 0.10098 0.18428 0.72774 0.0
H1735 H 0.09373 0.19949 0.79607 0.0
H1736 H 0.09774 0.13104 0.83948 0.0
H1737 H 0.08033 0.16708 1.00626 0.0
H1738 H 0.13615 0.15115 0.79412 0.0
H1739 H 0.12096 0.1599 0.72915 0.0
H1740 H 0.11973 0.13738 0.7545 0.0
H1741 H 0.11425 0.19564 0.99732 0.0
H1742 H 0.09132 0.19525 0.01533 0.0
H1743 H 0.09964 0.20415 0.92938 0.0
C1744 C 0.63237 0.28782 0.76865 0.0
C1745 C 0.64961 0.28875 0.74438 0.0
C1746 C 0.62025 0.30047 0.74793 0.0
C1747 C 0.62555 0.3146 0.70316 0.0
C1748 C 0.64298 0.31588 0.68011 0.0
C1749 C 0.65471 0.30287 0.70014 0.0
C1750 C 0.60171 0.29859 0.77296 0.0
C1751 C 0.6492 0.33088 0.63336 0.0
C1752 C 0.59185 0.33905 0.59028 0.0
C1753 C 0.58831 0.35304 0.63748 0.0
C1754 C 0.60391 0.32636 0.61112 0.0
C1755 C 0.61285 0.328 0.67994 0.0
C1756 C 0.60962 0.34243 0.72667 0.0
C1757 C 0.59722 0.35467 0.70524 0.0
C1758 C 0.60679 0.31101 0.56042 0.0
C1759 C 0.6192 0.34487 0.79945 0.0
H1760 H 0.62828 0.27718 0.80365 0.0
H1761 H 0.66783 0.30361 0.67931 0.0
H1762 H 0.59781 0.30997 0.80673 0.0
H1763 H 0.59308 0.29811 0.72349 0.0
H1764 H 0.59962 0.28674 0.80677 0.0
H1765 H 0.66337 0.33046 0.62352 0.0
H1766 H 0.64256 0.33081 0.57844 0.0
H1767 H 0.64595 0.34328 0.66126 0.0
H1768 H 0.58477 0.33776 0.53828 0.0
H1769 H 0.59441 0.36556 0.74153 0.0
H1770 H 0.60366 0.29891 0.59075 0.0
H1771 H 0.62058 0.31026 0.54381 0.0
H1772 H 0.59875 0.31164 0.50905 0.0
H1773 H 0.61634 0.33398 0.83775 0.0
H1774 H 0.61565 0.35715 0.82784 0.0
H1775 H 0.63334 0.34484 0.78923 0.0
C1776 C 0.49793 0.8494 0.39218 0.0
C1777 C 0.50945 0.84596 0.45103 0.0
C1778 C 0.48604 0.83696 0.3676 0.0
C1779 C 0.48571 0.82051 0.40194 0.0
C1780 C 0.4974 0.81682 0.46075 0.0
C1781 C 0.50911 0.82959 0.48474 0.0
C1782 C 0.47376 0.84148 0.30495 0.0
C1783 C 0.49747 0.79939 0.4986 0.0
C1784 C 0.44383 0.79517 0.38664 0.0
C1785 C 0.44733 0.78378 0.32729 0.0
C1786 C 0.45625 0.80702 0.41186 0.0
C1787 C 0.47272 0.80745 0.37756 0.0
C1788 C 0.47647 0.79588 0.31823 0.0
C1789 C 0.46372 0.78422 0.29366 0.0
C1790 C 0.45169 0.81917 0.47502 0.0
C1791 C 0.4939 0.79593 0.28035 0.0
H1792 H 0.49835 0.86182 0.36428 0.0
H1793 H 0.51786 0.82681 0.53043 0.0
H1794 H 0.47545 0.83231 0.25779 0.0
H1795 H 0.46021 0.84026 0.32457 0.0
H1796 H 0.47575 0.85482 0.28382 0.0
H1797 H 0.50776 0.79834 0.54164 0.0
H1798 H 0.48478 0.79706 0.52567 0.0
H1799 H 0.49939 0.78902 0.45653 0.0
H1800 H 0.43139 0.79468 0.41439 0.0
H1801 H 0.46655 0.77558 0.24755 0.0
H1802 H 0.45277 0.83276 0.4558 0.0
H1803 H 0.46092 0.81751 0.5219 0.0
H1804 H 0.43838 0.81704 0.4964 0.0
H1805 H 0.49617 0.80864 0.25341 0.0
H1806 H 0.49503 0.78566 0.23718 0.0
H1807 H 0.50428 0.79406 0.32236 0.0
loop_
_geom_bond_atom_site_label_1
_geom_bond_atom_site_label_2
_geom_bond_distance
_geom_bond_site_symmetry_2
_ccdc_geom_bond_type
Co0 N4 2.148 1_554 S
Co0 N10 2.128 . S
Co0 N20 2.194 . S
Co0 O25 2.351 . S
Co0 O26 2.155 . S
Co0 O27 2.096 . S
C1 N4 1.301 . S
C1 N5 1.328 . S
C1 H6 0.930 . S
C2 C3 1.333 . S
C2 N4 1.317 . S
C2 H7 0.930 . S
C3 C2 1.333 . S
C3 N5 1.350 . S
C3 H29 0.931 . S
N4 Co0 2.148 1_556 S
N4 C1 1.301 . S
N4 C2 1.317 . S
N5 C1 1.328 . S
N5 C3 1.350 . S
H6 C1 0.930 . S
H7 C2 0.930 . S
C8 O9 1.224 . S
C8 O27 1.247 . S
O9 C8 1.224 . S
N10 Co0 2.128 . S
N10 C11 1.355 . S
N10 C13 1.311 . S
C11 N10 1.355 . S
C11 C12 1.363 . S
C11 H23 0.929 . S
C12 C11 1.363 . S
C12 N14 1.375 . S
C12 H30 0.931 . S
C13 N10 1.311 . S
C13 N14 1.347 . S
C13 H24 0.929 . S
N14 C12 1.375 . S
N14 C13 1.347 . S
C15 C18 1.365 . S
C15 N20 1.328 . S
C15 H21 0.929 . S
C16 C17 1.362 . S
C16 C19 1.378 . S
C16 H31 0.929 . S
C17 C16 1.362 . S
C17 C18 1.366 . S
C18 C15 1.365 . S
C18 C17 1.366 . S
C18 H32 0.930 . S
C19 C16 1.378 . S
C19 N20 1.315 . S
C19 H22 0.930 . S
N20 Co0 2.194 . S
N20 C15 1.328 . S
N20 C19 1.315 . S
H21 C15 0.929 . S
H22 C19 0.930 . S
H23 C11 0.929 . S
H24 C13 0.929 . S
O25 Co0 2.351 . S
O25 C28 1.244 . S
O26 Co0 2.155 . S
O26 C28 1.240 . S
O27 Co0 2.096 . S
O27 C8 1.247 . S
C28 O25 1.244 . S
C28 O26 1.240 . S
H29 C3 0.931 . S
H30 C12 0.931 . S
H31 C16 0.929 . S
H32 C18 0.930 . S
Co33 N37 2.148 . S
Co33 N43 2.128 . S
Co33 N53 2.194 . S
Co33 O58 2.351 . S
Co33 O59 2.155 . S
Co33 O60 2.096 . S
C34 N37 1.301 . S
C34 N38 1.328 . S
C34 H39 0.930 . S
C35 C36 1.333 . S
C35 N37 1.317 . S
C35 H40 0.930 . S
C36 C35 1.333 . S
C36 N38 1.350 . S
C36 H62 0.931 . S
N37 Co33 2.148 . S
N37 C34 1.301 . S
N37 C35 1.317 . S
N38 C34 1.328 . S
N38 C36 1.350 . S
H39 C34 0.930 . S
H40 C35 0.930 . S
C41 O42 1.224 . S
C41 O60 1.247 . S
O42 C41 1.224 . S
N43 Co33 2.128 . S
N43 C44 1.355 . S
N43 C46 1.311 . S
C44 N43 1.355 . S
C44 C45 1.363 . S
C44 H56 0.929 . S
C45 C44 1.363 . S
C45 N47 1.375 . S
C45 H63 0.931 . S
C46 N43 1.311 . S
C46 N47 1.347 . S
C46 H57 0.929 . S
N47 C45 1.375 . S
N47 C46 1.347 . S
C48 C51 1.365 . S
C48 N53 1.328 . S
C48 H54 0.929 . S
C49 C50 1.362 . S
C49 C52 1.378 . S
C49 H64 0.929 . S
C50 C49 1.362 . S
C50 C51 1.366 . S
C51 C48 1.365 . S
C51 C50 1.366 . S
C51 H65 0.930 . S
C52 C49 1.378 . S
C52 N53 1.315 . S
C52 H55 0.930 . S
N53 Co33 2.194 . S
N53 C48 1.328 . S
N53 C52 1.315 . S
H54 C48 0.929 . S
H55 C52 0.930 . S
H56 C44 0.929 . S
H57 C46 0.929 . S
O58 Co33 2.351 . S
O58 C61 1.244 . S
O59 Co33 2.155 . S
O59 C61 1.240 . S
O60 Co33 2.096 . S
O60 C41 1.247 . S
C61 O58 1.244 . S
C61 O59 1.240 . S
H62 C36 0.931 . S
H63 C45 0.931 . S
H64 C49 0.929 . S
H65 C51 0.930 . S
Co66 N70 2.148 . S
Co66 N76 2.128 . S
Co66 N86 2.194 . S
Co66 O91 2.351 . S
Co66 O92 2.155 . S
Co66 O93 2.096 . S
C67 N70 1.301 . S
C67 N71 1.328 . S
C67 H72 0.930 . S
C68 C69 1.333 . S
C68 N70 1.317 . S
C68 H73 0.930 . S
C69 C68 1.333 . S
C69 N71 1.350 . S
C69 H95 0.931 . S
N70 Co66 2.148 . S
N70 C67 1.301 . S
N70 C68 1.317 . S
N71 C67 1.328 . S
N71 C69 1.350 . S
H72 C67 0.930 . S
H73 C68 0.930 . S
C74 O75 1.224 . S
C74 O93 1.247 . S
O75 C74 1.224 . S
N76 Co66 2.128 . S
N76 C77 1.355 . S
N76 C79 1.311 . S
C77 N76 1.355 . S
C77 C78 1.363 . S
C77 H89 0.929 . S
C78 C77 1.363 . S
C78 N80 1.375 . S
C78 H96 0.931 . S
C79 N76 1.311 . S
C79 N80 1.347 . S
C79 H90 0.929 . S
N80 C78 1.375 . S
N80 C79 1.347 . S
C81 C84 1.365 . S
C81 N86 1.328 . S
C81 H87 0.929 . S
C82 C83 1.362 . S
C82 C85 1.378 . S
C82 H97 0.929 . S
C83 C82 1.362 . S
C83 C84 1.366 . S
C84 C81 1.365 . S
C84 C83 1.366 . S
C84 H98 0.930 . S
C85 C82 1.378 . S
C85 N86 1.315 . S
C85 H88 0.930 . S
N86 Co66 2.194 . S
N86 C81 1.328 . S
N86 C85 1.315 . S
H87 C81 0.929 . S
H88 C85 0.930 . S
H89 C77 0.929 . S
H90 C79 0.929 . S
O91 Co66 2.351 . S
O91 C94 1.244 . S
O92 Co66 2.155 . S
O92 C94 1.240 . S
O93 Co66 2.096 . S
O93 C74 1.247 . S
C94 O91 1.244 . S
C94 O92 1.240 . S
H95 C69 0.931 . S
H96 C78 0.931 . S
H97 C82 0.929 . S
H98 C84 0.930 . S
Co99 N103 2.148 . S
Co99 N109 2.128 . S
Co99 N119 2.194 . S
Co99 O124 2.351 . S
Co99 O125 2.155 . S
Co99 O126 2.096 . S
C100 N103 1.301 . S
C100 N104 1.328 . S
C100 H105 0.930 . S
C101 C102 1.333 . S
C101 N103 1.317 . S
C101 H106 0.930 . S
C102 C101 1.333 . S
C102 N104 1.350 . S
C102 H128 0.931 . S
N103 Co99 2.148 . S
N103 C100 1.301 . S
N103 C101 1.317 . S
N104 C100 1.328 . S
N104 C102 1.350 . S
H105 C100 0.930 . S
H106 C101 0.930 . S
C107 O108 1.224 . S
C107 O126 1.247 . S
O108 C107 1.224 . S
N109 Co99 2.128 . S
N109 C110 1.355 . S
N109 C112 1.311 1_556 S
C110 N109 1.355 . S
C110 C111 1.363 1_556 S
C110 H122 0.929 . S
C111 C110 1.363 1_554 S
C111 N113 1.375 . S
C111 H129 0.931 . S
C112 N109 1.311 1_554 S
C112 N113 1.347 . S
C112 H123 0.929 1_554 S
N113 C111 1.375 . S
N113 C112 1.347 . S
C114 C117 1.365 . S
C114 N119 1.328 . S
C114 H120 0.929 . S
C115 C116 1.362 . S
C115 C118 1.378 . S
C115 H130 0.929 . S
C116 C115 1.362 . S
C116 C117 1.366 . S
C117 C114 1.365 . S
C117 C116 1.366 . S
C117 H131 0.930 . S
C118 C115 1.378 . S
C118 N119 1.315 . S
C118 H121 0.930 . S
N119 Co99 2.194 . S
N119 C114 1.328 . S
N119 C118 1.315 . S
H120 C114 0.929 . S
H121 C118 0.930 . S
H122 C110 0.929 . S
H123 C112 0.929 1_556 S
O124 Co99 2.351 . S
O124 C127 1.244 . S
O125 Co99 2.155 . S
O125 C127 1.240 . S
O126 Co99 2.096 . S
O126 C107 1.247 . S
C127 O124 1.244 . S
C127 O125 1.240 . S
H128 C102 0.931 . S
H129 C111 0.931 . S
H130 C115 0.929 . S
H131 C117 0.930 . S
Co132 N136 2.148 1_556 S
Co132 N142 2.128 . S
Co132 N152 2.194 . S
Co132 O157 2.351 . S
Co132 O158 2.155 . S
Co132 O159 2.096 . S
C133 N136 1.301 . S
C133 N137 1.328 . S
C133 H138 0.930 . S
C134 C135 1.333 . S
C134 N136 1.317 . S
C134 H139 0.930 . S
C135 C134 1.333 . S
C135 N137 1.350 . S
C135 H161 0.931 . S
N136 Co132 2.148 1_554 S
N136 C133 1.301 . S
N136 C134 1.317 . S
N137 C133 1.328 . S
N137 C135 1.350 . S
H138 C133 0.930 . S
H139 C134 0.930 . S
C140 O141 1.224 . S
C140 O159 1.247 . S
O141 C140 1.224 . S
N142 Co132 2.128 . S
N142 C143 1.355 . S
N142 C145 1.311 . S
C143 N142 1.355 . S
C143 C144 1.363 . S
C143 H155 0.929 . S
C144 C143 1.363 . S
C144 N146 1.375 . S
C144 H162 0.931 . S
C145 N142 1.311 . S
C145 N146 1.347 . S
C145 H156 0.929 . S
N146 C144 1.375 . S
N146 C145 1.347 . S
C147 C150 1.365 . S
C147 N152 1.328 . S
C147 H153 0.929 . S
C148 C149 1.362 . S
C148 C151 1.378 . S
C148 H163 0.929 . S
C149 C148 1.362 . S
C149 C150 1.366 . S
C150 C147 1.365 . S
C150 C149 1.366 . S
C150 H164 0.930 . S
C151 C148 1.378 . S
C151 N152 1.315 . S
C151 H154 0.930 . S
N152 Co132 2.194 . S
N152 C147 1.328 . S
N152 C151 1.315 . S
H153 C147 0.929 . S
H154 C151 0.930 . S
H155 C143 0.929 . S
H156 C145 0.929 . S
O157 Co132 2.351 . S
O157 C160 1.244 . S
O158 Co132 2.155 . S
O158 C160 1.240 . S
O159 Co132 2.096 . S
O159 C140 1.247 . S
C160 O157 1.244 . S
C160 O158 1.240 . S
H161 C135 0.931 . S
H162 C144 0.931 . S
H163 C148 0.929 . S
H164 C150 0.930 . S
Co165 N169 2.148 . S
Co165 N175 2.128 . S
Co165 N185 2.194 . S
Co165 O190 2.351 . S
Co165 O191 2.155 . S
Co165 O192 2.096 . S
C166 N169 1.301 . S
C166 N170 1.328 . S
C166 H171 0.930 . S
C167 C168 1.333 . S
C167 N169 1.317 . S
C167 H172 0.930 . S
C168 C167 1.333 . S
C168 N170 1.350 . S
C168 H194 0.931 . S
N169 Co165 2.148 . S
N169 C166 1.301 . S
N169 C167 1.317 . S
N170 C166 1.328 . S
N170 C168 1.350 . S
H171 C166 0.930 . S
H172 C167 0.930 . S
C173 O174 1.224 . S
C173 O192 1.247 . S
O174 C173 1.224 . S
N175 Co165 2.128 . S
N175 C176 1.355 . S
N175 C178 1.311 1_554 S
C176 N175 1.355 . S
C176 C177 1.363 1_554 S
C176 H188 0.929 . S
C177 C176 1.363 1_556 S
C177 N179 1.375 . S
C177 H195 0.931 . S
C178 N175 1.311 1_556 S
C178 N179 1.347 . S
C178 H189 0.929 1_556 S
N179 C177 1.375 . S
N179 C178 1.347 . S
C180 C183 1.365 . S
C180 N185 1.328 . S
C180 H186 0.929 . S
C181 C182 1.362 . S
C181 C184 1.378 . S
C181 H196 0.929 . S
C182 C181 1.362 . S
C182 C183 1.366 . S
C183 C180 1.365 . S
C183 C182 1.366 . S
C183 H197 0.930 . S
C184 C181 1.378 . S
C184 N185 1.315 . S
C184 H187 0.930 . S
N185 Co165 2.194 . S
N185 C180 1.328 . S
N185 C184 1.315 . S
H186 C180 0.929 . S
H187 C184 0.930 . S
H188 C176 0.929 . S
H189 C178 0.929 1_554 S
O190 Co165 2.351 . S
O190 C193 1.244 . S
O191 Co165 2.155 . S
O191 C193 1.240 . S
O192 Co165 2.096 . S
O192 C173 1.247 . S
C193 O190 1.244 . S
C193 O191 1.240 . S
H194 C168 0.931 . S
H195 C177 0.931 . S
H196 C181 0.929 . S
H197 C183 0.930 . S
Co198 N202 2.148 . S
Co198 N208 2.128 . S
Co198 N218 2.194 . S
Co198 O223 2.351 . S
Co198 O224 2.155 . S
Co198 O225 2.096 . S
C199 N202 1.301 . S
C199 N203 1.328 . S
C199 H204 0.930 . S
C200 C201 1.333 . S
C200 N202 1.317 . S
C200 H205 0.930 . S
C201 C200 1.333 . S
C201 N203 1.350 . S
C201 H227 0.931 . S
N202 Co198 2.148 . S
N202 C199 1.301 . S
N202 C200 1.317 . S
N203 C199 1.328 . S
N203 C201 1.350 . S
H204 C199 0.930 . S
H205 C200 0.930 . S
C206 O207 1.224 . S
C206 O225 1.247 . S
O207 C206 1.224 . S
N208 Co198 2.128 . S
N208 C209 1.355 . S
N208 C211 1.311 . S
C209 N208 1.355 . S
C209 C210 1.363 . S
C209 H221 0.929 . S
C210 C209 1.363 . S
C210 N212 1.375 . S
C210 H228 0.931 . S
C211 N208 1.311 . S
C211 N212 1.347 . S
C211 H222 0.929 . S
N212 C210 1.375 . S
N212 C211 1.347 . S
C213 C216 1.365 . S
C213 N218 1.328 . S
C213 H219 0.929 . S
C214 C215 1.362 . S
C214 C217 1.378 . S
C214 H229 0.929 . S
C215 C214 1.362 . S
C215 C216 1.366 . S
C216 C213 1.365 . S
C216 C215 1.366 . S
C216 H230 0.930 . S
C217 C214 1.378 . S
C217 N218 1.315 . S
C217 H220 0.930 . S
N218 Co198 2.194 . S
N218 C213 1.328 . S
N218 C217 1.315 . S
H219 C213 0.929 . S
H220 C217 0.930 . S
H221 C209 0.929 . S
H222 C211 0.929 . S
O223 Co198 2.351 . S
O223 C226 1.244 . S
O224 Co198 2.155 . S
O224 C226 1.240 . S
O225 Co198 2.096 . S
O225 C206 1.247 . S
C226 O223 1.244 . S
C226 O224 1.240 . S
H227 C201 0.931 . S
H228 C210 0.931 . S
H229 C214 0.929 . S
H230 C216 0.930 . S
Co231 N235 2.148 . S
Co231 N241 2.128 . S
Co231 N251 2.194 . S
Co231 O256 2.351 . S
Co231 O257 2.155 . S
Co231 O258 2.096 . S
C232 N235 1.301 . S
C232 N236 1.328 . S
C232 H237 0.930 . S
C233 C234 1.333 . S
C233 N235 1.317 . S
C233 H238 0.930 . S
C234 C233 1.333 . S
C234 N236 1.350 . S
C234 H260 0.931 . S
N235 Co231 2.148 . S
N235 C232 1.301 . S
N235 C233 1.317 . S
N236 C232 1.328 . S
N236 C234 1.350 . S
H237 C232 0.930 . S
H238 C233 0.930 . S
C239 O240 1.224 . S
C239 O258 1.247 . S
O240 C239 1.224 . S
N241 Co231 2.128 . S
N241 C242 1.355 . S
N241 C244 1.311 . S
C242 N241 1.355 . S
C242 C243 1.363 . S
C242 H254 0.929 . S
C243 C242 1.363 . S
C243 N245 1.375 . S
C243 H261 0.931 . S
C244 N241 1.311 . S
C244 N245 1.347 . S
C244 H255 0.929 . S
N245 C243 1.375 . S
N245 C244 1.347 . S
C246 C249 1.365 . S
C246 N251 1.328 . S
C246 H252 0.929 . S
C247 C248 1.362 . S
C247 C250 1.378 . S
C247 H262 0.929 . S
C248 C247 1.362 . S
C248 C249 1.366 . S
C249 C246 1.365 . S
C249 C248 1.366 . S
C249 H263 0.930 . S
C250 C247 1.378 . S
C250 N251 1.315 . S
C250 H253 0.930 . S
N251 Co231 2.194 . S
N251 C246 1.328 . S
N251 C250 1.315 . S
H252 C246 0.929 . S
H253 C250 0.930 . S
H254 C242 0.929 . S
H255 C244 0.929 . S
O256 Co231 2.351 . S
O256 C259 1.244 . S
O257 Co231 2.155 . S
O257 C259 1.240 . S
O258 Co231 2.096 . S
O258 C239 1.247 . S
C259 O256 1.244 . S
C259 O257 1.240 . S
H260 C234 0.931 . S
H261 C243 0.931 . S
H262 C247 0.929 . S
H263 C249 0.930 . S
Co264 N268 2.148 . S
Co264 N274 2.128 . S
Co264 N284 2.194 . S
Co264 O289 2.351 . S
Co264 O290 2.155 . S
Co264 O291 2.096 . S
C265 N268 1.301 . S
C265 N269 1.328 . S
C265 H270 0.930 . S
C266 C267 1.333 . S
C266 N268 1.317 . S
C266 H271 0.930 . S
C267 C266 1.333 . S
C267 N269 1.350 . S
C267 H293 0.931 . S
N268 Co264 2.148 . S
N268 C265 1.301 . S
N268 C266 1.317 . S
N269 C265 1.328 . S
N269 C267 1.350 . S
H270 C265 0.930 . S
H271 C266 0.930 . S
C272 O273 1.224 . S
C272 O291 1.247 . S
O273 C272 1.224 . S
N274 Co264 2.128 . S
N274 C275 1.355 . S
N274 C277 1.311 . S
C275 N274 1.355 . S
C275 C276 1.363 . S
C275 H287 0.929 . S
C276 C275 1.363 . S
C276 N278 1.375 . S
C276 H294 0.931 . S
C277 N274 1.311 . S
C277 N278 1.347 . S
C277 H288 0.929 . S
N278 C276 1.375 . S
N278 C277 1.347 . S
C279 C282 1.365 . S
C279 N284 1.328 . S
C279 H285 0.929 . S
C280 C281 1.362 . S
C280 C283 1.378 . S
C280 H295 0.929 . S
C281 C280 1.362 . S
C281 C282 1.366 . S
C282 C279 1.365 . S
C282 C281 1.366 . S
C282 H296 0.930 . S
C283 C280 1.378 . S
C283 N284 1.315 . S
C283 H286 0.930 . S
N284 Co264 2.194 . S
N284 C279 1.328 . S
N284 C283 1.315 . S
H285 C279 0.929 . S
H286 C283 0.930 . S
H287 C275 0.929 . S
H288 C277 0.929 . S
O289 Co264 2.351 . S
O289 C292 1.244 . S
O290 Co264 2.155 . S
O290 C292 1.240 . S
O291 Co264 2.096 . S
O291 C272 1.247 . S
C292 O289 1.244 . S
C292 O290 1.240 . S
H293 C267 0.931 . S
H294 C276 0.931 . S
H295 C280 0.929 . S
H296 C282 0.930 . S
Co297 N301 2.148 . S
Co297 N307 2.128 . S
Co297 N317 2.194 . S
Co297 O322 2.351 . S
Co297 O323 2.155 . S
Co297 O324 2.096 . S
C298 N301 1.301 . S
C298 N302 1.328 . S
C298 H303 0.930 . S
C299 C300 1.333 . S
C299 N301 1.317 . S
C299 H304 0.930 . S
C300 C299 1.333 . S
C300 N302 1.350 . S
C300 H326 0.931 . S
N301 Co297 2.148 . S
N301 C298 1.301 . S
N301 C299 1.317 . S
N302 C298 1.328 . S
N302 C300 1.350 . S
H303 C298 0.930 . S
H304 C299 0.930 . S
C305 O306 1.224 . S
C305 O324 1.247 . S
O306 C305 1.224 . S
N307 Co297 2.128 . S
N307 C308 1.355 . S
N307 C310 1.311 1_554 S
C308 N307 1.355 . S
C308 C309 1.363 1_554 S
C308 H320 0.929 . S
C309 C308 1.363 1_556 S
C309 N311 1.375 . S
C309 H327 0.931 . S
C310 N307 1.311 1_556 S
C310 N311 1.347 . S
C310 H321 0.929 1_556 S
N311 C309 1.375 . S
N311 C310 1.347 . S
C312 C315 1.365 . S
C312 N317 1.328 . S
C312 H318 0.929 . S
C313 C314 1.362 . S
C313 C316 1.378 . S
C313 H328 0.929 . S
C314 C313 1.362 . S
C314 C315 1.366 . S
C315 C312 1.365 . S
C315 C314 1.366 . S
C315 H329 0.930 . S
C316 C313 1.378 . S
C316 N317 1.315 . S
C316 H319 0.930 . S
N317 Co297 2.194 . S
N317 C312 1.328 . S
N317 C316 1.315 . S
H318 C312 0.929 . S
H319 C316 0.930 . S
H320 C308 0.929 . S
H321 C310 0.929 1_554 S
O322 Co297 2.351 . S
O322 C325 1.244 . S
O323 Co297 2.155 . S
O323 C325 1.240 . S
O324 Co297 2.096 . S
O324 C305 1.247 . S
C325 O322 1.244 . S
C325 O323 1.240 . S
H326 C300 0.931 . S
H327 C309 0.931 . S
H328 C313 0.929 . S
H329 C315 0.930 . S
Co330 N334 2.148 . S
Co330 N340 2.128 . S
Co330 N350 2.194 . S
Co330 O355 2.351 . S
Co330 O356 2.155 . S
Co330 O357 2.096 . S
C331 N334 1.301 . S
C331 N335 1.328 . S
C331 H336 0.930 . S
C332 C333 1.333 . S
C332 N334 1.317 . S
C332 H337 0.930 . S
C333 C332 1.333 . S
C333 N335 1.350 . S
C333 H359 0.931 . S
N334 Co330 2.148 . S
N334 C331 1.301 . S
N334 C332 1.317 . S
N335 C331 1.328 . S
N335 C333 1.350 . S
H336 C331 0.930 . S
H337 C332 0.930 . S
C338 O339 1.224 . S
C338 O357 1.247 . S
O339 C338 1.224 . S
N340 Co330 2.128 . S
N340 C341 1.355 . S
N340 C343 1.311 1_556 S
C341 N340 1.355 . S
C341 C342 1.363 1_556 S
C341 H353 0.929 . S
C342 C341 1.363 1_554 S
C342 N344 1.375 . S
C342 H360 0.931 . S
C343 N340 1.311 1_554 S
C343 N344 1.347 . S
C343 H354 0.929 1_554 S
N344 C342 1.375 . S
N344 C343 1.347 . S
C345 C348 1.365 . S
C345 N350 1.328 . S
C345 H351 0.929 . S
C346 C347 1.362 . S
C346 C349 1.378 . S
C346 H361 0.929 . S
C347 C346 1.362 . S
C347 C348 1.366 . S
C348 C345 1.365 . S
C348 C347 1.366 . S
C348 H362 0.930 . S
C349 C346 1.378 . S
C349 N350 1.315 . S
C349 H352 0.930 . S
N350 Co330 2.194 . S
N350 C345 1.328 . S
N350 C349 1.315 . S
H351 C345 0.929 . S
H352 C349 0.930 . S
H353 C341 0.929 . S
H354 C343 0.929 1_556 S
O355 Co330 2.351 . S
O355 C358 1.244 . S
O356 Co330 2.155 . S
O356 C358 1.240 . S
O357 Co330 2.096 . S
O357 C338 1.247 . S
C358 O355 1.244 . S
C358 O356 1.240 . S
H359 C333 0.931 . S
H360 C342 0.931 . S
H361 C346 0.929 . S
H362 C348 0.930 . S
Co363 N367 2.148 . S
Co363 N373 2.128 . S
Co363 N383 2.194 . S
Co363 O388 2.351 . S
Co363 O389 2.155 . S
Co363 O390 2.096 . S
C364 N367 1.301 . S
C364 N368 1.328 . S
C364 H369 0.930 . S
C365 C366 1.333 . S
C365 N367 1.317 . S
C365 H370 0.930 . S
C366 C365 1.333 . S
C366 N368 1.350 . S
C366 H392 0.931 . S
N367 Co363 2.148 . S
N367 C364 1.301 . S
N367 C365 1.317 . S
N368 C364 1.328 . S
N368 C366 1.350 . S
H369 C364 0.930 . S
H370 C365 0.930 . S
C371 O372 1.224 . S
C371 O390 1.247 . S
O372 C371 1.224 . S
N373 Co363 2.128 . S
N373 C374 1.355 . S
N373 C376 1.311 . S
C374 N373 1.355 . S
C374 C375 1.363 . S
C374 H386 0.929 . S
C375 C374 1.363 . S
C375 N377 1.375 . S
C375 H393 0.931 . S
C376 N373 1.311 . S
C376 N377 1.347 . S
C376 H387 0.929 . S
N377 C375 1.375 . S
N377 C376 1.347 . S
C378 C381 1.365 . S
C378 N383 1.328 . S
C378 H384 0.929 . S
C379 C380 1.362 . S
C379 C382 1.378 . S
C379 H394 0.929 . S
C380 C379 1.362 . S
C380 C381 1.366 . S
C381 C378 1.365 . S
C381 C380 1.366 . S
C381 H395 0.930 . S
C382 C379 1.378 . S
C382 N383 1.315 . S
C382 H385 0.930 . S
N383 Co363 2.194 . S
N383 C378 1.328 . S
N383 C382 1.315 . S
H384 C378 0.929 . S
H385 C382 0.930 . S
H386 C374 0.929 . S
H387 C376 0.929 . S
O388 Co363 2.351 . S
O388 C391 1.244 . S
O389 Co363 2.155 . S
O389 C391 1.240 . S
O390 Co363 2.096 . S
O390 C371 1.247 . S
C391 O388 1.244 . S
C391 O389 1.240 . S
H392 C366 0.931 . S
H393 C375 0.931 . S
H394 C379 0.929 . S
H395 C381 0.930 . S
Co396 N400 2.148 . S
Co396 N406 2.128 . S
Co396 N416 2.194 . S
Co396 O421 2.351 . S
Co396 O422 2.155 . S
Co396 O423 2.096 . S
C397 N400 1.301 . S
C397 N401 1.328 . S
C397 H402 0.930 . S
C398 C399 1.333 . S
C398 N400 1.317 . S
C398 H403 0.930 . S
C399 C398 1.333 . S
C399 N401 1.350 . S
C399 H425 0.931 . S
N400 Co396 2.148 . S
N400 C397 1.301 . S
N400 C398 1.317 . S
N401 C397 1.328 . S
N401 C399 1.350 . S
H402 C397 0.930 . S
H403 C398 0.930 . S
C404 O405 1.224 . S
C404 O423 1.247 . S
O405 C404 1.224 . S
N406 Co396 2.128 . S
N406 C407 1.355 . S
N406 C409 1.311 . S
C407 N406 1.355 . S
C407 C408 1.363 . S
C407 H419 0.929 . S
C408 C407 1.363 . S
C408 N410 1.375 . S
C408 H426 0.931 . S
C409 N406 1.311 . S
C409 N410 1.347 . S
C409 H420 0.929 . S
N410 C408 1.375 . S
N410 C409 1.347 . S
C411 C414 1.365 . S
C411 N416 1.328 . S
C411 H417 0.929 . S
C412 C413 1.362 . S
C412 C415 1.378 . S
C412 H427 0.929 . S
C413 C412 1.362 . S
C413 C414 1.366 . S
C414 C411 1.365 . S
C414 C413 1.366 . S
C414 H428 0.930 . S
C415 C412 1.378 . S
C415 N416 1.315 . S
C415 H418 0.930 . S
N416 Co396 2.194 . S
N416 C411 1.328 . S
N416 C415 1.315 . S
H417 C411 0.929 . S
H418 C415 0.930 . S
H419 C407 0.929 . S
H420 C409 0.929 . S
O421 Co396 2.351 . S
O421 C424 1.244 . S
O422 Co396 2.155 . S
O422 C424 1.240 . S
O423 Co396 2.096 . S
O423 C404 1.247 . S
C424 O421 1.244 . S
C424 O422 1.240 . S
H425 C399 0.931 . S
H426 C408 0.931 . S
H427 C412 0.929 . S
H428 C414 0.930 . S
Co429 N433 2.148 1_554 S
Co429 N439 2.128 . S
Co429 N449 2.194 . S
Co429 O454 2.351 . S
Co429 O455 2.155 . S
Co429 O456 2.096 . S
C430 N433 1.301 . S
C430 N434 1.328 . S
C430 H435 0.930 . S
C431 C432 1.333 . S
C431 N433 1.317 . S
C431 H436 0.930 . S
C432 C431 1.333 . S
C432 N434 1.350 . S
C432 H458 0.931 . S
N433 Co429 2.148 1_556 S
N433 C430 1.301 . S
N433 C431 1.317 . S
N434 C430 1.328 . S
N434 C432 1.350 . S
H435 C430 0.930 . S
H436 C431 0.930 . S
C437 O438 1.224 . S
C437 O456 1.247 . S
O438 C437 1.224 . S
N439 Co429 2.128 . S
N439 C440 1.355 . S
N439 C442 1.311 . S
C440 N439 1.355 . S
C440 C441 1.363 . S
C440 H452 0.929 . S
C441 C440 1.363 . S
C441 N443 1.375 . S
C441 H459 0.931 . S
C442 N439 1.311 . S
C442 N443 1.347 . S
C442 H453 0.929 . S
N443 C441 1.375 . S
N443 C442 1.347 . S
C444 C447 1.365 . S
C444 N449 1.328 . S
C444 H450 0.929 . S
C445 C446 1.362 . S
C445 C448 1.378 . S
C445 H460 0.929 . S
C446 C445 1.362 . S
C446 C447 1.366 . S
C447 C444 1.365 . S
C447 C446 1.366 . S
C447 H461 0.930 . S
C448 C445 1.378 . S
C448 N449 1.315 . S
C448 H451 0.930 . S
N449 Co429 2.194 . S
N449 C444 1.328 . S
N449 C448 1.315 . S
H450 C444 0.929 . S
H451 C448 0.930 . S
H452 C440 0.929 . S
H453 C442 0.929 . S
O454 Co429 2.351 . S
O454 C457 1.244 . S
O455 Co429 2.155 . S
O455 C457 1.240 . S
O456 Co429 2.096 . S
O456 C437 1.247 . S
C457 O454 1.244 . S
C457 O455 1.240 . S
H458 C432 0.931 . S
H459 C441 0.931 . S
H460 C445 0.929 . S
H461 C447 0.930 . S
Co462 N466 2.148 . S
Co462 N472 2.128 . S
Co462 N482 2.194 . S
Co462 O487 2.351 . S
Co462 O488 2.155 . S
Co462 O489 2.096 . S
C463 N466 1.301 . S
C463 N467 1.328 . S
C463 H468 0.930 . S
C464 C465 1.333 . S
C464 N466 1.317 . S
C464 H469 0.930 . S
C465 C464 1.333 . S
C465 N467 1.350 . S
C465 H491 0.931 . S
N466 Co462 2.148 . S
N466 C463 1.301 . S
N466 C464 1.317 . S
N467 C463 1.328 . S
N467 C465 1.350 . S
H468 C463 0.930 . S
H469 C464 0.930 . S
C470 O471 1.224 . S
C470 O489 1.247 . S
O471 C470 1.224 . S
N472 Co462 2.128 . S
N472 C473 1.355 . S
N472 C475 1.311 . S
C473 N472 1.355 . S
C473 C474 1.363 . S
C473 H485 0.929 . S
C474 C473 1.363 . S
C474 N476 1.375 . S
C474 H492 0.931 . S
C475 N472 1.311 . S
C475 N476 1.347 . S
C475 H486 0.929 . S
N476 C474 1.375 . S
N476 C475 1.347 . S
C477 C480 1.365 . S
C477 N482 1.328 . S
C477 H483 0.929 . S
C478 C479 1.362 . S
C478 C481 1.378 . S
C478 H493 0.929 . S
C479 C478 1.362 . S
C479 C480 1.366 . S
C480 C477 1.365 . S
C480 C479 1.366 . S
C480 H494 0.930 . S
C481 C478 1.378 . S
C481 N482 1.315 . S
C481 H484 0.930 . S
N482 Co462 2.194 . S
N482 C477 1.328 . S
N482 C481 1.315 . S
H483 C477 0.929 . S
H484 C481 0.930 . S
H485 C473 0.929 . S
H486 C475 0.929 . S
O487 Co462 2.351 . S
O487 C490 1.244 . S
O488 Co462 2.155 . S
O488 C490 1.240 . S
O489 Co462 2.096 . S
O489 C470 1.247 . S
C490 O487 1.244 . S
C490 O488 1.240 . S
H491 C465 0.931 . S
H492 C474 0.931 . S
H493 C478 0.929 . S
H494 C480 0.930 . S
Co495 N499 2.148 1_556 S
Co495 N505 2.128 . S
Co495 N515 2.194 . S
Co495 O520 2.351 . S
Co495 O521 2.155 . S
Co495 O522 2.096 . S
C496 N499 1.301 . S
C496 N500 1.328 . S
C496 H501 0.930 . S
C497 C498 1.333 . S
C497 N499 1.317 . S
C497 H502 0.930 . S
C498 C497 1.333 . S
C498 N500 1.350 . S
C498 H524 0.931 . S
N499 Co495 2.148 1_554 S
N499 C496 1.301 . S
N499 C497 1.317 . S
N500 C496 1.328 . S
N500 C498 1.350 . S
H501 C496 0.930 . S
H502 C497 0.930 . S
C503 O504 1.224 . S
C503 O522 1.247 . S
O504 C503 1.224 . S
N505 Co495 2.128 . S
N505 C506 1.355 . S
N505 C508 1.311 . S
C506 N505 1.355 . S
C506 C507 1.363 . S
C506 H518 0.929 . S
C507 C506 1.363 . S
C507 N509 1.375 . S
C507 H525 0.931 . S
C508 N505 1.311 . S
C508 N509 1.347 . S
C508 H519 0.929 . S
N509 C507 1.375 . S
N509 C508 1.347 . S
C510 C513 1.365 . S
C510 N515 1.328 . S
C510 H516 0.929 . S
C511 C512 1.362 . S
C511 C514 1.378 . S
C511 H526 0.929 . S
C512 C511 1.362 . S
C512 C513 1.366 . S
C513 C510 1.365 . S
C513 C512 1.366 . S
C513 H527 0.930 . S
C514 C511 1.378 . S
C514 N515 1.315 . S
C514 H517 0.930 . S
N515 Co495 2.194 . S
N515 C510 1.328 . S
N515 C514 1.315 . S
H516 C510 0.929 . S
H517 C514 0.930 . S
H518 C506 0.929 . S
H519 C508 0.929 . S
O520 Co495 2.351 . S
O520 C523 1.244 . S
O521 Co495 2.155 . S
O521 C523 1.240 . S
O522 Co495 2.096 . S
O522 C503 1.247 . S
C523 O520 1.244 . S
C523 O521 1.240 . S
H524 C498 0.931 . S
H525 C507 0.931 . S
H526 C511 0.929 . S
H527 C513 0.930 . S
C528 C529 1.391 . S
C528 C530 1.394 . S
C528 H544 0.931 . S
C529 C528 1.391 . S
C529 C533 1.376 . S
C530 C528 1.394 . S
C530 C531 1.369 . S
C530 C534 1.531 . S
C531 C530 1.369 . S
C531 C532 1.410 . S
C531 C539 1.503 . S
C532 C531 1.410 . S
C532 C533 1.392 . S
C532 C535 1.511 . S
C533 C529 1.376 . S
C533 C532 1.392 . S
C533 H545 0.929 . S
C534 C530 1.531 . S
C534 H546 0.960 . S
C534 H547 0.962 . S
C534 H548 0.960 . S
C535 C532 1.511 . S
C535 H549 0.961 . S
C535 H550 0.961 . S
C535 H551 0.961 . S
C536 C537 1.370 . S
C536 C538 1.363 . S
C536 H552 0.931 . S
C537 C536 1.370 . S
C537 C541 1.408 . S
C538 C536 1.363 . S
C538 C539 1.370 . S
C538 C542 1.524 . S
C539 C531 1.503 . S
C539 C538 1.370 . S
C539 C540 1.403 . S
C540 C539 1.403 . S
C540 C541 1.404 . S
C540 C543 1.539 . S
C541 C537 1.408 . S
C541 C540 1.404 . S
C541 H553 0.930 . S
C542 C538 1.524 . S
C542 H554 0.956 . S
C542 H555 0.961 . S
C542 H556 0.961 . S
C543 C540 1.539 . S
C543 H557 0.958 . S
C543 H558 0.961 . S
C543 H559 0.960 . S
H544 C528 0.931 . S
H545 C533 0.929 . S
H546 C534 0.960 . S
H547 C534 0.962 . S
H548 C534 0.960 . S
H549 C535 0.961 . S
H550 C535 0.961 . S
H551 C535 0.961 . S
H552 C536 0.931 . S
H553 C541 0.930 . S
H554 C542 0.956 . S
H555 C542 0.961 . S
H556 C542 0.961 . S
H557 C543 0.958 . S
H558 C543 0.961 . S
H559 C543 0.960 . S
C560 C561 1.391 1_556 S
C560 C562 1.394 . S
C560 H576 0.931 1_556 S
C561 C560 1.391 1_554 S
C561 C565 1.376 1_554 S
C562 C560 1.394 . S
C562 C563 1.369 . S
C562 C566 1.531 . S
C563 C562 1.369 . S
C563 C564 1.410 . S
C563 C571 1.503 . S
C564 C563 1.410 . S
C564 C565 1.392 . S
C564 C567 1.511 . S
C565 C561 1.376 1_556 S
C565 C564 1.392 . S
C565 H577 0.929 1_556 S
C566 C562 1.531 . S
C566 H578 0.960 . S
C566 H579 0.962 . S
C566 H580 0.960 . S
C567 C564 1.511 . S
C567 H581 0.961 . S
C567 H582 0.961 . S
C567 H583 0.961 . S
C568 C569 1.370 . S
C568 C570 1.363 . S
C568 H584 0.931 . S
C569 C568 1.370 . S
C569 C573 1.408 . S
C570 C568 1.363 . S
C570 C571 1.370 . S
C570 C574 1.524 . S
C571 C563 1.503 . S
C571 C570 1.370 . S
C571 C572 1.403 . S
C572 C571 1.403 . S
C572 C573 1.404 . S
C572 C575 1.539 . S
C573 C569 1.408 . S
C573 C572 1.404 . S
C573 H585 0.930 . S
C574 C570 1.524 . S
C574 H586 0.956 . S
C574 H587 0.961 . S
C574 H588 0.961 . S
C575 C572 1.539 . S
C575 H589 0.958 . S
C575 H590 0.961 . S
C575 H591 0.960 . S
H576 C560 0.931 1_554 S
H577 C565 0.929 1_554 S
H578 C566 0.960 . S
H579 C566 0.962 . S
H580 C566 0.960 . S
H581 C567 0.961 . S
H582 C567 0.961 . S
H583 C567 0.961 . S
H584 C568 0.931 . S
H585 C573 0.930 . S
H586 C574 0.956 . S
H587 C574 0.961 . S
H588 C574 0.961 . S
H589 C575 0.958 . S
H590 C575 0.961 . S
H591 C575 0.960 . S
C592 C593 1.391 . S
C592 C594 1.394 . S
C592 H608 0.931 . S
C593 C592 1.391 . S
C593 C597 1.376 . S
C594 C592 1.394 . S
C594 C595 1.369 . S
C594 C598 1.531 . S
C595 C594 1.369 . S
C595 C596 1.410 . S
C595 C603 1.503 . S
C596 C595 1.410 . S
C596 C597 1.392 . S
C596 C599 1.511 . S
C597 C593 1.376 . S
C597 C596 1.392 . S
C597 H609 0.929 . S
C598 C594 1.531 . S
C598 H610 0.960 . S
C598 H611 0.962 . S
C598 H612 0.960 . S
C599 C596 1.511 . S
C599 H613 0.961 . S
C599 H614 0.961 . S
C599 H615 0.961 . S
C600 C601 1.370 . S
C600 C602 1.363 1_556 S
C600 H616 0.931 . S
C601 C600 1.370 . S
C601 C605 1.408 . S
C602 C600 1.363 1_554 S
C602 C603 1.370 . S
C602 C606 1.524 . S
C603 C595 1.503 . S
C603 C602 1.370 . S
C603 C604 1.403 . S
C604 C603 1.403 . S
C604 C605 1.404 1_554 S
C604 C607 1.539 . S
C605 C601 1.408 . S
C605 C604 1.404 1_556 S
C605 H617 0.930 . S
C606 C602 1.524 . S
C606 H618 0.956 . S
C606 H619 0.961 . S
C606 H620 0.961 . S
C607 C604 1.539 . S
C607 H621 0.958 . S
C607 H622 0.961 . S
C607 H623 0.960 . S
H608 C592 0.931 . S
H609 C597 0.929 . S
H610 C598 0.960 . S
H611 C598 0.962 . S
H612 C598 0.960 . S
H613 C599 0.961 . S
H614 C599 0.961 . S
H615 C599 0.961 . S
H616 C600 0.931 . S
H617 C605 0.930 . S
H618 C606 0.956 . S
H619 C606 0.961 . S
H620 C606 0.961 . S
H621 C607 0.958 . S
H622 C607 0.961 . S
H623 C607 0.960 . S
C624 C625 1.391 . S
C624 C626 1.394 . S
C624 H640 0.931 . S
C625 C624 1.391 . S
C625 C629 1.376 . S
C626 C624 1.394 . S
C626 C627 1.369 . S
C626 C630 1.531 . S
C627 C626 1.369 . S
C627 C628 1.410 . S
C627 C635 1.503 . S
C628 C627 1.410 . S
C628 C629 1.392 . S
C628 C631 1.511 . S
C629 C625 1.376 . S
C629 C628 1.392 . S
C629 H641 0.929 . S
C630 C626 1.531 . S
C630 H642 0.960 . S
C630 H643 0.962 . S
C630 H644 0.960 . S
C631 C628 1.511 . S
C631 H645 0.961 . S
C631 H646 0.961 . S
C631 H647 0.961 . S
C632 C633 1.370 . S
C632 C634 1.363 . S
C632 H648 0.931 . S
C633 C632 1.370 . S
C633 C637 1.408 . S
C634 C632 1.363 . S
C634 C635 1.370 . S
C634 C638 1.524 . S
C635 C627 1.503 . S
C635 C634 1.370 . S
C635 C636 1.403 . S
C636 C635 1.403 . S
C636 C637 1.404 . S
C636 C639 1.539 . S
C637 C633 1.408 . S
C637 C636 1.404 . S
C637 H649 0.930 . S
C638 C634 1.524 . S
C638 H650 0.956 . S
C638 H651 0.961 . S
C638 H652 0.961 . S
C639 C636 1.539 . S
C639 H653 0.958 . S
C639 H654 0.961 . S
C639 H655 0.960 . S
H640 C624 0.931 . S
H641 C629 0.929 . S
H642 C630 0.960 . S
H643 C630 0.962 . S
H644 C630 0.960 . S
H645 C631 0.961 . S
H646 C631 0.961 . S
H647 C631 0.961 . S
H648 C632 0.931 . S
H649 C637 0.930 . S
H650 C638 0.956 . S
H651 C638 0.961 . S
H652 C638 0.961 . S
H653 C639 0.958 . S
H654 C639 0.961 . S
H655 C639 0.960 . S
C656 C657 1.391 . S
C656 C658 1.394 . S
C656 H672 0.931 . S
C657 C656 1.391 . S
C657 C661 1.376 . S
C658 C656 1.394 . S
C658 C659 1.369 . S
C658 C662 1.531 . S
C659 C658 1.369 . S
C659 C660 1.410 . S
C659 C667 1.503 . S
C660 C659 1.410 . S
C660 C661 1.392 . S
C660 C663 1.511 . S
C661 C657 1.376 . S
C661 C660 1.392 . S
C661 H673 0.929 . S
C662 C658 1.531 . S
C662 H674 0.960 . S
C662 H675 0.962 . S
C662 H676 0.960 . S
C663 C660 1.511 . S
C663 H677 0.961 . S
C663 H678 0.961 . S
C663 H679 0.961 . S
C664 C665 1.370 . S
C664 C666 1.363 . S
C664 H680 0.931 . S
C665 C664 1.370 . S
C665 C669 1.408 . S
C666 C664 1.363 . S
C666 C667 1.370 . S
C666 C670 1.524 . S
C667 C659 1.503 . S
C667 C666 1.370 . S
C667 C668 1.403 . S
C668 C667 1.403 . S
C668 C669 1.404 . S
C668 C671 1.539 . S
C669 C665 1.408 . S
C669 C668 1.404 . S
C669 H681 0.930 . S
C670 C666 1.524 . S
C670 H682 0.956 . S
C670 H683 0.961 . S
C670 H684 0.961 . S
C671 C668 1.539 . S
C671 H685 0.958 . S
C671 H686 0.961 . S
C671 H687 0.960 . S
H672 C656 0.931 . S
H673 C661 0.929 . S
H674 C662 0.960 . S
H675 C662 0.962 . S
H676 C662 0.960 . S
H677 C663 0.961 . S
H678 C663 0.961 . S
H679 C663 0.961 . S
H680 C664 0.931 . S
H681 C669 0.930 . S
H682 C670 0.956 . S
H683 C670 0.961 . S
H684 C670 0.961 . S
H685 C671 0.958 . S
H686 C671 0.961 . S
H687 C671 0.960 . S
C688 C689 1.391 . S
C688 C690 1.394 . S
C688 H704 0.931 . S
C689 C688 1.391 . S
C689 C693 1.376 . S
C690 C688 1.394 . S
C690 C691 1.369 . S
C690 C694 1.531 . S
C691 C690 1.369 . S
C691 C692 1.410 . S
C691 C699 1.503 . S
C692 C691 1.410 . S
C692 C693 1.392 . S
C692 C695 1.511 . S
C693 C689 1.376 . S
C693 C692 1.392 . S
C693 H705 0.929 . S
C694 C690 1.531 . S
C694 H706 0.960 . S
C694 H707 0.962 . S
C694 H708 0.960 . S
C695 C692 1.511 . S
C695 H709 0.961 . S
C695 H710 0.961 . S
C695 H711 0.961 . S
C696 C697 1.370 . S
C696 C698 1.363 . S
C696 H712 0.931 . S
C697 C696 1.370 . S
C697 C701 1.408 . S
C698 C696 1.363 . S
C698 C699 1.370 . S
C698 C702 1.524 . S
C699 C691 1.503 . S
C699 C698 1.370 . S
C699 C700 1.403 . S
C700 C699 1.403 . S
C700 C701 1.404 . S
C700 C703 1.539 . S
C701 C697 1.408 . S
C701 C700 1.404 . S
C701 H713 0.930 . S
C702 C698 1.524 . S
C702 H714 0.956 . S
C702 H715 0.961 . S
C702 H716 0.961 . S
C703 C700 1.539 . S
C703 H717 0.958 . S
C703 H718 0.961 . S
C703 H719 0.960 . S
H704 C688 0.931 . S
H705 C693 0.929 . S
H706 C694 0.960 . S
H707 C694 0.962 . S
H708 C694 0.960 . S
H709 C695 0.961 . S
H710 C695 0.961 . S
H711 C695 0.961 . S
H712 C696 0.931 . S
H713 C701 0.930 . S
H714 C702 0.956 . S
H715 C702 0.961 . S
H716 C702 0.961 . S
H717 C703 0.958 . S
H718 C703 0.961 . S
H719 C703 0.960 . S
C720 C721 1.391 . S
C720 C722 1.394 . S
C720 H736 0.931 . S
C721 C720 1.391 . S
C721 C725 1.376 . S
C722 C720 1.394 . S
C722 C723 1.369 . S
C722 C726 1.531 . S
C723 C722 1.369 . S
C723 C724 1.410 . S
C723 C731 1.503 . S
C724 C723 1.410 . S
C724 C725 1.392 . S
C724 C727 1.511 . S
C725 C721 1.376 . S
C725 C724 1.392 . S
C725 H737 0.929 . S
C726 C722 1.531 . S
C726 H738 0.960 . S
C726 H739 0.962 . S
C726 H740 0.960 . S
C727 C724 1.511 . S
C727 H741 0.961 . S
C727 H742 0.961 . S
C727 H743 0.961 . S
C728 C729 1.370 . S
C728 C730 1.363 1_554 S
C728 H744 0.931 . S
C729 C728 1.370 . S
C729 C733 1.408 . S
C730 C728 1.363 1_556 S
C730 C731 1.370 . S
C730 C734 1.524 . S
C731 C723 1.503 . S
C731 C730 1.370 . S
C731 C732 1.403 . S
C732 C731 1.403 . S
C732 C733 1.404 1_556 S
C732 C735 1.539 . S
C733 C729 1.408 . S
C733 C732 1.404 1_554 S
C733 H745 0.930 . S
C734 C730 1.524 . S
C734 H746 0.956 . S
C734 H747 0.961 . S
C734 H748 0.961 . S
C735 C732 1.539 . S
C735 H749 0.958 . S
C735 H750 0.961 . S
C735 H751 0.960 . S
H736 C720 0.931 . S
H737 C725 0.929 . S
H738 C726 0.960 . S
H739 C726 0.962 . S
H740 C726 0.960 . S
H741 C727 0.961 . S
H742 C727 0.961 . S
H743 C727 0.961 . S
H744 C728 0.931 . S
H745 C733 0.930 . S
H746 C734 0.956 . S
H747 C734 0.961 . S
H748 C734 0.961 . S
H749 C735 0.958 . S
H750 C735 0.961 . S
H751 C735 0.960 . S
C752 C753 1.391 . S
C752 C754 1.394 . S
C752 H768 0.931 . S
C753 C752 1.391 . S
C753 C757 1.376 . S
C754 C752 1.394 . S
C754 C755 1.369 . S
C754 C758 1.531 . S
C755 C754 1.369 . S
C755 C756 1.410 . S
C755 C763 1.503 . S
C756 C755 1.410 . S
C756 C757 1.392 . S
C756 C759 1.511 . S
C757 C753 1.376 . S
C757 C756 1.392 . S
C757 H769 0.929 . S
C758 C754 1.531 . S
C758 H770 0.960 . S
C758 H771 0.962 . S
C758 H772 0.960 . S
C759 C756 1.511 . S
C759 H773 0.961 . S
C759 H774 0.961 . S
C759 H775 0.961 . S
C760 C761 1.370 1_554 S
C760 C762 1.363 . S
C760 H776 0.931 1_554 S
C761 C760 1.370 1_556 S
C761 C765 1.408 1_556 S
C762 C760 1.363 . S
C762 C763 1.370 . S
C762 C766 1.524 . S
C763 C755 1.503 . S
C763 C762 1.370 . S
C763 C764 1.403 . S
C764 C763 1.403 . S
C764 C765 1.404 . S
C764 C767 1.539 . S
C765 C761 1.408 1_554 S
C765 C764 1.404 . S
C765 H777 0.930 1_554 S
C766 C762 1.524 . S
C766 H778 0.956 . S
C766 H779 0.961 . S
C766 H780 0.961 . S
C767 C764 1.539 . S
C767 H781 0.958 . S
C767 H782 0.961 . S
C767 H783 0.960 . S
H768 C752 0.931 . S
H769 C757 0.929 . S
H770 C758 0.960 . S
H771 C758 0.962 . S
H772 C758 0.960 . S
H773 C759 0.961 . S
H774 C759 0.961 . S
H775 C759 0.961 . S
H776 C760 0.931 1_556 S
H777 C765 0.930 1_556 S
H778 C766 0.956 . S
H779 C766 0.961 . S
H780 C766 0.961 . S
H781 C767 0.958 . S
H782 C767 0.961 . S
H783 C767 0.960 . S
C784 C785 1.391 . S
C784 C786 1.394 . S
C784 H800 0.931 . S
C785 C784 1.391 . S
C785 C789 1.376 . S
C786 C784 1.394 . S
C786 C787 1.369 . S
C786 C790 1.531 . S
C787 C786 1.369 . S
C787 C788 1.410 . S
C787 C795 1.503 . S
C788 C787 1.410 . S
C788 C789 1.392 . S
C788 C791 1.511 . S
C789 C785 1.376 . S
C789 C788 1.392 . S
C789 H801 0.929 . S
C790 C786 1.531 . S
C790 H802 0.960 . S
C790 H803 0.962 . S
C790 H804 0.960 . S
C791 C788 1.511 . S
C791 H805 0.961 . S
C791 H806 0.961 . S
C791 H807 0.961 . S
C792 C793 1.370 1_554 S
C792 C794 1.363 . S
C792 H808 0.931 1_554 S
C793 C792 1.370 1_556 S
C793 C797 1.408 . S
C794 C792 1.363 . S
C794 C795 1.370 . S
C794 C798 1.524 . S
C795 C787 1.503 . S
C795 C794 1.370 . S
C795 C796 1.403 . S
C796 C795 1.403 . S
C796 C797 1.404 1_554 S
C796 C799 1.539 . S
C797 C793 1.408 . S
C797 C796 1.404 1_556 S
C797 H809 0.930 . S
C798 C794 1.524 . S
C798 H810 0.956 . S
C798 H811 0.961 . S
C798 H812 0.961 . S
C799 C796 1.539 . S
C799 H813 0.958 . S
C799 H814 0.961 . S
C799 H815 0.960 . S
H800 C784 0.931 . S
H801 C789 0.929 . S
H802 C790 0.960 . S
H803 C790 0.962 . S
H804 C790 0.960 . S
H805 C791 0.961 . S
H806 C791 0.961 . S
H807 C791 0.961 . S
H808 C792 0.931 1_556 S
H809 C797 0.930 . S
H810 C798 0.956 . S
H811 C798 0.961 . S
H812 C798 0.961 . S
H813 C799 0.958 . S
H814 C799 0.961 . S
H815 C799 0.960 . S
C816 C817 1.391 . S
C816 C818 1.394 . S
C816 H832 0.931 . S
C817 C816 1.391 . S
C817 C821 1.376 . S
C818 C816 1.394 . S
C818 C819 1.369 . S
C818 C822 1.531 . S
C819 C818 1.369 . S
C819 C820 1.410 . S
C819 C827 1.503 . S
C820 C819 1.410 . S
C820 C821 1.392 . S
C820 C823 1.511 . S
C821 C817 1.376 . S
C821 C820 1.392 . S
C821 H833 0.929 . S
C822 C818 1.531 . S
C822 H834 0.960 . S
C822 H835 0.962 . S
C822 H836 0.960 . S
C823 C820 1.511 . S
C823 H837 0.961 . S
C823 H838 0.961 . S
C823 H839 0.961 . S
C824 C825 1.370 . S
C824 C826 1.363 . S
C824 H840 0.931 . S
C825 C824 1.370 . S
C825 C829 1.408 . S
C826 C824 1.363 . S
C826 C827 1.370 . S
C826 C830 1.524 . S
C827 C819 1.503 . S
C827 C826 1.370 . S
C827 C828 1.403 . S
C828 C827 1.403 . S
C828 C829 1.404 . S
C828 C831 1.539 . S
C829 C825 1.408 . S
C829 C828 1.404 . S
C829 H841 0.930 . S
C830 C826 1.524 . S
C830 H842 0.956 . S
C830 H843 0.961 . S
C830 H844 0.961 . S
C831 C828 1.539 . S
C831 H845 0.958 . S
C831 H846 0.961 . S
C831 H847 0.960 . S
H832 C816 0.931 . S
H833 C821 0.929 . S
H834 C822 0.960 . S
H835 C822 0.962 . S
H836 C822 0.960 . S
H837 C823 0.961 . S
H838 C823 0.961 . S
H839 C823 0.961 . S
H840 C824 0.931 . S
H841 C829 0.930 . S
H842 C830 0.956 . S
H843 C830 0.961 . S
H844 C830 0.961 . S
H845 C831 0.958 . S
H846 C831 0.961 . S
H847 C831 0.960 . S
C848 C849 1.391 . S
C848 C850 1.394 . S
C848 H864 0.931 . S
C849 C848 1.391 . S
C849 C853 1.376 . S
C850 C848 1.394 . S
C850 C851 1.369 . S
C850 C854 1.531 . S
C851 C850 1.369 . S
C851 C852 1.410 . S
C851 C859 1.503 . S
C852 C851 1.410 . S
C852 C853 1.392 . S
C852 C855 1.511 . S
C853 C849 1.376 . S
C853 C852 1.392 . S
C853 H865 0.929 . S
C854 C850 1.531 . S
C854 H866 0.960 . S
C854 H867 0.962 . S
C854 H868 0.960 . S
C855 C852 1.511 . S
C855 H869 0.961 . S
C855 H870 0.961 . S
C855 H871 0.961 . S
C856 C857 1.370 . S
C856 C858 1.363 . S
C856 H872 0.931 . S
C857 C856 1.370 . S
C857 C861 1.408 . S
C858 C856 1.363 . S
C858 C859 1.370 . S
C858 C862 1.524 . S
C859 C851 1.503 . S
C859 C858 1.370 . S
C859 C860 1.403 . S
C860 C859 1.403 . S
C860 C861 1.404 . S
C860 C863 1.539 . S
C861 C857 1.408 . S
C861 C860 1.404 . S
C861 H873 0.930 . S
C862 C858 1.524 . S
C862 H874 0.956 . S
C862 H875 0.961 . S
C862 H876 0.961 . S
C863 C860 1.539 . S
C863 H877 0.958 . S
C863 H878 0.961 . S
C863 H879 0.960 . S
H864 C848 0.931 . S
H865 C853 0.929 . S
H866 C854 0.960 . S
H867 C854 0.962 . S
H868 C854 0.960 . S
H869 C855 0.961 . S
H870 C855 0.961 . S
H871 C855 0.961 . S
H872 C856 0.931 . S
H873 C861 0.930 . S
H874 C862 0.956 . S
H875 C862 0.961 . S
H876 C862 0.961 . S
H877 C863 0.958 . S
H878 C863 0.961 . S
H879 C863 0.960 . S
C880 C881 1.391 . S
C880 C882 1.394 . S
C880 H896 0.931 . S
C881 C880 1.391 . S
C881 C885 1.376 . S
C882 C880 1.394 . S
C882 C883 1.369 . S
C882 C886 1.531 . S
C883 C882 1.369 . S
C883 C884 1.410 . S
C883 C891 1.503 . S
C884 C883 1.410 . S
C884 C885 1.392 . S
C884 C887 1.511 . S
C885 C881 1.376 . S
C885 C884 1.392 . S
C885 H897 0.929 . S
C886 C882 1.531 . S
C886 H898 0.960 . S
C886 H899 0.962 . S
C886 H900 0.960 . S
C887 C884 1.511 . S
C887 H901 0.961 . S
C887 H902 0.961 . S
C887 H903 0.961 . S
C888 C889 1.370 1_556 S
C888 C890 1.363 . S
C888 H904 0.931 1_556 S
C889 C888 1.370 1_554 S
C889 C893 1.408 1_554 S
C890 C888 1.363 . S
C890 C891 1.370 . S
C890 C894 1.524 . S
C891 C883 1.503 . S
C891 C890 1.370 . S
C891 C892 1.403 . S
C892 C891 1.403 . S
C892 C893 1.404 . S
C892 C895 1.539 . S
C893 C889 1.408 1_556 S
C893 C892 1.404 . S
C893 H905 0.930 1_556 S
C894 C890 1.524 . S
C894 H906 0.956 . S
C894 H907 0.961 . S
C894 H908 0.961 . S
C895 C892 1.539 . S
C895 H909 0.958 . S
C895 H910 0.961 . S
C895 H911 0.960 . S
H896 C880 0.931 . S
H897 C885 0.929 . S
H898 C886 0.960 . S
H899 C886 0.962 . S
H900 C886 0.960 . S
H901 C887 0.961 . S
H902 C887 0.961 . S
H903 C887 0.961 . S
H904 C888 0.931 1_554 S
H905 C893 0.930 1_554 S
H906 C894 0.956 . S
H907 C894 0.961 . S
H908 C894 0.961 . S
H909 C895 0.958 . S
H910 C895 0.961 . S
H911 C895 0.960 . S
C912 C913 1.391 . S
C912 C914 1.394 1_556 S
C912 H928 0.931 . S
C913 C912 1.391 . S
C913 C917 1.376 . S
C914 C912 1.394 1_554 S
C914 C915 1.369 . S
C914 C918 1.531 . S
C915 C914 1.369 . S
C915 C916 1.410 . S
C915 C923 1.503 . S
C916 C915 1.410 . S
C916 C917 1.392 1_554 S
C916 C919 1.511 . S
C917 C913 1.376 . S
C917 C916 1.392 1_556 S
C917 H929 0.929 . S
C918 C914 1.531 . S
C918 H930 0.960 . S
C918 H931 0.962 . S
C918 H932 0.960 . S
C919 C916 1.511 . S
C919 H933 0.961 . S
C919 H934 0.961 . S
C919 H935 0.961 . S
C920 C921 1.370 . S
C920 C922 1.363 . S
C920 H936 0.931 . S
C921 C920 1.370 . S
C921 C925 1.408 . S
C922 C920 1.363 . S
C922 C923 1.370 . S
C922 C926 1.524 . S
C923 C915 1.503 . S
C923 C922 1.370 . S
C923 C924 1.403 . S
C924 C923 1.403 . S
C924 C925 1.404 . S
C924 C927 1.539 . S
C925 C921 1.408 . S
C925 C924 1.404 . S
C925 H937 0.930 . S
C926 C922 1.524 . S
C926 H938 0.956 . S
C926 H939 0.961 . S
C926 H940 0.961 . S
C927 C924 1.539 . S
C927 H941 0.958 . S
C927 H942 0.961 . S
C927 H943 0.960 . S
H928 C912 0.931 . S
H929 C917 0.929 . S
H930 C918 0.960 . S
H931 C918 0.962 . S
H932 C918 0.960 . S
H933 C919 0.961 . S
H934 C919 0.961 . S
H935 C919 0.961 . S
H936 C920 0.931 . S
H937 C925 0.930 . S
H938 C926 0.956 . S
H939 C926 0.961 . S
H940 C926 0.961 . S
H941 C927 0.958 . S
H942 C927 0.961 . S
H943 C927 0.960 . S
C944 C945 1.391 . S
C944 C946 1.394 . S
C944 H960 0.931 . S
C945 C944 1.391 . S
C945 C949 1.376 . S
C946 C944 1.394 . S
C946 C947 1.369 . S
C946 C950 1.531 . S
C947 C946 1.369 . S
C947 C948 1.410 . S
C947 C955 1.503 . S
C948 C947 1.410 . S
C948 C949 1.392 . S
C948 C951 1.511 . S
C949 C945 1.376 . S
C949 C948 1.392 . S
C949 H961 0.929 . S
C950 C946 1.531 . S
C950 H962 0.960 . S
C950 H963 0.962 . S
C950 H964 0.960 . S
C951 C948 1.511 . S
C951 H965 0.961 . S
C951 H966 0.961 . S
C951 H967 0.961 1_455 S
C952 C953 1.370 . S
C952 C954 1.363 . S
C952 H968 0.931 . S
C953 C952 1.370 . S
C953 C957 1.408 . S
C954 C952 1.363 . S
C954 C955 1.370 . S
C954 C958 1.524 . S
C955 C947 1.503 . S
C955 C954 1.370 . S
C955 C956 1.403 . S
C956 C955 1.403 . S
C956 C957 1.404 . S
C956 C959 1.539 . S
C957 C953 1.408 . S
C957 C956 1.404 . S
C957 H969 0.930 . S
C958 C954 1.524 . S
C958 H970 0.956 . S
C958 H971 0.961 . S
C958 H972 0.961 . S
C959 C956 1.539 . S
C959 H973 0.958 . S
C959 H974 0.961 1_455 S
C959 H975 0.960 . S
H960 C944 0.931 . S
H961 C949 0.929 . S
H962 C950 0.960 . S
H963 C950 0.962 . S
H964 C950 0.960 . S
H965 C951 0.961 . S
H966 C951 0.961 . S
H967 C951 0.961 1_655 S
H968 C952 0.931 . S
H969 C957 0.930 . S
H970 C958 0.956 . S
H971 C958 0.961 . S
H972 C958 0.961 . S
H973 C959 0.958 . S
H974 C959 0.961 1_655 S
H975 C959 0.960 . S
C976 C977 1.391 . S
C976 C978 1.394 1_554 S
C976 H992 0.931 . S
C977 C976 1.391 . S
C977 C981 1.376 . S
C978 C976 1.394 1_556 S
C978 C979 1.369 . S
C978 C982 1.531 . S
C979 C978 1.369 . S
C979 C980 1.410 . S
C979 C987 1.503 . S
C980 C979 1.410 . S
C980 C981 1.392 1_556 S
C980 C983 1.511 . S
C981 C977 1.376 . S
C981 C980 1.392 1_554 S
C981 H993 0.929 . S
C982 C978 1.531 . S
C982 H994 0.960 . S
C982 H995 0.962 . S
C982 H996 0.960 . S
C983 C980 1.511 . S
C983 H997 0.961 . S
C983 H998 0.961 . S
C983 H999 0.961 . S
C984 C985 1.370 . S
C984 C986 1.363 . S
C984 H1000 0.931 . S
C985 C984 1.370 . S
C985 C989 1.408 . S
C986 C984 1.363 . S
C986 C987 1.370 . S
C986 C990 1.524 . S
C987 C979 1.503 . S
C987 C986 1.370 . S
C987 C988 1.403 . S
C988 C987 1.403 . S
C988 C989 1.404 . S
C988 C991 1.539 . S
C989 C985 1.408 . S
C989 C988 1.404 . S
C989 H1001 0.930 . S
C990 C986 1.524 . S
C990 H1002 0.956 . S
C990 H1003 0.961 . S
C990 H1004 0.961 . S
C991 C988 1.539 . S
C991 H1005 0.958 . S
C991 H1006 0.961 . S
C991 H1007 0.960 . S
H992 C976 0.931 . S
H993 C981 0.929 . S
H994 C982 0.960 . S
H995 C982 0.962 . S
H996 C982 0.960 . S
H997 C983 0.961 . S
H998 C983 0.961 . S
H999 C983 0.961 . S
H1000 C984 0.931 . S
H1001 C989 0.930 . S
H1002 C990 0.956 . S
H1003 C990 0.961 . S
H1004 C990 0.961 . S
H1005 C991 0.958 . S
H1006 C991 0.961 . S
H1007 C991 0.960 . S
C1008 C1009 1.391 . S
C1008 C1010 1.394 . S
C1008 H1024 0.931 . S
C1009 C1008 1.391 . S
C1009 C1013 1.376 . S
C1010 C1008 1.394 . S
C1010 C1011 1.369 . S
C1010 C1014 1.531 . S
C1011 C1010 1.369 . S
C1011 C1012 1.410 . S
C1011 C1019 1.503 . S
C1012 C1011 1.410 . S
C1012 C1013 1.392 . S
C1012 C1015 1.511 . S
C1013 C1009 1.376 . S
C1013 C1012 1.392 . S
C1013 H1025 0.929 . S
C1014 C1010 1.531 . S
C1014 H1026 0.960 . S
C1014 H1027 0.962 . S
C1014 H1028 0.960 . S
C1015 C1012 1.511 . S
C1015 H1029 0.967 . S
C1015 H1030 0.961 . S
C1015 H1031 0.961 1_455 S
C1016 C1017 1.370 . S
C1016 C1018 1.363 . S
C1016 H1032 0.931 . S
C1017 C1016 1.370 . S
C1017 C1021 1.408 . S
C1018 C1016 1.363 . S
C1018 C1019 1.370 . S
C1018 C1022 1.524 . S
C1019 C1011 1.503 . S
C1019 C1018 1.370 . S
C1019 C1020 1.403 . S
C1020 C1019 1.403 . S
C1020 C1021 1.404 . S
C1020 C1023 1.539 . S
C1021 C1017 1.408 . S
C1021 C1020 1.404 . S
C1021 H1033 0.930 . S
C1022 C1018 1.524 . S
C1022 H1034 0.956 . S
C1022 H1035 0.961 . S
C1022 H1036 0.961 . S
C1023 C1020 1.539 . S
C1023 H1037 0.958 . S
C1023 H1038 0.936 1_455 S
C1023 H1039 0.960 . S
H1024 C1008 0.931 . S
H1025 C1013 0.929 . S
H1026 C1014 0.960 . S
H1027 C1014 0.962 . S
H1028 C1014 0.960 . S
H1029 C1015 0.967 . S
H1030 C1015 0.961 . S
H1031 C1015 0.961 1_655 S
H1032 C1016 0.931 . S
H1033 C1021 0.930 . S
H1034 C1022 0.956 . S
H1035 C1022 0.961 . S
H1036 C1022 0.961 . S
H1037 C1023 0.958 . S
H1038 C1023 0.936 1_655 S
H1039 C1023 0.960 . S
C1040 C1041 1.391 . S
C1040 C1042 1.394 . S
C1040 H1056 0.931 . S
C1041 C1040 1.391 . S
C1041 C1045 1.376 1_554 S
C1042 C1040 1.394 . S
C1042 C1043 1.369 . S
C1042 C1046 1.531 . S
C1043 C1042 1.369 . S
C1043 C1044 1.410 1_554 S
C1043 C1051 1.503 1_554 S
C1044 C1043 1.410 1_556 S
C1044 C1045 1.392 . S
C1044 C1047 1.511 . S
C1045 C1041 1.376 1_556 S
C1045 C1044 1.392 . S
C1045 H1057 0.929 . S
C1046 C1042 1.531 . S
C1046 H1058 0.960 . S
C1046 H1059 0.962 . S
C1046 H1060 0.960 . S
C1047 C1044 1.511 . S
C1047 H1061 0.961 . S
C1047 H1062 0.961 . S
C1047 H1063 0.961 . S
C1048 C1049 1.370 . S
C1048 C1050 1.363 . S
C1048 H1064 0.931 . S
C1049 C1048 1.370 . S
C1049 C1053 1.408 . S
C1050 C1048 1.363 . S
C1050 C1051 1.370 . S
C1050 C1054 1.524 . S
C1051 C1043 1.503 1_556 S
C1051 C1050 1.370 . S
C1051 C1052 1.403 1_556 S
C1052 C1051 1.403 1_554 S
C1052 C1053 1.404 1_554 S
C1052 C1055 1.539 . S
C1053 C1049 1.408 . S
C1053 C1052 1.404 1_556 S
C1053 H1065 0.930 . S
C1054 C1050 1.524 . S
C1054 H1066 0.956 . S
C1054 H1067 0.961 . S
C1054 H1068 0.961 . S
C1055 C1052 1.539 . S
C1055 H1069 0.958 . S
C1055 H1070 0.961 . S
C1055 H1071 0.960 . S
H1056 C1040 0.931 . S
H1057 C1045 0.929 . S
H1058 C1046 0.960 . S
H1059 C1046 0.962 . S
H1060 C1046 0.960 . S
H1061 C1047 0.961 . S
H1062 C1047 0.961 . S
H1063 C1047 0.961 . S
H1064 C1048 0.931 . S
H1065 C1053 0.930 . S
H1066 C1054 0.956 . S
H1067 C1054 0.961 . S
H1068 C1054 0.961 . S
H1069 C1055 0.958 . S
H1070 C1055 0.961 . S
H1071 C1055 0.960 . S
C1072 C1073 1.391 . S
C1072 C1074 1.394 . S
C1072 H1088 0.931 . S
C1073 C1072 1.391 . S
C1073 C1077 1.376 . S
C1074 C1072 1.394 . S
C1074 C1075 1.369 . S
C1074 C1078 1.531 . S
C1075 C1074 1.369 . S
C1075 C1076 1.410 . S
C1075 C1083 1.503 . S
C1076 C1075 1.410 . S
C1076 C1077 1.392 . S
C1076 C1079 1.511 . S
C1077 C1073 1.376 . S
C1077 C1076 1.392 . S
C1077 H1089 0.929 . S
C1078 C1074 1.531 . S
C1078 H1090 0.960 . S
C1078 H1091 0.962 . S
C1078 H1092 0.960 . S
C1079 C1076 1.511 . S
C1079 H1093 0.961 . S
C1079 H1094 0.961 . S
C1079 H1095 0.961 . S
C1080 C1081 1.370 . S
C1080 C1082 1.363 . S
C1080 H1096 0.931 . S
C1081 C1080 1.370 . S
C1081 C1085 1.408 . S
C1082 C1080 1.363 . S
C1082 C1083 1.370 . S
C1082 C1086 1.524 . S
C1083 C1075 1.503 . S
C1083 C1082 1.370 . S
C1083 C1084 1.403 . S
C1084 C1083 1.403 . S
C1084 C1085 1.404 . S
C1084 C1087 1.539 . S
C1085 C1081 1.408 . S
C1085 C1084 1.404 . S
C1085 H1097 0.930 . S
C1086 C1082 1.524 . S
C1086 H1098 0.956 . S
C1086 H1099 0.961 . S
C1086 H1100 0.961 . S
C1087 C1084 1.539 . S
C1087 H1101 0.958 . S
C1087 H1102 0.961 . S
C1087 H1103 0.960 . S
H1088 C1072 0.931 . S
H1089 C1077 0.929 . S
H1090 C1078 0.960 . S
H1091 C1078 0.962 . S
H1092 C1078 0.960 . S
H1093 C1079 0.961 . S
H1094 C1079 0.961 . S
H1095 C1079 0.961 . S
H1096 C1080 0.931 . S
H1097 C1085 0.930 . S
H1098 C1086 0.956 . S
H1099 C1086 0.961 . S
H1100 C1086 0.961 . S
H1101 C1087 0.958 . S
H1102 C1087 0.961 . S
H1103 C1087 0.960 . S
C1104 C1105 1.391 . S
C1104 C1106 1.394 . S
C1104 H1120 0.931 . S
C1105 C1104 1.391 . S
C1105 C1109 1.376 . S
C1106 C1104 1.394 . S
C1106 C1107 1.369 . S
C1106 C1110 1.531 . S
C1107 C1106 1.369 . S
C1107 C1108 1.410 . S
C1107 C1115 1.503 . S
C1108 C1107 1.410 . S
C1108 C1109 1.392 . S
C1108 C1111 1.511 . S
C1109 C1105 1.376 . S
C1109 C1108 1.392 . S
C1109 H1121 0.929 . S
C1110 C1106 1.531 . S
C1110 H1122 0.960 . S
C1110 H1123 0.962 . S
C1110 H1124 0.960 . S
C1111 C1108 1.511 . S
C1111 H1125 0.961 . S
C1111 H1126 0.961 . S
C1111 H1127 0.961 . S
C1112 C1113 1.370 . S
C1112 C1114 1.363 . S
C1112 H1128 0.931 . S
C1113 C1112 1.370 . S
C1113 C1117 1.408 . S
C1114 C1112 1.363 . S
C1114 C1115 1.370 . S
C1114 C1118 1.524 . S
C1115 C1107 1.503 . S
C1115 C1114 1.370 . S
C1115 C1116 1.403 . S
C1116 C1115 1.403 . S
C1116 C1117 1.404 . S
C1116 C1119 1.539 . S
C1117 C1113 1.408 . S
C1117 C1116 1.404 . S
C1117 H1129 0.930 . S
C1118 C1114 1.524 . S
C1118 H1130 0.956 . S
C1118 H1131 0.961 . S
C1118 H1132 0.961 . S
C1119 C1116 1.539 . S
C1119 H1133 0.958 . S
C1119 H1134 0.961 . S
C1119 H1135 0.960 . S
H1120 C1104 0.931 . S
H1121 C1109 0.929 . S
H1122 C1110 0.960 . S
H1123 C1110 0.962 . S
H1124 C1110 0.960 . S
H1125 C1111 0.961 . S
H1126 C1111 0.961 . S
H1127 C1111 0.961 . S
H1128 C1112 0.931 . S
H1129 C1117 0.930 . S
H1130 C1118 0.956 . S
H1131 C1118 0.961 . S
H1132 C1118 0.961 . S
H1133 C1119 0.958 . S
H1134 C1119 0.961 . S
H1135 C1119 0.960 . S
C1136 C1137 1.391 . S
C1136 C1138 1.394 . S
C1136 H1152 0.931 . S
C1137 C1136 1.391 . S
C1137 C1141 1.376 . S
C1138 C1136 1.394 . S
C1138 C1139 1.369 . S
C1138 C1142 1.531 . S
C1139 C1138 1.369 . S
C1139 C1140 1.410 . S
C1139 C1147 1.503 . S
C1140 C1139 1.410 . S
C1140 C1141 1.392 . S
C1140 C1143 1.511 . S
C1141 C1137 1.376 . S
C1141 C1140 1.392 . S
C1141 H1153 0.929 . S
C1142 C1138 1.531 . S
C1142 H1154 0.960 . S
C1142 H1155 0.962 . S
C1142 H1156 0.960 . S
C1143 C1140 1.511 . S
C1143 H1157 0.961 . S
C1143 H1158 0.961 . S
C1143 H1159 0.961 . S
C1144 C1145 1.370 . S
C1144 C1146 1.363 . S
C1144 H1160 0.931 . S
C1145 C1144 1.370 . S
C1145 C1149 1.408 . S
C1146 C1144 1.363 . S
C1146 C1147 1.370 . S
C1146 C1150 1.524 . S
C1147 C1139 1.503 . S
C1147 C1146 1.370 . S
C1147 C1148 1.403 . S
C1148 C1147 1.403 . S
C1148 C1149 1.404 . S
C1148 C1151 1.539 . S
C1149 C1145 1.408 . S
C1149 C1148 1.404 . S
C1149 H1161 0.930 . S
C1150 C1146 1.524 . S
C1150 H1162 0.956 . S
C1150 H1163 0.961 . S
C1150 H1164 0.961 . S
C1151 C1148 1.539 . S
C1151 H1165 0.958 . S
C1151 H1166 0.961 . S
C1151 H1167 0.960 . S
H1152 C1136 0.931 . S
H1153 C1141 0.929 . S
H1154 C1142 0.960 . S
H1155 C1142 0.962 . S
H1156 C1142 0.960 . S
H1157 C1143 0.961 . S
H1158 C1143 0.961 . S
H1159 C1143 0.961 . S
H1160 C1144 0.931 . S
H1161 C1149 0.930 . S
H1162 C1150 0.956 . S
H1163 C1150 0.961 . S
H1164 C1150 0.961 . S
H1165 C1151 0.958 . S
H1166 C1151 0.961 . S
H1167 C1151 0.960 . S
C1168 C1169 1.391 . S
C1168 C1170 1.394 . S
C1168 H1184 0.931 . S
C1169 C1168 1.391 . S
C1169 C1173 1.376 . S
C1170 C1168 1.394 . S
C1170 C1171 1.369 . S
C1170 C1174 1.531 . S
C1171 C1170 1.369 . S
C1171 C1172 1.410 . S
C1171 C1179 1.503 . S
C1172 C1171 1.410 . S
C1172 C1173 1.392 . S
C1172 C1175 1.511 . S
C1173 C1169 1.376 . S
C1173 C1172 1.392 . S
C1173 H1185 0.929 . S
C1174 C1170 1.531 . S
C1174 H1186 0.960 . S
C1174 H1187 0.962 . S
C1174 H1188 0.960 . S
C1175 C1172 1.511 . S
C1175 H1189 0.961 . S
C1175 H1190 0.961 . S
C1175 H1191 0.961 . S
C1176 C1177 1.370 . S
C1176 C1178 1.363 . S
C1176 H1192 0.931 . S
C1177 C1176 1.370 . S
C1177 C1181 1.408 . S
C1178 C1176 1.363 . S
C1178 C1179 1.370 . S
C1178 C1182 1.524 . S
C1179 C1171 1.503 . S
C1179 C1178 1.370 . S
C1179 C1180 1.403 . S
C1180 C1179 1.403 . S
C1180 C1181 1.404 . S
C1180 C1183 1.539 . S
C1181 C1177 1.408 . S
C1181 C1180 1.404 . S
C1181 H1193 0.930 . S
C1182 C1178 1.524 . S
C1182 H1194 0.956 . S
C1182 H1195 0.961 . S
C1182 H1196 0.961 . S
C1183 C1180 1.539 . S
C1183 H1197 0.958 . S
C1183 H1198 0.961 . S
C1183 H1199 0.960 . S
H1184 C1168 0.931 . S
H1185 C1173 0.929 . S
H1186 C1174 0.960 . S
H1187 C1174 0.962 . S
H1188 C1174 0.960 . S
H1189 C1175 0.961 . S
H1190 C1175 0.961 . S
H1191 C1175 0.961 . S
H1192 C1176 0.931 . S
H1193 C1181 0.930 . S
H1194 C1182 0.956 . S
H1195 C1182 0.961 . S
H1196 C1182 0.961 . S
H1197 C1183 0.958 . S
H1198 C1183 0.961 . S
H1199 C1183 0.960 . S
C1200 C1201 1.391 . S
C1200 C1202 1.394 . S
C1200 H1216 0.931 . S
C1201 C1200 1.391 . S
C1201 C1205 1.376 . S
C1202 C1200 1.394 . S
C1202 C1203 1.369 . S
C1202 C1206 1.531 . S
C1203 C1202 1.369 . S
C1203 C1204 1.410 . S
C1203 C1211 1.503 . S
C1204 C1203 1.410 . S
C1204 C1205 1.392 . S
C1204 C1207 1.511 . S
C1205 C1201 1.376 . S
C1205 C1204 1.392 . S
C1205 H1217 0.929 . S
C1206 C1202 1.531 . S
C1206 H1218 0.960 . S
C1206 H1219 0.962 . S
C1206 H1220 0.960 . S
C1207 C1204 1.511 . S
C1207 H1221 0.961 . S
C1207 H1222 0.961 . S
C1207 H1223 0.961 . S
C1208 C1209 1.370 . S
C1208 C1210 1.363 . S
C1208 H1224 0.931 . S
C1209 C1208 1.370 . S
C1209 C1213 1.408 . S
C1210 C1208 1.363 . S
C1210 C1211 1.370 . S
C1210 C1214 1.524 . S
C1211 C1203 1.503 . S
C1211 C1210 1.370 . S
C1211 C1212 1.403 . S
C1212 C1211 1.403 . S
C1212 C1213 1.404 . S
C1212 C1215 1.539 . S
C1213 C1209 1.408 . S
C1213 C1212 1.404 . S
C1213 H1225 0.930 . S
C1214 C1210 1.524 . S
C1214 H1226 0.956 . S
C1214 H1227 0.961 . S
C1214 H1228 0.961 . S
C1215 C1212 1.539 . S
C1215 H1229 0.958 . S
C1215 H1230 0.961 . S
C1215 H1231 0.960 . S
H1216 C1200 0.931 . S
H1217 C1205 0.929 . S
H1218 C1206 0.960 . S
H1219 C1206 0.962 . S
H1220 C1206 0.960 . S
H1221 C1207 0.961 . S
H1222 C1207 0.961 . S
H1223 C1207 0.961 . S
H1224 C1208 0.931 . S
H1225 C1213 0.930 . S
H1226 C1214 0.956 . S
H1227 C1214 0.961 . S
H1228 C1214 0.961 . S
H1229 C1215 0.958 . S
H1230 C1215 0.961 . S
H1231 C1215 0.960 . S
C1232 C1233 1.391 . S
C1232 C1234 1.394 . S
C1232 H1248 0.931 . S
C1233 C1232 1.391 . S
C1233 C1237 1.376 . S
C1234 C1232 1.394 . S
C1234 C1235 1.369 . S
C1234 C1238 1.545 . S
C1235 C1234 1.369 . S
C1235 C1236 1.410 . S
C1235 C1243 1.503 1_545 S
C1236 C1235 1.410 . S
C1236 C1237 1.392 . S
C1236 C1239 1.511 . S
C1237 C1233 1.376 . S
C1237 C1236 1.392 . S
C1237 H1249 0.929 . S
C1238 C1234 1.545 . S
C1238 H1250 0.942 1_545 S
C1238 H1251 0.959 1_545 S
C1238 H1252 0.968 . S
C1239 C1236 1.511 . S
C1239 H1253 0.961 . S
C1239 H1254 0.961 . S
C1239 H1255 0.961 . S
C1240 C1241 1.370 . S
C1240 C1242 1.363 . S
C1240 H1256 0.931 . S
C1241 C1240 1.370 . S
C1241 C1245 1.408 . S
C1242 C1240 1.363 . S
C1242 C1243 1.370 . S
C1242 C1246 1.524 . S
C1243 C1235 1.503 1_565 S
C1243 C1242 1.370 . S
C1243 C1244 1.403 . S
C1244 C1243 1.403 . S
C1244 C1245 1.404 . S
C1244 C1247 1.539 . S
C1245 C1241 1.408 . S
C1245 C1244 1.404 . S
C1245 H1257 0.930 . S
C1246 C1242 1.524 . S
C1246 H1258 0.956 1_565 S
C1246 H1259 0.961 1_565 S
C1246 H1260 0.961 . S
C1247 C1244 1.539 . S
C1247 H1261 0.958 . S
C1247 H1262 0.961 . S
C1247 H1263 0.960 . S
H1248 C1232 0.931 . S
H1249 C1237 0.929 . S
H1250 C1238 0.942 1_565 S
H1251 C1238 0.959 1_565 S
H1252 C1238 0.968 . S
H1253 C1239 0.961 . S
H1254 C1239 0.961 . S
H1255 C1239 0.961 . S
H1256 C1240 0.931 . S
H1257 C1245 0.930 . S
H1258 C1246 0.956 1_545 S
H1259 C1246 0.961 1_545 S
H1260 C1246 0.961 . S
H1261 C1247 0.958 . S
H1262 C1247 0.961 . S
H1263 C1247 0.960 . S
C1264 C1265 1.391 . S
C1264 C1266 1.394 . S
C1264 H1280 0.931 . S
C1265 C1264 1.391 . S
C1265 C1269 1.376 . S
C1266 C1264 1.394 . S
C1266 C1267 1.369 . S
C1266 C1270 1.531 . S
C1267 C1266 1.369 . S
C1267 C1268 1.410 1_554 S
C1267 C1275 1.503 1_564 S
C1268 C1267 1.410 1_556 S
C1268 C1269 1.392 1_556 S
C1268 C1271 1.511 . S
C1269 C1265 1.376 . S
C1269 C1268 1.392 1_554 S
C1269 H1281 0.929 1_554 S
C1270 C1266 1.531 . S
C1270 H1282 0.960 1_565 S
C1270 H1283 0.962 . S
C1270 H1284 0.960 . S
C1271 C1268 1.511 . S
C1271 H1285 0.961 . S
C1271 H1286 0.961 . S
C1271 H1287 0.961 . S
C1272 C1273 1.370 . S
C1272 C1274 1.363 . S
C1272 H1288 0.931 . S
C1273 C1272 1.370 . S
C1273 C1277 1.408 1_556 S
C1274 C1272 1.363 . S
C1274 C1275 1.370 . S
C1274 C1278 1.528 . S
C1275 C1267 1.503 1_546 S
C1275 C1274 1.370 . S
C1275 C1276 1.403 1_556 S
C1276 C1275 1.403 1_554 S
C1276 C1277 1.404 . S
C1276 C1279 1.539 . S
C1277 C1273 1.408 1_554 S
C1277 C1276 1.404 . S
C1277 H1289 0.930 . S
C1278 C1274 1.528 . S
C1278 H1290 0.954 1_545 S
C1278 H1291 0.957 1_545 S
C1278 H1292 0.963 . S
C1279 C1276 1.539 . S
C1279 H1293 0.958 . S
C1279 H1294 0.961 . S
C1279 H1295 0.960 . S
H1280 C1264 0.931 . S
H1281 C1269 0.929 1_556 S
H1282 C1270 0.960 1_545 S
H1283 C1270 0.962 . S
H1284 C1270 0.960 . S
H1285 C1271 0.961 . S
H1286 C1271 0.961 . S
H1287 C1271 0.961 . S
H1288 C1272 0.931 . S
H1289 C1277 0.930 . S
H1290 C1278 0.954 1_565 S
H1291 C1278 0.957 1_565 S
H1292 C1278 0.963 . S
H1293 C1279 0.958 . S
H1294 C1279 0.961 . S
H1295 C1279 0.960 . S
C1296 C1297 1.391 . S
C1296 C1298 1.394 . S
C1296 H1312 0.931 . S
C1297 C1296 1.391 . S
C1297 C1301 1.376 . S
C1298 C1296 1.394 . S
C1298 C1299 1.369 . S
C1298 C1302 1.531 1_554 S
C1299 C1298 1.369 . S
C1299 C1300 1.410 . S
C1299 C1307 1.503 . S
C1300 C1299 1.410 . S
C1300 C1301 1.392 . S
C1300 C1303 1.511 . S
C1301 C1297 1.376 . S
C1301 C1300 1.392 . S
C1301 H1313 0.929 . S
C1302 C1298 1.531 1_556 S
C1302 H1314 0.960 . S
C1302 H1315 0.962 1_556 S
C1302 H1316 0.960 . S
C1303 C1300 1.511 . S
C1303 H1317 0.961 . S
C1303 H1318 0.961 . S
C1303 H1319 0.961 . S
C1304 C1305 1.370 . S
C1304 C1306 1.363 . S
C1304 H1320 0.931 . S
C1305 C1304 1.370 . S
C1305 C1309 1.408 . S
C1306 C1304 1.363 . S
C1306 C1307 1.370 . S
C1306 C1310 1.524 . S
C1307 C1299 1.503 . S
C1307 C1306 1.370 . S
C1307 C1308 1.403 . S
C1308 C1307 1.403 . S
C1308 C1309 1.404 . S
C1308 C1311 1.539 . S
C1309 C1305 1.408 . S
C1309 C1308 1.404 . S
C1309 H1321 0.930 . S
C1310 C1306 1.524 . S
C1310 H1322 0.956 . S
C1310 H1323 0.961 . S
C1310 H1324 0.961 . S
C1311 C1308 1.539 . S
C1311 H1325 0.958 . S
C1311 H1326 0.961 . S
C1311 H1327 0.960 . S
H1312 C1296 0.931 . S
H1313 C1301 0.929 . S
H1314 C1302 0.960 . S
H1315 C1302 0.962 1_554 S
H1316 C1302 0.960 . S
H1317 C1303 0.961 . S
H1318 C1303 0.961 . S
H1319 C1303 0.961 . S
H1320 C1304 0.931 . S
H1321 C1309 0.930 . S
H1322 C1310 0.956 . S
H1323 C1310 0.961 . S
H1324 C1310 0.961 . S
H1325 C1311 0.958 . S
H1326 C1311 0.961 . S
H1327 C1311 0.960 . S
C1328 C1329 1.391 . S
C1328 C1330 1.394 . S
C1328 H1344 0.931 . S
C1329 C1328 1.391 . S
C1329 C1333 1.376 . S
C1330 C1328 1.394 . S
C1330 C1331 1.369 . S
C1330 C1334 1.531 . S
C1331 C1330 1.369 . S
C1331 C1332 1.410 . S
C1331 C1339 1.503 . S
C1332 C1331 1.410 . S
C1332 C1333 1.392 . S
C1332 C1335 1.511 . S
C1333 C1329 1.376 . S
C1333 C1332 1.392 . S
C1333 H1345 0.929 . S
C1334 C1330 1.531 . S
C1334 H1346 0.960 . S
C1334 H1347 0.962 . S
C1334 H1348 0.960 . S
C1335 C1332 1.511 . S
C1335 H1349 0.961 . S
C1335 H1350 0.961 . S
C1335 H1351 0.961 . S
C1336 C1337 1.370 . S
C1336 C1338 1.363 . S
C1336 H1352 0.931 . S
C1337 C1336 1.370 . S
C1337 C1341 1.408 . S
C1338 C1336 1.363 . S
C1338 C1339 1.370 . S
C1338 C1342 1.524 . S
C1339 C1331 1.503 . S
C1339 C1338 1.370 . S
C1339 C1340 1.403 . S
C1340 C1339 1.403 . S
C1340 C1341 1.404 . S
C1340 C1343 1.539 . S
C1341 C1337 1.408 . S
C1341 C1340 1.404 . S
C1341 H1353 0.930 . S
C1342 C1338 1.524 . S
C1342 H1354 0.956 . S
C1342 H1355 0.961 . S
C1342 H1356 0.961 . S
C1343 C1340 1.539 . S
C1343 H1357 0.958 . S
C1343 H1358 0.961 . S
C1343 H1359 0.960 . S
H1344 C1328 0.931 . S
H1345 C1333 0.929 . S
H1346 C1334 0.960 . S
H1347 C1334 0.962 . S
H1348 C1334 0.960 . S
H1349 C1335 0.961 . S
H1350 C1335 0.961 . S
H1351 C1335 0.961 . S
H1352 C1336 0.931 . S
H1353 C1341 0.930 . S
H1354 C1342 0.956 . S
H1355 C1342 0.961 . S
H1356 C1342 0.961 . S
H1357 C1343 0.958 . S
H1358 C1343 0.961 . S
H1359 C1343 0.960 . S
C1360 C1361 1.391 . S
C1360 C1362 1.394 . S
C1360 H1376 0.931 . S
C1361 C1360 1.391 . S
C1361 C1365 1.376 . S
C1362 C1360 1.394 . S
C1362 C1363 1.369 . S
C1362 C1366 1.531 . S
C1363 C1362 1.369 . S
C1363 C1364 1.410 . S
C1363 C1371 1.503 . S
C1364 C1363 1.410 . S
C1364 C1365 1.392 . S
C1364 C1367 1.511 . S
C1365 C1361 1.376 . S
C1365 C1364 1.392 . S
C1365 H1377 0.929 . S
C1366 C1362 1.531 . S
C1366 H1378 0.960 . S
C1366 H1379 0.962 . S
C1366 H1380 0.960 . S
C1367 C1364 1.511 . S
C1367 H1381 0.961 . S
C1367 H1382 0.961 . S
C1367 H1383 0.961 . S
C1368 C1369 1.370 . S
C1368 C1370 1.363 . S
C1368 H1384 0.931 . S
C1369 C1368 1.370 . S
C1369 C1373 1.408 . S
C1370 C1368 1.363 . S
C1370 C1371 1.370 . S
C1370 C1374 1.524 . S
C1371 C1363 1.503 . S
C1371 C1370 1.370 . S
C1371 C1372 1.403 . S
C1372 C1371 1.403 . S
C1372 C1373 1.404 . S
C1372 C1375 1.539 . S
C1373 C1369 1.408 . S
C1373 C1372 1.404 . S
C1373 H1385 0.930 . S
C1374 C1370 1.524 . S
C1374 H1386 0.956 . S
C1374 H1387 0.961 . S
C1374 H1388 0.961 . S
C1375 C1372 1.539 . S
C1375 H1389 0.958 . S
C1375 H1390 0.961 . S
C1375 H1391 0.960 . S
H1376 C1360 0.931 . S
H1377 C1365 0.929 . S
H1378 C1366 0.960 . S
H1379 C1366 0.962 . S
H1380 C1366 0.960 . S
H1381 C1367 0.961 . S
H1382 C1367 0.961 . S
H1383 C1367 0.961 . S
H1384 C1368 0.931 . S
H1385 C1373 0.930 . S
H1386 C1374 0.956 . S
H1387 C1374 0.961 . S
H1388 C1374 0.961 . S
H1389 C1375 0.958 . S
H1390 C1375 0.961 . S
H1391 C1375 0.960 . S
C1392 C1393 1.391 . S
C1392 C1394 1.394 . S
C1392 H1408 0.931 . S
C1393 C1392 1.391 . S
C1393 C1397 1.376 . S
C1394 C1392 1.394 . S
C1394 C1395 1.369 . S
C1394 C1398 1.531 . S
C1395 C1394 1.369 . S
C1395 C1396 1.410 . S
C1395 C1403 1.503 . S
C1396 C1395 1.410 . S
C1396 C1397 1.392 . S
C1396 C1399 1.511 . S
C1397 C1393 1.376 . S
C1397 C1396 1.392 . S
C1397 H1409 0.929 1_655 S
C1398 C1394 1.531 . S
C1398 H1410 0.960 . S
C1398 H1411 0.962 . S
C1398 H1412 0.960 . S
C1399 C1396 1.511 . S
C1399 H1413 0.961 . S
C1399 H1414 0.961 . S
C1399 H1415 0.961 1_556 S
C1400 C1401 1.370 . S
C1400 C1402 1.363 . S
C1400 H1416 0.931 . S
C1401 C1400 1.370 . S
C1401 C1405 1.408 . S
C1402 C1400 1.363 . S
C1402 C1403 1.370 . S
C1402 C1406 1.524 . S
C1403 C1395 1.503 . S
C1403 C1402 1.370 . S
C1403 C1404 1.403 . S
C1404 C1403 1.403 . S
C1404 C1405 1.404 . S
C1404 C1407 1.536 1_556 S
C1405 C1401 1.408 . S
C1405 C1404 1.404 . S
C1405 H1417 0.930 . S
C1406 C1402 1.524 . S
C1406 H1418 0.956 . S
C1406 H1419 0.961 . S
C1406 H1420 0.961 . S
C1407 C1404 1.536 1_554 S
C1407 H1421 0.957 1_554 S
C1407 H1422 0.965 . S
C1407 H1423 0.960 . S
H1408 C1392 0.931 . S
H1409 C1397 0.929 1_455 S
H1410 C1398 0.960 . S
H1411 C1398 0.962 . S
H1412 C1398 0.960 . S
H1413 C1399 0.961 . S
H1414 C1399 0.961 . S
H1415 C1399 0.961 1_554 S
H1416 C1400 0.931 . S
H1417 C1405 0.930 . S
H1418 C1406 0.956 . S
H1419 C1406 0.961 . S
H1420 C1406 0.961 . S
H1421 C1407 0.957 1_556 S
H1422 C1407 0.965 . S
H1423 C1407 0.960 . S
C1424 C1425 1.391 . S
C1424 C1426 1.394 . S
C1424 H1440 0.931 . S
C1425 C1424 1.391 . S
C1425 C1429 1.376 . S
C1426 C1424 1.394 . S
C1426 C1427 1.369 . S
C1426 C1430 1.531 . S
C1427 C1426 1.369 . S
C1427 C1428 1.410 . S
C1427 C1435 1.503 . S
C1428 C1427 1.410 . S
C1428 C1429 1.392 . S
C1428 C1431 1.511 . S
C1429 C1425 1.376 . S
C1429 C1428 1.392 . S
C1429 H1441 0.929 . S
C1430 C1426 1.531 . S
C1430 H1442 0.960 . S
C1430 H1443 0.962 . S
C1430 H1444 0.960 . S
C1431 C1428 1.511 . S
C1431 H1445 0.961 . S
C1431 H1446 0.961 . S
C1431 H1447 0.961 . S
C1432 C1433 1.370 . S
C1432 C1434 1.363 . S
C1432 H1448 0.931 . S
C1433 C1432 1.370 . S
C1433 C1437 1.408 . S
C1434 C1432 1.363 . S
C1434 C1435 1.370 . S
C1434 C1438 1.524 . S
C1435 C1427 1.503 . S
C1435 C1434 1.370 . S
C1435 C1436 1.403 . S
C1436 C1435 1.403 . S
C1436 C1437 1.404 . S
C1436 C1439 1.539 . S
C1437 C1433 1.408 . S
C1437 C1436 1.404 . S
C1437 H1449 0.930 . S
C1438 C1434 1.524 . S
C1438 H1450 0.956 . S
C1438 H1451 0.963 . S
C1438 H1452 0.961 1_556 S
C1439 C1436 1.539 . S
C1439 H1453 0.958 . S
C1439 H1454 0.961 . S
C1439 H1455 0.960 . S
H1440 C1424 0.931 . S
H1441 C1429 0.929 . S
H1442 C1430 0.960 . S
H1443 C1430 0.962 . S
H1444 C1430 0.960 . S
H1445 C1431 0.961 . S
H1446 C1431 0.961 . S
H1447 C1431 0.961 . S
H1448 C1432 0.931 . S
H1449 C1437 0.930 . S
H1450 C1438 0.956 . S
H1451 C1438 0.963 . S
H1452 C1438 0.961 1_554 S
H1453 C1439 0.958 . S
H1454 C1439 0.961 . S
H1455 C1439 0.960 . S
C1456 C1457 1.391 . S
C1456 C1458 1.394 . S
C1456 H1472 0.931 . S
C1457 C1456 1.391 . S
C1457 C1461 1.376 . S
C1458 C1456 1.394 . S
C1458 C1459 1.369 . S
C1458 C1462 1.531 . S
C1459 C1458 1.369 . S
C1459 C1460 1.410 . S
C1459 C1467 1.503 . S
C1460 C1459 1.410 . S
C1460 C1461 1.392 . S
C1460 C1463 1.511 . S
C1461 C1457 1.376 . S
C1461 C1460 1.392 . S
C1461 H1473 0.929 1_655 S
C1462 C1458 1.531 . S
C1462 H1474 0.960 1_554 S
C1462 H1475 0.962 . S
C1462 H1476 0.960 1_554 S
C1463 C1460 1.511 . S
C1463 H1477 0.961 . S
C1463 H1478 0.961 . S
C1463 H1479 0.961 . S
C1464 C1465 1.370 . S
C1464 C1466 1.363 . S
C1464 H1480 0.931 . S
C1465 C1464 1.370 . S
C1465 C1469 1.408 . S
C1466 C1464 1.363 . S
C1466 C1467 1.370 . S
C1466 C1470 1.524 . S
C1467 C1459 1.503 . S
C1467 C1466 1.370 . S
C1467 C1468 1.403 . S
C1468 C1467 1.403 . S
C1468 C1469 1.404 . S
C1468 C1471 1.539 . S
C1469 C1465 1.408 . S
C1469 C1468 1.404 . S
C1469 H1481 0.930 . S
C1470 C1466 1.524 . S
C1470 H1482 0.956 . S
C1470 H1483 0.961 . S
C1470 H1484 0.961 . S
C1471 C1468 1.539 . S
C1471 H1485 0.958 1_554 S
C1471 H1486 0.961 . S
C1471 H1487 0.960 . S
H1472 C1456 0.931 . S
H1473 C1461 0.929 1_455 S
H1474 C1462 0.960 1_556 S
H1475 C1462 0.962 . S
H1476 C1462 0.960 1_556 S
H1477 C1463 0.961 . S
H1478 C1463 0.961 . S
H1479 C1463 0.961 . S
H1480 C1464 0.931 . S
H1481 C1469 0.930 . S
H1482 C1470 0.956 . S
H1483 C1470 0.961 . S
H1484 C1470 0.961 . S
H1485 C1471 0.958 1_556 S
H1486 C1471 0.961 . S
H1487 C1471 0.960 . S
C1488 C1489 1.391 . S
C1488 C1490 1.394 . S
C1488 H1504 0.931 . S
C1489 C1488 1.391 . S
C1489 C1493 1.376 . S
C1490 C1488 1.394 . S
C1490 C1491 1.369 . S
C1490 C1494 1.531 . S
C1491 C1490 1.369 . S
C1491 C1492 1.410 . S
C1491 C1499 1.503 . S
C1492 C1491 1.410 . S
C1492 C1493 1.392 . S
C1492 C1495 1.511 . S
C1493 C1489 1.376 . S
C1493 C1492 1.392 . S
C1493 H1505 0.929 . S
C1494 C1490 1.531 . S
C1494 H1506 0.960 . S
C1494 H1507 0.962 . S
C1494 H1508 0.960 . S
C1495 C1492 1.511 . S
C1495 H1509 0.961 . S
C1495 H1510 0.961 . S
C1495 H1511 0.961 . S
C1496 C1497 1.370 . S
C1496 C1498 1.363 . S
C1496 H1512 0.931 . S
C1497 C1496 1.370 . S
C1497 C1501 1.408 . S
C1498 C1496 1.363 . S
C1498 C1499 1.370 . S
C1498 C1502 1.524 . S
C1499 C1491 1.503 . S
C1499 C1498 1.370 . S
C1499 C1500 1.403 . S
C1500 C1499 1.403 . S
C1500 C1501 1.404 . S
C1500 C1503 1.539 . S
C1501 C1497 1.408 . S
C1501 C1500 1.404 . S
C1501 H1513 0.930 . S
C1502 C1498 1.524 . S
C1502 H1514 0.956 . S
C1502 H1515 0.961 . S
C1502 H1516 0.961 . S
C1503 C1500 1.539 . S
C1503 H1517 0.958 . S
C1503 H1518 0.961 . S
C1503 H1519 0.960 . S
H1504 C1488 0.931 . S
H1505 C1493 0.929 . S
H1506 C1494 0.960 . S
H1507 C1494 0.962 . S
H1508 C1494 0.960 . S
H1509 C1495 0.961 . S
H1510 C1495 0.961 . S
H1511 C1495 0.961 . S
H1512 C1496 0.931 . S
H1513 C1501 0.930 . S
H1514 C1502 0.956 . S
H1515 C1502 0.961 . S
H1516 C1502 0.961 . S
H1517 C1503 0.958 . S
H1518 C1503 0.961 . S
H1519 C1503 0.960 . S
C1520 C1521 1.391 . S
C1520 C1522 1.394 . S
C1520 H1536 0.931 . S
C1521 C1520 1.391 . S
C1521 C1525 1.376 . S
C1522 C1520 1.394 . S
C1522 C1523 1.369 . S
C1522 C1526 1.531 . S
C1523 C1522 1.369 . S
C1523 C1524 1.410 . S
C1523 C1531 1.503 . S
C1524 C1523 1.410 . S
C1524 C1525 1.392 . S
C1524 C1527 1.511 . S
C1525 C1521 1.376 . S
C1525 C1524 1.392 . S
C1525 H1537 0.929 . S
C1526 C1522 1.531 . S
C1526 H1538 0.960 . S
C1526 H1539 0.962 . S
C1526 H1540 0.960 . S
C1527 C1524 1.511 . S
C1527 H1541 0.961 . S
C1527 H1542 0.961 . S
C1527 H1543 0.961 . S
C1528 C1529 1.370 . S
C1528 C1530 1.363 . S
C1528 H1544 0.931 . S
C1529 C1528 1.370 . S
C1529 C1533 1.408 . S
C1530 C1528 1.363 . S
C1530 C1531 1.370 . S
C1530 C1534 1.524 . S
C1531 C1523 1.503 . S
C1531 C1530 1.370 . S
C1531 C1532 1.403 . S
C1532 C1531 1.403 . S
C1532 C1533 1.404 . S
C1532 C1535 1.539 . S
C1533 C1529 1.408 . S
C1533 C1532 1.404 . S
C1533 H1545 0.930 . S
C1534 C1530 1.524 . S
C1534 H1546 0.956 . S
C1534 H1547 0.961 . S
C1534 H1548 0.961 . S
C1535 C1532 1.539 . S
C1535 H1549 0.958 . S
C1535 H1550 0.961 . S
C1535 H1551 0.960 . S
H1536 C1520 0.931 . S
H1537 C1525 0.929 . S
H1538 C1526 0.960 . S
H1539 C1526 0.962 . S
H1540 C1526 0.960 . S
H1541 C1527 0.961 . S
H1542 C1527 0.961 . S
H1543 C1527 0.961 . S
H1544 C1528 0.931 . S
H1545 C1533 0.930 . S
H1546 C1534 0.956 . S
H1547 C1534 0.961 . S
H1548 C1534 0.961 . S
H1549 C1535 0.958 . S
H1550 C1535 0.961 . S
H1551 C1535 0.960 . S
C1552 C1553 1.391 1_655 S
C1552 C1554 1.394 . S
C1552 H1568 0.931 . S
C1553 C1552 1.391 1_455 S
C1553 C1557 1.376 . S
C1554 C1552 1.394 . S
C1554 C1555 1.369 . S
C1554 C1558 1.531 . S
C1555 C1554 1.369 . S
C1555 C1556 1.410 . S
C1555 C1563 1.503 . S
C1556 C1555 1.410 . S
C1556 C1557 1.392 1_655 S
C1556 C1559 1.511 1_655 S
C1557 C1553 1.376 . S
C1557 C1556 1.392 1_455 S
C1557 H1569 0.929 . S
C1558 C1554 1.531 . S
C1558 H1570 0.960 . S
C1558 H1571 0.962 . S
C1558 H1572 0.960 . S
C1559 C1556 1.511 1_455 S
C1559 H1573 0.961 . S
C1559 H1574 0.961 1_455 S
C1559 H1575 0.961 . S
C1560 C1561 1.370 . S
C1560 C1562 1.363 . S
C1560 H1576 0.931 . S
C1561 C1560 1.370 . S
C1561 C1565 1.408 . S
C1562 C1560 1.363 . S
C1562 C1563 1.370 . S
C1562 C1566 1.524 . S
C1563 C1555 1.503 . S
C1563 C1562 1.370 . S
C1563 C1564 1.403 . S
C1564 C1563 1.403 . S
C1564 C1565 1.404 . S
C1564 C1567 1.539 . S
C1565 C1561 1.408 . S
C1565 C1564 1.404 . S
C1565 H1577 0.930 . S
C1566 C1562 1.524 . S
C1566 H1578 0.957 . S
C1566 H1579 0.962 . S
C1566 H1580 0.961 1_556 S
C1567 C1564 1.539 . S
C1567 H1581 0.958 . S
C1567 H1582 0.961 . S
C1567 H1583 0.960 . S
H1568 C1552 0.931 . S
H1569 C1557 0.929 . S
H1570 C1558 0.960 . S
H1571 C1558 0.962 . S
H1572 C1558 0.960 . S
H1573 C1559 0.961 . S
H1574 C1559 0.961 1_655 S
H1575 C1559 0.961 . S
H1576 C1560 0.931 . S
H1577 C1565 0.930 . S
H1578 C1566 0.957 . S
H1579 C1566 0.962 . S
H1580 C1566 0.961 1_554 S
H1581 C1567 0.958 . S
H1582 C1567 0.961 . S
H1583 C1567 0.960 . S
C1584 C1585 1.391 . S
C1584 C1586 1.394 . S
C1584 H1600 0.931 . S
C1585 C1584 1.391 . S
C1585 C1589 1.376 . S
C1586 C1584 1.394 . S
C1586 C1587 1.369 . S
C1586 C1590 1.531 . S
C1587 C1586 1.369 . S
C1587 C1588 1.410 . S
C1587 C1595 1.503 . S
C1588 C1587 1.410 . S
C1588 C1589 1.392 . S
C1588 C1591 1.511 . S
C1589 C1585 1.376 . S
C1589 C1588 1.392 . S
C1589 H1601 0.929 . S
C1590 C1586 1.531 . S
C1590 H1602 0.960 . S
C1590 H1603 0.962 . S
C1590 H1604 0.960 . S
C1591 C1588 1.511 . S
C1591 H1605 0.961 . S
C1591 H1606 0.961 . S
C1591 H1607 0.961 . S
C1592 C1593 1.370 . S
C1592 C1594 1.363 . S
C1592 H1608 0.931 . S
C1593 C1592 1.370 . S
C1593 C1597 1.408 . S
C1594 C1592 1.363 . S
C1594 C1595 1.370 . S
C1594 C1598 1.524 . S
C1595 C1587 1.503 . S
C1595 C1594 1.370 . S
C1595 C1596 1.403 . S
C1596 C1595 1.403 . S
C1596 C1597 1.404 . S
C1596 C1599 1.539 . S
C1597 C1593 1.408 . S
C1597 C1596 1.404 . S
C1597 H1609 0.930 . S
C1598 C1594 1.524 . S
C1598 H1610 0.956 . S
C1598 H1611 0.961 . S
C1598 H1612 0.961 . S
C1599 C1596 1.539 . S
C1599 H1613 0.958 . S
C1599 H1614 0.961 . S
C1599 H1615 0.960 . S
H1600 C1584 0.931 . S
H1601 C1589 0.929 . S
H1602 C1590 0.960 . S
H1603 C1590 0.962 . S
H1604 C1590 0.960 . S
H1605 C1591 0.961 . S
H1606 C1591 0.961 . S
H1607 C1591 0.961 . S
H1608 C1592 0.931 . S
H1609 C1597 0.930 . S
H1610 C1598 0.956 . S
H1611 C1598 0.961 . S
H1612 C1598 0.961 . S
H1613 C1599 0.958 . S
H1614 C1599 0.961 . S
H1615 C1599 0.960 . S
C1616 C1617 1.391 . S
C1616 C1618 1.394 . S
C1616 H1632 0.931 . S
C1617 C1616 1.391 . S
C1617 C1621 1.376 . S
C1618 C1616 1.394 . S
C1618 C1619 1.369 . S
C1618 C1622 1.531 . S
C1619 C1618 1.369 . S
C1619 C1620 1.410 . S
C1619 C1627 1.503 . S
C1620 C1619 1.410 . S
C1620 C1621 1.392 . S
C1620 C1623 1.511 . S
C1621 C1617 1.376 . S
C1621 C1620 1.392 . S
C1621 H1633 0.929 . S
C1622 C1618 1.531 . S
C1622 H1634 0.960 . S
C1622 H1635 0.962 . S
C1622 H1636 0.960 . S
C1623 C1620 1.511 . S
C1623 H1637 0.961 . S
C1623 H1638 0.961 . S
C1623 H1639 0.961 . S
C1624 C1625 1.370 . S
C1624 C1626 1.363 . S
C1624 H1640 0.931 . S
C1625 C1624 1.370 . S
C1625 C1629 1.408 . S
C1626 C1624 1.363 . S
C1626 C1627 1.370 . S
C1626 C1630 1.524 . S
C1627 C1619 1.503 . S
C1627 C1626 1.370 . S
C1627 C1628 1.403 . S
C1628 C1627 1.403 . S
C1628 C1629 1.404 . S
C1628 C1631 1.539 . S
C1629 C1625 1.408 . S
C1629 C1628 1.404 . S
C1629 H1641 0.930 . S
C1630 C1626 1.524 . S
C1630 H1642 0.956 . S
C1630 H1643 0.961 . S
C1630 H1644 0.961 . S
C1631 C1628 1.539 . S
C1631 H1645 0.958 . S
C1631 H1646 0.961 . S
C1631 H1647 0.960 . S
H1632 C1616 0.931 . S
H1633 C1621 0.929 . S
H1634 C1622 0.960 . S
H1635 C1622 0.962 . S
H1636 C1622 0.960 . S
H1637 C1623 0.961 . S
H1638 C1623 0.961 . S
H1639 C1623 0.961 . S
H1640 C1624 0.931 . S
H1641 C1629 0.930 . S
H1642 C1630 0.956 . S
H1643 C1630 0.961 . S
H1644 C1630 0.961 . S
H1645 C1631 0.958 . S
H1646 C1631 0.961 . S
H1647 C1631 0.960 . S
C1648 C1649 1.391 . S
C1648 C1650 1.394 . S
C1648 H1664 0.931 . S
C1649 C1648 1.391 . S
C1649 C1653 1.376 . S
C1650 C1648 1.394 . S
C1650 C1651 1.369 . S
C1650 C1654 1.531 . S
C1651 C1650 1.369 . S
C1651 C1652 1.410 . S
C1651 C1659 1.503 . S
C1652 C1651 1.410 . S
C1652 C1653 1.392 . S
C1652 C1655 1.511 . S
C1653 C1649 1.376 . S
C1653 C1652 1.392 . S
C1653 H1665 0.929 . S
C1654 C1650 1.531 . S
C1654 H1666 0.960 . S
C1654 H1667 0.962 . S
C1654 H1668 0.960 . S
C1655 C1652 1.511 . S
C1655 H1669 0.961 . S
C1655 H1670 0.961 . S
C1655 H1671 0.961 . S
C1656 C1657 1.370 . S
C1656 C1658 1.363 . S
C1656 H1672 0.931 . S
C1657 C1656 1.370 . S
C1657 C1661 1.408 . S
C1658 C1656 1.363 . S
C1658 C1659 1.370 . S
C1658 C1662 1.524 . S
C1659 C1651 1.503 . S
C1659 C1658 1.370 . S
C1659 C1660 1.403 . S
C1660 C1659 1.403 . S
C1660 C1661 1.404 . S
C1660 C1663 1.539 1_554 S
C1661 C1657 1.408 . S
C1661 C1660 1.404 . S
C1661 H1673 0.930 . S
C1662 C1658 1.524 . S
C1662 H1674 0.956 . S
C1662 H1675 0.961 . S
C1662 H1676 0.961 . S
C1663 C1660 1.539 1_556 S
C1663 H1677 0.958 . S
C1663 H1678 0.961 . S
C1663 H1679 0.960 . S
H1664 C1648 0.931 . S
H1665 C1653 0.929 . S
H1666 C1654 0.960 . S
H1667 C1654 0.962 . S
H1668 C1654 0.960 . S
H1669 C1655 0.961 . S
H1670 C1655 0.961 . S
H1671 C1655 0.961 . S
H1672 C1656 0.931 . S
H1673 C1661 0.930 . S
H1674 C1662 0.956 . S
H1675 C1662 0.961 . S
H1676 C1662 0.961 . S
H1677 C1663 0.958 . S
H1678 C1663 0.961 . S
H1679 C1663 0.960 . S
C1680 C1681 1.391 . S
C1680 C1682 1.394 . S
C1680 H1696 0.931 . S
C1681 C1680 1.391 . S
C1681 C1685 1.376 . S
C1682 C1680 1.394 . S
C1682 C1683 1.369 . S
C1682 C1686 1.531 . S
C1683 C1682 1.369 . S
C1683 C1684 1.410 . S
C1683 C1691 1.503 . S
C1684 C1683 1.410 . S
C1684 C1685 1.392 . S
C1684 C1687 1.511 . S
C1685 C1681 1.376 . S
C1685 C1684 1.392 . S
C1685 H1697 0.929 . S
C1686 C1682 1.531 . S
C1686 H1698 0.960 . S
C1686 H1699 0.962 . S
C1686 H1700 0.960 . S
C1687 C1684 1.511 . S
C1687 H1701 0.961 . S
C1687 H1702 0.961 . S
C1687 H1703 0.961 . S
C1688 C1689 1.370 1_655 S
C1688 C1690 1.363 . S
C1688 H1704 0.931 . S
C1689 C1688 1.370 1_455 S
C1689 C1693 1.408 . S
C1690 C1688 1.363 . S
C1690 C1691 1.370 . S
C1690 C1694 1.524 . S
C1691 C1683 1.503 . S
C1691 C1690 1.370 . S
C1691 C1692 1.403 . S
C1692 C1691 1.403 . S
C1692 C1693 1.404 1_655 S
C1692 C1695 1.539 . S
C1693 C1689 1.408 . S
C1693 C1692 1.404 1_455 S
C1693 H1705 0.930 . S
C1694 C1690 1.524 . S
C1694 H1706 0.956 1_554 S
C1694 H1707 0.961 . S
C1694 H1708 0.961 1_554 S
C1695 C1692 1.539 . S
C1695 H1709 0.958 1_655 S
C1695 H1710 0.961 1_655 S
C1695 H1711 0.960 . S
H1696 C1680 0.931 . S
H1697 C1685 0.929 . S
H1698 C1686 0.960 . S
H1699 C1686 0.962 . S
H1700 C1686 0.960 . S
H1701 C1687 0.961 . S
H1702 C1687 0.961 . S
H1703 C1687 0.961 . S
H1704 C1688 0.931 . S
H1705 C1693 0.930 . S
H1706 C1694 0.956 1_556 S
H1707 C1694 0.961 . S
H1708 C1694 0.961 1_556 S
H1709 C1695 0.958 1_455 S
H1710 C1695 0.961 1_455 S
H1711 C1695 0.960 . S
C1712 C1713 1.391 . S
C1712 C1714 1.394 . S
C1712 H1728 0.931 . S
C1713 C1712 1.391 . S
C1713 C1717 1.376 . S
C1714 C1712 1.394 . S
C1714 C1715 1.369 . S
C1714 C1718 1.531 1_556 S
C1715 C1714 1.369 . S
C1715 C1716 1.410 . S
C1715 C1723 1.503 . S
C1716 C1715 1.410 . S
C1716 C1717 1.392 . S
C1716 C1719 1.511 . S
C1717 C1713 1.376 . S
C1717 C1716 1.392 . S
C1717 H1729 0.929 . S
C1718 C1714 1.531 1_554 S
C1718 H1730 0.960 . S
C1718 H1731 0.962 . S
C1718 H1732 0.960 . S
C1719 C1716 1.511 . S
C1719 H1733 0.961 . S
C1719 H1734 0.961 . S
C1719 H1735 0.961 . S
C1720 C1721 1.370 . S
C1720 C1722 1.363 . S
C1720 H1736 0.931 . S
C1721 C1720 1.370 . S
C1721 C1725 1.408 . S
C1722 C1720 1.363 . S
C1722 C1723 1.370 . S
C1722 C1726 1.524 . S
C1723 C1715 1.503 . S
C1723 C1722 1.370 . S
C1723 C1724 1.403 . S
C1724 C1723 1.403 . S
C1724 C1725 1.404 . S
C1724 C1727 1.539 . S
C1725 C1721 1.408 . S
C1725 C1724 1.404 . S
C1725 H1737 0.930 . S
C1726 C1722 1.524 . S
C1726 H1738 0.956 . S
C1726 H1739 0.961 . S
C1726 H1740 0.961 . S
C1727 C1724 1.539 . S
C1727 H1741 0.958 . S
C1727 H1742 0.961 . S
C1727 H1743 0.960 . S
H1728 C1712 0.931 . S
H1729 C1717 0.929 . S
H1730 C1718 0.960 . S
H1731 C1718 0.962 . S
H1732 C1718 0.960 . S
H1733 C1719 0.961 . S
H1734 C1719 0.961 . S
H1735 C1719 0.961 . S
H1736 C1720 0.931 . S
H1737 C1725 0.930 . S
H1738 C1726 0.956 . S
H1739 C1726 0.961 . S
H1740 C1726 0.961 . S
H1741 C1727 0.958 . S
H1742 C1727 0.961 . S
H1743 C1727 0.960 . S
C1744 C1745 1.391 . S
C1744 C1746 1.394 . S
C1744 H1760 0.931 . S
C1745 C1744 1.391 . S
C1745 C1749 1.376 . S
C1746 C1744 1.394 . S
C1746 C1747 1.369 . S
C1746 C1750 1.531 . S
C1747 C1746 1.369 . S
C1747 C1748 1.410 . S
C1747 C1755 1.503 . S
C1748 C1747 1.410 . S
C1748 C1749 1.392 . S
C1748 C1751 1.511 . S
C1749 C1745 1.376 . S
C1749 C1748 1.392 . S
C1749 H1761 0.929 . S
C1750 C1746 1.531 . S
C1750 H1762 0.960 . S
C1750 H1763 0.962 . S
C1750 H1764 0.960 . S
C1751 C1748 1.511 . S
C1751 H1765 0.961 . S
C1751 H1766 0.961 . S
C1751 H1767 0.961 . S
C1752 C1753 1.370 . S
C1752 C1754 1.363 . S
C1752 H1768 0.931 . S
C1753 C1752 1.370 . S
C1753 C1757 1.408 . S
C1754 C1752 1.363 . S
C1754 C1755 1.370 . S
C1754 C1758 1.524 . S
C1755 C1747 1.503 . S
C1755 C1754 1.370 . S
C1755 C1756 1.403 . S
C1756 C1755 1.403 . S
C1756 C1757 1.404 . S
C1756 C1759 1.539 . S
C1757 C1753 1.408 . S
C1757 C1756 1.404 . S
C1757 H1769 0.930 . S
C1758 C1754 1.524 . S
C1758 H1770 0.956 . S
C1758 H1771 0.961 . S
C1758 H1772 0.961 . S
C1759 C1756 1.539 . S
C1759 H1773 0.958 . S
C1759 H1774 0.961 . S
C1759 H1775 0.960 . S
H1760 C1744 0.931 . S
H1761 C1749 0.929 . S
H1762 C1750 0.960 . S
H1763 C1750 0.962 . S
H1764 C1750 0.960 . S
H1765 C1751 0.961 . S
H1766 C1751 0.961 . S
H1767 C1751 0.961 . S
H1768 C1752 0.931 . S
H1769 C1757 0.930 . S
H1770 C1758 0.956 . S
H1771 C1758 0.961 . S
H1772 C1758 0.961 . S
H1773 C1759 0.958 . S
H1774 C1759 0.961 . S
H1775 C1759 0.960 . S
C1776 C1777 1.391 . S
C1776 C1778 1.394 . S
C1776 H1792 0.931 . S
C1777 C1776 1.391 . S
C1777 C1781 1.376 . S
C1778 C1776 1.394 . S
C1778 C1779 1.369 . S
C1778 C1782 1.531 . S
C1779 C1778 1.369 . S
C1779 C1780 1.410 . S
C1779 C1787 1.503 . S
C1780 C1779 1.410 . S
C1780 C1781 1.392 . S
C1780 C1783 1.511 . S
C1781 C1777 1.376 . S
C1781 C1780 1.392 . S
C1781 H1793 0.929 . S
C1782 C1778 1.531 . S
C1782 H1794 0.960 . S
C1782 H1795 0.962 . S
C1782 H1796 0.960 . S
C1783 C1780 1.511 . S
C1783 H1797 0.961 . S
C1783 H1798 0.961 . S
C1783 H1799 0.961 . S
C1784 C1785 1.370 . S
C1784 C1786 1.363 . S
C1784 H1800 0.931 . S
C1785 C1784 1.370 . S
C1785 C1789 1.408 . S
C1786 C1784 1.363 . S
C1786 C1787 1.370 . S
C1786 C1790 1.524 . S
C1787 C1779 1.503 . S
C1787 C1786 1.370 . S
C1787 C1788 1.403 . S
C1788 C1787 1.403 . S
C1788 C1789 1.404 . S
C1788 C1791 1.539 . S
C1789 C1785 1.408 . S
C1789 C1788 1.404 . S
C1789 H1801 0.930 . S
C1790 C1786 1.524 . S
C1790 H1802 0.956 . S
C1790 H1803 0.961 . S
C1790 H1804 0.961 . S
C1791 C1788 1.539 . S
C1791 H1805 0.958 . S
C1791 H1806 0.961 . S
C1791 H1807 0.960 . S
H1792 C1776 0.931 . S
H1793 C1781 0.929 . S
H1794 C1782 0.960 . S
H1795 C1782 0.962 . S
H1796 C1782 0.960 . S
H1797 C1783 0.961 . S
H1798 C1783 0.961 . S
H1799 C1783 0.961 . S
H1800 C1784 0.931 . S
H1801 C1789 0.930 . S
H1802 C1790 0.956 . S
H1803 C1790 0.961 . S
H1804 C1790 0.961 . S
H1805 C1791 0.958 . S
H1806 C1791 0.961 . S
H1807 C1791 0.960 . S
C529 N5 1.418 . S
C537 N14 1.449 . S
C561 N38 1.425 . S
C569 N47 1.444 . S
C593 N71 1.464 . S
C601 N80 1.427 . S
C625 N104 1.460 . S
C633 N113 1.430 . S
C657 N137 1.470 . S
C665 N146 1.425 . S
C689 N170 1.443 . S
C697 N179 1.436 . S
C721 N203 1.423 . S
C729 N212 1.447 . S
C753 N245 1.406 . S
C761 N236 1.456 . S
C785 N278 1.465 . S
C793 N269 1.434 . S
C817 N302 1.460 . S
C825 N311 1.431 . S
C849 N335 1.439 . S
C857 N344 1.438 . S
C881 N377 1.403 . S
C889 N368 1.457 . S
C913 N410 1.448 . S
C921 N401 1.440 . S
C945 N434 1.415 . S
C953 N443 1.450 . S
C977 N476 1.438 . S
C985 N467 1.443 . S
C1009 N500 1.416 . S
C1017 N509 1.450 . S
C1041 C28 0.992 . S
C1049 C160 0.988 . S
C1073 C193 0.988 . S
C1081 C61 0.990 . S
C1105 C226 0.989 . S
C1113 C94 0.984 . S
C1137 C127 0.986 . S
C1145 C259 0.983 . S
C1169 C358 0.978 . S
C1177 C292 0.984 . S
C1201 C325 0.985 . S
C1209 C391 0.989 . S
C1233 C424 0.992 . S
C1241 C490 0.988 . S
C1265 C457 0.992 . S
C1273 C523 0.987 . S
C1297 C305 1.435 . S
C1305 C8 1.425 . S
C1329 C470 1.410 . S
C1337 C41 1.422 . S
C1361 C74 1.418 . S
C1369 C272 1.424 . S
C1393 C503 1.419 1_655 S
C1401 C107 1.424 . S
C1425 C338 1.396 . S
C1433 C140 1.415 . S
C1457 C437 1.394 1_655 S
C1465 C173 1.413 . S
C1489 C206 1.397 . S
C1497 C371 1.409 . S
C1521 C239 1.435 . S
C1529 C404 1.424 . S
C1553 C149 1.518 . S
C1561 C116 1.521 . S
C1585 C413 1.506 . S
C1593 C281 1.517 . S
C1617 C50 1.508 . S
C1625 C215 1.518 . S
C1649 C446 1.517 . S
C1657 C314 1.522 . S
C1681 C182 1.510 . S
C1689 C17 1.520 . S
C1713 C347 1.505 . S
C1721 C512 1.517 . S
C1745 C248 1.516 . S
C1753 C83 1.522 . S
C1777 C479 1.514 . S
C1785 C380 1.519 . S
