# Generated by pormake.
# Topology lcy-e, (6)-cn, num edge types: 1
# Building blocks:
#     Node 0, Type 0, BuildingBlock: NUHQIS_clean_sbu_0, # of connection points: 6
#     Node 1, Type 0, BuildingBlock: NUHQIS_clean_sbu_0, # of connection points: 6
#     Node 2, Type 0, BuildingBlock: NUHQIS_clean_sbu_0, # of connection points: 6
#     Node 3, Type 0, BuildingBlock: NUHQIS_clean_sbu_0, # of connection points: 6
#     Node 4, Type 0, BuildingBlock: NUHQIS_clean_sbu_0, # of connection points: 6
#     Node 5, Type 0, BuildingBlock: NUHQIS_clean_sbu_0, # of connection points: 6
#     Node 6, Type 0, BuildingBlock: NUHQIS_clean_sbu_0, # of connection points: 6
#     Node 7, Type 0, BuildingBlock: NUHQIS_clean_sbu_0, # of connection points: 6
#     Node 8, Type 0, BuildingBlock: NUHQIS_clean_sbu_0, # of connection points: 6
#     Node 9, Type 0, BuildingBlock: NUHQIS_clean_sbu_0, # of connection points: 6
#     Node 10, Type 0, BuildingBlock: NUHQIS_clean_sbu_0, # of connection points: 6
#     Node 11, Type 0, BuildingBlock: NUHQIS_clean_sbu_0, # of connection points: 6
#     Edge 12, Type (0, 0), BuildingBlock: AJUNOK_clean_linker_0, # of connection points: 2
#     Edge 13, Type (0, 0), BuildingBlock: AJUNOK_clean_linker_0, # of connection points: 2
#     Edge 14, Type (0, 0), BuildingBlock: AJUNOK_clean_linker_0, # of connection points: 2
#     Edge 15, Type (0, 0), BuildingBlock: AJUNOK_clean_linker_0, # of connection points: 2
#     Edge 16, Type (0, 0), BuildingBlock: AJUNOK_clean_linker_0, # of connection points: 2
#     Edge 17, Type (0, 0), BuildingBlock: AJUNOK_clean_linker_0, # of connection points: 2
#     Edge 18, Type (0, 0), BuildingBlock: AJUNOK_clean_linker_0, # of connection points: 2
#     Edge 19, Type (0, 0), BuildingBlock: AJUNOK_clean_linker_0, # of connection points: 2
#     Edge 20, Type (0, 0), BuildingBlock: AJUNOK_clean_linker_0, # of connection points: 2
#     Edge 21, Type (0, 0), BuildingBlock: AJUNOK_clean_linker_0, # of connection points: 2
#     Edge 22, Type (0, 0), BuildingBlock: AJUNOK_clean_linker_0, # of connection points: 2
#     Edge 23, Type (0, 0), BuildingBlock: AJUNOK_clean_linker_0, # of connection points: 2
#     Edge 24, Type (0, 0), BuildingBlock: AJUNOK_clean_linker_0, # of connection points: 2
#     Edge 25, Type (0, 0), BuildingBlock: AJUNOK_clean_linker_0, # of connection points: 2
#     Edge 26, Type (0, 0), BuildingBlock: AJUNOK_clean_linker_0, # of connection points: 2
#     Edge 27, Type (0, 0), BuildingBlock: AJUNOK_clean_linker_0, # of connection points: 2
#     Edge 28, Type (0, 0), BuildingBlock: AJUNOK_clean_linker_0, # of connection points: 2
#     Edge 29, Type (0, 0), BuildingBlock: AJUNOK_clean_linker_0, # of connection points: 2
#     Edge 30, Type (0, 0), BuildingBlock: AJUNOK_clean_linker_0, # of connection points: 2
#     Edge 31, Type (0, 0), BuildingBlock: AJUNOK_clean_linker_0, # of connection points: 2
#     Edge 32, Type (0, 0), BuildingBlock: AJUNOK_clean_linker_0, # of connection points: 2
#     Edge 33, Type (0, 0), BuildingBlock: AJUNOK_clean_linker_0, # of connection points: 2
#     Edge 34, Type (0, 0), BuildingBlock: AJUNOK_clean_linker_0, # of connection points: 2
#     Edge 35, Type (0, 0), BuildingBlock: AJUNOK_clean_linker_0, # of connection points: 2
#     Edge 36, Type (0, 0), BuildingBlock: AJUNOK_clean_linker_0, # of connection points: 2
#     Edge 37, Type (0, 0), BuildingBlock: AJUNOK_clean_linker_0, # of connection points: 2
#     Edge 38, Type (0, 0), BuildingBlock: AJUNOK_clean_linker_0, # of connection points: 2
#     Edge 39, Type (0, 0), BuildingBlock: AJUNOK_clean_linker_0, # of connection points: 2
#     Edge 40, Type (0, 0), BuildingBlock: AJUNOK_clean_linker_0, # of connection points: 2
#     Edge 41, Type (0, 0), BuildingBlock: AJUNOK_clean_linker_0, # of connection points: 2
#     Edge 42, Type (0, 0), BuildingBlock: AJUNOK_clean_linker_0, # of connection points: 2
#     Edge 43, Type (0, 0), BuildingBlock: AJUNOK_clean_linker_0, # of connection points: 2
#     Edge 44, Type (0, 0), BuildingBlock: AJUNOK_clean_linker_0, # of connection points: 2
#     Edge 45, Type (0, 0), BuildingBlock: AJUNOK_clean_linker_0, # of connection points: 2
#     Edge 46, Type (0, 0), BuildingBlock: AJUNOK_clean_linker_0, # of connection points: 2
#     Edge 47, Type (0, 0), BuildingBlock: AJUNOK_clean_linker_0, # of connection points: 2
# Relax obj value: 0.184
# Max RMSD: 0.299
# Mean RMSD: 0.280
data_MOF--net-lcy-e--node1-NUHQIS_clean_sbu_0--edge1-AJUNOK_clean_linker_0
_symmetry_space_group_name_H-M    P1
_symmetry_Int_Tables_number       1
_symmetry_cell_setting            triclinic
loop_
_symmetry_equiv_pos_as_xyz
'x, y, z'
_cell_length_a     34.147989
_cell_length_b     36.150462
_cell_length_c     34.214793
_cell_angle_alpha  89.988079
_cell_angle_beta   89.896803
_cell_angle_gamma 89.029726
loop_
_atom_site_label
_atom_site_type_symbol
_atom_site_fract_x
_atom_site_fract_y
_atom_site_fract_z
_atom_type_partial_charge
Tb0 Tb 0.14126 0.26305 0.54139 0.0
Eu1 Eu 0.11458 0.32377 0.47422 0.0
C2 C 0.1911 0.27137 0.46665 0.0
C3 C 0.17534 0.34532 0.53734 0.0
C4 C 0.14358 0.17676 0.60254 0.0
C5 C 0.15553 0.11459 0.62742 0.0
C6 C 0.16955 0.14863 0.61464 0.0
C7 C 0.10314 0.16996 0.60249 0.0
C8 C 0.08899 0.13578 0.6155 0.0
C9 C 0.11508 0.10779 0.62848 0.0
C10 C 0.15978 0.21228 0.58919 0.0
O11 O 0.08383 0.28335 0.55796 0.0
O12 O 0.08931 0.34171 0.53365 0.0
O13 O 0.06664 0.28318 0.47851 0.0
O14 O 0.1056 0.23434 0.49748 0.0
C15 C 0.07661 0.31884 0.56082 0.0
O16 O 0.10339 0.37983 0.45264 0.0
O17 O 0.09537 0.33318 0.41409 0.0
O18 O 0.15971 0.28366 0.44819 0.0
O19 O 0.19198 0.27073 0.50482 0.0
O20 O 0.1638 0.31777 0.56015 0.0
O21 O 0.1696 0.34472 0.4996 0.0
C22 C 0.07359 0.24761 0.48065 0.0
O23 O 0.17129 0.2131 0.5529 0.0
O24 O 0.14115 0.24271 0.5991 0.0
C25 C 0.12133 0.38697 0.38611 0.0
C26 C 0.16654 0.41926 0.32621 0.0
C27 C 0.18354 0.41024 0.36249 0.0
C28 C 0.16117 0.39417 0.39213 0.0
C29 C 0.10443 0.39544 0.3498 0.0
C30 C 0.12683 0.41137 0.32007 0.0
C31 C 0.09775 0.36904 0.41672 0.0
H32 H 0.17643 0.0936 0.63695 0.0
H33 H 0.20085 0.15309 0.61444 0.0
H34 H 0.08254 0.19117 0.59285 0.0
H35 H 0.05767 0.13171 0.61653 0.0
H36 H 0.21421 0.41543 0.36784 0.0
H37 H 0.17503 0.38725 0.41971 0.0
H38 H 0.07387 0.3897 0.34442 0.0
H39 H 0.11294 0.41811 0.29248 0.0
Tb40 Tb 1.00084 0.90945 0.72115 0.0
Eu41 Eu 0.06717 0.92954 0.7863 0.0
C42 C 0.07512 0.85927 0.72946 0.0
C43 C 1.00228 0.8735 0.80696 0.0
C44 C 0.93581 0.91358 0.63357 0.0
C45 C 0.90048 0.90985 0.57231 0.0
C46 C 0.91682 0.89267 0.60513 0.0
C47 C 0.93909 0.95197 0.6284 0.0
C48 C 0.92273 0.96927 0.5954 0.0
C49 C 0.90291 0.94835 0.56721 0.0
C50 C 0.9525 0.89459 0.66788 0.0
O51 O 0.98396 0.96319 0.74299 0.0
O52 O 1.00807 0.95558 0.80462 0.0
O53 O 0.06339 0.97792 0.74632 0.0
O54 O 0.04277 0.94668 0.69229 0.0
C55 C 0.98153 0.96958 0.78046 0.0
O56 O 0.08857 0.93319 0.84644 0.0
O57 O 0.1253 0.95053 0.79828 0.0
O58 O 0.09409 0.88752 0.74396 0.0
O59 O 0.03688 0.86022 0.72755 0.0
O60 O 0.98045 0.88728 0.77823 0.0
O61 O 0.04013 0.87792 0.80765 0.0
C62 C 0.05935 0.97568 0.70844 0.0
O63 O 0.98985 0.88675 0.66591 0.0
O64 O 0.94243 0.90753 0.70213 0.0
C65 C 0.15668 0.92121 0.85175 0.0
C66 C 0.21888 0.87901 0.88417 0.0
C67 C 0.19887 0.9059 0.90665 0.0
C68 C 0.16806 0.92678 0.89058 0.0
C69 C 0.17687 0.89459 0.82904 0.0
C70 C 0.2079 0.87383 0.84505 0.0
C71 C 0.12356 0.94295 0.83554 0.0
H72 H 0.88552 0.89304 0.551 0.0
H73 H 0.91434 0.86299 0.60847 0.0
H74 H 0.95383 0.96854 0.65008 0.0
H75 H 0.92454 0.99903 0.59252 0.0
H76 H 0.20715 0.91081 0.93674 0.0
H77 H 0.15297 0.9472 0.90855 0.0
H78 H 0.1685 0.88972 0.79901 0.0
H79 H 0.22279 0.85324 0.82715 0.0
Tb80 Tb 0.395 0.81283 0.03961 0.0
Eu81 Eu 0.42092 0.74946 0.97623 0.0
C82 C 0.34777 0.80458 0.96375 0.0
C83 C 0.35565 0.73273 0.03613 0.0
C84 C 0.39664 0.89998 0.09935 0.0
C85 C 0.42293 0.96157 0.08827 0.0
C86 C 0.40882 0.92808 0.07368 0.0
C87 C 0.40036 0.90557 0.13972 0.0
C88 C 0.41463 0.93889 0.15425 0.0
C89 C 0.42503 0.96769 0.12875 0.0
C90 C 0.37778 0.86593 0.08489 0.0
O91 O 0.44977 0.79022 0.06098 0.0
O92 O 0.44282 0.73177 0.03715 0.0
O93 O 0.47168 0.78606 0.9841 0.0
O94 O 0.4349 0.83765 0.99627 0.0
C95 C 0.45532 0.75453 0.06454 0.0
O96 O 0.42802 0.69258 0.95547 0.0
O97 O 0.44492 0.73807 0.91827 0.0
O98 O 0.37974 0.79134 0.94697 0.0
O99 O 0.34525 0.80648 1.00179 0.0
O100 O 0.36849 0.75983 0.05875 0.0
O101 O 0.36333 0.73198 0.99878 0.0
C102 C 0.46763 0.82195 0.98335 0.0
O103 O 0.36873 0.86501 0.0479 0.0
O104 O 0.39207 0.83423 0.09697 0.0
C105 C 0.4163 0.68682 0.88785 0.0
C106 C 0.37353 0.65545 0.82591 0.0
C107 C 0.41258 0.64434 0.83311 0.0
C108 C 0.43376 0.65993 0.86376 0.0
C109 C 0.37747 0.69837 0.88061 0.0
C110 C 0.35625 0.68282 0.84987 0.0
C111 C 0.43861 0.70263 0.92044 0.0
H112 H 0.4309 0.98314 0.06792 0.0
H113 H 0.40658 0.92461 0.04232 0.0
H114 H 0.39142 0.88439 0.16014 0.0
H115 H 0.4169 0.94238 0.1856 0.0
H116 H 0.42668 0.62337 0.81509 0.0
H117 H 0.4637 0.65077 0.86882 0.0
H118 H 0.36349 0.71911 0.89903 0.0
H119 H 0.32604 0.69145 0.84552 0.0
Tb120 Tb 0.537 0.16863 0.2147 0.0
Eu121 Eu 0.47043 0.14924 0.28098 0.0
C122 C 0.46124 0.21672 0.22078 0.0
C123 C 0.53472 0.20606 0.29914 0.0
C124 C 0.60401 0.16325 0.12887 0.0
C125 C 0.65754 0.15673 0.08256 0.0
C126 C 0.63947 0.17562 0.11349 0.0
C127 C 0.58656 0.13181 0.11269 0.0
C128 C 0.60454 0.11299 0.08149 0.0
C129 C 0.64042 0.1251 0.06646 0.0
C130 C 0.58565 0.18357 0.16154 0.0
O131 O 0.55454 0.11535 0.23677 0.0
O132 O 0.52894 0.1217 0.29821 0.0
O133 O 0.47289 0.10082 0.2411 0.0
O134 O 0.49582 0.13043 0.18657 0.0
C135 C 0.5565 0.10891 0.27427 0.0
O136 O 0.45107 0.14626 0.34188 0.0
O137 O 0.4122 0.12963 0.29527 0.0
O138 O 0.44274 0.18896 0.23695 0.0
O139 O 0.4995 0.21694 0.21965 0.0
O140 O 0.55688 0.1901 0.27199 0.0
O141 O 0.49676 0.20258 0.2988 0.0
C142 C 0.4775 0.10263 0.20323 0.0
O143 O 0.54802 0.18971 0.15876 0.0
O144 O 0.59566 0.1729 0.19657 0.0
C145 C 0.38328 0.15803 0.35053 0.0
C146 C 0.3213 0.19849 0.38577 0.0
C147 C 0.33676 0.16639 0.40364 0.0
C148 C 0.36746 0.14634 0.38615 0.0
C149 C 0.36782 0.18997 0.33243 0.0
C150 C 0.33684 0.20992 0.34978 0.0
C151 C 0.41563 0.13658 0.33252 0.0
H152 H 0.68496 0.16688 0.07114 0.0
H153 H 0.65325 0.1999 0.12547 0.0
H154 H 0.55915 0.1218 0.12425 0.0
H155 H 0.59087 0.08863 0.0696 0.0
H156 H 0.32495 0.15673 0.43115 0.0
H157 H 0.37889 0.12171 0.40047 0.0
H158 H 0.37983 0.19947 0.30499 0.0
H159 H 0.32553 0.23461 0.33549 0.0
Tb160 Tb 0.64855 0.31548 0.47246 0.0
Eu161 Eu 0.62093 0.25669 0.53873 0.0
C162 C 0.69366 0.31043 0.55019 0.0
C163 C 0.68605 0.23395 0.47979 0.0
C164 C 0.64713 0.40089 0.41115 0.0
C165 C 0.65039 0.46695 0.39727 0.0
C166 C 0.66817 0.43393 0.41016 0.0
C167 C 0.6076 0.40162 0.39965 0.0
C168 C 0.58989 0.43461 0.38649 0.0
C169 C 0.61121 0.46758 0.38478 0.0
C170 C 0.66666 0.36654 0.42549 0.0
O171 O 0.59344 0.29487 0.45175 0.0
O172 O 0.59777 0.23753 0.4795 0.0
O173 O 0.57045 0.2951 0.52884 0.0
O174 O 0.60853 0.34407 0.51382 0.0
C175 C 0.58617 0.25945 0.45066 0.0
O176 O 0.61472 0.20094 0.56207 0.0
O177 O 0.59457 0.24829 0.59606 0.0
O178 O 0.6617 0.29808 0.56689 0.0
O179 O 0.69735 0.30966 0.51213 0.0
O180 O 0.67302 0.26006 0.45551 0.0
O181 O 0.67878 0.23644 0.51719 0.0
C182 C 0.5752 0.33075 0.5267 0.0
O183 O 0.67569 0.36637 0.46244 0.0
O184 O 0.65236 0.33492 0.41454 0.0
C185 C 0.62206 0.19819 0.63079 0.0
C186 C 0.65947 0.16838 0.69736 0.0
C187 C 0.61843 0.17229 0.69607 0.0
C188 C 0.59991 0.18693 0.663 0.0
C189 C 0.66316 0.19608 0.63263 0.0
C190 C 0.68174 0.18123 0.66571 0.0
C191 C 0.6019 0.21276 0.59593 0.0
H192 H 0.66759 0.49184 0.39614 0.0
H193 H 0.69855 0.43416 0.41925 0.0
H194 H 0.59041 0.37673 0.40075 0.0
H195 H 0.55948 0.43436 0.37756 0.0
H196 H 0.60061 0.16322 0.72036 0.0
H197 H 0.56823 0.18901 0.66237 0.0
H198 H 0.6808 0.20528 0.60824 0.0
H199 H 0.71338 0.17852 0.66597 0.0
Tb200 Tb 0.96989 0.42276 0.7379 0.0
Eu201 Eu 0.03704 0.40303 0.80345 0.0
C202 C 0.97335 0.46892 0.81484 0.0
C203 C 0.0524 0.46302 0.74248 0.0
C204 C 0.88488 0.41626 0.66972 0.0
C205 C 0.82709 0.41728 0.62851 0.0
C206 C 0.85854 0.4355 0.64553 0.0
C207 C 0.87919 0.37849 0.67709 0.0
C208 C 0.8476 0.36016 0.66003 0.0
C209 C 0.82127 0.37941 0.63543 0.0
C210 C 0.91737 0.43641 0.68766 0.0
O211 O 0.99398 0.36931 0.72256 0.0
O212 O 0.05597 0.37916 0.74374 0.0
O213 O 0.99784 0.35457 0.80178 0.0
O214 O 0.94239 0.38429 0.7795 0.0
C215 C 0.0317 0.36441 0.71822 0.0
O216 O 0.09781 0.40241 0.82339 0.0
O217 O 0.05225 0.38057 0.86065 0.0
O218 O 0.99203 0.44139 0.83234 0.0
O219 O 0.96997 0.4699 0.7767 0.0
O220 O 0.02641 0.44717 0.71945 0.0
O221 O 0.0498 0.45878 0.78018 0.0
C222 C 0.95977 0.35648 0.79803 0.0
O223 O 0.91365 0.44343 0.72484 0.0
O224 O 0.95278 0.42507 0.6789 0.0
C225 C 0.10443 0.41011 0.89186 0.0
C226 C 0.13523 0.44764 0.95703 0.0
C227 C 0.14309 0.40968 0.95127 0.0
C228 C 0.12782 0.39113 0.91905 0.0
C229 C 0.09558 0.44782 0.89783 0.0
C230 C 0.1109 0.46648 0.93021 0.0
C231 C 0.08888 0.38991 0.85806 0.0
H232 H 0.80723 0.43288 0.60986 0.0
H233 H 0.8623 0.4647 0.63976 0.0
H234 H 0.89924 0.36321 0.69585 0.0
H235 H 0.84425 0.33086 0.66538 0.0
H236 H 0.16159 0.39441 0.97153 0.0
H237 H 0.13458 0.36197 0.91517 0.0
H238 H 0.0773 0.46286 0.8772 0.0
H239 H 0.10478 0.4958 0.93356 0.0
Tb240 Tb 0.91154 0.81951 0.04242 0.0
Eu241 Eu 0.88204 0.75811 0.97936 0.0
C242 C 0.9561 0.74548 0.03563 0.0
C243 C 0.946 0.81453 0.95512 0.0
C244 C 0.9069 0.88032 0.12937 0.0
C245 C 0.90064 0.89382 0.19888 0.0
C246 C 0.92178 0.87844 0.16756 0.0
C247 C 0.87019 0.89751 0.12309 0.0
C248 C 0.84923 0.91316 0.15433 0.0
C249 C 0.86422 0.91151 0.19256 0.0
C250 C 0.92939 0.86325 0.09681 0.0
O251 O 0.8577 0.8422 0.01939 0.0
O252 O 0.85965 0.8151 0.95902 0.0
O253 O 0.83154 0.77045 0.01878 0.0
O254 O 0.8702 0.78185 0.07118 0.0
C255 C 0.85057 0.84356 0.98186 0.0
O256 O 0.87634 0.73433 0.92097 0.0
O257 O 0.85258 0.70564 0.97109 0.0
O258 O 0.92363 0.73052 0.02297 0.0
O259 O 0.96003 0.78136 0.03472 0.0
O260 O 0.936 0.83607 0.98504 0.0
O261 O 0.93783 0.77928 0.9551 0.0
C262 C 0.83613 0.77253 0.05652 0.0
O263 O 0.93439 0.82748 0.09879 0.0
O264 O 0.92051 0.87399 0.06144 0.0
C265 C 0.87783 0.66867 0.92 0.0
C266 C 0.9094 0.60045 0.89312 0.0
C267 C 0.8689 0.60812 0.89093 0.0
C268 C 0.85333 0.64186 0.90422 0.0
C269 C 0.91818 0.66098 0.92316 0.0
C270 C 0.93387 0.62718 0.90968 0.0
C271 C 0.86059 0.70398 0.93385 0.0
H272 H 0.91323 0.89271 0.22791 0.0
H273 H 0.9499 0.86516 0.17315 0.0
H274 H 0.85767 0.89897 0.09406 0.0
H275 H 0.82124 0.92663 0.14863 0.0
H276 H 0.84923 0.58805 0.87859 0.0
H277 H 0.82207 0.6471 0.90198 0.0
H278 H 0.93755 0.68126 0.93563 0.0
H279 H 0.96523 0.62246 0.9112 0.0
Tb280 Tb 0.56022 0.65652 0.24136 0.0
Eu281 Eu 0.49492 0.67606 0.30909 0.0
C282 C 0.55292 0.60499 0.31415 0.0
C283 C 0.47521 0.61946 0.24483 0.0
C284 C 0.64532 0.66675 0.1744 0.0
C285 C 0.71102 0.66854 0.14692 0.0
C286 C 0.67983 0.64852 0.16229 0.0
C287 C 0.64272 0.70551 0.17165 0.0
C288 C 0.67384 0.72555 0.15601 0.0
C289 C 0.70818 0.70721 0.14313 0.0
C290 C 0.61293 0.64499 0.19069 0.0
O291 O 0.53634 0.71055 0.22807 0.0
O292 O 0.47486 0.70079 0.2504 0.0
O293 O 0.53508 0.72378 0.30722 0.0
O294 O 0.58919 0.69213 0.2849 0.0
C295 C 0.49859 0.71502 0.22404 0.0
O296 O 0.43436 0.68099 0.32981 0.0
O297 O 0.48232 0.69517 0.36818 0.0
O298 O 0.5377 0.63294 0.33412 0.0
O299 O 0.55676 0.60676 0.27611 0.0
O300 O 0.50307 0.63339 0.2223 0.0
O301 O 0.4767 0.62317 0.28272 0.0
C302 C 0.57305 0.72055 0.30357 0.0
O303 O 0.6164 0.63586 0.22739 0.0
O304 O 0.57735 0.65615 0.18232 0.0
C305 C 0.42698 0.66783 0.39717 0.0
C306 C 0.39166 0.62714 0.45777 0.0
C307 C 0.37114 0.65625 0.4392 0.0
C308 C 0.38866 0.67639 0.40919 0.0
C309 C 0.4477 0.63884 0.41577 0.0
C310 C 0.43025 0.61882 0.44605 0.0
C311 C 0.44481 0.68938 0.36536 0.0
H312 H 0.73704 0.6537 0.13706 0.0
H313 H 0.68256 0.61869 0.16451 0.0
H314 H 0.61661 0.72026 0.18143 0.0
H315 H 0.67106 0.75537 0.15387 0.0
H316 H 0.34153 0.66355 0.44806 0.0
H317 H 0.37224 0.69869 0.39534 0.0
H318 H 0.47731 0.63161 0.40683 0.0
H319 H 0.44662 0.59647 0.45984 0.0
Tb320 Tb 0.23684 0.57032 0.15526 0.0
Eu321 Eu 0.30017 0.5081 0.12568 0.0
C322 C 0.24582 0.498 0.201 0.0
C323 C 0.3253 0.56656 0.1875 0.0
C324 C 0.14874 0.63128 0.15058 0.0
C325 C 0.07926 0.63368 0.13388 0.0
C326 C 0.11051 0.61788 0.1549 0.0
C327 C 0.15503 0.6607 0.12453 0.0
C328 C 0.12381 0.67653 0.10367 0.0
C329 C 0.08555 0.66336 0.10825 0.0
C330 C 0.18163 0.61441 0.17313 0.0
O331 O 0.25833 0.59222 0.10106 0.0
O332 O 0.31884 0.56396 0.10082 0.0
O333 O 0.26052 0.51955 0.07587 0.0
O334 O 0.20798 0.53168 0.1146 0.0
C335 C 0.29557 0.59245 0.09214 0.0
O336 O 0.35876 0.48365 0.11862 0.0
O337 O 0.30812 0.45458 0.09725 0.0
O338 O 0.25677 0.48232 0.16798 0.0
O339 O 0.24633 0.53396 0.20446 0.0
O340 O 0.2946 0.58776 0.17817 0.0
O341 O 0.32654 0.53122 0.17944 0.0
C342 C 0.22274 0.52018 0.081 0.0
O343 O 0.18037 0.57872 0.17851 0.0
O344 O 0.21697 0.62497 0.16446 0.0
C345 C 0.35977 0.41773 0.12402 0.0
C346 C 0.38779 0.3512 0.15854 0.0
C347 C 0.40896 0.38408 0.16198 0.0
C348 C 0.39518 0.41692 0.14489 0.0
C349 C 0.33848 0.38483 0.12073 0.0
C350 C 0.3523 0.35195 0.13787 0.0
C351 C 0.34546 0.45243 0.1052 0.0
H352 H 0.05002 0.62341 0.13858 0.0
H353 H 0.10468 0.59536 0.17486 0.0
H354 H 0.18402 0.67175 0.12035 0.0
H355 H 0.12953 0.69939 0.08411 0.0
H356 H 0.43645 0.38432 0.17773 0.0
H357 H 0.41246 0.44162 0.14782 0.0
H358 H 0.3113 0.38433 0.10449 0.0
H359 H 0.33578 0.32691 0.13398 0.0
Tb360 Tb 0.79979 0.06949 0.88699 0.0
Eu361 Eu 0.73653 1.00714 0.8604 0.0
C362 C 0.72515 0.05837 0.93608 0.0
C363 C 0.79938 0.98722 0.92248 0.0
C364 C 0.85713 0.15706 0.88815 0.0
C365 C 0.87117 0.22217 0.89764 0.0
C366 C 0.85879 0.18826 0.91239 0.0
C367 C 0.86691 0.16064 0.84837 0.0
C368 C 0.87954 0.19468 0.83359 0.0
C369 C 0.88258 0.2256 0.85831 0.0
C370 C 0.84475 0.12154 0.9053 0.0
O371 O 0.81877 0.05025 0.83032 0.0
O372 O 0.79699 0.99127 0.83581 0.0
O373 O 0.74103 0.04734 0.81179 0.0
O374 O 0.75449 0.09677 0.85046 0.0
C375 C 0.82331 1.01491 0.82335 0.0
O376 O 0.71777 0.95061 0.8497 0.0
O377 O 0.67745 0.99653 0.83939 0.0
O378 O 0.70769 0.0462 0.90447 0.0
O379 O 0.7633 0.0603 0.93738 0.0
O380 O 0.82104 1.0151 0.91011 0.0
O381 O 0.76174 0.98653 0.91601 0.0
C382 C 0.7394 0.08286 0.81829 0.0
O383 O 0.8081 0.12006 0.9157 0.0
O384 O 0.8567 0.09097 0.88842 0.0
C385 C 0.6505 0.94218 0.8656 0.0
C386 C 0.59053 0.90734 0.90821 0.0
C387 C 0.62986 0.90353 0.91983 0.0
C388 C 0.65956 0.9208 0.89881 0.0
C389 C 0.6111 0.94673 0.85454 0.0
C390 C 0.58133 0.92959 0.87575 0.0
C391 C 0.68148 0.96075 0.84297 0.0
H392 H 0.87245 0.24567 0.91721 0.0
H393 H 0.85085 0.1863 0.94299 0.0
H394 H 0.86533 0.1371 0.82889 0.0
H395 H 0.88814 0.19652 0.80317 0.0
H396 H 0.63766 0.88681 0.94502 0.0
H397 H 0.68957 0.91722 0.90849 0.0
H398 H 0.60336 0.96337 0.82927 0.0
H399 H 0.55126 0.93282 0.86613 0.0
Tb400 Tb 0.7365 1.00475 0.39497 0.0
Eu401 Eu 0.79769 0.06839 0.36634 0.0
C402 C 0.81414 1.01437 0.43873 0.0
C403 C 0.73691 0.08635 0.43107 0.0
C404 C 0.68166 0.91561 0.39788 0.0
C405 C 0.66576 0.85069 0.40618 0.0
C406 C 0.67911 0.88406 0.42152 0.0
C407 C 0.67183 0.91289 0.35807 0.0
C408 C 0.65828 0.87941 0.34268 0.0
C409 C 0.65432 0.84813 0.3668 0.0
C410 C 0.69499 0.95062 0.41554 0.0
O411 O 0.71195 1.02493 0.34107 0.0
O412 O 0.73676 0.08359 0.34232 0.0
O413 O 0.79114 0.02997 0.3161 0.0
O414 O 0.77874 0.97943 0.3536 0.0
C415 C 0.70889 0.0602 0.33279 0.0
O416 O 0.81577 0.12601 0.36129 0.0
O417 O 0.85373 0.0817 0.33983 0.0
O418 O 0.82963 0.02788 0.40663 0.0
O419 O 0.77611 1.01352 0.4429 0.0
O420 O 0.71489 0.059 0.41829 0.0
O421 O 0.77446 0.08641 0.42409 0.0
C422 C 0.79078 0.99409 0.32048 0.0
O423 O 0.73244 0.9527 0.42202 0.0
O424 O 0.68072 0.98156 0.40154 0.0
C425 C 0.88431 0.13345 0.36896 0.0
C426 C 0.94915 0.16654 0.40567 0.0
C427 C 0.91933 0.18841 0.38849 0.0
C428 C 0.88744 0.17204 0.37014 0.0
C429 C 0.91341 0.11147 0.38724 0.0
C430 C 0.9455 0.12788 0.40545 0.0
C431 C 0.85068 0.11681 0.34854 0.0
H432 H 0.66383 0.82693 0.42534 0.0
H433 H 0.6871 0.88532 0.45213 0.0
H434 H 0.67409 0.93672 0.33904 0.0
H435 H 0.6497 0.87831 0.31225 0.0
H436 H 0.92066 0.21831 0.38918 0.0
H437 H 0.86522 0.18958 0.3567 0.0
H438 H 0.91163 0.08159 0.38716 0.0
H439 H 0.96785 0.11032 0.41862 0.0
Tb440 Tb 0.23283 0.56597 0.63279 0.0
Eu441 Eu 0.29673 0.50213 0.65812 0.0
C442 C 0.30854 0.55621 0.58501 0.0
C443 C 0.23643 0.48521 0.59336 0.0
C444 C 0.17517 0.65493 0.63746 0.0
C445 C 0.17924 0.72189 0.6458 0.0
C446 C 0.19239 0.68896 0.62818 0.0
C447 C 0.14471 0.65462 0.66516 0.0
C448 C 0.13149 0.68757 0.68268 0.0
C449 C 0.14837 0.72164 0.67299 0.0
C450 C 0.18827 0.62053 0.61703 0.0
O451 O 0.21025 0.54293 0.68642 0.0
O452 O 0.23611 0.48447 0.67963 0.0
O453 O 0.28874 0.53928 0.70933 0.0
O454 O 0.27638 0.59028 0.67238 0.0
C455 C 0.20794 0.50721 0.6919 0.0
O456 O 0.31787 0.44514 0.66469 0.0
O457 O 0.35531 0.49043 0.68102 0.0
O458 O 0.32542 0.54322 0.61684 0.0
O459 O 0.27041 0.55845 0.5827 0.0
O460 O 0.21393 0.51337 0.60534 0.0
O461 O 0.27387 0.48402 0.60089 0.0
C462 C 0.2892 0.57513 0.70509 0.0
O463 O 0.22522 0.61847 0.60753 0.0
O464 O 0.17574 0.58892 0.63017 0.0
C465 C 0.38573 0.43936 0.65007 0.0
C466 C 0.44884 0.41179 0.60442 0.0
C467 C 0.41136 0.41649 0.58801 0.0
C468 C 0.38017 0.43039 0.61051 0.0
C469 C 0.42317 0.43496 0.66644 0.0
C470 C 0.45447 0.42131 0.64384 0.0
C471 C 0.35332 0.45507 0.67383 0.0
H472 H 0.19228 0.74771 0.63704 0.0
H473 H 0.21564 0.69026 0.60666 0.0
H474 H 0.13064 0.62902 0.67296 0.0
H475 H 0.10762 0.68649 0.70352 0.0
H476 H 0.40619 0.40935 0.55773 0.0
H477 H 0.35173 0.4341 0.59696 0.0
H478 H 0.42818 0.44202 0.69678 0.0
H479 H 0.48284 0.41733 0.65745 0.0
C480 C 0.21962 0.382 0.58076 0.0
C481 C 0.18888 0.38087 0.5538 0.0
C482 C 0.2348 0.41604 0.59291 0.0
C483 C 0.21929 0.45021 0.57919 0.0
H484 H 0.23278 0.35653 0.59158 0.0
H485 H 0.25885 0.41555 0.61351 0.0
S486 S 0.13642 0.46214 0.51073 0.0
N487 N 0.14197 0.41687 0.5153 0.0
N488 N 0.17029 0.48051 0.53874 0.0
C489 C 0.18773 0.4494 0.5533 0.0
C490 C 0.17262 0.41482 0.54048 0.0
C491 C 0.88225 0.97307 0.83022 0.0
C492 C 0.86279 1.00221 0.81047 0.0
C493 C 0.92189 0.96436 0.82257 0.0
C494 C 0.94331 0.98422 0.79459 0.0
H495 H 0.86707 0.95743 0.85238 0.0
H496 H 0.93535 0.94106 0.83759 0.0
S497 S 0.90605 0.0629 0.73502 0.0
N498 N 0.8683 0.05129 0.76239 0.0
N499 N 0.94208 0.03405 0.74702 0.0
C500 C 0.92415 1.01332 0.77472 0.0
C501 C 0.88415 1.02256 0.78294 0.0
C502 C 0.30592 0.69582 0.07294 0.0
C503 C 0.34156 0.6976 0.05284 0.0
C504 C 0.29105 0.66151 0.08476 0.0
C505 C 0.31161 0.62783 0.07745 0.0
H506 H 0.28901 0.72086 0.07867 0.0
H507 H 0.2633 0.66153 0.10014 0.0
S508 S 0.40764 0.61833 0.02775 0.0
N509 N 0.39766 0.66316 0.02702 0.0
N510 N 0.37028 0.59914 0.05018 0.0
C511 C 0.34775 0.62955 0.05822 0.0
C512 C 0.36247 0.66429 0.04557 0.0
C513 C 0.62968 0.10551 0.27041 0.0
C514 C 0.59475 0.09528 0.28959 0.0
C515 C 0.66675 0.09525 0.28499 0.0
C516 C 0.67021 0.07366 0.3188 0.0
H517 H 0.62851 0.12217 0.24415 0.0
H518 H 0.69273 0.10357 0.26928 0.0
S519 S 0.58837 0.04033 0.38053 0.0
N520 N 0.5664 0.06315 0.34471 0.0
N521 N 0.63581 0.04324 0.37186 0.0
C522 C 0.63562 0.06337 0.33835 0.0
C523 C 0.59796 0.0743 0.32383 0.0
C524 C 0.68901 0.182 0.43032 0.0
C525 C 0.7017 0.19742 0.46584 0.0
C526 C 0.6978 0.14478 0.42054 0.0
C527 C 0.72001 0.12178 0.44569 0.0
H528 H 0.67146 0.19849 0.41032 0.0
H529 H 0.68828 0.13432 0.39251 0.0
S530 S 0.76313 0.14926 0.54037 0.0
N531 N 0.73925 0.18671 0.52532 0.0
N532 N 0.75654 0.11775 0.50619 0.0
C533 C 0.73379 0.13716 0.48057 0.0
C534 C 0.72448 0.17464 0.49081 0.0
C535 C 0.11696 0.49355 0.75353 0.0
C536 C 0.0905 0.47692 0.72735 0.0
C537 C 0.15541 0.502 0.74235 0.0
C538 C 0.16949 0.49325 0.7049 0.0
H539 H 0.10808 0.49989 0.78323 0.0
H540 H 0.17427 0.51552 0.76318 0.0
S541 S 0.11158 0.45375 0.62378 0.0
N542 N 0.08063 0.45545 0.66087 0.0
N543 N 0.15325 0.46986 0.64058 0.0
C544 C 0.14331 0.4775 0.67814 0.0
C545 C 0.10377 0.46976 0.68915 0.0
C546 C 0.83306 0.94784 0.97292 0.0
C547 C 0.8172 0.95175 0.93543 0.0
C548 C 0.84323 0.91265 0.98764 0.0
C549 C 0.83814 0.88005 0.96534 0.0
H550 H 0.83631 0.97188 0.99146 0.0
H551 H 0.85522 0.91113 0.01689 0.0
S552 S 0.79857 0.87613 0.86471 0.0
N553 N 0.79715 0.92053 0.87602 0.0
N554 N 0.81719 0.85474 0.90324 0.0
C555 C 0.8232 0.88392 0.9274 0.0
C556 C 0.81243 0.91965 0.91264 0.0
C557 C 0.40277 0.61031 0.25121 0.0
C558 C 0.43737 0.60634 0.22852 0.0
C559 C 0.36611 0.59911 0.23729 0.0
C560 C 0.36264 0.58293 0.20036 0.0
H561 H 0.4038 0.62243 0.28013 0.0
H562 H 0.34062 0.60211 0.256 0.0
S563 S 0.44295 0.56762 0.12846 0.0
N564 N 0.4648 0.58661 0.16634 0.0
N565 N 0.3963 0.56435 0.14064 0.0
C566 C 0.39667 0.57917 0.17711 0.0
C567 C 0.4339 0.59122 0.191 0.0
C568 C 0.54365 0.25643 0.34792 0.0
C569 C 0.55173 0.21999 0.3359 0.0
C570 C 0.55383 0.26858 0.3855 0.0
C571 C 0.5712 0.24437 0.41313 0.0
H572 H 0.52911 0.27564 0.32818 0.0
H573 H 0.54791 0.29726 0.39294 0.0
S574 S 0.59447 0.14493 0.39711 0.0
N575 N 0.57645 0.15931 0.35492 0.0
N576 N 0.59365 0.1814 0.42612 0.0
C577 C 0.5781 0.20745 0.40179 0.0
C578 C 0.5689 0.19547 0.36307 0.0
C579 C 0.08737 0.35568 0.62183 0.0
C580 C 0.0633 0.33243 0.5996 0.0
C581 C 0.07872 0.36384 0.66127 0.0
C582 C 0.0452 0.34973 0.67966 0.0
H583 H 0.11369 0.36679 0.60897 0.0
H584 H 0.09784 0.38209 0.67712 0.0
S585 S 0.97419 0.28566 0.6347 0.0
N586 N 1.00619 0.29355 0.59955 0.0
N587 N 0.98883 0.30995 0.67268 0.0
C588 C 0.02136 0.32593 0.65775 0.0
C589 C 0.03066 0.31706 0.61803 0.0
C590 C 0.96758 0.82531 0.84609 0.0
C591 C 0.98447 0.86026 0.84377 0.0
C592 C 0.95601 0.81068 0.88235 0.0
C593 C 0.96055 0.83057 0.9177 0.0
H594 H 0.96433 0.80875 0.81994 0.0
H595 H 0.94314 0.7835 0.88249 0.0
S596 S 1.00251 0.92409 0.92656 0.0
N597 N 1.00508 0.91467 0.8794 0.0
N598 N 0.98235 0.88774 0.94718 0.0
C599 C 0.97671 0.86596 0.9154 0.0
C600 C 0.98897 0.88058 0.87858 0.0
C601 C 0.50774 0.75083 0.16219 0.0
C602 C 0.48463 0.72682 0.18468 0.0
C603 C 0.49905 0.75837 0.12281 0.0
C604 C 0.46781 0.74115 0.10373 0.0
H605 H 0.53292 0.7639 0.17514 0.0
H606 H 0.51689 0.77799 0.10716 0.0
S607 S 0.39775 0.67656 0.14918 0.0
N608 N 0.42829 0.6866 0.18486 0.0
N609 N 0.41303 0.69977 0.11065 0.0
C610 C 0.4446 0.71696 0.12571 0.0
C611 C 0.45269 0.7101 0.1662 0.0
C612 C 0.19009 0.42423 0.25661 0.0
C613 C 0.18968 0.43791 0.29518 0.0
C614 C 0.20995 0.44276 0.22651 0.0
C615 C 0.22952 0.47601 0.23377 0.0
H616 H 0.17462 0.39918 0.24958 0.0
H617 H 0.20867 0.43169 0.19713 0.0
S618 S 0.23851 0.52262 0.33004 0.0
N619 N 0.21166 0.48605 0.33912 0.0
N620 N 0.24876 0.52083 0.2829 0.0
C621 C 0.23013 0.48941 0.27244 0.0
C622 C 0.2103 0.47038 0.30304 0.0
C623 C 0.84239 0.95775 0.52775 0.0
C624 C 0.8818 0.9664 0.53415 0.0
C625 C 0.82125 0.9735 0.49687 0.0
C626 C 0.83856 0.99849 0.47067 0.0
H627 H 0.82756 0.93876 0.54705 0.0
H628 H 0.79097 0.96564 0.49343 0.0
S629 S 0.9411 0.0306 0.47468 0.0
N630 N 0.93757 1.00176 0.51196 0.0
N631 N 0.89765 0.03145 0.45346 0.0
C632 C 0.87804 1.00749 0.47661 0.0
C633 C 0.89963 0.99156 0.50853 0.0
C634 C 0.33026 0.57849 0.76528 0.0
C635 C 0.3087 0.59722 0.736 0.0
C636 C 0.35074 0.59765 0.79402 0.0
C637 C 0.35048 0.63647 0.79515 0.0
H638 H 0.33198 0.54855 0.76589 0.0
H639 H 0.36689 0.58179 0.81572 0.0
S640 S 0.29782 0.69916 0.72637 0.0
N641 N 0.28769 0.6572 0.7106 0.0
N642 N 0.32632 0.69331 0.76494 0.0
C643 C 0.32853 0.65579 0.76665 0.0
C644 C 0.30772 0.63617 0.73699 0.0
C645 C 0.64211 0.09815 0.99866 0.0
C646 C 0.66079 0.10457 0.03461 0.0
C647 C 0.66257 0.08186 0.96714 0.0
C648 C 0.70233 0.07138 0.97063 0.0
H649 H 0.61194 0.10699 0.99445 0.0
H650 H 0.64752 0.07868 0.93954 0.0
S651 S 0.76247 0.07732 0.0609 0.0
N652 N 0.71969 0.09577 0.07326 0.0
N653 N 0.75812 0.06506 1.01467 0.0
C654 C 0.72052 0.07588 1.00728 0.0
C655 C 0.69977 0.09251 0.03909 0.0
C656 C 0.71027 0.16254 0.75069 0.0
C657 C 0.67853 0.14773 0.72992 0.0
C658 C 0.72919 0.14218 0.78053 0.0
C659 C 0.71743 0.10613 0.78986 0.0
H660 H 0.72056 0.18995 0.74371 0.0
H661 H 0.75386 0.15422 0.79545 0.0
S662 S 0.63552 0.0552 0.74447 0.0
N663 N 0.63611 0.09513 0.72116 0.0
N664 N 0.67114 0.05716 0.77685 0.0
C665 C 0.68536 0.09141 0.76962 0.0
C666 C 0.66606 0.11211 0.73973 0.0
C667 C 0.21724 0.47999 0.02227 0.0
C668 C 0.19846 0.50314 0.04995 0.0
C669 C 0.1964 0.46263 0.99261 0.0
C670 C 0.15574 0.46763 0.98886 0.0
H671 H 0.24852 0.47468 0.0236 0.0
H672 H 0.21248 0.44516 0.97219 0.0
S673 S 0.0922 0.52615 0.05269 0.0
N674 N 0.13654 0.5307 0.0712 0.0
N675 N 0.09714 0.49794 1.01491 0.0
C676 C 0.13635 0.49109 0.01582 0.0
C677 C 0.15771 0.50871 0.04655 0.0
C678 C 0.81413 0.98758 0.25149 0.0
C679 C 0.80677 0.97087 0.28798 0.0
C680 C 0.83182 0.96789 0.22078 0.0
C681 C 0.84321 0.93062 0.22514 0.0
H682 H 0.80667 1.01644 0.24654 0.0
H683 H 0.83757 0.98232 0.19366 0.0
S684 S 0.82812 0.87271 0.31325 0.0
N685 N 0.81046 0.91387 0.32576 0.0
N686 N 0.84394 0.87689 0.26782 0.0
C687 C 0.83519 0.9131 0.26095 0.0
C688 C 0.81682 0.93315 0.29233 0.0
C689 C 0.36957 0.58407 0.55695 0.0
C690 C 0.33181 0.56994 0.55146 0.0
C691 C 0.38951 0.60153 0.52618 0.0
C692 C 0.37232 0.60541 0.48897 0.0
H693 H 0.38313 0.58301 0.58554 0.0
H694 H 0.4179 0.6133 0.53191 0.0
S695 S 0.27706 0.5678 0.4577 0.0
N696 N 0.28017 0.55723 0.50455 0.0
N697 N 0.31761 0.58996 0.44721 0.0
C698 C 0.33567 0.58954 0.4826 0.0
C699 C 0.31545 0.57181 0.5137 0.0
C700 C 0.22263 0.2459 0.4054 0.0
C701 C 0.22573 0.25648 0.4449 0.0
C702 C 0.25404 0.22811 0.38592 0.0
C703 C 0.28953 0.22017 0.40531 0.0
H704 H 0.19539 0.25027 0.38977 0.0
H705 H 0.25008 0.2194 0.35591 0.0
S706 S 0.31486 0.24662 0.50668 0.0
N707 N 0.26905 0.26094 0.50124 0.0
N708 N 0.3274 0.22745 0.46463 0.0
C709 C 0.29365 0.23215 0.44405 0.0
C710 C 0.26196 0.25033 0.46382 0.0
C711 C 0.11648 0.06128 0.68247 0.0
C712 C 0.10072 0.07284 0.64647 0.0
C713 C 0.10352 0.02935 0.70121 0.0
C714 C 0.07422 1.00716 0.6849 0.0
H715 H 0.13857 0.07754 0.69687 0.0
H716 H 0.1165 1.02226 0.72916 0.0
S717 S 0.02411 1.02421 0.59032 0.0
N718 N 0.0548 0.05887 0.5944 0.0
N719 N 0.03034 0.99858 0.62991 0.0
C720 C 0.05864 1.01779 0.64846 0.0
C721 C 0.07174 0.05074 0.62932 0.0
C722 C 0.28826 0.85419 0.88508 0.0
C723 C 0.25065 0.85614 0.90206 0.0
C724 C 0.31949 0.83573 0.90408 0.0
C725 C 0.31401 0.81869 0.94062 0.0
H726 H 0.29392 0.8683 0.85776 0.0
H727 H 0.34838 0.8363 0.89098 0.0
S728 S 0.21957 0.81046 0.99375 0.0
N729 N 0.2087 0.83556 0.95483 0.0
N730 N 0.26693 0.80103 0.99048 0.0
C731 C 0.27593 0.8185 0.95651 0.0
C732 C 0.24437 0.8372 0.93726 0.0
C733 C 0.48295 0.05535 0.14917 0.0
C734 C 0.46153 0.07175 0.17997 0.0
C735 C 0.47056 1.02215 0.1318 0.0
C736 C 0.43637 1.0044 0.14469 0.0
H737 H 0.51032 0.0672 0.13976 0.0
H738 H 0.48862 1.00957 0.10922 0.0
S739 S 0.36675 0.03976 0.21982 0.0
N740 N 0.40235 0.07007 0.21946 0.0
N741 N 0.37896 1.00847 0.18664 0.0
C742 C 0.41362 1.02193 0.17375 0.0
C743 C 0.42622 0.05539 0.19141 0.0
C744 C 0.78416 0.36531 0.57458 0.0
C745 C 0.78893 0.36016 0.61501 0.0
C746 C 0.75352 0.34885 0.55426 0.0
C747 C 0.72594 0.32661 0.57342 0.0
H748 H 0.80444 0.38222 0.55836 0.0
H749 H 0.75128 0.35411 0.52317 0.0
S750 S 0.72567 0.30373 0.67918 0.0
N751 N 0.76381 0.33079 0.67366 0.0
N752 N 0.70597 0.29967 0.63534 0.0
C753 C 0.73045 0.32089 0.61388 0.0
C754 C 0.76204 0.33757 0.63465 0.0
C755 C 0.92865 0.52403 0.81909 0.0
C756 C 0.95678 0.50086 0.83726 0.0
C757 C 0.91355 0.55568 0.83761 0.0
C758 C 0.92586 0.56588 0.87521 0.0
H759 H 0.91817 0.51788 0.78998 0.0
H760 H 0.89248 0.57274 0.82188 0.0
S761 S 0.99824 0.5145 0.93634 0.0
N762 N 0.99599 0.49011 0.89559 0.0
N763 N 0.96732 0.54975 0.93063 0.0
C764 C 0.9537 0.54288 0.89411 0.0
C765 C 0.96907 0.51031 0.87518 0.0
C766 C 0.81039 0.73954 0.11564 0.0
C767 C 0.80332 0.76065 0.08177 0.0
C768 C 0.77938 0.72308 0.13607 0.0
C769 C 0.74023 0.72782 0.12378 0.0
H770 H 0.84014 0.7342 0.12532 0.0
H771 H 0.78613 0.70592 0.16121 0.0
S772 S 0.70607 0.7831 0.03872 0.0
N773 N 0.75415 0.7872 0.03824 0.0
N774 N 0.69616 0.75669 0.07673 0.0
C775 C 0.73275 0.75033 0.09107 0.0
C776 C 0.76422 0.76662 0.07005 0.0
C777 C 0.59507 0.53603 0.38826 0.0
C778 C 0.59349 0.5021 0.36799 0.0
C779 C 0.58041 0.56915 0.37158 0.0
C780 C 0.56447 0.56963 0.33367 0.0
H781 H 0.60798 0.53699 0.41713 0.0
H782 H 0.58283 0.59468 0.3879 0.0
S783 S 0.55239 0.48804 0.26893 0.0
N784 N 0.57365 0.47107 0.30849 0.0
N785 N 0.54639 0.53276 0.27716 0.0
C786 C 0.56202 0.5357 0.31354 0.0
C787 C 0.57644 0.50211 0.33066 0.0
C788 C 0.44362 0.30643 0.16566 0.0
C789 C 0.40448 0.31588 0.17411 0.0
C790 C 0.46097 0.27404 0.18034 0.0
C791 C 0.44005 0.24945 0.20425 0.0
H792 H 0.46111 0.32424 0.14737 0.0
H793 H 0.49133 0.26843 0.17283 0.0
S794 S 0.33633 0.26132 0.23497 0.0
N795 N 0.3449 0.2981 0.20779 0.0
N796 N 0.37754 0.23671 0.23519 0.0
C797 C 0.40054 0.25812 0.21238 0.0
C798 C 0.38277 0.29141 0.19737 0.0
C799 C 0.90497 0.3105 0.79566 0.0
C800 C 0.93709 0.3258 0.81524 0.0
C801 C 0.88713 0.27816 0.8097 0.0
C802 C 0.90039 0.26053 0.84413 0.0
H803 H 0.89456 0.32273 0.76861 0.0
H804 H 0.86298 0.26676 0.79344 0.0
S805 S 0.98244 0.29065 0.90689 0.0
N806 N 0.98036 0.32162 0.8715 0.0
N807 N 0.94722 0.26128 0.89751 0.0
C808 C 0.93179 0.27626 0.86436 0.0
C809 C 0.94999 0.30877 0.85003 0.0
C810 C 0.04882 0.72146 0.0918 0.0
C811 C 0.05213 0.6828 0.08875 0.0
C812 C 0.01777 0.74102 0.07443 0.0
C813 C 0.98845 0.7229 0.05312 0.0
H814 H 0.0702 0.73681 0.10828 0.0
H815 H 0.01673 0.77077 0.07822 0.0
S816 S 0.98469 0.62184 0.03465 0.0
N817 N 0.02429 0.62691 0.0617 0.0
N818 N 0.96554 0.66378 0.02898 0.0
C819 C 0.99144 0.68414 0.04957 0.0
C820 C 0.02331 0.6641 0.06741 0.0
C821 C 0.64823 0.79662 0.31696 0.0
C822 C 0.63559 0.81382 0.35193 0.0
C823 C 0.62944 0.76504 0.3022 0.0
C824 C 0.59694 0.75005 0.32158 0.0
H825 H 0.67261 0.80782 0.30079 0.0
H826 H 0.63939 0.75325 0.27475 0.0
S827 S 0.55287 0.78417 0.41441 0.0
N828 N 0.5889 0.81286 0.40558 0.0
N829 N 0.55398 0.75402 0.37821 0.0
C830 C 0.58467 0.76659 0.35689 0.0
C831 C 0.60384 0.79831 0.37196 0.0
C832 C 0.5049 0.34096 0.54365 0.0
C833 C 0.54317 0.3549 0.54218 0.0
C834 C 0.47449 0.36023 0.56262 0.0
C835 C 0.48105 0.39414 0.58133 0.0
H836 H 0.49846 0.31437 0.53077 0.0
H837 H 0.44589 0.34774 0.56391 0.0
S838 S 0.57487 0.4444 0.58339 0.0
N839 N 0.5853 0.40603 0.55898 0.0
N840 N 0.52796 0.44229 0.59497 0.0
C841 C 0.51874 0.40921 0.57889 0.0
C842 C 0.54978 0.38967 0.55911 0.0
C843 C 0.09065 0.76302 0.68661 0.0
C844 C 0.13131 0.75695 0.68857 0.0
C845 C 0.07331 0.79608 0.6998 0.0
C846 C 0.09573 0.82483 0.71577 0.0
H847 H 0.07194 0.7422 0.67414 0.0
H848 H 0.04181 0.79897 0.69717 0.0
S849 S 0.20366 0.8222 0.72889 0.0
N850 N 0.1938 0.78192 0.70866 0.0
N851 N 0.1612 0.8444 0.73337 0.0
C852 C 0.13657 0.81909 0.71815 0.0
C853 C 0.15433 0.78518 0.70455 0.0
C854 C 0.49629 0.88269 0.96182 0.0
C855 C 0.49961 0.84391 0.96538 0.0
C856 C 0.52572 0.90326 0.94334 0.0
C857 C 0.55965 0.88583 0.92815 0.0
H858 H 0.47068 0.89725 0.97306 0.0
H859 H 0.52202 0.933 0.94109 0.0
S860 S 0.58245 0.78526 0.92823 0.0
N861 N 0.53996 0.78909 0.95098 0.0
N862 N 0.59442 0.82785 0.91654 0.0
C863 C 0.56335 0.84729 0.93142 0.0
C864 C 0.5336 0.82633 0.94995 0.0
C865 C 0.99739 0.17447 0.46089 0.0
C866 C 0.98409 0.18431 0.42319 0.0
C867 C 0.0281 0.19361 0.47898 0.0
C868 C 0.04622 0.22323 0.45993 0.0
H869 H 0.98298 0.15283 0.4771 0.0
H870 H 0.03638 0.18638 0.5086 0.0
S871 S 0.02688 0.2559 0.35896 0.0
N872 N 0.99517 0.22255 0.36587 0.0
N873 N 0.05177 0.25887 0.40012 0.0
C874 C 0.03466 0.23191 0.4216 0.0
C875 C 1.00389 0.21237 0.40315 0.0
loop_
_geom_bond_atom_site_label_1
_geom_bond_atom_site_label_2
_geom_bond_distance
_geom_bond_site_symmetry_2
_ccdc_geom_bond_type
Tb0 C10 2.825 . S
Tb0 O11 2.347 . S
Tb0 O14 2.366 . S
Tb0 O19 2.418 . S
Tb0 O20 2.384 . S
Tb0 O23 2.479 . S
Tb0 O24 2.471 . S
Eu1 O12 2.418 . S
Eu1 O13 2.384 . S
Eu1 O16 2.479 . S
Eu1 O17 2.471 . S
Eu1 O18 2.347 . S
Eu1 O21 2.366 . S
Eu1 C31 2.825 . S
C2 O18 1.259 . S
C2 O19 1.265 . S
C3 O20 1.255 . S
C3 O21 1.265 . S
C4 C6 1.380 . S
C4 C7 1.374 . S
C4 C10 1.507 . S
C5 C6 1.384 . S
C5 C9 1.387 . S
C5 H32 0.930 . S
C6 C4 1.380 . S
C6 C5 1.384 . S
C6 H33 0.931 . S
C7 C4 1.374 . S
C7 C8 1.390 . S
C7 H34 0.930 . S
C8 C7 1.390 . S
C8 C9 1.391 . S
C8 H35 0.930 . S
C9 C5 1.387 . S
C9 C8 1.391 . S
C10 Tb0 2.825 . S
C10 C4 1.507 . S
C10 O23 1.238 . S
C10 O24 1.247 . S
O11 Tb0 2.347 . S
O11 C15 1.259 . S
O12 Eu1 2.418 . S
O12 C15 1.265 . S
O13 Eu1 2.384 . S
O13 C22 1.255 . S
O14 Tb0 2.366 . S
O14 C22 1.265 . S
C15 O11 1.259 . S
C15 O12 1.265 . S
O16 Eu1 2.479 . S
O16 C31 1.238 . S
O17 Eu1 2.471 . S
O17 C31 1.247 . S
O18 Eu1 2.347 . S
O18 C2 1.259 . S
O19 Tb0 2.418 . S
O19 C2 1.265 . S
O20 Tb0 2.384 . S
O20 C3 1.255 . S
O21 Eu1 2.366 . S
O21 C3 1.265 . S
C22 O13 1.255 . S
C22 O14 1.265 . S
O23 Tb0 2.479 . S
O23 C10 1.238 . S
O24 Tb0 2.471 . S
O24 C10 1.247 . S
C25 C28 1.380 . S
C25 C29 1.374 . S
C25 C31 1.507 . S
C26 C27 1.387 . S
C26 C30 1.391 . S
C27 C26 1.387 . S
C27 C28 1.384 . S
C27 H36 0.930 . S
C28 C25 1.380 . S
C28 C27 1.384 . S
C28 H37 0.931 . S
C29 C25 1.374 . S
C29 C30 1.390 . S
C29 H38 0.930 . S
C30 C26 1.391 . S
C30 C29 1.390 . S
C30 H39 0.930 . S
C31 Eu1 2.825 . S
C31 O16 1.238 . S
C31 O17 1.247 . S
C31 C25 1.507 . S
H32 C5 0.930 . S
H33 C6 0.931 . S
H34 C7 0.930 . S
H35 C8 0.930 . S
H36 C27 0.930 . S
H37 C28 0.931 . S
H38 C29 0.930 . S
H39 C30 0.930 . S
Tb40 C50 2.825 . S
Tb40 O51 2.347 . S
Tb40 O54 2.366 1_655 S
Tb40 O59 2.418 1_655 S
Tb40 O60 2.384 . S
Tb40 O63 2.479 . S
Tb40 O64 2.471 . S
Eu41 O52 2.418 1_455 S
Eu41 O53 2.384 . S
Eu41 O56 2.479 . S
Eu41 O57 2.471 . S
Eu41 O58 2.347 . S
Eu41 O61 2.366 . S
Eu41 C71 2.825 . S
C42 O58 1.259 . S
C42 O59 1.265 . S
C43 O60 1.255 . S
C43 O61 1.265 1_655 S
C44 C46 1.380 . S
C44 C47 1.374 . S
C44 C50 1.507 . S
C45 C46 1.384 . S
C45 C49 1.387 . S
C45 H72 0.930 . S
C46 C44 1.380 . S
C46 C45 1.384 . S
C46 H73 0.931 . S
C47 C44 1.374 . S
C47 C48 1.390 . S
C47 H74 0.930 . S
C48 C47 1.390 . S
C48 C49 1.391 . S
C48 H75 0.930 . S
C49 C45 1.387 . S
C49 C48 1.391 . S
C50 Tb40 2.825 . S
C50 C44 1.507 . S
C50 O63 1.238 . S
C50 O64 1.247 . S
O51 Tb40 2.347 . S
O51 C55 1.259 . S
O52 Eu41 2.418 1_655 S
O52 C55 1.265 . S
O53 Eu41 2.384 . S
O53 C62 1.255 . S
O54 Tb40 2.366 1_455 S
O54 C62 1.265 . S
C55 O51 1.259 . S
C55 O52 1.265 . S
O56 Eu41 2.479 . S
O56 C71 1.238 . S
O57 Eu41 2.471 . S
O57 C71 1.247 . S
O58 Eu41 2.347 . S
O58 C42 1.259 . S
O59 Tb40 2.418 1_455 S
O59 C42 1.265 . S
O60 Tb40 2.384 . S
O60 C43 1.255 . S
O61 Eu41 2.366 . S
O61 C43 1.265 1_455 S
C62 O53 1.255 . S
C62 O54 1.265 . S
O63 Tb40 2.479 . S
O63 C50 1.238 . S
O64 Tb40 2.471 . S
O64 C50 1.247 . S
C65 C68 1.380 . S
C65 C69 1.374 . S
C65 C71 1.507 . S
C66 C67 1.387 . S
C66 C70 1.391 . S
C67 C66 1.387 . S
C67 C68 1.384 . S
C67 H76 0.930 . S
C68 C65 1.380 . S
C68 C67 1.384 . S
C68 H77 0.931 . S
C69 C65 1.374 . S
C69 C70 1.390 . S
C69 H78 0.930 . S
C70 C66 1.391 . S
C70 C69 1.390 . S
C70 H79 0.930 . S
C71 Eu41 2.825 . S
C71 O56 1.238 . S
C71 O57 1.247 . S
C71 C65 1.507 . S
H72 C45 0.930 . S
H73 C46 0.931 . S
H74 C47 0.930 . S
H75 C48 0.930 . S
H76 C67 0.930 . S
H77 C68 0.931 . S
H78 C69 0.930 . S
H79 C70 0.930 . S
Tb80 C90 2.825 . S
Tb80 O91 2.347 . S
Tb80 O94 2.366 . S
Tb80 O99 2.418 1_554 S
Tb80 O100 2.384 . S
Tb80 O103 2.479 . S
Tb80 O104 2.471 . S
Eu81 O92 2.418 1_556 S
Eu81 O93 2.384 . S
Eu81 O96 2.479 . S
Eu81 O97 2.471 . S
Eu81 O98 2.347 . S
Eu81 O101 2.366 . S
Eu81 C111 2.825 . S
C82 O98 1.259 . S
C82 O99 1.265 . S
C83 O100 1.255 . S
C83 O101 1.265 1_554 S
C84 C86 1.380 . S
C84 C87 1.374 . S
C84 C90 1.507 . S
C85 C86 1.384 . S
C85 C89 1.387 . S
C85 H112 0.930 . S
C86 C84 1.380 . S
C86 C85 1.384 . S
C86 H113 0.931 . S
C87 C84 1.374 . S
C87 C88 1.390 . S
C87 H114 0.930 . S
C88 C87 1.390 . S
C88 C89 1.391 . S
C88 H115 0.930 . S
C89 C85 1.387 . S
C89 C88 1.391 . S
C90 Tb80 2.825 . S
C90 C84 1.507 . S
C90 O103 1.238 . S
C90 O104 1.247 . S
O91 Tb80 2.347 . S
O91 C95 1.259 . S
O92 Eu81 2.418 1_554 S
O92 C95 1.265 . S
O93 Eu81 2.384 . S
O93 C102 1.255 . S
O94 Tb80 2.366 . S
O94 C102 1.265 1_554 S
C95 O91 1.259 . S
C95 O92 1.265 . S
O96 Eu81 2.479 . S
O96 C111 1.238 . S
O97 Eu81 2.471 . S
O97 C111 1.247 . S
O98 Eu81 2.347 . S
O98 C82 1.259 . S
O99 Tb80 2.418 1_556 S
O99 C82 1.265 . S
O100 Tb80 2.384 . S
O100 C83 1.255 . S
O101 Eu81 2.366 . S
O101 C83 1.265 1_556 S
C102 O93 1.255 . S
C102 O94 1.265 1_556 S
O103 Tb80 2.479 . S
O103 C90 1.238 . S
O104 Tb80 2.471 . S
O104 C90 1.247 . S
C105 C108 1.380 . S
C105 C109 1.374 . S
C105 C111 1.507 . S
C106 C107 1.387 . S
C106 C110 1.391 . S
C107 C106 1.387 . S
C107 C108 1.384 . S
C107 H116 0.930 . S
C108 C105 1.380 . S
C108 C107 1.384 . S
C108 H117 0.931 . S
C109 C105 1.374 . S
C109 C110 1.390 . S
C109 H118 0.930 . S
C110 C106 1.391 . S
C110 C109 1.390 . S
C110 H119 0.930 . S
C111 Eu81 2.825 . S
C111 O96 1.238 . S
C111 O97 1.247 . S
C111 C105 1.507 . S
H112 C85 0.930 . S
H113 C86 0.931 . S
H114 C87 0.930 . S
H115 C88 0.930 . S
H116 C107 0.930 . S
H117 C108 0.931 . S
H118 C109 0.930 . S
H119 C110 0.930 . S
Tb120 C130 2.825 . S
Tb120 O131 2.347 . S
Tb120 O134 2.366 . S
Tb120 O139 2.418 . S
Tb120 O140 2.384 . S
Tb120 O143 2.479 . S
Tb120 O144 2.471 . S
Eu121 O132 2.418 . S
Eu121 O133 2.384 . S
Eu121 O136 2.479 . S
Eu121 O137 2.471 . S
Eu121 O138 2.347 . S
Eu121 O141 2.366 . S
Eu121 C151 2.825 . S
C122 O138 1.259 . S
C122 O139 1.265 . S
C123 O140 1.255 . S
C123 O141 1.265 . S
C124 C126 1.380 . S
C124 C127 1.374 . S
C124 C130 1.507 . S
C125 C126 1.384 . S
C125 C129 1.387 . S
C125 H152 0.930 . S
C126 C124 1.380 . S
C126 C125 1.384 . S
C126 H153 0.931 . S
C127 C124 1.374 . S
C127 C128 1.390 . S
C127 H154 0.930 . S
C128 C127 1.390 . S
C128 C129 1.391 . S
C128 H155 0.930 . S
C129 C125 1.387 . S
C129 C128 1.391 . S
C130 Tb120 2.825 . S
C130 C124 1.507 . S
C130 O143 1.238 . S
C130 O144 1.247 . S
O131 Tb120 2.347 . S
O131 C135 1.259 . S
O132 Eu121 2.418 . S
O132 C135 1.265 . S
O133 Eu121 2.384 . S
O133 C142 1.255 . S
O134 Tb120 2.366 . S
O134 C142 1.265 . S
C135 O131 1.259 . S
C135 O132 1.265 . S
O136 Eu121 2.479 . S
O136 C151 1.238 . S
O137 Eu121 2.471 . S
O137 C151 1.247 . S
O138 Eu121 2.347 . S
O138 C122 1.259 . S
O139 Tb120 2.418 . S
O139 C122 1.265 . S
O140 Tb120 2.384 . S
O140 C123 1.255 . S
O141 Eu121 2.366 . S
O141 C123 1.265 . S
C142 O133 1.255 . S
C142 O134 1.265 . S
O143 Tb120 2.479 . S
O143 C130 1.238 . S
O144 Tb120 2.471 . S
O144 C130 1.247 . S
C145 C148 1.380 . S
C145 C149 1.374 . S
C145 C151 1.507 . S
C146 C147 1.387 . S
C146 C150 1.391 . S
C147 C146 1.387 . S
C147 C148 1.384 . S
C147 H156 0.930 . S
C148 C145 1.380 . S
C148 C147 1.384 . S
C148 H157 0.931 . S
C149 C145 1.374 . S
C149 C150 1.390 . S
C149 H158 0.930 . S
C150 C146 1.391 . S
C150 C149 1.390 . S
C150 H159 0.930 . S
C151 Eu121 2.825 . S
C151 O136 1.238 . S
C151 O137 1.247 . S
C151 C145 1.507 . S
H152 C125 0.930 . S
H153 C126 0.931 . S
H154 C127 0.930 . S
H155 C128 0.930 . S
H156 C147 0.930 . S
H157 C148 0.931 . S
H158 C149 0.930 . S
H159 C150 0.930 . S
Tb160 C170 2.825 . S
Tb160 O171 2.347 . S
Tb160 O174 2.366 . S
Tb160 O179 2.418 . S
Tb160 O180 2.384 . S
Tb160 O183 2.479 . S
Tb160 O184 2.471 . S
Eu161 O172 2.418 . S
Eu161 O173 2.384 . S
Eu161 O176 2.479 . S
Eu161 O177 2.471 . S
Eu161 O178 2.347 . S
Eu161 O181 2.366 . S
Eu161 C191 2.825 . S
C162 O178 1.259 . S
C162 O179 1.265 . S
C163 O180 1.255 . S
C163 O181 1.265 . S
C164 C166 1.380 . S
C164 C167 1.374 . S
C164 C170 1.507 . S
C165 C166 1.384 . S
C165 C169 1.387 . S
C165 H192 0.930 . S
C166 C164 1.380 . S
C166 C165 1.384 . S
C166 H193 0.931 . S
C167 C164 1.374 . S
C167 C168 1.390 . S
C167 H194 0.930 . S
C168 C167 1.390 . S
C168 C169 1.391 . S
C168 H195 0.930 . S
C169 C165 1.387 . S
C169 C168 1.391 . S
C170 Tb160 2.825 . S
C170 C164 1.507 . S
C170 O183 1.238 . S
C170 O184 1.247 . S
O171 Tb160 2.347 . S
O171 C175 1.259 . S
O172 Eu161 2.418 . S
O172 C175 1.265 . S
O173 Eu161 2.384 . S
O173 C182 1.255 . S
O174 Tb160 2.366 . S
O174 C182 1.265 . S
C175 O171 1.259 . S
C175 O172 1.265 . S
O176 Eu161 2.479 . S
O176 C191 1.238 . S
O177 Eu161 2.471 . S
O177 C191 1.247 . S
O178 Eu161 2.347 . S
O178 C162 1.259 . S
O179 Tb160 2.418 . S
O179 C162 1.265 . S
O180 Tb160 2.384 . S
O180 C163 1.255 . S
O181 Eu161 2.366 . S
O181 C163 1.265 . S
C182 O173 1.255 . S
C182 O174 1.265 . S
O183 Tb160 2.479 . S
O183 C170 1.238 . S
O184 Tb160 2.471 . S
O184 C170 1.247 . S
C185 C188 1.380 . S
C185 C189 1.374 . S
C185 C191 1.507 . S
C186 C187 1.387 . S
C186 C190 1.391 . S
C187 C186 1.387 . S
C187 C188 1.384 . S
C187 H196 0.930 . S
C188 C185 1.380 . S
C188 C187 1.384 . S
C188 H197 0.931 . S
C189 C185 1.374 . S
C189 C190 1.390 . S
C189 H198 0.930 . S
C190 C186 1.391 . S
C190 C189 1.390 . S
C190 H199 0.930 . S
C191 Eu161 2.825 . S
C191 O176 1.238 . S
C191 O177 1.247 . S
C191 C185 1.507 . S
H192 C165 0.930 . S
H193 C166 0.931 . S
H194 C167 0.930 . S
H195 C168 0.930 . S
H196 C187 0.930 . S
H197 C188 0.931 . S
H198 C189 0.930 . S
H199 C190 0.930 . S
Tb200 C210 2.825 . S
Tb200 O211 2.347 . S
Tb200 O214 2.366 . S
Tb200 O219 2.418 . S
Tb200 O220 2.384 1_655 S
Tb200 O223 2.479 . S
Tb200 O224 2.471 . S
Eu201 O212 2.418 . S
Eu201 O213 2.384 1_455 S
Eu201 O216 2.479 . S
Eu201 O217 2.471 . S
Eu201 O218 2.347 1_455 S
Eu201 O221 2.366 . S
Eu201 C231 2.825 . S
C202 O218 1.259 . S
C202 O219 1.265 . S
C203 O220 1.255 . S
C203 O221 1.265 . S
C204 C206 1.380 . S
C204 C207 1.374 . S
C204 C210 1.507 . S
C205 C206 1.384 . S
C205 C209 1.387 . S
C205 H232 0.930 . S
C206 C204 1.380 . S
C206 C205 1.384 . S
C206 H233 0.931 . S
C207 C204 1.374 . S
C207 C208 1.390 . S
C207 H234 0.930 . S
C208 C207 1.390 . S
C208 C209 1.391 . S
C208 H235 0.930 . S
C209 C205 1.387 . S
C209 C208 1.391 . S
C210 Tb200 2.825 . S
C210 C204 1.507 . S
C210 O223 1.238 . S
C210 O224 1.247 . S
O211 Tb200 2.347 . S
O211 C215 1.259 1_655 S
O212 Eu201 2.418 . S
O212 C215 1.265 . S
O213 Eu201 2.384 1_655 S
O213 C222 1.255 . S
O214 Tb200 2.366 . S
O214 C222 1.265 . S
C215 O211 1.259 1_455 S
C215 O212 1.265 . S
O216 Eu201 2.479 . S
O216 C231 1.238 . S
O217 Eu201 2.471 . S
O217 C231 1.247 . S
O218 Eu201 2.347 1_655 S
O218 C202 1.259 . S
O219 Tb200 2.418 . S
O219 C202 1.265 . S
O220 Tb200 2.384 1_455 S
O220 C203 1.255 . S
O221 Eu201 2.366 . S
O221 C203 1.265 . S
C222 O213 1.255 . S
C222 O214 1.265 . S
O223 Tb200 2.479 . S
O223 C210 1.238 . S
O224 Tb200 2.471 . S
O224 C210 1.247 . S
C225 C228 1.380 . S
C225 C229 1.374 . S
C225 C231 1.507 . S
C226 C227 1.387 . S
C226 C230 1.391 . S
C227 C226 1.387 . S
C227 C228 1.384 . S
C227 H236 0.930 . S
C228 C225 1.380 . S
C228 C227 1.384 . S
C228 H237 0.931 . S
C229 C225 1.374 . S
C229 C230 1.390 . S
C229 H238 0.930 . S
C230 C226 1.391 . S
C230 C229 1.390 . S
C230 H239 0.930 . S
C231 Eu201 2.825 . S
C231 O216 1.238 . S
C231 O217 1.247 . S
C231 C225 1.507 . S
H232 C205 0.930 . S
H233 C206 0.931 . S
H234 C207 0.930 . S
H235 C208 0.930 . S
H236 C227 0.930 . S
H237 C228 0.931 . S
H238 C229 0.930 . S
H239 C230 0.930 . S
Tb240 C250 2.825 . S
Tb240 O251 2.347 1_554 S
Tb240 O254 2.366 . S
Tb240 O259 2.418 . S
Tb240 O260 2.384 1_554 S
Tb240 O263 2.479 . S
Tb240 O264 2.471 . S
Eu241 O252 2.418 . S
Eu241 O253 2.384 1_556 S
Eu241 O256 2.479 . S
Eu241 O257 2.471 . S
Eu241 O258 2.347 1_556 S
Eu241 O261 2.366 . S
Eu241 C271 2.825 . S
C242 O258 1.259 . S
C242 O259 1.265 . S
C243 O260 1.255 . S
C243 O261 1.265 . S
C244 C246 1.380 . S
C244 C247 1.374 . S
C244 C250 1.507 . S
C245 C246 1.384 . S
C245 C249 1.387 . S
C245 H272 0.930 . S
C246 C244 1.380 . S
C246 C245 1.384 . S
C246 H273 0.931 . S
C247 C244 1.374 . S
C247 C248 1.390 . S
C247 H274 0.930 . S
C248 C247 1.390 . S
C248 C249 1.391 . S
C248 H275 0.930 . S
C249 C245 1.387 . S
C249 C248 1.391 . S
C250 Tb240 2.825 . S
C250 C244 1.507 . S
C250 O263 1.238 . S
C250 O264 1.247 . S
O251 Tb240 2.347 1_556 S
O251 C255 1.259 . S
O252 Eu241 2.418 . S
O252 C255 1.265 . S
O253 Eu241 2.384 1_554 S
O253 C262 1.255 . S
O254 Tb240 2.366 . S
O254 C262 1.265 . S
C255 O251 1.259 . S
C255 O252 1.265 . S
O256 Eu241 2.479 . S
O256 C271 1.238 . S
O257 Eu241 2.471 . S
O257 C271 1.247 . S
O258 Eu241 2.347 1_554 S
O258 C242 1.259 . S
O259 Tb240 2.418 . S
O259 C242 1.265 . S
O260 Tb240 2.384 1_556 S
O260 C243 1.255 . S
O261 Eu241 2.366 . S
O261 C243 1.265 . S
C262 O253 1.255 . S
C262 O254 1.265 . S
O263 Tb240 2.479 . S
O263 C250 1.238 . S
O264 Tb240 2.471 . S
O264 C250 1.247 . S
C265 C268 1.380 . S
C265 C269 1.374 . S
C265 C271 1.507 . S
C266 C267 1.387 . S
C266 C270 1.391 . S
C267 C266 1.387 . S
C267 C268 1.384 . S
C267 H276 0.930 . S
C268 C265 1.380 . S
C268 C267 1.384 . S
C268 H277 0.931 . S
C269 C265 1.374 . S
C269 C270 1.390 . S
C269 H278 0.930 . S
C270 C266 1.391 . S
C270 C269 1.390 . S
C270 H279 0.930 . S
C271 Eu241 2.825 . S
C271 O256 1.238 . S
C271 O257 1.247 . S
C271 C265 1.507 . S
H272 C245 0.930 . S
H273 C246 0.931 . S
H274 C247 0.930 . S
H275 C248 0.930 . S
H276 C267 0.930 . S
H277 C268 0.931 . S
H278 C269 0.930 . S
H279 C270 0.930 . S
Tb280 C290 2.825 . S
Tb280 O291 2.347 . S
Tb280 O294 2.366 . S
Tb280 O299 2.418 . S
Tb280 O300 2.384 . S
Tb280 O303 2.479 . S
Tb280 O304 2.471 . S
Eu281 O292 2.418 . S
Eu281 O293 2.384 . S
Eu281 O296 2.479 . S
Eu281 O297 2.471 . S
Eu281 O298 2.347 . S
Eu281 O301 2.366 . S
Eu281 C311 2.825 . S
C282 O298 1.259 . S
C282 O299 1.265 . S
C283 O300 1.255 . S
C283 O301 1.265 . S
C284 C286 1.380 . S
C284 C287 1.374 . S
C284 C290 1.507 . S
C285 C286 1.384 . S
C285 C289 1.387 . S
C285 H312 0.930 . S
C286 C284 1.380 . S
C286 C285 1.384 . S
C286 H313 0.931 . S
C287 C284 1.374 . S
C287 C288 1.390 . S
C287 H314 0.930 . S
C288 C287 1.390 . S
C288 C289 1.391 . S
C288 H315 0.930 . S
C289 C285 1.387 . S
C289 C288 1.391 . S
C290 Tb280 2.825 . S
C290 C284 1.507 . S
C290 O303 1.238 . S
C290 O304 1.247 . S
O291 Tb280 2.347 . S
O291 C295 1.259 . S
O292 Eu281 2.418 . S
O292 C295 1.265 . S
O293 Eu281 2.384 . S
O293 C302 1.255 . S
O294 Tb280 2.366 . S
O294 C302 1.265 . S
C295 O291 1.259 . S
C295 O292 1.265 . S
O296 Eu281 2.479 . S
O296 C311 1.238 . S
O297 Eu281 2.471 . S
O297 C311 1.247 . S
O298 Eu281 2.347 . S
O298 C282 1.259 . S
O299 Tb280 2.418 . S
O299 C282 1.265 . S
O300 Tb280 2.384 . S
O300 C283 1.255 . S
O301 Eu281 2.366 . S
O301 C283 1.265 . S
C302 O293 1.255 . S
C302 O294 1.265 . S
O303 Tb280 2.479 . S
O303 C290 1.238 . S
O304 Tb280 2.471 . S
O304 C290 1.247 . S
C305 C308 1.380 . S
C305 C309 1.374 . S
C305 C311 1.507 . S
C306 C307 1.387 . S
C306 C310 1.391 . S
C307 C306 1.387 . S
C307 C308 1.384 . S
C307 H316 0.930 . S
C308 C305 1.380 . S
C308 C307 1.384 . S
C308 H317 0.931 . S
C309 C305 1.374 . S
C309 C310 1.390 . S
C309 H318 0.930 . S
C310 C306 1.391 . S
C310 C309 1.390 . S
C310 H319 0.930 . S
C311 Eu281 2.825 . S
C311 O296 1.238 . S
C311 O297 1.247 . S
C311 C305 1.507 . S
H312 C285 0.930 . S
H313 C286 0.931 . S
H314 C287 0.930 . S
H315 C288 0.930 . S
H316 C307 0.930 . S
H317 C308 0.931 . S
H318 C309 0.930 . S
H319 C310 0.930 . S
Tb320 C330 2.825 . S
Tb320 O331 2.347 . S
Tb320 O334 2.366 . S
Tb320 O339 2.418 . S
Tb320 O340 2.384 . S
Tb320 O343 2.479 . S
Tb320 O344 2.471 . S
Eu321 O332 2.418 . S
Eu321 O333 2.384 . S
Eu321 O336 2.479 . S
Eu321 O337 2.471 . S
Eu321 O338 2.347 . S
Eu321 O341 2.366 . S
Eu321 C351 2.825 . S
C322 O338 1.259 . S
C322 O339 1.265 . S
C323 O340 1.255 . S
C323 O341 1.265 . S
C324 C326 1.380 . S
C324 C327 1.374 . S
C324 C330 1.507 . S
C325 C326 1.384 . S
C325 C329 1.387 . S
C325 H352 0.930 . S
C326 C324 1.380 . S
C326 C325 1.384 . S
C326 H353 0.931 . S
C327 C324 1.374 . S
C327 C328 1.390 . S
C327 H354 0.930 . S
C328 C327 1.390 . S
C328 C329 1.391 . S
C328 H355 0.930 . S
C329 C325 1.387 . S
C329 C328 1.391 . S
C330 Tb320 2.825 . S
C330 C324 1.507 . S
C330 O343 1.238 . S
C330 O344 1.247 . S
O331 Tb320 2.347 . S
O331 C335 1.259 . S
O332 Eu321 2.418 . S
O332 C335 1.265 . S
O333 Eu321 2.384 . S
O333 C342 1.255 . S
O334 Tb320 2.366 . S
O334 C342 1.265 . S
C335 O331 1.259 . S
C335 O332 1.265 . S
O336 Eu321 2.479 . S
O336 C351 1.238 . S
O337 Eu321 2.471 . S
O337 C351 1.247 . S
O338 Eu321 2.347 . S
O338 C322 1.259 . S
O339 Tb320 2.418 . S
O339 C322 1.265 . S
O340 Tb320 2.384 . S
O340 C323 1.255 . S
O341 Eu321 2.366 . S
O341 C323 1.265 . S
C342 O333 1.255 . S
C342 O334 1.265 . S
O343 Tb320 2.479 . S
O343 C330 1.238 . S
O344 Tb320 2.471 . S
O344 C330 1.247 . S
C345 C348 1.380 . S
C345 C349 1.374 . S
C345 C351 1.507 . S
C346 C347 1.387 . S
C346 C350 1.391 . S
C347 C346 1.387 . S
C347 C348 1.384 . S
C347 H356 0.930 . S
C348 C345 1.380 . S
C348 C347 1.384 . S
C348 H357 0.931 . S
C349 C345 1.374 . S
C349 C350 1.390 . S
C349 H358 0.930 . S
C350 C346 1.391 . S
C350 C349 1.390 . S
C350 H359 0.930 . S
C351 Eu321 2.825 . S
C351 O336 1.238 . S
C351 O337 1.247 . S
C351 C345 1.507 . S
H352 C325 0.930 . S
H353 C326 0.931 . S
H354 C327 0.930 . S
H355 C328 0.930 . S
H356 C347 0.930 . S
H357 C348 0.931 . S
H358 C349 0.930 . S
H359 C350 0.930 . S
Tb360 C370 2.825 . S
Tb360 O371 2.347 1_545 S
Tb360 O374 2.366 . S
Tb360 O379 2.418 . S
Tb360 O380 2.384 1_545 S
Tb360 O383 2.479 . S
Tb360 O384 2.471 . S
Eu361 O372 2.418 . S
Eu361 O373 2.384 1_565 S
Eu361 O376 2.479 . S
Eu361 O377 2.471 . S
Eu361 O378 2.347 1_565 S
Eu361 O381 2.366 . S
Eu361 C391 2.825 . S
C362 O378 1.259 . S
C362 O379 1.265 . S
C363 O380 1.255 . S
C363 O381 1.265 . S
C364 C366 1.380 . S
C364 C367 1.374 . S
C364 C370 1.507 . S
C365 C366 1.384 . S
C365 C369 1.387 . S
C365 H392 0.930 . S
C366 C364 1.380 . S
C366 C365 1.384 . S
C366 H393 0.931 . S
C367 C364 1.374 . S
C367 C368 1.390 . S
C367 H394 0.930 . S
C368 C367 1.390 . S
C368 C369 1.391 . S
C368 H395 0.930 . S
C369 C365 1.387 . S
C369 C368 1.391 . S
C370 Tb360 2.825 . S
C370 C364 1.507 . S
C370 O383 1.238 . S
C370 O384 1.247 . S
O371 Tb360 2.347 1_565 S
O371 C375 1.259 . S
O372 Eu361 2.418 . S
O372 C375 1.265 . S
O373 Eu361 2.384 1_545 S
O373 C382 1.255 . S
O374 Tb360 2.366 . S
O374 C382 1.265 . S
C375 O371 1.259 . S
C375 O372 1.265 . S
O376 Eu361 2.479 . S
O376 C391 1.238 . S
O377 Eu361 2.471 . S
O377 C391 1.247 . S
O378 Eu361 2.347 1_545 S
O378 C362 1.259 . S
O379 Tb360 2.418 . S
O379 C362 1.265 . S
O380 Tb360 2.384 1_565 S
O380 C363 1.255 . S
O381 Eu361 2.366 . S
O381 C363 1.265 . S
C382 O373 1.255 . S
C382 O374 1.265 . S
O383 Tb360 2.479 . S
O383 C370 1.238 . S
O384 Tb360 2.471 . S
O384 C370 1.247 . S
C385 C388 1.380 . S
C385 C389 1.374 . S
C385 C391 1.507 . S
C386 C387 1.387 . S
C386 C390 1.391 . S
C387 C386 1.387 . S
C387 C388 1.384 . S
C387 H396 0.930 . S
C388 C385 1.380 . S
C388 C387 1.384 . S
C388 H397 0.931 . S
C389 C385 1.374 . S
C389 C390 1.390 . S
C389 H398 0.930 . S
C390 C386 1.391 . S
C390 C389 1.390 . S
C390 H399 0.930 . S
C391 Eu361 2.825 . S
C391 O376 1.238 . S
C391 O377 1.247 . S
C391 C385 1.507 . S
H392 C365 0.930 . S
H393 C366 0.931 . S
H394 C367 0.930 . S
H395 C368 0.930 . S
H396 C387 0.930 . S
H397 C388 0.931 . S
H398 C389 0.930 . S
H399 C390 0.930 . S
Tb400 C410 2.825 . S
Tb400 O411 2.347 1_565 S
Tb400 O414 2.366 . S
Tb400 O419 2.418 . S
Tb400 O420 2.384 1_565 S
Tb400 O423 2.479 . S
Tb400 O424 2.471 . S
Eu401 O412 2.418 . S
Eu401 O413 2.384 1_545 S
Eu401 O416 2.479 . S
Eu401 O417 2.471 . S
Eu401 O418 2.347 1_545 S
Eu401 O421 2.366 . S
Eu401 C431 2.825 . S
C402 O418 1.259 . S
C402 O419 1.265 . S
C403 O420 1.255 . S
C403 O421 1.265 . S
C404 C406 1.380 . S
C404 C407 1.374 . S
C404 C410 1.507 . S
C405 C406 1.384 . S
C405 C409 1.387 . S
C405 H432 0.930 . S
C406 C404 1.380 . S
C406 C405 1.384 . S
C406 H433 0.931 . S
C407 C404 1.374 . S
C407 C408 1.390 . S
C407 H434 0.930 . S
C408 C407 1.390 . S
C408 C409 1.391 . S
C408 H435 0.930 . S
C409 C405 1.387 . S
C409 C408 1.391 . S
C410 Tb400 2.825 . S
C410 C404 1.507 . S
C410 O423 1.238 . S
C410 O424 1.247 . S
O411 Tb400 2.347 1_545 S
O411 C415 1.259 . S
O412 Eu401 2.418 . S
O412 C415 1.265 . S
O413 Eu401 2.384 1_565 S
O413 C422 1.255 . S
O414 Tb400 2.366 . S
O414 C422 1.265 . S
C415 O411 1.259 . S
C415 O412 1.265 . S
O416 Eu401 2.479 . S
O416 C431 1.238 . S
O417 Eu401 2.471 . S
O417 C431 1.247 . S
O418 Eu401 2.347 1_565 S
O418 C402 1.259 . S
O419 Tb400 2.418 . S
O419 C402 1.265 . S
O420 Tb400 2.384 1_545 S
O420 C403 1.255 . S
O421 Eu401 2.366 . S
O421 C403 1.265 . S
C422 O413 1.255 . S
C422 O414 1.265 . S
O423 Tb400 2.479 . S
O423 C410 1.238 . S
O424 Tb400 2.471 . S
O424 C410 1.247 . S
C425 C428 1.380 . S
C425 C429 1.374 . S
C425 C431 1.507 . S
C426 C427 1.387 . S
C426 C430 1.391 . S
C427 C426 1.387 . S
C427 C428 1.384 . S
C427 H436 0.930 . S
C428 C425 1.380 . S
C428 C427 1.384 . S
C428 H437 0.931 . S
C429 C425 1.374 . S
C429 C430 1.390 . S
C429 H438 0.930 . S
C430 C426 1.391 . S
C430 C429 1.390 . S
C430 H439 0.930 . S
C431 Eu401 2.825 . S
C431 O416 1.238 . S
C431 O417 1.247 . S
C431 C425 1.507 . S
H432 C405 0.930 . S
H433 C406 0.931 . S
H434 C407 0.930 . S
H435 C408 0.930 . S
H436 C427 0.930 . S
H437 C428 0.931 . S
H438 C429 0.930 . S
H439 C430 0.930 . S
Tb440 C450 2.825 . S
Tb440 O451 2.347 . S
Tb440 O454 2.366 . S
Tb440 O459 2.418 . S
Tb440 O460 2.384 . S
Tb440 O463 2.479 . S
Tb440 O464 2.471 . S
Eu441 O452 2.418 . S
Eu441 O453 2.384 . S
Eu441 O456 2.479 . S
Eu441 O457 2.471 . S
Eu441 O458 2.347 . S
Eu441 O461 2.366 . S
Eu441 C471 2.825 . S
C442 O458 1.259 . S
C442 O459 1.265 . S
C443 O460 1.255 . S
C443 O461 1.265 . S
C444 C446 1.380 . S
C444 C447 1.374 . S
C444 C450 1.507 . S
C445 C446 1.384 . S
C445 C449 1.387 . S
C445 H472 0.930 . S
C446 C444 1.380 . S
C446 C445 1.384 . S
C446 H473 0.931 . S
C447 C444 1.374 . S
C447 C448 1.390 . S
C447 H474 0.930 . S
C448 C447 1.390 . S
C448 C449 1.391 . S
C448 H475 0.930 . S
C449 C445 1.387 . S
C449 C448 1.391 . S
C450 Tb440 2.825 . S
C450 C444 1.507 . S
C450 O463 1.238 . S
C450 O464 1.247 . S
O451 Tb440 2.347 . S
O451 C455 1.259 . S
O452 Eu441 2.418 . S
O452 C455 1.265 . S
O453 Eu441 2.384 . S
O453 C462 1.255 . S
O454 Tb440 2.366 . S
O454 C462 1.265 . S
C455 O451 1.259 . S
C455 O452 1.265 . S
O456 Eu441 2.479 . S
O456 C471 1.238 . S
O457 Eu441 2.471 . S
O457 C471 1.247 . S
O458 Eu441 2.347 . S
O458 C442 1.259 . S
O459 Tb440 2.418 . S
O459 C442 1.265 . S
O460 Tb440 2.384 . S
O460 C443 1.255 . S
O461 Eu441 2.366 . S
O461 C443 1.265 . S
C462 O453 1.255 . S
C462 O454 1.265 . S
O463 Tb440 2.479 . S
O463 C450 1.238 . S
O464 Tb440 2.471 . S
O464 C450 1.247 . S
C465 C468 1.380 . S
C465 C469 1.374 . S
C465 C471 1.507 . S
C466 C467 1.387 . S
C466 C470 1.391 . S
C467 C466 1.387 . S
C467 C468 1.384 . S
C467 H476 0.930 . S
C468 C465 1.380 . S
C468 C467 1.384 . S
C468 H477 0.931 . S
C469 C465 1.374 . S
C469 C470 1.390 . S
C469 H478 0.930 . S
C470 C466 1.391 . S
C470 C469 1.390 . S
C470 H479 0.930 . S
C471 Eu441 2.825 . S
C471 O456 1.238 . S
C471 O457 1.247 . S
C471 C465 1.507 . S
H472 C445 0.930 . S
H473 C446 0.931 . S
H474 C447 0.930 . S
H475 C448 0.930 . S
H476 C467 0.930 . S
H477 C468 0.931 . S
H478 C469 0.930 . S
H479 C470 0.930 . S
C480 C481 1.369 . S
C480 C482 1.419 . S
C480 H484 0.930 . S
C481 C480 1.369 . S
C481 C490 1.429 . S
C482 C480 1.419 . S
C482 C483 1.363 . S
C482 H485 0.929 . S
C483 C482 1.363 . S
C483 C489 1.428 . S
H484 C480 0.930 . S
H485 C482 0.929 . S
S486 N487 1.613 . S
S486 N488 1.610 . S
N487 S486 1.613 . S
N487 C490 1.350 . S
N488 S486 1.610 . S
N488 C489 1.351 . S
C489 C483 1.428 . S
C489 N488 1.351 . S
C489 C490 1.434 . S
C490 C481 1.429 . S
C490 N487 1.350 . S
C490 C489 1.434 . S
C491 C492 1.369 . S
C491 C493 1.419 . S
C491 H495 0.930 . S
C492 C491 1.369 . S
C492 C501 1.429 . S
C493 C491 1.419 . S
C493 C494 1.363 . S
C493 H496 0.929 . S
C494 C493 1.363 . S
C494 C500 1.428 . S
H495 C491 0.930 . S
H496 C493 0.929 . S
S497 N498 1.613 . S
S497 N499 1.610 . S
N498 S497 1.613 . S
N498 C501 1.350 1_545 S
N499 S497 1.610 . S
N499 C500 1.351 1_545 S
C500 C494 1.428 . S
C500 N499 1.351 1_565 S
C500 C501 1.434 . S
C501 C492 1.429 . S
C501 N498 1.350 1_565 S
C501 C500 1.434 . S
C502 C503 1.369 . S
C502 C504 1.419 . S
C502 H506 0.930 . S
C503 C502 1.369 . S
C503 C512 1.429 . S
C504 C502 1.419 . S
C504 C505 1.363 . S
C504 H507 0.929 . S
C505 C504 1.363 . S
C505 C511 1.428 . S
H506 C502 0.930 . S
H507 C504 0.929 . S
S508 N509 1.613 . S
S508 N510 1.610 . S
N509 S508 1.613 . S
N509 C512 1.350 1_556 S
N510 S508 1.610 . S
N510 C511 1.351 1_556 S
C511 C505 1.428 . S
C511 N510 1.351 1_554 S
C511 C512 1.434 . S
C512 C503 1.429 . S
C512 N509 1.350 1_554 S
C512 C511 1.434 . S
C513 C514 1.369 . S
C513 C515 1.419 . S
C513 H517 0.930 . S
C514 C513 1.369 . S
C514 C523 1.429 . S
C515 C513 1.419 . S
C515 C516 1.363 . S
C515 H518 0.929 . S
C516 C515 1.363 . S
C516 C522 1.428 . S
H517 C513 0.930 . S
H518 C515 0.929 . S
S519 N520 1.613 1_565 S
S519 N521 1.610 . S
N520 S519 1.613 1_545 S
N520 C523 1.350 . S
N521 S519 1.610 . S
N521 C522 1.351 1_565 S
C522 C516 1.428 . S
C522 N521 1.351 1_545 S
C522 C523 1.434 . S
C523 C514 1.429 . S
C523 N520 1.350 . S
C523 C522 1.434 . S
C524 C525 1.369 . S
C524 C526 1.419 . S
C524 H528 0.930 . S
C525 C524 1.369 . S
C525 C534 1.429 . S
C526 C524 1.419 . S
C526 C527 1.363 . S
C526 H529 0.929 . S
C527 C526 1.363 . S
C527 C533 1.428 . S
H528 C524 0.930 . S
H529 C526 0.929 . S
S530 N531 1.613 . S
S530 N532 1.610 . S
N531 S530 1.613 . S
N531 C534 1.350 . S
N532 S530 1.610 . S
N532 C533 1.351 . S
C533 C527 1.428 . S
C533 N532 1.351 . S
C533 C534 1.434 . S
C534 C525 1.429 . S
C534 N531 1.350 . S
C534 C533 1.434 . S
C535 C536 1.369 . S
C535 C537 1.419 . S
C535 H539 0.930 . S
C536 C535 1.369 . S
C536 C545 1.429 . S
C537 C535 1.419 . S
C537 C538 1.363 . S
C537 H540 0.929 . S
C538 C537 1.363 . S
C538 C544 1.428 . S
H539 C535 0.930 . S
H540 C537 0.929 . S
S541 N542 1.613 . S
S541 N543 1.610 . S
N542 S541 1.613 . S
N542 C545 1.350 . S
N543 S541 1.610 . S
N543 C544 1.351 . S
C544 C538 1.428 . S
C544 N543 1.351 . S
C544 C545 1.434 . S
C545 C536 1.429 . S
C545 N542 1.350 . S
C545 C544 1.434 . S
C546 C547 1.369 . S
C546 C548 1.419 . S
C546 H550 0.930 . S
C547 C546 1.369 . S
C547 C556 1.429 . S
C548 C546 1.419 . S
C548 C549 1.363 . S
C548 H551 0.929 1_556 S
C549 C548 1.363 . S
C549 C555 1.428 . S
H550 C546 0.930 . S
H551 C548 0.929 1_554 S
S552 N553 1.613 . S
S552 N554 1.610 . S
N553 S552 1.613 . S
N553 C556 1.350 . S
N554 S552 1.610 . S
N554 C555 1.351 . S
C555 C549 1.428 . S
C555 N554 1.351 . S
C555 C556 1.434 . S
C556 C547 1.429 . S
C556 N553 1.350 . S
C556 C555 1.434 . S
C557 C558 1.369 . S
C557 C559 1.419 . S
C557 H561 0.930 . S
C558 C557 1.369 . S
C558 C567 1.429 . S
C559 C557 1.419 . S
C559 C560 1.363 . S
C559 H562 0.929 . S
C560 C559 1.363 . S
C560 C566 1.428 . S
H561 C557 0.930 . S
H562 C559 0.929 . S
S563 N564 1.613 . S
S563 N565 1.610 . S
N564 S563 1.613 . S
N564 C567 1.350 . S
N565 S563 1.610 . S
N565 C566 1.351 . S
C566 C560 1.428 . S
C566 N565 1.351 . S
C566 C567 1.434 . S
C567 C558 1.429 . S
C567 N564 1.350 . S
C567 C566 1.434 . S
C568 C569 1.369 . S
C568 C570 1.419 . S
C568 H572 0.930 . S
C569 C568 1.369 . S
C569 C578 1.429 . S
C570 C568 1.419 . S
C570 C571 1.363 . S
C570 H573 0.929 . S
C571 C570 1.363 . S
C571 C577 1.428 . S
H572 C568 0.930 . S
H573 C570 0.929 . S
S574 N575 1.613 . S
S574 N576 1.610 . S
N575 S574 1.613 . S
N575 C578 1.350 . S
N576 S574 1.610 . S
N576 C577 1.351 . S
C577 C571 1.428 . S
C577 N576 1.351 . S
C577 C578 1.434 . S
C578 C569 1.429 . S
C578 N575 1.350 . S
C578 C577 1.434 . S
C579 C580 1.369 . S
C579 C581 1.419 . S
C579 H583 0.930 . S
C580 C579 1.369 . S
C580 C589 1.429 . S
C581 C579 1.419 . S
C581 C582 1.363 . S
C581 H584 0.929 . S
C582 C581 1.363 . S
C582 C588 1.428 . S
H583 C579 0.930 . S
H584 C581 0.929 . S
S585 N586 1.613 1_655 S
S585 N587 1.610 . S
N586 S585 1.613 1_455 S
N586 C589 1.350 . S
N587 S585 1.610 . S
N587 C588 1.351 1_655 S
C588 C582 1.428 . S
C588 N587 1.351 1_455 S
C588 C589 1.434 . S
C589 C580 1.429 . S
C589 N586 1.350 . S
C589 C588 1.434 . S
C590 C591 1.369 . S
C590 C592 1.419 . S
C590 H594 0.930 . S
C591 C590 1.369 . S
C591 C600 1.429 . S
C592 C590 1.419 . S
C592 C593 1.363 . S
C592 H595 0.929 . S
C593 C592 1.363 . S
C593 C599 1.428 . S
H594 C590 0.930 . S
H595 C592 0.929 . S
S596 N597 1.613 . S
S596 N598 1.610 . S
N597 S596 1.613 . S
N597 C600 1.350 . S
N598 S596 1.610 . S
N598 C599 1.351 . S
C599 C593 1.428 . S
C599 N598 1.351 . S
C599 C600 1.434 . S
C600 C591 1.429 . S
C600 N597 1.350 . S
C600 C599 1.434 . S
C601 C602 1.369 . S
C601 C603 1.419 . S
C601 H605 0.930 . S
C602 C601 1.369 . S
C602 C611 1.429 . S
C603 C601 1.419 . S
C603 C604 1.363 . S
C603 H606 0.929 . S
C604 C603 1.363 . S
C604 C610 1.428 . S
H605 C601 0.930 . S
H606 C603 0.929 . S
S607 N608 1.613 . S
S607 N609 1.610 . S
N608 S607 1.613 . S
N608 C611 1.350 . S
N609 S607 1.610 . S
N609 C610 1.351 . S
C610 C604 1.428 . S
C610 N609 1.351 . S
C610 C611 1.434 . S
C611 C602 1.429 . S
C611 N608 1.350 . S
C611 C610 1.434 . S
C612 C613 1.369 . S
C612 C614 1.419 . S
C612 H616 0.930 . S
C613 C612 1.369 . S
C613 C622 1.429 . S
C614 C612 1.419 . S
C614 C615 1.363 . S
C614 H617 0.929 . S
C615 C614 1.363 . S
C615 C621 1.428 . S
H616 C612 0.930 . S
H617 C614 0.929 . S
S618 N619 1.613 . S
S618 N620 1.610 . S
N619 S618 1.613 . S
N619 C622 1.350 . S
N620 S618 1.610 . S
N620 C621 1.351 . S
C621 C615 1.428 . S
C621 N620 1.351 . S
C621 C622 1.434 . S
C622 C613 1.429 . S
C622 N619 1.350 . S
C622 C621 1.434 . S
C623 C624 1.369 . S
C623 C625 1.419 . S
C623 H627 0.930 . S
C624 C623 1.369 . S
C624 C633 1.429 . S
C625 C623 1.419 . S
C625 C626 1.363 . S
C625 H628 0.929 . S
C626 C625 1.363 . S
C626 C632 1.428 . S
H627 C623 0.930 . S
H628 C625 0.929 . S
S629 N630 1.613 . S
S629 N631 1.610 . S
N630 S629 1.613 . S
N630 C633 1.350 1_545 S
N631 S629 1.610 . S
N631 C632 1.351 1_545 S
C632 C626 1.428 . S
C632 N631 1.351 1_565 S
C632 C633 1.434 . S
C633 C624 1.429 . S
C633 N630 1.350 1_565 S
C633 C632 1.434 . S
C634 C635 1.369 . S
C634 C636 1.419 . S
C634 H638 0.930 . S
C635 C634 1.369 . S
C635 C644 1.429 . S
C636 C634 1.419 . S
C636 C637 1.363 . S
C636 H639 0.929 . S
C637 C636 1.363 . S
C637 C643 1.428 . S
H638 C634 0.930 . S
H639 C636 0.929 . S
S640 N641 1.613 . S
S640 N642 1.610 . S
N641 S640 1.613 . S
N641 C644 1.350 . S
N642 S640 1.610 . S
N642 C643 1.351 . S
C643 C637 1.428 . S
C643 N642 1.351 . S
C643 C644 1.434 . S
C644 C635 1.429 . S
C644 N641 1.350 . S
C644 C643 1.434 . S
C645 C646 1.369 1_556 S
C645 C647 1.419 . S
C645 H649 0.930 1_556 S
C646 C645 1.369 1_554 S
C646 C655 1.429 1_554 S
C647 C645 1.419 . S
C647 C648 1.363 . S
C647 H650 0.929 . S
C648 C647 1.363 . S
C648 C654 1.428 . S
H649 C645 0.930 1_554 S
H650 C647 0.929 . S
S651 N652 1.613 1_556 S
S651 N653 1.610 . S
N652 S651 1.613 1_554 S
N652 C655 1.350 1_554 S
N653 S651 1.610 . S
N653 C654 1.351 . S
C654 C648 1.428 . S
C654 N653 1.351 . S
C654 C655 1.434 . S
C655 C646 1.429 1_556 S
C655 N652 1.350 1_556 S
C655 C654 1.434 . S
C656 C657 1.369 . S
C656 C658 1.419 . S
C656 H660 0.930 . S
C657 C656 1.369 . S
C657 C666 1.429 . S
C658 C656 1.419 . S
C658 C659 1.363 . S
C658 H661 0.929 . S
C659 C658 1.363 . S
C659 C665 1.428 . S
H660 C656 0.930 . S
H661 C658 0.929 . S
S662 N663 1.613 . S
S662 N664 1.610 . S
N663 S662 1.613 . S
N663 C666 1.350 . S
N664 S662 1.610 . S
N664 C665 1.351 . S
C665 C659 1.428 . S
C665 N664 1.351 . S
C665 C666 1.434 . S
C666 C657 1.429 . S
C666 N663 1.350 . S
C666 C665 1.434 . S
C667 C668 1.378 . S
C667 C669 1.419 . S
C667 H671 0.930 . S
C668 C667 1.378 . S
C668 C677 1.440 . S
C669 C667 1.419 . S
C669 C670 1.363 . S
C669 H672 0.929 . S
C670 C669 1.363 . S
C670 C676 1.428 . S
H671 C667 0.930 . S
H672 C669 0.929 . S
S673 N674 1.613 . S
S673 N675 1.610 . S
N674 S673 1.613 . S
N674 C677 1.350 . S
N675 S673 1.610 . S
N675 C676 1.351 . S
C676 C670 1.428 . S
C676 N675 1.351 . S
C676 C677 1.434 . S
C677 C668 1.440 . S
C677 N674 1.350 . S
C677 C676 1.434 . S
C678 C679 1.369 . S
C678 C680 1.419 . S
C678 H682 0.930 . S
C679 C678 1.369 . S
C679 C688 1.429 . S
C680 C678 1.419 . S
C680 C681 1.363 . S
C680 H683 0.929 . S
C681 C680 1.363 . S
C681 C687 1.428 . S
H682 C678 0.930 . S
H683 C680 0.929 . S
S684 N685 1.613 . S
S684 N686 1.610 . S
N685 S684 1.613 . S
N685 C688 1.350 . S
N686 S684 1.610 . S
N686 C687 1.351 . S
C687 C681 1.428 . S
C687 N686 1.351 . S
C687 C688 1.434 . S
C688 C679 1.429 . S
C688 N685 1.350 . S
C688 C687 1.434 . S
C689 C690 1.369 . S
C689 C691 1.419 . S
C689 H693 0.930 . S
C690 C689 1.369 . S
C690 C699 1.429 . S
C691 C689 1.419 . S
C691 C692 1.363 . S
C691 H694 0.929 . S
C692 C691 1.363 . S
C692 C698 1.428 . S
H693 C689 0.930 . S
H694 C691 0.929 . S
S695 N696 1.613 . S
S695 N697 1.610 . S
N696 S695 1.613 . S
N696 C699 1.350 . S
N697 S695 1.610 . S
N697 C698 1.351 . S
C698 C692 1.428 . S
C698 N697 1.351 . S
C698 C699 1.434 . S
C699 C690 1.429 . S
C699 N696 1.350 . S
C699 C698 1.434 . S
C700 C701 1.369 . S
C700 C702 1.419 . S
C700 H704 0.930 . S
C701 C700 1.369 . S
C701 C710 1.429 . S
C702 C700 1.419 . S
C702 C703 1.363 . S
C702 H705 0.929 . S
C703 C702 1.363 . S
C703 C709 1.428 . S
H704 C700 0.930 . S
H705 C702 0.929 . S
S706 N707 1.613 . S
S706 N708 1.610 . S
N707 S706 1.613 . S
N707 C710 1.350 . S
N708 S706 1.610 . S
N708 C709 1.351 . S
C709 C703 1.428 . S
C709 N708 1.351 . S
C709 C710 1.434 . S
C710 C701 1.429 . S
C710 N707 1.350 . S
C710 C709 1.434 . S
C711 C712 1.369 . S
C711 C713 1.419 1_545 S
C711 H715 0.930 . S
C712 C711 1.369 . S
C712 C721 1.429 . S
C713 C711 1.419 1_565 S
C713 C714 1.363 . S
C713 H716 0.929 . S
C714 C713 1.363 . S
C714 C720 1.428 1_565 S
H715 C711 0.930 . S
H716 C713 0.929 . S
S717 N718 1.613 . S
S717 N719 1.610 . S
N718 S717 1.613 . S
N718 C721 1.350 1_655 S
N719 S717 1.610 . S
N719 C720 1.351 1_655 S
C720 C714 1.428 1_545 S
C720 N719 1.351 1_455 S
C720 C721 1.434 . S
C721 C712 1.429 . S
C721 N718 1.350 1_455 S
C721 C720 1.434 . S
C722 C723 1.369 . S
C722 C724 1.419 . S
C722 H726 0.930 . S
C723 C722 1.369 . S
C723 C732 1.429 . S
C724 C722 1.419 . S
C724 C725 1.363 . S
C724 H727 0.929 . S
C725 C724 1.363 . S
C725 C731 1.428 . S
H726 C722 0.930 . S
H727 C724 0.929 . S
S728 N729 1.613 . S
S728 N730 1.610 . S
N729 S728 1.613 . S
N729 C732 1.350 1_554 S
N730 S728 1.610 . S
N730 C731 1.351 1_554 S
C731 C725 1.428 . S
C731 N730 1.351 1_556 S
C731 C732 1.434 . S
C732 C723 1.429 . S
C732 N729 1.350 1_556 S
C732 C731 1.434 . S
C733 C734 1.369 . S
C733 C735 1.419 . S
C733 H737 0.930 . S
C734 C733 1.369 . S
C734 C743 1.429 . S
C735 C733 1.419 . S
C735 C736 1.363 1_545 S
C735 H738 0.929 . S
C736 C735 1.363 1_565 S
C736 C742 1.428 . S
H737 C733 0.930 . S
H738 C735 0.929 . S
S739 N740 1.613 1_565 S
S739 N741 1.610 . S
N740 S739 1.613 1_545 S
N740 C743 1.350 . S
N741 S739 1.610 . S
N741 C742 1.351 . S
C742 C736 1.428 . S
C742 N741 1.351 . S
C742 C743 1.434 1_565 S
C743 C734 1.429 . S
C743 N740 1.350 . S
C743 C742 1.434 1_545 S
C744 C745 1.369 . S
C744 C746 1.419 . S
C744 H748 0.930 . S
C745 C744 1.369 . S
C745 C754 1.429 . S
C746 C744 1.419 . S
C746 C747 1.363 . S
C746 H749 0.929 . S
C747 C746 1.363 . S
C747 C753 1.428 . S
H748 C744 0.930 . S
H749 C746 0.929 . S
S750 N751 1.613 . S
S750 N752 1.610 . S
N751 S750 1.613 . S
N751 C754 1.350 . S
N752 S750 1.610 . S
N752 C753 1.351 . S
C753 C747 1.428 . S
C753 N752 1.351 . S
C753 C754 1.434 . S
C754 C745 1.429 . S
C754 N751 1.350 . S
C754 C753 1.434 . S
C755 C756 1.369 . S
C755 C757 1.419 . S
C755 H759 0.930 . S
C756 C755 1.369 . S
C756 C765 1.429 . S
C757 C755 1.419 . S
C757 C758 1.363 . S
C757 H760 0.929 . S
C758 C757 1.363 . S
C758 C764 1.428 . S
H759 C755 0.930 . S
H760 C757 0.929 . S
S761 N762 1.613 . S
S761 N763 1.610 . S
N762 S761 1.613 . S
N762 C765 1.350 . S
N763 S761 1.610 . S
N763 C764 1.351 . S
C764 C758 1.428 . S
C764 N763 1.351 . S
C764 C765 1.434 . S
C765 C756 1.429 . S
C765 N762 1.350 . S
C765 C764 1.434 . S
C766 C767 1.369 . S
C766 C768 1.419 . S
C766 H770 0.930 . S
C767 C766 1.369 . S
C767 C776 1.429 . S
C768 C766 1.419 . S
C768 C769 1.363 . S
C768 H771 0.929 . S
C769 C768 1.363 . S
C769 C775 1.428 . S
H770 C766 0.930 . S
H771 C768 0.929 . S
S772 N773 1.613 . S
S772 N774 1.610 . S
N773 S772 1.613 . S
N773 C776 1.350 . S
N774 S772 1.610 . S
N774 C775 1.351 . S
C775 C769 1.428 . S
C775 N774 1.351 . S
C775 C776 1.434 . S
C776 C767 1.429 . S
C776 N773 1.350 . S
C776 C775 1.434 . S
C777 C778 1.369 . S
C777 C779 1.419 . S
C777 H781 0.930 . S
C778 C777 1.369 . S
C778 C787 1.429 . S
C779 C777 1.419 . S
C779 C780 1.363 . S
C779 H782 0.929 . S
C780 C779 1.363 . S
C780 C786 1.428 . S
H781 C777 0.930 . S
H782 C779 0.929 . S
S783 N784 1.613 . S
S783 N785 1.610 . S
N784 S783 1.613 . S
N784 C787 1.350 . S
N785 S783 1.610 . S
N785 C786 1.351 . S
C786 C780 1.428 . S
C786 N785 1.351 . S
C786 C787 1.434 . S
C787 C778 1.429 . S
C787 N784 1.350 . S
C787 C786 1.434 . S
C788 C789 1.369 . S
C788 C790 1.419 . S
C788 H792 0.930 . S
C789 C788 1.369 . S
C789 C798 1.429 . S
C790 C788 1.419 . S
C790 C791 1.363 . S
C790 H793 0.929 . S
C791 C790 1.363 . S
C791 C797 1.428 . S
H792 C788 0.930 . S
H793 C790 0.929 . S
S794 N795 1.613 . S
S794 N796 1.610 . S
N795 S794 1.613 . S
N795 C798 1.350 . S
N796 S794 1.610 . S
N796 C797 1.351 . S
C797 C791 1.428 . S
C797 N796 1.351 . S
C797 C798 1.434 . S
C798 C789 1.429 . S
C798 N795 1.350 . S
C798 C797 1.434 . S
C799 C800 1.369 . S
C799 C801 1.419 . S
C799 H803 0.930 . S
C800 C799 1.369 . S
C800 C809 1.429 . S
C801 C799 1.419 . S
C801 C802 1.363 . S
C801 H804 0.929 . S
C802 C801 1.363 . S
C802 C808 1.428 . S
H803 C799 0.930 . S
H804 C801 0.929 . S
S805 N806 1.613 . S
S805 N807 1.610 . S
N806 S805 1.613 . S
N806 C809 1.350 . S
N807 S805 1.610 . S
N807 C808 1.351 . S
C808 C802 1.428 . S
C808 N807 1.351 . S
C808 C809 1.434 . S
C809 C800 1.429 . S
C809 N806 1.350 . S
C809 C808 1.434 . S
C810 C811 1.369 . S
C810 C812 1.419 1_455 S
C810 H814 0.930 . S
C811 C810 1.369 . S
C811 C820 1.429 1_455 S
C812 C810 1.419 1_655 S
C812 C813 1.363 . S
C812 H815 0.929 . S
C813 C812 1.363 . S
C813 C819 1.428 . S
H814 C810 0.930 . S
H815 C812 0.929 . S
S816 N817 1.613 1_655 S
S816 N818 1.610 . S
N817 S816 1.613 1_455 S
N817 C820 1.350 1_455 S
N818 S816 1.610 . S
N818 C819 1.351 . S
C819 C813 1.428 . S
C819 N818 1.351 . S
C819 C820 1.434 . S
C820 C811 1.429 1_655 S
C820 N817 1.350 1_655 S
C820 C819 1.434 . S
C821 C822 1.369 . S
C821 C823 1.419 . S
C821 H825 0.930 . S
C822 C821 1.369 . S
C822 C831 1.429 . S
C823 C821 1.419 . S
C823 C824 1.363 . S
C823 H826 0.929 . S
C824 C823 1.363 . S
C824 C830 1.428 . S
H825 C821 0.930 . S
H826 C823 0.929 . S
S827 N828 1.613 . S
S827 N829 1.610 . S
N828 S827 1.613 . S
N828 C831 1.350 . S
N829 S827 1.610 . S
N829 C830 1.351 . S
C830 C824 1.428 . S
C830 N829 1.351 . S
C830 C831 1.434 . S
C831 C822 1.429 . S
C831 N828 1.350 . S
C831 C830 1.434 . S
C832 C833 1.369 . S
C832 C834 1.419 . S
C832 H836 0.930 . S
C833 C832 1.369 . S
C833 C842 1.429 . S
C834 C832 1.419 . S
C834 C835 1.363 . S
C834 H837 0.929 . S
C835 C834 1.363 . S
C835 C841 1.428 . S
H836 C832 0.930 . S
H837 C834 0.929 . S
S838 N839 1.613 . S
S838 N840 1.610 . S
N839 S838 1.613 . S
N839 C842 1.350 . S
N840 S838 1.610 . S
N840 C841 1.351 . S
C841 C835 1.428 . S
C841 N840 1.351 . S
C841 C842 1.434 . S
C842 C833 1.429 . S
C842 N839 1.350 . S
C842 C841 1.434 . S
C843 C844 1.369 . S
C843 C845 1.419 . S
C843 H847 0.930 . S
C844 C843 1.369 . S
C844 C853 1.429 . S
C845 C843 1.419 . S
C845 C846 1.363 . S
C845 H848 0.929 . S
C846 C845 1.363 . S
C846 C852 1.428 . S
H847 C843 0.930 . S
H848 C845 0.929 . S
S849 N850 1.613 . S
S849 N851 1.610 . S
N850 S849 1.613 . S
N850 C853 1.350 . S
N851 S849 1.610 . S
N851 C852 1.351 . S
C852 C846 1.428 . S
C852 N851 1.351 . S
C852 C853 1.434 . S
C853 C844 1.429 . S
C853 N850 1.350 . S
C853 C852 1.434 . S
C854 C855 1.369 . S
C854 C856 1.419 . S
C854 H858 0.930 1_556 S
C855 C854 1.369 . S
C855 C864 1.429 . S
C856 C854 1.419 . S
C856 C857 1.363 . S
C856 H859 0.929 . S
C857 C856 1.363 . S
C857 C863 1.428 . S
H858 C854 0.930 1_554 S
H859 C856 0.929 . S
S860 N861 1.613 . S
S860 N862 1.610 . S
N861 S860 1.613 . S
N861 C864 1.350 . S
N862 S860 1.610 . S
N862 C863 1.351 . S
C863 C857 1.428 . S
C863 N862 1.351 . S
C863 C864 1.434 . S
C864 C855 1.429 . S
C864 N861 1.350 . S
C864 C863 1.434 . S
C865 C866 1.369 . S
C865 C867 1.419 . S
C865 H869 0.930 . S
C866 C865 1.369 . S
C866 C875 1.429 . S
C867 C865 1.419 . S
C867 C868 1.363 1_655 S
C867 H870 0.929 1_655 S
C868 C867 1.363 1_455 S
C868 C874 1.428 . S
H869 C865 0.930 . S
H870 C867 0.929 1_455 S
S871 N872 1.613 1_455 S
S871 N873 1.610 . S
N872 S871 1.613 1_655 S
N872 C875 1.350 . S
N873 S871 1.610 . S
N873 C874 1.351 . S
C874 C868 1.428 . S
C874 N873 1.351 . S
C874 C875 1.434 1_455 S
C875 C866 1.429 . S
C875 N872 1.350 . S
C875 C874 1.434 1_655 S
C481 C3 1.655 . S
C483 C443 1.641 . S
C492 C375 1.864 . S
C494 C55 1.882 . S
C503 C83 1.737 . S
C505 C335 1.804 . S
C514 C135 1.853 . S
C516 C415 1.832 . S
C525 C163 1.967 . S
C527 C403 1.958 . S
C536 C203 1.568 . S
C538 C455 1.635 . S
C547 C363 2.102 . S
C549 C255 2.137 . S
C558 C283 1.609 . S
C560 C323 1.609 . S
C569 C123 1.560 . S
C571 C175 1.604 . S
C580 C15 1.666 . S
C582 C215 1.686 . S
C591 C43 1.857 . S
C593 C243 1.848 . S
C602 C295 1.989 . S
C604 C95 1.997 . S
C613 C26 1.938 . S
C615 C322 1.900 . S
C624 C49 1.072 . S
C626 C402 1.037 . S
C635 C462 2.464 . S
C637 C106 2.359 . S
C646 C129 1.506 . S
C648 C362 1.404 . S
C657 C186 1.734 . S
C659 C382 1.789 . S
C668 C342 2.242 1_556 S
C670 C226 2.139 . S
C679 C422 1.516 . S
C681 C249 1.515 . S
C690 C442 1.432 . S
C692 C306 1.459 . S
C701 C2 2.180 . S
C703 C146 2.172 . S
C712 C9 2.005 . S
C714 C62 1.956 . S
C723 C66 1.868 . S
C725 C82 1.852 . S
C734 C142 2.003 . S
C736 C89 2.065 . S
C745 C209 1.156 . S
C747 C162 1.082 . S
C756 C202 1.695 . S
C758 C266 1.691 . S
C767 C262 1.110 . S
C769 C289 1.116 . S
C778 C169 1.591 . S
C780 C282 1.474 . S
C789 C346 2.210 . S
C791 C122 2.219 . S
C800 C222 2.180 . S
C802 C369 2.236 . S
C811 C329 1.486 . S
C813 C242 1.412 . S
C822 C409 1.595 . S
C824 C302 1.562 . S
C833 C182 2.199 . S
C835 C466 2.090 . S
C844 C449 1.363 . S
C846 C42 1.272 . S
C855 C102 2.083 . S
C857 C386 2.020 . S
C866 C426 1.814 . S
C868 C22 1.870 . S
