# Generated by pormake.
# Topology umh, (4)-cn, num edge types: 1
# Building blocks:
#     Node 0, Type 0, BuildingBlock: NAWXER_clean_sbu_0, # of connection points: 4
#     Node 1, Type 0, BuildingBlock: NAWXER_clean_sbu_0, # of connection points: 4
#     Node 2, Type 0, BuildingBlock: NAWXER_clean_sbu_0, # of connection points: 4
#     Node 3, Type 0, BuildingBlock: NAWXER_clean_sbu_0, # of connection points: 4
#     Node 4, Type 0, BuildingBlock: NAWXER_clean_sbu_0, # of connection points: 4
#     Node 5, Type 0, BuildingBlock: NAWXER_clean_sbu_0, # of connection points: 4
#     Node 6, Type 0, BuildingBlock: NAWXER_clean_sbu_0, # of connection points: 4
#     Node 7, Type 0, BuildingBlock: NAWXER_clean_sbu_0, # of connection points: 4
#     Node 8, Type 0, BuildingBlock: NAWXER_clean_sbu_0, # of connection points: 4
#     Node 9, Type 0, BuildingBlock: NAWXER_clean_sbu_0, # of connection points: 4
#     Node 10, Type 0, BuildingBlock: NAWXER_clean_sbu_0, # of connection points: 4
#     Node 11, Type 0, BuildingBlock: NAWXER_clean_sbu_0, # of connection points: 4
#     Node 12, Type 0, BuildingBlock: NAWXER_clean_sbu_0, # of connection points: 4
#     Node 13, Type 0, BuildingBlock: NAWXER_clean_sbu_0, # of connection points: 4
#     Node 14, Type 0, BuildingBlock: NAWXER_clean_sbu_0, # of connection points: 4
#     Node 15, Type 0, BuildingBlock: NAWXER_clean_sbu_0, # of connection points: 4
#     Edge 16, Type (0, 0), BuildingBlock: AJUNOK_clean_linker_0, # of connection points: 2
#     Edge 17, Type (0, 0), BuildingBlock: AJUNOK_clean_linker_0, # of connection points: 2
#     Edge 18, Type (0, 0), BuildingBlock: AJUNOK_clean_linker_0, # of connection points: 2
#     Edge 19, Type (0, 0), BuildingBlock: AJUNOK_clean_linker_0, # of connection points: 2
#     Edge 20, Type (0, 0), BuildingBlock: AJUNOK_clean_linker_0, # of connection points: 2
#     Edge 21, Type (0, 0), BuildingBlock: AJUNOK_clean_linker_0, # of connection points: 2
#     Edge 22, Type (0, 0), BuildingBlock: AJUNOK_clean_linker_0, # of connection points: 2
#     Edge 23, Type (0, 0), BuildingBlock: AJUNOK_clean_linker_0, # of connection points: 2
#     Edge 24, Type (0, 0), BuildingBlock: AJUNOK_clean_linker_0, # of connection points: 2
#     Edge 25, Type (0, 0), BuildingBlock: AJUNOK_clean_linker_0, # of connection points: 2
#     Edge 26, Type (0, 0), BuildingBlock: AJUNOK_clean_linker_0, # of connection points: 2
#     Edge 27, Type (0, 0), BuildingBlock: AJUNOK_clean_linker_0, # of connection points: 2
#     Edge 28, Type (0, 0), BuildingBlock: AJUNOK_clean_linker_0, # of connection points: 2
#     Edge 29, Type (0, 0), BuildingBlock: AJUNOK_clean_linker_0, # of connection points: 2
#     Edge 30, Type (0, 0), BuildingBlock: AJUNOK_clean_linker_0, # of connection points: 2
#     Edge 31, Type (0, 0), BuildingBlock: AJUNOK_clean_linker_0, # of connection points: 2
#     Edge 32, Type (0, 0), BuildingBlock: AJUNOK_clean_linker_0, # of connection points: 2
#     Edge 33, Type (0, 0), BuildingBlock: AJUNOK_clean_linker_0, # of connection points: 2
#     Edge 34, Type (0, 0), BuildingBlock: AJUNOK_clean_linker_0, # of connection points: 2
#     Edge 35, Type (0, 0), BuildingBlock: AJUNOK_clean_linker_0, # of connection points: 2
#     Edge 36, Type (0, 0), BuildingBlock: AJUNOK_clean_linker_0, # of connection points: 2
#     Edge 37, Type (0, 0), BuildingBlock: AJUNOK_clean_linker_0, # of connection points: 2
#     Edge 38, Type (0, 0), BuildingBlock: AJUNOK_clean_linker_0, # of connection points: 2
#     Edge 39, Type (0, 0), BuildingBlock: AJUNOK_clean_linker_0, # of connection points: 2
#     Edge 40, Type (0, 0), BuildingBlock: AJUNOK_clean_linker_0, # of connection points: 2
#     Edge 41, Type (0, 0), BuildingBlock: AJUNOK_clean_linker_0, # of connection points: 2
#     Edge 42, Type (0, 0), BuildingBlock: AJUNOK_clean_linker_0, # of connection points: 2
#     Edge 43, Type (0, 0), BuildingBlock: AJUNOK_clean_linker_0, # of connection points: 2
#     Edge 44, Type (0, 0), BuildingBlock: AJUNOK_clean_linker_0, # of connection points: 2
#     Edge 45, Type (0, 0), BuildingBlock: AJUNOK_clean_linker_0, # of connection points: 2
#     Edge 46, Type (0, 0), BuildingBlock: AJUNOK_clean_linker_0, # of connection points: 2
#     Edge 47, Type (0, 0), BuildingBlock: AJUNOK_clean_linker_0, # of connection points: 2
# Relax obj value: 0.044
# Max RMSD: 0.109
# Mean RMSD: 0.109
data_MOF--net-umh--node1-NAWXER_clean_sbu_0--edge1-AJUNOK_clean_linker_0
_symmetry_space_group_name_H-M    P1
_symmetry_Int_Tables_number       1
_symmetry_cell_setting            triclinic
loop_
_symmetry_equiv_pos_as_xyz
'x, y, z'
_cell_length_a     30.279439
_cell_length_b     30.278846
_cell_length_c     38.51736
_cell_angle_alpha  90.085331
_cell_angle_beta   90.054292
_cell_angle_gamma 89.973616
loop_
_atom_site_label
_atom_site_type_symbol
_atom_site_fract_x
_atom_site_fract_y
_atom_site_fract_z
_atom_type_partial_charge
C0 C 0.35168 0.10273 0.10612 0.0
C1 C 0.29072 0.05269 0.21708 0.0
O2 O 0.37037 0.12052 0.13251 0.0
Zn3 Zn 0.3661 0.11811 0.18782 0.0
O4 O 0.32095 0.07481 0.11099 0.0
Zn5 Zn 0.32029 0.07605 0.16137 0.0
O6 O 0.29591 0.14052 0.17284 0.0
O7 O 0.34827 0.17816 0.19944 0.0
O8 O 0.27796 0.04085 0.18698 0.0
O9 O 0.32255 0.08032 0.22034 0.0
O10 O 0.42413 0.09569 0.20098 0.0
O11 O 0.38177 0.04603 0.17536 0.0
C12 C 0.30911 0.17614 0.18748 0.0
C13 C 0.41825 0.05637 0.19023 0.0
C14 C 0.44929 0.2919 0.71971 0.0
C15 C 0.40272 0.34453 0.60524 0.0
O16 O 0.41985 0.32234 0.72099 0.0
Zn17 Zn 0.38187 0.36239 0.68569 0.0
O18 O 0.46338 0.27821 0.69049 0.0
Zn19 Zn 0.42757 0.31731 0.66244 0.0
O20 O 0.45391 0.38053 0.67588 0.0
O21 O 0.40095 0.42197 0.69806 0.0
O22 O 0.43172 0.31553 0.61225 0.0
O23 O 0.38247 0.36382 0.63022 0.0
O24 O 0.32207 0.34225 0.69555 0.0
O25 O 0.36391 0.29027 0.67254 0.0
C26 C 0.44118 0.41714 0.68931 0.0
C27 C 0.32692 0.30251 0.68541 0.0
C28 C 0.1962 0.44309 0.22409 0.0
C29 C 0.14431 0.40026 0.10837 0.0
O30 O 0.16525 0.41414 0.22469 0.0
Zn31 Zn 0.12476 0.37783 0.18829 0.0
O32 O 0.21014 0.45772 0.19514 0.0
Zn33 Zn 0.17101 0.42307 0.16632 0.0
O34 O 0.10822 0.45043 0.17908 0.0
O35 O 0.06537 0.39806 0.20023 0.0
O36 O 0.17381 0.4283 0.1164 0.0
O37 O 0.12411 0.37962 0.13266 0.0
O38 O 0.14354 0.31737 0.19766 0.0
O39 O 0.19672 0.3588 0.17608 0.0
C40 C 0.07113 0.43829 0.19188 0.0
C41 C 0.18361 0.3218 0.18832 0.0
C42 C 0.06048 0.06848 0.68421 0.0
C43 C 0.18157 0.17662 0.68329 0.0
O44 O 0.05024 0.10628 0.67172 0.0
Zn45 Zn 0.07882 0.16897 0.66214 0.0
O46 O 0.09909 0.06232 0.69634 0.0
Zn47 Zn 0.12271 0.12074 0.68488 0.0
O48 O 0.09127 0.16401 0.72069 0.0
O49 O 0.0458 0.20869 0.69281 0.0
O50 O 0.18414 0.13668 0.69355 0.0
O51 O 0.1449 0.19116 0.67123 0.0
O52 O 0.07498 0.17273 0.61161 0.0
O53 O 0.12114 0.12133 0.62952 0.0
C54 C 0.0635 0.1959 0.72105 0.0
C55 C 0.10235 0.14203 0.60457 0.0
C56 C 0.29162 0.44194 0.35223 0.0
C57 C 0.35225 0.39164 0.46337 0.0
O58 O 0.32294 0.41369 0.34904 0.0
Zn59 Zn 0.36617 0.37543 0.38176 0.0
O60 O 0.27977 0.45479 0.38231 0.0
Zn61 Zn 0.32124 0.41876 0.408 0.0
O62 O 0.38297 0.44735 0.39377 0.0
O63 O 0.42452 0.39682 0.3684 0.0
O64 O 0.322 0.42006 0.45839 0.0
O65 O 0.37055 0.37333 0.43706 0.0
O66 O 0.34709 0.31564 0.37039 0.0
O67 O 0.29533 0.35516 0.39615 0.0
C68 C 0.41918 0.43632 0.3789 0.0
C69 C 0.30768 0.31924 0.38155 0.0
C70 C 0.06324 0.42702 0.87874 0.0
C71 C 0.1822 0.31747 0.8869 0.0
O72 O 0.05169 0.38996 0.89186 0.0
Zn73 Zn 0.07933 0.32829 0.90617 0.0
O74 O 0.10353 0.43367 0.87099 0.0
Zn75 Zn 0.12544 0.37534 0.88439 0.0
O76 O 0.09394 0.33198 0.84836 0.0
O77 O 0.04729 0.28769 0.87546 0.0
O78 O 0.18668 0.35743 0.87714 0.0
O79 O 0.14486 0.30422 0.89845 0.0
O80 O 0.07333 0.32714 0.95679 0.0
O81 O 0.12162 0.37653 0.93928 0.0
C82 C 0.06614 0.30011 0.84756 0.0
C83 C 0.10123 0.35723 0.96405 0.0
C84 C 0.06923 0.0576 0.37931 0.0
C85 C 0.18126 0.17471 0.37986 0.0
O86 O 0.10659 0.04587 0.39197 0.0
Zn87 Zn 0.16992 0.07347 0.40273 0.0
O88 O 0.06409 0.09714 0.36895 0.0
Zn89 Zn 0.12353 0.1177 0.38007 0.0
O90 O 0.16415 0.08116 0.34401 0.0
O91 O 0.20869 0.03811 0.37427 0.0
O92 O 0.14135 0.17801 0.36979 0.0
O93 O 0.19492 0.13807 0.39249 0.0
O94 O 0.17402 0.06939 0.45253 0.0
O95 O 0.12378 0.1175 0.43598 0.0
C96 C 0.19533 0.05245 0.34507 0.0
C97 C 0.14459 0.09759 0.4604 0.0
C98 C 0.32654 0.19035 0.88439 0.0
C99 C 0.44152 0.07622 0.88238 0.0
O100 O 0.36329 0.20311 0.89744 0.0
Zn101 Zn 0.42748 0.17678 0.90745 0.0
O102 O 0.3228 0.15082 0.87349 0.0
Zn103 Zn 0.38254 0.13153 0.88376 0.0
O104 O 0.38256 0.1305 0.9394 0.0
O105 O 0.43125 0.1793 0.95759 0.0
O106 O 0.4019 0.07204 0.87188 0.0
O107 O 0.45393 0.11304 0.89568 0.0
O108 O 0.46343 0.21562 0.87931 0.0
O109 O 0.42009 0.17169 0.84862 0.0
C110 C 0.40241 0.15011 0.96447 0.0
C111 C 0.44922 0.20237 0.84999 0.0
C112 C 0.64405 0.8918 0.96378 0.0
C113 C 0.7018 0.94091 0.85122 0.0
O114 O 0.6748 0.91957 0.95838 0.0
Zn115 Zn 0.67399 0.91807 0.90792 0.0
O116 O 0.6247 0.87392 0.93772 0.0
Zn117 Zn 0.62755 0.87569 0.88225 0.0
O118 O 0.645 0.81547 0.87089 0.0
O119 O 0.69781 0.85349 0.89662 0.0
O120 O 0.67002 0.91311 0.84879 0.0
O121 O 0.71532 0.95318 0.88101 0.0
O122 O 0.61175 0.94741 0.89564 0.0
O123 O 0.56925 0.89803 0.86998 0.0
C124 C 0.68433 0.81767 0.88247 0.0
C125 C 0.57481 0.93704 0.8815 0.0
C126 C 0.59435 0.64431 0.46412 0.0
C127 C 0.54941 0.69926 0.34991 0.0
O128 O 0.56596 0.67381 0.45693 0.0
Zn129 Zn 0.56986 0.67171 0.40687 0.0
O130 O 0.61421 0.62442 0.4392 0.0
Zn131 Zn 0.61435 0.62588 0.3835 0.0
O132 O 0.67463 0.64413 0.37335 0.0
O133 O 0.63403 0.69722 0.3963 0.0
O134 O 0.57783 0.66786 0.34822 0.0
O135 O 0.53502 0.71194 0.37932 0.0
O136 O 0.54188 0.60937 0.39343 0.0
O137 O 0.59375 0.56693 0.37092 0.0
C138 C 0.67057 0.68409 0.38319 0.0
C139 C 0.55372 0.57256 0.37987 0.0
C140 C 0.81007 0.67251 0.88295 0.0
C141 C 0.92414 0.55836 0.87879 0.0
O142 O 0.84998 0.6773 0.87333 0.0
Zn143 Zn 0.86919 0.61734 0.88286 0.0
O144 O 0.79745 0.63551 0.89553 0.0
Zn145 Zn 0.82439 0.57152 0.90535 0.0
O146 O 0.82201 0.56648 0.95538 0.0
O147 O 0.87028 0.61625 0.93862 0.0
O148 O 0.88755 0.54521 0.89191 0.0
O149 O 0.92872 0.5987 0.87043 0.0
O150 O 0.82817 0.58067 0.84678 0.0
O151 O 0.78513 0.53629 0.87722 0.0
C152 C 0.85071 0.59544 0.96315 0.0
C153 C 0.79742 0.55152 0.84801 0.0
C154 C 0.81542 0.81004 0.38177 0.0
C155 C 0.93268 0.92167 0.38069 0.0
O156 O 0.81257 0.84944 0.37052 0.0
Zn157 Zn 0.87251 0.86759 0.38161 0.0
O158 O 0.8516 0.79691 0.39557 0.0
Zn159 Zn 0.91602 0.82196 0.40654 0.0
O160 O 0.91818 0.82036 0.45697 0.0
O161 O 0.87102 0.8696 0.43724 0.0
O162 O 0.94405 0.88487 0.39451 0.0
O163 O 0.89341 0.92643 0.36955 0.0
O164 O 0.90992 0.82572 0.3474 0.0
O165 O 0.95169 0.78165 0.37917 0.0
C166 C 0.88962 0.85022 0.46295 0.0
C167 C 0.93829 0.79437 0.34949 0.0
C168 C 0.70107 0.55158 0.71984 0.0
C169 C 0.64256 0.59866 0.60689 0.0
O170 O 0.71417 0.5384 0.69017 0.0
Zn171 Zn 0.67263 0.57301 0.66313 0.0
O172 O 0.66932 0.57952 0.72202 0.0
Zn173 Zn 0.62649 0.61641 0.6881 0.0
O174 O 0.56807 0.5946 0.70082 0.0
O175 O 0.61086 0.54392 0.67693 0.0
O176 O 0.62352 0.61721 0.63277 0.0
O177 O 0.673 0.57063 0.6126 0.0
O178 O 0.69724 0.63732 0.67428 0.0
O179 O 0.64446 0.67677 0.69879 0.0
C180 C 0.57413 0.5549 0.69104 0.0
C181 C 0.68411 0.67344 0.68813 0.0
C182 C 0.93921 0.6997 0.22076 0.0
C183 C 0.8934 0.64242 0.10692 0.0
O184 O 0.9524 0.7132 0.19125 0.0
Zn185 Zn 0.9178 0.67214 0.16364 0.0
O186 O 0.91105 0.66815 0.22253 0.0
Zn187 Zn 0.87427 0.62605 0.18794 0.0
O188 O 0.89525 0.56745 0.20067 0.0
O189 O 0.94654 0.60993 0.17741 0.0
O190 O 0.87431 0.62326 0.13246 0.0
O191 O 0.92131 0.6728 0.11317 0.0
O192 O 0.85302 0.69685 0.17376 0.0
O193 O 0.81406 0.64395 0.19825 0.0
C194 C 0.9351 0.57321 0.1913 0.0
C195 C 0.81674 0.68343 0.18716 0.0
C196 C 0.84397 0.8954 0.60643 0.0
C197 C 0.79515 0.94232 0.72205 0.0
O198 O 0.81422 0.9234 0.6141 0.0
Zn199 Zn 0.81951 0.92038 0.66403 0.0
O200 O 0.86518 0.87617 0.63101 0.0
Zn201 Zn 0.86626 0.87675 0.68706 0.0
O202 O 0.84875 0.81663 0.69801 0.0
O203 O 0.79482 0.85585 0.67507 0.0
O204 O 0.82632 0.91364 0.72305 0.0
O205 O 0.7815 0.95638 0.69286 0.0
O206 O 0.88373 0.94746 0.67247 0.0
O207 O 0.92594 0.8973 0.6974 0.0
C208 C 0.80876 0.81951 0.68806 0.0
C209 C 0.92128 0.93584 0.68484 0.0
C210 C 0.5529 0.91957 0.18955 0.0
C211 C 0.6708 0.80851 0.18707 0.0
O212 O 0.59289 0.92557 0.19855 0.0
Zn213 Zn 0.61412 0.86654 0.18665 0.0
O214 O 0.54139 0.88243 0.17635 0.0
Zn215 Zn 0.56978 0.81995 0.16363 0.0
O216 O 0.53542 0.7799 0.19191 0.0
O217 O 0.57785 0.82526 0.22221 0.0
O218 O 0.63421 0.79513 0.17419 0.0
O219 O 0.67464 0.84853 0.19683 0.0
O220 O 0.61386 0.86704 0.13108 0.0
O221 O 0.56599 0.81719 0.11346 0.0
C222 C 0.54951 0.7938 0.22109 0.0
C223 C 0.59428 0.84675 0.10622 0.0
C224 C 0.35746 0.10723 1.00744 0.0
C225 C 0.39087 0.13857 1.00094 0.0
C226 C 0.34519 0.0958 0.04136 0.0
C227 C 0.36578 0.11514 0.07039 0.0
H228 H 0.3403 0.09133 0.98614 0.0
H229 H 0.31919 0.07163 0.04475 0.0
S230 S 0.45576 0.19871 0.06781 0.0
N231 N 0.4447 0.1885 1.02662 0.0
N232 N 0.42183 0.16714 0.09027 0.0
C233 C 0.39948 0.1464 0.06432 0.0
C234 C 0.41196 0.15807 1.0297 0.0
C235 C 0.34585 0.39893 0.52811 0.0
C236 C 0.36631 0.37932 0.49916 0.0
C237 C 0.35808 0.38759 0.56208 0.0
C238 C 0.39134 0.35609 0.56872 0.0
H239 H 0.31996 0.42322 0.52462 0.0
H240 H 0.341 0.40369 0.58331 0.0
S241 S 0.45591 0.29527 0.5021 0.0
N242 N 0.42212 0.32692 0.47951 0.0
N243 N 0.44492 0.30574 0.54325 0.0
C244 C 0.41233 0.33635 0.54004 0.0
C245 C 0.39988 0.34791 0.50537 0.0
C246 C 0.09239 0.34657 1.02849 0.0
C247 C 0.11154 0.36966 1.00065 0.0
C248 C 0.10297 0.3569 0.06309 0.0
C249 C 0.13322 0.39075 0.07139 0.0
H250 H 0.06929 0.31996 1.02361 0.0
H251 H 0.08747 0.3378 0.08347 0.0
S252 S 0.19159 0.4625 1.00822 0.0
N253 N 0.16159 0.42904 0.98397 0.0
N254 N 0.18134 0.44811 0.0487 0.0
C255 C 0.15222 0.41449 0.04383 0.0
C256 C 0.14142 0.40406 1.00862 0.0
C257 C 0.09289 0.15184 0.54008 0.0
C258 C 0.11325 0.12992 0.56802 0.0
C259 C 0.10312 0.14106 0.50551 0.0
C260 C 0.13421 0.10793 0.49735 0.0
H261 H 0.06887 0.17765 0.54485 0.0
H262 H 0.08652 0.1591 0.48504 0.0
S263 S 0.19671 0.04003 0.56087 0.0
N264 N 0.16598 0.07296 0.58498 0.0
N265 N 0.185 0.05298 0.52032 0.0
C266 C 0.15471 0.0856 0.52503 0.0
C267 C 0.14429 0.0965 0.56021 0.0
C268 C 0.63861 0.88936 0.0626 0.0
C269 C 0.60562 0.85773 0.06958 0.0
C270 C 0.65073 0.90015 1.0285 0.0
C271 C 0.6304 0.87986 0.99976 0.0
H272 H 0.65554 0.90599 0.08367 0.0
H273 H 0.67635 0.92462 1.02473 0.0
S274 S 0.54172 0.79497 1.0036 0.0
N275 N 0.55259 0.80637 0.04463 0.0
N276 N 0.57517 0.82651 0.98068 0.0
C277 C 0.59717 0.84824 1.00631 0.0
C278 C 0.58486 0.83723 0.0411 0.0
C279 C 0.65013 0.59056 0.54217 0.0
C280 C 0.62915 0.61044 0.57079 0.0
C281 C 0.63846 0.60156 0.50797 0.0
C282 C 0.60529 0.63297 0.50079 0.0
H283 H 0.67598 0.56634 0.54611 0.0
H284 H 0.65589 0.58531 0.48698 0.0
S285 S 0.53951 0.69436 0.56639 0.0
N286 N 0.57295 0.66297 0.58951 0.0
N287 N 0.55123 0.68349 0.52544 0.0
C288 C 0.58381 0.65295 0.52916 0.0
C289 C 0.59566 0.64174 0.56402 0.0
C290 C 0.89212 0.63954 1.00791 0.0
C291 C 0.86138 0.60598 1.00007 0.0
C292 C 0.9024 0.65091 0.04234 0.0
C293 C 0.88243 0.62925 0.07057 0.0
H294 H 0.90837 0.65752 0.98727 0.0
H295 H 0.92609 0.6771 0.04678 0.0
S296 S 0.80022 0.53827 0.06441 0.0
N297 N 0.81148 0.55074 1.02369 0.0
N298 N 0.83065 0.57191 0.08818 0.0
C299 C 0.85184 0.59533 0.06313 0.0
C300 C 0.84137 0.58377 1.02803 0.0
C301 C 0.89794 0.84163 0.52756 0.0
C302 C 0.87741 0.86257 0.49922 0.0
C303 C 0.88687 0.85249 0.56192 0.0
C304 C 0.8547 0.88475 0.56956 0.0
H305 H 0.92285 0.81654 0.52328 0.0
H306 H 0.90379 0.83524 0.58265 0.0
S307 S 0.79104 0.94973 0.50486 0.0
N308 N 0.82316 0.9175 0.48127 0.0
N309 N 0.80251 0.93773 0.54565 0.0
C310 C 0.83388 0.90604 0.54149 0.0
C311 C 0.84518 0.89502 0.50645 0.0
C312 C 0.20159 0.24109 0.18713 0.0
C313 C 0.21564 0.28496 0.19108 0.0
C314 C 0.23214 0.20625 0.18647 0.0
C315 C 0.27789 0.21383 0.19032 0.0
H316 H 0.1669 0.23369 0.18341 0.0
H317 H 0.21969 0.17306 0.18265 0.0
S318 S 0.33112 0.32264 0.20477 0.0
N319 N 0.278 0.33408 0.20111 0.0
N320 N 0.33525 0.26854 0.20034 0.0
C321 C 0.29216 0.25744 0.19575 0.0
C322 C 0.26109 0.29299 0.19596 0.0
C323 C 0.2464 0.28413 0.68456 0.0
C324 C 0.29038 0.2701 0.68759 0.0
C325 C 0.21171 0.25353 0.68341 0.0
C326 C 0.21947 0.20764 0.6859 0.0
H327 H 0.23876 0.31893 0.68197 0.0
H328 H 0.17843 0.26612 0.68043 0.0
S329 S 0.32874 0.15422 0.69747 0.0
N330 N 0.33992 0.2075 0.69515 0.0
N331 N 0.27457 0.15008 0.6936 0.0
C332 C 0.26324 0.1933 0.69032 0.0
C333 C 0.29868 0.22447 0.69098 0.0
C334 C 0.28929 0.23869 0.37986 0.0
C335 C 0.27541 0.28282 0.37796 0.0
C336 C 0.2585 0.20409 0.37987 0.0
C337 C 0.21268 0.21223 0.37742 0.0
H338 H 0.32404 0.23086 0.38254 0.0
H339 H 0.27083 0.17063 0.3822 0.0
S340 S 0.15985 0.32218 0.36813 0.0
N341 N 0.21317 0.33296 0.37107 0.0
N342 N 0.15543 0.26792 0.37066 0.0
C343 C 0.19857 0.25622 0.37391 0.0
C344 C 0.22989 0.29149 0.37434 0.0
C345 C 0.29743 0.26778 0.88659 0.0
C346 C 0.28923 0.22215 0.88263 0.0
C347 C 0.26288 0.29871 0.88695 0.0
C348 C 0.21874 0.28511 0.88401 0.0
H349 H 0.33088 0.27985 0.88967 0.0
H350 H 0.27075 0.33331 0.89054 0.0
S351 S 0.1794 0.17006 0.87053 0.0
N352 N 0.23359 0.16543 0.87356 0.0
N353 N 0.16867 0.2232 0.87496 0.0
C354 C 0.21009 0.23973 0.87917 0.0
C355 C 0.24529 0.20836 0.87824 0.0
C356 C 0.7612 0.78774 0.88339 0.0
C357 C 0.71546 0.77995 0.87988 0.0
C358 C 0.79179 0.753 0.88318 0.0
C359 C 0.77779 0.70902 0.88003 0.0
H360 H 0.77364 0.82104 0.88662 0.0
H361 H 0.82649 0.76059 0.8866 0.0
S362 S 0.66237 0.67069 0.86732 0.0
N363 N 0.65812 0.72489 0.87094 0.0
N364 N 0.71553 0.65947 0.871 0.0
C365 C 0.73235 0.70071 0.87546 0.0
C366 C 0.70122 0.73619 0.87521 0.0
C367 C 0.75116 0.70226 0.38353 0.0
C368 C 0.7072 0.71608 0.37974 0.0
C369 C 0.78582 0.73296 0.3836 0.0
C370 C 0.77793 0.77859 0.37932 0.0
H371 H 0.75874 0.66768 0.38764 0.0
H372 H 0.8191 0.72072 0.3874 0.0
S373 S 0.66868 0.83095 0.36464 0.0
N374 N 0.65761 0.77788 0.36909 0.0
N375 N 0.72279 0.83546 0.36879 0.0
C376 C 0.73419 0.79255 0.37393 0.0
C377 C 0.69884 0.76133 0.3743 0.0
C378 C 0.73181 0.78925 0.68779 0.0
C379 C 0.77767 0.78175 0.69096 0.0
C380 C 0.70143 0.75429 0.68827 0.0
C381 C 0.71579 0.71042 0.69138 0.0
H382 H 0.71914 0.82246 0.68453 0.0
H383 H 0.66664 0.76157 0.68497 0.0
S384 S 0.83157 0.67284 0.70351 0.0
N385 N 0.83541 0.72702 0.69972 0.0
N386 N 0.77845 0.66133 0.7002 0.0
C387 C 0.76132 0.70245 0.69574 0.0
C388 C 0.79221 0.73809 0.69568 0.0
C389 C 0.78649 0.76039 0.1856 0.0
C390 C 0.77901 0.71466 0.18963 0.0
C391 C 0.75159 0.79088 0.18613 0.0
C392 C 0.70778 0.77676 0.19015 0.0
H393 H 0.81964 0.77288 0.18172 0.0
H394 H 0.75887 0.82555 0.18222 0.0
S395 S 0.67032 0.66141 0.20447 0.0
N396 N 0.72439 0.65731 0.19998 0.0
N397 N 0.65881 0.71446 0.20054 0.0
C398 C 0.69984 0.73136 0.19525 0.0
C399 C 0.73543 0.70037 0.19514 0.0
C400 C 0.19654 0.04552 0.28044 0.0
C401 C 0.21862 0.041 0.31247 0.0
C402 C 0.21974 0.04471 0.24893 0.0
C403 C 0.26589 0.04022 0.24847 0.0
H404 H 0.16137 0.05206 0.2798 0.0
H405 H 0.20187 0.05122 0.22509 0.0
S406 S 0.33865 0.02141 0.32444 0.0
N407 N 0.28875 0.02667 0.34124 0.0
N408 N 0.33235 0.02643 0.28204 0.0
C409 C 0.28793 0.03242 0.27997 0.0
C410 C 0.26427 0.03239 0.312 0.0
C411 C 0.4611 0.22324 0.75385 0.0
C412 C 0.46163 0.26956 0.75229 0.0
C413 C 0.46046 0.20137 0.78592 0.0
C414 C 0.46132 0.22507 0.81741 0.0
H415 H 0.4575 0.20391 0.73032 0.0
H416 H 0.45683 0.16577 0.78606 0.0
S417 S 0.4695 0.34666 0.82688 0.0
N418 N 0.46762 0.3383 0.78452 0.0
N419 N 0.46767 0.29718 0.84482 0.0
C420 C 0.46595 0.2712 0.81605 0.0
C421 C 0.4657 0.29347 0.78343 0.0
C422 C 0.26518 0.45815 0.25739 0.0
C423 C 0.21894 0.45424 0.2569 0.0
C424 C 0.28855 0.45755 0.28884 0.0
C425 C 0.26642 0.45413 0.32084 0.0
H426 H 0.28368 0.45819 0.23333 0.0
H427 H 0.32432 0.45739 0.28802 0.0
S428 S 0.14522 0.44924 0.33365 0.0
N429 N 0.15158 0.45118 0.29109 0.0
N430 N 0.19551 0.45117 0.35023 0.0
C431 C 0.22004 0.45409 0.3208 0.0
C432 C 0.19629 0.4538 0.28877 0.0
C433 C 0.02276 0.23323 0.77042 0.0
C434 C 0.06216 0.22361 0.75254 0.0
C435 C 0.02362 0.25747 0.8018 0.0
C436 C 0.06375 0.27362 0.81534 0.0
H437 H 0.99149 0.22121 0.76054 0.0
H438 H 0.9929 0.26411 0.81522 0.0
S439 S 0.17557 0.25708 0.77786 0.0
N440 N 0.1419 0.23164 0.75075 0.0
N441 N 0.14352 0.27779 0.80841 0.0
C442 C 0.10301 0.26439 0.79726 0.0
C443 C 0.1022 0.23927 0.76615 0.0
C444 C 0.7719 0.95136 0.81833 0.0
C445 C 0.72556 0.95332 0.81921 0.0
C446 C 0.79465 0.95099 0.78658 0.0
C447 C 0.7719 0.95358 0.75472 0.0
H448 H 0.79047 0.94652 0.84208 0.0
H449 H 0.83013 0.94634 0.78694 0.0
S450 S 0.6508 0.96582 0.74357 0.0
N451 N 0.65797 0.96239 0.78599 0.0
N452 N 0.70069 0.963 0.7264 0.0
C453 C 0.72586 0.95956 0.7555 0.0
C454 C 0.70268 0.95902 0.78776 0.0
C455 C 0.53771 0.70116 0.28581 0.0
C456 C 0.53858 0.72368 0.31781 0.0
C457 C 0.5371 0.72425 0.25425 0.0
C458 C 0.53847 0.77064 0.25368 0.0
H459 H 0.53959 0.66543 0.28513 0.0
H460 H 0.53894 0.70563 0.23025 0.0
S461 S 0.5371 0.84513 0.33018 0.0
N462 N 0.53699 0.79494 0.34692 0.0
N463 N 0.53706 0.83832 0.28763 0.0
C464 C 0.53673 0.79351 0.28544 0.0
C465 C 0.53642 0.77002 0.31754 0.0
C466 C 0.79522 0.5422 0.78358 0.0
C467 C 0.77316 0.54069 0.81573 0.0
C468 C 0.77174 0.5414 0.75213 0.0
C469 C 0.72535 0.54013 0.75186 0.0
H470 H 0.83077 0.54611 0.78273 0.0
H471 H 0.78984 0.54524 0.72808 0.0
S472 S 0.65213 0.53183 0.82868 0.0
N473 N 0.70247 0.53397 0.84514 0.0
N474 N 0.65836 0.53369 0.78612 0.0
C475 C 0.70309 0.53595 0.7837 0.0
C476 C 0.727 0.53586 0.81565 0.0
C477 C 0.94968 0.79279 0.28533 0.0
C478 C 0.95029 0.77033 0.31734 0.0
C479 C 0.95052 0.76971 0.25371 0.0
C480 C 0.95098 0.72333 0.25306 0.0
H481 H 0.9462 0.8284 0.2847 0.0
H482 H 0.94724 0.7882 0.22978 0.0
S483 S 0.95836 0.64909 0.32932 0.0
N484 N 0.95639 0.69923 0.34621 0.0
N485 N 0.95675 0.65586 0.2868 0.0
C486 C 0.95479 0.70062 0.28474 0.0
C487 C 0.95483 0.72414 0.31691 0.0
C488 C 0.49798 0.03287 0.19389 0.0
C489 C 0.45276 0.02199 0.19423 0.0
C490 C 0.53062 -0.00031 0.19365 0.0
C491 C 0.51903 0.95463 0.19377 0.0
H492 H 0.50818 0.0671 0.19242 0.0
H493 H 0.56499 0.00937 0.19203 0.0
S494 S 0.40543 0.90923 0.20077 0.0
N495 N 0.39843 0.96321 0.19895 0.0
N496 N 0.45926 0.90128 0.1986 0.0
C497 C 0.47398 0.94361 0.19623 0.0
C498 C 0.441 0.97716 0.19643 0.0
C499 C 0.4944 0.53115 0.69273 0.0
C500 C 0.53961 0.52069 0.69535 0.0
C501 C 0.46209 0.49766 0.69223 0.0
C502 C 0.47411 0.45279 0.69434 0.0
H503 H 0.48408 0.56515 0.68952 0.0
H504 H 0.42781 0.50684 0.68869 0.0
S505 S 0.58732 0.40892 0.70806 0.0
N506 N 0.59402 0.46282 0.70463 0.0
N507 N 0.53378 0.40034 0.70377 0.0
C508 C 0.51895 0.44235 0.69926 0.0
C509 C 0.55158 0.47619 0.69975 0.0
C510 C 0.99091 0.46045 0.19394 0.0
C511 C 0.0359 0.47184 0.19631 0.0
C512 C 0.95788 0.49324 0.19377 0.0
C513 C 0.96892 0.53834 0.19594 0.0
H514 H 0.98128 0.42623 0.19072 0.0
H515 H 0.92376 0.48333 0.19045 0.0
S516 S 0.08118 0.58471 0.20895 0.0
N517 N 0.08907 0.53097 0.20542 0.0
N518 N 0.02743 0.59211 0.20499 0.0
C519 C 0.01353 0.54976 0.20053 0.0
C520 C 0.04691 0.51664 0.20076 0.0
C521 C 0.99391 0.96548 0.70713 0.0
C522 C 0.95863 0.96751 0.6833 0.0
C523 C 0.02765 0.99755 0.70698 0.0
C524 C 0.02711 0.03261 0.68299 0.0
H525 H 0.99484 0.93972 0.7266 0.0
H526 H 0.05354 0.99556 0.72634 0.0
S527 S 0.94577 0.04872 0.6118 0.0
N528 N 0.92801 0.00477 0.63279 0.0
N529 N 0.99083 0.06445 0.63245 0.0
C530 C 0.99311 0.0336 0.65804 0.0
C531 C 0.95903 0.00122 0.65821 0.0
C532 C 0.53171 0.49241 0.37609 0.0
C533 C 0.52012 0.53746 0.37516 0.0
C534 C 0.49904 0.45929 0.37576 0.0
C535 C 0.45388 0.4703 0.37451 0.0
H536 H 0.56602 0.48274 0.37852 0.0
H537 H 0.50911 0.42508 0.378 0.0
S538 S 0.40687 0.58295 0.36544 0.0
N539 N 0.46065 0.59083 0.36845 0.0
N540 N 0.39974 0.52903 0.3679 0.0
C541 C 0.44223 0.51506 0.37136 0.0
C542 C 0.47522 0.54853 0.37167 0.0
C543 C 0.03877 0.50653 0.87671 0.0
C544 C 0.02891 0.46126 0.87357 0.0
C545 C 0.00489 0.53844 0.87685 0.0
C546 C 0.96024 0.52594 0.8739 0.0
H547 H 0.07254 0.51718 0.8807 0.0
H548 H 0.01355 0.57278 0.88087 0.0
S549 S 0.91798 0.4125 0.85864 0.0
N550 N 0.97187 0.40635 0.86281 0.0
N551 N 0.90869 0.46588 0.86319 0.0
C552 C 0.95043 0.4811 0.86842 0.0
C553 C 0.98465 0.44887 0.86822 0.0
C554 C 0.01029 0.94771 0.38627 0.0
C555 C 0.96604 0.95755 0.37823 0.0
C556 C 0.04294 0.9802 0.38591 0.0
C557 C 0.03313 0.02436 0.37752 0.0
H558 H 0.02011 0.91445 0.39318 0.0
H559 H 0.07627 0.97034 0.39259 0.0
S560 S 0.92256 0.06782 0.35353 0.0
N561 N 0.91408 0.01475 0.36082 0.0
N562 N 0.97581 0.07622 0.36017 0.0
C563 C 0.98917 0.03481 0.36875 0.0
C564 C 0.9556 0.00139 0.36909 0.0
C565 C 0.55031 0.01501 0.88825 0.0
C566 C 0.53962 0.9712 0.87938 0.0
C567 C 0.51843 0.04828 0.88851 0.0
C568 C 0.4741 0.03957 0.87992 0.0
H569 H 0.58374 0.02397 0.89539 0.0
H570 H 0.52891 0.0812 0.89584 0.0
S571 S 0.4286 0.93066 0.85362 0.0
N572 N 0.4815 0.92092 0.86083 0.0
N573 N 0.42119 0.98384 0.86132 0.0
C574 C 0.46283 0.99611 0.87024 0.0
C575 C 0.49562 0.9619 0.86996 0.0
loop_
_geom_bond_atom_site_label_1
_geom_bond_atom_site_label_2
_geom_bond_distance
_geom_bond_site_symmetry_2
_ccdc_geom_bond_type
C0 O2 1.247 . S
C0 O4 1.258 . S
C1 O8 1.247 . S
C1 O9 1.258 . S
O2 C0 1.247 . S
O2 Zn3 2.028 . S
Zn3 O2 2.028 . S
Zn3 O7 2.035 . S
Zn3 O9 2.035 . S
Zn3 O10 2.028 . S
O4 C0 1.258 . S
O4 Zn5 2.035 . S
Zn5 O4 2.035 . S
Zn5 O6 2.028 . S
Zn5 O8 2.028 . S
Zn5 O11 2.035 . S
O6 Zn5 2.028 . S
O6 C12 1.247 . S
O7 Zn3 2.035 . S
O7 C12 1.258 . S
O8 C1 1.247 . S
O8 Zn5 2.028 . S
O9 C1 1.258 . S
O9 Zn3 2.035 . S
O10 Zn3 2.028 . S
O10 C13 1.247 . S
O11 Zn5 2.035 . S
O11 C13 1.258 . S
C12 O6 1.247 . S
C12 O7 1.258 . S
C13 O10 1.247 . S
C13 O11 1.258 . S
C14 O16 1.247 . S
C14 O18 1.258 . S
C15 O22 1.247 . S
C15 O23 1.258 . S
O16 C14 1.247 . S
O16 Zn17 2.028 . S
Zn17 O16 2.028 . S
Zn17 O21 2.035 . S
Zn17 O23 2.035 . S
Zn17 O24 2.028 . S
O18 C14 1.258 . S
O18 Zn19 2.035 . S
Zn19 O18 2.035 . S
Zn19 O20 2.028 . S
Zn19 O22 2.028 . S
Zn19 O25 2.035 . S
O20 Zn19 2.028 . S
O20 C26 1.247 . S
O21 Zn17 2.035 . S
O21 C26 1.258 . S
O22 C15 1.247 . S
O22 Zn19 2.028 . S
O23 C15 1.258 . S
O23 Zn17 2.035 . S
O24 Zn17 2.028 . S
O24 C27 1.247 . S
O25 Zn19 2.035 . S
O25 C27 1.258 . S
C26 O20 1.247 . S
C26 O21 1.258 . S
C27 O24 1.247 . S
C27 O25 1.258 . S
C28 O30 1.247 . S
C28 O32 1.258 . S
C29 O36 1.247 . S
C29 O37 1.258 . S
O30 C28 1.247 . S
O30 Zn31 2.028 . S
Zn31 O30 2.028 . S
Zn31 O35 2.035 . S
Zn31 O37 2.035 . S
Zn31 O38 2.028 . S
O32 C28 1.258 . S
O32 Zn33 2.035 . S
Zn33 O32 2.035 . S
Zn33 O34 2.028 . S
Zn33 O36 2.028 . S
Zn33 O39 2.035 . S
O34 Zn33 2.028 . S
O34 C40 1.247 . S
O35 Zn31 2.035 . S
O35 C40 1.258 . S
O36 C29 1.247 . S
O36 Zn33 2.028 . S
O37 C29 1.258 . S
O37 Zn31 2.035 . S
O38 Zn31 2.028 . S
O38 C41 1.247 . S
O39 Zn33 2.035 . S
O39 C41 1.258 . S
C40 O34 1.247 . S
C40 O35 1.258 . S
C41 O38 1.247 . S
C41 O39 1.258 . S
C42 O44 1.247 . S
C42 O46 1.258 . S
C43 O50 1.247 . S
C43 O51 1.258 . S
O44 C42 1.247 . S
O44 Zn45 2.028 . S
Zn45 O44 2.028 . S
Zn45 O49 2.035 . S
Zn45 O51 2.035 . S
Zn45 O52 2.028 . S
O46 C42 1.258 . S
O46 Zn47 2.035 . S
Zn47 O46 2.035 . S
Zn47 O48 2.028 . S
Zn47 O50 2.028 . S
Zn47 O53 2.035 . S
O48 Zn47 2.028 . S
O48 C54 1.247 . S
O49 Zn45 2.035 . S
O49 C54 1.258 . S
O50 C43 1.247 . S
O50 Zn47 2.028 . S
O51 C43 1.258 . S
O51 Zn45 2.035 . S
O52 Zn45 2.028 . S
O52 C55 1.247 . S
O53 Zn47 2.035 . S
O53 C55 1.258 . S
C54 O48 1.247 . S
C54 O49 1.258 . S
C55 O52 1.247 . S
C55 O53 1.258 . S
C56 O58 1.247 . S
C56 O60 1.258 . S
C57 O64 1.247 . S
C57 O65 1.258 . S
O58 C56 1.247 . S
O58 Zn59 2.028 . S
Zn59 O58 2.028 . S
Zn59 O63 2.035 . S
Zn59 O65 2.035 . S
Zn59 O66 2.028 . S
O60 C56 1.258 . S
O60 Zn61 2.035 . S
Zn61 O60 2.035 . S
Zn61 O62 2.028 . S
Zn61 O64 2.028 . S
Zn61 O67 2.035 . S
O62 Zn61 2.028 . S
O62 C68 1.247 . S
O63 Zn59 2.035 . S
O63 C68 1.258 . S
O64 C57 1.247 . S
O64 Zn61 2.028 . S
O65 C57 1.258 . S
O65 Zn59 2.035 . S
O66 Zn59 2.028 . S
O66 C69 1.247 . S
O67 Zn61 2.035 . S
O67 C69 1.258 . S
C68 O62 1.247 . S
C68 O63 1.258 . S
C69 O66 1.247 . S
C69 O67 1.258 . S
C70 O72 1.247 . S
C70 O74 1.258 . S
C71 O78 1.247 . S
C71 O79 1.258 . S
O72 C70 1.247 . S
O72 Zn73 2.028 . S
Zn73 O72 2.028 . S
Zn73 O77 2.035 . S
Zn73 O79 2.035 . S
Zn73 O80 2.028 . S
O74 C70 1.258 . S
O74 Zn75 2.035 . S
Zn75 O74 2.035 . S
Zn75 O76 2.028 . S
Zn75 O78 2.028 . S
Zn75 O81 2.035 . S
O76 Zn75 2.028 . S
O76 C82 1.247 . S
O77 Zn73 2.035 . S
O77 C82 1.258 . S
O78 C71 1.247 . S
O78 Zn75 2.028 . S
O79 C71 1.258 . S
O79 Zn73 2.035 . S
O80 Zn73 2.028 . S
O80 C83 1.247 . S
O81 Zn75 2.035 . S
O81 C83 1.258 . S
C82 O76 1.247 . S
C82 O77 1.258 . S
C83 O80 1.247 . S
C83 O81 1.258 . S
C84 O86 1.247 . S
C84 O88 1.258 . S
C85 O92 1.247 . S
C85 O93 1.258 . S
O86 C84 1.247 . S
O86 Zn87 2.028 . S
Zn87 O86 2.028 . S
Zn87 O91 2.035 . S
Zn87 O93 2.035 . S
Zn87 O94 2.028 . S
O88 C84 1.258 . S
O88 Zn89 2.035 . S
Zn89 O88 2.035 . S
Zn89 O90 2.028 . S
Zn89 O92 2.028 . S
Zn89 O95 2.035 . S
O90 Zn89 2.028 . S
O90 C96 1.247 . S
O91 Zn87 2.035 . S
O91 C96 1.258 . S
O92 C85 1.247 . S
O92 Zn89 2.028 . S
O93 C85 1.258 . S
O93 Zn87 2.035 . S
O94 Zn87 2.028 . S
O94 C97 1.247 . S
O95 Zn89 2.035 . S
O95 C97 1.258 . S
C96 O90 1.247 . S
C96 O91 1.258 . S
C97 O94 1.247 . S
C97 O95 1.258 . S
C98 O100 1.247 . S
C98 O102 1.258 . S
C99 O106 1.247 . S
C99 O107 1.258 . S
O100 C98 1.247 . S
O100 Zn101 2.028 . S
Zn101 O100 2.028 . S
Zn101 O105 2.035 . S
Zn101 O107 2.035 . S
Zn101 O108 2.028 . S
O102 C98 1.258 . S
O102 Zn103 2.035 . S
Zn103 O102 2.035 . S
Zn103 O104 2.028 . S
Zn103 O106 2.028 . S
Zn103 O109 2.035 . S
O104 Zn103 2.028 . S
O104 C110 1.247 . S
O105 Zn101 2.035 . S
O105 C110 1.258 . S
O106 C99 1.247 . S
O106 Zn103 2.028 . S
O107 C99 1.258 . S
O107 Zn101 2.035 . S
O108 Zn101 2.028 . S
O108 C111 1.247 . S
O109 Zn103 2.035 . S
O109 C111 1.258 . S
C110 O104 1.247 . S
C110 O105 1.258 . S
C111 O108 1.247 . S
C111 O109 1.258 . S
C112 O114 1.247 . S
C112 O116 1.258 . S
C113 O120 1.247 . S
C113 O121 1.258 . S
O114 C112 1.247 . S
O114 Zn115 2.028 . S
Zn115 O114 2.028 . S
Zn115 O119 2.035 . S
Zn115 O121 2.035 . S
Zn115 O122 2.028 . S
O116 C112 1.258 . S
O116 Zn117 2.035 . S
Zn117 O116 2.035 . S
Zn117 O118 2.028 . S
Zn117 O120 2.028 . S
Zn117 O123 2.035 . S
O118 Zn117 2.028 . S
O118 C124 1.247 . S
O119 Zn115 2.035 . S
O119 C124 1.258 . S
O120 C113 1.247 . S
O120 Zn117 2.028 . S
O121 C113 1.258 . S
O121 Zn115 2.035 . S
O122 Zn115 2.028 . S
O122 C125 1.247 . S
O123 Zn117 2.035 . S
O123 C125 1.258 . S
C124 O118 1.247 . S
C124 O119 1.258 . S
C125 O122 1.247 . S
C125 O123 1.258 . S
C126 O128 1.247 . S
C126 O130 1.258 . S
C127 O134 1.247 . S
C127 O135 1.258 . S
O128 C126 1.247 . S
O128 Zn129 2.028 . S
Zn129 O128 2.028 . S
Zn129 O133 2.035 . S
Zn129 O135 2.035 . S
Zn129 O136 2.028 . S
O130 C126 1.258 . S
O130 Zn131 2.035 . S
Zn131 O130 2.035 . S
Zn131 O132 2.028 . S
Zn131 O134 2.028 . S
Zn131 O137 2.035 . S
O132 Zn131 2.028 . S
O132 C138 1.247 . S
O133 Zn129 2.035 . S
O133 C138 1.258 . S
O134 C127 1.247 . S
O134 Zn131 2.028 . S
O135 C127 1.258 . S
O135 Zn129 2.035 . S
O136 Zn129 2.028 . S
O136 C139 1.247 . S
O137 Zn131 2.035 . S
O137 C139 1.258 . S
C138 O132 1.247 . S
C138 O133 1.258 . S
C139 O136 1.247 . S
C139 O137 1.258 . S
C140 O142 1.247 . S
C140 O144 1.258 . S
C141 O148 1.247 . S
C141 O149 1.258 . S
O142 C140 1.247 . S
O142 Zn143 2.028 . S
Zn143 O142 2.028 . S
Zn143 O147 2.035 . S
Zn143 O149 2.035 . S
Zn143 O150 2.028 . S
O144 C140 1.258 . S
O144 Zn145 2.035 . S
Zn145 O144 2.035 . S
Zn145 O146 2.028 . S
Zn145 O148 2.028 . S
Zn145 O151 2.035 . S
O146 Zn145 2.028 . S
O146 C152 1.247 . S
O147 Zn143 2.035 . S
O147 C152 1.258 . S
O148 C141 1.247 . S
O148 Zn145 2.028 . S
O149 C141 1.258 . S
O149 Zn143 2.035 . S
O150 Zn143 2.028 . S
O150 C153 1.247 . S
O151 Zn145 2.035 . S
O151 C153 1.258 . S
C152 O146 1.247 . S
C152 O147 1.258 . S
C153 O150 1.247 . S
C153 O151 1.258 . S
C154 O156 1.247 . S
C154 O158 1.258 . S
C155 O162 1.247 . S
C155 O163 1.258 . S
O156 C154 1.247 . S
O156 Zn157 2.028 . S
Zn157 O156 2.028 . S
Zn157 O161 2.035 . S
Zn157 O163 2.035 . S
Zn157 O164 2.028 . S
O158 C154 1.258 . S
O158 Zn159 2.035 . S
Zn159 O158 2.035 . S
Zn159 O160 2.028 . S
Zn159 O162 2.028 . S
Zn159 O165 2.035 . S
O160 Zn159 2.028 . S
O160 C166 1.247 . S
O161 Zn157 2.035 . S
O161 C166 1.258 . S
O162 C155 1.247 . S
O162 Zn159 2.028 . S
O163 C155 1.258 . S
O163 Zn157 2.035 . S
O164 Zn157 2.028 . S
O164 C167 1.247 . S
O165 Zn159 2.035 . S
O165 C167 1.258 . S
C166 O160 1.247 . S
C166 O161 1.258 . S
C167 O164 1.247 . S
C167 O165 1.258 . S
C168 O170 1.247 . S
C168 O172 1.258 . S
C169 O176 1.247 . S
C169 O177 1.258 . S
O170 C168 1.247 . S
O170 Zn171 2.028 . S
Zn171 O170 2.028 . S
Zn171 O175 2.035 . S
Zn171 O177 2.035 . S
Zn171 O178 2.028 . S
O172 C168 1.258 . S
O172 Zn173 2.035 . S
Zn173 O172 2.035 . S
Zn173 O174 2.028 . S
Zn173 O176 2.028 . S
Zn173 O179 2.035 . S
O174 Zn173 2.028 . S
O174 C180 1.247 . S
O175 Zn171 2.035 . S
O175 C180 1.258 . S
O176 C169 1.247 . S
O176 Zn173 2.028 . S
O177 C169 1.258 . S
O177 Zn171 2.035 . S
O178 Zn171 2.028 . S
O178 C181 1.247 . S
O179 Zn173 2.035 . S
O179 C181 1.258 . S
C180 O174 1.247 . S
C180 O175 1.258 . S
C181 O178 1.247 . S
C181 O179 1.258 . S
C182 O184 1.247 . S
C182 O186 1.258 . S
C183 O190 1.247 . S
C183 O191 1.258 . S
O184 C182 1.247 . S
O184 Zn185 2.028 . S
Zn185 O184 2.028 . S
Zn185 O189 2.035 . S
Zn185 O191 2.035 . S
Zn185 O192 2.028 . S
O186 C182 1.258 . S
O186 Zn187 2.035 . S
Zn187 O186 2.035 . S
Zn187 O188 2.028 . S
Zn187 O190 2.028 . S
Zn187 O193 2.035 . S
O188 Zn187 2.028 . S
O188 C194 1.247 . S
O189 Zn185 2.035 . S
O189 C194 1.258 . S
O190 C183 1.247 . S
O190 Zn187 2.028 . S
O191 C183 1.258 . S
O191 Zn185 2.035 . S
O192 Zn185 2.028 . S
O192 C195 1.247 . S
O193 Zn187 2.035 . S
O193 C195 1.258 . S
C194 O188 1.247 . S
C194 O189 1.258 . S
C195 O192 1.247 . S
C195 O193 1.258 . S
C196 O198 1.247 . S
C196 O200 1.258 . S
C197 O204 1.247 . S
C197 O205 1.258 . S
O198 C196 1.247 . S
O198 Zn199 2.028 . S
Zn199 O198 2.028 . S
Zn199 O203 2.035 . S
Zn199 O205 2.035 . S
Zn199 O206 2.028 . S
O200 C196 1.258 . S
O200 Zn201 2.035 . S
Zn201 O200 2.035 . S
Zn201 O202 2.028 . S
Zn201 O204 2.028 . S
Zn201 O207 2.035 . S
O202 Zn201 2.028 . S
O202 C208 1.247 . S
O203 Zn199 2.035 . S
O203 C208 1.258 . S
O204 C197 1.247 . S
O204 Zn201 2.028 . S
O205 C197 1.258 . S
O205 Zn199 2.035 . S
O206 Zn199 2.028 . S
O206 C209 1.247 . S
O207 Zn201 2.035 . S
O207 C209 1.258 . S
C208 O202 1.247 . S
C208 O203 1.258 . S
C209 O206 1.247 . S
C209 O207 1.258 . S
C210 O212 1.247 . S
C210 O214 1.258 . S
C211 O218 1.247 . S
C211 O219 1.258 . S
O212 C210 1.247 . S
O212 Zn213 2.028 . S
Zn213 O212 2.028 . S
Zn213 O217 2.035 . S
Zn213 O219 2.035 . S
Zn213 O220 2.028 . S
O214 C210 1.258 . S
O214 Zn215 2.035 . S
Zn215 O214 2.035 . S
Zn215 O216 2.028 . S
Zn215 O218 2.028 . S
Zn215 O221 2.035 . S
O216 Zn215 2.028 . S
O216 C222 1.247 . S
O217 Zn213 2.035 . S
O217 C222 1.258 . S
O218 C211 1.247 . S
O218 Zn215 2.028 . S
O219 C211 1.258 . S
O219 Zn213 2.035 . S
O220 Zn213 2.028 . S
O220 C223 1.247 . S
O221 Zn215 2.035 . S
O221 C223 1.258 . S
C222 O216 1.247 . S
C222 O217 1.258 . S
C223 O220 1.247 . S
C223 O221 1.258 . S
C224 C225 1.369 . S
C224 C226 1.419 1_556 S
C224 H228 0.930 . S
C225 C224 1.369 . S
C225 C234 1.429 . S
C226 C224 1.419 1_554 S
C226 C227 1.363 . S
C226 H229 0.929 . S
C227 C226 1.363 . S
C227 C233 1.428 . S
H228 C224 0.930 . S
H229 C226 0.929 . S
S230 N231 1.613 1_554 S
S230 N232 1.610 . S
N231 S230 1.613 1_556 S
N231 C234 1.350 . S
N232 S230 1.610 . S
N232 C233 1.351 . S
C233 C227 1.428 . S
C233 N232 1.351 . S
C233 C234 1.434 1_554 S
C234 C225 1.429 . S
C234 N231 1.350 . S
C234 C233 1.434 1_556 S
C235 C236 1.369 . S
C235 C237 1.419 . S
C235 H239 0.930 . S
C236 C235 1.369 . S
C236 C245 1.429 . S
C237 C235 1.419 . S
C237 C238 1.363 . S
C237 H240 0.929 . S
C238 C237 1.363 . S
C238 C244 1.428 . S
H239 C235 0.930 . S
H240 C237 0.929 . S
S241 N242 1.613 . S
S241 N243 1.610 . S
N242 S241 1.613 . S
N242 C245 1.350 . S
N243 S241 1.610 . S
N243 C244 1.351 . S
C244 C238 1.428 . S
C244 N243 1.351 . S
C244 C245 1.434 . S
C245 C236 1.429 . S
C245 N242 1.350 . S
C245 C244 1.434 . S
C246 C247 1.369 . S
C246 C248 1.419 1_556 S
C246 H250 0.930 . S
C247 C246 1.369 . S
C247 C256 1.429 . S
C248 C246 1.419 1_554 S
C248 C249 1.363 . S
C248 H251 0.929 . S
C249 C248 1.363 . S
C249 C255 1.428 . S
H250 C246 0.930 . S
H251 C248 0.929 . S
S252 N253 1.613 . S
S252 N254 1.610 1_556 S
N253 S252 1.613 . S
N253 C256 1.350 . S
N254 S252 1.610 1_554 S
N254 C255 1.351 . S
C255 C249 1.428 . S
C255 N254 1.351 . S
C255 C256 1.434 1_554 S
C256 C247 1.429 . S
C256 N253 1.350 . S
C256 C255 1.434 1_556 S
C257 C258 1.369 . S
C257 C259 1.419 . S
C257 H261 0.930 . S
C258 C257 1.369 . S
C258 C267 1.429 . S
C259 C257 1.419 . S
C259 C260 1.363 . S
C259 H262 0.929 . S
C260 C259 1.363 . S
C260 C266 1.428 . S
H261 C257 0.930 . S
H262 C259 0.929 . S
S263 N264 1.613 . S
S263 N265 1.610 . S
N264 S263 1.613 . S
N264 C267 1.350 . S
N265 S263 1.610 . S
N265 C266 1.351 . S
C266 C260 1.428 . S
C266 N265 1.351 . S
C266 C267 1.434 . S
C267 C258 1.429 . S
C267 N264 1.350 . S
C267 C266 1.434 . S
C268 C269 1.369 . S
C268 C270 1.419 1_554 S
C268 H272 0.930 . S
C269 C268 1.369 . S
C269 C278 1.429 . S
C270 C268 1.419 1_556 S
C270 C271 1.363 . S
C270 H273 0.929 . S
C271 C270 1.363 . S
C271 C277 1.428 . S
H272 C268 0.930 . S
H273 C270 0.929 . S
S274 N275 1.613 1_556 S
S274 N276 1.610 . S
N275 S274 1.613 1_554 S
N275 C278 1.350 . S
N276 S274 1.610 . S
N276 C277 1.351 . S
C277 C271 1.428 . S
C277 N276 1.351 . S
C277 C278 1.434 1_556 S
C278 C269 1.429 . S
C278 N275 1.350 . S
C278 C277 1.434 1_554 S
C279 C280 1.369 . S
C279 C281 1.419 . S
C279 H283 0.930 . S
C280 C279 1.369 . S
C280 C289 1.429 . S
C281 C279 1.419 . S
C281 C282 1.363 . S
C281 H284 0.929 . S
C282 C281 1.363 . S
C282 C288 1.428 . S
H283 C279 0.930 . S
H284 C281 0.929 . S
S285 N286 1.613 . S
S285 N287 1.610 . S
N286 S285 1.613 . S
N286 C289 1.350 . S
N287 S285 1.610 . S
N287 C288 1.351 . S
C288 C282 1.428 . S
C288 N287 1.351 . S
C288 C289 1.434 . S
C289 C280 1.429 . S
C289 N286 1.350 . S
C289 C288 1.434 . S
C290 C291 1.369 . S
C290 C292 1.419 1_556 S
C290 H294 0.930 . S
C291 C290 1.369 . S
C291 C300 1.429 . S
C292 C290 1.419 1_554 S
C292 C293 1.363 . S
C292 H295 0.929 . S
C293 C292 1.363 . S
C293 C299 1.428 . S
H294 C290 0.930 . S
H295 C292 0.929 . S
S296 N297 1.613 1_554 S
S296 N298 1.610 . S
N297 S296 1.613 1_556 S
N297 C300 1.350 . S
N298 S296 1.610 . S
N298 C299 1.351 . S
C299 C293 1.428 . S
C299 N298 1.351 . S
C299 C300 1.434 1_554 S
C300 C291 1.429 . S
C300 N297 1.350 . S
C300 C299 1.434 1_556 S
C301 C302 1.369 . S
C301 C303 1.419 . S
C301 H305 0.930 . S
C302 C301 1.369 . S
C302 C311 1.429 . S
C303 C301 1.419 . S
C303 C304 1.363 . S
C303 H306 0.929 . S
C304 C303 1.363 . S
C304 C310 1.428 . S
H305 C301 0.930 . S
H306 C303 0.929 . S
S307 N308 1.613 . S
S307 N309 1.610 . S
N308 S307 1.613 . S
N308 C311 1.350 . S
N309 S307 1.610 . S
N309 C310 1.351 . S
C310 C304 1.428 . S
C310 N309 1.351 . S
C310 C311 1.434 . S
C311 C302 1.429 . S
C311 N308 1.350 . S
C311 C310 1.434 . S
C312 C313 1.369 . S
C312 C314 1.419 . S
C312 H316 0.930 . S
C313 C312 1.369 . S
C313 C322 1.429 . S
C314 C312 1.419 . S
C314 C315 1.363 . S
C314 H317 0.929 . S
C315 C314 1.363 . S
C315 C321 1.428 . S
H316 C312 0.930 . S
H317 C314 0.929 . S
S318 N319 1.613 . S
S318 N320 1.610 . S
N319 S318 1.613 . S
N319 C322 1.350 . S
N320 S318 1.610 . S
N320 C321 1.351 . S
C321 C315 1.428 . S
C321 N320 1.351 . S
C321 C322 1.434 . S
C322 C313 1.429 . S
C322 N319 1.350 . S
C322 C321 1.434 . S
C323 C324 1.369 . S
C323 C325 1.419 . S
C323 H327 0.930 . S
C324 C323 1.369 . S
C324 C333 1.429 . S
C325 C323 1.419 . S
C325 C326 1.363 . S
C325 H328 0.929 . S
C326 C325 1.363 . S
C326 C332 1.428 . S
H327 C323 0.930 . S
H328 C325 0.929 . S
S329 N330 1.613 . S
S329 N331 1.610 . S
N330 S329 1.613 . S
N330 C333 1.350 . S
N331 S329 1.610 . S
N331 C332 1.351 . S
C332 C326 1.428 . S
C332 N331 1.351 . S
C332 C333 1.434 . S
C333 C324 1.429 . S
C333 N330 1.350 . S
C333 C332 1.434 . S
C334 C335 1.369 . S
C334 C336 1.419 . S
C334 H338 0.930 . S
C335 C334 1.369 . S
C335 C344 1.429 . S
C336 C334 1.419 . S
C336 C337 1.363 . S
C336 H339 0.929 . S
C337 C336 1.363 . S
C337 C343 1.428 . S
H338 C334 0.930 . S
H339 C336 0.929 . S
S340 N341 1.613 . S
S340 N342 1.610 . S
N341 S340 1.613 . S
N341 C344 1.350 . S
N342 S340 1.610 . S
N342 C343 1.351 . S
C343 C337 1.428 . S
C343 N342 1.351 . S
C343 C344 1.434 . S
C344 C335 1.429 . S
C344 N341 1.350 . S
C344 C343 1.434 . S
C345 C346 1.369 . S
C345 C347 1.419 . S
C345 H349 0.930 . S
C346 C345 1.369 . S
C346 C355 1.429 . S
C347 C345 1.419 . S
C347 C348 1.363 . S
C347 H350 0.929 . S
C348 C347 1.363 . S
C348 C354 1.428 . S
H349 C345 0.930 . S
H350 C347 0.929 . S
S351 N352 1.613 . S
S351 N353 1.610 . S
N352 S351 1.613 . S
N352 C355 1.350 . S
N353 S351 1.610 . S
N353 C354 1.351 . S
C354 C348 1.428 . S
C354 N353 1.351 . S
C354 C355 1.434 . S
C355 C346 1.429 . S
C355 N352 1.350 . S
C355 C354 1.434 . S
C356 C357 1.369 . S
C356 C358 1.419 . S
C356 H360 0.930 . S
C357 C356 1.369 . S
C357 C366 1.429 . S
C358 C356 1.419 . S
C358 C359 1.363 . S
C358 H361 0.929 . S
C359 C358 1.363 . S
C359 C365 1.428 . S
H360 C356 0.930 . S
H361 C358 0.929 . S
S362 N363 1.613 . S
S362 N364 1.610 . S
N363 S362 1.613 . S
N363 C366 1.350 . S
N364 S362 1.610 . S
N364 C365 1.351 . S
C365 C359 1.428 . S
C365 N364 1.351 . S
C365 C366 1.434 . S
C366 C357 1.429 . S
C366 N363 1.350 . S
C366 C365 1.434 . S
C367 C368 1.369 . S
C367 C369 1.419 . S
C367 H371 0.930 . S
C368 C367 1.369 . S
C368 C377 1.429 . S
C369 C367 1.419 . S
C369 C370 1.363 . S
C369 H372 0.929 . S
C370 C369 1.363 . S
C370 C376 1.428 . S
H371 C367 0.930 . S
H372 C369 0.929 . S
S373 N374 1.613 . S
S373 N375 1.610 . S
N374 S373 1.613 . S
N374 C377 1.350 . S
N375 S373 1.610 . S
N375 C376 1.351 . S
C376 C370 1.428 . S
C376 N375 1.351 . S
C376 C377 1.434 . S
C377 C368 1.429 . S
C377 N374 1.350 . S
C377 C376 1.434 . S
C378 C379 1.369 . S
C378 C380 1.419 . S
C378 H382 0.930 . S
C379 C378 1.369 . S
C379 C388 1.429 . S
C380 C378 1.419 . S
C380 C381 1.363 . S
C380 H383 0.929 . S
C381 C380 1.363 . S
C381 C387 1.428 . S
H382 C378 0.930 . S
H383 C380 0.929 . S
S384 N385 1.613 . S
S384 N386 1.610 . S
N385 S384 1.613 . S
N385 C388 1.350 . S
N386 S384 1.610 . S
N386 C387 1.351 . S
C387 C381 1.428 . S
C387 N386 1.351 . S
C387 C388 1.434 . S
C388 C379 1.429 . S
C388 N385 1.350 . S
C388 C387 1.434 . S
C389 C390 1.369 . S
C389 C391 1.419 . S
C389 H393 0.930 . S
C390 C389 1.369 . S
C390 C399 1.429 . S
C391 C389 1.419 . S
C391 C392 1.363 . S
C391 H394 0.929 . S
C392 C391 1.363 . S
C392 C398 1.428 . S
H393 C389 0.930 . S
H394 C391 0.929 . S
S395 N396 1.613 . S
S395 N397 1.610 . S
N396 S395 1.613 . S
N396 C399 1.350 . S
N397 S395 1.610 . S
N397 C398 1.351 . S
C398 C392 1.428 . S
C398 N397 1.351 . S
C398 C399 1.434 . S
C399 C390 1.429 . S
C399 N396 1.350 . S
C399 C398 1.434 . S
C400 C401 1.369 . S
C400 C402 1.419 . S
C400 H404 0.930 . S
C401 C400 1.369 . S
C401 C410 1.429 . S
C402 C400 1.419 . S
C402 C403 1.363 . S
C402 H405 0.929 . S
C403 C402 1.363 . S
C403 C409 1.428 . S
H404 C400 0.930 . S
H405 C402 0.929 . S
S406 N407 1.613 . S
S406 N408 1.610 . S
N407 S406 1.613 . S
N407 C410 1.350 1_565 S
N408 S406 1.610 . S
N408 C409 1.351 1_565 S
C409 C403 1.428 . S
C409 N408 1.351 1_545 S
C409 C410 1.434 . S
C410 C401 1.429 . S
C410 N407 1.350 1_545 S
C410 C409 1.434 . S
C411 C412 1.369 . S
C411 C413 1.419 . S
C411 H415 0.930 . S
C412 C411 1.369 . S
C412 C421 1.429 . S
C413 C411 1.419 . S
C413 C414 1.363 . S
C413 H416 0.929 . S
C414 C413 1.363 . S
C414 C420 1.428 . S
H415 C411 0.930 . S
H416 C413 0.929 . S
S417 N418 1.613 . S
S417 N419 1.610 . S
N418 S417 1.613 . S
N418 C421 1.350 . S
N419 S417 1.610 . S
N419 C420 1.351 . S
C420 C414 1.428 . S
C420 N419 1.351 . S
C420 C421 1.434 . S
C421 C412 1.429 . S
C421 N418 1.350 . S
C421 C420 1.434 . S
C422 C423 1.369 . S
C422 C424 1.419 . S
C422 H426 0.930 . S
C423 C422 1.369 . S
C423 C432 1.429 . S
C424 C422 1.419 . S
C424 C425 1.363 . S
C424 H427 0.929 . S
C425 C424 1.363 . S
C425 C431 1.428 . S
H426 C422 0.930 . S
H427 C424 0.929 . S
S428 N429 1.613 . S
S428 N430 1.610 . S
N429 S428 1.613 . S
N429 C432 1.350 . S
N430 S428 1.610 . S
N430 C431 1.351 . S
C431 C425 1.428 . S
C431 N430 1.351 . S
C431 C432 1.434 . S
C432 C423 1.429 . S
C432 N429 1.350 . S
C432 C431 1.434 . S
C433 C434 1.369 . S
C433 C435 1.419 . S
C433 H437 0.930 . S
C434 C433 1.369 . S
C434 C443 1.429 . S
C435 C433 1.419 . S
C435 C436 1.363 . S
C435 H438 0.929 . S
C436 C435 1.363 . S
C436 C442 1.428 . S
H437 C433 0.930 . S
H438 C435 0.929 . S
S439 N440 1.613 . S
S439 N441 1.610 . S
N440 S439 1.613 . S
N440 C443 1.350 . S
N441 S439 1.610 . S
N441 C442 1.351 . S
C442 C436 1.428 . S
C442 N441 1.351 . S
C442 C443 1.434 . S
C443 C434 1.429 . S
C443 N440 1.350 . S
C443 C442 1.434 . S
C444 C445 1.369 . S
C444 C446 1.419 . S
C444 H448 0.930 . S
C445 C444 1.369 . S
C445 C454 1.429 . S
C446 C444 1.419 . S
C446 C447 1.363 . S
C446 H449 0.929 . S
C447 C446 1.363 . S
C447 C453 1.428 . S
H448 C444 0.930 . S
H449 C446 0.929 . S
S450 N451 1.613 . S
S450 N452 1.610 . S
N451 S450 1.613 . S
N451 C454 1.350 . S
N452 S450 1.610 . S
N452 C453 1.351 . S
C453 C447 1.428 . S
C453 N452 1.351 . S
C453 C454 1.434 . S
C454 C445 1.429 . S
C454 N451 1.350 . S
C454 C453 1.434 . S
C455 C456 1.369 . S
C455 C457 1.419 . S
C455 H459 0.930 . S
C456 C455 1.369 . S
C456 C465 1.429 . S
C457 C455 1.419 . S
C457 C458 1.363 . S
C457 H460 0.929 . S
C458 C457 1.363 . S
C458 C464 1.428 . S
H459 C455 0.930 . S
H460 C457 0.929 . S
S461 N462 1.613 . S
S461 N463 1.610 . S
N462 S461 1.613 . S
N462 C465 1.350 . S
N463 S461 1.610 . S
N463 C464 1.351 . S
C464 C458 1.428 . S
C464 N463 1.351 . S
C464 C465 1.434 . S
C465 C456 1.429 . S
C465 N462 1.350 . S
C465 C464 1.434 . S
C466 C467 1.369 . S
C466 C468 1.419 . S
C466 H470 0.930 . S
C467 C466 1.369 . S
C467 C476 1.429 . S
C468 C466 1.419 . S
C468 C469 1.363 . S
C468 H471 0.929 . S
C469 C468 1.363 . S
C469 C475 1.428 . S
H470 C466 0.930 . S
H471 C468 0.929 . S
S472 N473 1.613 . S
S472 N474 1.610 . S
N473 S472 1.613 . S
N473 C476 1.350 . S
N474 S472 1.610 . S
N474 C475 1.351 . S
C475 C469 1.428 . S
C475 N474 1.351 . S
C475 C476 1.434 . S
C476 C467 1.429 . S
C476 N473 1.350 . S
C476 C475 1.434 . S
C477 C478 1.369 . S
C477 C479 1.419 . S
C477 H481 0.930 . S
C478 C477 1.369 . S
C478 C487 1.429 . S
C479 C477 1.419 . S
C479 C480 1.363 . S
C479 H482 0.929 . S
C480 C479 1.363 . S
C480 C486 1.428 . S
H481 C477 0.930 . S
H482 C479 0.929 . S
S483 N484 1.613 1_455 S
S483 N485 1.610 1_455 S
N484 S483 1.613 1_655 S
N484 C487 1.350 . S
N485 S483 1.610 1_655 S
N485 C486 1.351 . S
C486 C480 1.428 . S
C486 N485 1.351 . S
C486 C487 1.434 . S
C487 C478 1.429 . S
C487 N484 1.350 . S
C487 C486 1.434 . S
C488 C489 1.369 . S
C488 C490 1.419 . S
C488 H492 0.930 1_565 S
C489 C488 1.369 . S
C489 C498 1.429 . S
C490 C488 1.419 . S
C490 C491 1.363 . S
C490 H493 0.929 . S
C491 C490 1.363 . S
C491 C497 1.428 . S
H492 C488 0.930 1_545 S
H493 C490 0.929 . S
S494 N495 1.613 . S
S494 N496 1.610 . S
N495 S494 1.613 . S
N495 C498 1.350 . S
N496 S494 1.610 . S
N496 C497 1.351 . S
C497 C491 1.428 . S
C497 N496 1.351 . S
C497 C498 1.434 . S
C498 C489 1.429 . S
C498 N495 1.350 . S
C498 C497 1.434 . S
C499 C500 1.369 . S
C499 C501 1.419 . S
C499 H503 0.930 . S
C500 C499 1.369 . S
C500 C509 1.429 . S
C501 C499 1.419 . S
C501 C502 1.363 . S
C501 H504 0.929 . S
C502 C501 1.363 . S
C502 C508 1.428 . S
H503 C499 0.930 . S
H504 C501 0.929 . S
S505 N506 1.613 . S
S505 N507 1.610 . S
N506 S505 1.613 . S
N506 C509 1.350 . S
N507 S505 1.610 . S
N507 C508 1.351 . S
C508 C502 1.428 . S
C508 N507 1.351 . S
C508 C509 1.434 . S
C509 C500 1.429 . S
C509 N506 1.350 . S
C509 C508 1.434 . S
C510 C511 1.369 . S
C510 C512 1.419 . S
C510 H514 0.930 . S
C511 C510 1.369 . S
C511 C520 1.429 . S
C512 C510 1.419 . S
C512 C513 1.363 . S
C512 H515 0.929 . S
C513 C512 1.363 . S
C513 C519 1.428 . S
H514 C510 0.930 . S
H515 C512 0.929 . S
S516 N517 1.613 . S
S516 N518 1.610 . S
N517 S516 1.613 . S
N517 C520 1.350 . S
N518 S516 1.610 . S
N518 C519 1.351 . S
C519 C513 1.428 . S
C519 N518 1.351 . S
C519 C520 1.434 . S
C520 C511 1.429 . S
C520 N517 1.350 . S
C520 C519 1.434 . S
C521 C522 1.369 . S
C521 C523 1.419 . S
C521 H525 0.930 . S
C522 C521 1.369 . S
C522 C531 1.429 . S
C523 C521 1.419 . S
C523 C524 1.363 . S
C523 H526 0.929 . S
C524 C523 1.363 . S
C524 C530 1.428 . S
H525 C521 0.930 . S
H526 C523 0.929 . S
S527 N528 1.613 . S
S527 N529 1.610 . S
N528 S527 1.613 . S
N528 C531 1.350 . S
N529 S527 1.610 . S
N529 C530 1.351 . S
C530 C524 1.428 . S
C530 N529 1.351 . S
C530 C531 1.434 . S
C531 C522 1.429 . S
C531 N528 1.350 . S
C531 C530 1.434 . S
C532 C533 1.369 . S
C532 C534 1.419 . S
C532 H536 0.930 . S
C533 C532 1.369 . S
C533 C542 1.429 . S
C534 C532 1.419 . S
C534 C535 1.363 . S
C534 H537 0.929 . S
C535 C534 1.363 . S
C535 C541 1.428 . S
H536 C532 0.930 . S
H537 C534 0.929 . S
S538 N539 1.613 . S
S538 N540 1.610 . S
N539 S538 1.613 . S
N539 C542 1.350 . S
N540 S538 1.610 . S
N540 C541 1.351 . S
C541 C535 1.428 . S
C541 N540 1.351 . S
C541 C542 1.434 . S
C542 C533 1.429 . S
C542 N539 1.350 . S
C542 C541 1.434 . S
C543 C544 1.369 . S
C543 C545 1.419 . S
C543 H547 0.930 1_655 S
C544 C543 1.369 . S
C544 C553 1.429 . S
C545 C543 1.419 . S
C545 C546 1.363 . S
C545 H548 0.929 . S
C546 C545 1.363 . S
C546 C552 1.428 . S
H547 C543 0.930 1_455 S
H548 C545 0.929 . S
S549 N550 1.613 . S
S549 N551 1.610 . S
N550 S549 1.613 . S
N550 C553 1.350 . S
N551 S549 1.610 . S
N551 C552 1.351 . S
C552 C546 1.428 . S
C552 N551 1.351 . S
C552 C553 1.434 . S
C553 C544 1.429 . S
C553 N550 1.350 . S
C553 C552 1.434 . S
C554 C555 1.369 . S
C554 C556 1.419 . S
C554 H558 0.930 . S
C555 C554 1.369 . S
C555 C564 1.429 . S
C556 C554 1.419 . S
C556 C557 1.363 . S
C556 H559 0.929 . S
C557 C556 1.363 . S
C557 C563 1.428 . S
H558 C554 0.930 . S
H559 C556 0.929 . S
S560 N561 1.613 1_545 S
S560 N562 1.610 1_655 S
N561 S560 1.613 1_565 S
N561 C564 1.350 1_655 S
N562 S560 1.610 1_455 S
N562 C563 1.351 1_545 S
C563 C557 1.428 . S
C563 N562 1.351 1_565 S
C563 C564 1.434 . S
C564 C555 1.429 . S
C564 N561 1.350 1_455 S
C564 C563 1.434 . S
C565 C566 1.369 . S
C565 C567 1.419 . S
C565 H569 0.930 . S
C566 C565 1.369 . S
C566 C575 1.429 . S
C567 C565 1.419 . S
C567 C568 1.363 . S
C567 H570 0.929 . S
C568 C567 1.363 . S
C568 C574 1.428 . S
H569 C565 0.930 . S
H570 C567 0.929 . S
S571 N572 1.616 . S
S571 N573 1.601 1_565 S
N572 S571 1.616 . S
N572 C575 1.350 1_565 S
N573 S571 1.601 1_545 S
N573 C574 1.351 . S
C574 C568 1.428 . S
C574 N573 1.351 . S
C574 C575 1.434 . S
C575 C566 1.429 . S
C575 N572 1.350 1_545 S
C575 C574 1.434 . S
C225 C110 1.577 . S
C227 C0 1.577 . S
C236 C57 1.574 . S
C238 C15 1.575 . S
C247 C83 1.574 . S
C249 C29 1.575 . S
C258 C55 1.578 . S
C260 C97 1.578 . S
C269 C223 1.576 . S
C271 C112 1.576 . S
C280 C169 1.578 . S
C282 C126 1.578 . S
C291 C152 1.578 . S
C293 C183 1.578 . S
C302 C166 1.578 . S
C304 C196 1.578 . S
C313 C41 1.485 . S
C315 C12 1.483 . S
C324 C27 1.485 . S
C326 C43 1.479 . S
C335 C69 1.482 . S
C337 C85 1.480 . S
C346 C98 1.482 . S
C348 C71 1.484 . S
C357 C124 1.478 . S
C359 C140 1.484 . S
C368 C138 1.482 . S
C370 C154 1.483 . S
C379 C208 1.479 . S
C381 C181 1.485 . S
C390 C195 1.480 . S
C392 C211 1.487 . S
C401 C96 1.595 . S
C403 C1 1.595 . S
C412 C14 1.597 . S
C414 C111 1.593 . S
C423 C28 1.596 . S
C425 C56 1.595 . S
C434 C54 1.596 . S
C436 C82 1.594 . S
C445 C113 1.597 . S
C447 C197 1.594 . S
C456 C127 1.594 . S
C458 C222 1.596 . S
C467 C153 1.594 . S
C469 C168 1.596 . S
C478 C167 1.595 . S
C480 C182 1.595 . S
C489 C13 1.551 1_565 S
C491 C210 1.551 . S
C500 C180 1.551 . S
C502 C26 1.551 . S
C511 C40 1.550 . S
C513 C194 1.550 1_455 S
C522 C209 1.552 1_545 S
C524 C42 1.552 1_655 S
C533 C139 1.553 . S
C535 C68 1.552 . S
C544 C70 1.552 1_655 S
C546 C141 1.552 . S
C555 C155 1.550 1_455 S
C557 C84 1.551 1_565 S
C566 C125 1.550 1_545 S
C568 C99 1.550 . S
