# Generated by pormake.
# Topology ukn, (4)-cn, num edge types: 1
# Building blocks:
#     Node 0, Type 0, BuildingBlock: QUQFOY_clean_sbu_3, # of connection points: 4
#     Node 1, Type 0, BuildingBlock: QUQFOY_clean_sbu_3, # of connection points: 4
#     Node 2, Type 0, BuildingBlock: QUQFOY_clean_sbu_3, # of connection points: 4
#     Node 3, Type 0, BuildingBlock: QUQFOY_clean_sbu_3, # of connection points: 4
#     Node 4, Type 0, BuildingBlock: QUQFOY_clean_sbu_3, # of connection points: 4
#     Node 5, Type 0, BuildingBlock: QUQFOY_clean_sbu_3, # of connection points: 4
#     Node 6, Type 0, BuildingBlock: QUQFOY_clean_sbu_3, # of connection points: 4
#     Node 7, Type 0, BuildingBlock: QUQFOY_clean_sbu_3, # of connection points: 4
#     Node 8, Type 0, BuildingBlock: QUQFOY_clean_sbu_3, # of connection points: 4
#     Node 9, Type 0, BuildingBlock: QUQFOY_clean_sbu_3, # of connection points: 4
#     Node 10, Type 0, BuildingBlock: QUQFOY_clean_sbu_3, # of connection points: 4
#     Node 11, Type 0, BuildingBlock: QUQFOY_clean_sbu_3, # of connection points: 4
#     Node 12, Type 0, BuildingBlock: QUQFOY_clean_sbu_3, # of connection points: 4
#     Node 13, Type 0, BuildingBlock: QUQFOY_clean_sbu_3, # of connection points: 4
#     Node 14, Type 0, BuildingBlock: QUQFOY_clean_sbu_3, # of connection points: 4
#     Node 15, Type 0, BuildingBlock: QUQFOY_clean_sbu_3, # of connection points: 4
#     Node 16, Type 0, BuildingBlock: QUQFOY_clean_sbu_3, # of connection points: 4
#     Node 17, Type 0, BuildingBlock: QUQFOY_clean_sbu_3, # of connection points: 4
#     Node 18, Type 0, BuildingBlock: QUQFOY_clean_sbu_3, # of connection points: 4
#     Node 19, Type 0, BuildingBlock: QUQFOY_clean_sbu_3, # of connection points: 4
#     Node 20, Type 0, BuildingBlock: QUQFOY_clean_sbu_3, # of connection points: 4
#     Node 21, Type 0, BuildingBlock: QUQFOY_clean_sbu_3, # of connection points: 4
#     Node 22, Type 0, BuildingBlock: QUQFOY_clean_sbu_3, # of connection points: 4
#     Node 23, Type 0, BuildingBlock: QUQFOY_clean_sbu_3, # of connection points: 4
#     Node 24, Type 0, BuildingBlock: QUQFOY_clean_sbu_3, # of connection points: 4
#     Node 25, Type 0, BuildingBlock: QUQFOY_clean_sbu_3, # of connection points: 4
#     Node 26, Type 0, BuildingBlock: QUQFOY_clean_sbu_3, # of connection points: 4
#     Node 27, Type 0, BuildingBlock: QUQFOY_clean_sbu_3, # of connection points: 4
#     Node 28, Type 0, BuildingBlock: QUQFOY_clean_sbu_3, # of connection points: 4
#     Node 29, Type 0, BuildingBlock: QUQFOY_clean_sbu_3, # of connection points: 4
#     Node 30, Type 0, BuildingBlock: QUQFOY_clean_sbu_3, # of connection points: 4
#     Node 31, Type 0, BuildingBlock: QUQFOY_clean_sbu_3, # of connection points: 4
#     Node 32, Type 0, BuildingBlock: QUQFOY_clean_sbu_3, # of connection points: 4
#     Node 33, Type 0, BuildingBlock: QUQFOY_clean_sbu_3, # of connection points: 4
#     Node 34, Type 0, BuildingBlock: QUQFOY_clean_sbu_3, # of connection points: 4
#     Node 35, Type 0, BuildingBlock: QUQFOY_clean_sbu_3, # of connection points: 4
#     Edge 36, Type (0, 0), BuildingBlock: EZIPEK_clean_linker_0, # of connection points: 2
#     Edge 37, Type (0, 0), BuildingBlock: EZIPEK_clean_linker_0, # of connection points: 2
#     Edge 38, Type (0, 0), BuildingBlock: EZIPEK_clean_linker_0, # of connection points: 2
#     Edge 39, Type (0, 0), BuildingBlock: EZIPEK_clean_linker_0, # of connection points: 2
#     Edge 40, Type (0, 0), BuildingBlock: EZIPEK_clean_linker_0, # of connection points: 2
#     Edge 41, Type (0, 0), BuildingBlock: EZIPEK_clean_linker_0, # of connection points: 2
#     Edge 42, Type (0, 0), BuildingBlock: EZIPEK_clean_linker_0, # of connection points: 2
#     Edge 43, Type (0, 0), BuildingBlock: EZIPEK_clean_linker_0, # of connection points: 2
#     Edge 44, Type (0, 0), BuildingBlock: EZIPEK_clean_linker_0, # of connection points: 2
#     Edge 45, Type (0, 0), BuildingBlock: EZIPEK_clean_linker_0, # of connection points: 2
#     Edge 46, Type (0, 0), BuildingBlock: EZIPEK_clean_linker_0, # of connection points: 2
#     Edge 47, Type (0, 0), BuildingBlock: EZIPEK_clean_linker_0, # of connection points: 2
#     Edge 48, Type (0, 0), BuildingBlock: EZIPEK_clean_linker_0, # of connection points: 2
#     Edge 49, Type (0, 0), BuildingBlock: EZIPEK_clean_linker_0, # of connection points: 2
#     Edge 50, Type (0, 0), BuildingBlock: EZIPEK_clean_linker_0, # of connection points: 2
#     Edge 51, Type (0, 0), BuildingBlock: EZIPEK_clean_linker_0, # of connection points: 2
#     Edge 52, Type (0, 0), BuildingBlock: EZIPEK_clean_linker_0, # of connection points: 2
#     Edge 53, Type (0, 0), BuildingBlock: EZIPEK_clean_linker_0, # of connection points: 2
#     Edge 54, Type (0, 0), BuildingBlock: EZIPEK_clean_linker_0, # of connection points: 2
#     Edge 55, Type (0, 0), BuildingBlock: EZIPEK_clean_linker_0, # of connection points: 2
#     Edge 56, Type (0, 0), BuildingBlock: EZIPEK_clean_linker_0, # of connection points: 2
#     Edge 57, Type (0, 0), BuildingBlock: EZIPEK_clean_linker_0, # of connection points: 2
#     Edge 58, Type (0, 0), BuildingBlock: EZIPEK_clean_linker_0, # of connection points: 2
#     Edge 59, Type (0, 0), BuildingBlock: EZIPEK_clean_linker_0, # of connection points: 2
#     Edge 60, Type (0, 0), BuildingBlock: EZIPEK_clean_linker_0, # of connection points: 2
#     Edge 61, Type (0, 0), BuildingBlock: EZIPEK_clean_linker_0, # of connection points: 2
#     Edge 62, Type (0, 0), BuildingBlock: EZIPEK_clean_linker_0, # of connection points: 2
#     Edge 63, Type (0, 0), BuildingBlock: EZIPEK_clean_linker_0, # of connection points: 2
#     Edge 64, Type (0, 0), BuildingBlock: EZIPEK_clean_linker_0, # of connection points: 2
#     Edge 65, Type (0, 0), BuildingBlock: EZIPEK_clean_linker_0, # of connection points: 2
#     Edge 66, Type (0, 0), BuildingBlock: EZIPEK_clean_linker_0, # of connection points: 2
#     Edge 67, Type (0, 0), BuildingBlock: EZIPEK_clean_linker_0, # of connection points: 2
#     Edge 68, Type (0, 0), BuildingBlock: EZIPEK_clean_linker_0, # of connection points: 2
#     Edge 69, Type (0, 0), BuildingBlock: EZIPEK_clean_linker_0, # of connection points: 2
#     Edge 70, Type (0, 0), BuildingBlock: EZIPEK_clean_linker_0, # of connection points: 2
#     Edge 71, Type (0, 0), BuildingBlock: EZIPEK_clean_linker_0, # of connection points: 2
#     Edge 72, Type (0, 0), BuildingBlock: EZIPEK_clean_linker_0, # of connection points: 2
#     Edge 73, Type (0, 0), BuildingBlock: EZIPEK_clean_linker_0, # of connection points: 2
#     Edge 74, Type (0, 0), BuildingBlock: EZIPEK_clean_linker_0, # of connection points: 2
#     Edge 75, Type (0, 0), BuildingBlock: EZIPEK_clean_linker_0, # of connection points: 2
#     Edge 76, Type (0, 0), BuildingBlock: EZIPEK_clean_linker_0, # of connection points: 2
#     Edge 77, Type (0, 0), BuildingBlock: EZIPEK_clean_linker_0, # of connection points: 2
#     Edge 78, Type (0, 0), BuildingBlock: EZIPEK_clean_linker_0, # of connection points: 2
#     Edge 79, Type (0, 0), BuildingBlock: EZIPEK_clean_linker_0, # of connection points: 2
#     Edge 80, Type (0, 0), BuildingBlock: EZIPEK_clean_linker_0, # of connection points: 2
#     Edge 81, Type (0, 0), BuildingBlock: EZIPEK_clean_linker_0, # of connection points: 2
#     Edge 82, Type (0, 0), BuildingBlock: EZIPEK_clean_linker_0, # of connection points: 2
#     Edge 83, Type (0, 0), BuildingBlock: EZIPEK_clean_linker_0, # of connection points: 2
#     Edge 84, Type (0, 0), BuildingBlock: EZIPEK_clean_linker_0, # of connection points: 2
#     Edge 85, Type (0, 0), BuildingBlock: EZIPEK_clean_linker_0, # of connection points: 2
#     Edge 86, Type (0, 0), BuildingBlock: EZIPEK_clean_linker_0, # of connection points: 2
#     Edge 87, Type (0, 0), BuildingBlock: EZIPEK_clean_linker_0, # of connection points: 2
#     Edge 88, Type (0, 0), BuildingBlock: EZIPEK_clean_linker_0, # of connection points: 2
#     Edge 89, Type (0, 0), BuildingBlock: EZIPEK_clean_linker_0, # of connection points: 2
#     Edge 90, Type (0, 0), BuildingBlock: EZIPEK_clean_linker_0, # of connection points: 2
#     Edge 91, Type (0, 0), BuildingBlock: EZIPEK_clean_linker_0, # of connection points: 2
#     Edge 92, Type (0, 0), BuildingBlock: EZIPEK_clean_linker_0, # of connection points: 2
#     Edge 93, Type (0, 0), BuildingBlock: EZIPEK_clean_linker_0, # of connection points: 2
#     Edge 94, Type (0, 0), BuildingBlock: EZIPEK_clean_linker_0, # of connection points: 2
#     Edge 95, Type (0, 0), BuildingBlock: EZIPEK_clean_linker_0, # of connection points: 2
#     Edge 96, Type (0, 0), BuildingBlock: EZIPEK_clean_linker_0, # of connection points: 2
#     Edge 97, Type (0, 0), BuildingBlock: EZIPEK_clean_linker_0, # of connection points: 2
#     Edge 98, Type (0, 0), BuildingBlock: EZIPEK_clean_linker_0, # of connection points: 2
#     Edge 99, Type (0, 0), BuildingBlock: EZIPEK_clean_linker_0, # of connection points: 2
#     Edge 100, Type (0, 0), BuildingBlock: EZIPEK_clean_linker_0, # of connection points: 2
#     Edge 101, Type (0, 0), BuildingBlock: EZIPEK_clean_linker_0, # of connection points: 2
#     Edge 102, Type (0, 0), BuildingBlock: EZIPEK_clean_linker_0, # of connection points: 2
#     Edge 103, Type (0, 0), BuildingBlock: EZIPEK_clean_linker_0, # of connection points: 2
#     Edge 104, Type (0, 0), BuildingBlock: EZIPEK_clean_linker_0, # of connection points: 2
#     Edge 105, Type (0, 0), BuildingBlock: EZIPEK_clean_linker_0, # of connection points: 2
#     Edge 106, Type (0, 0), BuildingBlock: EZIPEK_clean_linker_0, # of connection points: 2
#     Edge 107, Type (0, 0), BuildingBlock: EZIPEK_clean_linker_0, # of connection points: 2
# Relax obj value: 0.070
# Max RMSD: 0.095
# Mean RMSD: 0.095
data_MOF--net-ukn--node1-QUQFOY_clean_sbu_3--edge1-EZIPEK_clean_linker_0
_symmetry_space_group_name_H-M    P1
_symmetry_Int_Tables_number       1
_symmetry_cell_setting            triclinic
loop_
_symmetry_equiv_pos_as_xyz
'x, y, z'
_cell_length_a     80.917505
_cell_length_b     80.766192
_cell_length_c     19.806818
_cell_angle_alpha  90.228714
_cell_angle_beta   89.876599
_cell_angle_gamma 119.91087
loop_
_atom_site_label
_atom_site_type_symbol
_atom_site_fract_x
_atom_site_fract_y
_atom_site_fract_z
_atom_type_partial_charge
C0 C 0.07131 0.31165 0.19249 0.0
O1 O 0.07277 0.32429 0.15204 0.0
Cd2 Cd 0.09399 0.32499 0.07247 0.0
O3 O 0.07167 0.29708 0.17088 0.0
Cd4 Cd 0.06275 0.28686 0.05553 0.0
C5 C 0.0983 0.28417 0.07747 0.0
O6 O 0.07222 0.31472 -0.01339 0.0
O7 O 0.07419 0.29071 0.95213 0.0
O8 O 0.03122 0.28101 0.05508 0.0
C9 C 0.0761 0.30721 0.94729 0.0
O10 O 0.10342 0.30115 0.09634 0.0
C11 C 0.02419 0.26325 0.04508 0.0
O12 O 0.0821 0.27346 0.05169 0.0
O13 O 0.03512 0.25619 0.04605 0.0
C14 C 0.67037 0.76367 0.19094 0.0
O15 O 0.65657 0.76169 0.15481 0.0
Cd16 Cd 0.65717 0.77299 0.04478 0.0
O17 O 0.68733 0.77148 0.16898 0.0
Cd18 Cd 0.70067 0.77948 0.05785 0.0
C19 C 0.70085 0.81763 0.0536 0.0
O20 O 0.67339 0.76069 -0.00975 0.0
O21 O 0.69642 0.78494 0.95277 0.0
O22 O 0.70677 0.75418 0.06075 0.0
C23 C 0.68022 0.77 0.94902 0.0
O24 O 0.68314 0.80585 0.04603 0.0
C25 C 0.72407 0.76458 0.04418 0.0
O26 O 0.71268 0.81228 0.06836 0.0
O27 O 0.73108 0.78255 0.0407 0.0
C28 C 0.22145 0.91065 0.19513 0.0
O29 O 0.22871 0.90299 0.15931 0.0
Cd30 Cd 0.21447 0.88875 0.06144 0.0
O31 O 0.21049 0.91614 0.17154 0.0
Cd32 Cd 0.20714 0.92299 0.05762 0.0
C33 C 0.1695 0.88642 0.07425 0.0
O34 O 0.22636 0.91425 -0.01152 0.0
O35 O 0.19967 0.90954 0.95815 0.0
O36 O 0.23144 0.95479 0.07343 0.0
C37 C 0.21519 0.90961 0.9498 0.0
O38 O 0.18149 0.88059 0.07135 0.0
C39 C 0.22218 0.96133 0.04292 0.0
O40 O 0.17461 0.90399 0.07211 0.0
O41 O 0.20503 0.95001 0.02577 0.0
C42 C 0.30169 0.07674 0.78212 0.0
O43 O 0.31 0.0875 0.83061 0.0
Cd44 Cd 0.32495 0.1068 0.91715 0.0
O45 O 0.28525 0.06337 0.79414 0.0
Cd46 Cd 0.28276 0.06598 0.91587 0.0
C47 C 0.2822 0.10506 0.93275 0.0
O48 O 0.31284 0.07898 0.98277 0.0
O49 O 0.28772 0.07817 0.01756 0.0
O50 O 0.27728 0.03588 0.94109 0.0
C51 C 0.30441 0.08068 0.02419 0.0
O52 O 0.30006 0.11322 0.94424 0.0
C53 C 0.25933 0.02852 0.94395 0.0
O54 O 0.27256 0.08815 0.91016 0.0
O55 O 0.25193 0.03878 0.93002 0.0
C56 C 0.90011 0.21918 0.7855 0.0
O57 O 0.88546 0.21683 0.81771 0.0
Cd58 Cd 0.8746 0.21125 0.92928 0.0
O59 O 0.91404 0.21878 0.81325 0.0
Cd60 Cd 0.92073 0.2109 0.9208 0.0
C61 C 0.8836 0.17261 0.91185 0.0
O62 O 0.90377 0.22294 0.97879 0.0
O63 O 0.92365 0.22018 0.02826 0.0
O64 O 0.95192 0.2354 0.91626 0.0
C65 C 0.91041 0.22404 0.02543 0.0
O66 O 0.87844 0.18491 0.91811 0.0
C67 C 0.95795 0.22451 0.93737 0.0
O68 O 0.90104 0.17736 0.91336 0.0
O69 O 0.94683 0.20652 0.93793 0.0
C70 C 0.75821 0.67746 0.78831 0.0
O71 O 0.74768 0.66469 0.82957 0.0
Cd72 Cd 0.76903 0.66529 0.90839 0.0
O73 O 0.77295 0.69237 0.80892 0.0
Cd74 Cd 0.7752 0.70295 0.92503 0.0
C75 C 0.81348 0.7057 0.90222 0.0
O76 O 0.75667 0.67511 0.99324 0.0
O77 O 0.78184 0.69892 0.02905 0.0
O78 O 0.7496 0.7088 0.92715 0.0
C79 C 0.76726 0.68246 0.03312 0.0
O80 O 0.80169 0.68952 0.87702 0.0
C81 C 0.76021 0.72659 0.93631 0.0
O82 O 0.80784 0.71575 0.93265 0.0
O83 O 0.77818 0.73374 0.9341 0.0
C84 C 0.90785 0.67696 0.78971 0.0
O85 O 0.90103 0.66229 0.82649 0.0
Cd86 Cd 0.88469 0.66522 0.91487 0.0
O87 O 0.9114 0.69309 0.81293 0.0
Cd88 Cd 0.91832 0.70387 0.92962 0.0
C89 C 0.88315 0.70684 0.90418 0.0
O90 O 0.90909 0.67509 0.99193 0.0
O91 O 0.90732 0.69846 0.03241 0.0
O92 O 0.95011 0.71252 0.89753 0.0
C93 C 0.90577 0.68212 0.0339 0.0
O94 O 0.87899 0.69067 0.87965 0.0
C95 C 0.95728 0.72628 0.9391 0.0
O96 O 0.89892 0.71733 0.93311 0.0
O97 O 0.94625 0.73078 0.96935 0.0
C98 C 0.3122 0.22857 0.79917 0.0
O99 O 0.32552 0.22954 0.83622 0.0
Cd100 Cd 0.3264 0.21531 0.94048 0.0
O101 O 0.29492 0.22035 0.81756 0.0
Cd102 Cd 0.27932 0.2102 0.92211 0.0
C103 C 0.28144 0.17177 0.93122 0.0
O104 O 0.30659 0.22408 0.98098 0.0
O105 O 0.28253 0.21788 0.03205 0.0
O106 O 0.27492 0.23487 0.9355 0.0
C107 C 0.30023 0.22385 0.02788 0.0
O108 O 0.29951 0.18281 0.93423 0.0
C109 C 0.25695 0.22523 0.93096 0.0
O110 O 0.26973 0.17781 0.92613 0.0
O111 O 0.24903 0.208 0.90995 0.0
C112 C 0.76616 0.08124 0.78386 0.0
O113 O 0.77555 0.09735 0.81222 0.0
Cd114 Cd 0.77144 0.10394 0.92536 0.0
O115 O 0.76161 0.06612 0.81593 0.0
Cd116 Cd 0.77478 0.06586 0.92207 0.0
C117 C 0.81422 0.10582 0.91621 0.0
O118 O 0.75596 0.07529 0.98515 0.0
O119 O 0.77753 0.07317 0.03011 0.0
O120 O 0.74993 0.03557 0.93136 0.0
C121 C 0.76328 0.07572 0.0302 0.0
O122 O 0.8035 0.11287 0.92738 0.0
C123 C 0.76042 0.02824 0.93854 0.0
O124 O 0.80764 0.08806 0.90777 0.0
O125 O 0.77836 0.03853 0.93073 0.0
C126 C 0.67736 0.90983 0.19208 0.0
O127 O 0.66735 0.89916 0.14512 0.0
Cd128 Cd 0.65734 0.88438 0.0433 0.0
O129 O 0.69474 0.9211 0.18024 0.0
Cd130 Cd 0.70154 0.92442 0.05999 0.0
C131 C 0.70132 0.88589 0.0516 0.0
O132 O 0.67235 0.91377 -0.00445 0.0
O133 O 0.69639 0.91466 0.9532 0.0
O134 O 0.70789 0.95574 0.06643 0.0
C135 C 0.67947 0.91167 0.95205 0.0
O136 O 0.68351 0.87899 0.04303 0.0
C137 C 0.72466 0.96221 0.04378 0.0
O138 O 0.71258 0.9032 0.06662 0.0
O139 O 0.73122 0.95099 0.03461 0.0
C140 C 0.08129 0.77098 0.19599 0.0
O141 O 0.09627 0.77397 0.1652 0.0
Cd142 Cd 0.10314 0.77683 0.05136 0.0
O143 O 0.06755 0.7711 0.16611 0.0
Cd144 Cd 0.06374 0.77955 0.05536 0.0
C145 C 0.10119 0.81883 0.063 0.0
O146 O 0.07364 0.76043 -0.0034 0.0
O147 O 0.07256 0.78254 0.95217 0.0
O148 O 0.03298 0.75407 0.04805 0.0
C149 C 0.07376 0.76749 0.95207 0.0
O150 O 0.10802 0.8078 0.05602 0.0
C151 C 0.02503 0.76394 0.03874 0.0
O152 O 0.08346 0.81262 0.06724 0.0
O153 O 0.03598 0.7819 0.03755 0.0
C154 C 0.21979 0.31438 0.1905 0.0
O155 O 0.22467 0.32938 0.15684 0.0
Cd156 Cd 0.20901 0.32595 0.05952 0.0
O157 O 0.21103 0.2978 0.16441 0.0
Cd158 Cd 0.20513 0.28574 0.05022 0.0
C159 C 0.16674 0.28391 0.07936 0.0
O160 O 0.22371 0.31449 -0.01248 0.0
O161 O 0.20074 0.29007 0.94497 0.0
O162 O 0.22916 0.27822 0.07734 0.0
C163 C 0.21447 0.30706 0.94463 0.0
O164 O 0.17819 0.30103 0.09708 0.0
C165 C 0.22136 0.26304 0.04251 0.0
O166 O 0.17252 0.27332 0.05407 0.0
O167 O 0.2048 0.25725 0.01888 0.0
C168 C 0.75139 0.64981 0.52402 0.0
O169 O 0.76401 0.6632 0.48812 0.0
Cd170 Cd 0.77262 0.66496 0.37268 0.0
O171 O 0.73927 0.63366 0.5004 0.0
Cd172 Cd 0.73194 0.61913 0.39258 0.0
C173 C 0.77164 0.6209 0.38554 0.0
O174 O 0.74283 0.64697 0.33425 0.0
O175 O 0.7328 0.62211 0.27093 0.0
O176 O 0.70147 0.61314 0.41469 0.0
C177 C 0.74063 0.64009 0.27585 0.0
O178 O 0.77822 0.6386 0.37374 0.0
C179 C 0.69466 0.59719 0.38439 0.0
O180 O 0.75446 0.60963 0.40196 0.0
O181 O 0.70521 0.59002 0.37153 0.0
C182 C 0.33627 0.09945 0.52673 0.0
O183 O 0.32411 0.10152 0.49236 0.0
Cd184 Cd 0.31916 0.10628 0.37663 0.0
O185 O 0.35074 0.09983 0.50034 0.0
Cd186 Cd 0.36415 0.10698 0.39116 0.0
C187 C 0.36454 0.14658 0.3813 0.0
O188 O 0.33606 0.09339 0.33564 0.0
O189 O 0.35948 0.09761 0.27346 0.0
O190 O 0.37034 0.08276 0.40229 0.0
C191 C 0.34216 0.09312 0.27764 0.0
O192 O 0.34655 0.13651 0.37496 0.0
C193 C 0.38774 0.09266 0.38575 0.0
O194 O 0.3753 0.13964 0.3919 0.0
O195 O 0.39425 0.11049 0.37812 0.0
C196 C 0.88645 0.24068 0.53334 0.0
O197 O 0.88507 0.23064 0.4837 0.0
Cd198 Cd 0.88261 0.21266 0.39502 0.0
O199 O 0.88029 0.25201 0.52477 0.0
Cd200 Cd 0.87828 0.25183 0.4005 0.0
C201 C 0.83978 0.21239 0.38992 0.0
O202 O 0.89677 0.24058 0.33114 0.0
O203 O 0.87203 0.24037 0.28738 0.0
O204 O 0.90246 0.28356 0.40968 0.0
C205 C 0.88669 0.23876 0.27944 0.0
O206 O 0.85012 0.20485 0.37803 0.0
C207 C 0.89299 0.28962 0.37766 0.0
O208 O 0.84642 0.22944 0.41039 0.0
O209 O 0.87572 0.27804 0.36196 0.0
C210 C 0.97984 0.42008 0.11022 0.0
O211 O 0.9914 0.43546 0.14006 0.0
Cd212 Cd -0.01155 0.44188 0.25421 0.0
O213 O 0.96642 0.40616 0.14067 0.0
Cd214 Cd 0.95278 0.40192 0.24791 0.0
C215 C 0.95179 0.4401 0.24434 0.0
O216 O 0.98146 0.41227 0.30864 0.0
O217 O 0.95712 0.40976 0.36494 0.0
O218 O 0.94787 0.37201 0.26957 0.0
C219 C 0.97388 0.41221 0.36467 0.0
O220 O 0.96962 0.44689 0.25021 0.0
C221 C 0.92995 0.36371 0.26419 0.0
O222 O 0.94017 0.42234 0.24092 0.0
O223 O 0.92227 0.37321 0.24391 0.0
C224 C 0.56414 0.55455 0.11642 0.0
O225 O 0.55002 0.55243 0.15159 0.0
Cd226 Cd 0.54295 0.54896 0.26907 0.0
O227 O 0.57837 0.55442 0.14225 0.0
Cd228 Cd 0.58488 0.54651 0.24931 0.0
C229 C 0.54498 0.50738 0.25822 0.0
O230 O 0.57304 0.56244 0.31083 0.0
O231 O 0.58389 0.54769 0.37094 0.0
O232 O 0.61469 0.57182 0.25754 0.0
C233 C 0.57589 0.55776 0.36845 0.0
O234 O 0.53735 0.51756 0.27003 0.0
C235 C 0.62253 0.56161 0.25834 0.0
O236 O 0.56243 0.51416 0.24375 0.0
O237 O 0.61275 0.54394 0.24335 0.0
C238 C 0.42334 0.00789 0.11533 0.0
O239 O 0.41267 -0.00384 0.15914 0.0
Cd240 Cd 0.43064 -0.00638 0.24873 0.0
O241 O 0.43882 0.02223 0.13361 0.0
Cd242 Cd 0.43925 0.03255 0.24874 0.0
C243 C 0.47674 0.03422 0.25227 0.0
O244 O 0.41864 0.00551 0.32204 0.0
O245 O 0.44602 0.02705 0.36232 0.0
O246 O 0.41648 0.0416 0.21798 0.0
C247 C 0.4303 0.01177 0.37046 0.0
O248 O 0.46434 0.01718 0.26815 0.0
C249 C 0.42375 0.05554 0.25905 0.0
O250 O 0.4718 0.04558 0.22815 0.0
O251 O 0.43972 0.06015 0.286 0.0
C252 C 0.57233 0.00557 0.12243 0.0
O253 O 0.56636 -0.0073 0.16725 0.0
Cd254 Cd 0.54792 0.99751 0.26339 0.0
O255 O 0.57617 0.02239 0.13677 0.0
Cd256 Cd 0.58436 0.03454 0.24941 0.0
C257 C 0.54545 0.03347 0.26267 0.0
O258 O 0.57512 0.00682 0.31042 0.0
O259 O 0.58336 0.03173 0.37098 0.0
O260 O 0.61522 0.04275 0.21817 0.0
C261 C 0.57662 0.01387 0.36808 0.0
O262 O 0.54008 0.01656 0.28309 0.0
C263 C 0.62226 0.0574 0.25593 0.0
O264 O 0.56162 0.04385 0.23577 0.0
O265 O 0.61083 0.06229 0.28108 0.0
C266 C 0.98 0.55692 0.1073 0.0
O267 O 0.99345 0.55637 0.13734 0.0
Cd268 Cd -0.01142 0.55103 0.2474 0.0
O269 O 0.96507 0.5542 0.13729 0.0
Cd270 Cd 0.95383 0.54655 0.24939 0.0
C271 C 0.95212 0.5082 0.23713 0.0
O272 O 0.9826 0.56511 0.31726 0.0
O273 O 0.95935 0.53944 0.36087 0.0
O274 O 0.94649 0.57111 0.23708 0.0
C275 C 0.97514 0.55463 0.36866 0.0
O276 O 0.96985 0.51979 0.24265 0.0
C277 C 0.93005 0.56136 0.26255 0.0
O278 O 0.94009 0.51381 0.23279 0.0
O279 O 0.92417 0.5441 0.27828 0.0
C280 C 0.42945 0.41405 0.11514 0.0
O281 O 0.43681 0.4286 0.15273 0.0
Cd282 Cd 0.43495 0.44036 0.25809 0.0
O283 O 0.43599 0.40289 0.12046 0.0
Cd284 Cd 0.43874 0.40062 0.23924 0.0
C285 C 0.47752 0.44124 0.25707 0.0
O286 O 0.41967 0.41052 0.30627 0.0
O287 O 0.44296 0.40985 0.35312 0.0
O288 O 0.41373 0.36938 0.23841 0.0
C289 C 0.42904 0.41267 0.3597 0.0
O290 O 0.46739 0.44878 0.27244 0.0
C291 C 0.42408 0.36321 0.26309 0.0
O292 O 0.47066 0.42424 0.23562 0.0
O293 O 0.44199 0.37431 0.26858 0.0
C294 C 0.33657 0.23983 0.53261 0.0
O295 O 0.32186 0.22898 0.49887 0.0
Cd296 Cd 0.32221 0.21678 0.39423 0.0
O297 O 0.35312 0.24734 0.50783 0.0
Cd298 Cd 0.36294 0.25133 0.39367 0.0
C299 C 0.36428 0.21399 0.39146 0.0
O300 O 0.33478 0.24267 0.32489 0.0
O301 O 0.35715 0.23872 0.2806 0.0
O302 O 0.36959 0.28291 0.3892 0.0
C303 C 0.34137 0.23832 0.27418 0.0
O304 O 0.34645 0.20773 0.38587 0.0
C305 C 0.38729 0.28967 0.38014 0.0
O306 O 0.37595 0.23135 0.40438 0.0
O307 O 0.39409 0.27851 0.38305 0.0
C308 C 0.75311 0.09937 0.5286 0.0
O309 O 0.76693 0.10031 0.49499 0.0
Cd310 Cd 0.77243 0.10458 0.37889 0.0
O311 O 0.74007 0.10133 0.50128 0.0
Cd312 Cd 0.73327 0.10893 0.39314 0.0
C313 C 0.77027 0.14704 0.39478 0.0
O314 O 0.74212 0.08901 0.33258 0.0
O315 O 0.74152 0.11188 0.2771 0.0
O316 O 0.7015 0.08691 0.4279 0.0
C317 C 0.74296 0.09699 0.27694 0.0
O318 O 0.77637 0.13552 0.38461 0.0
C319 C 0.69473 0.09275 0.38225 0.0
O320 O 0.75304 0.14156 0.40908 0.0
O321 O 0.706 0.10774 0.35008 0.0
C322 C 0.89274 0.65072 0.5243 0.0
O323 O 0.89276 0.66378 0.4884 0.0
Cd324 Cd 0.8843 0.66557 0.37402 0.0
O325 O 0.88718 0.63402 0.50245 0.0
Cd326 Cd 0.87803 0.61963 0.39506 0.0
C327 C 0.84023 0.62269 0.38183 0.0
O328 O 0.89557 0.64718 0.33498 0.0
O329 O 0.87936 0.6222 0.27358 0.0
O330 O 0.90261 0.61392 0.39638 0.0
C331 C 0.89042 0.64008 0.2771 0.0
O332 O 0.85141 0.64033 0.36901 0.0
C333 C 0.89197 0.59627 0.38407 0.0
O334 O 0.84612 0.61155 0.40077 0.0
O335 O 0.87393 0.58868 0.38915 0.0
C336 C 0.41651 0.98538 0.86312 0.0
O337 O 0.42911 -0.0078 0.83011 0.0
Cd338 Cd 0.44076 0.99687 0.72296 0.0
O339 O 0.40488 0.96932 0.83693 0.0
Cd340 Cd 0.39728 0.9541 0.72773 0.0
C341 C 0.43416 0.9536 0.74032 0.0
O342 O 0.41118 0.98328 0.67306 0.0
O343 O 0.39493 0.95906 0.60832 0.0
O344 O 0.36658 0.94752 0.75908 0.0
C345 C 0.40614 0.9768 0.61426 0.0
O346 O 0.43701 0.96836 0.77208 0.0
C347 C 0.35944 0.93274 0.72177 0.0
O348 O 0.4178 0.94156 0.7187 0.0
O349 O 0.36998 0.9264 0.69968 0.0
C350 C 0.00287 0.43538 0.86867 0.0
O351 O -0.00722 0.44119 0.83952 0.0
Cd352 Cd -0.01262 0.4412 0.72373 0.0
O353 O 0.01552 0.43366 0.83746 0.0
Cd354 Cd 0.02909 0.44406 0.73023 0.0
C355 C 0.03038 0.48337 0.73649 0.0
O356 O 0.00032 0.42453 0.66911 0.0
O357 O 0.02401 0.44642 0.61245 0.0
O358 O 0.03502 0.41891 0.73671 0.0
C359 C 0.00755 0.43173 0.6126 0.0
O360 O 0.01271 0.47225 0.72692 0.0
C361 C 0.05208 0.42902 0.71728 0.0
O362 O 0.04185 0.47719 0.74497 0.0
O363 O 0.05918 0.44694 0.71108 0.0
C364 C 0.55364 0.5767 0.86898 0.0
O365 O 0.55125 0.56578 0.82079 0.0
Cd366 Cd 0.54715 0.54586 0.7358 0.0
O367 O 0.55076 0.59017 0.85636 0.0
Cd368 Cd 0.5438 0.58754 0.7372 0.0
C369 C 0.50478 0.54765 0.74188 0.0
O370 O 0.5597 0.57386 0.66988 0.0
O371 O 0.53755 0.5778 0.62208 0.0
O372 O 0.56773 0.61675 0.7029 0.0
C373 C 0.55054 0.5734 0.61709 0.0
O374 O 0.51523 0.53995 0.73827 0.0
C375 C 0.55796 0.62492 0.71061 0.0
O376 O 0.51142 0.56556 0.74321 0.0
O377 O 0.54125 0.61547 0.73506 0.0
C378 C 0.6464 0.75053 0.45974 0.0
O379 O 0.66052 0.76201 0.49563 0.0
Cd380 Cd 0.66075 0.77492 0.60219 0.0
O381 O 0.62941 0.74223 0.4813 0.0
Cd382 Cd 0.61599 0.7365 0.59072 0.0
C383 C 0.61744 0.77556 0.58214 0.0
O384 O 0.6437 0.74592 0.65103 0.0
O385 O 0.61952 0.74153 0.71116 0.0
O386 O 0.60911 0.70563 0.56618 0.0
C387 C 0.63682 0.74577 0.70813 0.0
O388 O 0.63525 0.78236 0.59185 0.0
C389 C 0.59366 0.69893 0.59925 0.0
O390 O 0.6057 0.75794 0.57524 0.0
O391 O 0.58735 0.70984 0.61744 0.0
C392 C 0.23534 0.89961 0.45852 0.0
O393 O 0.22478 0.90361 0.4944 0.0
Cd394 Cd 0.20788 0.88728 0.59041 0.0
O395 O 0.2431 0.89042 0.48017 0.0
Cd396 Cd 0.24975 0.88211 0.58582 0.0
C397 C 0.21083 0.84455 0.5706 0.0
O398 O 0.23352 0.8924 0.64762 0.0
O399 O 0.254 0.88972 0.7072 0.0
O400 O 0.27909 0.90703 0.60212 0.0
C401 C 0.24089 0.8939 0.70431 0.0
O402 O 0.2041 0.8559 0.57144 0.0
C403 C 0.28739 0.89735 0.5943 0.0
O404 O 0.2282 0.84993 0.58235 0.0
O405 O 0.2778 0.88043 0.57113 0.0
C406 C 0.09233 0.34036 0.45407 0.0
O407 O 0.09508 0.32866 0.48823 0.0
Cd408 Cd 0.10195 0.32616 0.60332 0.0
O409 O 0.09391 0.3556 0.47792 0.0
Cd410 Cd 0.10307 0.36936 0.5838 0.0
C411 C 0.14214 0.36945 0.60007 0.0
O412 O 0.08697 0.34105 0.6432 0.0
O413 O 0.10306 0.3663 0.70295 0.0
O414 O 0.07849 0.37577 0.57935 0.0
C415 C 0.09256 0.34838 0.70065 0.0
O416 O 0.13235 0.35336 0.62892 0.0
C417 C 0.08919 0.39291 0.5984 0.0
O418 O 0.13468 0.37742 0.56669 0.0
O419 O 0.1072 0.39995 0.59983 0.0
C420 C 0.23602 0.33884 0.45956 0.0
O421 O 0.2284 0.32538 0.50227 0.0
Cd422 Cd 0.21248 0.32503 0.60441 0.0
O423 O 0.24133 0.35602 0.47514 0.0
Cd424 Cd 0.24944 0.37087 0.58386 0.0
C425 C 0.20957 0.36797 0.5915 0.0
O426 O 0.24071 0.34432 0.64827 0.0
O427 O 0.24578 0.36898 0.70641 0.0
O428 O 0.2789 0.37428 0.5894 0.0
C429 C 0.24103 0.35144 0.70491 0.0
O430 O 0.20419 0.3503 0.60008 0.0
C431 C 0.28713 0.39231 0.5937 0.0
O432 O 0.22672 0.38029 0.57873 0.0
O433 O 0.27774 0.40078 0.58138 0.0
C434 C 0.6456 0.88989 0.45219 0.0
O435 O 0.65824 0.88851 0.48558 0.0
Cd436 Cd 0.66083 0.88348 0.60045 0.0
O437 O 0.63075 0.88838 0.4796 0.0
Cd438 Cd 0.61729 0.88084 0.58962 0.0
C439 C 0.6164 0.84222 0.58567 0.0
O440 O 0.64601 0.89861 0.64857 0.0
O441 O 0.62125 0.87871 0.70688 0.0
O442 O 0.6093 0.90408 0.56493 0.0
C443 C 0.63859 0.89164 0.70507 0.0
O444 O 0.63416 0.85253 0.59644 0.0
C445 C 0.5943 0.89648 0.60028 0.0
O446 O 0.60543 0.84878 0.57342 0.0
O447 O 0.58935 0.88025 0.62573 0.0
C448 C 0.09418 0.75181 0.45121 0.0
O449 O 0.09667 0.76514 0.49072 0.0
Cd450 Cd 0.10169 0.77787 0.59673 0.0
O451 O 0.09591 0.73803 0.47226 0.0
Cd452 Cd 0.10442 0.73689 0.5859 0.0
C453 C 0.14362 0.77679 0.57799 0.0
O454 O 0.08564 0.7479 0.64466 0.0
O455 O 0.10529 0.74322 0.70446 0.0
O456 O 0.07971 0.70564 0.5741 0.0
C457 C 0.09193 0.74705 0.70191 0.0
O458 O 0.13289 0.78388 0.58755 0.0
C459 C 0.08924 0.69898 0.6018 0.0
O460 O 0.1372 0.75895 0.573 0.0
O461 O 0.10682 0.71 0.61457 0.0
C462 C 0.00221 0.57879 0.8596 0.0
O463 O -0.00969 0.57684 0.81458 0.0
Cd464 Cd 0.99195 0.55176 0.73822 0.0
O465 O 0.01785 0.57988 0.8435 0.0
Cd466 Cd 0.03114 0.58921 0.73292 0.0
C467 C 0.02843 0.55037 0.75125 0.0
O468 O 0.00468 0.57348 0.66879 0.0
O469 O 0.02792 0.5939 0.61037 0.0
O470 O 0.0349 0.61854 0.73473 0.0
C471 C 0.01053 0.58117 0.61287 0.0
O472 O 0.01053 0.54444 0.75561 0.0
C473 C 0.05282 0.6263 0.72602 0.0
O474 O 0.04071 0.5673 0.73497 0.0
O475 O 0.06117 0.61662 0.73555 0.0
C476 C 0.41722 0.43541 0.87206 0.0
O477 O 0.43096 0.43627 0.83855 0.0
Cd478 Cd 0.43544 0.43948 0.72441 0.0
O479 O 0.40407 0.43715 0.84457 0.0
Cd480 Cd 0.39857 0.44417 0.73341 0.0
C481 C 0.43485 0.4824 0.73701 0.0
O482 O 0.40542 0.4228 0.67052 0.0
O483 O 0.4123 0.44938 0.62287 0.0
O484 O 0.36673 0.41973 0.74605 0.0
C485 C 0.40974 0.43264 0.61735 0.0
O486 O 0.44031 0.47029 0.73016 0.0
C487 C 0.36023 0.42895 0.71526 0.0
O488 O 0.41743 0.47738 0.74416 0.0
O489 O 0.37152 0.44619 0.69919 0.0
C490 C 0.55468 0.98502 0.86805 0.0
O491 O 0.55639 -0.00707 0.83628 0.0
Cd492 Cd 0.54283 0.996 0.73606 0.0
O493 O 0.54773 0.96869 0.84047 0.0
Cd494 Cd 0.54074 0.95625 0.72686 0.0
C495 C 0.50281 0.95354 0.74791 0.0
O496 O 0.55946 0.98576 0.66713 0.0
O497 O 0.53647 0.96206 0.61297 0.0
O498 O 0.5632 0.9468 0.76013 0.0
C499 C 0.55065 0.97875 0.61246 0.0
O500 O 0.5142 0.96934 0.77535 0.0
C501 C 0.55757 0.93397 0.71523 0.0
O502 O 0.50808 0.94226 0.72554 0.0
O503 O 0.54278 0.9303 0.68186 0.0
C504 C 0.11413 0.26474 0.09435 0.0
C505 C 0.11366 0.28029 0.06349 0.0
C506 C 0.14621 0.2938 0.02398 0.0
C507 C 0.1476 0.27993 0.06354 0.0
N508 N 0.13355 0.25079 0.12721 0.0
N509 N 0.1272 0.30766 -0.01116 0.0
C510 C 0.1316 0.26461 0.09461 0.0
C511 C 0.1291 0.29417 0.0246 0.0
N512 N 0.09828 0.25093 0.12643 0.0
N513 N 0.16147 0.30652 -0.01375 0.0
H514 H 0.114 0.30615 0.99172 0.0
H515 H 0.13821 0.31893 0.97677 0.0
H516 H 0.17293 0.30385 0.98791 0.0
H517 H 0.1626 0.31781 0.97295 0.0
H518 H 0.09747 0.23918 0.15079 0.0
H519 H 0.08546 0.25105 0.12815 0.0
H520 H 0.12261 0.23916 0.15193 0.0
H521 H 0.14642 0.25078 0.12908 0.0
C522 C 0.71662 0.85083 0.01039 0.0
C523 C 0.70613 0.83747 0.06178 0.0
C524 C 0.69806 0.85942 0.11658 0.0
C525 C 0.70719 0.8721 0.06242 0.0
N526 N 0.72533 0.88095 0.9707 0.0
N527 N 0.68707 0.82818 0.16328 0.0
C528 C 0.71699 0.86854 0.01042 0.0
C529 C 0.69718 0.84169 0.11547 0.0
N530 N 0.72501 0.84539 0.97128 0.0
N531 N 0.68932 0.86416 0.16651 0.0
H532 H 0.68652 0.81511 0.16414 0.0
H533 H 0.67899 0.8294 0.20168 0.0
H534 H 0.69061 0.87765 0.17031 0.0
H535 H 0.68121 0.85531 0.20566 0.0
H536 H 0.73275 0.85425 0.93155 0.0
H537 H 0.72455 0.83225 0.9699 0.0
H538 H 0.73214 0.87916 0.92912 0.0
H539 H 0.72558 0.894 0.9702 0.0
C540 C 0.11808 0.85166 0.11048 0.0
C541 C 0.11467 0.83901 0.05578 0.0
C542 C 0.14551 0.86014 0.00584 0.0
C543 C 0.14965 0.87223 0.06313 0.0
N544 N 0.14015 0.88172 0.16502 0.0
N545 N 0.12229 0.83138 0.95676 0.0
C546 C 0.1358 0.86894 0.11319 0.0
C547 C 0.1275 0.84375 0.00103 0.0
N548 N 0.10506 0.84641 0.16174 0.0
N549 N 0.15903 0.8636 0.96843 0.0
H550 H 0.10838 0.82015 0.94982 0.0
H551 H 0.13101 0.8331 0.91569 0.0
H552 H 0.17155 0.8767 0.96531 0.0
H553 H 0.15826 0.85412 0.93126 0.0
H554 H 0.10689 0.85439 0.2052 0.0
H555 H 0.09209 0.83367 0.16159 0.0
H556 H 0.13071 0.8806 0.20272 0.0
H557 H 0.15335 0.89413 0.16962 0.0
C558 C 0.26477 0.1209 0.97256 0.0
C559 C 0.27508 0.11786 0.92113 0.0
C560 C 0.28234 0.14709 0.86428 0.0
C561 C 0.27467 0.15166 0.92075 0.0
N562 N 0.25655 0.14379 0.01284 0.0
N563 N 0.29234 0.12599 0.81558 0.0
C564 C 0.26474 0.13841 0.97291 0.0
C565 C 0.28313 0.13018 0.86528 0.0
N566 N 0.25633 0.10821 0.0113 0.0
N567 N 0.28929 0.15944 0.81111 0.0
H568 H 0.29214 0.11299 0.81292 0.0
H569 H 0.30028 0.13516 0.77681 0.0
H570 H 0.28613 0.17041 0.80601 0.0
H571 H 0.29688 0.15838 0.77059 0.0
H572 H 0.24887 0.1095 0.05182 0.0
H573 H 0.25641 0.09532 0.01097 0.0
H574 H 0.24942 0.13507 0.05366 0.0
H575 H 0.25664 0.15674 0.01405 0.0
C576 C 0.84734 0.12208 0.86924 0.0
C577 C 0.83459 0.11892 0.92328 0.0
C578 C 0.85638 0.14924 0.97588 0.0
C579 C 0.8688 0.15303 0.92019 0.0
N580 N 0.87771 0.1439 0.81621 0.0
N581 N 0.82812 0.12696 0.02268 0.0
C582 C 0.86501 0.13948 0.86817 0.0
C583 C 0.83967 0.13159 0.97865 0.0
N584 N 0.84207 0.10904 0.81787 0.0
N585 N 0.8608 0.16318 0.0149 0.0
H586 H 0.81849 0.11257 0.03178 0.0
H587 H 0.82853 0.13614 0.06029 0.0
H588 H 0.87413 0.17537 0.01986 0.0
H589 H 0.85157 0.16242 0.05282 0.0
H590 H 0.85043 0.11041 0.77608 0.0
H591 H 0.82908 0.09633 0.81685 0.0
H592 H 0.87608 0.13484 0.77625 0.0
H593 H 0.89043 0.15687 0.81306 0.0
C594 C 0.83335 0.69347 0.94804 0.0
C595 C 0.83244 0.70878 0.91677 0.0
C596 C 0.86668 0.72582 0.89543 0.0
C597 C 0.867 0.70947 0.91877 0.0
N598 N 0.85243 0.6793 0.97837 0.0
N599 N 0.84749 0.74055 0.87052 0.0
C600 C 0.85082 0.69378 0.94892 0.0
C601 C 0.849 0.72554 0.89495 0.0
N602 N 0.81743 0.67887 0.9777 0.0
N603 N 0.88293 0.74087 0.86982 0.0
H604 H 0.83455 0.74036 0.86736 0.0
H605 H 0.85888 0.75338 0.85409 0.0
H606 H 0.89585 0.74101 0.86661 0.0
H607 H 0.88395 0.75336 0.85131 0.0
H608 H 0.81619 0.66624 0.99567 0.0
H609 H 0.80525 0.67978 0.98757 0.0
H610 H 0.84113 0.66625 0.99358 0.0
H611 H 0.86561 0.68063 0.9898 0.0
C612 C 0.80586 0.60387 0.35255 0.0
C613 C 0.8206 0.61725 0.395 0.0
C614 C 0.79953 0.62664 0.44838 0.0
C615 C 0.78574 0.61547 0.39918 0.0
N616 N 0.77378 0.59227 0.30933 0.0
N617 N 0.83188 0.6398 0.48786 0.0
C618 C 0.78806 0.60323 0.35381 0.0
C619 C 0.81741 0.62791 0.44531 0.0
N620 N 0.80938 0.59278 0.30908 0.0
N621 N 0.79562 0.63687 0.49485 0.0
H622 H 0.8452 0.64083 0.48767 0.0
H623 H 0.83112 0.64877 0.52385 0.0
H624 H 0.78209 0.63531 0.50022 0.0
H625 H 0.80523 0.64655 0.52946 0.0
H626 H 0.7993 0.58254 0.27695 0.0
H627 H 0.82256 0.59342 0.3066 0.0
H628 H 0.77468 0.58365 0.27211 0.0
H629 H 0.76067 0.59181 0.30954 0.0
C630 C 0.3813 0.17999 0.34571 0.0
C631 C 0.37137 0.16633 0.39628 0.0
C632 C 0.36131 0.18649 0.45231 0.0
C633 C 0.37005 0.19978 0.39903 0.0
N634 N 0.3891 0.21066 0.2977 0.0
N635 N 0.35388 0.1561 0.50102 0.0
C636 C 0.38076 0.19724 0.34726 0.0
C637 C 0.36244 0.16974 0.45186 0.0
N638 N 0.38981 0.17563 0.2942 0.0
N639 N 0.35104 0.18956 0.50082 0.0
H640 H 0.35528 0.14394 0.50302 0.0
H641 H 0.3459 0.15668 0.5411 0.0
H642 H 0.35028 0.20199 0.50324 0.0
H643 H 0.34301 0.18005 0.53861 0.0
H644 H 0.39666 0.18441 0.25323 0.0
H645 H 0.39019 0.16291 0.2927 0.0
H646 H 0.39689 0.20973 0.25758 0.0
H647 H 0.38849 0.22326 0.29724 0.0
C648 C 0.81559 0.18683 0.45651 0.0
C649 C 0.81993 0.19924 0.40088 0.0
C650 C 0.78861 0.17969 0.35148 0.0
C651 C 0.78478 0.16659 0.40463 0.0
N652 N 0.79352 0.15643 0.50662 0.0
N653 N 0.81152 0.20985 0.30002 0.0
C654 C 0.79783 0.17001 0.45783 0.0
C655 C 0.80655 0.19661 0.35026 0.0
N656 N 0.82889 0.19103 0.50633 0.0
N657 N 0.77573 0.17506 0.30009 0.0
H658 H 0.82476 0.22235 0.29876 0.0
H659 H 0.80257 0.20902 0.26101 0.0
H660 H 0.76253 0.16251 0.29981 0.0
H661 H 0.77792 0.18333 0.25737 0.0
H662 H 0.82715 0.18246 0.54775 0.0
H663 H 0.84182 0.20386 0.50828 0.0
H664 H 0.80305 0.15669 0.54225 0.0
H665 H 0.78004 0.14436 0.5114 0.0
C666 C 0.936 0.47466 0.1968 0.0
C667 C 0.94609 0.48828 0.24815 0.0
C668 C 0.95323 0.46636 0.30757 0.0
C669 C 0.94518 0.45363 0.25243 0.0
N670 N 0.92825 0.44412 0.14656 0.0
N671 N 0.96379 0.4977 0.35344 0.0
C672 C 0.93584 0.45704 0.19837 0.0
C673 C 0.95433 0.48418 0.30445 0.0
N674 N 0.92798 0.47921 0.14445 0.0
N675 N 0.96019 0.46128 0.36195 0.0
H676 H 0.96258 0.50988 0.35865 0.0
H677 H 0.97302 0.49721 0.38872 0.0
H678 H 0.95771 0.4474 0.36825 0.0
H679 H 0.96725 0.47 0.40297 0.0
H680 H 0.92016 0.47 0.10545 0.0
H681 H 0.92868 0.49238 0.13991 0.0
H682 H 0.92182 0.4458 0.10385 0.0
H683 H 0.92834 0.43127 0.14566 0.0
C684 C 0.52842 0.47422 0.29589 0.0
C685 C 0.53184 0.48764 0.2446 0.0
C686 C 0.50163 0.46689 0.19001 0.0
C687 C 0.49736 0.45433 0.24528 0.0
N688 N 0.50583 0.44376 0.34605 0.0
N689 N 0.52368 0.49754 0.14093 0.0
C690 C 0.51073 0.45705 0.29605 0.0
C691 C 0.51921 0.48394 0.18978 0.0
N692 N 0.54146 0.47877 0.34665 0.0
N693 N 0.4883 0.46278 0.14047 0.0
H694 H 0.537 0.50992 0.13829 0.0
H695 H 0.51461 0.49682 0.10259 0.0
H696 H 0.47548 0.44985 0.13821 0.0
H697 H 0.48978 0.47165 0.10029 0.0
H698 H 0.53966 0.47017 0.38805 0.0
H699 H 0.55453 0.49147 0.34709 0.0
H700 H 0.51462 0.44483 0.38595 0.0
H701 H 0.49273 0.43108 0.34663 0.0
C702 C 0.52969 0.05329 0.27356 0.0
C703 C 0.53005 0.03716 0.24706 0.0
C704 C 0.49734 0.02274 0.20815 0.0
C705 C 0.49603 0.0376 0.24182 0.0
N706 N 0.51038 0.06781 0.30106 0.0
N707 N 0.51652 0.00874 0.1775 0.0
C708 C 0.51218 0.05344 0.27163 0.0
C709 C 0.5145 0.02256 0.2107 0.0
N710 N 0.54574 0.06778 0.30274 0.0
N711 N 0.48199 0.00885 0.17336 0.0
H712 H 0.52981 0.01003 0.16833 0.0
H713 H 0.50557 -0.00358 0.15585 0.0
H714 H 0.47048 0.01043 0.15852 0.0
H715 H 0.48045 -0.0041 0.15739 0.0
H716 H 0.54681 0.08022 0.32248 0.0
H717 H 0.55851 0.0676 0.30597 0.0
H718 H 0.52136 0.07965 0.32495 0.0
H719 H 0.49755 0.06788 0.30199 0.0
C720 C 0.45127 0.9367 0.76972 0.0
C721 C 0.45022 0.95084 0.73103 0.0
C722 C 0.48279 0.96405 0.69182 0.0
C723 C 0.48406 0.95037 0.73322 0.0
N724 N 0.47098 0.92397 0.81031 0.0
N725 N 0.46381 0.97801 0.65566 0.0
C726 C 0.46858 0.93648 0.77072 0.0
C727 C 0.46567 0.96456 0.69182 0.0
N728 N 0.43609 0.9244 0.80865 0.0
N729 N 0.49808 0.97642 0.65335 0.0
H730 H 0.45094 0.97793 0.65127 0.0
H731 H 0.47473 0.98925 0.6293 0.0
H732 H 0.51011 0.97496 0.64779 0.0
H733 H 0.49887 0.98755 0.62478 0.0
H734 H 0.43562 0.91359 0.83819 0.0
H735 H 0.42347 0.92484 0.81212 0.0
H736 H 0.46047 0.9134 0.84006 0.0
H737 H 0.4838 0.92389 0.81374 0.0
C738 C 0.02597 0.52425 0.68342 0.0
C739 C 0.03359 0.53594 0.74121 0.0
C740 C 0.0457 0.51609 0.78615 0.0
C741 C 0.03684 0.50361 0.73065 0.0
N742 N 0.02195 0.49681 0.62142 0.0
N743 N 0.05356 0.54627 0.84004 0.0
C744 C 0.02838 0.50834 0.67703 0.0
C745 C 0.04473 0.5331 0.78971 0.0
N746 N 0.01672 0.52864 0.63466 0.0
N747 N 0.05356 0.51096 0.8373 0.0
H748 H 0.05266 0.55868 0.84395 0.0
H749 H 0.06254 0.54559 0.87599 0.0
H750 H 0.05422 0.49842 0.83681 0.0
H751 H 0.05915 0.5188 0.8814 0.0
H752 H 0.01016 0.52044 0.5921 0.0
H753 H 0.01595 0.54114 0.63495 0.0
H754 H 0.01234 0.49666 0.58642 0.0
H755 H 0.02687 0.48737 0.61043 0.0
C756 C 0.45341 0.51548 0.78123 0.0
C757 C 0.44945 0.50217 0.72809 0.0
C758 C 0.47997 0.52276 0.6742 0.0
C759 C 0.48465 0.5351 0.73049 0.0
N760 N 0.47641 0.5457 0.83255 0.0
N761 N 0.45773 0.49276 0.6225 0.0
C762 C 0.47133 0.53252 0.78166 0.0
C763 C 0.46229 0.50591 0.67338 0.0
N764 N 0.44089 0.51097 0.83389 0.0
N765 N 0.49286 0.52723 0.6226 0.0
H766 H 0.44392 0.48146 0.61501 0.0
H767 H 0.46729 0.49276 0.58741 0.0
H768 H 0.50518 0.54057 0.61882 0.0
H769 H 0.49132 0.51849 0.58171 0.0
H770 H 0.44302 0.5196 0.8757 0.0
H771 H 0.42805 0.49816 0.83727 0.0
H772 H 0.46753 0.545 0.8717 0.0
H773 H 0.48968 0.55808 0.835 0.0
C774 C 0.60754 0.81285 0.6445 0.0
C775 C 0.60933 0.82218 0.58242 0.0
C776 C 0.61086 0.79736 0.51857 0.0
C777 C 0.61047 0.78877 0.58096 0.0
N778 N 0.60698 0.78613 0.70195 0.0
N779 N 0.61338 0.82503 0.4615 0.0
C780 C 0.60804 0.7957 0.64372 0.0
C781 C 0.61072 0.8147 0.51931 0.0
N782 N 0.60663 0.82122 0.70368 0.0
N783 N 0.61228 0.78924 0.45964 0.0
H784 H 0.61321 0.83786 0.46076 0.0
H785 H 0.61593 0.82127 0.41402 0.0
H786 H 0.6114 0.77592 0.45825 0.0
H787 H 0.61349 0.79499 0.41184 0.0
H788 H 0.6069 0.81623 0.75167 0.0
H789 H 0.60546 0.83353 0.70473 0.0
H790 H 0.60622 0.79072 0.75032 0.0
H791 H 0.60625 0.77286 0.70167 0.0
C792 C 0.1687 0.80256 0.64176 0.0
C793 C 0.16385 0.78995 0.58601 0.0
C794 C 0.19387 0.81108 0.53008 0.0
C795 C 0.197 0.82475 0.58067 0.0
N796 N 0.18943 0.834 0.68769 0.0
N797 N 0.17151 0.78037 0.48038 0.0
C798 C 0.18509 0.82053 0.63801 0.0
C799 C 0.1766 0.79337 0.53177 0.0
N800 N 0.15695 0.79724 0.69689 0.0
N801 N 0.2069 0.81559 0.47926 0.0
H802 H 0.15881 0.76735 0.48028 0.0
H803 H 0.17966 0.78225 0.43744 0.0
H804 H 0.21948 0.82874 0.47687 0.0
H805 H 0.20583 0.80631 0.44084 0.0
H806 H 0.15802 0.80612 0.73673 0.0
H807 H 0.14631 0.78307 0.70407 0.0
H808 H 0.18049 0.83283 0.72734 0.0
H809 H 0.20238 0.84678 0.68996 0.0
C810 C 0.19394 0.38726 0.61974 0.0
C811 C 0.19468 0.3728 0.58087 0.0
C812 C 0.16252 0.3607 0.53906 0.0
C813 C 0.16114 0.37388 0.58264 0.0
N814 N 0.17446 0.40077 0.65814 0.0
N815 N 0.18241 0.3491 0.49221 0.0
C816 C 0.17673 0.38788 0.61992 0.0
C817 C 0.17978 0.36065 0.53649 0.0
N818 N 0.20918 0.39954 0.65847 0.0
N819 N 0.14699 0.34791 0.50213 0.0
H820 H 0.19593 0.35118 0.48146 0.0
H821 H 0.17185 0.33838 0.46282 0.0
H822 H 0.13444 0.34852 0.49912 0.0
H823 H 0.14616 0.33658 0.47441 0.0
H824 H 0.20974 0.41052 0.68765 0.0
H825 H 0.2217 0.39891 0.66149 0.0
H826 H 0.18492 0.41119 0.68872 0.0
H827 H 0.1618 0.40123 0.65822 0.0
C828 C 0.00371 0.25105 0.95581 0.0
C829 C 0.00532 0.25245 0.01607 0.0
C830 C 0.97818 0.23326 0.02844 0.0
C831 C 0.97664 0.23283 0.96786 0.0
N832 N 0.99059 0.24454 0.85835 0.0
N833 N -0.00835 0.24471 0.12732 0.0
C834 C 0.99271 0.24282 0.92613 0.0
C835 C -0.01076 0.24365 0.05866 0.0
N836 N 0.0196 0.25736 0.91638 0.0
N837 N 0.96218 0.22333 0.06709 0.0
H838 H 0.00503 0.25209 0.15017 0.0
H839 H 0.98787 0.23837 0.16246 0.0
H840 H 0.94907 0.21347 0.04677 0.0
H841 H 0.96172 0.22405 0.11937 0.0
H842 H 0.01919 0.25547 0.86428 0.0
H843 H 0.0333 0.26297 0.93606 0.0
H844 H -0.00546 0.25374 0.8269 0.0
H845 H 0.97746 0.23761 0.83369 0.0
C846 C 0.74226 0.74369 0.92351 0.0
C847 C 0.75199 0.7373 0.96558 0.0
C848 C 0.74271 0.74829 0.05628 0.0
C849 C 0.73396 0.75567 0.01403 0.0
N850 N 0.72382 0.75981 0.91556 0.0
N851 N 0.76233 0.73352 0.06424 0.0
C852 C 0.73325 0.75301 0.95374 0.0
C853 C 0.75249 0.7398 0.02591 0.0
N854 N 0.74176 0.74079 0.85514 0.0
N855 N 0.74141 0.74929 0.12505 0.0
H856 H 0.76988 0.72734 0.04387 0.0
H857 H 0.76381 0.73487 0.11635 0.0
H858 H 0.73454 0.75579 0.14848 0.0
H859 H 0.74645 0.74324 0.15974 0.0
H860 H 0.73465 0.74465 0.8206 0.0
H861 H 0.74862 0.73425 0.83187 0.0
H862 H 0.72259 0.75887 0.86334 0.0
H863 H 0.71705 0.76675 0.93612 0.0
C864 C 0.24363 0.98344 0.96933 0.0
C865 C 0.23207 0.98054 0.01619 0.0
C866 C 0.23711 0.00638 0.01722 0.0
C867 C 0.248 0.0091 0.96852 0.0
N868 N 0.26074 -0.00155 0.87858 0.0
N869 N 0.21822 0.99047 0.10358 0.0
C870 C 0.25073 -0.00527 0.93791 0.0
C871 C 0.22902 0.99467 0.0461 0.0
N872 N 0.2469 0.96944 0.94457 0.0
N873 N 0.2361 0.02108 0.04804 0.0
H874 H 0.21224 0.97722 0.12735 0.0
H875 H 0.21412 -0.00696 0.12867 0.0
H876 H 0.244 0.03528 0.03319 0.0
H877 H 0.22794 0.01971 0.0904 0.0
H878 H 0.2555 0.97092 0.90344 0.0
H879 H 0.24133 0.95598 0.96631 0.0
H880 H 0.26451 0.99568 0.85323 0.0
H881 H 0.26554 0.01111 0.85169 0.0
C882 C 0.98368 0.72418 0.99348 0.0
C883 C 0.97727 0.73536 0.95918 0.0
C884 C -0.00272 0.76553 -0.01098 0.0
C885 C 0.00451 0.75457 0.02015 0.0
N886 N -0.00084 0.72394 0.0597 0.0
N887 N 0.98094 0.76556 0.92546 0.0
C888 C -0.00637 0.7342 0.02025 0.0
C889 C 0.9877 0.75555 0.96039 0.0
N890 N 0.97272 0.70462 0.9942 0.0
N891 N 0.00603 0.78482 -0.00065 0.0
H892 H 0.96941 0.75898 0.8923 0.0
H893 H 0.98671 0.78028 0.92705 0.0
H894 H 0.014 0.79127 0.0426 0.0
H895 H 0.00402 0.79369 0.9809 0.0
H896 H 0.97606 0.6961 0.00895 0.0
H897 H 0.95973 0.69687 0.96958 0.0
H898 H -0.0052 0.70956 0.05307 0.0
H899 H 0.00765 0.72981 0.10245 0.0
C900 C 0.25316 0.25323 0.9433 0.0
C901 C 0.24633 0.23374 0.95888 0.0
C902 C 0.22555 0.23492 0.0359 0.0
C903 C 0.23224 0.25424 0.01955 0.0
N904 N 0.25425 0.28283 0.97283 0.0
N905 N 0.22935 0.20722 0.02291 0.0
C906 C 0.24685 0.26361 0.98246 0.0
C907 C 0.23334 0.22499 0.0017 0.0
N908 N 0.26559 0.26157 0.89041 0.0
N909 N 0.21202 0.22639 0.08523 0.0
H910 H 0.23582 0.19985 0.00392 0.0
H911 H 0.22045 0.1999 0.06311 0.0
H912 H 0.20723 0.23392 0.11463 0.0
H913 H 0.20512 0.21193 0.09677 0.0
H914 H 0.27193 0.27585 0.87676 0.0
H915 H 0.26892 0.25384 0.85609 0.0
H916 H 0.26521 0.2912 0.93973 0.0
H917 H 0.25012 0.29176 -0.01122 0.0
C918 C 0.75742 0.00773 0.02155 0.0
C919 C 0.75199 0.0093 0.96638 0.0
C920 C 0.72855 0.98264 0.96022 0.0
C921 C 0.73431 0.98098 0.01447 0.0
N922 N 0.75331 0.993 0.11494 0.0
N923 N 0.73101 -0.00259 0.86969 0.0
C924 C 0.74887 0.99619 0.05133 0.0
C925 C 0.73674 -0.00582 0.93098 0.0
N926 N 0.77078 0.02332 0.0568 0.0
N927 N 0.71514 0.96706 0.92521 0.0
H928 H 0.7384 0.0103 0.84372 0.0
H929 H 0.71947 0.9944 0.84464 0.0
H930 H 0.70888 0.95322 0.94404 0.0
H931 H 0.71099 0.96737 0.87584 0.0
H932 H 0.77596 0.02284 0.10422 0.0
H933 H 0.77668 0.03731 0.03979 0.0
H934 H 0.76305 -0.00349 0.14562 0.0
H935 H 0.7463 0.97965 0.13817 0.0
C936 C 0.64397 0.56155 0.34705 0.0
C937 C 0.64144 0.56979 0.2871 0.0
C938 C 0.67318 0.59747 0.29723 0.0
C939 C 0.67593 0.58867 0.35493 0.0
N940 N 0.66542 0.5635 0.43653 0.0
N941 N 0.65229 0.59531 0.20564 0.0
C942 C 0.66179 0.57093 0.38002 0.0
C943 C 0.65569 0.58774 0.26234 0.0
N944 N 0.62904 0.54549 0.37456 0.0
N945 N 0.68755 0.61476 0.27489 0.0
H946 H 0.64033 0.5877 0.17502 0.0
H947 H 0.66114 0.60899 0.18738 0.0
H948 H 0.70057 0.62251 0.29953 0.0
H949 H 0.68702 0.62176 0.2318 0.0
H950 H 0.62986 0.53858 0.41741 0.0
H951 H 0.61507 0.5392 0.35726 0.0
H952 H 0.6563 0.55014 0.45678 0.0
H953 H 0.67806 0.57071 0.46409 0.0
C954 C 0.39607 0.05341 0.32028 0.0
C955 C 0.41314 0.06461 0.28316 0.0
C956 C 0.41602 0.09414 0.32732 0.0
C957 C 0.39847 0.08317 0.36267 0.0
N958 N 0.3731 0.05227 0.40036 0.0
N959 N 0.43935 0.09482 0.24848 0.0
C960 C 0.38882 0.06277 0.36089 0.0
C961 C 0.42287 0.08477 0.28492 0.0
N962 N 0.38775 0.03387 0.32187 0.0
N963 N 0.42633 0.11353 0.33513 0.0
H964 H 0.44395 0.08836 0.21317 0.0
H965 H 0.4486 0.10946 0.25212 0.0
H966 H 0.42574 0.12028 0.3793 0.0
H967 H 0.43642 0.12284 0.30089 0.0
H968 H 0.37595 0.02485 0.35083 0.0
H969 H 0.39287 0.0261 0.29629 0.0
H970 H 0.36255 0.03831 0.38976 0.0
H971 H 0.37109 0.0574 0.44626 0.0
C972 C 0.91583 0.3128 0.29674 0.0
C973 C 0.90263 0.30874 0.35019 0.0
C974 C 0.90655 0.34058 0.34501 0.0
C975 C 0.91889 0.34429 0.28876 0.0
N976 N 0.93567 0.33504 0.20996 0.0
N977 N 0.88595 0.31778 0.42951 0.0
C978 C 0.92369 0.33069 0.26438 0.0
C979 C 0.89796 0.3223 0.3752 0.0
N980 N 0.92049 0.29938 0.27653 0.0
N981 N 0.90393 0.35482 0.3715 0.0
H982 H 0.88027 0.30475 0.4547 0.0
H983 H 0.88142 0.32662 0.45064 0.0
H984 H 0.91135 0.36896 0.35559 0.0
H985 H 0.89485 0.35316 0.41122 0.0
H986 H 0.93019 0.30126 0.23878 0.0
H987 H 0.91476 0.28586 0.29786 0.0
H988 H 0.94062 0.32638 0.19034 0.0
H989 H 0.94042 0.34745 0.18158 0.0
C990 C 0.66793 0.06361 0.33199 0.0
C991 C 0.67481 0.08196 0.36149 0.0
C992 C 0.64973 0.0855 0.3078 0.0
C993 C 0.64225 0.06691 0.2795 0.0
N994 N 0.64462 0.03825 0.26243 0.0
N995 N 0.67242 0.10993 0.38355 0.0
C996 C 0.65145 0.05595 0.29078 0.0
C997 C 0.66544 0.09256 0.35217 0.0
N998 N 0.67803 0.0542 0.33835 0.0
N999 N 0.64178 0.09644 0.29118 0.0
H1000 H 0.68312 0.11475 0.42014 0.0
H1001 H 0.66769 0.11958 0.37538 0.0
H1002 H 0.63308 0.09353 0.24885 0.0
H1003 H 0.64416 0.10872 0.31653 0.0
H1004 H 0.67524 0.04204 0.31109 0.0
H1005 H 0.68993 0.05875 0.369 0.0
H1006 H 0.64721 0.02781 0.28206 0.0
H1007 H 0.63743 0.03426 0.21661 0.0
C1008 C 0.89667 0.5805 0.28478 0.0
C1009 C 0.90062 0.58615 0.35391 0.0
C1010 C 0.92625 0.57883 0.35677 0.0
C1011 C 0.92081 0.57115 0.29076 0.0
N1012 N 0.90317 0.566 0.18786 0.0
N1013 N 0.9192 0.59208 0.45551 0.0
C1014 C 0.90669 0.57241 0.25329 0.0
C1015 C 0.91553 0.58581 0.38983 0.0
N1016 N 0.88395 0.58355 0.24905 0.0
N1017 N 0.94188 0.57966 0.38682 0.0
H1018 H 0.91117 0.59678 0.48211 0.0
H1019 H 0.9295 0.59184 0.48602 0.0
H1020 H 0.95043 0.57508 0.36327 0.0
H1021 H 0.94733 0.58583 0.43355 0.0
H1022 H 0.8812 0.58088 0.19778 0.0
H1023 H 0.87621 0.58942 0.26985 0.0
H1024 H 0.89259 0.5657 0.15736 0.0
H1025 H 0.91088 0.56055 0.16341 0.0
C1026 C 0.4105 0.34286 0.36317 0.0
C1027 C 0.4151 0.3445 0.29332 0.0
C1028 C 0.40258 0.31042 0.2822 0.0
C1029 C 0.39835 0.30871 0.3525 0.0
N1030 N 0.39669 0.32192 0.45999 0.0
N1031 N 0.41421 0.3311 0.1839 0.0
C1032 C 0.40183 0.32457 0.39321 0.0
C1033 C 0.41073 0.32861 0.25196 0.0
N1034 N 0.41431 0.3588 0.39987 0.0
N1035 N 0.39849 0.29456 0.24458 0.0
H1036 H 0.42026 0.34441 0.16051 0.0
H1037 H 0.41088 0.32022 0.14916 0.0
H1038 H 0.39256 0.28086 0.26442 0.0
H1039 H 0.40115 0.29456 0.1933 0.0
H1040 H 0.41183 0.35898 0.45126 0.0
H1041 H 0.42019 0.37236 0.37868 0.0
H1042 H 0.39811 0.3326 0.49292 0.0
H1043 H 0.3908 0.30865 0.48357 0.0
C1044 C 0.31896 0.92557 0.61148 0.0
C1045 C 0.30693 0.9055 0.61924 0.0
C1046 C 0.32829 0.90454 0.70442 0.0
C1047 C 0.34014 0.92439 0.69634 0.0
N1048 N 0.34834 0.95424 0.64071 0.0
N1049 N 0.2994 0.87572 0.67549 0.0
C1050 C 0.33576 0.93517 0.65049 0.0
C1051 C 0.31148 0.89484 0.66556 0.0
N1052 N 0.31423 0.93529 0.56594 0.0
N1053 N 0.33362 0.89493 0.74823 0.0
H1054 H 0.28809 0.86691 0.64441 0.0
H1055 H 0.30028 0.86807 0.71609 0.0
H1056 H 0.34484 0.90187 0.78244 0.0
H1057 H 0.32751 0.88017 0.7501 0.0
H1058 H 0.32025 0.95005 0.5644 0.0
H1059 H 0.30397 0.92841 0.52842 0.0
H1060 H 0.34655 0.96286 0.60617 0.0
H1061 H 0.36133 0.96184 0.66563 0.0
C1062 C 0.06119 0.41793 0.61608 0.0
C1063 C 0.06145 0.41965 0.6876 0.0
C1064 C 0.07972 0.40367 0.70031 0.0
C1065 C 0.08053 0.403 0.62849 0.0
N1066 N 0.07086 0.40686 0.51747 0.0
N1067 N 0.06835 0.41298 0.79908 0.0
C1068 C 0.07083 0.4093 0.58603 0.0
C1069 C 0.06973 0.41192 0.73032 0.0
N1070 N 0.05153 0.4244 0.57766 0.0
N1071 N 0.08843 0.39629 0.7392 0.0
H1072 H 0.06106 0.41909 0.82221 0.0
H1073 H 0.07436 0.40805 0.83429 0.0
H1074 H 0.09766 0.39216 0.7192 0.0
H1075 H 0.08704 0.39451 0.79119 0.0
H1076 H 0.05102 0.42418 0.52528 0.0
H1077 H 0.04365 0.43013 0.59836 0.0
H1078 H 0.06366 0.41054 0.48271 0.0
H1079 H 0.07822 0.40089 0.49397 0.0
C1080 C 0.556 0.64912 0.63972 0.0
C1081 C 0.56597 0.64455 0.68857 0.0
C1082 C 0.59477 0.67543 0.67489 0.0
C1083 C 0.5848 0.67978 0.62541 0.0
N1084 N 0.55711 0.67224 0.55891 0.0
N1085 N 0.59362 0.65287 0.75786 0.0
C1086 C 0.56567 0.66709 0.60778 0.0
C1087 C 0.58509 0.65759 0.70753 0.0
N1088 N 0.53773 0.63597 0.62139 0.0
N1089 N 0.6131 0.6887 0.69238 0.0
H1090 H 0.58616 0.64086 0.78832 0.0
H1091 H 0.60786 0.66081 0.77183 0.0
H1092 H 0.62027 0.70252 0.67333 0.0
H1093 H 0.62154 0.68651 0.72654 0.0
H1094 H 0.52953 0.63831 0.5867 0.0
H1095 H 0.53027 0.62206 0.63921 0.0
H1096 H 0.54289 0.66442 0.54482 0.0
H1097 H 0.5644 0.68474 0.5307 0.0
C1098 C 0.33825 0.40747 0.62836 0.0
C1099 C 0.34124 0.41887 0.68689 0.0
C1100 C 0.30858 0.41249 0.68527 0.0
C1101 C 0.30599 0.40233 0.62351 0.0
N1102 N 0.31687 0.38863 0.53775 0.0
N1103 N 0.33032 0.4316 0.7751 0.0
C1104 C 0.32037 0.39921 0.59577 0.0
C1105 C 0.32671 0.4213 0.71642 0.0
N1106 N 0.35277 0.40515 0.60327 0.0
N1107 N 0.29351 0.41291 0.71535 0.0
H1108 H 0.34341 0.43762 0.80005 0.0
H1109 H 0.32069 0.43443 0.79999 0.0
H1110 H 0.27947 0.40487 0.6989 0.0
H1111 H 0.29438 0.42056 0.75874 0.0
H1112 H 0.3519 0.39718 0.56079 0.0
H1113 H 0.36628 0.41133 0.62499 0.0
H1114 H 0.32608 0.38464 0.51623 0.0
H1115 H 0.30457 0.38387 0.50884 0.0
C1116 C 0.5952 0.92699 0.6322 0.0
C1117 C 0.58438 0.90692 0.61993 0.0
C1118 C 0.55768 0.90459 0.68559 0.0
C1119 C 0.56835 0.92453 0.69696 0.0
N1120 N 0.59708 0.95521 0.68202 0.0
N1121 N 0.55451 0.87724 0.62362 0.0
C1122 C 0.58725 0.93581 0.67215 0.0
C1123 C 0.5653 0.89593 0.64328 0.0
N1124 N 0.61315 0.93775 0.60618 0.0
N1125 N 0.53998 0.89424 0.71417 0.0
H1126 H 0.55856 0.87152 0.58383 0.0
H1127 H 0.5412 0.86758 0.64294 0.0
H1128 H 0.53477 0.90013 0.74949 0.0
H1129 H 0.53061 0.8798 0.70595 0.0
H1130 H 0.62356 0.95055 0.62738 0.0
H1131 H 0.61731 0.9347 0.56026 0.0
H1132 H 0.6096 0.96459 0.65701 0.0
H1133 H 0.59278 0.96249 0.71436 0.0
C1134 C 0.05982 0.65958 0.72255 0.0
C1135 C 0.06276 0.64504 0.6951 0.0
C1136 C 0.08156 0.6655 0.60146 0.0
C1137 C 0.07933 0.68015 0.63095 0.0
N1138 N 0.06682 0.69234 0.71664 0.0
N1139 N 0.07314 0.63229 0.6031 0.0
C1140 C 0.06828 0.67744 0.69004 0.0
C1141 C 0.07279 0.64744 0.63307 0.0
N1142 N 0.04938 0.65636 0.78065 0.0
N1143 N 0.09169 0.66896 0.54253 0.0
H1144 H 0.06521 0.61826 0.6197 0.0
H1145 H 0.08063 0.63306 0.55951 0.0
H1146 H 0.09766 0.682 0.51724 0.0
H1147 H 0.09445 0.65926 0.51769 0.0
H1148 H 0.04493 0.66543 0.8004 0.0
H1149 H 0.04512 0.64444 0.81126 0.0
H1150 H 0.05909 0.69168 0.75943 0.0
H1151 H 0.07394 0.70607 0.69676 0.0
C1152 C 0.1034 0.34341 0.81263 0.0
C1153 C 0.08922 0.33662 0.7608 0.0
C1154 C 0.06686 0.31059 0.83265 0.0
C1155 C 0.08087 0.31735 0.8836 0.0
N1156 N 0.11142 0.34065 0.92858 0.0
N1157 N 0.05804 0.31236 0.71849 0.0
C1158 C 0.09883 0.33402 0.87571 0.0
C1159 C 0.07133 0.31954 0.76915 0.0
N1160 N 0.12145 0.3582 0.80028 0.0
N1161 N 0.04853 0.29709 0.84818 0.0
H1162 H 0.0578 0.31988 0.67653 0.0
H1163 H 0.0467 0.29838 0.71776 0.0
H1164 H 0.0441 0.29309 0.89777 0.0
H1165 H 0.03713 0.29148 0.81464 0.0
H1166 H 0.13201 0.36509 0.83643 0.0
H1167 H 0.12673 0.36281 0.75187 0.0
H1168 H 0.1243 0.35342 0.92912 0.0
H1169 H 0.10881 0.33347 0.97431 0.0
C1170 C 0.66894 0.74908 0.84983 0.0
C1171 C 0.66949 0.76439 0.88662 0.0
C1172 C 0.65018 0.76883 0.80239 0.0
C1173 C 0.64924 0.75317 0.76645 0.0
N1174 N 0.65957 0.73009 0.74756 0.0
N1175 N 0.65988 0.78799 0.90439 0.0
C1176 C 0.65935 0.74391 0.78727 0.0
C1177 C 0.65991 0.7741 0.86476 0.0
N1178 N 0.67716 0.73922 0.8761 0.0
N1179 N 0.6425 0.77904 0.77497 0.0
H1180 H 0.66714 0.79226 0.94997 0.0
H1181 H 0.65221 0.79487 0.89433 0.0
H1182 H 0.63717 0.77673 0.72593 0.0
H1183 H 0.64251 0.79065 0.79773 0.0
H1184 H 0.67706 0.72755 0.85349 0.0
H1185 H 0.68364 0.74206 0.9234 0.0
H1186 H 0.66733 0.72332 0.75776 0.0
H1187 H 0.6525 0.72549 0.70166 0.0
C1188 C 0.22314 0.91677 0.82928 0.0
C1189 C 0.21978 0.90451 0.88486 0.0
C1190 C 0.2281 0.88419 0.8191 0.0
C1191 C 0.23269 0.89711 0.76472 0.0
N1192 N 0.23279 0.92426 0.7124 0.0
N1193 N 0.21702 0.87598 0.93364 0.0
C1194 C 0.22945 0.91287 0.76773 0.0
C1195 C 0.22188 0.88815 0.88023 0.0
N1196 N 0.22131 0.93266 0.83688 0.0
N1197 N 0.22817 0.86736 0.81025 0.0
H1198 H 0.20751 0.87535 0.97024 0.0
H1199 H 0.2216 0.86614 0.94028 0.0
H1200 H 0.23021 0.86262 0.76366 0.0
H1201 H 0.22475 0.8571 0.84738 0.0
H1202 H 0.2246 0.94301 0.80024 0.0
H1203 H 0.21697 0.93619 0.88156 0.0
H1204 H 0.22915 0.93487 0.70876 0.0
H1205 H 0.23915 0.92319 0.66815 0.0
C1206 C 0.33219 0.10041 0.09951 0.0
C1207 C 0.31346 0.08473 0.0912 0.0
C1208 C 0.31205 0.07641 0.2108 0.0
C1209 C 0.33124 0.0914 0.21704 0.0
N1210 N 0.35776 0.12074 0.17511 0.0
N1211 N 0.28578 0.05678 0.13569 0.0
C1212 C 0.34092 0.10415 0.16333 0.0
C1213 C 0.30325 0.07267 0.14637 0.0
N1214 N 0.34122 0.11239 0.04704 0.0
N1215 N 0.30262 0.06517 0.26523 0.0
H1216 H 0.28007 0.05181 0.0879 0.0
H1217 H 0.27704 0.04753 0.1729 0.0
H1218 H 0.30883 0.06589 0.31177 0.0
H1219 H 0.28825 0.05494 0.26607 0.0
H1220 H 0.35594 0.12108 0.04306 0.0
H1221 H 0.3335 0.1144 0.0097 0.0
H1222 H 0.36585 0.13068 0.13838 0.0
H1223 H 0.36298 0.12569 0.22353 0.0
C1224 C 0.89297 0.21769 0.20453 0.0
C1225 C 0.89121 0.23417 0.21248 0.0
C1226 C 0.8994 0.24266 0.09371 0.0
C1227 C 0.90213 0.22666 0.08725 0.0
N1228 N 0.8992 0.19737 0.13166 0.0
N1229 N 0.8928 0.2627 0.1677 0.0
C1230 C 0.89857 0.21387 0.14164 0.0
C1231 C 0.89412 0.24661 0.15755 0.0
N1232 N 0.88796 0.20502 0.25626 0.0
N1233 N 0.90275 0.25453 0.03979 0.0
H1234 H 0.89012 0.26679 0.21449 0.0
H1235 H 0.89479 0.27266 0.131 0.0
H1236 H 0.90839 0.2534 -0.00607 0.0
H1237 H 0.90008 0.26583 0.03893 0.0
H1238 H 0.89267 0.19525 0.26213 0.0
H1239 H 0.87752 0.20345 0.29028 0.0
H1240 H 0.89684 0.18739 0.16881 0.0
H1241 H 0.90108 0.19278 0.08459 0.0
C1242 C 0.74693 0.66839 0.20717 0.0
C1243 C 0.74957 0.65244 0.21774 0.0
C1244 C 0.76461 0.65667 0.10742 0.0
C1245 C 0.76147 0.67221 0.09649 0.0
N1246 N 0.7468 0.69077 0.12656 0.0
N1247 N 0.76479 0.63415 0.1875 0.0
C1248 C 0.75219 0.67777 0.14429 0.0
C1249 C 0.75957 0.64735 0.17056 0.0
N1250 N 0.73877 0.67415 0.25572 0.0
N1251 N 0.77196 0.65068 0.05678 0.0
H1252 H 0.76363 0.62897 0.23643 0.0
H1253 H 0.77179 0.6294 0.15567 0.0
H1254 H 0.7752 0.65691 0.00917 0.0
H1255 H 0.77391 0.63893 0.05955 0.0
H1256 H 0.73882 0.68704 0.25451 0.0
H1257 H 0.73217 0.66654 0.29915 0.0
H1258 H 0.73946 0.69534 0.15748 0.0
H1259 H 0.74817 0.69596 0.07759 0.0
C1260 C 0.91661 0.6774 0.14369 0.0
C1261 C 0.90166 0.67167 0.09651 0.0
C1262 C 0.87873 0.64765 0.17278 0.0
C1263 C 0.89399 0.65231 0.21843 0.0
N1264 N 0.92687 0.67304 0.25339 0.0
N1265 N 0.86914 0.65125 0.06052 0.0
C1266 C 0.91273 0.66782 0.20627 0.0
C1267 C 0.88287 0.6567 0.10928 0.0
N1268 N 0.93473 0.69128 0.12641 0.0
N1269 N 0.8603 0.63516 0.19159 0.0
H1270 H 0.87189 0.65753 0.01312 0.0
H1271 H 0.85524 0.64 0.06466 0.0
H1272 H 0.85643 0.63038 0.24097 0.0
H1273 H 0.84841 0.63062 0.16086 0.0
H1274 H 0.94673 0.69605 0.15666 0.0
H1275 H 0.93826 0.69789 0.07929 0.0
H1276 H 0.9402 0.68525 0.25075 0.0
H1277 H 0.92572 0.6654 0.29688 0.0
C1278 C 0.30318 0.21351 0.14184 0.0
C1279 C 0.31178 0.2264 0.0876 0.0
C1280 C 0.34058 0.24573 0.15379 0.0
C1281 C 0.33144 0.23359 0.20937 0.0
N1282 N 0.30474 0.2057 0.25765 0.0
N1283 N 0.3394 0.25337 0.03684 0.0
C1284 C 0.31282 0.21757 0.20403 0.0
C1285 C 0.3309 0.2418 0.09134 0.0
N1286 N 0.28664 0.19651 0.13184 0.0
N1287 N 0.35766 0.26215 0.1631 0.0
H1288 H 0.33206 0.25386 -0.00541 0.0
H1289 H 0.35398 0.26268 0.03259 0.0
H1290 H 0.36348 0.26711 0.21068 0.0
H1291 H 0.36557 0.27181 0.12547 0.0
H1292 H 0.2793 0.18649 0.16929 0.0
H1293 H 0.28105 0.19125 0.08407 0.0
H1294 H 0.29014 0.19657 0.2635 0.0
H1295 H 0.31311 0.20442 0.29444 0.0
C1296 C 0.73876 0.07032 0.11675 0.0
C1297 C 0.75757 0.0816 0.0917 0.0
C1298 C 0.76709 0.10245 0.19049 0.0
C1299 C 0.74838 0.09105 0.2158 0.0
N1300 N 0.71631 0.06455 0.20785 0.0
N1301 N 0.78824 0.11004 0.09511 0.0
C1302 C 0.73415 0.07505 0.18031 0.0
C1303 C 0.77143 0.09804 0.12631 0.0
N1304 N 0.72551 0.05514 0.07975 0.0
N1305 N 0.78035 0.11777 0.22701 0.0
H1306 H 0.78986 0.10929 0.04321 0.0
H1307 H 0.79986 0.12142 0.11822 0.0
H1308 H 0.77735 0.12165 0.27351 0.0
H1309 H 0.79446 0.12665 0.21302 0.0
H1310 H 0.71136 0.04643 0.09353 0.0
H1311 H 0.72853 0.05102 0.03356 0.0
H1312 H 0.70497 0.05268 0.1855 0.0
H1313 H 0.7126 0.06755 0.2549 0.0
C1314 C 0.65851 0.91584 0.78906 0.0
C1315 C 0.65013 0.89678 0.7655 0.0
C1316 C 0.66017 0.88688 0.86595 0.0
C1317 C 0.6683 0.90595 0.89007 0.0
N1318 N 0.67184 0.93735 0.88412 0.0
N1319 N 0.64383 0.86436 0.77481 0.0
C1320 C 0.66661 0.92013 0.85416 0.0
C1321 C 0.65108 0.88226 0.80226 0.0
N1322 N 0.65829 0.92967 0.74985 0.0
N1323 N 0.66103 0.87333 0.90444 0.0
H1324 H 0.63888 0.86118 0.72532 0.0
H1325 H 0.6432 0.85266 0.7989 0.0
H1326 H 0.66782 0.87652 0.95081 0.0
H1327 H 0.65495 0.85895 0.8921 0.0
H1328 H 0.66584 0.94419 0.76092 0.0
H1329 H 0.65125 0.927 0.70371 0.0
H1330 H 0.67047 0.94826 0.86214 0.0
H1331 H 0.67617 0.94036 0.93431 0.0
C1332 C 0.09977 0.77008 0.79456 0.0
C1333 C 0.08616 0.7531 0.76221 0.0
C1334 C 0.06428 0.74483 0.85708 0.0
C1335 C 0.07857 0.76127 0.89057 0.0
N1336 N 0.11077 0.78758 0.89933 0.0
N1337 N 0.05492 0.72518 0.75576 0.0
C1338 C 0.0966 0.77334 0.86173 0.0
C1339 C 0.06815 0.74069 0.79138 0.0
N1340 N 0.11517 0.78347 0.7595 0.0
N1341 N 0.04711 0.73352 0.88811 0.0
H1342 H 0.05686 0.72275 0.70542 0.0
H1343 H 0.04188 0.71473 0.7747 0.0
H1344 H 0.04409 0.7361 0.93697 0.0
H1345 H 0.0357 0.72156 0.86649 0.0
H1346 H 0.12489 0.79689 0.77854 0.0
H1347 H 0.117 0.78189 0.70829 0.0
H1348 H 0.12477 0.79592 0.88282 0.0
H1349 H 0.10895 0.79001 0.94975 0.0
C1350 C 0.21451 0.33118 0.86733 0.0
C1351 C 0.22055 0.31787 0.88221 0.0
C1352 C 0.23882 0.32532 0.77786 0.0
C1353 C 0.23307 0.33901 0.7636 0.0
N1354 N 0.21142 0.35106 0.78286 0.0
N1355 N 0.23798 0.30173 0.85574 0.0
C1356 C 0.21968 0.3408 0.80483 0.0
C1357 C 0.23233 0.31455 0.838 0.0
N1358 N 0.20415 0.33481 0.91361 0.0
N1359 N 0.25061 0.32277 0.73454 0.0
H1360 H 0.23313 0.29334 0.89898 0.0
H1361 H 0.24772 0.29935 0.82942 0.0
H1362 H 0.25775 0.33168 0.69414 0.0
H1363 H 0.25375 0.31181 0.73783 0.0
H1364 H 0.19975 0.34481 0.90774 0.0
H1365 H 0.20104 0.32868 0.96121 0.0
H1366 H 0.20123 0.35268 0.80949 0.0
H1367 H 0.2133 0.35663 0.73433 0.0
C1368 C -0.01186 0.4071 0.52627 0.0
C1369 C -0.00411 0.42599 0.55147 0.0
C1370 C 0.99323 0.43607 0.45086 0.0
C1371 C 0.98495 0.41715 0.42647 0.0
N1372 N 0.97822 0.38463 0.43535 0.0
N1373 N -0.00187 0.45677 0.548 0.0
C1374 C 0.98597 0.40258 0.46269 0.0
C1375 C -0.00614 0.44008 0.5163 0.0
N1376 N -0.01005 0.39373 0.56286 0.0
N1377 N 0.99348 0.45007 0.41144 0.0
H1378 H 0.00057 0.45851 0.59984 0.0
H1379 H -0.00301 0.4678 0.52589 0.0
H1380 H 0.98752 0.44743 0.36343 0.0
H1381 H -0.00659 0.46452 0.42376 0.0
H1382 H 0.99179 0.3796 0.5484 0.0
H1383 H -0.00294 0.39671 0.60898 0.0
H1384 H 0.97806 0.37303 0.45845 0.0
H1385 H 0.9718 0.38113 0.38787 0.0
C1386 C 0.57083 0.58012 0.44114 0.0
C1387 C 0.56775 0.56141 0.42891 0.0
C1388 C 0.55149 0.55018 0.53728 0.0
C1389 C 0.55558 0.56905 0.55115 0.0
N1390 N 0.56943 0.60227 0.52098 0.0
N1391 N 0.55177 0.52777 0.45628 0.0
C1392 C 0.56499 0.58405 0.5038 0.0
C1393 C 0.55724 0.54617 0.4747 0.0
N1394 N 0.57981 0.59424 0.39393 0.0
N1395 N 0.5417 0.5361 0.58368 0.0
H1396 H 0.55332 0.52389 0.40744 0.0
H1397 H 0.54438 0.51588 0.48692 0.0
H1398 H 0.53509 0.53806 0.62559 0.0
H1399 H 0.54002 0.52249 0.58168 0.0
H1400 H 0.58054 0.60744 0.39575 0.0
H1401 H 0.58665 0.59305 0.35122 0.0
H1402 H 0.57712 0.61426 0.49107 0.0
H1403 H 0.56612 0.60586 0.56768 0.0
C1404 C 0.41117 -0.00198 0.54563 0.0
C1405 C 0.41443 0.9887 0.55511 0.0
C1406 C 0.42936 0.99306 0.44468 0.0
C1407 C 0.42539 0.00192 0.43448 0.0
N1408 N 0.41269 0.02202 0.46834 0.0
N1409 N 0.42749 0.96876 0.52119 0.0
C1410 C 0.41661 0.00776 0.48335 0.0
C1411 C 0.42364 0.98309 0.50656 0.0
N1412 N 0.40323 0.00362 0.59553 0.0
N1413 N 0.43771 0.98786 0.39504 0.0
H1414 H 0.42482 0.96216 0.56822 0.0
H1415 H 0.43428 0.96387 0.48893 0.0
H1416 H 0.44344 0.9959 0.35153 0.0
H1417 H 0.43891 0.97565 0.39569 0.0
H1418 H 0.40227 0.01596 0.59429 0.0
H1419 H 0.39786 -0.00378 0.64049 0.0
H1420 H 0.40549 0.02661 0.49982 0.0
H1421 H 0.41599 0.02913 0.42215 0.0
C1422 C 0.55303 -0.00211 0.53752 0.0
C1423 C 0.55698 0.98915 0.54947 0.0
C1424 C 0.57095 0.99219 0.43794 0.0
C1425 C 0.56795 0.00173 0.42716 0.0
N1426 N 0.55306 0.02039 0.45748 0.0
N1427 N 0.56892 0.96828 0.51694 0.0
C1428 C 0.55828 0.00718 0.47456 0.0
C1429 C 0.56534 0.98272 0.50082 0.0
N1430 N 0.54459 0.00331 0.58589 0.0
N1431 N 0.57887 0.98611 0.38945 0.0
H1432 H 0.56621 0.96192 0.56445 0.0
H1433 H 0.57537 0.96287 0.48543 0.0
H1434 H 0.58556 0.99355 0.34591 0.0
H1435 H 0.57898 0.97332 0.3911 0.0
H1436 H 0.54377 0.01574 0.58488 0.0
H1437 H 0.53849 -0.00463 0.62899 0.0
H1438 H 0.54656 0.02562 0.48961 0.0
H1439 H 0.55358 0.02511 0.4083 0.0
C1440 C -0.00365 0.56146 0.43778 0.0
C1441 C 0.98498 0.55912 0.43407 0.0
C1442 C 0.98694 0.56937 0.55149 0.0
C1443 C -0.00107 0.57312 0.55265 0.0
N1444 N 0.02341 0.56752 0.50666 0.0
N1445 N 0.95778 0.55856 0.48718 0.0
C1446 C 0.00681 0.56797 0.49823 0.0
C1447 C 0.97616 0.56206 0.49136 0.0
N1448 N 0.0034 0.5562 0.38456 0.0
N1449 N 0.97925 0.57305 0.60741 0.0
H1450 H 0.94919 0.55278 0.44486 0.0
H1451 H 0.95058 0.56131 0.52502 0.0
H1452 H 0.98706 0.57996 0.65042 0.0
H1453 H 0.96509 0.5695 0.61257 0.0
H1454 H 0.01783 0.56112 0.37645 0.0
H1455 H -0.00576 0.54578 0.35088 0.0
H1456 H 0.02981 0.56348 0.46952 0.0
H1457 H 0.03021 0.56947 0.55304 0.0
C1458 C 0.43222 0.41579 0.48633 0.0
C1459 C 0.42515 0.41949 0.42519 0.0
C1460 C 0.40681 0.43051 0.49298 0.0
C1461 C 0.41338 0.42601 0.55263 0.0
N1462 N 0.43292 0.41505 0.60751 0.0
N1463 N 0.40563 0.43134 0.3719 0.0
C1464 C 0.42585 0.41845 0.5497 0.0
C1465 C 0.41263 0.42736 0.4288 0.0
N1466 N 0.44455 0.40885 0.48491 0.0
N1467 N 0.3947 0.43775 0.49821 0.0
H1468 H 0.40966 0.43097 0.3229 0.0
H1469 H 0.39514 0.43514 0.37127 0.0
H1470 H 0.38711 0.43676 0.54206 0.0
H1471 H 0.39219 0.44514 0.46051 0.0
H1472 H 0.44452 0.39954 0.52131 0.0
H1473 H 0.45646 0.41447 0.45355 0.0
H1474 H 0.44518 0.41391 0.6091 0.0
H1475 H 0.42664 0.41296 0.65464 0.0
C1476 C 0.09608 0.33131 0.27396 0.0
C1477 C 0.07666 0.3177 0.26122 0.0
C1478 C 0.06708 0.32235 0.37228 0.0
C1479 C 0.08649 0.33559 0.38509 0.0
N1480 N 0.11901 0.35559 0.34962 0.0
N1481 N 0.04382 0.29897 0.29488 0.0
C1482 C 0.10088 0.34115 0.33591 0.0
C1483 C 0.06212 0.31282 0.30948 0.0
N1484 N 0.10976 0.3343 0.22717 0.0
N1485 N 0.05368 0.31909 0.4206 0.0
H1486 H 0.04014 0.29127 0.24966 0.0
H1487 H 0.03231 0.29451 0.32748 0.0
H1488 H 0.05707 0.32676 0.46588 0.0
H1489 H 0.0392 0.30945 0.41588 0.0
H1490 H 0.1242 0.34412 0.23205 0.0
H1491 H 0.1068 0.326 0.18381 0.0
H1492 H 0.13042 0.36061 0.31628 0.0
H1493 H 0.12255 0.3634 0.39457 0.0
C1494 C 0.65283 0.73795 0.35513 0.0
C1495 C 0.64953 0.75164 0.38793 0.0
C1496 C 0.66446 0.77431 0.29803 0.0
C1497 C 0.66694 0.76053 0.26289 0.0
N1498 N 0.66667 0.73069 0.25788 0.0
N1499 N 0.64872 0.78109 0.38863 0.0
C1500 C 0.662 0.74263 0.2913 0.0
C1501 C 0.65392 0.76915 0.35787 0.0
N1502 N 0.64706 0.72071 0.38523 0.0
N1503 N 0.67356 0.79269 0.27585 0.0
H1504 H 0.64099 0.7776 0.43359 0.0
H1505 H 0.65083 0.79382 0.3679 0.0
H1506 H 0.68499 0.79718 0.24272 0.0
H1507 H 0.67198 0.8037 0.29624 0.0
H1508 H 0.64897 0.70991 0.36477 0.0
H1509 H 0.63958 0.71695 0.43083 0.0
H1510 H 0.66377 0.7174 0.27544 0.0
H1511 H 0.67431 0.73463 0.21265 0.0
C1512 C 0.20975 0.89395 0.30068 0.0
C1513 C 0.22393 0.9102 0.26629 0.0
C1514 C 0.24776 0.91603 0.35144 0.0
C1515 C 0.23336 0.90049 0.38702 0.0
N1516 N 0.20264 0.87197 0.39378 0.0
N1517 N 0.25581 0.93672 0.2539 0.0
C1518 C 0.21492 0.88846 0.36057 0.0
C1519 C 0.2428 0.92137 0.29055 0.0
N1520 N 0.19174 0.88358 0.27438 0.0
N1521 N 0.26591 0.92546 0.37659 0.0
H1522 H 0.252 0.94147 0.21085 0.0
H1523 H 0.27017 0.94503 0.26589 0.0
H1524 H 0.26978 0.92082 0.41975 0.0
H1525 H 0.27726 0.93738 0.35462 0.0
H1526 H 0.18081 0.87112 0.29515 0.0
H1527 H 0.18732 0.88778 0.23155 0.0
H1528 H 0.18861 0.86266 0.37978 0.0
H1529 H 0.2069 0.8671 0.43532 0.0
C1530 C 0.31205 0.07436 0.5961 0.0
C1531 C 0.33014 0.0909 0.59303 0.0
C1532 C 0.33219 0.09277 0.71524 0.0
C1533 C 0.31215 0.07888 0.71802 0.0
N1534 N 0.28347 0.05517 0.65845 0.0
N1535 N 0.35978 0.1133 0.64606 0.0
C1536 C 0.30227 0.06907 0.65805 0.0
C1537 C 0.34103 0.0994 0.65159 0.0
N1538 N 0.30444 0.06348 0.53904 0.0
N1539 N 0.34265 0.0997 0.77321 0.0
H1540 H 0.36654 0.11832 0.59973 0.0
H1541 H 0.36901 0.11967 0.68649 0.0
H1542 H 0.33929 0.09167 0.81737 0.0
H1543 H 0.35535 0.11262 0.77693 0.0
H1544 H 0.29145 0.05078 0.53726 0.0
H1545 H 0.31206 0.0661 0.49398 0.0
H1546 H 0.27491 0.05118 0.61553 0.0
H1547 H 0.27619 0.04687 0.69974 0.0
C1548 C 0.9008 0.24424 0.71758 0.0
C1549 C 0.90294 0.228 0.72008 0.0
C1550 C 0.90234 0.22568 0.59826 0.0
C1551 C 0.8956 0.23917 0.59626 0.0
N1552 N 0.89103 0.2632 0.65528 0.0
N1553 N 0.91002 0.20545 0.6668 0.0
C1554 C 0.89583 0.24921 0.65605 0.0
C1555 C 0.90507 0.21933 0.66154 0.0
N1556 N 0.90372 0.25493 0.77502 0.0
N1557 N 0.906 0.21892 0.54 0.0
H1558 H 0.91228 0.20079 0.71303 0.0
H1559 H 0.91234 0.19866 0.62627 0.0
H1560 H 0.91053 0.22703 0.496 0.0
H1561 H 0.90638 0.20628 0.53604 0.0
H1562 H 0.90259 0.26718 0.77785 0.0
H1563 H 0.909 0.25245 0.81963 0.0
H1564 H 0.88661 0.26748 0.698 0.0
H1565 H 0.8924 0.27142 0.6132 0.0
C1566 C 0.76267 0.6573 0.70638 0.0
C1567 C 0.7574 0.67136 0.71928 0.0
C1568 C 0.74412 0.66769 0.60709 0.0
C1569 C 0.74981 0.65404 0.59387 0.0
N1570 N 0.76069 0.6327 0.63066 0.0
N1571 N 0.74478 0.69137 0.68473 0.0
C1572 C 0.75772 0.64766 0.64388 0.0
C1573 C 0.74855 0.677 0.6704 0.0
N1574 N 0.77295 0.65381 0.75335 0.0
N1575 N 0.73438 0.67143 0.55868 0.0
H1576 H 0.74861 0.69882 0.73046 0.0
H1577 H 0.73861 0.69659 0.65126 0.0
H1578 H 0.73002 0.66381 0.51334 0.0
H1579 H 0.72978 0.6813 0.56367 0.0
H1580 H 0.77722 0.64368 0.7484 0.0
H1581 H 0.77848 0.66212 0.79659 0.0
H1582 H 0.76624 0.62702 0.66487 0.0
H1583 H 0.75645 0.625 0.58555 0.0
C1584 C 0.8823 0.65648 0.63181 0.0
C1585 C 0.89611 0.65433 0.59595 0.0
C1586 C 0.91924 0.66936 0.68606 0.0
C1587 C 0.906 0.67343 0.71807 0.0
N1588 N 0.87595 0.67302 0.7207 0.0
N1589 N 0.92599 0.65478 0.58996 0.0
C1590 C 0.88787 0.66784 0.69013 0.0
C1591 C 0.91415 0.65953 0.62349 0.0
N1592 N 0.86382 0.64706 0.61018 0.0
N1593 N 0.93646 0.67497 0.71611 0.0
H1594 H 0.92185 0.6467 0.54558 0.0
H1595 H 0.93956 0.65826 0.60615 0.0
H1596 H 0.94066 0.68308 0.76046 0.0
H1597 H 0.94673 0.67203 0.69739 0.0
H1598 H 0.85273 0.64825 0.63174 0.0
H1599 H 0.85932 0.63627 0.57392 0.0
H1600 H 0.86237 0.66922 0.70367 0.0
H1601 H 0.88032 0.68264 0.7607 0.0
C1602 C 0.32235 0.21882 0.69933 0.0
C1603 C 0.31614 0.23085 0.72776 0.0
C1604 C 0.32659 0.25146 0.62949 0.0
C1605 C 0.33411 0.24021 0.60423 0.0
N1606 N 0.34243 0.21572 0.61631 0.0
N1607 N 0.30857 0.25606 0.71875 0.0
C1608 C 0.33294 0.22459 0.63972 0.0
C1609 C 0.31703 0.24645 0.69237 0.0
N1610 N 0.31848 0.20222 0.731 0.0
N1611 N 0.32879 0.26675 0.59283 0.0
H1612 H 0.30076 0.25185 0.76357 0.0
H1613 H 0.30867 0.26768 0.69599 0.0
H1614 H 0.33676 0.27102 0.5483 0.0
H1615 H 0.32337 0.27554 0.60667 0.0
H1616 H 0.32178 0.19222 0.71183 0.0
H1617 H 0.31086 0.19781 0.77596 0.0
H1618 H 0.34141 0.20337 0.63629 0.0
H1619 H 0.3531 0.22223 0.58009 0.0
C1620 C 0.7499 0.09436 0.71699 0.0
C1621 C 0.75617 0.08075 0.72172 0.0
C1622 C 0.751 0.07419 0.60174 0.0
C1623 C 0.7499 0.09105 0.59558 0.0
N1624 N 0.74367 0.11481 0.6449 0.0
N1625 N 0.76054 0.05582 0.67079 0.0
C1626 C 0.74769 0.10036 0.65255 0.0
C1627 C 0.75562 0.06967 0.6651 0.0
N1628 N 0.74705 0.10204 0.77468 0.0
N1629 N 0.74784 0.06282 0.54618 0.0
H1630 H 0.76346 0.05159 0.71663 0.0
H1631 H 0.7625 0.04888 0.62982 0.0
H1632 H 0.743 0.06519 0.50038 0.0
H1633 H 0.7483 0.05018 0.54621 0.0
H1634 H 0.74601 0.11434 0.7768 0.0
H1635 H 0.74538 0.09563 0.82181 0.0
H1636 H 0.7414 0.12196 0.68434 0.0
H1637 H 0.7422 0.11968 0.59795 0.0
C1638 C 0.64784 0.89466 0.26372 0.0
C1639 C 0.66778 0.90868 0.25769 0.0
C1640 C 0.66895 0.91473 0.37901 0.0
C1641 C 0.65098 0.89805 0.38506 0.0
N1642 N 0.62103 0.87475 0.336 0.0
N1643 N 0.6965 0.93416 0.31096 0.0
C1644 C 0.63967 0.88874 0.32828 0.0
C1645 C 0.6781 0.91951 0.31554 0.0
N1646 N 0.63667 0.88676 0.20782 0.0
N1647 N 0.6769 0.92618 0.43456 0.0
H1648 H 0.70263 0.94155 0.26668 0.0
H1649 H 0.70564 0.93963 0.3522 0.0
H1650 H 0.66957 0.92387 0.48016 0.0
H1651 H 0.6899 0.93886 0.43476 0.0
H1652 H 0.62503 0.87297 0.20591 0.0
H1653 H 0.6383 0.89474 0.16446 0.0
H1654 H 0.61148 0.86807 0.2966 0.0
H1655 H 0.61458 0.87007 0.38293 0.0
C1656 C 0.07574 0.76219 0.38171 0.0
C1657 C 0.08549 0.75145 0.38556 0.0
C1658 C 0.08237 0.74668 0.26419 0.0
C1659 C 0.07805 0.7616 0.2607 0.0
N1660 N 0.06725 0.78155 0.3127 0.0
N1661 N 0.09704 0.73224 0.32855 0.0
C1662 C 0.07359 0.76876 0.3185 0.0
C1663 C 0.0882 0.74292 0.32651 0.0
N1664 N 0.06869 0.76607 0.43891 0.0
N1665 N 0.08153 0.73683 0.20653 0.0
H1666 H 0.10217 0.72926 0.37202 0.0
H1667 H 0.10044 0.72698 0.28597 0.0
H1668 H 0.07576 0.73846 0.16158 0.0
H1669 H 0.08485 0.72597 0.20362 0.0
H1670 H 0.06477 0.77647 0.44321 0.0
H1671 H 0.06548 0.75766 0.48221 0.0
H1672 H 0.06419 0.78785 0.35299 0.0
H1673 H 0.06514 0.78623 0.26633 0.0
C1674 C 0.24334 0.32905 0.27959 0.0
C1675 C 0.22403 0.31682 0.2617 0.0
C1676 C 0.21296 0.32115 0.37056 0.0
C1677 C 0.23232 0.33317 0.38916 0.0
N1678 N 0.26573 0.35159 0.36089 0.0
N1679 N 0.19038 0.29971 0.28775 0.0
C1680 C 0.24755 0.3381 0.34345 0.0
C1681 C 0.20878 0.31217 0.30689 0.0
N1682 N 0.25739 0.33195 0.23442 0.0
N1683 N 0.19868 0.31907 0.41334 0.0
H1684 H 0.18678 0.29249 0.24175 0.0
H1685 H 0.17841 0.29559 0.31766 0.0
H1686 H 0.20117 0.32646 0.45878 0.0
H1687 H 0.18418 0.31088 0.4037 0.0
H1688 H 0.2719 0.34094 0.24235 0.0
H1689 H 0.25448 0.32444 0.18888 0.0
H1690 H 0.2775 0.35643 0.32929 0.0
H1691 H 0.26901 0.35873 0.40716 0.0
C1692 C 0.00717 0.42803 0.9882 0.0
C1693 C -0.00464 0.42514 0.93153 0.0
C1694 C 0.97384 0.41155 -0.01147 0.0
C1695 C 0.98589 0.4168 0.04548 0.0
N1696 N 0.00816 0.42274 0.09682 0.0
N1697 N 0.9717 0.40689 0.8782 0.0
C1698 C -0.00172 0.42241 0.04018 0.0
C1699 C 0.98235 0.4139 0.93582 0.0
N1700 N 0.02659 0.43751 0.98244 0.0
N1701 N 0.95473 0.40486 -0.00459 0.0
H1702 H 0.97788 0.40729 0.83144 0.0
H1703 H 0.95689 0.39929 0.87677 0.0
H1704 H 0.94802 0.40253 0.04214 0.0
H1705 H 0.94543 0.40161 0.96638 0.0
H1706 H 0.03595 0.44166 0.01183 0.0
H1707 H 0.0337 0.44254 0.93676 0.0
H1708 H 0.02265 0.42735 0.09816 0.0
H1709 H 0.00134 0.41696 0.14268 0.0
C1710 C 0.5644 0.57918 0.04577 0.0
C1711 C 0.56623 0.56277 0.04968 0.0
C1712 C 0.56738 0.5605 0.93867 0.0
C1713 C 0.56104 0.57425 0.9346 0.0
N1714 N 0.55441 0.59715 0.99366 0.0
N1715 N 0.57429 0.54067 -0.00198 0.0
C1716 C 0.56006 0.58375 0.99444 0.0
C1717 C 0.56919 0.55441 -0.00839 0.0
N1718 N 0.56732 0.59013 0.1025 0.0
N1719 N 0.57157 0.5538 0.88135 0.0
H1720 H 0.57561 0.53548 0.04456 0.0
H1721 H 0.57771 0.53399 0.96924 0.0
H1722 H 0.5765 0.56193 0.83748 0.0
H1723 H 0.57144 0.54089 0.87792 0.0
H1724 H 0.56696 0.60283 0.10356 0.0
H1725 H 0.57225 0.58769 0.14796 0.0
H1726 H 0.54977 0.60167 0.02543 0.0
H1727 H 0.55433 0.60488 0.95226 0.0
C1728 C 0.42335 0.99063 0.03725 0.0
C1729 C 0.42124 0.00066 0.04686 0.0
C1730 C 0.41062 -0.00122 0.94246 0.0
C1731 C 0.41363 0.98938 0.93223 0.0
N1732 N 0.41792 0.96379 0.97449 0.0
N1733 N 0.41544 0.02534 0.0057 0.0
C1734 C 0.41803 0.9806 0.98542 0.0
C1735 C 0.41565 0.00872 -0.0054 0.0
N1736 N 0.43048 0.98442 0.0878 0.0
N1737 N 0.40393 0.005 0.89065 0.0
H1738 H 0.41948 0.03264 0.05167 0.0
H1739 H 0.41191 0.03179 0.98078 0.0
H1740 H 0.39897 -0.0026 0.84546 0.0
H1741 H 0.4024 0.01703 0.89245 0.0
H1742 H 0.43118 0.97193 0.08656 0.0
H1743 H 0.4369 0.99245 0.13107 0.0
H1744 H 0.42103 0.95705 -0.00046 0.0
H1745 H 0.41381 0.95642 0.92879 0.0
C1746 C 0.57852 -0.00389 0.95077 0.0
C1747 C 0.56063 0.98775 0.93785 0.0
C1748 C 0.55022 0.99036 0.03944 0.0
C1749 C 0.56813 -0.00113 0.05285 0.0
N1750 N 0.59994 0.02185 0.01591 0.0
N1751 N 0.52871 0.96497 0.97371 0.0
C1752 C 0.58264 0.00605 0.00293 0.0
C1753 C 0.54629 0.98029 0.98791 0.0
N1754 N 0.59201 0.00157 0.9009 0.0
N1755 N 0.53598 0.98577 0.08586 0.0
H1756 H 0.52552 0.95738 0.92853 0.0
H1757 H 0.5173 0.95952 -0.00436 0.0
H1758 H 0.53749 0.9942 0.12783 0.0
H1759 H 0.52219 0.97431 0.08235 0.0
H1760 H 0.60583 0.01304 0.90399 0.0
H1761 H 0.58944 -0.00609 0.85581 0.0
H1762 H 0.61096 0.02768 0.99244 0.0
H1763 H 0.60318 0.0291 0.06191 0.0
C1764 C 0.98426 0.55601 0.93502 0.0
C1765 C -0.00507 0.57308 0.92769 0.0
C1766 C -0.00518 0.58197 0.03394 0.0
C1767 C 0.9842 0.56493 0.04056 0.0
N1768 N 0.9569 0.53714 -0.00549 0.0
N1769 N 0.02242 0.60059 0.97541 0.0
C1770 C 0.97455 0.55286 -0.01436 0.0
C1771 C 0.00437 0.5854 0.98276 0.0
N1772 N 0.97764 0.54278 0.88417 0.0
N1773 N 0.00251 0.59373 0.08894 0.0
H1774 H 0.02991 0.6039 0.93004 0.0
H1775 H 0.03052 0.61039 0.00292 0.0
H1776 H -0.00515 0.59167 0.13363 0.0
H1777 H 0.01599 0.60577 0.09083 0.0
H1778 H 0.96396 0.53107 0.88104 0.0
H1779 H 0.98681 0.54273 0.84741 0.0
H1780 H 0.94906 0.52668 0.96822 0.0
H1781 H 0.94945 0.53429 0.03989 0.0
C1782 C 0.41982 0.40521 -0.0078 0.0
C1783 C 0.42088 0.41588 0.05133 0.0
C1784 C 0.41268 0.43594 0.99605 0.0
C1785 C 0.41411 0.42669 0.93797 0.0
N1786 N 0.41158 0.39875 0.88463 0.0
N1787 N 0.4133 0.43833 0.10634 0.0
C1788 C 0.41526 0.40986 0.94139 0.0
C1789 C 0.41553 0.43038 0.04834 0.0
N1790 N 0.42318 0.39025 -0.00576 0.0
N1791 N 0.40819 0.45013 0.99032 0.0
H1792 H 0.40977 0.43106 0.15225 0.0
H1793 H 0.41411 0.45157 0.10904 0.0
H1794 H 0.40577 0.45465 0.9441 0.0
H1795 H 0.40615 0.45773 0.01954 0.0
H1796 H 0.42706 0.38465 0.9633 0.0
H1797 H 0.42097 0.38198 0.03704 0.0
H1798 H 0.41198 0.38609 0.88246 0.0
H1799 H 0.40646 0.40139 0.83998 0.0
loop_
_geom_bond_atom_site_label_1
_geom_bond_atom_site_label_2
_geom_bond_distance
_geom_bond_site_symmetry_2
_ccdc_geom_bond_type
C0 O1 1.306 . S
C0 O3 1.160 . S
O1 C0 1.306 . S
O1 Cd2 2.228 . S
Cd2 O1 2.228 . S
Cd2 O6 2.273 . S
Cd2 O10 2.277 . S
O3 C0 1.160 . S
O3 Cd4 2.203 . S
Cd4 O3 2.203 . S
Cd4 O6 2.411 . S
Cd4 O7 2.333 1_554 S
Cd4 O8 2.352 . S
Cd4 O12 2.277 . S
Cd4 O13 2.356 . S
C5 O10 1.209 . S
C5 O12 1.226 . S
O6 Cd2 2.273 . S
O6 Cd4 2.411 . S
O6 C9 1.320 1_554 S
O7 Cd4 2.333 1_556 S
O7 C9 1.214 . S
O8 Cd4 2.352 . S
O8 C11 1.258 . S
C9 O6 1.320 1_556 S
C9 O7 1.214 . S
O10 Cd2 2.277 . S
O10 C5 1.209 . S
C11 O8 1.258 . S
C11 O13 1.282 . S
O12 Cd4 2.277 . S
O12 C5 1.226 . S
O13 Cd4 2.356 . S
O13 C11 1.282 . S
C14 O15 1.306 . S
C14 O17 1.160 . S
O15 C14 1.306 . S
O15 Cd16 2.228 . S
Cd16 O15 2.228 . S
Cd16 O20 2.273 . S
Cd16 O24 2.277 . S
O17 C14 1.160 . S
O17 Cd18 2.203 . S
Cd18 O17 2.203 . S
Cd18 O20 2.411 . S
Cd18 O21 2.333 1_554 S
Cd18 O22 2.352 . S
Cd18 O26 2.277 . S
Cd18 O27 2.356 . S
C19 O24 1.209 . S
C19 O26 1.226 . S
O20 Cd16 2.273 . S
O20 Cd18 2.411 . S
O20 C23 1.320 1_554 S
O21 Cd18 2.333 1_556 S
O21 C23 1.214 . S
O22 Cd18 2.352 . S
O22 C25 1.258 . S
C23 O20 1.320 1_556 S
C23 O21 1.214 . S
O24 Cd16 2.277 . S
O24 C19 1.209 . S
C25 O22 1.258 . S
C25 O27 1.282 . S
O26 Cd18 2.277 . S
O26 C19 1.226 . S
O27 Cd18 2.356 . S
O27 C25 1.282 . S
C28 O29 1.306 . S
C28 O31 1.160 . S
O29 C28 1.306 . S
O29 Cd30 2.228 . S
Cd30 O29 2.228 . S
Cd30 O34 2.273 . S
Cd30 O38 2.277 . S
O31 C28 1.160 . S
O31 Cd32 2.203 . S
Cd32 O31 2.203 . S
Cd32 O34 2.411 . S
Cd32 O35 2.333 1_554 S
Cd32 O36 2.352 . S
Cd32 O40 2.277 . S
Cd32 O41 2.356 . S
C33 O38 1.209 . S
C33 O40 1.226 . S
O34 Cd30 2.273 . S
O34 Cd32 2.411 . S
O34 C37 1.320 1_554 S
O35 Cd32 2.333 1_556 S
O35 C37 1.214 . S
O36 Cd32 2.352 . S
O36 C39 1.258 . S
C37 O34 1.320 1_556 S
C37 O35 1.214 . S
O38 Cd30 2.277 . S
O38 C33 1.209 . S
C39 O36 1.258 . S
C39 O41 1.282 . S
O40 Cd32 2.277 . S
O40 C33 1.226 . S
O41 Cd32 2.356 . S
O41 C39 1.282 . S
C42 O43 1.306 . S
C42 O45 1.160 . S
O43 C42 1.306 . S
O43 Cd44 2.228 . S
Cd44 O43 2.228 . S
Cd44 O48 2.273 . S
Cd44 O52 2.277 . S
O45 C42 1.160 . S
O45 Cd46 2.203 . S
Cd46 O45 2.203 . S
Cd46 O48 2.411 . S
Cd46 O49 2.333 1_556 S
Cd46 O50 2.352 . S
Cd46 O54 2.277 . S
Cd46 O55 2.356 . S
C47 O52 1.209 . S
C47 O54 1.226 . S
O48 Cd44 2.273 . S
O48 Cd46 2.411 . S
O48 C51 1.320 1_556 S
O49 Cd46 2.333 1_554 S
O49 C51 1.214 . S
O50 Cd46 2.352 . S
O50 C53 1.258 . S
C51 O48 1.320 1_554 S
C51 O49 1.214 . S
O52 Cd44 2.277 . S
O52 C47 1.209 . S
C53 O50 1.258 . S
C53 O55 1.282 . S
O54 Cd46 2.277 . S
O54 C47 1.226 . S
O55 Cd46 2.356 . S
O55 C53 1.282 . S
C56 O57 1.306 . S
C56 O59 1.160 . S
O57 C56 1.306 . S
O57 Cd58 2.228 . S
Cd58 O57 2.228 . S
Cd58 O62 2.273 . S
Cd58 O66 2.277 . S
O59 C56 1.160 . S
O59 Cd60 2.203 . S
Cd60 O59 2.203 . S
Cd60 O62 2.411 . S
Cd60 O63 2.333 1_556 S
Cd60 O64 2.352 . S
Cd60 O68 2.277 . S
Cd60 O69 2.356 . S
C61 O66 1.209 . S
C61 O68 1.226 . S
O62 Cd58 2.273 . S
O62 Cd60 2.411 . S
O62 C65 1.320 1_556 S
O63 Cd60 2.333 1_554 S
O63 C65 1.214 . S
O64 Cd60 2.352 . S
O64 C67 1.258 . S
C65 O62 1.320 1_554 S
C65 O63 1.214 . S
O66 Cd58 2.277 . S
O66 C61 1.209 . S
C67 O64 1.258 . S
C67 O69 1.282 . S
O68 Cd60 2.277 . S
O68 C61 1.226 . S
O69 Cd60 2.356 . S
O69 C67 1.282 . S
C70 O71 1.306 . S
C70 O73 1.160 . S
O71 C70 1.306 . S
O71 Cd72 2.228 . S
Cd72 O71 2.228 . S
Cd72 O76 2.273 . S
Cd72 O80 2.277 . S
O73 C70 1.160 . S
O73 Cd74 2.203 . S
Cd74 O73 2.203 . S
Cd74 O76 2.411 . S
Cd74 O77 2.333 1_556 S
Cd74 O78 2.352 . S
Cd74 O82 2.277 . S
Cd74 O83 2.356 . S
C75 O80 1.209 . S
C75 O82 1.226 . S
O76 Cd72 2.273 . S
O76 Cd74 2.411 . S
O76 C79 1.320 1_556 S
O77 Cd74 2.333 1_554 S
O77 C79 1.214 . S
O78 Cd74 2.352 . S
O78 C81 1.258 . S
C79 O76 1.320 1_554 S
C79 O77 1.214 . S
O80 Cd72 2.277 . S
O80 C75 1.209 . S
C81 O78 1.258 . S
C81 O83 1.282 . S
O82 Cd74 2.277 . S
O82 C75 1.226 . S
O83 Cd74 2.356 . S
O83 C81 1.282 . S
C84 O85 1.306 . S
C84 O87 1.160 . S
O85 C84 1.306 . S
O85 Cd86 2.228 . S
Cd86 O85 2.228 . S
Cd86 O90 2.273 . S
Cd86 O94 2.277 . S
O87 C84 1.160 . S
O87 Cd88 2.203 . S
Cd88 O87 2.203 . S
Cd88 O90 2.411 . S
Cd88 O91 2.333 1_556 S
Cd88 O92 2.352 . S
Cd88 O96 2.277 . S
Cd88 O97 2.356 . S
C89 O94 1.209 . S
C89 O96 1.226 . S
O90 Cd86 2.273 . S
O90 Cd88 2.411 . S
O90 C93 1.320 1_556 S
O91 Cd88 2.333 1_554 S
O91 C93 1.214 . S
O92 Cd88 2.352 . S
O92 C95 1.258 . S
C93 O90 1.320 1_554 S
C93 O91 1.214 . S
O94 Cd86 2.277 . S
O94 C89 1.209 . S
C95 O92 1.258 . S
C95 O97 1.282 . S
O96 Cd88 2.277 . S
O96 C89 1.226 . S
O97 Cd88 2.356 . S
O97 C95 1.282 . S
C98 O99 1.306 . S
C98 O101 1.160 . S
O99 C98 1.306 . S
O99 Cd100 2.228 . S
Cd100 O99 2.228 . S
Cd100 O104 2.273 . S
Cd100 O108 2.277 . S
O101 C98 1.160 . S
O101 Cd102 2.203 . S
Cd102 O101 2.203 . S
Cd102 O104 2.411 . S
Cd102 O105 2.333 1_556 S
Cd102 O106 2.352 . S
Cd102 O110 2.277 . S
Cd102 O111 2.356 . S
C103 O108 1.209 . S
C103 O110 1.226 . S
O104 Cd100 2.273 . S
O104 Cd102 2.411 . S
O104 C107 1.320 1_556 S
O105 Cd102 2.333 1_554 S
O105 C107 1.214 . S
O106 Cd102 2.352 . S
O106 C109 1.258 . S
C107 O104 1.320 1_554 S
C107 O105 1.214 . S
O108 Cd100 2.277 . S
O108 C103 1.209 . S
C109 O106 1.258 . S
C109 O111 1.282 . S
O110 Cd102 2.277 . S
O110 C103 1.226 . S
O111 Cd102 2.356 . S
O111 C109 1.282 . S
C112 O113 1.306 . S
C112 O115 1.160 . S
O113 C112 1.306 . S
O113 Cd114 2.228 . S
Cd114 O113 2.228 . S
Cd114 O118 2.273 . S
Cd114 O122 2.277 . S
O115 C112 1.160 . S
O115 Cd116 2.203 . S
Cd116 O115 2.203 . S
Cd116 O118 2.411 . S
Cd116 O119 2.333 1_556 S
Cd116 O120 2.352 . S
Cd116 O124 2.277 . S
Cd116 O125 2.356 . S
C117 O122 1.209 . S
C117 O124 1.226 . S
O118 Cd114 2.273 . S
O118 Cd116 2.411 . S
O118 C121 1.320 1_556 S
O119 Cd116 2.333 1_554 S
O119 C121 1.214 . S
O120 Cd116 2.352 . S
O120 C123 1.258 . S
C121 O118 1.320 1_554 S
C121 O119 1.214 . S
O122 Cd114 2.277 . S
O122 C117 1.209 . S
C123 O120 1.258 . S
C123 O125 1.282 . S
O124 Cd116 2.277 . S
O124 C117 1.226 . S
O125 Cd116 2.356 . S
O125 C123 1.282 . S
C126 O127 1.306 . S
C126 O129 1.160 . S
O127 C126 1.306 . S
O127 Cd128 2.228 . S
Cd128 O127 2.228 . S
Cd128 O132 2.273 . S
Cd128 O136 2.277 . S
O129 C126 1.160 . S
O129 Cd130 2.203 . S
Cd130 O129 2.203 . S
Cd130 O132 2.411 . S
Cd130 O133 2.333 1_554 S
Cd130 O134 2.352 . S
Cd130 O138 2.277 . S
Cd130 O139 2.356 . S
C131 O136 1.209 . S
C131 O138 1.226 . S
O132 Cd128 2.273 . S
O132 Cd130 2.411 . S
O132 C135 1.320 1_554 S
O133 Cd130 2.333 1_556 S
O133 C135 1.214 . S
O134 Cd130 2.352 . S
O134 C137 1.258 . S
C135 O132 1.320 1_556 S
C135 O133 1.214 . S
O136 Cd128 2.277 . S
O136 C131 1.209 . S
C137 O134 1.258 . S
C137 O139 1.282 . S
O138 Cd130 2.277 . S
O138 C131 1.226 . S
O139 Cd130 2.356 . S
O139 C137 1.282 . S
C140 O141 1.306 . S
C140 O143 1.160 . S
O141 C140 1.306 . S
O141 Cd142 2.228 . S
Cd142 O141 2.228 . S
Cd142 O146 2.273 . S
Cd142 O150 2.277 . S
O143 C140 1.160 . S
O143 Cd144 2.203 . S
Cd144 O143 2.203 . S
Cd144 O146 2.411 . S
Cd144 O147 2.333 1_554 S
Cd144 O148 2.352 . S
Cd144 O152 2.277 . S
Cd144 O153 2.356 . S
C145 O150 1.209 . S
C145 O152 1.226 . S
O146 Cd142 2.273 . S
O146 Cd144 2.411 . S
O146 C149 1.320 1_554 S
O147 Cd144 2.333 1_556 S
O147 C149 1.214 . S
O148 Cd144 2.352 . S
O148 C151 1.258 . S
C149 O146 1.320 1_556 S
C149 O147 1.214 . S
O150 Cd142 2.277 . S
O150 C145 1.209 . S
C151 O148 1.258 . S
C151 O153 1.282 . S
O152 Cd144 2.277 . S
O152 C145 1.226 . S
O153 Cd144 2.356 . S
O153 C151 1.282 . S
C154 O155 1.306 . S
C154 O157 1.160 . S
O155 C154 1.306 . S
O155 Cd156 2.228 . S
Cd156 O155 2.228 . S
Cd156 O160 2.273 . S
Cd156 O164 2.277 . S
O157 C154 1.160 . S
O157 Cd158 2.203 . S
Cd158 O157 2.203 . S
Cd158 O160 2.411 . S
Cd158 O161 2.333 1_554 S
Cd158 O162 2.352 . S
Cd158 O166 2.277 . S
Cd158 O167 2.356 . S
C159 O164 1.209 . S
C159 O166 1.226 . S
O160 Cd156 2.273 . S
O160 Cd158 2.411 . S
O160 C163 1.320 1_554 S
O161 Cd158 2.333 1_556 S
O161 C163 1.214 . S
O162 Cd158 2.352 . S
O162 C165 1.258 . S
C163 O160 1.320 1_556 S
C163 O161 1.214 . S
O164 Cd156 2.277 . S
O164 C159 1.209 . S
C165 O162 1.258 . S
C165 O167 1.282 . S
O166 Cd158 2.277 . S
O166 C159 1.226 . S
O167 Cd158 2.356 . S
O167 C165 1.282 . S
C168 O169 1.306 . S
C168 O171 1.160 . S
O169 C168 1.306 . S
O169 Cd170 2.228 . S
Cd170 O169 2.228 . S
Cd170 O174 2.273 . S
Cd170 O178 2.277 . S
O171 C168 1.160 . S
O171 Cd172 2.203 . S
Cd172 O171 2.203 . S
Cd172 O174 2.411 . S
Cd172 O175 2.333 . S
Cd172 O176 2.352 . S
Cd172 O180 2.277 . S
Cd172 O181 2.356 . S
C173 O178 1.209 . S
C173 O180 1.226 . S
O174 Cd170 2.273 . S
O174 Cd172 2.411 . S
O174 C177 1.320 . S
O175 Cd172 2.333 . S
O175 C177 1.214 . S
O176 Cd172 2.352 . S
O176 C179 1.258 . S
C177 O174 1.320 . S
C177 O175 1.214 . S
O178 Cd170 2.277 . S
O178 C173 1.209 . S
C179 O176 1.258 . S
C179 O181 1.282 . S
O180 Cd172 2.277 . S
O180 C173 1.226 . S
O181 Cd172 2.356 . S
O181 C179 1.282 . S
C182 O183 1.306 . S
C182 O185 1.160 . S
O183 C182 1.306 . S
O183 Cd184 2.228 . S
Cd184 O183 2.228 . S
Cd184 O188 2.273 . S
Cd184 O192 2.277 . S
O185 C182 1.160 . S
O185 Cd186 2.203 . S
Cd186 O185 2.203 . S
Cd186 O188 2.411 . S
Cd186 O189 2.333 . S
Cd186 O190 2.352 . S
Cd186 O194 2.277 . S
Cd186 O195 2.356 . S
C187 O192 1.209 . S
C187 O194 1.226 . S
O188 Cd184 2.273 . S
O188 Cd186 2.411 . S
O188 C191 1.320 . S
O189 Cd186 2.333 . S
O189 C191 1.214 . S
O190 Cd186 2.352 . S
O190 C193 1.258 . S
C191 O188 1.320 . S
C191 O189 1.214 . S
O192 Cd184 2.277 . S
O192 C187 1.209 . S
C193 O190 1.258 . S
C193 O195 1.282 . S
O194 Cd186 2.277 . S
O194 C187 1.226 . S
O195 Cd186 2.356 . S
O195 C193 1.282 . S
C196 O197 1.306 . S
C196 O199 1.160 . S
O197 C196 1.306 . S
O197 Cd198 2.228 . S
Cd198 O197 2.228 . S
Cd198 O202 2.273 . S
Cd198 O206 2.277 . S
O199 C196 1.160 . S
O199 Cd200 2.203 . S
Cd200 O199 2.203 . S
Cd200 O202 2.411 . S
Cd200 O203 2.333 . S
Cd200 O204 2.352 . S
Cd200 O208 2.277 . S
Cd200 O209 2.356 . S
C201 O206 1.209 . S
C201 O208 1.226 . S
O202 Cd198 2.273 . S
O202 Cd200 2.411 . S
O202 C205 1.320 . S
O203 Cd200 2.333 . S
O203 C205 1.214 . S
O204 Cd200 2.352 . S
O204 C207 1.258 . S
C205 O202 1.320 . S
C205 O203 1.214 . S
O206 Cd198 2.277 . S
O206 C201 1.209 . S
C207 O204 1.258 . S
C207 O209 1.282 . S
O208 Cd200 2.277 . S
O208 C201 1.226 . S
O209 Cd200 2.356 . S
O209 C207 1.282 . S
C210 O211 1.306 . S
C210 O213 1.160 . S
O211 C210 1.306 . S
O211 Cd212 2.228 1_655 S
Cd212 O211 2.228 1_455 S
Cd212 O216 2.273 1_455 S
Cd212 O220 2.277 1_455 S
O213 C210 1.160 . S
O213 Cd214 2.203 . S
Cd214 O213 2.203 . S
Cd214 O216 2.411 . S
Cd214 O217 2.333 . S
Cd214 O218 2.352 . S
Cd214 O222 2.277 . S
Cd214 O223 2.356 . S
C215 O220 1.209 . S
C215 O222 1.226 . S
O216 Cd212 2.273 1_655 S
O216 Cd214 2.411 . S
O216 C219 1.320 . S
O217 Cd214 2.333 . S
O217 C219 1.214 . S
O218 Cd214 2.352 . S
O218 C221 1.258 . S
C219 O216 1.320 . S
C219 O217 1.214 . S
O220 Cd212 2.277 1_655 S
O220 C215 1.209 . S
C221 O218 1.258 . S
C221 O223 1.282 . S
O222 Cd214 2.277 . S
O222 C215 1.226 . S
O223 Cd214 2.356 . S
O223 C221 1.282 . S
C224 O225 1.306 . S
C224 O227 1.160 . S
O225 C224 1.306 . S
O225 Cd226 2.228 . S
Cd226 O225 2.228 . S
Cd226 O230 2.273 . S
Cd226 O234 2.277 . S
O227 C224 1.160 . S
O227 Cd228 2.203 . S
Cd228 O227 2.203 . S
Cd228 O230 2.411 . S
Cd228 O231 2.333 . S
Cd228 O232 2.352 . S
Cd228 O236 2.277 . S
Cd228 O237 2.356 . S
C229 O234 1.209 . S
C229 O236 1.226 . S
O230 Cd226 2.273 . S
O230 Cd228 2.411 . S
O230 C233 1.320 . S
O231 Cd228 2.333 . S
O231 C233 1.214 . S
O232 Cd228 2.352 . S
O232 C235 1.258 . S
C233 O230 1.320 . S
C233 O231 1.214 . S
O234 Cd226 2.277 . S
O234 C229 1.209 . S
C235 O232 1.258 . S
C235 O237 1.282 . S
O236 Cd228 2.277 . S
O236 C229 1.226 . S
O237 Cd228 2.356 . S
O237 C235 1.282 . S
C238 O239 1.306 . S
C238 O241 1.160 . S
O239 C238 1.306 . S
O239 Cd240 2.228 1_545 S
Cd240 O239 2.228 1_565 S
Cd240 O244 2.273 1_565 S
Cd240 O248 2.277 1_565 S
O241 C238 1.160 . S
O241 Cd242 2.203 . S
Cd242 O241 2.203 . S
Cd242 O244 2.411 . S
Cd242 O245 2.333 . S
Cd242 O246 2.352 . S
Cd242 O250 2.277 . S
Cd242 O251 2.356 . S
C243 O248 1.209 . S
C243 O250 1.226 . S
O244 Cd240 2.273 1_545 S
O244 Cd242 2.411 . S
O244 C247 1.320 . S
O245 Cd242 2.333 . S
O245 C247 1.214 . S
O246 Cd242 2.352 . S
O246 C249 1.258 . S
C247 O244 1.320 . S
C247 O245 1.214 . S
O248 Cd240 2.277 1_545 S
O248 C243 1.209 . S
C249 O246 1.258 . S
C249 O251 1.282 . S
O250 Cd242 2.277 . S
O250 C243 1.226 . S
O251 Cd242 2.356 . S
O251 C249 1.282 . S
C252 O253 1.306 . S
C252 O255 1.160 . S
O253 C252 1.306 . S
O253 Cd254 2.228 1_545 S
Cd254 O253 2.228 1_565 S
Cd254 O258 2.273 1_565 S
Cd254 O262 2.277 1_565 S
O255 C252 1.160 . S
O255 Cd256 2.203 . S
Cd256 O255 2.203 . S
Cd256 O258 2.411 . S
Cd256 O259 2.333 . S
Cd256 O260 2.352 . S
Cd256 O264 2.277 . S
Cd256 O265 2.356 . S
C257 O262 1.209 . S
C257 O264 1.226 . S
O258 Cd254 2.273 1_545 S
O258 Cd256 2.411 . S
O258 C261 1.320 . S
O259 Cd256 2.333 . S
O259 C261 1.214 . S
O260 Cd256 2.352 . S
O260 C263 1.258 . S
C261 O258 1.320 . S
C261 O259 1.214 . S
O262 Cd254 2.277 1_545 S
O262 C257 1.209 . S
C263 O260 1.258 . S
C263 O265 1.282 . S
O264 Cd256 2.277 . S
O264 C257 1.226 . S
O265 Cd256 2.356 . S
O265 C263 1.282 . S
C266 O267 1.306 . S
C266 O269 1.160 . S
O267 C266 1.306 . S
O267 Cd268 2.228 1_655 S
Cd268 O267 2.228 1_455 S
Cd268 O272 2.273 1_455 S
Cd268 O276 2.277 1_455 S
O269 C266 1.160 . S
O269 Cd270 2.203 . S
Cd270 O269 2.203 . S
Cd270 O272 2.411 . S
Cd270 O273 2.333 . S
Cd270 O274 2.352 . S
Cd270 O278 2.277 . S
Cd270 O279 2.356 . S
C271 O276 1.209 . S
C271 O278 1.226 . S
O272 Cd268 2.273 1_655 S
O272 Cd270 2.411 . S
O272 C275 1.320 . S
O273 Cd270 2.333 . S
O273 C275 1.214 . S
O274 Cd270 2.352 . S
O274 C277 1.258 . S
C275 O272 1.320 . S
C275 O273 1.214 . S
O276 Cd268 2.277 1_655 S
O276 C271 1.209 . S
C277 O274 1.258 . S
C277 O279 1.282 . S
O278 Cd270 2.277 . S
O278 C271 1.226 . S
O279 Cd270 2.356 . S
O279 C277 1.282 . S
C280 O281 1.306 . S
C280 O283 1.160 . S
O281 C280 1.306 . S
O281 Cd282 2.228 . S
Cd282 O281 2.228 . S
Cd282 O286 2.273 . S
Cd282 O290 2.277 . S
O283 C280 1.160 . S
O283 Cd284 2.203 . S
Cd284 O283 2.203 . S
Cd284 O286 2.411 . S
Cd284 O287 2.333 . S
Cd284 O288 2.352 . S
Cd284 O292 2.277 . S
Cd284 O293 2.356 . S
C285 O290 1.209 . S
C285 O292 1.226 . S
O286 Cd282 2.273 . S
O286 Cd284 2.411 . S
O286 C289 1.320 . S
O287 Cd284 2.333 . S
O287 C289 1.214 . S
O288 Cd284 2.352 . S
O288 C291 1.258 . S
C289 O286 1.320 . S
C289 O287 1.214 . S
O290 Cd282 2.277 . S
O290 C285 1.209 . S
C291 O288 1.258 . S
C291 O293 1.282 . S
O292 Cd284 2.277 . S
O292 C285 1.226 . S
O293 Cd284 2.356 . S
O293 C291 1.282 . S
C294 O295 1.306 . S
C294 O297 1.160 . S
O295 C294 1.306 . S
O295 Cd296 2.228 . S
Cd296 O295 2.228 . S
Cd296 O300 2.273 . S
Cd296 O304 2.277 . S
O297 C294 1.160 . S
O297 Cd298 2.203 . S
Cd298 O297 2.203 . S
Cd298 O300 2.411 . S
Cd298 O301 2.333 . S
Cd298 O302 2.352 . S
Cd298 O306 2.277 . S
Cd298 O307 2.356 . S
C299 O304 1.209 . S
C299 O306 1.226 . S
O300 Cd296 2.273 . S
O300 Cd298 2.411 . S
O300 C303 1.320 . S
O301 Cd298 2.333 . S
O301 C303 1.214 . S
O302 Cd298 2.352 . S
O302 C305 1.258 . S
C303 O300 1.320 . S
C303 O301 1.214 . S
O304 Cd296 2.277 . S
O304 C299 1.209 . S
C305 O302 1.258 . S
C305 O307 1.282 . S
O306 Cd298 2.277 . S
O306 C299 1.226 . S
O307 Cd298 2.356 . S
O307 C305 1.282 . S
C308 O309 1.306 . S
C308 O311 1.160 . S
O309 C308 1.306 . S
O309 Cd310 2.228 . S
Cd310 O309 2.228 . S
Cd310 O314 2.273 . S
Cd310 O318 2.277 . S
O311 C308 1.160 . S
O311 Cd312 2.203 . S
Cd312 O311 2.203 . S
Cd312 O314 2.411 . S
Cd312 O315 2.333 . S
Cd312 O316 2.352 . S
Cd312 O320 2.277 . S
Cd312 O321 2.356 . S
C313 O318 1.209 . S
C313 O320 1.226 . S
O314 Cd310 2.273 . S
O314 Cd312 2.411 . S
O314 C317 1.320 . S
O315 Cd312 2.333 . S
O315 C317 1.214 . S
O316 Cd312 2.352 . S
O316 C319 1.258 . S
C317 O314 1.320 . S
C317 O315 1.214 . S
O318 Cd310 2.277 . S
O318 C313 1.209 . S
C319 O316 1.258 . S
C319 O321 1.282 . S
O320 Cd312 2.277 . S
O320 C313 1.226 . S
O321 Cd312 2.356 . S
O321 C319 1.282 . S
C322 O323 1.306 . S
C322 O325 1.160 . S
O323 C322 1.306 . S
O323 Cd324 2.228 . S
Cd324 O323 2.228 . S
Cd324 O328 2.273 . S
Cd324 O332 2.277 . S
O325 C322 1.160 . S
O325 Cd326 2.203 . S
Cd326 O325 2.203 . S
Cd326 O328 2.411 . S
Cd326 O329 2.333 . S
Cd326 O330 2.352 . S
Cd326 O334 2.277 . S
Cd326 O335 2.356 . S
C327 O332 1.209 . S
C327 O334 1.226 . S
O328 Cd324 2.273 . S
O328 Cd326 2.411 . S
O328 C331 1.320 . S
O329 Cd326 2.333 . S
O329 C331 1.214 . S
O330 Cd326 2.352 . S
O330 C333 1.258 . S
C331 O328 1.320 . S
C331 O329 1.214 . S
O332 Cd324 2.277 . S
O332 C327 1.209 . S
C333 O330 1.258 . S
C333 O335 1.282 . S
O334 Cd326 2.277 . S
O334 C327 1.226 . S
O335 Cd326 2.356 . S
O335 C333 1.282 . S
C336 O337 1.306 . S
C336 O339 1.160 . S
O337 C336 1.306 . S
O337 Cd338 2.228 1_565 S
Cd338 O337 2.228 1_545 S
Cd338 O342 2.273 1_545 S
Cd338 O346 2.277 1_545 S
O339 C336 1.160 . S
O339 Cd340 2.203 . S
Cd340 O339 2.203 . S
Cd340 O342 2.411 . S
Cd340 O343 2.333 . S
Cd340 O344 2.352 . S
Cd340 O348 2.277 . S
Cd340 O349 2.356 . S
C341 O346 1.209 . S
C341 O348 1.226 . S
O342 Cd338 2.273 1_565 S
O342 Cd340 2.411 . S
O342 C345 1.320 . S
O343 Cd340 2.333 . S
O343 C345 1.214 . S
O344 Cd340 2.352 . S
O344 C347 1.258 . S
C345 O342 1.320 . S
C345 O343 1.214 . S
O346 Cd338 2.277 1_565 S
O346 C341 1.209 . S
C347 O344 1.258 . S
C347 O349 1.282 . S
O348 Cd340 2.277 . S
O348 C341 1.226 . S
O349 Cd340 2.356 . S
O349 C347 1.282 . S
C350 O351 1.306 . S
C350 O353 1.160 . S
O351 C350 1.306 . S
O351 Cd352 2.228 1_455 S
Cd352 O351 2.228 1_655 S
Cd352 O356 2.273 1_655 S
Cd352 O360 2.277 1_655 S
O353 C350 1.160 . S
O353 Cd354 2.203 . S
Cd354 O353 2.203 . S
Cd354 O356 2.411 . S
Cd354 O357 2.333 . S
Cd354 O358 2.352 . S
Cd354 O362 2.277 . S
Cd354 O363 2.356 . S
C355 O360 1.209 . S
C355 O362 1.226 . S
O356 Cd352 2.273 1_455 S
O356 Cd354 2.411 . S
O356 C359 1.320 . S
O357 Cd354 2.333 . S
O357 C359 1.214 . S
O358 Cd354 2.352 . S
O358 C361 1.258 . S
C359 O356 1.320 . S
C359 O357 1.214 . S
O360 Cd352 2.277 1_455 S
O360 C355 1.209 . S
C361 O358 1.258 . S
C361 O363 1.282 . S
O362 Cd354 2.277 . S
O362 C355 1.226 . S
O363 Cd354 2.356 . S
O363 C361 1.282 . S
C364 O365 1.306 . S
C364 O367 1.160 . S
O365 C364 1.306 . S
O365 Cd366 2.228 . S
Cd366 O365 2.228 . S
Cd366 O370 2.273 . S
Cd366 O374 2.277 . S
O367 C364 1.160 . S
O367 Cd368 2.203 . S
Cd368 O367 2.203 . S
Cd368 O370 2.411 . S
Cd368 O371 2.333 . S
Cd368 O372 2.352 . S
Cd368 O376 2.277 . S
Cd368 O377 2.356 . S
C369 O374 1.209 . S
C369 O376 1.226 . S
O370 Cd366 2.273 . S
O370 Cd368 2.411 . S
O370 C373 1.320 . S
O371 Cd368 2.333 . S
O371 C373 1.214 . S
O372 Cd368 2.352 . S
O372 C375 1.258 . S
C373 O370 1.320 . S
C373 O371 1.214 . S
O374 Cd366 2.277 . S
O374 C369 1.209 . S
C375 O372 1.258 . S
C375 O377 1.282 . S
O376 Cd368 2.277 . S
O376 C369 1.226 . S
O377 Cd368 2.356 . S
O377 C375 1.282 . S
C378 O379 1.306 . S
C378 O381 1.160 . S
O379 C378 1.306 . S
O379 Cd380 2.228 . S
Cd380 O379 2.228 . S
Cd380 O384 2.273 . S
Cd380 O388 2.277 . S
O381 C378 1.160 . S
O381 Cd382 2.203 . S
Cd382 O381 2.203 . S
Cd382 O384 2.411 . S
Cd382 O385 2.333 . S
Cd382 O386 2.352 . S
Cd382 O390 2.277 . S
Cd382 O391 2.356 . S
C383 O388 1.209 . S
C383 O390 1.226 . S
O384 Cd380 2.273 . S
O384 Cd382 2.411 . S
O384 C387 1.320 . S
O385 Cd382 2.333 . S
O385 C387 1.214 . S
O386 Cd382 2.352 . S
O386 C389 1.258 . S
C387 O384 1.320 . S
C387 O385 1.214 . S
O388 Cd380 2.277 . S
O388 C383 1.209 . S
C389 O386 1.258 . S
C389 O391 1.282 . S
O390 Cd382 2.277 . S
O390 C383 1.226 . S
O391 Cd382 2.356 . S
O391 C389 1.282 . S
C392 O393 1.306 . S
C392 O395 1.160 . S
O393 C392 1.306 . S
O393 Cd394 2.228 . S
Cd394 O393 2.228 . S
Cd394 O398 2.273 . S
Cd394 O402 2.277 . S
O395 C392 1.160 . S
O395 Cd396 2.203 . S
Cd396 O395 2.203 . S
Cd396 O398 2.411 . S
Cd396 O399 2.333 . S
Cd396 O400 2.352 . S
Cd396 O404 2.277 . S
Cd396 O405 2.356 . S
C397 O402 1.209 . S
C397 O404 1.226 . S
O398 Cd394 2.273 . S
O398 Cd396 2.411 . S
O398 C401 1.320 . S
O399 Cd396 2.333 . S
O399 C401 1.214 . S
O400 Cd396 2.352 . S
O400 C403 1.258 . S
C401 O398 1.320 . S
C401 O399 1.214 . S
O402 Cd394 2.277 . S
O402 C397 1.209 . S
C403 O400 1.258 . S
C403 O405 1.282 . S
O404 Cd396 2.277 . S
O404 C397 1.226 . S
O405 Cd396 2.356 . S
O405 C403 1.282 . S
C406 O407 1.306 . S
C406 O409 1.160 . S
O407 C406 1.306 . S
O407 Cd408 2.228 . S
Cd408 O407 2.228 . S
Cd408 O412 2.273 . S
Cd408 O416 2.277 . S
O409 C406 1.160 . S
O409 Cd410 2.203 . S
Cd410 O409 2.203 . S
Cd410 O412 2.411 . S
Cd410 O413 2.333 . S
Cd410 O414 2.352 . S
Cd410 O418 2.277 . S
Cd410 O419 2.356 . S
C411 O416 1.209 . S
C411 O418 1.226 . S
O412 Cd408 2.273 . S
O412 Cd410 2.411 . S
O412 C415 1.320 . S
O413 Cd410 2.333 . S
O413 C415 1.214 . S
O414 Cd410 2.352 . S
O414 C417 1.258 . S
C415 O412 1.320 . S
C415 O413 1.214 . S
O416 Cd408 2.277 . S
O416 C411 1.209 . S
C417 O414 1.258 . S
C417 O419 1.282 . S
O418 Cd410 2.277 . S
O418 C411 1.226 . S
O419 Cd410 2.356 . S
O419 C417 1.282 . S
C420 O421 1.306 . S
C420 O423 1.160 . S
O421 C420 1.306 . S
O421 Cd422 2.228 . S
Cd422 O421 2.228 . S
Cd422 O426 2.273 . S
Cd422 O430 2.277 . S
O423 C420 1.160 . S
O423 Cd424 2.203 . S
Cd424 O423 2.203 . S
Cd424 O426 2.411 . S
Cd424 O427 2.333 . S
Cd424 O428 2.352 . S
Cd424 O432 2.277 . S
Cd424 O433 2.356 . S
C425 O430 1.209 . S
C425 O432 1.226 . S
O426 Cd422 2.273 . S
O426 Cd424 2.411 . S
O426 C429 1.320 . S
O427 Cd424 2.333 . S
O427 C429 1.214 . S
O428 Cd424 2.352 . S
O428 C431 1.258 . S
C429 O426 1.320 . S
C429 O427 1.214 . S
O430 Cd422 2.277 . S
O430 C425 1.209 . S
C431 O428 1.258 . S
C431 O433 1.282 . S
O432 Cd424 2.277 . S
O432 C425 1.226 . S
O433 Cd424 2.356 . S
O433 C431 1.282 . S
C434 O435 1.306 . S
C434 O437 1.160 . S
O435 C434 1.306 . S
O435 Cd436 2.228 . S
Cd436 O435 2.228 . S
Cd436 O440 2.273 . S
Cd436 O444 2.277 . S
O437 C434 1.160 . S
O437 Cd438 2.203 . S
Cd438 O437 2.203 . S
Cd438 O440 2.411 . S
Cd438 O441 2.333 . S
Cd438 O442 2.352 . S
Cd438 O446 2.277 . S
Cd438 O447 2.356 . S
C439 O444 1.209 . S
C439 O446 1.226 . S
O440 Cd436 2.273 . S
O440 Cd438 2.411 . S
O440 C443 1.320 . S
O441 Cd438 2.333 . S
O441 C443 1.214 . S
O442 Cd438 2.352 . S
O442 C445 1.258 . S
C443 O440 1.320 . S
C443 O441 1.214 . S
O444 Cd436 2.277 . S
O444 C439 1.209 . S
C445 O442 1.258 . S
C445 O447 1.282 . S
O446 Cd438 2.277 . S
O446 C439 1.226 . S
O447 Cd438 2.356 . S
O447 C445 1.282 . S
C448 O449 1.306 . S
C448 O451 1.160 . S
O449 C448 1.306 . S
O449 Cd450 2.228 . S
Cd450 O449 2.228 . S
Cd450 O454 2.273 . S
Cd450 O458 2.277 . S
O451 C448 1.160 . S
O451 Cd452 2.203 . S
Cd452 O451 2.203 . S
Cd452 O454 2.411 . S
Cd452 O455 2.333 . S
Cd452 O456 2.352 . S
Cd452 O460 2.277 . S
Cd452 O461 2.356 . S
C453 O458 1.209 . S
C453 O460 1.226 . S
O454 Cd450 2.273 . S
O454 Cd452 2.411 . S
O454 C457 1.320 . S
O455 Cd452 2.333 . S
O455 C457 1.214 . S
O456 Cd452 2.352 . S
O456 C459 1.258 . S
C457 O454 1.320 . S
C457 O455 1.214 . S
O458 Cd450 2.277 . S
O458 C453 1.209 . S
C459 O456 1.258 . S
C459 O461 1.282 . S
O460 Cd452 2.277 . S
O460 C453 1.226 . S
O461 Cd452 2.356 . S
O461 C459 1.282 . S
C462 O463 1.306 . S
C462 O465 1.160 . S
O463 C462 1.306 . S
O463 Cd464 2.228 1_455 S
Cd464 O463 2.228 1_655 S
Cd464 O468 2.273 1_655 S
Cd464 O472 2.277 1_655 S
O465 C462 1.160 . S
O465 Cd466 2.203 . S
Cd466 O465 2.203 . S
Cd466 O468 2.411 . S
Cd466 O469 2.333 . S
Cd466 O470 2.352 . S
Cd466 O474 2.277 . S
Cd466 O475 2.356 . S
C467 O472 1.209 . S
C467 O474 1.226 . S
O468 Cd464 2.273 1_455 S
O468 Cd466 2.411 . S
O468 C471 1.320 . S
O469 Cd466 2.333 . S
O469 C471 1.214 . S
O470 Cd466 2.352 . S
O470 C473 1.258 . S
C471 O468 1.320 . S
C471 O469 1.214 . S
O472 Cd464 2.277 1_455 S
O472 C467 1.209 . S
C473 O470 1.258 . S
C473 O475 1.282 . S
O474 Cd466 2.277 . S
O474 C467 1.226 . S
O475 Cd466 2.356 . S
O475 C473 1.282 . S
C476 O477 1.306 . S
C476 O479 1.160 . S
O477 C476 1.306 . S
O477 Cd478 2.228 . S
Cd478 O477 2.228 . S
Cd478 O482 2.273 . S
Cd478 O486 2.277 . S
O479 C476 1.160 . S
O479 Cd480 2.203 . S
Cd480 O479 2.203 . S
Cd480 O482 2.411 . S
Cd480 O483 2.333 . S
Cd480 O484 2.352 . S
Cd480 O488 2.277 . S
Cd480 O489 2.356 . S
C481 O486 1.209 . S
C481 O488 1.226 . S
O482 Cd478 2.273 . S
O482 Cd480 2.411 . S
O482 C485 1.320 . S
O483 Cd480 2.333 . S
O483 C485 1.214 . S
O484 Cd480 2.352 . S
O484 C487 1.258 . S
C485 O482 1.320 . S
C485 O483 1.214 . S
O486 Cd478 2.277 . S
O486 C481 1.209 . S
C487 O484 1.258 . S
C487 O489 1.282 . S
O488 Cd480 2.277 . S
O488 C481 1.226 . S
O489 Cd480 2.356 . S
O489 C487 1.282 . S
C490 O491 1.306 . S
C490 O493 1.160 . S
O491 C490 1.306 . S
O491 Cd492 2.228 1_565 S
Cd492 O491 2.228 1_545 S
Cd492 O496 2.273 1_545 S
Cd492 O500 2.277 1_545 S
O493 C490 1.160 . S
O493 Cd494 2.203 . S
Cd494 O493 2.203 . S
Cd494 O496 2.411 . S
Cd494 O497 2.333 . S
Cd494 O498 2.352 . S
Cd494 O502 2.277 . S
Cd494 O503 2.356 . S
C495 O500 1.209 . S
C495 O502 1.226 . S
O496 Cd492 2.273 1_565 S
O496 Cd494 2.411 . S
O496 C499 1.320 . S
O497 Cd494 2.333 . S
O497 C499 1.214 . S
O498 Cd494 2.352 . S
O498 C501 1.258 . S
C499 O496 1.320 . S
C499 O497 1.214 . S
O500 Cd492 2.277 1_565 S
O500 C495 1.209 . S
C501 O498 1.258 . S
C501 O503 1.282 . S
O502 Cd494 2.277 . S
O502 C495 1.226 . S
O503 Cd494 2.356 . S
O503 C501 1.282 . S
C504 C505 1.363 . S
C504 C510 1.379 . S
C504 N512 1.356 . S
C505 C504 1.363 . S
C505 C511 1.363 . S
C506 C507 1.363 . S
C506 C511 1.379 . S
C506 N513 1.356 . S
C507 C506 1.363 . S
C507 C510 1.363 . S
N508 C510 1.356 . S
N508 H520 0.984 . S
N508 H521 0.985 . S
N509 C511 1.356 . S
N509 H514 0.984 . S
N509 H515 0.985 1_554 S
C510 C504 1.379 . S
C510 C507 1.363 . S
C510 N508 1.356 . S
C511 C505 1.363 . S
C511 C506 1.379 . S
C511 N509 1.356 . S
N512 C504 1.356 . S
N512 H518 0.984 . S
N512 H519 0.984 . S
N513 C506 1.356 . S
N513 H516 0.984 . S
N513 H517 0.985 1_554 S
H514 N509 0.984 . S
H515 N509 0.985 1_556 S
H516 N513 0.984 . S
H517 N513 0.985 1_556 S
H518 N512 0.984 . S
H519 N512 0.984 . S
H520 N508 0.984 . S
H521 N508 0.985 . S
C522 C523 1.363 . S
C522 C528 1.379 . S
C522 N530 1.356 1_554 S
C523 C522 1.363 . S
C523 C529 1.363 . S
C524 C525 1.363 . S
C524 C529 1.379 . S
C524 N531 1.356 . S
C525 C524 1.363 . S
C525 C528 1.363 . S
N526 C528 1.356 1_556 S
N526 H538 0.984 . S
N526 H539 0.986 . S
N527 C529 1.356 . S
N527 H532 0.984 . S
N527 H533 0.985 . S
C528 C522 1.379 . S
C528 C525 1.363 . S
C528 N526 1.356 1_554 S
C529 C523 1.363 . S
C529 C524 1.379 . S
C529 N527 1.356 . S
N530 C522 1.356 1_556 S
N530 H536 0.984 . S
N530 H537 0.987 . S
N531 C524 1.356 . S
N531 H534 0.984 . S
N531 H535 0.985 . S
H532 N527 0.984 . S
H533 N527 0.985 . S
H534 N531 0.984 . S
H535 N531 0.985 . S
H536 N530 0.984 . S
H537 N530 0.987 . S
H538 N526 0.984 . S
H539 N526 0.986 . S
C540 C541 1.363 . S
C540 C546 1.379 . S
C540 N548 1.356 . S
C541 C540 1.363 . S
C541 C547 1.363 . S
C542 C543 1.363 . S
C542 C547 1.379 . S
C542 N549 1.356 1_554 S
C543 C542 1.363 . S
C543 C546 1.363 . S
N544 C546 1.356 . S
N544 H556 0.984 . S
N544 H557 0.985 . S
N545 C547 1.356 1_556 S
N545 H550 0.987 . S
N545 H551 0.985 . S
C546 C540 1.379 . S
C546 C543 1.363 . S
C546 N544 1.356 . S
C547 C541 1.363 . S
C547 C542 1.379 . S
C547 N545 1.356 1_554 S
N548 C540 1.356 . S
N548 H554 0.984 . S
N548 H555 0.984 . S
N549 C542 1.356 1_556 S
N549 H552 0.987 . S
N549 H553 0.985 . S
H550 N545 0.987 . S
H551 N545 0.985 . S
H552 N549 0.987 . S
H553 N549 0.985 . S
H554 N548 0.984 . S
H555 N548 0.984 . S
H556 N544 0.984 . S
H557 N544 0.985 . S
C558 C559 1.363 . S
C558 C564 1.379 . S
C558 N566 1.356 1_556 S
C559 C558 1.363 . S
C559 C565 1.363 . S
C560 C561 1.363 . S
C560 C565 1.379 . S
C560 N567 1.356 . S
C561 C560 1.363 . S
C561 C564 1.363 . S
N562 C564 1.356 1_554 S
N562 H574 0.984 . S
N562 H575 0.987 . S
N563 C565 1.356 . S
N563 H568 0.984 . S
N563 H569 0.985 . S
C564 C558 1.379 . S
C564 C561 1.363 . S
C564 N562 1.356 1_556 S
C565 C559 1.363 . S
C565 C560 1.379 . S
C565 N563 1.356 . S
N566 C558 1.356 1_554 S
N566 H572 0.984 . S
N566 H573 0.986 . S
N567 C560 1.356 . S
N567 H570 0.984 . S
N567 H571 0.985 . S
H568 N563 0.984 . S
H569 N563 0.985 . S
H570 N567 0.984 . S
H571 N567 0.985 . S
H572 N566 0.984 . S
H573 N566 0.986 . S
H574 N562 0.984 . S
H575 N562 0.987 . S
C576 C577 1.363 . S
C576 C582 1.379 . S
C576 N584 1.356 . S
C577 C576 1.363 . S
C577 C583 1.363 . S
C578 C579 1.363 . S
C578 C583 1.379 . S
C578 N585 1.356 1_556 S
C579 C578 1.363 . S
C579 C582 1.363 . S
N580 C582 1.356 . S
N580 H592 0.984 . S
N580 H593 0.985 . S
N581 C583 1.356 1_554 S
N581 H586 0.987 . S
N581 H587 0.985 . S
C582 C576 1.379 . S
C582 C579 1.363 . S
C582 N580 1.356 . S
C583 C577 1.363 . S
C583 C578 1.379 . S
C583 N581 1.356 1_556 S
N584 C576 1.356 . S
N584 H590 0.984 . S
N584 H591 0.984 . S
N585 C578 1.356 1_554 S
N585 H588 0.987 . S
N585 H589 0.985 . S
H586 N581 0.987 . S
H587 N581 0.985 . S
H588 N585 0.987 . S
H589 N585 0.985 . S
H590 N584 0.984 . S
H591 N584 0.984 . S
H592 N580 0.984 . S
H593 N580 0.985 . S
C594 C595 1.363 . S
C594 C600 1.379 . S
C594 N602 1.356 . S
C595 C594 1.363 . S
C595 C601 1.363 . S
C596 C597 1.363 . S
C596 C601 1.379 . S
C596 N603 1.356 . S
C597 C596 1.363 . S
C597 C600 1.363 . S
N598 C600 1.356 . S
N598 H610 0.984 . S
N598 H611 0.985 . S
N599 C601 1.356 . S
N599 H604 0.984 . S
N599 H605 0.985 . S
C600 C594 1.379 . S
C600 C597 1.363 . S
C600 N598 1.356 . S
C601 C595 1.363 . S
C601 C596 1.379 . S
C601 N599 1.356 . S
N602 C594 1.356 . S
N602 H608 0.984 . S
N602 H609 0.984 . S
N603 C596 1.356 . S
N603 H606 0.984 . S
N603 H607 0.985 . S
H604 N599 0.984 . S
H605 N599 0.985 . S
H606 N603 0.984 . S
H607 N603 0.985 . S
H608 N602 0.984 . S
H609 N602 0.984 . S
H610 N598 0.984 . S
H611 N598 0.985 . S
C612 C613 1.363 . S
C612 C618 1.379 . S
C612 N620 1.356 . S
C613 C612 1.363 . S
C613 C619 1.363 . S
C614 C615 1.363 . S
C614 C619 1.379 . S
C614 N621 1.356 . S
C615 C614 1.363 . S
C615 C618 1.363 . S
N616 C618 1.356 . S
N616 H628 0.984 . S
N616 H629 0.985 . S
N617 C619 1.356 . S
N617 H622 0.984 . S
N617 H623 0.985 . S
C618 C612 1.379 . S
C618 C615 1.363 . S
C618 N616 1.356 . S
C619 C613 1.363 . S
C619 C614 1.379 . S
C619 N617 1.356 . S
N620 C612 1.356 . S
N620 H626 0.984 . S
N620 H627 0.984 . S
N621 C614 1.356 . S
N621 H624 0.984 . S
N621 H625 0.985 . S
H622 N617 0.984 . S
H623 N617 0.985 . S
H624 N621 0.984 . S
H625 N621 0.985 . S
H626 N620 0.984 . S
H627 N620 0.984 . S
H628 N616 0.984 . S
H629 N616 0.985 . S
C630 C631 1.363 . S
C630 C636 1.379 . S
C630 N638 1.356 . S
C631 C630 1.363 . S
C631 C637 1.363 . S
C632 C633 1.363 . S
C632 C637 1.379 . S
C632 N639 1.356 . S
C633 C632 1.363 . S
C633 C636 1.363 . S
N634 C636 1.356 . S
N634 H646 0.984 . S
N634 H647 0.985 . S
N635 C637 1.356 . S
N635 H640 0.984 . S
N635 H641 0.985 . S
C636 C630 1.379 . S
C636 C633 1.363 . S
C636 N634 1.356 . S
C637 C631 1.363 . S
C637 C632 1.379 . S
C637 N635 1.356 . S
N638 C630 1.356 . S
N638 H644 0.984 . S
N638 H645 0.984 . S
N639 C632 1.356 . S
N639 H642 0.984 . S
N639 H643 0.985 . S
H640 N635 0.984 . S
H641 N635 0.985 . S
H642 N639 0.984 . S
H643 N639 0.985 . S
H644 N638 0.984 . S
H645 N638 0.984 . S
H646 N634 0.984 . S
H647 N634 0.985 . S
C648 C649 1.363 . S
C648 C654 1.379 . S
C648 N656 1.356 . S
C649 C648 1.363 . S
C649 C655 1.363 . S
C650 C651 1.363 . S
C650 C655 1.379 . S
C650 N657 1.356 . S
C651 C650 1.363 . S
C651 C654 1.363 . S
N652 C654 1.356 . S
N652 H664 0.984 . S
N652 H665 0.985 . S
N653 C655 1.356 . S
N653 H658 0.984 . S
N653 H659 0.985 . S
C654 C648 1.379 . S
C654 C651 1.363 . S
C654 N652 1.356 . S
C655 C649 1.363 . S
C655 C650 1.379 . S
C655 N653 1.356 . S
N656 C648 1.356 . S
N656 H662 0.984 . S
N656 H663 0.984 . S
N657 C650 1.356 . S
N657 H660 0.984 . S
N657 H661 0.985 . S
H658 N653 0.984 . S
H659 N653 0.985 . S
H660 N657 0.984 . S
H661 N657 0.985 . S
H662 N656 0.984 . S
H663 N656 0.984 . S
H664 N652 0.984 . S
H665 N652 0.985 . S
C666 C667 1.363 . S
C666 C672 1.379 . S
C666 N674 1.356 . S
C667 C666 1.363 . S
C667 C673 1.363 . S
C668 C669 1.363 . S
C668 C673 1.379 . S
C668 N675 1.356 . S
C669 C668 1.363 . S
C669 C672 1.363 . S
N670 C672 1.356 . S
N670 H682 0.984 . S
N670 H683 0.985 . S
N671 C673 1.356 . S
N671 H676 0.984 . S
N671 H677 0.985 . S
C672 C666 1.379 . S
C672 C669 1.363 . S
C672 N670 1.356 . S
C673 C667 1.363 . S
C673 C668 1.379 . S
C673 N671 1.356 . S
N674 C666 1.356 . S
N674 H680 0.984 . S
N674 H681 0.984 . S
N675 C668 1.356 . S
N675 H678 0.984 . S
N675 H679 0.985 . S
H676 N671 0.984 . S
H677 N671 0.985 . S
H678 N675 0.984 . S
H679 N675 0.985 . S
H680 N674 0.984 . S
H681 N674 0.984 . S
H682 N670 0.984 . S
H683 N670 0.985 . S
C684 C685 1.363 . S
C684 C690 1.379 . S
C684 N692 1.356 . S
C685 C684 1.363 . S
C685 C691 1.363 . S
C686 C687 1.363 . S
C686 C691 1.379 . S
C686 N693 1.356 . S
C687 C686 1.363 . S
C687 C690 1.363 . S
N688 C690 1.356 . S
N688 H700 0.984 . S
N688 H701 0.985 . S
N689 C691 1.356 . S
N689 H694 0.984 . S
N689 H695 0.985 . S
C690 C684 1.379 . S
C690 C687 1.363 . S
C690 N688 1.356 . S
C691 C685 1.363 . S
C691 C686 1.379 . S
C691 N689 1.356 . S
N692 C684 1.356 . S
N692 H698 0.984 . S
N692 H699 0.984 . S
N693 C686 1.356 . S
N693 H696 0.984 . S
N693 H697 0.985 . S
H694 N689 0.984 . S
H695 N689 0.985 . S
H696 N693 0.984 . S
H697 N693 0.985 . S
H698 N692 0.984 . S
H699 N692 0.984 . S
H700 N688 0.984 . S
H701 N688 0.985 . S
C702 C703 1.363 . S
C702 C708 1.379 . S
C702 N710 1.356 . S
C703 C702 1.363 . S
C703 C709 1.363 . S
C704 C705 1.363 . S
C704 C709 1.379 . S
C704 N711 1.356 . S
C705 C704 1.363 . S
C705 C708 1.363 . S
N706 C708 1.356 . S
N706 H718 0.984 . S
N706 H719 0.985 . S
N707 C709 1.356 . S
N707 H712 0.984 . S
N707 H713 0.985 . S
C708 C702 1.379 . S
C708 C705 1.363 . S
C708 N706 1.356 . S
C709 C703 1.363 . S
C709 C704 1.379 . S
C709 N707 1.356 . S
N710 C702 1.356 . S
N710 H716 0.984 . S
N710 H717 0.984 . S
N711 C704 1.356 . S
N711 H714 0.984 . S
N711 H715 0.985 . S
H712 N707 0.984 . S
H713 N707 0.985 . S
H714 N711 0.984 . S
H715 N711 0.985 . S
H716 N710 0.984 . S
H717 N710 0.984 . S
H718 N706 0.984 . S
H719 N706 0.985 . S
C720 C721 1.363 . S
C720 C726 1.379 . S
C720 N728 1.356 . S
C721 C720 1.363 . S
C721 C727 1.363 . S
C722 C723 1.363 . S
C722 C727 1.379 . S
C722 N729 1.356 . S
C723 C722 1.363 . S
C723 C726 1.363 . S
N724 C726 1.356 . S
N724 H736 0.984 . S
N724 H737 0.985 . S
N725 C727 1.356 . S
N725 H730 0.984 . S
N725 H731 0.985 . S
C726 C720 1.379 . S
C726 C723 1.363 . S
C726 N724 1.356 . S
C727 C721 1.363 . S
C727 C722 1.379 . S
C727 N725 1.356 . S
N728 C720 1.356 . S
N728 H734 0.984 . S
N728 H735 0.984 . S
N729 C722 1.356 . S
N729 H732 0.984 . S
N729 H733 0.985 . S
H730 N725 0.984 . S
H731 N725 0.985 . S
H732 N729 0.984 . S
H733 N729 0.985 . S
H734 N728 0.984 . S
H735 N728 0.984 . S
H736 N724 0.984 . S
H737 N724 0.985 . S
C738 C739 1.363 . S
C738 C744 1.379 . S
C738 N746 1.356 . S
C739 C738 1.363 . S
C739 C745 1.363 . S
C740 C741 1.363 . S
C740 C745 1.379 . S
C740 N747 1.356 . S
C741 C740 1.363 . S
C741 C744 1.363 . S
N742 C744 1.356 . S
N742 H754 0.984 . S
N742 H755 0.985 . S
N743 C745 1.356 . S
N743 H748 0.984 . S
N743 H749 0.985 . S
C744 C738 1.379 . S
C744 C741 1.363 . S
C744 N742 1.356 . S
C745 C739 1.363 . S
C745 C740 1.379 . S
C745 N743 1.356 . S
N746 C738 1.356 . S
N746 H752 0.984 . S
N746 H753 0.984 . S
N747 C740 1.356 . S
N747 H750 0.984 . S
N747 H751 0.985 . S
H748 N743 0.984 . S
H749 N743 0.985 . S
H750 N747 0.984 . S
H751 N747 0.985 . S
H752 N746 0.984 . S
H753 N746 0.984 . S
H754 N742 0.984 . S
H755 N742 0.985 . S
C756 C757 1.363 . S
C756 C762 1.379 . S
C756 N764 1.356 . S
C757 C756 1.363 . S
C757 C763 1.363 . S
C758 C759 1.363 . S
C758 C763 1.379 . S
C758 N765 1.356 . S
C759 C758 1.363 . S
C759 C762 1.363 . S
N760 C762 1.356 . S
N760 H772 0.984 . S
N760 H773 0.985 . S
N761 C763 1.356 . S
N761 H766 0.984 . S
N761 H767 0.985 . S
C762 C756 1.379 . S
C762 C759 1.363 . S
C762 N760 1.356 . S
C763 C757 1.363 . S
C763 C758 1.379 . S
C763 N761 1.356 . S
N764 C756 1.356 . S
N764 H770 0.984 . S
N764 H771 0.984 . S
N765 C758 1.356 . S
N765 H768 0.984 . S
N765 H769 0.985 . S
H766 N761 0.984 . S
H767 N761 0.985 . S
H768 N765 0.984 . S
H769 N765 0.985 . S
H770 N764 0.984 . S
H771 N764 0.984 . S
H772 N760 0.984 . S
H773 N760 0.985 . S
C774 C775 1.363 . S
C774 C780 1.379 . S
C774 N782 1.356 . S
C775 C774 1.363 . S
C775 C781 1.363 . S
C776 C777 1.363 . S
C776 C781 1.379 . S
C776 N783 1.356 . S
C777 C776 1.363 . S
C777 C780 1.363 . S
N778 C780 1.356 . S
N778 H790 0.984 . S
N778 H791 0.985 . S
N779 C781 1.356 . S
N779 H784 0.984 . S
N779 H785 0.985 . S
C780 C774 1.379 . S
C780 C777 1.363 . S
C780 N778 1.356 . S
C781 C775 1.363 . S
C781 C776 1.379 . S
C781 N779 1.356 . S
N782 C774 1.356 . S
N782 H788 0.984 . S
N782 H789 0.984 . S
N783 C776 1.356 . S
N783 H786 0.984 . S
N783 H787 0.985 . S
H784 N779 0.984 . S
H785 N779 0.985 . S
H786 N783 0.984 . S
H787 N783 0.985 . S
H788 N782 0.984 . S
H789 N782 0.984 . S
H790 N778 0.984 . S
H791 N778 0.985 . S
C792 C793 1.363 . S
C792 C798 1.379 . S
C792 N800 1.356 . S
C793 C792 1.363 . S
C793 C799 1.363 . S
C794 C795 1.363 . S
C794 C799 1.379 . S
C794 N801 1.356 . S
C795 C794 1.363 . S
C795 C798 1.363 . S
N796 C798 1.356 . S
N796 H808 0.984 . S
N796 H809 0.985 . S
N797 C799 1.356 . S
N797 H802 0.984 . S
N797 H803 0.985 . S
C798 C792 1.379 . S
C798 C795 1.363 . S
C798 N796 1.356 . S
C799 C793 1.363 . S
C799 C794 1.379 . S
C799 N797 1.356 . S
N800 C792 1.356 . S
N800 H806 0.984 . S
N800 H807 0.984 . S
N801 C794 1.356 . S
N801 H804 0.984 . S
N801 H805 0.985 . S
H802 N797 0.984 . S
H803 N797 0.985 . S
H804 N801 0.984 . S
H805 N801 0.985 . S
H806 N800 0.984 . S
H807 N800 0.984 . S
H808 N796 0.984 . S
H809 N796 0.985 . S
C810 C811 1.363 . S
C810 C816 1.379 . S
C810 N818 1.356 . S
C811 C810 1.363 . S
C811 C817 1.363 . S
C812 C813 1.363 . S
C812 C817 1.379 . S
C812 N819 1.356 . S
C813 C812 1.363 . S
C813 C816 1.363 . S
N814 C816 1.356 . S
N814 H826 0.984 . S
N814 H827 0.985 . S
N815 C817 1.356 . S
N815 H820 0.984 . S
N815 H821 0.985 . S
C816 C810 1.379 . S
C816 C813 1.363 . S
C816 N814 1.356 . S
C817 C811 1.363 . S
C817 C812 1.379 . S
C817 N815 1.356 . S
N818 C810 1.356 . S
N818 H824 0.984 . S
N818 H825 0.984 . S
N819 C812 1.356 . S
N819 H822 0.984 . S
N819 H823 0.985 . S
H820 N815 0.984 . S
H821 N815 0.985 . S
H822 N819 0.984 . S
H823 N819 0.985 . S
H824 N818 0.984 . S
H825 N818 0.984 . S
H826 N814 0.984 . S
H827 N814 0.985 . S
C828 C829 1.363 1_556 S
C828 C834 1.379 1_455 S
C828 N836 1.356 . S
C829 C828 1.363 1_554 S
C829 C835 1.363 . S
C830 C831 1.363 1_554 S
C830 C835 1.379 1_655 S
C830 N837 1.356 . S
C831 C830 1.363 1_556 S
C831 C834 1.363 . S
N832 C834 1.356 . S
N832 H844 0.962 1_655 S
N832 H845 0.985 . S
N833 C835 1.356 . S
N833 H838 0.984 . S
N833 H839 0.962 1_455 S
C834 C828 1.379 1_655 S
C834 C831 1.363 . S
C834 N832 1.356 . S
C835 C829 1.363 . S
C835 C830 1.379 1_455 S
C835 N833 1.356 . S
N836 C828 1.356 . S
N836 H842 0.984 . S
N836 H843 0.984 . S
N837 C830 1.356 . S
N837 H840 0.984 . S
N837 H841 0.985 . S
H838 N833 0.984 . S
H839 N833 0.962 1_655 S
H840 N837 0.984 . S
H841 N837 0.985 . S
H842 N836 0.984 . S
H843 N836 0.984 . S
H844 N832 0.962 1_455 S
H845 N832 0.985 . S
C846 C847 1.363 . S
C846 C852 1.379 . S
C846 N854 1.356 . S
C847 C846 1.363 . S
C847 C853 1.363 1_556 S
C848 C849 1.363 . S
C848 C853 1.379 . S
C848 N855 1.356 . S
C849 C848 1.363 . S
C849 C852 1.363 1_554 S
N850 C852 1.356 . S
N850 H862 0.984 . S
N850 H863 0.985 . S
N851 C853 1.356 . S
N851 H856 0.984 . S
N851 H857 0.985 . S
C852 C846 1.379 . S
C852 C849 1.363 1_556 S
C852 N850 1.356 . S
C853 C847 1.363 1_554 S
C853 C848 1.379 . S
C853 N851 1.356 . S
N854 C846 1.356 . S
N854 H860 0.984 . S
N854 H861 0.984 . S
N855 C848 1.356 . S
N855 H858 0.984 . S
N855 H859 0.985 . S
H856 N851 0.984 . S
H857 N851 0.985 . S
H858 N855 0.984 . S
H859 N855 0.985 . S
H860 N854 0.984 . S
H861 N854 0.984 . S
H862 N850 0.984 . S
H863 N850 0.985 . S
C864 C865 1.363 1_556 S
C864 C870 1.379 1_565 S
C864 N872 1.356 . S
C865 C864 1.363 1_554 S
C865 C871 1.363 . S
C866 C867 1.363 1_554 S
C866 C871 1.379 1_545 S
C866 N873 1.356 . S
C867 C866 1.363 1_556 S
C867 C870 1.363 . S
N868 C870 1.356 . S
N868 H880 0.984 . S
N868 H881 0.985 . S
N869 C871 1.356 . S
N869 H874 0.984 . S
N869 H875 0.985 . S
C870 C864 1.379 1_545 S
C870 C867 1.363 . S
C870 N868 1.356 . S
C871 C865 1.363 . S
C871 C866 1.379 1_565 S
C871 N869 1.356 . S
N872 C864 1.356 . S
N872 H878 0.984 . S
N872 H879 0.984 . S
N873 C866 1.356 . S
N873 H876 0.984 . S
N873 H877 0.985 . S
H874 N869 0.984 . S
H875 N869 0.985 . S
H876 N873 0.984 . S
H877 N873 0.985 . S
H878 N872 0.984 . S
H879 N872 0.984 . S
H880 N868 0.984 . S
H881 N868 0.985 . S
C882 C883 1.363 . S
C882 C888 1.379 1_656 S
C882 N890 1.356 . S
C883 C882 1.363 . S
C883 C889 1.363 . S
C884 C885 1.363 . S
C884 C889 1.379 1_454 S
C884 N891 1.356 . S
C885 C884 1.363 . S
C885 C888 1.363 . S
N886 C888 1.356 . S
N886 H898 0.984 . S
N886 H899 0.985 . S
N887 C889 1.356 . S
N887 H892 0.984 . S
N887 H893 0.985 . S
C888 C882 1.379 1_454 S
C888 C885 1.363 . S
C888 N886 1.356 . S
C889 C883 1.363 . S
C889 C884 1.379 1_656 S
C889 N887 1.356 . S
N890 C882 1.356 . S
N890 H896 0.984 1_556 S
N890 H897 0.984 . S
N891 C884 1.356 . S
N891 H894 0.984 . S
N891 H895 0.985 1_554 S
H892 N887 0.984 . S
H893 N887 0.985 . S
H894 N891 0.984 . S
H895 N891 0.985 1_556 S
H896 N890 0.984 1_554 S
H897 N890 0.984 . S
H898 N886 0.984 . S
H899 N886 0.985 . S
C900 C901 1.363 . S
C900 C906 1.379 . S
C900 N908 1.356 . S
C901 C900 1.363 . S
C901 C907 1.363 1_556 S
C902 C903 1.363 . S
C902 C907 1.379 . S
C902 N909 1.356 . S
C903 C902 1.363 . S
C903 C906 1.363 1_554 S
N904 C906 1.356 . S
N904 H916 0.984 . S
N904 H917 0.985 1_556 S
N905 C907 1.356 . S
N905 H910 0.984 1_554 S
N905 H911 0.985 . S
C906 C900 1.379 . S
C906 C903 1.363 1_556 S
C906 N904 1.356 . S
C907 C901 1.363 1_554 S
C907 C902 1.379 . S
C907 N905 1.356 . S
N908 C900 1.356 . S
N908 H914 0.984 . S
N908 H915 0.984 . S
N909 C902 1.356 . S
N909 H912 0.984 . S
N909 H913 0.985 . S
H910 N905 0.984 1_556 S
H911 N905 0.985 . S
H912 N909 0.984 . S
H913 N909 0.985 . S
H914 N908 0.984 . S
H915 N908 0.984 . S
H916 N904 0.984 . S
H917 N904 0.985 1_554 S
C918 C919 1.363 1_554 S
C918 C924 1.379 1_545 S
C918 N926 1.356 . S
C919 C918 1.363 1_556 S
C919 C925 1.363 . S
C920 C921 1.363 1_556 S
C920 C925 1.379 1_565 S
C920 N927 1.356 . S
C921 C920 1.363 1_554 S
C921 C924 1.363 . S
N922 C924 1.356 . S
N922 H934 0.984 . S
N922 H935 0.985 . S
N923 C925 1.356 . S
N923 H928 0.984 . S
N923 H929 0.985 . S
C924 C918 1.379 1_565 S
C924 C921 1.363 . S
C924 N922 1.356 . S
C925 C919 1.363 . S
C925 C920 1.379 1_545 S
C925 N923 1.356 . S
N926 C918 1.356 . S
N926 H932 0.984 . S
N926 H933 0.984 . S
N927 C920 1.356 . S
N927 H930 0.984 . S
N927 H931 0.985 . S
H928 N923 0.984 . S
H929 N923 0.985 . S
H930 N927 0.984 . S
H931 N927 0.985 . S
H932 N926 0.984 . S
H933 N926 0.984 . S
H934 N922 0.984 . S
H935 N922 0.985 . S
C936 C937 1.363 . S
C936 C942 1.379 . S
C936 N944 1.356 . S
C937 C936 1.363 . S
C937 C943 1.363 . S
C938 C939 1.363 . S
C938 C943 1.379 . S
C938 N945 1.356 . S
C939 C938 1.363 . S
C939 C942 1.363 . S
N940 C942 1.356 . S
N940 H952 0.984 . S
N940 H953 0.985 . S
N941 C943 1.356 . S
N941 H946 0.984 . S
N941 H947 0.985 . S
C942 C936 1.379 . S
C942 C939 1.363 . S
C942 N940 1.356 . S
C943 C937 1.363 . S
C943 C938 1.379 . S
C943 N941 1.356 . S
N944 C936 1.356 . S
N944 H950 0.984 . S
N944 H951 0.984 . S
N945 C938 1.356 . S
N945 H948 0.984 . S
N945 H949 0.985 . S
H946 N941 0.984 . S
H947 N941 0.985 . S
H948 N945 0.984 . S
H949 N945 0.985 . S
H950 N944 0.984 . S
H951 N944 0.984 . S
H952 N940 0.984 . S
H953 N940 0.985 . S
C954 C955 1.363 . S
C954 C960 1.379 . S
C954 N962 1.356 . S
C955 C954 1.363 . S
C955 C961 1.363 . S
C956 C957 1.363 . S
C956 C961 1.379 . S
C956 N963 1.356 . S
C957 C956 1.363 . S
C957 C960 1.363 . S
N958 C960 1.356 . S
N958 H970 0.984 . S
N958 H971 0.985 . S
N959 C961 1.356 . S
N959 H964 0.984 . S
N959 H965 0.985 . S
C960 C954 1.379 . S
C960 C957 1.363 . S
C960 N958 1.356 . S
C961 C955 1.363 . S
C961 C956 1.379 . S
C961 N959 1.356 . S
N962 C954 1.356 . S
N962 H968 0.984 . S
N962 H969 0.984 . S
N963 C956 1.356 . S
N963 H966 0.984 . S
N963 H967 0.985 . S
H964 N959 0.984 . S
H965 N959 0.985 . S
H966 N963 0.984 . S
H967 N963 0.985 . S
H968 N962 0.984 . S
H969 N962 0.984 . S
H970 N958 0.984 . S
H971 N958 0.985 . S
C972 C973 1.363 . S
C972 C978 1.379 . S
C972 N980 1.356 . S
C973 C972 1.363 . S
C973 C979 1.363 . S
C974 C975 1.363 . S
C974 C979 1.379 . S
C974 N981 1.356 . S
C975 C974 1.363 . S
C975 C978 1.363 . S
N976 C978 1.356 . S
N976 H988 0.984 . S
N976 H989 0.985 . S
N977 C979 1.356 . S
N977 H982 0.984 . S
N977 H983 0.985 . S
C978 C972 1.379 . S
C978 C975 1.363 . S
C978 N976 1.356 . S
C979 C973 1.363 . S
C979 C974 1.379 . S
C979 N977 1.356 . S
N980 C972 1.356 . S
N980 H986 0.984 . S
N980 H987 0.984 . S
N981 C974 1.356 . S
N981 H984 0.984 . S
N981 H985 0.985 . S
H982 N977 0.984 . S
H983 N977 0.985 . S
H984 N981 0.984 . S
H985 N981 0.985 . S
H986 N980 0.984 . S
H987 N980 0.984 . S
H988 N976 0.984 . S
H989 N976 0.985 . S
C990 C991 1.363 . S
C990 C996 1.379 . S
C990 N998 1.356 . S
C991 C990 1.363 . S
C991 C997 1.363 . S
C992 C993 1.363 . S
C992 C997 1.379 . S
C992 N999 1.356 . S
C993 C992 1.363 . S
C993 C996 1.363 . S
N994 C996 1.356 . S
N994 H1006 0.984 . S
N994 H1007 0.985 . S
N995 C997 1.356 . S
N995 H1000 0.984 . S
N995 H1001 0.985 . S
C996 C990 1.379 . S
C996 C993 1.363 . S
C996 N994 1.356 . S
C997 C991 1.363 . S
C997 C992 1.379 . S
C997 N995 1.356 . S
N998 C990 1.356 . S
N998 H1004 0.984 . S
N998 H1005 0.984 . S
N999 C992 1.356 . S
N999 H1002 0.984 . S
N999 H1003 0.985 . S
H1000 N995 0.984 . S
H1001 N995 0.985 . S
H1002 N999 0.984 . S
H1003 N999 0.985 . S
H1004 N998 0.984 . S
H1005 N998 0.984 . S
H1006 N994 0.984 . S
H1007 N994 0.985 . S
C1008 C1009 1.363 . S
C1008 C1014 1.379 . S
C1008 N1016 1.356 . S
C1009 C1008 1.363 . S
C1009 C1015 1.363 . S
C1010 C1011 1.363 . S
C1010 C1015 1.379 . S
C1010 N1017 1.356 . S
C1011 C1010 1.363 . S
C1011 C1014 1.363 . S
N1012 C1014 1.356 . S
N1012 H1024 0.984 . S
N1012 H1025 0.985 . S
N1013 C1015 1.356 . S
N1013 H1018 0.984 . S
N1013 H1019 0.985 . S
C1014 C1008 1.379 . S
C1014 C1011 1.363 . S
C1014 N1012 1.356 . S
C1015 C1009 1.363 . S
C1015 C1010 1.379 . S
C1015 N1013 1.356 . S
N1016 C1008 1.356 . S
N1016 H1022 0.984 . S
N1016 H1023 0.984 . S
N1017 C1010 1.356 . S
N1017 H1020 0.984 . S
N1017 H1021 0.985 . S
H1018 N1013 0.984 . S
H1019 N1013 0.985 . S
H1020 N1017 0.984 . S
H1021 N1017 0.985 . S
H1022 N1016 0.984 . S
H1023 N1016 0.984 . S
H1024 N1012 0.984 . S
H1025 N1012 0.985 . S
C1026 C1027 1.363 . S
C1026 C1032 1.379 . S
C1026 N1034 1.356 . S
C1027 C1026 1.363 . S
C1027 C1033 1.363 . S
C1028 C1029 1.363 . S
C1028 C1033 1.379 . S
C1028 N1035 1.356 . S
C1029 C1028 1.363 . S
C1029 C1032 1.363 . S
N1030 C1032 1.356 . S
N1030 H1042 0.984 . S
N1030 H1043 0.985 . S
N1031 C1033 1.356 . S
N1031 H1036 0.984 . S
N1031 H1037 0.985 . S
C1032 C1026 1.379 . S
C1032 C1029 1.363 . S
C1032 N1030 1.356 . S
C1033 C1027 1.363 . S
C1033 C1028 1.379 . S
C1033 N1031 1.356 . S
N1034 C1026 1.356 . S
N1034 H1040 0.984 . S
N1034 H1041 0.984 . S
N1035 C1028 1.356 . S
N1035 H1038 0.984 . S
N1035 H1039 0.985 . S
H1036 N1031 0.984 . S
H1037 N1031 0.985 . S
H1038 N1035 0.984 . S
H1039 N1035 0.985 . S
H1040 N1034 0.984 . S
H1041 N1034 0.984 . S
H1042 N1030 0.984 . S
H1043 N1030 0.985 . S
C1044 C1045 1.363 . S
C1044 C1050 1.379 . S
C1044 N1052 1.356 . S
C1045 C1044 1.363 . S
C1045 C1051 1.363 . S
C1046 C1047 1.363 . S
C1046 C1051 1.379 . S
C1046 N1053 1.356 . S
C1047 C1046 1.363 . S
C1047 C1050 1.363 . S
N1048 C1050 1.356 . S
N1048 H1060 0.984 . S
N1048 H1061 0.985 . S
N1049 C1051 1.356 . S
N1049 H1054 0.984 . S
N1049 H1055 0.985 . S
C1050 C1044 1.379 . S
C1050 C1047 1.363 . S
C1050 N1048 1.356 . S
C1051 C1045 1.363 . S
C1051 C1046 1.379 . S
C1051 N1049 1.356 . S
N1052 C1044 1.356 . S
N1052 H1058 0.984 . S
N1052 H1059 0.984 . S
N1053 C1046 1.356 . S
N1053 H1056 0.984 . S
N1053 H1057 0.985 . S
H1054 N1049 0.984 . S
H1055 N1049 0.985 . S
H1056 N1053 0.984 . S
H1057 N1053 0.985 . S
H1058 N1052 0.984 . S
H1059 N1052 0.984 . S
H1060 N1048 0.984 . S
H1061 N1048 0.985 . S
C1062 C1063 1.363 . S
C1062 C1068 1.379 . S
C1062 N1070 1.356 . S
C1063 C1062 1.363 . S
C1063 C1069 1.363 . S
C1064 C1065 1.363 . S
C1064 C1069 1.379 . S
C1064 N1071 1.356 . S
C1065 C1064 1.363 . S
C1065 C1068 1.363 . S
N1066 C1068 1.356 . S
N1066 H1078 0.984 . S
N1066 H1079 0.985 . S
N1067 C1069 1.356 . S
N1067 H1072 0.984 . S
N1067 H1073 0.985 . S
C1068 C1062 1.379 . S
C1068 C1065 1.363 . S
C1068 N1066 1.356 . S
C1069 C1063 1.363 . S
C1069 C1064 1.379 . S
C1069 N1067 1.356 . S
N1070 C1062 1.356 . S
N1070 H1076 0.984 . S
N1070 H1077 0.984 . S
N1071 C1064 1.356 . S
N1071 H1074 0.984 . S
N1071 H1075 0.985 . S
H1072 N1067 0.984 . S
H1073 N1067 0.985 . S
H1074 N1071 0.984 . S
H1075 N1071 0.985 . S
H1076 N1070 0.984 . S
H1077 N1070 0.984 . S
H1078 N1066 0.984 . S
H1079 N1066 0.985 . S
C1080 C1081 1.363 . S
C1080 C1086 1.379 . S
C1080 N1088 1.356 . S
C1081 C1080 1.363 . S
C1081 C1087 1.363 . S
C1082 C1083 1.363 . S
C1082 C1087 1.379 . S
C1082 N1089 1.356 . S
C1083 C1082 1.363 . S
C1083 C1086 1.363 . S
N1084 C1086 1.356 . S
N1084 H1096 0.984 . S
N1084 H1097 0.985 . S
N1085 C1087 1.356 . S
N1085 H1090 0.984 . S
N1085 H1091 0.985 . S
C1086 C1080 1.379 . S
C1086 C1083 1.363 . S
C1086 N1084 1.356 . S
C1087 C1081 1.363 . S
C1087 C1082 1.379 . S
C1087 N1085 1.356 . S
N1088 C1080 1.356 . S
N1088 H1094 0.984 . S
N1088 H1095 0.984 . S
N1089 C1082 1.356 . S
N1089 H1092 0.984 . S
N1089 H1093 0.985 . S
H1090 N1085 0.984 . S
H1091 N1085 0.985 . S
H1092 N1089 0.984 . S
H1093 N1089 0.985 . S
H1094 N1088 0.984 . S
H1095 N1088 0.984 . S
H1096 N1084 0.984 . S
H1097 N1084 0.985 . S
C1098 C1099 1.363 . S
C1098 C1104 1.379 . S
C1098 N1106 1.356 . S
C1099 C1098 1.363 . S
C1099 C1105 1.363 . S
C1100 C1101 1.363 . S
C1100 C1105 1.379 . S
C1100 N1107 1.356 . S
C1101 C1100 1.363 . S
C1101 C1104 1.363 . S
N1102 C1104 1.356 . S
N1102 H1114 0.984 . S
N1102 H1115 0.985 . S
N1103 C1105 1.356 . S
N1103 H1108 0.984 . S
N1103 H1109 0.985 . S
C1104 C1098 1.379 . S
C1104 C1101 1.363 . S
C1104 N1102 1.356 . S
C1105 C1099 1.363 . S
C1105 C1100 1.379 . S
C1105 N1103 1.356 . S
N1106 C1098 1.356 . S
N1106 H1112 0.984 . S
N1106 H1113 0.984 . S
N1107 C1100 1.356 . S
N1107 H1110 0.984 . S
N1107 H1111 0.985 . S
H1108 N1103 0.984 . S
H1109 N1103 0.985 . S
H1110 N1107 0.984 . S
H1111 N1107 0.985 . S
H1112 N1106 0.984 . S
H1113 N1106 0.984 . S
H1114 N1102 0.984 . S
H1115 N1102 0.985 . S
C1116 C1117 1.363 . S
C1116 C1122 1.379 . S
C1116 N1124 1.356 . S
C1117 C1116 1.363 . S
C1117 C1123 1.363 . S
C1118 C1119 1.363 . S
C1118 C1123 1.379 . S
C1118 N1125 1.356 . S
C1119 C1118 1.363 . S
C1119 C1122 1.363 . S
N1120 C1122 1.356 . S
N1120 H1132 0.984 . S
N1120 H1133 0.985 . S
N1121 C1123 1.356 . S
N1121 H1126 0.984 . S
N1121 H1127 0.985 . S
C1122 C1116 1.379 . S
C1122 C1119 1.363 . S
C1122 N1120 1.356 . S
C1123 C1117 1.363 . S
C1123 C1118 1.379 . S
C1123 N1121 1.356 . S
N1124 C1116 1.356 . S
N1124 H1130 0.984 . S
N1124 H1131 0.984 . S
N1125 C1118 1.356 . S
N1125 H1128 0.984 . S
N1125 H1129 0.985 . S
H1126 N1121 0.984 . S
H1127 N1121 0.985 . S
H1128 N1125 0.984 . S
H1129 N1125 0.985 . S
H1130 N1124 0.984 . S
H1131 N1124 0.984 . S
H1132 N1120 0.984 . S
H1133 N1120 0.985 . S
C1134 C1135 1.363 . S
C1134 C1140 1.379 . S
C1134 N1142 1.356 . S
C1135 C1134 1.363 . S
C1135 C1141 1.363 . S
C1136 C1137 1.363 . S
C1136 C1141 1.379 . S
C1136 N1143 1.356 . S
C1137 C1136 1.363 . S
C1137 C1140 1.363 . S
N1138 C1140 1.356 . S
N1138 H1150 0.984 . S
N1138 H1151 0.985 . S
N1139 C1141 1.356 . S
N1139 H1144 0.984 . S
N1139 H1145 0.985 . S
C1140 C1134 1.379 . S
C1140 C1137 1.363 . S
C1140 N1138 1.356 . S
C1141 C1135 1.363 . S
C1141 C1136 1.379 . S
C1141 N1139 1.356 . S
N1142 C1134 1.356 . S
N1142 H1148 0.984 . S
N1142 H1149 0.984 . S
N1143 C1136 1.356 . S
N1143 H1146 0.984 . S
N1143 H1147 0.985 . S
H1144 N1139 0.984 . S
H1145 N1139 0.985 . S
H1146 N1143 0.984 . S
H1147 N1143 0.985 . S
H1148 N1142 0.984 . S
H1149 N1142 0.984 . S
H1150 N1138 0.984 . S
H1151 N1138 0.985 . S
C1152 C1153 1.363 . S
C1152 C1158 1.379 . S
C1152 N1160 1.356 . S
C1153 C1152 1.363 . S
C1153 C1159 1.363 . S
C1154 C1155 1.363 . S
C1154 C1159 1.379 . S
C1154 N1161 1.356 . S
C1155 C1154 1.363 . S
C1155 C1158 1.363 . S
N1156 C1158 1.356 . S
N1156 H1168 0.984 . S
N1156 H1169 0.985 . S
N1157 C1159 1.356 . S
N1157 H1162 0.984 . S
N1157 H1163 0.985 . S
C1158 C1152 1.379 . S
C1158 C1155 1.363 . S
C1158 N1156 1.356 . S
C1159 C1153 1.363 . S
C1159 C1154 1.379 . S
C1159 N1157 1.356 . S
N1160 C1152 1.356 . S
N1160 H1166 0.984 . S
N1160 H1167 0.984 . S
N1161 C1154 1.356 . S
N1161 H1164 0.984 . S
N1161 H1165 0.985 . S
H1162 N1157 0.984 . S
H1163 N1157 0.985 . S
H1164 N1161 0.984 . S
H1165 N1161 0.985 . S
H1166 N1160 0.984 . S
H1167 N1160 0.984 . S
H1168 N1156 0.984 . S
H1169 N1156 0.985 . S
C1170 C1171 1.363 . S
C1170 C1176 1.379 . S
C1170 N1178 1.356 . S
C1171 C1170 1.363 . S
C1171 C1177 1.363 . S
C1172 C1173 1.363 . S
C1172 C1177 1.379 . S
C1172 N1179 1.356 . S
C1173 C1172 1.363 . S
C1173 C1176 1.363 . S
N1174 C1176 1.356 . S
N1174 H1186 0.984 . S
N1174 H1187 0.985 . S
N1175 C1177 1.356 . S
N1175 H1180 0.984 . S
N1175 H1181 0.985 . S
C1176 C1170 1.379 . S
C1176 C1173 1.363 . S
C1176 N1174 1.356 . S
C1177 C1171 1.363 . S
C1177 C1172 1.379 . S
C1177 N1175 1.356 . S
N1178 C1170 1.356 . S
N1178 H1184 0.984 . S
N1178 H1185 0.984 . S
N1179 C1172 1.356 . S
N1179 H1182 0.984 . S
N1179 H1183 0.985 . S
H1180 N1175 0.984 . S
H1181 N1175 0.985 . S
H1182 N1179 0.984 . S
H1183 N1179 0.985 . S
H1184 N1178 0.984 . S
H1185 N1178 0.984 . S
H1186 N1174 0.984 . S
H1187 N1174 0.985 . S
C1188 C1189 1.363 . S
C1188 C1194 1.379 . S
C1188 N1196 1.356 . S
C1189 C1188 1.363 . S
C1189 C1195 1.363 . S
C1190 C1191 1.363 . S
C1190 C1195 1.379 . S
C1190 N1197 1.356 . S
C1191 C1190 1.363 . S
C1191 C1194 1.363 . S
N1192 C1194 1.356 . S
N1192 H1204 0.984 . S
N1192 H1205 0.985 . S
N1193 C1195 1.356 . S
N1193 H1198 0.984 . S
N1193 H1199 0.985 . S
C1194 C1188 1.379 . S
C1194 C1191 1.363 . S
C1194 N1192 1.356 . S
C1195 C1189 1.363 . S
C1195 C1190 1.379 . S
C1195 N1193 1.356 . S
N1196 C1188 1.356 . S
N1196 H1202 0.984 . S
N1196 H1203 0.984 . S
N1197 C1190 1.356 . S
N1197 H1200 0.984 . S
N1197 H1201 0.985 . S
H1198 N1193 0.984 . S
H1199 N1193 0.985 . S
H1200 N1197 0.984 . S
H1201 N1197 0.985 . S
H1202 N1196 0.984 . S
H1203 N1196 0.984 . S
H1204 N1192 0.984 . S
H1205 N1192 0.985 . S
C1206 C1207 1.363 . S
C1206 C1212 1.379 . S
C1206 N1214 1.356 . S
C1207 C1206 1.363 . S
C1207 C1213 1.363 . S
C1208 C1209 1.363 . S
C1208 C1213 1.379 . S
C1208 N1215 1.356 . S
C1209 C1208 1.363 . S
C1209 C1212 1.363 . S
N1210 C1212 1.356 . S
N1210 H1222 0.984 . S
N1210 H1223 0.985 . S
N1211 C1213 1.356 . S
N1211 H1216 0.984 . S
N1211 H1217 0.985 . S
C1212 C1206 1.379 . S
C1212 C1209 1.363 . S
C1212 N1210 1.356 . S
C1213 C1207 1.363 . S
C1213 C1208 1.379 . S
C1213 N1211 1.356 . S
N1214 C1206 1.356 . S
N1214 H1220 0.984 . S
N1214 H1221 0.984 . S
N1215 C1208 1.356 . S
N1215 H1218 0.984 . S
N1215 H1219 0.985 . S
H1216 N1211 0.984 . S
H1217 N1211 0.985 . S
H1218 N1215 0.984 . S
H1219 N1215 0.985 . S
H1220 N1214 0.984 . S
H1221 N1214 0.984 . S
H1222 N1210 0.984 . S
H1223 N1210 0.985 . S
C1224 C1225 1.363 . S
C1224 C1230 1.379 . S
C1224 N1232 1.356 . S
C1225 C1224 1.363 . S
C1225 C1231 1.363 . S
C1226 C1227 1.363 . S
C1226 C1231 1.379 . S
C1226 N1233 1.356 . S
C1227 C1226 1.363 . S
C1227 C1230 1.363 . S
N1228 C1230 1.356 . S
N1228 H1240 0.984 . S
N1228 H1241 0.985 . S
N1229 C1231 1.356 . S
N1229 H1234 0.984 . S
N1229 H1235 0.985 . S
C1230 C1224 1.379 . S
C1230 C1227 1.363 . S
C1230 N1228 1.356 . S
C1231 C1225 1.363 . S
C1231 C1226 1.379 . S
C1231 N1229 1.356 . S
N1232 C1224 1.356 . S
N1232 H1238 0.984 . S
N1232 H1239 0.984 . S
N1233 C1226 1.356 . S
N1233 H1236 0.984 . S
N1233 H1237 0.985 . S
H1234 N1229 0.984 . S
H1235 N1229 0.985 . S
H1236 N1233 0.984 . S
H1237 N1233 0.985 . S
H1238 N1232 0.984 . S
H1239 N1232 0.984 . S
H1240 N1228 0.984 . S
H1241 N1228 0.985 . S
C1242 C1243 1.363 . S
C1242 C1248 1.379 . S
C1242 N1250 1.356 . S
C1243 C1242 1.363 . S
C1243 C1249 1.363 . S
C1244 C1245 1.363 . S
C1244 C1249 1.379 . S
C1244 N1251 1.356 . S
C1245 C1244 1.363 . S
C1245 C1248 1.363 . S
N1246 C1248 1.356 . S
N1246 H1258 0.984 . S
N1246 H1259 0.985 . S
N1247 C1249 1.356 . S
N1247 H1252 0.984 . S
N1247 H1253 0.985 . S
C1248 C1242 1.379 . S
C1248 C1245 1.363 . S
C1248 N1246 1.356 . S
C1249 C1243 1.363 . S
C1249 C1244 1.379 . S
C1249 N1247 1.356 . S
N1250 C1242 1.356 . S
N1250 H1256 0.984 . S
N1250 H1257 0.984 . S
N1251 C1244 1.356 . S
N1251 H1254 0.984 . S
N1251 H1255 0.985 . S
H1252 N1247 0.984 . S
H1253 N1247 0.985 . S
H1254 N1251 0.984 . S
H1255 N1251 0.985 . S
H1256 N1250 0.984 . S
H1257 N1250 0.984 . S
H1258 N1246 0.984 . S
H1259 N1246 0.985 . S
C1260 C1261 1.363 . S
C1260 C1266 1.379 . S
C1260 N1268 1.356 . S
C1261 C1260 1.363 . S
C1261 C1267 1.363 . S
C1262 C1263 1.363 . S
C1262 C1267 1.379 . S
C1262 N1269 1.356 . S
C1263 C1262 1.363 . S
C1263 C1266 1.363 . S
N1264 C1266 1.356 . S
N1264 H1276 0.984 . S
N1264 H1277 0.985 . S
N1265 C1267 1.356 . S
N1265 H1270 0.984 . S
N1265 H1271 0.985 . S
C1266 C1260 1.379 . S
C1266 C1263 1.363 . S
C1266 N1264 1.356 . S
C1267 C1261 1.363 . S
C1267 C1262 1.379 . S
C1267 N1265 1.356 . S
N1268 C1260 1.356 . S
N1268 H1274 0.984 . S
N1268 H1275 0.984 . S
N1269 C1262 1.356 . S
N1269 H1272 0.984 . S
N1269 H1273 0.985 . S
H1270 N1265 0.984 . S
H1271 N1265 0.985 . S
H1272 N1269 0.984 . S
H1273 N1269 0.985 . S
H1274 N1268 0.984 . S
H1275 N1268 0.984 . S
H1276 N1264 0.984 . S
H1277 N1264 0.985 . S
C1278 C1279 1.363 . S
C1278 C1284 1.379 . S
C1278 N1286 1.356 . S
C1279 C1278 1.363 . S
C1279 C1285 1.363 . S
C1280 C1281 1.363 . S
C1280 C1285 1.379 . S
C1280 N1287 1.356 . S
C1281 C1280 1.363 . S
C1281 C1284 1.363 . S
N1282 C1284 1.356 . S
N1282 H1294 0.984 . S
N1282 H1295 0.985 . S
N1283 C1285 1.356 . S
N1283 H1288 0.984 . S
N1283 H1289 0.985 . S
C1284 C1278 1.379 . S
C1284 C1281 1.363 . S
C1284 N1282 1.356 . S
C1285 C1279 1.363 . S
C1285 C1280 1.379 . S
C1285 N1283 1.356 . S
N1286 C1278 1.356 . S
N1286 H1292 0.984 . S
N1286 H1293 0.984 . S
N1287 C1280 1.356 . S
N1287 H1290 0.984 . S
N1287 H1291 0.985 . S
H1288 N1283 0.984 . S
H1289 N1283 0.985 . S
H1290 N1287 0.984 . S
H1291 N1287 0.985 . S
H1292 N1286 0.984 . S
H1293 N1286 0.984 . S
H1294 N1282 0.984 . S
H1295 N1282 0.985 . S
C1296 C1297 1.363 . S
C1296 C1302 1.379 . S
C1296 N1304 1.356 . S
C1297 C1296 1.363 . S
C1297 C1303 1.363 . S
C1298 C1299 1.363 . S
C1298 C1303 1.379 . S
C1298 N1305 1.356 . S
C1299 C1298 1.363 . S
C1299 C1302 1.363 . S
N1300 C1302 1.356 . S
N1300 H1312 0.984 . S
N1300 H1313 0.985 . S
N1301 C1303 1.356 . S
N1301 H1306 0.984 . S
N1301 H1307 0.985 . S
C1302 C1296 1.379 . S
C1302 C1299 1.363 . S
C1302 N1300 1.356 . S
C1303 C1297 1.363 . S
C1303 C1298 1.379 . S
C1303 N1301 1.356 . S
N1304 C1296 1.356 . S
N1304 H1310 0.984 . S
N1304 H1311 0.984 . S
N1305 C1298 1.356 . S
N1305 H1308 0.984 . S
N1305 H1309 0.985 . S
H1306 N1301 0.984 . S
H1307 N1301 0.985 . S
H1308 N1305 0.984 . S
H1309 N1305 0.985 . S
H1310 N1304 0.984 . S
H1311 N1304 0.984 . S
H1312 N1300 0.984 . S
H1313 N1300 0.985 . S
C1314 C1315 1.363 . S
C1314 C1320 1.379 . S
C1314 N1322 1.356 . S
C1315 C1314 1.363 . S
C1315 C1321 1.363 . S
C1316 C1317 1.363 . S
C1316 C1321 1.379 . S
C1316 N1323 1.356 . S
C1317 C1316 1.363 . S
C1317 C1320 1.363 . S
N1318 C1320 1.356 . S
N1318 H1330 0.984 . S
N1318 H1331 0.985 . S
N1319 C1321 1.356 . S
N1319 H1324 0.984 . S
N1319 H1325 0.985 . S
C1320 C1314 1.379 . S
C1320 C1317 1.363 . S
C1320 N1318 1.356 . S
C1321 C1315 1.363 . S
C1321 C1316 1.379 . S
C1321 N1319 1.356 . S
N1322 C1314 1.356 . S
N1322 H1328 0.984 . S
N1322 H1329 0.984 . S
N1323 C1316 1.356 . S
N1323 H1326 0.984 . S
N1323 H1327 0.985 . S
H1324 N1319 0.984 . S
H1325 N1319 0.985 . S
H1326 N1323 0.984 . S
H1327 N1323 0.985 . S
H1328 N1322 0.984 . S
H1329 N1322 0.984 . S
H1330 N1318 0.984 . S
H1331 N1318 0.985 . S
C1332 C1333 1.363 . S
C1332 C1338 1.379 . S
C1332 N1340 1.356 . S
C1333 C1332 1.363 . S
C1333 C1339 1.363 . S
C1334 C1335 1.363 . S
C1334 C1339 1.379 . S
C1334 N1341 1.356 . S
C1335 C1334 1.363 . S
C1335 C1338 1.363 . S
N1336 C1338 1.356 . S
N1336 H1348 0.984 . S
N1336 H1349 0.985 . S
N1337 C1339 1.356 . S
N1337 H1342 0.984 . S
N1337 H1343 0.985 . S
C1338 C1332 1.379 . S
C1338 C1335 1.363 . S
C1338 N1336 1.356 . S
C1339 C1333 1.363 . S
C1339 C1334 1.379 . S
C1339 N1337 1.356 . S
N1340 C1332 1.356 . S
N1340 H1346 0.984 . S
N1340 H1347 0.984 . S
N1341 C1334 1.356 . S
N1341 H1344 0.984 . S
N1341 H1345 0.985 . S
H1342 N1337 0.984 . S
H1343 N1337 0.985 . S
H1344 N1341 0.984 . S
H1345 N1341 0.985 . S
H1346 N1340 0.984 . S
H1347 N1340 0.984 . S
H1348 N1336 0.984 . S
H1349 N1336 0.985 . S
C1350 C1351 1.363 . S
C1350 C1356 1.379 . S
C1350 N1358 1.356 . S
C1351 C1350 1.363 . S
C1351 C1357 1.363 . S
C1352 C1353 1.363 . S
C1352 C1357 1.379 . S
C1352 N1359 1.356 . S
C1353 C1352 1.363 . S
C1353 C1356 1.363 . S
N1354 C1356 1.356 . S
N1354 H1366 0.984 . S
N1354 H1367 0.985 . S
N1355 C1357 1.356 . S
N1355 H1360 0.984 . S
N1355 H1361 0.985 . S
C1356 C1350 1.379 . S
C1356 C1353 1.363 . S
C1356 N1354 1.356 . S
C1357 C1351 1.363 . S
C1357 C1352 1.379 . S
C1357 N1355 1.356 . S
N1358 C1350 1.356 . S
N1358 H1364 0.984 . S
N1358 H1365 0.984 . S
N1359 C1352 1.356 . S
N1359 H1362 0.984 . S
N1359 H1363 0.985 . S
H1360 N1355 0.984 . S
H1361 N1355 0.985 . S
H1362 N1359 0.984 . S
H1363 N1359 0.985 . S
H1364 N1358 0.984 . S
H1365 N1358 0.984 . S
H1366 N1354 0.984 . S
H1367 N1354 0.985 . S
C1368 C1369 1.363 . S
C1368 C1374 1.379 1_455 S
C1368 N1376 1.356 . S
C1369 C1368 1.363 . S
C1369 C1375 1.363 . S
C1370 C1371 1.363 . S
C1370 C1375 1.379 1_655 S
C1370 N1377 1.356 . S
C1371 C1370 1.363 . S
C1371 C1374 1.363 . S
N1372 C1374 1.356 . S
N1372 H1384 0.984 . S
N1372 H1385 0.985 . S
N1373 C1375 1.356 . S
N1373 H1378 0.984 . S
N1373 H1379 0.985 . S
C1374 C1368 1.379 1_655 S
C1374 C1371 1.363 . S
C1374 N1372 1.356 . S
C1375 C1369 1.363 . S
C1375 C1370 1.379 1_455 S
C1375 N1373 1.356 . S
N1376 C1368 1.356 . S
N1376 H1382 0.984 . S
N1376 H1383 0.984 . S
N1377 C1370 1.356 . S
N1377 H1380 0.984 . S
N1377 H1381 0.985 . S
H1378 N1373 0.984 . S
H1379 N1373 0.985 . S
H1380 N1377 0.984 . S
H1381 N1377 0.985 . S
H1382 N1376 0.984 . S
H1383 N1376 0.984 . S
H1384 N1372 0.984 . S
H1385 N1372 0.985 . S
C1386 C1387 1.363 . S
C1386 C1392 1.379 . S
C1386 N1394 1.356 . S
C1387 C1386 1.363 . S
C1387 C1393 1.363 . S
C1388 C1389 1.363 . S
C1388 C1393 1.379 . S
C1388 N1395 1.356 . S
C1389 C1388 1.363 . S
C1389 C1392 1.363 . S
N1390 C1392 1.356 . S
N1390 H1402 0.984 . S
N1390 H1403 0.985 . S
N1391 C1393 1.356 . S
N1391 H1396 0.984 . S
N1391 H1397 0.985 . S
C1392 C1386 1.379 . S
C1392 C1389 1.363 . S
C1392 N1390 1.356 . S
C1393 C1387 1.363 . S
C1393 C1388 1.379 . S
C1393 N1391 1.356 . S
N1394 C1386 1.356 . S
N1394 H1400 0.984 . S
N1394 H1401 0.984 . S
N1395 C1388 1.356 . S
N1395 H1398 0.984 . S
N1395 H1399 0.985 . S
H1396 N1391 0.984 . S
H1397 N1391 0.985 . S
H1398 N1395 0.984 . S
H1399 N1395 0.985 . S
H1400 N1394 0.984 . S
H1401 N1394 0.984 . S
H1402 N1390 0.984 . S
H1403 N1390 0.985 . S
C1404 C1405 1.363 1_545 S
C1404 C1410 1.379 . S
C1404 N1412 1.356 . S
C1405 C1404 1.363 1_565 S
C1405 C1411 1.363 . S
C1406 C1407 1.363 1_565 S
C1406 C1411 1.379 . S
C1406 N1413 1.356 . S
C1407 C1406 1.363 1_545 S
C1407 C1410 1.363 . S
N1408 C1410 1.356 . S
N1408 H1420 0.984 . S
N1408 H1421 0.985 . S
N1409 C1411 1.356 . S
N1409 H1414 0.984 . S
N1409 H1415 0.985 . S
C1410 C1404 1.379 . S
C1410 C1407 1.363 . S
C1410 N1408 1.356 . S
C1411 C1405 1.363 . S
C1411 C1406 1.379 . S
C1411 N1409 1.356 . S
N1412 C1404 1.356 . S
N1412 H1418 0.984 . S
N1412 H1419 0.943 1_545 S
N1413 C1406 1.356 . S
N1413 H1416 0.943 1_565 S
N1413 H1417 0.985 . S
H1414 N1409 0.984 . S
H1415 N1409 0.985 . S
H1416 N1413 0.943 1_545 S
H1417 N1413 0.985 . S
H1418 N1412 0.984 . S
H1419 N1412 0.943 1_565 S
H1420 N1408 0.984 . S
H1421 N1408 0.985 . S
C1422 C1423 1.363 1_545 S
C1422 C1428 1.379 . S
C1422 N1430 1.356 . S
C1423 C1422 1.363 1_565 S
C1423 C1429 1.363 . S
C1424 C1425 1.363 1_565 S
C1424 C1429 1.379 . S
C1424 N1431 1.356 . S
C1425 C1424 1.363 1_545 S
C1425 C1428 1.363 . S
N1426 C1428 1.356 . S
N1426 H1438 0.984 . S
N1426 H1439 0.985 . S
N1427 C1429 1.356 . S
N1427 H1432 0.984 . S
N1427 H1433 0.985 . S
C1428 C1422 1.379 . S
C1428 C1425 1.363 . S
C1428 N1426 1.356 . S
C1429 C1423 1.363 . S
C1429 C1424 1.379 . S
C1429 N1427 1.356 . S
N1430 C1422 1.356 . S
N1430 H1436 0.984 . S
N1430 H1437 0.942 1_545 S
N1431 C1424 1.356 . S
N1431 H1434 0.942 1_565 S
N1431 H1435 0.985 . S
H1432 N1427 0.984 . S
H1433 N1427 0.985 . S
H1434 N1431 0.942 1_545 S
H1435 N1431 0.985 . S
H1436 N1430 0.984 . S
H1437 N1430 0.942 1_565 S
H1438 N1426 0.984 . S
H1439 N1426 0.985 . S
C1440 C1441 1.363 1_455 S
C1440 C1446 1.379 . S
C1440 N1448 1.356 . S
C1441 C1440 1.363 1_655 S
C1441 C1447 1.363 . S
C1442 C1443 1.363 1_655 S
C1442 C1447 1.379 . S
C1442 N1449 1.356 . S
C1443 C1442 1.363 1_455 S
C1443 C1446 1.363 . S
N1444 C1446 1.356 . S
N1444 H1456 0.984 . S
N1444 H1457 0.985 . S
N1445 C1447 1.356 . S
N1445 H1450 0.984 . S
N1445 H1451 0.985 . S
C1446 C1440 1.379 . S
C1446 C1443 1.363 . S
C1446 N1444 1.356 . S
C1447 C1441 1.363 . S
C1447 C1442 1.379 . S
C1447 N1445 1.356 . S
N1448 C1440 1.356 . S
N1448 H1454 0.984 . S
N1448 H1455 0.984 . S
N1449 C1442 1.356 . S
N1449 H1452 0.984 . S
N1449 H1453 0.985 . S
H1450 N1445 0.984 . S
H1451 N1445 0.985 . S
H1452 N1449 0.984 . S
H1453 N1449 0.985 . S
H1454 N1448 0.984 . S
H1455 N1448 0.984 . S
H1456 N1444 0.984 . S
H1457 N1444 0.985 . S
C1458 C1459 1.363 . S
C1458 C1464 1.379 . S
C1458 N1466 1.356 . S
C1459 C1458 1.363 . S
C1459 C1465 1.363 . S
C1460 C1461 1.363 . S
C1460 C1465 1.379 . S
C1460 N1467 1.356 . S
C1461 C1460 1.363 . S
C1461 C1464 1.363 . S
N1462 C1464 1.356 . S
N1462 H1474 0.984 . S
N1462 H1475 0.985 . S
N1463 C1465 1.356 . S
N1463 H1468 0.984 . S
N1463 H1469 0.985 . S
C1464 C1458 1.379 . S
C1464 C1461 1.363 . S
C1464 N1462 1.356 . S
C1465 C1459 1.363 . S
C1465 C1460 1.379 . S
C1465 N1463 1.356 . S
N1466 C1458 1.356 . S
N1466 H1472 0.984 . S
N1466 H1473 0.984 . S
N1467 C1460 1.356 . S
N1467 H1470 0.984 . S
N1467 H1471 0.985 . S
H1468 N1463 0.984 . S
H1469 N1463 0.985 . S
H1470 N1467 0.984 . S
H1471 N1467 0.985 . S
H1472 N1466 0.984 . S
H1473 N1466 0.984 . S
H1474 N1462 0.984 . S
H1475 N1462 0.985 . S
C1476 C1477 1.363 . S
C1476 C1482 1.379 . S
C1476 N1484 1.356 . S
C1477 C1476 1.363 . S
C1477 C1483 1.363 . S
C1478 C1479 1.363 . S
C1478 C1483 1.379 . S
C1478 N1485 1.356 . S
C1479 C1478 1.363 . S
C1479 C1482 1.363 . S
N1480 C1482 1.356 . S
N1480 H1492 0.984 . S
N1480 H1493 0.985 . S
N1481 C1483 1.356 . S
N1481 H1486 0.984 . S
N1481 H1487 0.985 . S
C1482 C1476 1.379 . S
C1482 C1479 1.363 . S
C1482 N1480 1.356 . S
C1483 C1477 1.363 . S
C1483 C1478 1.379 . S
C1483 N1481 1.356 . S
N1484 C1476 1.356 . S
N1484 H1490 0.984 . S
N1484 H1491 0.984 . S
N1485 C1478 1.356 . S
N1485 H1488 0.984 . S
N1485 H1489 0.985 . S
H1486 N1481 0.984 . S
H1487 N1481 0.985 . S
H1488 N1485 0.984 . S
H1489 N1485 0.985 . S
H1490 N1484 0.984 . S
H1491 N1484 0.984 . S
H1492 N1480 0.984 . S
H1493 N1480 0.985 . S
C1494 C1495 1.363 . S
C1494 C1500 1.379 . S
C1494 N1502 1.356 . S
C1495 C1494 1.363 . S
C1495 C1501 1.363 . S
C1496 C1497 1.363 . S
C1496 C1501 1.379 . S
C1496 N1503 1.356 . S
C1497 C1496 1.363 . S
C1497 C1500 1.363 . S
N1498 C1500 1.356 . S
N1498 H1510 0.984 . S
N1498 H1511 0.985 . S
N1499 C1501 1.356 . S
N1499 H1504 0.984 . S
N1499 H1505 0.985 . S
C1500 C1494 1.379 . S
C1500 C1497 1.363 . S
C1500 N1498 1.356 . S
C1501 C1495 1.363 . S
C1501 C1496 1.379 . S
C1501 N1499 1.356 . S
N1502 C1494 1.356 . S
N1502 H1508 0.984 . S
N1502 H1509 0.984 . S
N1503 C1496 1.356 . S
N1503 H1506 0.984 . S
N1503 H1507 0.985 . S
H1504 N1499 0.984 . S
H1505 N1499 0.985 . S
H1506 N1503 0.984 . S
H1507 N1503 0.985 . S
H1508 N1502 0.984 . S
H1509 N1502 0.984 . S
H1510 N1498 0.984 . S
H1511 N1498 0.985 . S
C1512 C1513 1.363 . S
C1512 C1518 1.379 . S
C1512 N1520 1.356 . S
C1513 C1512 1.363 . S
C1513 C1519 1.363 . S
C1514 C1515 1.363 . S
C1514 C1519 1.379 . S
C1514 N1521 1.356 . S
C1515 C1514 1.363 . S
C1515 C1518 1.363 . S
N1516 C1518 1.356 . S
N1516 H1528 0.984 . S
N1516 H1529 0.985 . S
N1517 C1519 1.356 . S
N1517 H1522 0.984 . S
N1517 H1523 0.985 . S
C1518 C1512 1.379 . S
C1518 C1515 1.363 . S
C1518 N1516 1.356 . S
C1519 C1513 1.363 . S
C1519 C1514 1.379 . S
C1519 N1517 1.356 . S
N1520 C1512 1.356 . S
N1520 H1526 0.984 . S
N1520 H1527 0.984 . S
N1521 C1514 1.356 . S
N1521 H1524 0.984 . S
N1521 H1525 0.985 . S
H1522 N1517 0.984 . S
H1523 N1517 0.985 . S
H1524 N1521 0.984 . S
H1525 N1521 0.985 . S
H1526 N1520 0.984 . S
H1527 N1520 0.984 . S
H1528 N1516 0.984 . S
H1529 N1516 0.985 . S
C1530 C1531 1.363 . S
C1530 C1536 1.379 . S
C1530 N1538 1.356 . S
C1531 C1530 1.363 . S
C1531 C1537 1.363 . S
C1532 C1533 1.363 . S
C1532 C1537 1.379 . S
C1532 N1539 1.356 . S
C1533 C1532 1.363 . S
C1533 C1536 1.363 . S
N1534 C1536 1.356 . S
N1534 H1546 0.984 . S
N1534 H1547 0.985 . S
N1535 C1537 1.356 . S
N1535 H1540 0.984 . S
N1535 H1541 0.985 . S
C1536 C1530 1.379 . S
C1536 C1533 1.363 . S
C1536 N1534 1.356 . S
C1537 C1531 1.363 . S
C1537 C1532 1.379 . S
C1537 N1535 1.356 . S
N1538 C1530 1.356 . S
N1538 H1544 0.984 . S
N1538 H1545 0.984 . S
N1539 C1532 1.356 . S
N1539 H1542 0.984 . S
N1539 H1543 0.985 . S
H1540 N1535 0.984 . S
H1541 N1535 0.985 . S
H1542 N1539 0.984 . S
H1543 N1539 0.985 . S
H1544 N1538 0.984 . S
H1545 N1538 0.984 . S
H1546 N1534 0.984 . S
H1547 N1534 0.985 . S
C1548 C1549 1.363 . S
C1548 C1554 1.379 . S
C1548 N1556 1.356 . S
C1549 C1548 1.363 . S
C1549 C1555 1.363 . S
C1550 C1551 1.363 . S
C1550 C1555 1.379 . S
C1550 N1557 1.356 . S
C1551 C1550 1.363 . S
C1551 C1554 1.363 . S
N1552 C1554 1.356 . S
N1552 H1564 0.984 . S
N1552 H1565 0.985 . S
N1553 C1555 1.356 . S
N1553 H1558 0.984 . S
N1553 H1559 0.985 . S
C1554 C1548 1.379 . S
C1554 C1551 1.363 . S
C1554 N1552 1.356 . S
C1555 C1549 1.363 . S
C1555 C1550 1.379 . S
C1555 N1553 1.356 . S
N1556 C1548 1.356 . S
N1556 H1562 0.984 . S
N1556 H1563 0.984 . S
N1557 C1550 1.356 . S
N1557 H1560 0.984 . S
N1557 H1561 0.985 . S
H1558 N1553 0.984 . S
H1559 N1553 0.985 . S
H1560 N1557 0.984 . S
H1561 N1557 0.985 . S
H1562 N1556 0.984 . S
H1563 N1556 0.984 . S
H1564 N1552 0.984 . S
H1565 N1552 0.985 . S
C1566 C1567 1.363 . S
C1566 C1572 1.379 . S
C1566 N1574 1.356 . S
C1567 C1566 1.363 . S
C1567 C1573 1.363 . S
C1568 C1569 1.363 . S
C1568 C1573 1.379 . S
C1568 N1575 1.356 . S
C1569 C1568 1.363 . S
C1569 C1572 1.363 . S
N1570 C1572 1.356 . S
N1570 H1582 0.984 . S
N1570 H1583 0.985 . S
N1571 C1573 1.356 . S
N1571 H1576 0.984 . S
N1571 H1577 0.985 . S
C1572 C1566 1.379 . S
C1572 C1569 1.363 . S
C1572 N1570 1.356 . S
C1573 C1567 1.363 . S
C1573 C1568 1.379 . S
C1573 N1571 1.356 . S
N1574 C1566 1.356 . S
N1574 H1580 0.984 . S
N1574 H1581 0.984 . S
N1575 C1568 1.356 . S
N1575 H1578 0.984 . S
N1575 H1579 0.985 . S
H1576 N1571 0.984 . S
H1577 N1571 0.985 . S
H1578 N1575 0.984 . S
H1579 N1575 0.985 . S
H1580 N1574 0.984 . S
H1581 N1574 0.984 . S
H1582 N1570 0.984 . S
H1583 N1570 0.985 . S
C1584 C1585 1.363 . S
C1584 C1590 1.379 . S
C1584 N1592 1.356 . S
C1585 C1584 1.363 . S
C1585 C1591 1.363 . S
C1586 C1587 1.363 . S
C1586 C1591 1.379 . S
C1586 N1593 1.356 . S
C1587 C1586 1.363 . S
C1587 C1590 1.363 . S
N1588 C1590 1.356 . S
N1588 H1600 0.984 . S
N1588 H1601 0.985 . S
N1589 C1591 1.356 . S
N1589 H1594 0.984 . S
N1589 H1595 0.985 . S
C1590 C1584 1.379 . S
C1590 C1587 1.363 . S
C1590 N1588 1.356 . S
C1591 C1585 1.363 . S
C1591 C1586 1.379 . S
C1591 N1589 1.356 . S
N1592 C1584 1.356 . S
N1592 H1598 0.984 . S
N1592 H1599 0.984 . S
N1593 C1586 1.356 . S
N1593 H1596 0.984 . S
N1593 H1597 0.985 . S
H1594 N1589 0.984 . S
H1595 N1589 0.985 . S
H1596 N1593 0.984 . S
H1597 N1593 0.985 . S
H1598 N1592 0.984 . S
H1599 N1592 0.984 . S
H1600 N1588 0.984 . S
H1601 N1588 0.985 . S
C1602 C1603 1.363 . S
C1602 C1608 1.379 . S
C1602 N1610 1.356 . S
C1603 C1602 1.363 . S
C1603 C1609 1.363 . S
C1604 C1605 1.363 . S
C1604 C1609 1.379 . S
C1604 N1611 1.356 . S
C1605 C1604 1.363 . S
C1605 C1608 1.363 . S
N1606 C1608 1.356 . S
N1606 H1618 0.984 . S
N1606 H1619 0.985 . S
N1607 C1609 1.356 . S
N1607 H1612 0.984 . S
N1607 H1613 0.985 . S
C1608 C1602 1.379 . S
C1608 C1605 1.363 . S
C1608 N1606 1.356 . S
C1609 C1603 1.363 . S
C1609 C1604 1.379 . S
C1609 N1607 1.356 . S
N1610 C1602 1.356 . S
N1610 H1616 0.984 . S
N1610 H1617 0.984 . S
N1611 C1604 1.356 . S
N1611 H1614 0.984 . S
N1611 H1615 0.985 . S
H1612 N1607 0.984 . S
H1613 N1607 0.985 . S
H1614 N1611 0.984 . S
H1615 N1611 0.985 . S
H1616 N1610 0.984 . S
H1617 N1610 0.984 . S
H1618 N1606 0.984 . S
H1619 N1606 0.985 . S
C1620 C1621 1.363 . S
C1620 C1626 1.379 . S
C1620 N1628 1.356 . S
C1621 C1620 1.363 . S
C1621 C1627 1.363 . S
C1622 C1623 1.363 . S
C1622 C1627 1.379 . S
C1622 N1629 1.356 . S
C1623 C1622 1.363 . S
C1623 C1626 1.363 . S
N1624 C1626 1.356 . S
N1624 H1636 0.984 . S
N1624 H1637 0.985 . S
N1625 C1627 1.356 . S
N1625 H1630 0.984 . S
N1625 H1631 0.985 . S
C1626 C1620 1.379 . S
C1626 C1623 1.363 . S
C1626 N1624 1.356 . S
C1627 C1621 1.363 . S
C1627 C1622 1.379 . S
C1627 N1625 1.356 . S
N1628 C1620 1.356 . S
N1628 H1634 0.984 . S
N1628 H1635 0.984 . S
N1629 C1622 1.356 . S
N1629 H1632 0.984 . S
N1629 H1633 0.985 . S
H1630 N1625 0.984 . S
H1631 N1625 0.985 . S
H1632 N1629 0.984 . S
H1633 N1629 0.985 . S
H1634 N1628 0.984 . S
H1635 N1628 0.984 . S
H1636 N1624 0.984 . S
H1637 N1624 0.985 . S
C1638 C1639 1.363 . S
C1638 C1644 1.379 . S
C1638 N1646 1.356 . S
C1639 C1638 1.363 . S
C1639 C1645 1.363 . S
C1640 C1641 1.363 . S
C1640 C1645 1.379 . S
C1640 N1647 1.356 . S
C1641 C1640 1.363 . S
C1641 C1644 1.363 . S
N1642 C1644 1.356 . S
N1642 H1654 0.984 . S
N1642 H1655 0.985 . S
N1643 C1645 1.356 . S
N1643 H1648 0.984 . S
N1643 H1649 0.985 . S
C1644 C1638 1.379 . S
C1644 C1641 1.363 . S
C1644 N1642 1.356 . S
C1645 C1639 1.363 . S
C1645 C1640 1.379 . S
C1645 N1643 1.356 . S
N1646 C1638 1.356 . S
N1646 H1652 0.984 . S
N1646 H1653 0.984 . S
N1647 C1640 1.356 . S
N1647 H1650 0.984 . S
N1647 H1651 0.985 . S
H1648 N1643 0.984 . S
H1649 N1643 0.985 . S
H1650 N1647 0.984 . S
H1651 N1647 0.985 . S
H1652 N1646 0.984 . S
H1653 N1646 0.984 . S
H1654 N1642 0.984 . S
H1655 N1642 0.985 . S
C1656 C1657 1.363 . S
C1656 C1662 1.379 . S
C1656 N1664 1.356 . S
C1657 C1656 1.363 . S
C1657 C1663 1.363 . S
C1658 C1659 1.363 . S
C1658 C1663 1.379 . S
C1658 N1665 1.356 . S
C1659 C1658 1.363 . S
C1659 C1662 1.363 . S
N1660 C1662 1.356 . S
N1660 H1672 0.984 . S
N1660 H1673 0.985 . S
N1661 C1663 1.356 . S
N1661 H1666 0.984 . S
N1661 H1667 0.985 . S
C1662 C1656 1.379 . S
C1662 C1659 1.363 . S
C1662 N1660 1.356 . S
C1663 C1657 1.363 . S
C1663 C1658 1.379 . S
C1663 N1661 1.356 . S
N1664 C1656 1.356 . S
N1664 H1670 0.984 . S
N1664 H1671 0.984 . S
N1665 C1658 1.356 . S
N1665 H1668 0.984 . S
N1665 H1669 0.985 . S
H1666 N1661 0.984 . S
H1667 N1661 0.985 . S
H1668 N1665 0.984 . S
H1669 N1665 0.985 . S
H1670 N1664 0.984 . S
H1671 N1664 0.984 . S
H1672 N1660 0.984 . S
H1673 N1660 0.985 . S
C1674 C1675 1.363 . S
C1674 C1680 1.379 . S
C1674 N1682 1.356 . S
C1675 C1674 1.363 . S
C1675 C1681 1.363 . S
C1676 C1677 1.363 . S
C1676 C1681 1.379 . S
C1676 N1683 1.356 . S
C1677 C1676 1.363 . S
C1677 C1680 1.363 . S
N1678 C1680 1.356 . S
N1678 H1690 0.984 . S
N1678 H1691 0.985 . S
N1679 C1681 1.356 . S
N1679 H1684 0.984 . S
N1679 H1685 0.985 . S
C1680 C1674 1.379 . S
C1680 C1677 1.363 . S
C1680 N1678 1.356 . S
C1681 C1675 1.363 . S
C1681 C1676 1.379 . S
C1681 N1679 1.356 . S
N1682 C1674 1.356 . S
N1682 H1688 0.984 . S
N1682 H1689 0.984 . S
N1683 C1676 1.356 . S
N1683 H1686 0.984 . S
N1683 H1687 0.985 . S
H1684 N1679 0.984 . S
H1685 N1679 0.985 . S
H1686 N1683 0.984 . S
H1687 N1683 0.985 . S
H1688 N1682 0.984 . S
H1689 N1682 0.984 . S
H1690 N1678 0.984 . S
H1691 N1678 0.985 . S
C1692 C1693 1.371 . S
C1692 C1698 1.370 1_556 S
C1692 N1700 1.359 . S
C1693 C1692 1.371 . S
C1693 C1699 1.363 1_455 S
C1694 C1695 1.373 . S
C1694 C1699 1.369 1_554 S
C1694 N1701 1.360 . S
C1695 C1694 1.373 . S
C1695 C1698 1.363 1_655 S
N1696 C1698 1.356 . S
N1696 H1708 0.984 . S
N1696 H1709 0.985 . S
N1697 C1699 1.356 . S
N1697 H1702 0.984 . S
N1697 H1703 0.985 . S
C1698 C1692 1.370 1_554 S
C1698 C1695 1.363 1_455 S
C1698 N1696 1.356 . S
C1699 C1693 1.363 1_655 S
C1699 C1694 1.369 1_556 S
C1699 N1697 1.356 . S
N1700 C1692 1.359 . S
N1700 H1706 0.984 1_556 S
N1700 H1707 0.984 . S
N1701 C1694 1.360 . S
N1701 H1704 0.984 . S
N1701 H1705 0.985 1_554 S
H1702 N1697 0.984 . S
H1703 N1697 0.985 . S
H1704 N1701 0.984 . S
H1705 N1701 0.985 1_556 S
H1706 N1700 0.984 1_554 S
H1707 N1700 0.984 . S
H1708 N1696 0.984 . S
H1709 N1696 0.985 . S
C1710 C1711 1.363 . S
C1710 C1716 1.379 1_554 S
C1710 N1718 1.356 . S
C1711 C1710 1.363 . S
C1711 C1717 1.363 . S
C1712 C1713 1.363 . S
C1712 C1717 1.379 1_556 S
C1712 N1719 1.356 . S
C1713 C1712 1.363 . S
C1713 C1716 1.363 . S
N1714 C1716 1.356 . S
N1714 H1726 0.984 1_556 S
N1714 H1727 0.985 . S
N1715 C1717 1.356 . S
N1715 H1720 0.984 . S
N1715 H1721 0.985 1_554 S
C1716 C1710 1.379 1_556 S
C1716 C1713 1.363 . S
C1716 N1714 1.356 . S
C1717 C1711 1.363 . S
C1717 C1712 1.379 1_554 S
C1717 N1715 1.356 . S
N1718 C1710 1.356 . S
N1718 H1724 0.984 . S
N1718 H1725 0.984 . S
N1719 C1712 1.356 . S
N1719 H1722 0.984 . S
N1719 H1723 0.985 . S
H1720 N1715 0.984 . S
H1721 N1715 0.985 1_556 S
H1722 N1719 0.984 . S
H1723 N1719 0.985 . S
H1724 N1718 0.984 . S
H1725 N1718 0.984 . S
H1726 N1714 0.984 1_554 S
H1727 N1714 0.985 . S
C1728 C1729 1.363 1_565 S
C1728 C1734 1.379 1_554 S
C1728 N1736 1.356 . S
C1729 C1728 1.363 1_545 S
C1729 C1735 1.363 . S
C1730 C1731 1.363 1_545 S
C1730 C1735 1.379 1_556 S
C1730 N1737 1.356 . S
C1731 C1730 1.363 1_565 S
C1731 C1734 1.363 . S
N1732 C1734 1.356 . S
N1732 H1744 0.984 . S
N1732 H1745 0.985 . S
N1733 C1735 1.356 . S
N1733 H1738 0.984 . S
N1733 H1739 0.985 . S
C1734 C1728 1.379 1_556 S
C1734 C1731 1.363 . S
C1734 N1732 1.356 . S
C1735 C1729 1.363 . S
C1735 C1730 1.379 1_554 S
C1735 N1733 1.356 . S
N1736 C1728 1.356 . S
N1736 H1742 0.984 . S
N1736 H1743 0.984 1_565 S
N1737 C1730 1.356 . S
N1737 H1740 0.984 1_545 S
N1737 H1741 0.985 . S
H1738 N1733 0.984 . S
H1739 N1733 0.985 . S
H1740 N1737 0.984 1_565 S
H1741 N1737 0.985 . S
H1742 N1736 0.984 . S
H1743 N1736 0.984 1_545 S
H1744 N1732 0.984 . S
H1745 N1732 0.985 . S
C1746 C1747 1.363 1_545 S
C1746 C1752 1.379 1_556 S
C1746 N1754 1.356 . S
C1747 C1746 1.363 1_565 S
C1747 C1753 1.363 . S
C1748 C1749 1.363 1_565 S
C1748 C1753 1.379 1_554 S
C1748 N1755 1.356 . S
C1749 C1748 1.363 1_545 S
C1749 C1752 1.363 . S
N1750 C1752 1.356 . S
N1750 H1762 0.984 . S
N1750 H1763 0.985 . S
N1751 C1753 1.356 . S
N1751 H1756 0.984 . S
N1751 H1757 0.985 . S
C1752 C1746 1.379 1_554 S
C1752 C1749 1.363 . S
C1752 N1750 1.356 . S
C1753 C1747 1.363 . S
C1753 C1748 1.379 1_556 S
C1753 N1751 1.356 . S
N1754 C1746 1.356 . S
N1754 H1760 0.984 . S
N1754 H1761 0.984 1_545 S
N1755 C1748 1.356 . S
N1755 H1758 0.984 1_565 S
N1755 H1759 0.985 . S
H1756 N1751 0.984 . S
H1757 N1751 0.985 . S
H1758 N1755 0.984 1_545 S
H1759 N1755 0.985 . S
H1760 N1754 0.984 . S
H1761 N1754 0.984 1_565 S
H1762 N1750 0.984 . S
H1763 N1750 0.985 . S
C1764 C1765 1.363 1_655 S
C1764 C1770 1.379 1_556 S
C1764 N1772 1.356 . S
C1765 C1764 1.363 1_455 S
C1765 C1771 1.363 . S
C1766 C1767 1.363 1_455 S
C1766 C1771 1.379 1_554 S
C1766 N1773 1.356 . S
C1767 C1766 1.363 1_655 S
C1767 C1770 1.363 . S
N1768 C1770 1.356 . S
N1768 H1780 0.984 1_554 S
N1768 H1781 0.985 . S
N1769 C1771 1.356 . S
N1769 H1774 0.984 . S
N1769 H1775 0.985 1_556 S
C1770 C1764 1.379 1_554 S
C1770 C1767 1.363 . S
C1770 N1768 1.356 . S
C1771 C1765 1.363 . S
C1771 C1766 1.379 1_556 S
C1771 N1769 1.356 . S
N1772 C1764 1.356 . S
N1772 H1778 0.984 . S
N1772 H1779 1.003 . S
N1773 C1766 1.356 . S
N1773 H1776 1.003 . S
N1773 H1777 0.985 . S
H1774 N1769 0.984 . S
H1775 N1769 0.985 1_554 S
H1776 N1773 1.003 . S
H1777 N1773 0.985 . S
H1778 N1772 0.984 . S
H1779 N1772 1.003 . S
H1780 N1768 0.984 1_556 S
H1781 N1768 0.985 . S
C1782 C1783 1.363 . S
C1782 C1788 1.379 1_554 S
C1782 N1790 1.356 . S
C1783 C1782 1.363 . S
C1783 C1789 1.363 . S
C1784 C1785 1.363 . S
C1784 C1789 1.379 1_556 S
C1784 N1791 1.356 . S
C1785 C1784 1.363 . S
C1785 C1788 1.363 . S
N1786 C1788 1.356 . S
N1786 H1798 0.984 . S
N1786 H1799 0.985 . S
N1787 C1789 1.356 . S
N1787 H1792 0.984 . S
N1787 H1793 0.985 . S
C1788 C1782 1.379 1_556 S
C1788 C1785 1.363 . S
C1788 N1786 1.356 . S
C1789 C1783 1.363 . S
C1789 C1784 1.379 1_554 S
C1789 N1787 1.356 . S
N1790 C1782 1.356 . S
N1790 H1796 0.984 1_554 S
N1790 H1797 0.984 . S
N1791 C1784 1.356 . S
N1791 H1794 0.984 . S
N1791 H1795 0.985 1_556 S
H1792 N1787 0.984 . S
H1793 N1787 0.985 . S
H1794 N1791 0.984 . S
H1795 N1791 0.985 1_554 S
H1796 N1790 0.984 1_556 S
H1797 N1790 0.984 . S
H1798 N1786 0.984 . S
H1799 N1786 0.985 . S
C505 C5 1.386 . S
C507 C159 1.386 . S
C523 C19 1.386 . S
C525 C131 1.386 . S
C541 C145 1.386 . S
C543 C33 1.386 . S
C559 C47 1.386 . S
C561 C103 1.386 . S
C577 C117 1.386 . S
C579 C61 1.386 . S
C595 C75 1.386 . S
C597 C89 1.386 . S
C613 C327 1.386 . S
C615 C173 1.386 . S
C631 C187 1.386 . S
C633 C299 1.386 . S
C649 C201 1.386 . S
C651 C313 1.386 . S
C667 C271 1.386 . S
C669 C215 1.386 . S
C685 C229 1.386 . S
C687 C285 1.386 . S
C703 C257 1.386 . S
C705 C243 1.386 . S
C721 C341 1.386 . S
C723 C495 1.386 . S
C739 C467 1.386 . S
C741 C355 1.386 . S
C757 C481 1.386 . S
C759 C369 1.386 . S
C775 C439 1.386 . S
C777 C383 1.386 . S
C793 C453 1.386 . S
C795 C397 1.386 . S
C811 C425 1.386 . S
C813 C411 1.386 . S
C829 C11 1.427 . S
C831 C67 1.427 . S
C847 C81 1.427 . S
C849 C25 1.427 . S
C865 C39 1.427 . S
C867 C53 1.427 . S
C883 C95 1.427 . S
C885 C151 1.427 . S
C901 C109 1.427 . S
C903 C165 1.427 . S
C919 C123 1.427 . S
C921 C137 1.427 . S
C937 C235 1.427 . S
C939 C179 1.427 . S
C955 C249 1.427 . S
C957 C193 1.427 . S
C973 C207 1.427 . S
C975 C221 1.427 . S
C991 C319 1.427 . S
C993 C263 1.427 . S
C1009 C333 1.427 . S
C1011 C277 1.427 . S
C1027 C291 1.427 . S
C1029 C305 1.427 . S
C1045 C403 1.427 . S
C1047 C347 1.427 . S
C1063 C361 1.427 . S
C1065 C417 1.427 . S
C1081 C375 1.427 . S
C1083 C389 1.427 . S
C1099 C487 1.427 . S
C1101 C431 1.427 . S
C1117 C445 1.427 . S
C1119 C501 1.427 . S
C1135 C473 1.427 . S
C1137 C459 1.427 . S
C1153 C415 1.173 . S
C1155 C9 1.173 . S
C1171 C23 1.173 . S
C1173 C387 1.173 . S
C1189 C37 1.173 . S
C1191 C401 1.173 . S
C1207 C51 1.173 . S
C1209 C191 1.173 . S
C1225 C205 1.173 . S
C1227 C65 1.173 . S
C1243 C177 1.173 . S
C1245 C79 1.173 . S
C1261 C93 1.173 . S
C1263 C331 1.173 . S
C1279 C107 1.173 . S
C1281 C303 1.173 . S
C1297 C121 1.173 . S
C1299 C317 1.173 . S
C1315 C443 1.173 . S
C1317 C135 1.173 . S
C1333 C457 1.173 . S
C1335 C149 1.173 . S
C1351 C163 1.173 . S
C1353 C429 1.173 . S
C1369 C359 1.173 . S
C1371 C219 1.173 . S
C1387 C233 1.173 . S
C1389 C373 1.173 . S
C1405 C345 1.173 . S
C1407 C247 1.173 . S
C1423 C499 1.173 . S
C1425 C261 1.173 . S
C1441 C275 1.173 . S
C1443 C471 1.173 . S
C1459 C289 1.173 . S
C1461 C485 1.173 . S
C1477 C0 1.637 . S
C1479 C406 1.637 . S
C1495 C378 1.637 . S
C1497 C14 1.637 . S
C1513 C28 1.637 . S
C1515 C392 1.637 . S
C1531 C182 1.637 . S
C1533 C42 1.637 . S
C1549 C56 1.637 . S
C1551 C196 1.637 . S
C1567 C70 1.637 . S
C1569 C168 1.637 . S
C1585 C322 1.637 . S
C1587 C84 1.637 . S
C1603 C98 1.637 . S
C1605 C294 1.637 . S
C1621 C112 1.637 . S
C1623 C308 1.637 . S
C1639 C126 1.637 . S
C1641 C434 1.637 . S
C1657 C448 1.637 . S
C1659 C140 1.637 . S
C1675 C154 1.637 . S
C1677 C420 1.637 . S
C1693 C350 1.637 . S
C1695 C210 1.637 . S
C1711 C224 1.637 . S
C1713 C364 1.637 . S
C1729 C238 1.637 . S
C1731 C336 1.637 . S
C1747 C490 1.637 . S
C1749 C252 1.637 . S
C1765 C462 1.637 . S
C1767 C266 1.637 . S
C1783 C280 1.637 . S
C1785 C476 1.637 . S
