# Generated by pormake.
# Topology vbg, (5)-cn, num edge types: 1
# Building blocks:
#     Node 0, Type 0, BuildingBlock: XOMCOT_clean_sbu_1, # of connection points: 5
#     Node 1, Type 0, BuildingBlock: XOMCOT_clean_sbu_1, # of connection points: 5
#     Node 2, Type 0, BuildingBlock: XOMCOT_clean_sbu_1, # of connection points: 5
#     Node 3, Type 0, BuildingBlock: XOMCOT_clean_sbu_1, # of connection points: 5
#     Node 4, Type 0, BuildingBlock: XOMCOT_clean_sbu_1, # of connection points: 5
#     Node 5, Type 0, BuildingBlock: XOMCOT_clean_sbu_1, # of connection points: 5
#     Node 6, Type 0, BuildingBlock: XOMCOT_clean_sbu_1, # of connection points: 5
#     Node 7, Type 0, BuildingBlock: XOMCOT_clean_sbu_1, # of connection points: 5
#     Node 8, Type 0, BuildingBlock: XOMCOT_clean_sbu_1, # of connection points: 5
#     Node 9, Type 0, BuildingBlock: XOMCOT_clean_sbu_1, # of connection points: 5
#     Node 10, Type 0, BuildingBlock: XOMCOT_clean_sbu_1, # of connection points: 5
#     Node 11, Type 0, BuildingBlock: XOMCOT_clean_sbu_1, # of connection points: 5
#     Node 12, Type 0, BuildingBlock: XOMCOT_clean_sbu_1, # of connection points: 5
#     Node 13, Type 0, BuildingBlock: XOMCOT_clean_sbu_1, # of connection points: 5
#     Node 14, Type 0, BuildingBlock: XOMCOT_clean_sbu_1, # of connection points: 5
#     Node 15, Type 0, BuildingBlock: XOMCOT_clean_sbu_1, # of connection points: 5
#     Node 16, Type 0, BuildingBlock: XOMCOT_clean_sbu_1, # of connection points: 5
#     Node 17, Type 0, BuildingBlock: XOMCOT_clean_sbu_1, # of connection points: 5
#     Node 18, Type 0, BuildingBlock: XOMCOT_clean_sbu_1, # of connection points: 5
#     Node 19, Type 0, BuildingBlock: XOMCOT_clean_sbu_1, # of connection points: 5
#     Node 20, Type 0, BuildingBlock: XOMCOT_clean_sbu_1, # of connection points: 5
#     Node 21, Type 0, BuildingBlock: XOMCOT_clean_sbu_1, # of connection points: 5
#     Node 22, Type 0, BuildingBlock: XOMCOT_clean_sbu_1, # of connection points: 5
#     Node 23, Type 0, BuildingBlock: XOMCOT_clean_sbu_1, # of connection points: 5
#     Node 24, Type 0, BuildingBlock: XOMCOT_clean_sbu_1, # of connection points: 5
#     Node 25, Type 0, BuildingBlock: XOMCOT_clean_sbu_1, # of connection points: 5
#     Node 26, Type 0, BuildingBlock: XOMCOT_clean_sbu_1, # of connection points: 5
#     Node 27, Type 0, BuildingBlock: XOMCOT_clean_sbu_1, # of connection points: 5
#     Node 28, Type 0, BuildingBlock: XOMCOT_clean_sbu_1, # of connection points: 5
#     Node 29, Type 0, BuildingBlock: XOMCOT_clean_sbu_1, # of connection points: 5
#     Node 30, Type 0, BuildingBlock: XOMCOT_clean_sbu_1, # of connection points: 5
#     Node 31, Type 0, BuildingBlock: XOMCOT_clean_sbu_1, # of connection points: 5
#     Edge 32, Type (0, 0), BuildingBlock: OJICUG_clean_linker_0, # of connection points: 2
#     Edge 33, Type (0, 0), BuildingBlock: OJICUG_clean_linker_0, # of connection points: 2
#     Edge 34, Type (0, 0), BuildingBlock: OJICUG_clean_linker_0, # of connection points: 2
#     Edge 35, Type (0, 0), BuildingBlock: OJICUG_clean_linker_0, # of connection points: 2
#     Edge 36, Type (0, 0), BuildingBlock: OJICUG_clean_linker_0, # of connection points: 2
#     Edge 37, Type (0, 0), BuildingBlock: OJICUG_clean_linker_0, # of connection points: 2
#     Edge 38, Type (0, 0), BuildingBlock: OJICUG_clean_linker_0, # of connection points: 2
#     Edge 39, Type (0, 0), BuildingBlock: OJICUG_clean_linker_0, # of connection points: 2
#     Edge 40, Type (0, 0), BuildingBlock: OJICUG_clean_linker_0, # of connection points: 2
#     Edge 41, Type (0, 0), BuildingBlock: OJICUG_clean_linker_0, # of connection points: 2
#     Edge 42, Type (0, 0), BuildingBlock: OJICUG_clean_linker_0, # of connection points: 2
#     Edge 43, Type (0, 0), BuildingBlock: OJICUG_clean_linker_0, # of connection points: 2
#     Edge 44, Type (0, 0), BuildingBlock: OJICUG_clean_linker_0, # of connection points: 2
#     Edge 45, Type (0, 0), BuildingBlock: OJICUG_clean_linker_0, # of connection points: 2
#     Edge 46, Type (0, 0), BuildingBlock: OJICUG_clean_linker_0, # of connection points: 2
#     Edge 47, Type (0, 0), BuildingBlock: OJICUG_clean_linker_0, # of connection points: 2
#     Edge 48, Type (0, 0), BuildingBlock: OJICUG_clean_linker_0, # of connection points: 2
#     Edge 49, Type (0, 0), BuildingBlock: OJICUG_clean_linker_0, # of connection points: 2
#     Edge 50, Type (0, 0), BuildingBlock: OJICUG_clean_linker_0, # of connection points: 2
#     Edge 51, Type (0, 0), BuildingBlock: OJICUG_clean_linker_0, # of connection points: 2
#     Edge 52, Type (0, 0), BuildingBlock: OJICUG_clean_linker_0, # of connection points: 2
#     Edge 53, Type (0, 0), BuildingBlock: OJICUG_clean_linker_0, # of connection points: 2
#     Edge 54, Type (0, 0), BuildingBlock: OJICUG_clean_linker_0, # of connection points: 2
#     Edge 55, Type (0, 0), BuildingBlock: OJICUG_clean_linker_0, # of connection points: 2
#     Edge 56, Type (0, 0), BuildingBlock: OJICUG_clean_linker_0, # of connection points: 2
#     Edge 57, Type (0, 0), BuildingBlock: OJICUG_clean_linker_0, # of connection points: 2
#     Edge 58, Type (0, 0), BuildingBlock: OJICUG_clean_linker_0, # of connection points: 2
#     Edge 59, Type (0, 0), BuildingBlock: OJICUG_clean_linker_0, # of connection points: 2
#     Edge 60, Type (0, 0), BuildingBlock: OJICUG_clean_linker_0, # of connection points: 2
#     Edge 61, Type (0, 0), BuildingBlock: OJICUG_clean_linker_0, # of connection points: 2
#     Edge 62, Type (0, 0), BuildingBlock: OJICUG_clean_linker_0, # of connection points: 2
#     Edge 63, Type (0, 0), BuildingBlock: OJICUG_clean_linker_0, # of connection points: 2
#     Edge 64, Type (0, 0), BuildingBlock: OJICUG_clean_linker_0, # of connection points: 2
#     Edge 65, Type (0, 0), BuildingBlock: OJICUG_clean_linker_0, # of connection points: 2
#     Edge 66, Type (0, 0), BuildingBlock: OJICUG_clean_linker_0, # of connection points: 2
#     Edge 67, Type (0, 0), BuildingBlock: OJICUG_clean_linker_0, # of connection points: 2
#     Edge 68, Type (0, 0), BuildingBlock: OJICUG_clean_linker_0, # of connection points: 2
#     Edge 69, Type (0, 0), BuildingBlock: OJICUG_clean_linker_0, # of connection points: 2
#     Edge 70, Type (0, 0), BuildingBlock: OJICUG_clean_linker_0, # of connection points: 2
#     Edge 71, Type (0, 0), BuildingBlock: OJICUG_clean_linker_0, # of connection points: 2
#     Edge 72, Type (0, 0), BuildingBlock: OJICUG_clean_linker_0, # of connection points: 2
#     Edge 73, Type (0, 0), BuildingBlock: OJICUG_clean_linker_0, # of connection points: 2
#     Edge 74, Type (0, 0), BuildingBlock: OJICUG_clean_linker_0, # of connection points: 2
#     Edge 75, Type (0, 0), BuildingBlock: OJICUG_clean_linker_0, # of connection points: 2
#     Edge 76, Type (0, 0), BuildingBlock: OJICUG_clean_linker_0, # of connection points: 2
#     Edge 77, Type (0, 0), BuildingBlock: OJICUG_clean_linker_0, # of connection points: 2
#     Edge 78, Type (0, 0), BuildingBlock: OJICUG_clean_linker_0, # of connection points: 2
#     Edge 79, Type (0, 0), BuildingBlock: OJICUG_clean_linker_0, # of connection points: 2
#     Edge 80, Type (0, 0), BuildingBlock: OJICUG_clean_linker_0, # of connection points: 2
#     Edge 81, Type (0, 0), BuildingBlock: OJICUG_clean_linker_0, # of connection points: 2
#     Edge 82, Type (0, 0), BuildingBlock: OJICUG_clean_linker_0, # of connection points: 2
#     Edge 83, Type (0, 0), BuildingBlock: OJICUG_clean_linker_0, # of connection points: 2
#     Edge 84, Type (0, 0), BuildingBlock: OJICUG_clean_linker_0, # of connection points: 2
#     Edge 85, Type (0, 0), BuildingBlock: OJICUG_clean_linker_0, # of connection points: 2
#     Edge 86, Type (0, 0), BuildingBlock: OJICUG_clean_linker_0, # of connection points: 2
#     Edge 87, Type (0, 0), BuildingBlock: OJICUG_clean_linker_0, # of connection points: 2
#     Edge 88, Type (0, 0), BuildingBlock: OJICUG_clean_linker_0, # of connection points: 2
#     Edge 89, Type (0, 0), BuildingBlock: OJICUG_clean_linker_0, # of connection points: 2
#     Edge 90, Type (0, 0), BuildingBlock: OJICUG_clean_linker_0, # of connection points: 2
#     Edge 91, Type (0, 0), BuildingBlock: OJICUG_clean_linker_0, # of connection points: 2
#     Edge 92, Type (0, 0), BuildingBlock: OJICUG_clean_linker_0, # of connection points: 2
#     Edge 93, Type (0, 0), BuildingBlock: OJICUG_clean_linker_0, # of connection points: 2
#     Edge 94, Type (0, 0), BuildingBlock: OJICUG_clean_linker_0, # of connection points: 2
#     Edge 95, Type (0, 0), BuildingBlock: OJICUG_clean_linker_0, # of connection points: 2
#     Edge 96, Type (0, 0), BuildingBlock: OJICUG_clean_linker_0, # of connection points: 2
#     Edge 97, Type (0, 0), BuildingBlock: OJICUG_clean_linker_0, # of connection points: 2
#     Edge 98, Type (0, 0), BuildingBlock: OJICUG_clean_linker_0, # of connection points: 2
#     Edge 99, Type (0, 0), BuildingBlock: OJICUG_clean_linker_0, # of connection points: 2
#     Edge 100, Type (0, 0), BuildingBlock: OJICUG_clean_linker_0, # of connection points: 2
#     Edge 101, Type (0, 0), BuildingBlock: OJICUG_clean_linker_0, # of connection points: 2
#     Edge 102, Type (0, 0), BuildingBlock: OJICUG_clean_linker_0, # of connection points: 2
#     Edge 103, Type (0, 0), BuildingBlock: OJICUG_clean_linker_0, # of connection points: 2
#     Edge 104, Type (0, 0), BuildingBlock: OJICUG_clean_linker_0, # of connection points: 2
#     Edge 105, Type (0, 0), BuildingBlock: OJICUG_clean_linker_0, # of connection points: 2
#     Edge 106, Type (0, 0), BuildingBlock: OJICUG_clean_linker_0, # of connection points: 2
#     Edge 107, Type (0, 0), BuildingBlock: OJICUG_clean_linker_0, # of connection points: 2
#     Edge 108, Type (0, 0), BuildingBlock: OJICUG_clean_linker_0, # of connection points: 2
#     Edge 109, Type (0, 0), BuildingBlock: OJICUG_clean_linker_0, # of connection points: 2
#     Edge 110, Type (0, 0), BuildingBlock: OJICUG_clean_linker_0, # of connection points: 2
#     Edge 111, Type (0, 0), BuildingBlock: OJICUG_clean_linker_0, # of connection points: 2
# Relax obj value: 0.209
# Max RMSD: 0.188
# Mean RMSD: 0.188
data_MOF--net-vbg--node1-XOMCOT_clean_sbu_1--edge1-OJICUG_clean_linker_0
_symmetry_space_group_name_H-M    P1
_symmetry_Int_Tables_number       1
_symmetry_cell_setting            triclinic
loop_
_symmetry_equiv_pos_as_xyz
'x, y, z'
_cell_length_a     74.096364
_cell_length_b     30.430732
_cell_length_c     31.18919
_cell_angle_alpha  89.98007
_cell_angle_beta   90.025418
_cell_angle_gamma 89.971331
loop_
_atom_site_label
_atom_site_type_symbol
_atom_site_fract_x
_atom_site_fract_y
_atom_site_fract_z
_atom_type_partial_charge
C0 C 0.02849 0.27308 0.38314 0.0
C1 C 0.02325 0.29504 0.34672 0.0
N2 N 0.0078 0.27667 0.3328 0.0
N3 N 0.01634 0.24118 0.39156 0.0
C4 C 0.00378 0.24473 0.36087 0.0
H5 H 0.04056 0.2793 0.40162 0.0
Co6 Co 0.01679 0.19934 0.43352 0.0
C7 C 0.00724 0.11419 0.38244 0.0
O8 O 0.01906 0.09352 0.40626 0.0
N9 N 0.01748 0.15649 0.47758 0.0
C10 C 0.02871 0.11141 0.52721 0.0
C11 C 0.03002 0.12503 0.48545 0.0
C12 C 0.00842 0.15979 0.51492 0.0
N13 N 0.01536 0.13428 0.54591 0.0
O14 O -0.00466 0.22951 0.46199 0.0
H15 H 0.04087 0.11584 0.46414 0.0
H16 H -0.0014 0.18486 0.5219 0.0
O17 O 0.00361 0.15509 0.39154 0.0
C18 C 0.00173 0.2635 0.4826 0.0
O19 O 0.01888 0.2726 0.47703 0.0
N20 N 0.0393 0.18189 0.41362 0.0
C21 C 0.07648 0.17714 0.40131 0.0
C22 C 0.06455 0.15882 0.37094 0.0
C23 C 0.04579 0.16285 0.37706 0.0
C24 C 0.05072 0.20136 0.4419 0.0
C25 C 0.06912 0.20041 0.43588 0.0
H26 H 0.03673 0.1514 0.35239 0.0
H27 H 0.04532 0.21865 0.46929 0.0
H28 H -0.00805 0.22404 0.35888 0.0
H29 H 0.03055 0.32119 0.33084 0.0
H30 H 0.03837 0.0909 0.54394 0.0
H31 H 0.06958 0.14167 0.34301 0.0
H32 H 0.07746 0.21789 0.4587 0.0
C33 C 0.20206 0.06505 0.38356 0.0
C34 C 0.20689 1.04311 0.34684 0.0
N35 N 0.22226 0.06127 0.3322 0.0
N36 N 0.21439 0.09669 0.39146 0.0
C37 C 0.22665 0.093 0.36015 0.0
H38 H 0.19011 0.05909 0.40256 0.0
Co39 Co 0.2143 0.13864 0.4333 0.0
C40 C 0.22384 0.22336 0.38145 0.0
O41 O 0.21199 0.24417 0.40501 0.0
N42 N 0.21395 0.18161 0.47726 0.0
C43 C 0.20298 0.22713 0.52678 0.0
C44 C 0.20168 0.21371 0.48497 0.0
C45 C 0.22284 0.17764 0.51481 0.0
N46 N 0.21602 0.20341 0.54572 0.0
O47 O 0.23577 0.10809 0.46134 0.0
H48 H 0.1909 0.22335 0.46361 0.0
H49 H 0.23233 0.15191 0.52197 0.0
O50 O 0.22749 0.18254 0.3909 0.0
C51 C 0.22935 0.07424 0.48211 0.0
O52 O 0.21213 0.06561 0.47706 0.0
N53 N 0.19177 0.15653 0.41382 0.0
C54 C 0.15459 0.16154 0.40161 0.0
C55 C 0.16652 0.17903 0.37081 0.0
C56 C 0.18527 0.17487 0.37691 0.0
C57 C 0.18036 0.13785 0.44259 0.0
C58 C 0.16195 0.13899 0.43669 0.0
H59 H 0.19433 0.18553 0.3519 0.0
H60 H 0.18576 0.12092 0.47022 0.0
H61 H 0.23852 0.11351 0.35758 0.0
H62 H 0.19936 1.01719 0.33122 0.0
H63 H 0.19342 0.248 0.54336 0.0
H64 H 0.16149 0.19558 0.3425 0.0
H65 H 0.1536 0.12212 0.45992 0.0
C66 C 0.02872 0.06601 0.87568 0.0
C67 C 0.0242 0.04427 0.91275 0.0
N68 N 0.00888 0.06233 0.9278 0.0
N69 N 0.01626 0.09741 0.86797 0.0
C70 C 0.00421 0.09377 0.89975 0.0
H71 H 0.04059 0.06014 0.85634 0.0
Co72 Co 0.01606 0.13932 0.82602 0.0
C73 C 0.00656 0.22381 0.87832 0.0
O74 O 0.01841 0.2447 0.85483 0.0
N75 N 0.01613 0.18223 0.78195 0.0
C76 C 0.02689 0.22797 0.73233 0.0
C77 C 0.02818 0.21479 0.77422 0.0
C78 C 0.00738 0.1777 0.74428 0.0
N79 N 0.01407 0.20361 0.71333 0.0
O80 O -0.00543 0.10847 0.79846 0.0
H81 H 0.0389 0.22481 0.79557 0.0
H82 H -0.00187 0.15147 0.7371 0.0
O83 O 0.00289 0.18307 0.86866 0.0
C84 C 0.00102 0.07463 0.7777 0.0
O85 O 0.01826 0.06617 0.78257 0.0
N86 N 0.0386 0.15752 0.84496 0.0
C87 C 0.07583 0.16244 0.85656 0.0
C88 C 0.06398 0.17969 0.88768 0.0
C89 C 0.04521 0.17555 0.8819 0.0
C90 C 0.04993 0.13916 0.81582 0.0
C91 C 0.06836 0.14026 0.8214 0.0
H92 H 0.03623 0.18589 0.90719 0.0
H93 H 0.04445 0.12239 0.7882 0.0
H94 H -0.0077 0.11413 0.90262 0.0
H95 H 0.0319 1.01858 0.9283 0.0
H96 H 0.03635 0.2491 0.71576 0.0
H97 H 0.06908 0.19594 0.91606 0.0
H98 H 0.07663 0.12351 0.79793 0.0
C99 C 0.20155 0.27224 0.87528 0.0
C100 C 0.20637 0.29401 0.91212 0.0
N101 N 0.22171 0.27569 0.92677 0.0
N102 N 0.21385 0.24055 0.86732 0.0
C103 C 0.2261 0.24405 0.89871 0.0
H104 H 0.18961 0.27835 0.85625 0.0
Co105 Co 0.21376 0.19863 0.82541 0.0
C106 C 0.22322 0.11385 0.87722 0.0
O107 O 0.21136 0.09315 0.8536 0.0
N108 N 0.21343 0.1557 0.78143 0.0
C109 C 0.20251 0.11025 0.73177 0.0
C110 C 0.20111 0.12376 0.77354 0.0
C111 C 0.22244 0.15946 0.74405 0.0
N112 N 0.21566 0.13374 0.71305 0.0
O113 O 0.23525 0.22909 0.79748 0.0
H114 H 0.19027 0.11426 0.79475 0.0
H115 H 0.23202 0.18501 0.73705 0.0
O116 O 0.22691 0.15464 0.86781 0.0
C117 C 0.22884 0.26296 0.77669 0.0
O118 O 0.21163 0.27173 0.7818 0.0
N119 N 0.19122 0.18087 0.84474 0.0
C120 C 0.154 0.17642 0.85657 0.0
C121 C 0.16585 0.15851 0.88736 0.0
C122 C 0.18463 0.16241 0.88148 0.0
C123 C 0.17988 0.19984 0.81594 0.0
C124 C 0.16146 0.19904 0.82169 0.0
H125 H 0.19362 0.15148 0.90653 0.0
H126 H 0.18536 0.2168 0.78842 0.0
H127 H 0.23796 0.22346 0.90126 0.0
H128 H 0.19885 0.31992 0.92779 0.0
H129 H 0.19296 0.08947 0.71504 0.0
H130 H 0.16076 0.14187 0.91553 0.0
H131 H 0.15321 0.2163 0.79852 0.0
C132 C 0.95104 0.81541 0.62629 0.0
C133 C 0.95564 0.79375 0.66338 0.0
N134 N 0.97096 0.81191 0.67832 0.0
N135 N 0.96346 0.84685 0.61847 0.0
C136 C 0.97556 0.8433 0.65019 0.0
H137 H 0.93916 0.80946 0.60703 0.0
Co138 Co 0.96358 0.88877 0.57655 0.0
C139 C 0.97303 0.97333 0.62873 0.0
O140 O 0.96111 0.99407 0.60527 0.0
N141 N 0.96345 0.93173 0.53253 0.0
C142 C 0.95275 0.9775 0.48284 0.0
C143 C 0.95131 0.96407 0.52464 0.0
C144 C 0.97241 0.92762 0.49513 0.0
N145 N 0.96576 0.95354 0.46411 0.0
O146 O 0.98506 0.85794 0.54888 0.0
H147 H 0.94049 0.97387 0.5458 0.0
H148 H 0.98184 0.90171 0.48812 0.0
O149 O 0.97675 0.93259 0.61912 0.0
C150 C 0.97861 0.82415 0.52805 0.0
O151 O 0.96137 0.81568 0.53293 0.0
N152 N 0.94104 0.9069 0.59558 0.0
C153 C 0.90382 0.91165 0.60729 0.0
C154 C 0.91567 0.92895 0.63838 0.0
C155 C 0.93445 0.9249 0.63254 0.0
C156 C 0.9297 0.88846 0.56649 0.0
C157 C 0.91127 0.88948 0.57213 0.0
H158 H 0.94344 0.93528 0.6578 0.0
H159 H 0.93517 0.87172 0.53885 0.0
H160 H 0.98745 0.86371 0.65295 0.0
H161 H 0.94799 0.76805 0.67902 0.0
H162 H 0.94329 0.99856 0.46611 0.0
H163 H 0.91058 0.94519 0.66677 0.0
H164 H 0.903 0.87271 0.54868 0.0
C165 C 0.77796 1.02175 0.62556 0.0
C166 C 0.77296 1.04387 0.66204 0.0
N167 N 0.75755 1.02571 0.67644 0.0
N168 N 0.76571 0.98997 0.61755 0.0
C169 C 0.75332 0.99374 0.64859 0.0
H170 H 0.78995 1.02779 0.60673 0.0
Co171 Co 0.76592 0.94807 0.57562 0.0
C172 C 0.75634 0.86319 0.62703 0.0
O173 O 0.76806 0.84231 0.60314 0.0
N174 N 0.76635 0.90517 0.53158 0.0
C175 C 0.77746 0.8602 0.48175 0.0
C176 C 0.77878 0.87349 0.52361 0.0
C177 C 0.75733 0.9089 0.49419 0.0
N178 N 0.76423 0.88353 0.46307 0.0
O179 O 0.74444 0.97847 0.54749 0.0
H180 H 0.78962 0.86402 0.54487 0.0
H181 H 0.74764 0.93425 0.48728 0.0
O182 O 0.75277 0.9041 0.61786 0.0
C183 C 0.75085 1.01236 0.52676 0.0
O184 O 0.76803 1.02124 0.53209 0.0
N185 N 0.78844 0.93033 0.59516 0.0
C186 C 0.82565 0.92576 0.60723 0.0
C187 C 0.81378 0.90756 0.63778 0.0
C188 C 0.79501 0.9115 0.63178 0.0
C189 C 0.7998 0.94955 0.56661 0.0
C190 C 0.81821 0.94871 0.5725 0.0
H191 H 0.78599 0.90025 0.65662 0.0
H192 H 0.79435 0.9667 0.53917 0.0
H193 H 0.74146 0.97319 0.65097 0.0
H194 H 0.78039 0.06999 0.67762 0.0
H195 H 0.7871 0.83972 0.46495 0.0
H196 H 0.81886 0.89064 0.66583 0.0
H197 H 0.82649 0.96613 0.54952 0.0
C198 C 0.9525 1.02274 0.13429 0.0
C199 C 0.9576 0.04479 0.09784 0.0
N200 N 0.973 1.02642 0.0836 0.0
N201 N 0.96467 0.99079 0.14242 0.0
C202 C 0.97712 0.99439 0.11151 0.0
H203 H 0.94048 1.02895 0.15299 0.0
Co204 Co 0.96433 0.94884 0.18432 0.0
C205 C 0.97376 0.86384 0.1328 0.0
O206 O 0.96195 0.8431 0.15652 0.0
N207 N 0.96373 0.90591 0.2283 0.0
C208 C 0.95248 0.86077 0.2778 0.0
C209 C 0.95128 0.87424 0.23598 0.0
C210 C 0.97263 0.90954 0.26586 0.0
N211 N 0.96566 0.884 0.29677 0.0
O212 O 0.98586 0.97887 0.21258 0.0
H213 H 0.94048 0.86493 0.21454 0.0
H214 H 0.98227 0.93491 0.27302 0.0
O215 O 0.97741 0.90468 0.14207 0.0
C216 C 0.97951 1.01291 0.2332 0.0
O217 O 0.96235 1.02204 0.22777 0.0
N218 N 0.94176 0.93152 0.16469 0.0
C219 C 0.90452 0.92745 0.15292 0.0
C220 C 0.91632 0.90893 0.12238 0.0
C221 C 0.93511 0.91263 0.12821 0.0
C222 C 0.93048 0.95104 0.19323 0.0
C223 C 0.91206 0.95048 0.18745 0.0
H224 H 0.94408 0.90109 0.10339 0.0
H225 H 0.93599 0.96816 0.22058 0.0
H226 H 0.98894 0.97366 0.10924 0.0
H227 H 0.95024 0.07098 0.08215 0.0
H228 H 0.94281 0.84021 0.29437 0.0
H229 H 0.91118 0.89193 0.09448 0.0
H230 H 0.90386 0.96817 0.21039 0.0
C231 C 0.77964 0.81732 0.13469 0.0
C232 C 0.77541 0.7957 0.09735 0.0
N233 N 0.76018 0.8137 0.08171 0.0
N234 N 0.76706 0.84856 0.142 0.0
C235 C 0.75525 0.84494 0.10969 0.0
H236 H 0.79139 0.81154 0.15448 0.0
Co237 Co 0.76658 0.89052 0.18389 0.0
C238 C 0.75706 0.97475 0.13131 0.0
O239 O 0.7689 0.99564 0.15484 0.0
N240 N 0.76633 0.9335 0.2279 0.0
C241 C 0.77672 0.9793 0.2779 0.0
C242 C 0.7783 0.96614 0.23606 0.0
C243 C 0.7573 0.92902 0.26519 0.0
N244 N 0.76379 0.95491 0.29641 0.0
O245 O 0.74513 0.85921 0.2111 0.0
H246 H 0.78914 0.97624 0.21511 0.0
H247 H 0.74799 0.90285 0.272 0.0
O248 O 0.75338 0.93401 0.14101 0.0
C249 C 0.75164 0.82564 0.23219 0.0
O250 O 0.76894 0.81759 0.22774 0.0
N251 N 0.7891 0.90916 0.16531 0.0
C252 C 0.82633 0.9141 0.15367 0.0
C253 C 0.81446 0.93087 0.12232 0.0
C254 C 0.79569 0.92671 0.12814 0.0
C255 C 0.80046 0.89129 0.19474 0.0
C256 C 0.81889 0.89246 0.18918 0.0
H257 H 0.7867 0.93653 0.10265 0.0
H258 H 0.79499 0.87476 0.22251 0.0
H259 H 0.74333 0.86518 0.10639 0.0
H260 H 0.78326 0.77013 0.08203 0.0
H261 H 0.78606 1.00044 0.29484 0.0
H262 H 0.81953 0.94668 0.09368 0.0
H263 H 0.82717 0.87606 0.21288 0.0
C264 C 0.02812 0.77304 0.88379 0.0
C265 C 0.02281 0.795 0.84744 0.0
N266 N 0.00738 0.77648 0.83358 0.0
N267 N 0.01605 0.74098 0.89223 0.0
C268 C 0.00345 0.74444 0.86161 0.0
H269 H 0.0402 0.77938 0.90221 0.0
Co270 Co 0.01663 0.69915 0.93421 0.0
C271 C 0.00721 0.61396 0.88291 0.0
O272 O 0.01911 0.59332 0.90652 0.0
N273 N 0.01747 0.65636 0.97832 0.0
C274 C 0.02902 0.61155 0.02779 0.0
C275 C 0.03003 0.62486 0.98588 0.0
C276 C 0.00871 0.66004 0.01603 0.0
N277 N 0.01584 0.63465 0.04689 0.0
O278 O -0.00489 0.72894 0.96271 0.0
H279 H 0.04075 0.61555 0.96425 0.0
H280 H -0.00099 0.68527 0.02327 0.0
O281 O 0.00351 0.65477 0.89223 0.0
C282 C 0.00142 0.7631 0.98316 0.0
O283 O 0.01853 0.77249 0.97743 0.0
N284 N 0.03918 0.68205 0.91428 0.0
C285 C 0.07639 0.67786 0.90224 0.0
C286 C 0.06455 0.65921 0.87188 0.0
C287 C 0.04577 0.66296 0.87784 0.0
C288 C 0.05051 0.70179 0.94257 0.0
C289 C 0.06892 0.70117 0.93666 0.0
H290 H 0.03677 0.65123 0.85317 0.0
H291 H 0.04504 0.71905 0.96989 0.0
H292 H -0.00834 0.72361 0.85964 0.0
H293 H 0.03005 0.82125 0.83156 0.0
H294 H 0.03876 0.59104 0.04424 0.0
H295 H 0.06966 0.642 0.84405 0.0
H296 H 0.07717 0.71894 0.95945 0.0
C297 C 0.20156 0.56635 0.88482 0.0
C298 C 0.20606 0.5446 0.84774 0.0
N299 N 0.22137 0.56261 0.83262 0.0
N300 N 0.21404 0.5977 0.89247 0.0
C301 C 0.22607 0.59402 0.86065 0.0
H302 H 0.18971 0.56054 0.9042 0.0
Co303 Co 0.21425 0.63962 0.93437 0.0
C304 C 0.22386 0.72403 0.88203 0.0
O305 O 0.21202 0.74505 0.90544 0.0
N306 N 0.21418 0.68253 0.97843 0.0
C307 C 0.20337 0.7282 0.02804 0.0
C308 C 0.20214 0.71516 0.9861 0.0
C309 C 0.22287 0.67784 0.01617 0.0
N310 N 0.21614 0.70371 0.04711 0.0
O311 O 0.23571 0.6087 0.96196 0.0
H312 H 0.19146 0.7253 0.96467 0.0
H313 H 0.23209 0.65155 0.02338 0.0
O314 O 0.22748 0.68326 0.89176 0.0
C315 C 0.22925 0.57491 0.98276 0.0
O316 O 0.21199 0.56659 0.97798 0.0
N317 N 0.19173 0.65798 0.91529 0.0
C318 C 0.15454 0.66317 0.90319 0.0
C319 C 0.16648 0.68015 0.87213 0.0
C320 C 0.18523 0.67589 0.87819 0.0
C321 C 0.18032 0.63985 0.94439 0.0
C322 C 0.1619 0.64113 0.93859 0.0
H323 H 0.19427 0.686 0.85294 0.0
H324 H 0.18572 0.62312 0.97214 0.0
H325 H 0.23797 0.61435 0.85772 0.0
H326 H 0.19834 0.51895 0.83222 0.0
H327 H 0.19391 0.74937 0.04456 0.0
H328 H 0.16146 0.69628 0.84358 0.0
H329 H 0.15355 0.62463 0.96206 0.0
C330 C 0.02805 0.56359 0.37665 0.0
C331 C 0.02313 0.54115 0.413 0.0
N332 N 0.00764 0.55886 0.42745 0.0
N333 N 0.01577 0.59542 0.369 0.0
C334 C 0.00339 0.59124 0.40001 0.0
H335 H 0.04002 0.55773 0.35769 0.0
Co336 Co 0.01613 0.63774 0.32741 0.0
C337 C 0.00653 0.72252 0.37916 0.0
O338 O 0.01835 0.74331 0.35552 0.0
N339 N 0.0168 0.6809 0.28356 0.0
C340 C 0.02832 0.72598 0.23431 0.0
C341 C 0.02927 0.71263 0.27621 0.0
C342 C 0.00815 0.6771 0.24569 0.0
N343 N 0.01529 0.7026 0.21496 0.0
O344 O -0.00534 0.60785 0.29879 0.0
H345 H 0.03995 0.72203 0.29794 0.0
H346 H -0.00142 0.65166 0.23825 0.0
O347 O 0.00291 0.68168 0.36979 0.0
C348 C 0.00105 0.574 0.27796 0.0
O349 O 0.01823 0.565 0.28327 0.0
N350 N 0.03863 0.65511 0.34745 0.0
C351 C 0.07579 0.66039 0.35989 0.0
C352 C 0.0638 0.67806 0.39047 0.0
C353 C 0.04506 0.67378 0.38426 0.0
C354 C 0.05011 0.63617 0.31897 0.0
C355 C 0.06851 0.6374 0.32503 0.0
H356 H 0.03596 0.68475 0.40904 0.0
H357 H 0.04477 0.61911 0.29138 0.0
H358 H -0.00815 0.61273 0.40352 0.0
H359 H 0.0305 0.51457 0.42805 0.0
H360 H 0.03805 0.74661 0.21804 0.0
H361 H 0.06878 0.69495 0.41862 0.0
H362 H 0.07692 0.62041 0.302 0.0
C363 C 0.20165 0.77417 0.37606 0.0
C364 C 0.20673 0.79664 0.41227 0.0
N365 N 0.22227 0.77889 0.42644 0.0
N366 N 0.21388 0.74227 0.36823 0.0
C367 C 0.22638 0.74645 0.39898 0.0
H368 H 0.18963 0.7801 0.35729 0.0
Co369 Co 0.21344 0.69994 0.32667 0.0
C370 C 0.2231 0.61503 0.378 0.0
O371 O 0.21134 0.59429 0.3541 0.0
N372 N 0.21273 0.65674 0.28292 0.0
C373 C 0.20135 0.61182 0.23339 0.0
C374 C 0.2001 0.62552 0.27513 0.0
C375 C 0.2218 0.65977 0.24556 0.0
N376 N 0.21476 0.6344 0.21461 0.0
O377 O 0.23489 0.72977 0.29797 0.0
H378 H 0.18923 0.61655 0.29648 0.0
H379 H 0.23171 0.68458 0.23853 0.0
O380 O 0.22666 0.65598 0.36895 0.0
C381 C 0.2285 0.76353 0.27699 0.0
O382 O 0.21133 0.77262 0.28231 0.0
N383 N 0.19096 0.68263 0.34684 0.0
C384 C 0.15381 0.67763 0.35958 0.0
C385 C 0.16583 0.65955 0.3899 0.0
C386 C 0.18457 0.6637 0.38356 0.0
C387 C 0.17946 0.7019 0.31859 0.0
C388 C 0.16107 0.70084 0.32483 0.0
H389 H 0.1937 0.65241 0.40818 0.0
H390 H 0.18477 0.7191 0.29105 0.0
H391 H 0.23793 0.72494 0.40227 0.0
H392 H 0.19945 0.82329 0.4274 0.0
H393 H 0.19162 0.59149 0.21673 0.0
H394 H 0.16089 0.64245 0.41796 0.0
H395 H 0.15265 0.71813 0.30201 0.0
C396 C 0.95113 0.31617 0.12613 0.0
C397 C 0.9558 0.29448 0.16316 0.0
N398 N 0.97119 0.31248 0.17786 0.0
N399 N 0.96359 0.34748 0.11811 0.0
C400 C 0.97576 0.34382 0.14965 0.0
H401 H 0.9392 0.31032 0.10702 0.0
Co402 Co 0.96374 0.3893 0.07608 0.0
C403 C 0.97331 0.47388 0.12801 0.0
O404 O 0.96153 0.49481 0.10432 0.0
N405 N 0.96367 0.43216 0.03195 0.0
C406 C 0.95298 0.47761 0.98196 0.0
C407 C 0.95152 0.46442 0.02383 0.0
C408 C 0.97269 0.42792 0.99463 0.0
N409 N 0.96605 0.45363 0.96342 0.0
O410 O 0.9852 0.35836 0.04856 0.0
H411 H 0.94069 0.47433 0.04492 0.0
H412 H 0.98216 0.40207 0.98781 0.0
O413 O 0.97693 0.43305 0.11857 0.0
C414 C 0.97874 0.32457 0.02776 0.0
O415 O 0.9615 0.31609 0.03274 0.0
N416 N 0.94122 0.40761 0.09505 0.0
C417 C 0.90401 0.41261 0.10681 0.0
C418 C 0.91589 0.43 0.13779 0.0
C419 C 0.93465 0.42584 0.13193 0.0
C420 C 0.92986 0.38911 0.06605 0.0
C421 C 0.91143 0.39026 0.07171 0.0
H422 H 0.94366 0.4363 0.15713 0.0
H423 H 0.93531 0.37221 0.03848 0.0
H424 H 0.9877 0.36409 0.15221 0.0
H425 H 0.94814 0.26885 0.17891 0.0
H426 H 0.94354 0.49854 0.96505 0.0
H427 H 0.91082 0.4464 0.16612 0.0
H428 H 0.90314 0.37343 0.04835 0.0
C429 C 0.77798 0.52224 0.12499 0.0
C430 C 0.77306 0.54429 0.16157 0.0
N431 N 0.75774 0.52593 0.17626 0.0
N432 N 0.76577 0.49031 0.11721 0.0
C433 C 0.75349 0.4939 0.14849 0.0
H434 H 0.78991 0.5284 0.10598 0.0
Co435 Co 0.76605 0.44834 0.07534 0.0
C436 C 0.75665 0.36349 0.12728 0.0
O437 O 0.76855 0.34274 0.10381 0.0
N438 N 0.76663 0.40544 0.0313 0.0
C439 C 0.77805 0.36042 0.9819 0.0
C440 C 0.77899 0.37346 0.02388 0.0
C441 C 0.75806 0.40973 0.99337 0.0
N442 N 0.76514 0.38424 0.96257 0.0
O443 O 0.74451 0.47844 0.04714 0.0
H444 H 0.78963 0.36378 0.0456 0.0
H445 H 0.74862 0.43552 0.98598 0.0
O446 O 0.75294 0.40424 0.11771 0.0
C447 C 0.75085 0.51248 0.02652 0.0
O448 O 0.76803 0.52147 0.03181 0.0
N449 N 0.78862 0.4309 0.09493 0.0
C450 C 0.82584 0.42667 0.10692 0.0
C451 C 0.814 0.4086 0.13762 0.0
C452 C 0.79522 0.41238 0.13166 0.0
C453 C 0.79994 0.45004 0.06624 0.0
C454 C 0.81835 0.44936 0.07209 0.0
H455 H 0.78623 0.40125 0.1566 0.0
H456 H 0.79445 0.467 0.03873 0.0
H457 H 0.74169 0.47317 0.15113 0.0
H458 H 0.7805 0.57048 0.17703 0.0
H459 H 0.78775 0.33969 0.96559 0.0
H460 H 0.81911 0.39188 0.16575 0.0
H461 H 0.82659 0.46672 0.04899 0.0
C462 C 0.95184 0.52281 0.63565 0.0
C463 C 0.95666 0.54577 0.59952 0.0
N464 N 0.97227 0.52877 0.585 0.0
N465 N 0.96432 0.49136 0.64308 0.0
C466 C 0.97669 0.49627 0.61216 0.0
H467 H 0.93984 0.52807 0.65465 0.0
Co468 Co 0.96434 0.4488 0.68441 0.0
C469 C 0.97395 0.3646 0.63199 0.0
O470 O 0.96213 0.34375 0.65558 0.0
N471 N 0.96411 0.40533 0.72801 0.0
C472 C 0.95316 0.35972 0.77751 0.0
C473 C 0.95181 0.37333 0.73575 0.0
C474 C 0.9731 0.40895 0.76546 0.0
N475 N 0.96628 0.38321 0.7964 0.0
O476 O 0.98578 0.47924 0.71265 0.0
H477 H 0.94097 0.3639 0.71447 0.0
H478 H 0.98267 0.43449 0.7726 0.0
O479 O 0.97759 0.40542 0.64152 0.0
C480 C 0.97927 0.5127 0.73386 0.0
O481 O 0.962 0.521 0.72916 0.0
N482 N 0.94185 0.43091 0.66479 0.0
C483 C 0.90469 0.4259 0.65202 0.0
C484 C 0.91672 0.40903 0.6211 0.0
C485 C 0.93545 0.4132 0.6275 0.0
C486 C 0.93034 0.44897 0.69374 0.0
C487 C 0.91194 0.4478 0.68759 0.0
H488 H 0.94457 0.4031 0.6024 0.0
H489 H 0.93566 0.46549 0.72168 0.0
H490 H 0.98835 0.47522 0.60857 0.0
H491 H 0.94914 0.57222 0.58468 0.0
H492 H 0.94358 0.33896 0.79413 0.0
H493 H 0.91178 0.39301 0.59243 0.0
H494 H 0.90352 0.46421 0.71099 0.0
C495 C 0.77821 0.31454 0.63166 0.0
C496 C 0.77283 0.29246 0.59547 0.0
N497 N 0.75742 0.31108 0.58159 0.0
N498 N 0.7662 0.34677 0.64001 0.0
C499 C 0.75357 0.34333 0.60945 0.0
H500 H 0.79028 0.30808 0.65009 0.0
Co501 Co 0.76686 0.38855 0.68202 0.0
C502 C 0.75733 0.47395 0.63114 0.0
O503 O 0.76914 0.49461 0.655 0.0
N504 N 0.76778 0.43127 0.72616 0.0
C505 C 0.77943 0.47573 0.77575 0.0
C506 C 0.78043 0.46248 0.73383 0.0
C507 C 0.75896 0.42775 0.76381 0.0
N508 N 0.76614 0.4529 0.79474 0.0
O509 O 0.74533 0.3589 0.71063 0.0
H510 H 0.79118 0.47168 0.71222 0.0
H511 H 0.74914 0.40277 0.77095 0.0
O512 O 0.75372 0.43304 0.64019 0.0
C513 C 0.75162 0.32468 0.7311 0.0
O514 O 0.7687 0.31507 0.72528 0.0
N515 N 0.78939 0.40558 0.66194 0.0
C516 C 0.8266 0.41019 0.65003 0.0
C517 C 0.81474 0.4291 0.61983 0.0
C518 C 0.79596 0.42516 0.62573 0.0
C519 C 0.80074 0.38552 0.69001 0.0
C520 C 0.81915 0.38634 0.68413 0.0
H521 H 0.78694 0.43723 0.60123 0.0
H522 H 0.7953 0.36796 0.71717 0.0
H523 H 0.74179 0.36426 0.60747 0.0
H524 H 0.78 0.266 0.57974 0.0
H525 H 0.78921 0.49601 0.79227 0.0
H526 H 0.81983 0.44674 0.59224 0.0
H527 H 0.82744 0.36842 0.70676 0.0
C528 C 0.52809 0.2736 0.88374 0.0
C529 C 0.52265 0.2956 0.84751 0.0
N530 N 0.50717 0.27711 0.83396 0.0
N531 N 0.51604 0.24155 0.89239 0.0
C532 C 0.50333 0.24507 0.86205 0.0
H533 H 0.54024 0.2799 0.90192 0.0
Co534 Co 0.51669 0.1996 0.93423 0.0
C535 C 0.50725 0.1145 0.88298 0.0
O536 O 0.51915 0.09386 0.9066 0.0
N537 N 0.51755 0.15664 0.97814 0.0
C538 C 0.52894 0.11148 0.0275 0.0
C539 C 0.53018 0.12534 0.9858 0.0
C540 C 0.50852 0.15963 0.01554 0.0
N541 N 0.51554 0.13405 0.04637 0.0
O542 O 0.49519 0.22929 0.96291 0.0
H543 H 0.54104 0.1164 0.96438 0.0
H544 H 0.49864 0.18451 0.02267 0.0
O545 O 0.50356 0.15532 0.89225 0.0
C546 C 0.50153 0.26336 0.98347 0.0
O547 O 0.51864 0.27273 0.97772 0.0
N548 N 0.53922 0.1826 0.91412 0.0
C549 C 0.57642 0.17859 0.9018 0.0
C550 C 0.56455 0.1599 0.87152 0.0
C551 C 0.54577 0.16356 0.87762 0.0
C552 C 0.55057 0.20236 0.94234 0.0
C553 C 0.56897 0.20184 0.93628 0.0
H554 H 0.53675 0.1518 0.85302 0.0
H555 H 0.54513 0.21956 0.96973 0.0
H556 H 0.49152 0.22426 0.86031 0.0
H557 H 0.52985 0.32182 0.83148 0.0
H558 H 0.53866 0.09101 0.04408 0.0
H559 H 0.56963 0.14272 0.84365 0.0
H560 H 0.57724 0.21963 0.95902 0.0
C561 C 0.70158 0.067 0.8837 0.0
C562 C 0.70616 0.04506 0.84679 0.0
N563 N 0.72152 0.06295 0.83177 0.0
N564 N 0.71406 0.09836 0.89136 0.0
C565 C 0.72615 0.09451 0.85969 0.0
H566 H 0.6897 0.06125 0.903 0.0
Co567 Co 0.71427 0.14031 0.93325 0.0
C568 C 0.7239 0.22475 0.8812 0.0
O569 O 0.71214 0.24574 0.90486 0.0
N570 N 0.71425 0.18327 0.97727 0.0
C571 C 0.70358 0.22883 0.02715 0.0
C572 C 0.70212 0.21561 0.9853 0.0
C573 C 0.72325 0.17904 0.01464 0.0
N574 N 0.71661 0.20478 0.04579 0.0
O575 O 0.73571 0.10929 0.96089 0.0
H576 H 0.69129 0.22551 0.96417 0.0
H577 H 0.73269 0.15312 0.02155 0.0
O578 O 0.72748 0.1839 0.89067 0.0
C579 C 0.72922 0.07562 0.98182 0.0
O580 O 0.71196 0.0673 0.97699 0.0
N581 N 0.69176 0.1587 0.91419 0.0
C582 C 0.65457 0.16396 0.90222 0.0
C583 C 0.66648 0.18106 0.87118 0.0
C584 C 0.68524 0.17678 0.87718 0.0
C585 C 0.68036 0.14045 0.94324 0.0
C586 C 0.66193 0.14176 0.93749 0.0
H587 H 0.69427 0.18703 0.85196 0.0
H588 H 0.68577 0.12364 0.97093 0.0
H589 H 0.73808 0.11477 0.85686 0.0
H590 H 0.69847 1.01929 0.83134 0.0
H591 H 0.69412 0.24976 0.04399 0.0
H592 H 0.66144 0.19733 0.84273 0.0
H593 H 0.65359 0.12518 0.96093 0.0
C594 C 0.52881 0.0638 0.37589 0.0
C595 C 0.52404 1.041 0.41215 0.0
N596 N 0.50832 0.05769 0.42639 0.0
N597 N 0.51621 0.09485 0.36811 0.0
C598 C 0.50381 0.08984 0.39893 0.0
H599 H 0.54088 0.05873 0.35706 0.0
Co600 Co 0.51599 0.13721 0.32657 0.0
C601 C 0.50653 0.2214 0.37941 0.0
O602 O 0.5184 0.24226 0.35598 0.0
N603 N 0.51603 0.18047 0.28279 0.0
C604 C 0.5268 0.22647 0.23343 0.0
C605 C 0.52808 0.21308 0.27525 0.0
C606 C 0.50731 0.17608 0.24506 0.0
N607 N 0.51402 0.20216 0.21426 0.0
O608 O 0.49449 0.10651 0.29885 0.0
H609 H 0.53881 0.22296 0.29663 0.0
H610 H 0.4981 0.14982 0.23771 0.0
O611 O 0.50283 0.18067 0.36966 0.0
C612 C 0.50093 0.07272 0.27798 0.0
O613 O 0.51818 0.06427 0.28275 0.0
N614 N 0.53856 0.15528 0.34552 0.0
C615 C 0.5758 0.16047 0.35661 0.0
C616 C 0.56401 0.17746 0.38798 0.0
C617 C 0.54523 0.17319 0.38244 0.0
C618 C 0.54984 0.13716 0.31614 0.0
C619 C 0.56828 0.13838 0.32147 0.0
H620 H 0.53629 0.18338 0.40788 0.0
H621 H 0.54432 0.12051 0.2885 0.0
H622 H 0.49205 0.11063 0.40226 0.0
H623 H 0.53165 1.01488 0.42728 0.0
H624 H 0.53627 0.2477 0.21699 0.0
H625 H 0.56915 0.19363 0.41636 0.0
H626 H 0.57651 0.1218 0.29781 0.0
C627 C 0.70105 0.27097 0.37449 0.0
C628 C 0.70555 0.29269 0.41159 0.0
N629 N 0.72084 0.27456 0.42678 0.0
N630 N 0.7135 0.23952 0.36689 0.0
C631 C 0.72551 0.2431 0.39878 0.0
H632 H 0.68922 0.27693 0.35504 0.0
Co633 Co 0.71375 0.19764 0.32491 0.0
C634 C 0.72332 0.11304 0.37685 0.0
O635 O 0.71161 0.09213 0.35297 0.0
N636 N 0.71376 0.15475 0.28084 0.0
C637 C 0.70315 0.10936 0.23076 0.0
C638 C 0.70159 0.12259 0.27259 0.0
C639 C 0.72288 0.15885 0.24364 0.0
N640 N 0.71627 0.13322 0.21237 0.0
O641 O 0.73521 0.22865 0.29744 0.0
H642 H 0.69071 0.11278 0.29355 0.0
H643 H 0.7324 0.18461 0.23693 0.0
O644 O 0.72692 0.15391 0.36752 0.0
C645 C 0.72874 0.26234 0.27647 0.0
O646 O 0.71149 0.27072 0.28123 0.0
N647 N 0.69122 0.1793 0.34378 0.0
C648 C 0.65399 0.17456 0.35558 0.0
C649 C 0.66587 0.15695 0.38648 0.0
C650 C 0.68464 0.16101 0.38062 0.0
C651 C 0.67986 0.19789 0.31479 0.0
C652 C 0.66144 0.19692 0.32051 0.0
H653 H 0.69364 0.15044 0.40581 0.0
H654 H 0.68532 0.21481 0.28724 0.0
H655 H 0.73742 0.22273 0.40172 0.0
H656 H 0.69786 0.31846 0.42704 0.0
H657 H 0.6937 0.08855 0.21375 0.0
H658 H 0.66081 0.1405 0.41479 0.0
H659 H 0.65318 0.214 0.29722 0.0
C660 C 0.45146 0.81264 0.12666 0.0
C661 C 0.4565 0.79013 0.1629 0.0
N662 N 0.47212 0.80751 0.1769 0.0
N663 N 0.4638 0.8442 0.11865 0.0
C664 C 0.47633 0.83977 0.14932 0.0
H665 H 0.43938 0.807 0.10801 0.0
Co666 Co 0.46352 0.88652 0.07706 0.0
C667 C 0.47297 0.97118 0.12912 0.0
O668 O 0.46111 0.99196 0.10551 0.0
N669 N 0.46298 0.92973 0.03326 0.0
C670 C 0.45174 0.97522 0.98396 0.0
C671 C 0.45057 0.96158 0.02573 0.0
C672 C 0.47181 0.92611 0.99562 0.0
N673 N 0.46486 0.95191 0.96486 0.0
O674 O 0.48505 0.8566 0.04877 0.0
H675 H 0.4398 0.97092 0.04722 0.0
H676 H 0.4814 0.90064 0.98831 0.0
O677 O 0.47665 0.93038 0.11966 0.0
C678 C 0.4787 0.82271 0.02793 0.0
O679 O 0.46154 0.81365 0.03318 0.0
N680 N 0.44097 0.90392 0.0967 0.0
C681 C 0.40376 0.90882 0.10841 0.0
C682 C 0.41562 0.9266 0.13923 0.0
C683 C 0.43439 0.92248 0.1334 0.0
C684 C 0.42962 0.88497 0.06794 0.0
C685 C 0.4112 0.88599 0.07364 0.0
H686 H 0.44339 0.93348 0.15838 0.0
H687 H 0.43508 0.86799 0.04043 0.0
H688 H 0.48795 0.86103 0.15246 0.0
H689 H 0.44912 0.76375 0.1782 0.0
H690 H 0.44211 0.99605 0.96753 0.0
H691 H 0.41053 0.94339 0.16731 0.0
H692 H 0.40291 0.86889 0.05045 0.0
C693 C 0.27829 1.0215 0.12499 0.0
C694 C 0.2735 1.0434 0.16176 0.0
N695 N 0.25812 1.0253 0.1764 0.0
N696 N 0.26594 0.98994 0.11706 0.0
C697 C 0.25369 0.99364 0.14841 0.0
H698 H 0.29024 1.02744 0.10598 0.0
Co699 Co 0.26601 0.94804 0.07515 0.0
C700 C 0.25628 0.86337 0.1269 0.0
O701 O 0.26803 0.84232 0.10324 0.0
N702 N 0.26634 0.90518 0.03107 0.0
C703 C 0.27742 0.85987 0.98148 0.0
C704 C 0.27858 0.87298 0.02342 0.0
C705 C 0.25761 0.90951 0.99335 0.0
N706 N 0.26449 0.88386 0.96242 0.0
O707 O 0.24457 0.97869 0.04713 0.0
H708 H 0.28927 0.8631 0.04494 0.0
H709 H 0.2482 0.9354 0.98614 0.0
O710 O 0.25275 0.90424 0.11746 0.0
C711 C 0.25102 1.01255 0.02645 0.0
O712 O 0.26824 1.02114 0.03159 0.0
N713 N 0.28849 0.92996 0.09468 0.0
C714 C 0.32566 0.92471 0.10716 0.0
C715 C 0.31366 0.90715 0.13779 0.0
C716 C 0.29492 0.91144 0.13157 0.0
C717 C 0.29996 0.94865 0.06604 0.0
C718 C 0.31836 0.9474 0.07209 0.0
H719 H 0.28583 0.90076 0.15649 0.0
H720 H 0.29461 0.9657 0.03843 0.0
H721 H 0.24181 0.97319 0.15098 0.0
H722 H 0.28106 0.06925 0.17741 0.0
H723 H 0.287 0.83898 0.96497 0.0
H724 H 0.31863 0.89048 0.16609 0.0
H725 H 0.32675 0.96436 0.049 0.0
C726 C 0.45242 1.02424 0.63471 0.0
C727 C 0.4574 0.04655 0.59833 0.0
N728 N 0.47291 1.0288 0.58407 0.0
N729 N 0.46469 0.99242 0.64255 0.0
C730 C 0.47712 0.99652 0.61164 0.0
H731 H 0.44042 1.03013 0.65353 0.0
Co732 Co 0.46427 0.9501 0.68413 0.0
C733 C 0.47387 0.86526 0.63245 0.0
O734 O 0.46208 0.84443 0.65616 0.0
N735 N 0.46355 0.90693 0.72794 0.0
C736 C 0.45206 0.86171 0.77708 0.0
C737 C 0.45106 0.87526 0.73526 0.0
C738 C 0.47225 0.91052 0.76577 0.0
N739 N 0.46514 0.8849 0.79643 0.0
O740 O 0.48576 0.97987 0.71278 0.0
H741 H 0.44035 0.86599 0.71354 0.0
H742 H 0.48187 0.93588 0.77324 0.0
O743 O 0.47747 0.90613 0.64177 0.0
C744 C 0.47937 1.01372 0.7336 0.0
O745 O 0.4622 1.02273 0.72829 0.0
N746 N 0.44176 0.93283 0.66402 0.0
C747 C 0.40461 0.92785 0.65135 0.0
C748 C 0.41661 0.90996 0.62091 0.0
C749 C 0.43535 0.9141 0.62723 0.0
C750 C 0.43028 0.9519 0.6924 0.0
C751 C 0.41189 0.95085 0.68621 0.0
H752 H 0.44446 0.90298 0.60253 0.0
H753 H 0.43562 0.96897 0.72 0.0
H754 H 0.48866 0.97501 0.60827 0.0
H755 H 0.45003 0.07303 0.58309 0.0
H756 H 0.44233 0.84104 0.79334 0.0
H757 H 0.41165 0.89303 0.59278 0.0
H758 H 0.40349 0.96803 0.70912 0.0
C759 C 0.27902 0.81383 0.63347 0.0
C760 C 0.274 0.79115 0.59733 0.0
N761 N 0.25839 0.8085 0.58318 0.0
N762 N 0.26667 0.84546 0.64127 0.0
C763 C 0.25417 0.84093 0.61057 0.0
H764 H 0.29107 0.80822 0.65223 0.0
Co765 Co 0.26689 0.88782 0.68279 0.0
C766 C 0.25726 0.97247 0.63099 0.0
O767 O 0.26905 0.99325 0.65477 0.0
N768 N 0.26738 0.93106 0.72654 0.0
C769 C 0.27854 0.97628 0.77609 0.0
C770 C 0.27984 0.96268 0.73433 0.0
C771 C 0.25836 0.92766 0.76395 0.0
N772 N 0.26528 0.95322 0.7949 0.0
O773 O 0.24543 0.8577 0.71118 0.0
H774 H 0.29069 0.97193 0.71301 0.0
H775 H 0.24863 0.90246 0.77102 0.0
O776 O 0.25367 0.93158 0.64025 0.0
C777 C 0.25184 0.82397 0.7322 0.0
O778 O 0.26904 0.81508 0.72708 0.0
N779 N 0.28939 0.90542 0.66299 0.0
C780 C 0.32656 0.91081 0.65082 0.0
C781 C 0.31459 0.92842 0.62013 0.0
C782 C 0.29585 0.92407 0.6262 0.0
C783 C 0.30085 0.88656 0.6916 0.0
C784 C 0.31926 0.88786 0.68568 0.0
H785 H 0.28676 0.93495 0.60131 0.0
H786 H 0.29549 0.86949 0.71917 0.0
H787 H 0.24254 0.86217 0.6073 0.0
H788 H 0.28137 0.76462 0.58225 0.0
H789 H 0.28819 0.99686 0.79275 0.0
H790 H 0.31958 0.94528 0.59198 0.0
H791 H 0.32765 0.87091 0.7088 0.0
C792 C 0.52879 0.77377 0.38424 0.0
C793 C 0.52378 0.79623 0.34795 0.0
N794 N 0.50814 0.77889 0.33396 0.0
N795 N 0.51642 0.74228 0.39229 0.0
C796 C 0.5039 0.7467 0.3616 0.0
H797 H 0.54087 0.77938 0.4029 0.0
Co798 Co 0.51665 0.70003 0.43394 0.0
C799 C 0.5071 0.61529 0.38218 0.0
O800 O 0.51897 0.5946 0.40585 0.0
N801 N 0.51714 0.65687 0.47778 0.0
C802 C 0.52826 0.61143 0.52724 0.0
C803 C 0.52955 0.62508 0.48549 0.0
C804 C 0.50818 0.66041 0.51525 0.0
N805 N 0.51508 0.63468 0.54614 0.0
O806 O 0.49519 0.73029 0.46228 0.0
H807 H 0.54037 0.61574 0.46415 0.0
H808 H 0.49854 0.6858 0.5224 0.0
O809 O 0.50345 0.65615 0.39147 0.0
C810 C 0.50161 0.76411 0.4831 0.0
O811 O 0.5188 0.77294 0.47787 0.0
N812 N 0.53917 0.6824 0.41424 0.0
C813 C 0.57636 0.67745 0.40213 0.0
C814 C 0.56443 0.65974 0.37142 0.0
C815 C 0.54567 0.66387 0.37745 0.0
C816 C 0.55057 0.70126 0.44292 0.0
C817 C 0.56899 0.70019 0.43704 0.0
H818 H 0.53662 0.65297 0.35252 0.0
H819 H 0.54517 0.71824 0.4705 0.0
H820 H 0.49227 0.72549 0.35847 0.0
H821 H 0.53118 0.82256 0.33262 0.0
H822 H 0.53788 0.59069 0.54383 0.0
H823 H 0.56947 0.64302 0.34323 0.0
H824 H 0.57732 0.71725 0.46017 0.0
C825 C 0.70204 0.56609 0.38397 0.0
C826 C 0.70675 0.54417 0.34716 0.0
N827 N 0.72202 0.56246 0.33213 0.0
N828 N 0.71435 0.59785 0.39158 0.0
C829 C 0.72648 0.59428 0.35995 0.0
H830 H 0.69018 0.56002 0.40325 0.0
Co831 Co 0.71426 0.63978 0.43348 0.0
C832 C 0.72372 0.72451 0.38136 0.0
O833 O 0.71185 0.74535 0.40483 0.0
N834 N 0.71387 0.68263 0.47759 0.0
C835 C 0.7026 0.72779 0.52708 0.0
C836 C 0.70164 0.71491 0.48505 0.0
C837 C 0.72237 0.67798 0.51557 0.0
N838 N 0.71538 0.70355 0.54641 0.0
O839 O 0.7358 0.60939 0.46141 0.0
H840 H 0.69103 0.72486 0.46336 0.0
H841 H 0.73167 0.65189 0.52294 0.0
O842 O 0.72741 0.68376 0.39101 0.0
C843 C 0.72945 0.57539 0.48208 0.0
O844 O 0.71224 0.5666 0.47702 0.0
N845 N 0.69171 0.65755 0.41414 0.0
C846 C 0.65449 0.6623 0.40219 0.0
C847 C 0.66637 0.67994 0.37135 0.0
C848 C 0.68514 0.6759 0.37729 0.0
C849 C 0.68035 0.63878 0.44298 0.0
C850 C 0.66193 0.63976 0.43719 0.0
H851 H 0.69415 0.68665 0.35223 0.0
H852 H 0.68581 0.62185 0.47055 0.0
H853 H 0.7383 0.6149 0.35708 0.0
H854 H 0.69919 0.51814 0.33176 0.0
H855 H 0.69297 0.74871 0.5434 0.0
H856 H 0.6613 0.69651 0.34309 0.0
H857 H 0.65365 0.62272 0.46042 0.0
C858 C 0.52865 0.56453 0.87614 0.0
C859 C 0.52386 0.54277 0.91301 0.0
N860 N 0.5085 0.56099 0.92763 0.0
N861 N 0.51629 0.59612 0.86815 0.0
C862 C 0.50406 0.59255 0.89951 0.0
H863 H 0.5406 0.55857 0.85716 0.0
Co864 Co 0.51639 0.63812 0.82634 0.0
C865 C 0.5067 0.7227 0.87823 0.0
O866 O 0.51856 0.74363 0.85479 0.0
N867 N 0.51674 0.68113 0.78239 0.0
C868 C 0.5277 0.72685 0.73301 0.0
C869 C 0.52897 0.71333 0.77481 0.0
C870 C 0.50791 0.67717 0.74477 0.0
N871 N 0.51471 0.70309 0.71395 0.0
O872 O 0.49496 0.60762 0.79822 0.0
H873 H 0.5397 0.72302 0.79627 0.0
H874 H 0.49846 0.65139 0.73751 0.0
O875 O 0.50311 0.6819 0.86866 0.0
C876 C 0.50142 0.57382 0.77745 0.0
O877 O 0.51865 0.56525 0.7825 0.0
N878 N 0.53886 0.65607 0.84601 0.0
C879 C 0.57598 0.66149 0.85882 0.0
C880 C 0.56393 0.67856 0.88956 0.0
C881 C 0.54521 0.6742 0.88315 0.0
C882 C 0.55039 0.6377 0.81732 0.0
C883 C 0.56879 0.6391 0.82348 0.0
H884 H 0.53606 0.68453 0.90811 0.0
H885 H 0.5451 0.62085 0.78953 0.0
H886 H 0.49219 0.61307 0.90207 0.0
H887 H 0.53144 0.51698 0.92877 0.0
H888 H 0.53723 0.74787 0.71652 0.0
H889 H 0.56885 0.69495 0.91806 0.0
H890 H 0.57726 0.62259 0.80025 0.0
C891 C 0.70277 0.77401 0.87714 0.0
C892 C 0.7084 0.79622 0.91303 0.0
N893 N 0.7238 0.77737 0.92666 0.0
N894 N 0.71462 0.74144 0.86873 0.0
C895 C 0.7274 0.7448 0.89895 0.0
H896 H 0.69066 0.78066 0.85893 0.0
Co897 Co 0.71365 0.6996 0.82683 0.0
C898 C 0.7232 0.61398 0.87726 0.0
O899 O 0.71142 0.5934 0.85327 0.0
N900 N 0.71241 0.65683 0.78277 0.0
C901 C 0.70046 0.61272 0.73331 0.0
C902 C 0.69955 0.62612 0.7752 0.0
C903 C 0.72126 0.65987 0.74511 0.0
N904 N 0.7139 0.63495 0.71425 0.0
O905 O 0.73515 0.72884 0.79769 0.0
H906 H 0.68879 0.6173 0.79692 0.0
H907 H 0.73128 0.68436 0.73793 0.0
O908 O 0.7268 0.65493 0.86841 0.0
C909 C 0.72886 0.76304 0.77721 0.0
O910 O 0.7118 0.77281 0.78326 0.0
N911 N 0.69116 0.68297 0.84748 0.0
C912 C 0.654 0.67845 0.86013 0.0
C913 C 0.66595 0.65925 0.88995 0.0
C914 C 0.68471 0.66314 0.88369 0.0
C915 C 0.67972 0.70336 0.81984 0.0
C916 C 0.66133 0.7026 0.82611 0.0
H917 H 0.6938 0.65074 0.90787 0.0
H918 H 0.68508 0.72103 0.79265 0.0
H919 H 0.7391 0.72361 0.90078 0.0
H920 H 0.70139 0.82296 0.92874 0.0
H921 H 0.69054 0.59276 0.71686 0.0
H922 H 0.66094 0.64136 0.91747 0.0
H923 H 0.65297 0.72068 0.80376 0.0
C924 C 0.45088 0.31525 0.6264 0.0
C925 C 0.45536 0.29379 0.66368 0.0
N926 N 0.47071 0.3118 0.67861 0.0
N927 N 0.46341 0.34641 0.61846 0.0
C928 C 0.47545 0.34287 0.65028 0.0
H929 H 0.43899 0.30944 0.60712 0.0
Co930 Co 0.46367 0.38824 0.57647 0.0
C931 C 0.47333 0.4727 0.6285 0.0
O932 O 0.46144 0.49356 0.60505 0.0
N933 N 0.4637 0.43112 0.5324 0.0
C934 C 0.45324 0.47722 0.4827 0.0
C935 C 0.45167 0.46372 0.52444 0.0
C936 C 0.47271 0.4269 0.49508 0.0
N937 N 0.4662 0.45302 0.46404 0.0
O938 O 0.48506 0.35696 0.54891 0.0
H939 H 0.44085 0.4737 0.54551 0.0
H940 H 0.48206 0.40079 0.48811 0.0
O941 O 0.47696 0.4319 0.61895 0.0
C942 C 0.47853 0.32327 0.52808 0.0
O943 O 0.46126 0.31513 0.53288 0.0
N944 N 0.44118 0.40683 0.59546 0.0
C945 C 0.404 0.41246 0.6074 0.0
C946 C 0.41595 0.4293 0.63851 0.0
C947 C 0.4347 0.42481 0.63254 0.0
C948 C 0.42974 0.38877 0.56637 0.0
C949 C 0.41132 0.39029 0.57208 0.0
H950 H 0.44376 0.43482 0.65781 0.0
H951 H 0.43513 0.37196 0.53866 0.0
H952 H 0.48739 0.3631 0.65301 0.0
H953 H 0.4476 0.26838 0.67948 0.0
H954 H 0.44389 0.49849 0.46591 0.0
H955 H 0.41095 0.4455 0.66701 0.0
H956 H 0.40295 0.37387 0.54859 0.0
C957 C 0.27776 0.52333 0.62617 0.0
C958 C 0.2726 0.54534 0.66258 0.0
N959 N 0.25722 0.52687 0.67678 0.0
N960 N 0.26564 0.49131 0.61801 0.0
C961 C 0.25316 0.49482 0.64888 0.0
H962 H 0.28977 0.52962 0.60751 0.0
Co963 Co 0.26611 0.44943 0.5761 0.0
C964 C 0.25665 0.36428 0.62755 0.0
O965 O 0.2685 0.34357 0.6039 0.0
N966 N 0.26685 0.4066 0.53207 0.0
C967 C 0.27832 0.36155 0.48275 0.0
C968 C 0.27932 0.37488 0.52464 0.0
C969 C 0.25816 0.41046 0.49425 0.0
N970 N 0.26525 0.38493 0.4635 0.0
O971 O 0.24457 0.47936 0.54767 0.0
H972 H 0.29002 0.36546 0.54632 0.0
H973 H 0.24858 0.43595 0.48689 0.0
O974 O 0.25299 0.40513 0.61823 0.0
C975 C 0.25087 0.51352 0.52718 0.0
O976 O 0.26801 0.52277 0.5327 0.0
N977 N 0.28866 0.43218 0.59595 0.0
C978 C 0.32587 0.42779 0.60798 0.0
C979 C 0.31402 0.40929 0.6384 0.0
C980 C 0.29524 0.41314 0.63244 0.0
C981 C 0.29999 0.45175 0.56757 0.0
C982 C 0.31841 0.45103 0.57348 0.0
H983 H 0.28624 0.40156 0.65715 0.0
H984 H 0.29453 0.469 0.54021 0.0
H985 H 0.24137 0.474 0.65112 0.0
H986 H 0.27992 0.57158 0.67828 0.0
H987 H 0.28803 0.34091 0.46641 0.0
H988 H 0.31912 0.39212 0.66629 0.0
H989 H 0.32666 0.4687 0.55063 0.0
C990 C 0.4522 0.52274 0.13457 0.0
C991 C 0.45717 0.5446 0.09789 0.0
N992 N 0.47255 0.52624 0.08354 0.0
N993 N 0.46444 0.49096 0.1427 0.0
C994 C 0.47681 0.49449 0.11161 0.0
H995 H 0.4402 0.52886 0.15335 0.0
Co996 Co 0.46419 0.44898 0.18451 0.0
C997 C 0.47382 0.36411 0.13304 0.0
O998 O 0.46199 0.34334 0.1567 0.0
N999 N 0.46371 0.40597 0.22843 0.0
C1000 C 0.45269 0.36041 0.27785 0.0
C1001 C 0.45132 0.37416 0.23615 0.0
C1002 C 0.47273 0.40942 0.26583 0.0
N1003 N 0.46589 0.38363 0.29671 0.0
O1004 O 0.48563 0.47935 0.21285 0.0
H1005 H 0.44048 0.36484 0.21483 0.0
H1006 H 0.48237 0.43482 0.27296 0.0
O1007 O 0.47742 0.40498 0.14232 0.0
C1008 C 0.47918 0.51321 0.23358 0.0
O1009 O 0.46197 0.52192 0.22838 0.0
N1010 N 0.44171 0.43129 0.16471 0.0
C1011 C 0.40455 0.42644 0.15204 0.0
C1012 C 0.41654 0.40865 0.12153 0.0
C1013 C 0.43528 0.41273 0.12784 0.0
C1014 C 0.43024 0.45025 0.19318 0.0
C1015 C 0.41184 0.44921 0.18703 0.0
H1016 H 0.44438 0.40181 0.10304 0.0
H1017 H 0.43558 0.46727 0.2208 0.0
H1018 H 0.48865 0.47383 0.10926 0.0
H1019 H 0.44971 0.57057 0.08209 0.0
H1020 H 0.4431 0.33966 0.29447 0.0
H1021 H 0.41157 0.3919 0.0933 0.0
H1022 H 0.40345 0.46631 0.21002 0.0
C1023 C 0.27855 0.31447 0.13292 0.0
C1024 C 0.27347 0.29261 0.09635 0.0
N1025 N 0.25809 0.31108 0.08208 0.0
N1026 N 0.26638 0.3464 0.1411 0.0
C1027 C 0.25395 0.34296 0.11011 0.0
H1028 H 0.29056 0.30821 0.15164 0.0
Co1029 Co 0.26677 0.38827 0.18301 0.0
C1030 C 0.25726 0.4733 0.13157 0.0
O1031 O 0.26916 0.49395 0.15514 0.0
N1032 N 0.26743 0.43113 0.22705 0.0
C1033 C 0.27873 0.47632 0.27647 0.0
C1034 C 0.27988 0.46284 0.23465 0.0
C1035 C 0.2586 0.42745 0.26467 0.0
N1036 N 0.26559 0.45306 0.29551 0.0
O1037 O 0.24529 0.35822 0.21139 0.0
H1038 H 0.29063 0.47223 0.21313 0.0
H1039 H 0.24897 0.40207 0.2719 0.0
O1040 O 0.25358 0.43249 0.14093 0.0
C1041 C 0.25166 0.32419 0.232 0.0
O1042 O 0.26882 0.31509 0.22654 0.0
N1043 N 0.28929 0.40568 0.16319 0.0
C1044 C 0.32647 0.41053 0.1511 0.0
C1045 C 0.31456 0.42861 0.12053 0.0
C1046 C 0.2958 0.42452 0.12655 0.0
C1047 C 0.30069 0.38639 0.19165 0.0
C1048 C 0.3191 0.3874 0.18575 0.0
H1049 H 0.28675 0.43577 0.10175 0.0
H1050 H 0.29528 0.3692 0.2191 0.0
H1051 H 0.24213 0.36372 0.10783 0.0
H1052 H 0.28084 0.26649 0.08058 0.0
H1053 H 0.28838 0.49701 0.29295 0.0
H1054 H 0.3196 0.44562 0.09253 0.0
H1055 H 0.32744 0.37011 0.20874 0.0
C1056 C 0.98916 0.33731 0.23924 0.0
C1057 C 0.98017 0.30342 0.21734 0.0
H1058 H 0.00496 0.35519 0.29384 0.0
C1059 C 0.98017 0.26083 0.2342 0.0
H1060 H 0.989 0.37069 0.22727 0.0
C1061 C 0.98925 0.25209 0.27223 0.0
C1062 C -0.00165 0.28592 0.29398 0.0
H1063 H 0.97348 0.23422 0.21754 0.0
H1064 H 0.98945 0.21868 0.28411 0.0
C1065 C -0.00176 0.32858 0.27725 0.0
C1066 C 0.24015 1.00065 0.23786 0.0
C1067 C 0.24909 1.03449 0.21577 0.0
H1068 H 0.22463 0.98284 0.29294 0.0
C1069 C 0.24914 0.07712 0.23252 0.0
H1070 H 0.24026 0.96725 0.22597 0.0
C1071 C 0.24027 0.0859 0.27077 0.0
C1072 C 0.23131 0.05206 0.29286 0.0
H1073 H 0.25578 0.1037 0.2157 0.0
H1074 H 0.24015 0.1193 0.28266 0.0
C1075 C 0.23127 1.00943 0.27611 0.0
C1076 C 0.9823 0.07839 0.02788 0.0
C1077 C 0.98228 1.03571 0.04458 0.0
H1078 H -0.00873 0.12054 0.97769 0.0
C1079 C -0.00872 1.00189 0.02257 0.0
H1080 H 0.97565 0.10499 0.04466 0.0
C1081 C 0.00016 1.01065 0.98431 0.0
C1082 C 7e-05 0.05326 0.96748 0.0
H1083 H -0.00886 0.96847 0.03442 0.0
H1084 H 0.00678 0.98405 0.96746 0.0
C1085 C -0.00882 0.08714 0.98963 0.0
C1086 C 0.2487 0.25935 0.02627 0.0
C1087 C 0.24881 0.30199 0.043 0.0
H1088 H 0.23949 0.21733 0.97622 0.0
C1089 C 0.23984 0.33595 0.02109 0.0
H1090 H 0.25534 0.23266 0.04297 0.0
C1091 C 0.23083 0.32731 0.98295 0.0
C1092 C 0.23077 0.2847 0.96615 0.0
H1093 H 0.24005 0.36935 0.03297 0.0
H1094 H 0.22421 0.354 0.96621 0.0
C1095 C 0.23969 0.25072 0.98814 0.0
C1096 C -0.00227 0.82833 0.77807 0.0
C1097 C -0.0021 0.78567 0.79478 0.0
H1098 H 0.98852 0.87035 0.72799 0.0
C1099 C 0.98888 0.75174 0.77297 0.0
H1100 H 0.00439 0.855 0.79471 0.0
C1101 C 0.97986 0.76039 0.73485 0.0
C1102 C 0.97984 0.80297 0.71796 0.0
H1103 H 0.98913 0.71833 0.78486 0.0
H1104 H 0.97325 0.73371 0.71811 0.0
C1105 C 0.98872 0.83697 0.73997 0.0
C1106 C 0.73943 0.08714 0.77004 0.0
C1107 C 0.73042 0.05351 0.79229 0.0
H1108 H 0.75507 0.10448 0.71504 0.0
C1109 C 0.73028 1.01081 0.7757 0.0
H1110 H 0.73937 0.12059 0.78179 0.0
C1111 C 0.7392 1.00172 0.73757 0.0
C1112 C 0.74829 1.0353 0.71543 0.0
H1113 H 0.72358 0.98438 0.79263 0.0
H1114 H 0.73928 0.96824 0.72588 0.0
C1115 C 0.74835 0.07805 0.73192 0.0
C1116 C 0.75161 0.76198 0.02511 0.0
C1117 C 0.7516 0.80465 0.04175 0.0
H1118 H 0.74231 0.71959 0.97544 0.0
C1119 C 0.74282 0.83857 0.01937 0.0
H1120 H 0.75817 0.73537 0.04212 0.0
C1121 C 0.73382 0.82971 0.9813 0.0
C1122 C 0.73355 0.78688 0.96501 0.0
H1123 H 0.74301 0.87202 0.03114 0.0
H1124 H 0.72718 0.85631 0.96449 0.0
C1125 C 0.7426 0.7531 0.98702 0.0
C1126 C 0.23897 0.58751 0.77069 0.0
C1127 C 0.23014 0.55359 0.79289 0.0
H1128 H 0.25445 0.60543 0.71562 0.0
C1129 C 0.23006 0.51099 0.77606 0.0
H1130 H 0.23885 0.6209 0.78262 0.0
C1131 C 0.23894 0.50226 0.73778 0.0
C1132 C 0.2479 0.53613 0.71576 0.0
H1133 H 0.22349 0.48436 0.79295 0.0
H1134 H 0.2391 0.46885 0.72594 0.0
C1135 C 0.24784 0.5788 0.73242 0.0
C1136 C -3e-05 0.53179 0.54227 0.0
C1137 C 0.98128 0.53832 0.54566 0.0
H1138 H 0.02308 0.53308 0.50143 0.0
C1139 C 0.97134 0.55099 0.50949 0.0
H1140 H 0.00792 0.52246 0.56994 0.0
C1141 C 0.97997 0.5567 0.47036 0.0
C1142 C -0.00135 0.54997 0.46694 0.0
H1143 H 0.95685 0.55531 0.51118 0.0
H1144 H 0.97202 0.56602 0.44267 0.0
C1145 C 0.0086 0.53746 0.50314 0.0
C1146 C 0.22169 0.80048 0.50209 0.0
C1147 C 0.23145 0.78783 0.46568 0.0
H1148 H 0.22269 0.81544 0.56887 0.0
C1149 C 0.25014 0.78093 0.46868 0.0
H1150 H 0.20721 0.80501 0.50071 0.0
C1151 C 0.25895 0.78653 0.50761 0.0
C1152 C 0.24919 0.79925 0.54401 0.0
H1153 H 0.25794 0.77153 0.44082 0.0
H1154 H 0.27343 0.78202 0.50898 0.0
C1155 C 0.2305 0.80605 0.54102 0.0
C1156 C 0.73091 0.51045 0.27607 0.0
C1157 C 0.73095 0.55316 0.29266 0.0
H1158 H 0.73987 0.46807 0.22606 0.0
C1159 C 0.73981 0.58695 0.27031 0.0
H1160 H 0.72434 0.4839 0.29309 0.0
C1161 C 0.74863 0.57804 0.23202 0.0
C1162 C 0.74863 0.53531 0.21549 0.0
H1163 H 0.73969 0.62041 0.28206 0.0
H1164 H 0.75522 0.60459 0.21503 0.0
C1165 C 0.73973 0.50154 0.23778 0.0
C1166 C 0.73875 0.33535 0.52104 0.0
C1167 C 0.74784 0.3016 0.54299 0.0
H1168 H 0.72304 0.35299 0.46614 0.0
C1169 C 0.74766 0.25881 0.5266 0.0
H1170 H 0.73898 0.36883 0.53268 0.0
C1171 C 0.7386 0.2499 0.48861 0.0
C1172 C 0.72969 0.28374 0.4664 0.0
H1173 H 0.75435 0.23225 0.54336 0.0
H1174 H 0.73843 0.21645 0.47685 0.0
C1175 C 0.72969 0.32643 0.48303 0.0
C1176 C 0.4795 0.26063 0.73552 0.0
C1177 C 0.4795 0.30311 0.7184 0.0
H1178 H 0.48878 0.21881 0.78567 0.0
C1179 C 0.48838 0.33721 0.74024 0.0
H1180 H 0.47288 0.23388 0.71891 0.0
C1181 C 0.49741 0.32876 0.77837 0.0
C1182 C 0.4976 0.28617 0.79526 0.0
H1183 H 0.4882 0.37052 0.72808 0.0
H1184 H 0.5041 0.3555 0.79485 0.0
C1185 C 0.48854 0.25216 0.77366 0.0
C1186 C 0.50061 1.03084 0.54126 0.0
C1187 C 0.48191 1.03739 0.54454 0.0
H1188 H 0.52375 1.03209 0.50053 0.0
C1189 C 0.47196 0.04929 0.50816 0.0
H1190 H 0.50854 1.02194 0.5691 0.0
C1191 C 0.48059 0.05459 0.469 0.0
C1192 C 0.49931 0.04832 0.46576 0.0
H1193 H 0.45746 0.05349 0.50977 0.0
H1194 H 0.47264 0.06347 0.4412 0.0
C1195 C 0.50925 1.03622 0.5021 0.0
C1196 C 0.47149 0.78649 0.25272 0.0
C1197 C 0.48129 0.79861 0.21619 0.0
H1198 H 0.47244 0.77225 0.31967 0.0
C1199 C 0.49999 0.80519 0.21913 0.0
H1200 H 0.457 0.7822 0.25138 0.0
C1201 C 0.50878 0.79991 0.25813 0.0
C1202 C 0.49898 0.78779 0.29466 0.0
H1203 H 0.50782 0.81417 0.19118 0.0
H1204 H 0.52327 0.80421 0.25947 0.0
C1205 C 0.48028 0.78122 0.29172 0.0
C1206 C 0.49058 0.50111 0.02235 0.0
C1207 C 0.48169 0.53517 0.04427 0.0
H1208 H 0.50605 0.48282 0.96735 0.0
C1209 C 0.48177 0.57775 0.02736 0.0
H1210 H 0.49038 0.46775 0.03437 0.0
C1211 C 0.49068 0.58622 0.98909 0.0
C1212 C 0.49952 0.55213 0.96712 0.0
H1213 H 0.47519 0.60451 0.04406 0.0
H1214 H 0.49087 0.61957 0.97704 0.0
C1215 C 0.49949 0.50958 0.98408 0.0
C1216 C 0.03106 0.15872 0.61048 0.0
C1217 C 0.01489 0.14748 0.58984 0.0
H1218 H 0.0434 0.18712 0.6656 0.0
C1219 C -0.00166 0.15757 0.60935 0.0
H1220 H 0.04398 0.15256 0.59544 0.0
C1221 C -0.002 0.17831 0.64921 0.0
C1222 C 0.01421 0.18988 0.66955 0.0
H1223 H 0.98575 0.14999 0.59332 0.0
H1224 H 0.98517 0.18488 0.66453 0.0
C1225 C 0.03072 0.17987 0.64987 0.0
C1226 C 0.19972 0.17922 0.6095 0.0
C1227 C 0.2161 0.18984 0.58956 0.0
H1228 H 0.18679 0.15127 0.66406 0.0
C1229 C 0.23244 0.17887 0.60966 0.0
H1230 H 0.18695 0.18603 0.59397 0.0
C1231 C 0.23235 0.15801 0.64947 0.0
C1232 C 0.21592 0.14721 0.66919 0.0
H1233 H 0.24518 0.18594 0.59414 0.0
H1234 H 0.24503 0.15084 0.66529 0.0
C1235 C 0.19963 0.15796 0.64884 0.0
C1236 C 0.94951 0.90862 0.36062 0.0
C1237 C 0.96583 0.89749 0.34061 0.0
H1238 H 0.93677 0.93694 0.41524 0.0
C1239 C 0.98223 0.90788 0.36067 0.0
H1240 H 0.9367 0.90225 0.34513 0.0
C1241 C 0.98228 0.9287 0.40049 0.0
C1242 C 0.96592 0.94004 0.42026 0.0
H1243 H -0.00507 0.90041 0.34511 0.0
H1244 H -0.005 0.93544 0.41626 0.0
C1245 C 0.94956 0.92984 0.39997 0.0
C1246 C 0.74739 0.92917 0.35988 0.0
C1247 C 0.7637 0.94092 0.34013 0.0
H1248 H 0.73486 0.90011 0.41505 0.0
C1249 C 0.7801 0.93061 0.36019 0.0
H1250 H 0.73463 0.93597 0.34425 0.0
C1251 C 0.78024 0.9089 0.39931 0.0
C1252 C 0.76397 0.89738 0.41932 0.0
H1253 H 0.79286 0.93802 0.34491 0.0
H1254 H 0.79309 0.90248 0.41465 0.0
C1255 C 0.74752 0.90786 0.39948 0.0
C1256 C -0.00089 0.65823 0.11066 0.0
C1257 C 0.01556 0.64776 0.09086 0.0
H1258 H 0.9862 0.68545 0.16621 0.0
C1259 C 0.03183 0.65826 0.11141 0.0
H1260 H 0.98645 0.6512 0.09474 0.0
C1261 C 0.03169 0.679 0.15103 0.0
C1262 C 0.01528 0.68933 0.17103 0.0
H1263 H 0.04468 0.65179 0.09617 0.0
H1264 H 0.04444 0.68565 0.16669 0.0
C1265 C -0.00103 0.67859 0.15071 0.0
C1266 C 0.19909 0.65905 0.15003 0.0
C1267 C 0.21524 0.64759 0.17067 0.0
H1268 H 0.18679 0.68762 0.09489 0.0
C1269 C 0.2318 0.65745 0.15111 0.0
H1270 H 0.18616 0.65307 0.16509 0.0
C1271 C 0.23217 0.67819 0.11124 0.0
C1272 C 0.21598 0.68997 0.0909 0.0
H1273 H 0.24438 0.6497 0.16713 0.0
H1274 H 0.24501 0.68459 0.0959 0.0
C1275 C 0.19946 0.68018 0.11062 0.0
C1276 C 0.98274 0.40752 0.86034 0.0
C1277 C 0.96638 0.39685 0.84021 0.0
H1278 H -0.00462 0.43553 0.91588 0.0
C1279 C 0.95001 0.40795 0.86005 0.0
H1280 H -0.00453 0.40011 0.8449 0.0
C1281 C 0.94997 0.4294 0.89929 0.0
C1282 C 0.96629 0.43988 0.91964 0.0
H1283 H 0.93723 0.40138 0.8445 0.0
H1284 H 0.93715 0.43647 0.91443 0.0
C1285 C 0.98269 0.42858 0.90005 0.0
C1286 C 0.78197 0.42881 0.85935 0.0
C1287 C 0.76576 0.43971 0.83869 0.0
H1288 H 0.79442 0.40093 0.91465 0.0
C1289 C 0.74925 0.42948 0.85834 0.0
H1290 H 0.79487 0.4351 0.84424 0.0
C1291 C 0.749 0.40895 0.8983 0.0
C1292 C 0.76524 0.39778 0.91871 0.0
H1293 H 0.73663 0.43682 0.84233 0.0
H1294 H 0.73619 0.40225 0.91367 0.0
C1295 C 0.78172 0.4079 0.8989 0.0
C1296 C 0.49844 0.1567 0.1099 0.0
C1297 C 0.51502 0.14688 0.09039 0.0
H1298 H 0.48519 0.18352 0.1652 0.0
C1299 C 0.53116 0.15802 0.11122 0.0
H1300 H 0.48588 0.14917 0.09374 0.0
C1301 C 0.53076 0.17885 0.15077 0.0
C1302 C 0.51421 0.18864 0.17042 0.0
H1303 H 0.5441 0.15205 0.09622 0.0
H1304 H 0.54341 0.18606 0.16663 0.0
C1305 C 0.49804 0.17713 0.1499 0.0
C1306 C 0.73296 0.15822 0.14903 0.0
C1307 C 0.71653 0.14718 0.16865 0.0
H1308 H 0.74578 0.18677 0.09398 0.0
C1309 C 0.70024 0.15823 0.14846 0.0
H1310 H 0.74564 0.15084 0.16476 0.0
C1311 C 0.70032 0.17998 0.10937 0.0
C1312 C 0.7167 0.19082 0.08951 0.0
H1313 H 0.6874 0.15137 0.16363 0.0
H1314 H 0.68755 0.187 0.09394 0.0
C1315 C 0.73304 0.17957 0.10946 0.0
C1316 C 0.44885 0.90842 0.86052 0.0
C1317 C 0.46522 0.89794 0.84042 0.0
H1318 H 0.43596 0.9355 0.91556 0.0
C1319 C 0.48157 0.90828 0.86076 0.0
H1320 H 0.43607 0.90207 0.84485 0.0
C1321 C 0.48151 0.92836 0.90094 0.0
C1322 C 0.4651 0.939 0.92083 0.0
H1323 H 0.49431 0.90129 0.84517 0.0
H1324 H 0.4942 0.93507 0.91689 0.0
C1325 C 0.44879 0.9289 0.90025 0.0
C1326 C 0.28117 0.92895 0.85933 0.0
C1327 C 0.26493 0.93993 0.83882 0.0
H1328 H 0.2937 0.90078 0.91438 0.0
C1329 C 0.24845 0.92953 0.85849 0.0
H1330 H 0.29405 0.93534 0.84417 0.0
C1331 C 0.24825 0.90878 0.89836 0.0
C1332 C 0.26452 0.89753 0.9186 0.0
H1333 H 0.23581 0.93689 0.84257 0.0
H1334 H 0.23546 0.90198 0.9138 0.0
C1335 C 0.28097 0.90781 0.89875 0.0
C1336 C 0.53112 0.65871 0.61039 0.0
C1337 C 0.51483 0.64791 0.59006 0.0
H1338 H 0.54378 0.68647 0.6654 0.0
C1339 C 0.49839 0.65833 0.60996 0.0
H1340 H 0.54395 0.65231 0.59504 0.0
C1341 C 0.49829 0.67884 0.64994 0.0
C1342 C 0.51462 0.68983 0.67003 0.0
H1343 H 0.48572 0.65112 0.59416 0.0
H1344 H 0.48555 0.6856 0.66558 0.0
C1345 C 0.53102 0.67962 0.6499 0.0
C1346 C 0.73094 0.65763 0.65064 0.0
C1347 C 0.71437 0.648 0.67026 0.0
H1348 H 0.7442 0.68443 0.59536 0.0
C1349 C 0.69823 0.65942 0.64954 0.0
H1350 H 0.74351 0.64987 0.66669 0.0
C1351 C 0.69863 0.68031 0.60998 0.0
C1352 C 0.71517 0.6899 0.59024 0.0
H1353 H 0.6853 0.65359 0.66461 0.0
H1354 H 0.68597 0.68773 0.59421 0.0
C1355 C 0.73134 0.67816 0.61068 0.0
C1356 C 0.48266 0.42806 0.40039 0.0
C1357 C 0.46633 0.43949 0.42022 0.0
H1358 H 0.49524 0.39975 0.34491 0.0
C1359 C 0.44994 0.42937 0.40002 0.0
H1360 H 0.4954 0.43472 0.41612 0.0
C1361 C 0.44984 0.40815 0.36068 0.0
C1362 C 0.46613 0.39696 0.34058 0.0
H1363 H 0.43717 0.43654 0.41535 0.0
H1364 H 0.43701 0.40186 0.34525 0.0
C1365 C 0.48256 0.40726 0.36056 0.0
C1366 C 0.24892 0.42928 0.3593 0.0
C1367 C 0.26534 0.43993 0.33947 0.0
H1368 H 0.2361 0.40187 0.41488 0.0
C1369 C 0.28165 0.42953 0.35996 0.0
H1370 H 0.23624 0.43622 0.34341 0.0
C1371 C 0.28157 0.40873 0.39955 0.0
C1372 C 0.26519 0.39823 0.41958 0.0
H1373 H 0.29448 0.43613 0.34469 0.0
H1374 H 0.29434 0.40216 0.41517 0.0
C1375 C 0.24885 0.40886 0.39933 0.0
C1376 C 0.10622 0.1701 0.43773 0.0
C1377 C 0.09645 0.17185 0.39917 0.0
H1378 H 0.13153 0.17079 0.46862 0.0
C1379 C 0.10606 0.17033 0.3602 0.0
H1380 H 0.09953 0.16948 0.46857 0.0
C1381 C 0.12502 0.16745 0.36027 0.0
C1382 C 0.13462 0.16683 0.39929 0.0
H1383 H 0.09902 0.1718 0.32983 0.0
H1384 H 0.13207 0.16525 0.32996 0.0
C1385 C 0.12485 0.16947 0.43777 0.0
C1386 C 0.12441 0.17038 0.89775 0.0
C1387 C 0.13401 0.17159 0.85876 0.0
H1388 H 0.09842 0.16583 0.9281 0.0
C1389 C 0.1242 0.16997 0.82023 0.0
H1390 H 0.13146 0.17179 0.92811 0.0
C1391 C 0.10557 0.16982 0.82026 0.0
C1392 C 0.09581 0.16741 0.85877 0.0
H1393 H 0.13086 0.16907 0.78936 0.0
H1394 H 0.09888 0.17128 0.78943 0.0
C1395 C 0.10544 0.16787 0.89776 0.0
C1396 C 0.85544 0.91933 0.57093 0.0
C1397 C 0.84564 0.92084 0.60945 0.0
H1398 H 0.88076 0.92067 0.54017 0.0
C1399 C 0.85524 0.91947 0.64846 0.0
H1400 H 0.84878 0.91856 0.54005 0.0
C1401 C 0.87421 0.91695 0.64848 0.0
C1402 C 0.88383 0.9166 0.60951 0.0
H1403 H 0.84818 0.92078 0.6788 0.0
H1404 H 0.88125 0.91482 0.67883 0.0
C1405 C 0.87407 0.91913 0.57099 0.0
C1406 C 0.87477 0.92178 0.18955 0.0
C1407 C 0.88452 0.92276 0.15093 0.0
H1408 H 0.8495 0.92375 0.2205 0.0
C1409 C 0.87486 0.92106 0.11203 0.0
H1410 H 0.88147 0.92126 0.22039 0.0
C1411 C 0.85588 0.9187 0.1122 0.0
C1412 C 0.84631 0.9189 0.15125 0.0
H1413 H 0.88187 0.92195 0.08161 0.0
H1414 H 0.84881 0.91627 0.08193 0.0
C1415 C 0.85614 0.92179 0.18965 0.0
C1416 C 0.10612 0.67174 0.93892 0.0
C1417 C 0.09639 0.67289 0.90028 0.0
H1418 H 0.1314 0.67314 0.96995 0.0
C1419 C 0.10604 0.67103 0.8614 0.0
H1420 H 0.09941 0.67136 0.96974 0.0
C1421 C 0.12501 0.66836 0.86162 0.0
C1422 C 0.13457 0.66834 0.9007 0.0
H1423 H 0.09903 0.67204 0.83096 0.0
H1424 H 0.13209 0.66584 0.83137 0.0
C1425 C 0.12475 0.67137 0.93908 0.0
C1426 C 0.10544 0.66885 0.32351 0.0
C1427 C 0.09573 0.66615 0.36207 0.0
H1428 H 0.13071 0.66931 0.29252 0.0
C1429 C 0.10536 0.66718 0.40102 0.0
H1430 H 0.0987 0.66985 0.29271 0.0
C1431 C 0.12432 0.67048 0.40094 0.0
C1432 C 0.13387 0.67203 0.3619 0.0
H1433 H 0.09836 0.66498 0.43139 0.0
H1434 H 0.13139 0.67224 0.43125 0.0
C1435 C 0.12406 0.66991 0.32341 0.0
C1436 C 0.85545 0.42063 0.14808 0.0
C1437 C 0.84584 0.42186 0.1091 0.0
H1438 H 0.88147 0.41608 0.17839 0.0
C1439 C 0.85561 0.42025 0.07056 0.0
H1440 H 0.84841 0.42203 0.17845 0.0
C1441 C 0.87425 0.42007 0.07056 0.0
C1442 C 0.88403 0.41765 0.10906 0.0
H1443 H 0.84894 0.41937 0.03969 0.0
H1444 H 0.88092 0.42151 0.03973 0.0
C1445 C 0.87442 0.41812 0.14806 0.0
C1446 C 0.85621 0.41667 0.6871 0.0
C1447 C 0.84657 0.41555 0.64833 0.0
H1448 H 0.88142 0.4155 0.71844 0.0
C1449 C 0.8563 0.41777 0.60958 0.0
H1450 H 0.84942 0.41676 0.71782 0.0
C1451 C 0.87526 0.42069 0.61005 0.0
C1452 C 0.88473 0.42064 0.64925 0.0
H1453 H 0.84935 0.41681 0.57906 0.0
H1454 H 0.88241 0.42343 0.5799 0.0
C1455 C 0.87484 0.41733 0.6875 0.0
C1456 C 0.60602 0.17187 0.86075 0.0
C1457 C 0.59641 0.17369 0.8997 0.0
H1458 H 0.63204 0.16673 0.83054 0.0
C1459 C 0.6062 0.17254 0.93827 0.0
H1460 H 0.59897 0.17288 0.83036 0.0
C1461 C 0.62483 0.1722 0.9383 0.0
C1462 C 0.6346 0.16919 0.89985 0.0
H1463 H 0.59953 0.17213 0.96913 0.0
H1464 H 0.63152 0.17394 0.96912 0.0
C1465 C 0.62499 0.16923 0.86083 0.0
C1466 C 0.62448 0.16855 0.39712 0.0
C1467 C 0.63399 0.16983 0.358 0.0
H1468 H 0.59857 0.16385 0.42783 0.0
C1469 C 0.62409 0.16833 0.31961 0.0
H1470 H 0.6316 0.16991 0.4274 0.0
C1471 C 0.60545 0.16816 0.3199 0.0
C1472 C 0.59579 0.16559 0.35855 0.0
H1473 H 0.63065 0.16747 0.28863 0.0
H1474 H 0.59869 0.1697 0.28917 0.0
C1475 C 0.60552 0.16599 0.39739 0.0
C1476 C 0.35512 0.91834 0.14884 0.0
C1477 C 0.34562 0.91938 0.10969 0.0
H1478 H 0.38105 0.91352 0.17961 0.0
C1479 C 0.35549 0.9171 0.07133 0.0
H1480 H 0.348 0.92025 0.17907 0.0
C1481 C 0.37412 0.91642 0.07162 0.0
C1482 C 0.38379 0.9142 0.11031 0.0
H1483 H 0.34889 0.91609 0.04037 0.0
H1484 H 0.38088 0.91735 0.04088 0.0
C1485 C 0.37408 0.91536 0.14914 0.0
C1486 C 0.35622 0.91916 0.6873 0.0
C1487 C 0.34651 0.91654 0.64871 0.0
H1488 H 0.38149 0.91947 0.71835 0.0
C1489 C 0.35615 0.91762 0.60979 0.0
H1490 H 0.34948 0.92013 0.71808 0.0
C1491 C 0.3751 0.92088 0.60992 0.0
C1492 C 0.38465 0.92233 0.64899 0.0
H1493 H 0.34915 0.91548 0.5794 0.0
H1494 H 0.38218 0.92268 0.57962 0.0
C1495 C 0.37484 0.92017 0.68745 0.0
C1496 C 0.62473 0.66949 0.43848 0.0
C1497 C 0.63451 0.66738 0.39996 0.0
H1498 H 0.59942 0.66893 0.4693 0.0
C1499 C 0.6249 0.66838 0.36096 0.0
H1500 H 0.63141 0.67054 0.46934 0.0
C1501 C 0.60593 0.67117 0.36094 0.0
C1502 C 0.59633 0.67218 0.39993 0.0
H1503 H 0.63194 0.66659 0.33062 0.0
H1504 H 0.59889 0.67301 0.33059 0.0
C1505 C 0.6061 0.66997 0.43846 0.0
C1506 C 0.62436 0.67171 0.82333 0.0
C1507 C 0.63405 0.67289 0.86202 0.0
H1508 H 0.59908 0.67237 0.79222 0.0
C1509 C 0.62439 0.67045 0.90086 0.0
H1510 H 0.6311 0.67182 0.79255 0.0
C1511 C 0.60544 0.66724 0.90056 0.0
C1512 C 0.59592 0.66715 0.86143 0.0
H1513 H 0.63139 0.67144 0.93132 0.0
H1514 H 0.59834 0.66435 0.93075 0.0
C1515 C 0.60573 0.67069 0.82309 0.0
C1516 C 0.37446 0.41796 0.64882 0.0
C1517 C 0.38404 0.41787 0.60979 0.0
H1518 H 0.34848 0.42183 0.67935 0.0
C1519 C 0.37425 0.42104 0.57136 0.0
H1520 H 0.38153 0.41535 0.6791 0.0
C1521 C 0.35562 0.42157 0.57142 0.0
C1522 C 0.34587 0.42275 0.61002 0.0
H1523 H 0.38092 0.42276 0.54053 0.0
H1524 H 0.34893 0.42126 0.54057 0.0
C1525 C 0.3555 0.42079 0.64895 0.0
C1526 C 0.35612 0.41812 0.18775 0.0
C1527 C 0.34643 0.41597 0.1491 0.0
H1528 H 0.38138 0.4178 0.2189 0.0
C1529 C 0.3561 0.41719 0.11022 0.0
H1530 H 0.34937 0.41896 0.21851 0.0
C1531 C 0.37506 0.42015 0.11045 0.0
C1532 C 0.38459 0.42114 0.14957 0.0
H1533 H 0.34911 0.41541 0.07979 0.0
H1534 H 0.38216 0.42209 0.0802 0.0
C1535 C 0.37475 0.41882 0.18797 0.0
C1536 C 0.00732 0.0469 0.33289 0.0
C1537 C 0.00065 0.08978 0.3424 0.0
H1538 H 0.00674 0.98973 0.29165 0.0
C1539 C 0.98848 0.10787 0.31263 0.0
H1540 H 0.01684 1.03124 0.35435 0.0
C1541 C 0.98279 0.08363 0.27615 0.0
C1542 C 0.98912 1.0404 0.26723 0.0
H1543 H 0.98308 0.1405 0.31783 0.0
H1544 H 0.9729 0.09864 0.25515 0.0
C1545 C 0.00174 1.02284 0.29618 0.0
C1546 C 0.24848 0.25363 0.27534 0.0
C1547 C 0.24208 0.29676 0.26611 0.0
H1548 H 0.24819 0.19694 0.3173 0.0
C1549 C 0.22935 0.3143 0.29476 0.0
H1550 H 0.25844 0.23865 0.25456 0.0
C1551 C 0.22374 0.29034 0.3315 0.0
C1552 C 0.23047 0.24759 0.34133 0.0
H1553 H 0.22429 0.34732 0.28997 0.0
H1554 H 0.21414 0.306 0.35272 0.0
C1555 C 0.24274 0.22949 0.31185 0.0
C1556 C 0.98173 0.25411 0.98419 0.0
C1557 C 0.98832 0.29696 0.99378 0.0
H1558 H 0.98188 0.19768 0.94192 0.0
C1559 C 0.00126 0.31422 0.96553 0.0
H1560 H 0.9716 0.23936 1.00466 0.0
C1561 C 0.00688 0.29032 0.92878 0.0
C1562 C -4e-05 0.24788 0.91855 0.0
H1563 H 0.00649 0.34702 0.97062 0.0
H1564 H 0.01665 0.3058 0.90786 0.0
C1565 C 0.98749 0.23 0.94768 0.0
C1566 C 0.24224 0.1074 0.94665 0.0
C1567 C 0.22983 0.08957 0.91734 0.0
H1568 H 0.25807 0.09791 1.00373 0.0
C1569 C 0.22296 0.04701 0.92732 0.0
H1570 H 0.24781 0.1398 0.94107 0.0
C1571 C 0.22857 1.02297 0.96402 0.0
C1572 C 0.24145 1.04021 0.99246 0.0
H1573 H 0.21324 1.03156 0.90625 0.0
H1574 H 0.2234 0.99008 0.96893 0.0
C1575 C 0.24798 0.08316 0.98311 0.0
C1576 C 0.97842 0.06408 0.7156 0.0
C1577 C -0.0086 0.04691 0.74385 0.0
H1578 H 0.96296 0.05544 0.65804 0.0
C1579 C -0.00201 1.00402 0.73437 0.0
H1580 H 0.97319 0.09691 0.7206 0.0
C1581 C -0.00781 0.97978 0.69796 0.0
C1582 C 0.97968 0.99755 0.66884 0.0
H1583 H 0.00815 0.98933 0.75483 0.0
H1584 H -0.00219 0.94744 0.69229 0.0
C1585 C 0.97275 1.04004 0.67896 0.0
C1586 C 0.75078 0.77211 0.71356 0.0
C1587 C 0.7384 0.79013 0.7428 0.0
H1588 H 0.76562 0.77994 0.65497 0.0
C1589 C 0.73225 0.83353 0.73394 0.0
H1590 H 0.75563 0.73886 0.71806 0.0
C1591 C 0.73787 0.85751 0.69725 0.0
C1592 C 0.7498 0.83898 0.66722 0.0
H1593 H 0.72255 0.84888 0.75517 0.0
H1594 H 0.73262 0.8903 0.69211 0.0
C1595 C 0.75629 0.79593 0.67664 0.0
C1596 C 0.97928 0.77274 0.04631 0.0
C1597 C -0.00815 0.79043 0.01737 0.0
H1598 H 0.96423 0.78093 0.10455 0.0
C1599 C -0.00186 0.83367 0.02636 0.0
H1600 H 0.97431 0.73963 0.0417 0.0
C1601 C -0.00754 0.85779 0.06293 0.0
C1602 C 0.98034 0.83956 0.09268 0.0
H1603 H 0.00799 0.84878 0.00536 0.0
H1604 H -0.00217 0.89042 0.06819 0.0
C1605 C 0.97371 0.79669 0.0831 0.0
C1606 C 0.73221 1.00512 0.02539 0.0
C1607 C 0.73881 0.04796 0.01578 0.0
H1608 H 0.73236 0.94866 0.06768 0.0
C1609 C 0.75177 0.06517 0.04403 0.0
H1610 H 0.72207 0.9904 1.00493 0.0
C1611 C 0.7574 1.04125 0.0808 0.0
C1612 C 0.75046 0.99882 0.09104 0.0
H1613 H 0.75701 0.09797 0.03894 0.0
H1614 H 0.76717 0.0567 0.10171 0.0
C1615 C 0.73797 0.98097 0.06191 0.0
C1616 C 0.00181 0.52308 0.79615 0.0
C1617 C 0.98889 0.54034 0.76777 0.0
H1618 H 0.0172 0.53165 0.85385 0.0
C1619 C 0.98234 0.58327 0.77718 0.0
H1620 H 0.00698 0.49019 0.79121 0.0
C1621 C 0.98811 0.60749 0.81362 0.0
C1622 C 0.00057 0.58965 0.84285 0.0
H1623 H 0.97222 0.59802 0.75664 0.0
H1624 H 0.98253 0.63987 0.81923 0.0
C1625 C 0.00745 0.5471 0.83282 0.0
C1626 C 0.22941 0.81431 0.79472 0.0
C1627 C 0.24223 0.79668 0.76636 0.0
H1628 H 0.21409 0.80633 0.85255 0.0
C1629 C 0.24867 0.75368 0.77597 0.0
H1630 H 0.22431 0.84725 0.78963 0.0
C1631 C 0.24288 0.72975 0.81258 0.0
C1632 C 0.23052 0.74797 0.84178 0.0
H1633 H 0.2587 0.73864 0.75542 0.0
H1634 H 0.24837 0.6973 0.81833 0.0
C1635 C 0.22375 0.79058 0.83156 0.0
C1636 C 0.00111 0.81359 0.46575 0.0
C1637 C 0.98823 0.79639 0.49422 0.0
H1638 H 0.01645 0.80491 0.40804 0.0
C1639 C 0.98172 0.7534 0.48496 0.0
H1640 H 0.00627 0.8465 0.47056 0.0
C1641 C 0.9875 0.72905 0.44859 0.0
C1642 C -0.0001 0.74685 0.41925 0.0
H1643 H 0.97164 0.73868 0.50558 0.0
H1644 H 0.98196 0.6966 0.44313 0.0
C1645 C 0.00674 0.78947 0.42913 0.0
C1646 C 0.22872 0.52342 0.46404 0.0
C1647 C 0.24125 0.54104 0.49315 0.0
H1648 H 0.2137 0.53184 0.40576 0.0
C1649 C 0.24747 0.5844 0.48444 0.0
H1650 H 0.22381 0.49022 0.46842 0.0
C1651 C 0.24175 0.60873 0.448 0.0
C1652 C 0.2297 0.59057 0.41805 0.0
H1653 H 0.25728 0.59945 0.50558 0.0
H1654 H 0.24705 0.64149 0.443 0.0
C1655 C 0.22314 0.54756 0.42736 0.0
C1656 C -0.00785 0.47968 0.19775 0.0
C1657 C 0.9799 0.49792 0.16827 0.0
H1658 H 0.00782 0.48856 0.25516 0.0
C1659 C 0.97317 0.54062 0.17822 0.0
H1660 H -0.00239 0.44716 0.1922 0.0
C1661 C 0.97876 0.5644 0.21508 0.0
C1662 C -0.00853 0.54672 0.24374 0.0
H1663 H 0.96358 0.55639 0.157 0.0
H1664 H 0.9737 0.59741 0.21997 0.0
C1665 C -0.00214 0.50364 0.23439 0.0
C1666 C 0.75131 0.27281 0.21431 0.0
C1667 C 0.73835 0.29002 0.24258 0.0
H1668 H 0.76672 0.28135 0.15668 0.0
C1669 C 0.73177 0.33291 0.23304 0.0
H1670 H 0.75653 0.23998 0.21935 0.0
C1671 C 0.73754 0.35711 0.19658 0.0
C1672 C 0.75003 0.33928 0.16744 0.0
H1673 H 0.72163 0.34763 0.2535 0.0
H1674 H 0.73194 0.38945 0.19087 0.0
C1675 C 0.75695 0.2968 0.17761 0.0
C1676 C 0.97947 0.27352 0.54547 0.0
C1677 C -0.00783 0.29101 0.51671 0.0
H1678 H 0.96431 0.28189 0.60348 0.0
C1679 C -0.00147 0.33417 0.5258 0.0
H1680 H 0.97443 0.24048 0.5408 0.0
C1681 C -0.0072 0.3584 0.56227 0.0
C1682 C 0.98057 0.34035 0.59187 0.0
H1683 H 0.00847 0.34912 0.50493 0.0
H1684 H -0.00178 0.391 0.56757 0.0
C1685 C 0.97388 0.29755 0.58217 0.0
C1686 C 0.75183 0.56522 0.54473 0.0
C1687 C 0.73909 0.5478 0.516 0.0
H1688 H 0.76705 0.5567 0.60271 0.0
C1689 C 0.73271 0.50466 0.52508 0.0
H1690 H 0.75687 0.59826 0.54005 0.0
C1691 C 0.73846 0.48039 0.56152 0.0
C1692 C 0.75073 0.49838 0.59109 0.0
H1693 H 0.72274 0.48977 0.50426 0.0
H1694 H 0.73301 0.44784 0.56686 0.0
C1695 C 0.75745 0.54114 0.58141 0.0
C1696 C 0.48257 0.08419 0.77695 0.0
C1697 C 0.48897 1.0411 0.76771 0.0
H1698 H 0.48285 0.14082 0.81893 0.0
C1699 C 0.50171 1.02353 0.79636 0.0
H1700 H 0.4726 0.09919 0.75618 0.0
C1701 C 0.50734 0.04747 0.83311 0.0
C1702 C 0.50061 0.0902 0.84293 0.0
H1703 H 0.50677 0.99051 0.79156 0.0
H1704 H 0.51696 1.03182 0.85433 0.0
C1705 C 0.48832 0.1083 0.81346 0.0
C1706 C 0.74258 0.23034 0.81125 0.0
C1707 C 0.7305 0.2488 0.84096 0.0
H1708 H 0.7581 0.23901 0.75362 0.0
C1709 C 0.72392 0.2917 0.83123 0.0
H1710 H 0.74791 0.19767 0.81663 0.0
C1711 C 0.72949 0.31546 0.79434 0.0
C1712 C 0.74204 0.29755 0.76544 0.0
H1713 H 0.71447 0.30763 0.85263 0.0
H1714 H 0.72456 0.3486 0.7896 0.0
C1715 C 0.74828 0.25428 0.77458 0.0
C1716 C 0.4814 0.25259 0.48472 0.0
C1717 C 0.4881 0.29533 0.49432 0.0
H1718 H 0.48152 0.19594 0.44267 0.0
C1719 C 0.50123 0.31217 0.46631 0.0
H1720 H 0.47112 0.23814 0.505 0.0
C1721 C 0.50692 0.28798 0.42979 0.0
C1722 C 0.49988 0.24565 0.41953 0.0
H1723 H 0.50656 0.34488 0.47141 0.0
H1724 H 0.51682 0.30318 0.40906 0.0
C1725 C 0.48722 0.22817 0.44844 0.0
C1726 C 0.74202 0.10703 0.4468 0.0
C1727 C 0.72983 0.08889 0.41714 0.0
H1728 H 0.75761 0.09792 0.50432 0.0
C1729 C 0.72309 0.04617 0.42693 0.0
H1730 H 0.74748 0.13956 0.44139 0.0
C1731 C 0.72862 1.02227 0.46379 0.0
C1732 C 0.74129 1.03982 0.4926 0.0
H1733 H 0.71355 1.03048 0.40558 0.0
H1734 H 0.72356 0.98926 0.46855 0.0
C1735 C 0.74768 0.08293 0.48343 0.0
C1736 C 0.49781 1.002 0.23489 0.0
C1737 C 0.49129 0.04498 0.24418 0.0
H1738 H 0.49758 0.94523 0.19303 0.0
C1739 C 0.47838 0.06219 0.21575 0.0
H1740 H 0.50792 0.98728 0.25549 0.0
C1741 C 0.47273 1.03808 0.17914 0.0
C1742 C 0.47959 0.99548 0.16922 0.0
H1743 H 0.47322 0.0951 0.22059 0.0
H1744 H 0.463 0.05353 0.15807 0.0
C1745 C 0.49203 0.97767 0.19852 0.0
C1746 C 0.25635 0.79663 0.17716 0.0
C1747 C 0.24967 0.83939 0.16717 0.0
H1748 H 0.25577 0.73988 0.21897 0.0
C1749 C 0.23747 0.85775 0.19666 0.0
H1750 H 0.2659 0.78077 0.15593 0.0
C1751 C 0.23175 0.83385 0.23334 0.0
C1752 C 0.23809 0.79072 0.24272 0.0
H1753 H 0.23206 0.89031 0.19109 0.0
H1754 H 0.22183 0.84902 0.2541 0.0
C1755 C 0.25076 0.77292 0.21406 0.0
C1756 C 0.47375 0.79819 0.58264 0.0
C1757 C 0.48046 0.84098 0.59232 0.0
H1758 H 0.47429 0.74112 0.54126 0.0
C1759 C 0.49268 0.85903 0.56268 0.0
H1760 H 0.46419 0.78255 0.60397 0.0
C1761 C 0.4984 0.8348 0.5262 0.0
C1762 C 0.49202 0.79165 0.51713 0.0
H1763 H 0.4981 0.89163 0.56797 0.0
H1764 H 0.50834 0.84973 0.50533 0.0
C1765 C 0.47933 0.77417 0.54592 0.0
C1766 C 0.25741 1.03959 0.58121 0.0
C1767 C 0.25064 0.99687 0.59092 0.0
H1768 H 0.25687 0.09675 0.53992 0.0
C1769 C 0.23831 0.97902 0.56143 0.0
H1770 H 0.26706 0.05507 0.60243 0.0
C1771 C 0.23253 1.00341 0.52507 0.0
C1772 C 0.23897 0.0465 0.51597 0.0
H1773 H 0.23283 0.94649 0.56676 0.0
H1774 H 0.2225 0.98864 0.50431 0.0
C1775 C 0.25178 0.06376 0.5446 0.0
C1776 C 0.50722 0.54802 0.33263 0.0
C1777 C 0.50045 0.59079 0.34222 0.0
H1778 H 0.50668 0.49075 0.29152 0.0
C1779 C 0.48811 0.60858 0.31269 0.0
H1780 H 0.51688 0.53257 0.35389 0.0
C1781 C 0.48233 0.58411 0.2764 0.0
C1782 C 0.48878 0.54098 0.26742 0.0
H1783 H 0.48263 0.64114 0.31792 0.0
H1784 H 0.47231 0.59885 0.2556 0.0
C1785 C 0.50158 0.52376 0.29611 0.0
C1786 C 0.74291 0.7309 0.31218 0.0
C1787 C 0.73033 0.74863 0.34115 0.0
H1788 H 0.75892 0.74049 0.25542 0.0
C1789 C 0.72333 0.79098 0.33078 0.0
H1790 H 0.74859 0.69866 0.31803 0.0
C1791 C 0.72897 0.81496 0.29408 0.0
C1792 C 0.74203 0.79787 0.26601 0.0
H1793 H 0.71347 0.80634 0.35157 0.0
H1794 H 0.72367 0.84769 0.28891 0.0
C1795 C 0.7487 0.7551 0.27572 0.0
C1796 C 0.48773 0.72847 0.94771 0.0
C1797 C 0.50004 0.74671 0.91841 0.0
H1798 H 0.47196 0.73732 1.00493 0.0
C1799 C 0.50676 0.78938 0.9285 0.0
H1800 H 0.48228 0.69598 0.94205 0.0
C1801 C 0.5011 0.81313 0.96532 0.0
C1802 C 0.48833 0.79545 0.99379 0.0
H1803 H 0.51639 0.80514 0.90743 0.0
H1804 H 0.50616 0.8461 0.97032 0.0
C1805 C 0.48195 0.7524 0.98431 0.0
C1806 C 0.72311 0.54657 0.92672 0.0
C1807 C 0.72976 0.58947 0.91731 0.0
H1808 H 0.72369 0.48933 0.96793 0.0
C1809 C 0.74186 0.60755 0.94719 0.0
H1810 H 0.71363 0.53092 0.90517 0.0
C1811 C 0.74754 0.58328 0.98368 0.0
C1812 C 0.74124 0.54001 0.99251 0.0
H1813 H 0.74724 0.64021 0.94206 0.0
H1814 H 0.75739 0.59827 1.00475 0.0
C1815 C 0.72866 0.52246 0.96346 0.0
C1816 C 0.49254 0.47905 0.69766 0.0
C1817 C 0.48002 0.49689 0.66858 0.0
H1818 H 0.50852 0.48853 0.75449 0.0
C1819 C 0.47314 0.53941 0.67871 0.0
H1820 H 0.49812 0.44668 0.69197 0.0
C1821 C 0.47884 0.56342 0.71532 0.0
C1822 C 0.49182 0.54618 0.74354 0.0
H1823 H 0.46334 0.55486 0.65781 0.0
H1824 H 0.47364 0.59627 0.72034 0.0
C1825 C 0.49837 0.50327 0.73405 0.0
C1826 C 0.23199 0.33364 0.73353 0.0
C1827 C 0.23844 0.29057 0.74274 0.0
H1828 H 0.23221 0.39038 0.69163 0.0
C1829 C 0.25123 0.2732 0.71414 0.0
H1830 H 0.22197 0.34849 0.75425 0.0
C1831 C 0.25684 0.29726 0.67746 0.0
C1832 C 0.25005 0.33995 0.66763 0.0
H1833 H 0.25634 0.24022 0.71892 0.0
H1834 H 0.26649 0.28172 0.65627 0.0
C1835 C 0.23772 0.35789 0.69708 0.0
C1836 C 0.4738 0.29696 0.08335 0.0
C1837 C 0.48043 0.33983 0.09295 0.0
H1838 H 0.4744 0.2399 0.04196 0.0
C1839 C 0.49256 0.35805 0.06323 0.0
H1840 H 0.4643 0.2812 0.10477 0.0
C1841 C 0.49826 0.33392 0.02668 0.0
C1842 C 0.49196 0.29069 0.01767 0.0
H1843 H 0.49793 0.39068 0.06851 0.0
H1844 H 0.50811 0.34902 0.0057 0.0
C1845 C 0.47937 0.27301 0.04658 0.0
C1846 C 0.25185 0.56424 0.04484 0.0
C1847 C 0.23887 0.54713 0.01657 0.0
H1848 H 0.26732 0.55549 0.1024 0.0
C1849 C 0.2323 0.50424 0.02601 0.0
H1850 H 0.25707 0.59707 0.03986 0.0
C1851 C 0.23809 0.47993 0.06238 0.0
C1852 C 0.25061 0.49765 0.09152 0.0
H1853 H 0.22214 0.4896 0.00553 0.0
H1854 H 0.23249 0.44759 0.06803 0.0
C1855 C 0.25752 0.54013 0.08145 0.0
loop_
_geom_bond_atom_site_label_1
_geom_bond_atom_site_label_2
_geom_bond_distance
_geom_bond_site_symmetry_2
_ccdc_geom_bond_type
C0 C1 1.351 . S
C0 N3 1.368 . S
C0 H5 0.931 . S
C1 C0 1.351 . S
C1 N2 1.373 . S
C1 H29 0.930 . S
N2 C1 1.373 . S
N2 C4 1.340 . S
N3 C0 1.368 . S
N3 C4 1.321 . S
N3 Co6 2.135 . S
C4 N2 1.340 . S
C4 N3 1.321 . S
C4 H28 0.930 . S
H5 C0 0.931 . S
Co6 N3 2.135 . S
Co6 N9 2.121 . S
Co6 O14 2.055 . S
Co6 O17 2.039 . S
Co6 N20 2.140 . S
C7 O8 1.227 . S
C7 O17 1.265 . S
O8 C7 1.227 . S
N9 Co6 2.121 . S
N9 C11 1.375 . S
N9 C12 1.313 . S
C10 C11 1.338 . S
C10 N13 1.377 . S
C10 H30 0.930 . S
C11 N9 1.375 . S
C11 C10 1.338 . S
C11 H15 0.931 . S
C12 N9 1.313 . S
C12 N13 1.344 . S
C12 H16 0.930 . S
N13 C10 1.377 . S
N13 C12 1.344 . S
O14 Co6 2.055 . S
O14 C18 1.253 . S
H15 C11 0.931 . S
H16 C12 0.930 . S
O17 Co6 2.039 . S
O17 C7 1.265 . S
C18 O14 1.253 . S
C18 O19 1.227 . S
O19 C18 1.227 . S
N20 Co6 2.140 . S
N20 C23 1.346 . S
N20 C24 1.345 . S
C21 C22 1.387 . S
C21 C25 1.391 . S
C22 C21 1.387 . S
C22 C23 1.369 . S
C22 H31 0.929 . S
C23 N20 1.346 . S
C23 C22 1.369 . S
C23 H26 0.928 . S
C24 N20 1.345 . S
C24 C25 1.371 . S
C24 H27 0.931 . S
C25 C21 1.391 . S
C25 C24 1.371 . S
C25 H32 0.930 . S
H26 C23 0.928 . S
H27 C24 0.931 . S
H28 C4 0.930 . S
H29 C1 0.930 . S
H30 C10 0.930 . S
H31 C22 0.929 . S
H32 C25 0.930 . S
C33 C34 1.351 1_545 S
C33 N36 1.368 . S
C33 H38 0.931 1_545 S
C34 C33 1.351 1_565 S
C34 N35 1.373 1_565 S
C34 H62 0.930 . S
N35 C34 1.373 1_545 S
N35 C37 1.340 . S
N36 C33 1.368 . S
N36 C37 1.321 . S
N36 Co39 2.135 . S
C37 N35 1.340 . S
C37 N36 1.321 . S
C37 H61 0.930 . S
H38 C33 0.931 1_565 S
Co39 N36 2.135 . S
Co39 N42 2.121 . S
Co39 O47 2.055 . S
Co39 O50 2.039 . S
Co39 N53 2.140 . S
C40 O41 1.227 . S
C40 O50 1.265 . S
O41 C40 1.227 . S
N42 Co39 2.121 . S
N42 C44 1.375 . S
N42 C45 1.313 . S
C43 C44 1.338 . S
C43 N46 1.377 . S
C43 H63 0.930 . S
C44 N42 1.375 . S
C44 C43 1.338 . S
C44 H48 0.931 . S
C45 N42 1.313 . S
C45 N46 1.344 . S
C45 H49 0.930 . S
N46 C43 1.377 . S
N46 C45 1.344 . S
O47 Co39 2.055 . S
O47 C51 1.253 . S
H48 C44 0.931 . S
H49 C45 0.930 . S
O50 Co39 2.039 . S
O50 C40 1.265 . S
C51 O47 1.253 . S
C51 O52 1.227 . S
O52 C51 1.227 . S
N53 Co39 2.140 . S
N53 C56 1.346 . S
N53 C57 1.345 . S
C54 C55 1.387 . S
C54 C58 1.391 . S
C55 C54 1.387 . S
C55 C56 1.369 . S
C55 H64 0.929 . S
C56 N53 1.346 . S
C56 C55 1.369 . S
C56 H59 0.928 . S
C57 N53 1.345 . S
C57 C58 1.371 . S
C57 H60 0.931 . S
C58 C54 1.391 . S
C58 C57 1.371 . S
C58 H65 0.930 . S
H59 C56 0.928 . S
H60 C57 0.931 . S
H61 C37 0.930 . S
H62 C34 0.930 . S
H63 C43 0.930 . S
H64 C55 0.929 . S
H65 C58 0.930 . S
C66 C67 1.351 1_545 S
C66 N69 1.368 . S
C66 H71 0.931 1_545 S
C67 C66 1.351 1_565 S
C67 N68 1.373 1_565 S
C67 H95 0.930 . S
N68 C67 1.373 1_545 S
N68 C70 1.340 . S
N69 C66 1.368 . S
N69 C70 1.321 . S
N69 Co72 2.135 . S
C70 N68 1.340 . S
C70 N69 1.321 . S
C70 H94 0.930 . S
H71 C66 0.931 1_565 S
Co72 N69 2.135 . S
Co72 N75 2.121 . S
Co72 O80 2.055 . S
Co72 O83 2.039 . S
Co72 N86 2.140 . S
C73 O74 1.227 . S
C73 O83 1.265 . S
O74 C73 1.227 . S
N75 Co72 2.121 . S
N75 C77 1.375 . S
N75 C78 1.313 . S
C76 C77 1.338 . S
C76 N79 1.377 . S
C76 H96 0.930 . S
C77 N75 1.375 . S
C77 C76 1.338 . S
C77 H81 0.931 . S
C78 N75 1.313 . S
C78 N79 1.344 . S
C78 H82 0.930 . S
N79 C76 1.377 . S
N79 C78 1.344 . S
O80 Co72 2.055 . S
O80 C84 1.253 . S
H81 C77 0.931 . S
H82 C78 0.930 . S
O83 Co72 2.039 . S
O83 C73 1.265 . S
C84 O80 1.253 . S
C84 O85 1.227 . S
O85 C84 1.227 . S
N86 Co72 2.140 . S
N86 C89 1.346 . S
N86 C90 1.345 . S
C87 C88 1.387 . S
C87 C91 1.391 . S
C88 C87 1.387 . S
C88 C89 1.369 . S
C88 H97 0.929 . S
C89 N86 1.346 . S
C89 C88 1.369 . S
C89 H92 0.928 . S
C90 N86 1.345 . S
C90 C91 1.371 . S
C90 H93 0.931 . S
C91 C87 1.391 . S
C91 C90 1.371 . S
C91 H98 0.930 . S
H92 C89 0.928 . S
H93 C90 0.931 . S
H94 C70 0.930 . S
H95 C67 0.930 . S
H96 C76 0.930 . S
H97 C88 0.929 . S
H98 C91 0.930 . S
C99 C100 1.351 . S
C99 N102 1.368 . S
C99 H104 0.931 . S
C100 C99 1.351 . S
C100 N101 1.373 . S
C100 H128 0.930 . S
N101 C100 1.373 . S
N101 C103 1.340 . S
N102 C99 1.368 . S
N102 C103 1.321 . S
N102 Co105 2.135 . S
C103 N101 1.340 . S
C103 N102 1.321 . S
C103 H127 0.930 . S
H104 C99 0.931 . S
Co105 N102 2.135 . S
Co105 N108 2.121 . S
Co105 O113 2.055 . S
Co105 O116 2.039 . S
Co105 N119 2.140 . S
C106 O107 1.227 . S
C106 O116 1.265 . S
O107 C106 1.227 . S
N108 Co105 2.121 . S
N108 C110 1.375 . S
N108 C111 1.313 . S
C109 C110 1.338 . S
C109 N112 1.377 . S
C109 H129 0.930 . S
C110 N108 1.375 . S
C110 C109 1.338 . S
C110 H114 0.931 . S
C111 N108 1.313 . S
C111 N112 1.344 . S
C111 H115 0.930 . S
N112 C109 1.377 . S
N112 C111 1.344 . S
O113 Co105 2.055 . S
O113 C117 1.253 . S
H114 C110 0.931 . S
H115 C111 0.930 . S
O116 Co105 2.039 . S
O116 C106 1.265 . S
C117 O113 1.253 . S
C117 O118 1.227 . S
O118 C117 1.227 . S
N119 Co105 2.140 . S
N119 C122 1.346 . S
N119 C123 1.345 . S
C120 C121 1.387 . S
C120 C124 1.391 . S
C121 C120 1.387 . S
C121 C122 1.369 . S
C121 H130 0.929 . S
C122 N119 1.346 . S
C122 C121 1.369 . S
C122 H125 0.928 . S
C123 N119 1.345 . S
C123 C124 1.371 . S
C123 H126 0.931 . S
C124 C120 1.391 . S
C124 C123 1.371 . S
C124 H131 0.930 . S
H125 C122 0.928 . S
H126 C123 0.931 . S
H127 C103 0.930 . S
H128 C100 0.930 . S
H129 C109 0.930 . S
H130 C121 0.929 . S
H131 C124 0.930 . S
C132 C133 1.351 . S
C132 N135 1.368 . S
C132 H137 0.931 . S
C133 C132 1.351 . S
C133 N134 1.373 . S
C133 H161 0.930 . S
N134 C133 1.373 . S
N134 C136 1.340 . S
N135 C132 1.368 . S
N135 C136 1.321 . S
N135 Co138 2.135 . S
C136 N134 1.340 . S
C136 N135 1.321 . S
C136 H160 0.930 . S
H137 C132 0.931 . S
Co138 N135 2.135 . S
Co138 N141 2.121 . S
Co138 O146 2.055 . S
Co138 O149 2.039 . S
Co138 N152 2.140 . S
C139 O140 1.227 . S
C139 O149 1.265 . S
O140 C139 1.227 . S
N141 Co138 2.121 . S
N141 C143 1.375 . S
N141 C144 1.313 . S
C142 C143 1.338 . S
C142 N145 1.377 . S
C142 H162 0.930 . S
C143 N141 1.375 . S
C143 C142 1.338 . S
C143 H147 0.931 . S
C144 N141 1.313 . S
C144 N145 1.344 . S
C144 H148 0.930 . S
N145 C142 1.377 . S
N145 C144 1.344 . S
O146 Co138 2.055 . S
O146 C150 1.253 . S
H147 C143 0.931 . S
H148 C144 0.930 . S
O149 Co138 2.039 . S
O149 C139 1.265 . S
C150 O146 1.253 . S
C150 O151 1.227 . S
O151 C150 1.227 . S
N152 Co138 2.140 . S
N152 C155 1.346 . S
N152 C156 1.345 . S
C153 C154 1.387 . S
C153 C157 1.391 . S
C154 C153 1.387 . S
C154 C155 1.369 . S
C154 H163 0.929 . S
C155 N152 1.346 . S
C155 C154 1.369 . S
C155 H158 0.928 . S
C156 N152 1.345 . S
C156 C157 1.371 . S
C156 H159 0.931 . S
C157 C153 1.391 . S
C157 C156 1.371 . S
C157 H164 0.930 . S
H158 C155 0.928 . S
H159 C156 0.931 . S
H160 C136 0.930 . S
H161 C133 0.930 . S
H162 C142 0.930 . S
H163 C154 0.929 . S
H164 C157 0.930 . S
C165 C166 1.351 1_565 S
C165 N168 1.368 . S
C165 H170 0.931 1_565 S
C166 C165 1.351 1_545 S
C166 N167 1.373 1_545 S
C166 H194 0.930 . S
N167 C166 1.373 1_565 S
N167 C169 1.340 . S
N168 C165 1.368 . S
N168 C169 1.321 . S
N168 Co171 2.135 . S
C169 N167 1.340 . S
C169 N168 1.321 . S
C169 H193 0.930 . S
H170 C165 0.931 1_545 S
Co171 N168 2.135 . S
Co171 N174 2.121 . S
Co171 O179 2.055 . S
Co171 O182 2.039 . S
Co171 N185 2.140 . S
C172 O173 1.227 . S
C172 O182 1.265 . S
O173 C172 1.227 . S
N174 Co171 2.121 . S
N174 C176 1.375 . S
N174 C177 1.313 . S
C175 C176 1.338 . S
C175 N178 1.377 . S
C175 H195 0.930 . S
C176 N174 1.375 . S
C176 C175 1.338 . S
C176 H180 0.931 . S
C177 N174 1.313 . S
C177 N178 1.344 . S
C177 H181 0.930 . S
N178 C175 1.377 . S
N178 C177 1.344 . S
O179 Co171 2.055 . S
O179 C183 1.253 . S
H180 C176 0.931 . S
H181 C177 0.930 . S
O182 Co171 2.039 . S
O182 C172 1.265 . S
C183 O179 1.253 . S
C183 O184 1.227 . S
O184 C183 1.227 . S
N185 Co171 2.140 . S
N185 C188 1.346 . S
N185 C189 1.345 . S
C186 C187 1.387 . S
C186 C190 1.391 . S
C187 C186 1.387 . S
C187 C188 1.369 . S
C187 H196 0.929 . S
C188 N185 1.346 . S
C188 C187 1.369 . S
C188 H191 0.928 . S
C189 N185 1.345 . S
C189 C190 1.371 . S
C189 H192 0.931 . S
C190 C186 1.391 . S
C190 C189 1.371 . S
C190 H197 0.930 . S
H191 C188 0.928 . S
H192 C189 0.931 . S
H193 C169 0.930 . S
H194 C166 0.930 . S
H195 C175 0.930 . S
H196 C187 0.929 . S
H197 C190 0.930 . S
C198 C199 1.351 1_565 S
C198 N201 1.368 . S
C198 H203 0.931 1_565 S
C199 C198 1.351 1_545 S
C199 N200 1.373 1_545 S
C199 H227 0.930 . S
N200 C199 1.373 1_565 S
N200 C202 1.340 . S
N201 C198 1.368 . S
N201 C202 1.321 . S
N201 Co204 2.135 . S
C202 N200 1.340 . S
C202 N201 1.321 . S
C202 H226 0.930 . S
H203 C198 0.931 1_545 S
Co204 N201 2.135 . S
Co204 N207 2.121 . S
Co204 O212 2.055 . S
Co204 O215 2.039 . S
Co204 N218 2.140 . S
C205 O206 1.227 . S
C205 O215 1.265 . S
O206 C205 1.227 . S
N207 Co204 2.121 . S
N207 C209 1.375 . S
N207 C210 1.313 . S
C208 C209 1.338 . S
C208 N211 1.377 . S
C208 H228 0.930 . S
C209 N207 1.375 . S
C209 C208 1.338 . S
C209 H213 0.931 . S
C210 N207 1.313 . S
C210 N211 1.344 . S
C210 H214 0.930 . S
N211 C208 1.377 . S
N211 C210 1.344 . S
O212 Co204 2.055 . S
O212 C216 1.253 . S
H213 C209 0.931 . S
H214 C210 0.930 . S
O215 Co204 2.039 . S
O215 C205 1.265 . S
C216 O212 1.253 . S
C216 O217 1.227 . S
O217 C216 1.227 . S
N218 Co204 2.140 . S
N218 C221 1.346 . S
N218 C222 1.345 . S
C219 C220 1.387 . S
C219 C223 1.391 . S
C220 C219 1.387 . S
C220 C221 1.369 . S
C220 H229 0.929 . S
C221 N218 1.346 . S
C221 C220 1.369 . S
C221 H224 0.928 . S
C222 N218 1.345 . S
C222 C223 1.371 . S
C222 H225 0.931 . S
C223 C219 1.391 . S
C223 C222 1.371 . S
C223 H230 0.930 . S
H224 C221 0.928 . S
H225 C222 0.931 . S
H226 C202 0.930 . S
H227 C199 0.930 . S
H228 C208 0.930 . S
H229 C220 0.929 . S
H230 C223 0.930 . S
C231 C232 1.351 . S
C231 N234 1.368 . S
C231 H236 0.931 . S
C232 C231 1.351 . S
C232 N233 1.373 . S
C232 H260 0.930 . S
N233 C232 1.373 . S
N233 C235 1.340 . S
N234 C231 1.368 . S
N234 C235 1.321 . S
N234 Co237 2.135 . S
C235 N233 1.340 . S
C235 N234 1.321 . S
C235 H259 0.930 . S
H236 C231 0.931 . S
Co237 N234 2.135 . S
Co237 N240 2.121 . S
Co237 O245 2.055 . S
Co237 O248 2.039 . S
Co237 N251 2.140 . S
C238 O239 1.227 . S
C238 O248 1.265 . S
O239 C238 1.227 . S
N240 Co237 2.121 . S
N240 C242 1.375 . S
N240 C243 1.313 . S
C241 C242 1.338 . S
C241 N244 1.377 . S
C241 H261 0.930 . S
C242 N240 1.375 . S
C242 C241 1.338 . S
C242 H246 0.931 . S
C243 N240 1.313 . S
C243 N244 1.344 . S
C243 H247 0.930 . S
N244 C241 1.377 . S
N244 C243 1.344 . S
O245 Co237 2.055 . S
O245 C249 1.253 . S
H246 C242 0.931 . S
H247 C243 0.930 . S
O248 Co237 2.039 . S
O248 C238 1.265 . S
C249 O245 1.253 . S
C249 O250 1.227 . S
O250 C249 1.227 . S
N251 Co237 2.140 . S
N251 C254 1.346 . S
N251 C255 1.345 . S
C252 C253 1.387 . S
C252 C256 1.391 . S
C253 C252 1.387 . S
C253 C254 1.369 . S
C253 H262 0.929 . S
C254 N251 1.346 . S
C254 C253 1.369 . S
C254 H257 0.928 . S
C255 N251 1.345 . S
C255 C256 1.371 . S
C255 H258 0.931 . S
C256 C252 1.391 . S
C256 C255 1.371 . S
C256 H263 0.930 . S
H257 C254 0.928 . S
H258 C255 0.931 . S
H259 C235 0.930 . S
H260 C232 0.930 . S
H261 C241 0.930 . S
H262 C253 0.929 . S
H263 C256 0.930 . S
C264 C265 1.351 . S
C264 N267 1.368 . S
C264 H269 0.931 . S
C265 C264 1.351 . S
C265 N266 1.373 . S
C265 H293 0.930 . S
N266 C265 1.373 . S
N266 C268 1.340 . S
N267 C264 1.368 . S
N267 C268 1.321 . S
N267 Co270 2.135 . S
C268 N266 1.340 . S
C268 N267 1.321 . S
C268 H292 0.930 . S
H269 C264 0.931 . S
Co270 N267 2.135 . S
Co270 N273 2.121 . S
Co270 O278 2.055 . S
Co270 O281 2.039 . S
Co270 N284 2.140 . S
C271 O272 1.227 . S
C271 O281 1.265 . S
O272 C271 1.227 . S
N273 Co270 2.121 . S
N273 C275 1.375 . S
N273 C276 1.313 1_556 S
C274 C275 1.338 1_554 S
C274 N277 1.377 . S
C274 H294 0.930 . S
C275 N273 1.375 . S
C275 C274 1.338 1_556 S
C275 H279 0.931 . S
C276 N273 1.313 1_554 S
C276 N277 1.344 . S
C276 H280 0.930 . S
N277 C274 1.377 . S
N277 C276 1.344 . S
O278 Co270 2.055 . S
O278 C282 1.253 . S
H279 C275 0.931 . S
H280 C276 0.930 . S
O281 Co270 2.039 . S
O281 C271 1.265 . S
C282 O278 1.253 . S
C282 O283 1.227 . S
O283 C282 1.227 . S
N284 Co270 2.140 . S
N284 C287 1.346 . S
N284 C288 1.345 . S
C285 C286 1.387 . S
C285 C289 1.391 . S
C286 C285 1.387 . S
C286 C287 1.369 . S
C286 H295 0.929 . S
C287 N284 1.346 . S
C287 C286 1.369 . S
C287 H290 0.928 . S
C288 N284 1.345 . S
C288 C289 1.371 . S
C288 H291 0.931 . S
C289 C285 1.391 . S
C289 C288 1.371 . S
C289 H296 0.930 . S
H290 C287 0.928 . S
H291 C288 0.931 . S
H292 C268 0.930 . S
H293 C265 0.930 . S
H294 C274 0.930 . S
H295 C286 0.929 . S
H296 C289 0.930 . S
C297 C298 1.351 . S
C297 N300 1.368 . S
C297 H302 0.931 . S
C298 C297 1.351 . S
C298 N299 1.373 . S
C298 H326 0.930 . S
N299 C298 1.373 . S
N299 C301 1.340 . S
N300 C297 1.368 . S
N300 C301 1.321 . S
N300 Co303 2.135 . S
C301 N299 1.340 . S
C301 N300 1.321 . S
C301 H325 0.930 . S
H302 C297 0.931 . S
Co303 N300 2.135 . S
Co303 N306 2.121 . S
Co303 O311 2.055 . S
Co303 O314 2.039 . S
Co303 N317 2.140 . S
C304 O305 1.227 . S
C304 O314 1.265 . S
O305 C304 1.227 . S
N306 Co303 2.121 . S
N306 C308 1.375 . S
N306 C309 1.313 1_556 S
C307 C308 1.338 1_554 S
C307 N310 1.377 . S
C307 H327 0.930 . S
C308 N306 1.375 . S
C308 C307 1.338 1_556 S
C308 H312 0.931 . S
C309 N306 1.313 1_554 S
C309 N310 1.344 . S
C309 H313 0.930 . S
N310 C307 1.377 . S
N310 C309 1.344 . S
O311 Co303 2.055 . S
O311 C315 1.253 . S
H312 C308 0.931 . S
H313 C309 0.930 . S
O314 Co303 2.039 . S
O314 C304 1.265 . S
C315 O311 1.253 . S
C315 O316 1.227 . S
O316 C315 1.227 . S
N317 Co303 2.140 . S
N317 C320 1.346 . S
N317 C321 1.345 . S
C318 C319 1.387 . S
C318 C322 1.391 . S
C319 C318 1.387 . S
C319 C320 1.369 . S
C319 H328 0.929 . S
C320 N317 1.346 . S
C320 C319 1.369 . S
C320 H323 0.928 . S
C321 N317 1.345 . S
C321 C322 1.371 . S
C321 H324 0.931 . S
C322 C318 1.391 . S
C322 C321 1.371 . S
C322 H329 0.930 . S
H323 C320 0.928 . S
H324 C321 0.931 . S
H325 C301 0.930 . S
H326 C298 0.930 . S
H327 C307 0.930 . S
H328 C319 0.929 . S
H329 C322 0.930 . S
C330 C331 1.351 . S
C330 N333 1.368 . S
C330 H335 0.931 . S
C331 C330 1.351 . S
C331 N332 1.373 . S
C331 H359 0.930 . S
N332 C331 1.373 . S
N332 C334 1.340 . S
N333 C330 1.368 . S
N333 C334 1.321 . S
N333 Co336 2.135 . S
C334 N332 1.340 . S
C334 N333 1.321 . S
C334 H358 0.930 . S
H335 C330 0.931 . S
Co336 N333 2.135 . S
Co336 N339 2.121 . S
Co336 O344 2.055 . S
Co336 O347 2.039 . S
Co336 N350 2.140 . S
C337 O338 1.227 . S
C337 O347 1.265 . S
O338 C337 1.227 . S
N339 Co336 2.121 . S
N339 C341 1.375 . S
N339 C342 1.313 . S
C340 C341 1.338 . S
C340 N343 1.377 . S
C340 H360 0.930 . S
C341 N339 1.375 . S
C341 C340 1.338 . S
C341 H345 0.931 . S
C342 N339 1.313 . S
C342 N343 1.344 . S
C342 H346 0.930 . S
N343 C340 1.377 . S
N343 C342 1.344 . S
O344 Co336 2.055 . S
O344 C348 1.253 . S
H345 C341 0.931 . S
H346 C342 0.930 . S
O347 Co336 2.039 . S
O347 C337 1.265 . S
C348 O344 1.253 . S
C348 O349 1.227 . S
O349 C348 1.227 . S
N350 Co336 2.140 . S
N350 C353 1.346 . S
N350 C354 1.345 . S
C351 C352 1.387 . S
C351 C355 1.391 . S
C352 C351 1.387 . S
C352 C353 1.369 . S
C352 H361 0.929 . S
C353 N350 1.346 . S
C353 C352 1.369 . S
C353 H356 0.928 . S
C354 N350 1.345 . S
C354 C355 1.371 . S
C354 H357 0.931 . S
C355 C351 1.391 . S
C355 C354 1.371 . S
C355 H362 0.930 . S
H356 C353 0.928 . S
H357 C354 0.931 . S
H358 C334 0.930 . S
H359 C331 0.930 . S
H360 C340 0.930 . S
H361 C352 0.929 . S
H362 C355 0.930 . S
C363 C364 1.351 . S
C363 N366 1.368 . S
C363 H368 0.931 . S
C364 C363 1.351 . S
C364 N365 1.373 . S
C364 H392 0.930 . S
N365 C364 1.373 . S
N365 C367 1.340 . S
N366 C363 1.368 . S
N366 C367 1.321 . S
N366 Co369 2.135 . S
C367 N365 1.340 . S
C367 N366 1.321 . S
C367 H391 0.930 . S
H368 C363 0.931 . S
Co369 N366 2.135 . S
Co369 N372 2.121 . S
Co369 O377 2.055 . S
Co369 O380 2.039 . S
Co369 N383 2.140 . S
C370 O371 1.227 . S
C370 O380 1.265 . S
O371 C370 1.227 . S
N372 Co369 2.121 . S
N372 C374 1.375 . S
N372 C375 1.313 . S
C373 C374 1.338 . S
C373 N376 1.377 . S
C373 H393 0.930 . S
C374 N372 1.375 . S
C374 C373 1.338 . S
C374 H378 0.931 . S
C375 N372 1.313 . S
C375 N376 1.344 . S
C375 H379 0.930 . S
N376 C373 1.377 . S
N376 C375 1.344 . S
O377 Co369 2.055 . S
O377 C381 1.253 . S
H378 C374 0.931 . S
H379 C375 0.930 . S
O380 Co369 2.039 . S
O380 C370 1.265 . S
C381 O377 1.253 . S
C381 O382 1.227 . S
O382 C381 1.227 . S
N383 Co369 2.140 . S
N383 C386 1.346 . S
N383 C387 1.345 . S
C384 C385 1.387 . S
C384 C388 1.391 . S
C385 C384 1.387 . S
C385 C386 1.369 . S
C385 H394 0.929 . S
C386 N383 1.346 . S
C386 C385 1.369 . S
C386 H389 0.928 . S
C387 N383 1.345 . S
C387 C388 1.371 . S
C387 H390 0.931 . S
C388 C384 1.391 . S
C388 C387 1.371 . S
C388 H395 0.930 . S
H389 C386 0.928 . S
H390 C387 0.931 . S
H391 C367 0.930 . S
H392 C364 0.930 . S
H393 C373 0.930 . S
H394 C385 0.929 . S
H395 C388 0.930 . S
C396 C397 1.351 . S
C396 N399 1.368 . S
C396 H401 0.931 . S
C397 C396 1.351 . S
C397 N398 1.373 . S
C397 H425 0.930 . S
N398 C397 1.373 . S
N398 C400 1.340 . S
N399 C396 1.368 . S
N399 C400 1.321 . S
N399 Co402 2.135 . S
C400 N398 1.340 . S
C400 N399 1.321 . S
C400 H424 0.930 . S
H401 C396 0.931 . S
Co402 N399 2.135 . S
Co402 N405 2.121 . S
Co402 O410 2.055 . S
Co402 O413 2.039 . S
Co402 N416 2.140 . S
C403 O404 1.227 . S
C403 O413 1.265 . S
O404 C403 1.227 . S
N405 Co402 2.121 . S
N405 C407 1.375 . S
N405 C408 1.313 1_554 S
C406 C407 1.338 1_556 S
C406 N409 1.377 . S
C406 H426 0.930 . S
C407 N405 1.375 . S
C407 C406 1.338 1_554 S
C407 H411 0.931 . S
C408 N405 1.313 1_556 S
C408 N409 1.344 . S
C408 H412 0.930 . S
N409 C406 1.377 . S
N409 C408 1.344 . S
O410 Co402 2.055 . S
O410 C414 1.253 . S
H411 C407 0.931 . S
H412 C408 0.930 . S
O413 Co402 2.039 . S
O413 C403 1.265 . S
C414 O410 1.253 . S
C414 O415 1.227 . S
O415 C414 1.227 . S
N416 Co402 2.140 . S
N416 C419 1.346 . S
N416 C420 1.345 . S
C417 C418 1.387 . S
C417 C421 1.391 . S
C418 C417 1.387 . S
C418 C419 1.369 . S
C418 H427 0.929 . S
C419 N416 1.346 . S
C419 C418 1.369 . S
C419 H422 0.928 . S
C420 N416 1.345 . S
C420 C421 1.371 . S
C420 H423 0.931 . S
C421 C417 1.391 . S
C421 C420 1.371 . S
C421 H428 0.930 . S
H422 C419 0.928 . S
H423 C420 0.931 . S
H424 C400 0.930 . S
H425 C397 0.930 . S
H426 C406 0.930 . S
H427 C418 0.929 . S
H428 C421 0.930 . S
C429 C430 1.351 . S
C429 N432 1.368 . S
C429 H434 0.931 . S
C430 C429 1.351 . S
C430 N431 1.373 . S
C430 H458 0.930 . S
N431 C430 1.373 . S
N431 C433 1.340 . S
N432 C429 1.368 . S
N432 C433 1.321 . S
N432 Co435 2.135 . S
C433 N431 1.340 . S
C433 N432 1.321 . S
C433 H457 0.930 . S
H434 C429 0.931 . S
Co435 N432 2.135 . S
Co435 N438 2.121 . S
Co435 O443 2.055 . S
Co435 O446 2.039 . S
Co435 N449 2.140 . S
C436 O437 1.227 . S
C436 O446 1.265 . S
O437 C436 1.227 . S
N438 Co435 2.121 . S
N438 C440 1.375 . S
N438 C441 1.313 1_554 S
C439 C440 1.338 1_556 S
C439 N442 1.377 . S
C439 H459 0.930 . S
C440 N438 1.375 . S
C440 C439 1.338 1_554 S
C440 H444 0.931 . S
C441 N438 1.313 1_556 S
C441 N442 1.344 . S
C441 H445 0.930 . S
N442 C439 1.377 . S
N442 C441 1.344 . S
O443 Co435 2.055 . S
O443 C447 1.253 . S
H444 C440 0.931 . S
H445 C441 0.930 . S
O446 Co435 2.039 . S
O446 C436 1.265 . S
C447 O443 1.253 . S
C447 O448 1.227 . S
O448 C447 1.227 . S
N449 Co435 2.140 . S
N449 C452 1.346 . S
N449 C453 1.345 . S
C450 C451 1.387 . S
C450 C454 1.391 . S
C451 C450 1.387 . S
C451 C452 1.369 . S
C451 H460 0.929 . S
C452 N449 1.346 . S
C452 C451 1.369 . S
C452 H455 0.928 . S
C453 N449 1.345 . S
C453 C454 1.371 . S
C453 H456 0.931 . S
C454 C450 1.391 . S
C454 C453 1.371 . S
C454 H461 0.930 . S
H455 C452 0.928 . S
H456 C453 0.931 . S
H457 C433 0.930 . S
H458 C430 0.930 . S
H459 C439 0.930 . S
H460 C451 0.929 . S
H461 C454 0.930 . S
C462 C463 1.351 . S
C462 N465 1.368 . S
C462 H467 0.931 . S
C463 C462 1.351 . S
C463 N464 1.373 . S
C463 H491 0.930 . S
N464 C463 1.373 . S
N464 C466 1.340 . S
N465 C462 1.368 . S
N465 C466 1.321 . S
N465 Co468 2.135 . S
C466 N464 1.340 . S
C466 N465 1.321 . S
C466 H490 0.930 . S
H467 C462 0.931 . S
Co468 N465 2.135 . S
Co468 N471 2.121 . S
Co468 O476 2.055 . S
Co468 O479 2.039 . S
Co468 N482 2.140 . S
C469 O470 1.227 . S
C469 O479 1.265 . S
O470 C469 1.227 . S
N471 Co468 2.121 . S
N471 C473 1.375 . S
N471 C474 1.313 . S
C472 C473 1.338 . S
C472 N475 1.377 . S
C472 H492 0.930 . S
C473 N471 1.375 . S
C473 C472 1.338 . S
C473 H477 0.931 . S
C474 N471 1.313 . S
C474 N475 1.344 . S
C474 H478 0.930 . S
N475 C472 1.377 . S
N475 C474 1.344 . S
O476 Co468 2.055 . S
O476 C480 1.253 . S
H477 C473 0.931 . S
H478 C474 0.930 . S
O479 Co468 2.039 . S
O479 C469 1.265 . S
C480 O476 1.253 . S
C480 O481 1.227 . S
O481 C480 1.227 . S
N482 Co468 2.140 . S
N482 C485 1.346 . S
N482 C486 1.345 . S
C483 C484 1.387 . S
C483 C487 1.391 . S
C484 C483 1.387 . S
C484 C485 1.369 . S
C484 H493 0.929 . S
C485 N482 1.346 . S
C485 C484 1.369 . S
C485 H488 0.928 . S
C486 N482 1.345 . S
C486 C487 1.371 . S
C486 H489 0.931 . S
C487 C483 1.391 . S
C487 C486 1.371 . S
C487 H494 0.930 . S
H488 C485 0.928 . S
H489 C486 0.931 . S
H490 C466 0.930 . S
H491 C463 0.930 . S
H492 C472 0.930 . S
H493 C484 0.929 . S
H494 C487 0.930 . S
C495 C496 1.351 . S
C495 N498 1.368 . S
C495 H500 0.931 . S
C496 C495 1.351 . S
C496 N497 1.373 . S
C496 H524 0.930 . S
N497 C496 1.373 . S
N497 C499 1.340 . S
N498 C495 1.368 . S
N498 C499 1.321 . S
N498 Co501 2.135 . S
C499 N497 1.340 . S
C499 N498 1.321 . S
C499 H523 0.930 . S
H500 C495 0.931 . S
Co501 N498 2.135 . S
Co501 N504 2.121 . S
Co501 O509 2.055 . S
Co501 O512 2.039 . S
Co501 N515 2.140 . S
C502 O503 1.227 . S
C502 O512 1.265 . S
O503 C502 1.227 . S
N504 Co501 2.121 . S
N504 C506 1.375 . S
N504 C507 1.313 . S
C505 C506 1.338 . S
C505 N508 1.377 . S
C505 H525 0.930 . S
C506 N504 1.375 . S
C506 C505 1.338 . S
C506 H510 0.931 . S
C507 N504 1.313 . S
C507 N508 1.344 . S
C507 H511 0.930 . S
N508 C505 1.377 . S
N508 C507 1.344 . S
O509 Co501 2.055 . S
O509 C513 1.253 . S
H510 C506 0.931 . S
H511 C507 0.930 . S
O512 Co501 2.039 . S
O512 C502 1.265 . S
C513 O509 1.253 . S
C513 O514 1.227 . S
O514 C513 1.227 . S
N515 Co501 2.140 . S
N515 C518 1.346 . S
N515 C519 1.345 . S
C516 C517 1.387 . S
C516 C520 1.391 . S
C517 C516 1.387 . S
C517 C518 1.369 . S
C517 H526 0.929 . S
C518 N515 1.346 . S
C518 C517 1.369 . S
C518 H521 0.928 . S
C519 N515 1.345 . S
C519 C520 1.371 . S
C519 H522 0.931 . S
C520 C516 1.391 . S
C520 C519 1.371 . S
C520 H527 0.930 . S
H521 C518 0.928 . S
H522 C519 0.931 . S
H523 C499 0.930 . S
H524 C496 0.930 . S
H525 C505 0.930 . S
H526 C517 0.929 . S
H527 C520 0.930 . S
C528 C529 1.351 . S
C528 N531 1.368 . S
C528 H533 0.931 . S
C529 C528 1.351 . S
C529 N530 1.373 . S
C529 H557 0.930 . S
N530 C529 1.373 . S
N530 C532 1.340 . S
N531 C528 1.368 . S
N531 C532 1.321 . S
N531 Co534 2.135 . S
C532 N530 1.340 . S
C532 N531 1.321 . S
C532 H556 0.930 . S
H533 C528 0.931 . S
Co534 N531 2.135 . S
Co534 N537 2.121 . S
Co534 O542 2.055 . S
Co534 O545 2.039 . S
Co534 N548 2.140 . S
C535 O536 1.227 . S
C535 O545 1.265 . S
O536 C535 1.227 . S
N537 Co534 2.121 . S
N537 C539 1.375 . S
N537 C540 1.313 1_556 S
C538 C539 1.338 1_554 S
C538 N541 1.377 . S
C538 H558 0.930 . S
C539 N537 1.375 . S
C539 C538 1.338 1_556 S
C539 H543 0.931 . S
C540 N537 1.313 1_554 S
C540 N541 1.344 . S
C540 H544 0.930 . S
N541 C538 1.377 . S
N541 C540 1.344 . S
O542 Co534 2.055 . S
O542 C546 1.253 . S
H543 C539 0.931 . S
H544 C540 0.930 . S
O545 Co534 2.039 . S
O545 C535 1.265 . S
C546 O542 1.253 . S
C546 O547 1.227 . S
O547 C546 1.227 . S
N548 Co534 2.140 . S
N548 C551 1.346 . S
N548 C552 1.345 . S
C549 C550 1.387 . S
C549 C553 1.391 . S
C550 C549 1.387 . S
C550 C551 1.369 . S
C550 H559 0.929 . S
C551 N548 1.346 . S
C551 C550 1.369 . S
C551 H554 0.928 . S
C552 N548 1.345 . S
C552 C553 1.371 . S
C552 H555 0.931 . S
C553 C549 1.391 . S
C553 C552 1.371 . S
C553 H560 0.930 . S
H554 C551 0.928 . S
H555 C552 0.931 . S
H556 C532 0.930 . S
H557 C529 0.930 . S
H558 C538 0.930 . S
H559 C550 0.929 . S
H560 C553 0.930 . S
C561 C562 1.351 1_545 S
C561 N564 1.368 . S
C561 H566 0.931 1_545 S
C562 C561 1.351 1_565 S
C562 N563 1.373 1_565 S
C562 H590 0.930 . S
N563 C562 1.373 1_545 S
N563 C565 1.340 . S
N564 C561 1.368 . S
N564 C565 1.321 . S
N564 Co567 2.135 . S
C565 N563 1.340 . S
C565 N564 1.321 . S
C565 H589 0.930 . S
H566 C561 0.931 1_565 S
Co567 N564 2.135 . S
Co567 N570 2.121 . S
Co567 O575 2.055 . S
Co567 O578 2.039 . S
Co567 N581 2.140 . S
C568 O569 1.227 . S
C568 O578 1.265 . S
O569 C568 1.227 . S
N570 Co567 2.121 . S
N570 C572 1.375 . S
N570 C573 1.313 1_556 S
C571 C572 1.338 1_554 S
C571 N574 1.377 . S
C571 H591 0.930 . S
C572 N570 1.375 . S
C572 C571 1.338 1_556 S
C572 H576 0.931 . S
C573 N570 1.313 1_554 S
C573 N574 1.344 . S
C573 H577 0.930 . S
N574 C571 1.377 . S
N574 C573 1.344 . S
O575 Co567 2.055 . S
O575 C579 1.253 . S
H576 C572 0.931 . S
H577 C573 0.930 . S
O578 Co567 2.039 . S
O578 C568 1.265 . S
C579 O575 1.253 . S
C579 O580 1.227 . S
O580 C579 1.227 . S
N581 Co567 2.140 . S
N581 C584 1.346 . S
N581 C585 1.345 . S
C582 C583 1.387 . S
C582 C586 1.391 . S
C583 C582 1.387 . S
C583 C584 1.369 . S
C583 H592 0.929 . S
C584 N581 1.346 . S
C584 C583 1.369 . S
C584 H587 0.928 . S
C585 N581 1.345 . S
C585 C586 1.371 . S
C585 H588 0.931 . S
C586 C582 1.391 . S
C586 C585 1.371 . S
C586 H593 0.930 . S
H587 C584 0.928 . S
H588 C585 0.931 . S
H589 C565 0.930 . S
H590 C562 0.930 . S
H591 C571 0.930 . S
H592 C583 0.929 . S
H593 C586 0.930 . S
C594 C595 1.351 1_545 S
C594 N597 1.368 . S
C594 H599 0.931 1_545 S
C595 C594 1.351 1_565 S
C595 N596 1.373 1_565 S
C595 H623 0.930 . S
N596 C595 1.373 1_545 S
N596 C598 1.340 . S
N597 C594 1.368 . S
N597 C598 1.321 . S
N597 Co600 2.135 . S
C598 N596 1.340 . S
C598 N597 1.321 . S
C598 H622 0.930 . S
H599 C594 0.931 1_565 S
Co600 N597 2.135 . S
Co600 N603 2.121 . S
Co600 O608 2.055 . S
Co600 O611 2.039 . S
Co600 N614 2.140 . S
C601 O602 1.227 . S
C601 O611 1.265 . S
O602 C601 1.227 . S
N603 Co600 2.121 . S
N603 C605 1.375 . S
N603 C606 1.313 . S
C604 C605 1.338 . S
C604 N607 1.377 . S
C604 H624 0.930 . S
C605 N603 1.375 . S
C605 C604 1.338 . S
C605 H609 0.931 . S
C606 N603 1.313 . S
C606 N607 1.344 . S
C606 H610 0.930 . S
N607 C604 1.377 . S
N607 C606 1.344 . S
O608 Co600 2.055 . S
O608 C612 1.253 . S
H609 C605 0.931 . S
H610 C606 0.930 . S
O611 Co600 2.039 . S
O611 C601 1.265 . S
C612 O608 1.253 . S
C612 O613 1.227 . S
O613 C612 1.227 . S
N614 Co600 2.140 . S
N614 C617 1.346 . S
N614 C618 1.345 . S
C615 C616 1.387 . S
C615 C619 1.391 . S
C616 C615 1.387 . S
C616 C617 1.369 . S
C616 H625 0.929 . S
C617 N614 1.346 . S
C617 C616 1.369 . S
C617 H620 0.928 . S
C618 N614 1.345 . S
C618 C619 1.371 . S
C618 H621 0.931 . S
C619 C615 1.391 . S
C619 C618 1.371 . S
C619 H626 0.930 . S
H620 C617 0.928 . S
H621 C618 0.931 . S
H622 C598 0.930 . S
H623 C595 0.930 . S
H624 C604 0.930 . S
H625 C616 0.929 . S
H626 C619 0.930 . S
C627 C628 1.351 . S
C627 N630 1.368 . S
C627 H632 0.931 . S
C628 C627 1.351 . S
C628 N629 1.373 . S
C628 H656 0.930 . S
N629 C628 1.373 . S
N629 C631 1.340 . S
N630 C627 1.368 . S
N630 C631 1.321 . S
N630 Co633 2.135 . S
C631 N629 1.340 . S
C631 N630 1.321 . S
C631 H655 0.930 . S
H632 C627 0.931 . S
Co633 N630 2.135 . S
Co633 N636 2.121 . S
Co633 O641 2.055 . S
Co633 O644 2.039 . S
Co633 N647 2.140 . S
C634 O635 1.227 . S
C634 O644 1.265 . S
O635 C634 1.227 . S
N636 Co633 2.121 . S
N636 C638 1.375 . S
N636 C639 1.313 . S
C637 C638 1.338 . S
C637 N640 1.377 . S
C637 H657 0.930 . S
C638 N636 1.375 . S
C638 C637 1.338 . S
C638 H642 0.931 . S
C639 N636 1.313 . S
C639 N640 1.344 . S
C639 H643 0.930 . S
N640 C637 1.377 . S
N640 C639 1.344 . S
O641 Co633 2.055 . S
O641 C645 1.253 . S
H642 C638 0.931 . S
H643 C639 0.930 . S
O644 Co633 2.039 . S
O644 C634 1.265 . S
C645 O641 1.253 . S
C645 O646 1.227 . S
O646 C645 1.227 . S
N647 Co633 2.140 . S
N647 C650 1.346 . S
N647 C651 1.345 . S
C648 C649 1.387 . S
C648 C652 1.391 . S
C649 C648 1.387 . S
C649 C650 1.369 . S
C649 H658 0.929 . S
C650 N647 1.346 . S
C650 C649 1.369 . S
C650 H653 0.928 . S
C651 N647 1.345 . S
C651 C652 1.371 . S
C651 H654 0.931 . S
C652 C648 1.391 . S
C652 C651 1.371 . S
C652 H659 0.930 . S
H653 C650 0.928 . S
H654 C651 0.931 . S
H655 C631 0.930 . S
H656 C628 0.930 . S
H657 C637 0.930 . S
H658 C649 0.929 . S
H659 C652 0.930 . S
C660 C661 1.351 . S
C660 N663 1.368 . S
C660 H665 0.931 . S
C661 C660 1.351 . S
C661 N662 1.373 . S
C661 H689 0.930 . S
N662 C661 1.373 . S
N662 C664 1.340 . S
N663 C660 1.368 . S
N663 C664 1.321 . S
N663 Co666 2.135 . S
C664 N662 1.340 . S
C664 N663 1.321 . S
C664 H688 0.930 . S
H665 C660 0.931 . S
Co666 N663 2.135 . S
Co666 N669 2.121 . S
Co666 O674 2.055 . S
Co666 O677 2.039 . S
Co666 N680 2.140 . S
C667 O668 1.227 . S
C667 O677 1.265 . S
O668 C667 1.227 . S
N669 Co666 2.121 . S
N669 C671 1.375 . S
N669 C672 1.313 1_554 S
C670 C671 1.338 1_556 S
C670 N673 1.377 . S
C670 H690 0.930 . S
C671 N669 1.375 . S
C671 C670 1.338 1_554 S
C671 H675 0.931 . S
C672 N669 1.313 1_556 S
C672 N673 1.344 . S
C672 H676 0.930 . S
N673 C670 1.377 . S
N673 C672 1.344 . S
O674 Co666 2.055 . S
O674 C678 1.253 . S
H675 C671 0.931 . S
H676 C672 0.930 . S
O677 Co666 2.039 . S
O677 C667 1.265 . S
C678 O674 1.253 . S
C678 O679 1.227 . S
O679 C678 1.227 . S
N680 Co666 2.140 . S
N680 C683 1.346 . S
N680 C684 1.345 . S
C681 C682 1.387 . S
C681 C685 1.391 . S
C682 C681 1.387 . S
C682 C683 1.369 . S
C682 H691 0.929 . S
C683 N680 1.346 . S
C683 C682 1.369 . S
C683 H686 0.928 . S
C684 N680 1.345 . S
C684 C685 1.371 . S
C684 H687 0.931 . S
C685 C681 1.391 . S
C685 C684 1.371 . S
C685 H692 0.930 . S
H686 C683 0.928 . S
H687 C684 0.931 . S
H688 C664 0.930 . S
H689 C661 0.930 . S
H690 C670 0.930 . S
H691 C682 0.929 . S
H692 C685 0.930 . S
C693 C694 1.351 1_565 S
C693 N696 1.368 . S
C693 H698 0.931 1_565 S
C694 C693 1.351 1_545 S
C694 N695 1.373 1_545 S
C694 H722 0.930 . S
N695 C694 1.373 1_565 S
N695 C697 1.340 . S
N696 C693 1.368 . S
N696 C697 1.321 . S
N696 Co699 2.135 . S
C697 N695 1.340 . S
C697 N696 1.321 . S
C697 H721 0.930 . S
H698 C693 0.931 1_545 S
Co699 N696 2.135 . S
Co699 N702 2.121 . S
Co699 O707 2.055 . S
Co699 O710 2.039 . S
Co699 N713 2.140 . S
C700 O701 1.227 . S
C700 O710 1.265 . S
O701 C700 1.227 . S
N702 Co699 2.121 . S
N702 C704 1.375 . S
N702 C705 1.313 1_554 S
C703 C704 1.338 1_556 S
C703 N706 1.377 . S
C703 H723 0.930 . S
C704 N702 1.375 . S
C704 C703 1.338 1_554 S
C704 H708 0.931 . S
C705 N702 1.313 1_556 S
C705 N706 1.344 . S
C705 H709 0.930 . S
N706 C703 1.377 . S
N706 C705 1.344 . S
O707 Co699 2.055 . S
O707 C711 1.253 . S
H708 C704 0.931 . S
H709 C705 0.930 . S
O710 Co699 2.039 . S
O710 C700 1.265 . S
C711 O707 1.253 . S
C711 O712 1.227 . S
O712 C711 1.227 . S
N713 Co699 2.140 . S
N713 C716 1.346 . S
N713 C717 1.345 . S
C714 C715 1.387 . S
C714 C718 1.391 . S
C715 C714 1.387 . S
C715 C716 1.369 . S
C715 H724 0.929 . S
C716 N713 1.346 . S
C716 C715 1.369 . S
C716 H719 0.928 . S
C717 N713 1.345 . S
C717 C718 1.371 . S
C717 H720 0.931 . S
C718 C714 1.391 . S
C718 C717 1.371 . S
C718 H725 0.930 . S
H719 C716 0.928 . S
H720 C717 0.931 . S
H721 C697 0.930 . S
H722 C694 0.930 . S
H723 C703 0.930 . S
H724 C715 0.929 . S
H725 C718 0.930 . S
C726 C727 1.351 1_565 S
C726 N729 1.368 . S
C726 H731 0.931 1_565 S
C727 C726 1.351 1_545 S
C727 N728 1.373 1_545 S
C727 H755 0.930 . S
N728 C727 1.373 1_565 S
N728 C730 1.340 . S
N729 C726 1.368 . S
N729 C730 1.321 . S
N729 Co732 2.135 . S
C730 N728 1.340 . S
C730 N729 1.321 . S
C730 H754 0.930 . S
H731 C726 0.931 1_545 S
Co732 N729 2.135 . S
Co732 N735 2.121 . S
Co732 O740 2.055 . S
Co732 O743 2.039 . S
Co732 N746 2.140 . S
C733 O734 1.227 . S
C733 O743 1.265 . S
O734 C733 1.227 . S
N735 Co732 2.121 . S
N735 C737 1.375 . S
N735 C738 1.313 . S
C736 C737 1.338 . S
C736 N739 1.377 . S
C736 H756 0.930 . S
C737 N735 1.375 . S
C737 C736 1.338 . S
C737 H741 0.931 . S
C738 N735 1.313 . S
C738 N739 1.344 . S
C738 H742 0.930 . S
N739 C736 1.377 . S
N739 C738 1.344 . S
O740 Co732 2.055 . S
O740 C744 1.253 . S
H741 C737 0.931 . S
H742 C738 0.930 . S
O743 Co732 2.039 . S
O743 C733 1.265 . S
C744 O740 1.253 . S
C744 O745 1.227 . S
O745 C744 1.227 . S
N746 Co732 2.140 . S
N746 C749 1.346 . S
N746 C750 1.345 . S
C747 C748 1.387 . S
C747 C751 1.391 . S
C748 C747 1.387 . S
C748 C749 1.369 . S
C748 H757 0.929 . S
C749 N746 1.346 . S
C749 C748 1.369 . S
C749 H752 0.928 . S
C750 N746 1.345 . S
C750 C751 1.371 . S
C750 H753 0.931 . S
C751 C747 1.391 . S
C751 C750 1.371 . S
C751 H758 0.930 . S
H752 C749 0.928 . S
H753 C750 0.931 . S
H754 C730 0.930 . S
H755 C727 0.930 . S
H756 C736 0.930 . S
H757 C748 0.929 . S
H758 C751 0.930 . S
C759 C760 1.351 . S
C759 N762 1.368 . S
C759 H764 0.931 . S
C760 C759 1.351 . S
C760 N761 1.373 . S
C760 H788 0.930 . S
N761 C760 1.373 . S
N761 C763 1.340 . S
N762 C759 1.368 . S
N762 C763 1.321 . S
N762 Co765 2.135 . S
C763 N761 1.340 . S
C763 N762 1.321 . S
C763 H787 0.930 . S
H764 C759 0.931 . S
Co765 N762 2.135 . S
Co765 N768 2.121 . S
Co765 O773 2.055 . S
Co765 O776 2.039 . S
Co765 N779 2.140 . S
C766 O767 1.227 . S
C766 O776 1.265 . S
O767 C766 1.227 . S
N768 Co765 2.121 . S
N768 C770 1.375 . S
N768 C771 1.313 . S
C769 C770 1.338 . S
C769 N772 1.377 . S
C769 H789 0.930 . S
C770 N768 1.375 . S
C770 C769 1.338 . S
C770 H774 0.931 . S
C771 N768 1.313 . S
C771 N772 1.344 . S
C771 H775 0.930 . S
N772 C769 1.377 . S
N772 C771 1.344 . S
O773 Co765 2.055 . S
O773 C777 1.253 . S
H774 C770 0.931 . S
H775 C771 0.930 . S
O776 Co765 2.039 . S
O776 C766 1.265 . S
C777 O773 1.253 . S
C777 O778 1.227 . S
O778 C777 1.227 . S
N779 Co765 2.140 . S
N779 C782 1.346 . S
N779 C783 1.345 . S
C780 C781 1.387 . S
C780 C784 1.391 . S
C781 C780 1.387 . S
C781 C782 1.369 . S
C781 H790 0.929 . S
C782 N779 1.346 . S
C782 C781 1.369 . S
C782 H785 0.928 . S
C783 N779 1.345 . S
C783 C784 1.371 . S
C783 H786 0.931 . S
C784 C780 1.391 . S
C784 C783 1.371 . S
C784 H791 0.930 . S
H785 C782 0.928 . S
H786 C783 0.931 . S
H787 C763 0.930 . S
H788 C760 0.930 . S
H789 C769 0.930 . S
H790 C781 0.929 . S
H791 C784 0.930 . S
C792 C793 1.351 . S
C792 N795 1.368 . S
C792 H797 0.931 . S
C793 C792 1.351 . S
C793 N794 1.373 . S
C793 H821 0.930 . S
N794 C793 1.373 . S
N794 C796 1.340 . S
N795 C792 1.368 . S
N795 C796 1.321 . S
N795 Co798 2.135 . S
C796 N794 1.340 . S
C796 N795 1.321 . S
C796 H820 0.930 . S
H797 C792 0.931 . S
Co798 N795 2.135 . S
Co798 N801 2.121 . S
Co798 O806 2.055 . S
Co798 O809 2.039 . S
Co798 N812 2.140 . S
C799 O800 1.227 . S
C799 O809 1.265 . S
O800 C799 1.227 . S
N801 Co798 2.121 . S
N801 C803 1.375 . S
N801 C804 1.313 . S
C802 C803 1.338 . S
C802 N805 1.377 . S
C802 H822 0.930 . S
C803 N801 1.375 . S
C803 C802 1.338 . S
C803 H807 0.931 . S
C804 N801 1.313 . S
C804 N805 1.344 . S
C804 H808 0.930 . S
N805 C802 1.377 . S
N805 C804 1.344 . S
O806 Co798 2.055 . S
O806 C810 1.253 . S
H807 C803 0.931 . S
H808 C804 0.930 . S
O809 Co798 2.039 . S
O809 C799 1.265 . S
C810 O806 1.253 . S
C810 O811 1.227 . S
O811 C810 1.227 . S
N812 Co798 2.140 . S
N812 C815 1.346 . S
N812 C816 1.345 . S
C813 C814 1.387 . S
C813 C817 1.391 . S
C814 C813 1.387 . S
C814 C815 1.369 . S
C814 H823 0.929 . S
C815 N812 1.346 . S
C815 C814 1.369 . S
C815 H818 0.928 . S
C816 N812 1.345 . S
C816 C817 1.371 . S
C816 H819 0.931 . S
C817 C813 1.391 . S
C817 C816 1.371 . S
C817 H824 0.930 . S
H818 C815 0.928 . S
H819 C816 0.931 . S
H820 C796 0.930 . S
H821 C793 0.930 . S
H822 C802 0.930 . S
H823 C814 0.929 . S
H824 C817 0.930 . S
C825 C826 1.351 . S
C825 N828 1.368 . S
C825 H830 0.931 . S
C826 C825 1.351 . S
C826 N827 1.373 . S
C826 H854 0.930 . S
N827 C826 1.373 . S
N827 C829 1.340 . S
N828 C825 1.368 . S
N828 C829 1.321 . S
N828 Co831 2.135 . S
C829 N827 1.340 . S
C829 N828 1.321 . S
C829 H853 0.930 . S
H830 C825 0.931 . S
Co831 N828 2.135 . S
Co831 N834 2.121 . S
Co831 O839 2.055 . S
Co831 O842 2.039 . S
Co831 N845 2.140 . S
C832 O833 1.227 . S
C832 O842 1.265 . S
O833 C832 1.227 . S
N834 Co831 2.121 . S
N834 C836 1.375 . S
N834 C837 1.313 . S
C835 C836 1.338 . S
C835 N838 1.377 . S
C835 H855 0.930 . S
C836 N834 1.375 . S
C836 C835 1.338 . S
C836 H840 0.931 . S
C837 N834 1.313 . S
C837 N838 1.344 . S
C837 H841 0.930 . S
N838 C835 1.377 . S
N838 C837 1.344 . S
O839 Co831 2.055 . S
O839 C843 1.253 . S
H840 C836 0.931 . S
H841 C837 0.930 . S
O842 Co831 2.039 . S
O842 C832 1.265 . S
C843 O839 1.253 . S
C843 O844 1.227 . S
O844 C843 1.227 . S
N845 Co831 2.140 . S
N845 C848 1.346 . S
N845 C849 1.345 . S
C846 C847 1.387 . S
C846 C850 1.391 . S
C847 C846 1.387 . S
C847 C848 1.369 . S
C847 H856 0.929 . S
C848 N845 1.346 . S
C848 C847 1.369 . S
C848 H851 0.928 . S
C849 N845 1.345 . S
C849 C850 1.371 . S
C849 H852 0.931 . S
C850 C846 1.391 . S
C850 C849 1.371 . S
C850 H857 0.930 . S
H851 C848 0.928 . S
H852 C849 0.931 . S
H853 C829 0.930 . S
H854 C826 0.930 . S
H855 C835 0.930 . S
H856 C847 0.929 . S
H857 C850 0.930 . S
C858 C859 1.351 . S
C858 N861 1.368 . S
C858 H863 0.931 . S
C859 C858 1.351 . S
C859 N860 1.373 . S
C859 H887 0.930 . S
N860 C859 1.373 . S
N860 C862 1.340 . S
N861 C858 1.368 . S
N861 C862 1.321 . S
N861 Co864 2.135 . S
C862 N860 1.340 . S
C862 N861 1.321 . S
C862 H886 0.930 . S
H863 C858 0.931 . S
Co864 N861 2.135 . S
Co864 N867 2.121 . S
Co864 O872 2.055 . S
Co864 O875 2.039 . S
Co864 N878 2.140 . S
C865 O866 1.227 . S
C865 O875 1.265 . S
O866 C865 1.227 . S
N867 Co864 2.121 . S
N867 C869 1.375 . S
N867 C870 1.313 . S
C868 C869 1.338 . S
C868 N871 1.377 . S
C868 H888 0.930 . S
C869 N867 1.375 . S
C869 C868 1.338 . S
C869 H873 0.931 . S
C870 N867 1.313 . S
C870 N871 1.344 . S
C870 H874 0.930 . S
N871 C868 1.377 . S
N871 C870 1.344 . S
O872 Co864 2.055 . S
O872 C876 1.253 . S
H873 C869 0.931 . S
H874 C870 0.930 . S
O875 Co864 2.039 . S
O875 C865 1.265 . S
C876 O872 1.253 . S
C876 O877 1.227 . S
O877 C876 1.227 . S
N878 Co864 2.140 . S
N878 C881 1.346 . S
N878 C882 1.345 . S
C879 C880 1.387 . S
C879 C883 1.391 . S
C880 C879 1.387 . S
C880 C881 1.369 . S
C880 H889 0.929 . S
C881 N878 1.346 . S
C881 C880 1.369 . S
C881 H884 0.928 . S
C882 N878 1.345 . S
C882 C883 1.371 . S
C882 H885 0.931 . S
C883 C879 1.391 . S
C883 C882 1.371 . S
C883 H890 0.930 . S
H884 C881 0.928 . S
H885 C882 0.931 . S
H886 C862 0.930 . S
H887 C859 0.930 . S
H888 C868 0.930 . S
H889 C880 0.929 . S
H890 C883 0.930 . S
C891 C892 1.351 . S
C891 N894 1.368 . S
C891 H896 0.931 . S
C892 C891 1.351 . S
C892 N893 1.373 . S
C892 H920 0.930 . S
N893 C892 1.373 . S
N893 C895 1.340 . S
N894 C891 1.368 . S
N894 C895 1.321 . S
N894 Co897 2.135 . S
C895 N893 1.340 . S
C895 N894 1.321 . S
C895 H919 0.930 . S
H896 C891 0.931 . S
Co897 N894 2.135 . S
Co897 N900 2.121 . S
Co897 O905 2.055 . S
Co897 O908 2.039 . S
Co897 N911 2.140 . S
C898 O899 1.227 . S
C898 O908 1.265 . S
O899 C898 1.227 . S
N900 Co897 2.121 . S
N900 C902 1.375 . S
N900 C903 1.313 . S
C901 C902 1.338 . S
C901 N904 1.377 . S
C901 H921 0.930 . S
C902 N900 1.375 . S
C902 C901 1.338 . S
C902 H906 0.931 . S
C903 N900 1.313 . S
C903 N904 1.344 . S
C903 H907 0.930 . S
N904 C901 1.377 . S
N904 C903 1.344 . S
O905 Co897 2.055 . S
O905 C909 1.253 . S
H906 C902 0.931 . S
H907 C903 0.930 . S
O908 Co897 2.039 . S
O908 C898 1.265 . S
C909 O905 1.253 . S
C909 O910 1.227 . S
O910 C909 1.227 . S
N911 Co897 2.140 . S
N911 C914 1.346 . S
N911 C915 1.345 . S
C912 C913 1.387 . S
C912 C916 1.391 . S
C913 C912 1.387 . S
C913 C914 1.369 . S
C913 H922 0.929 . S
C914 N911 1.346 . S
C914 C913 1.369 . S
C914 H917 0.928 . S
C915 N911 1.345 . S
C915 C916 1.371 . S
C915 H918 0.931 . S
C916 C912 1.391 . S
C916 C915 1.371 . S
C916 H923 0.930 . S
H917 C914 0.928 . S
H918 C915 0.931 . S
H919 C895 0.930 . S
H920 C892 0.930 . S
H921 C901 0.930 . S
H922 C913 0.929 . S
H923 C916 0.930 . S
C924 C925 1.351 . S
C924 N927 1.368 . S
C924 H929 0.931 . S
C925 C924 1.351 . S
C925 N926 1.373 . S
C925 H953 0.930 . S
N926 C925 1.373 . S
N926 C928 1.340 . S
N927 C924 1.368 . S
N927 C928 1.321 . S
N927 Co930 2.135 . S
C928 N926 1.340 . S
C928 N927 1.321 . S
C928 H952 0.930 . S
H929 C924 0.931 . S
Co930 N927 2.135 . S
Co930 N933 2.121 . S
Co930 O938 2.055 . S
Co930 O941 2.039 . S
Co930 N944 2.140 . S
C931 O932 1.227 . S
C931 O941 1.265 . S
O932 C931 1.227 . S
N933 Co930 2.121 . S
N933 C935 1.375 . S
N933 C936 1.313 . S
C934 C935 1.338 . S
C934 N937 1.377 . S
C934 H954 0.930 . S
C935 N933 1.375 . S
C935 C934 1.338 . S
C935 H939 0.931 . S
C936 N933 1.313 . S
C936 N937 1.344 . S
C936 H940 0.930 . S
N937 C934 1.377 . S
N937 C936 1.344 . S
O938 Co930 2.055 . S
O938 C942 1.253 . S
H939 C935 0.931 . S
H940 C936 0.930 . S
O941 Co930 2.039 . S
O941 C931 1.265 . S
C942 O938 1.253 . S
C942 O943 1.227 . S
O943 C942 1.227 . S
N944 Co930 2.140 . S
N944 C947 1.346 . S
N944 C948 1.345 . S
C945 C946 1.387 . S
C945 C949 1.391 . S
C946 C945 1.387 . S
C946 C947 1.369 . S
C946 H955 0.929 . S
C947 N944 1.346 . S
C947 C946 1.369 . S
C947 H950 0.928 . S
C948 N944 1.345 . S
C948 C949 1.371 . S
C948 H951 0.931 . S
C949 C945 1.391 . S
C949 C948 1.371 . S
C949 H956 0.930 . S
H950 C947 0.928 . S
H951 C948 0.931 . S
H952 C928 0.930 . S
H953 C925 0.930 . S
H954 C934 0.930 . S
H955 C946 0.929 . S
H956 C949 0.930 . S
C957 C958 1.351 . S
C957 N960 1.368 . S
C957 H962 0.931 . S
C958 C957 1.351 . S
C958 N959 1.373 . S
C958 H986 0.930 . S
N959 C958 1.373 . S
N959 C961 1.340 . S
N960 C957 1.368 . S
N960 C961 1.321 . S
N960 Co963 2.135 . S
C961 N959 1.340 . S
C961 N960 1.321 . S
C961 H985 0.930 . S
H962 C957 0.931 . S
Co963 N960 2.135 . S
Co963 N966 2.121 . S
Co963 O971 2.055 . S
Co963 O974 2.039 . S
Co963 N977 2.140 . S
C964 O965 1.227 . S
C964 O974 1.265 . S
O965 C964 1.227 . S
N966 Co963 2.121 . S
N966 C968 1.375 . S
N966 C969 1.313 . S
C967 C968 1.338 . S
C967 N970 1.377 . S
C967 H987 0.930 . S
C968 N966 1.375 . S
C968 C967 1.338 . S
C968 H972 0.931 . S
C969 N966 1.313 . S
C969 N970 1.344 . S
C969 H973 0.930 . S
N970 C967 1.377 . S
N970 C969 1.344 . S
O971 Co963 2.055 . S
O971 C975 1.253 . S
H972 C968 0.931 . S
H973 C969 0.930 . S
O974 Co963 2.039 . S
O974 C964 1.265 . S
C975 O971 1.253 . S
C975 O976 1.227 . S
O976 C975 1.227 . S
N977 Co963 2.140 . S
N977 C980 1.346 . S
N977 C981 1.345 . S
C978 C979 1.387 . S
C978 C982 1.391 . S
C979 C978 1.387 . S
C979 C980 1.369 . S
C979 H988 0.929 . S
C980 N977 1.346 . S
C980 C979 1.369 . S
C980 H983 0.928 . S
C981 N977 1.345 . S
C981 C982 1.371 . S
C981 H984 0.931 . S
C982 C978 1.391 . S
C982 C981 1.371 . S
C982 H989 0.930 . S
H983 C980 0.928 . S
H984 C981 0.931 . S
H985 C961 0.930 . S
H986 C958 0.930 . S
H987 C967 0.930 . S
H988 C979 0.929 . S
H989 C982 0.930 . S
C990 C991 1.351 . S
C990 N993 1.368 . S
C990 H995 0.931 . S
C991 C990 1.351 . S
C991 N992 1.373 . S
C991 H1019 0.930 . S
N992 C991 1.373 . S
N992 C994 1.340 . S
N993 C990 1.368 . S
N993 C994 1.321 . S
N993 Co996 2.135 . S
C994 N992 1.340 . S
C994 N993 1.321 . S
C994 H1018 0.930 . S
H995 C990 0.931 . S
Co996 N993 2.135 . S
Co996 N999 2.121 . S
Co996 O1004 2.055 . S
Co996 O1007 2.039 . S
Co996 N1010 2.140 . S
C997 O998 1.227 . S
C997 O1007 1.265 . S
O998 C997 1.227 . S
N999 Co996 2.121 . S
N999 C1001 1.375 . S
N999 C1002 1.313 . S
C1000 C1001 1.338 . S
C1000 N1003 1.377 . S
C1000 H1020 0.930 . S
C1001 N999 1.375 . S
C1001 C1000 1.338 . S
C1001 H1005 0.931 . S
C1002 N999 1.313 . S
C1002 N1003 1.344 . S
C1002 H1006 0.930 . S
N1003 C1000 1.377 . S
N1003 C1002 1.344 . S
O1004 Co996 2.055 . S
O1004 C1008 1.253 . S
H1005 C1001 0.931 . S
H1006 C1002 0.930 . S
O1007 Co996 2.039 . S
O1007 C997 1.265 . S
C1008 O1004 1.253 . S
C1008 O1009 1.227 . S
O1009 C1008 1.227 . S
N1010 Co996 2.140 . S
N1010 C1013 1.346 . S
N1010 C1014 1.345 . S
C1011 C1012 1.387 . S
C1011 C1015 1.391 . S
C1012 C1011 1.387 . S
C1012 C1013 1.369 . S
C1012 H1021 0.929 . S
C1013 N1010 1.346 . S
C1013 C1012 1.369 . S
C1013 H1016 0.928 . S
C1014 N1010 1.345 . S
C1014 C1015 1.371 . S
C1014 H1017 0.931 . S
C1015 C1011 1.391 . S
C1015 C1014 1.371 . S
C1015 H1022 0.930 . S
H1016 C1013 0.928 . S
H1017 C1014 0.931 . S
H1018 C994 0.930 . S
H1019 C991 0.930 . S
H1020 C1000 0.930 . S
H1021 C1012 0.929 . S
H1022 C1015 0.930 . S
C1023 C1024 1.351 . S
C1023 N1026 1.368 . S
C1023 H1028 0.931 . S
C1024 C1023 1.351 . S
C1024 N1025 1.373 . S
C1024 H1052 0.930 . S
N1025 C1024 1.373 . S
N1025 C1027 1.340 . S
N1026 C1023 1.368 . S
N1026 C1027 1.321 . S
N1026 Co1029 2.135 . S
C1027 N1025 1.340 . S
C1027 N1026 1.321 . S
C1027 H1051 0.930 . S
H1028 C1023 0.931 . S
Co1029 N1026 2.135 . S
Co1029 N1032 2.121 . S
Co1029 O1037 2.055 . S
Co1029 O1040 2.039 . S
Co1029 N1043 2.140 . S
C1030 O1031 1.227 . S
C1030 O1040 1.265 . S
O1031 C1030 1.227 . S
N1032 Co1029 2.121 . S
N1032 C1034 1.375 . S
N1032 C1035 1.313 . S
C1033 C1034 1.338 . S
C1033 N1036 1.377 . S
C1033 H1053 0.930 . S
C1034 N1032 1.375 . S
C1034 C1033 1.338 . S
C1034 H1038 0.931 . S
C1035 N1032 1.313 . S
C1035 N1036 1.344 . S
C1035 H1039 0.930 . S
N1036 C1033 1.377 . S
N1036 C1035 1.344 . S
O1037 Co1029 2.055 . S
O1037 C1041 1.253 . S
H1038 C1034 0.931 . S
H1039 C1035 0.930 . S
O1040 Co1029 2.039 . S
O1040 C1030 1.265 . S
C1041 O1037 1.253 . S
C1041 O1042 1.227 . S
O1042 C1041 1.227 . S
N1043 Co1029 2.140 . S
N1043 C1046 1.346 . S
N1043 C1047 1.345 . S
C1044 C1045 1.387 . S
C1044 C1048 1.391 . S
C1045 C1044 1.387 . S
C1045 C1046 1.369 . S
C1045 H1054 0.929 . S
C1046 N1043 1.346 . S
C1046 C1045 1.369 . S
C1046 H1049 0.928 . S
C1047 N1043 1.345 . S
C1047 C1048 1.371 . S
C1047 H1050 0.931 . S
C1048 C1044 1.391 . S
C1048 C1047 1.371 . S
C1048 H1055 0.930 . S
H1049 C1046 0.928 . S
H1050 C1047 0.931 . S
H1051 C1027 0.930 . S
H1052 C1024 0.930 . S
H1053 C1033 0.930 . S
H1054 C1045 0.929 . S
H1055 C1048 0.930 . S
C1056 C1057 1.387 . S
C1056 H1060 0.950 . S
C1056 C1065 1.390 1_655 S
C1057 C1056 1.387 . S
C1057 C1059 1.387 . S
H1058 C1065 0.950 . S
C1059 C1057 1.387 . S
C1059 C1061 1.390 1_655 S
C1059 H1063 0.950 . S
H1060 C1056 0.950 . S
C1061 C1059 1.390 1_455 S
C1061 C1062 1.387 . S
C1061 H1064 0.950 . S
C1062 C1061 1.387 . S
C1062 C1065 1.387 . S
H1063 C1059 0.950 . S
H1064 C1061 0.950 . S
C1065 C1056 1.390 1_455 S
C1065 H1058 0.950 . S
C1065 C1062 1.387 . S
C1066 C1067 1.387 . S
C1066 H1070 0.950 . S
C1066 C1075 1.390 . S
C1067 C1066 1.387 . S
C1067 C1069 1.387 1_565 S
H1068 C1075 0.950 . S
C1069 C1067 1.387 1_545 S
C1069 C1071 1.390 . S
C1069 H1073 0.950 . S
H1070 C1066 0.950 . S
C1071 C1069 1.390 . S
C1071 C1072 1.387 . S
C1071 H1074 0.950 . S
C1072 C1071 1.387 . S
C1072 C1075 1.387 1_545 S
H1073 C1069 0.950 . S
H1074 C1071 0.950 . S
C1075 C1066 1.390 . S
C1075 H1068 0.950 . S
C1075 C1072 1.387 1_565 S
C1076 C1077 1.387 1_445 S
C1076 H1080 0.950 . S
C1076 C1085 1.390 . S
C1077 C1076 1.387 1_665 S
C1077 C1079 1.387 1_554 S
H1078 C1085 0.950 . S
C1079 C1077 1.387 1_556 S
C1079 C1081 1.390 . S
C1079 H1083 0.950 . S
H1080 C1076 0.950 . S
C1081 C1079 1.390 . S
C1081 C1082 1.387 1_665 S
C1081 H1084 0.950 . S
C1082 C1081 1.387 1_445 S
C1082 C1085 1.387 1_556 S
H1083 C1079 0.950 . S
H1084 C1081 0.950 . S
C1085 C1076 1.390 . S
C1085 H1078 0.950 . S
C1085 C1082 1.387 1_554 S
C1086 C1087 1.387 . S
C1086 H1090 0.950 . S
C1086 C1095 1.390 . S
C1087 C1086 1.387 . S
C1087 C1089 1.387 1_554 S
H1088 C1095 0.950 . S
C1089 C1087 1.387 1_556 S
C1089 C1091 1.390 . S
C1089 H1093 0.950 . S
H1090 C1086 0.950 . S
C1091 C1089 1.390 . S
C1091 C1092 1.387 . S
C1091 H1094 0.950 . S
C1092 C1091 1.387 . S
C1092 C1095 1.387 1_556 S
H1093 C1089 0.950 . S
H1094 C1091 0.950 . S
C1095 C1086 1.390 . S
C1095 H1088 0.950 . S
C1095 C1092 1.387 1_554 S
C1096 C1097 1.387 . S
C1096 H1100 0.950 . S
C1096 C1105 1.390 1_455 S
C1097 C1096 1.387 . S
C1097 C1099 1.387 . S
H1098 C1105 0.950 . S
C1099 C1097 1.387 . S
C1099 C1101 1.390 1_455 S
C1099 H1103 0.950 . S
H1100 C1096 0.950 . S
C1101 C1099 1.390 1_655 S
C1101 C1102 1.387 . S
C1101 H1104 0.950 . S
C1102 C1101 1.387 . S
C1102 C1105 1.387 . S
H1103 C1099 0.950 . S
H1104 C1101 0.950 . S
C1105 C1096 1.390 1_655 S
C1105 H1098 0.950 . S
C1105 C1102 1.387 . S
C1106 C1107 1.387 . S
C1106 H1110 0.950 . S
C1106 C1115 1.390 . S
C1107 C1106 1.387 . S
C1107 C1109 1.387 1_545 S
H1108 C1115 0.950 . S
C1109 C1107 1.387 1_565 S
C1109 C1111 1.390 . S
C1109 H1113 0.950 . S
H1110 C1106 0.950 . S
C1111 C1109 1.390 . S
C1111 C1112 1.387 . S
C1111 H1114 0.950 . S
C1112 C1111 1.387 . S
C1112 C1115 1.387 1_565 S
H1113 C1109 0.950 . S
H1114 C1111 0.950 . S
C1115 C1106 1.390 . S
C1115 H1108 0.950 . S
C1115 C1112 1.387 1_545 S
C1116 C1117 1.387 . S
C1116 H1120 0.950 . S
C1116 C1125 1.390 1_554 S
C1117 C1116 1.387 . S
C1117 C1119 1.387 . S
H1118 C1125 0.950 . S
C1119 C1117 1.387 . S
C1119 C1121 1.390 1_554 S
C1119 H1123 0.950 . S
H1120 C1116 0.950 . S
C1121 C1119 1.390 1_556 S
C1121 C1122 1.387 . S
C1121 H1124 0.950 . S
C1122 C1121 1.387 . S
C1122 C1125 1.387 . S
H1123 C1119 0.950 . S
H1124 C1121 0.950 . S
C1125 C1116 1.390 1_556 S
C1125 H1118 0.950 . S
C1125 C1122 1.387 . S
C1126 C1127 1.387 . S
C1126 H1130 0.950 . S
C1126 C1135 1.390 . S
C1127 C1126 1.387 . S
C1127 C1129 1.387 . S
H1128 C1135 0.950 . S
C1129 C1127 1.387 . S
C1129 C1131 1.390 . S
C1129 H1133 0.950 . S
H1130 C1126 0.950 . S
C1131 C1129 1.390 . S
C1131 C1132 1.387 . S
C1131 H1134 0.950 . S
C1132 C1131 1.387 . S
C1132 C1135 1.387 . S
H1133 C1129 0.950 . S
H1134 C1131 0.950 . S
C1135 C1126 1.390 . S
C1135 H1128 0.950 . S
C1135 C1132 1.387 . S
C1136 C1137 1.387 1_455 S
C1136 H1140 0.950 . S
C1136 C1145 1.390 . S
C1137 C1136 1.387 1_655 S
C1137 C1139 1.387 . S
H1138 C1145 0.950 . S
C1139 C1137 1.387 . S
C1139 C1141 1.390 . S
C1139 H1143 0.950 . S
H1140 C1136 0.950 . S
C1141 C1139 1.390 . S
C1141 C1142 1.387 1_655 S
C1141 H1144 0.950 . S
C1142 C1141 1.387 1_455 S
C1142 C1145 1.387 . S
H1143 C1139 0.950 . S
H1144 C1141 0.950 . S
C1145 C1136 1.390 . S
C1145 H1138 0.950 . S
C1145 C1142 1.387 . S
C1146 C1147 1.387 . S
C1146 H1150 0.950 . S
C1146 C1155 1.390 . S
C1147 C1146 1.387 . S
C1147 C1149 1.387 . S
H1148 C1155 0.950 . S
C1149 C1147 1.387 . S
C1149 C1151 1.390 . S
C1149 H1153 0.950 . S
H1150 C1146 0.950 . S
C1151 C1149 1.390 . S
C1151 C1152 1.387 . S
C1151 H1154 0.950 . S
C1152 C1151 1.387 . S
C1152 C1155 1.387 . S
H1153 C1149 0.950 . S
H1154 C1151 0.950 . S
C1155 C1146 1.390 . S
C1155 H1148 0.950 . S
C1155 C1152 1.387 . S
C1156 C1157 1.387 . S
C1156 H1160 0.950 . S
C1156 C1165 1.390 . S
C1157 C1156 1.387 . S
C1157 C1159 1.387 . S
H1158 C1165 0.950 . S
C1159 C1157 1.387 . S
C1159 C1161 1.390 . S
C1159 H1163 0.950 . S
H1160 C1156 0.950 . S
C1161 C1159 1.390 . S
C1161 C1162 1.387 . S
C1161 H1164 0.950 . S
C1162 C1161 1.387 . S
C1162 C1165 1.387 . S
H1163 C1159 0.950 . S
H1164 C1161 0.950 . S
C1165 C1156 1.390 . S
C1165 H1158 0.950 . S
C1165 C1162 1.387 . S
C1166 C1167 1.387 . S
C1166 H1170 0.950 . S
C1166 C1175 1.390 . S
C1167 C1166 1.387 . S
C1167 C1169 1.387 . S
H1168 C1175 0.950 . S
C1169 C1167 1.387 . S
C1169 C1171 1.390 . S
C1169 H1173 0.950 . S
H1170 C1166 0.950 . S
C1171 C1169 1.390 . S
C1171 C1172 1.387 . S
C1171 H1174 0.950 . S
C1172 C1171 1.387 . S
C1172 C1175 1.387 . S
H1173 C1169 0.950 . S
H1174 C1171 0.950 . S
C1175 C1166 1.390 . S
C1175 H1168 0.950 . S
C1175 C1172 1.387 . S
C1176 C1177 1.387 . S
C1176 H1180 0.950 . S
C1176 C1185 1.390 . S
C1177 C1176 1.387 . S
C1177 C1179 1.387 . S
H1178 C1185 0.950 . S
C1179 C1177 1.387 . S
C1179 C1181 1.390 . S
C1179 H1183 0.950 . S
H1180 C1176 0.950 . S
C1181 C1179 1.390 . S
C1181 C1182 1.387 . S
C1181 H1184 0.950 . S
C1182 C1181 1.387 . S
C1182 C1185 1.387 . S
H1183 C1179 0.950 . S
H1184 C1181 0.950 . S
C1185 C1176 1.390 . S
C1185 H1178 0.950 . S
C1185 C1182 1.387 . S
C1186 C1187 1.387 . S
C1186 H1190 0.950 . S
C1186 C1195 1.390 . S
C1187 C1186 1.387 . S
C1187 C1189 1.387 1_565 S
H1188 C1195 0.950 . S
C1189 C1187 1.387 1_545 S
C1189 C1191 1.390 . S
C1189 H1193 0.950 . S
H1190 C1186 0.950 . S
C1191 C1189 1.390 . S
C1191 C1192 1.387 . S
C1191 H1194 0.950 . S
C1192 C1191 1.387 . S
C1192 C1195 1.387 1_545 S
H1193 C1189 0.950 . S
H1194 C1191 0.950 . S
C1195 C1186 1.390 . S
C1195 H1188 0.950 . S
C1195 C1192 1.387 1_565 S
C1196 C1197 1.387 . S
C1196 H1200 0.950 . S
C1196 C1205 1.390 . S
C1197 C1196 1.387 . S
C1197 C1199 1.387 . S
H1198 C1205 0.950 . S
C1199 C1197 1.387 . S
C1199 C1201 1.390 . S
C1199 H1203 0.950 . S
H1200 C1196 0.950 . S
C1201 C1199 1.390 . S
C1201 C1202 1.387 . S
C1201 H1204 0.950 . S
C1202 C1201 1.387 . S
C1202 C1205 1.387 . S
H1203 C1199 0.950 . S
H1204 C1201 0.950 . S
C1205 C1196 1.390 . S
C1205 H1198 0.950 . S
C1205 C1202 1.387 . S
C1206 C1207 1.387 1_556 S
C1206 H1210 0.950 . S
C1206 C1215 1.390 . S
C1207 C1206 1.387 1_554 S
C1207 C1209 1.387 . S
H1208 C1215 0.950 . S
C1209 C1207 1.387 . S
C1209 C1211 1.390 . S
C1209 H1213 0.950 . S
H1210 C1206 0.950 . S
C1211 C1209 1.390 . S
C1211 C1212 1.387 1_554 S
C1211 H1214 0.950 . S
C1212 C1211 1.387 1_556 S
C1212 C1215 1.387 . S
H1213 C1209 0.950 . S
H1214 C1211 0.950 . S
C1215 C1206 1.390 . S
C1215 H1208 0.950 . S
C1215 C1212 1.387 . S
C1216 C1217 1.387 . S
C1216 H1220 0.950 . S
C1216 C1225 1.390 . S
C1217 C1216 1.387 . S
C1217 C1219 1.387 . S
H1218 C1225 0.950 . S
C1219 C1217 1.387 . S
C1219 C1221 1.390 . S
C1219 H1223 0.950 1_455 S
H1220 C1216 0.950 . S
C1221 C1219 1.390 . S
C1221 C1222 1.387 . S
C1221 H1224 0.950 1_455 S
C1222 C1221 1.387 . S
C1222 C1225 1.387 . S
H1223 C1219 0.950 1_655 S
H1224 C1221 0.950 1_655 S
C1225 C1216 1.390 . S
C1225 H1218 0.950 . S
C1225 C1222 1.387 . S
C1226 C1227 1.387 . S
C1226 H1230 0.950 . S
C1226 C1235 1.390 . S
C1227 C1226 1.387 . S
C1227 C1229 1.387 . S
H1228 C1235 0.950 . S
C1229 C1227 1.387 . S
C1229 C1231 1.390 . S
C1229 H1233 0.950 . S
H1230 C1226 0.950 . S
C1231 C1229 1.390 . S
C1231 C1232 1.387 . S
C1231 H1234 0.950 . S
C1232 C1231 1.387 . S
C1232 C1235 1.387 . S
H1233 C1229 0.950 . S
H1234 C1231 0.950 . S
C1235 C1226 1.390 . S
C1235 H1228 0.950 . S
C1235 C1232 1.387 . S
C1236 C1237 1.387 . S
C1236 H1240 0.950 . S
C1236 C1245 1.390 . S
C1237 C1236 1.387 . S
C1237 C1239 1.387 . S
H1238 C1245 0.950 . S
C1239 C1237 1.387 . S
C1239 C1241 1.390 . S
C1239 H1243 0.950 1_655 S
H1240 C1236 0.950 . S
C1241 C1239 1.390 . S
C1241 C1242 1.387 . S
C1241 H1244 0.950 1_655 S
C1242 C1241 1.387 . S
C1242 C1245 1.387 . S
H1243 C1239 0.950 1_455 S
H1244 C1241 0.950 1_455 S
C1245 C1236 1.390 . S
C1245 H1238 0.950 . S
C1245 C1242 1.387 . S
C1246 C1247 1.387 . S
C1246 H1250 0.950 . S
C1246 C1255 1.390 . S
C1247 C1246 1.387 . S
C1247 C1249 1.387 . S
H1248 C1255 0.950 . S
C1249 C1247 1.387 . S
C1249 C1251 1.390 . S
C1249 H1253 0.950 . S
H1250 C1246 0.950 . S
C1251 C1249 1.390 . S
C1251 C1252 1.387 . S
C1251 H1254 0.950 . S
C1252 C1251 1.387 . S
C1252 C1255 1.387 . S
H1253 C1249 0.950 . S
H1254 C1251 0.950 . S
C1255 C1246 1.390 . S
C1255 H1248 0.950 . S
C1255 C1252 1.387 . S
C1256 C1257 1.387 . S
C1256 H1260 0.950 1_455 S
C1256 C1265 1.390 . S
C1257 C1256 1.387 . S
C1257 C1259 1.387 . S
H1258 C1265 0.950 1_655 S
C1259 C1257 1.387 . S
C1259 C1261 1.390 . S
C1259 H1263 0.950 . S
H1260 C1256 0.950 1_655 S
C1261 C1259 1.390 . S
C1261 C1262 1.387 . S
C1261 H1264 0.950 . S
C1262 C1261 1.387 . S
C1262 C1265 1.387 . S
H1263 C1259 0.950 . S
H1264 C1261 0.950 . S
C1265 C1256 1.390 . S
C1265 H1258 0.950 1_455 S
C1265 C1262 1.387 . S
C1266 C1267 1.387 . S
C1266 H1270 0.950 . S
C1266 C1275 1.390 . S
C1267 C1266 1.387 . S
C1267 C1269 1.387 . S
H1268 C1275 0.950 . S
C1269 C1267 1.387 . S
C1269 C1271 1.390 . S
C1269 H1273 0.950 . S
H1270 C1266 0.950 . S
C1271 C1269 1.390 . S
C1271 C1272 1.387 . S
C1271 H1274 0.950 . S
C1272 C1271 1.387 . S
C1272 C1275 1.387 . S
H1273 C1269 0.950 . S
H1274 C1271 0.950 . S
C1275 C1266 1.390 . S
C1275 H1268 0.950 . S
C1275 C1272 1.387 . S
C1276 C1277 1.387 . S
C1276 H1280 0.950 1_655 S
C1276 C1285 1.390 . S
C1277 C1276 1.387 . S
C1277 C1279 1.387 . S
H1278 C1285 0.950 1_455 S
C1279 C1277 1.387 . S
C1279 C1281 1.390 . S
C1279 H1283 0.950 . S
H1280 C1276 0.950 1_455 S
C1281 C1279 1.390 . S
C1281 C1282 1.387 . S
C1281 H1284 0.950 . S
C1282 C1281 1.387 . S
C1282 C1285 1.387 . S
H1283 C1279 0.950 . S
H1284 C1281 0.950 . S
C1285 C1276 1.390 . S
C1285 H1278 0.950 1_655 S
C1285 C1282 1.387 . S
C1286 C1287 1.387 . S
C1286 H1290 0.950 . S
C1286 C1295 1.390 . S
C1287 C1286 1.387 . S
C1287 C1289 1.387 . S
H1288 C1295 0.950 . S
C1289 C1287 1.387 . S
C1289 C1291 1.390 . S
C1289 H1293 0.950 . S
H1290 C1286 0.950 . S
C1291 C1289 1.390 . S
C1291 C1292 1.387 . S
C1291 H1294 0.950 . S
C1292 C1291 1.387 . S
C1292 C1295 1.387 . S
H1293 C1289 0.950 . S
H1294 C1291 0.950 . S
C1295 C1286 1.390 . S
C1295 H1288 0.950 . S
C1295 C1292 1.387 . S
C1296 C1297 1.387 . S
C1296 H1300 0.950 . S
C1296 C1305 1.390 . S
C1297 C1296 1.387 . S
C1297 C1299 1.387 . S
H1298 C1305 0.950 . S
C1299 C1297 1.387 . S
C1299 C1301 1.390 . S
C1299 H1303 0.950 . S
H1300 C1296 0.950 . S
C1301 C1299 1.390 . S
C1301 C1302 1.387 . S
C1301 H1304 0.950 . S
C1302 C1301 1.387 . S
C1302 C1305 1.387 . S
H1303 C1299 0.950 . S
H1304 C1301 0.950 . S
C1305 C1296 1.390 . S
C1305 H1298 0.950 . S
C1305 C1302 1.387 . S
C1306 C1307 1.387 . S
C1306 H1310 0.950 . S
C1306 C1315 1.390 . S
C1307 C1306 1.387 . S
C1307 C1309 1.387 . S
H1308 C1315 0.950 . S
C1309 C1307 1.387 . S
C1309 C1311 1.390 . S
C1309 H1313 0.950 . S
H1310 C1306 0.950 . S
C1311 C1309 1.390 . S
C1311 C1312 1.387 . S
C1311 H1314 0.950 . S
C1312 C1311 1.387 . S
C1312 C1315 1.387 . S
H1313 C1309 0.950 . S
H1314 C1311 0.950 . S
C1315 C1306 1.390 . S
C1315 H1308 0.950 . S
C1315 C1312 1.387 . S
C1316 C1317 1.387 . S
C1316 H1320 0.950 . S
C1316 C1325 1.390 . S
C1317 C1316 1.387 . S
C1317 C1319 1.387 . S
H1318 C1325 0.950 . S
C1319 C1317 1.387 . S
C1319 C1321 1.390 . S
C1319 H1323 0.950 . S
H1320 C1316 0.950 . S
C1321 C1319 1.390 . S
C1321 C1322 1.387 . S
C1321 H1324 0.950 . S
C1322 C1321 1.387 . S
C1322 C1325 1.387 . S
H1323 C1319 0.950 . S
H1324 C1321 0.950 . S
C1325 C1316 1.390 . S
C1325 H1318 0.950 . S
C1325 C1322 1.387 . S
C1326 C1327 1.387 . S
C1326 H1330 0.950 . S
C1326 C1335 1.390 . S
C1327 C1326 1.387 . S
C1327 C1329 1.387 . S
H1328 C1335 0.950 . S
C1329 C1327 1.387 . S
C1329 C1331 1.390 . S
C1329 H1333 0.950 . S
H1330 C1326 0.950 . S
C1331 C1329 1.390 . S
C1331 C1332 1.387 . S
C1331 H1334 0.950 . S
C1332 C1331 1.387 . S
C1332 C1335 1.387 . S
H1333 C1329 0.950 . S
H1334 C1331 0.950 . S
C1335 C1326 1.390 . S
C1335 H1328 0.950 . S
C1335 C1332 1.387 . S
C1336 C1337 1.387 . S
C1336 H1340 0.950 . S
C1336 C1345 1.390 . S
C1337 C1336 1.387 . S
C1337 C1339 1.387 . S
H1338 C1345 0.950 . S
C1339 C1337 1.387 . S
C1339 C1341 1.390 . S
C1339 H1343 0.950 . S
H1340 C1336 0.950 . S
C1341 C1339 1.390 . S
C1341 C1342 1.387 . S
C1341 H1344 0.950 . S
C1342 C1341 1.387 . S
C1342 C1345 1.387 . S
H1343 C1339 0.950 . S
H1344 C1341 0.950 . S
C1345 C1336 1.390 . S
C1345 H1338 0.950 . S
C1345 C1342 1.387 . S
C1346 C1347 1.387 . S
C1346 H1350 0.950 . S
C1346 C1355 1.390 . S
C1347 C1346 1.387 . S
C1347 C1349 1.387 . S
H1348 C1355 0.950 . S
C1349 C1347 1.387 . S
C1349 C1351 1.390 . S
C1349 H1353 0.950 . S
H1350 C1346 0.950 . S
C1351 C1349 1.390 . S
C1351 C1352 1.387 . S
C1351 H1354 0.950 . S
C1352 C1351 1.387 . S
C1352 C1355 1.387 . S
H1353 C1349 0.950 . S
H1354 C1351 0.950 . S
C1355 C1346 1.390 . S
C1355 H1348 0.950 . S
C1355 C1352 1.387 . S
C1356 C1357 1.387 . S
C1356 H1360 0.950 . S
C1356 C1365 1.390 . S
C1357 C1356 1.387 . S
C1357 C1359 1.387 . S
H1358 C1365 0.950 . S
C1359 C1357 1.387 . S
C1359 C1361 1.390 . S
C1359 H1363 0.950 . S
H1360 C1356 0.950 . S
C1361 C1359 1.390 . S
C1361 C1362 1.387 . S
C1361 H1364 0.950 . S
C1362 C1361 1.387 . S
C1362 C1365 1.387 . S
H1363 C1359 0.950 . S
H1364 C1361 0.950 . S
C1365 C1356 1.390 . S
C1365 H1358 0.950 . S
C1365 C1362 1.387 . S
C1366 C1367 1.387 . S
C1366 H1370 0.950 . S
C1366 C1375 1.390 . S
C1367 C1366 1.387 . S
C1367 C1369 1.387 . S
H1368 C1375 0.950 . S
C1369 C1367 1.387 . S
C1369 C1371 1.390 . S
C1369 H1373 0.950 . S
H1370 C1366 0.950 . S
C1371 C1369 1.390 . S
C1371 C1372 1.387 . S
C1371 H1374 0.950 . S
C1372 C1371 1.387 . S
C1372 C1375 1.387 . S
H1373 C1369 0.950 . S
H1374 C1371 0.950 . S
C1375 C1366 1.390 . S
C1375 H1368 0.950 . S
C1375 C1372 1.387 . S
C1376 C1377 1.387 . S
C1376 H1380 0.950 . S
C1376 C1385 1.390 . S
C1377 C1376 1.387 . S
C1377 C1379 1.387 . S
H1378 C1385 0.950 . S
C1379 C1377 1.387 . S
C1379 C1381 1.390 . S
C1379 H1383 0.950 . S
H1380 C1376 0.950 . S
C1381 C1379 1.390 . S
C1381 C1382 1.387 . S
C1381 H1384 0.950 . S
C1382 C1381 1.387 . S
C1382 C1385 1.387 . S
H1383 C1379 0.950 . S
H1384 C1381 0.950 . S
C1385 C1376 1.390 . S
C1385 H1378 0.950 . S
C1385 C1382 1.387 . S
C1386 C1387 1.387 . S
C1386 H1390 0.950 . S
C1386 C1395 1.390 . S
C1387 C1386 1.387 . S
C1387 C1389 1.387 . S
H1388 C1395 0.950 . S
C1389 C1387 1.387 . S
C1389 C1391 1.390 . S
C1389 H1393 0.950 . S
H1390 C1386 0.950 . S
C1391 C1389 1.390 . S
C1391 C1392 1.387 . S
C1391 H1394 0.950 . S
C1392 C1391 1.387 . S
C1392 C1395 1.387 . S
H1393 C1389 0.950 . S
H1394 C1391 0.950 . S
C1395 C1386 1.390 . S
C1395 H1388 0.950 . S
C1395 C1392 1.387 . S
C1396 C1397 1.387 . S
C1396 H1400 0.950 . S
C1396 C1405 1.390 . S
C1397 C1396 1.387 . S
C1397 C1399 1.387 . S
H1398 C1405 0.950 . S
C1399 C1397 1.387 . S
C1399 C1401 1.390 . S
C1399 H1403 0.950 . S
H1400 C1396 0.950 . S
C1401 C1399 1.390 . S
C1401 C1402 1.387 . S
C1401 H1404 0.950 . S
C1402 C1401 1.387 . S
C1402 C1405 1.387 . S
H1403 C1399 0.950 . S
H1404 C1401 0.950 . S
C1405 C1396 1.390 . S
C1405 H1398 0.950 . S
C1405 C1402 1.387 . S
C1406 C1407 1.387 . S
C1406 H1410 0.950 . S
C1406 C1415 1.390 . S
C1407 C1406 1.387 . S
C1407 C1409 1.387 . S
H1408 C1415 0.950 . S
C1409 C1407 1.387 . S
C1409 C1411 1.390 . S
C1409 H1413 0.950 . S
H1410 C1406 0.950 . S
C1411 C1409 1.390 . S
C1411 C1412 1.387 . S
C1411 H1414 0.950 . S
C1412 C1411 1.387 . S
C1412 C1415 1.387 . S
H1413 C1409 0.950 . S
H1414 C1411 0.950 . S
C1415 C1406 1.390 . S
C1415 H1408 0.950 . S
C1415 C1412 1.387 . S
C1416 C1417 1.387 . S
C1416 H1420 0.950 . S
C1416 C1425 1.390 . S
C1417 C1416 1.387 . S
C1417 C1419 1.387 . S
H1418 C1425 0.950 . S
C1419 C1417 1.387 . S
C1419 C1421 1.390 . S
C1419 H1423 0.950 . S
H1420 C1416 0.950 . S
C1421 C1419 1.390 . S
C1421 C1422 1.387 . S
C1421 H1424 0.950 . S
C1422 C1421 1.387 . S
C1422 C1425 1.387 . S
H1423 C1419 0.950 . S
H1424 C1421 0.950 . S
C1425 C1416 1.390 . S
C1425 H1418 0.950 . S
C1425 C1422 1.387 . S
C1426 C1427 1.387 . S
C1426 H1430 0.950 . S
C1426 C1435 1.390 . S
C1427 C1426 1.387 . S
C1427 C1429 1.387 . S
H1428 C1435 0.950 . S
C1429 C1427 1.387 . S
C1429 C1431 1.390 . S
C1429 H1433 0.950 . S
H1430 C1426 0.950 . S
C1431 C1429 1.390 . S
C1431 C1432 1.387 . S
C1431 H1434 0.950 . S
C1432 C1431 1.387 . S
C1432 C1435 1.387 . S
H1433 C1429 0.950 . S
H1434 C1431 0.950 . S
C1435 C1426 1.390 . S
C1435 H1428 0.950 . S
C1435 C1432 1.387 . S
C1436 C1437 1.387 . S
C1436 H1440 0.950 . S
C1436 C1445 1.390 . S
C1437 C1436 1.387 . S
C1437 C1439 1.387 . S
H1438 C1445 0.950 . S
C1439 C1437 1.387 . S
C1439 C1441 1.390 . S
C1439 H1443 0.950 . S
H1440 C1436 0.950 . S
C1441 C1439 1.390 . S
C1441 C1442 1.387 . S
C1441 H1444 0.950 . S
C1442 C1441 1.387 . S
C1442 C1445 1.387 . S
H1443 C1439 0.950 . S
H1444 C1441 0.950 . S
C1445 C1436 1.390 . S
C1445 H1438 0.950 . S
C1445 C1442 1.387 . S
C1446 C1447 1.387 . S
C1446 H1450 0.950 . S
C1446 C1455 1.390 . S
C1447 C1446 1.387 . S
C1447 C1449 1.387 . S
H1448 C1455 0.950 . S
C1449 C1447 1.387 . S
C1449 C1451 1.390 . S
C1449 H1453 0.950 . S
H1450 C1446 0.950 . S
C1451 C1449 1.390 . S
C1451 C1452 1.387 . S
C1451 H1454 0.950 . S
C1452 C1451 1.387 . S
C1452 C1455 1.387 . S
H1453 C1449 0.950 . S
H1454 C1451 0.950 . S
C1455 C1446 1.390 . S
C1455 H1448 0.950 . S
C1455 C1452 1.387 . S
C1456 C1457 1.387 . S
C1456 H1460 0.950 . S
C1456 C1465 1.390 . S
C1457 C1456 1.387 . S
C1457 C1459 1.387 . S
H1458 C1465 0.950 . S
C1459 C1457 1.387 . S
C1459 C1461 1.390 . S
C1459 H1463 0.950 . S
H1460 C1456 0.950 . S
C1461 C1459 1.390 . S
C1461 C1462 1.387 . S
C1461 H1464 0.950 . S
C1462 C1461 1.387 . S
C1462 C1465 1.387 . S
H1463 C1459 0.950 . S
H1464 C1461 0.950 . S
C1465 C1456 1.390 . S
C1465 H1458 0.950 . S
C1465 C1462 1.387 . S
C1466 C1467 1.387 . S
C1466 H1470 0.950 . S
C1466 C1475 1.390 . S
C1467 C1466 1.387 . S
C1467 C1469 1.387 . S
H1468 C1475 0.950 . S
C1469 C1467 1.387 . S
C1469 C1471 1.390 . S
C1469 H1473 0.950 . S
H1470 C1466 0.950 . S
C1471 C1469 1.390 . S
C1471 C1472 1.387 . S
C1471 H1474 0.950 . S
C1472 C1471 1.387 . S
C1472 C1475 1.387 . S
H1473 C1469 0.950 . S
H1474 C1471 0.950 . S
C1475 C1466 1.390 . S
C1475 H1468 0.950 . S
C1475 C1472 1.387 . S
C1476 C1477 1.387 . S
C1476 H1480 0.950 . S
C1476 C1485 1.390 . S
C1477 C1476 1.387 . S
C1477 C1479 1.387 . S
H1478 C1485 0.950 . S
C1479 C1477 1.387 . S
C1479 C1481 1.390 . S
C1479 H1483 0.950 . S
H1480 C1476 0.950 . S
C1481 C1479 1.390 . S
C1481 C1482 1.387 . S
C1481 H1484 0.950 . S
C1482 C1481 1.387 . S
C1482 C1485 1.387 . S
H1483 C1479 0.950 . S
H1484 C1481 0.950 . S
C1485 C1476 1.390 . S
C1485 H1478 0.950 . S
C1485 C1482 1.387 . S
C1486 C1487 1.387 . S
C1486 H1490 0.950 . S
C1486 C1495 1.390 . S
C1487 C1486 1.387 . S
C1487 C1489 1.387 . S
H1488 C1495 0.950 . S
C1489 C1487 1.387 . S
C1489 C1491 1.390 . S
C1489 H1493 0.950 . S
H1490 C1486 0.950 . S
C1491 C1489 1.390 . S
C1491 C1492 1.387 . S
C1491 H1494 0.950 . S
C1492 C1491 1.387 . S
C1492 C1495 1.387 . S
H1493 C1489 0.950 . S
H1494 C1491 0.950 . S
C1495 C1486 1.390 . S
C1495 H1488 0.950 . S
C1495 C1492 1.387 . S
C1496 C1497 1.387 . S
C1496 H1500 0.950 . S
C1496 C1505 1.390 . S
C1497 C1496 1.387 . S
C1497 C1499 1.387 . S
H1498 C1505 0.950 . S
C1499 C1497 1.387 . S
C1499 C1501 1.390 . S
C1499 H1503 0.950 . S
H1500 C1496 0.950 . S
C1501 C1499 1.390 . S
C1501 C1502 1.387 . S
C1501 H1504 0.950 . S
C1502 C1501 1.387 . S
C1502 C1505 1.387 . S
H1503 C1499 0.950 . S
H1504 C1501 0.950 . S
C1505 C1496 1.390 . S
C1505 H1498 0.950 . S
C1505 C1502 1.387 . S
C1506 C1507 1.387 . S
C1506 H1510 0.950 . S
C1506 C1515 1.390 . S
C1507 C1506 1.387 . S
C1507 C1509 1.387 . S
H1508 C1515 0.950 . S
C1509 C1507 1.387 . S
C1509 C1511 1.390 . S
C1509 H1513 0.950 . S
H1510 C1506 0.950 . S
C1511 C1509 1.390 . S
C1511 C1512 1.387 . S
C1511 H1514 0.950 . S
C1512 C1511 1.387 . S
C1512 C1515 1.387 . S
H1513 C1509 0.950 . S
H1514 C1511 0.950 . S
C1515 C1506 1.390 . S
C1515 H1508 0.950 . S
C1515 C1512 1.387 . S
C1516 C1517 1.387 . S
C1516 H1520 0.950 . S
C1516 C1525 1.390 . S
C1517 C1516 1.387 . S
C1517 C1519 1.387 . S
H1518 C1525 0.950 . S
C1519 C1517 1.387 . S
C1519 C1521 1.390 . S
C1519 H1523 0.950 . S
H1520 C1516 0.950 . S
C1521 C1519 1.390 . S
C1521 C1522 1.387 . S
C1521 H1524 0.950 . S
C1522 C1521 1.387 . S
C1522 C1525 1.387 . S
H1523 C1519 0.950 . S
H1524 C1521 0.950 . S
C1525 C1516 1.390 . S
C1525 H1518 0.950 . S
C1525 C1522 1.387 . S
C1526 C1527 1.387 . S
C1526 H1530 0.950 . S
C1526 C1535 1.390 . S
C1527 C1526 1.387 . S
C1527 C1529 1.387 . S
H1528 C1535 0.950 . S
C1529 C1527 1.387 . S
C1529 C1531 1.390 . S
C1529 H1533 0.950 . S
H1530 C1526 0.950 . S
C1531 C1529 1.390 . S
C1531 C1532 1.387 . S
C1531 H1534 0.950 . S
C1532 C1531 1.387 . S
C1532 C1535 1.387 . S
H1533 C1529 0.950 . S
H1534 C1531 0.950 . S
C1535 C1526 1.390 . S
C1535 H1528 0.950 . S
C1535 C1532 1.387 . S
C1536 C1537 1.425 . S
C1536 H1540 0.950 . S
C1536 C1545 1.390 . S
C1537 C1536 1.425 . S
C1537 C1539 1.343 1_455 S
H1538 C1545 0.950 1_565 S
C1539 C1537 1.343 1_655 S
C1539 C1541 1.390 . S
C1539 H1543 0.950 . S
H1540 C1536 0.950 . S
C1541 C1539 1.390 . S
C1541 C1542 1.387 . S
C1541 H1544 0.950 . S
C1542 C1541 1.387 . S
C1542 C1545 1.387 1_655 S
H1543 C1539 0.950 . S
H1544 C1541 0.950 . S
C1545 C1536 1.390 . S
C1545 H1538 0.950 1_545 S
C1545 C1542 1.387 1_455 S
C1546 C1547 1.387 . S
C1546 H1550 0.950 . S
C1546 C1555 1.390 . S
C1547 C1546 1.387 . S
C1547 C1549 1.387 . S
H1548 C1555 0.950 . S
C1549 C1547 1.387 . S
C1549 C1551 1.390 . S
C1549 H1553 0.950 . S
H1550 C1546 0.950 . S
C1551 C1549 1.390 . S
C1551 C1552 1.387 . S
C1551 H1554 0.950 . S
C1552 C1551 1.387 . S
C1552 C1555 1.387 . S
H1553 C1549 0.950 . S
H1554 C1551 0.950 . S
C1555 C1546 1.390 . S
C1555 H1548 0.950 . S
C1555 C1552 1.387 . S
C1556 C1557 1.387 . S
C1556 H1560 0.950 . S
C1556 C1565 1.390 . S
C1557 C1556 1.387 . S
C1557 C1559 1.387 1_655 S
H1558 C1565 0.950 . S
C1559 C1557 1.387 1_455 S
C1559 C1561 1.390 . S
C1559 H1563 0.950 1_556 S
H1560 C1556 0.950 . S
C1561 C1559 1.390 . S
C1561 C1562 1.415 . S
C1561 H1564 0.950 . S
C1562 C1561 1.415 . S
C1562 C1565 1.354 1_455 S
H1563 C1559 0.950 1_554 S
H1564 C1561 0.950 . S
C1565 C1556 1.390 . S
C1565 H1558 0.950 . S
C1565 C1562 1.354 1_655 S
C1566 C1567 1.387 . S
C1566 H1570 0.950 . S
C1566 C1575 1.390 . S
C1567 C1566 1.387 . S
C1567 C1569 1.387 . S
H1568 C1575 0.951 . S
C1569 C1567 1.387 . S
C1569 C1571 1.390 . S
C1569 H1573 0.950 . S
H1570 C1566 0.950 . S
C1571 C1569 1.390 . S
C1571 C1572 1.387 . S
C1571 H1574 0.950 . S
C1572 C1571 1.387 . S
C1572 C1575 1.387 . S
H1573 C1569 0.950 . S
H1574 C1571 0.950 . S
C1575 C1566 1.390 . S
C1575 H1568 0.951 . S
C1575 C1572 1.387 . S
C1576 C1577 1.387 1_655 S
C1576 H1580 0.950 . S
C1576 C1585 1.390 . S
C1577 C1576 1.387 1_455 S
C1577 C1579 1.387 . S
H1578 C1585 0.950 . S
C1579 C1577 1.387 . S
C1579 C1581 1.390 . S
C1579 H1583 0.950 . S
H1580 C1576 0.950 . S
C1581 C1579 1.390 . S
C1581 C1582 1.343 1_455 S
C1581 H1584 0.950 . S
C1582 C1581 1.343 1_655 S
C1582 C1585 1.426 . S
H1583 C1579 0.950 . S
H1584 C1581 0.950 . S
C1585 C1576 1.390 . S
C1585 H1578 0.950 . S
C1585 C1582 1.426 . S
C1586 C1587 1.387 . S
C1586 H1590 0.950 . S
C1586 C1595 1.390 . S
C1587 C1586 1.387 . S
C1587 C1589 1.387 . S
H1588 C1595 0.950 . S
C1589 C1587 1.387 . S
C1589 C1591 1.390 . S
C1589 H1593 0.950 . S
H1590 C1586 0.950 . S
C1591 C1589 1.390 . S
C1591 C1592 1.387 . S
C1591 H1594 0.950 . S
C1592 C1591 1.387 . S
C1592 C1595 1.387 . S
H1593 C1589 0.950 . S
H1594 C1591 0.950 . S
C1595 C1586 1.390 . S
C1595 H1588 0.950 . S
C1595 C1592 1.387 . S
C1596 C1597 1.387 . S
C1596 H1600 0.950 . S
C1596 C1605 1.390 . S
C1597 C1596 1.387 . S
C1597 C1599 1.387 1_455 S
H1598 C1605 0.950 . S
C1599 C1597 1.387 1_655 S
C1599 C1601 1.390 . S
C1599 H1603 0.950 1_554 S
H1600 C1596 0.950 . S
C1601 C1599 1.390 . S
C1601 C1602 1.406 . S
C1601 H1604 0.950 . S
C1602 C1601 1.406 . S
C1602 C1605 1.364 1_655 S
H1603 C1599 0.950 1_556 S
H1604 C1601 0.950 . S
C1605 C1596 1.390 . S
C1605 H1598 0.950 . S
C1605 C1602 1.364 1_455 S
C1606 C1607 1.387 . S
C1606 H1610 0.950 1_565 S
C1606 C1615 1.390 . S
C1607 C1606 1.387 . S
C1607 C1609 1.387 . S
H1608 C1615 0.950 . S
C1609 C1607 1.387 . S
C1609 C1611 1.390 . S
C1609 H1613 0.950 . S
H1610 C1606 0.950 1_545 S
C1611 C1609 1.390 . S
C1611 C1612 1.387 . S
C1611 H1614 0.950 . S
C1612 C1611 1.387 . S
C1612 C1615 1.387 . S
H1613 C1609 0.950 . S
H1614 C1611 0.950 . S
C1615 C1606 1.390 . S
C1615 H1608 0.950 . S
C1615 C1612 1.387 . S
C1616 C1617 1.387 1_455 S
C1616 H1620 0.950 . S
C1616 C1625 1.390 . S
C1617 C1616 1.387 1_655 S
C1617 C1619 1.387 . S
H1618 C1625 0.950 . S
C1619 C1617 1.387 . S
C1619 C1621 1.390 . S
C1619 H1623 0.950 . S
H1620 C1616 0.950 . S
C1621 C1619 1.390 . S
C1621 C1622 1.343 1_655 S
C1621 H1624 0.950 . S
C1622 C1621 1.343 1_455 S
C1622 C1625 1.426 . S
H1623 C1619 0.950 . S
H1624 C1621 0.950 . S
C1625 C1616 1.390 . S
C1625 H1618 0.950 . S
C1625 C1622 1.426 . S
C1626 C1627 1.387 . S
C1626 H1630 0.950 . S
C1626 C1635 1.390 . S
C1627 C1626 1.387 . S
C1627 C1629 1.387 . S
H1628 C1635 0.950 . S
C1629 C1627 1.387 . S
C1629 C1631 1.390 . S
C1629 H1633 0.950 . S
H1630 C1626 0.950 . S
C1631 C1629 1.390 . S
C1631 C1632 1.387 . S
C1631 H1634 0.950 . S
C1632 C1631 1.387 . S
C1632 C1635 1.387 . S
H1633 C1629 0.950 . S
H1634 C1631 0.950 . S
C1635 C1626 1.390 . S
C1635 H1628 0.950 . S
C1635 C1632 1.387 . S
C1636 C1637 1.387 1_455 S
C1636 H1640 0.950 . S
C1636 C1645 1.390 . S
C1637 C1636 1.387 1_655 S
C1637 C1639 1.387 . S
H1638 C1645 0.950 . S
C1639 C1637 1.387 . S
C1639 C1641 1.390 . S
C1639 H1643 0.950 . S
H1640 C1636 0.950 . S
C1641 C1639 1.390 . S
C1641 C1642 1.343 1_655 S
C1641 H1644 0.950 . S
C1642 C1641 1.343 1_455 S
C1642 C1645 1.426 . S
H1643 C1639 0.950 . S
H1644 C1641 0.950 . S
C1645 C1636 1.390 . S
C1645 H1638 0.950 . S
C1645 C1642 1.426 . S
C1646 C1647 1.387 . S
C1646 H1650 0.950 . S
C1646 C1655 1.390 . S
C1647 C1646 1.387 . S
C1647 C1649 1.387 . S
H1648 C1655 0.950 . S
C1649 C1647 1.387 . S
C1649 C1651 1.390 . S
C1649 H1653 0.950 . S
H1650 C1646 0.950 . S
C1651 C1649 1.390 . S
C1651 C1652 1.387 . S
C1651 H1654 0.950 . S
C1652 C1651 1.387 . S
C1652 C1655 1.387 . S
H1653 C1649 0.950 . S
H1654 C1651 0.950 . S
C1655 C1646 1.390 . S
C1655 H1648 0.950 . S
C1655 C1652 1.387 . S
C1656 C1657 1.343 1_455 S
C1656 H1660 0.950 . S
C1656 C1665 1.390 . S
C1657 C1656 1.343 1_655 S
C1657 C1659 1.426 . S
H1658 C1665 0.950 . S
C1659 C1657 1.426 . S
C1659 C1661 1.390 . S
C1659 H1663 0.950 . S
H1660 C1656 0.950 . S
C1661 C1659 1.390 . S
C1661 C1662 1.387 1_655 S
C1661 H1664 0.950 . S
C1662 C1661 1.387 1_455 S
C1662 C1665 1.387 . S
H1663 C1659 0.950 . S
H1664 C1661 0.950 . S
C1665 C1656 1.390 . S
C1665 H1658 0.950 . S
C1665 C1662 1.387 . S
C1666 C1667 1.387 . S
C1666 H1670 0.950 . S
C1666 C1675 1.390 . S
C1667 C1666 1.387 . S
C1667 C1669 1.387 . S
H1668 C1675 0.950 . S
C1669 C1667 1.387 . S
C1669 C1671 1.390 . S
C1669 H1673 0.950 . S
H1670 C1666 0.950 . S
C1671 C1669 1.390 . S
C1671 C1672 1.387 . S
C1671 H1674 0.950 . S
C1672 C1671 1.387 . S
C1672 C1675 1.387 . S
H1673 C1669 0.950 . S
H1674 C1671 0.950 . S
C1675 C1666 1.390 . S
C1675 H1668 0.950 . S
C1675 C1672 1.387 . S
C1676 C1677 1.387 1_655 S
C1676 H1680 0.950 . S
C1676 C1685 1.390 . S
C1677 C1676 1.387 1_455 S
C1677 C1679 1.387 . S
H1678 C1685 0.950 . S
C1679 C1677 1.387 . S
C1679 C1681 1.390 . S
C1679 H1683 0.950 . S
H1680 C1676 0.950 . S
C1681 C1679 1.390 . S
C1681 C1682 1.346 1_455 S
C1681 H1684 0.950 . S
C1682 C1681 1.346 1_655 S
C1682 C1685 1.423 . S
H1683 C1679 0.950 . S
H1684 C1681 0.950 . S
C1685 C1676 1.390 . S
C1685 H1678 0.950 . S
C1685 C1682 1.423 . S
C1686 C1687 1.387 . S
C1686 H1690 0.950 . S
C1686 C1695 1.390 . S
C1687 C1686 1.387 . S
C1687 C1689 1.387 . S
H1688 C1695 0.950 . S
C1689 C1687 1.387 . S
C1689 C1691 1.390 . S
C1689 H1693 0.950 . S
H1690 C1686 0.950 . S
C1691 C1689 1.390 . S
C1691 C1692 1.387 . S
C1691 H1694 0.950 . S
C1692 C1691 1.387 . S
C1692 C1695 1.387 . S
H1693 C1689 0.950 . S
H1694 C1691 0.950 . S
C1695 C1686 1.390 . S
C1695 H1688 0.950 . S
C1695 C1692 1.387 . S
C1696 C1697 1.387 . S
C1696 H1700 0.950 . S
C1696 C1705 1.390 . S
C1697 C1696 1.387 . S
C1697 C1699 1.387 1_545 S
H1698 C1705 0.950 . S
C1699 C1697 1.387 1_565 S
C1699 C1701 1.390 1_565 S
C1699 H1703 0.950 . S
H1700 C1696 0.950 . S
C1701 C1699 1.390 1_545 S
C1701 C1702 1.387 . S
C1701 H1704 0.950 . S
C1702 C1701 1.387 . S
C1702 C1705 1.387 . S
H1703 C1699 0.950 . S
H1704 C1701 0.950 . S
C1705 C1696 1.390 . S
C1705 H1698 0.950 . S
C1705 C1702 1.387 . S
C1706 C1707 1.387 . S
C1706 H1710 0.950 . S
C1706 C1715 1.390 . S
C1707 C1706 1.387 . S
C1707 C1709 1.387 . S
H1708 C1715 0.950 . S
C1709 C1707 1.387 . S
C1709 C1711 1.390 . S
C1709 H1713 0.950 . S
H1710 C1706 0.950 . S
C1711 C1709 1.390 . S
C1711 C1712 1.387 . S
C1711 H1714 0.950 . S
C1712 C1711 1.387 . S
C1712 C1715 1.387 . S
H1713 C1709 0.950 . S
H1714 C1711 0.950 . S
C1715 C1706 1.390 . S
C1715 H1708 0.950 . S
C1715 C1712 1.387 . S
C1716 C1717 1.387 . S
C1716 H1720 0.950 . S
C1716 C1725 1.390 . S
C1717 C1716 1.387 . S
C1717 C1719 1.387 . S
H1718 C1725 0.950 . S
C1719 C1717 1.387 . S
C1719 C1721 1.390 . S
C1719 H1723 0.950 . S
H1720 C1716 0.950 . S
C1721 C1719 1.390 . S
C1721 C1722 1.387 . S
C1721 H1724 0.950 . S
C1722 C1721 1.387 . S
C1722 C1725 1.387 . S
H1723 C1719 0.950 . S
H1724 C1721 0.950 . S
C1725 C1716 1.390 . S
C1725 H1718 0.950 . S
C1725 C1722 1.387 . S
C1726 C1727 1.387 . S
C1726 H1730 0.950 . S
C1726 C1735 1.390 . S
C1727 C1726 1.387 . S
C1727 C1729 1.387 . S
H1728 C1735 0.950 . S
C1729 C1727 1.387 . S
C1729 C1731 1.390 . S
C1729 H1733 0.950 . S
H1730 C1726 0.950 . S
C1731 C1729 1.390 . S
C1731 C1732 1.387 . S
C1731 H1734 0.950 . S
C1732 C1731 1.387 . S
C1732 C1735 1.387 . S
H1733 C1729 0.950 . S
H1734 C1731 0.950 . S
C1735 C1726 1.390 . S
C1735 H1728 0.950 . S
C1735 C1732 1.387 . S
C1736 C1737 1.387 . S
C1736 H1740 0.950 1_565 S
C1736 C1745 1.390 . S
C1737 C1736 1.387 . S
C1737 C1739 1.387 . S
H1738 C1745 0.950 . S
C1739 C1737 1.387 . S
C1739 C1741 1.390 . S
C1739 H1743 0.950 . S
H1740 C1736 0.950 1_545 S
C1741 C1739 1.390 . S
C1741 C1742 1.387 . S
C1741 H1744 0.950 . S
C1742 C1741 1.387 . S
C1742 C1745 1.387 . S
H1743 C1739 0.950 . S
H1744 C1741 0.950 . S
C1745 C1736 1.390 . S
C1745 H1738 0.950 . S
C1745 C1742 1.387 . S
C1746 C1747 1.387 . S
C1746 H1750 0.950 . S
C1746 C1755 1.390 . S
C1747 C1746 1.387 . S
C1747 C1749 1.387 . S
H1748 C1755 0.950 . S
C1749 C1747 1.387 . S
C1749 C1751 1.390 . S
C1749 H1753 0.950 . S
H1750 C1746 0.950 . S
C1751 C1749 1.390 . S
C1751 C1752 1.387 . S
C1751 H1754 0.950 . S
C1752 C1751 1.387 . S
C1752 C1755 1.387 . S
H1753 C1749 0.950 . S
H1754 C1751 0.950 . S
C1755 C1746 1.390 . S
C1755 H1748 0.950 . S
C1755 C1752 1.387 . S
C1756 C1757 1.387 . S
C1756 H1760 0.950 . S
C1756 C1765 1.390 . S
C1757 C1756 1.387 . S
C1757 C1759 1.387 . S
H1758 C1765 0.950 . S
C1759 C1757 1.387 . S
C1759 C1761 1.390 . S
C1759 H1763 0.950 . S
H1760 C1756 0.950 . S
C1761 C1759 1.390 . S
C1761 C1762 1.387 . S
C1761 H1764 0.950 . S
C1762 C1761 1.387 . S
C1762 C1765 1.387 . S
H1763 C1759 0.950 . S
H1764 C1761 0.950 . S
C1765 C1756 1.390 . S
C1765 H1758 0.950 . S
C1765 C1762 1.387 . S
C1766 C1767 1.387 . S
C1766 H1770 0.950 . S
C1766 C1775 1.390 . S
C1767 C1766 1.387 . S
C1767 C1769 1.387 . S
H1768 C1775 0.950 1_545 S
C1769 C1767 1.387 . S
C1769 C1771 1.390 . S
C1769 H1773 0.950 . S
H1770 C1766 0.950 . S
C1771 C1769 1.390 . S
C1771 C1772 1.387 . S
C1771 H1774 0.950 . S
C1772 C1771 1.387 . S
C1772 C1775 1.387 . S
H1773 C1769 0.950 . S
H1774 C1771 0.950 . S
C1775 C1766 1.390 . S
C1775 H1768 0.950 1_565 S
C1775 C1772 1.387 . S
C1776 C1777 1.387 . S
C1776 H1780 0.950 . S
C1776 C1785 1.390 . S
C1777 C1776 1.387 . S
C1777 C1779 1.387 . S
H1778 C1785 0.950 . S
C1779 C1777 1.387 . S
C1779 C1781 1.390 . S
C1779 H1783 0.950 . S
H1780 C1776 0.950 . S
C1781 C1779 1.390 . S
C1781 C1782 1.387 . S
C1781 H1784 0.950 . S
C1782 C1781 1.387 . S
C1782 C1785 1.387 . S
H1783 C1779 0.950 . S
H1784 C1781 0.950 . S
C1785 C1776 1.390 . S
C1785 H1778 0.950 . S
C1785 C1782 1.387 . S
C1786 C1787 1.387 . S
C1786 H1790 0.950 . S
C1786 C1795 1.390 . S
C1787 C1786 1.387 . S
C1787 C1789 1.387 . S
H1788 C1795 0.950 . S
C1789 C1787 1.387 . S
C1789 C1791 1.390 . S
C1789 H1793 0.950 . S
H1790 C1786 0.950 . S
C1791 C1789 1.390 . S
C1791 C1792 1.387 . S
C1791 H1794 0.950 . S
C1792 C1791 1.387 . S
C1792 C1795 1.387 . S
H1793 C1789 0.950 . S
H1794 C1791 0.950 . S
C1795 C1786 1.390 . S
C1795 H1788 0.950 . S
C1795 C1792 1.387 . S
C1796 C1797 1.387 . S
C1796 H1800 0.950 . S
C1796 C1805 1.390 . S
C1797 C1796 1.387 . S
C1797 C1799 1.387 . S
H1798 C1805 0.950 . S
C1799 C1797 1.387 . S
C1799 C1801 1.390 . S
C1799 H1803 0.950 . S
H1800 C1796 0.950 . S
C1801 C1799 1.390 . S
C1801 C1802 1.387 . S
C1801 H1804 0.950 . S
C1802 C1801 1.387 . S
C1802 C1805 1.387 . S
H1803 C1799 0.950 . S
H1804 C1801 0.950 . S
C1805 C1796 1.390 . S
C1805 H1798 0.950 . S
C1805 C1802 1.387 . S
C1806 C1807 1.387 . S
C1806 H1810 0.950 . S
C1806 C1815 1.390 . S
C1807 C1806 1.387 . S
C1807 C1809 1.387 . S
H1808 C1815 0.950 . S
C1809 C1807 1.387 . S
C1809 C1811 1.390 . S
C1809 H1813 0.950 . S
H1810 C1806 0.950 . S
C1811 C1809 1.390 . S
C1811 C1812 1.387 . S
C1811 H1814 0.950 1_556 S
C1812 C1811 1.387 . S
C1812 C1815 1.387 . S
H1813 C1809 0.950 . S
H1814 C1811 0.950 1_554 S
C1815 C1806 1.390 . S
C1815 H1808 0.950 . S
C1815 C1812 1.387 . S
C1816 C1817 1.387 . S
C1816 H1820 0.950 . S
C1816 C1825 1.390 . S
C1817 C1816 1.387 . S
C1817 C1819 1.387 . S
H1818 C1825 0.950 . S
C1819 C1817 1.387 . S
C1819 C1821 1.390 . S
C1819 H1823 0.950 . S
H1820 C1816 0.950 . S
C1821 C1819 1.390 . S
C1821 C1822 1.387 . S
C1821 H1824 0.950 . S
C1822 C1821 1.387 . S
C1822 C1825 1.387 . S
H1823 C1819 0.950 . S
H1824 C1821 0.950 . S
C1825 C1816 1.390 . S
C1825 H1818 0.950 . S
C1825 C1822 1.387 . S
C1826 C1827 1.387 . S
C1826 H1830 0.950 . S
C1826 C1835 1.390 . S
C1827 C1826 1.387 . S
C1827 C1829 1.387 . S
H1828 C1835 0.950 . S
C1829 C1827 1.387 . S
C1829 C1831 1.390 . S
C1829 H1833 0.950 . S
H1830 C1826 0.950 . S
C1831 C1829 1.390 . S
C1831 C1832 1.387 . S
C1831 H1834 0.950 . S
C1832 C1831 1.387 . S
C1832 C1835 1.387 . S
H1833 C1829 0.950 . S
H1834 C1831 0.950 . S
C1835 C1826 1.390 . S
C1835 H1828 0.950 . S
C1835 C1832 1.387 . S
C1836 C1837 1.387 . S
C1836 H1840 0.950 . S
C1836 C1845 1.390 . S
C1837 C1836 1.387 . S
C1837 C1839 1.387 . S
H1838 C1845 0.950 . S
C1839 C1837 1.387 . S
C1839 C1841 1.390 . S
C1839 H1843 0.950 . S
H1840 C1836 0.950 . S
C1841 C1839 1.390 . S
C1841 C1842 1.387 . S
C1841 H1844 0.950 1_554 S
C1842 C1841 1.387 . S
C1842 C1845 1.387 . S
H1843 C1839 0.950 . S
H1844 C1841 0.950 1_556 S
C1845 C1836 1.390 . S
C1845 H1838 0.950 . S
C1845 C1842 1.387 . S
C1846 C1847 1.387 . S
C1846 H1850 0.950 1_554 S
C1846 C1855 1.390 . S
C1847 C1846 1.387 . S
C1847 C1849 1.387 . S
H1848 C1855 0.950 . S
C1849 C1847 1.387 . S
C1849 C1851 1.390 . S
C1849 H1853 0.950 . S
H1850 C1846 0.950 1_556 S
C1851 C1849 1.390 . S
C1851 C1852 1.387 . S
C1851 H1854 0.950 . S
C1852 C1851 1.387 . S
C1852 C1855 1.387 . S
H1853 C1849 0.950 . S
H1854 C1851 0.950 . S
C1855 C1846 1.390 . S
C1855 H1848 0.950 . S
C1855 C1852 1.387 . S
C1057 N398 1.128 . S
C1062 N2 1.128 . S
C1067 N695 1.127 . S
C1072 N35 1.127 . S
C1077 N200 1.130 . S
C1082 N68 1.130 . S
C1087 N1025 1.131 . S
C1092 N101 1.131 . S
C1097 N266 1.127 . S
C1102 N134 1.127 . S
C1107 N563 1.131 . S
C1112 N167 1.131 . S
C1117 N233 1.132 . S
C1122 N893 1.132 . S
C1127 N299 1.130 . S
C1132 N959 1.130 . S
C1137 N464 1.129 . S
C1142 N332 1.129 . S
C1147 N365 1.126 . S
C1152 N761 1.126 . S
C1157 N827 1.127 . S
C1162 N431 1.127 . S
C1167 N497 1.127 . S
C1172 N629 1.127 . S
C1177 N926 1.132 . S
C1182 N530 1.132 . S
C1187 N728 1.126 . S
C1192 N596 1.126 . S
C1197 N662 1.132 . S
C1202 N794 1.132 . S
C1207 N992 1.127 . S
C1212 N860 1.127 . S
C1217 N13 1.141 . S
C1222 N79 1.141 . S
C1227 N46 1.141 . S
C1232 N112 1.141 . S
C1237 N211 1.137 . S
C1242 N145 1.137 . S
C1247 N244 1.141 . S
C1252 N178 1.141 . S
C1257 N277 1.137 . S
C1262 N343 1.137 . S
C1267 N376 1.141 . S
C1272 N310 1.141 . S
C1277 N475 1.141 . S
C1282 N409 1.141 . S
C1287 N508 1.137 . S
C1292 N442 1.137 . S
C1297 N541 1.137 . S
C1302 N607 1.137 . S
C1307 N640 1.137 . S
C1312 N574 1.137 . S
C1317 N739 1.137 . S
C1322 N673 1.137 . S
C1327 N772 1.137 . S
C1332 N706 1.137 . S
C1337 N805 1.141 . S
C1342 N871 1.141 . S
C1347 N904 1.137 . S
C1352 N838 1.137 . S
C1357 N937 1.141 . S
C1362 N1003 1.141 . S
C1367 N1036 1.141 . S
C1372 N970 1.141 . S
C1377 C21 1.601 . S
C1382 C54 1.601 . S
C1387 C120 1.599 . S
C1392 C87 1.599 . S
C1397 C186 1.599 . S
C1402 C153 1.599 . S
C1407 C219 1.599 . S
C1412 C252 1.599 . S
C1417 C285 1.601 . S
C1422 C318 1.601 . S
C1427 C351 1.601 . S
C1432 C384 1.601 . S
C1437 C450 1.601 . S
C1442 C417 1.601 . S
C1447 C516 1.599 . S
C1452 C483 1.599 . S
C1457 C549 1.599 . S
C1462 C582 1.599 . S
C1467 C648 1.598 . S
C1472 C615 1.598 . S
C1477 C714 1.601 . S
C1482 C681 1.601 . S
C1487 C780 1.598 . S
C1492 C747 1.598 . S
C1497 C846 1.601 . S
C1502 C813 1.601 . S
C1507 C912 1.601 . S
C1512 C879 1.601 . S
C1517 C945 1.601 . S
C1522 C978 1.601 . S
C1527 C1044 1.599 . S
C1532 C1011 1.599 . S
C1537 C7 1.790 . S
C1542 C216 1.838 1_545 S
C1547 C1041 1.840 . S
C1552 C40 1.775 . S
C1557 C414 1.839 1_556 S
C1562 C73 1.792 . S
C1567 C106 1.774 . S
C1572 C711 1.839 1_546 S
C1577 C84 1.840 1_565 S
C1582 C139 1.792 . S
C1587 C909 1.840 . S
C1592 C172 1.775 . S
C1597 C282 1.839 1_554 S
C1602 C205 1.789 . S
C1607 C579 1.839 1_564 S
C1612 C238 1.774 . S
C1617 C480 1.838 . S
C1622 C271 1.790 . S
C1627 C777 1.838 . S
C1632 C304 1.773 . S
C1637 C150 1.838 . S
C1642 C337 1.789 . S
C1647 C975 1.838 . S
C1652 C370 1.772 . S
C1657 C403 1.790 . S
C1662 C348 1.838 . S
C1667 C645 1.839 . S
C1672 C436 1.775 . S
C1677 C18 1.840 . S
C1682 C469 1.791 . S
C1687 C843 1.840 . S
C1692 C502 1.776 . S
C1697 C744 1.840 1_545 S
C1702 C535 1.775 . S
C1707 C568 1.776 . S
C1712 C513 1.840 . S
C1717 C942 1.839 . S
C1722 C601 1.774 . S
C1727 C634 1.774 . S
C1732 C183 1.839 1_545 S
C1737 C612 1.839 1_565 S
C1742 C667 1.774 . S
C1747 C700 1.774 . S
C1752 C381 1.839 . S
C1757 C733 1.775 . S
C1762 C810 1.839 . S
C1767 C766 1.776 . S
C1772 C51 1.840 1_565 S
C1777 C799 1.772 . S
C1782 C1008 1.838 . S
C1787 C832 1.775 . S
C1792 C249 1.840 . S
C1797 C865 1.775 . S
C1802 C678 1.840 1_556 S
C1807 C898 1.773 . S
C1812 C447 1.838 1_556 S
C1817 C931 1.773 . S
C1822 C876 1.839 . S
C1827 C117 1.839 . S
C1832 C964 1.773 . S
C1837 C997 1.775 . S
C1842 C546 1.840 1_554 S
C1847 C315 1.839 1_554 S
C1852 C1030 1.774 . S
