# Generated by pormake.
# Topology msp, (4)-cn, num edge types: 1
# Building blocks:
#     Node 0, Type 0, BuildingBlock: ICAMEG_clean_sbu_1, # of connection points: 4
#     Node 1, Type 0, BuildingBlock: ICAMEG_clean_sbu_1, # of connection points: 4
#     Node 2, Type 0, BuildingBlock: ICAMEG_clean_sbu_1, # of connection points: 4
#     Node 3, Type 0, BuildingBlock: ICAMEG_clean_sbu_1, # of connection points: 4
#     Node 4, Type 0, BuildingBlock: ICAMEG_clean_sbu_1, # of connection points: 4
#     Node 5, Type 0, BuildingBlock: ICAMEG_clean_sbu_1, # of connection points: 4
#     Node 6, Type 0, BuildingBlock: ICAMEG_clean_sbu_1, # of connection points: 4
#     Node 7, Type 0, BuildingBlock: ICAMEG_clean_sbu_1, # of connection points: 4
#     Edge 8, Type (0, 0), BuildingBlock: UVAHIK_clean_linker_0, # of connection points: 2
#     Edge 9, Type (0, 0), BuildingBlock: UVAHIK_clean_linker_0, # of connection points: 2
#     Edge 10, Type (0, 0), BuildingBlock: UVAHIK_clean_linker_0, # of connection points: 2
#     Edge 11, Type (0, 0), BuildingBlock: UVAHIK_clean_linker_0, # of connection points: 2
#     Edge 12, Type (0, 0), BuildingBlock: UVAHIK_clean_linker_0, # of connection points: 2
#     Edge 13, Type (0, 0), BuildingBlock: UVAHIK_clean_linker_0, # of connection points: 2
#     Edge 14, Type (0, 0), BuildingBlock: UVAHIK_clean_linker_0, # of connection points: 2
#     Edge 15, Type (0, 0), BuildingBlock: UVAHIK_clean_linker_0, # of connection points: 2
#     Edge 16, Type (0, 0), BuildingBlock: UVAHIK_clean_linker_0, # of connection points: 2
#     Edge 17, Type (0, 0), BuildingBlock: UVAHIK_clean_linker_0, # of connection points: 2
#     Edge 18, Type (0, 0), BuildingBlock: UVAHIK_clean_linker_0, # of connection points: 2
#     Edge 19, Type (0, 0), BuildingBlock: UVAHIK_clean_linker_0, # of connection points: 2
#     Edge 20, Type (0, 0), BuildingBlock: UVAHIK_clean_linker_0, # of connection points: 2
#     Edge 21, Type (0, 0), BuildingBlock: UVAHIK_clean_linker_0, # of connection points: 2
#     Edge 22, Type (0, 0), BuildingBlock: UVAHIK_clean_linker_0, # of connection points: 2
#     Edge 23, Type (0, 0), BuildingBlock: UVAHIK_clean_linker_0, # of connection points: 2
# Relax obj value: 0.056
# Max RMSD: 0.145
# Mean RMSD: 0.145
data_MOF--net-msp--node1-ICAMEG_clean_sbu_1--edge1-UVAHIK_clean_linker_0
_symmetry_space_group_name_H-M    P1
_symmetry_Int_Tables_number       1
_symmetry_cell_setting            triclinic
loop_
_symmetry_equiv_pos_as_xyz
'x, y, z'
_cell_length_a     34.078409
_cell_length_b     24.536821
_cell_length_c     56.227217
_cell_angle_alpha  89.97792
_cell_angle_beta   103.62542
_cell_angle_gamma 90.017007
loop_
_atom_site_label
_atom_site_type_symbol
_atom_site_fract_x
_atom_site_fract_y
_atom_site_fract_z
_atom_type_partial_charge
Co0 Co 0.05585 0.35394 0.34974 0.0
Co1 Co 0.00362 0.24384 0.36529 0.0
O2 O 0.01956 0.29179 0.34146 0.0
C3 C 0.09622 0.28455 0.32008 0.0
O4 O 0.08803 0.24322 0.33294 0.0
C5 C 0.92781 0.28826 0.33589 0.0
O6 O 0.94487 0.33647 0.33947 0.0
O7 O -0.00729 0.30678 0.38527 0.0
O8 O 0.02926 0.37661 0.37614 0.0
H9 H 0.00258 0.17567 0.44944 0.0
H10 H 0.01109 0.33698 0.29834 0.0
O11 O 0.0841 0.33222 0.32377 0.0
H12 H 0.96685 0.51647 0.32162 0.0
H13 H 0.13583 0.51325 0.33008 0.0
H14 H 0.1011 0.40452 0.39602 0.0
H15 H 0.0176 0.46294 0.35091 0.0
H16 H 0.08904 0.43532 0.3203 0.0
O17 O 0.94685 0.24613 0.34554 0.0
H18 H 0.02317 0.2361 0.41948 0.0
H19 H 0.94804 0.14864 0.36089 0.0
H20 H 0.14776 0.48235 0.40663 0.0
H21 H 0.9604 0.38926 0.26842 0.0
H22 H 0.16542 0.53731 0.37352 0.0
H23 H 0.93788 0.47962 0.28005 0.0
O24 O 0.09517 0.31008 0.37399 0.0
H25 H -0.00376 0.13815 0.28779 0.0
H26 H 0.04983 0.1403 0.37727 0.0
H27 H 0.06541 0.06264 0.35321 0.0
H28 H 0.03847 0.0612 0.30814 0.0
H29 H 0.98169 0.21523 0.31251 0.0
H30 H 0.92637 0.08751 0.39023 0.0
H31 H 0.95383 0.10072 0.43485 0.0
O32 O 0.05995 0.24116 0.38527 0.0
C33 C 0.00611 0.35549 0.38844 0.0
C34 C 0.99049 0.16938 0.43004 0.0
C35 C 0.94768 0.11995 0.39681 0.0
N36 N 0.98706 0.19563 0.38847 0.0
C37 C 0.00213 0.20337 0.41299 0.0
C38 C 0.95999 0.15476 0.38029 0.0
C39 C 0.96311 0.12738 0.42184 0.0
C40 C 0.00172 0.37652 0.30343 0.0
N41 N 0.01742 0.39704 0.32627 0.0
C42 C 0.9729 0.40583 0.28646 0.0
C43 C 0.96023 0.45649 0.293 0.0
C44 C 0.97645 0.47718 0.31633 0.0
C45 C 0.00514 0.44666 0.33285 0.0
C46 C 0.1283 0.48969 0.34467 0.0
C47 C 0.10842 0.42848 0.38151 0.0
C48 C 0.10188 0.44548 0.33924 0.0
N49 N 0.09209 0.41572 0.35757 0.0
C50 C 0.13495 0.4724 0.38763 0.0
C51 C 0.14488 0.50318 0.36905 0.0
C52 C 0.09243 0.26812 0.38692 0.0
C53 C 0.00805 0.13823 0.30742 0.0
C54 C 0.03808 0.14004 0.35766 0.0
C55 C 0.04694 0.0959 0.34414 0.0
C56 C 0.0318 0.09511 0.31885 0.0
N57 N 0.01468 0.18212 0.34632 0.0
C58 C -0.00022 0.18166 0.32153 0.0
Co59 Co 0.42938 0.35401 0.64449 0.0
Co60 Co 0.48118 0.24403 0.62849 0.0
O61 O 0.4658 0.29194 0.65251 0.0
C62 C 0.38977 0.2845 0.67454 0.0
O63 O 0.39778 0.24318 0.66163 0.0
C64 C 0.55738 0.28879 0.65724 0.0
O65 O 0.54018 0.33692 0.65377 0.0
O66 O 0.49144 0.307 0.6083 0.0
O67 O 0.45528 0.3768 0.61779 0.0
H68 H 0.48022 0.17582 0.54409 0.0
H69 H 0.47514 0.3371 0.69568 0.0
O70 O 0.40179 0.33218 0.67076 0.0
H71 H 0.51855 0.51673 0.67194 0.0
H72 H 0.34989 0.51304 0.66482 0.0
H73 H 0.38318 0.4045 0.59842 0.0
H74 H 0.46736 0.46311 0.64299 0.0
H75 H 0.39687 0.43526 0.67427 0.0
O76 O 0.53824 0.24657 0.64778 0.0
H77 H 0.46036 0.23619 0.5743 0.0
H78 H 0.53684 0.14904 0.63245 0.0
H79 H 0.33631 0.48217 0.58815 0.0
H80 H 0.52628 0.38946 0.72527 0.0
H81 H 0.31938 0.53704 0.62148 0.0
H82 H 0.54838 0.47989 0.71341 0.0
O83 O 0.38969 0.31006 0.6205 0.0
H84 H 0.49074 0.13839 0.70626 0.0
H85 H 0.43504 0.1403 0.61698 0.0
H86 H 0.42031 0.06257 0.64131 0.0
H87 H 0.44832 0.06125 0.68629 0.0
H88 H 0.50442 0.21554 0.68127 0.0
H89 H 0.55779 0.08797 0.60285 0.0
H90 H 0.52928 0.10106 0.55832 0.0
O91 O 0.42455 0.24111 0.60897 0.0
C92 C 0.47804 0.35571 0.60524 0.0
C93 C 0.49276 0.16959 0.56344 0.0
C94 C 0.53634 0.12034 0.59643 0.0
N95 N 0.49718 0.19587 0.60511 0.0
C96 C 0.48154 0.20355 0.58064 0.0
C97 C 0.52443 0.15511 0.6131 0.0
C98 C 0.52032 0.12769 0.57144 0.0
C99 C 0.48433 0.37667 0.6905 0.0
N100 N 0.46815 0.39718 0.66771 0.0
C101 C 0.51341 0.40602 0.70728 0.0
C102 C 0.52584 0.45672 0.7006 0.0
C103 C 0.50913 0.4774 0.67733 0.0
C104 C 0.4802 0.44684 0.66101 0.0
C105 C 0.35711 0.48953 0.65013 0.0
C106 C 0.37618 0.42842 0.61303 0.0
C107 C 0.38363 0.4454 0.65537 0.0
N108 N 0.39301 0.41569 0.63691 0.0
C109 C 0.34953 0.47225 0.6071 0.0
C110 C 0.34001 0.50298 0.62581 0.0
C111 C 0.39213 0.26802 0.60757 0.0
C112 C 0.47847 0.13842 0.68667 0.0
C113 C 0.44725 0.14009 0.63655 0.0
C114 C 0.43887 0.09592 0.65022 0.0
C115 C 0.45461 0.09519 0.67546 0.0
N116 N 0.47076 0.18228 0.64767 0.0
C117 C 0.48625 0.18189 0.67241 0.0
Co118 Co 0.92959 0.65056 0.6443 0.0
Co119 Co 0.98167 0.76059 0.62855 0.0
O120 O 0.96592 0.71269 0.65246 0.0
C121 C 0.88948 0.72008 0.67403 0.0
O122 O 0.89765 0.76137 0.66115 0.0
C123 C 0.05759 0.7161 0.65779 0.0
O124 O 0.0405 0.6679 0.65424 0.0
O125 O 0.99236 0.69762 0.60852 0.0
O126 O 0.95596 0.62779 0.61781 0.0
H127 H 0.98205 0.82867 0.54429 0.0
H128 H 0.97467 0.6676 0.69562 0.0
O129 O 0.90155 0.67239 0.67035 0.0
H130 H 0.01864 0.48801 0.67229 0.0
H131 H 0.84976 0.4914 0.66426 0.0
H132 H 0.88403 0.59991 0.59811 0.0
H133 H 0.96775 0.54152 0.64308 0.0
H134 H 0.89661 0.5693 0.67389 0.0
O135 O 0.03854 0.75823 0.64816 0.0
H136 H 0.96168 0.76832 0.57436 0.0
H137 H 0.03731 0.8557 0.63277 0.0
H138 H 0.8373 0.52212 0.58765 0.0
H139 H 0.02551 0.61535 0.72546 0.0
H140 H 0.81988 0.46727 0.62086 0.0
H141 H 0.04789 0.52494 0.71381 0.0
O142 O 0.89015 0.69441 0.62011 0.0
H143 H 0.9898 0.86637 0.70611 0.0
H144 H 0.93552 0.86421 0.61669 0.0
H145 H 0.92024 0.94194 0.64082 0.0
H146 H 0.94754 0.94338 0.68586 0.0
H147 H 0.00404 0.78922 0.68132 0.0
H148 H 0.05877 0.91674 0.60332 0.0
H149 H 0.03095 0.90353 0.55873 0.0
O150 O 0.92523 0.76336 0.60872 0.0
C151 C 0.97897 0.6489 0.60541 0.0
C152 C -0.00571 0.83495 0.56367 0.0
C153 C 0.03739 0.88433 0.59681 0.0
N154 N -0.00195 0.80875 0.60529 0.0
C155 C 0.98278 0.80101 0.58079 0.0
C156 C 0.0252 0.84957 0.61339 0.0
C157 C 0.02176 0.87691 0.57179 0.0
C158 C 0.98398 0.62804 0.69052 0.0
N159 N 0.96813 0.60748 0.66771 0.0
C160 C 0.01289 0.59875 0.70745 0.0
C161 C 0.02548 0.54806 0.70089 0.0
C162 C 0.0091 0.52733 0.67759 0.0
C163 C 0.98034 0.55783 0.66112 0.0
C164 C 0.85719 0.51491 0.64962 0.0
C165 C 0.87682 0.576 0.61266 0.0
C166 C 0.88365 0.5591 0.65497 0.0
N167 N 0.89331 0.5888 0.63658 0.0
C168 C 0.85024 0.5321 0.60663 0.0
C169 C 0.84045 0.50138 0.62527 0.0
C170 C 0.89277 0.7364 0.60718 0.0
C171 C 0.97784 0.86629 0.68649 0.0
C172 C 0.94742 0.86447 0.63629 0.0
C173 C 0.93873 0.90865 0.64985 0.0
C174 C 0.95407 0.90945 0.67512 0.0
N175 N 0.97084 0.82236 0.64757 0.0
C176 C 0.98594 0.82282 0.67234 0.0
Co177 Co 0.55548 0.65211 0.34981 0.0
Co178 Co 0.50333 0.7622 0.36536 0.0
O179 O 0.51919 0.71422 0.34153 0.0
C180 C 0.59575 0.72124 0.31995 0.0
O181 O 0.58775 0.7627 0.33278 0.0
C182 C 0.42751 0.71754 0.3361 0.0
O183 O 0.44462 0.66939 0.33982 0.0
O184 O 0.4925 0.69931 0.38542 0.0
O185 O 0.5291 0.62955 0.37632 0.0
H186 H 0.50253 0.83057 0.44949 0.0
H187 H 0.5104 0.6688 0.29846 0.0
O188 O 0.58353 0.67366 0.32371 0.0
H189 H 0.46642 0.48941 0.32211 0.0
H190 H 0.63533 0.49273 0.33018 0.0
H191 H 0.60104 0.60185 0.39609 0.0
H192 H 0.51733 0.54309 0.35122 0.0
H193 H 0.58846 0.57054 0.32038 0.0
O194 O 0.44651 0.75979 0.34565 0.0
H195 H 0.52305 0.7701 0.41954 0.0
H196 H 0.44771 0.85732 0.36095 0.0
H197 H 0.6478 0.52415 0.40672 0.0
H198 H 0.45954 0.61637 0.26872 0.0
H199 H 0.66523 0.46899 0.37362 0.0
H200 H 0.43715 0.52607 0.28053 0.0
O201 O 0.5949 0.69614 0.37391 0.0
H202 H 0.49563 0.86779 0.28776 0.0
H203 H 0.54953 0.86579 0.37721 0.0
H204 H 0.56496 0.94346 0.35308 0.0
H205 H 0.53787 0.94482 0.30802 0.0
H206 H 0.48123 0.79071 0.31256 0.0
H207 H 0.42611 0.91849 0.39027 0.0
H208 H 0.45371 0.90541 0.43489 0.0
O209 O 0.55973 0.76497 0.38529 0.0
C210 C 0.50597 0.65065 0.38863 0.0
C211 C 0.49039 0.83679 0.43009 0.0
C212 C 0.44745 0.88609 0.39685 0.0
N213 N 0.48684 0.81045 0.38853 0.0
C214 C 0.50198 0.80278 0.41305 0.0
C215 C 0.45972 0.85126 0.38034 0.0
C216 C 0.46296 0.87874 0.42189 0.0
C217 C 0.50108 0.62928 0.30362 0.0
N218 N 0.51695 0.60888 0.32647 0.0
C219 C 0.47217 0.59989 0.28675 0.0
C220 C 0.45957 0.54926 0.2934 0.0
C221 C 0.47596 0.52868 0.31674 0.0
C222 C 0.50474 0.55928 0.33315 0.0
C223 C 0.6279 0.51637 0.34476 0.0
C224 C 0.60826 0.5778 0.38159 0.0
C225 C 0.60143 0.56052 0.33932 0.0
N226 N 0.59176 0.59039 0.35765 0.0
C227 C 0.63485 0.53396 0.38772 0.0
C228 C 0.64465 0.50307 0.36914 0.0
C229 C 0.59222 0.73809 0.38684 0.0
C230 C 0.50751 0.86774 0.30739 0.0
C231 C 0.53771 0.86602 0.3576 0.0
C232 C 0.54649 0.91016 0.34404 0.0
C233 C 0.53126 0.91091 0.31876 0.0
N234 N 0.51431 0.8239 0.34632 0.0
C235 C 0.49932 0.8243 0.32154 0.0
Co236 Co 0.55918 0.85186 0.85023 0.0
Co237 Co 0.50487 0.7433 0.86519 0.0
O238 O 0.52136 0.79142 0.84161 0.0
C239 C 0.5973 0.78204 0.81953 0.0
O240 O 0.58848 0.74054 0.83207 0.0
C241 C 0.42962 0.79154 0.83681 0.0
O242 O 0.4478 0.839 0.84058 0.0
O243 O 0.4959 0.80597 0.8859 0.0
O244 O 0.53371 0.87471 0.87711 0.0
H245 H 0.5041 0.67244 0.94896 0.0
H246 H 0.51312 0.83839 0.79888 0.0
O247 O 0.5863 0.82996 0.82377 0.0
H248 H 0.47399 0.0188 0.82428 0.0
H249 H 0.6425 0.00849 0.83149 0.0
H250 H 0.60642 0.89904 0.89679 0.0
H251 H 0.52379 0.96228 0.85275 0.0
H252 H 0.59368 0.93289 0.82126 0.0
O253 O 0.44792 0.74845 0.84592 0.0
H254 H 0.52536 0.73304 0.9193 0.0
H255 H 0.44715 0.65041 0.86035 0.0
H256 H 0.65512 0.97451 0.90784 0.0
H257 H 0.46334 0.89368 0.76977 0.0
H258 H 0.67347 0.02982 0.87505 0.0
H259 H 0.44339 0.98452 0.78246 0.0
O260 O 0.59781 0.80567 0.8738 0.0
H261 H 0.49315 0.64058 0.78649 0.0
H262 H 0.54865 0.63758 0.8758 0.0
H263 H 0.56169 0.56016 0.85077 0.0
H264 H 0.53378 0.56132 0.80578 0.0
H265 H 0.48114 0.71736 0.81217 0.0
H266 H 0.42477 0.58918 0.88939 0.0
H267 H 0.45344 0.59987 0.93403 0.0
O268 O 0.56138 0.73769 0.88472 0.0
C269 C 0.51034 0.8541 0.88939 0.0
C270 C 0.49148 0.66726 0.92954 0.0
C271 C 0.44692 0.62058 0.89611 0.0
N272 N 0.48775 0.69498 0.88812 0.0
C273 C 0.50349 0.70135 0.91266 0.0
C274 C 0.45963 0.65544 0.87976 0.0
C275 C 0.46303 0.62659 0.92116 0.0
C276 C 0.50487 0.87811 0.80444 0.0
N277 N 0.52148 0.89723 0.82742 0.0
C278 C 0.47655 0.90914 0.78792 0.0
C279 C 0.46533 0.96007 0.79506 0.0
C280 C 0.48246 0.97931 0.81853 0.0
C281 C 0.51061 0.94711 0.83458 0.0
C282 C 0.63467 0.98477 0.84594 0.0
C283 C 0.61403 0.92318 0.88242 0.0
C284 C 0.60711 0.94187 0.84026 0.0
N285 N 0.59696 0.91191 0.85842 0.0
C286 C 0.64172 0.96575 0.88879 0.0
C287 C 0.65203 0.99673 0.87039 0.0
C288 C 0.59442 0.7633 0.88633 0.0
C289 C 0.50537 0.63954 0.80609 0.0
C290 C 0.53649 0.63846 0.85622 0.0
C291 C 0.54391 0.59445 0.84215 0.0
C292 C 0.52822 0.59511 0.81692 0.0
N293 N 0.51396 0.68182 0.84547 0.0
C294 C 0.49853 0.6828 0.82073 0.0
Co295 Co 0.92564 0.84914 0.14306 0.0
Co296 Co 0.9802 0.74086 0.12816 0.0
O297 O 0.96351 0.78879 0.15172 0.0
C298 C 0.88741 0.7794 0.1738 0.0
O299 O 0.89606 0.73783 0.16125 0.0
C300 C 0.05527 0.78917 0.15673 0.0
O301 O 0.03706 0.83659 0.15283 0.0
O302 O 0.98933 0.80368 0.10755 0.0
O303 O 0.95109 0.87204 0.11618 0.0
H304 H 0.98171 0.67054 0.04445 0.0
H305 H 0.97172 0.83583 0.19441 0.0
O306 O 0.89856 0.82725 0.16954 0.0
H307 H 0.01065 0.01632 0.1689 0.0
H308 H 0.84212 0.00559 0.16165 0.0
H309 H 0.87834 0.89608 0.09646 0.0
H310 H 0.96089 0.95967 0.14048 0.0
H311 H 0.89105 0.93016 0.17196 0.0
O312 O 0.03707 0.74603 0.1476 0.0
H313 H 0.96014 0.73091 0.07405 0.0
H314 H 0.03799 0.64808 0.1331 0.0
H315 H 0.82952 0.97137 0.08534 0.0
H316 H 0.02146 0.89125 0.22349 0.0
H317 H 0.8111 0.02671 0.11807 0.0
H318 H 0.0413 0.98213 0.21074 0.0
O319 O 0.8871 0.8028 0.11953 0.0
H320 H 0.99134 0.6376 0.2067 0.0
H321 H 0.93647 0.63516 0.11734 0.0
H322 H 0.92324 0.55752 0.14222 0.0
H323 H 0.95083 0.55839 0.18723 0.0
H324 H 0.00354 0.7146 0.18117 0.0
H325 H 0.06065 0.58707 0.10412 0.0
H326 H 0.03232 0.59798 0.05945 0.0
O327 O 0.92377 0.73529 0.10848 0.0
C328 C 0.97468 0.85168 0.10399 0.0
C329 C -0.00582 0.66526 0.06387 0.0
C330 C 0.03853 0.61847 0.09736 0.0
N331 N -0.00245 0.69273 0.10527 0.0
C332 C 0.982 0.69922 0.08072 0.0
C333 C 0.02565 0.6532 0.11368 0.0
C334 C 0.02261 0.6246 0.0723 0.0
C335 C 0.97993 0.87557 0.18884 0.0
N336 N 0.96329 0.89463 0.16584 0.0
C337 C 0.00822 0.90667 0.20534 0.0
C338 C 0.01938 0.95762 0.19816 0.0
C339 C 0.00221 0.97682 0.17468 0.0
C340 C 0.9741 0.94453 0.15865 0.0
C341 C 0.84997 0.98186 0.14723 0.0
C342 C 0.8707 0.92023 0.11081 0.0
C343 C 0.87761 0.93906 0.15295 0.0
N344 N 0.88779 0.90908 0.13482 0.0
C345 C 0.84294 0.9627 0.1044 0.0
C346 C 0.83259 0.99369 0.12277 0.0
C347 C 0.89065 0.76066 0.10691 0.0
C348 C 0.97925 0.63668 0.1871 0.0
C349 C 0.94849 0.63591 0.13693 0.0
C350 C 0.94096 0.59178 0.15091 0.0
C351 C 0.95648 0.59228 0.17617 0.0
N352 N 0.97095 0.67924 0.14778 0.0
C353 C 0.9862 0.68006 0.17253 0.0
Co354 Co 0.42576 0.15297 0.14343 0.0
Co355 Co 0.48035 0.26121 0.12845 0.0
O356 O 0.46358 0.21341 0.15204 0.0
C357 C 0.38736 0.22324 0.17383 0.0
O358 O 0.39626 0.26458 0.16123 0.0
C359 C 0.55539 0.21309 0.15717 0.0
O360 O 0.53718 0.16564 0.15343 0.0
O361 O 0.48952 0.19828 0.10795 0.0
O362 O 0.4515 0.12975 0.11672 0.0
H363 H 0.4821 0.33105 0.04467 0.0
H364 H 0.4714 0.16689 0.19484 0.0
O365 O 0.39838 0.17525 0.16972 0.0
H366 H 0.51067 0.98605 0.16999 0.0
H367 H 0.34201 0.9968 0.16216 0.0
H368 H 0.37888 0.10541 0.09687 0.0
H369 H 0.46113 0.04242 0.14127 0.0
H370 H 0.39086 0.07237 0.1724 0.0
O371 O 0.53718 0.25613 0.14793 0.0
H372 H 0.46042 0.27088 0.07433 0.0
H373 H 0.53816 0.354 0.13331 0.0
H374 H 0.33016 0.02997 0.08581 0.0
H375 H 0.5209 0.11176 0.22421 0.0
H376 H 0.31141 0.97509 0.11858 0.0
H377 H 0.54091 0.02071 0.2118 0.0
O378 O 0.38734 0.199 0.11967 0.0
H379 H 0.4913 0.36484 0.20685 0.0
H380 H 0.43667 0.36691 0.11746 0.0
H381 H 0.42338 0.44466 0.14223 0.0
H382 H 0.45085 0.44397 0.18726 0.0
H383 H 0.50358 0.28772 0.18143 0.0
H384 H 0.56094 0.41481 0.10428 0.0
H385 H 0.53272 0.40364 0.05961 0.0
O386 O 0.42397 0.26673 0.10872 0.0
C387 C 0.47506 0.15016 0.10451 0.0
C388 C 0.49452 0.33643 0.06409 0.0
C389 C 0.53881 0.38339 0.09755 0.0
N390 N 0.49777 0.30921 0.10552 0.0
C391 C 0.48228 0.30259 0.08098 0.0
C392 C 0.52587 0.34877 0.1139 0.0
C393 C 0.52295 0.37712 0.07249 0.0
C394 C 0.47968 0.12708 0.18941 0.0
N395 N 0.46326 0.10775 0.16643 0.0
C396 C 0.50784 0.09614 0.20607 0.0
C397 C 0.5191 0.04509 0.19908 0.0
C398 C 0.50216 0.02564 0.17562 0.0
C399 C 0.47417 0.05776 0.15943 0.0
C400 C 0.35001 0.02034 0.14771 0.0
C401 C 0.3711 0.08146 0.11123 0.0
C402 C 0.3776 0.06321 0.1534 0.0
N403 N 0.38796 0.09294 0.13524 0.0
C404 C 0.3434 0.0389 0.10486 0.0
C405 C 0.33286 0.00817 0.12326 0.0
C406 C 0.39089 0.24118 0.10705 0.0
C407 C 0.47927 0.36568 0.18724 0.0
C408 C 0.44864 0.36624 0.13706 0.0
C409 C 0.44108 0.41044 0.15098 0.0
C410 C 0.45652 0.41004 0.17624 0.0
N411 N 0.47107 0.32295 0.14798 0.0
C412 C 0.48626 0.32223 0.17274 0.0
Co413 Co 0.05873 0.15318 0.8502 0.0
Co414 Co 0.00445 0.26127 0.86553 0.0
O415 O 0.021 0.21375 0.84178 0.0
C416 C 0.09701 0.22344 0.8197 0.0
O417 O 0.08838 0.26477 0.83239 0.0
C418 C 0.92926 0.2139 0.83664 0.0
O419 O 0.94721 0.16628 0.84035 0.0
O420 O -0.0049 0.19807 0.88586 0.0
O421 O 0.03329 0.12986 0.87703 0.0
H422 H 0.00317 0.32989 0.94955 0.0
H423 H 0.0126 0.16745 0.79891 0.0
O424 O 0.08582 0.1755 0.82378 0.0
H425 H 0.9733 0.98661 0.82381 0.0
H426 H 0.14183 0.99692 0.83095 0.0
H427 H 0.10601 0.10534 0.8966 0.0
H428 H 0.02323 0.04268 0.85241 0.0
H429 H 0.09306 0.07261 0.82097 0.0
O430 O 0.9476 0.25671 0.84605 0.0
H431 H 0.02455 0.27008 0.91968 0.0
H432 H 0.94695 0.35432 0.861 0.0
H433 H 0.15467 0.02978 0.90741 0.0
H434 H 0.96267 0.11262 0.76967 0.0
H435 H 0.17289 0.97499 0.87445 0.0
H436 H 0.94265 0.02157 0.78211 0.0
O437 O 0.09742 0.19905 0.87386 0.0
H438 H -0.00631 0.36615 0.78744 0.0
H439 H 0.04849 0.36666 0.87682 0.0
H440 H 0.06196 0.44477 0.85228 0.0
H441 H 0.03439 0.44487 0.80726 0.0
H442 H 0.98125 0.28866 0.81263 0.0
H443 H 0.92447 0.41477 0.89024 0.0
H444 H 0.95277 0.40287 0.93487 0.0
O445 O 0.06089 0.26631 0.88523 0.0
C446 C 0.00969 0.15001 0.88926 0.0
C447 C 0.99071 0.33559 0.93015 0.0
C448 C 0.9465 0.38319 0.89686 0.0
N449 N 0.98725 0.30899 0.88863 0.0
C450 C 0.00279 0.30196 0.91315 0.0
C451 C 0.95927 0.34876 0.8804 0.0
C452 C 0.9624 0.3765 0.9219 0.0
C453 C 0.0043 0.12763 0.80435 0.0
N454 N 0.02094 0.10815 0.82727 0.0
C455 C 0.97591 0.09687 0.78776 0.0
C456 C 0.96464 0.04582 0.79477 0.0
C457 C 0.98181 0.02619 0.81817 0.0
C458 C 0.01002 0.05815 0.8343 0.0
C459 C 0.13406 0.02041 0.84548 0.0
C460 C 0.11356 0.08143 0.88216 0.0
C461 C 0.10652 0.06335 0.83993 0.0
N462 N 0.09644 0.09303 0.85819 0.0
C463 C 0.14123 0.03881 0.88839 0.0
C464 C 0.15147 0.00812 0.86989 0.0
C465 C 0.09398 0.24095 0.88665 0.0
C466 C 0.00576 0.36664 0.80705 0.0
C467 C 0.03649 0.36632 0.85723 0.0
C468 C 0.04414 0.41072 0.84343 0.0
C469 C 0.02865 0.41077 0.81818 0.0
N470 N 0.01391 0.32326 0.84619 0.0
C471 C -0.00132 0.32298 0.82142 0.0
C472 C 0.01143 0.44199 0.41271 0.0
C473 C -0.00256 0.38798 0.40886 0.0
C474 C 0.00836 0.47043 0.4337 0.0
C475 C 0.00092 0.44642 0.49711 0.0
H476 H 0.97612 0.60075 0.49602 0.0
C477 C 0.97342 0.56238 0.58113 0.0
C478 C 0.98748 0.61637 0.58496 0.0
C479 C 0.97638 0.53391 0.56013 0.0
C480 C 0.98366 0.55781 0.49668 0.0
H481 H 0.96761 0.3225 0.42375 0.0
H482 H 0.9618 0.37254 0.46023 0.0
H483 H 0.97438 0.55313 0.45773 0.0
H484 H 0.01729 0.68177 0.57001 0.0
H485 H 0.02292 0.63167 0.53351 0.0
H486 H 0.01022 0.45111 0.53606 0.0
C487 C 0.97577 0.39246 0.44713 0.0
C488 C 0.9825 0.53047 0.47472 0.0
C489 C 0.97876 0.36397 0.42608 0.0
C490 C 0.0061 0.64032 0.5677 0.0
C491 C 0.00898 0.6118 0.54664 0.0
C492 C 0.00208 0.47376 0.51907 0.0
C493 C 0.99124 0.44565 0.4514 0.0
C494 C 0.99112 0.47445 0.47466 0.0
C495 C -0.00655 0.55863 0.54239 0.0
C496 C -0.00652 0.5298 0.51913 0.0
H497 H 0.02603 0.4619 0.3999 0.0
H498 H 0.02087 0.51115 0.43649 0.0
H499 H 0.00847 0.40349 0.49777 0.0
H500 H 0.95887 0.54251 0.59398 0.0
H501 H 0.96384 0.49321 0.55736 0.0
C502 C 0.51128 0.56411 0.41289 0.0
C503 C 0.49729 0.61811 0.40905 0.0
C504 C 0.50806 0.53554 0.43383 0.0
C505 C 0.50008 0.55902 0.49717 0.0
H506 H 0.47518 0.40468 0.49578 0.0
C507 C 0.47222 0.44227 0.58095 0.0
C508 C 0.48635 0.38832 0.58474 0.0
C509 C 0.47516 0.4709 0.55997 0.0
C510 C 0.48274 0.44762 0.49653 0.0
H511 H 0.46738 0.68349 0.4239 0.0
H512 H 0.4613 0.63323 0.4603 0.0
H513 H 0.47375 0.45265 0.4576 0.0
H514 H 0.51619 0.32309 0.56973 0.0
H515 H 0.52178 0.37346 0.53327 0.0
H516 H 0.50909 0.55399 0.53609 0.0
C517 C 0.47537 0.6134 0.44723 0.0
C518 C 0.48177 0.47516 0.47463 0.0
C519 C 0.47851 0.64202 0.42623 0.0
C520 C 0.50495 0.36452 0.56745 0.0
C521 C 0.50781 0.3932 0.54641 0.0
C522 C 0.50105 0.53148 0.51907 0.0
C523 C 0.49079 0.56019 0.45149 0.0
C524 C 0.49044 0.53119 0.47468 0.0
C525 C 0.49228 0.44636 0.54222 0.0
C526 C 0.49242 0.47544 0.51902 0.0
H527 H 0.52596 0.54427 0.40011 0.0
H528 H 0.52054 0.49481 0.43661 0.0
H529 H 0.50766 0.60196 0.49791 0.0
H530 H 0.45768 0.46203 0.59382 0.0
H531 H 0.4626 0.51159 0.55724 0.0
C532 C 0.50365 0.14032 0.06738 0.0
C533 C 0.48343 0.11735 0.08409 0.0
C534 C 0.50722 0.11136 0.04656 0.0
C535 C 0.45812 1.00004 0.00614 0.0
H536 H 0.55525 0.00459 0.98161 0.0
C537 C 0.48203 0.86354 0.92664 0.0
C538 C 0.50213 0.88668 0.90992 0.0
C539 C 0.47856 0.89232 0.94753 0.0
C540 C 0.52771 0.00346 0.98805 0.0
H541 H 0.4526 0.04476 0.09239 0.0
H542 H 0.4594 0.99432 0.0564 0.0
H543 H 0.55353 0.05231 0.01938 0.0
H544 H 0.5329 0.95938 0.90167 0.0
H545 H 0.52628 0.0095 0.93779 0.0
H546 H 0.43229 0.9512 0.9748 0.0
C547 C 0.47178 0.03512 0.05913 0.0
C548 C 0.52677 0.03075 0.00973 0.0
C549 C 0.46819 0.06399 0.07991 0.0
C550 C 0.51738 0.94002 0.91416 0.0
C551 C 0.51391 0.9687 0.93501 0.0
C552 C 0.45906 0.97275 0.98446 0.0
C553 C 0.49067 0.05879 0.04197 0.0
C554 C 0.49197 0.02935 0.01905 0.0
C555 C 0.4951 0.94487 0.95217 0.0
C556 C 0.49385 0.97418 0.97514 0.0
H557 H 0.5156 0.18136 0.06992 0.0
H558 H 0.52172 0.13094 0.03363 0.0
H559 H 0.43057 0.99892 0.01257 0.0
H560 H 0.47006 0.8225 0.92406 0.0
H561 H 0.46413 0.87262 0.96047 0.0
C562 C 0.0031 0.86151 0.06678 0.0
C563 C 0.98289 0.88442 0.08349 0.0
C564 C 0.00656 0.89046 0.04592 0.0
C565 C 0.95722 1.00165 0.00546 0.0
H566 H 0.05447 0.99802 0.98104 0.0
C567 C 0.98113 0.13961 0.92639 0.0
C568 C 0.00142 0.11696 0.90965 0.0
C569 C 0.97762 0.1104 0.94717 0.0
C570 C 0.02689 0.9989 0.98744 0.0
H571 H 0.95193 0.9569 0.09175 0.0
H572 H 0.95853 0.0073 0.05569 0.0
H573 H 0.05275 0.94984 0.01872 0.0
H574 H 0.03245 0.04467 0.90127 0.0
H575 H 0.02575 0.9938 0.93719 0.0
H576 H 0.93136 0.05072 0.97419 0.0
C577 C 0.97099 0.96655 0.05845 0.0
C578 C 0.02596 0.97133 0.00907 0.0
C579 C 0.96752 0.93771 0.07926 0.0
C580 C 0.0168 0.06366 0.91378 0.0
C581 C 0.01327 0.03454 0.93451 0.0
C582 C 0.95816 0.02921 0.98383 0.0
C583 C 0.9899 0.94295 0.0413 0.0
C584 C 0.99113 0.97245 0.01836 0.0
C585 C -0.00571 0.05789 0.95169 0.0
C586 C -0.007 0.02815 0.97456 0.0
H587 H 0.01515 0.82052 0.06936 0.0
H588 H 0.02108 0.87094 0.03299 0.0
H589 H 0.92965 0.00255 0.01187 0.0
H590 H 0.96907 0.1806 0.9239 0.0
H591 H 0.96305 0.12974 0.96012 0.0
C592 C 0.61584 0.26827 0.1766 0.0
C593 C 0.59571 0.21785 0.1738 0.0
C594 C 0.65251 0.27438 0.19365 0.0
C595 C 0.71129 0.21604 0.25091 0.0
H596 H 0.79843 0.30195 0.23649 0.0
C597 C 0.869 0.23039 0.31613 0.0
C598 C 0.888 0.28162 0.31887 0.0
C599 C 0.83287 0.22265 0.29874 0.0
C600 C 0.77415 0.27842 0.24085 0.0
H601 H 0.59863 0.13392 0.18627 0.0
H602 H 0.66314 0.14458 0.21602 0.0
H603 H 0.73745 0.28599 0.20449 0.0
H604 H 0.88365 0.36521 0.30591 0.0
H605 H 0.82014 0.35169 0.2756 0.0
H606 H 0.74798 0.20857 0.28729 0.0
C607 C 0.6502 0.17945 0.20514 0.0
C608 C 0.73934 0.26913 0.22253 0.0
C609 C 0.61347 0.17326 0.18799 0.0
C610 C 0.86968 0.32529 0.30425 0.0
C611 C 0.83354 0.31746 0.28677 0.0
C612 C 0.74612 0.2253 0.26923 0.0
C613 C 0.66983 0.23025 0.20831 0.0
C614 C 0.70751 0.23802 0.2274 0.0
C615 C 0.81503 0.26591 0.28369 0.0
C616 C 0.77783 0.25672 0.2644 0.0
H617 H 0.60293 0.30345 0.16593 0.0
H618 H 0.6667 0.31416 0.19587 0.0
H619 H 0.68695 0.19267 0.2553 0.0
H620 H 0.88238 0.19589 0.32713 0.0
H621 H 0.8195 0.18235 0.29662 0.0
C622 C 0.6166 0.23123 0.67658 0.0
C623 C 0.59747 0.28235 0.67397 0.0
C624 C 0.65298 0.22363 0.69376 0.0
C625 C 0.73963 0.29667 0.73187 0.0
H626 H 0.75064 0.16607 0.77186 0.0
C627 C 0.86953 0.26989 0.81675 0.0
C628 C 0.88932 0.21924 0.81964 0.0
C629 C 0.83344 0.27666 0.79924 0.0
C630 C 0.74815 0.20243 0.76066 0.0
H631 H 0.60181 0.36589 0.68696 0.0
H632 H 0.66538 0.35246 0.71716 0.0
H633 H 0.68923 0.18054 0.73999 0.0
H634 H 0.88636 0.13558 0.80684 0.0
H635 H 0.82315 0.14756 0.77608 0.0
H636 H 0.79849 0.31864 0.75259 0.0
C637 C 0.65238 0.31845 0.70571 0.0
C638 C 0.71306 0.2107 0.74241 0.0
C639 C 0.61596 0.32611 0.68846 0.0
C640 C 0.8717 0.17503 0.80512 0.0
C641 C 0.83551 0.18186 0.78755 0.0
C642 C 0.7747 0.28841 0.75012 0.0
C643 C 0.67096 0.26694 0.70873 0.0
C644 C 0.70844 0.25795 0.72786 0.0
C645 C 0.81638 0.23298 0.78421 0.0
C646 C 0.77924 0.2413 0.76475 0.0
H647 H 0.60322 0.19675 0.66557 0.0
H648 H 0.66697 0.18374 0.69539 0.0
H649 H 0.73714 0.33307 0.72071 0.0
H650 H 0.8822 0.30469 0.82778 0.0
H651 H 0.81897 0.31625 0.79739 0.0
C652 C 0.1157 0.67908 0.68945 0.0
C653 C 0.0974 0.72274 0.67481 0.0
C654 C 0.1518 0.68694 0.70697 0.0
C655 C 0.23913 0.77924 0.72467 0.0
H656 H 0.24753 0.71849 0.78937 0.0
C657 C 0.37147 0.8314 0.80604 0.0
C658 C 0.38926 0.7868 0.82022 0.0
C659 C 0.33475 0.8252 0.78888 0.0
C660 C 0.24572 0.73537 0.77134 0.0
H661 H 0.10303 0.80847 0.66655 0.0
H662 H 0.16582 0.82205 0.69713 0.0
H663 H 0.18669 0.70244 0.75727 0.0
H664 H 0.38207 0.70118 0.82806 0.0
H665 H 0.31833 0.69045 0.79811 0.0
H666 H 0.29822 0.81199 0.7387 0.0
C667 C 0.15247 0.78175 0.69499 0.0
C668 C 0.21098 0.72603 0.75296 0.0
C669 C 0.11639 0.77397 0.67756 0.0
C670 C 0.36914 0.73637 0.81741 0.0
C671 C 0.33248 0.73024 0.80034 0.0
C672 C 0.27388 0.78856 0.74304 0.0
C673 C 0.17027 0.73851 0.71007 0.0
C674 C 0.2074 0.74774 0.72943 0.0
C675 C 0.31517 0.77438 0.78569 0.0
C676 C 0.27756 0.76657 0.76654 0.0
H677 H 0.10174 0.63915 0.68779 0.0
H678 H 0.16516 0.65272 0.71816 0.0
H679 H 0.23735 0.79599 0.70662 0.0
H680 H 0.3863 0.87075 0.80778 0.0
H681 H 0.32181 0.86007 0.77801 0.0
C682 C 0.36936 0.67987 0.30468 0.0
C683 C 0.38772 0.72391 0.31902 0.0
C684 C 0.33323 0.68734 0.28715 0.0
C685 C 0.2459 0.77943 0.26898 0.0
H686 H 0.2371 0.71636 0.20469 0.0
C687 C 0.11336 0.82951 0.18737 0.0
C688 C 0.09553 0.7846 0.17345 0.0
C689 C 0.15004 0.82361 0.20459 0.0
C690 C 0.23902 0.73388 0.22261 0.0
H691 H 0.3822 0.80994 0.32671 0.0
H692 H 0.31934 0.82285 0.29611 0.0
H693 H 0.29808 0.70121 0.23679 0.0
H694 H 0.10261 0.69869 0.16614 0.0
H695 H 0.1663 0.68848 0.1962 0.0
H696 H 0.18676 0.81193 0.25483 0.0
C697 C 0.33266 0.78255 0.2985 0.0
C698 C 0.27384 0.72506 0.24099 0.0
C699 C 0.36879 0.77516 0.31594 0.0
C700 C 0.11556 0.73412 0.17659 0.0
C701 C 0.15219 0.72829 0.19372 0.0
C702 C 0.21106 0.78823 0.2506 0.0
C703 C 0.31478 0.73889 0.28373 0.0
C704 C 0.27757 0.74763 0.26437 0.0
C705 C 0.16957 0.77277 0.2081 0.0
C706 C 0.20723 0.76539 0.22726 0.0
H707 H 0.38327 0.63992 0.30661 0.0
H708 H 0.3198 0.65281 0.27621 0.0
H709 H 0.24779 0.79684 0.28692 0.0
H710 H 0.0986 0.86891 0.18538 0.0
H711 H 0.16302 0.85875 0.21525 0.0
C712 C 0.345 0.2829 0.19398 0.0
C713 C 0.36091 0.23121 0.19096 0.0
C714 C 0.31701 0.28928 0.20838 0.0
C715 C 0.27625 0.22246 0.25647 0.0
H716 H 0.18206 0.31176 0.23034 0.0
C717 C 0.13936 0.22559 0.30021 0.0
C718 C 0.12302 0.27705 0.30313 0.0
C719 C 0.16757 0.21962 0.28593 0.0
C720 C 0.20835 0.28709 0.238 0.0
H721 H 0.36089 0.14599 0.20137 0.0
H722 H 0.31203 0.15715 0.22632 0.0
H723 H 0.23474 0.30362 0.20778 0.0
H724 H 0.12256 0.36231 0.29271 0.0
H725 H 0.17184 0.35188 0.26799 0.0
H726 H 0.24986 0.20591 0.28667 0.0
C727 C 0.32133 0.19281 0.2177 0.0
C728 C 0.23859 0.28254 0.22511 0.0
C729 C 0.34925 0.1864 0.2033 0.0
C730 C 0.13452 0.32206 0.29084 0.0
C731 C 0.16269 0.31606 0.27657 0.0
C732 C 0.24602 0.22701 0.26936 0.0
C733 C 0.30444 0.24416 0.22012 0.0
C734 C 0.27287 0.25014 0.23419 0.0
C735 C 0.17998 0.26494 0.27424 0.0
C736 C 0.2117 0.25933 0.26026 0.0
H737 H 0.35349 0.3183 0.18481 0.0
H738 H 0.30502 0.32954 0.2102 0.0
H739 H 0.30253 0.19774 0.2641 0.0
H740 H 0.13099 0.19004 0.30932 0.0
H741 H 0.17984 0.17952 0.28415 0.0
C742 C 0.34628 0.22577 0.69429 0.0
C743 C 0.36306 0.27705 0.69155 0.0
C744 C 0.318 0.21995 0.70853 0.0
C745 C 0.2438 0.29979 0.73215 0.0
H746 H 0.24358 0.17424 0.77398 0.0
C747 C 0.14016 0.28266 0.7999 0.0
C748 C 0.12359 0.23124 0.80263 0.0
C749 C 0.16844 0.28872 0.78566 0.0
C750 C 0.24293 0.20922 0.76214 0.0
H751 H 0.36446 0.36208 0.70242 0.0
H752 H 0.31557 0.35171 0.72746 0.0
H753 H 0.29641 0.18347 0.7516 0.0
H754 H 0.12246 0.14626 0.79172 0.0
H755 H 0.17129 0.15707 0.76669 0.0
H756 H 0.1903 0.32553 0.74268 0.0
C757 C 0.32369 0.3162 0.71823 0.0
C758 C 0.27325 0.21453 0.74936 0.0
C759 C 0.35196 0.32202 0.70402 0.0
C760 C 0.13482 0.18641 0.79014 0.0
C761 C 0.16306 0.19249 0.77593 0.0
C762 C 0.21347 0.29447 0.74493 0.0
C763 C 0.30591 0.2653 0.72034 0.0
C764 C 0.27404 0.25988 0.73422 0.0
C765 C 0.1807 0.2435 0.77386 0.0
C766 C 0.21266 0.24908 0.76005 0.0
H767 H 0.35417 0.19031 0.68493 0.0
H768 H 0.30465 0.18025 0.70965 0.0
H769 H 0.24316 0.33477 0.7203 0.0
H770 H 0.13216 0.31802 0.80928 0.0
H771 H 0.18166 0.32852 0.78456 0.0
C772 C 0.63999 0.72285 0.79943 0.0
C773 C 0.62379 0.77436 0.80241 0.0
C774 C 0.66814 0.71679 0.78511 0.0
C775 C 0.74296 0.79599 0.76171 0.0
H776 H 0.74219 0.67098 0.71946 0.0
C777 C 0.84614 0.77905 0.69376 0.0
C778 C 0.86263 0.72763 0.69096 0.0
C779 C 0.81784 0.78503 0.70798 0.0
C780 C 0.7431 0.7058 0.73142 0.0
H781 H 0.6232 0.85955 0.79186 0.0
H782 H 0.6718 0.84876 0.76667 0.0
H783 H 0.68949 0.68048 0.74194 0.0
H784 H 0.86347 0.64251 0.70165 0.0
H785 H 0.81454 0.65316 0.72664 0.0
H786 H 0.79656 0.82132 0.75117 0.0
C787 C 0.66337 0.81325 0.77578 0.0
C788 C 0.71287 0.71127 0.74426 0.0
C789 C 0.63527 0.81932 0.79008 0.0
C790 C 0.8512 0.68267 0.70331 0.0
C791 C 0.82291 0.68866 0.71749 0.0
C792 C 0.77319 0.79053 0.74886 0.0
C793 C 0.68064 0.76211 0.77346 0.0
C794 C 0.71243 0.75645 0.75954 0.0
C795 C 0.80544 0.73972 0.71968 0.0
C796 C 0.77362 0.74535 0.73358 0.0
H797 H 0.63179 0.68739 0.80868 0.0
H798 H 0.68107 0.67689 0.78382 0.0
H799 H 0.74391 0.8308 0.77367 0.0
H800 H 0.85429 0.8145 0.6845 0.0
H801 H 0.80474 0.82485 0.70917 0.0
C802 C 0.84991 0.817 0.2034 0.0
C803 C 0.86095 0.77195 0.19096 0.0
C804 C 0.82184 0.81124 0.21774 0.0
C805 C 0.77167 0.70986 0.24921 0.0
H806 H 0.689 0.82123 0.24266 0.0
C807 C 0.63353 0.68332 0.29054 0.0
C808 C 0.62255 0.72843 0.30296 0.0
C809 C 0.66176 0.6889 0.27629 0.0
C810 C 0.71209 0.79007 0.24487 0.0
H811 H 0.8522 0.68513 0.18454 0.0
H812 H 0.80298 0.67519 0.20948 0.0
H813 H 0.74153 0.82995 0.22002 0.0
H814 H 0.63164 0.81517 0.3095 0.0
H815 H 0.68109 0.82481 0.2847 0.0
H816 H 0.74219 0.66997 0.27405 0.0
C817 C 0.81623 0.71491 0.20824 0.0
C818 C 0.74224 0.79509 0.23194 0.0
C819 C 0.84435 0.72065 0.19388 0.0
C820 C 0.63944 0.77961 0.30017 0.0
C821 C 0.66768 0.78518 0.28588 0.0
C822 C 0.7415 0.70483 0.26213 0.0
C823 C 0.80417 0.76034 0.22 0.0
C824 C 0.77241 0.75508 0.23398 0.0
C825 C 0.67962 0.7397 0.2741 0.0
C826 C 0.71136 0.74487 0.26011 0.0
H827 H 0.86231 0.85707 0.20169 0.0
H828 H 0.81377 0.84683 0.22695 0.0
H829 H 0.79476 0.67871 0.25142 0.0
H830 H 0.62094 0.64333 0.29218 0.0
H831 H 0.66976 0.65328 0.26708 0.0
C832 C 0.32085 0.28335 0.58438 0.0
C833 C 0.35653 0.25253 0.58823 0.0
C834 C 0.29021 0.27534 0.56339 0.0
C835 C 0.25365 0.28503 0.50954 0.0
H836 H 0.21987 0.14783 0.47684 0.0
C837 C 0.16321 0.28397 0.41082 0.0
C838 C 0.12765 0.25282 0.40657 0.0
C839 C 0.1934 0.27605 0.43205 0.0
C840 C 0.22905 0.18638 0.48582 0.0
H841 H 0.38636 0.18561 0.57421 0.0
H842 H 0.33326 0.17261 0.53745 0.0
H843 H 0.26332 0.14761 0.51826 0.0
H844 H 0.09757 0.18549 0.42016 0.0
H845 H 0.14991 0.1726 0.45731 0.0
H846 H 0.21905 0.32397 0.47752 0.0
C847 C 0.3289 0.20277 0.55065 0.0
C848 C 0.25393 0.18626 0.50943 0.0
C849 C 0.35947 0.21055 0.57169 0.0
C850 C 0.12438 0.21067 0.42298 0.0
C851 C 0.15451 0.20296 0.44425 0.0
C852 C 0.22891 0.28515 0.48604 0.0
C853 C 0.29474 0.23657 0.54584 0.0
C854 C 0.26639 0.23566 0.52151 0.0
C855 C 0.18853 0.23703 0.44942 0.0
C856 C 0.21647 0.23591 0.47389 0.0
H857 H 0.31734 0.31548 0.59692 0.0
H858 H 0.26369 0.30112 0.56037 0.0
H859 H 0.26339 0.32378 0.51817 0.0
H860 H 0.16697 0.31626 0.3984 0.0
H861 H 0.21984 0.30204 0.43535 0.0
C862 C 0.82172 0.72088 0.58365 0.0
C863 C 0.85735 0.75185 0.5877 0.0
C864 C 0.79122 0.72902 0.5626 0.0
C865 C 0.75485 0.819 0.50902 0.0
H866 H 0.72025 0.68179 0.47656 0.0
C867 C 0.66336 0.72283 0.41026 0.0
C868 C 0.62759 0.75347 0.40637 0.0
C869 C 0.69381 0.73068 0.43136 0.0
C870 C 0.73003 0.72048 0.48523 0.0
H871 H 0.88727 0.81909 0.57393 0.0
H872 H 0.83437 0.83239 0.53707 0.0
H873 H 0.76486 0.68136 0.51712 0.0
H874 H 0.5974 0.81992 0.42046 0.0
H875 H 0.65023 0.83269 0.4574 0.0
H876 H 0.72035 0.85795 0.47668 0.0
C877 C 0.82996 0.80199 0.55017 0.0
C878 C 0.75494 0.72022 0.50868 0.0
C879 C 0.86041 0.79404 0.57127 0.0
C880 C 0.62437 0.79513 0.423 0.0
C881 C 0.65477 0.80277 0.44415 0.0
C882 C 0.72978 0.81926 0.48545 0.0
C883 C 0.79584 0.76812 0.54519 0.0
C884 C 0.76754 0.7694 0.52085 0.0
C885 C 0.68902 0.76914 0.44897 0.0
C886 C 0.71727 0.76992 0.47333 0.0
H887 H 0.81812 0.68855 0.5961 0.0
H888 H 0.76472 0.70316 0.55944 0.0
H889 H 0.76414 0.8575 0.51801 0.0
H890 H 0.66709 0.69095 0.39765 0.0
H891 H 0.72041 0.70505 0.43439 0.0
C892 C 0.85958 0.7017 0.07119 0.0
C893 C 0.85551 0.74342 0.08762 0.0
C894 C 0.82942 0.69293 0.05003 0.0
C895 C 0.75502 0.67538 0.00814 0.0
H896 H 0.72086 0.81347 0.97636 0.0
C897 C 0.62584 0.70338 0.92163 0.0
C898 C 0.62965 0.74591 0.90552 0.0
C899 C 0.65609 0.69413 0.9427 0.0
C900 C 0.73053 0.77455 0.98484 0.0
H901 H 0.81468 0.80444 0.09608 0.0
H902 H 0.76187 0.78846 0.05929 0.0
H903 H 0.76411 0.81281 0.01731 0.0
H904 H 0.6701 0.80806 0.89751 0.0
H905 H 0.72306 0.79128 0.93415 0.0
H906 H 0.72158 0.63735 0.97523 0.0
C907 C 0.7889 0.76366 0.0625 0.0
C908 C 0.75465 0.77416 0.0085 0.0
C909 C 0.81909 0.77262 0.08362 0.0
C910 C 0.66589 0.77558 0.90973 0.0
C911 C 0.69617 0.76616 0.93076 0.0
C912 C 0.73065 0.67577 0.98436 0.0
C913 C 0.79463 0.72551 0.045 0.0
C914 C 0.76706 0.72467 0.02043 0.0
C915 C 0.69071 0.72706 0.94796 0.0
C916 C 0.71835 0.72546 0.9725 0.0
H917 H 0.88705 0.67792 0.07385 0.0
H918 H 0.83462 0.66323 0.03686 0.0
H919 H 0.76428 0.63667 0.01695 0.0
H920 H 0.59852 0.67924 0.9188 0.0
H921 H 0.65109 0.66371 0.95564 0.0
C922 C 0.31958 0.22864 0.08345 0.0
C923 C 0.35582 0.25831 0.08769 0.0
C924 C 0.2895 0.23769 0.06229 0.0
C925 C 0.25523 0.32718 0.00843 0.0
H926 H 0.22192 0.18966 0.97588 0.0
C927 C 0.16569 0.22899 0.90968 0.0
C928 C 0.12926 0.25813 0.90584 0.0
C929 C 0.19617 0.2382 0.93063 0.0
C930 C 0.23136 0.22844 0.98458 0.0
H931 H 0.38716 0.32461 0.0743 0.0
H932 H 0.33489 0.33953 0.03723 0.0
H933 H 0.26539 0.18961 0.01678 0.0
H934 H 0.09794 0.32369 0.91972 0.0
H935 H 0.15087 0.33882 0.95643 0.0
H936 H 0.22129 0.36581 0.97581 0.0
C937 C 0.32976 0.30938 0.05025 0.0
C938 C 0.2556 0.2284 0.0082 0.0
C939 C 0.35982 0.30049 0.07145 0.0
C940 C 0.12542 0.29996 0.92226 0.0
C941 C 0.15587 0.30899 0.94325 0.0
C942 C 0.23072 0.32723 0.98469 0.0
C943 C 0.29516 0.27643 0.045 0.0
C944 C 0.26766 0.27767 0.02041 0.0
C945 C 0.19074 0.27656 0.94812 0.0
C946 C 0.21869 0.27776 0.97256 0.0
H947 H 0.31523 0.19643 0.09576 0.0
H948 H 0.26261 0.21257 0.05889 0.0
H949 H 0.26423 0.36573 0.01746 0.0
H950 H 0.16992 0.19708 0.89721 0.0
H951 H 0.22324 0.21348 0.93372 0.0
loop_
_geom_bond_atom_site_label_1
_geom_bond_atom_site_label_2
_geom_bond_distance
_geom_bond_site_symmetry_2
_ccdc_geom_bond_type
Co0 O2 2.143 . S
Co0 O8 2.074 . S
Co0 O11 2.093 . S
Co0 O24 2.097 . S
Co0 N41 2.151 . S
Co0 N49 2.214 . S
Co1 O2 2.160 . S
Co1 O7 2.058 . S
Co1 O17 2.057 1_455 S
Co1 O32 2.037 . S
Co1 N36 2.145 1_455 S
Co1 N57 2.257 . S
O2 Co0 2.143 . S
O2 Co1 2.160 . S
C3 O4 1.278 . S
C3 O11 1.224 . S
O4 C3 1.278 . S
C5 O6 1.245 . S
C5 O17 1.232 . S
O6 C5 1.245 . S
O7 Co1 2.058 . S
O7 C33 1.269 . S
O8 Co0 2.074 . S
O8 C33 1.257 . S
H9 C34 0.932 . S
H10 C40 0.930 . S
O11 Co0 2.093 . S
O11 C3 1.224 . S
H12 C44 0.929 . S
H13 C46 0.930 . S
H14 C47 0.930 . S
H15 C45 0.929 . S
H16 C48 0.928 . S
O17 Co1 2.057 1_655 S
O17 C5 1.232 . S
H18 C37 0.929 . S
H19 C38 0.929 . S
H20 C50 0.931 . S
H21 C42 0.929 . S
H22 C51 0.930 . S
H23 C43 0.931 . S
O24 Co0 2.097 . S
O24 C52 1.214 . S
H25 C53 0.929 . S
H26 C54 0.929 . S
H27 C55 0.930 . S
H28 C56 0.929 . S
H29 C58 0.930 . S
H30 C35 0.930 . S
H31 C39 0.930 . S
O32 Co1 2.037 . S
O32 C52 1.234 . S
C33 O7 1.269 . S
C33 O8 1.257 . S
C34 H9 0.932 . S
C34 C37 1.388 1_655 S
C34 C39 1.418 . S
C35 H30 0.930 . S
C35 C38 1.404 . S
C35 C39 1.353 . S
N36 Co1 2.145 1_655 S
N36 C37 1.397 1_655 S
N36 C38 1.334 . S
C37 H18 0.929 . S
C37 C34 1.388 1_455 S
C37 N36 1.397 1_455 S
C38 H19 0.929 . S
C38 C35 1.404 . S
C38 N36 1.334 . S
C39 H31 0.930 . S
C39 C34 1.418 . S
C39 C35 1.353 . S
C40 H10 0.930 . S
C40 N41 1.330 . S
C40 C42 1.446 . S
N41 Co0 2.151 . S
N41 C40 1.330 . S
N41 C45 1.418 . S
C42 H21 0.929 . S
C42 C40 1.446 . S
C42 C43 1.332 . S
C43 H23 0.931 . S
C43 C42 1.332 . S
C43 C44 1.267 . S
C44 H12 0.929 . S
C44 C43 1.267 . S
C44 C45 1.251 . S
C45 H15 0.929 . S
C45 N41 1.418 . S
C45 C44 1.251 . S
C46 H13 0.930 . S
C46 C48 1.406 . S
C46 C51 1.261 . S
C47 H14 0.930 . S
C47 N49 1.325 . S
C47 C50 1.357 . S
C48 H16 0.928 . S
C48 C46 1.406 . S
C48 N49 1.261 . S
N49 Co0 2.214 . S
N49 C47 1.325 . S
N49 C48 1.261 . S
C50 H20 0.931 . S
C50 C47 1.357 . S
C50 C51 1.312 . S
C51 H22 0.930 . S
C51 C46 1.261 . S
C51 C50 1.312 . S
C52 O24 1.214 . S
C52 O32 1.234 . S
C53 H25 0.929 . S
C53 C56 1.391 . S
C53 C58 1.391 . S
C54 H26 0.929 . S
C54 C55 1.390 . S
C54 N57 1.391 . S
C55 H27 0.930 . S
C55 C54 1.390 . S
C55 C56 1.392 . S
C56 H28 0.929 . S
C56 C53 1.391 . S
C56 C55 1.392 . S
N57 Co1 2.257 . S
N57 C54 1.391 . S
N57 C58 1.388 . S
C58 H29 0.930 . S
C58 C53 1.391 . S
C58 N57 1.388 . S
Co59 O61 2.143 . S
Co59 O67 2.074 . S
Co59 O70 2.093 . S
Co59 O83 2.097 . S
Co59 N100 2.151 . S
Co59 N108 2.214 . S
Co60 O61 2.160 . S
Co60 O66 2.058 . S
Co60 O76 2.057 . S
Co60 O91 2.037 . S
Co60 N95 2.145 . S
Co60 N116 2.257 . S
O61 Co59 2.143 . S
O61 Co60 2.160 . S
C62 O63 1.278 . S
C62 O70 1.224 . S
O63 C62 1.278 . S
C64 O65 1.245 . S
C64 O76 1.232 . S
O65 C64 1.245 . S
O66 Co60 2.058 . S
O66 C92 1.269 . S
O67 Co59 2.074 . S
O67 C92 1.257 . S
H68 C93 0.930 . S
H69 C99 0.930 . S
O70 Co59 2.093 . S
O70 C62 1.224 . S
H71 C103 0.929 . S
H72 C105 0.930 . S
H73 C106 0.930 . S
H74 C104 0.929 . S
H75 C107 0.928 . S
O76 Co60 2.057 . S
O76 C64 1.232 . S
H77 C96 0.929 . S
H78 C97 0.929 . S
H79 C109 0.931 . S
H80 C101 0.929 . S
H81 C110 0.930 . S
H82 C102 0.931 . S
O83 Co59 2.097 . S
O83 C111 1.214 . S
H84 C112 0.929 . S
H85 C113 0.929 . S
H86 C114 0.930 . S
H87 C115 0.929 . S
H88 C117 0.930 . S
H89 C94 0.930 . S
H90 C98 0.930 . S
O91 Co60 2.037 . S
O91 C111 1.234 . S
C92 O66 1.269 . S
C92 O67 1.257 . S
C93 H68 0.930 . S
C93 C96 1.388 . S
C93 C98 1.418 . S
C94 H89 0.930 . S
C94 C97 1.404 . S
C94 C98 1.353 . S
N95 Co60 2.145 . S
N95 C96 1.397 . S
N95 C97 1.334 . S
C96 H77 0.929 . S
C96 C93 1.388 . S
C96 N95 1.397 . S
C97 H78 0.929 . S
C97 C94 1.404 . S
C97 N95 1.334 . S
C98 H90 0.930 . S
C98 C93 1.418 . S
C98 C94 1.353 . S
C99 H69 0.930 . S
C99 N100 1.330 . S
C99 C101 1.446 . S
N100 Co59 2.151 . S
N100 C99 1.330 . S
N100 C104 1.418 . S
C101 H80 0.929 . S
C101 C99 1.446 . S
C101 C102 1.332 . S
C102 H82 0.931 . S
C102 C101 1.332 . S
C102 C103 1.267 . S
C103 H71 0.929 . S
C103 C102 1.267 . S
C103 C104 1.251 . S
C104 H74 0.929 . S
C104 N100 1.418 . S
C104 C103 1.251 . S
C105 H72 0.930 . S
C105 C107 1.406 . S
C105 C110 1.261 . S
C106 H73 0.930 . S
C106 N108 1.325 . S
C106 C109 1.357 . S
C107 H75 0.928 . S
C107 C105 1.406 . S
C107 N108 1.261 . S
N108 Co59 2.214 . S
N108 C106 1.325 . S
N108 C107 1.261 . S
C109 H79 0.931 . S
C109 C106 1.357 . S
C109 C110 1.312 . S
C110 H81 0.930 . S
C110 C105 1.261 . S
C110 C109 1.312 . S
C111 O83 1.214 . S
C111 O91 1.234 . S
C112 H84 0.929 . S
C112 C115 1.391 . S
C112 C117 1.391 . S
C113 H85 0.929 . S
C113 C114 1.390 . S
C113 N116 1.391 . S
C114 H86 0.930 . S
C114 C113 1.390 . S
C114 C115 1.392 . S
C115 H87 0.929 . S
C115 C112 1.391 . S
C115 C114 1.392 . S
N116 Co60 2.257 . S
N116 C113 1.391 . S
N116 C117 1.388 . S
C117 H88 0.930 . S
C117 C112 1.391 . S
C117 N116 1.388 . S
Co118 O120 2.143 . S
Co118 O126 2.074 . S
Co118 O129 2.093 . S
Co118 O142 2.097 . S
Co118 N159 2.151 . S
Co118 N167 2.214 . S
Co119 O120 2.160 . S
Co119 O125 2.058 . S
Co119 O135 2.057 1_655 S
Co119 O150 2.037 . S
Co119 N154 2.145 1_655 S
Co119 N175 2.257 . S
O120 Co118 2.143 . S
O120 Co119 2.160 . S
C121 O122 1.278 . S
C121 O129 1.224 . S
O122 C121 1.278 . S
C123 O124 1.245 . S
C123 O135 1.232 . S
O124 C123 1.245 . S
O125 Co119 2.058 . S
O125 C151 1.269 . S
O126 Co118 2.074 . S
O126 C151 1.257 . S
H127 C152 0.932 . S
H128 C158 0.930 . S
O129 Co118 2.093 . S
O129 C121 1.224 . S
H130 C162 0.929 . S
H131 C164 0.930 . S
H132 C165 0.930 . S
H133 C163 0.929 . S
H134 C166 0.928 . S
O135 Co119 2.057 1_455 S
O135 C123 1.232 . S
H136 C155 0.929 . S
H137 C156 0.929 . S
H138 C168 0.931 . S
H139 C160 0.929 . S
H140 C169 0.930 . S
H141 C161 0.931 . S
O142 Co118 2.097 . S
O142 C170 1.214 . S
H143 C171 0.929 . S
H144 C172 0.929 . S
H145 C173 0.930 . S
H146 C174 0.929 . S
H147 C176 0.930 . S
H148 C153 0.930 . S
H149 C157 0.930 . S
O150 Co119 2.037 . S
O150 C170 1.234 . S
C151 O125 1.269 . S
C151 O126 1.257 . S
C152 H127 0.932 . S
C152 C155 1.388 1_455 S
C152 C157 1.418 . S
C153 H148 0.930 . S
C153 C156 1.404 . S
C153 C157 1.353 . S
N154 Co119 2.145 1_455 S
N154 C155 1.397 1_455 S
N154 C156 1.334 . S
C155 H136 0.929 . S
C155 C152 1.388 1_655 S
C155 N154 1.397 1_655 S
C156 H137 0.929 . S
C156 C153 1.404 . S
C156 N154 1.334 . S
C157 H149 0.930 . S
C157 C152 1.418 . S
C157 C153 1.353 . S
C158 H128 0.930 . S
C158 N159 1.330 . S
C158 C160 1.446 . S
N159 Co118 2.151 . S
N159 C158 1.330 . S
N159 C163 1.418 . S
C160 H139 0.929 . S
C160 C158 1.446 . S
C160 C161 1.332 . S
C161 H141 0.931 . S
C161 C160 1.332 . S
C161 C162 1.267 . S
C162 H130 0.929 . S
C162 C161 1.267 . S
C162 C163 1.251 . S
C163 H133 0.929 . S
C163 N159 1.418 . S
C163 C162 1.251 . S
C164 H131 0.930 . S
C164 C166 1.406 . S
C164 C169 1.261 . S
C165 H132 0.930 . S
C165 N167 1.325 . S
C165 C168 1.357 . S
C166 H134 0.928 . S
C166 C164 1.406 . S
C166 N167 1.261 . S
N167 Co118 2.214 . S
N167 C165 1.325 . S
N167 C166 1.261 . S
C168 H138 0.931 . S
C168 C165 1.357 . S
C168 C169 1.312 . S
C169 H140 0.930 . S
C169 C164 1.261 . S
C169 C168 1.312 . S
C170 O142 1.214 . S
C170 O150 1.234 . S
C171 H143 0.929 . S
C171 C174 1.391 . S
C171 C176 1.391 . S
C172 H144 0.929 . S
C172 C173 1.390 . S
C172 N175 1.391 . S
C173 H145 0.930 . S
C173 C172 1.390 . S
C173 C174 1.392 . S
C174 H146 0.929 . S
C174 C171 1.391 . S
C174 C173 1.392 . S
N175 Co119 2.257 . S
N175 C172 1.391 . S
N175 C176 1.388 . S
C176 H147 0.930 . S
C176 C171 1.391 . S
C176 N175 1.388 . S
Co177 O179 2.143 . S
Co177 O185 2.074 . S
Co177 O188 2.093 . S
Co177 O201 2.097 . S
Co177 N218 2.151 . S
Co177 N226 2.214 . S
Co178 O179 2.160 . S
Co178 O184 2.058 . S
Co178 O194 2.057 . S
Co178 O209 2.037 . S
Co178 N213 2.145 . S
Co178 N234 2.257 . S
O179 Co177 2.143 . S
O179 Co178 2.160 . S
C180 O181 1.278 . S
C180 O188 1.224 . S
O181 C180 1.278 . S
C182 O183 1.245 . S
C182 O194 1.232 . S
O183 C182 1.245 . S
O184 Co178 2.058 . S
O184 C210 1.269 . S
O185 Co177 2.074 . S
O185 C210 1.257 . S
H186 C211 0.930 . S
H187 C217 0.930 . S
O188 Co177 2.093 . S
O188 C180 1.224 . S
H189 C221 0.929 . S
H190 C223 0.930 . S
H191 C224 0.930 . S
H192 C222 0.929 . S
H193 C225 0.928 . S
O194 Co178 2.057 . S
O194 C182 1.232 . S
H195 C214 0.929 . S
H196 C215 0.929 . S
H197 C227 0.931 . S
H198 C219 0.929 . S
H199 C228 0.930 . S
H200 C220 0.931 . S
O201 Co177 2.097 . S
O201 C229 1.214 . S
H202 C230 0.929 . S
H203 C231 0.929 . S
H204 C232 0.930 . S
H205 C233 0.929 . S
H206 C235 0.930 . S
H207 C212 0.930 . S
H208 C216 0.930 . S
O209 Co178 2.037 . S
O209 C229 1.234 . S
C210 O184 1.269 . S
C210 O185 1.257 . S
C211 H186 0.930 . S
C211 C214 1.388 . S
C211 C216 1.418 . S
C212 H207 0.930 . S
C212 C215 1.404 . S
C212 C216 1.353 . S
N213 Co178 2.145 . S
N213 C214 1.397 . S
N213 C215 1.334 . S
C214 H195 0.929 . S
C214 C211 1.388 . S
C214 N213 1.397 . S
C215 H196 0.929 . S
C215 C212 1.404 . S
C215 N213 1.334 . S
C216 H208 0.930 . S
C216 C211 1.418 . S
C216 C212 1.353 . S
C217 H187 0.930 . S
C217 N218 1.330 . S
C217 C219 1.446 . S
N218 Co177 2.151 . S
N218 C217 1.330 . S
N218 C222 1.418 . S
C219 H198 0.929 . S
C219 C217 1.446 . S
C219 C220 1.332 . S
C220 H200 0.931 . S
C220 C219 1.332 . S
C220 C221 1.267 . S
C221 H189 0.929 . S
C221 C220 1.267 . S
C221 C222 1.251 . S
C222 H192 0.929 . S
C222 N218 1.418 . S
C222 C221 1.251 . S
C223 H190 0.930 . S
C223 C225 1.406 . S
C223 C228 1.261 . S
C224 H191 0.930 . S
C224 N226 1.325 . S
C224 C227 1.357 . S
C225 H193 0.928 . S
C225 C223 1.406 . S
C225 N226 1.261 . S
N226 Co177 2.214 . S
N226 C224 1.325 . S
N226 C225 1.261 . S
C227 H197 0.931 . S
C227 C224 1.357 . S
C227 C228 1.312 . S
C228 H199 0.930 . S
C228 C223 1.261 . S
C228 C227 1.312 . S
C229 O201 1.214 . S
C229 O209 1.234 . S
C230 H202 0.929 . S
C230 C233 1.391 . S
C230 C235 1.391 . S
C231 H203 0.929 . S
C231 C232 1.390 . S
C231 N234 1.391 . S
C232 H204 0.930 . S
C232 C231 1.390 . S
C232 C233 1.392 . S
C233 H205 0.929 . S
C233 C230 1.391 . S
C233 C232 1.392 . S
N234 Co178 2.257 . S
N234 C231 1.391 . S
N234 C235 1.388 . S
C235 H206 0.930 . S
C235 C230 1.391 . S
C235 N234 1.388 . S
Co236 O238 2.143 . S
Co236 O244 2.074 . S
Co236 O247 2.093 . S
Co236 O260 2.097 . S
Co236 N277 2.151 . S
Co236 N285 2.214 . S
Co237 O238 2.160 . S
Co237 O243 2.058 . S
Co237 O253 2.057 . S
Co237 O268 2.037 . S
Co237 N272 2.145 . S
Co237 N293 2.257 . S
O238 Co236 2.143 . S
O238 Co237 2.160 . S
C239 O240 1.278 . S
C239 O247 1.224 . S
O240 C239 1.278 . S
C241 O242 1.245 . S
C241 O253 1.232 . S
O242 C241 1.245 . S
O243 Co237 2.058 . S
O243 C269 1.269 . S
O244 Co236 2.074 . S
O244 C269 1.257 . S
H245 C270 0.930 . S
H246 C276 0.930 . S
O247 Co236 2.093 . S
O247 C239 1.224 . S
H248 C280 0.929 1_545 S
H249 C282 0.930 . S
H250 C283 0.930 . S
H251 C281 0.929 . S
H252 C284 0.928 . S
O253 Co237 2.057 . S
O253 C241 1.232 . S
H254 C273 0.929 . S
H255 C274 0.929 . S
H256 C286 0.931 . S
H257 C278 0.929 . S
H258 C287 0.930 . S
H259 C279 0.926 1_545 S
O260 Co236 2.097 . S
O260 C288 1.214 . S
H261 C289 0.929 . S
H262 C290 0.929 . S
H263 C291 0.930 . S
H264 C292 0.929 . S
H265 C294 0.930 . S
H266 C271 0.930 . S
H267 C275 0.930 . S
O268 Co237 2.037 . S
O268 C288 1.234 . S
C269 O243 1.269 . S
C269 O244 1.257 . S
C270 H245 0.930 . S
C270 C273 1.388 . S
C270 C275 1.418 . S
C271 H266 0.930 . S
C271 C274 1.404 . S
C271 C275 1.353 . S
N272 Co237 2.145 . S
N272 C273 1.397 . S
N272 C274 1.334 . S
C273 H254 0.929 . S
C273 C270 1.388 . S
C273 N272 1.397 . S
C274 H255 0.929 . S
C274 C271 1.404 . S
C274 N272 1.334 . S
C275 H267 0.930 . S
C275 C270 1.418 . S
C275 C271 1.353 . S
C276 H246 0.930 . S
C276 N277 1.330 . S
C276 C278 1.446 . S
N277 Co236 2.151 . S
N277 C276 1.330 . S
N277 C281 1.418 . S
C278 H257 0.929 . S
C278 C276 1.446 . S
C278 C279 1.332 . S
C279 H259 0.926 1_565 S
C279 C278 1.332 . S
C279 C280 1.267 . S
C280 H248 0.929 1_565 S
C280 C279 1.267 . S
C280 C281 1.251 . S
C281 H251 0.929 . S
C281 N277 1.418 . S
C281 C280 1.251 . S
C282 H249 0.930 . S
C282 C284 1.406 . S
C282 C287 1.261 . S
C283 H250 0.930 . S
C283 N285 1.325 . S
C283 C286 1.357 . S
C284 H252 0.928 . S
C284 C282 1.406 . S
C284 N285 1.261 . S
N285 Co236 2.214 . S
N285 C283 1.325 . S
N285 C284 1.261 . S
C286 H256 0.931 . S
C286 C283 1.357 . S
C286 C287 1.312 . S
C287 H258 0.930 . S
C287 C282 1.261 . S
C287 C286 1.312 . S
C288 O260 1.214 . S
C288 O268 1.234 . S
C289 H261 0.929 . S
C289 C292 1.391 . S
C289 C294 1.391 . S
C290 H262 0.929 . S
C290 C291 1.390 . S
C290 N293 1.391 . S
C291 H263 0.930 . S
C291 C290 1.390 . S
C291 C292 1.392 . S
C292 H264 0.929 . S
C292 C289 1.391 . S
C292 C291 1.392 . S
N293 Co237 2.257 . S
N293 C290 1.391 . S
N293 C294 1.388 . S
C294 H265 0.930 . S
C294 C289 1.391 . S
C294 N293 1.388 . S
Co295 O297 2.143 . S
Co295 O303 2.074 . S
Co295 O306 2.093 . S
Co295 O319 2.097 . S
Co295 N336 2.151 . S
Co295 N344 2.214 . S
Co296 O297 2.160 . S
Co296 O302 2.058 . S
Co296 O312 2.057 1_655 S
Co296 O327 2.037 . S
Co296 N331 2.145 1_655 S
Co296 N352 2.257 . S
O297 Co295 2.143 . S
O297 Co296 2.160 . S
C298 O299 1.278 . S
C298 O306 1.224 . S
O299 C298 1.278 . S
C300 O301 1.245 . S
C300 O312 1.232 . S
O301 C300 1.245 . S
O302 Co296 2.058 . S
O302 C328 1.269 . S
O303 Co295 2.074 . S
O303 C328 1.257 . S
H304 C329 0.932 . S
H305 C335 0.930 . S
O306 Co295 2.093 . S
O306 C298 1.224 . S
H307 C339 0.929 1_545 S
H308 C341 0.930 . S
H309 C342 0.930 . S
H310 C340 0.929 . S
H311 C343 0.928 . S
O312 Co296 2.057 1_455 S
O312 C300 1.232 . S
H313 C332 0.929 . S
H314 C333 0.929 . S
H315 C345 0.931 . S
H316 C337 0.929 . S
H317 C346 0.930 . S
H318 C338 0.927 1_545 S
O319 Co295 2.097 . S
O319 C347 1.214 . S
H320 C348 0.929 . S
H321 C349 0.929 . S
H322 C350 0.930 . S
H323 C351 0.929 . S
H324 C353 0.930 . S
H325 C330 0.930 . S
H326 C334 0.930 . S
O327 Co296 2.037 . S
O327 C347 1.234 . S
C328 O302 1.269 . S
C328 O303 1.257 . S
C329 H304 0.932 . S
C329 C332 1.388 1_455 S
C329 C334 1.418 . S
C330 H325 0.930 . S
C330 C333 1.404 . S
C330 C334 1.353 . S
N331 Co296 2.145 1_455 S
N331 C332 1.397 1_455 S
N331 C333 1.334 . S
C332 H313 0.929 . S
C332 C329 1.388 1_655 S
C332 N331 1.397 1_655 S
C333 H314 0.929 . S
C333 C330 1.404 . S
C333 N331 1.334 . S
C334 H326 0.930 . S
C334 C329 1.418 . S
C334 C330 1.353 . S
C335 H305 0.930 . S
C335 N336 1.330 . S
C335 C337 1.446 . S
N336 Co295 2.151 . S
N336 C335 1.330 . S
N336 C340 1.418 . S
C337 H316 0.929 . S
C337 C335 1.446 . S
C337 C338 1.332 . S
C338 H318 0.927 1_565 S
C338 C337 1.332 . S
C338 C339 1.267 . S
C339 H307 0.929 1_565 S
C339 C338 1.267 . S
C339 C340 1.251 . S
C340 H310 0.929 . S
C340 N336 1.418 . S
C340 C339 1.251 . S
C341 H308 0.930 . S
C341 C343 1.406 . S
C341 C346 1.261 . S
C342 H309 0.930 . S
C342 N344 1.325 . S
C342 C345 1.357 . S
C343 H311 0.928 . S
C343 C341 1.406 . S
C343 N344 1.261 . S
N344 Co295 2.214 . S
N344 C342 1.325 . S
N344 C343 1.261 . S
C345 H315 0.931 . S
C345 C342 1.357 . S
C345 C346 1.312 . S
C346 H317 0.930 . S
C346 C341 1.261 . S
C346 C345 1.312 . S
C347 O319 1.214 . S
C347 O327 1.234 . S
C348 H320 0.929 . S
C348 C351 1.391 . S
C348 C353 1.391 . S
C349 H321 0.929 . S
C349 C350 1.390 . S
C349 N352 1.391 . S
C350 H322 0.930 . S
C350 C349 1.390 . S
C350 C351 1.392 . S
C351 H323 0.929 . S
C351 C348 1.391 . S
C351 C350 1.392 . S
N352 Co296 2.257 . S
N352 C349 1.391 . S
N352 C353 1.388 . S
C353 H324 0.930 . S
C353 C348 1.391 . S
C353 N352 1.388 . S
Co354 O356 2.143 . S
Co354 O362 2.074 . S
Co354 O365 2.093 . S
Co354 O378 2.097 . S
Co354 N395 2.151 . S
Co354 N403 2.214 . S
Co355 O356 2.160 . S
Co355 O361 2.058 . S
Co355 O371 2.057 . S
Co355 O386 2.037 . S
Co355 N390 2.145 . S
Co355 N411 2.257 . S
O356 Co354 2.143 . S
O356 Co355 2.160 . S
C357 O358 1.278 . S
C357 O365 1.224 . S
O358 C357 1.278 . S
C359 O360 1.245 . S
C359 O371 1.232 . S
O360 C359 1.245 . S
O361 Co355 2.058 . S
O361 C387 1.269 . S
O362 Co354 2.074 . S
O362 C387 1.257 . S
H363 C388 0.930 . S
H364 C394 0.930 . S
O365 Co354 2.093 . S
O365 C357 1.224 . S
H366 C398 0.929 1_565 S
H367 C400 0.930 . S
H368 C401 0.930 . S
H369 C399 0.929 . S
H370 C402 0.928 . S
O371 Co355 2.057 . S
O371 C359 1.232 . S
H372 C391 0.929 . S
H373 C392 0.929 . S
H374 C404 0.931 . S
H375 C396 0.929 . S
H376 C405 0.930 . S
H377 C397 0.926 1_565 S
O378 Co354 2.097 . S
O378 C406 1.214 . S
H379 C407 0.929 . S
H380 C408 0.929 . S
H381 C409 0.930 . S
H382 C410 0.929 . S
H383 C412 0.930 . S
H384 C389 0.930 . S
H385 C393 0.930 . S
O386 Co355 2.037 . S
O386 C406 1.234 . S
C387 O361 1.269 . S
C387 O362 1.257 . S
C388 H363 0.930 . S
C388 C391 1.388 . S
C388 C393 1.418 . S
C389 H384 0.930 . S
C389 C392 1.404 . S
C389 C393 1.353 . S
N390 Co355 2.145 . S
N390 C391 1.397 . S
N390 C392 1.334 . S
C391 H372 0.929 . S
C391 C388 1.388 . S
C391 N390 1.397 . S
C392 H373 0.929 . S
C392 C389 1.404 . S
C392 N390 1.334 . S
C393 H385 0.930 . S
C393 C388 1.418 . S
C393 C389 1.353 . S
C394 H364 0.930 . S
C394 N395 1.330 . S
C394 C396 1.446 . S
N395 Co354 2.151 . S
N395 C394 1.330 . S
N395 C399 1.418 . S
C396 H375 0.929 . S
C396 C394 1.446 . S
C396 C397 1.332 . S
C397 H377 0.926 1_545 S
C397 C396 1.332 . S
C397 C398 1.267 . S
C398 H366 0.929 1_545 S
C398 C397 1.267 . S
C398 C399 1.251 . S
C399 H369 0.929 . S
C399 N395 1.418 . S
C399 C398 1.251 . S
C400 H367 0.930 . S
C400 C402 1.406 . S
C400 C405 1.261 . S
C401 H368 0.930 . S
C401 N403 1.325 . S
C401 C404 1.357 . S
C402 H370 0.928 . S
C402 C400 1.406 . S
C402 N403 1.261 . S
N403 Co354 2.214 . S
N403 C401 1.325 . S
N403 C402 1.261 . S
C404 H374 0.931 . S
C404 C401 1.357 . S
C404 C405 1.312 . S
C405 H376 0.930 . S
C405 C400 1.261 . S
C405 C404 1.312 . S
C406 O378 1.214 . S
C406 O386 1.234 . S
C407 H379 0.929 . S
C407 C410 1.391 . S
C407 C412 1.391 . S
C408 H380 0.929 . S
C408 C409 1.390 . S
C408 N411 1.391 . S
C409 H381 0.930 . S
C409 C408 1.390 . S
C409 C410 1.392 . S
C410 H382 0.929 . S
C410 C407 1.391 . S
C410 C409 1.392 . S
N411 Co355 2.257 . S
N411 C408 1.391 . S
N411 C412 1.388 . S
C412 H383 0.930 . S
C412 C407 1.391 . S
C412 N411 1.388 . S
Co413 O415 2.143 . S
Co413 O421 2.074 . S
Co413 O424 2.093 . S
Co413 O437 2.097 . S
Co413 N454 2.151 . S
Co413 N462 2.214 . S
Co414 O415 2.160 . S
Co414 O420 2.058 . S
Co414 O430 2.057 1_455 S
Co414 O445 2.037 . S
Co414 N449 2.145 1_455 S
Co414 N470 2.257 . S
O415 Co413 2.143 . S
O415 Co414 2.160 . S
C416 O417 1.278 . S
C416 O424 1.224 . S
O417 C416 1.278 . S
C418 O419 1.245 . S
C418 O430 1.232 . S
O419 C418 1.245 . S
O420 Co414 2.058 . S
O420 C446 1.269 . S
O421 Co413 2.074 . S
O421 C446 1.257 . S
H422 C447 0.932 . S
H423 C453 0.930 . S
O424 Co413 2.093 . S
O424 C416 1.224 . S
H425 C457 0.929 1_565 S
H426 C459 0.930 . S
H427 C460 0.930 . S
H428 C458 0.929 . S
H429 C461 0.928 . S
O430 Co414 2.057 1_655 S
O430 C418 1.232 . S
H431 C450 0.929 . S
H432 C451 0.929 . S
H433 C463 0.931 . S
H434 C455 0.929 . S
H435 C464 0.930 . S
H436 C456 0.927 1_565 S
O437 Co413 2.097 . S
O437 C465 1.214 . S
H438 C466 0.929 . S
H439 C467 0.929 . S
H440 C468 0.930 . S
H441 C469 0.929 . S
H442 C471 0.930 . S
H443 C448 0.930 . S
H444 C452 0.930 . S
O445 Co414 2.037 . S
O445 C465 1.234 . S
C446 O420 1.269 . S
C446 O421 1.257 . S
C447 H422 0.932 . S
C447 C450 1.388 1_655 S
C447 C452 1.418 . S
C448 H443 0.930 . S
C448 C451 1.404 . S
C448 C452 1.353 . S
N449 Co414 2.145 1_655 S
N449 C450 1.397 1_655 S
N449 C451 1.334 . S
C450 H431 0.929 . S
C450 C447 1.388 1_455 S
C450 N449 1.397 1_455 S
C451 H432 0.929 . S
C451 C448 1.404 . S
C451 N449 1.334 . S
C452 H444 0.930 . S
C452 C447 1.418 . S
C452 C448 1.353 . S
C453 H423 0.930 . S
C453 N454 1.330 . S
C453 C455 1.446 . S
N454 Co413 2.151 . S
N454 C453 1.330 . S
N454 C458 1.418 . S
C455 H434 0.929 . S
C455 C453 1.446 . S
C455 C456 1.332 . S
C456 H436 0.927 1_545 S
C456 C455 1.332 . S
C456 C457 1.267 . S
C457 H425 0.929 1_545 S
C457 C456 1.267 . S
C457 C458 1.251 . S
C458 H428 0.929 . S
C458 N454 1.418 . S
C458 C457 1.251 . S
C459 H426 0.930 . S
C459 C461 1.406 . S
C459 C464 1.261 . S
C460 H427 0.930 . S
C460 N462 1.325 . S
C460 C463 1.357 . S
C461 H429 0.928 . S
C461 C459 1.406 . S
C461 N462 1.261 . S
N462 Co413 2.214 . S
N462 C460 1.325 . S
N462 C461 1.261 . S
C463 H433 0.931 . S
C463 C460 1.357 . S
C463 C464 1.312 . S
C464 H435 0.930 . S
C464 C459 1.261 . S
C464 C463 1.312 . S
C465 O437 1.214 . S
C465 O445 1.234 . S
C466 H438 0.929 . S
C466 C469 1.391 . S
C466 C471 1.391 . S
C467 H439 0.929 . S
C467 C468 1.390 . S
C467 N470 1.391 . S
C468 H440 0.930 . S
C468 C467 1.390 . S
C468 C469 1.392 . S
C469 H441 0.929 . S
C469 C466 1.391 . S
C469 C468 1.392 . S
N470 Co414 2.257 . S
N470 C467 1.391 . S
N470 C471 1.388 . S
C471 H442 0.930 . S
C471 C466 1.391 . S
C471 N470 1.388 . S
C472 C473 1.349 . S
C472 C474 1.327 1_455 S
C472 H497 0.950 1_455 S
C473 C472 1.349 . S
C473 C489 1.349 . S
C474 C472 1.327 1_655 S
C474 C493 1.429 1_655 S
C474 H498 0.950 . S
C475 C492 1.574 . S
C475 C494 1.368 . S
C475 H499 0.949 . S
H476 C480 0.949 . S
C477 C478 1.349 . S
C477 C479 1.327 1_655 S
C477 H500 0.950 1_655 S
C478 C477 1.349 . S
C478 C490 1.349 . S
C479 C477 1.327 1_455 S
C479 C495 1.429 1_455 S
C479 H501 0.950 . S
C480 H476 0.949 . S
C480 C488 1.574 . S
C480 C496 1.368 . S
H481 C489 0.950 . S
H482 C487 0.950 . S
H483 C488 0.949 . S
H484 C490 0.950 . S
H485 C491 0.950 . S
H486 C492 0.949 . S
C487 H482 0.950 . S
C487 C489 1.327 . S
C487 C493 1.429 . S
C488 C480 1.574 . S
C488 H483 0.949 . S
C488 C494 1.368 1_655 S
C489 C473 1.349 . S
C489 H481 0.950 . S
C489 C487 1.327 . S
C490 C478 1.349 . S
C490 H484 0.950 . S
C490 C491 1.327 . S
C491 H485 0.950 . S
C491 C490 1.327 . S
C491 C495 1.429 . S
C492 C475 1.574 . S
C492 H486 0.949 . S
C492 C496 1.368 1_455 S
C493 C474 1.429 1_455 S
C493 C487 1.429 . S
C493 C494 1.523 . S
C494 C475 1.368 . S
C494 C488 1.368 1_455 S
C494 C493 1.523 . S
C495 C479 1.429 1_655 S
C495 C491 1.429 . S
C495 C496 1.523 . S
C496 C480 1.368 . S
C496 C492 1.368 1_655 S
C496 C495 1.523 . S
H497 C472 0.950 1_655 S
H498 C474 0.950 . S
H499 C475 0.949 . S
H500 C477 0.950 1_455 S
H501 C479 0.950 . S
C502 C503 1.349 . S
C502 C504 1.327 . S
C502 H527 0.950 . S
C503 C502 1.349 . S
C503 C519 1.349 . S
C504 C502 1.327 . S
C504 C523 1.429 . S
C504 H528 0.950 . S
C505 C522 1.574 . S
C505 C524 1.368 . S
C505 H529 0.949 . S
H506 C510 0.949 . S
C507 C508 1.349 . S
C507 C509 1.327 . S
C507 H530 0.950 . S
C508 C507 1.349 . S
C508 C520 1.349 . S
C509 C507 1.327 . S
C509 C525 1.429 . S
C509 H531 0.950 . S
C510 H506 0.949 . S
C510 C518 1.574 . S
C510 C526 1.368 . S
H511 C519 0.950 . S
H512 C517 0.950 . S
H513 C518 0.949 . S
H514 C520 0.950 . S
H515 C521 0.950 . S
H516 C522 0.949 . S
C517 H512 0.950 . S
C517 C519 1.327 . S
C517 C523 1.429 . S
C518 C510 1.574 . S
C518 H513 0.949 . S
C518 C524 1.368 . S
C519 C503 1.349 . S
C519 H511 0.950 . S
C519 C517 1.327 . S
C520 C508 1.349 . S
C520 H514 0.950 . S
C520 C521 1.327 . S
C521 H515 0.950 . S
C521 C520 1.327 . S
C521 C525 1.429 . S
C522 C505 1.574 . S
C522 H516 0.949 . S
C522 C526 1.368 . S
C523 C504 1.429 . S
C523 C517 1.429 . S
C523 C524 1.523 . S
C524 C505 1.368 . S
C524 C518 1.368 . S
C524 C523 1.523 . S
C525 C509 1.429 . S
C525 C521 1.429 . S
C525 C526 1.523 . S
C526 C510 1.368 . S
C526 C522 1.368 . S
C526 C525 1.523 . S
H527 C502 0.950 . S
H528 C504 0.950 . S
H529 C505 0.949 . S
H530 C507 0.950 . S
H531 C509 0.950 . S
C532 C533 1.349 . S
C532 C534 1.327 . S
C532 H557 0.950 . S
C533 C532 1.349 . S
C533 C549 1.349 . S
C534 C532 1.327 . S
C534 C553 1.429 . S
C534 H558 0.950 . S
C535 C552 1.574 1_554 S
C535 C554 1.368 1_565 S
C535 H559 0.949 . S
H536 C540 0.949 . S
C537 C538 1.349 . S
C537 C539 1.327 . S
C537 H560 0.950 . S
C538 C537 1.349 . S
C538 C550 1.349 . S
C539 C537 1.327 . S
C539 C555 1.429 . S
C539 H561 0.950 . S
C540 H536 0.949 . S
C540 C548 1.574 1_556 S
C540 C556 1.368 1_545 S
H541 C549 0.950 . S
H542 C547 0.950 . S
H543 C548 0.949 . S
H544 C550 0.950 . S
H545 C551 0.950 . S
H546 C552 0.949 . S
C547 H542 0.950 . S
C547 C549 1.327 . S
C547 C553 1.429 . S
C548 C540 1.574 1_554 S
C548 H543 0.949 . S
C548 C554 1.368 . S
C549 C533 1.349 . S
C549 H541 0.950 . S
C549 C547 1.327 . S
C550 C538 1.349 . S
C550 H544 0.950 . S
C550 C551 1.327 . S
C551 H545 0.950 . S
C551 C550 1.327 . S
C551 C555 1.429 . S
C552 C535 1.574 1_556 S
C552 H546 0.949 . S
C552 C556 1.368 . S
C553 C534 1.429 . S
C553 C547 1.429 . S
C553 C554 1.523 . S
C554 C535 1.368 1_545 S
C554 C548 1.368 . S
C554 C553 1.523 . S
C555 C539 1.429 . S
C555 C551 1.429 . S
C555 C556 1.523 . S
C556 C540 1.368 1_565 S
C556 C552 1.368 . S
C556 C555 1.523 . S
H557 C532 0.950 . S
H558 C534 0.950 . S
H559 C535 0.949 . S
H560 C537 0.950 . S
H561 C539 0.950 . S
C562 C563 1.349 1_455 S
C562 C564 1.327 . S
C562 H587 0.950 . S
C563 C562 1.349 1_655 S
C563 C579 1.349 . S
C564 C562 1.327 . S
C564 C583 1.429 1_455 S
C564 H588 0.950 . S
C565 C582 1.574 . S
C565 C584 1.368 1_556 S
C565 H589 0.949 . S
H566 C570 0.949 . S
C567 C568 1.349 1_655 S
C567 C569 1.327 . S
C567 H590 0.950 . S
C568 C567 1.349 1_455 S
C568 C580 1.349 . S
C569 C567 1.327 . S
C569 C585 1.429 1_655 S
C569 H591 0.950 . S
C570 H566 0.949 . S
C570 C578 1.574 . S
C570 C586 1.368 1_554 S
H571 C579 0.950 . S
H572 C577 0.950 . S
H573 C578 0.949 . S
H574 C580 0.950 . S
H575 C581 0.950 . S
H576 C582 0.949 . S
C577 H572 0.950 . S
C577 C579 1.327 . S
C577 C583 1.429 . S
C578 C570 1.574 . S
C578 H573 0.949 . S
C578 C584 1.368 1_445 S
C579 C563 1.349 . S
C579 H571 0.950 . S
C579 C577 1.327 . S
C580 C568 1.349 . S
C580 H574 0.950 . S
C580 C581 1.327 . S
C581 H575 0.950 . S
C581 C580 1.327 . S
C581 C585 1.429 . S
C582 C565 1.574 . S
C582 H576 0.949 . S
C582 C586 1.368 1_665 S
C583 C564 1.429 1_655 S
C583 C577 1.429 . S
C583 C584 1.523 . S
C584 C565 1.368 1_554 S
C584 C578 1.368 1_665 S
C584 C583 1.523 . S
C585 C569 1.429 1_455 S
C585 C581 1.429 . S
C585 C586 1.523 . S
C586 C570 1.368 1_556 S
C586 C582 1.368 1_445 S
C586 C585 1.523 . S
H587 C562 0.950 . S
H588 C564 0.950 . S
H589 C565 0.949 . S
H590 C567 0.950 . S
H591 C569 0.950 . S
C592 C593 1.349 . S
C592 C594 1.327 . S
C592 H617 0.950 . S
C593 C592 1.349 . S
C593 C609 1.349 . S
C594 C592 1.327 . S
C594 C613 1.429 . S
C594 H618 0.950 . S
C595 C612 1.574 . S
C595 C614 1.368 . S
C595 H619 0.949 . S
H596 C600 0.949 . S
C597 C598 1.349 . S
C597 C599 1.327 . S
C597 H620 0.950 . S
C598 C597 1.349 . S
C598 C610 1.349 . S
C599 C597 1.327 . S
C599 C615 1.429 . S
C599 H621 0.950 . S
C600 H596 0.949 . S
C600 C608 1.574 . S
C600 C616 1.368 . S
H601 C609 0.950 . S
H602 C607 0.950 . S
H603 C608 0.949 . S
H604 C610 0.950 . S
H605 C611 0.950 . S
H606 C612 0.949 . S
C607 H602 0.950 . S
C607 C609 1.327 . S
C607 C613 1.429 . S
C608 C600 1.574 . S
C608 H603 0.949 . S
C608 C614 1.368 . S
C609 C593 1.349 . S
C609 H601 0.950 . S
C609 C607 1.327 . S
C610 C598 1.349 . S
C610 H604 0.950 . S
C610 C611 1.327 . S
C611 H605 0.950 . S
C611 C610 1.327 . S
C611 C615 1.429 . S
C612 C595 1.574 . S
C612 H606 0.949 . S
C612 C616 1.368 . S
C613 C594 1.429 . S
C613 C607 1.429 . S
C613 C614 1.523 . S
C614 C595 1.368 . S
C614 C608 1.368 . S
C614 C613 1.523 . S
C615 C599 1.429 . S
C615 C611 1.429 . S
C615 C616 1.523 . S
C616 C600 1.368 . S
C616 C612 1.368 . S
C616 C615 1.523 . S
H617 C592 0.950 . S
H618 C594 0.950 . S
H619 C595 0.949 . S
H620 C597 0.950 . S
H621 C599 0.950 . S
C622 C623 1.349 . S
C622 C624 1.327 . S
C622 H647 0.950 . S
C623 C622 1.349 . S
C623 C639 1.349 . S
C624 C622 1.327 . S
C624 C643 1.429 . S
C624 H648 0.950 . S
C625 C642 1.574 . S
C625 C644 1.368 . S
C625 H649 0.949 . S
H626 C630 0.949 . S
C627 C628 1.349 . S
C627 C629 1.327 . S
C627 H650 0.950 . S
C628 C627 1.349 . S
C628 C640 1.349 . S
C629 C627 1.327 . S
C629 C645 1.429 . S
C629 H651 0.950 . S
C630 H626 0.949 . S
C630 C638 1.574 . S
C630 C646 1.368 . S
H631 C639 0.950 . S
H632 C637 0.950 . S
H633 C638 0.949 . S
H634 C640 0.950 . S
H635 C641 0.950 . S
H636 C642 0.949 . S
C637 H632 0.950 . S
C637 C639 1.327 . S
C637 C643 1.429 . S
C638 C630 1.574 . S
C638 H633 0.949 . S
C638 C644 1.368 . S
C639 C623 1.349 . S
C639 H631 0.950 . S
C639 C637 1.327 . S
C640 C628 1.349 . S
C640 H634 0.950 . S
C640 C641 1.327 . S
C641 H635 0.950 . S
C641 C640 1.327 . S
C641 C645 1.429 . S
C642 C625 1.574 . S
C642 H636 0.949 . S
C642 C646 1.368 . S
C643 C624 1.429 . S
C643 C637 1.429 . S
C643 C644 1.523 . S
C644 C625 1.368 . S
C644 C638 1.368 . S
C644 C643 1.523 . S
C645 C629 1.429 . S
C645 C641 1.429 . S
C645 C646 1.523 . S
C646 C630 1.368 . S
C646 C642 1.368 . S
C646 C645 1.523 . S
H647 C622 0.950 . S
H648 C624 0.950 . S
H649 C625 0.949 . S
H650 C627 0.950 . S
H651 C629 0.950 . S
C652 C653 1.349 . S
C652 C654 1.327 . S
C652 H677 0.950 . S
C653 C652 1.349 . S
C653 C669 1.349 . S
C654 C652 1.327 . S
C654 C673 1.429 . S
C654 H678 0.950 . S
C655 C672 1.574 . S
C655 C674 1.368 . S
C655 H679 0.949 . S
H656 C660 0.949 . S
C657 C658 1.349 . S
C657 C659 1.327 . S
C657 H680 0.950 . S
C658 C657 1.349 . S
C658 C670 1.349 . S
C659 C657 1.327 . S
C659 C675 1.429 . S
C659 H681 0.950 . S
C660 H656 0.949 . S
C660 C668 1.574 . S
C660 C676 1.368 . S
H661 C669 0.950 . S
H662 C667 0.950 . S
H663 C668 0.949 . S
H664 C670 0.950 . S
H665 C671 0.950 . S
H666 C672 0.949 . S
C667 H662 0.950 . S
C667 C669 1.327 . S
C667 C673 1.429 . S
C668 C660 1.574 . S
C668 H663 0.949 . S
C668 C674 1.368 . S
C669 C653 1.349 . S
C669 H661 0.950 . S
C669 C667 1.327 . S
C670 C658 1.349 . S
C670 H664 0.950 . S
C670 C671 1.327 . S
C671 H665 0.950 . S
C671 C670 1.327 . S
C671 C675 1.429 . S
C672 C655 1.574 . S
C672 H666 0.949 . S
C672 C676 1.368 . S
C673 C654 1.429 . S
C673 C667 1.429 . S
C673 C674 1.523 . S
C674 C655 1.368 . S
C674 C668 1.368 . S
C674 C673 1.523 . S
C675 C659 1.429 . S
C675 C671 1.429 . S
C675 C676 1.523 . S
C676 C660 1.368 . S
C676 C672 1.368 . S
C676 C675 1.523 . S
H677 C652 0.950 . S
H678 C654 0.950 . S
H679 C655 0.949 . S
H680 C657 0.950 . S
H681 C659 0.950 . S
C682 C683 1.349 . S
C682 C684 1.327 . S
C682 H707 0.950 . S
C683 C682 1.349 . S
C683 C699 1.349 . S
C684 C682 1.327 . S
C684 C703 1.429 . S
C684 H708 0.950 . S
C685 C702 1.574 . S
C685 C704 1.368 . S
C685 H709 0.949 . S
H686 C690 0.949 . S
C687 C688 1.349 . S
C687 C689 1.327 . S
C687 H710 0.950 . S
C688 C687 1.349 . S
C688 C700 1.349 . S
C689 C687 1.327 . S
C689 C705 1.429 . S
C689 H711 0.950 . S
C690 H686 0.949 . S
C690 C698 1.574 . S
C690 C706 1.368 . S
H691 C699 0.950 . S
H692 C697 0.950 . S
H693 C698 0.949 . S
H694 C700 0.950 . S
H695 C701 0.950 . S
H696 C702 0.949 . S
C697 H692 0.950 . S
C697 C699 1.327 . S
C697 C703 1.429 . S
C698 C690 1.574 . S
C698 H693 0.949 . S
C698 C704 1.368 . S
C699 C683 1.349 . S
C699 H691 0.950 . S
C699 C697 1.327 . S
C700 C688 1.349 . S
C700 H694 0.950 . S
C700 C701 1.327 . S
C701 H695 0.950 . S
C701 C700 1.327 . S
C701 C705 1.429 . S
C702 C685 1.574 . S
C702 H696 0.949 . S
C702 C706 1.368 . S
C703 C684 1.429 . S
C703 C697 1.429 . S
C703 C704 1.523 . S
C704 C685 1.368 . S
C704 C698 1.368 . S
C704 C703 1.523 . S
C705 C689 1.429 . S
C705 C701 1.429 . S
C705 C706 1.523 . S
C706 C690 1.368 . S
C706 C702 1.368 . S
C706 C705 1.523 . S
H707 C682 0.950 . S
H708 C684 0.950 . S
H709 C685 0.949 . S
H710 C687 0.950 . S
H711 C689 0.950 . S
C712 C713 1.349 . S
C712 C714 1.327 . S
C712 H737 0.950 . S
C713 C712 1.349 . S
C713 C729 1.349 . S
C714 C712 1.327 . S
C714 C733 1.429 . S
C714 H738 0.950 . S
C715 C732 1.574 . S
C715 C734 1.368 . S
C715 H739 0.949 . S
H716 C720 0.949 . S
C717 C718 1.349 . S
C717 C719 1.327 . S
C717 H740 0.950 . S
C718 C717 1.349 . S
C718 C730 1.349 . S
C719 C717 1.327 . S
C719 C735 1.429 . S
C719 H741 0.950 . S
C720 H716 0.949 . S
C720 C728 1.574 . S
C720 C736 1.368 . S
H721 C729 0.950 . S
H722 C727 0.950 . S
H723 C728 0.949 . S
H724 C730 0.950 . S
H725 C731 0.950 . S
H726 C732 0.949 . S
C727 H722 0.950 . S
C727 C729 1.327 . S
C727 C733 1.429 . S
C728 C720 1.574 . S
C728 H723 0.949 . S
C728 C734 1.368 . S
C729 C713 1.349 . S
C729 H721 0.950 . S
C729 C727 1.327 . S
C730 C718 1.349 . S
C730 H724 0.950 . S
C730 C731 1.327 . S
C731 H725 0.950 . S
C731 C730 1.327 . S
C731 C735 1.429 . S
C732 C715 1.574 . S
C732 H726 0.949 . S
C732 C736 1.368 . S
C733 C714 1.429 . S
C733 C727 1.429 . S
C733 C734 1.523 . S
C734 C715 1.368 . S
C734 C728 1.368 . S
C734 C733 1.523 . S
C735 C719 1.429 . S
C735 C731 1.429 . S
C735 C736 1.523 . S
C736 C720 1.368 . S
C736 C732 1.368 . S
C736 C735 1.523 . S
H737 C712 0.950 . S
H738 C714 0.950 . S
H739 C715 0.949 . S
H740 C717 0.950 . S
H741 C719 0.950 . S
C742 C743 1.349 . S
C742 C744 1.327 . S
C742 H767 0.950 . S
C743 C742 1.349 . S
C743 C759 1.349 . S
C744 C742 1.327 . S
C744 C763 1.429 . S
C744 H768 0.950 . S
C745 C762 1.574 . S
C745 C764 1.368 . S
C745 H769 0.949 . S
H746 C750 0.949 . S
C747 C748 1.349 . S
C747 C749 1.327 . S
C747 H770 0.950 . S
C748 C747 1.349 . S
C748 C760 1.349 . S
C749 C747 1.327 . S
C749 C765 1.429 . S
C749 H771 0.950 . S
C750 H746 0.949 . S
C750 C758 1.574 . S
C750 C766 1.368 . S
H751 C759 0.950 . S
H752 C757 0.950 . S
H753 C758 0.949 . S
H754 C760 0.950 . S
H755 C761 0.950 . S
H756 C762 0.949 . S
C757 H752 0.950 . S
C757 C759 1.327 . S
C757 C763 1.429 . S
C758 C750 1.574 . S
C758 H753 0.949 . S
C758 C764 1.368 . S
C759 C743 1.349 . S
C759 H751 0.950 . S
C759 C757 1.327 . S
C760 C748 1.349 . S
C760 H754 0.950 . S
C760 C761 1.327 . S
C761 H755 0.950 . S
C761 C760 1.327 . S
C761 C765 1.429 . S
C762 C745 1.574 . S
C762 H756 0.949 . S
C762 C766 1.368 . S
C763 C744 1.429 . S
C763 C757 1.429 . S
C763 C764 1.523 . S
C764 C745 1.368 . S
C764 C758 1.368 . S
C764 C763 1.523 . S
C765 C749 1.429 . S
C765 C761 1.429 . S
C765 C766 1.523 . S
C766 C750 1.368 . S
C766 C762 1.368 . S
C766 C765 1.523 . S
H767 C742 0.950 . S
H768 C744 0.950 . S
H769 C745 0.949 . S
H770 C747 0.950 . S
H771 C749 0.950 . S
C772 C773 1.349 . S
C772 C774 1.327 . S
C772 H797 0.950 . S
C773 C772 1.349 . S
C773 C789 1.349 . S
C774 C772 1.327 . S
C774 C793 1.429 . S
C774 H798 0.950 . S
C775 C792 1.574 . S
C775 C794 1.368 . S
C775 H799 0.949 . S
H776 C780 0.949 . S
C777 C778 1.349 . S
C777 C779 1.327 . S
C777 H800 0.950 . S
C778 C777 1.349 . S
C778 C790 1.349 . S
C779 C777 1.327 . S
C779 C795 1.429 . S
C779 H801 0.950 . S
C780 H776 0.949 . S
C780 C788 1.574 . S
C780 C796 1.368 . S
H781 C789 0.950 . S
H782 C787 0.950 . S
H783 C788 0.949 . S
H784 C790 0.950 . S
H785 C791 0.950 . S
H786 C792 0.949 . S
C787 H782 0.950 . S
C787 C789 1.327 . S
C787 C793 1.429 . S
C788 C780 1.574 . S
C788 H783 0.949 . S
C788 C794 1.368 . S
C789 C773 1.349 . S
C789 H781 0.950 . S
C789 C787 1.327 . S
C790 C778 1.349 . S
C790 H784 0.950 . S
C790 C791 1.327 . S
C791 H785 0.950 . S
C791 C790 1.327 . S
C791 C795 1.429 . S
C792 C775 1.574 . S
C792 H786 0.949 . S
C792 C796 1.368 . S
C793 C774 1.429 . S
C793 C787 1.429 . S
C793 C794 1.523 . S
C794 C775 1.368 . S
C794 C788 1.368 . S
C794 C793 1.523 . S
C795 C779 1.429 . S
C795 C791 1.429 . S
C795 C796 1.523 . S
C796 C780 1.368 . S
C796 C792 1.368 . S
C796 C795 1.523 . S
H797 C772 0.950 . S
H798 C774 0.950 . S
H799 C775 0.949 . S
H800 C777 0.950 . S
H801 C779 0.950 . S
C802 C803 1.349 . S
C802 C804 1.327 . S
C802 H827 0.950 . S
C803 C802 1.349 . S
C803 C819 1.349 . S
C804 C802 1.327 . S
C804 C823 1.429 . S
C804 H828 0.950 . S
C805 C822 1.574 . S
C805 C824 1.368 . S
C805 H829 0.949 . S
H806 C810 0.949 . S
C807 C808 1.349 . S
C807 C809 1.327 . S
C807 H830 0.950 . S
C808 C807 1.349 . S
C808 C820 1.349 . S
C809 C807 1.327 . S
C809 C825 1.429 . S
C809 H831 0.950 . S
C810 H806 0.949 . S
C810 C818 1.574 . S
C810 C826 1.368 . S
H811 C819 0.950 . S
H812 C817 0.950 . S
H813 C818 0.949 . S
H814 C820 0.950 . S
H815 C821 0.950 . S
H816 C822 0.949 . S
C817 H812 0.950 . S
C817 C819 1.327 . S
C817 C823 1.429 . S
C818 C810 1.574 . S
C818 H813 0.949 . S
C818 C824 1.368 . S
C819 C803 1.349 . S
C819 H811 0.950 . S
C819 C817 1.327 . S
C820 C808 1.349 . S
C820 H814 0.950 . S
C820 C821 1.327 . S
C821 H815 0.950 . S
C821 C820 1.327 . S
C821 C825 1.429 . S
C822 C805 1.574 . S
C822 H816 0.949 . S
C822 C826 1.368 . S
C823 C804 1.429 . S
C823 C817 1.429 . S
C823 C824 1.523 . S
C824 C805 1.368 . S
C824 C818 1.368 . S
C824 C823 1.523 . S
C825 C809 1.429 . S
C825 C821 1.429 . S
C825 C826 1.523 . S
C826 C810 1.368 . S
C826 C822 1.368 . S
C826 C825 1.523 . S
H827 C802 0.950 . S
H828 C804 0.950 . S
H829 C805 0.949 . S
H830 C807 0.950 . S
H831 C809 0.950 . S
C832 C833 1.349 . S
C832 C834 1.327 . S
C832 H857 0.950 . S
C833 C832 1.349 . S
C833 C849 1.349 . S
C834 C832 1.327 . S
C834 C853 1.429 . S
C834 H858 0.950 . S
C835 C852 1.574 . S
C835 C854 1.368 . S
C835 H859 0.949 . S
H836 C840 0.949 . S
C837 C838 1.349 . S
C837 C839 1.327 . S
C837 H860 0.950 . S
C838 C837 1.349 . S
C838 C850 1.349 . S
C839 C837 1.327 . S
C839 C855 1.429 . S
C839 H861 0.950 . S
C840 H836 0.949 . S
C840 C848 1.574 . S
C840 C856 1.368 . S
H841 C849 0.950 . S
H842 C847 0.950 . S
H843 C848 0.949 . S
H844 C850 0.950 . S
H845 C851 0.950 . S
H846 C852 0.949 . S
C847 H842 0.950 . S
C847 C849 1.327 . S
C847 C853 1.429 . S
C848 C840 1.574 . S
C848 H843 0.949 . S
C848 C854 1.368 . S
C849 C833 1.349 . S
C849 H841 0.950 . S
C849 C847 1.327 . S
C850 C838 1.349 . S
C850 H844 0.950 . S
C850 C851 1.327 . S
C851 H845 0.950 . S
C851 C850 1.327 . S
C851 C855 1.429 . S
C852 C835 1.574 . S
C852 H846 0.949 . S
C852 C856 1.368 . S
C853 C834 1.429 . S
C853 C847 1.429 . S
C853 C854 1.523 . S
C854 C835 1.368 . S
C854 C848 1.368 . S
C854 C853 1.523 . S
C855 C839 1.429 . S
C855 C851 1.429 . S
C855 C856 1.523 . S
C856 C840 1.368 . S
C856 C852 1.368 . S
C856 C855 1.523 . S
H857 C832 0.950 . S
H858 C834 0.950 . S
H859 C835 0.949 . S
H860 C837 0.950 . S
H861 C839 0.950 . S
C862 C863 1.349 . S
C862 C864 1.327 . S
C862 H887 0.950 . S
C863 C862 1.349 . S
C863 C879 1.349 . S
C864 C862 1.327 . S
C864 C883 1.429 . S
C864 H888 0.950 . S
C865 C882 1.574 . S
C865 C884 1.368 . S
C865 H889 0.949 . S
H866 C870 0.949 . S
C867 C868 1.349 . S
C867 C869 1.327 . S
C867 H890 0.950 . S
C868 C867 1.349 . S
C868 C880 1.349 . S
C869 C867 1.327 . S
C869 C885 1.429 . S
C869 H891 0.950 . S
C870 H866 0.949 . S
C870 C878 1.574 . S
C870 C886 1.368 . S
H871 C879 0.950 . S
H872 C877 0.950 . S
H873 C878 0.949 . S
H874 C880 0.950 . S
H875 C881 0.950 . S
H876 C882 0.949 . S
C877 H872 0.950 . S
C877 C879 1.327 . S
C877 C883 1.429 . S
C878 C870 1.574 . S
C878 H873 0.949 . S
C878 C884 1.368 . S
C879 C863 1.349 . S
C879 H871 0.950 . S
C879 C877 1.327 . S
C880 C868 1.349 . S
C880 H874 0.950 . S
C880 C881 1.327 . S
C881 H875 0.950 . S
C881 C880 1.327 . S
C881 C885 1.429 . S
C882 C865 1.574 . S
C882 H876 0.949 . S
C882 C886 1.368 . S
C883 C864 1.429 . S
C883 C877 1.429 . S
C883 C884 1.523 . S
C884 C865 1.368 . S
C884 C878 1.368 . S
C884 C883 1.523 . S
C885 C869 1.429 . S
C885 C881 1.429 . S
C885 C886 1.523 . S
C886 C870 1.368 . S
C886 C882 1.368 . S
C886 C885 1.523 . S
H887 C862 0.950 . S
H888 C864 0.950 . S
H889 C865 0.949 . S
H890 C867 0.950 . S
H891 C869 0.950 . S
C892 C893 1.349 . S
C892 C894 1.327 . S
C892 H917 0.950 . S
C893 C892 1.349 . S
C893 C909 1.349 . S
C894 C892 1.327 . S
C894 C913 1.429 . S
C894 H918 0.950 . S
C895 C912 1.574 1_554 S
C895 C914 1.368 . S
C895 H919 0.949 . S
H896 C900 0.949 . S
C897 C898 1.349 . S
C897 C899 1.327 . S
C897 H920 0.950 . S
C898 C897 1.349 . S
C898 C910 1.349 . S
C899 C897 1.327 . S
C899 C915 1.429 . S
C899 H921 0.950 . S
C900 H896 0.949 . S
C900 C908 1.574 1_556 S
C900 C916 1.368 . S
H901 C909 0.950 . S
H902 C907 0.950 . S
H903 C908 0.949 . S
H904 C910 0.950 . S
H905 C911 0.950 . S
H906 C912 0.949 . S
C907 H902 0.950 . S
C907 C909 1.327 . S
C907 C913 1.429 . S
C908 C900 1.574 1_554 S
C908 H903 0.949 . S
C908 C914 1.368 . S
C909 C893 1.349 . S
C909 H901 0.950 . S
C909 C907 1.327 . S
C910 C898 1.349 . S
C910 H904 0.950 . S
C910 C911 1.327 . S
C911 H905 0.950 . S
C911 C910 1.327 . S
C911 C915 1.429 . S
C912 C895 1.574 1_556 S
C912 H906 0.949 . S
C912 C916 1.368 . S
C913 C894 1.429 . S
C913 C907 1.429 . S
C913 C914 1.523 . S
C914 C895 1.368 . S
C914 C908 1.368 . S
C914 C913 1.523 . S
C915 C899 1.429 . S
C915 C911 1.429 . S
C915 C916 1.523 . S
C916 C900 1.368 . S
C916 C912 1.368 . S
C916 C915 1.523 . S
H917 C892 0.950 . S
H918 C894 0.950 . S
H919 C895 0.949 . S
H920 C897 0.950 . S
H921 C899 0.950 . S
C922 C923 1.349 . S
C922 C924 1.327 . S
C922 H947 0.950 . S
C923 C922 1.349 . S
C923 C939 1.349 . S
C924 C922 1.327 . S
C924 C943 1.429 . S
C924 H948 0.950 . S
C925 C942 1.574 1_554 S
C925 C944 1.368 . S
C925 H949 0.949 . S
H926 C930 0.949 . S
C927 C928 1.349 . S
C927 C929 1.327 . S
C927 H950 0.950 . S
C928 C927 1.349 . S
C928 C940 1.349 . S
C929 C927 1.327 . S
C929 C945 1.429 . S
C929 H951 0.950 . S
C930 H926 0.949 . S
C930 C938 1.574 1_556 S
C930 C946 1.368 . S
H931 C939 0.950 . S
H932 C937 0.950 . S
H933 C938 0.949 . S
H934 C940 0.950 . S
H935 C941 0.950 . S
H936 C942 0.949 . S
C937 H932 0.950 . S
C937 C939 1.327 . S
C937 C943 1.429 . S
C938 C930 1.574 1_554 S
C938 H933 0.949 . S
C938 C944 1.368 . S
C939 C923 1.349 . S
C939 H931 0.950 . S
C939 C937 1.327 . S
C940 C928 1.349 . S
C940 H934 0.950 . S
C940 C941 1.327 . S
C941 H935 0.950 . S
C941 C940 1.327 . S
C941 C945 1.429 . S
C942 C925 1.574 1_556 S
C942 H936 0.949 . S
C942 C946 1.368 . S
C943 C924 1.429 . S
C943 C937 1.429 . S
C943 C944 1.523 . S
C944 C925 1.368 . S
C944 C938 1.368 . S
C944 C943 1.523 . S
C945 C929 1.429 . S
C945 C941 1.429 . S
C945 C946 1.523 . S
C946 C930 1.368 . S
C946 C942 1.368 . S
C946 C945 1.523 . S
H947 C922 0.950 . S
H948 C924 0.950 . S
H949 C925 0.949 . S
H950 C927 0.950 . S
H951 C929 0.950 . S
C473 C33 1.526 . S
C478 C151 1.526 . S
C503 C210 1.526 . S
C508 C92 1.526 . S
C533 C387 1.526 . S
C538 C269 1.526 . S
C563 C328 1.526 . S
C568 C446 1.526 . S
C593 C359 1.726 . S
C598 C5 1.726 . S
C623 C64 1.726 . S
C628 C418 1.726 . S
C653 C123 1.726 . S
C658 C241 1.726 . S
C683 C182 1.726 . S
C688 C300 1.726 . S
C713 C357 1.565 . S
C718 C3 1.565 . S
C743 C62 1.565 . S
C748 C416 1.565 . S
C773 C239 1.565 . S
C778 C121 1.565 . S
C803 C298 1.565 . S
C808 C180 1.565 . S
C833 C111 0.472 . S
C838 C52 0.472 . S
C863 C170 0.472 . S
C868 C229 0.472 . S
C893 C347 0.472 . S
C898 C288 0.472 . S
C923 C406 0.472 . S
C928 C465 0.472 . S
