# Generated by pormake.
# Topology fny, (5)-cn, num edge types: 1
# Building blocks:
#     Node 0, Type 0, BuildingBlock: XOMCOT_clean_sbu_1, # of connection points: 5
#     Node 1, Type 0, BuildingBlock: XOMCOT_clean_sbu_1, # of connection points: 5
#     Node 2, Type 0, BuildingBlock: XOMCOT_clean_sbu_1, # of connection points: 5
#     Node 3, Type 0, BuildingBlock: XOMCOT_clean_sbu_1, # of connection points: 5
#     Node 4, Type 0, BuildingBlock: XOMCOT_clean_sbu_1, # of connection points: 5
#     Node 5, Type 0, BuildingBlock: XOMCOT_clean_sbu_1, # of connection points: 5
#     Node 6, Type 0, BuildingBlock: XOMCOT_clean_sbu_1, # of connection points: 5
#     Node 7, Type 0, BuildingBlock: XOMCOT_clean_sbu_1, # of connection points: 5
#     Node 8, Type 0, BuildingBlock: XOMCOT_clean_sbu_1, # of connection points: 5
#     Node 9, Type 0, BuildingBlock: XOMCOT_clean_sbu_1, # of connection points: 5
#     Node 10, Type 0, BuildingBlock: XOMCOT_clean_sbu_1, # of connection points: 5
#     Node 11, Type 0, BuildingBlock: XOMCOT_clean_sbu_1, # of connection points: 5
#     Edge 12, Type (0, 0), BuildingBlock: XIVTED_clean_linker_0, # of connection points: 2
#     Edge 13, Type (0, 0), BuildingBlock: XIVTED_clean_linker_0, # of connection points: 2
#     Edge 14, Type (0, 0), BuildingBlock: XIVTED_clean_linker_0, # of connection points: 2
#     Edge 15, Type (0, 0), BuildingBlock: XIVTED_clean_linker_0, # of connection points: 2
#     Edge 16, Type (0, 0), BuildingBlock: XIVTED_clean_linker_0, # of connection points: 2
#     Edge 17, Type (0, 0), BuildingBlock: XIVTED_clean_linker_0, # of connection points: 2
#     Edge 18, Type (0, 0), BuildingBlock: XIVTED_clean_linker_0, # of connection points: 2
#     Edge 19, Type (0, 0), BuildingBlock: XIVTED_clean_linker_0, # of connection points: 2
#     Edge 20, Type (0, 0), BuildingBlock: XIVTED_clean_linker_0, # of connection points: 2
#     Edge 21, Type (0, 0), BuildingBlock: XIVTED_clean_linker_0, # of connection points: 2
#     Edge 22, Type (0, 0), BuildingBlock: XIVTED_clean_linker_0, # of connection points: 2
#     Edge 23, Type (0, 0), BuildingBlock: XIVTED_clean_linker_0, # of connection points: 2
#     Edge 24, Type (0, 0), BuildingBlock: XIVTED_clean_linker_0, # of connection points: 2
#     Edge 25, Type (0, 0), BuildingBlock: XIVTED_clean_linker_0, # of connection points: 2
#     Edge 26, Type (0, 0), BuildingBlock: XIVTED_clean_linker_0, # of connection points: 2
#     Edge 27, Type (0, 0), BuildingBlock: XIVTED_clean_linker_0, # of connection points: 2
#     Edge 28, Type (0, 0), BuildingBlock: XIVTED_clean_linker_0, # of connection points: 2
#     Edge 29, Type (0, 0), BuildingBlock: XIVTED_clean_linker_0, # of connection points: 2
#     Edge 30, Type (0, 0), BuildingBlock: XIVTED_clean_linker_0, # of connection points: 2
#     Edge 31, Type (0, 0), BuildingBlock: XIVTED_clean_linker_0, # of connection points: 2
#     Edge 32, Type (0, 0), BuildingBlock: XIVTED_clean_linker_0, # of connection points: 2
#     Edge 33, Type (0, 0), BuildingBlock: XIVTED_clean_linker_0, # of connection points: 2
#     Edge 34, Type (0, 0), BuildingBlock: XIVTED_clean_linker_0, # of connection points: 2
#     Edge 35, Type (0, 0), BuildingBlock: XIVTED_clean_linker_0, # of connection points: 2
#     Edge 36, Type (0, 0), BuildingBlock: XIVTED_clean_linker_0, # of connection points: 2
#     Edge 37, Type (0, 0), BuildingBlock: XIVTED_clean_linker_0, # of connection points: 2
#     Edge 38, Type (0, 0), BuildingBlock: XIVTED_clean_linker_0, # of connection points: 2
#     Edge 39, Type (0, 0), BuildingBlock: XIVTED_clean_linker_0, # of connection points: 2
#     Edge 40, Type (0, 0), BuildingBlock: XIVTED_clean_linker_0, # of connection points: 2
#     Edge 41, Type (0, 0), BuildingBlock: XIVTED_clean_linker_0, # of connection points: 2
# Relax obj value: 0.263
# Max RMSD: 0.208
# Mean RMSD: 0.208
data_MOF--net-fny--node1-XOMCOT_clean_sbu_1--edge1-XIVTED_clean_linker_0
_symmetry_space_group_name_H-M    P1
_symmetry_Int_Tables_number       1
_symmetry_cell_setting            triclinic
loop_
_symmetry_equiv_pos_as_xyz
'x, y, z'
_cell_length_a     61.791132
_cell_length_b     61.836313
_cell_length_c     24.097311
_cell_angle_alpha  89.956705
_cell_angle_beta   90.020856
_cell_angle_gamma 119.90019
loop_
_atom_site_label
_atom_site_type_symbol
_atom_site_fract_x
_atom_site_fract_y
_atom_site_fract_z
_atom_type_partial_charge
C0 C 0.31829 0.50476 0.28518 0.0
C1 C 0.30039 0.49415 0.24458 0.0
N2 N 0.3117 0.50184 0.1949 0.0
N3 N 0.34065 0.51924 0.2611 0.0
C4 C 0.33613 0.51696 0.20611 0.0
H5 H 0.31525 0.50194 0.32941 0.0
Co6 Co 0.37045 0.53627 0.29844 0.0
C7 C 0.40547 0.58045 0.22422 0.0
O8 O 0.42494 0.58498 0.25439 0.0
N9 N 0.40014 0.55262 0.33865 0.0
C10 C 0.43098 0.57843 0.39403 0.0
C11 C 0.41126 0.5755 0.36203 0.0
C12 C 0.41277 0.54175 0.35896 0.0
N13 N 0.43179 0.55708 0.39199 0.0
O14 O 0.35682 0.5541 0.34085 0.0
H15 H 0.40493 0.58887 0.35748 0.0
H16 H 0.40715 0.52234 0.35313 0.0
O17 O 0.38376 0.56221 0.23706 0.0
C18 C 0.35132 0.54608 0.39096 0.0
O19 O 0.35655 0.52892 0.40739 0.0
N20 N 0.38179 0.51646 0.26282 0.0
C21 C 0.40218 0.48545 0.24668 0.0
C22 C 0.41274 0.50896 0.221 0.0
C23 C 0.40217 0.52417 0.22929 0.0
C24 C 0.37002 0.49283 0.28386 0.0
C25 C 0.37987 0.47703 0.27633 0.0
H26 H 0.41151 0.54255 0.21168 0.0
H27 H 0.35414 0.487 0.31106 0.0
H28 H 0.35043 0.52638 0.17498 0.0
H29 H 0.28065 0.48163 0.25113 0.0
H30 H 0.44239 0.59417 0.42066 0.0
H31 H 0.42966 0.516 0.19666 0.0
H32 H 0.37107 0.45914 0.29724 0.0
C33 C 0.83482 0.30119 0.75625 0.0
C34 C 0.82297 0.28189 0.71917 0.0
N35 N 0.80875 0.28711 0.68582 0.0
N36 N 0.82903 0.31912 0.74477 0.0
C37 C 0.81185 0.30908 0.70392 0.0
H38 H 0.84671 0.30169 0.78953 0.0
Co39 Co 0.84132 0.35041 0.7792 0.0
C40 C 0.83453 0.36381 0.6623 0.0
O41 O 0.84637 0.35253 0.64388 0.0
N42 N 0.85319 0.38061 0.81426 0.0
C43 C 0.86305 0.4188 0.8398 0.0
C44 C 0.84677 0.39837 0.80895 0.0
C45 C 0.87297 0.39035 0.84858 0.0
N46 N 0.87967 0.41373 0.86434 0.0
O47 O 0.8092 0.33731 0.81792 0.0
H48 H 0.83138 0.39664 0.78423 0.0
H49 H 0.88245 0.38042 0.86096 0.0
O50 O 0.83051 0.36376 0.71475 0.0
C51 C 0.81145 0.33143 0.86786 0.0
O52 O 0.83351 0.33544 0.88364 0.0
N53 N 0.87399 0.36276 0.74887 0.0
C54 C 0.92634 0.38666 0.74003 0.0
C55 C 0.91283 0.39659 0.71412 0.0
C56 C 0.8868 0.38468 0.71995 0.0
C57 C 0.88697 0.35292 0.77388 0.0
C58 C 0.91287 0.36419 0.76921 0.0
H59 H 0.87751 0.39447 0.70553 0.0
H60 H 0.87783 0.33805 0.80346 0.0
H61 H 0.80229 0.31803 0.68614 0.0
H62 H 0.82498 0.2655 0.71639 0.0
H63 H 0.86214 0.43571 0.84506 0.0
H64 H 0.92235 0.41413 0.69193 0.0
H65 H 0.92237 0.35639 0.79244 0.0
C66 C 0.51806 0.80922 0.26156 0.0
C67 C 0.52733 0.80239 0.21711 0.0
N68 N 0.51885 0.80749 0.17015 0.0
N69 N 0.50379 0.81844 0.24249 0.0
C70 C 0.50474 0.81729 0.18678 0.0
H71 H 0.52168 0.80778 0.30492 0.0
Co72 Co 0.48831 0.83175 0.28427 0.0
C73 C 0.44255 0.82325 0.21597 0.0
O74 O 0.43787 0.83721 0.24912 0.0
N75 N 0.47338 0.84556 0.32821 0.0
C76 C 0.44844 0.85122 0.38537 0.0
C77 C 0.45101 0.83404 0.3541 0.0
C78 C 0.48448 0.8693 0.3468 0.0
N79 N 0.46956 0.87338 0.38039 0.0
O80 O 0.47087 0.80037 0.32699 0.0
H81 H 0.43754 0.81436 0.35084 0.0
H82 H 0.50362 0.88321 0.3384 0.0
O83 O 0.46119 0.81998 0.22592 0.0
C84 C 0.48042 0.80296 0.37561 0.0
O85 O 0.49895 0.82506 0.38935 0.0
N86 N 0.50772 0.86283 0.24823 0.0
C87 C 0.53853 0.9142 0.23249 0.0
C88 C 0.51449 0.90148 0.20918 0.0
C89 C 0.49937 0.87573 0.2173 0.0
C90 C 0.53181 0.87443 0.26657 0.0
C91 C 0.54751 0.90007 0.25923 0.0
H92 H 0.48054 0.86692 0.20215 0.0
H93 H 0.53815 0.86417 0.29169 0.0
H94 H 0.49583 0.82418 0.15893 0.0
H95 H 0.5391 0.79406 0.21925 0.0
H96 H 0.43302 0.84737 0.41269 0.0
H97 H 0.50696 0.91152 0.18706 0.0
H98 H 0.56583 0.90894 0.27824 0.0
C99 C 0.7121 0.51097 0.77346 0.0
C100 C 0.72836 0.5202 0.72937 0.0
N101 N 0.71507 0.51133 0.68225 0.0
N102 N 0.68878 0.49634 0.75399 0.0
C103 C 0.69114 0.49703 0.69837 0.0
H104 H 0.71691 0.51483 0.81687 0.0
Co105 Co 0.66009 0.48078 0.79581 0.0
C106 C 0.62311 0.43492 0.72751 0.0
O107 O 0.60435 0.43032 0.76025 0.0
N108 N 0.63159 0.4659 0.84006 0.0
C109 C 0.60241 0.44186 0.9007 0.0
C110 C 0.62063 0.44345 0.86545 0.0
C111 C 0.62049 0.47792 0.86242 0.0
N112 N 0.60247 0.46366 0.89874 0.0
O113 O 0.67437 0.46361 0.83835 0.0
H114 H 0.62621 0.42953 0.86025 0.0
H115 H 0.62669 0.49741 0.85556 0.0
O116 O 0.64491 0.45355 0.73771 0.0
C117 C 0.68126 0.47313 0.88695 0.0
O118 O 0.67724 0.49135 0.90115 0.0
N119 N 0.6481 0.50001 0.7599 0.0
C120 C 0.62779 0.53115 0.74388 0.0
C121 C 0.61586 0.50675 0.72254 0.0
C122 C 0.62636 0.49146 0.73082 0.0
C123 C 0.66098 0.5243 0.77666 0.0
C124 C 0.65121 0.54017 0.76908 0.0
H125 H 0.61595 0.47243 0.71724 0.0
H126 H 0.67789 0.53079 0.80068 0.0
H127 H 0.67554 0.48778 0.67018 0.0
H128 H 0.7484 0.53219 0.73183 0.0
H129 H 0.59161 0.42676 0.92938 0.0
H130 H 0.59799 0.49913 0.70178 0.0
H131 H 0.66109 0.55873 0.78669 0.0
C132 C 0.19559 0.7208 0.25686 0.0
C133 C 0.20746 0.74035 0.22035 0.0
N134 N 0.22318 0.73631 0.18937 0.0
N135 N 0.203 0.70391 0.2475 0.0
C136 C 0.22098 0.71483 0.20854 0.0
H137 H 0.18232 0.71932 0.2877 0.0
Co138 Co 0.19154 0.6723 0.27991 0.0
C139 C 0.19856 0.66126 0.16115 0.0
O140 O 0.1867 0.67282 0.14456 0.0
N141 N 0.18054 0.64164 0.31255 0.0
C142 C 0.17178 0.60317 0.33261 0.0
C143 C 0.18783 0.62466 0.30449 0.0
C144 C 0.16051 0.6304 0.34604 0.0
N145 N 0.15444 0.60681 0.35827 0.0
O146 O 0.22391 0.68557 0.31755 0.0
H147 H 0.20358 0.62759 0.27948 0.0
H148 H 0.15029 0.63933 0.36013 0.0
O149 O 0.20244 0.6603 0.21335 0.0
C150 C 0.22153 0.69055 0.36817 0.0
O151 O 0.19927 0.68557 0.38483 0.0
N152 N 0.15867 0.65971 0.25095 0.0
C153 C 0.10633 0.63535 0.24336 0.0
C154 C 0.11997 0.62631 0.21463 0.0
C155 C 0.14605 0.63849 0.21967 0.0
C156 C 0.14551 0.66846 0.27931 0.0
C157 C 0.11959 0.65703 0.27515 0.0
H158 H 0.15556 0.62939 0.20257 0.0
H159 H 0.15462 0.68246 0.31082 0.0
H160 H 0.23147 0.70658 0.19218 0.0
H161 H 0.20423 0.75593 0.21588 0.0
H162 H 0.17323 0.58647 0.33514 0.0
H163 H 0.11051 0.60927 0.19065 0.0
H164 H 0.10992 0.66397 0.30056 0.0
C165 C 0.51483 0.21225 0.75835 0.0
C166 C 0.50548 0.21887 0.71368 0.0
N167 N 0.51352 0.21318 0.66689 0.0
N168 N 0.52872 0.20255 0.73959 0.0
C169 C 0.52748 0.20325 0.68385 0.0
H170 H 0.51144 0.21406 0.80165 0.0
Co171 Co 0.54382 0.1889 0.78173 0.0
C172 C 0.58998 0.19772 0.7144 0.0
O173 O 0.59501 0.18422 0.74823 0.0
N174 N 0.55828 0.17472 0.82608 0.0
C175 C 0.58233 0.16849 0.88488 0.0
C176 C 0.58051 0.18585 0.85254 0.0
C177 C 0.5465 0.15108 0.84544 0.0
N178 N 0.56086 0.14664 0.88005 0.0
O179 O 0.5613 0.2201 0.8249 0.0
H180 H 0.59432 0.20543 0.84928 0.0
H181 H 0.5272 0.1376 0.83715 0.0
O182 O 0.5711 0.20064 0.72387 0.0
C183 C 0.55148 0.21735 0.87324 0.0
O184 O 0.53261 0.19532 0.88614 0.0
N185 N 0.52444 0.15799 0.74521 0.0
C186 C 0.49366 0.10663 0.72961 0.0
C187 C 0.51795 0.11923 0.70761 0.0
C188 C 0.53308 0.14497 0.7157 0.0
C189 C 0.50015 0.14652 0.76205 0.0
C190 C 0.48444 0.12089 0.75475 0.0
H191 H 0.55213 0.15366 0.70204 0.0
H192 H 0.4936 0.15687 0.78617 0.0
H193 H 0.536 0.19585 0.65626 0.0
H194 H 0.49388 0.2274 0.71554 0.0
H195 H 0.59743 0.17209 0.91302 0.0
H196 H 0.52569 0.10909 0.68676 0.0
H197 H 0.46592 0.11211 0.77272 0.0
C198 C 0.54134 0.71737 0.75884 0.0
C199 C 0.55019 0.73988 0.78544 0.0
N200 N 0.53087 0.74003 0.81074 0.0
N201 N 0.51658 0.703 0.76855 0.0
C202 C 0.51072 0.71789 0.79821 0.0
H203 H 0.55278 0.71209 0.7353 0.0
Co204 Co 0.49341 0.66989 0.74893 0.0
C205 C 0.4846 0.66961 0.87185 0.0
O206 O 0.50886 0.68288 0.87938 0.0
N207 N 0.47034 0.63736 0.72961 0.0
C208 C 0.43959 0.598 0.73478 0.0
C209 C 0.44716 0.62228 0.74962 0.0
C210 C 0.47611 0.62212 0.70158 0.0
N211 N 0.45821 0.59802 0.7057 0.0
O212 O 0.47317 0.68236 0.71366 0.0
H213 H 0.43688 0.62831 0.77554 0.0
H214 H 0.49353 0.62859 0.6797 0.0
O215 O 0.47595 0.66386 0.8223 0.0
C216 C 0.47648 0.68371 0.66089 0.0
O217 O 0.48975 0.67444 0.63988 0.0
N218 N 0.51457 0.65792 0.77535 0.0
C219 C 0.54167 0.63261 0.78197 0.0
C220 C 0.52234 0.62746 0.81968 0.0
C221 C 0.50879 0.64008 0.81528 0.0
C222 C 0.53317 0.66285 0.7383 0.0
C223 C 0.54722 0.65091 0.74153 0.0
H224 H 0.49241 0.63378 0.84083 0.0
H225 H 0.53544 0.6742 0.7023 0.0
H226 H 0.49214 0.71185 0.81381 0.0
H227 H 0.56949 0.75458 0.78772 0.0
H228 H 0.42211 0.58163 0.74574 0.0
H229 H 0.51698 0.61304 0.85082 0.0
H230 H 0.56107 0.65468 0.70978 0.0
C231 C 0.82962 0.53734 0.26799 0.0
C232 C 0.81528 0.54453 0.29765 0.0
N233 N 0.79838 0.52473 0.32671 0.0
N234 N 0.82241 0.51329 0.27974 0.0
C235 C 0.80261 0.50595 0.31381 0.0
H236 H 0.84402 0.54917 0.23924 0.0
Co237 Co 0.83436 0.49289 0.25166 0.0
C238 C 0.82635 0.47674 0.37216 0.0
O239 O 0.83637 0.50015 0.38775 0.0
N240 N 0.8458 0.47275 0.22316 0.0
C241 C 0.85395 0.44221 0.20825 0.0
C242 C 0.83756 0.44838 0.23224 0.0
C243 C 0.86674 0.48085 0.19294 0.0
N244 N 0.87254 0.46283 0.18402 0.0
O245 O 0.80205 0.47278 0.21479 0.0
H246 H 0.82087 0.43597 0.25518 0.0
H247 H 0.87764 0.49984 0.17861 0.0
O248 O 0.82369 0.47149 0.32011 0.0
C249 C 0.80377 0.47787 0.16279 0.0
O250 O 0.82595 0.4935 0.14266 0.0
N251 N 0.86702 0.51408 0.28043 0.0
C252 C 0.91923 0.54299 0.28913 0.0
C253 C 0.90576 0.52124 0.32098 0.0
C254 C 0.87972 0.50687 0.31552 0.0
C255 C 0.88002 0.53509 0.24911 0.0
C256 C 0.90585 0.55003 0.25366 0.0
H257 H 0.87039 0.4889 0.33562 0.0
H258 H 0.87086 0.53874 0.21536 0.0
H259 H 0.79184 0.48726 0.33029 0.0
H260 H 0.81723 0.56293 0.29802 0.0
H261 H 0.85189 0.42379 0.20781 0.0
H262 H 0.91536 0.51473 0.34793 0.0
H263 H 0.91544 0.56584 0.226 0.0
C264 C 0.31213 0.83593 0.76165 0.0
C265 C 0.29159 0.82314 0.79522 0.0
N266 N 0.292 0.8032 0.81647 0.0
N267 N 0.32582 0.82439 0.76239 0.0
C268 C 0.31211 0.80373 0.79317 0.0
H269 H 0.3172 0.85342 0.74176 0.0
Co270 Co 0.35853 0.83418 0.73908 0.0
C271 C 0.36073 0.82591 0.86147 0.0
O272 O 0.34851 0.83792 0.87044 0.0
N273 N 0.39072 0.84341 0.71686 0.0
C274 C 0.42993 0.85136 0.71916 0.0
C275 C 0.40581 0.83505 0.73556 0.0
C276 C 0.40579 0.86421 0.68805 0.0
N277 N 0.42988 0.86999 0.69019 0.0
O278 O 0.3454 0.80157 0.70306 0.0
H279 H 0.39993 0.8188 0.76154 0.0
H280 H 0.39918 0.87524 0.66696 0.0
O281 O 0.36553 0.82257 0.81137 0.0
C282 C 0.3434 0.80415 0.65074 0.0
O283 O 0.35213 0.82689 0.63142 0.0
N284 N 0.37106 0.86722 0.76565 0.0
C285 C 0.39595 0.91949 0.77189 0.0
C286 C 0.40201 0.90552 0.80831 0.0
C287 C 0.3896 0.8794 0.80402 0.0
C288 C 0.36537 0.88066 0.7296 0.0
C289 C 0.37708 0.90658 0.7327 0.0
H290 H 0.39643 0.86943 0.82844 0.0
H291 H 0.3531 0.87134 0.69495 0.0
H292 H 0.31821 0.7905 0.80252 0.0
H293 H 0.27889 0.82957 0.80733 0.0
H294 H 0.44622 0.84984 0.72883 0.0
H295 H 0.41689 0.91472 0.83836 0.0
H296 H 0.37256 0.91648 0.70193 0.0
C297 C 0.49011 0.30155 0.25534 0.0
C298 C 0.48092 0.27876 0.281 0.0
N299 N 0.50003 0.27804 0.30585 0.0
N300 N 0.5149 0.3155 0.26522 0.0
C301 C 0.52041 0.30011 0.29401 0.0
H302 H 0.47886 0.30735 0.2327 0.0
Co303 Co 0.5387 0.34879 0.24836 0.0
C304 C 0.54522 0.34714 0.37181 0.0
O305 O 0.52084 0.33386 0.37726 0.0
N306 N 0.56255 0.38151 0.23216 0.0
C307 C 0.5946 0.42003 0.24088 0.0
C308 C 0.58577 0.39525 0.25315 0.0
C309 C 0.558 0.39807 0.20609 0.0
N310 N 0.57678 0.42172 0.21222 0.0
O311 O 0.5592 0.33643 0.21419 0.0
H312 H 0.59526 0.38792 0.27788 0.0
H313 H 0.54087 0.39285 0.18397 0.0
O314 O 0.5547 0.3535 0.32308 0.0
C315 C 0.55682 0.33597 0.16121 0.0
O316 O 0.5444 0.34611 0.13979 0.0
N317 N 0.51738 0.36069 0.27353 0.0
C318 C 0.48936 0.38497 0.28047 0.0
C319 C 0.50825 0.38989 0.31928 0.0
C320 C 0.52226 0.37775 0.31476 0.0
C321 C 0.49947 0.35628 0.23501 0.0
C322 C 0.48491 0.36765 0.23839 0.0
H323 H 0.53819 0.3837 0.34166 0.0
H324 H 0.4979 0.34549 0.19845 0.0
H325 H 0.53887 0.30582 0.30991 0.0
H326 H 0.4615 0.26431 0.28329 0.0
H327 H 0.61247 0.43554 0.25313 0.0
H328 H 0.51279 0.40366 0.35158 0.0
H329 H 0.47143 0.36417 0.20592 0.0
C330 C 0.20934 0.48874 0.76227 0.0
C331 C 0.22188 0.48047 0.79559 0.0
N332 N 0.23236 0.49689 0.83721 0.0
N333 N 0.21123 0.50978 0.78402 0.0
C334 C 0.22661 0.51486 0.8278 0.0
H335 H 0.19983 0.48007 0.72406 0.0
Co336 Co 0.19835 0.52897 0.75366 0.0
C337 C 0.20328 0.54649 0.87244 0.0
O338 O 0.19112 0.52302 0.88835 0.0
N339 N 0.18602 0.54768 0.72184 0.0
C340 C 0.17537 0.57609 0.70219 0.0
C341 C 0.19239 0.5717 0.72949 0.0
C342 C 0.16563 0.53799 0.68935 0.0
N343 N 0.15839 0.5547 0.67747 0.0
O344 O 0.23047 0.54911 0.71596 0.0
H345 H 0.2081 0.58503 0.75382 0.0
H346 H 0.15588 0.5187 0.67629 0.0
O347 O 0.20849 0.55163 0.82066 0.0
C348 C 0.22878 0.54274 0.66475 0.0
O349 O 0.20677 0.52593 0.64591 0.0
N350 N 0.16573 0.50757 0.78371 0.0
C351 C 0.11341 0.47857 0.79099 0.0
C352 C 0.12633 0.50231 0.81539 0.0
C353 C 0.15233 0.51661 0.81062 0.0
C354 C 0.15344 0.48411 0.76176 0.0
C355 C 0.12749 0.46927 0.76545 0.0
H356 H 0.16121 0.53582 0.82386 0.0
H357 H 0.16319 0.47763 0.73588 0.0
H358 H 0.23424 0.53171 0.8521 0.0
H359 H 0.22274 0.46352 0.79043 0.0
H360 H 0.17587 0.5938 0.69969 0.0
H361 H 0.11636 0.51042 0.83543 0.0
H362 H 0.11847 0.45145 0.74434 0.0
C363 C 0.71974 0.1849 0.26052 0.0
C364 C 0.74027 0.1978 0.29404 0.0
N365 N 0.74002 0.21796 0.31431 0.0
N366 N 0.70622 0.19662 0.26028 0.0
C367 C 0.72 0.21744 0.29046 0.0
H368 H 0.71453 0.16723 0.24146 0.0
Co369 Co 0.67354 0.18695 0.23693 0.0
C370 C 0.6715 0.1952 0.35934 0.0
O371 O 0.68375 0.18321 0.36821 0.0
N372 N 0.64137 0.17783 0.21469 0.0
C373 C 0.60208 0.16958 0.21796 0.0
C374 C 0.62622 0.186 0.23399 0.0
C375 C 0.6263 0.15709 0.18575 0.0
N376 N 0.60215 0.1511 0.18847 0.0
O377 O 0.68677 0.21964 0.20108 0.0
H378 H 0.63206 0.20212 0.26032 0.0
H379 H 0.633 0.14621 0.16443 0.0
O380 O 0.66661 0.19852 0.30927 0.0
C381 C 0.68873 0.21731 0.14866 0.0
O382 O 0.67981 0.19466 0.12874 0.0
N383 N 0.6609 0.15386 0.26345 0.0
C384 C 0.63595 0.10158 0.27015 0.0
C385 C 0.62993 0.11562 0.30639 0.0
C386 C 0.64238 0.14173 0.30189 0.0
C387 C 0.66654 0.14035 0.22751 0.0
C388 C 0.65479 0.11443 0.23084 0.0
H389 H 0.63561 0.15175 0.32626 0.0
H390 H 0.67887 0.14965 0.19291 0.0
H391 H 0.71398 0.23079 0.29907 0.0
H392 H 0.75285 0.19131 0.30684 0.0
H393 H 0.58578 0.17094 0.22842 0.0
H394 H 0.61507 0.10647 0.33653 0.0
H395 H 0.6593 0.10447 0.20023 0.0
H396 H 0.38342 0.56482 0.1203 0.0
H397 H 0.49367 0.68784 0.9771 0.0
H398 H 0.4401 0.62884 0.20781 0.0
H399 H 0.43871 0.62613 0.88069 0.0
H400 H 0.47051 0.6677 0.06118 0.0
H401 H 0.39922 0.58781 0.03208 0.0
C402 C 0.3987 0.58388 0.12116 0.0
C403 C 0.41047 0.5949 0.17162 0.0
C404 C 0.46324 0.65853 0.02176 0.0
C405 C 0.42888 0.62116 0.071 0.0
C406 C 0.47652 0.67012 0.97351 0.0
C407 C 0.46824 0.65871 0.92154 0.0
C408 C 0.44149 0.63499 1.01879 0.0
C409 C 0.44575 0.63572 0.91976 0.0
C410 C 0.40789 0.59693 0.07075 0.0
C411 C 0.4305 0.61952 0.17001 0.0
N412 N 0.43332 0.62446 0.96769 0.0
N413 N 0.43909 0.63163 0.12089 0.0
H414 H 0.82474 0.4023 0.68173 0.0
H415 H 0.81777 0.42881 0.35659 0.0
H416 H 0.83016 0.35817 0.54978 0.0
H417 H 0.82609 0.48072 0.48561 0.0
H418 H 0.81611 0.3997 0.42777 0.0
H419 H 0.81913 0.42812 0.61178 0.0
C420 C 0.82439 0.39779 0.63822 0.0
C421 C 0.82807 0.37805 0.62181 0.0
C422 C 0.8181 0.41739 0.44058 0.0
C423 C 0.82173 0.40761 0.54128 0.0
C424 C 0.81891 0.43401 0.39981 0.0
C425 C 0.8222 0.45742 0.41478 0.0
C426 C 0.82044 0.42404 0.49706 0.0
C427 C 0.82368 0.46299 0.47182 0.0
C428 C 0.82134 0.41264 0.59821 0.0
C429 C 0.82761 0.37327 0.56458 0.0
N430 N 0.82289 0.44655 0.51067 0.0
N431 N 0.82459 0.38791 0.52664 0.0
H432 H 0.39423 0.81028 0.20021 0.0
H433 H 0.40181 0.81911 0.86765 0.0
H434 H 0.45864 0.81968 0.11032 0.0
H435 H 0.34307 0.81747 0.96728 0.0
H436 H 0.42053 0.81314 0.95256 0.0
H437 H 0.37279 0.80593 0.11267 0.0
C438 C 0.40374 0.81099 0.16189 0.0
C439 C 0.42833 0.81539 0.16284 0.0
C440 C 0.40338 0.81378 0.95561 0.0
C441 C 0.40391 0.81105 0.06124 0.0
C442 C 0.3926 0.81704 0.9071 0.0
C443 C 0.37085 0.81892 0.91023 0.0
C444 C 0.3922 0.81216 1.00753 0.0
C445 C 0.35992 0.81636 0.96268 0.0
C446 C 0.3915 0.80865 0.11168 0.0
C447 C 0.43964 0.81611 0.11167 0.0
N448 N 0.3707 0.81323 1.00888 0.0
N449 N 0.42748 0.81432 0.06288 0.0
H450 H 0.53348 0.32923 0.47732 0.0
H451 H 0.64643 0.44888 0.62433 0.0
H452 H 0.592 0.38921 0.38331 0.0
H453 H 0.58532 0.38773 0.71004 0.0
H454 H 0.63054 0.42608 0.5362 0.0
H455 H 0.55568 0.34884 0.56269 0.0
C456 C 0.55119 0.34645 0.47453 0.0
C457 C 0.56076 0.35756 0.4228 0.0
C458 C 0.62084 0.41755 0.57448 0.0
C459 C 0.58643 0.38062 0.5215 0.0
C460 C 0.63003 0.43051 0.6249 0.0
C461 C 0.61714 0.42032 0.67485 0.0
C462 C 0.5987 0.3942 0.57411 0.0
C463 C 0.5958 0.39649 0.67271 0.0
C464 C 0.56391 0.35773 0.52353 0.0
C465 C 0.58393 0.37987 0.42214 0.0
N466 N 0.58726 0.38444 0.62352 0.0
N467 N 0.59583 0.39082 0.47071 0.0
H468 H 0.2022 0.66796 0.04869 0.0
H469 H 0.20579 0.54301 0.98494 0.0
H470 H 0.20857 0.62272 0.17677 0.0
H471 H 0.21182 0.59454 0.85708 0.0
H472 H 0.20861 0.57272 0.05533 0.0
H473 H 0.20744 0.64245 0.97845 0.0
C474 C 0.20493 0.65278 0.06219 0.0
C475 C 0.20482 0.64749 0.11904 0.0
C476 C 0.20959 0.57772 1.01196 0.0
C477 C 0.2106 0.61781 0.03807 0.0
C478 C 0.20798 0.56072 0.97155 0.0
C479 C 0.20848 0.56617 0.9147 0.0
C480 C 0.2114 0.60039 0.99584 0.0
C481 C 0.21145 0.58951 0.90022 0.0
C482 C 0.20795 0.63819 0.02187 0.0
C483 C 0.20858 0.6276 0.13365 0.0
N484 N 0.2125 0.6056 0.94042 0.0
N485 N 0.21103 0.61336 0.09352 0.0
H486 H 0.63028 0.20175 0.36583 0.0
H487 H 0.63829 0.21064 0.69831 0.0
H488 H 0.68938 0.20381 0.46496 0.0
H489 H 0.57373 0.20112 0.60875 0.0
H490 H 0.65963 0.215 0.61065 0.0
H491 H 0.61161 0.20763 0.45087 0.0
C492 C 0.63958 0.20389 0.4052 0.0
C493 C 0.66141 0.20216 0.40816 0.0
C494 C 0.6409 0.21224 0.60977 0.0
C495 C 0.64011 0.20879 0.50561 0.0
C496 C 0.62871 0.20988 0.66005 0.0
C497 C 0.60411 0.20544 0.66112 0.0
C498 C 0.62844 0.20983 0.55939 0.0
C499 C 0.59273 0.2047 0.61001 0.0
C500 C 0.62883 0.20709 0.45379 0.0
C501 C 0.67246 0.20481 0.4605 0.0
N502 N 0.60485 0.20651 0.56116 0.0
N503 N 0.66169 0.20787 0.5068 0.0
H504 H 0.61825 0.46549 0.18555 0.0
H505 H 0.62476 0.50873 0.95012 0.0
H506 H 0.53785 0.42867 0.18511 0.0
H507 H 0.55611 0.43839 0.94204 0.0
H508 H 0.61331 0.51565 0.04258 0.0
H509 H 0.61945 0.4939 0.11519 0.0
C510 C 0.60081 0.46386 0.17199 0.0
C511 C 0.57789 0.4435 0.18791 0.0
C512 C 0.60031 0.49913 0.01978 0.0
C513 C 0.579 0.4756 0.10608 0.0
C514 C 0.60677 0.49519 0.96684 0.0
C515 C 0.59186 0.47226 0.94008 0.0
C516 C 0.57927 0.47969 0.04582 0.0
C517 C 0.56857 0.45573 0.96287 0.0
C518 C 0.60143 0.48034 0.13176 0.0
C519 C 0.55594 0.44298 0.17049 0.0
N520 N 0.56323 0.45943 1.01531 0.0
N521 N 0.55695 0.45813 0.12864 0.0
H522 H 0.13301 0.55634 0.36539 0.0
H523 H 0.13482 0.58187 0.672 0.0
H524 H 0.13183 0.61932 0.43916 0.0
H525 H 0.13587 0.51882 0.59828 0.0
H526 H 0.11209 0.58392 0.59143 0.0
H527 H 0.11233 0.53178 0.44767 0.0
C528 C 0.12806 0.56491 0.39844 0.0
C529 C 0.13576 0.5904 0.39706 0.0
C530 C 0.11669 0.56918 0.59354 0.0
C531 C 0.11241 0.56262 0.4913 0.0
C532 C 0.12995 0.56821 0.63934 0.0
C533 C 0.1388 0.55129 0.64008 0.0
C534 C 0.11313 0.55366 0.54776 0.0
C535 C 0.13054 0.53301 0.59846 0.0
C536 C 0.11597 0.5508 0.44523 0.0
C537 C 0.1274 0.60008 0.43934 0.0
N538 N 0.11885 0.53518 0.55303 0.0
N539 N 0.11689 0.5864 0.48563 0.0
H540 H 0.59952 0.10821 0.15032 0.0
H541 H 0.51678 0.12261 0.93433 0.0
H542 H 0.55621 0.14518 0.16576 0.0
H543 H 0.58614 0.12334 0.90961 0.0
H544 H 0.51062 0.09983 0.02112 0.0
H545 H 0.57273 0.08359 0.07395 0.0
C546 C 0.58412 0.11088 0.13854 0.0
C547 C 0.58153 0.13048 0.16082 0.0
C548 C 0.52651 0.10377 0.99523 0.0
C549 C 0.55044 0.10173 0.07538 0.0
C550 C 0.53012 0.11688 0.94586 0.0
C551 C 0.55263 0.1258 0.91674 0.0
C552 C 0.54577 0.10011 1.0153 0.0
C553 C 0.56909 0.11762 0.93266 0.0
C554 C 0.56849 0.09635 0.09575 0.0
C555 C 0.55995 0.13145 0.14739 0.0
N556 N 0.56566 0.10569 0.98182 0.0
N557 N 0.5456 0.1178 0.10418 0.0
H558 H 0.49899 0.59374 0.68207 0.0
H559 H 0.47939 0.58431 0.42705 0.0
H560 H 0.41865 0.55435 0.67134 0.0
H561 H 0.41264 0.51306 0.44696 0.0
H562 H 0.49398 0.57886 0.51671 0.0
H563 H 0.50033 0.56787 0.607 0.0
C564 C 0.48159 0.57927 0.66471 0.0
C565 C 0.45872 0.57742 0.67953 0.0
C566 C 0.47667 0.5637 0.50073 0.0
C567 C 0.46021 0.54808 0.59452 0.0
C568 C 0.4683 0.56705 0.44956 0.0
C569 C 0.44435 0.54974 0.43127 0.0
C570 C 0.46024 0.54355 0.53459 0.0
C571 C 0.43091 0.52731 0.46076 0.0
C572 C 0.48239 0.56438 0.62234 0.0
C573 C 0.43674 0.55726 0.65901 0.0
N574 N 0.43856 0.52528 0.51227 0.0
N575 N 0.43804 0.54379 0.61611 0.0
H576 H 0.9044 0.50171 0.11697 0.0
H577 H 0.90121 0.39781 0.94114 0.0
H578 H 0.88829 0.42883 0.17357 0.0
H579 H 0.90141 0.46378 0.88147 0.0
H580 H 0.92109 0.41964 0.02596 0.0
H581 H 0.92755 0.49836 0.03994 0.0
C582 C 0.90592 0.4851 0.11421 0.0
C583 C 0.89244 0.46454 0.14961 0.0
C584 C 0.91747 0.42961 0.99362 0.0
C585 C 0.91904 0.46078 0.06074 0.0
C586 C 0.90596 0.4171 0.9449 0.0
C587 C 0.89802 0.42845 0.90552 0.0
C588 C 0.92039 0.45328 1.00337 0.0
C589 C 0.90568 0.45377 0.91238 0.0
C590 C 0.91948 0.48336 0.07007 0.0
C591 C 0.89669 0.44435 0.145 0.0
N592 N 0.91576 0.46515 0.96131 0.0
N593 N 0.90896 0.44259 0.10014 0.0
H594 H 0.44218 0.89456 0.40836 0.0
H595 H 0.4337 0.91407 0.65746 0.0
H596 H 0.51384 0.90029 0.43301 0.0
H597 H 0.47417 0.87392 0.65999 0.0
H598 H 0.4594 0.93885 0.57959 0.0
H599 H 0.44825 0.91837 0.49271 0.0
C600 C 0.45963 0.90173 0.43072 0.0
C601 C 0.47694 0.89452 0.41573 0.0
C602 C 0.46311 0.92511 0.59838 0.0
C603 C 0.48381 0.92086 0.51327 0.0
C604 C 0.44825 0.91071 0.64233 0.0
C605 C 0.45035 0.89037 0.66172 0.0
C606 C 0.47962 0.9186 0.57363 0.0
C607 C 0.47084 0.88835 0.64404 0.0
C608 C 0.46335 0.91562 0.47877 0.0
C609 C 0.49962 0.90478 0.44464 0.0
N610 N 0.48426 0.90178 0.59963 0.0
N611 N 0.50202 0.91662 0.49355 0.0
H612 H 0.26403 0.47845 0.8463 0.0
H613 H 0.33179 0.50029 0.09569 0.0
H614 H 0.22626 0.50902 0.94056 0.0
H615 H 0.26486 0.49196 0.17185 0.0
H616 H 0.31256 0.49558 1.0043 0.0
H617 H 0.28382 0.4754 0.93255 0.0
C618 C 0.26001 0.48453 0.88512 0.0
C619 C 0.24394 0.49442 0.88651 0.0
C620 C 0.30189 0.49417 0.04109 0.0
C621 C 0.26621 0.4911 0.98427 0.0
C622 C 0.31296 0.49718 0.09317 0.0
C623 C 0.29993 0.49664 0.14137 0.0
C624 C 0.27774 0.49083 0.03751 0.0
C625 C 0.2755 0.4923 0.13591 0.0
C626 C 0.27139 0.483 0.93405 0.0
C627 C 0.23902 0.50186 0.93764 0.0
N628 N 0.26536 0.48993 0.08488 0.0
N629 N 0.25004 0.49996 0.98444 0.0
H630 H 0.76829 0.2852 0.63749 0.0
H631 H 0.78394 0.22516 0.35692 0.0
H632 H 0.8235 0.26264 0.61588 0.0
H633 H 0.72413 0.24072 0.38768 0.0
H634 H 0.80057 0.24133 0.44922 0.0
H635 H 0.75276 0.27023 0.5441 0.0
C636 C 0.777 0.2769 0.61319 0.0
C637 C 0.7972 0.27516 0.63441 0.0
C638 C 0.78388 0.24131 0.43539 0.0
C639 C 0.77977 0.25823 0.52731 0.0
C640 C 0.77441 0.23215 0.38263 0.0
C641 C 0.75244 0.23129 0.36418 0.0
C642 C 0.77132 0.24975 0.46991 0.0
C643 C 0.74116 0.24102 0.39923 0.0
C644 C 0.76818 0.2684 0.55986 0.0
C645 C 0.80769 0.26405 0.60138 0.0
N646 N 0.75062 0.24964 0.45039 0.0
N647 N 0.79896 0.25614 0.54927 0.0
H648 H 0.55928 0.80622 0.13052 0.0
H649 H 0.49495 0.75089 0.83906 0.0
H650 H 0.48837 0.79793 0.0815 0.0
H651 H 0.56918 0.76657 0.88175 0.0
H652 H 0.494 0.77229 0.9235 0.0
H653 H 0.56494 0.79532 0.03633 0.0
C654 C 0.54493 0.80216 0.0999 0.0
C655 C 0.52322 0.80274 0.11402 0.0
C656 C 0.51067 0.7714 0.91396 0.0
C657 C 0.52958 0.79039 1.00608 0.0
C658 C 0.51118 0.75918 0.86581 0.0
C659 C 0.53203 0.75669 0.85373 0.0
C660 C 0.53107 0.78097 0.95056 0.0
C661 C 0.55274 0.76809 0.88931 0.0
C662 C 0.54825 0.79613 0.04601 0.0
C663 C 0.50544 0.79781 0.0724 0.0
N664 N 0.55159 0.7794 0.93656 0.0
N665 N 0.50889 0.79158 0.02047 0.0
H666 H 0.75584 0.55228 0.64214 0.0
H667 H 0.75398 0.4858 0.35893 0.0
H668 H 0.6958 0.47964 0.59519 0.0
H669 H 0.80636 0.56308 0.39386 0.0
H670 H 0.73054 0.48402 0.44215 0.0
H671 H 0.77327 0.55753 0.54887 0.0
C672 C 0.74631 0.53748 0.6121 0.0
C673 C 0.72451 0.51541 0.62649 0.0
C674 C 0.74696 0.50148 0.43118 0.0
C675 C 0.74421 0.52125 0.51978 0.0
C676 C 0.76036 0.50246 0.38382 0.0
C677 C 0.78227 0.52453 0.3699 0.0
C678 C 0.75575 0.52265 0.46517 0.0
C679 C 0.78953 0.54571 0.40297 0.0
C680 C 0.75613 0.54054 0.55876 0.0
C681 C 0.7126 0.49699 0.58573 0.0
N682 N 0.7765 0.54416 0.44956 0.0
N683 N 0.72277 0.5002 0.53437 0.0
H684 H 0.26504 0.74018 0.14402 0.0
H685 H 0.24781 0.79572 0.85787 0.0
H686 H 0.20727 0.75881 0.11642 0.0
H687 H 0.30827 0.78148 0.89179 0.0
H688 H 0.23125 0.7803 0.95064 0.0
H689 H 0.28072 0.75467 0.05043 0.0
C690 C 0.25581 0.74754 0.11839 0.0
C691 C 0.23483 0.74827 0.138 0.0
C692 C 0.24807 0.78044 0.93743 0.0
C693 C 0.25242 0.76464 0.03066 0.0
C694 C 0.25749 0.78918 0.8844 0.0
C695 C 0.27963 0.79019 0.8667 0.0
C696 C 0.26086 0.77263 0.973 0.0
C697 C 0.29113 0.78104 0.9028 0.0
C698 C 0.2647 0.75574 0.06493 0.0
C699 C 0.22368 0.75819 0.10326 0.0
N700 N 0.28171 0.77286 0.95422 0.0
N701 N 0.23251 0.76583 0.0511 0.0
H702 H 0.47301 0.21451 0.62789 0.0
H703 H 0.53516 0.26588 0.33276 0.0
H704 H 0.54304 0.22115 0.57714 0.0
H705 H 0.46194 0.25242 0.37799 0.0
H706 H 0.5362 0.24475 0.41766 0.0
H707 H 0.46664 0.22433 0.53321 0.0
C708 C 0.48702 0.21799 0.5968 0.0
C709 C 0.50871 0.21729 0.61057 0.0
C710 C 0.51971 0.24603 0.40858 0.0
C711 C 0.50151 0.22837 0.50204 0.0
C712 C 0.51913 0.25808 0.36014 0.0
C713 C 0.49859 0.26116 0.34868 0.0
C714 C 0.49969 0.23727 0.4461 0.0
C715 C 0.47814 0.25043 0.38508 0.0
C716 C 0.48329 0.22339 0.54263 0.0
C717 C 0.52601 0.22142 0.56835 0.0
N718 N 0.47938 0.23931 0.43263 0.0
N719 N 0.52216 0.22704 0.51613 0.0
H720 H 0.67732 0.47225 0.99917 0.0
H721 H 0.8028 0.46919 0.05203 0.0
H722 H 0.71608 0.45793 0.8685 0.0
H723 H 0.75532 0.46717 0.18521 0.0
H724 H 0.77017 0.46224 0.98527 0.0
H725 H 0.70388 0.46762 0.06773 0.0
C726 C 0.69119 0.46769 0.98489 0.0
C727 C 0.6944 0.46546 0.92777 0.0
C728 C 0.76662 0.46289 0.02906 0.0
C729 C 0.72554 0.46067 1.00675 0.0
C730 C 0.78527 0.46682 0.06741 0.0
C731 C 0.78187 0.46876 0.12457 0.0
C732 C 0.74432 0.46131 0.04747 0.0
C733 C 0.75874 0.4656 0.14175 0.0
C734 C 0.70641 0.46508 0.02424 0.0
C735 C 0.71274 0.45958 0.91198 0.0
N736 N 0.74105 0.46243 0.10337 0.0
N737 N 0.72785 0.45779 0.95112 0.0
H738 H 0.21866 0.68449 0.48 0.0
H739 H 0.3517 0.80361 0.54013 0.0
H740 H 0.27196 0.72448 0.35057 0.0
H741 H 0.30264 0.75701 0.66995 0.0
H742 H 0.32466 0.77313 0.47116 0.0
H743 H 0.25034 0.70856 0.54958 0.0
C744 C 0.23721 0.69813 0.46609 0.0
C745 C 0.24254 0.70242 0.40902 0.0
C746 C 0.31992 0.76927 0.51467 0.0
C747 C 0.27917 0.73067 0.48948 0.0
C748 C 0.33543 0.78668 0.55432 0.0
C749 C 0.32954 0.78295 0.61124 0.0
C750 C 0.29788 0.7479 0.53149 0.0
C751 C 0.30812 0.76064 0.62677 0.0
C752 C 0.25534 0.71193 0.5061 0.0
C753 C 0.26698 0.72036 0.3939 0.0
N754 N 0.29293 0.74418 0.58716 0.0
N755 N 0.28424 0.73404 0.4338 0.0
H756 H 0.56054 0.29385 0.1825 0.0
H757 H 0.57269 0.26859 0.85806 0.0
H758 H 0.56879 0.34498 0.05167 0.0
H759 H 0.54839 0.21226 0.98538 0.0
H760 H 0.57945 0.29968 0.93017 0.0
H761 H 0.5644 0.26677 0.11297 0.0
C762 C 0.56382 0.29972 0.13949 0.0
C763 C 0.56433 0.32176 0.12308 0.0
C764 C 0.57295 0.28055 0.94233 0.0
C765 C 0.56843 0.29067 0.04285 0.0
C766 C 0.56928 0.26285 0.90113 0.0
C767 C 0.55983 0.2377 0.91547 0.0
C768 C 0.56743 0.27314 0.99839 0.0
C769 C 0.55549 0.23136 0.97216 0.0
C770 C 0.56576 0.28413 0.0996 0.0
C771 C 0.56819 0.32813 0.06634 0.0
N772 N 0.5592 0.2488 1.01121 0.0
N773 N 0.56994 0.31269 0.02848 0.0
H774 H 0.35604 0.5492 0.50318 0.0
H775 H 0.22892 0.54942 0.55332 0.0
H776 H 0.3153 0.55948 0.37046 0.0
H777 H 0.27776 0.55516 0.68713 0.0
H778 H 0.26141 0.55598 0.48656 0.0
H779 H 0.32937 0.5542 0.57074 0.0
C780 C 0.34171 0.55295 0.48818 0.0
C781 C 0.33799 0.55394 0.43081 0.0
C782 C 0.26529 0.55624 0.53045 0.0
C783 C 0.30673 0.55915 0.5087 0.0
C784 C 0.24672 0.55254 0.56879 0.0
C785 C 0.25055 0.55178 0.62617 0.0
C786 C 0.28795 0.55874 0.54912 0.0
C787 C 0.274 0.55584 0.64348 0.0
C788 C 0.32642 0.55577 0.52697 0.0
C789 C 0.31904 0.5588 0.41412 0.0
N790 N 0.29162 0.55875 0.60516 0.0
N791 N 0.30391 0.56084 0.45278 0.0
H792 H 0.6805 0.21874 0.03824 0.0
H793 H 0.81472 0.33635 0.97992 0.0
H794 H 0.72996 0.26398 0.1689 0.0
H795 H 0.76073 0.29876 0.85028 0.0
H796 H 0.78292 0.31225 0.0493 0.0
H797 H 0.70786 0.24947 0.96994 0.0
C798 C 0.69692 0.23544 0.05276 0.0
C799 C 0.70283 0.23871 0.1097 0.0
C800 C 0.7778 0.30942 1.00584 0.0
C801 C 0.73485 0.27402 0.03073 0.0
C802 C 0.796 0.32324 0.96595 0.0
C803 C 0.79051 0.31963 0.90886 0.0
C804 C 0.75373 0.29133 0.98904 0.0
C805 C 0.76585 0.30235 0.89365 0.0
C806 C 0.71262 0.25299 1.0135 0.0
C807 C 0.72446 0.26072 0.12569 0.0
N808 N 0.74851 0.28862 0.93339 0.0
N809 N 0.73982 0.2773 0.08644 0.0
H810 H 0.46063 0.75202 0.35873 0.0
H811 H 0.47089 0.72471 0.68298 0.0
H812 H 0.48245 0.80716 0.48796 0.0
H813 H 0.466 0.67565 0.55058 0.0
H814 H 0.46669 0.75181 0.61393 0.0
H815 H 0.45426 0.72065 0.42993 0.0
C816 C 0.46356 0.75742 0.40203 0.0
C817 C 0.47219 0.78233 0.41719 0.0
C818 C 0.46614 0.73489 0.6001 0.0
C819 C 0.46505 0.74658 0.49908 0.0
C820 C 0.46828 0.71928 0.63969 0.0
C821 C 0.46882 0.69782 0.62274 0.0
C822 C 0.4643 0.72895 0.54309 0.0
C823 C 0.46579 0.69203 0.56569 0.0
C824 C 0.46012 0.73957 0.44271 0.0
C825 C 0.47597 0.78825 0.47413 0.0
N826 N 0.4638 0.70746 0.52814 0.0
N827 N 0.47249 0.77067 0.51268 0.0
H828 H 0.45235 0.50299 0.25934 0.0
H829 H 0.43952 0.36739 0.26232 0.0
H830 H 0.38236 0.43458 0.23803 0.0
H831 H 0.50849 0.43533 0.29549 0.0
H832 H 0.41839 0.3917 0.25211 0.0
H833 H 0.47346 0.47869 0.26921 0.0
C834 C 0.44144 0.48287 0.25587 0.0
C835 C 0.41548 0.47087 0.24759 0.0
C836 C 0.43812 0.40131 0.26193 0.0
C837 C 0.43959 0.44281 0.26009 0.0
C838 C 0.4502 0.38743 0.26778 0.0
C839 C 0.47583 0.3993 0.27991 0.0
C840 C 0.45174 0.42737 0.26784 0.0
C841 C 0.48866 0.42533 0.28689 0.0
C842 C 0.4535 0.46898 0.26217 0.0
C843 C 0.40233 0.44468 0.24478 0.0
N844 N 0.47652 0.43848 0.28045 0.0
N845 N 0.41451 0.43157 0.25103 0.0
H846 H 0.08098 0.42781 0.7961 0.0
H847 H 0.9577 0.43741 0.74947 0.0
H848 H 0.0821 0.49767 0.77415 0.0
H849 H 0.95886 0.3683 0.73832 0.0
H850 H 1.00291 0.45975 0.76215 0.0
H851 H 0.03587 0.40564 0.78071 0.0
C852 C 0.0718 0.43854 0.7882 0.0
C853 C 0.08556 0.46475 0.78659 0.0
C854 C 0.99329 0.43971 0.75661 0.0
C855 C 0.03365 0.43933 0.76912 0.0
C856 C 0.96742 0.42691 0.74875 0.0
C857 C 0.95424 0.40082 0.74262 0.0
C858 C 1.00623 0.4264 0.75882 0.0
C859 C 0.96804 0.38833 0.74355 0.0
C860 C 0.04599 0.42583 0.77943 0.0
C861 C 0.07239 0.47753 0.77686 0.0
N862 N 0.99318 0.40119 0.75177 0.0
N863 N 0.04727 0.46472 0.76848 0.0
H864 H 0.58521 0.07081 0.28087 0.0
H865 H 0.58931 0.9452 0.22079 0.0
H866 H 0.65332 0.06883 0.25549 0.0
H867 H 0.5212 0.94682 0.24971 0.0
H868 H 0.613 0.9905 0.23248 0.0
H869 H 0.56146 0.02541 0.27073 0.0
C870 C 0.59523 0.06083 0.27399 0.0
C871 C 0.62137 0.07375 0.26915 0.0
C872 C 0.59285 0.98097 0.23602 0.0
C873 C 0.59416 0.02167 0.25629 0.0
C874 C 0.57929 0.95505 0.22937 0.0
C875 C 0.55315 0.94205 0.23409 0.0
C876 C 0.58026 0.99412 0.2477 0.0
C877 C 0.54126 0.95598 0.24476 0.0
C878 C 0.58161 0.03489 0.26762 0.0
C879 C 0.63321 0.05975 0.25902 0.0
N880 N 0.55488 0.98117 0.25138 0.0
N881 N 0.61955 0.03455 0.25283 0.0
H882 H 0.52097 0.58192 0.79537 0.0
H883 H 0.64814 0.58177 0.72807 0.0
H884 H 0.59128 0.64863 0.76338 0.0
H885 H 0.57831 0.51512 0.76412 0.0
H886 H 0.62747 0.60645 0.73943 0.0
H887 H 0.5416 0.55715 0.78469 0.0
C888 C 0.54082 0.59143 0.78695 0.0
C889 C 0.5544 0.61747 0.78051 0.0
C890 C 0.61663 0.58641 0.74461 0.0
C891 C 0.5781 0.58907 0.76698 0.0
C892 C 0.62844 0.57228 0.73815 0.0
C893 C 0.61501 0.54625 0.74505 0.0
C894 C 0.59113 0.57452 0.75827 0.0
C895 C 0.58941 0.53505 0.75753 0.0
C896 C 0.55256 0.57722 0.78026 0.0
C897 C 0.58 0.62862 0.76829 0.0
N898 N 0.57837 0.54922 0.76394 0.0
N899 N 0.59097 0.61439 0.76186 0.0
H900 H 0.07529 0.58455 0.25172 0.0
H901 H 0.95084 0.59363 0.28459 0.0
H902 H 0.07379 0.6535 0.24252 0.0
H903 H 0.95116 0.52402 0.28815 0.0
H904 H 0.99605 0.61582 0.27135 0.0
H905 H 0.02999 0.56195 0.26473 0.0
C906 C 0.06543 0.59494 0.25155 0.0
C907 C 0.07848 0.62104 0.24585 0.0
C908 C 0.98629 0.5957 0.27529 0.0
C909 C 0.02652 0.59523 0.26207 0.0
C910 C 0.96043 0.583 0.2829 0.0
C911 C 0.94708 0.55687 0.28751 0.0
C912 C 0.99906 0.58226 0.27206 0.0
C913 C 0.96064 0.54417 0.28556 0.0
C914 C 0.03955 0.58201 0.25961 0.0
C915 C 0.06463 0.63344 0.24725 0.0
N916 N 0.98582 0.55695 0.27772 0.0
N917 N 0.0395 0.62047 0.25533 0.0
H918 H 0.4467 0.95021 0.78241 0.0
H919 H 0.44297 0.07556 0.71622 0.0
H920 H 0.37865 0.95226 0.75636 0.0
H921 H 0.51084 0.07411 0.75008 0.0
H922 H 0.41919 0.03033 0.72916 0.0
H923 H 0.47052 0.99555 0.77118 0.0
C924 C 0.43671 0.9602 0.77518 0.0
C925 C 0.41057 0.94731 0.77045 0.0
C926 C 0.4393 0.03989 0.73351 0.0
C927 C 0.43786 0.99932 0.75628 0.0
C928 C 0.45291 0.06576 0.72613 0.0
C929 C 0.47902 0.0788 0.73186 0.0
C930 C 0.45181 0.02681 0.7469 0.0
C931 C 0.49082 0.06493 0.74426 0.0
C932 C 0.45037 0.9861 0.76818 0.0
C933 C 0.39877 0.96132 0.75981 0.0
N934 N 0.47715 0.03978 0.75151 0.0
N935 N 0.41246 0.98648 0.75296 0.0
loop_
_geom_bond_atom_site_label_1
_geom_bond_atom_site_label_2
_geom_bond_distance
_geom_bond_site_symmetry_2
_ccdc_geom_bond_type
C0 C1 1.351 . S
C0 N3 1.368 . S
C0 H5 0.931 . S
C1 C0 1.351 . S
C1 N2 1.373 . S
C1 H29 0.930 . S
N2 C1 1.373 . S
N2 C4 1.340 . S
N3 C0 1.368 . S
N3 C4 1.321 . S
N3 Co6 2.135 . S
C4 N2 1.340 . S
C4 N3 1.321 . S
C4 H28 0.930 . S
H5 C0 0.931 . S
Co6 N3 2.135 . S
Co6 N9 2.121 . S
Co6 O14 2.055 . S
Co6 O17 2.039 . S
Co6 N20 2.140 . S
C7 O8 1.227 . S
C7 O17 1.265 . S
O8 C7 1.227 . S
N9 Co6 2.121 . S
N9 C11 1.375 . S
N9 C12 1.313 . S
C10 C11 1.338 . S
C10 N13 1.377 . S
C10 H30 0.930 . S
C11 N9 1.375 . S
C11 C10 1.338 . S
C11 H15 0.931 . S
C12 N9 1.313 . S
C12 N13 1.344 . S
C12 H16 0.930 . S
N13 C10 1.377 . S
N13 C12 1.344 . S
O14 Co6 2.055 . S
O14 C18 1.253 . S
H15 C11 0.931 . S
H16 C12 0.930 . S
O17 Co6 2.039 . S
O17 C7 1.265 . S
C18 O14 1.253 . S
C18 O19 1.227 . S
O19 C18 1.227 . S
N20 Co6 2.140 . S
N20 C23 1.346 . S
N20 C24 1.345 . S
C21 C22 1.387 . S
C21 C25 1.391 . S
C22 C21 1.387 . S
C22 C23 1.369 . S
C22 H31 0.929 . S
C23 N20 1.346 . S
C23 C22 1.369 . S
C23 H26 0.928 . S
C24 N20 1.345 . S
C24 C25 1.371 . S
C24 H27 0.931 . S
C25 C21 1.391 . S
C25 C24 1.371 . S
C25 H32 0.930 . S
H26 C23 0.928 . S
H27 C24 0.931 . S
H28 C4 0.930 . S
H29 C1 0.930 . S
H30 C10 0.930 . S
H31 C22 0.929 . S
H32 C25 0.930 . S
C33 C34 1.351 . S
C33 N36 1.368 . S
C33 H38 0.931 . S
C34 C33 1.351 . S
C34 N35 1.373 . S
C34 H62 0.930 . S
N35 C34 1.373 . S
N35 C37 1.340 . S
N36 C33 1.368 . S
N36 C37 1.321 . S
N36 Co39 2.135 . S
C37 N35 1.340 . S
C37 N36 1.321 . S
C37 H61 0.930 . S
H38 C33 0.931 . S
Co39 N36 2.135 . S
Co39 N42 2.121 . S
Co39 O47 2.055 . S
Co39 O50 2.039 . S
Co39 N53 2.140 . S
C40 O41 1.227 . S
C40 O50 1.265 . S
O41 C40 1.227 . S
N42 Co39 2.121 . S
N42 C44 1.375 . S
N42 C45 1.313 . S
C43 C44 1.338 . S
C43 N46 1.377 . S
C43 H63 0.930 . S
C44 N42 1.375 . S
C44 C43 1.338 . S
C44 H48 0.931 . S
C45 N42 1.313 . S
C45 N46 1.344 . S
C45 H49 0.930 . S
N46 C43 1.377 . S
N46 C45 1.344 . S
O47 Co39 2.055 . S
O47 C51 1.253 . S
H48 C44 0.931 . S
H49 C45 0.930 . S
O50 Co39 2.039 . S
O50 C40 1.265 . S
C51 O47 1.253 . S
C51 O52 1.227 . S
O52 C51 1.227 . S
N53 Co39 2.140 . S
N53 C56 1.346 . S
N53 C57 1.345 . S
C54 C55 1.387 . S
C54 C58 1.391 . S
C55 C54 1.387 . S
C55 C56 1.369 . S
C55 H64 0.929 . S
C56 N53 1.346 . S
C56 C55 1.369 . S
C56 H59 0.928 . S
C57 N53 1.345 . S
C57 C58 1.371 . S
C57 H60 0.931 . S
C58 C54 1.391 . S
C58 C57 1.371 . S
C58 H65 0.930 . S
H59 C56 0.928 . S
H60 C57 0.931 . S
H61 C37 0.930 . S
H62 C34 0.930 . S
H63 C43 0.930 . S
H64 C55 0.929 . S
H65 C58 0.930 . S
C66 C67 1.351 . S
C66 N69 1.368 . S
C66 H71 0.931 . S
C67 C66 1.351 . S
C67 N68 1.373 . S
C67 H95 0.930 . S
N68 C67 1.373 . S
N68 C70 1.340 . S
N69 C66 1.368 . S
N69 C70 1.321 . S
N69 Co72 2.135 . S
C70 N68 1.340 . S
C70 N69 1.321 . S
C70 H94 0.930 . S
H71 C66 0.931 . S
Co72 N69 2.135 . S
Co72 N75 2.121 . S
Co72 O80 2.055 . S
Co72 O83 2.039 . S
Co72 N86 2.140 . S
C73 O74 1.227 . S
C73 O83 1.265 . S
O74 C73 1.227 . S
N75 Co72 2.121 . S
N75 C77 1.375 . S
N75 C78 1.313 . S
C76 C77 1.338 . S
C76 N79 1.377 . S
C76 H96 0.930 . S
C77 N75 1.375 . S
C77 C76 1.338 . S
C77 H81 0.931 . S
C78 N75 1.313 . S
C78 N79 1.344 . S
C78 H82 0.930 . S
N79 C76 1.377 . S
N79 C78 1.344 . S
O80 Co72 2.055 . S
O80 C84 1.253 . S
H81 C77 0.931 . S
H82 C78 0.930 . S
O83 Co72 2.039 . S
O83 C73 1.265 . S
C84 O80 1.253 . S
C84 O85 1.227 . S
O85 C84 1.227 . S
N86 Co72 2.140 . S
N86 C89 1.346 . S
N86 C90 1.345 . S
C87 C88 1.387 . S
C87 C91 1.391 . S
C88 C87 1.387 . S
C88 C89 1.369 . S
C88 H97 0.929 . S
C89 N86 1.346 . S
C89 C88 1.369 . S
C89 H92 0.928 . S
C90 N86 1.345 . S
C90 C91 1.371 . S
C90 H93 0.931 . S
C91 C87 1.391 . S
C91 C90 1.371 . S
C91 H98 0.930 . S
H92 C89 0.928 . S
H93 C90 0.931 . S
H94 C70 0.930 . S
H95 C67 0.930 . S
H96 C76 0.930 . S
H97 C88 0.929 . S
H98 C91 0.930 . S
C99 C100 1.351 . S
C99 N102 1.368 . S
C99 H104 0.931 . S
C100 C99 1.351 . S
C100 N101 1.373 . S
C100 H128 0.930 . S
N101 C100 1.373 . S
N101 C103 1.340 . S
N102 C99 1.368 . S
N102 C103 1.321 . S
N102 Co105 2.135 . S
C103 N101 1.340 . S
C103 N102 1.321 . S
C103 H127 0.930 . S
H104 C99 0.931 . S
Co105 N102 2.135 . S
Co105 N108 2.121 . S
Co105 O113 2.055 . S
Co105 O116 2.039 . S
Co105 N119 2.140 . S
C106 O107 1.227 . S
C106 O116 1.265 . S
O107 C106 1.227 . S
N108 Co105 2.121 . S
N108 C110 1.375 . S
N108 C111 1.313 . S
C109 C110 1.338 . S
C109 N112 1.377 . S
C109 H129 0.930 . S
C110 N108 1.375 . S
C110 C109 1.338 . S
C110 H114 0.931 . S
C111 N108 1.313 . S
C111 N112 1.344 . S
C111 H115 0.930 . S
N112 C109 1.377 . S
N112 C111 1.344 . S
O113 Co105 2.055 . S
O113 C117 1.253 . S
H114 C110 0.931 . S
H115 C111 0.930 . S
O116 Co105 2.039 . S
O116 C106 1.265 . S
C117 O113 1.253 . S
C117 O118 1.227 . S
O118 C117 1.227 . S
N119 Co105 2.140 . S
N119 C122 1.346 . S
N119 C123 1.345 . S
C120 C121 1.387 . S
C120 C124 1.391 . S
C121 C120 1.387 . S
C121 C122 1.369 . S
C121 H130 0.929 . S
C122 N119 1.346 . S
C122 C121 1.369 . S
C122 H125 0.928 . S
C123 N119 1.345 . S
C123 C124 1.371 . S
C123 H126 0.931 . S
C124 C120 1.391 . S
C124 C123 1.371 . S
C124 H131 0.930 . S
H125 C122 0.928 . S
H126 C123 0.931 . S
H127 C103 0.930 . S
H128 C100 0.930 . S
H129 C109 0.930 . S
H130 C121 0.929 . S
H131 C124 0.930 . S
C132 C133 1.351 . S
C132 N135 1.368 . S
C132 H137 0.931 . S
C133 C132 1.351 . S
C133 N134 1.373 . S
C133 H161 0.930 . S
N134 C133 1.373 . S
N134 C136 1.340 . S
N135 C132 1.368 . S
N135 C136 1.321 . S
N135 Co138 2.135 . S
C136 N134 1.340 . S
C136 N135 1.321 . S
C136 H160 0.930 . S
H137 C132 0.931 . S
Co138 N135 2.135 . S
Co138 N141 2.121 . S
Co138 O146 2.055 . S
Co138 O149 2.039 . S
Co138 N152 2.140 . S
C139 O140 1.227 . S
C139 O149 1.265 . S
O140 C139 1.227 . S
N141 Co138 2.121 . S
N141 C143 1.375 . S
N141 C144 1.313 . S
C142 C143 1.338 . S
C142 N145 1.377 . S
C142 H162 0.930 . S
C143 N141 1.375 . S
C143 C142 1.338 . S
C143 H147 0.931 . S
C144 N141 1.313 . S
C144 N145 1.344 . S
C144 H148 0.930 . S
N145 C142 1.377 . S
N145 C144 1.344 . S
O146 Co138 2.055 . S
O146 C150 1.253 . S
H147 C143 0.931 . S
H148 C144 0.930 . S
O149 Co138 2.039 . S
O149 C139 1.265 . S
C150 O146 1.253 . S
C150 O151 1.227 . S
O151 C150 1.227 . S
N152 Co138 2.140 . S
N152 C155 1.346 . S
N152 C156 1.345 . S
C153 C154 1.387 . S
C153 C157 1.391 . S
C154 C153 1.387 . S
C154 C155 1.369 . S
C154 H163 0.929 . S
C155 N152 1.346 . S
C155 C154 1.369 . S
C155 H158 0.928 . S
C156 N152 1.345 . S
C156 C157 1.371 . S
C156 H159 0.931 . S
C157 C153 1.391 . S
C157 C156 1.371 . S
C157 H164 0.930 . S
H158 C155 0.928 . S
H159 C156 0.931 . S
H160 C136 0.930 . S
H161 C133 0.930 . S
H162 C142 0.930 . S
H163 C154 0.929 . S
H164 C157 0.930 . S
C165 C166 1.351 . S
C165 N168 1.368 . S
C165 H170 0.931 . S
C166 C165 1.351 . S
C166 N167 1.373 . S
C166 H194 0.930 . S
N167 C166 1.373 . S
N167 C169 1.340 . S
N168 C165 1.368 . S
N168 C169 1.321 . S
N168 Co171 2.135 . S
C169 N167 1.340 . S
C169 N168 1.321 . S
C169 H193 0.930 . S
H170 C165 0.931 . S
Co171 N168 2.135 . S
Co171 N174 2.121 . S
Co171 O179 2.055 . S
Co171 O182 2.039 . S
Co171 N185 2.140 . S
C172 O173 1.227 . S
C172 O182 1.265 . S
O173 C172 1.227 . S
N174 Co171 2.121 . S
N174 C176 1.375 . S
N174 C177 1.313 . S
C175 C176 1.338 . S
C175 N178 1.377 . S
C175 H195 0.930 . S
C176 N174 1.375 . S
C176 C175 1.338 . S
C176 H180 0.931 . S
C177 N174 1.313 . S
C177 N178 1.344 . S
C177 H181 0.930 . S
N178 C175 1.377 . S
N178 C177 1.344 . S
O179 Co171 2.055 . S
O179 C183 1.253 . S
H180 C176 0.931 . S
H181 C177 0.930 . S
O182 Co171 2.039 . S
O182 C172 1.265 . S
C183 O179 1.253 . S
C183 O184 1.227 . S
O184 C183 1.227 . S
N185 Co171 2.140 . S
N185 C188 1.346 . S
N185 C189 1.345 . S
C186 C187 1.387 . S
C186 C190 1.391 . S
C187 C186 1.387 . S
C187 C188 1.369 . S
C187 H196 0.929 . S
C188 N185 1.346 . S
C188 C187 1.369 . S
C188 H191 0.928 . S
C189 N185 1.345 . S
C189 C190 1.371 . S
C189 H192 0.931 . S
C190 C186 1.391 . S
C190 C189 1.371 . S
C190 H197 0.930 . S
H191 C188 0.928 . S
H192 C189 0.931 . S
H193 C169 0.930 . S
H194 C166 0.930 . S
H195 C175 0.930 . S
H196 C187 0.929 . S
H197 C190 0.930 . S
C198 C199 1.351 . S
C198 N201 1.368 . S
C198 H203 0.931 . S
C199 C198 1.351 . S
C199 N200 1.373 . S
C199 H227 0.930 . S
N200 C199 1.373 . S
N200 C202 1.340 . S
N201 C198 1.368 . S
N201 C202 1.321 . S
N201 Co204 2.135 . S
C202 N200 1.340 . S
C202 N201 1.321 . S
C202 H226 0.930 . S
H203 C198 0.931 . S
Co204 N201 2.135 . S
Co204 N207 2.121 . S
Co204 O212 2.055 . S
Co204 O215 2.039 . S
Co204 N218 2.140 . S
C205 O206 1.227 . S
C205 O215 1.265 . S
O206 C205 1.227 . S
N207 Co204 2.121 . S
N207 C209 1.375 . S
N207 C210 1.313 . S
C208 C209 1.338 . S
C208 N211 1.377 . S
C208 H228 0.930 . S
C209 N207 1.375 . S
C209 C208 1.338 . S
C209 H213 0.931 . S
C210 N207 1.313 . S
C210 N211 1.344 . S
C210 H214 0.930 . S
N211 C208 1.377 . S
N211 C210 1.344 . S
O212 Co204 2.055 . S
O212 C216 1.253 . S
H213 C209 0.931 . S
H214 C210 0.930 . S
O215 Co204 2.039 . S
O215 C205 1.265 . S
C216 O212 1.253 . S
C216 O217 1.227 . S
O217 C216 1.227 . S
N218 Co204 2.140 . S
N218 C221 1.346 . S
N218 C222 1.345 . S
C219 C220 1.387 . S
C219 C223 1.391 . S
C220 C219 1.387 . S
C220 C221 1.369 . S
C220 H229 0.929 . S
C221 N218 1.346 . S
C221 C220 1.369 . S
C221 H224 0.928 . S
C222 N218 1.345 . S
C222 C223 1.371 . S
C222 H225 0.931 . S
C223 C219 1.391 . S
C223 C222 1.371 . S
C223 H230 0.930 . S
H224 C221 0.928 . S
H225 C222 0.931 . S
H226 C202 0.930 . S
H227 C199 0.930 . S
H228 C208 0.930 . S
H229 C220 0.929 . S
H230 C223 0.930 . S
C231 C232 1.351 . S
C231 N234 1.368 . S
C231 H236 0.931 . S
C232 C231 1.351 . S
C232 N233 1.373 . S
C232 H260 0.930 . S
N233 C232 1.373 . S
N233 C235 1.340 . S
N234 C231 1.368 . S
N234 C235 1.321 . S
N234 Co237 2.135 . S
C235 N233 1.340 . S
C235 N234 1.321 . S
C235 H259 0.930 . S
H236 C231 0.931 . S
Co237 N234 2.135 . S
Co237 N240 2.121 . S
Co237 O245 2.055 . S
Co237 O248 2.039 . S
Co237 N251 2.140 . S
C238 O239 1.227 . S
C238 O248 1.265 . S
O239 C238 1.227 . S
N240 Co237 2.121 . S
N240 C242 1.375 . S
N240 C243 1.313 . S
C241 C242 1.338 . S
C241 N244 1.377 . S
C241 H261 0.930 . S
C242 N240 1.375 . S
C242 C241 1.338 . S
C242 H246 0.931 . S
C243 N240 1.313 . S
C243 N244 1.344 . S
C243 H247 0.930 . S
N244 C241 1.377 . S
N244 C243 1.344 . S
O245 Co237 2.055 . S
O245 C249 1.253 . S
H246 C242 0.931 . S
H247 C243 0.930 . S
O248 Co237 2.039 . S
O248 C238 1.265 . S
C249 O245 1.253 . S
C249 O250 1.227 . S
O250 C249 1.227 . S
N251 Co237 2.140 . S
N251 C254 1.346 . S
N251 C255 1.345 . S
C252 C253 1.387 . S
C252 C256 1.391 . S
C253 C252 1.387 . S
C253 C254 1.369 . S
C253 H262 0.929 . S
C254 N251 1.346 . S
C254 C253 1.369 . S
C254 H257 0.928 . S
C255 N251 1.345 . S
C255 C256 1.371 . S
C255 H258 0.931 . S
C256 C252 1.391 . S
C256 C255 1.371 . S
C256 H263 0.930 . S
H257 C254 0.928 . S
H258 C255 0.931 . S
H259 C235 0.930 . S
H260 C232 0.930 . S
H261 C241 0.930 . S
H262 C253 0.929 . S
H263 C256 0.930 . S
C264 C265 1.351 . S
C264 N267 1.368 . S
C264 H269 0.931 . S
C265 C264 1.351 . S
C265 N266 1.373 . S
C265 H293 0.930 . S
N266 C265 1.373 . S
N266 C268 1.340 . S
N267 C264 1.368 . S
N267 C268 1.321 . S
N267 Co270 2.135 . S
C268 N266 1.340 . S
C268 N267 1.321 . S
C268 H292 0.930 . S
H269 C264 0.931 . S
Co270 N267 2.135 . S
Co270 N273 2.121 . S
Co270 O278 2.055 . S
Co270 O281 2.039 . S
Co270 N284 2.140 . S
C271 O272 1.227 . S
C271 O281 1.265 . S
O272 C271 1.227 . S
N273 Co270 2.121 . S
N273 C275 1.375 . S
N273 C276 1.313 . S
C274 C275 1.338 . S
C274 N277 1.377 . S
C274 H294 0.930 . S
C275 N273 1.375 . S
C275 C274 1.338 . S
C275 H279 0.931 . S
C276 N273 1.313 . S
C276 N277 1.344 . S
C276 H280 0.930 . S
N277 C274 1.377 . S
N277 C276 1.344 . S
O278 Co270 2.055 . S
O278 C282 1.253 . S
H279 C275 0.931 . S
H280 C276 0.930 . S
O281 Co270 2.039 . S
O281 C271 1.265 . S
C282 O278 1.253 . S
C282 O283 1.227 . S
O283 C282 1.227 . S
N284 Co270 2.140 . S
N284 C287 1.346 . S
N284 C288 1.345 . S
C285 C286 1.387 . S
C285 C289 1.391 . S
C286 C285 1.387 . S
C286 C287 1.369 . S
C286 H295 0.929 . S
C287 N284 1.346 . S
C287 C286 1.369 . S
C287 H290 0.928 . S
C288 N284 1.345 . S
C288 C289 1.371 . S
C288 H291 0.931 . S
C289 C285 1.391 . S
C289 C288 1.371 . S
C289 H296 0.930 . S
H290 C287 0.928 . S
H291 C288 0.931 . S
H292 C268 0.930 . S
H293 C265 0.930 . S
H294 C274 0.930 . S
H295 C286 0.929 . S
H296 C289 0.930 . S
C297 C298 1.351 . S
C297 N300 1.368 . S
C297 H302 0.931 . S
C298 C297 1.351 . S
C298 N299 1.373 . S
C298 H326 0.930 . S
N299 C298 1.373 . S
N299 C301 1.340 . S
N300 C297 1.368 . S
N300 C301 1.321 . S
N300 Co303 2.135 . S
C301 N299 1.340 . S
C301 N300 1.321 . S
C301 H325 0.930 . S
H302 C297 0.931 . S
Co303 N300 2.135 . S
Co303 N306 2.121 . S
Co303 O311 2.055 . S
Co303 O314 2.039 . S
Co303 N317 2.140 . S
C304 O305 1.227 . S
C304 O314 1.265 . S
O305 C304 1.227 . S
N306 Co303 2.121 . S
N306 C308 1.375 . S
N306 C309 1.313 . S
C307 C308 1.338 . S
C307 N310 1.377 . S
C307 H327 0.930 . S
C308 N306 1.375 . S
C308 C307 1.338 . S
C308 H312 0.931 . S
C309 N306 1.313 . S
C309 N310 1.344 . S
C309 H313 0.930 . S
N310 C307 1.377 . S
N310 C309 1.344 . S
O311 Co303 2.055 . S
O311 C315 1.253 . S
H312 C308 0.931 . S
H313 C309 0.930 . S
O314 Co303 2.039 . S
O314 C304 1.265 . S
C315 O311 1.253 . S
C315 O316 1.227 . S
O316 C315 1.227 . S
N317 Co303 2.140 . S
N317 C320 1.346 . S
N317 C321 1.345 . S
C318 C319 1.387 . S
C318 C322 1.391 . S
C319 C318 1.387 . S
C319 C320 1.369 . S
C319 H328 0.929 . S
C320 N317 1.346 . S
C320 C319 1.369 . S
C320 H323 0.928 . S
C321 N317 1.345 . S
C321 C322 1.371 . S
C321 H324 0.931 . S
C322 C318 1.391 . S
C322 C321 1.371 . S
C322 H329 0.930 . S
H323 C320 0.928 . S
H324 C321 0.931 . S
H325 C301 0.930 . S
H326 C298 0.930 . S
H327 C307 0.930 . S
H328 C319 0.929 . S
H329 C322 0.930 . S
C330 C331 1.351 . S
C330 N333 1.368 . S
C330 H335 0.931 . S
C331 C330 1.351 . S
C331 N332 1.373 . S
C331 H359 0.930 . S
N332 C331 1.373 . S
N332 C334 1.340 . S
N333 C330 1.368 . S
N333 C334 1.321 . S
N333 Co336 2.135 . S
C334 N332 1.340 . S
C334 N333 1.321 . S
C334 H358 0.930 . S
H335 C330 0.931 . S
Co336 N333 2.135 . S
Co336 N339 2.121 . S
Co336 O344 2.055 . S
Co336 O347 2.039 . S
Co336 N350 2.140 . S
C337 O338 1.227 . S
C337 O347 1.265 . S
O338 C337 1.227 . S
N339 Co336 2.121 . S
N339 C341 1.375 . S
N339 C342 1.313 . S
C340 C341 1.338 . S
C340 N343 1.377 . S
C340 H360 0.930 . S
C341 N339 1.375 . S
C341 C340 1.338 . S
C341 H345 0.931 . S
C342 N339 1.313 . S
C342 N343 1.344 . S
C342 H346 0.930 . S
N343 C340 1.377 . S
N343 C342 1.344 . S
O344 Co336 2.055 . S
O344 C348 1.253 . S
H345 C341 0.931 . S
H346 C342 0.930 . S
O347 Co336 2.039 . S
O347 C337 1.265 . S
C348 O344 1.253 . S
C348 O349 1.227 . S
O349 C348 1.227 . S
N350 Co336 2.140 . S
N350 C353 1.346 . S
N350 C354 1.345 . S
C351 C352 1.387 . S
C351 C355 1.391 . S
C352 C351 1.387 . S
C352 C353 1.369 . S
C352 H361 0.929 . S
C353 N350 1.346 . S
C353 C352 1.369 . S
C353 H356 0.928 . S
C354 N350 1.345 . S
C354 C355 1.371 . S
C354 H357 0.931 . S
C355 C351 1.391 . S
C355 C354 1.371 . S
C355 H362 0.930 . S
H356 C353 0.928 . S
H357 C354 0.931 . S
H358 C334 0.930 . S
H359 C331 0.930 . S
H360 C340 0.930 . S
H361 C352 0.929 . S
H362 C355 0.930 . S
C363 C364 1.351 . S
C363 N366 1.368 . S
C363 H368 0.931 . S
C364 C363 1.351 . S
C364 N365 1.373 . S
C364 H392 0.930 . S
N365 C364 1.373 . S
N365 C367 1.340 . S
N366 C363 1.368 . S
N366 C367 1.321 . S
N366 Co369 2.135 . S
C367 N365 1.340 . S
C367 N366 1.321 . S
C367 H391 0.930 . S
H368 C363 0.931 . S
Co369 N366 2.135 . S
Co369 N372 2.121 . S
Co369 O377 2.055 . S
Co369 O380 2.039 . S
Co369 N383 2.140 . S
C370 O371 1.227 . S
C370 O380 1.265 . S
O371 C370 1.227 . S
N372 Co369 2.121 . S
N372 C374 1.375 . S
N372 C375 1.313 . S
C373 C374 1.338 . S
C373 N376 1.377 . S
C373 H393 0.930 . S
C374 N372 1.375 . S
C374 C373 1.338 . S
C374 H378 0.931 . S
C375 N372 1.313 . S
C375 N376 1.344 . S
C375 H379 0.930 . S
N376 C373 1.377 . S
N376 C375 1.344 . S
O377 Co369 2.055 . S
O377 C381 1.253 . S
H378 C374 0.931 . S
H379 C375 0.930 . S
O380 Co369 2.039 . S
O380 C370 1.265 . S
C381 O377 1.253 . S
C381 O382 1.227 . S
O382 C381 1.227 . S
N383 Co369 2.140 . S
N383 C386 1.346 . S
N383 C387 1.345 . S
C384 C385 1.387 . S
C384 C388 1.391 . S
C385 C384 1.387 . S
C385 C386 1.369 . S
C385 H394 0.929 . S
C386 N383 1.346 . S
C386 C385 1.369 . S
C386 H389 0.928 . S
C387 N383 1.345 . S
C387 C388 1.371 . S
C387 H390 0.931 . S
C388 C384 1.391 . S
C388 C387 1.371 . S
C388 H395 0.930 . S
H389 C386 0.928 . S
H390 C387 0.931 . S
H391 C367 0.930 . S
H392 C364 0.930 . S
H393 C373 0.930 . S
H394 C385 0.929 . S
H395 C388 0.930 . S
H396 C402 0.930 . S
H397 C406 0.930 . S
H398 C411 0.929 . S
H399 C409 0.929 . S
H400 C404 0.929 1_554 S
H401 C410 0.929 1_556 S
C402 H396 0.930 . S
C402 C403 1.367 . S
C402 C410 1.378 . S
C403 C402 1.367 . S
C403 C411 1.433 . S
C404 H400 0.929 1_556 S
C404 C406 1.378 . S
C404 C408 1.350 . S
C405 C408 1.463 1_554 S
C405 C410 1.350 . S
C405 N413 1.427 . S
C406 H397 0.930 . S
C406 C404 1.378 . S
C406 C407 1.367 . S
C407 C406 1.367 . S
C407 C409 1.433 . S
C408 C404 1.350 . S
C408 C405 1.463 1_556 S
C408 N412 1.427 . S
C409 H399 0.929 . S
C409 C407 1.433 . S
C409 N412 1.384 . S
C410 H401 0.929 1_554 S
C410 C402 1.378 . S
C410 C405 1.350 . S
C411 H398 0.929 . S
C411 C403 1.433 . S
C411 N413 1.384 . S
N412 C408 1.427 . S
N412 C409 1.384 . S
N413 C405 1.427 . S
N413 C411 1.384 . S
H414 C420 0.930 . S
H415 C424 0.930 . S
H416 C429 0.929 . S
H417 C427 0.929 . S
H418 C422 0.929 . S
H419 C428 0.929 . S
C420 H414 0.930 . S
C420 C421 1.367 . S
C420 C428 1.378 . S
C421 C420 1.367 . S
C421 C429 1.433 . S
C422 H418 0.929 . S
C422 C424 1.378 . S
C422 C426 1.350 . S
C423 C426 1.463 . S
C423 C428 1.350 . S
C423 N431 1.427 . S
C424 H415 0.930 . S
C424 C422 1.378 . S
C424 C425 1.367 . S
C425 C424 1.367 . S
C425 C427 1.433 . S
C426 C422 1.350 . S
C426 C423 1.463 . S
C426 N430 1.427 . S
C427 H417 0.929 . S
C427 C425 1.433 . S
C427 N430 1.384 . S
C428 H419 0.929 . S
C428 C420 1.378 . S
C428 C423 1.350 . S
C429 H416 0.929 . S
C429 C421 1.433 . S
C429 N431 1.384 . S
N430 C426 1.427 . S
N430 C427 1.384 . S
N431 C423 1.427 . S
N431 C429 1.384 . S
H432 C438 0.930 . S
H433 C442 0.930 . S
H434 C447 0.929 . S
H435 C445 0.929 . S
H436 C440 0.929 . S
H437 C446 0.929 . S
C438 H432 0.930 . S
C438 C439 1.367 . S
C438 C446 1.378 . S
C439 C438 1.367 . S
C439 C447 1.433 . S
C440 H436 0.929 . S
C440 C442 1.378 . S
C440 C444 1.350 . S
C441 C444 1.463 1_554 S
C441 C446 1.350 . S
C441 N449 1.427 . S
C442 H433 0.930 . S
C442 C440 1.378 . S
C442 C443 1.367 . S
C443 C442 1.367 . S
C443 C445 1.433 . S
C444 C440 1.350 . S
C444 C441 1.463 1_556 S
C444 N448 1.427 . S
C445 H435 0.929 . S
C445 C443 1.433 . S
C445 N448 1.384 . S
C446 H437 0.929 . S
C446 C438 1.378 . S
C446 C441 1.350 . S
C447 H434 0.929 . S
C447 C439 1.433 . S
C447 N449 1.384 . S
N448 C444 1.427 . S
N448 C445 1.384 . S
N449 C441 1.427 . S
N449 C447 1.384 . S
H450 C456 0.930 . S
H451 C460 0.930 . S
H452 C465 0.929 . S
H453 C463 0.929 . S
H454 C458 0.929 . S
H455 C464 0.929 . S
C456 H450 0.930 . S
C456 C457 1.367 . S
C456 C464 1.378 . S
C457 C456 1.367 . S
C457 C465 1.433 . S
C458 H454 0.929 . S
C458 C460 1.378 . S
C458 C462 1.350 . S
C459 C462 1.463 . S
C459 C464 1.350 . S
C459 N467 1.427 . S
C460 H451 0.930 . S
C460 C458 1.378 . S
C460 C461 1.367 . S
C461 C460 1.367 . S
C461 C463 1.433 . S
C462 C458 1.350 . S
C462 C459 1.463 . S
C462 N466 1.427 . S
C463 H453 0.929 . S
C463 C461 1.433 . S
C463 N466 1.384 . S
C464 H455 0.929 . S
C464 C456 1.378 . S
C464 C459 1.350 . S
C465 H452 0.929 . S
C465 C457 1.433 . S
C465 N467 1.384 . S
N466 C462 1.427 . S
N466 C463 1.384 . S
N467 C459 1.427 . S
N467 C465 1.384 . S
H468 C474 0.930 . S
H469 C478 0.930 . S
H470 C483 0.929 . S
H471 C481 0.929 . S
H472 C476 0.929 . S
H473 C482 0.929 . S
C474 H468 0.930 . S
C474 C475 1.367 . S
C474 C482 1.378 . S
C475 C474 1.367 . S
C475 C483 1.433 . S
C476 H472 0.929 . S
C476 C478 1.378 . S
C476 C480 1.350 . S
C477 C480 1.463 1_554 S
C477 C482 1.350 . S
C477 N485 1.427 . S
C478 H469 0.930 . S
C478 C476 1.378 . S
C478 C479 1.367 . S
C479 C478 1.367 . S
C479 C481 1.433 . S
C480 C476 1.350 . S
C480 C477 1.463 1_556 S
C480 N484 1.427 . S
C481 H471 0.929 . S
C481 C479 1.433 . S
C481 N484 1.384 . S
C482 H473 0.929 . S
C482 C474 1.378 . S
C482 C477 1.350 . S
C483 H470 0.929 . S
C483 C475 1.433 . S
C483 N485 1.384 . S
N484 C480 1.427 . S
N484 C481 1.384 . S
N485 C477 1.427 . S
N485 C483 1.384 . S
H486 C492 0.930 . S
H487 C496 0.930 . S
H488 C501 0.929 . S
H489 C499 0.929 . S
H490 C494 0.929 . S
H491 C500 0.929 . S
C492 H486 0.930 . S
C492 C493 1.367 . S
C492 C500 1.378 . S
C493 C492 1.367 . S
C493 C501 1.433 . S
C494 H490 0.929 . S
C494 C496 1.378 . S
C494 C498 1.350 . S
C495 C498 1.463 . S
C495 C500 1.350 . S
C495 N503 1.427 . S
C496 H487 0.930 . S
C496 C494 1.378 . S
C496 C497 1.367 . S
C497 C496 1.367 . S
C497 C499 1.433 . S
C498 C494 1.350 . S
C498 C495 1.463 . S
C498 N502 1.427 . S
C499 H489 0.929 . S
C499 C497 1.433 . S
C499 N502 1.384 . S
C500 H491 0.929 . S
C500 C492 1.378 . S
C500 C495 1.350 . S
C501 H488 0.929 . S
C501 C493 1.433 . S
C501 N503 1.384 . S
N502 C498 1.427 . S
N502 C499 1.384 . S
N503 C495 1.427 . S
N503 C501 1.384 . S
H504 C510 0.930 . S
H505 C514 0.930 . S
H506 C519 0.929 . S
H507 C517 0.929 . S
H508 C512 0.929 . S
H509 C518 0.929 . S
C510 H504 0.930 . S
C510 C511 1.367 . S
C510 C518 1.378 . S
C511 C510 1.367 . S
C511 C519 1.433 . S
C512 H508 0.929 . S
C512 C514 1.378 . S
C512 C516 1.350 . S
C513 C516 1.463 1_554 S
C513 C518 1.350 . S
C513 N521 1.427 . S
C514 H505 0.930 . S
C514 C512 1.378 . S
C514 C515 1.367 . S
C515 C514 1.367 . S
C515 C517 1.433 . S
C516 C512 1.350 . S
C516 C513 1.463 1_556 S
C516 N520 1.427 . S
C517 H507 0.929 . S
C517 C515 1.433 . S
C517 N520 1.384 . S
C518 H509 0.929 . S
C518 C510 1.378 . S
C518 C513 1.350 . S
C519 H506 0.929 . S
C519 C511 1.433 . S
C519 N521 1.384 . S
N520 C516 1.427 . S
N520 C517 1.384 . S
N521 C513 1.427 . S
N521 C519 1.384 . S
H522 C528 0.930 . S
H523 C532 0.930 . S
H524 C537 0.929 . S
H525 C535 0.929 . S
H526 C530 0.929 . S
H527 C536 0.929 . S
C528 H522 0.930 . S
C528 C529 1.367 . S
C528 C536 1.378 . S
C529 C528 1.367 . S
C529 C537 1.433 . S
C530 H526 0.929 . S
C530 C532 1.378 . S
C530 C534 1.350 . S
C531 C534 1.463 . S
C531 C536 1.350 . S
C531 N539 1.427 . S
C532 H523 0.930 . S
C532 C530 1.378 . S
C532 C533 1.367 . S
C533 C532 1.367 . S
C533 C535 1.433 . S
C534 C530 1.350 . S
C534 C531 1.463 . S
C534 N538 1.427 . S
C535 H525 0.929 . S
C535 C533 1.433 . S
C535 N538 1.384 . S
C536 H527 0.929 . S
C536 C528 1.378 . S
C536 C531 1.350 . S
C537 H524 0.929 . S
C537 C529 1.433 . S
C537 N539 1.384 . S
N538 C534 1.427 . S
N538 C535 1.384 . S
N539 C531 1.427 . S
N539 C537 1.384 . S
H540 C546 0.930 . S
H541 C550 0.930 . S
H542 C555 0.929 . S
H543 C553 0.929 . S
H544 C548 0.929 1_554 S
H545 C554 0.929 1_556 S
C546 H540 0.930 . S
C546 C547 1.367 . S
C546 C554 1.378 . S
C547 C546 1.367 . S
C547 C555 1.433 . S
C548 H544 0.929 1_556 S
C548 C550 1.378 . S
C548 C552 1.350 . S
C549 C552 1.463 1_554 S
C549 C554 1.350 . S
C549 N557 1.427 . S
C550 H541 0.930 . S
C550 C548 1.378 . S
C550 C551 1.367 . S
C551 C550 1.367 . S
C551 C553 1.433 . S
C552 C548 1.350 . S
C552 C549 1.463 1_556 S
C552 N556 1.427 . S
C553 H543 0.929 . S
C553 C551 1.433 . S
C553 N556 1.384 . S
C554 H545 0.929 1_554 S
C554 C546 1.378 . S
C554 C549 1.350 . S
C555 H542 0.929 . S
C555 C547 1.433 . S
C555 N557 1.384 . S
N556 C552 1.427 . S
N556 C553 1.384 . S
N557 C549 1.427 . S
N557 C555 1.384 . S
H558 C564 0.930 . S
H559 C568 0.930 . S
H560 C573 0.929 . S
H561 C571 0.929 . S
H562 C566 0.929 . S
H563 C572 0.929 . S
C564 H558 0.930 . S
C564 C565 1.367 . S
C564 C572 1.378 . S
C565 C564 1.367 . S
C565 C573 1.433 . S
C566 H562 0.929 . S
C566 C568 1.378 . S
C566 C570 1.350 . S
C567 C570 1.463 . S
C567 C572 1.350 . S
C567 N575 1.427 . S
C568 H559 0.930 . S
C568 C566 1.378 . S
C568 C569 1.367 . S
C569 C568 1.367 . S
C569 C571 1.433 . S
C570 C566 1.350 . S
C570 C567 1.463 . S
C570 N574 1.427 . S
C571 H561 0.929 . S
C571 C569 1.433 . S
C571 N574 1.384 . S
C572 H563 0.929 . S
C572 C564 1.378 . S
C572 C567 1.350 . S
C573 H560 0.929 . S
C573 C565 1.433 . S
C573 N575 1.384 . S
N574 C570 1.427 . S
N574 C571 1.384 . S
N575 C567 1.427 . S
N575 C573 1.384 . S
H576 C582 0.930 . S
H577 C586 0.930 . S
H578 C591 0.929 . S
H579 C589 0.929 . S
H580 C584 0.934 . S
H581 C590 0.935 . S
C582 H576 0.930 . S
C582 C583 1.367 . S
C582 C590 1.374 1_554 S
C583 C582 1.367 . S
C583 C591 1.433 . S
C584 H580 0.934 . S
C584 C586 1.374 1_554 S
C584 C588 1.348 1_554 S
C585 C588 1.463 1_554 S
C585 C590 1.348 1_554 S
C585 N593 1.427 . S
C586 H577 0.930 . S
C586 C584 1.374 1_556 S
C586 C587 1.367 . S
C587 C586 1.367 . S
C587 C589 1.433 . S
C588 C584 1.348 1_556 S
C588 C585 1.463 1_556 S
C588 N592 1.427 . S
C589 H579 0.929 . S
C589 C587 1.433 . S
C589 N592 1.384 . S
C590 H581 0.935 . S
C590 C582 1.374 1_556 S
C590 C585 1.348 1_556 S
C591 H578 0.929 . S
C591 C583 1.433 . S
C591 N593 1.384 . S
N592 C588 1.427 . S
N592 C589 1.384 . S
N593 C585 1.427 . S
N593 C591 1.384 . S
H594 C600 0.930 . S
H595 C604 0.930 . S
H596 C609 0.929 . S
H597 C607 0.929 . S
H598 C602 0.929 . S
H599 C608 0.929 . S
C600 H594 0.930 . S
C600 C601 1.367 . S
C600 C608 1.378 . S
C601 C600 1.367 . S
C601 C609 1.433 . S
C602 H598 0.929 . S
C602 C604 1.378 . S
C602 C606 1.350 . S
C603 C606 1.463 . S
C603 C608 1.350 . S
C603 N611 1.427 . S
C604 H595 0.930 . S
C604 C602 1.378 . S
C604 C605 1.367 . S
C605 C604 1.367 . S
C605 C607 1.433 . S
C606 C602 1.350 . S
C606 C603 1.463 . S
C606 N610 1.427 . S
C607 H597 0.929 . S
C607 C605 1.433 . S
C607 N610 1.384 . S
C608 H599 0.929 . S
C608 C600 1.378 . S
C608 C603 1.350 . S
C609 H596 0.929 . S
C609 C601 1.433 . S
C609 N611 1.384 . S
N610 C606 1.427 . S
N610 C607 1.384 . S
N611 C603 1.427 . S
N611 C609 1.384 . S
H612 C618 0.930 . S
H613 C622 0.930 . S
H614 C627 0.929 . S
H615 C625 0.929 . S
H616 C620 0.929 . S
H617 C626 0.929 . S
C618 H612 0.930 . S
C618 C619 1.367 . S
C618 C626 1.378 . S
C619 C618 1.367 . S
C619 C627 1.433 . S
C620 H616 0.929 . S
C620 C622 1.378 . S
C620 C624 1.350 . S
C621 C624 1.463 1_556 S
C621 C626 1.350 . S
C621 N629 1.427 . S
C622 H613 0.930 . S
C622 C620 1.378 . S
C622 C623 1.367 . S
C623 C622 1.367 . S
C623 C625 1.433 . S
C624 C620 1.350 . S
C624 C621 1.463 1_554 S
C624 N628 1.427 . S
C625 H615 0.929 . S
C625 C623 1.433 . S
C625 N628 1.384 . S
C626 H617 0.929 . S
C626 C618 1.378 . S
C626 C621 1.350 . S
C627 H614 0.929 . S
C627 C619 1.433 . S
C627 N629 1.384 . S
N628 C624 1.427 . S
N628 C625 1.384 . S
N629 C621 1.427 . S
N629 C627 1.384 . S
H630 C636 0.930 . S
H631 C640 0.930 . S
H632 C645 0.929 . S
H633 C643 0.929 . S
H634 C638 0.929 . S
H635 C644 0.929 . S
C636 H630 0.930 . S
C636 C637 1.367 . S
C636 C644 1.378 . S
C637 C636 1.367 . S
C637 C645 1.433 . S
C638 H634 0.929 . S
C638 C640 1.378 . S
C638 C642 1.350 . S
C639 C642 1.463 . S
C639 C644 1.350 . S
C639 N647 1.427 . S
C640 H631 0.930 . S
C640 C638 1.378 . S
C640 C641 1.367 . S
C641 C640 1.367 . S
C641 C643 1.433 . S
C642 C638 1.350 . S
C642 C639 1.463 . S
C642 N646 1.427 . S
C643 H633 0.929 . S
C643 C641 1.433 . S
C643 N646 1.384 . S
C644 H635 0.929 . S
C644 C636 1.378 . S
C644 C639 1.350 . S
C645 H632 0.929 . S
C645 C637 1.433 . S
C645 N647 1.384 . S
N646 C642 1.427 . S
N646 C643 1.384 . S
N647 C639 1.427 . S
N647 C645 1.384 . S
H648 C654 0.930 . S
H649 C658 0.930 . S
H650 C663 0.929 . S
H651 C661 0.929 . S
H652 C656 0.929 . S
H653 C662 0.929 . S
C654 H648 0.930 . S
C654 C655 1.367 . S
C654 C662 1.378 . S
C655 C654 1.367 . S
C655 C663 1.433 . S
C656 H652 0.929 . S
C656 C658 1.378 . S
C656 C660 1.350 . S
C657 C660 1.463 1_554 S
C657 C662 1.350 . S
C657 N665 1.427 . S
C658 H649 0.930 . S
C658 C656 1.378 . S
C658 C659 1.367 . S
C659 C658 1.367 . S
C659 C661 1.433 . S
C660 C656 1.350 . S
C660 C657 1.463 1_556 S
C660 N664 1.427 . S
C661 H651 0.929 . S
C661 C659 1.433 . S
C661 N664 1.384 . S
C662 H653 0.929 . S
C662 C654 1.378 . S
C662 C657 1.350 . S
C663 H650 0.929 . S
C663 C655 1.433 . S
C663 N665 1.384 . S
N664 C660 1.427 . S
N664 C661 1.384 . S
N665 C657 1.427 . S
N665 C663 1.384 . S
H666 C672 0.930 . S
H667 C676 0.930 . S
H668 C681 0.929 . S
H669 C679 0.929 . S
H670 C674 0.929 . S
H671 C680 0.929 . S
C672 H666 0.930 . S
C672 C673 1.367 . S
C672 C680 1.378 . S
C673 C672 1.367 . S
C673 C681 1.433 . S
C674 H670 0.929 . S
C674 C676 1.378 . S
C674 C678 1.350 . S
C675 C678 1.463 . S
C675 C680 1.350 . S
C675 N683 1.427 . S
C676 H667 0.930 . S
C676 C674 1.378 . S
C676 C677 1.367 . S
C677 C676 1.367 . S
C677 C679 1.433 . S
C678 C674 1.350 . S
C678 C675 1.463 . S
C678 N682 1.427 . S
C679 H669 0.929 . S
C679 C677 1.433 . S
C679 N682 1.384 . S
C680 H671 0.929 . S
C680 C672 1.378 . S
C680 C675 1.350 . S
C681 H668 0.929 . S
C681 C673 1.433 . S
C681 N683 1.384 . S
N682 C678 1.427 . S
N682 C679 1.384 . S
N683 C675 1.427 . S
N683 C681 1.384 . S
H684 C690 0.930 . S
H685 C694 0.930 . S
H686 C699 0.929 . S
H687 C697 0.929 . S
H688 C692 0.929 . S
H689 C698 0.929 . S
C690 H684 0.930 . S
C690 C691 1.367 . S
C690 C698 1.378 . S
C691 C690 1.367 . S
C691 C699 1.433 . S
C692 H688 0.929 . S
C692 C694 1.378 . S
C692 C696 1.350 . S
C693 C696 1.463 1_554 S
C693 C698 1.350 . S
C693 N701 1.427 . S
C694 H685 0.930 . S
C694 C692 1.378 . S
C694 C695 1.367 . S
C695 C694 1.367 . S
C695 C697 1.433 . S
C696 C692 1.350 . S
C696 C693 1.463 1_556 S
C696 N700 1.427 . S
C697 H687 0.929 . S
C697 C695 1.433 . S
C697 N700 1.384 . S
C698 H689 0.929 . S
C698 C690 1.378 . S
C698 C693 1.350 . S
C699 H686 0.929 . S
C699 C691 1.433 . S
C699 N701 1.384 . S
N700 C696 1.427 . S
N700 C697 1.384 . S
N701 C693 1.427 . S
N701 C699 1.384 . S
H702 C708 0.930 . S
H703 C712 0.930 . S
H704 C717 0.929 . S
H705 C715 0.929 . S
H706 C710 0.929 . S
H707 C716 0.929 . S
C708 H702 0.930 . S
C708 C709 1.367 . S
C708 C716 1.378 . S
C709 C708 1.367 . S
C709 C717 1.433 . S
C710 H706 0.929 . S
C710 C712 1.378 . S
C710 C714 1.350 . S
C711 C714 1.463 . S
C711 C716 1.350 . S
C711 N719 1.427 . S
C712 H703 0.930 . S
C712 C710 1.378 . S
C712 C713 1.367 . S
C713 C712 1.367 . S
C713 C715 1.433 . S
C714 C710 1.350 . S
C714 C711 1.463 . S
C714 N718 1.427 . S
C715 H705 0.929 . S
C715 C713 1.433 . S
C715 N718 1.384 . S
C716 H707 0.929 . S
C716 C708 1.378 . S
C716 C711 1.350 . S
C717 H704 0.929 . S
C717 C709 1.433 . S
C717 N719 1.384 . S
N718 C714 1.427 . S
N718 C715 1.384 . S
N719 C711 1.427 . S
N719 C717 1.384 . S
H720 C726 0.930 . S
H721 C730 0.930 . S
H722 C735 0.929 . S
H723 C733 0.929 . S
H724 C728 0.929 1_556 S
H725 C734 0.929 1_554 S
C726 H720 0.930 . S
C726 C727 1.367 . S
C726 C734 1.378 . S
C727 C726 1.367 . S
C727 C735 1.433 . S
C728 H724 0.929 1_554 S
C728 C730 1.378 . S
C728 C732 1.350 . S
C729 C732 1.463 1_556 S
C729 C734 1.350 . S
C729 N737 1.427 . S
C730 H721 0.930 . S
C730 C728 1.378 . S
C730 C731 1.367 . S
C731 C730 1.367 . S
C731 C733 1.433 . S
C732 C728 1.350 . S
C732 C729 1.463 1_554 S
C732 N736 1.427 . S
C733 H723 0.929 . S
C733 C731 1.433 . S
C733 N736 1.384 . S
C734 H725 0.929 1_556 S
C734 C726 1.378 . S
C734 C729 1.350 . S
C735 H722 0.929 . S
C735 C727 1.433 . S
C735 N737 1.384 . S
N736 C732 1.427 . S
N736 C733 1.384 . S
N737 C729 1.427 . S
N737 C735 1.384 . S
H738 C744 0.930 . S
H739 C748 0.930 . S
H740 C753 0.929 . S
H741 C751 0.929 . S
H742 C746 0.929 . S
H743 C752 0.929 . S
C744 H738 0.930 . S
C744 C745 1.367 . S
C744 C752 1.378 . S
C745 C744 1.367 . S
C745 C753 1.433 . S
C746 H742 0.929 . S
C746 C748 1.378 . S
C746 C750 1.350 . S
C747 C750 1.463 . S
C747 C752 1.350 . S
C747 N755 1.427 . S
C748 H739 0.930 . S
C748 C746 1.378 . S
C748 C749 1.367 . S
C749 C748 1.367 . S
C749 C751 1.433 . S
C750 C746 1.350 . S
C750 C747 1.463 . S
C750 N754 1.427 . S
C751 H741 0.929 . S
C751 C749 1.433 . S
C751 N754 1.384 . S
C752 H743 0.929 . S
C752 C744 1.378 . S
C752 C747 1.350 . S
C753 H740 0.929 . S
C753 C745 1.433 . S
C753 N755 1.384 . S
N754 C750 1.427 . S
N754 C751 1.384 . S
N755 C747 1.427 . S
N755 C753 1.384 . S
H756 C762 0.930 . S
H757 C766 0.930 . S
H758 C771 0.929 . S
H759 C769 0.929 . S
H760 C764 0.929 . S
H761 C770 0.929 . S
C762 H756 0.930 . S
C762 C763 1.367 . S
C762 C770 1.378 . S
C763 C762 1.367 . S
C763 C771 1.433 . S
C764 H760 0.929 . S
C764 C766 1.378 . S
C764 C768 1.350 . S
C765 C768 1.463 1_554 S
C765 C770 1.350 . S
C765 N773 1.427 . S
C766 H757 0.930 . S
C766 C764 1.378 . S
C766 C767 1.367 . S
C767 C766 1.367 . S
C767 C769 1.433 . S
C768 C764 1.350 . S
C768 C765 1.463 1_556 S
C768 N772 1.427 . S
C769 H759 0.929 . S
C769 C767 1.433 . S
C769 N772 1.384 . S
C770 H761 0.929 . S
C770 C762 1.378 . S
C770 C765 1.350 . S
C771 H758 0.929 . S
C771 C763 1.433 . S
C771 N773 1.384 . S
N772 C768 1.427 . S
N772 C769 1.384 . S
N773 C765 1.427 . S
N773 C771 1.384 . S
H774 C780 0.930 . S
H775 C784 0.930 . S
H776 C789 0.929 . S
H777 C787 0.929 . S
H778 C782 0.929 . S
H779 C788 0.929 . S
C780 H774 0.930 . S
C780 C781 1.367 . S
C780 C788 1.378 . S
C781 C780 1.367 . S
C781 C789 1.433 . S
C782 H778 0.929 . S
C782 C784 1.378 . S
C782 C786 1.350 . S
C783 C786 1.463 . S
C783 C788 1.350 . S
C783 N791 1.427 . S
C784 H775 0.930 . S
C784 C782 1.378 . S
C784 C785 1.367 . S
C785 C784 1.367 . S
C785 C787 1.433 . S
C786 C782 1.350 . S
C786 C783 1.463 . S
C786 N790 1.427 . S
C787 H777 0.929 . S
C787 C785 1.433 . S
C787 N790 1.384 . S
C788 H779 0.929 . S
C788 C780 1.378 . S
C788 C783 1.350 . S
C789 H776 0.929 . S
C789 C781 1.433 . S
C789 N791 1.384 . S
N790 C786 1.427 . S
N790 C787 1.384 . S
N791 C783 1.427 . S
N791 C789 1.384 . S
H792 C798 0.930 . S
H793 C802 0.930 . S
H794 C807 0.929 . S
H795 C805 0.929 . S
H796 C800 0.929 . S
H797 C806 0.929 . S
C798 H792 0.930 . S
C798 C799 1.367 . S
C798 C806 1.378 . S
C799 C798 1.367 . S
C799 C807 1.433 . S
C800 H796 0.929 . S
C800 C802 1.378 . S
C800 C804 1.350 . S
C801 C804 1.463 1_554 S
C801 C806 1.350 . S
C801 N809 1.427 . S
C802 H793 0.930 . S
C802 C800 1.378 . S
C802 C803 1.367 . S
C803 C802 1.367 . S
C803 C805 1.433 . S
C804 C800 1.350 . S
C804 C801 1.463 1_556 S
C804 N808 1.427 . S
C805 H795 0.929 . S
C805 C803 1.433 . S
C805 N808 1.384 . S
C806 H797 0.929 . S
C806 C798 1.378 . S
C806 C801 1.350 . S
C807 H794 0.929 . S
C807 C799 1.433 . S
C807 N809 1.384 . S
N808 C804 1.427 . S
N808 C805 1.384 . S
N809 C801 1.427 . S
N809 C807 1.384 . S
H810 C816 0.930 . S
H811 C820 0.930 . S
H812 C825 0.929 . S
H813 C823 0.929 . S
H814 C818 0.929 . S
H815 C824 0.929 . S
C816 H810 0.930 . S
C816 C817 1.367 . S
C816 C824 1.378 . S
C817 C816 1.367 . S
C817 C825 1.433 . S
C818 H814 0.929 . S
C818 C820 1.378 . S
C818 C822 1.350 . S
C819 C822 1.463 . S
C819 C824 1.350 . S
C819 N827 1.427 . S
C820 H811 0.930 . S
C820 C818 1.378 . S
C820 C821 1.367 . S
C821 C820 1.367 . S
C821 C823 1.433 . S
C822 C818 1.350 . S
C822 C819 1.463 . S
C822 N826 1.427 . S
C823 H813 0.929 . S
C823 C821 1.433 . S
C823 N826 1.384 . S
C824 H815 0.929 . S
C824 C816 1.378 . S
C824 C819 1.350 . S
C825 H812 0.929 . S
C825 C817 1.433 . S
C825 N827 1.384 . S
N826 C822 1.427 . S
N826 C823 1.384 . S
N827 C819 1.427 . S
N827 C825 1.384 . S
H828 C834 0.930 . S
H829 C838 0.930 . S
H830 C843 0.929 . S
H831 C841 0.929 . S
H832 C836 0.929 . S
H833 C842 0.929 . S
C834 H828 0.930 . S
C834 C835 1.367 . S
C834 C842 1.378 . S
C835 C834 1.367 . S
C835 C843 1.433 . S
C836 H832 0.929 . S
C836 C838 1.378 . S
C836 C840 1.350 . S
C837 C840 1.463 . S
C837 C842 1.350 . S
C837 N845 1.427 . S
C838 H829 0.930 . S
C838 C836 1.378 . S
C838 C839 1.367 . S
C839 C838 1.367 . S
C839 C841 1.433 . S
C840 C836 1.350 . S
C840 C837 1.463 . S
C840 N844 1.427 . S
C841 H831 0.929 . S
C841 C839 1.433 . S
C841 N844 1.384 . S
C842 H833 0.929 . S
C842 C834 1.378 . S
C842 C837 1.350 . S
C843 H830 0.929 . S
C843 C835 1.433 . S
C843 N845 1.384 . S
N844 C840 1.427 . S
N844 C841 1.384 . S
N845 C837 1.427 . S
N845 C843 1.384 . S
H846 C852 0.930 . S
H847 C856 0.930 . S
H848 C861 0.929 . S
H849 C859 0.929 . S
H850 C854 0.929 . S
H851 C860 0.929 . S
C852 H846 0.930 . S
C852 C853 1.367 . S
C852 C860 1.378 . S
C853 C852 1.367 . S
C853 C861 1.433 . S
C854 H850 0.929 . S
C854 C856 1.378 . S
C854 C858 1.350 . S
C855 C858 1.463 1_455 S
C855 C860 1.350 . S
C855 N863 1.427 . S
C856 H847 0.930 . S
C856 C854 1.378 . S
C856 C857 1.367 . S
C857 C856 1.367 . S
C857 C859 1.433 . S
C858 C854 1.350 . S
C858 C855 1.463 1_655 S
C858 N862 1.427 . S
C859 H849 0.929 . S
C859 C857 1.433 . S
C859 N862 1.384 . S
C860 H851 0.929 . S
C860 C852 1.378 . S
C860 C855 1.350 . S
C861 H848 0.929 . S
C861 C853 1.433 . S
C861 N863 1.384 . S
N862 C858 1.427 . S
N862 C859 1.384 . S
N863 C855 1.427 . S
N863 C861 1.384 . S
H864 C870 0.930 . S
H865 C874 0.930 . S
H866 C879 0.929 . S
H867 C877 0.929 . S
H868 C872 0.929 . S
H869 C878 0.929 . S
C870 H864 0.930 . S
C870 C871 1.367 . S
C870 C878 1.378 . S
C871 C870 1.367 . S
C871 C879 1.433 . S
C872 H868 0.929 . S
C872 C874 1.378 . S
C872 C876 1.350 . S
C873 C876 1.463 1_545 S
C873 C878 1.350 . S
C873 N881 1.427 . S
C874 H865 0.930 . S
C874 C872 1.378 . S
C874 C875 1.367 . S
C875 C874 1.367 . S
C875 C877 1.433 . S
C876 C872 1.350 . S
C876 C873 1.463 1_565 S
C876 N880 1.427 . S
C877 H867 0.929 . S
C877 C875 1.433 . S
C877 N880 1.384 . S
C878 H869 0.929 . S
C878 C870 1.378 . S
C878 C873 1.350 . S
C879 H866 0.929 . S
C879 C871 1.433 . S
C879 N881 1.384 . S
N880 C876 1.427 . S
N880 C877 1.384 . S
N881 C873 1.427 . S
N881 C879 1.384 . S
H882 C888 0.930 . S
H883 C892 0.930 . S
H884 C897 0.929 . S
H885 C895 0.929 . S
H886 C890 0.929 . S
H887 C896 0.929 . S
C888 H882 0.930 . S
C888 C889 1.367 . S
C888 C896 1.378 . S
C889 C888 1.367 . S
C889 C897 1.433 . S
C890 H886 0.929 . S
C890 C892 1.378 . S
C890 C894 1.350 . S
C891 C894 1.463 . S
C891 C896 1.350 . S
C891 N899 1.427 . S
C892 H883 0.930 . S
C892 C890 1.378 . S
C892 C893 1.367 . S
C893 C892 1.367 . S
C893 C895 1.433 . S
C894 C890 1.350 . S
C894 C891 1.463 . S
C894 N898 1.427 . S
C895 H885 0.929 . S
C895 C893 1.433 . S
C895 N898 1.384 . S
C896 H887 0.929 . S
C896 C888 1.378 . S
C896 C891 1.350 . S
C897 H884 0.929 . S
C897 C889 1.433 . S
C897 N899 1.384 . S
N898 C894 1.427 . S
N898 C895 1.384 . S
N899 C891 1.427 . S
N899 C897 1.384 . S
H900 C906 0.930 . S
H901 C910 0.930 . S
H902 C915 0.929 . S
H903 C913 0.929 . S
H904 C908 0.929 . S
H905 C914 0.929 . S
C906 H900 0.930 . S
C906 C907 1.367 . S
C906 C914 1.378 . S
C907 C906 1.367 . S
C907 C915 1.433 . S
C908 H904 0.929 . S
C908 C910 1.378 . S
C908 C912 1.350 . S
C909 C912 1.463 1_455 S
C909 C914 1.350 . S
C909 N917 1.427 . S
C910 H901 0.930 . S
C910 C908 1.378 . S
C910 C911 1.367 . S
C911 C910 1.367 . S
C911 C913 1.433 . S
C912 C908 1.350 . S
C912 C909 1.463 1_655 S
C912 N916 1.427 . S
C913 H903 0.929 . S
C913 C911 1.433 . S
C913 N916 1.384 . S
C914 H905 0.929 . S
C914 C906 1.378 . S
C914 C909 1.350 . S
C915 H902 0.929 . S
C915 C907 1.433 . S
C915 N917 1.384 . S
N916 C912 1.427 . S
N916 C913 1.384 . S
N917 C909 1.427 . S
N917 C915 1.384 . S
H918 C924 0.930 . S
H919 C928 0.930 . S
H920 C933 0.929 . S
H921 C931 0.929 . S
H922 C926 0.929 . S
H923 C932 0.929 . S
C924 H918 0.930 . S
C924 C925 1.367 . S
C924 C932 1.378 . S
C925 C924 1.367 . S
C925 C933 1.433 . S
C926 H922 0.929 . S
C926 C928 1.378 . S
C926 C930 1.350 . S
C927 C930 1.463 1_565 S
C927 C932 1.350 . S
C927 N935 1.427 . S
C928 H919 0.930 . S
C928 C926 1.378 . S
C928 C929 1.367 . S
C929 C928 1.367 . S
C929 C931 1.433 . S
C930 C926 1.350 . S
C930 C927 1.463 1_545 S
C930 N934 1.427 . S
C931 H921 0.929 . S
C931 C929 1.433 . S
C931 N934 1.384 . S
C932 H923 0.929 . S
C932 C924 1.378 . S
C932 C927 1.350 . S
C933 H920 0.929 . S
C933 C925 1.433 . S
C933 N935 1.384 . S
N934 C930 1.427 . S
N934 C931 1.384 . S
N935 C927 1.427 . S
N935 C933 1.384 . S
C403 C7 2.314 . S
C407 C205 2.318 . S
C421 C40 2.319 . S
C425 C238 2.320 . S
C439 C73 2.320 . S
C443 C271 2.319 . S
C457 C304 2.316 . S
C461 C106 2.314 . S
C475 C139 2.314 . S
C479 C337 2.319 . S
C493 C370 2.316 . S
C497 C172 2.321 . S
C511 N310 0.949 . S
C515 N112 0.948 . S
C529 N145 0.934 . S
C533 N343 0.934 . S
C547 N376 0.955 . S
C551 N178 0.954 . S
C565 N211 0.950 . S
C569 N13 0.951 . S
C583 N244 0.958 . S
C587 N46 0.958 . S
C601 N79 0.948 . S
C605 N277 0.947 . S
C619 N332 0.831 . S
C623 N2 0.819 . S
C637 N35 0.809 . S
C641 N365 0.817 . S
C655 N68 0.832 . S
C659 N200 0.820 . S
C673 N101 0.819 . S
C677 N233 0.810 . S
C691 N134 0.815 . S
C695 N266 0.826 . S
C709 N167 0.808 . S
C713 N299 0.809 . S
C727 C117 1.768 . S
C731 C249 1.768 . S
C745 C150 1.769 . S
C749 C282 1.770 . S
C763 C315 1.771 . S
C767 C183 1.771 . S
C781 C18 1.768 . S
C785 C348 1.768 . S
C799 C381 1.769 . S
C803 C51 1.769 . S
C817 C84 1.774 . S
C821 C216 1.774 . S
C835 C21 1.244 . S
C839 C318 1.242 . S
C853 C351 1.246 . S
C857 C54 1.241 . S
C871 C384 1.242 . S
C875 C87 1.249 . S
C889 C219 1.239 . S
C893 C120 1.248 . S
C907 C153 1.245 . S
C911 C252 1.247 . S
C925 C285 1.242 . S
C929 C186 1.249 . S
