# Generated by pormake.
# Topology qtz-e, (6)-cn, num edge types: 1
# Building blocks:
#     Node 0, Type 0, BuildingBlock: BETDAH_clean_sbu_0, # of connection points: 6
#     Node 1, Type 0, BuildingBlock: BETDAH_clean_sbu_0, # of connection points: 6
#     Node 2, Type 0, BuildingBlock: BETDAH_clean_sbu_0, # of connection points: 6
#     Node 3, Type 0, BuildingBlock: BETDAH_clean_sbu_0, # of connection points: 6
#     Node 4, Type 0, BuildingBlock: BETDAH_clean_sbu_0, # of connection points: 6
#     Node 5, Type 0, BuildingBlock: BETDAH_clean_sbu_0, # of connection points: 6
#     Edge 6, Type (0, 0), BuildingBlock: XIVTED_clean_linker_0, # of connection points: 2
#     Edge 7, Type (0, 0), BuildingBlock: XIVTED_clean_linker_0, # of connection points: 2
#     Edge 8, Type (0, 0), BuildingBlock: XIVTED_clean_linker_0, # of connection points: 2
#     Edge 9, Type (0, 0), BuildingBlock: XIVTED_clean_linker_0, # of connection points: 2
#     Edge 10, Type (0, 0), BuildingBlock: XIVTED_clean_linker_0, # of connection points: 2
#     Edge 11, Type (0, 0), BuildingBlock: XIVTED_clean_linker_0, # of connection points: 2
#     Edge 12, Type (0, 0), BuildingBlock: XIVTED_clean_linker_0, # of connection points: 2
#     Edge 13, Type (0, 0), BuildingBlock: XIVTED_clean_linker_0, # of connection points: 2
#     Edge 14, Type (0, 0), BuildingBlock: XIVTED_clean_linker_0, # of connection points: 2
#     Edge 15, Type (0, 0), BuildingBlock: XIVTED_clean_linker_0, # of connection points: 2
#     Edge 16, Type (0, 0), BuildingBlock: XIVTED_clean_linker_0, # of connection points: 2
#     Edge 17, Type (0, 0), BuildingBlock: XIVTED_clean_linker_0, # of connection points: 2
#     Edge 18, Type (0, 0), BuildingBlock: XIVTED_clean_linker_0, # of connection points: 2
#     Edge 19, Type (0, 0), BuildingBlock: XIVTED_clean_linker_0, # of connection points: 2
#     Edge 20, Type (0, 0), BuildingBlock: XIVTED_clean_linker_0, # of connection points: 2
#     Edge 21, Type (0, 0), BuildingBlock: XIVTED_clean_linker_0, # of connection points: 2
#     Edge 22, Type (0, 0), BuildingBlock: XIVTED_clean_linker_0, # of connection points: 2
#     Edge 23, Type (0, 0), BuildingBlock: XIVTED_clean_linker_0, # of connection points: 2
# Relax obj value: 0.096
# Max RMSD: 0.179
# Mean RMSD: 0.179
data_MOF--net-qtz-e--node1-BETDAH_clean_sbu_0--edge1-XIVTED_clean_linker_0
_symmetry_space_group_name_H-M    P1
_symmetry_Int_Tables_number       1
_symmetry_cell_setting            triclinic
loop_
_symmetry_equiv_pos_as_xyz
'x, y, z'
_cell_length_a     25.6914
_cell_length_b     25.738654
_cell_length_c     52.155533
_cell_angle_alpha  90.018326
_cell_angle_beta   90.082384
_cell_angle_gamma 119.4733
loop_
_atom_site_label
_atom_site_type_symbol
_atom_site_fract_x
_atom_site_fract_y
_atom_site_fract_z
_atom_type_partial_charge
Ho0 Ho 0.19062 0.45081 0.06032 0.0
Ho1 Ho 0.15887 0.32334 0.04415 0.0
C2 C 0.13248 0.34405 0.10152 0.0
C3 C 0.19706 0.5501 0.07363 0.0
C4 C 0.2039 0.5763 0.09942 0.0
C5 C 0.18145 0.61492 0.10489 0.0
C6 C 0.18434 0.63618 0.12992 0.0
C7 C 0.20976 0.61912 0.1499 0.0
C8 C 0.23227 0.58049 0.14423 0.0
C9 C 0.22918 0.55921 0.11932 0.0
C10 C 0.27018 0.41633 0.0749 0.0
C11 C 0.21883 0.43208 1.00224 0.0
C12 C 0.15902 0.23347 0.02194 0.0
C13 C 0.18458 0.22763 0.99733 0.0
C14 C 0.23542 0.27632 0.98671 0.0
C15 C 0.25565 0.27227 0.96223 0.0
C16 C 0.22584 0.21922 0.94776 0.0
C17 C 0.1757 0.1701 0.95881 0.0
C18 C 0.15524 0.1744 0.98322 0.0
C19 C 0.07016 0.35027 0.0435 0.0
O20 O 0.13426 0.39314 0.09271 0.0
O21 O 0.14842 0.31171 0.08708 0.0
O22 O 0.24317 0.54646 0.06502 0.0
O23 O 0.14613 0.50113 0.06965 0.0
O24 O 0.25394 0.44738 0.08885 0.0
O25 O 0.24283 0.40503 0.05381 0.0
O26 O 0.19822 0.3752 1.00791 0.0
O27 O 0.21992 0.47099 0.01916 0.0
O28 O 0.11524 0.24532 0.01975 0.0
O29 O 0.19695 0.26498 0.04008 0.0
O30 O 0.06219 0.29939 0.05196 0.0
O31 O 0.12279 0.38223 0.03624 0.0
H32 H 0.16107 0.62804 0.08988 0.0
H33 H 0.16687 0.66612 0.13361 0.0
H34 H 0.25103 0.56544 0.15918 0.0
H35 H 0.24577 0.52857 0.11574 0.0
H36 H 0.25883 0.31809 0.99708 0.0
H37 H 0.29375 0.31145 0.9544 0.0
H38 H 0.15205 0.12815 0.9486 0.0
H39 H 0.11581 0.1363 0.99095 0.0
Ho40 Ho 0.69679 0.20027 0.38954 0.0
Ho41 Ho 0.80816 0.18878 0.37783 0.0
C42 C 0.75249 0.14773 0.43318 0.0
C43 C 0.59449 0.18331 0.40542 0.0
C44 C 0.57095 0.18038 0.43157 0.0
C45 C 0.5667 0.13725 0.44926 0.0
C46 C 0.5529 0.14033 0.47492 0.0
C47 C 0.54252 0.18631 0.48347 0.0
C48 C 0.54392 0.22767 0.46546 0.0
C49 C 0.55797 0.2247 0.4398 0.0
C50 C 0.80086 0.29874 0.39875 0.0
C51 C 0.75226 0.24065 0.33441 0.0
C52 C 0.9088 0.20401 0.36008 0.0
C53 C 0.93783 0.22079 0.33452 0.0
C54 C 0.94219 0.27001 0.32102 0.0
C55 C 0.96598 0.28299 0.29621 0.0
C56 C -0.01315 0.24756 0.28428 0.0
C57 C 0.98339 0.19888 0.29808 0.0
C58 C 0.95906 0.18563 0.32285 0.0
C59 C 0.70073 0.09316 0.36811 0.0
O60 O 0.7059 0.15126 0.42415 0.0
O61 O 0.80259 0.16737 0.41982 0.0
O62 O 0.63804 0.23561 0.39859 0.0
O63 O 0.60401 0.13979 0.39851 0.0
O64 O 0.75334 0.29925 0.39087 0.0
O65 O 0.79012 0.24629 0.40321 0.0
O66 O 0.80034 0.241 0.34406 0.0
O67 O 0.7014 0.21733 0.34732 0.0
O68 O 0.86046 0.15182 0.3614 0.0
O69 O 0.90361 0.24516 0.37279 0.0
O70 O 0.74381 0.08862 0.37895 0.0
O71 O 0.71712 0.14659 0.36362 0.0
H72 H 0.57592 0.10219 0.44349 0.0
H73 H 0.5526 0.1079 0.48823 0.0
H74 H 0.53489 0.26288 0.47125 0.0
H75 H 0.56054 0.25824 0.42652 0.0
H76 H 0.92635 0.29809 0.32947 0.0
H77 H 0.96678 0.32022 0.28621 0.0
H78 H -0.00021 0.17107 0.28984 0.0
H79 H 0.95636 0.1475 0.33286 0.0
Ho80 Ho 0.49487 0.6989 0.72446 0.0
Ho81 Ho 0.61316 0.80982 0.71055 0.0
C82 C 0.60641 0.76106 0.76645 0.0
C83 C 0.41571 0.59666 0.74221 0.0
C84 C 0.39295 0.57798 0.76849 0.0
C85 C 0.38378 0.52323 0.77807 0.0
C86 C 0.36565 0.50696 0.8035 0.0
C87 C 0.35624 0.54519 0.81986 0.0
C88 C 0.36534 0.59996 0.81005 0.0
C89 C 0.38386 0.61633 0.78474 0.0
C90 C 0.49544 0.80098 0.7336 0.0
C91 C 0.50277 0.75362 0.66983 0.0
C92 C 0.69311 0.9074 0.68902 0.0
C93 C 0.69946 0.93335 0.66286 0.0
C94 C 0.65953 0.95166 0.65361 0.0
C95 C 0.66508 0.97415 0.62865 0.0
C96 C 0.7108 0.97914 0.61218 0.0
C97 C 0.75101 0.96127 0.6216 0.0
C98 C 0.74546 0.93884 0.64657 0.0
C99 C 0.60288 0.70211 0.70062 0.0
O100 O 0.55668 0.71327 0.75845 0.0
O101 O 0.63445 0.80964 0.75214 0.0
O102 O 0.40211 0.63409 0.73117 0.0
O103 O 0.4716 0.61117 0.73874 0.0
O104 O 0.44811 0.75169 0.72743 0.0
O105 O 0.53957 0.7929 0.73712 0.0
O106 O 0.54761 0.80239 0.67982 0.0
O107 O 0.47996 0.70197 0.68211 0.0
O108 O 0.69776 0.85916 0.69062 0.0
O109 O 0.6504 0.90461 0.70364 0.0
O110 O 0.65023 0.74519 0.71117 0.0
O111 O 0.56512 0.71826 0.6969 0.0
H112 H 0.39151 0.49344 0.76597 0.0
H113 H 0.36008 0.46489 0.81046 0.0
H114 H 0.35775 0.6302 0.82185 0.0
H115 H 0.39145 0.65928 0.77795 0.0
H116 H 0.6236 0.94834 0.66557 0.0
H117 H 0.63374 0.98819 0.62237 0.0
H118 H 0.78632 0.96355 0.60954 0.0
H119 H 0.77695 0.92516 0.65308 0.0
Ho120 Ho 0.77811 0.52561 0.05941 0.0
Ho121 Ho 0.81796 0.65439 0.04309 0.0
C122 C 0.8444 0.63287 0.10014 0.0
C123 C 0.76504 0.42394 0.07308 0.0
C124 C 0.75772 0.39831 0.09906 0.0
C125 C 0.78736 0.3669 0.10596 0.0
C126 C 0.78531 0.3478 0.13131 0.0
C127 C 0.7536 0.35986 0.15024 0.0
C128 C 0.72355 0.39089 0.14311 0.0
C129 C 0.72572 0.41 0.11787 0.0
C130 C 0.70551 0.56793 0.07504 0.0
C131 C 0.74749 0.5456 1.0019 0.0
C132 C 0.82537 0.74652 0.01994 0.0
C133 C 0.80015 0.75228 0.99515 0.0
C134 C 0.74179 0.71023 0.98753 0.0
C135 C 0.72075 0.71269 0.96297 0.0
C136 C 0.7576 0.75706 0.94532 0.0
C137 C 0.81573 0.79958 0.95322 0.0
C138 C 0.83666 0.79717 0.97781 0.0
C139 C 0.90005 0.61835 0.04105 0.0
O140 O 0.83897 0.58223 0.09122 0.0
O141 O 0.83053 0.667 0.08585 0.0
O142 O 0.72064 0.43068 0.06448 0.0
O143 O 0.81754 0.47052 0.06862 0.0
O144 O 0.71997 0.53513 0.08876 0.0
O145 O 0.73123 0.57702 0.05365 0.0
O146 O 0.77133 0.60283 1.00766 0.0
O147 O 0.74559 0.50581 1.01853 0.0
O148 O 0.86611 0.73034 1.01804 0.0
O149 O 0.78765 0.71908 0.03868 0.0
O150 O 0.91252 0.6703 0.05003 0.0
O151 O 0.84661 0.58987 0.03436 0.0
H152 H 0.813 0.35811 0.09186 0.0
H153 H 0.80859 0.32363 0.13608 0.0
H154 H 0.69964 0.40197 0.15721 0.0
H155 H 0.70334 0.4351 0.11324 0.0
H156 H 0.71271 0.6746 1.00035 0.0
H157 H 0.67553 0.6796 0.95785 0.0
H158 H 0.8459 0.83389 0.94018 0.0
H159 H 0.88207 0.82961 0.98306 0.0
Ho160 Ho 0.27626 0.78404 0.38899 0.0
Ho161 Ho 0.16134 0.78902 0.37845 0.0
C162 C 0.2143 0.82562 0.43449 0.0
C163 C 0.37943 0.80646 0.40603 0.0
C164 C 0.39497 0.79973 0.43249 0.0
C165 C 0.45423 0.83038 0.4412 0.0
C166 C 0.46744 0.82525 0.46686 0.0
C167 C 0.42145 0.78937 0.4841 0.0
C168 C 0.36217 0.75907 0.47517 0.0
C169 C 0.34909 0.76432 0.44968 0.0
C170 C 0.17612 0.68064 0.39657 0.0
C171 C 0.22324 0.74753 0.33347 0.0
C172 C 0.05906 0.76904 0.36053 0.0
C173 C 0.03072 0.75182 0.3348 0.0
C174 C 0.02861 0.70367 0.32121 0.0
C175 C 0.00596 0.69076 0.29617 0.0
C176 C 0.9842 0.72527 0.28408 0.0
C177 C 0.98523 0.77272 0.298 0.0
C178 C 0.00832 0.78585 0.32301 0.0
C179 C 0.26551 0.88973 0.37045 0.0
O180 O 0.26182 0.82437 0.42525 0.0
O181 O 0.1649 0.80736 0.42071 0.0
O182 O 0.3426 0.75654 0.39445 0.0
O183 O 0.36444 0.84777 0.40286 0.0
O184 O 0.22575 0.68485 0.38867 0.0
O185 O 0.18289 0.73127 0.40218 0.0
O186 O 0.17353 0.74255 0.34357 0.0
O187 O 0.27416 0.77276 0.34642 0.0
O188 O 0.1057 0.82237 0.36221 0.0
O189 O 0.06651 0.72908 0.3731 0.0
O190 O 0.22064 0.8898 0.38178 0.0
O191 O 0.25258 0.83774 0.36465 0.0
H192 H 0.49008 0.85847 0.42825 0.0
H193 H 0.51358 0.84902 0.47316 0.0
H194 H 0.32559 0.73219 0.48802 0.0
H195 H 0.30285 0.74118 0.44342 0.0
H196 H 0.04568 0.67661 0.32968 0.0
H197 H 0.007 0.65451 0.2861 0.0
H198 H 0.96802 0.79974 0.28963 0.0
H199 H 0.00929 0.82315 0.33308 0.0
Ho200 Ho 0.47871 0.27739 0.72496 0.0
Ho201 Ho 0.36008 0.16371 0.71149 0.0
C202 C 0.37042 0.21139 0.76818 0.0
C203 C 0.5573 0.38127 0.74186 0.0
C204 C 0.57464 0.40603 0.76799 0.0
C205 C 0.53131 0.39239 0.78711 0.0
C206 C 0.54843 0.40978 0.81253 0.0
C207 C 0.60923 0.44209 0.81922 0.0
C208 C 0.65251 0.45794 0.79986 0.0
C209 C 0.63533 0.43973 0.7745 0.0
C210 C 0.48102 0.17607 0.73164 0.0
C211 C 0.4692 0.22418 0.6698 0.0
C212 C 0.28035 0.06393 0.6911 0.0
C213 C 0.27274 0.03583 0.66542 0.0
C214 C 0.32085 0.03572 0.6527 0.0
C215 C 0.31385 0.0121 0.62789 0.0
C216 C 0.25814 0.98692 0.61518 0.0
C217 C 0.20975 0.9862 0.62826 0.0
C218 C 0.21709 0.01057 0.65297 0.0
C219 C 0.36608 0.26975 0.70317 0.0
O220 O 0.42023 0.25932 0.7604 0.0
O221 O 0.34048 0.16401 0.75328 0.0
O222 O 0.5701 0.33946 0.73594 0.0
O223 O 0.50389 0.36861 0.73413 0.0
O224 O 0.52709 0.22585 0.72481 0.0
O225 O 0.43675 0.1831 0.73661 0.0
O226 O 0.42408 0.17481 0.67931 0.0
O227 O 0.49288 0.27519 0.68262 0.0
O228 O 0.27522 0.11197 0.69186 0.0
O229 O 0.32448 0.06882 0.70542 0.0
O230 O 0.31933 0.22498 0.71316 0.0
O231 O 0.40524 0.25579 0.6987 0.0
H232 H 0.48416 0.36725 0.78254 0.0
H233 H 0.51412 0.39773 0.82697 0.0
H234 H 0.69971 0.48265 0.80449 0.0
H235 H 0.66948 0.45065 0.76008 0.0
H236 H 0.36411 0.05433 0.6619 0.0
H237 H 0.35262 0.01459 0.61855 0.0
H238 H 0.16584 0.96635 0.61955 0.0
H239 H 0.17914 0.00984 0.66236 0.0
H240 H 0.31337 0.74426 0.30641 0.0
H241 H 0.12305 0.63019 0.17619 0.0
H242 H 0.1309 0.70679 0.29895 0.0
H243 H 0.30122 0.6557 0.18487 0.0
H244 H 0.12642 0.66151 0.22073 0.0
H245 H 0.31078 0.71416 0.2617 0.0
C246 C 0.27268 0.72962 0.29544 0.0
C247 C 0.22217 0.72801 0.30657 0.0
C248 C 0.16483 0.66032 0.21289 0.0
C249 C 0.21899 0.69371 0.25524 0.0
C250 C 0.1631 0.64286 0.18737 0.0
C251 C 0.21191 0.64023 0.17671 0.0
C252 C 0.21585 0.67557 0.22792 0.0
C253 C 0.26224 0.65632 0.19233 0.0
C254 C 0.27124 0.71243 0.26988 0.0
C255 C 0.17076 0.70856 0.29132 0.0
N256 N 0.2629 0.67328 0.21708 0.0
N257 N 0.17053 0.69234 0.26649 0.0
H258 H 0.52986 0.31703 0.63606 0.0
H259 H 0.47779 0.09729 0.51816 0.0
H260 H 0.45238 0.12623 0.64308 0.0
H261 H 0.58469 0.28894 0.51214 0.0
H262 H 0.46528 0.1079 0.56385 0.0
H263 H 0.54985 0.30905 0.59061 0.0
C264 C 0.51756 0.27358 0.62813 0.0
C265 C 0.48847 0.22204 0.64328 0.0
C266 C 0.49159 0.1477 0.55256 0.0
C267 C 0.51038 0.21248 0.59139 0.0
C268 C 0.49888 0.14163 0.52643 0.0
C269 C 0.53245 0.19225 0.51118 0.0
C270 C 0.51784 0.20484 0.56365 0.0
C271 C 0.55773 0.24865 0.523 0.0
C272 C 0.52865 0.26899 0.60218 0.0
C273 C 0.4734 0.1669 0.632 0.0
N274 N 0.5499 0.25342 0.54851 0.0
N275 N 0.48411 0.16352 0.60676 0.0
H276 H 0.28314 0.54632 0.98287 0.0
H277 H 0.27834 0.43411 0.8391 0.0
H278 H 0.20224 0.36095 0.96075 0.0
H279 H 0.38964 0.6174 0.86267 0.0
H280 H 0.24614 0.40756 0.88342 0.0
H281 H 0.31782 0.57468 0.93857 0.0
C282 C 0.2726 0.51164 0.96876 0.0
C283 C 0.23992 0.45118 0.97563 0.0
C284 C 0.27767 0.45362 0.87891 0.0
C285 C 0.27926 0.48322 0.925 0.0
C286 C 0.29644 0.4688 0.85357 0.0
C287 C 0.33685 0.52818 0.84697 0.0
C288 C 0.29903 0.4981 0.89792 0.0
C289 C 0.35767 0.57122 0.86666 0.0
C290 C 0.29257 0.52783 0.94351 0.0
C291 C 0.22771 0.40814 0.95651 0.0
N292 N 0.33844 0.55537 0.89119 0.0
N293 N 0.24722 0.42498 0.93215 0.0
H294 H 0.84764 0.28982 0.30137 0.0
H295 H 0.65941 0.31443 0.18398 0.0
H296 H 0.66108 0.23946 0.30634 0.0
H297 H 0.84578 0.36388 0.17873 0.0
H298 H 0.65972 0.28827 0.22895 0.0
H299 H 0.84851 0.31903 0.25682 0.0
C300 C 0.80687 0.28504 0.29318 0.0
C301 C 0.75419 0.26183 0.30773 0.0
C302 C 0.70056 0.30478 0.21798 0.0
C303 C 0.75476 0.29524 0.25645 0.0
C304 C 0.70051 0.31998 0.19228 0.0
C305 C 0.75269 0.34152 0.17744 0.0
C306 C 0.7532 0.3111 0.22911 0.0
C307 C 0.80429 0.34679 0.18925 0.0
C308 C 0.80738 0.30172 0.26765 0.0
C309 C 0.70278 0.25701 0.29594 0.0
N310 N 0.80326 0.33182 0.21435 0.0
N311 N 0.70433 0.27339 0.27103 0.0
H312 H 0.42711 0.66188 0.6379 0.0
H313 H 0.49896 0.87783 0.51652 0.0
H314 H 0.53746 0.85358 0.64094 0.0
H315 H 0.37321 0.68894 0.51411 0.0
H316 H 0.51605 0.86868 0.56198 0.0
H317 H 0.40669 0.66991 0.59254 0.0
C318 C 0.44656 0.70563 0.62914 0.0
C319 C 0.48433 0.75706 0.64325 0.0
C320 C 0.48466 0.8292 0.55153 0.0
C321 C 0.46188 0.76655 0.59137 0.0
C322 C 0.47529 0.83434 0.52549 0.0
C323 C 0.43448 0.78412 0.51147 0.0
C324 C 0.45319 0.77337 0.56367 0.0
C325 C 0.40449 0.729 0.52425 0.0
C326 C 0.43515 0.71019 0.60323 0.0
C327 C 0.50851 0.8126 0.63084 0.0
N328 N 0.41444 0.7251 0.54959 0.0
N329 N 0.49716 0.8158 0.60565 0.0
H330 H 0.67738 0.43217 0.98214 0.0
H331 H 0.69305 0.54988 0.83871 0.0
H332 H 0.76557 0.61845 0.96103 0.0
H333 H 0.56734 0.36981 0.86145 0.0
H334 H 0.72502 0.57401 0.88338 0.0
H335 H 0.64125 0.40609 0.93776 0.0
C336 C 0.68912 0.46749 0.96826 0.0
C337 C 0.72445 0.52755 0.97541 0.0
C338 C 0.69034 0.5292 0.87865 0.0
C339 C 0.68366 0.49814 0.92475 0.0
C340 C 0.67229 0.51542 0.85314 0.0
C341 C 0.62757 0.4578 0.84639 0.0
C342 C 0.66414 0.48482 0.89757 0.0
C343 C 0.60168 0.41493 0.8659 0.0
C344 C 0.66834 0.45263 0.94298 0.0
C345 C 0.73816 0.57152 0.95658 0.0
N346 N 0.62062 0.42917 0.8906 0.0
N347 N 0.718 0.55593 0.9322 0.0
H348 H 0.33916 0.41055 0.03657 0.0
H349 H 0.63796 0.54163 0.11818 0.0
H350 H 0.3417 0.45046 0.11712 0.0
H351 H 0.63451 0.57091 0.03686 0.0
H352 H 0.52923 0.49982 0.1195 0.0
H353 H 0.4478 0.45424 0.03767 0.0
C354 C 0.36248 0.42727 0.05462 0.0
C355 C 0.33182 0.42759 0.07676 0.0
C356 C 0.55254 0.51627 0.10148 0.0
C357 C 0.45553 0.4783 0.078 0.0
C358 C 0.61441 0.54059 0.10077 0.0
C359 C 0.64486 0.5592 0.07736 0.0
C360 C 0.5213 0.50978 0.07856 0.0
C361 C 0.6126 0.55685 0.05529 0.0
C362 C 0.42444 0.45297 0.05513 0.0
C363 C 0.36405 0.44983 0.09963 0.0
N364 N 0.55224 0.53144 0.05634 0.0
N365 N 0.42448 0.47474 0.09966 0.0
H366 H 0.16635 0.57137 0.39341 0.0
H367 H 0.90509 0.30774 0.4167 0.0
H368 H 0.06695 0.66036 0.41349 0.0
H369 H 0.82331 0.4125 0.39421 0.0
H370 H 0.00019 0.40018 0.42281 0.0
H371 H 0.07708 0.47551 0.40008 0.0
C372 C 0.12572 0.5706 0.39958 0.0
C373 C 0.12344 0.62352 0.40261 0.0
C374 C 0.96146 0.40278 0.41638 0.0
C375 C 0.02154 0.51418 0.41077 0.0
C376 C 0.90737 0.35022 0.41299 0.0
C377 C 0.85716 0.3529 0.40433 0.0
C378 C 0.96473 0.45782 0.41099 0.0
C379 C 0.86153 0.40874 0.40046 0.0
C380 C 0.07497 0.51583 0.40373 0.0
C381 C 0.07004 0.6203 0.41068 0.0
N382 N 0.91463 0.45916 0.40369 0.0
N383 N 0.02063 0.56623 0.41407 0.0
H384 H 0.57923 0.16337 0.72872 0.0
H385 H 0.39733 0.81355 0.73601 0.0
H386 H 0.39102 0.06697 0.74676 0.0
H387 H 0.58933 0.91208 0.74413 0.0
H388 H 0.39404 0.90577 0.74109 0.0
H389 H 0.58449 0.07234 0.73512 0.0
C390 C 0.53902 0.12293 0.73416 0.0
C391 C 0.48434 0.12204 0.73686 0.0
C392 C 0.43688 0.90728 0.74206 0.0
C393 C 0.49007 0.01816 0.74413 0.0
C394 C 0.43886 0.85475 0.73904 0.0
C395 C 0.49388 0.85579 0.73918 0.0
C396 C 0.49042 0.96124 0.7448 0.0
C397 C 0.54621 0.90992 0.74347 0.0
C398 C 0.54218 0.07118 0.73797 0.0
C399 C 0.43375 0.06896 0.74414 0.0
N400 N 0.54333 0.96099 0.74574 0.0
N401 N 0.43766 0.01867 0.74724 0.0
H402 H 0.60125 0.6294 0.73938 0.0
H403 H 0.3957 0.33482 0.66053 0.0
H404 H 0.55779 0.63203 0.65975 0.0
H405 H 0.37496 0.34508 0.74198 0.0
H406 H 0.4615 0.44244 0.65928 0.0
H407 H 0.53204 0.52075 0.74013 0.0
C408 C 0.57937 0.60658 0.72181 0.0
C409 C 0.58523 0.63895 0.69938 0.0
C410 C 0.44142 0.42159 0.67737 0.0
C411 C 0.50491 0.51706 0.70038 0.0
C412 C 0.40292 0.36043 0.67797 0.0
C413 C 0.37973 0.33168 0.70132 0.0
C414 C 0.45775 0.45387 0.7004 0.0
C415 C 0.39137 0.36623 0.72356 0.0
C416 C 0.53876 0.5452 0.72242 0.0
C417 C 0.55461 0.60814 0.6773 0.0
N418 N 0.43097 0.42585 0.7227 0.0
N419 N 0.5153 0.54897 0.6784 0.0
H420 H 0.01998 0.3728 0.08537 0.0
H421 H 0.92384 0.57037 1.00073 0.0
H422 H 0.03274 0.38594 1.00304 0.0
H423 H 0.95355 0.59681 0.08214 0.0
H424 H 0.9571 0.49682 1.00187 0.0
H425 H 0.98254 0.44451 0.08557 0.0
C426 C 0.01251 0.38895 0.06733 0.0
C427 C 0.02837 0.37319 0.04409 0.0
C428 C 0.95754 0.51928 0.0195 0.0
C429 C -0.01173 0.4559 0.04418 0.0
C430 C 0.93948 0.56192 0.01874 0.0
C431 C 0.93741 0.59027 0.04124 0.0
C432 C 0.97254 0.5039 0.04309 0.0
C433 C 0.95612 0.57668 0.0643 0.0
C434 C -0.00755 0.43066 0.06747 0.0
C435 C 0.01994 0.39649 0.02127 0.0
N436 N 0.9724 0.53366 0.06473 0.0
N437 N 0.0008 0.43692 0.02189 0.0
H438 H 0.33336 0.95492 0.41126 0.0
H439 H 0.63307 0.02459 0.40826 0.0
H440 H 0.3382 0.9256 0.33016 0.0
H441 H 0.62541 0.06849 0.3291 0.0
H442 H 0.52384 0.98197 0.41112 0.0
H443 H 0.44313 0.00089 0.41272 0.0
C444 C 0.35789 0.96051 0.39365 0.0
C445 C 0.32756 0.93708 0.37051 0.0
C446 C 0.54619 0.00065 0.39313 0.0
C447 C 0.45072 0.98526 0.37223 0.0
C448 C 0.60796 0.02312 0.3913 0.0
C449 C 0.63738 0.04925 0.36833 0.0
C450 C 0.51489 0.00482 0.37178 0.0
C451 C 0.60376 0.0481 0.34704 0.0
C452 C 0.42003 0.98485 0.39461 0.0
C453 C 0.36052 0.94365 0.34828 0.0
N454 N 0.54425 0.02653 0.3493 0.0
N455 N 0.4204 0.96674 0.34971 0.0
H456 H 0.43531 0.27915 0.80906 0.0
H457 H 0.15759 0.15863 0.90558 0.0
H458 H 0.25768 0.14192 0.78836 0.0
H459 H 0.34107 0.27178 0.92884 0.0
H460 H 0.19206 0.15446 0.86236 0.0
H461 H 0.40032 0.28049 0.85238 0.0
C462 C 0.38875 0.24963 0.81352 0.0
C463 C 0.3493 0.21094 0.79482 0.0
C464 C 0.22476 0.18009 0.87695 0.0
C465 C 0.30875 0.21161 0.84485 0.0
C466 C 0.20515 0.18224 0.90178 0.0
C467 C 0.2463 0.2156 0.92119 0.0
C468 C 0.28608 0.2118 0.87122 0.0
C469 C 0.30733 0.2462 0.91463 0.0
C470 C 0.36885 0.25005 0.83842 0.0
C471 C 0.28974 0.17253 0.80209 0.0
N472 N 0.3252 0.24365 0.89031 0.0
N473 N 0.27123 0.17406 0.82646 0.0
H474 H 0.05389 0.35756 0.26166 0.0
H475 H 0.09587 0.23591 0.12601 0.0
H476 H 0.97717 0.16931 0.24568 0.0
H477 H 0.12451 0.4138 0.13885 0.0
H478 H 0.06225 0.21103 0.17079 0.0
H479 H 0.09012 0.37935 0.21772 0.0
C480 C 0.04423 0.32062 0.24896 0.0
C481 C 0.01165 0.26134 0.25759 0.0
C482 C 0.07593 0.25544 0.1637 0.0
C483 C 0.05453 0.28639 0.20691 0.0
C484 C 0.09526 0.2697 0.13818 0.0
C485 C 0.11273 0.3269 0.12852 0.0
C486 C 0.07496 0.29899 0.17972 0.0
C487 C 0.111 0.36891 0.14524 0.0
C488 C 0.06536 0.33321 0.2238 0.0
C489 C 0.00243 0.21574 0.24014 0.0
N490 N 0.0927 0.35417 0.16989 0.0
N491 N 0.02364 0.22918 0.21568 0.0
H492 H 0.62109 0.96213 0.57827 0.0
H493 H 0.84198 0.15005 0.46339 0.0
H494 H 0.81344 0.05002 0.58451 0.0
H495 H 0.65201 0.08557 0.46258 0.0
H496 H 0.83227 0.10833 0.50655 0.0
H497 H 0.63138 0.0021 0.53495 0.0
C498 C 0.66556 -0.00988 0.57069 0.0
C499 C 0.71644 0.00273 0.58539 0.0
C500 C 0.79272 0.10338 0.49691 0.0
C501 C 0.72854 0.0482 0.53521 0.0
C502 C 0.79821 0.1271 0.4722 0.0
C503 C 0.74781 0.12181 0.45925 0.0
C504 C 0.73631 0.07362 0.50879 0.0
C505 C 0.69227 0.09146 0.47179 0.0
C506 C 0.67139 0.01271 0.54579 0.0
C507 C 0.77279 0.03829 0.574 0.0
N508 N 0.68805 0.06858 0.49573 0.0
N509 N 0.77727 0.05969 0.54971 0.0
H510 H 0.5705 0.66515 0.79869 0.0
H511 H 0.78111 0.855 0.91562 0.0
H512 H 0.69513 0.85401 0.79397 0.0
H513 H 0.68469 0.66233 0.91388 0.0
H514 H 0.74637 0.8561 0.87209 0.0
H515 H 0.60751 0.66396 0.84176 0.0
C516 C 0.60568 0.70646 0.80665 0.0
C517 C 0.62964 0.75984 0.79254 0.0
C518 C 0.73284 0.81359 0.88123 0.0
C519 C 0.67215 0.75873 0.8422 0.0
C520 C 0.75293 0.81284 0.90613 0.0
C521 C 0.73596 0.75847 0.91872 0.0
C522 C 0.69502 0.7596 0.86866 0.0
C523 C 0.69829 0.70544 0.90534 0.0
C524 C 0.62689 0.70567 0.8313 0.0
C525 C 0.67533 0.81179 0.80401 0.0
N526 N 0.67911 0.70738 0.88117 0.0
N527 N 0.69484 0.80997 0.82815 0.0
H528 H 0.92134 0.61583 0.26036 0.0
H529 H 0.88126 0.7404 0.12516 0.0
H530 H -0.00595 0.80414 0.24582 0.0
H531 H 0.85446 0.56283 0.13684 0.0
H532 H 0.91427 0.76419 0.17006 0.0
H533 H 0.88791 0.59511 0.21594 0.0
C534 C 0.9307 0.65301 0.24787 0.0
C535 C 0.96123 0.712 0.25707 0.0
C536 C 0.90123 0.72011 0.16269 0.0
C537 C 0.92161 0.68815 0.20585 0.0
C538 C 0.8823 0.70648 0.13708 0.0
C539 C 0.86527 0.64962 0.12707 0.0
C540 C 0.90234 0.67631 0.17847 0.0
C541 C 0.86751 0.60744 0.14351 0.0
C542 C 0.9112 0.64102 0.22244 0.0
C543 C 0.97025 0.75789 0.23986 0.0
N544 N 0.8854 0.62156 0.16828 0.0
N545 N 0.95061 0.74503 0.21513 0.0
H546 H 0.3141 0.92961 0.59318 0.0
H547 H 0.13813 0.85644 0.45914 0.0
H548 H 0.18481 0.98579 0.57587 0.0
H549 H 0.29871 0.84546 0.47109 0.0
H550 H 0.14753 0.89498 0.50303 0.0
H551 H 0.3027 0.89058 0.5497 0.0
C552 C 0.28357 0.93427 0.58032 0.0
C553 C 0.25065 0.96163 0.58855 0.0
C554 C 0.18063 0.88406 0.496 0.0
C555 C 0.23632 0.91519 0.53839 0.0
C556 C 0.17516 0.86182 0.47096 0.0
C557 C 0.21765 0.84762 0.46126 0.0
C558 C 0.22854 0.89153 0.51163 0.0
C559 C 0.26486 0.85587 0.47756 0.0
C560 C 0.2768 0.91146 0.55542 0.0
C561 C 0.21065 0.96449 0.57081 0.0
N562 N 0.26885 0.87698 0.50183 0.0
N563 N 0.20459 0.94157 0.5467 0.0
loop_
_geom_bond_atom_site_label_1
_geom_bond_atom_site_label_2
_geom_bond_distance
_geom_bond_site_symmetry_2
_ccdc_geom_bond_type
Ho0 C3 2.811 . S
Ho0 O20 2.322 . S
Ho0 O22 2.378 . S
Ho0 O23 2.524 . S
Ho0 O24 2.381 . S
Ho0 O25 2.669 . S
Ho0 O27 2.346 . S
Ho0 O31 2.305 . S
Ho1 C12 2.811 1_554 S
Ho1 O21 2.346 . S
Ho1 O25 2.305 . S
Ho1 O26 2.322 1_554 S
Ho1 O28 2.378 1_554 S
Ho1 O29 2.524 1_554 S
Ho1 O30 2.381 . S
Ho1 O31 2.669 . S
C2 O20 1.259 . S
C2 O21 1.268 . S
C3 Ho0 2.811 . S
C3 C4 1.488 . S
C3 O22 1.215 . S
C3 O23 1.289 . S
C4 C3 1.488 . S
C4 C5 1.348 . S
C4 C9 1.413 . S
C5 C4 1.348 . S
C5 C6 1.442 . S
C5 H32 0.930 . S
C6 C5 1.442 . S
C6 C7 1.381 . S
C6 H33 0.931 . S
C7 C6 1.381 . S
C7 C8 1.321 . S
C8 C7 1.321 . S
C8 C9 1.403 . S
C8 H34 0.934 . S
C9 C4 1.413 . S
C9 C8 1.403 . S
C9 H35 0.930 . S
C10 O24 1.275 . S
C10 O25 1.256 . S
C11 O26 1.259 . S
C11 O27 1.268 1_556 S
C12 Ho1 2.811 1_556 S
C12 C13 1.488 . S
C12 O28 1.215 . S
C12 O29 1.289 . S
C13 C12 1.488 . S
C13 C14 1.348 . S
C13 C18 1.413 . S
C14 C13 1.348 . S
C14 C15 1.442 . S
C14 H36 0.930 . S
C15 C14 1.442 . S
C15 C16 1.381 . S
C15 H37 0.931 . S
C16 C15 1.381 . S
C16 C17 1.321 . S
C17 C16 1.321 . S
C17 C18 1.403 . S
C17 H38 0.934 . S
C18 C13 1.413 . S
C18 C17 1.403 . S
C18 H39 0.930 . S
C19 O30 1.275 . S
C19 O31 1.256 . S
O20 Ho0 2.322 . S
O20 C2 1.259 . S
O21 Ho1 2.346 . S
O21 C2 1.268 . S
O22 Ho0 2.378 . S
O22 C3 1.215 . S
O23 Ho0 2.524 . S
O23 C3 1.289 . S
O24 Ho0 2.381 . S
O24 C10 1.275 . S
O25 Ho0 2.669 . S
O25 Ho1 2.305 . S
O25 C10 1.256 . S
O26 Ho1 2.322 1_556 S
O26 C11 1.259 . S
O27 Ho0 2.346 . S
O27 C11 1.268 1_554 S
O28 Ho1 2.378 1_556 S
O28 C12 1.215 . S
O29 Ho1 2.524 1_556 S
O29 C12 1.289 . S
O30 Ho1 2.381 . S
O30 C19 1.275 . S
O31 Ho0 2.305 . S
O31 Ho1 2.669 . S
O31 C19 1.256 . S
H32 C5 0.930 . S
H33 C6 0.931 . S
H34 C8 0.934 . S
H35 C9 0.930 . S
H36 C14 0.930 . S
H37 C15 0.931 . S
H38 C17 0.934 . S
H39 C18 0.930 . S
Ho40 C43 2.811 . S
Ho40 O60 2.322 . S
Ho40 O62 2.378 . S
Ho40 O63 2.524 . S
Ho40 O64 2.381 . S
Ho40 O65 2.669 . S
Ho40 O67 2.346 . S
Ho40 O71 2.305 . S
Ho41 C52 2.811 . S
Ho41 O61 2.346 . S
Ho41 O65 2.305 . S
Ho41 O66 2.322 . S
Ho41 O68 2.378 . S
Ho41 O69 2.524 . S
Ho41 O70 2.381 . S
Ho41 O71 2.669 . S
C42 O60 1.259 . S
C42 O61 1.268 . S
C43 Ho40 2.811 . S
C43 C44 1.488 . S
C43 O62 1.215 . S
C43 O63 1.289 . S
C44 C43 1.488 . S
C44 C45 1.348 . S
C44 C49 1.413 . S
C45 C44 1.348 . S
C45 C46 1.442 . S
C45 H72 0.930 . S
C46 C45 1.442 . S
C46 C47 1.381 . S
C46 H73 0.931 . S
C47 C46 1.381 . S
C47 C48 1.321 . S
C48 C47 1.321 . S
C48 C49 1.403 . S
C48 H74 0.934 . S
C49 C44 1.413 . S
C49 C48 1.403 . S
C49 H75 0.930 . S
C50 O64 1.275 . S
C50 O65 1.256 . S
C51 O66 1.259 . S
C51 O67 1.268 . S
C52 Ho41 2.811 . S
C52 C53 1.488 . S
C52 O68 1.215 . S
C52 O69 1.289 . S
C53 C52 1.488 . S
C53 C54 1.348 . S
C53 C58 1.413 . S
C54 C53 1.348 . S
C54 C55 1.442 . S
C54 H76 0.930 . S
C55 C54 1.442 . S
C55 C56 1.381 . S
C55 H77 0.931 1_655 S
C56 C55 1.381 . S
C56 C57 1.321 . S
C57 C56 1.321 . S
C57 C58 1.403 . S
C57 H78 0.934 . S
C58 C53 1.413 . S
C58 C57 1.403 . S
C58 H79 0.930 . S
C59 O70 1.275 . S
C59 O71 1.256 . S
O60 Ho40 2.322 . S
O60 C42 1.259 . S
O61 Ho41 2.346 . S
O61 C42 1.268 . S
O62 Ho40 2.378 . S
O62 C43 1.215 . S
O63 Ho40 2.524 . S
O63 C43 1.289 . S
O64 Ho40 2.381 . S
O64 C50 1.275 . S
O65 Ho40 2.669 . S
O65 Ho41 2.305 . S
O65 C50 1.256 . S
O66 Ho41 2.322 . S
O66 C51 1.259 . S
O67 Ho40 2.346 . S
O67 C51 1.268 . S
O68 Ho41 2.378 . S
O68 C52 1.215 . S
O69 Ho41 2.524 . S
O69 C52 1.289 . S
O70 Ho41 2.381 . S
O70 C59 1.275 . S
O71 Ho40 2.305 . S
O71 Ho41 2.669 . S
O71 C59 1.256 . S
H72 C45 0.930 . S
H73 C46 0.931 . S
H74 C48 0.934 . S
H75 C49 0.930 . S
H76 C54 0.930 . S
H77 C55 0.931 1_455 S
H78 C57 0.934 . S
H79 C58 0.930 . S
Ho80 C83 2.811 . S
Ho80 O100 2.322 . S
Ho80 O102 2.378 . S
Ho80 O103 2.524 . S
Ho80 O104 2.381 . S
Ho80 O105 2.669 . S
Ho80 O107 2.346 . S
Ho80 O111 2.305 . S
Ho81 C92 2.811 . S
Ho81 O101 2.346 . S
Ho81 O105 2.305 . S
Ho81 O106 2.322 . S
Ho81 O108 2.378 . S
Ho81 O109 2.524 . S
Ho81 O110 2.381 . S
Ho81 O111 2.669 . S
C82 O100 1.259 . S
C82 O101 1.268 . S
C83 Ho80 2.811 . S
C83 C84 1.488 . S
C83 O102 1.215 . S
C83 O103 1.289 . S
C84 C83 1.488 . S
C84 C85 1.348 . S
C84 C89 1.413 . S
C85 C84 1.348 . S
C85 C86 1.442 . S
C85 H112 0.930 . S
C86 C85 1.442 . S
C86 C87 1.381 . S
C86 H113 0.931 . S
C87 C86 1.381 . S
C87 C88 1.321 . S
C88 C87 1.321 . S
C88 C89 1.403 . S
C88 H114 0.934 . S
C89 C84 1.413 . S
C89 C88 1.403 . S
C89 H115 0.930 . S
C90 O104 1.275 . S
C90 O105 1.256 . S
C91 O106 1.259 . S
C91 O107 1.268 . S
C92 Ho81 2.811 . S
C92 C93 1.488 . S
C92 O108 1.215 . S
C92 O109 1.289 . S
C93 C92 1.488 . S
C93 C94 1.348 . S
C93 C98 1.413 . S
C94 C93 1.348 . S
C94 C95 1.442 . S
C94 H116 0.930 . S
C95 C94 1.442 . S
C95 C96 1.381 . S
C95 H117 0.931 1_565 S
C96 C95 1.381 . S
C96 C97 1.321 . S
C97 C96 1.321 . S
C97 C98 1.403 . S
C97 H118 0.934 . S
C98 C93 1.413 . S
C98 C97 1.403 . S
C98 H119 0.930 . S
C99 O110 1.275 . S
C99 O111 1.256 . S
O100 Ho80 2.322 . S
O100 C82 1.259 . S
O101 Ho81 2.346 . S
O101 C82 1.268 . S
O102 Ho80 2.378 . S
O102 C83 1.215 . S
O103 Ho80 2.524 . S
O103 C83 1.289 . S
O104 Ho80 2.381 . S
O104 C90 1.275 . S
O105 Ho80 2.669 . S
O105 Ho81 2.305 . S
O105 C90 1.256 . S
O106 Ho81 2.322 . S
O106 C91 1.259 . S
O107 Ho80 2.346 . S
O107 C91 1.268 . S
O108 Ho81 2.378 . S
O108 C92 1.215 . S
O109 Ho81 2.524 . S
O109 C92 1.289 . S
O110 Ho81 2.381 . S
O110 C99 1.275 . S
O111 Ho80 2.305 . S
O111 Ho81 2.669 . S
O111 C99 1.256 . S
H112 C85 0.930 . S
H113 C86 0.931 . S
H114 C88 0.934 . S
H115 C89 0.930 . S
H116 C94 0.930 . S
H117 C95 0.931 1_545 S
H118 C97 0.934 . S
H119 C98 0.930 . S
Ho120 C123 2.811 . S
Ho120 O140 2.322 . S
Ho120 O142 2.378 . S
Ho120 O143 2.524 . S
Ho120 O144 2.381 . S
Ho120 O145 2.669 . S
Ho120 O147 2.346 . S
Ho120 O151 2.305 . S
Ho121 C132 2.811 1_554 S
Ho121 O141 2.346 . S
Ho121 O145 2.305 . S
Ho121 O146 2.322 1_554 S
Ho121 O148 2.378 1_554 S
Ho121 O149 2.524 1_554 S
Ho121 O150 2.381 . S
Ho121 O151 2.669 . S
C122 O140 1.259 . S
C122 O141 1.268 . S
C123 Ho120 2.811 . S
C123 C124 1.488 . S
C123 O142 1.215 . S
C123 O143 1.289 . S
C124 C123 1.488 . S
C124 C125 1.348 . S
C124 C129 1.413 . S
C125 C124 1.348 . S
C125 C126 1.442 . S
C125 H152 0.930 . S
C126 C125 1.442 . S
C126 C127 1.381 . S
C126 H153 0.931 . S
C127 C126 1.381 . S
C127 C128 1.321 . S
C128 C127 1.321 . S
C128 C129 1.403 . S
C128 H154 0.934 . S
C129 C124 1.413 . S
C129 C128 1.403 . S
C129 H155 0.930 . S
C130 O144 1.275 . S
C130 O145 1.256 . S
C131 O146 1.259 . S
C131 O147 1.268 1_556 S
C132 Ho121 2.811 1_556 S
C132 C133 1.488 . S
C132 O148 1.215 . S
C132 O149 1.289 . S
C133 C132 1.488 . S
C133 C134 1.348 . S
C133 C138 1.413 . S
C134 C133 1.348 . S
C134 C135 1.442 . S
C134 H156 0.930 . S
C135 C134 1.442 . S
C135 C136 1.381 . S
C135 H157 0.931 . S
C136 C135 1.381 . S
C136 C137 1.321 . S
C137 C136 1.321 . S
C137 C138 1.403 . S
C137 H158 0.934 . S
C138 C133 1.413 . S
C138 C137 1.403 . S
C138 H159 0.930 . S
C139 O150 1.275 . S
C139 O151 1.256 . S
O140 Ho120 2.322 . S
O140 C122 1.259 . S
O141 Ho121 2.346 . S
O141 C122 1.268 . S
O142 Ho120 2.378 . S
O142 C123 1.215 . S
O143 Ho120 2.524 . S
O143 C123 1.289 . S
O144 Ho120 2.381 . S
O144 C130 1.275 . S
O145 Ho120 2.669 . S
O145 Ho121 2.305 . S
O145 C130 1.256 . S
O146 Ho121 2.322 1_556 S
O146 C131 1.259 . S
O147 Ho120 2.346 . S
O147 C131 1.268 1_554 S
O148 Ho121 2.378 1_556 S
O148 C132 1.215 . S
O149 Ho121 2.524 1_556 S
O149 C132 1.289 . S
O150 Ho121 2.381 . S
O150 C139 1.275 . S
O151 Ho120 2.305 . S
O151 Ho121 2.669 . S
O151 C139 1.256 . S
H152 C125 0.930 . S
H153 C126 0.931 . S
H154 C128 0.934 . S
H155 C129 0.930 . S
H156 C134 0.930 . S
H157 C135 0.931 . S
H158 C137 0.934 . S
H159 C138 0.930 . S
Ho160 C163 2.811 . S
Ho160 O180 2.322 . S
Ho160 O182 2.378 . S
Ho160 O183 2.524 . S
Ho160 O184 2.381 . S
Ho160 O185 2.669 . S
Ho160 O187 2.346 . S
Ho160 O191 2.305 . S
Ho161 C172 2.811 . S
Ho161 O181 2.346 . S
Ho161 O185 2.305 . S
Ho161 O186 2.322 . S
Ho161 O188 2.378 . S
Ho161 O189 2.524 . S
Ho161 O190 2.381 . S
Ho161 O191 2.669 . S
C162 O180 1.259 . S
C162 O181 1.268 . S
C163 Ho160 2.811 . S
C163 C164 1.488 . S
C163 O182 1.215 . S
C163 O183 1.289 . S
C164 C163 1.488 . S
C164 C165 1.348 . S
C164 C169 1.413 . S
C165 C164 1.348 . S
C165 C166 1.442 . S
C165 H192 0.930 . S
C166 C165 1.442 . S
C166 C167 1.381 . S
C166 H193 0.931 . S
C167 C166 1.381 . S
C167 C168 1.321 . S
C168 C167 1.321 . S
C168 C169 1.403 . S
C168 H194 0.934 . S
C169 C164 1.413 . S
C169 C168 1.403 . S
C169 H195 0.930 . S
C170 O184 1.275 . S
C170 O185 1.256 . S
C171 O186 1.259 . S
C171 O187 1.268 . S
C172 Ho161 2.811 . S
C172 C173 1.488 . S
C172 O188 1.215 . S
C172 O189 1.289 . S
C173 C172 1.488 . S
C173 C174 1.348 . S
C173 C178 1.413 . S
C174 C173 1.348 . S
C174 C175 1.442 . S
C174 H196 0.930 . S
C175 C174 1.442 . S
C175 C176 1.381 . S
C175 H197 0.931 1_455 S
C176 C175 1.381 . S
C176 C177 1.321 . S
C177 C176 1.321 . S
C177 C178 1.403 . S
C177 H198 0.934 . S
C178 C173 1.413 . S
C178 C177 1.403 . S
C178 H199 0.930 . S
C179 O190 1.275 . S
C179 O191 1.256 . S
O180 Ho160 2.322 . S
O180 C162 1.259 . S
O181 Ho161 2.346 . S
O181 C162 1.268 . S
O182 Ho160 2.378 . S
O182 C163 1.215 . S
O183 Ho160 2.524 . S
O183 C163 1.289 . S
O184 Ho160 2.381 . S
O184 C170 1.275 . S
O185 Ho160 2.669 . S
O185 Ho161 2.305 . S
O185 C170 1.256 . S
O186 Ho161 2.322 . S
O186 C171 1.259 . S
O187 Ho160 2.346 . S
O187 C171 1.268 . S
O188 Ho161 2.378 . S
O188 C172 1.215 . S
O189 Ho161 2.524 . S
O189 C172 1.289 . S
O190 Ho161 2.381 . S
O190 C179 1.275 . S
O191 Ho160 2.305 . S
O191 Ho161 2.669 . S
O191 C179 1.256 . S
H192 C165 0.930 . S
H193 C166 0.931 . S
H194 C168 0.934 . S
H195 C169 0.930 . S
H196 C174 0.930 . S
H197 C175 0.931 1_655 S
H198 C177 0.934 . S
H199 C178 0.930 . S
Ho200 C203 2.811 . S
Ho200 O220 2.322 . S
Ho200 O222 2.378 . S
Ho200 O223 2.524 . S
Ho200 O224 2.381 . S
Ho200 O225 2.669 . S
Ho200 O227 2.346 . S
Ho200 O231 2.305 . S
Ho201 C212 2.811 . S
Ho201 O221 2.346 . S
Ho201 O225 2.305 . S
Ho201 O226 2.322 . S
Ho201 O228 2.378 . S
Ho201 O229 2.524 . S
Ho201 O230 2.381 . S
Ho201 O231 2.669 . S
C202 O220 1.259 . S
C202 O221 1.268 . S
C203 Ho200 2.811 . S
C203 C204 1.488 . S
C203 O222 1.215 . S
C203 O223 1.289 . S
C204 C203 1.488 . S
C204 C205 1.348 . S
C204 C209 1.413 . S
C205 C204 1.348 . S
C205 C206 1.442 . S
C205 H232 0.930 . S
C206 C205 1.442 . S
C206 C207 1.381 . S
C206 H233 0.931 . S
C207 C206 1.381 . S
C207 C208 1.321 . S
C208 C207 1.321 . S
C208 C209 1.403 . S
C208 H234 0.934 . S
C209 C204 1.413 . S
C209 C208 1.403 . S
C209 H235 0.930 . S
C210 O224 1.275 . S
C210 O225 1.256 . S
C211 O226 1.259 . S
C211 O227 1.268 . S
C212 Ho201 2.811 . S
C212 C213 1.488 . S
C212 O228 1.215 . S
C212 O229 1.289 . S
C213 C212 1.488 . S
C213 C214 1.348 . S
C213 C218 1.413 . S
C214 C213 1.348 . S
C214 C215 1.442 . S
C214 H236 0.930 . S
C215 C214 1.442 . S
C215 C216 1.381 . S
C215 H237 0.931 1_545 S
C216 C215 1.381 . S
C216 C217 1.321 . S
C217 C216 1.321 . S
C217 C218 1.403 . S
C217 H238 0.934 . S
C218 C213 1.413 . S
C218 C217 1.403 . S
C218 H239 0.930 . S
C219 O230 1.275 . S
C219 O231 1.256 . S
O220 Ho200 2.322 . S
O220 C202 1.259 . S
O221 Ho201 2.346 . S
O221 C202 1.268 . S
O222 Ho200 2.378 . S
O222 C203 1.215 . S
O223 Ho200 2.524 . S
O223 C203 1.289 . S
O224 Ho200 2.381 . S
O224 C210 1.275 . S
O225 Ho200 2.669 . S
O225 Ho201 2.305 . S
O225 C210 1.256 . S
O226 Ho201 2.322 . S
O226 C211 1.259 . S
O227 Ho200 2.346 . S
O227 C211 1.268 . S
O228 Ho201 2.378 . S
O228 C212 1.215 . S
O229 Ho201 2.524 . S
O229 C212 1.289 . S
O230 Ho201 2.381 . S
O230 C219 1.275 . S
O231 Ho200 2.305 . S
O231 Ho201 2.669 . S
O231 C219 1.256 . S
H232 C205 0.930 . S
H233 C206 0.931 . S
H234 C208 0.934 . S
H235 C209 0.930 . S
H236 C214 0.930 . S
H237 C215 0.931 1_565 S
H238 C217 0.934 . S
H239 C218 0.930 . S
H240 C246 0.930 . S
H241 C250 0.930 . S
H242 C255 0.929 . S
H243 C253 0.929 . S
H244 C248 0.929 . S
H245 C254 0.929 . S
C246 H240 0.930 . S
C246 C247 1.367 . S
C246 C254 1.378 . S
C247 C246 1.367 . S
C247 C255 1.433 . S
C248 H244 0.929 . S
C248 C250 1.378 . S
C248 C252 1.350 . S
C249 C252 1.463 . S
C249 C254 1.350 . S
C249 N257 1.427 . S
C250 H241 0.930 . S
C250 C248 1.378 . S
C250 C251 1.367 . S
C251 C250 1.367 . S
C251 C253 1.433 . S
C252 C248 1.350 . S
C252 C249 1.463 . S
C252 N256 1.427 . S
C253 H243 0.929 . S
C253 C251 1.433 . S
C253 N256 1.384 . S
C254 H245 0.929 . S
C254 C246 1.378 . S
C254 C249 1.350 . S
C255 H242 0.929 . S
C255 C247 1.433 . S
C255 N257 1.384 . S
N256 C252 1.427 . S
N256 C253 1.384 . S
N257 C249 1.427 . S
N257 C255 1.384 . S
H258 C264 0.930 . S
H259 C268 0.930 . S
H260 C273 0.929 . S
H261 C271 0.929 . S
H262 C266 0.929 . S
H263 C272 0.929 . S
C264 H258 0.930 . S
C264 C265 1.367 . S
C264 C272 1.378 . S
C265 C264 1.367 . S
C265 C273 1.433 . S
C266 H262 0.929 . S
C266 C268 1.378 . S
C266 C270 1.350 . S
C267 C270 1.463 . S
C267 C272 1.350 . S
C267 N275 1.427 . S
C268 H259 0.930 . S
C268 C266 1.378 . S
C268 C269 1.367 . S
C269 C268 1.367 . S
C269 C271 1.433 . S
C270 C266 1.350 . S
C270 C267 1.463 . S
C270 N274 1.427 . S
C271 H261 0.929 . S
C271 C269 1.433 . S
C271 N274 1.384 . S
C272 H263 0.929 . S
C272 C264 1.378 . S
C272 C267 1.350 . S
C273 H260 0.929 . S
C273 C265 1.433 . S
C273 N275 1.384 . S
N274 C270 1.427 . S
N274 C271 1.384 . S
N275 C267 1.427 . S
N275 C273 1.384 . S
H276 C282 0.930 . S
H277 C286 0.930 . S
H278 C291 0.929 . S
H279 C289 0.929 . S
H280 C284 0.929 . S
H281 C290 0.929 . S
C282 H276 0.930 . S
C282 C283 1.367 . S
C282 C290 1.378 . S
C283 C282 1.367 . S
C283 C291 1.433 . S
C284 H280 0.929 . S
C284 C286 1.378 . S
C284 C288 1.350 . S
C285 C288 1.463 . S
C285 C290 1.350 . S
C285 N293 1.427 . S
C286 H277 0.930 . S
C286 C284 1.378 . S
C286 C287 1.367 . S
C287 C286 1.367 . S
C287 C289 1.433 . S
C288 C284 1.350 . S
C288 C285 1.463 . S
C288 N292 1.427 . S
C289 H279 0.929 . S
C289 C287 1.433 . S
C289 N292 1.384 . S
C290 H281 0.929 . S
C290 C282 1.378 . S
C290 C285 1.350 . S
C291 H278 0.929 . S
C291 C283 1.433 . S
C291 N293 1.384 . S
N292 C288 1.427 . S
N292 C289 1.384 . S
N293 C285 1.427 . S
N293 C291 1.384 . S
H294 C300 0.930 . S
H295 C304 0.930 . S
H296 C309 0.929 . S
H297 C307 0.929 . S
H298 C302 0.929 . S
H299 C308 0.929 . S
C300 H294 0.930 . S
C300 C301 1.367 . S
C300 C308 1.378 . S
C301 C300 1.367 . S
C301 C309 1.433 . S
C302 H298 0.929 . S
C302 C304 1.378 . S
C302 C306 1.350 . S
C303 C306 1.463 . S
C303 C308 1.350 . S
C303 N311 1.427 . S
C304 H295 0.930 . S
C304 C302 1.378 . S
C304 C305 1.367 . S
C305 C304 1.367 . S
C305 C307 1.433 . S
C306 C302 1.350 . S
C306 C303 1.463 . S
C306 N310 1.427 . S
C307 H297 0.929 . S
C307 C305 1.433 . S
C307 N310 1.384 . S
C308 H299 0.929 . S
C308 C300 1.378 . S
C308 C303 1.350 . S
C309 H296 0.929 . S
C309 C301 1.433 . S
C309 N311 1.384 . S
N310 C306 1.427 . S
N310 C307 1.384 . S
N311 C303 1.427 . S
N311 C309 1.384 . S
H312 C318 0.930 . S
H313 C322 0.930 . S
H314 C327 0.929 . S
H315 C325 0.929 . S
H316 C320 0.929 . S
H317 C326 0.929 . S
C318 H312 0.930 . S
C318 C319 1.367 . S
C318 C326 1.378 . S
C319 C318 1.367 . S
C319 C327 1.433 . S
C320 H316 0.929 . S
C320 C322 1.378 . S
C320 C324 1.350 . S
C321 C324 1.463 . S
C321 C326 1.350 . S
C321 N329 1.427 . S
C322 H313 0.930 . S
C322 C320 1.378 . S
C322 C323 1.367 . S
C323 C322 1.367 . S
C323 C325 1.433 . S
C324 C320 1.350 . S
C324 C321 1.463 . S
C324 N328 1.427 . S
C325 H315 0.929 . S
C325 C323 1.433 . S
C325 N328 1.384 . S
C326 H317 0.929 . S
C326 C318 1.378 . S
C326 C321 1.350 . S
C327 H314 0.929 . S
C327 C319 1.433 . S
C327 N329 1.384 . S
N328 C324 1.427 . S
N328 C325 1.384 . S
N329 C321 1.427 . S
N329 C327 1.384 . S
H330 C336 0.930 . S
H331 C340 0.930 . S
H332 C345 0.929 . S
H333 C343 0.929 . S
H334 C338 0.929 . S
H335 C344 0.929 . S
C336 H330 0.930 . S
C336 C337 1.367 . S
C336 C344 1.378 . S
C337 C336 1.367 . S
C337 C345 1.433 . S
C338 H334 0.929 . S
C338 C340 1.378 . S
C338 C342 1.350 . S
C339 C342 1.463 . S
C339 C344 1.350 . S
C339 N347 1.427 . S
C340 H331 0.930 . S
C340 C338 1.378 . S
C340 C341 1.367 . S
C341 C340 1.367 . S
C341 C343 1.433 . S
C342 C338 1.350 . S
C342 C339 1.463 . S
C342 N346 1.427 . S
C343 H333 0.929 . S
C343 C341 1.433 . S
C343 N346 1.384 . S
C344 H335 0.929 . S
C344 C336 1.378 . S
C344 C339 1.350 . S
C345 H332 0.929 . S
C345 C337 1.433 . S
C345 N347 1.384 . S
N346 C342 1.427 . S
N346 C343 1.384 . S
N347 C339 1.427 . S
N347 C345 1.384 . S
H348 C354 0.930 . S
H349 C358 0.930 . S
H350 C363 0.929 . S
H351 C361 0.929 . S
H352 C356 0.929 . S
H353 C362 0.929 . S
C354 H348 0.930 . S
C354 C355 1.367 . S
C354 C362 1.378 . S
C355 C354 1.367 . S
C355 C363 1.433 . S
C356 H352 0.929 . S
C356 C358 1.378 . S
C356 C360 1.350 . S
C357 C360 1.463 . S
C357 C362 1.350 . S
C357 N365 1.427 . S
C358 H349 0.930 . S
C358 C356 1.378 . S
C358 C359 1.367 . S
C359 C358 1.367 . S
C359 C361 1.433 . S
C360 C356 1.350 . S
C360 C357 1.463 . S
C360 N364 1.427 . S
C361 H351 0.929 . S
C361 C359 1.433 . S
C361 N364 1.384 . S
C362 H353 0.929 . S
C362 C354 1.378 . S
C362 C357 1.350 . S
C363 H350 0.929 . S
C363 C355 1.433 . S
C363 N365 1.384 . S
N364 C360 1.427 . S
N364 C361 1.384 . S
N365 C357 1.427 . S
N365 C363 1.384 . S
H366 C372 0.930 . S
H367 C376 0.930 . S
H368 C381 0.929 . S
H369 C379 0.929 . S
H370 C374 0.929 . S
H371 C380 0.929 . S
C372 H366 0.930 . S
C372 C373 1.367 . S
C372 C380 1.378 . S
C373 C372 1.367 . S
C373 C381 1.433 . S
C374 H370 0.929 . S
C374 C376 1.378 . S
C374 C378 1.350 . S
C375 C378 1.463 1_455 S
C375 C380 1.350 . S
C375 N383 1.427 . S
C376 H367 0.930 . S
C376 C374 1.378 . S
C376 C377 1.367 . S
C377 C376 1.367 . S
C377 C379 1.433 . S
C378 C374 1.350 . S
C378 C375 1.463 1_655 S
C378 N382 1.427 . S
C379 H369 0.929 . S
C379 C377 1.433 . S
C379 N382 1.384 . S
C380 H371 0.929 . S
C380 C372 1.378 . S
C380 C375 1.350 . S
C381 H368 0.929 . S
C381 C373 1.433 . S
C381 N383 1.384 . S
N382 C378 1.427 . S
N382 C379 1.384 . S
N383 C375 1.427 . S
N383 C381 1.384 . S
H384 C390 0.930 . S
H385 C394 0.930 . S
H386 C399 0.929 . S
H387 C397 0.929 . S
H388 C392 0.929 . S
H389 C398 0.929 . S
C390 H384 0.930 . S
C390 C391 1.367 . S
C390 C398 1.378 . S
C391 C390 1.367 . S
C391 C399 1.433 . S
C392 H388 0.929 . S
C392 C394 1.378 . S
C392 C396 1.350 . S
C393 C396 1.463 1_545 S
C393 C398 1.350 . S
C393 N401 1.427 . S
C394 H385 0.930 . S
C394 C392 1.378 . S
C394 C395 1.367 . S
C395 C394 1.367 . S
C395 C397 1.433 . S
C396 C392 1.350 . S
C396 C393 1.463 1_565 S
C396 N400 1.427 . S
C397 H387 0.929 . S
C397 C395 1.433 . S
C397 N400 1.384 . S
C398 H389 0.929 . S
C398 C390 1.378 . S
C398 C393 1.350 . S
C399 H386 0.929 . S
C399 C391 1.433 . S
C399 N401 1.384 . S
N400 C396 1.427 . S
N400 C397 1.384 . S
N401 C393 1.427 . S
N401 C399 1.384 . S
H402 C408 0.930 . S
H403 C412 0.930 . S
H404 C417 0.929 . S
H405 C415 0.929 . S
H406 C410 0.929 . S
H407 C416 0.929 . S
C408 H402 0.930 . S
C408 C409 1.367 . S
C408 C416 1.378 . S
C409 C408 1.367 . S
C409 C417 1.433 . S
C410 H406 0.929 . S
C410 C412 1.378 . S
C410 C414 1.350 . S
C411 C414 1.463 . S
C411 C416 1.350 . S
C411 N419 1.427 . S
C412 H403 0.930 . S
C412 C410 1.378 . S
C412 C413 1.367 . S
C413 C412 1.367 . S
C413 C415 1.433 . S
C414 C410 1.350 . S
C414 C411 1.463 . S
C414 N418 1.427 . S
C415 H405 0.929 . S
C415 C413 1.433 . S
C415 N418 1.384 . S
C416 H407 0.929 . S
C416 C408 1.378 . S
C416 C411 1.350 . S
C417 H404 0.929 . S
C417 C409 1.433 . S
C417 N419 1.384 . S
N418 C414 1.427 . S
N418 C415 1.384 . S
N419 C411 1.427 . S
N419 C417 1.384 . S
H420 C426 0.930 . S
H421 C430 0.930 1_556 S
H422 C435 0.929 1_556 S
H423 C433 0.929 . S
H424 C428 0.929 1_556 S
H425 C434 0.929 . S
C426 H420 0.930 . S
C426 C427 1.367 . S
C426 C434 1.378 . S
C427 C426 1.367 . S
C427 C435 1.433 . S
C428 H424 0.929 1_554 S
C428 C430 1.378 . S
C428 C432 1.350 . S
C429 C432 1.463 1_455 S
C429 C434 1.350 . S
C429 N437 1.427 . S
C430 H421 0.930 1_554 S
C430 C428 1.378 . S
C430 C431 1.367 . S
C431 C430 1.367 . S
C431 C433 1.433 . S
C432 C428 1.350 . S
C432 C429 1.463 1_655 S
C432 N436 1.427 . S
C433 H423 0.929 . S
C433 C431 1.433 . S
C433 N436 1.384 . S
C434 H425 0.929 . S
C434 C426 1.378 . S
C434 C429 1.350 . S
C435 H422 0.929 1_554 S
C435 C427 1.433 . S
C435 N437 1.384 . S
N436 C432 1.427 . S
N436 C433 1.384 . S
N437 C429 1.427 . S
N437 C435 1.384 . S
H438 C444 0.930 . S
H439 C448 0.930 . S
H440 C453 0.929 . S
H441 C451 0.929 . S
H442 C446 0.929 . S
H443 C452 0.929 . S
C444 H438 0.930 . S
C444 C445 1.367 . S
C444 C452 1.378 1_565 S
C445 C444 1.367 . S
C445 C453 1.433 . S
C446 H442 0.929 . S
C446 C448 1.378 1_565 S
C446 C450 1.350 1_565 S
C447 C450 1.463 1_565 S
C447 C452 1.350 1_565 S
C447 N455 1.427 . S
C448 H439 0.930 . S
C448 C446 1.378 1_545 S
C448 C449 1.367 . S
C449 C448 1.367 . S
C449 C451 1.433 . S
C450 C446 1.350 1_545 S
C450 C447 1.463 1_545 S
C450 N454 1.427 . S
C451 H441 0.929 . S
C451 C449 1.433 . S
C451 N454 1.384 . S
C452 H443 0.929 . S
C452 C444 1.378 1_545 S
C452 C447 1.350 1_545 S
C453 H440 0.929 . S
C453 C445 1.433 . S
C453 N455 1.384 . S
N454 C450 1.427 . S
N454 C451 1.384 . S
N455 C447 1.427 . S
N455 C453 1.384 . S
H456 C462 0.930 . S
H457 C466 0.930 . S
H458 C471 0.929 . S
H459 C469 0.929 . S
H460 C464 0.929 . S
H461 C470 0.929 . S
C462 H456 0.930 . S
C462 C463 1.367 . S
C462 C470 1.378 . S
C463 C462 1.367 . S
C463 C471 1.433 . S
C464 H460 0.929 . S
C464 C466 1.378 . S
C464 C468 1.350 . S
C465 C468 1.463 . S
C465 C470 1.350 . S
C465 N473 1.427 . S
C466 H457 0.930 . S
C466 C464 1.378 . S
C466 C467 1.367 . S
C467 C466 1.367 . S
C467 C469 1.433 . S
C468 C464 1.350 . S
C468 C465 1.463 . S
C468 N472 1.427 . S
C469 H459 0.929 . S
C469 C467 1.433 . S
C469 N472 1.384 . S
C470 H461 0.929 . S
C470 C462 1.378 . S
C470 C465 1.350 . S
C471 H458 0.929 . S
C471 C463 1.433 . S
C471 N473 1.384 . S
N472 C468 1.427 . S
N472 C469 1.384 . S
N473 C465 1.427 . S
N473 C471 1.384 . S
H474 C480 0.930 . S
H475 C484 0.930 . S
H476 C489 0.929 . S
H477 C487 0.929 . S
H478 C482 0.915 1_655 S
H479 C488 0.929 . S
C480 H474 0.930 . S
C480 C481 1.367 1_455 S
C480 C488 1.378 . S
C481 C480 1.367 1_655 S
C481 C489 1.433 . S
C482 H478 0.915 1_455 S
C482 C484 1.378 . S
C482 C486 1.350 . S
C483 C486 1.463 . S
C483 C488 1.350 . S
C483 N491 1.427 1_455 S
C484 H475 0.930 . S
C484 C482 1.378 . S
C484 C485 1.367 . S
C485 C484 1.367 . S
C485 C487 1.433 . S
C486 C482 1.350 . S
C486 C483 1.463 . S
C486 N490 1.427 . S
C487 H477 0.929 . S
C487 C485 1.433 . S
C487 N490 1.384 . S
C488 H479 0.929 . S
C488 C480 1.378 . S
C488 C483 1.350 . S
C489 H476 0.929 . S
C489 C481 1.433 . S
C489 N491 1.384 . S
N490 C486 1.427 . S
N490 C487 1.384 . S
N491 C483 1.427 1_655 S
N491 C489 1.384 . S
H492 C498 0.930 . S
H493 C502 0.930 . S
H494 C507 0.929 . S
H495 C505 0.929 . S
H496 C500 0.929 . S
H497 C506 0.928 1_565 S
C498 H492 0.930 . S
C498 C499 1.367 . S
C498 C506 1.378 1_565 S
C499 C498 1.367 . S
C499 C507 1.433 1_565 S
C500 H496 0.929 . S
C500 C502 1.378 . S
C500 C504 1.350 . S
C501 C504 1.463 . S
C501 C506 1.350 . S
C501 N509 1.427 . S
C502 H493 0.930 . S
C502 C500 1.378 . S
C502 C503 1.367 . S
C503 C502 1.367 . S
C503 C505 1.433 . S
C504 C500 1.350 . S
C504 C501 1.463 . S
C504 N508 1.427 . S
C505 H495 0.929 . S
C505 C503 1.433 . S
C505 N508 1.384 . S
C506 H497 0.928 1_545 S
C506 C498 1.378 1_545 S
C506 C501 1.350 . S
C507 H494 0.929 . S
C507 C499 1.433 1_545 S
C507 N509 1.384 . S
N508 C504 1.427 . S
N508 C505 1.384 . S
N509 C501 1.427 . S
N509 C507 1.384 . S
H510 C516 0.930 . S
H511 C520 0.930 . S
H512 C525 0.929 . S
H513 C523 0.929 . S
H514 C518 0.929 . S
H515 C524 0.929 . S
C516 H510 0.930 . S
C516 C517 1.367 . S
C516 C524 1.378 . S
C517 C516 1.367 . S
C517 C525 1.433 . S
C518 H514 0.929 . S
C518 C520 1.378 . S
C518 C522 1.350 . S
C519 C522 1.463 . S
C519 C524 1.350 . S
C519 N527 1.427 . S
C520 H511 0.930 . S
C520 C518 1.378 . S
C520 C521 1.367 . S
C521 C520 1.367 . S
C521 C523 1.433 . S
C522 C518 1.350 . S
C522 C519 1.463 . S
C522 N526 1.427 . S
C523 H513 0.929 . S
C523 C521 1.433 . S
C523 N526 1.384 . S
C524 H515 0.929 . S
C524 C516 1.378 . S
C524 C519 1.350 . S
C525 H512 0.929 . S
C525 C517 1.433 . S
C525 N527 1.384 . S
N526 C522 1.427 . S
N526 C523 1.384 . S
N527 C519 1.427 . S
N527 C525 1.384 . S
H528 C534 0.930 . S
H529 C538 0.930 . S
H530 C543 0.929 . S
H531 C541 0.929 . S
H532 C536 0.929 . S
H533 C542 0.929 . S
C534 H528 0.930 . S
C534 C535 1.367 1_655 S
C534 C542 1.378 . S
C535 C534 1.367 1_455 S
C535 C543 1.433 . S
C536 H532 0.929 . S
C536 C538 1.378 . S
C536 C540 1.350 . S
C537 C540 1.463 . S
C537 C542 1.350 . S
C537 N545 1.427 1_655 S
C538 H529 0.930 . S
C538 C536 1.378 . S
C538 C539 1.367 . S
C539 C538 1.367 . S
C539 C541 1.433 . S
C540 C536 1.350 . S
C540 C537 1.463 . S
C540 N544 1.427 . S
C541 H531 0.929 . S
C541 C539 1.433 . S
C541 N544 1.384 . S
C542 H533 0.929 . S
C542 C534 1.378 . S
C542 C537 1.350 . S
C543 H530 0.929 . S
C543 C535 1.433 . S
C543 N545 1.384 . S
N544 C540 1.427 . S
N544 C541 1.384 . S
N545 C537 1.427 1_455 S
N545 C543 1.384 . S
H546 C552 0.930 . S
H547 C556 0.930 . S
H548 C561 0.929 . S
H549 C559 0.929 . S
H550 C554 0.929 1_545 S
H551 C560 0.929 . S
C552 H546 0.930 . S
C552 C553 1.367 1_565 S
C552 C560 1.378 . S
C553 C552 1.367 1_545 S
C553 C561 1.433 . S
C554 H550 0.929 1_565 S
C554 C556 1.378 . S
C554 C558 1.350 . S
C555 C558 1.463 . S
C555 C560 1.350 . S
C555 N563 1.427 1_565 S
C556 H547 0.930 . S
C556 C554 1.378 . S
C556 C557 1.367 . S
C557 C556 1.367 . S
C557 C559 1.433 . S
C558 C554 1.350 . S
C558 C555 1.463 . S
C558 N562 1.427 . S
C559 H549 0.929 . S
C559 C557 1.433 . S
C559 N562 1.384 . S
C560 H551 0.929 . S
C560 C552 1.378 . S
C560 C555 1.350 . S
C561 H548 0.929 . S
C561 C553 1.433 . S
C561 N563 1.384 . S
N562 C558 1.427 . S
N562 C559 1.384 . S
N563 C555 1.427 1_545 S
N563 C561 1.384 . S
C247 C171 1.182 . S
C251 C7 1.191 . S
C265 C211 1.186 . S
C269 C47 1.193 . S
C283 C11 1.188 . S
C287 C87 1.193 . S
C301 C51 1.189 . S
C305 C127 1.192 . S
C319 C91 1.182 . S
C323 C167 1.192 . S
C337 C131 1.189 . S
C341 C207 1.192 . S
C355 C10 0.952 . S
C359 C130 0.952 . S
C373 C170 0.930 . S
C377 C50 0.934 . S
C391 C210 0.933 . S
C395 C90 0.929 . S
C409 C99 1.034 . S
C413 C219 1.031 . S
C427 C19 1.037 . S
C431 C139 1.033 . S
C445 C179 1.035 . S
C449 C59 1.037 . S
C463 C202 1.316 . S
C467 C16 1.293 . S
C481 C56 1.290 . S
C485 C2 1.318 . S
C499 C96 1.286 . S
C503 C42 1.315 . S
C517 C82 1.319 . S
C521 C136 1.295 . S
C535 C176 1.287 . S
C539 C122 1.317 . S
C553 C216 1.291 . S
C557 C162 1.318 . S
