# Generated by pormake.
# Topology wiv, (6)-cn, num edge types: 1
# Building blocks:
#     Node 0, Type 0, BuildingBlock: VOLQOD_clean_sbu_1, # of connection points: 6
#     Node 1, Type 0, BuildingBlock: VOLQOD_clean_sbu_1, # of connection points: 6
#     Node 2, Type 0, BuildingBlock: VOLQOD_clean_sbu_1, # of connection points: 6
#     Node 3, Type 0, BuildingBlock: VOLQOD_clean_sbu_1, # of connection points: 6
#     Node 4, Type 0, BuildingBlock: VOLQOD_clean_sbu_1, # of connection points: 6
#     Node 5, Type 0, BuildingBlock: VOLQOD_clean_sbu_1, # of connection points: 6
#     Node 6, Type 0, BuildingBlock: VOLQOD_clean_sbu_1, # of connection points: 6
#     Node 7, Type 0, BuildingBlock: VOLQOD_clean_sbu_1, # of connection points: 6
#     Node 8, Type 0, BuildingBlock: VOLQOD_clean_sbu_1, # of connection points: 6
#     Node 9, Type 0, BuildingBlock: VOLQOD_clean_sbu_1, # of connection points: 6
#     Node 10, Type 0, BuildingBlock: VOLQOD_clean_sbu_1, # of connection points: 6
#     Node 11, Type 0, BuildingBlock: VOLQOD_clean_sbu_1, # of connection points: 6
#     Node 12, Type 0, BuildingBlock: VOLQOD_clean_sbu_1, # of connection points: 6
#     Node 13, Type 0, BuildingBlock: VOLQOD_clean_sbu_1, # of connection points: 6
#     Node 14, Type 0, BuildingBlock: VOLQOD_clean_sbu_1, # of connection points: 6
#     Node 15, Type 0, BuildingBlock: VOLQOD_clean_sbu_1, # of connection points: 6
#     Edge 16, Type (0, 0), BuildingBlock: CIFDUS_clean_linker_0, # of connection points: 2
#     Edge 17, Type (0, 0), BuildingBlock: CIFDUS_clean_linker_0, # of connection points: 2
#     Edge 18, Type (0, 0), BuildingBlock: CIFDUS_clean_linker_0, # of connection points: 2
#     Edge 19, Type (0, 0), BuildingBlock: CIFDUS_clean_linker_0, # of connection points: 2
#     Edge 20, Type (0, 0), BuildingBlock: CIFDUS_clean_linker_0, # of connection points: 2
#     Edge 21, Type (0, 0), BuildingBlock: CIFDUS_clean_linker_0, # of connection points: 2
#     Edge 22, Type (0, 0), BuildingBlock: CIFDUS_clean_linker_0, # of connection points: 2
#     Edge 23, Type (0, 0), BuildingBlock: CIFDUS_clean_linker_0, # of connection points: 2
#     Edge 24, Type (0, 0), BuildingBlock: CIFDUS_clean_linker_0, # of connection points: 2
#     Edge 25, Type (0, 0), BuildingBlock: CIFDUS_clean_linker_0, # of connection points: 2
#     Edge 26, Type (0, 0), BuildingBlock: CIFDUS_clean_linker_0, # of connection points: 2
#     Edge 27, Type (0, 0), BuildingBlock: CIFDUS_clean_linker_0, # of connection points: 2
#     Edge 28, Type (0, 0), BuildingBlock: CIFDUS_clean_linker_0, # of connection points: 2
#     Edge 29, Type (0, 0), BuildingBlock: CIFDUS_clean_linker_0, # of connection points: 2
#     Edge 30, Type (0, 0), BuildingBlock: CIFDUS_clean_linker_0, # of connection points: 2
#     Edge 31, Type (0, 0), BuildingBlock: CIFDUS_clean_linker_0, # of connection points: 2
#     Edge 32, Type (0, 0), BuildingBlock: CIFDUS_clean_linker_0, # of connection points: 2
#     Edge 33, Type (0, 0), BuildingBlock: CIFDUS_clean_linker_0, # of connection points: 2
#     Edge 34, Type (0, 0), BuildingBlock: CIFDUS_clean_linker_0, # of connection points: 2
#     Edge 35, Type (0, 0), BuildingBlock: CIFDUS_clean_linker_0, # of connection points: 2
#     Edge 36, Type (0, 0), BuildingBlock: CIFDUS_clean_linker_0, # of connection points: 2
#     Edge 37, Type (0, 0), BuildingBlock: CIFDUS_clean_linker_0, # of connection points: 2
#     Edge 38, Type (0, 0), BuildingBlock: CIFDUS_clean_linker_0, # of connection points: 2
#     Edge 39, Type (0, 0), BuildingBlock: CIFDUS_clean_linker_0, # of connection points: 2
#     Edge 40, Type (0, 0), BuildingBlock: CIFDUS_clean_linker_0, # of connection points: 2
#     Edge 41, Type (0, 0), BuildingBlock: CIFDUS_clean_linker_0, # of connection points: 2
#     Edge 42, Type (0, 0), BuildingBlock: CIFDUS_clean_linker_0, # of connection points: 2
#     Edge 43, Type (0, 0), BuildingBlock: CIFDUS_clean_linker_0, # of connection points: 2
#     Edge 44, Type (0, 0), BuildingBlock: CIFDUS_clean_linker_0, # of connection points: 2
#     Edge 45, Type (0, 0), BuildingBlock: CIFDUS_clean_linker_0, # of connection points: 2
#     Edge 46, Type (0, 0), BuildingBlock: CIFDUS_clean_linker_0, # of connection points: 2
#     Edge 47, Type (0, 0), BuildingBlock: CIFDUS_clean_linker_0, # of connection points: 2
#     Edge 48, Type (0, 0), BuildingBlock: CIFDUS_clean_linker_0, # of connection points: 2
#     Edge 49, Type (0, 0), BuildingBlock: CIFDUS_clean_linker_0, # of connection points: 2
#     Edge 50, Type (0, 0), BuildingBlock: CIFDUS_clean_linker_0, # of connection points: 2
#     Edge 51, Type (0, 0), BuildingBlock: CIFDUS_clean_linker_0, # of connection points: 2
#     Edge 52, Type (0, 0), BuildingBlock: CIFDUS_clean_linker_0, # of connection points: 2
#     Edge 53, Type (0, 0), BuildingBlock: CIFDUS_clean_linker_0, # of connection points: 2
#     Edge 54, Type (0, 0), BuildingBlock: CIFDUS_clean_linker_0, # of connection points: 2
#     Edge 55, Type (0, 0), BuildingBlock: CIFDUS_clean_linker_0, # of connection points: 2
#     Edge 56, Type (0, 0), BuildingBlock: CIFDUS_clean_linker_0, # of connection points: 2
#     Edge 57, Type (0, 0), BuildingBlock: CIFDUS_clean_linker_0, # of connection points: 2
#     Edge 58, Type (0, 0), BuildingBlock: CIFDUS_clean_linker_0, # of connection points: 2
#     Edge 59, Type (0, 0), BuildingBlock: CIFDUS_clean_linker_0, # of connection points: 2
#     Edge 60, Type (0, 0), BuildingBlock: CIFDUS_clean_linker_0, # of connection points: 2
#     Edge 61, Type (0, 0), BuildingBlock: CIFDUS_clean_linker_0, # of connection points: 2
#     Edge 62, Type (0, 0), BuildingBlock: CIFDUS_clean_linker_0, # of connection points: 2
#     Edge 63, Type (0, 0), BuildingBlock: CIFDUS_clean_linker_0, # of connection points: 2
# Relax obj value: 0.189
# Max RMSD: 0.161
# Mean RMSD: 0.158
data_MOF--net-wiv--node1-VOLQOD_clean_sbu_1--edge1-CIFDUS_clean_linker_0
_symmetry_space_group_name_H-M    P1
_symmetry_Int_Tables_number       1
_symmetry_cell_setting            triclinic
loop_
_symmetry_equiv_pos_as_xyz
'x, y, z'
_cell_length_a     57.191767
_cell_length_b     57.511394
_cell_length_c     14.324729
_cell_angle_alpha  89.951285
_cell_angle_beta   89.997652
_cell_angle_gamma 89.92079
loop_
_atom_site_label
_atom_site_type_symbol
_atom_site_fract_x
_atom_site_fract_y
_atom_site_fract_z
_atom_type_partial_charge
O0 O 0.38328 0.12304 0.9838 0.0
Zn1 Zn 0.38772 0.12855 0.12046 0.0
O2 O 0.36666 0.10833 0.18602 0.0
Zn3 Zn 0.33947 0.12569 0.22931 0.0
Zn4 Zn 0.3575 0.08512 0.09911 0.0
Zn5 Zn 0.38296 0.09195 0.28021 0.0
O6 O 0.33433 0.11945 0.36682 0.0
O7 O 0.36681 0.09911 0.3962 0.0
O8 O 0.38001 0.16154 0.14647 0.0
O9 O 0.3452 0.16016 0.21538 0.0
O10 O 0.31139 0.11853 0.14822 0.0
O11 O 0.32675 0.09382 0.04524 0.0
O12 O 0.35701 0.05276 0.14916 0.0
O13 O 0.42095 0.12343 0.16067 0.0
O14 O 0.38192 0.05741 0.26551 0.0
O15 O 0.41656 0.10105 0.28599 0.0
C16 C 0.38232 0.10307 0.94609 0.0
C17 C 0.34797 0.10882 0.42294 0.0
C18 C 0.31006 0.10668 0.07318 0.0
C19 C 0.36241 0.17158 0.18261 0.0
C20 C 0.3698 0.04429 0.21325 0.0
C21 C 0.42942 0.11283 0.23112 0.0
O22 O 0.3801 0.08493 -0.00452 0.0
O23 O 0.05924 0.61227 0.00415 0.0
Zn24 Zn 0.0637 0.6114 0.86652 0.0
O25 O 0.0865 0.63422 0.82877 0.0
Zn26 Zn 0.07026 0.66023 0.77047 0.0
Zn27 Zn 0.10358 0.6435 0.93549 0.0
Zn28 Zn 0.10929 0.62071 0.74795 0.0
O29 O 0.07936 0.66237 0.63606 0.0
O30 O 0.10009 0.62969 0.6217 0.0
O31 O 0.0325 0.6176 0.81064 0.0
O32 O 0.03543 0.65423 0.76307 0.0
O33 O 0.07555 0.68992 0.84276 0.0
O34 O 0.0948 0.67572 0.96561 0.0
O35 O 0.13838 0.64215 0.92085 0.0
O36 O 0.07463 0.5796 0.83355 0.0
O37 O 0.14257 0.63047 0.77467 0.0
O38 O 0.10767 0.58606 0.75616 0.0
C39 C 0.07479 0.6163 0.065 0.0
C40 C 0.08895 0.64669 0.58633 0.0
C41 C 0.08446 0.69226 0.92376 0.0
C42 C 0.0234 0.63592 0.77659 0.0
C43 C 0.15134 0.63758 0.85115 0.0
C44 C 0.09271 0.5722 0.79117 0.0
O45 O 0.09441 0.6252 0.04453 0.0
O46 O 0.63476 0.87465 0.84358 0.0
Zn47 Zn 0.62961 0.86579 0.97623 0.0
O48 O 0.64892 0.88586 0.04998 0.0
Zn49 Zn 0.67686 0.86903 0.09063 0.0
Zn50 Zn 0.65711 0.91273 0.97727 0.0
Zn51 Zn 0.63083 0.89727 0.14963 0.0
O52 O 0.68313 0.87562 0.22735 0.0
O53 O 0.64875 0.89171 0.26274 0.0
O54 O 0.63935 0.83287 -0.00511 0.0
O55 O 0.67199 0.83419 0.07851 0.0
O56 O 0.70385 0.87823 0.00726 0.0
O57 O 0.68981 0.90914 0.93187 0.0
O58 O 0.6523 0.94328 0.04459 0.0
O59 O 0.59571 0.86632 0.01611 0.0
O60 O 0.6259 0.93162 0.1474 0.0
O61 O 0.60006 0.88169 0.15704 0.0
C62 C 0.63685 0.89489 0.80858 0.0
C63 C 0.6689 0.88445 0.28598 0.0
C64 C 0.70602 0.89444 0.94693 0.0
C65 C 0.65595 0.8227 0.03757 0.0
C66 C 0.63734 0.9478 0.10791 0.0
C67 C 0.58763 0.87128 0.09662 0.0
O68 O 0.63868 0.91284 0.85982 0.0
O69 O 0.89707 0.38469 0.14674 0.0
Zn70 Zn 0.89403 0.38752 0.00553 0.0
O71 O 0.87618 0.36072 0.96337 0.0
Zn72 Zn 0.89683 0.33635 0.91883 0.0
Zn73 Zn 0.85795 0.35093 0.06805 0.0
Zn74 Zn 0.85439 0.36861 0.8691 0.0
O75 O 0.8901 0.3281 0.78299 0.0
O76 O 0.86612 0.35747 0.74848 0.0
O77 O 0.92672 0.38618 0.95168 0.0
O78 O 0.92928 0.34904 0.90993 0.0
O79 O 0.89713 0.30939 0.01097 0.0
O80 O 0.87129 0.32162 0.11634 0.0
O81 O 0.82397 0.3466 0.0411 0.0
O82 O 0.87753 0.41728 0.96275 0.0
O83 O 0.82216 0.35613 0.89158 0.0
O84 O 0.85156 0.40267 0.86313 0.0
C85 C 0.88062 0.37927 0.20259 0.0
C86 C 0.8791 0.34064 0.72395 0.0
C87 C 0.88644 0.30698 0.08877 0.0
C88 C 0.93842 0.36905 0.91961 0.0
C89 C 0.81242 0.34892 0.96595 0.0
C90 C 0.86104 0.41995 0.90327 0.0
O91 O 0.86074 0.37336 0.17151 0.0
O92 O 0.36568 0.36017 0.29809 0.0
Zn93 Zn 0.37041 0.35125 0.16631 0.0
O94 O 0.34994 0.37044 0.09341 0.0
Zn95 Zn 0.32246 0.35259 0.05371 0.0
Zn96 Zn 0.34021 0.39668 0.16701 0.0
Zn97 Zn 0.36765 0.38265 -0.00718 0.0
O98 O 0.31788 0.35612 0.9151 0.0
O99 O 0.35181 0.37314 0.87921 0.0
O100 O 0.36108 0.31817 0.15537 0.0
O101 O 0.32699 0.31842 0.08116 0.0
O102 O 0.2936 0.36278 0.12445 0.0
O103 O 0.30739 0.39223 0.20844 0.0
O104 O 0.34312 0.42721 0.10084 0.0
O105 O 0.4043 0.35352 0.12789 0.0
O106 O 0.36733 0.41728 -0.01281 0.0
O107 O 0.40097 0.37231 -0.00668 0.0
C108 C 0.36206 0.38 0.33453 0.0
C109 C 0.33231 0.36432 0.856 0.0
C110 C 0.29095 0.37848 0.18623 0.0
C111 C 0.34351 0.30754 0.12184 0.0
C112 C 0.35578 0.43262 0.03124 0.0
C113 C 0.41336 0.36169 0.05358 0.0
O114 O 0.35813 0.39788 0.28491 0.0
O115 O 0.37679 0.60151 0.67761 0.0
Zn116 Zn 0.3759 0.60401 0.81597 0.0
O117 O 0.35532 0.62936 0.85443 0.0
Zn118 Zn 0.37414 0.65327 0.91556 0.0
Zn119 Zn 0.33931 0.64284 0.75062 0.0
Zn120 Zn 0.33115 0.61731 0.93432 0.0
O121 O 0.3654 0.65563 0.04938 0.0
O122 O 0.3387 0.62764 0.06034 0.0
O123 O 0.40898 0.60879 0.85764 0.0
O124 O 0.40811 0.64406 0.91961 0.0
O125 O 0.37299 0.68402 0.84857 0.0
O126 O 0.35174 0.67442 0.72455 0.0
O127 O 0.30424 0.64397 0.76213 0.0
O128 O 0.36478 0.57367 0.86655 0.0
O129 O 0.29863 0.6275 0.90002 0.0
O130 O 0.33189 0.58247 0.9407 0.0
C131 C 0.36302 0.61045 0.61818 0.0
C132 C 0.35215 0.64254 0.09748 0.0
C133 C 0.36437 0.68881 0.76896 0.0
C134 C 0.41928 0.62584 0.89624 0.0
C135 C 0.29065 0.63741 0.82725 0.0
C136 C 0.34686 0.5676 0.9131 0.0
O137 O 0.34731 0.62507 0.63976 0.0
O138 O 0.59944 0.64429 0.28734 0.0
Zn139 Zn 0.59641 0.6478 0.15109 0.0
O140 O 0.61661 0.62476 0.09639 0.0
Zn141 Zn 0.64597 0.63948 0.05801 0.0
Zn142 Zn 0.62311 0.5998 0.18267 0.0
Zn143 Zn 0.59982 0.61203 -0.00562 0.0
O144 O 0.65188 0.63313 0.92104 0.0
O145 O 0.61549 0.62286 0.8817 0.0
O146 O 0.60692 0.67981 0.11653 0.0
O147 O 0.64328 0.67451 0.06638 0.0
O148 O 0.6727 0.62965 0.14272 0.0
O149 O 0.65658 0.6005 0.22103 0.0
O150 O 0.61574 0.56782 0.13064 0.0
O151 O 0.56265 0.64466 0.11339 0.0
O152 O 0.60078 0.57746 -0.00686 0.0
O153 O 0.56601 0.62109 -0.00795 0.0
C154 C 0.60287 0.62649 0.33822 0.0
C155 C 0.63611 0.6291 0.86029 0.0
C156 C 0.67392 0.61366 0.20436 0.0
C157 C 0.62626 0.68786 0.08693 0.0
C158 C 0.60715 0.56214 0.05178 0.0
C159 C 0.55355 0.63367 0.04548 0.0
O160 O 0.60758 0.60656 0.30406 0.0
O161 O 0.59351 0.38865 0.69136 0.0
Zn162 Zn 0.59111 0.38859 0.8314 0.0
O163 O 0.61131 0.3645 0.88116 0.0
Zn164 Zn 0.59308 0.33884 0.93323 0.0
Zn165 Zn 0.6302 0.35367 0.78191 0.0
Zn166 Zn 0.6333 0.37731 0.96633 0.0
O167 O 0.60013 0.33522 0.07169 0.0
O168 O 0.62459 0.36499 0.08635 0.0
O169 O 0.55774 0.38219 0.86438 0.0
O170 O 0.5588 0.34715 0.92983 0.0
O171 O 0.59763 0.30949 0.85447 0.0
O172 O 0.61726 0.32418 0.73378 0.0
O173 O 0.66353 0.34785 0.81427 0.0
O174 O 0.60007 0.42006 0.88395 0.0
O175 O 0.66667 0.36779 0.94536 0.0
O176 O 0.63042 0.41185 0.97504 0.0
C177 C 0.61218 0.38564 0.64479 0.0
C178 C 0.61253 0.34876 0.12185 0.0
C179 C 0.60601 0.30767 0.77198 0.0
C180 C 0.54748 0.36496 0.9022 0.0
C181 C 0.67574 0.35534 0.88168 0.0
C182 C 0.61611 0.42644 0.94032 0.0
O183 O 0.63024 0.37662 0.68104 0.0
O184 O 0.83413 0.61604 0.49073 0.0
Zn185 Zn 0.84341 0.6261 0.61779 0.0
O186 O 0.82226 0.61216 0.70382 0.0
Zn187 Zn 0.79762 0.63389 0.73471 0.0
Zn188 Zn 0.80785 0.58441 0.65273 0.0
Zn189 Zn 0.84001 0.60439 0.80969 0.0
O190 O 0.78981 0.63122 0.87272 0.0
O191 O 0.82288 0.61434 0.92085 0.0
O192 O 0.8393 0.66018 0.62121 0.0
O193 O 0.80728 0.6669 0.70451 0.0
O194 O 0.77055 0.62555 0.65213 0.0
O195 O 0.77263 0.58699 0.65592 0.0
O196 O 0.81983 0.55495 0.71516 0.0
O197 O 0.87734 0.62036 0.65104 0.0
O198 O 0.84333 0.57038 0.82144 0.0
O199 O 0.87265 0.61615 0.8042 0.0
C200 C 0.82236 0.59886 0.4605 0.0
C201 C 0.80299 0.62333 0.93725 0.0
C202 C 0.76207 0.60566 0.63271 0.0
C203 C 0.82464 0.67418 0.65706 0.0
C204 C 0.83449 0.55275 0.78179 0.0
C205 C 0.88575 0.61903 0.73336 0.0
O206 O 0.81347 0.58375 0.51483 0.0
O207 O 0.60679 0.11272 0.50829 0.0
Zn208 Zn 0.60852 0.11596 0.36867 0.0
O209 O 0.62835 0.14231 0.33321 0.0
Zn210 Zn 0.60965 0.16693 0.27487 0.0
Zn211 Zn 0.64385 0.15514 0.43891 0.0
Zn212 Zn 0.65258 0.13146 0.2509 0.0
O213 O 0.61705 0.16913 0.13875 0.0
O214 O 0.64455 0.14195 0.12506 0.0
O215 O 0.5757 0.12126 0.32533 0.0
O216 O 0.57596 0.15771 0.27409 0.0
O217 O 0.61137 0.19783 0.34303 0.0
O218 O 0.6332 0.18731 0.46406 0.0
O219 O 0.67867 0.15435 0.43121 0.0
O220 O 0.62016 0.08592 0.31271 0.0
O221 O 0.68487 0.1416 0.28738 0.0
O222 O 0.65267 0.09674 0.24041 0.0
C223 C 0.619 0.12301 0.56967 0.0
C224 C 0.63032 0.15636 0.08914 0.0
C225 C 0.6207 0.20223 0.4218 0.0
C226 C 0.56516 0.13893 0.29217 0.0
C227 C 0.69249 0.14933 0.36478 0.0
C228 C 0.63827 0.08102 0.26472 0.0
O229 O 0.63408 0.1383 0.54932 0.0
O230 O 0.11211 0.35995 0.46965 0.0
Zn231 Zn 0.11126 0.35389 0.60721 0.0
O232 O 0.1311 0.37676 0.66589 0.0
Zn233 Zn 0.15999 0.36319 0.71337 0.0
Zn234 Zn 0.13878 0.39978 0.57588 0.0
Zn235 Zn 0.11364 0.39301 0.75641 0.0
O236 O 0.16281 0.36878 0.85259 0.0
O237 O 0.12875 0.38681 0.87432 0.0
O238 O 0.12465 0.32224 0.62716 0.0
O239 O 0.15912 0.32861 0.69423 0.0
O240 O 0.18798 0.37434 0.6386 0.0
O241 O 0.17007 0.393 0.5226 0.0
O242 O 0.13853 0.43237 0.62334 0.0
O243 O 0.07786 0.35494 0.65633 0.0
O244 O 0.11407 0.42726 0.74083 0.0
O245 O 0.08059 0.38274 0.76291 0.0
C246 C 0.11193 0.37968 0.42945 0.0
C247 C 0.14766 0.37827 0.90561 0.0
C248 C 0.18832 0.38405 0.55847 0.0
C249 C 0.14396 0.31484 0.66008 0.0
C250 C 0.12587 0.44056 0.68824 0.0
C251 C 0.06864 0.36763 0.71941 0.0
O252 O 0.11576 0.39826 0.47437 0.0
O253 O 0.41247 0.86055 0.52695 0.0
Zn254 Zn 0.41879 0.86835 0.39451 0.0
O255 O 0.39945 0.84849 0.3211 0.0
Zn256 Zn 0.41726 0.822 0.27803 0.0
Zn257 Zn 0.37468 0.83872 0.39932 0.0
Zn258 Zn 0.3856 0.86597 0.22478 0.0
O259 O 0.40933 0.81587 0.14428 0.0
O260 O 0.39337 0.85026 0.10819 0.0
O261 O 0.45227 0.86274 0.36342 0.0
O262 O 0.4514 0.83029 0.27901 0.0
O263 O 0.41089 0.79377 0.3594 0.0
O264 O 0.38127 0.80708 0.4451 0.0
O265 O 0.34323 0.83986 0.34011 0.0
O266 O 0.41136 0.90202 0.36894 0.0
O267 O 0.35076 0.86605 0.23095 0.0
O268 O 0.39481 0.89926 0.22908 0.0
C269 C 0.3921 0.85935 0.56221 0.0
C270 C 0.40078 0.83016 0.08552 0.0
C271 C 0.39588 0.79125 0.42453 0.0
C272 C 0.46256 0.84712 0.3157 0.0
C273 C 0.3364 0.8536 0.27631 0.0
C274 C 0.40288 0.91144 0.29584 0.0
O275 O 0.37405 0.85867 0.51092 0.0
O276 O 0.89939 0.8438 0.74051 0.0
Zn277 Zn 0.90061 0.84127 0.60226 0.0
O278 O 0.88022 0.86506 0.55254 0.0
Zn279 Zn 0.8502 0.85183 0.5139 0.0
Zn280 Zn 0.87555 0.88885 0.64472 0.0
Zn281 Zn 0.89592 0.87884 0.45034 0.0
O282 O 0.84548 0.85513 0.37383 0.0
O283 O 0.88093 0.86829 0.33617 0.0
O284 O 0.88802 0.80984 0.57256 0.0
O285 O 0.8508 0.81739 0.53833 0.0
O286 O 0.82335 0.8647 0.59093 0.0
O287 O 0.84274 0.88785 0.68817 0.0
O288 O 0.88233 0.92105 0.59676 0.0
O289 O 0.93396 0.84383 0.55639 0.0
O290 O 0.8949 0.91322 0.4537 0.0
O291 O 0.92927 0.87007 0.44481 0.0
C292 C 0.89705 0.86138 0.79339 0.0
C293 C 0.86106 0.86031 0.31368 0.0
C294 C 0.82398 0.87815 0.66155 0.0
C295 C 0.86728 0.80309 0.55529 0.0
C296 C 0.88965 0.92769 0.51718 0.0
C297 C 0.94224 0.8563 0.49081 0.0
O298 O 0.89287 0.88158 0.76105 0.0
O299 O 0.91747 0.10158 0.2263 0.0
Zn300 Zn 0.91551 0.10303 0.36702 0.0
O301 O 0.8937 0.1269 0.40875 0.0
Zn302 Zn 0.90961 0.15076 0.48058 0.0
Zn303 Zn 0.88014 0.14107 0.30331 0.0
Zn304 Zn 0.86783 0.11352 0.47474 0.0
O305 O 0.89749 0.15081 0.61187 0.0
O306 O 0.87064 0.12284 0.60453 0.0
O307 O 0.94756 0.10885 0.41873 0.0
O308 O 0.94329 0.1422 0.49506 0.0
O309 O 0.909 0.18222 0.41528 0.0
O310 O 0.89596 0.17067 0.27656 0.0
O311 O 0.84578 0.14675 0.31122 0.0
O312 O 0.90443 0.07187 0.41163 0.0
O313 O 0.83641 0.12432 0.43102 0.0
O314 O 0.86966 0.07889 0.47527 0.0
C315 C 0.90151 0.10813 0.17032 0.0
C316 C 0.88242 0.1376 0.65021 0.0
C317 C 0.90541 0.18583 0.32856 0.0
C318 C 0.95589 0.12522 0.46844 0.0
C319 C 0.8306 0.1381 0.36563 0.0
C320 C 0.88577 0.06485 0.45116 0.0
O321 O 0.885 0.12133 0.19618 0.0
O322 O 0.141 0.12415 0.78178 0.0
Zn323 Zn 0.13319 0.13007 0.64884 0.0
O324 O 0.15669 0.11504 0.57578 0.0
Zn325 Zn 0.18105 0.13736 0.54116 0.0
Zn326 Zn 0.1692 0.09 0.64944 0.0
Zn327 Zn 0.14174 0.10181 0.47106 0.0
O328 O 0.18751 0.13526 0.40232 0.0
O329 O 0.15619 0.1147 0.35945 0.0
O330 O 0.13464 0.16407 0.62906 0.0
O331 O 0.16978 0.1701 0.56708 0.0
O332 O 0.21036 0.13152 0.61756 0.0
O333 O 0.20132 0.09812 0.68769 0.0
O334 O 0.1688 0.05906 0.58536 0.0
O335 O 0.10062 0.12009 0.61424 0.0
O336 O 0.14703 0.06786 0.46264 0.0
O337 O 0.10728 0.1063 0.47196 0.0
C338 C 0.14769 0.10528 0.81965 0.0
C339 C 0.17456 0.12612 0.33999 0.0
C340 C 0.2153 0.11485 0.67292 0.0
C341 C 0.15042 0.17768 0.59905 0.0
C342 C 0.15837 0.05314 0.51075 0.0
C343 C 0.09324 0.11222 0.53653 0.0
O344 O 0.15271 0.08753 0.77085 0.0
O345 O 0.11863 0.88451 0.06612 0.0
Zn346 Zn 0.11472 0.88726 0.20528 0.0
O347 O 0.13502 0.86461 0.26255 0.0
Zn348 Zn 0.11788 0.83989 0.31933 0.0
Zn349 Zn 0.1532 0.85201 0.16649 0.0
Zn350 Zn 0.15756 0.87824 0.34034 0.0
O351 O 0.12902 0.83437 0.45091 0.0
O352 O 0.1519 0.86551 0.46438 0.0
O353 O 0.08128 0.88166 0.24442 0.0
O354 O 0.08484 0.84998 0.33221 0.0
O355 O 0.11682 0.81211 0.23357 0.0
O356 O 0.13634 0.82558 0.11073 0.0
O357 O 0.18498 0.84177 0.20603 0.0
O358 O 0.124 0.91949 0.24664 0.0
O359 O 0.19054 0.87061 0.30583 0.0
O360 O 0.15348 0.91235 0.34376 0.0
C361 C 0.13852 0.88295 0.02655 0.0
C362 C 0.14151 0.84809 0.49993 0.0
C363 C 0.12316 0.81049 0.14835 0.0
C364 C 0.07246 0.86628 0.29803 0.0
C365 C 0.19833 0.85378 0.25756 0.0
C366 C 0.13971 0.92648 0.30316 0.0
O367 O 0.15648 0.87642 0.07136 0.0
H368 H 0.37454 0.93548 0.17999 0.0
H369 H 0.42433 0.94446 0.40364 0.0
H370 H 0.41766 0.98649 0.4004 0.0
H371 H 0.39776 0.02044 0.3334 0.0
H372 H 0.34753 0.01091 0.11134 0.0
H373 H 0.35412 0.96906 0.11584 0.0
C374 C 0.38413 0.94661 0.22758 0.0
C375 C 0.40009 0.9369 0.29136 0.0
C376 C 0.37993 0.97055 0.22637 0.0
C377 C 0.41204 0.95154 0.35358 0.0
C378 C 0.40817 0.97553 0.35196 0.0
C379 C 0.38811 0.00922 0.28639 0.0
C380 C 0.37221 0.01883 0.22198 0.0
C381 C 0.3921 0.98519 0.28879 0.0
C382 C 0.35987 0.004 0.16163 0.0
C383 C 0.3637 0.98008 0.16381 0.0
H384 H 0.91841 0.64505 0.64215 0.0
H385 H 0.9098 0.59371 0.85924 0.0
H386 H 0.95171 0.59406 0.88969 0.0
H387 H 0.99053 0.60922 0.85705 0.0
H388 H -0.0002 0.66257 0.64861 0.0
H389 H 0.95788 0.66135 0.61257 0.0
C390 C 0.92585 0.6339 0.6956 0.0
C391 C 0.91119 0.61933 0.74823 0.0
C392 C 0.94996 0.63465 0.7146 0.0
C393 C 0.92082 0.60515 0.81825 0.0
C394 C 0.94474 0.6053 0.83562 0.0
C395 C 0.98341 0.62053 0.80341 0.0
C396 C -0.00182 0.63583 0.75509 0.0
C397 C 0.95943 0.62004 0.78461 0.0
C398 C 0.98869 0.65066 0.68687 0.0
C399 C 0.96478 0.64991 0.66608 0.0
H400 H 0.66542 0.9853 0.07745 0.0
H401 H 0.60142 0.96441 0.21345 0.0
H402 H 0.5964 0.0035 0.27576 0.0
H403 H 0.61021 0.04349 0.293 0.0
H404 H 0.67446 0.06447 0.15891 0.0
H405 H 0.67938 0.02545 0.09545 0.0
C406 C 0.65029 0.98935 0.12009 0.0
C407 C 0.63382 0.97195 0.14047 0.0
C408 C 0.64763 0.01184 0.15689 0.0
C409 C 0.61441 0.97745 0.19669 0.0
C410 C 0.61152 -0.0002 0.23258 0.0
C411 C 0.62537 0.03954 0.25034 0.0
C412 C 0.64193 0.05694 0.23107 0.0
C413 C 0.62808 0.01709 0.21362 0.0
C414 C 0.66143 0.05145 0.17526 0.0
C415 C 0.66425 0.02913 0.13854 0.0
H416 H 0.96408 0.34068 0.80816 0.0
H417 H 0.9677 0.4051 0.96215 0.0
H418 H 0.0082 0.41038 0.91205 0.0
H419 H 0.04248 0.3965 0.82654 0.0
H420 H 0.03875 0.3325 0.66971 0.0
H421 H -0.00188 0.32734 0.71875 0.0
C422 C 0.97373 0.35584 0.83118 0.0
C423 C 0.96293 0.37239 0.8895 0.0
C424 C 0.99688 0.35887 0.8014 0.0
C425 C 0.9756 0.3921 0.91743 0.0
C426 C -0.00126 0.39511 0.88885 0.0
C427 C 0.03283 0.38139 0.80289 0.0
C428 C 0.04372 0.36483 0.74489 0.0
C429 C 0.00955 0.37858 0.83108 0.0
C430 C 0.03082 0.34551 0.71427 0.0
C431 C 0.00761 0.34252 0.74253 0.0
H432 H 0.32761 0.46843 0.08366 0.0
H433 H 0.38612 0.45137 0.90549 0.0
H434 H 0.38779 0.49143 0.85072 0.0
H435 H 0.37325 0.53125 0.85525 0.0
H436 H 0.31461 0.54865 0.03209 0.0
H437 H 0.31226 0.50832 0.08472 0.0
C438 C 0.34077 0.47349 0.03309 0.0
C439 C 0.35679 0.45697 -0.00078 0.0
C440 C 0.34155 0.49653 0.00124 0.0
C441 C 0.37358 0.46375 0.93288 0.0
C442 C 0.37456 0.48664 0.9014 0.0
C443 C 0.35987 0.52626 0.90505 0.0
C444 C 0.34421 0.54296 0.93993 0.0
C445 C 0.35869 0.50316 0.93531 0.0
C446 C 0.32689 0.53612 0.00398 0.0
C447 C 0.32559 0.5131 0.03444 0.0
H448 H 0.52741 0.60642 0.93174 0.0
H449 H 0.52247 0.66471 0.12051 0.0
H450 H 0.48053 0.66764 0.0899 0.0
H451 H 0.44532 0.65363 0.0094 0.0
H452 H 0.45036 0.5946 0.8243 0.0
H453 H 0.49228 0.59203 0.85377 0.0
C454 C 0.51721 0.61982 0.96612 0.0
C455 C 0.5281 0.63538 0.02805 0.0
C456 C 0.49312 0.62128 0.9489 0.0
C457 C 0.51453 0.65248 0.07261 0.0
C458 C 0.49055 0.6542 0.05503 0.0
C459 C 0.45559 0.64025 0.97526 0.0
C460 C 0.4447 0.62439 0.91449 0.0
C461 C 0.47968 0.6387 -0.00677 0.0
C462 C 0.45826 0.60701 0.87155 0.0
C463 C 0.48225 0.60553 0.88823 0.0
H464 H 0.63147 0.52533 0.12186 0.0
H465 H 0.57862 0.54362 0.91953 0.0
H466 H 0.57681 0.50339 0.86665 0.0
H467 H 0.59067 0.46314 0.87564 0.0
H468 H 0.64441 0.44496 0.0747 0.0
H469 H 0.64552 0.48498 0.13022 0.0
C470 C 0.61941 0.52044 0.06685 0.0
C471 C 0.60517 0.53742 0.02496 0.0
C472 C 0.61876 0.49733 0.0354 0.0
C473 C 0.58983 0.53089 0.95287 0.0
C474 C 0.58879 0.50788 0.92242 0.0
C475 C 0.60267 0.46791 0.931 0.0
C476 C 0.61743 0.45102 0.97063 0.0
C477 C 0.6033 0.49099 0.96264 0.0
C478 C 0.63289 0.45759 0.04238 0.0
C479 C 0.6335 0.48048 0.0746 0.0
H480 H 0.43932 0.38433 0.92437 0.0
H481 H 0.44438 0.3332 0.14436 0.0
H482 H 0.48626 0.32895 0.11415 0.0
H483 H 0.52149 0.34024 0.02647 0.0
H484 H 0.51623 0.39254 0.81101 0.0
H485 H 0.47425 0.39572 0.83806 0.0
C486 C 0.44952 0.37217 0.96564 0.0
C487 C 0.43872 0.35907 0.03638 0.0
C488 C 0.47354 0.37001 0.94862 0.0
C489 C 0.45228 0.34356 0.08965 0.0
C490 C 0.47621 0.34108 0.07228 0.0
C491 C 0.51111 0.3522 0.98499 0.0
C492 C 0.52194 0.36608 0.91665 0.0
C493 C 0.48702 0.35425 0.00202 0.0
C494 C 0.50832 0.38171 0.86422 0.0
C495 C 0.48432 0.38354 0.87959 0.0
H496 H 0.87846 0.46205 0.95749 0.0
H497 H 0.82468 0.43046 0.78802 0.0
H498 H 0.81176 0.46849 0.73565 0.0
H499 H 0.81605 0.51078 0.73445 0.0
H500 H 0.86954 0.54261 0.90429 0.0
H501 H 0.88208 0.50457 0.95941 0.0
C502 C 0.86385 0.4635 0.90955 0.0
C503 C 0.85272 0.44338 0.87665 0.0
C504 C 0.85642 0.48552 0.87911 0.0
C505 C 0.83375 0.44561 0.81443 0.0
C506 C 0.82628 0.46739 0.78414 0.0
C507 C 0.83045 0.50939 0.78341 0.0
C508 C 0.84181 0.52951 0.81473 0.0
C509 C 0.83759 0.48745 0.81535 0.0
C510 C 0.86039 0.5274 0.87883 0.0
C511 C 0.86764 0.50564 0.91056 0.0
H512 H 0.53477 0.10636 0.35491 0.0
H513 H 0.53891 0.16829 0.18502 0.0
H514 H 0.49729 0.16535 0.14944 0.0
H515 H 0.45982 0.14517 0.16636 0.0
H516 H 0.45551 0.084 0.34051 0.0
H517 H 0.49722 0.08667 0.3744 0.0
C518 C 0.52658 0.1192 0.30998 0.0
C519 C 0.5399 0.13746 0.27249 0.0
C520 C 0.50267 0.11754 0.29044 0.0
C521 C 0.52901 0.15409 0.21508 0.0
C522 C 0.50524 0.1524 0.19443 0.0
C523 C 0.46804 0.13236 0.21135 0.0
C524 C 0.45466 0.11437 0.25052 0.0
C525 C 0.49193 0.13417 0.2316 0.0
C526 C 0.46546 0.09806 0.30964 0.0
C527 C 0.48929 0.09955 0.329 0.0
H528 H 0.12555 0.54996 0.68734 0.0
H529 H 0.06829 0.53778 0.87811 0.0
H530 H 0.07434 0.49601 0.8655 0.0
H531 H 0.09517 0.46316 0.79868 0.0
H532 H 0.15177 0.47476 0.60453 0.0
H533 H 0.14673 0.51678 0.62086 0.0
C534 C 0.11443 0.53818 0.72636 0.0
C535 C 0.09648 0.54696 0.78339 0.0
C536 C 0.11788 0.51417 0.7184 0.0
C537 C 0.08217 0.53147 0.83329 0.0
C538 C 0.08563 0.50759 0.82636 0.0
C539 C 0.10654 0.47483 0.76025 0.0
C540 C 0.12381 0.46588 0.70054 0.0
C541 C 0.10336 0.49879 0.76892 0.0
C542 C 0.1383 0.48125 0.65088 0.0
C543 C 0.13542 0.50524 0.6601 0.0
H544 H 0.5658 0.88003 0.26006 0.0
H545 H 0.55601 0.84596 -0.00572 0.0
H546 H 0.51701 0.83338 0.04301 0.0
H547 H 0.4853 0.83339 0.15934 0.0
H548 H 0.49516 0.86891 0.4217 0.0
H549 H 0.53497 0.87921 0.3765 0.0
C550 C 0.55521 0.86985 0.21243 0.0
C551 C 0.56378 0.86407 0.12339 0.0
C552 C 0.53297 0.86274 0.24072 0.0
C553 C 0.54977 0.8508 0.06297 0.0
C554 C 0.52754 0.84351 0.09094 0.0
C555 C 0.49635 0.843 0.20719 0.0
C556 C 0.48745 0.85031 0.29383 0.0
C557 C 0.51895 0.84946 0.17957 0.0
C558 C 0.50172 0.86311 0.35467 0.0
C559 C 0.52439 0.86908 0.32872 0.0
H560 H 0.86555 0.96332 0.59533 0.0
H561 H 0.91895 0.94768 0.39182 0.0
H562 H 0.92243 0.98884 0.35333 0.0
H563 H 0.91017 0.02909 0.3766 0.0
H564 H 0.85557 0.04485 0.57496 0.0
H565 H 0.85254 0.00374 0.6158 0.0
C566 C 0.87804 0.969 0.54307 0.0
C567 C 0.89204 0.95261 0.49679 0.0
C568 C 0.87961 0.99262 0.51988 0.0
C569 C 0.90794 0.96005 0.4282 0.0
C570 C 0.90995 0.98354 0.40616 0.0
C571 C 0.89761 0.02354 0.42877 0.0
C572 C 0.88319 0.03995 0.47282 0.0
C573 C 0.89582 -6e-05 0.45132 0.0
C574 C 0.86682 0.0325 0.53967 0.0
C575 C 0.86514 0.00903 0.56341 0.0
H576 H 0.05845 0.13604 0.62284 0.0
H577 H 0.07145 0.0847 0.4093 0.0
H578 H 0.02986 0.0835 0.372 0.0
H579 H 0.99016 0.09818 0.39542 0.0
H580 H 0.97729 0.15084 0.60396 0.0
H581 H 0.01851 0.15037 0.64775 0.0
C582 C 0.05212 0.12443 0.56884 0.0
C583 C 0.06794 0.11051 0.5189 0.0
C584 C 0.02827 0.12418 0.54636 0.0
C585 C 0.05958 0.0957 0.4484 0.0
C586 C 0.03582 0.09499 0.42701 0.0
C587 C 0.99634 0.10947 0.45079 0.0
C588 C 0.98072 0.12455 0.49609 0.0
C589 C 0.02007 0.10935 0.47476 0.0
C590 C 0.98901 0.13917 0.56742 0.0
C591 C 0.01256 0.13888 0.59274 0.0
H592 H 0.16686 0.94585 0.4366 0.0
H593 H 0.11681 0.96303 0.22119 0.0
H594 H 0.11904 0.00402 0.26476 0.0
H595 H 0.13412 0.03445 0.36705 0.0
H596 H 0.18328 0.017 0.58536 0.0
H597 H 0.18247 0.97632 0.53682 0.0
C598 C 0.15651 0.95853 0.39859 0.0
C599 C 0.14165 0.95139 0.32582 0.0
C600 C 0.15766 0.9819 0.42461 0.0
C601 C 0.12833 0.96807 0.27767 0.0
C602 C 0.12959 0.99148 0.30252 0.0
C603 C 0.14477 0.02181 0.4039 0.0
C604 C 0.1587 0.02872 0.47991 0.0
C605 C 0.14404 -0.00149 0.37639 0.0
C606 C 0.17235 0.0121 0.52686 0.0
C607 C 0.1719 0.98887 0.49917 0.0
H608 H 0.04975 0.83935 0.42423 0.0
H609 H 0.039 0.89567 0.22888 0.0
H610 H -0.00225 0.89738 0.27217 0.0
H611 H 0.96508 0.88301 0.36488 0.0
H612 H 0.9757 0.82694 0.56143 0.0
H613 H 0.017 0.82508 0.51787 0.0
C614 C 0.03842 0.85199 0.39076 0.0
C615 C 0.04745 0.86733 0.32316 0.0
C616 C 0.01481 0.85295 0.41622 0.0
C617 C 0.03251 0.88366 0.28107 0.0
C618 C 0.00894 0.88465 0.30577 0.0
C619 C 0.97636 0.87032 0.39838 0.0
C620 C 0.96729 0.85509 0.46629 0.0
C621 C -4e-05 0.86938 0.37322 0.0
C622 C 0.98223 0.83887 0.50906 0.0
C623 C 0.00581 0.83778 0.4841 0.0
H624 H 0.32487 0.19962 0.15522 0.0
H625 H 0.39914 0.20034 0.20796 0.0
H626 H 0.39958 0.24266 0.19578 0.0
H627 H 0.37936 0.27899 0.16426 0.0
H628 H 0.30551 0.27888 0.10181 0.0
H629 H 0.30441 0.23662 0.12255 0.0
C630 C 0.34103 0.20916 0.16517 0.0
C631 C 0.36192 0.19708 0.18297 0.0
C632 C 0.34128 0.23343 0.15514 0.0
C633 C 0.38288 0.20942 0.19416 0.0
C634 C 0.38315 0.23354 0.18702 0.0
C635 C 0.36296 0.26979 0.15546 0.0
C636 C 0.34254 0.28203 0.13173 0.0
C637 C 0.36253 0.24566 0.16641 0.0
C638 C 0.32151 0.2698 0.11965 0.0
C639 C 0.32084 0.24568 0.13191 0.0
H640 H 0.25784 0.63787 0.96394 0.0
H641 H 0.26608 0.64287 0.66518 0.0
H642 H 0.22363 0.64382 0.64572 0.0
H643 H 0.18408 0.64131 0.71348 0.0
H644 H 0.17622 0.63792 0.01294 0.0
H645 H 0.21856 0.63835 0.03205 0.0
C646 C 0.25035 0.63929 0.8946 0.0
C647 C 0.26508 0.64009 0.81616 0.0
C648 C 0.22597 0.64003 0.88395 0.0
C649 C 0.25512 0.64224 0.7268 0.0
C650 C 0.23084 0.64269 0.71555 0.0
C651 C 0.19166 0.64075 0.78286 0.0
C652 C 0.17701 0.63939 0.86153 0.0
C653 C 0.21609 0.64127 0.79358 0.0
C654 C 0.18708 0.63899 0.9511 0.0
C655 C 0.21131 0.63916 0.9622 0.0
H656 H 0.61776 0.79569 0.02425 0.0
H657 H 0.6922 0.79237 0.07103 0.0
H658 H 0.68982 0.74994 0.08727 0.0
H659 H 0.66613 0.7139 0.09052 0.0
H660 H 0.59135 0.71864 0.05368 0.0
H661 H 0.59433 0.76051 0.03105 0.0
C662 C 0.63354 0.7857 0.0372 0.0
C663 C 0.65517 0.79709 0.04548 0.0
C664 C 0.63193 0.7616 0.04861 0.0
C665 C 0.67536 0.78395 0.06416 0.0
C666 C 0.67399 0.75973 0.07341 0.0
C667 C 0.65055 0.72414 0.07722 0.0
C668 C 0.62856 0.71321 0.07365 0.0
C669 C 0.65232 0.74838 0.06612 0.0
C670 C 0.60845 0.72667 0.05734 0.0
C671 C 0.61014 0.7506 0.04409 0.0
H672 H 0.78363 0.34224 0.81802 0.0
H673 H 0.78379 0.34925 0.11805 0.0
H674 H 0.74116 0.35082 0.11902 0.0
H675 H 0.70409 0.3538 0.03317 0.0
H676 H 0.70388 0.3456 0.73375 0.0
H677 H 0.7463 0.34084 0.73407 0.0
C678 C 0.77431 0.34381 0.88369 0.0
C679 C 0.78682 0.34592 0.96758 0.0
C680 C 0.74983 0.34473 0.88381 0.0
C681 C 0.77455 0.34761 0.05237 0.0
C682 C 0.75018 0.34867 0.05301 0.0
C683 C 0.71336 0.35083 0.96816 0.0
C684 C 0.701 0.3504 0.8835 0.0
C685 C 0.73769 0.34786 0.96892 0.0
C686 C 0.71308 0.34609 0.79983 0.0
C687 C 0.73731 0.34342 0.79989 0.0
H688 H 0.86371 0.69466 0.59193 0.0
H689 H 0.7938 0.71003 0.68789 0.0
H690 H 0.80034 0.75148 0.65815 0.0
H691 H 0.82641 0.78323 0.60774 0.0
H692 H 0.89678 0.76724 0.51949 0.0
H693 H 0.88939 0.72583 0.54208 0.0
C694 C 0.8498 0.707 0.60616 0.0
C695 C 0.82827 0.69929 0.6419 0.0
C696 C 0.85374 0.7306 0.58969 0.0
C697 C 0.81057 0.71557 0.66071 0.0
C698 C 0.81427 0.73922 0.64336 0.0
C699 C 0.83998 0.77061 0.5924 0.0
C700 C 0.86206 0.77814 0.56161 0.0
C701 C 0.83581 0.7469 0.60797 0.0
C702 C 0.87967 0.76176 0.54337 0.0
C703 C 0.87548 0.73814 0.55641 0.0
H704 H 0.79681 0.14057 0.4967 0.0
H705 H 0.80894 0.1476 0.20086 0.0
H706 H 0.76703 0.15298 0.17426 0.0
H707 H 0.72678 0.15303 0.23463 0.0
H708 H 0.71507 0.14782 0.53163 0.0
H709 H 0.75706 0.14468 0.55846 0.0
C710 C 0.79024 0.14341 0.42655 0.0
C711 C 0.80574 0.1434 0.35071 0.0
C712 C 0.76627 0.14681 0.41205 0.0
C713 C 0.79721 0.14752 0.26025 0.0
C714 C 0.77329 0.15051 0.245 0.0
C715 C 0.73347 0.15143 0.30521 0.0
C716 C 0.71789 0.1504 0.38088 0.0
C717 C 0.75763 0.1498 0.32026 0.0
C718 C 0.72674 0.14866 0.47216 0.0
C719 C 0.75073 0.14673 0.4876 0.0
H720 H 0.11336 0.2801 0.62686 0.0
H721 H 0.18647 0.29344 0.67892 0.0
H722 H 0.19525 0.25212 0.6595 0.0
H723 H 0.18199 0.21213 0.62733 0.0
H724 H 0.10854 0.19916 0.5826 0.0
H725 H 0.10009 0.24054 0.59827 0.0
C726 C 0.13123 0.274 0.63405 0.0
C727 C 0.14922 0.28979 0.65403 0.0
C728 C 0.13611 0.25033 0.62334 0.0
C729 C 0.17226 0.28158 0.66397 0.0
C730 C 0.17732 0.25799 0.65238 0.0
C731 C 0.16421 0.21848 0.62021 0.0
C732 C 0.14592 0.20279 0.60339 0.0
C733 C 0.15938 0.24223 0.63164 0.0
C734 C 0.12287 0.21103 0.59573 0.0
C735 C 0.11802 0.23463 0.60476 0.0
H736 H 0.3027 0.82083 0.29044 0.0
H737 H 0.31417 0.89325 0.22638 0.0
H738 H 0.27207 0.89964 0.21492 0.0
H739 H 0.23209 0.88506 0.23114 0.0
H740 H 0.22016 0.81221 0.28207 0.0
H741 H 0.2625 0.80536 0.29078 0.0
C742 C 0.29589 0.83793 0.27332 0.0
C743 C 0.31129 0.8566 0.26009 0.0
C744 C 0.27173 0.84136 0.26516 0.0
C745 C 0.3025 0.87864 0.23659 0.0
C746 C 0.27849 0.88233 0.23053 0.0
C747 C 0.23888 0.86771 0.24387 0.0
C748 C 0.22342 0.84918 0.25744 0.0
C749 C 0.26299 0.86391 0.24606 0.0
C750 C 0.23204 0.82665 0.27194 0.0
C751 C 0.25612 0.82279 0.27701 0.0
H752 H 0.21464 0.11479 0.85843 0.0
H753 H 0.2613 0.11791 0.62249 0.0
H754 H 0.29515 0.11543 0.72789 0.0
H755 H 0.31092 0.11044 0.88651 0.0
H756 H 0.26415 0.10999 0.12279 0.0
H757 H 0.23047 0.11344 0.01759 0.0
C758 C 0.23229 0.11515 0.83053 0.0
C759 C 0.23578 0.11631 0.73364 0.0
C760 C 0.25137 0.11404 0.89124 0.0
C761 C 0.25847 0.11707 0.6972 0.0
C762 C 0.27769 0.11553 0.75726 0.0
C763 C 0.29331 0.11106 0.91469 0.0
C764 C 0.28977 0.10951 0.01163 0.0
C765 C 0.27428 0.11363 0.85418 0.0
C766 C 0.26708 0.11096 0.04817 0.0
C767 C 0.24794 0.11293 -0.01179 0.0
H768 H 0.09815 0.73346 0.85344 0.0
H769 H 0.07136 0.70029 0.1011 0.0
H770 H 0.0794 0.73518 0.19273 0.0
H771 H 0.0984 0.77298 0.20564 0.0
H772 H 0.12791 0.80522 0.95997 0.0
H773 H 0.11464 0.77282 0.86437 0.0
C774 C 0.09349 0.73428 0.9268 0.0
C775 C 0.08413 0.71469 0.97098 0.0
C776 C 0.0992 0.75393 0.97973 0.0
C777 C 0.07852 0.71544 0.06629 0.0
C778 C 0.08328 0.73523 0.11865 0.0
C779 C 0.10183 0.77298 0.13115 0.0
C780 C 0.11448 0.79122 0.09044 0.0
C781 C 0.09441 0.75423 0.07675 0.0
C782 C 0.11858 0.79112 -0.00648 0.0
C783 C 0.11088 0.77268 0.93854 0.0
H784 H 0.74988 0.8792 0.98486 0.0
H785 H 0.70733 0.9091 0.76682 0.0
H786 H 0.73969 0.90577 0.65657 0.0
H787 H 0.78021 0.89364 0.62114 0.0
H788 H 0.8233 0.86632 0.84231 0.0
H789 H 0.79077 0.86921 0.95213 0.0
C790 C 0.74782 0.88514 0.91341 0.0
C791 C 0.72639 0.89443 0.88409 0.0
C792 C 0.76656 0.88346 0.85072 0.0
C793 C 0.72385 0.90216 0.79138 0.0
C794 C 0.74226 0.90009 0.72802 0.0
C795 C 0.78226 0.88828 0.69331 0.0
C796 C 0.80382 0.87966 0.72412 0.0
C797 C 0.76367 0.89062 0.75668 0.0
C798 C 0.80669 0.87303 0.81778 0.0
C799 C 0.78815 0.87467 0.88043 0.0
H800 H 0.91202 0.26824 0.04893 0.0
H801 H 0.8734 0.30176 0.27032 0.0
H802 H 0.87996 0.26858 0.37202 0.0
H803 H 0.89245 0.22803 0.3918 0.0
H804 H 0.9282 0.19333 0.16679 0.0
H805 H 0.92763 0.22901 0.074 0.0
C806 C 0.90523 0.26835 0.11964 0.0
C807 C 0.89189 0.28726 0.15112 0.0
C808 C 0.9087 0.24898 0.17757 0.0
C809 C 0.88338 0.28724 0.24343 0.0
C810 C 0.88721 0.2683 0.30208 0.0
C811 C 0.90075 0.22863 0.32373 0.0
C812 C 0.91042 0.20838 0.28584 0.0
C813 C 0.8993 0.24882 0.26913 0.0
C814 C 0.92074 0.20896 0.19691 0.0
C815 C 0.92023 0.22923 0.14366 0.0
H816 H 0.28777 0.38508 0.37093 0.0
H817 H 0.24607 0.373 0.12492 0.0
H818 H 0.2103 0.37453 0.21948 0.0
H819 H 0.19127 0.37919 0.37211 0.0
H820 H 0.23333 0.38759 0.61981 0.0
H821 H 0.26892 0.38753 0.52441 0.0
C822 C 0.2708 0.38296 0.3381 0.0
C823 C 0.26932 0.37933 0.2413 0.0
C824 C 0.25058 0.38313 0.3931 0.0
C825 C 0.24743 0.37596 0.19941 0.0
C826 C 0.22709 0.37684 0.25333 0.0
C827 C 0.20825 0.38114 0.405 0.0
C828 C 0.20983 0.38372 0.5024 0.0
C829 C 0.2285 0.38044 0.35016 0.0
C830 C 0.23183 0.38567 0.54482 0.0
C831 C 0.25209 0.38568 0.49039 0.0
H832 H 0.37758 0.69225 0.59041 0.0
H833 H 0.36799 0.73257 0.84123 0.0
H834 H 0.37882 0.7681 0.75651 0.0
H835 H 0.38853 0.78756 0.60875 0.0
H836 H 0.40028 0.74686 0.36032 0.0
H837 H 0.39151 0.71116 0.44718 0.0
C838 C 0.37783 0.70887 0.62626 0.0
C839 C 0.37151 0.71013 0.72086 0.0
C840 C 0.38461 0.72889 0.57792 0.0
C841 C 0.37255 0.73145 0.76795 0.0
C842 C 0.37874 0.75164 0.71969 0.0
C843 C 0.38943 0.77079 0.57415 0.0
C844 C 0.39473 0.76963 0.47848 0.0
C845 C 0.38447 0.75055 0.62443 0.0
C846 C 0.39627 0.74798 0.4341 0.0
C847 C 0.39107 0.72769 0.48346 0.0
H848 H 0.67925 0.58546 0.35542 0.0
H849 H 0.7138 0.64013 0.2011 0.0
H850 H 0.74358 0.64286 0.32283 0.0
H851 H 0.75847 0.63128 0.47682 0.0
H852 H 0.72489 0.57586 0.62865 0.0
H853 H 0.69552 0.57223 0.50454 0.0
C854 C 0.69343 0.59781 0.34745 0.0
C855 C 0.69415 0.61268 0.26908 0.0
C856 C 0.71024 0.59956 0.41835 0.0
C857 C 0.71274 0.62849 0.26043 0.0
C858 C 0.72968 0.63021 0.33045 0.0
C859 C 0.74448 0.61865 0.48323 0.0
C860 C 0.74331 0.60428 0.56262 0.0
C861 C 0.72825 0.61622 0.41059 0.0
C862 C 0.72576 0.58735 0.56878 0.0
C863 C 0.70915 0.5852 0.49768 0.0
H864 H 0.61362 0.20709 0.60584 0.0
H865 H 0.61509 0.24585 0.34798 0.0
H866 H 0.60866 0.28211 0.43468 0.0
H867 H 0.60552 0.30265 0.58465 0.0
H868 H 0.60278 0.26354 0.84175 0.0
H869 H 0.60636 0.2272 0.75391 0.0
C870 C 0.61252 0.22351 0.56866 0.0
C871 C 0.61533 0.22403 0.4711 0.0
C872 C 0.60849 0.24402 0.61864 0.0
C873 C 0.61319 0.24519 0.42318 0.0
C874 C 0.60954 0.26583 0.4727 0.0
C875 C 0.60547 0.28613 0.62137 0.0
C876 C 0.60422 0.2857 0.71957 0.0
C877 C 0.60757 0.26544 0.57052 0.0
C878 C 0.60372 0.26426 0.76627 0.0
C879 C 0.60595 0.24354 0.71615 0.0
H880 H 0.3576 0.07428 0.53901 0.0
H881 H 0.33087 0.14435 0.53065 0.0
H882 H 0.3396 0.14898 0.69746 0.0
H883 H 0.36032 0.13473 0.83743 0.0
H884 H 0.39048 0.06582 0.83645 0.0
H885 H 0.37608 0.05945 0.6785 0.0
C886 C 0.35319 0.09039 0.5745 0.0
C887 C 0.34404 0.10908 0.52354 0.0
C888 C 0.35996 0.09346 0.66672 0.0
C889 C 0.3379 0.12974 0.56935 0.0
C890 C 0.3434 0.13253 0.66378 0.0
C891 C 0.3641 0.11853 0.80175 0.0
C892 C 0.3769 0.10094 0.84694 0.0
C893 C 0.35559 0.11492 0.71146 0.0
C894 C 0.38102 0.0797 0.80178 0.0
C895 C 0.37254 0.07594 0.71235 0.0
H896 H 0.08431 0.60755 0.48864 0.0
H897 H 0.07869 0.68224 0.46594 0.0
H898 H 0.0681 0.67842 0.3007 0.0
H899 H 0.06508 0.65392 0.1615 0.0
H900 H 0.07323 0.57965 0.18386 0.0
H901 H 0.07719 0.58298 0.35385 0.0
C902 C 0.08095 0.62304 0.44742 0.0
C903 C 0.08303 0.64521 0.48754 0.0
C904 C 0.07475 0.62065 0.3542 0.0
C905 C 0.07769 0.66508 0.43505 0.0
C906 C 0.07147 0.66287 0.34139 0.0
C907 C 0.06685 0.63848 0.20467 0.0
C908 C 0.06872 0.61659 0.16265 0.0
C909 C 0.07042 0.64076 0.30022 0.0
C910 C 0.07139 0.59653 0.21663 0.0
C911 C 0.07405 0.59853 0.31288 0.0
H912 H 0.66102 0.92062 0.3959 0.0
H913 H 0.68684 0.85022 0.39701 0.0
H914 H 0.67919 0.8474 0.5652 0.0
H915 H 0.65903 0.86296 0.70325 0.0
H916 H 0.63064 0.93257 0.69695 0.0
H917 H 0.64456 0.93751 0.5369 0.0
C918 C 0.66567 0.90495 0.434 0.0
C919 C 0.6742 0.88557 0.38537 0.0
C920 C 0.65969 0.903 0.52781 0.0
C921 C 0.68042 0.86535 0.43402 0.0
C922 C 0.67552 0.86361 0.52934 0.0
C923 C 0.65562 0.87909 0.6663 0.0
C924 C 0.64318 0.89714 0.71007 0.0
C925 C 0.66393 0.88187 0.57529 0.0
C926 C 0.6397 0.91829 0.6633 0.0
C927 C 0.64788 0.92121 0.5726 0.0
H928 H 0.86259 0.34375 0.29958 0.0
H929 H 0.91139 0.40059 0.32229 0.0
H930 H 0.91886 0.39016 0.48607 0.0
H931 H 0.90782 0.36747 0.62564 0.0
H932 H 0.85858 0.31122 0.60103 0.0
H933 H 0.8556 0.3181 0.43253 0.0
C934 C 0.87487 0.3539 0.34033 0.0
C935 C 0.88591 0.37337 0.30036 0.0
C936 C 0.8793 0.34753 0.43277 0.0
C937 C 0.90236 0.38586 0.35262 0.0
C938 C 0.9067 0.3798 0.4457 0.0
C939 C 0.8972 0.35619 0.58225 0.0
C940 C 0.88369 0.33865 0.62414 0.0
C941 C 0.8949 0.36095 0.48679 0.0
C942 C 0.86947 0.32442 0.56906 0.0
C943 C 0.86749 0.32865 0.47341 0.0
H944 H 0.34517 0.34507 0.43938 0.0
H945 H 0.36352 0.4179 0.44741 0.0
H946 H 0.34913 0.42053 0.60763 0.0
H947 H 0.33509 0.40127 0.74773 0.0
H948 H 0.3197 0.32797 0.74493 0.0
H949 H 0.32765 0.32657 0.5766 0.0
C950 C 0.34633 0.36144 0.47668 0.0
C951 C 0.35602 0.38113 0.43338 0.0
C952 C 0.33778 0.36285 0.56758 0.0
C953 C 0.35662 0.40244 0.48075 0.0
C954 C 0.34813 0.40401 0.57145 0.0
C955 C 0.33275 0.38518 0.70913 0.0
C956 C 0.32709 0.36471 0.75695 0.0
C957 C 0.33899 0.38427 0.61553 0.0
C958 C 0.32388 0.3439 0.70815 0.0
C959 C 0.32895 0.34304 0.6129 0.0
H960 H 0.34466 0.60444 0.20008 0.0
H961 H 0.37149 0.67457 0.21533 0.0
H962 H 0.3828 0.66805 0.3782 0.0
H963 H 0.38194 0.64341 0.51706 0.0
H964 H 0.35281 0.57446 0.50317 0.0
H965 H 0.34674 0.5789 0.33457 0.0
C966 C 0.3527 0.61847 0.23915 0.0
C967 C 0.35667 0.64021 0.19723 0.0
C968 C 0.35949 0.61443 0.33074 0.0
C969 C 0.36784 0.65791 0.24745 0.0
C970 C 0.37455 0.65408 0.33963 0.0
C971 C 0.37512 0.6291 0.47576 0.0
C972 C 0.36798 0.60859 0.51996 0.0
C973 C 0.37028 0.63247 0.38172 0.0
C974 C 0.35876 0.59014 0.46856 0.0
C975 C 0.35486 0.59292 0.3733 0.0
H976 H 0.61331 0.65836 0.75239 0.0
H977 H 0.66673 0.60554 0.74927 0.0
H978 H 0.66066 0.59981 0.58112 0.0
H979 H 0.63583 0.60591 0.44311 0.0
H980 H 0.58072 0.65726 0.45095 0.0
H981 H 0.59105 0.66699 0.61189 0.0
C982 C 0.62418 0.64624 0.71365 0.0
C983 C 0.64041 0.6324 0.76135 0.0
C984 C 0.61942 0.64201 0.62001 0.0
C985 C 0.65441 0.61656 0.7125 0.0
C986 C 0.65052 0.61294 0.61734 0.0
C987 C 0.62585 0.61894 0.48083 0.0
C988 C 0.60703 0.63035 0.4374 0.0
C989 C 0.6322 0.62471 0.572 0.0
C990 C 0.59486 0.64791 0.48471 0.0
C991 C 0.60095 0.65366 0.57576 0.0
H992 H 0.58127 0.36345 0.53638 0.0
H993 H 0.64377 0.40531 0.53156 0.0
H994 H 0.6515 0.39343 0.3711 0.0
H995 H 0.64195 0.36969 0.23879 0.0
H996 H 0.57803 0.32983 0.23313 0.0
H997 H 0.57029 0.34078 0.39601 0.0
C998 C 0.59599 0.37066 0.49837 0.0
C999 C 0.61171 0.38562 0.54364 0.0
C1000 C 0.60072 0.36308 0.40752 0.0
C1001 C 0.63125 0.39426 0.49619 0.0
C1002 C 0.63592 0.38706 0.40574 0.0
C1003 C 0.62627 0.36328 0.27287 0.0
C1004 C 0.61043 0.3492 0.22393 0.0
C1005 C 0.62111 0.37105 0.36213 0.0
C1006 C 0.59056 0.34057 0.26979 0.0
C1007 C 0.58589 0.34725 0.3619 0.0
H1008 H 0.79763 0.58526 0.03894 0.0
H1009 H 0.79381 0.65998 0.05162 0.0
H1010 H 0.79827 0.65857 0.2219 0.0
H1011 H 0.81058 0.63636 0.35996 0.0
H1012 H 0.8161 0.56163 0.34558 0.0
H1013 H 0.80407 0.5626 0.18135 0.0
C1014 C 0.79682 0.60113 0.07989 0.0
C1015 C 0.79545 0.62269 0.03431 0.0
C1016 C 0.80072 0.60015 0.17593 0.0
C1017 C 0.79456 0.64325 0.08634 0.0
C1018 C 0.7976 0.64242 0.18306 0.0
C1019 C 0.80925 0.62031 0.32048 0.0
C1020 C 0.81511 0.59901 0.36258 0.0
C1021 C 0.80207 0.62106 0.22733 0.0
C1022 C 0.81229 0.57822 0.31299 0.0
C1023 C 0.80524 0.57878 0.21982 0.0
H1024 H 0.59975 0.15624 0.66953 0.0
H1025 H 0.62811 0.08694 0.68677 0.0
H1026 H 0.63397 0.09168 0.85532 0.0
H1027 H 0.63653 0.11763 -0.01119 0.0
H1028 H 0.6105 0.18806 0.97014 0.0
H1029 H 0.5989 0.18118 0.80773 0.0
C1030 C 0.60632 0.1419 0.71149 0.0
C1031 C 0.61335 0.12123 0.66785 0.0
C1032 C 0.61107 0.14543 0.80568 0.0
C1033 C 0.62222 0.10276 0.72051 0.0
C1034 C 0.62603 0.10572 0.81588 0.0
C1035 C 0.62857 0.13163 0.94906 0.0
C1036 C 0.62503 0.1536 -0.01014 0.0
C1037 C 0.62164 0.12739 0.85759 0.0
C1038 C 0.61388 0.17123 0.93892 0.0
C1039 C 0.60701 0.1672 0.84694 0.0
H1040 H 0.13624 0.3501 0.32103 0.0
H1041 H 0.09595 0.41364 0.31679 0.0
H1042 H 0.10874 0.42137 0.15735 0.0
H1043 H 0.13068 0.40999 0.02117 0.0
H1044 H 0.16827 0.34494 0.016 0.0
H1045 H 0.1589 0.33869 0.18155 0.0
C1046 C 0.12977 0.36526 0.28393 0.0
C1047 C 0.11478 0.38107 0.32876 0.0
C1048 C 0.13762 0.36982 0.19338 0.0
C1049 C 0.10711 0.40109 0.28207 0.0
C1050 C 0.11473 0.4057 0.19204 0.0
C1051 C 0.13712 0.39456 0.05673 0.0
C1052 C 0.14978 0.37776 0.00714 0.0
C1053 C 0.1301 0.39029 0.14779 0.0
C1054 C 0.15855 0.35813 0.05357 0.0
C1055 C 0.15272 0.35433 0.14717 0.0
H1056 H 0.36484 0.83797 0.97412 0.0
H1057 H 0.43518 0.81106 0.97831 0.0
H1058 H 0.43832 0.81701 0.80914 0.0
H1059 H 0.42334 0.8365 0.66875 0.0
H1060 H 0.35406 0.86651 0.67072 0.0
H1061 H 0.34838 0.85349 0.83121 0.0
C1062 C 0.38058 0.83278 0.93703 0.0
C1063 C 0.39989 0.82453 -0.01307 0.0
C1064 C 0.38274 0.83779 0.8427 0.0
C1065 C 0.42014 0.81743 0.93996 0.0
C1066 C 0.42207 0.82129 0.8441 0.0
C1067 C 0.40713 0.84039 0.70486 0.0
C1068 C 0.38939 0.85304 0.66 0.0
C1069 C 0.40397 0.83276 0.79635 0.0
C1070 C 0.36809 0.85723 0.70543 0.0
C1071 C 0.36474 0.84958 0.79635 0.0
H1072 H 0.88541 0.83099 0.21033 0.0
H1073 H 0.83073 0.88244 0.19749 0.0
H1074 H 0.83763 0.88744 0.02957 0.0
H1075 H 0.86344 0.88146 0.89504 0.0
H1076 H 0.91876 0.83049 0.90874 0.0
H1077 H 0.90807 0.82148 0.07056 0.0
C1078 C 0.87443 0.84259 0.1695 0.0
C1079 C 0.85756 0.85627 0.21454 0.0
C1080 C 0.87946 0.84624 0.07543 0.0
C1081 C 0.8435 0.8715 0.1629 0.0
C1082 C 0.84785 0.87472 0.06783 0.0
C1083 C 0.87331 0.86857 0.93399 0.0
C1084 C 0.8924 0.85721 0.89226 0.0
C1085 C 0.8666 0.86307 0.02502 0.0
C1086 C 0.90446 0.83984 0.94123 0.0
C1087 C 0.89816 0.83452 0.0328 0.0
H1088 H 0.8662 0.10238 0.05324 0.0
H1089 H 0.94122 0.10883 0.06394 0.0
H1090 H 0.94176 0.12118 0.89994 0.0
H1091 H 0.92004 0.13461 0.76105 0.0
H1092 H 0.84467 0.13132 0.75933 0.0
H1093 H 0.84484 0.11497 0.91663 0.0
C1094 C 0.88272 0.10591 0.01863 0.0
C1095 C 0.90358 0.10502 0.06971 0.0
C1096 C 0.88262 0.11497 0.92878 0.0
C1097 C 0.92497 0.10926 0.02507 0.0
C1098 C 0.92519 0.11694 0.93249 0.0
C1099 C 0.90369 0.13099 0.79668 0.0
C1100 C 0.88232 0.13465 0.75085 0.0
C1101 C 0.904 0.12098 0.88558 0.0
C1102 C 0.86121 0.12912 0.79523 0.0
C1103 C 0.86134 0.11934 0.88381 0.0
H1104 H 0.15782 0.14303 0.92441 0.0
H1105 H 0.1556 0.06794 0.9318 0.0
H1106 H 0.17107 0.06822 0.09043 0.0
H1107 H 0.18073 0.08975 0.23102 0.0
H1108 H 0.17945 0.16459 0.23042 0.0
H1109 H 0.17134 0.16462 0.06209 0.0
C1110 C 0.16048 0.12674 0.96111 0.0
C1111 C 0.15495 0.1055 0.91778 0.0
C1112 C 0.16949 0.12703 0.05177 0.0
C1113 C 0.15925 0.0845 0.96474 0.0
C1114 C 0.16835 0.08463 0.05475 0.0
C1115 C 0.17957 0.10603 0.1928 0.0
C1116 C 0.18056 0.12712 0.24146 0.0
C1117 C 0.17313 0.10578 0.09914 0.0
C1118 C 0.17899 0.14822 0.19311 0.0
C1119 C 0.17381 0.14817 0.09777 0.0
H1120 H 0.17053 0.86988 0.61711 0.0
H1121 H 0.10995 0.82515 0.61139 0.0
H1122 H 0.10233 0.83393 0.77594 0.0
H1123 H 0.11128 0.857 0.91646 0.0
H1124 H 0.17093 0.90279 0.91656 0.0
H1125 H 0.17968 0.89214 0.75515 0.0
C1126 C 0.15575 0.86183 0.65191 0.0
C1127 C 0.14061 0.8472 0.60214 0.0
C1128 C 0.15069 0.86806 0.74338 0.0
C1129 C 0.12188 0.83645 0.64855 0.0
C1130 C 0.11726 0.84183 0.74182 0.0
C1131 C 0.12572 0.86513 0.87966 0.0
C1132 C 0.14008 0.88117 0.92582 0.0
C1133 C 0.13105 0.8583 0.78854 0.0
C1134 C 0.15939 0.89091 0.88026 0.0
C1135 C 0.16459 0.88451 0.78916 0.0
loop_
_geom_bond_atom_site_label_1
_geom_bond_atom_site_label_2
_geom_bond_distance
_geom_bond_site_symmetry_2
_ccdc_geom_bond_type
O0 Zn1 1.953 1_556 S
O0 C16 1.225 . S
Zn1 O0 1.953 1_554 S
Zn1 O2 1.949 . S
Zn1 O8 1.919 . S
Zn1 O13 1.924 . S
O2 Zn1 1.949 . S
O2 Zn3 1.923 . S
O2 Zn4 1.950 . S
O2 Zn5 1.945 . S
Zn3 O2 1.923 . S
Zn3 O6 1.933 . S
Zn3 O9 1.941 . S
Zn3 O10 1.965 . S
Zn4 O2 1.950 . S
Zn4 O11 1.938 . S
Zn4 O12 1.906 . S
Zn4 O22 1.953 1_554 S
Zn5 O2 1.945 . S
Zn5 O7 1.932 . S
Zn5 O14 1.977 . S
Zn5 O15 1.910 . S
O6 Zn3 1.933 . S
O6 C17 1.226 . S
O7 Zn5 1.932 . S
O7 C17 1.307 . S
O8 Zn1 1.919 . S
O8 C19 1.253 . S
O9 Zn3 1.941 . S
O9 C19 1.283 . S
O10 Zn3 1.965 . S
O10 C18 1.303 . S
O11 Zn4 1.938 . S
O11 C18 1.247 . S
O12 Zn4 1.906 . S
O12 C20 1.304 . S
O13 Zn1 1.924 . S
O13 C21 1.311 . S
O14 Zn5 1.977 . S
O14 C20 1.272 . S
O15 Zn5 1.910 . S
O15 C21 1.231 . S
C16 O0 1.225 . S
C16 O22 1.298 . S
C17 O6 1.226 . S
C17 O7 1.307 . S
C18 O10 1.303 . S
C18 O11 1.247 . S
C19 O8 1.253 . S
C19 O9 1.283 . S
C20 O12 1.304 . S
C20 O14 1.272 . S
C21 O13 1.311 . S
C21 O15 1.231 . S
O22 Zn4 1.953 1_556 S
O22 C16 1.298 . S
O23 Zn24 1.953 1_554 S
O23 C39 1.225 . S
Zn24 O23 1.953 1_556 S
Zn24 O25 1.949 . S
Zn24 O31 1.919 . S
Zn24 O36 1.924 . S
O25 Zn24 1.949 . S
O25 Zn26 1.923 . S
O25 Zn27 1.950 . S
O25 Zn28 1.945 . S
Zn26 O25 1.923 . S
Zn26 O29 1.933 . S
Zn26 O32 1.941 . S
Zn26 O33 1.965 . S
Zn27 O25 1.950 . S
Zn27 O34 1.938 . S
Zn27 O35 1.906 . S
Zn27 O45 1.953 1_556 S
Zn28 O25 1.945 . S
Zn28 O30 1.932 . S
Zn28 O37 1.977 . S
Zn28 O38 1.910 . S
O29 Zn26 1.933 . S
O29 C40 1.226 . S
O30 Zn28 1.932 . S
O30 C40 1.307 . S
O31 Zn24 1.919 . S
O31 C42 1.253 . S
O32 Zn26 1.941 . S
O32 C42 1.283 . S
O33 Zn26 1.965 . S
O33 C41 1.303 . S
O34 Zn27 1.938 . S
O34 C41 1.247 . S
O35 Zn27 1.906 . S
O35 C43 1.304 . S
O36 Zn24 1.924 . S
O36 C44 1.311 . S
O37 Zn28 1.977 . S
O37 C43 1.272 . S
O38 Zn28 1.910 . S
O38 C44 1.231 . S
C39 O23 1.225 . S
C39 O45 1.298 . S
C40 O29 1.226 . S
C40 O30 1.307 . S
C41 O33 1.303 . S
C41 O34 1.247 . S
C42 O31 1.253 . S
C42 O32 1.283 . S
C43 O35 1.304 . S
C43 O37 1.272 . S
C44 O36 1.311 . S
C44 O38 1.231 . S
O45 Zn27 1.953 1_554 S
O45 C39 1.298 . S
O46 Zn47 1.953 1_556 S
O46 C62 1.225 . S
Zn47 O46 1.953 1_554 S
Zn47 O48 1.949 . S
Zn47 O54 1.919 . S
Zn47 O59 1.924 . S
O48 Zn47 1.949 . S
O48 Zn49 1.923 . S
O48 Zn50 1.950 . S
O48 Zn51 1.945 . S
Zn49 O48 1.923 . S
Zn49 O52 1.933 . S
Zn49 O55 1.941 . S
Zn49 O56 1.965 . S
Zn50 O48 1.950 . S
Zn50 O57 1.938 . S
Zn50 O58 1.906 . S
Zn50 O68 1.953 1_554 S
Zn51 O48 1.945 . S
Zn51 O53 1.932 . S
Zn51 O60 1.977 . S
Zn51 O61 1.910 . S
O52 Zn49 1.933 . S
O52 C63 1.226 . S
O53 Zn51 1.932 . S
O53 C63 1.307 . S
O54 Zn47 1.919 . S
O54 C65 1.253 . S
O55 Zn49 1.941 . S
O55 C65 1.283 . S
O56 Zn49 1.965 . S
O56 C64 1.303 . S
O57 Zn50 1.938 . S
O57 C64 1.247 . S
O58 Zn50 1.906 . S
O58 C66 1.304 . S
O59 Zn47 1.924 . S
O59 C67 1.311 . S
O60 Zn51 1.977 . S
O60 C66 1.272 . S
O61 Zn51 1.910 . S
O61 C67 1.231 . S
C62 O46 1.225 . S
C62 O68 1.298 . S
C63 O52 1.226 . S
C63 O53 1.307 . S
C64 O56 1.303 . S
C64 O57 1.247 . S
C65 O54 1.253 . S
C65 O55 1.283 . S
C66 O58 1.304 . S
C66 O60 1.272 . S
C67 O59 1.311 . S
C67 O61 1.231 . S
O68 Zn50 1.953 1_556 S
O68 C62 1.298 . S
O69 Zn70 1.953 1_554 S
O69 C85 1.225 . S
Zn70 O69 1.953 1_556 S
Zn70 O71 1.949 . S
Zn70 O77 1.919 . S
Zn70 O82 1.924 . S
O71 Zn70 1.949 . S
O71 Zn72 1.923 . S
O71 Zn73 1.950 . S
O71 Zn74 1.945 . S
Zn72 O71 1.923 . S
Zn72 O75 1.933 . S
Zn72 O78 1.941 . S
Zn72 O79 1.965 . S
Zn73 O71 1.950 . S
Zn73 O80 1.938 . S
Zn73 O81 1.906 . S
Zn73 O91 1.953 1_556 S
Zn74 O71 1.945 . S
Zn74 O76 1.932 . S
Zn74 O83 1.977 . S
Zn74 O84 1.910 . S
O75 Zn72 1.933 . S
O75 C86 1.226 . S
O76 Zn74 1.932 . S
O76 C86 1.307 . S
O77 Zn70 1.919 . S
O77 C88 1.253 . S
O78 Zn72 1.941 . S
O78 C88 1.283 . S
O79 Zn72 1.965 . S
O79 C87 1.303 . S
O80 Zn73 1.938 . S
O80 C87 1.247 . S
O81 Zn73 1.906 . S
O81 C89 1.304 . S
O82 Zn70 1.924 . S
O82 C90 1.311 . S
O83 Zn74 1.977 . S
O83 C89 1.272 . S
O84 Zn74 1.910 . S
O84 C90 1.231 . S
C85 O69 1.225 . S
C85 O91 1.298 . S
C86 O75 1.226 . S
C86 O76 1.307 . S
C87 O79 1.303 . S
C87 O80 1.247 . S
C88 O77 1.253 . S
C88 O78 1.283 . S
C89 O81 1.304 . S
C89 O83 1.272 . S
C90 O82 1.311 . S
C90 O84 1.231 . S
O91 Zn73 1.953 1_554 S
O91 C85 1.298 . S
O92 Zn93 1.953 . S
O92 C108 1.225 . S
Zn93 O92 1.953 . S
Zn93 O94 1.949 . S
Zn93 O100 1.919 . S
Zn93 O105 1.924 . S
O94 Zn93 1.949 . S
O94 Zn95 1.923 . S
O94 Zn96 1.950 . S
O94 Zn97 1.945 . S
Zn95 O94 1.923 . S
Zn95 O98 1.933 1_554 S
Zn95 O101 1.941 . S
Zn95 O102 1.965 . S
Zn96 O94 1.950 . S
Zn96 O103 1.938 . S
Zn96 O104 1.906 . S
Zn96 O114 1.953 . S
Zn97 O94 1.945 . S
Zn97 O99 1.932 1_554 S
Zn97 O106 1.977 . S
Zn97 O107 1.910 . S
O98 Zn95 1.933 1_556 S
O98 C109 1.226 . S
O99 Zn97 1.932 1_556 S
O99 C109 1.307 . S
O100 Zn93 1.919 . S
O100 C111 1.253 . S
O101 Zn95 1.941 . S
O101 C111 1.283 . S
O102 Zn95 1.965 . S
O102 C110 1.303 . S
O103 Zn96 1.938 . S
O103 C110 1.247 . S
O104 Zn96 1.906 . S
O104 C112 1.304 . S
O105 Zn93 1.924 . S
O105 C113 1.311 . S
O106 Zn97 1.977 . S
O106 C112 1.272 . S
O107 Zn97 1.910 . S
O107 C113 1.231 . S
C108 O92 1.225 . S
C108 O114 1.298 . S
C109 O98 1.226 . S
C109 O99 1.307 . S
C110 O102 1.303 . S
C110 O103 1.247 . S
C111 O100 1.253 . S
C111 O101 1.283 . S
C112 O104 1.304 . S
C112 O106 1.272 . S
C113 O105 1.311 . S
C113 O107 1.231 . S
O114 Zn96 1.953 . S
O114 C108 1.298 . S
O115 Zn116 1.953 . S
O115 C131 1.225 . S
Zn116 O115 1.953 . S
Zn116 O117 1.949 . S
Zn116 O123 1.919 . S
Zn116 O128 1.924 . S
O117 Zn116 1.949 . S
O117 Zn118 1.923 . S
O117 Zn119 1.950 . S
O117 Zn120 1.945 . S
Zn118 O117 1.923 . S
Zn118 O121 1.933 1_556 S
Zn118 O124 1.941 . S
Zn118 O125 1.965 . S
Zn119 O117 1.950 . S
Zn119 O126 1.938 . S
Zn119 O127 1.906 . S
Zn119 O137 1.953 . S
Zn120 O117 1.945 . S
Zn120 O122 1.932 1_556 S
Zn120 O129 1.977 . S
Zn120 O130 1.910 . S
O121 Zn118 1.933 1_554 S
O121 C132 1.226 . S
O122 Zn120 1.932 1_554 S
O122 C132 1.307 . S
O123 Zn116 1.919 . S
O123 C134 1.253 . S
O124 Zn118 1.941 . S
O124 C134 1.283 . S
O125 Zn118 1.965 . S
O125 C133 1.303 . S
O126 Zn119 1.938 . S
O126 C133 1.247 . S
O127 Zn119 1.906 . S
O127 C135 1.304 . S
O128 Zn116 1.924 . S
O128 C136 1.311 . S
O129 Zn120 1.977 . S
O129 C135 1.272 . S
O130 Zn120 1.910 . S
O130 C136 1.231 . S
C131 O115 1.225 . S
C131 O137 1.298 . S
C132 O121 1.226 . S
C132 O122 1.307 . S
C133 O125 1.303 . S
C133 O126 1.247 . S
C134 O123 1.253 . S
C134 O124 1.283 . S
C135 O127 1.304 . S
C135 O129 1.272 . S
C136 O128 1.311 . S
C136 O130 1.231 . S
O137 Zn119 1.953 . S
O137 C131 1.298 . S
O138 Zn139 1.953 . S
O138 C154 1.225 . S
Zn139 O138 1.953 . S
Zn139 O140 1.949 . S
Zn139 O146 1.919 . S
Zn139 O151 1.924 . S
O140 Zn139 1.949 . S
O140 Zn141 1.923 . S
O140 Zn142 1.950 . S
O140 Zn143 1.945 . S
Zn141 O140 1.923 . S
Zn141 O144 1.933 1_554 S
Zn141 O147 1.941 . S
Zn141 O148 1.965 . S
Zn142 O140 1.950 . S
Zn142 O149 1.938 . S
Zn142 O150 1.906 . S
Zn142 O160 1.953 . S
Zn143 O140 1.945 . S
Zn143 O145 1.932 1_554 S
Zn143 O152 1.977 . S
Zn143 O153 1.910 . S
O144 Zn141 1.933 1_556 S
O144 C155 1.226 . S
O145 Zn143 1.932 1_556 S
O145 C155 1.307 . S
O146 Zn139 1.919 . S
O146 C157 1.253 . S
O147 Zn141 1.941 . S
O147 C157 1.283 . S
O148 Zn141 1.965 . S
O148 C156 1.303 . S
O149 Zn142 1.938 . S
O149 C156 1.247 . S
O150 Zn142 1.906 . S
O150 C158 1.304 . S
O151 Zn139 1.924 . S
O151 C159 1.311 . S
O152 Zn143 1.977 . S
O152 C158 1.272 . S
O153 Zn143 1.910 . S
O153 C159 1.231 . S
C154 O138 1.225 . S
C154 O160 1.298 . S
C155 O144 1.226 . S
C155 O145 1.307 . S
C156 O148 1.303 . S
C156 O149 1.247 . S
C157 O146 1.253 . S
C157 O147 1.283 . S
C158 O150 1.304 . S
C158 O152 1.272 . S
C159 O151 1.311 . S
C159 O153 1.231 . S
O160 Zn142 1.953 . S
O160 C154 1.298 . S
O161 Zn162 1.953 . S
O161 C177 1.225 . S
Zn162 O161 1.953 . S
Zn162 O163 1.949 . S
Zn162 O169 1.919 . S
Zn162 O174 1.924 . S
O163 Zn162 1.949 . S
O163 Zn164 1.923 . S
O163 Zn165 1.950 . S
O163 Zn166 1.945 . S
Zn164 O163 1.923 . S
Zn164 O167 1.933 1_556 S
Zn164 O170 1.941 . S
Zn164 O171 1.965 . S
Zn165 O163 1.950 . S
Zn165 O172 1.938 . S
Zn165 O173 1.906 . S
Zn165 O183 1.953 . S
Zn166 O163 1.945 . S
Zn166 O168 1.932 1_556 S
Zn166 O175 1.977 . S
Zn166 O176 1.910 . S
O167 Zn164 1.933 1_554 S
O167 C178 1.226 . S
O168 Zn166 1.932 1_554 S
O168 C178 1.307 . S
O169 Zn162 1.919 . S
O169 C180 1.253 . S
O170 Zn164 1.941 . S
O170 C180 1.283 . S
O171 Zn164 1.965 . S
O171 C179 1.303 . S
O172 Zn165 1.938 . S
O172 C179 1.247 . S
O173 Zn165 1.906 . S
O173 C181 1.304 . S
O174 Zn162 1.924 . S
O174 C182 1.311 . S
O175 Zn166 1.977 . S
O175 C181 1.272 . S
O176 Zn166 1.910 . S
O176 C182 1.231 . S
C177 O161 1.225 . S
C177 O183 1.298 . S
C178 O167 1.226 . S
C178 O168 1.307 . S
C179 O171 1.303 . S
C179 O172 1.247 . S
C180 O169 1.253 . S
C180 O170 1.283 . S
C181 O173 1.304 . S
C181 O175 1.272 . S
C182 O174 1.311 . S
C182 O176 1.231 . S
O183 Zn165 1.953 . S
O183 C177 1.298 . S
O184 Zn185 1.953 . S
O184 C200 1.225 . S
Zn185 O184 1.953 . S
Zn185 O186 1.949 . S
Zn185 O192 1.919 . S
Zn185 O197 1.924 . S
O186 Zn185 1.949 . S
O186 Zn187 1.923 . S
O186 Zn188 1.950 . S
O186 Zn189 1.945 . S
Zn187 O186 1.923 . S
Zn187 O190 1.933 . S
Zn187 O193 1.941 . S
Zn187 O194 1.965 . S
Zn188 O186 1.950 . S
Zn188 O195 1.938 . S
Zn188 O196 1.906 . S
Zn188 O206 1.953 . S
Zn189 O186 1.945 . S
Zn189 O191 1.932 . S
Zn189 O198 1.977 . S
Zn189 O199 1.910 . S
O190 Zn187 1.933 . S
O190 C201 1.226 . S
O191 Zn189 1.932 . S
O191 C201 1.307 . S
O192 Zn185 1.919 . S
O192 C203 1.253 . S
O193 Zn187 1.941 . S
O193 C203 1.283 . S
O194 Zn187 1.965 . S
O194 C202 1.303 . S
O195 Zn188 1.938 . S
O195 C202 1.247 . S
O196 Zn188 1.906 . S
O196 C204 1.304 . S
O197 Zn185 1.924 . S
O197 C205 1.311 . S
O198 Zn189 1.977 . S
O198 C204 1.272 . S
O199 Zn189 1.910 . S
O199 C205 1.231 . S
C200 O184 1.225 . S
C200 O206 1.298 . S
C201 O190 1.226 . S
C201 O191 1.307 . S
C202 O194 1.303 . S
C202 O195 1.247 . S
C203 O192 1.253 . S
C203 O193 1.283 . S
C204 O196 1.304 . S
C204 O198 1.272 . S
C205 O197 1.311 . S
C205 O199 1.231 . S
O206 Zn188 1.953 . S
O206 C200 1.298 . S
O207 Zn208 1.953 . S
O207 C223 1.225 . S
Zn208 O207 1.953 . S
Zn208 O209 1.949 . S
Zn208 O215 1.919 . S
Zn208 O220 1.924 . S
O209 Zn208 1.949 . S
O209 Zn210 1.923 . S
O209 Zn211 1.950 . S
O209 Zn212 1.945 . S
Zn210 O209 1.923 . S
Zn210 O213 1.933 . S
Zn210 O216 1.941 . S
Zn210 O217 1.965 . S
Zn211 O209 1.950 . S
Zn211 O218 1.938 . S
Zn211 O219 1.906 . S
Zn211 O229 1.953 . S
Zn212 O209 1.945 . S
Zn212 O214 1.932 . S
Zn212 O221 1.977 . S
Zn212 O222 1.910 . S
O213 Zn210 1.933 . S
O213 C224 1.226 . S
O214 Zn212 1.932 . S
O214 C224 1.307 . S
O215 Zn208 1.919 . S
O215 C226 1.253 . S
O216 Zn210 1.941 . S
O216 C226 1.283 . S
O217 Zn210 1.965 . S
O217 C225 1.303 . S
O218 Zn211 1.938 . S
O218 C225 1.247 . S
O219 Zn211 1.906 . S
O219 C227 1.304 . S
O220 Zn208 1.924 . S
O220 C228 1.311 . S
O221 Zn212 1.977 . S
O221 C227 1.272 . S
O222 Zn212 1.910 . S
O222 C228 1.231 . S
C223 O207 1.225 . S
C223 O229 1.298 . S
C224 O213 1.226 . S
C224 O214 1.307 . S
C225 O217 1.303 . S
C225 O218 1.247 . S
C226 O215 1.253 . S
C226 O216 1.283 . S
C227 O219 1.304 . S
C227 O221 1.272 . S
C228 O220 1.311 . S
C228 O222 1.231 . S
O229 Zn211 1.953 . S
O229 C223 1.298 . S
O230 Zn231 1.953 . S
O230 C246 1.225 . S
Zn231 O230 1.953 . S
Zn231 O232 1.949 . S
Zn231 O238 1.919 . S
Zn231 O243 1.924 . S
O232 Zn231 1.949 . S
O232 Zn233 1.923 . S
O232 Zn234 1.950 . S
O232 Zn235 1.945 . S
Zn233 O232 1.923 . S
Zn233 O236 1.933 . S
Zn233 O239 1.941 . S
Zn233 O240 1.965 . S
Zn234 O232 1.950 . S
Zn234 O241 1.938 . S
Zn234 O242 1.906 . S
Zn234 O252 1.953 . S
Zn235 O232 1.945 . S
Zn235 O237 1.932 . S
Zn235 O244 1.977 . S
Zn235 O245 1.910 . S
O236 Zn233 1.933 . S
O236 C247 1.226 . S
O237 Zn235 1.932 . S
O237 C247 1.307 . S
O238 Zn231 1.919 . S
O238 C249 1.253 . S
O239 Zn233 1.941 . S
O239 C249 1.283 . S
O240 Zn233 1.965 . S
O240 C248 1.303 . S
O241 Zn234 1.938 . S
O241 C248 1.247 . S
O242 Zn234 1.906 . S
O242 C250 1.304 . S
O243 Zn231 1.924 . S
O243 C251 1.311 . S
O244 Zn235 1.977 . S
O244 C250 1.272 . S
O245 Zn235 1.910 . S
O245 C251 1.231 . S
C246 O230 1.225 . S
C246 O252 1.298 . S
C247 O236 1.226 . S
C247 O237 1.307 . S
C248 O240 1.303 . S
C248 O241 1.247 . S
C249 O238 1.253 . S
C249 O239 1.283 . S
C250 O242 1.304 . S
C250 O244 1.272 . S
C251 O243 1.311 . S
C251 O245 1.231 . S
O252 Zn234 1.953 . S
O252 C246 1.298 . S
O253 Zn254 1.953 . S
O253 C269 1.225 . S
Zn254 O253 1.953 . S
Zn254 O255 1.949 . S
Zn254 O261 1.919 . S
Zn254 O266 1.924 . S
O255 Zn254 1.949 . S
O255 Zn256 1.923 . S
O255 Zn257 1.950 . S
O255 Zn258 1.945 . S
Zn256 O255 1.923 . S
Zn256 O259 1.933 . S
Zn256 O262 1.941 . S
Zn256 O263 1.965 . S
Zn257 O255 1.950 . S
Zn257 O264 1.938 . S
Zn257 O265 1.906 . S
Zn257 O275 1.953 . S
Zn258 O255 1.945 . S
Zn258 O260 1.932 . S
Zn258 O267 1.977 . S
Zn258 O268 1.910 . S
O259 Zn256 1.933 . S
O259 C270 1.226 . S
O260 Zn258 1.932 . S
O260 C270 1.307 . S
O261 Zn254 1.919 . S
O261 C272 1.253 . S
O262 Zn256 1.941 . S
O262 C272 1.283 . S
O263 Zn256 1.965 . S
O263 C271 1.303 . S
O264 Zn257 1.938 . S
O264 C271 1.247 . S
O265 Zn257 1.906 . S
O265 C273 1.304 . S
O266 Zn254 1.924 . S
O266 C274 1.311 . S
O267 Zn258 1.977 . S
O267 C273 1.272 . S
O268 Zn258 1.910 . S
O268 C274 1.231 . S
C269 O253 1.225 . S
C269 O275 1.298 . S
C270 O259 1.226 . S
C270 O260 1.307 . S
C271 O263 1.303 . S
C271 O264 1.247 . S
C272 O261 1.253 . S
C272 O262 1.283 . S
C273 O265 1.304 . S
C273 O267 1.272 . S
C274 O266 1.311 . S
C274 O268 1.231 . S
O275 Zn257 1.953 . S
O275 C269 1.298 . S
O276 Zn277 1.953 . S
O276 C292 1.225 . S
Zn277 O276 1.953 . S
Zn277 O278 1.949 . S
Zn277 O284 1.919 . S
Zn277 O289 1.924 . S
O278 Zn277 1.949 . S
O278 Zn279 1.923 . S
O278 Zn280 1.950 . S
O278 Zn281 1.945 . S
Zn279 O278 1.923 . S
Zn279 O282 1.933 . S
Zn279 O285 1.941 . S
Zn279 O286 1.965 . S
Zn280 O278 1.950 . S
Zn280 O287 1.938 . S
Zn280 O288 1.906 . S
Zn280 O298 1.953 . S
Zn281 O278 1.945 . S
Zn281 O283 1.932 . S
Zn281 O290 1.977 . S
Zn281 O291 1.910 . S
O282 Zn279 1.933 . S
O282 C293 1.226 . S
O283 Zn281 1.932 . S
O283 C293 1.307 . S
O284 Zn277 1.919 . S
O284 C295 1.253 . S
O285 Zn279 1.941 . S
O285 C295 1.283 . S
O286 Zn279 1.965 . S
O286 C294 1.303 . S
O287 Zn280 1.938 . S
O287 C294 1.247 . S
O288 Zn280 1.906 . S
O288 C296 1.304 . S
O289 Zn277 1.924 . S
O289 C297 1.311 . S
O290 Zn281 1.977 . S
O290 C296 1.272 . S
O291 Zn281 1.910 . S
O291 C297 1.231 . S
C292 O276 1.225 . S
C292 O298 1.298 . S
C293 O282 1.226 . S
C293 O283 1.307 . S
C294 O286 1.303 . S
C294 O287 1.247 . S
C295 O284 1.253 . S
C295 O285 1.283 . S
C296 O288 1.304 . S
C296 O290 1.272 . S
C297 O289 1.311 . S
C297 O291 1.231 . S
O298 Zn280 1.953 . S
O298 C292 1.298 . S
O299 Zn300 1.953 . S
O299 C315 1.225 . S
Zn300 O299 1.953 . S
Zn300 O301 1.949 . S
Zn300 O307 1.919 . S
Zn300 O312 1.924 . S
O301 Zn300 1.949 . S
O301 Zn302 1.923 . S
O301 Zn303 1.950 . S
O301 Zn304 1.945 . S
Zn302 O301 1.923 . S
Zn302 O305 1.933 . S
Zn302 O308 1.941 . S
Zn302 O309 1.965 . S
Zn303 O301 1.950 . S
Zn303 O310 1.938 . S
Zn303 O311 1.906 . S
Zn303 O321 1.953 . S
Zn304 O301 1.945 . S
Zn304 O306 1.932 . S
Zn304 O313 1.977 . S
Zn304 O314 1.910 . S
O305 Zn302 1.933 . S
O305 C316 1.226 . S
O306 Zn304 1.932 . S
O306 C316 1.307 . S
O307 Zn300 1.919 . S
O307 C318 1.253 . S
O308 Zn302 1.941 . S
O308 C318 1.283 . S
O309 Zn302 1.965 . S
O309 C317 1.303 . S
O310 Zn303 1.938 . S
O310 C317 1.247 . S
O311 Zn303 1.906 . S
O311 C319 1.304 . S
O312 Zn300 1.924 . S
O312 C320 1.311 . S
O313 Zn304 1.977 . S
O313 C319 1.272 . S
O314 Zn304 1.910 . S
O314 C320 1.231 . S
C315 O299 1.225 . S
C315 O321 1.298 . S
C316 O305 1.226 . S
C316 O306 1.307 . S
C317 O309 1.303 . S
C317 O310 1.247 . S
C318 O307 1.253 . S
C318 O308 1.283 . S
C319 O311 1.304 . S
C319 O313 1.272 . S
C320 O312 1.311 . S
C320 O314 1.231 . S
O321 Zn303 1.953 . S
O321 C315 1.298 . S
O322 Zn323 1.953 . S
O322 C338 1.225 . S
Zn323 O322 1.953 . S
Zn323 O324 1.949 . S
Zn323 O330 1.919 . S
Zn323 O335 1.924 . S
O324 Zn323 1.949 . S
O324 Zn325 1.923 . S
O324 Zn326 1.950 . S
O324 Zn327 1.945 . S
Zn325 O324 1.923 . S
Zn325 O328 1.933 . S
Zn325 O331 1.941 . S
Zn325 O332 1.965 . S
Zn326 O324 1.950 . S
Zn326 O333 1.938 . S
Zn326 O334 1.906 . S
Zn326 O344 1.953 . S
Zn327 O324 1.945 . S
Zn327 O329 1.932 . S
Zn327 O336 1.977 . S
Zn327 O337 1.910 . S
O328 Zn325 1.933 . S
O328 C339 1.226 . S
O329 Zn327 1.932 . S
O329 C339 1.307 . S
O330 Zn323 1.919 . S
O330 C341 1.253 . S
O331 Zn325 1.941 . S
O331 C341 1.283 . S
O332 Zn325 1.965 . S
O332 C340 1.303 . S
O333 Zn326 1.938 . S
O333 C340 1.247 . S
O334 Zn326 1.906 . S
O334 C342 1.304 . S
O335 Zn323 1.924 . S
O335 C343 1.311 . S
O336 Zn327 1.977 . S
O336 C342 1.272 . S
O337 Zn327 1.910 . S
O337 C343 1.231 . S
C338 O322 1.225 . S
C338 O344 1.298 . S
C339 O328 1.226 . S
C339 O329 1.307 . S
C340 O332 1.303 . S
C340 O333 1.247 . S
C341 O330 1.253 . S
C341 O331 1.283 . S
C342 O334 1.304 . S
C342 O336 1.272 . S
C343 O335 1.311 . S
C343 O337 1.231 . S
O344 Zn326 1.953 . S
O344 C338 1.298 . S
O345 Zn346 1.953 . S
O345 C361 1.225 . S
Zn346 O345 1.953 . S
Zn346 O347 1.949 . S
Zn346 O353 1.919 . S
Zn346 O358 1.924 . S
O347 Zn346 1.949 . S
O347 Zn348 1.923 . S
O347 Zn349 1.950 . S
O347 Zn350 1.945 . S
Zn348 O347 1.923 . S
Zn348 O351 1.933 . S
Zn348 O354 1.941 . S
Zn348 O355 1.965 . S
Zn349 O347 1.950 . S
Zn349 O356 1.938 . S
Zn349 O357 1.906 . S
Zn349 O367 1.953 . S
Zn350 O347 1.945 . S
Zn350 O352 1.932 . S
Zn350 O359 1.977 . S
Zn350 O360 1.910 . S
O351 Zn348 1.933 . S
O351 C362 1.226 . S
O352 Zn350 1.932 . S
O352 C362 1.307 . S
O353 Zn346 1.919 . S
O353 C364 1.253 . S
O354 Zn348 1.941 . S
O354 C364 1.283 . S
O355 Zn348 1.965 . S
O355 C363 1.303 . S
O356 Zn349 1.938 . S
O356 C363 1.247 . S
O357 Zn349 1.906 . S
O357 C365 1.304 . S
O358 Zn346 1.924 . S
O358 C366 1.311 . S
O359 Zn350 1.977 . S
O359 C365 1.272 . S
O360 Zn350 1.910 . S
O360 C366 1.231 . S
C361 O345 1.225 . S
C361 O367 1.298 . S
C362 O351 1.226 . S
C362 O352 1.307 . S
C363 O355 1.303 . S
C363 O356 1.247 . S
C364 O353 1.253 . S
C364 O354 1.283 . S
C365 O357 1.304 . S
C365 O359 1.272 . S
C366 O358 1.311 . S
C366 O360 1.231 . S
O367 Zn349 1.953 . S
O367 C361 1.298 . S
H368 C374 0.930 . S
H369 C377 0.930 . S
H370 C378 0.938 . S
H371 C379 0.930 . S
H372 C382 0.930 . S
H373 C383 0.930 1_565 S
C374 H368 0.930 . S
C374 C375 1.355 . S
C374 C376 1.415 . S
C375 C374 1.355 . S
C375 C377 1.419 . S
C376 C374 1.415 . S
C376 C381 1.425 1_565 S
C376 C383 1.409 1_565 S
C377 H369 0.930 . S
C377 C375 1.419 . S
C377 C378 1.362 . S
C378 H370 0.938 . S
C378 C377 1.362 . S
C378 C381 1.409 1_565 S
C379 H371 0.930 . S
C379 C380 1.355 . S
C379 C381 1.415 . S
C380 C379 1.355 . S
C380 C382 1.419 . S
C381 C376 1.425 1_545 S
C381 C378 1.409 1_545 S
C381 C379 1.415 . S
C382 H372 0.930 . S
C382 C380 1.419 . S
C382 C383 1.362 . S
C383 H373 0.930 1_545 S
C383 C376 1.409 1_545 S
C383 C382 1.362 . S
H384 C390 0.930 . S
H385 C393 0.930 . S
H386 C394 0.930 . S
H387 C395 0.930 . S
H388 C398 0.930 . S
H389 C399 0.930 . S
C390 H384 0.930 . S
C390 C391 1.355 . S
C390 C392 1.415 . S
C391 C390 1.355 . S
C391 C393 1.419 . S
C392 C390 1.415 . S
C392 C397 1.425 . S
C392 C399 1.409 1_655 S
C393 H385 0.930 . S
C393 C391 1.419 . S
C393 C394 1.362 . S
C394 H386 0.930 . S
C394 C393 1.362 . S
C394 C397 1.409 . S
C395 H387 0.930 . S
C395 C396 1.355 . S
C395 C397 1.415 1_455 S
C396 C395 1.355 . S
C396 C398 1.419 . S
C397 C392 1.425 . S
C397 C394 1.409 . S
C397 C395 1.415 1_655 S
C398 H388 0.930 . S
C398 C396 1.419 . S
C398 C399 1.362 . S
C399 H389 0.930 . S
C399 C392 1.409 1_455 S
C399 C398 1.362 . S
H400 C406 0.930 . S
H401 C409 0.930 . S
H402 C410 0.930 . S
H403 C411 0.930 . S
H404 C414 0.930 . S
H405 C415 0.930 . S
C406 H400 0.930 . S
C406 C407 1.355 . S
C406 C408 1.415 1_565 S
C407 C406 1.355 . S
C407 C409 1.419 . S
C408 C406 1.415 1_545 S
C408 C413 1.425 . S
C408 C415 1.409 . S
C409 H401 0.930 . S
C409 C407 1.419 . S
C409 C410 1.362 . S
C410 H402 0.930 . S
C410 C409 1.362 . S
C410 C413 1.409 1_565 S
C411 H403 0.930 . S
C411 C412 1.355 . S
C411 C413 1.415 . S
C412 C411 1.355 . S
C412 C414 1.419 . S
C413 C408 1.425 . S
C413 C410 1.409 1_545 S
C413 C411 1.415 . S
C414 H404 0.930 . S
C414 C412 1.419 . S
C414 C415 1.362 . S
C415 H405 0.930 . S
C415 C408 1.409 . S
C415 C414 1.362 . S
H416 C422 0.930 . S
H417 C425 0.930 . S
H418 C426 0.930 . S
H419 C427 0.930 . S
H420 C430 0.930 . S
H421 C431 0.930 . S
C422 H416 0.930 . S
C422 C423 1.355 . S
C422 C424 1.415 1_655 S
C423 C422 1.355 . S
C423 C425 1.419 . S
C424 C422 1.415 1_455 S
C424 C429 1.425 . S
C424 C431 1.409 . S
C425 H417 0.930 . S
C425 C423 1.419 . S
C425 C426 1.362 . S
C426 H418 0.930 . S
C426 C425 1.362 . S
C426 C429 1.409 1_655 S
C427 H419 0.930 . S
C427 C428 1.355 . S
C427 C429 1.415 . S
C428 C427 1.355 . S
C428 C430 1.419 . S
C429 C424 1.425 . S
C429 C426 1.409 1_455 S
C429 C427 1.415 . S
C430 H420 0.930 . S
C430 C428 1.419 . S
C430 C431 1.362 . S
C431 H421 0.930 . S
C431 C424 1.409 . S
C431 C430 1.362 . S
H432 C438 0.930 . S
H433 C441 0.930 . S
H434 C442 0.930 . S
H435 C443 0.930 . S
H436 C446 0.929 1_554 S
H437 C447 0.930 . S
C438 H432 0.930 . S
C438 C439 1.355 . S
C438 C440 1.415 1_554 S
C439 C438 1.355 . S
C439 C441 1.419 1_554 S
C440 C438 1.415 1_556 S
C440 C445 1.425 . S
C440 C447 1.409 1_556 S
C441 H433 0.930 . S
C441 C439 1.419 1_556 S
C441 C442 1.362 . S
C442 H434 0.930 . S
C442 C441 1.362 . S
C442 C445 1.409 . S
C443 H435 0.930 . S
C443 C444 1.355 . S
C443 C445 1.415 . S
C444 C443 1.355 . S
C444 C446 1.419 . S
C445 C440 1.425 . S
C445 C442 1.409 . S
C445 C443 1.415 . S
C446 H436 0.929 1_556 S
C446 C444 1.419 . S
C446 C447 1.362 1_556 S
C447 H437 0.930 . S
C447 C440 1.409 1_554 S
C447 C446 1.362 1_554 S
H448 C454 0.930 . S
H449 C457 0.930 . S
H450 C458 0.930 . S
H451 C459 0.930 . S
H452 C462 0.930 . S
H453 C463 0.930 . S
C454 H448 0.930 . S
C454 C455 1.355 . S
C454 C456 1.415 . S
C455 C454 1.355 . S
C455 C457 1.419 . S
C456 C454 1.415 . S
C456 C461 1.425 . S
C456 C463 1.409 1_554 S
C457 H449 0.930 . S
C457 C455 1.419 . S
C457 C458 1.362 . S
C458 H450 0.930 . S
C458 C457 1.362 . S
C458 C461 1.409 . S
C459 H451 0.930 . S
C459 C460 1.355 1_554 S
C459 C461 1.415 . S
C460 C459 1.355 1_556 S
C460 C462 1.419 . S
C461 C456 1.425 . S
C461 C458 1.409 . S
C461 C459 1.415 . S
C462 H452 0.930 . S
C462 C460 1.419 . S
C462 C463 1.362 . S
C463 H453 0.930 . S
C463 C456 1.409 1_556 S
C463 C462 1.362 . S
H464 C470 0.930 . S
H465 C473 0.930 . S
H466 C474 0.930 . S
H467 C475 0.930 . S
H468 C478 0.930 1_554 S
H469 C479 0.930 . S
C470 H464 0.930 . S
C470 C471 1.355 . S
C470 C472 1.412 1_554 S
C471 C470 1.355 . S
C471 C473 1.419 1_554 S
C472 C470 1.412 1_556 S
C472 C477 1.430 . S
C472 C479 1.407 1_556 S
C473 H465 0.930 . S
C473 C471 1.419 1_556 S
C473 C474 1.362 . S
C474 H466 0.930 . S
C474 C473 1.362 . S
C474 C477 1.409 . S
C475 H467 0.930 . S
C475 C476 1.355 . S
C475 C477 1.415 . S
C476 C475 1.355 . S
C476 C478 1.419 . S
C477 C472 1.430 . S
C477 C474 1.409 . S
C477 C475 1.415 . S
C478 H468 0.930 1_556 S
C478 C476 1.419 . S
C478 C479 1.362 1_556 S
C479 H469 0.930 . S
C479 C472 1.407 1_554 S
C479 C478 1.362 1_554 S
H480 C486 0.930 1_556 S
H481 C489 0.930 . S
H482 C490 0.930 . S
H483 C491 0.930 . S
H484 C494 0.930 . S
H485 C495 0.930 . S
C486 H480 0.930 1_554 S
C486 C487 1.355 . S
C486 C488 1.412 1_554 S
C487 C486 1.355 . S
C487 C489 1.419 . S
C488 C486 1.412 1_556 S
C488 C493 1.420 1_556 S
C488 C495 1.418 . S
C489 H481 0.930 . S
C489 C487 1.419 . S
C489 C490 1.362 . S
C490 H482 0.930 . S
C490 C489 1.362 . S
C490 C493 1.409 . S
C491 H483 0.930 . S
C491 C492 1.355 1_554 S
C491 C493 1.415 . S
C492 C491 1.355 1_556 S
C492 C494 1.419 . S
C493 C488 1.420 1_554 S
C493 C490 1.409 . S
C493 C491 1.415 . S
C494 H484 0.930 . S
C494 C492 1.419 . S
C494 C495 1.362 . S
C495 H485 0.930 . S
C495 C488 1.418 . S
C495 C494 1.362 . S
H496 C502 0.930 . S
H497 C505 0.930 . S
H498 C506 0.930 . S
H499 C507 0.930 . S
H500 C510 0.930 . S
H501 C511 0.930 . S
C502 H496 0.930 . S
C502 C503 1.355 . S
C502 C504 1.415 . S
C503 C502 1.355 . S
C503 C505 1.419 . S
C504 C502 1.415 . S
C504 C509 1.425 . S
C504 C511 1.409 . S
C505 H497 0.930 . S
C505 C503 1.419 . S
C505 C506 1.362 . S
C506 H498 0.930 . S
C506 C505 1.362 . S
C506 C509 1.409 . S
C507 H499 0.930 . S
C507 C508 1.355 . S
C507 C509 1.415 . S
C508 C507 1.355 . S
C508 C510 1.419 . S
C509 C504 1.425 . S
C509 C506 1.409 . S
C509 C507 1.415 . S
C510 H500 0.930 . S
C510 C508 1.419 . S
C510 C511 1.362 . S
C511 H501 0.930 . S
C511 C504 1.409 . S
C511 C510 1.362 . S
H512 C518 0.930 . S
H513 C521 0.930 . S
H514 C522 0.930 . S
H515 C523 0.930 . S
H516 C526 0.930 . S
H517 C527 0.930 . S
C518 H512 0.930 . S
C518 C519 1.355 . S
C518 C520 1.415 . S
C519 C518 1.355 . S
C519 C521 1.419 . S
C520 C518 1.415 . S
C520 C525 1.425 . S
C520 C527 1.409 . S
C521 H513 0.930 . S
C521 C519 1.419 . S
C521 C522 1.362 . S
C522 H514 0.930 . S
C522 C521 1.362 . S
C522 C525 1.409 . S
C523 H515 0.930 . S
C523 C524 1.355 . S
C523 C525 1.415 . S
C524 C523 1.355 . S
C524 C526 1.419 . S
C525 C520 1.425 . S
C525 C522 1.409 . S
C525 C523 1.415 . S
C526 H516 0.930 . S
C526 C524 1.419 . S
C526 C527 1.362 . S
C527 H517 0.930 . S
C527 C520 1.409 . S
C527 C526 1.362 . S
H528 C534 0.930 . S
H529 C537 0.930 . S
H530 C538 0.930 . S
H531 C539 0.930 . S
H532 C542 0.930 . S
H533 C543 0.930 . S
C534 H528 0.930 . S
C534 C535 1.355 . S
C534 C536 1.415 . S
C535 C534 1.355 . S
C535 C537 1.419 . S
C536 C534 1.415 . S
C536 C541 1.425 . S
C536 C543 1.409 . S
C537 H529 0.930 . S
C537 C535 1.419 . S
C537 C538 1.362 . S
C538 H530 0.930 . S
C538 C537 1.362 . S
C538 C541 1.409 . S
C539 H531 0.930 . S
C539 C540 1.355 . S
C539 C541 1.415 . S
C540 C539 1.355 . S
C540 C542 1.419 . S
C541 C536 1.425 . S
C541 C538 1.409 . S
C541 C539 1.415 . S
C542 H532 0.930 . S
C542 C540 1.419 . S
C542 C543 1.362 . S
C543 H533 0.930 . S
C543 C536 1.409 . S
C543 C542 1.362 . S
H544 C550 0.930 . S
H545 C553 0.930 . S
H546 C554 0.930 . S
H547 C555 0.930 . S
H548 C558 0.930 . S
H549 C559 0.930 . S
C550 H544 0.930 . S
C550 C551 1.355 . S
C550 C552 1.415 . S
C551 C550 1.355 . S
C551 C553 1.419 . S
C552 C550 1.415 . S
C552 C557 1.425 . S
C552 C559 1.409 . S
C553 H545 0.930 . S
C553 C551 1.419 . S
C553 C554 1.362 . S
C554 H546 0.930 . S
C554 C553 1.362 . S
C554 C557 1.409 . S
C555 H547 0.930 . S
C555 C556 1.355 . S
C555 C557 1.415 . S
C556 C555 1.355 . S
C556 C558 1.419 . S
C557 C552 1.425 . S
C557 C554 1.409 . S
C557 C555 1.415 . S
C558 H548 0.930 . S
C558 C556 1.419 . S
C558 C559 1.362 . S
C559 H549 0.930 . S
C559 C552 1.409 . S
C559 C558 1.362 . S
H560 C566 0.930 . S
H561 C569 0.930 . S
H562 C570 0.930 . S
H563 C571 0.930 . S
H564 C574 0.930 . S
H565 C575 0.930 . S
C566 H560 0.930 . S
C566 C567 1.355 . S
C566 C568 1.415 1_565 S
C567 C566 1.355 . S
C567 C569 1.419 . S
C568 C566 1.415 1_545 S
C568 C573 1.425 . S
C568 C575 1.409 . S
C569 H561 0.930 . S
C569 C567 1.419 . S
C569 C570 1.362 . S
C570 H562 0.930 . S
C570 C569 1.362 . S
C570 C573 1.409 1_565 S
C571 H563 0.930 . S
C571 C572 1.355 . S
C571 C573 1.415 . S
C572 C571 1.355 . S
C572 C574 1.419 . S
C573 C568 1.425 . S
C573 C570 1.409 1_545 S
C573 C571 1.415 . S
C574 H564 0.930 . S
C574 C572 1.419 . S
C574 C575 1.362 . S
C575 H565 0.930 . S
C575 C568 1.409 . S
C575 C574 1.362 . S
H576 C582 0.930 . S
H577 C585 0.930 . S
H578 C586 0.930 . S
H579 C587 0.930 . S
H580 C590 0.930 . S
H581 C591 0.930 . S
C582 H576 0.930 . S
C582 C583 1.355 . S
C582 C584 1.415 . S
C583 C582 1.355 . S
C583 C585 1.419 . S
C584 C582 1.415 . S
C584 C589 1.425 . S
C584 C591 1.409 1_455 S
C585 H577 0.930 . S
C585 C583 1.419 . S
C585 C586 1.362 . S
C586 H578 0.930 . S
C586 C585 1.362 . S
C586 C589 1.409 . S
C587 H579 0.930 . S
C587 C588 1.355 . S
C587 C589 1.415 1_655 S
C588 C587 1.355 . S
C588 C590 1.419 . S
C589 C584 1.425 . S
C589 C586 1.409 . S
C589 C587 1.415 1_455 S
C590 H580 0.930 . S
C590 C588 1.419 . S
C590 C591 1.362 . S
C591 H581 0.930 . S
C591 C584 1.409 1_655 S
C591 C590 1.362 . S
H592 C598 0.930 . S
H593 C601 0.930 . S
H594 C602 0.930 1_545 S
H595 C603 0.930 . S
H596 C606 0.930 . S
H597 C607 0.924 1_565 S
C598 H592 0.930 . S
C598 C599 1.355 . S
C598 C600 1.415 . S
C599 C598 1.355 . S
C599 C601 1.419 . S
C600 C598 1.415 . S
C600 C605 1.425 1_565 S
C600 C607 1.404 1_565 S
C601 H593 0.930 . S
C601 C599 1.419 . S
C601 C602 1.362 . S
C602 H594 0.930 1_565 S
C602 C601 1.362 . S
C602 C605 1.409 1_565 S
C603 H595 0.930 . S
C603 C604 1.355 . S
C603 C605 1.415 . S
C604 C603 1.355 . S
C604 C606 1.419 . S
C605 C600 1.425 1_545 S
C605 C602 1.409 1_545 S
C605 C603 1.415 . S
C606 H596 0.930 . S
C606 C604 1.419 . S
C606 C607 1.374 . S
C607 H597 0.924 1_545 S
C607 C600 1.404 1_545 S
C607 C606 1.374 . S
H608 C614 0.930 . S
H609 C617 0.930 . S
H610 C618 0.930 1_655 S
H611 C619 0.930 . S
H612 C622 0.930 . S
H613 C623 0.930 . S
C614 H608 0.930 . S
C614 C615 1.355 . S
C614 C616 1.413 . S
C615 C614 1.355 . S
C615 C617 1.419 . S
C616 C614 1.413 . S
C616 C621 1.426 1_455 S
C616 C623 1.410 1_455 S
C617 H609 0.930 . S
C617 C615 1.419 . S
C617 C618 1.362 . S
C618 H610 0.930 1_455 S
C618 C617 1.362 . S
C618 C621 1.409 1_455 S
C619 H611 0.930 . S
C619 C620 1.355 . S
C619 C621 1.415 . S
C620 C619 1.355 . S
C620 C622 1.419 . S
C621 C616 1.426 1_655 S
C621 C618 1.409 1_655 S
C621 C619 1.415 . S
C622 H612 0.930 . S
C622 C620 1.419 . S
C622 C623 1.362 . S
C623 H613 0.930 . S
C623 C616 1.410 1_655 S
C623 C622 1.362 . S
H624 C630 0.930 . S
H625 C633 0.930 . S
H626 C634 0.930 . S
H627 C635 0.930 . S
H628 C638 0.930 . S
H629 C639 0.930 . S
C630 H624 0.930 . S
C630 C631 1.355 . S
C630 C632 1.415 . S
C631 C630 1.355 . S
C631 C633 1.419 . S
C632 C630 1.415 . S
C632 C637 1.425 . S
C632 C639 1.409 . S
C633 H625 0.930 . S
C633 C631 1.419 . S
C633 C634 1.362 . S
C634 H626 0.930 . S
C634 C633 1.362 . S
C634 C637 1.409 . S
C635 H627 0.930 . S
C635 C636 1.355 . S
C635 C637 1.415 . S
C636 C635 1.355 . S
C636 C638 1.419 . S
C637 C632 1.425 . S
C637 C634 1.409 . S
C637 C635 1.415 . S
C638 H628 0.930 . S
C638 C636 1.419 . S
C638 C639 1.362 . S
C639 H629 0.930 . S
C639 C632 1.409 . S
C639 C638 1.362 . S
H640 C646 0.930 1_554 S
H641 C649 0.930 . S
H642 C650 0.930 . S
H643 C651 0.930 . S
H644 C654 0.930 . S
H645 C655 0.930 1_554 S
C646 H640 0.930 1_556 S
C646 C647 1.355 . S
C646 C648 1.415 . S
C647 C646 1.355 . S
C647 C649 1.419 . S
C648 C646 1.415 . S
C648 C653 1.425 . S
C648 C655 1.409 . S
C649 H641 0.930 . S
C649 C647 1.419 . S
C649 C650 1.362 . S
C650 H642 0.930 . S
C650 C649 1.362 . S
C650 C653 1.409 . S
C651 H643 0.930 . S
C651 C652 1.355 . S
C651 C653 1.415 . S
C652 C651 1.355 . S
C652 C654 1.419 . S
C653 C648 1.425 . S
C653 C650 1.409 . S
C653 C651 1.415 . S
C654 H644 0.930 . S
C654 C652 1.419 . S
C654 C655 1.362 . S
C655 H645 0.930 1_556 S
C655 C648 1.409 . S
C655 C654 1.362 . S
H656 C662 0.930 . S
H657 C665 0.930 . S
H658 C666 0.930 . S
H659 C667 0.930 . S
H660 C670 0.930 . S
H661 C671 0.930 . S
C662 H656 0.930 . S
C662 C663 1.355 . S
C662 C664 1.415 . S
C663 C662 1.355 . S
C663 C665 1.419 . S
C664 C662 1.415 . S
C664 C669 1.425 . S
C664 C671 1.409 . S
C665 H657 0.930 . S
C665 C663 1.419 . S
C665 C666 1.362 . S
C666 H658 0.930 . S
C666 C665 1.362 . S
C666 C669 1.409 . S
C667 H659 0.930 . S
C667 C668 1.355 . S
C667 C669 1.415 . S
C668 C667 1.355 . S
C668 C670 1.419 . S
C669 C664 1.425 . S
C669 C666 1.409 . S
C669 C667 1.415 . S
C670 H660 0.930 . S
C670 C668 1.419 . S
C670 C671 1.362 . S
C671 H661 0.930 . S
C671 C664 1.409 . S
C671 C670 1.362 . S
H672 C678 0.930 . S
H673 C681 0.930 . S
H674 C682 0.930 1_554 S
H675 C683 0.930 1_554 S
H676 C686 0.930 . S
H677 C687 0.930 . S
C678 H672 0.930 . S
C678 C679 1.355 . S
C678 C680 1.415 . S
C679 C678 1.355 . S
C679 C681 1.419 . S
C680 C678 1.415 . S
C680 C685 1.425 . S
C680 C687 1.409 . S
C681 H673 0.930 . S
C681 C679 1.419 . S
C681 C682 1.362 . S
C682 H674 0.930 1_556 S
C682 C681 1.362 . S
C682 C685 1.409 . S
C683 H675 0.930 1_556 S
C683 C684 1.355 . S
C683 C685 1.415 . S
C684 C683 1.355 . S
C684 C686 1.419 . S
C685 C680 1.425 . S
C685 C682 1.409 . S
C685 C683 1.415 . S
C686 H676 0.930 . S
C686 C684 1.419 . S
C686 C687 1.362 . S
C687 H677 0.930 . S
C687 C680 1.409 . S
C687 C686 1.362 . S
H688 C694 0.930 . S
H689 C697 0.930 . S
H690 C698 0.930 . S
H691 C699 0.930 . S
H692 C702 0.930 . S
H693 C703 0.930 . S
C694 H688 0.930 . S
C694 C695 1.355 . S
C694 C696 1.415 . S
C695 C694 1.355 . S
C695 C697 1.419 . S
C696 C694 1.415 . S
C696 C701 1.425 . S
C696 C703 1.409 . S
C697 H689 0.930 . S
C697 C695 1.419 . S
C697 C698 1.362 . S
C698 H690 0.930 . S
C698 C697 1.362 . S
C698 C701 1.409 . S
C699 H691 0.930 . S
C699 C700 1.355 . S
C699 C701 1.415 . S
C700 C699 1.355 . S
C700 C702 1.419 . S
C701 C696 1.425 . S
C701 C698 1.409 . S
C701 C699 1.415 . S
C702 H692 0.930 . S
C702 C700 1.419 . S
C702 C703 1.362 . S
C703 H693 0.930 . S
C703 C696 1.409 . S
C703 C702 1.362 . S
H704 C710 0.930 . S
H705 C713 0.930 . S
H706 C714 0.930 . S
H707 C715 0.930 . S
H708 C718 0.930 . S
H709 C719 0.930 . S
C710 H704 0.930 . S
C710 C711 1.355 . S
C710 C712 1.415 . S
C711 C710 1.355 . S
C711 C713 1.419 . S
C712 C710 1.415 . S
C712 C717 1.425 . S
C712 C719 1.409 . S
C713 H705 0.930 . S
C713 C711 1.419 . S
C713 C714 1.362 . S
C714 H706 0.930 . S
C714 C713 1.362 . S
C714 C717 1.409 . S
C715 H707 0.930 . S
C715 C716 1.355 . S
C715 C717 1.415 . S
C716 C715 1.355 . S
C716 C718 1.419 . S
C717 C712 1.425 . S
C717 C714 1.409 . S
C717 C715 1.415 . S
C718 H708 0.930 . S
C718 C716 1.419 . S
C718 C719 1.362 . S
C719 H709 0.930 . S
C719 C712 1.409 . S
C719 C718 1.362 . S
H720 C726 0.930 . S
H721 C729 0.930 . S
H722 C730 0.930 . S
H723 C731 0.930 . S
H724 C734 0.930 . S
H725 C735 0.930 . S
C726 H720 0.930 . S
C726 C727 1.355 . S
C726 C728 1.415 . S
C727 C726 1.355 . S
C727 C729 1.419 . S
C728 C726 1.415 . S
C728 C733 1.425 . S
C728 C735 1.409 . S
C729 H721 0.930 . S
C729 C727 1.419 . S
C729 C730 1.362 . S
C730 H722 0.930 . S
C730 C729 1.362 . S
C730 C733 1.409 . S
C731 H723 0.930 . S
C731 C732 1.355 . S
C731 C733 1.415 . S
C732 C731 1.355 . S
C732 C734 1.419 . S
C733 C728 1.425 . S
C733 C730 1.409 . S
C733 C731 1.415 . S
C734 H724 0.930 . S
C734 C732 1.419 . S
C734 C735 1.362 . S
C735 H725 0.930 . S
C735 C728 1.409 . S
C735 C734 1.362 . S
H736 C742 0.930 . S
H737 C745 0.930 . S
H738 C746 0.930 . S
H739 C747 0.930 . S
H740 C750 0.930 . S
H741 C751 0.930 . S
C742 H736 0.930 . S
C742 C743 1.355 . S
C742 C744 1.415 . S
C743 C742 1.355 . S
C743 C745 1.419 . S
C744 C742 1.415 . S
C744 C749 1.425 . S
C744 C751 1.409 . S
C745 H737 0.930 . S
C745 C743 1.419 . S
C745 C746 1.362 . S
C746 H738 0.930 . S
C746 C745 1.362 . S
C746 C749 1.409 . S
C747 H739 0.930 . S
C747 C748 1.355 . S
C747 C749 1.415 . S
C748 C747 1.355 . S
C748 C750 1.419 . S
C749 C744 1.425 . S
C749 C746 1.409 . S
C749 C747 1.415 . S
C750 H740 0.930 . S
C750 C748 1.419 . S
C750 C751 1.362 . S
C751 H741 0.930 . S
C751 C744 1.409 . S
C751 C750 1.362 . S
H752 C758 0.930 . S
H753 C761 0.930 . S
H754 C762 0.930 . S
H755 C763 0.930 . S
H756 C766 0.930 . S
H757 C767 0.930 . S
C758 H752 0.930 . S
C758 C759 1.355 . S
C758 C760 1.415 . S
C759 C758 1.355 . S
C759 C761 1.419 . S
C760 C758 1.415 . S
C760 C765 1.425 . S
C760 C767 1.409 1_556 S
C761 H753 0.930 . S
C761 C759 1.419 . S
C761 C762 1.362 . S
C762 H754 0.930 . S
C762 C761 1.362 . S
C762 C765 1.409 . S
C763 H755 0.930 . S
C763 C764 1.355 . S
C763 C765 1.415 . S
C764 C763 1.355 . S
C764 C766 1.419 1_556 S
C765 C760 1.425 . S
C765 C762 1.409 . S
C765 C763 1.415 . S
C766 H756 0.930 . S
C766 C764 1.419 1_554 S
C766 C767 1.362 . S
C767 H757 0.930 . S
C767 C760 1.409 1_554 S
C767 C766 1.362 . S
H768 C774 0.930 1_556 S
H769 C777 0.930 . S
H770 C778 0.930 . S
H771 C779 0.930 . S
H772 C782 0.930 . S
H773 C783 0.930 1_556 S
C774 H768 0.930 1_554 S
C774 C775 1.355 . S
C774 C776 1.415 . S
C775 C774 1.355 . S
C775 C777 1.419 . S
C776 C774 1.415 . S
C776 C781 1.425 . S
C776 C783 1.409 . S
C777 H769 0.930 . S
C777 C775 1.419 . S
C777 C778 1.362 . S
C778 H770 0.930 . S
C778 C777 1.362 . S
C778 C781 1.409 . S
C779 H771 0.930 . S
C779 C780 1.355 . S
C779 C781 1.415 . S
C780 C779 1.355 . S
C780 C782 1.419 . S
C781 C776 1.425 . S
C781 C778 1.409 . S
C781 C779 1.415 . S
C782 H772 0.930 . S
C782 C780 1.419 . S
C782 C783 1.362 . S
C783 H773 0.930 1_554 S
C783 C776 1.409 . S
C783 C782 1.362 . S
H784 C790 0.930 1_554 S
H785 C793 0.930 . S
H786 C794 0.930 . S
H787 C795 0.930 . S
H788 C798 0.930 . S
H789 C799 0.930 . S
C790 H784 0.930 1_556 S
C790 C791 1.355 . S
C790 C792 1.415 . S
C791 C790 1.355 . S
C791 C793 1.419 . S
C792 C790 1.415 . S
C792 C797 1.425 . S
C792 C799 1.409 . S
C793 H785 0.930 . S
C793 C791 1.419 . S
C793 C794 1.362 . S
C794 H786 0.930 . S
C794 C793 1.362 . S
C794 C797 1.409 . S
C795 H787 0.930 . S
C795 C796 1.355 . S
C795 C797 1.415 . S
C796 C795 1.355 . S
C796 C798 1.419 . S
C797 C792 1.425 . S
C797 C794 1.409 . S
C797 C795 1.415 . S
C798 H788 0.930 . S
C798 C796 1.419 . S
C798 C799 1.362 . S
C799 H789 0.930 . S
C799 C792 1.409 . S
C799 C798 1.362 . S
H800 C806 0.930 1_556 S
H801 C809 0.930 . S
H802 C810 0.930 . S
H803 C811 0.930 . S
H804 C814 0.930 . S
H805 C815 0.930 . S
C806 H800 0.930 1_554 S
C806 C807 1.355 . S
C806 C808 1.415 . S
C807 C806 1.355 . S
C807 C809 1.419 . S
C808 C806 1.415 . S
C808 C813 1.425 . S
C808 C815 1.409 . S
C809 H801 0.930 . S
C809 C807 1.419 . S
C809 C810 1.362 . S
C810 H802 0.930 . S
C810 C809 1.362 . S
C810 C813 1.409 . S
C811 H803 0.930 . S
C811 C812 1.355 . S
C811 C813 1.415 . S
C812 C811 1.355 . S
C812 C814 1.419 . S
C813 C808 1.425 . S
C813 C810 1.409 . S
C813 C811 1.415 . S
C814 H804 0.930 . S
C814 C812 1.419 . S
C814 C815 1.362 . S
C815 H805 0.930 . S
C815 C808 1.409 . S
C815 C814 1.362 . S
H816 C822 0.930 . S
H817 C825 0.930 . S
H818 C826 0.930 . S
H819 C827 0.930 . S
H820 C830 0.930 . S
H821 C831 0.930 . S
C822 H816 0.930 . S
C822 C823 1.355 . S
C822 C824 1.415 . S
C823 C822 1.355 . S
C823 C825 1.419 . S
C824 C822 1.415 . S
C824 C829 1.425 . S
C824 C831 1.409 . S
C825 H817 0.930 . S
C825 C823 1.419 . S
C825 C826 1.362 . S
C826 H818 0.930 . S
C826 C825 1.362 . S
C826 C829 1.409 . S
C827 H819 0.930 . S
C827 C828 1.355 . S
C827 C829 1.415 . S
C828 C827 1.355 . S
C828 C830 1.419 . S
C829 C824 1.425 . S
C829 C826 1.409 . S
C829 C827 1.415 . S
C830 H820 0.930 . S
C830 C828 1.419 . S
C830 C831 1.362 . S
C831 H821 0.930 . S
C831 C824 1.409 . S
C831 C830 1.362 . S
H832 C838 0.930 . S
H833 C841 0.930 . S
H834 C842 0.930 . S
H835 C843 0.930 . S
H836 C846 0.930 . S
H837 C847 0.930 . S
C838 H832 0.930 . S
C838 C839 1.355 . S
C838 C840 1.415 . S
C839 C838 1.355 . S
C839 C841 1.419 . S
C840 C838 1.415 . S
C840 C845 1.425 . S
C840 C847 1.409 . S
C841 H833 0.930 . S
C841 C839 1.419 . S
C841 C842 1.362 . S
C842 H834 0.930 . S
C842 C841 1.362 . S
C842 C845 1.409 . S
C843 H835 0.930 . S
C843 C844 1.355 . S
C843 C845 1.415 . S
C844 C843 1.355 . S
C844 C846 1.419 . S
C845 C840 1.425 . S
C845 C842 1.409 . S
C845 C843 1.415 . S
C846 H836 0.930 . S
C846 C844 1.419 . S
C846 C847 1.362 . S
C847 H837 0.930 . S
C847 C840 1.409 . S
C847 C846 1.362 . S
H848 C854 0.930 . S
H849 C857 0.930 . S
H850 C858 0.930 . S
H851 C859 0.930 . S
H852 C862 0.930 . S
H853 C863 0.930 . S
C854 H848 0.930 . S
C854 C855 1.355 . S
C854 C856 1.415 . S
C855 C854 1.355 . S
C855 C857 1.419 . S
C856 C854 1.415 . S
C856 C861 1.425 . S
C856 C863 1.409 . S
C857 H849 0.930 . S
C857 C855 1.419 . S
C857 C858 1.362 . S
C858 H850 0.930 . S
C858 C857 1.362 . S
C858 C861 1.409 . S
C859 H851 0.930 . S
C859 C860 1.355 . S
C859 C861 1.415 . S
C860 C859 1.355 . S
C860 C862 1.419 . S
C861 C856 1.425 . S
C861 C858 1.409 . S
C861 C859 1.415 . S
C862 H852 0.930 . S
C862 C860 1.419 . S
C862 C863 1.362 . S
C863 H853 0.930 . S
C863 C856 1.409 . S
C863 C862 1.362 . S
H864 C870 0.930 . S
H865 C873 0.930 . S
H866 C874 0.930 . S
H867 C875 0.930 . S
H868 C878 0.930 . S
H869 C879 0.930 . S
C870 H864 0.930 . S
C870 C871 1.355 . S
C870 C872 1.415 . S
C871 C870 1.355 . S
C871 C873 1.419 . S
C872 C870 1.415 . S
C872 C877 1.425 . S
C872 C879 1.409 . S
C873 H865 0.930 . S
C873 C871 1.419 . S
C873 C874 1.362 . S
C874 H866 0.930 . S
C874 C873 1.362 . S
C874 C877 1.409 . S
C875 H867 0.930 . S
C875 C876 1.355 . S
C875 C877 1.415 . S
C876 C875 1.355 . S
C876 C878 1.419 . S
C877 C872 1.425 . S
C877 C874 1.409 . S
C877 C875 1.415 . S
C878 H868 0.930 . S
C878 C876 1.419 . S
C878 C879 1.362 . S
C879 H869 0.930 . S
C879 C872 1.409 . S
C879 C878 1.362 . S
H880 C886 0.930 . S
H881 C889 0.930 . S
H882 C890 0.930 . S
H883 C891 0.930 . S
H884 C894 0.930 . S
H885 C895 0.930 . S
C886 H880 0.930 . S
C886 C887 1.355 . S
C886 C888 1.415 . S
C887 C886 1.355 . S
C887 C889 1.419 . S
C888 C886 1.415 . S
C888 C893 1.425 . S
C888 C895 1.409 . S
C889 H881 0.930 . S
C889 C887 1.419 . S
C889 C890 1.362 . S
C890 H882 0.930 . S
C890 C889 1.362 . S
C890 C893 1.409 . S
C891 H883 0.930 . S
C891 C892 1.355 . S
C891 C893 1.415 . S
C892 C891 1.355 . S
C892 C894 1.419 . S
C893 C888 1.425 . S
C893 C890 1.409 . S
C893 C891 1.415 . S
C894 H884 0.930 . S
C894 C892 1.419 . S
C894 C895 1.362 . S
C895 H885 0.930 . S
C895 C888 1.409 . S
C895 C894 1.362 . S
H896 C902 0.930 . S
H897 C905 0.930 . S
H898 C906 0.930 . S
H899 C907 0.930 . S
H900 C910 0.930 . S
H901 C911 0.930 . S
C902 H896 0.930 . S
C902 C903 1.355 . S
C902 C904 1.415 . S
C903 C902 1.355 . S
C903 C905 1.419 . S
C904 C902 1.415 . S
C904 C909 1.425 . S
C904 C911 1.409 . S
C905 H897 0.930 . S
C905 C903 1.419 . S
C905 C906 1.362 . S
C906 H898 0.930 . S
C906 C905 1.362 . S
C906 C909 1.409 . S
C907 H899 0.930 . S
C907 C908 1.355 . S
C907 C909 1.415 . S
C908 C907 1.355 . S
C908 C910 1.419 . S
C909 C904 1.425 . S
C909 C906 1.409 . S
C909 C907 1.415 . S
C910 H900 0.930 . S
C910 C908 1.419 . S
C910 C911 1.362 . S
C911 H901 0.930 . S
C911 C904 1.409 . S
C911 C910 1.362 . S
H912 C918 0.930 . S
H913 C921 0.930 . S
H914 C922 0.930 . S
H915 C923 0.930 . S
H916 C926 0.930 . S
H917 C927 0.930 . S
C918 H912 0.930 . S
C918 C919 1.355 . S
C918 C920 1.415 . S
C919 C918 1.355 . S
C919 C921 1.419 . S
C920 C918 1.415 . S
C920 C925 1.425 . S
C920 C927 1.409 . S
C921 H913 0.930 . S
C921 C919 1.419 . S
C921 C922 1.362 . S
C922 H914 0.930 . S
C922 C921 1.362 . S
C922 C925 1.409 . S
C923 H915 0.930 . S
C923 C924 1.355 . S
C923 C925 1.415 . S
C924 C923 1.355 . S
C924 C926 1.419 . S
C925 C920 1.425 . S
C925 C922 1.409 . S
C925 C923 1.415 . S
C926 H916 0.930 . S
C926 C924 1.419 . S
C926 C927 1.362 . S
C927 H917 0.930 . S
C927 C920 1.409 . S
C927 C926 1.362 . S
H928 C934 0.930 . S
H929 C937 0.930 . S
H930 C938 0.930 . S
H931 C939 0.930 . S
H932 C942 0.930 . S
H933 C943 0.930 . S
C934 H928 0.930 . S
C934 C935 1.355 . S
C934 C936 1.415 . S
C935 C934 1.355 . S
C935 C937 1.419 . S
C936 C934 1.415 . S
C936 C941 1.425 . S
C936 C943 1.409 . S
C937 H929 0.930 . S
C937 C935 1.419 . S
C937 C938 1.362 . S
C938 H930 0.930 . S
C938 C937 1.362 . S
C938 C941 1.409 . S
C939 H931 0.930 . S
C939 C940 1.355 . S
C939 C941 1.415 . S
C940 C939 1.355 . S
C940 C942 1.419 . S
C941 C936 1.425 . S
C941 C938 1.409 . S
C941 C939 1.415 . S
C942 H932 0.930 . S
C942 C940 1.419 . S
C942 C943 1.362 . S
C943 H933 0.930 . S
C943 C936 1.409 . S
C943 C942 1.362 . S
H944 C950 0.930 . S
H945 C953 0.930 . S
H946 C954 0.930 . S
H947 C955 0.930 . S
H948 C958 0.930 . S
H949 C959 0.930 . S
C950 H944 0.930 . S
C950 C951 1.355 . S
C950 C952 1.415 . S
C951 C950 1.355 . S
C951 C953 1.419 . S
C952 C950 1.415 . S
C952 C957 1.425 . S
C952 C959 1.409 . S
C953 H945 0.930 . S
C953 C951 1.419 . S
C953 C954 1.362 . S
C954 H946 0.930 . S
C954 C953 1.362 . S
C954 C957 1.409 . S
C955 H947 0.930 . S
C955 C956 1.355 . S
C955 C957 1.415 . S
C956 C955 1.355 . S
C956 C958 1.419 . S
C957 C952 1.425 . S
C957 C954 1.409 . S
C957 C955 1.415 . S
C958 H948 0.930 . S
C958 C956 1.419 . S
C958 C959 1.362 . S
C959 H949 0.930 . S
C959 C952 1.409 . S
C959 C958 1.362 . S
H960 C966 0.930 . S
H961 C969 0.930 . S
H962 C970 0.930 . S
H963 C971 0.930 . S
H964 C974 0.930 . S
H965 C975 0.930 . S
C966 H960 0.930 . S
C966 C967 1.355 . S
C966 C968 1.415 . S
C967 C966 1.355 . S
C967 C969 1.419 . S
C968 C966 1.415 . S
C968 C973 1.425 . S
C968 C975 1.409 . S
C969 H961 0.930 . S
C969 C967 1.419 . S
C969 C970 1.362 . S
C970 H962 0.930 . S
C970 C969 1.362 . S
C970 C973 1.409 . S
C971 H963 0.930 . S
C971 C972 1.355 . S
C971 C973 1.415 . S
C972 C971 1.355 . S
C972 C974 1.419 . S
C973 C968 1.425 . S
C973 C970 1.409 . S
C973 C971 1.415 . S
C974 H964 0.930 . S
C974 C972 1.419 . S
C974 C975 1.362 . S
C975 H965 0.930 . S
C975 C968 1.409 . S
C975 C974 1.362 . S
H976 C982 0.930 . S
H977 C985 0.930 . S
H978 C986 0.930 . S
H979 C987 0.930 . S
H980 C990 0.930 . S
H981 C991 0.930 . S
C982 H976 0.930 . S
C982 C983 1.355 . S
C982 C984 1.415 . S
C983 C982 1.355 . S
C983 C985 1.419 . S
C984 C982 1.415 . S
C984 C989 1.425 . S
C984 C991 1.409 . S
C985 H977 0.930 . S
C985 C983 1.419 . S
C985 C986 1.362 . S
C986 H978 0.930 . S
C986 C985 1.362 . S
C986 C989 1.409 . S
C987 H979 0.930 . S
C987 C988 1.355 . S
C987 C989 1.415 . S
C988 C987 1.355 . S
C988 C990 1.419 . S
C989 C984 1.425 . S
C989 C986 1.409 . S
C989 C987 1.415 . S
C990 H980 0.930 . S
C990 C988 1.419 . S
C990 C991 1.362 . S
C991 H981 0.930 . S
C991 C984 1.409 . S
C991 C990 1.362 . S
H992 C998 0.930 . S
H993 C1001 0.930 . S
H994 C1002 0.930 . S
H995 C1003 0.930 . S
H996 C1006 0.930 . S
H997 C1007 0.930 . S
C998 H992 0.930 . S
C998 C999 1.355 . S
C998 C1000 1.415 . S
C999 C998 1.355 . S
C999 C1001 1.419 . S
C1000 C998 1.415 . S
C1000 C1005 1.425 . S
C1000 C1007 1.409 . S
C1001 H993 0.930 . S
C1001 C999 1.419 . S
C1001 C1002 1.362 . S
C1002 H994 0.930 . S
C1002 C1001 1.362 . S
C1002 C1005 1.409 . S
C1003 H995 0.930 . S
C1003 C1004 1.355 . S
C1003 C1005 1.415 . S
C1004 C1003 1.355 . S
C1004 C1006 1.419 . S
C1005 C1000 1.425 . S
C1005 C1002 1.409 . S
C1005 C1003 1.415 . S
C1006 H996 0.930 . S
C1006 C1004 1.419 . S
C1006 C1007 1.362 . S
C1007 H997 0.930 . S
C1007 C1000 1.409 . S
C1007 C1006 1.362 . S
H1008 C1014 0.930 1_556 S
H1009 C1017 0.926 1_556 S
H1010 C1018 0.930 . S
H1011 C1019 0.930 . S
H1012 C1022 0.930 . S
H1013 C1023 0.930 . S
C1014 H1008 0.930 1_554 S
C1014 C1015 1.355 1_554 S
C1014 C1016 1.415 . S
C1015 C1014 1.355 1_556 S
C1015 C1017 1.419 1_556 S
C1016 C1014 1.415 . S
C1016 C1021 1.425 . S
C1016 C1023 1.409 . S
C1017 H1009 0.926 1_554 S
C1017 C1015 1.419 1_554 S
C1017 C1018 1.362 . S
C1018 H1010 0.930 . S
C1018 C1017 1.362 . S
C1018 C1021 1.409 . S
C1019 H1011 0.930 . S
C1019 C1020 1.355 . S
C1019 C1021 1.415 . S
C1020 C1019 1.355 . S
C1020 C1022 1.419 . S
C1021 C1016 1.425 . S
C1021 C1018 1.409 . S
C1021 C1019 1.415 . S
C1022 H1012 0.930 . S
C1022 C1020 1.419 . S
C1022 C1023 1.362 . S
C1023 H1013 0.930 . S
C1023 C1016 1.409 . S
C1023 C1022 1.362 . S
H1024 C1030 0.930 . S
H1025 C1033 0.930 . S
H1026 C1034 0.930 . S
H1027 C1035 0.930 . S
H1028 C1038 0.930 1_554 S
H1029 C1039 0.930 . S
C1030 H1024 0.930 . S
C1030 C1031 1.355 . S
C1030 C1032 1.415 . S
C1031 C1030 1.355 . S
C1031 C1033 1.419 . S
C1032 C1030 1.415 . S
C1032 C1037 1.425 . S
C1032 C1039 1.409 . S
C1033 H1025 0.930 . S
C1033 C1031 1.419 . S
C1033 C1034 1.362 . S
C1034 H1026 0.930 . S
C1034 C1033 1.362 . S
C1034 C1037 1.409 . S
C1035 H1027 0.930 . S
C1035 C1036 1.355 . S
C1035 C1037 1.415 1_554 S
C1036 C1035 1.355 . S
C1036 C1038 1.419 1_554 S
C1037 C1032 1.425 . S
C1037 C1034 1.409 . S
C1037 C1035 1.415 1_556 S
C1038 H1028 0.930 1_556 S
C1038 C1036 1.419 1_556 S
C1038 C1039 1.362 . S
C1039 H1029 0.930 . S
C1039 C1032 1.409 . S
C1039 C1038 1.362 . S
H1040 C1046 0.930 . S
H1041 C1049 0.930 . S
H1042 C1050 0.930 . S
H1043 C1051 0.930 1_556 S
H1044 C1054 0.930 1_556 S
H1045 C1055 0.930 . S
C1046 H1040 0.930 . S
C1046 C1047 1.355 . S
C1046 C1048 1.415 . S
C1047 C1046 1.355 . S
C1047 C1049 1.419 . S
C1048 C1046 1.415 . S
C1048 C1053 1.425 . S
C1048 C1055 1.409 . S
C1049 H1041 0.930 . S
C1049 C1047 1.419 . S
C1049 C1050 1.362 . S
C1050 H1042 0.930 . S
C1050 C1049 1.362 . S
C1050 C1053 1.409 . S
C1051 H1043 0.930 1_554 S
C1051 C1052 1.355 1_554 S
C1051 C1053 1.415 . S
C1052 C1051 1.355 1_556 S
C1052 C1054 1.419 1_556 S
C1053 C1048 1.425 . S
C1053 C1050 1.409 . S
C1053 C1051 1.415 . S
C1054 H1044 0.930 1_554 S
C1054 C1052 1.419 1_554 S
C1054 C1055 1.362 . S
C1055 H1045 0.930 . S
C1055 C1048 1.409 . S
C1055 C1054 1.362 . S
H1056 C1062 0.930 . S
H1057 C1065 0.930 . S
H1058 C1066 0.930 . S
H1059 C1067 0.930 . S
H1060 C1070 0.930 . S
H1061 C1071 0.930 . S
C1062 H1056 0.930 . S
C1062 C1063 1.355 1_556 S
C1062 C1064 1.415 . S
C1063 C1062 1.355 1_554 S
C1063 C1065 1.419 . S
C1064 C1062 1.415 . S
C1064 C1069 1.425 . S
C1064 C1071 1.409 . S
C1065 H1057 0.930 . S
C1065 C1063 1.419 . S
C1065 C1066 1.362 1_554 S
C1066 H1058 0.930 . S
C1066 C1065 1.362 1_556 S
C1066 C1069 1.409 . S
C1067 H1059 0.930 . S
C1067 C1068 1.355 . S
C1067 C1069 1.415 . S
C1068 C1067 1.355 . S
C1068 C1070 1.419 . S
C1069 C1064 1.425 . S
C1069 C1066 1.409 . S
C1069 C1067 1.415 . S
C1070 H1060 0.930 . S
C1070 C1068 1.419 . S
C1070 C1071 1.362 . S
C1071 H1061 0.930 . S
C1071 C1064 1.409 . S
C1071 C1070 1.362 . S
H1072 C1078 0.930 . S
H1073 C1081 0.930 . S
H1074 C1082 0.930 . S
H1075 C1083 0.930 . S
H1076 C1086 0.930 . S
H1077 C1087 0.930 . S
C1078 H1072 0.930 . S
C1078 C1079 1.355 . S
C1078 C1080 1.415 . S
C1079 C1078 1.355 . S
C1079 C1081 1.419 . S
C1080 C1078 1.415 . S
C1080 C1085 1.425 . S
C1080 C1087 1.409 . S
C1081 H1073 0.930 . S
C1081 C1079 1.419 . S
C1081 C1082 1.362 . S
C1082 H1074 0.930 . S
C1082 C1081 1.362 . S
C1082 C1085 1.409 . S
C1083 H1075 0.930 . S
C1083 C1084 1.355 1_554 S
C1083 C1085 1.415 . S
C1084 C1083 1.355 1_556 S
C1084 C1086 1.419 . S
C1085 C1080 1.425 . S
C1085 C1082 1.409 . S
C1085 C1083 1.415 . S
C1086 H1076 0.930 . S
C1086 C1084 1.419 . S
C1086 C1087 1.362 1_556 S
C1087 H1077 0.930 . S
C1087 C1080 1.409 . S
C1087 C1086 1.362 1_554 S
H1088 C1094 0.930 . S
H1089 C1097 0.930 . S
H1090 C1098 0.930 . S
H1091 C1099 0.930 . S
H1092 C1102 0.930 . S
H1093 C1103 0.930 . S
C1094 H1088 0.930 . S
C1094 C1095 1.355 1_556 S
C1094 C1096 1.415 . S
C1095 C1094 1.355 1_554 S
C1095 C1097 1.419 . S
C1096 C1094 1.415 . S
C1096 C1101 1.425 . S
C1096 C1103 1.409 . S
C1097 H1089 0.930 . S
C1097 C1095 1.419 . S
C1097 C1098 1.362 1_554 S
C1098 H1090 0.930 . S
C1098 C1097 1.362 1_556 S
C1098 C1101 1.409 . S
C1099 H1091 0.930 . S
C1099 C1100 1.355 . S
C1099 C1101 1.415 . S
C1100 C1099 1.355 . S
C1100 C1102 1.419 . S
C1101 C1096 1.425 . S
C1101 C1098 1.409 . S
C1101 C1099 1.415 . S
C1102 H1092 0.930 . S
C1102 C1100 1.419 . S
C1102 C1103 1.362 . S
C1103 H1093 0.930 . S
C1103 C1096 1.409 . S
C1103 C1102 1.362 . S
H1104 C1110 0.930 . S
H1105 C1113 0.930 . S
H1106 C1114 0.930 . S
H1107 C1115 0.930 . S
H1108 C1118 0.930 . S
H1109 C1119 0.930 . S
C1110 H1104 0.930 . S
C1110 C1111 1.355 . S
C1110 C1112 1.415 1_556 S
C1111 C1110 1.355 . S
C1111 C1113 1.419 . S
C1112 C1110 1.415 1_554 S
C1112 C1117 1.425 . S
C1112 C1119 1.409 . S
C1113 H1105 0.930 . S
C1113 C1111 1.419 . S
C1113 C1114 1.362 1_556 S
C1114 H1106 0.930 . S
C1114 C1113 1.362 1_554 S
C1114 C1117 1.409 . S
C1115 H1107 0.930 . S
C1115 C1116 1.355 . S
C1115 C1117 1.415 . S
C1116 C1115 1.355 . S
C1116 C1118 1.419 . S
C1117 C1112 1.425 . S
C1117 C1114 1.409 . S
C1117 C1115 1.415 . S
C1118 H1108 0.930 . S
C1118 C1116 1.419 . S
C1118 C1119 1.362 . S
C1119 H1109 0.930 . S
C1119 C1112 1.409 . S
C1119 C1118 1.362 . S
H1120 C1126 0.930 . S
H1121 C1129 0.930 . S
H1122 C1130 0.930 . S
H1123 C1131 0.930 . S
H1124 C1134 0.930 . S
H1125 C1135 0.930 . S
C1126 H1120 0.930 . S
C1126 C1127 1.355 . S
C1126 C1128 1.415 . S
C1127 C1126 1.355 . S
C1127 C1129 1.419 . S
C1128 C1126 1.415 . S
C1128 C1133 1.425 . S
C1128 C1135 1.409 . S
C1129 H1121 0.930 . S
C1129 C1127 1.419 . S
C1129 C1130 1.362 . S
C1130 H1122 0.930 . S
C1130 C1129 1.362 . S
C1130 C1133 1.409 . S
C1131 H1123 0.930 . S
C1131 C1132 1.355 1_556 S
C1131 C1133 1.415 . S
C1132 C1131 1.355 1_554 S
C1132 C1134 1.419 . S
C1133 C1128 1.425 . S
C1133 C1130 1.409 . S
C1133 C1131 1.415 . S
C1134 H1124 0.930 . S
C1134 C1132 1.419 . S
C1134 C1135 1.362 1_554 S
C1135 H1125 0.930 . S
C1135 C1128 1.409 . S
C1135 C1134 1.362 1_556 S
C375 C274 1.517 . S
C380 C20 1.520 . S
C391 C205 1.451 . S
C396 C42 1.562 . S
C407 C66 1.509 . S
C412 C228 1.467 . S
C423 C88 1.551 . S
C428 C251 1.463 . S
C439 C112 1.523 . S
C444 C136 1.442 . S
C455 C159 1.469 . S
C460 C134 1.550 . S
C471 C158 1.524 . S
C476 C182 1.442 . S
C487 C113 1.518 . S
C492 C180 1.543 . S
C503 C90 1.451 . S
C508 C204 1.516 . S
C519 C226 1.550 . S
C524 C21 1.503 . S
C535 C44 1.504 . S
C540 C250 1.544 . S
C551 C67 1.499 . S
C556 C272 1.544 . S
C567 C296 1.527 . S
C572 C320 1.440 . S
C583 C343 1.440 . S
C588 C318 1.563 . S
C599 C366 1.481 . S
C604 C342 1.551 . S
C615 C364 1.543 . S
C620 C297 1.501 . S
C631 C19 1.275 . S
C636 C111 1.269 . S
C647 C135 1.328 . S
C652 C43 1.325 . S
C663 C65 1.273 . S
C668 C157 1.279 . S
C679 C89 1.321 . S
C684 C181 1.335 . S
C695 C203 1.330 . S
C700 C295 1.329 . S
C711 C319 1.338 . S
C716 C227 1.321 . S
C727 C249 1.240 . S
C732 C341 1.242 . S
C743 C273 1.351 . S
C748 C365 1.387 . S
C759 C340 1.667 . S
C764 C18 1.656 1_556 S
C775 C41 1.674 1_554 S
C780 C363 1.691 . S
C791 C64 1.641 1_556 S
C796 C294 1.666 . S
C807 C87 1.665 1_554 S
C812 C317 1.707 . S
C823 C110 1.674 . S
C828 C248 1.641 . S
C839 C133 1.680 . S
C844 C271 1.700 . S
C855 C156 1.653 . S
C860 C202 1.650 . S
C871 C225 1.673 . S
C876 C179 1.705 . S
C887 C17 1.075 . S
C892 C16 1.074 . S
C903 C40 0.988 . S
C908 C39 0.981 . S
C919 C63 1.075 . S
C924 C62 1.074 . S
C935 C85 0.992 . S
C940 C86 0.999 . S
C951 C108 1.030 . S
C956 C109 1.036 . S
C967 C132 0.988 . S
C972 C131 0.981 . S
C983 C155 0.994 . S
C988 C154 0.987 . S
C999 C177 0.979 . S
C1004 C178 0.987 . S
C1015 C201 1.072 . S
C1020 C200 1.073 . S
C1031 C223 1.055 . S
C1036 C224 1.054 . S
C1047 C246 1.071 . S
C1052 C247 1.072 . S
C1063 C270 1.025 . S
C1068 C269 1.022 . S
C1079 C293 0.994 . S
C1084 C292 0.987 . S
C1095 C315 0.984 . S
C1100 C316 0.991 . S
C1111 C338 1.030 . S
C1116 C339 1.035 . S
C1127 C362 1.002 . S
C1132 C361 0.997 . S
