# Generated by pormake.
# Topology umm, (4)-cn, num edge types: 1
# Building blocks:
#     Node 0, Type 0, BuildingBlock: MUDLON_clean_sbu_0, # of connection points: 4
#     Node 1, Type 0, BuildingBlock: MUDLON_clean_sbu_0, # of connection points: 4
#     Node 2, Type 0, BuildingBlock: MUDLON_clean_sbu_0, # of connection points: 4
#     Node 3, Type 0, BuildingBlock: MUDLON_clean_sbu_0, # of connection points: 4
#     Node 4, Type 0, BuildingBlock: MUDLON_clean_sbu_0, # of connection points: 4
#     Node 5, Type 0, BuildingBlock: MUDLON_clean_sbu_0, # of connection points: 4
#     Node 6, Type 0, BuildingBlock: MUDLON_clean_sbu_0, # of connection points: 4
#     Node 7, Type 0, BuildingBlock: MUDLON_clean_sbu_0, # of connection points: 4
#     Node 8, Type 0, BuildingBlock: MUDLON_clean_sbu_0, # of connection points: 4
#     Node 9, Type 0, BuildingBlock: MUDLON_clean_sbu_0, # of connection points: 4
#     Node 10, Type 0, BuildingBlock: MUDLON_clean_sbu_0, # of connection points: 4
#     Node 11, Type 0, BuildingBlock: MUDLON_clean_sbu_0, # of connection points: 4
#     Edge 12, Type (0, 0), BuildingBlock: XUDNAN_clean_linker_2, # of connection points: 2
#     Edge 13, Type (0, 0), BuildingBlock: XUDNAN_clean_linker_2, # of connection points: 2
#     Edge 14, Type (0, 0), BuildingBlock: XUDNAN_clean_linker_2, # of connection points: 2
#     Edge 15, Type (0, 0), BuildingBlock: XUDNAN_clean_linker_2, # of connection points: 2
#     Edge 16, Type (0, 0), BuildingBlock: XUDNAN_clean_linker_2, # of connection points: 2
#     Edge 17, Type (0, 0), BuildingBlock: XUDNAN_clean_linker_2, # of connection points: 2
#     Edge 18, Type (0, 0), BuildingBlock: XUDNAN_clean_linker_2, # of connection points: 2
#     Edge 19, Type (0, 0), BuildingBlock: XUDNAN_clean_linker_2, # of connection points: 2
#     Edge 20, Type (0, 0), BuildingBlock: XUDNAN_clean_linker_2, # of connection points: 2
#     Edge 21, Type (0, 0), BuildingBlock: XUDNAN_clean_linker_2, # of connection points: 2
#     Edge 22, Type (0, 0), BuildingBlock: XUDNAN_clean_linker_2, # of connection points: 2
#     Edge 23, Type (0, 0), BuildingBlock: XUDNAN_clean_linker_2, # of connection points: 2
#     Edge 24, Type (0, 0), BuildingBlock: XUDNAN_clean_linker_2, # of connection points: 2
#     Edge 25, Type (0, 0), BuildingBlock: XUDNAN_clean_linker_2, # of connection points: 2
#     Edge 26, Type (0, 0), BuildingBlock: XUDNAN_clean_linker_2, # of connection points: 2
#     Edge 27, Type (0, 0), BuildingBlock: XUDNAN_clean_linker_2, # of connection points: 2
#     Edge 28, Type (0, 0), BuildingBlock: XUDNAN_clean_linker_2, # of connection points: 2
#     Edge 29, Type (0, 0), BuildingBlock: XUDNAN_clean_linker_2, # of connection points: 2
#     Edge 30, Type (0, 0), BuildingBlock: XUDNAN_clean_linker_2, # of connection points: 2
#     Edge 31, Type (0, 0), BuildingBlock: XUDNAN_clean_linker_2, # of connection points: 2
#     Edge 32, Type (0, 0), BuildingBlock: XUDNAN_clean_linker_2, # of connection points: 2
#     Edge 33, Type (0, 0), BuildingBlock: XUDNAN_clean_linker_2, # of connection points: 2
#     Edge 34, Type (0, 0), BuildingBlock: XUDNAN_clean_linker_2, # of connection points: 2
#     Edge 35, Type (0, 0), BuildingBlock: XUDNAN_clean_linker_2, # of connection points: 2
# Relax obj value: 0.065
# Max RMSD: 0.172
# Mean RMSD: 0.172
data_MOF--net-umm--node1-MUDLON_clean_sbu_0--edge1-XUDNAN_clean_linker_2
_symmetry_space_group_name_H-M    P1
_symmetry_Int_Tables_number       1
_symmetry_cell_setting            triclinic
loop_
_symmetry_equiv_pos_as_xyz
'x, y, z'
_cell_length_a     58.741511
_cell_length_b     58.969752
_cell_length_c     29.548962
_cell_angle_alpha  90.095168
_cell_angle_beta   90.046649
_cell_angle_gamma 119.76108
loop_
_atom_site_label
_atom_site_type_symbol
_atom_site_fract_x
_atom_site_fract_y
_atom_site_fract_z
_atom_type_partial_charge
Mg0 Mg 0.41697 0.5623 0.09407 0.0
C1 C 0.46366 0.55749 0.06482 0.0
O2 O 0.47259 0.58257 0.05884 0.0
C3 C 0.36793 0.55606 0.05086 0.0
O4 O 0.38316 0.58152 0.05119 0.0
C5 C 0.3981 0.56358 0.19203 0.0
O6 O 0.37644 0.55879 0.17098 0.0
O7 O 0.41736 0.5658 0.16872 0.0
O8 O 0.44016 0.54329 0.07846 0.0
O9 O 0.43703 0.60216 0.06659 0.0
C10 C 0.44098 0.61315 0.02787 0.0
O11 O 0.4539 0.63881 0.0269 0.0
O12 O 0.37654 0.54187 0.06771 0.0
Mg13 Mg 0.86184 0.3919 0.44252 0.0
C14 C 0.91631 0.43496 0.46631 0.0
O15 O 0.90246 0.44094 0.49368 0.0
C16 C 0.8203 0.34207 0.41141 0.0
O17 O 0.81088 0.35815 0.41136 0.0
C18 C 0.8555 0.39394 0.54302 0.0
O19 O 0.87358 0.38703 0.54108 0.0
O20 O 0.8464 0.39745 0.5062 0.0
O21 O 0.90464 0.41429 0.4424 0.0
O22 O 0.85065 0.40591 0.38318 0.0
C23 C 0.86227 0.40517 0.34732 0.0
O24 O 0.8808 0.39895 0.35072 0.0
O25 O 0.84334 0.35022 0.42679 0.0
Mg26 Mg 0.47932 0.85746 0.77085 0.0
C27 C 0.50648 0.91556 0.74162 0.0
O28 O 0.50272 0.90589 0.70045 0.0
C29 C 0.48375 0.81086 0.76554 0.0
O30 O 0.46025 0.80386 0.78127 0.0
C31 C 0.45191 0.85888 0.85647 0.0
O32 O 0.45586 0.8807 0.83758 0.0
O33 O 0.45845 0.84431 0.83495 0.0
O34 O 0.50117 0.90027 0.77525 0.0
O35 O 0.45417 0.84611 0.71164 0.0
C36 C 0.44434 0.85885 0.69363 0.0
O37 O 0.44621 0.87935 0.7147 0.0
O38 O 0.49951 0.83513 0.7593 0.0
Mg39 Mg 0.6127 0.45618 0.08804 0.0
C40 C 0.5696 0.47056 0.08213 0.0
O41 O 0.55675 0.44848 0.10439 0.0
C42 C 0.66544 0.46216 0.06549 0.0
O43 O 0.65502 0.44046 0.08915 0.0
C44 C 0.63265 0.46376 0.1878 0.0
O45 O 0.65554 0.47858 0.16874 0.0
O46 O 0.61231 0.45257 0.16273 0.0
O47 O 0.59329 0.47853 0.07075 0.0
O48 O 0.59085 0.41651 0.06079 0.0
C49 C 0.58671 0.40533 0.0222 0.0
O50 O 0.57286 0.37969 0.02124 0.0
O51 O 0.65233 0.47385 0.06005 0.0
Mg52 Mg 0.15563 0.61508 0.44343 0.0
C53 C 0.09753 0.58142 0.46724 0.0
O54 O 0.10664 0.58526 0.50883 0.0
C55 C 0.20067 0.66448 0.42202 0.0
O56 O 0.20892 0.64786 0.43035 0.0
C57 C 0.17656 0.62693 0.53935 0.0
O58 O 0.18272 0.65055 0.5261 0.0
O59 O 0.16567 0.60811 0.51127 0.0
O60 O 0.1132 0.59329 0.43483 0.0
O61 O 0.16931 0.6003 0.38861 0.0
C62 C 0.16047 0.60276 0.35069 0.0
O63 O 0.14407 0.61184 0.35036 0.0
O64 O 0.17639 0.65674 0.42744 0.0
Mg65 Mg 0.56112 0.15347 0.7434 0.0
C66 C 0.53574 0.09502 0.72524 0.0
O67 O 0.54508 0.10385 0.68475 0.0
C68 C 0.5561 0.20085 0.74367 0.0
O69 O 0.57835 0.20793 0.76471 0.0
C70 C 0.58637 0.15485 0.83406 0.0
O71 O 0.57351 0.12948 0.82736 0.0
O72 O 0.5864 0.16979 0.80296 0.0
O73 O 0.53716 0.11116 0.75545 0.0
O74 O 0.57998 0.15666 0.67865 0.0
C75 C 0.59132 0.17711 0.65439 0.0
O76 O 0.59689 0.19981 0.67172 0.0
O77 O 0.54198 0.17694 0.73232 0.0
Mg78 Mg 0.4528 0.59555 0.61823 0.0
C79 C 0.45954 0.55037 0.60069 0.0
O80 O 0.43457 0.54206 0.59312 0.0
C81 C 0.46241 0.64656 0.64802 0.0
O82 O 0.43723 0.63035 0.65365 0.0
C83 C 0.44401 0.59034 0.51768 0.0
O84 O 0.46876 0.59669 0.52163 0.0
O85 O 0.43114 0.58843 0.5537 0.0
O86 O 0.4742 0.57414 0.61226 0.0
O87 O 0.43033 0.58286 0.68212 0.0
C88 C 0.43103 0.56635 0.7091 0.0
O89 O 0.44233 0.55307 0.6959 0.0
O90 O 0.47625 0.63786 0.6299 0.0
Mg91 Mg 0.86306 0.45654 0.94664 0.0
C92 C 0.91969 0.47307 0.94596 0.0
O93 O 0.90826 0.44744 0.94566 0.0
C94 C 0.8318 0.48794 0.94092 0.0
O95 O 0.84404 0.49883 0.90307 0.0
C96 C 0.83348 0.43315 0.85822 0.0
O97 O 0.81711 0.43976 0.87599 0.0
O98 O 0.85329 0.43661 0.88121 0.0
O99 O 0.9053 0.48364 0.9465 0.0
O100 O 0.8561 0.4316 1.00505 0.0
C101 C 0.83401 0.42211 0.02483 0.0
O102 O 0.81487 0.42362 1.00467 0.0
O103 O 0.8374 0.47257 0.96206 0.0
Mg104 Mg 0.40061 0.86543 0.2742 0.0
C105 C 0.44367 0.91976 0.27175 0.0
O106 O 0.45559 0.90603 0.2763 0.0
C107 C 0.35219 0.81885 0.29299 0.0
O108 O 0.37045 0.81233 0.28826 0.0
C109 C 0.40819 0.86396 0.17576 0.0
O110 O 0.40145 0.88202 0.18033 0.0
O111 O 0.40973 0.85246 0.21108 0.0
O112 O 0.41871 0.90773 0.27015 0.0
O113 O 0.41616 0.85764 0.33518 0.0
C114 C 0.414 0.86926 0.36985 0.0
O115 O 0.40486 0.8854 0.36452 0.0
O116 O 0.3585 0.84258 0.28625 0.0
Mg117 Mg 0.57601 0.41576 0.61109 0.0
C118 C 0.55408 0.4515 0.59708 0.0
O119 O 0.57907 0.46733 0.58876 0.0
C120 C 0.57272 0.36613 0.63957 0.0
O121 O 0.59607 0.38419 0.65319 0.0
C122 C 0.58531 0.42319 0.51082 0.0
O123 O 0.55962 0.40957 0.51356 0.0
O124 O 0.59863 0.42901 0.54747 0.0
O125 O 0.54649 0.42781 0.6072 0.0
O126 O 0.59666 0.42996 0.67647 0.0
C127 C 0.59612 0.44731 0.70153 0.0
O128 O 0.58572 0.46091 0.68574 0.0
O129 O 0.55862 0.37323 0.61766 0.0
Mg130 Mg 0.16198 0.54947 0.94726 0.0
C131 C 0.11181 0.54719 0.94468 0.0
O132 O 0.13011 0.57193 0.94528 0.0
C133 C 0.20526 0.53828 0.9324 0.0
O134 O 0.21245 0.55987 0.9095 0.0
C135 C 0.16618 0.5627 0.84967 0.0
O136 O 0.15088 0.5372 0.84961 0.0
O137 O 0.17479 0.57433 0.88739 0.0
O138 O 0.11904 0.53005 0.94509 0.0
O139 O 0.17204 0.57078 1.01129 0.0
C140 C 0.19137 0.57365 0.03513 0.0
O141 O 0.20749 0.56647 0.01832 0.0
O142 O 0.18237 0.52676 0.94966 0.0
Mg143 Mg 0.62624 0.15278 0.24681 0.0
C144 C 0.57654 0.10584 0.24296 0.0
O145 O 0.57299 0.12551 0.23242 0.0
C146 C 0.68252 0.19167 0.25222 0.0
O147 O 0.67343 0.20098 0.22108 0.0
C148 C 0.62303 0.18179 0.16005 0.0
O149 O 0.62515 0.20031 0.18746 0.0
O150 O 0.62315 0.16188 0.17622 0.0
O151 O 0.59984 0.11069 0.25127 0.0
O152 O 0.60882 0.16628 0.29755 0.0
C153 C 0.62228 0.18286 0.32803 0.0
O154 O 0.64782 0.19688 0.32333 0.0
O155 O 0.66717 0.16897 0.26779 0.0
H156 H 0.44054 0.57522 0.24754 0.0
H157 H 0.35979 0.5585 0.25094 0.0
H158 H 0.36241 0.56332 0.33407 0.0
H159 H 0.43806 0.54099 0.35022 0.0
H160 H 0.47083 0.56468 0.36766 0.0
H161 H 0.46255 0.5598 0.30839 0.0
H162 H 0.47828 0.60911 0.29967 0.0
H163 H 0.4866 0.61413 0.35891 0.0
H164 H 0.46453 0.62403 0.33552 0.0
H165 H 0.37393 0.57 0.41806 0.0
H166 H 0.39363 0.57828 0.49473 0.0
H167 H 0.46675 0.59088 0.43623 0.0
C168 C 0.42337 0.57253 0.2657 0.0
C169 C 0.39993 0.56644 0.24237 0.0
C170 C 0.37799 0.56316 0.26774 0.0
C171 C 0.37927 0.56585 0.31513 0.0
C172 C 0.40265 0.57188 0.33702 0.0
C173 C 0.42432 0.5752 0.31309 0.0
C174 C 0.44714 0.58173 0.34472 0.0
C175 C 0.45511 0.56053 0.34262 0.0
C176 C 0.47051 0.60886 0.33406 0.0
C177 C 0.43496 0.5816 0.39008 0.0
C178 C 0.40926 0.57584 0.38503 0.0
C179 C 0.39406 0.57455 0.42234 0.0
C180 C 0.40541 0.57928 0.46583 0.0
C181 C 0.43176 0.58529 0.47179 0.0
C182 C 0.44657 0.58641 0.43312 0.0
H183 H 0.87791 0.39751 0.62599 0.0
H184 H 0.81339 0.40079 0.56067 0.0
H185 H 0.79923 0.40872 0.635 0.0
H186 H 0.84388 0.36553 0.72921 0.0
H187 H 0.87215 0.38434 0.76464 0.0
H188 H 0.8764 0.37767 0.70668 0.0
H189 H 0.90576 0.42726 0.69186 0.0
H190 H 0.90168 0.43407 0.74977 0.0
H191 H 0.89333 0.44904 0.70442 0.0
H192 H 0.79271 0.41716 0.71658 0.0
H193 H 0.79556 0.42768 0.798 0.0
H194 H 0.86497 0.41973 0.80947 0.0
C195 C 0.86065 0.39965 0.62728 0.0
C196 C 0.84665 0.39836 0.58748 0.0
C197 C 0.8244 0.40166 0.59068 0.0
C198 C 0.81617 0.40609 0.63277 0.0
C199 C 0.83045 0.40728 0.67131 0.0
C200 C 0.8523 0.40429 0.66888 0.0
C201 C 0.86493 0.40756 0.71497 0.0
C202 C 0.86429 0.38226 0.72974 0.0
C203 C 0.89308 0.43087 0.71525 0.0
C204 C 0.84685 0.413 0.74376 0.0
C205 C 0.82696 0.41255 0.71803 0.0
C206 C 0.80815 0.41749 0.73705 0.0
C207 C 0.80993 0.42341 0.78341 0.0
C208 C 0.83046 0.42451 0.81028 0.0
C209 C 0.84895 0.41893 0.79004 0.0
H210 H 0.43662 0.88634 0.91143 0.0
H211 H 0.44726 0.81857 0.90965 0.0
H212 H 0.43608 0.81149 0.991 0.0
H213 H 0.46508 0.91017 0.01837 0.0
H214 H 0.44244 0.92103 0.03436 0.0
H215 H 0.44962 0.9197 0.97554 0.0
H216 H 0.4001 0.88983 0.95863 0.0
H217 H 0.39274 0.89122 0.01739 0.0
H218 H 0.38165 0.86006 0.9903 0.0
H219 H 0.42646 0.81374 0.07449 0.0
H220 H 0.41708 0.8239 0.15131 0.0
H221 H 0.41239 0.88976 0.09682 0.0
C222 C 0.43629 0.86978 0.92789 0.0
C223 C 0.4428 0.853 0.90405 0.0
C224 C 0.44224 0.83165 0.9271 0.0
C225 C 0.43597 0.8275 0.97336 0.0
C226 C 0.43014 0.84475 0.99602 0.0
C227 C 0.43002 0.86532 0.97387 0.0
C228 C 0.42372 0.88147 1.00595 0.0
C229 C 0.44658 0.90976 1.00871 0.0
C230 C 0.39802 0.88057 0.99225 0.0
C231 C 0.42062 0.86699 0.04978 0.0
C232 C 0.42439 0.84586 0.04352 0.0
C233 C 0.42325 0.83011 0.07965 0.0
C234 C 0.41799 0.83606 0.12318 0.0
C235 C 0.41388 0.85754 0.13012 0.0
C236 C 0.41522 0.87308 0.09273 0.0
H237 H 0.58815 0.43626 0.24031 0.0
H238 H 0.67291 0.48331 0.2494 0.0
H239 H 0.67034 0.47788 0.33236 0.0
H240 H 0.57406 0.46095 0.34172 0.0
H241 H 0.54659 0.42989 0.35759 0.0
H242 H 0.55512 0.43722 0.29881 0.0
H243 H 0.55873 0.39536 0.29089 0.0
H244 H 0.55022 0.38792 0.34966 0.0
H245 H 0.58015 0.39047 0.32837 0.0
H246 H 0.65845 0.46736 0.4155 0.0
H247 H 0.63803 0.45288 0.491 0.0
H248 H 0.5612 0.41297 0.42764 0.0
C249 C 0.6062 0.4454 0.25968 0.0
C250 C 0.63076 0.46023 0.23799 0.0
C251 C 0.65384 0.47187 0.26492 0.0
C252 C 0.65259 0.46889 0.31222 0.0
C253 C 0.62811 0.4542 0.33248 0.0
C254 C 0.60532 0.44267 0.30704 0.0
C255 C 0.58147 0.42804 0.33718 0.0
C256 C 0.56324 0.43973 0.33361 0.0
C257 C 0.56678 0.39871 0.32585 0.0
C258 C 0.59439 0.43316 0.38345 0.0
C259 C 0.62131 0.44825 0.3801 0.0
C260 C 0.63736 0.45551 0.41846 0.0
C261 C 0.6256 0.44718 0.46127 0.0
C262 C 0.598 0.43176 0.46555 0.0
C263 C 0.58235 0.42472 0.42583 0.0
H264 H 0.15649 0.57984 0.58355 0.0
H265 H 0.20511 0.66347 0.60384 0.0
H266 H 0.20938 0.65615 0.68487 0.0
H267 H 0.12116 0.56723 0.68598 0.0
H268 H 0.11937 0.53626 0.69617 0.0
H269 H 0.12172 0.54788 0.63914 0.0
H270 H 0.16303 0.54359 0.62581 0.0
H271 H 0.16073 0.53183 0.6828 0.0
H272 H 0.19061 0.5598 0.66374 0.0
H273 H 0.20663 0.63983 0.76475 0.0
H274 H 0.19701 0.61565 0.83697 0.0
H275 H 0.14984 0.54286 0.76441 0.0
C276 C 0.16837 0.59659 0.60486 0.0
C277 C 0.18056 0.62223 0.58723 0.0
C278 C 0.1956 0.64364 0.6165 0.0
C279 C 0.19818 0.63969 0.66261 0.0
C280 C 0.18559 0.61421 0.67905 0.0
C281 C 0.17102 0.59301 0.65105 0.0
C282 C 0.15851 0.56772 0.67754 0.0
C283 C 0.12841 0.55397 0.67453 0.0
C284 C 0.16885 0.54967 0.66152 0.0
C285 C 0.16812 0.57801 0.72484 0.0
C286 C 0.18382 0.60486 0.72501 0.0
C287 C 0.19448 0.61878 0.76498 0.0
C288 C 0.18888 0.60488 0.80586 0.0
C289 C 0.1727 0.57736 0.80645 0.0
C290 C 0.16235 0.56387 0.76522 0.0
H291 H 0.60986 0.14342 0.09642 0.0
H292 H 0.63047 0.22464 0.11131 0.0
H293 H 0.62638 0.22764 0.02843 0.0
H294 H 0.6432 0.1499 0.99012 0.0
H295 H 0.6178 0.11896 0.96865 0.0
H296 H 0.62364 0.1237 0.02869 0.0
H297 H 0.57497 0.11043 0.04174 0.0
H298 H 0.56894 0.10549 0.98183 0.0
H299 H 0.5612 0.12744 1.01182 0.0
H300 H 0.61907 0.22122 0.94339 0.0
H301 H 0.60635 0.20525 0.86489 0.0
H302 H 0.58988 0.12807 0.90693 0.0
C303 C 0.61374 0.16194 0.08232 0.0
C304 C 0.62065 0.18386 0.11041 0.0
C305 C 0.62518 0.20759 0.09051 0.0
C306 C 0.62301 0.2095 0.04344 0.0
C307 C 0.6162 0.18749 1.01676 0.0
C308 C 0.61148 0.16412 0.0356 0.0
C309 C 0.60324 0.14297 0.99999 0.0
C310 C 0.62317 0.13332 0.99668 0.0
C311 C 0.57544 0.12025 1.00941 0.0
C312 C 0.60384 0.15799 0.9581 0.0
C313 C 0.61161 0.18371 0.96829 0.0
C314 C 0.61306 0.20114 0.93505 0.0
C315 C 0.60588 0.19191 0.89049 0.0
C316 C 0.59715 0.16541 0.87961 0.0
C317 C 0.59657 0.14846 0.91395 0.0
H318 H 0.35199 0.57748 0.98581 0.0
H319 H 0.32357 0.5097 0.07274 0.0
H320 H 0.27815 0.49447 0.04576 0.0
H321 H 0.30139 0.59033 1.00333 0.0
H322 H 0.30046 0.6003 0.94604 0.0
H323 H 0.33047 0.60386 0.96873 0.0
H324 H 0.33309 0.57646 0.90233 0.0
H325 H 0.30303 0.57283 0.87932 0.0
H326 H 0.30579 0.54433 0.89129 0.0
H327 H 0.23499 0.49034 1.01593 0.0
H328 H 0.19942 0.49663 0.98414 0.0
H329 H 0.25756 0.56594 0.91421 0.0
C330 C 0.33628 0.55919 0.99868 0.0
C331 C 0.34122 0.54479 0.03147 0.0
C332 C 0.32018 0.52093 0.04737 0.0
C333 C 0.29435 0.51219 0.03226 0.0
C334 C 0.29007 0.52727 1.00058 0.0
C335 C 0.31064 0.55007 0.9835 0.0
C336 C 0.3011 0.56351 0.9514 0.0
C337 C 0.30881 0.59112 0.96842 0.0
C338 C 0.31136 0.56432 0.90323 0.0
C339 C 0.27181 0.54528 0.95414 0.0
C340 C 0.26567 0.52439 0.98245 0.0
C341 C 0.23964 0.50634 0.99298 0.0
C342 C 0.21954 0.51004 0.97474 0.0
C343 C 0.22558 0.53161 0.94623 0.0
C344 C 0.25209 0.54897 0.93518 0.0
H345 H 0.78874 0.33134 0.33891 0.0
H346 H 0.81699 0.29499 0.43389 0.0
H347 H 0.78701 0.25159 0.3994 0.0
H348 H 0.72308 0.28346 0.3393 0.0
H349 H 0.7179 0.2862 0.27991 0.0
H350 H 0.7429 0.31388 0.31011 0.0
H351 H 0.77774 0.31739 0.25239 0.0
H352 H 0.75278 0.28968 0.22189 0.0
H353 H 0.78162 0.28938 0.24191 0.0
H354 H 0.74911 0.2115 0.35914 0.0
H355 H 0.71027 0.17991 0.31468 0.0
H356 H 0.71057 0.24444 0.24391 0.0
C357 C 0.78886 0.31428 0.35219 0.0
C358 C 0.80495 0.31635 0.3892 0.0
C359 C 0.80479 0.29371 0.40539 0.0
C360 C 0.78782 0.26906 0.38605 0.0
C361 C 0.77172 0.26766 0.34998 0.0
C362 C 0.77257 0.28987 0.33285 0.0
C363 C 0.75308 0.28354 0.2949 0.0
C364 C 0.73306 0.29228 0.3068 0.0
C365 C 0.76715 0.29572 0.25012 0.0
C366 C 0.74045 0.25415 0.29389 0.0
C367 C 0.75127 0.24515 0.32584 0.0
C368 C 0.74093 0.21842 0.33339 0.0
C369 C 0.71888 0.20061 0.30801 0.0
C370 C 0.70759 0.20964 0.27529 0.0
C371 C 0.71899 0.23676 0.26784 0.0
H372 H 0.45435 0.75874 0.78113 0.0
H373 H 0.52552 0.81592 0.71414 0.0
H374 H 0.53057 0.77995 0.68091 0.0
H375 H 0.47449 0.70964 0.80378 0.0
H376 H 0.44191 0.68302 0.79276 0.0
H377 H 0.44639 0.71331 0.81565 0.0
H378 H 0.41936 0.71665 0.74913 0.0
H379 H 0.41499 0.68655 0.72591 0.0
H380 H 0.42929 0.71569 0.69177 0.0
H381 H 0.5249 0.73622 0.64948 0.0
H382 H 0.50898 0.69059 0.62361 0.0
H383 H 0.4411 0.66402 0.71066 0.0
C384 C 0.47137 0.76387 0.76026 0.0
C385 C 0.4896 0.79022 0.75041 0.0
C386 C 0.51141 0.7959 0.72253 0.0
C387 C 0.51439 0.77556 0.70346 0.0
C388 C 0.49549 0.7497 0.71287 0.0
C389 C 0.47453 0.74396 0.74103 0.0
C390 C 0.45571 0.71489 0.74354 0.0
C391 C 0.45457 0.70462 0.79179 0.0
C392 C 0.42823 0.70806 0.72656 0.0
C393 C 0.46886 0.70504 0.71143 0.0
C394 C 0.49199 0.72518 0.69441 0.0
C395 C 0.50691 0.72037 0.66297 0.0
C396 C 0.49775 0.69443 0.64844 0.0
C397 C 0.47372 0.67379 0.66484 0.0
C398 C 0.45945 0.67935 0.69713 0.0
H399 H 0.70034 0.44481 0.0794 0.0
H400 H 0.68959 0.50158 1.00292 0.0
H401 H 0.73217 0.51617 0.96488 0.0
H402 H 0.77091 0.48511 0.09536 0.0
H403 H 0.77648 0.45781 0.08952 0.0
H404 H 0.7458 0.45284 0.11182 0.0
H405 H 0.72069 0.41792 0.04998 0.0
H406 H 0.7513 0.42285 0.02761 0.0
H407 H 0.7286 0.42638 0.99125 0.0
H408 H 0.77517 0.52255 0.93171 0.0
H409 H 0.81473 0.52074 0.9082 0.0
H410 H 0.79719 0.46066 1.00864 0.0
C411 C 0.70698 0.46047 0.05492 0.0
C412 C 0.69158 0.47206 0.0442 0.0
C413 C 0.70107 0.49247 1.01189 0.0
C414 C 0.72523 0.50087 0.99006 0.0
C415 C 0.73981 0.48884 1.00119 0.0
C416 C 0.73106 0.46918 0.03314 0.0
C417 C 0.75002 0.45898 0.0385 0.0
C418 C 0.76148 0.464 0.08666 0.0
C419 C 0.73686 0.42981 0.02608 0.0
C420 C 0.77067 0.4757 1.00417 0.0
C421 C 0.76453 0.49283 0.98291 0.0
C422 C 0.78028 0.50939 0.94852 0.0
C423 C 0.80271 0.50823 0.93536 0.0
C424 C 0.80926 0.4907 0.95667 0.0
C425 C 0.79303 0.47451 0.99186 0.0
H426 H 0.25068 0.68126 0.3954 0.0
H427 H 0.19298 0.70654 0.40569 0.0
H428 H 0.22509 0.74939 0.37252 0.0
H429 H 0.3071 0.74196 0.42356 0.0
H430 H 0.32787 0.73741 0.38409 0.0
H431 H 0.3003 0.70947 0.40906 0.0
H432 H 0.28253 0.69102 0.329 0.0
H433 H 0.30998 0.71897 0.30377 0.0
H434 H 0.277 0.71082 0.28895 0.0
H435 H 0.26532 0.79036 0.33828 0.0
H436 H 0.30815 0.82385 0.30669 0.0
H437 H 0.33693 0.76909 0.31812 0.0
C438 C 0.24467 0.69576 0.39104 0.0
C439 C 0.21933 0.69058 0.40345 0.0
C440 C 0.21234 0.71012 0.39658 0.0
C441 C 0.23045 0.73448 0.37773 0.0
C442 C 0.25531 0.73882 0.36569 0.0
C443 C 0.26224 0.71982 0.3721 0.0
C444 C 0.28979 0.72867 0.35612 0.0
C445 C 0.30729 0.72943 0.39556 0.0
C446 C 0.28981 0.71134 0.31715 0.0
C447 C 0.29756 0.75579 0.33984 0.0
C448 C 0.27761 0.76153 0.34556 0.0
C449 C 0.28095 0.78592 0.33353 0.0
C450 C 0.30532 0.80481 0.31557 0.0
C451 C 0.32589 0.7991 0.30966 0.0
C452 C 0.32165 0.77416 0.32179 0.0
H453 H 0.5836 0.25273 0.76365 0.0
H454 H 0.51625 0.19587 0.68698 0.0
H455 H 0.511 0.2318 0.65444 0.0
H456 H 0.56001 0.29869 0.78645 0.0
H457 H 0.59232 0.32661 0.78006 0.0
H458 H 0.58853 0.29616 0.8005 0.0
H459 H 0.61882 0.29659 0.73632 0.0
H460 H 0.62252 0.32687 0.71545 0.0
H461 H 0.61074 0.29899 0.6783 0.0
H462 H 0.51564 0.27552 0.62633 0.0
H463 H 0.5296 0.3215 0.60628 0.0
H464 H 0.59455 0.34806 0.70061 0.0
C465 C 0.56738 0.24763 0.74067 0.0
C466 C 0.55025 0.22139 0.72808 0.0
C467 C 0.5295 0.21579 0.69748 0.0
C468 C 0.52642 0.2361 0.67876 0.0
C469 C 0.5442 0.26187 0.6911 0.0
C470 C 0.56416 0.26754 0.72167 0.0
C471 C 0.58175 0.29666 0.72767 0.0
C472 C 0.58057 0.30501 0.77657 0.0
C473 C 0.61012 0.30527 0.71358 0.0
C474 C 0.56896 0.30668 0.6951 0.0
C475 C 0.54715 0.28648 0.67454 0.0
C476 C 0.53262 0.29141 0.6425 0.0
C477 C 0.54069 0.31757 0.63126 0.0
C478 C 0.56325 0.33841 0.65163 0.0
C479 C 0.57731 0.33266 0.68411 0.0
H480 H 0.45755 0.51032 0.09441 0.0
H481 H 0.51056 0.58064 0.02078 0.0
H482 H 0.54232 0.56504 1.01407 0.0
H483 H 0.50648 0.5067 0.15867 0.0
H484 H 0.49107 0.47158 0.15714 0.0
H485 H 0.47136 0.48707 0.15308 0.0
H486 H 0.45144 0.46277 0.07765 0.0
H487 H 0.47102 0.44709 0.08159 0.0
H488 H 0.47291 0.46557 0.03181 0.0
H489 H 0.56955 0.54323 0.01884 0.0
H490 H 0.59021 0.51643 0.03461 0.0
H491 H 0.52004 0.46033 0.10582 0.0
C492 C 0.47564 0.52221 0.07622 0.0
C493 C 0.48149 0.54669 0.05798 0.0
C494 C 0.5056 0.56184 0.03506 0.0
C495 C 0.52379 0.55313 0.03097 0.0
C496 C 0.51768 0.52918 0.04999 0.0
C497 C 0.49418 0.51386 0.07205 0.0
C498 C 0.49308 0.48949 0.09128 0.0
C499 C 0.49034 0.48868 0.14311 0.0
C500 C 0.47079 0.46476 0.06925 0.0
C501 C 0.51974 0.49372 0.0771 0.0
C502 C 0.53353 0.51666 0.05307 0.0
C503 C 0.55887 0.52512 0.03738 0.0
C504 C 0.57047 0.50978 0.04659 0.0
C505 C 0.55681 0.48624 0.07143 0.0
C506 C 0.53102 0.47814 0.08658 0.0
H507 H 0.9502 0.47246 0.52529 0.0
H508 H 0.9456 0.4409 0.3907 0.0
H509 H 0.99097 0.47598 0.37543 0.0
H510 H 0.98756 0.53974 0.49738 0.0
H511 H 1.0074 0.54899 0.54792 0.0
H512 H 0.97472 0.52126 0.54873 0.0
H513 H 0.99281 0.49168 0.57705 0.0
H514 H 0.0255 0.5194 0.57696 0.0
H515 H 0.01842 0.49037 0.54559 0.0
H516 H 0.03561 0.51638 0.37304 0.0
H517 H 0.0788 0.55525 0.38729 0.0
H518 H 0.05549 0.5589 0.52526 0.0
C519 C 0.95885 0.4728 0.49276 0.0
C520 C 0.94439 0.454 0.45911 0.0
C521 C 0.9564 0.455 0.41706 0.0
C522 C 0.98207 0.47496 0.40797 0.0
C523 C 0.99559 0.49351 0.44155 0.0
C524 C 0.98461 0.49229 0.48345 0.0
C525 C 1.00362 0.51421 0.5141 0.0
C526 C 0.99266 0.5321 0.52782 0.0
C527 C 1.0105 0.50326 0.55589 0.0
C528 C 0.02693 0.52813 0.48274 0.0
C529 C 0.02175 0.51609 0.44086 0.0
C530 C 0.03998 0.52582 0.40584 0.0
C531 C 0.0644 0.54804 0.41418 0.0
C532 C 0.07055 0.5601 0.45743 0.0
C533 C 0.0514 0.55007 0.49193 0.0
H534 H 0.52939 0.05576 0.66762 0.0
H535 H 0.52553 0.0724 0.80967 0.0
H536 H 0.51842 0.02862 0.82957 0.0
H537 H 0.47942 0.98664 0.67171 0.0
H538 H 0.49648 0.97735 0.63166 0.0
H539 H 0.49988 0.0094 0.62893 0.0
H540 H 0.55036 0.03011 0.63447 0.0
H541 H 0.5471 0.99815 0.63791 0.0
H542 H 0.56445 0.02196 0.68161 0.0
H543 H 0.51425 0.98367 0.83406 0.0
H544 H 0.50941 0.94 0.82243 0.0
H545 H 0.51581 0.95289 0.67725 0.0
C546 C 0.52668 0.05012 0.70291 0.0
C547 C 0.52799 0.0676 0.73708 0.0
C548 C 0.52444 0.05936 0.78283 0.0
C549 C 0.52053 0.03456 0.79449 0.0
C550 C 0.52006 0.01812 0.76001 0.0
C551 C 0.52267 0.02544 0.71509 0.0
C552 C 0.52166 1.00429 0.68447 0.0
C553 C 0.49795 0.9938 0.6523 0.0
C554 C 0.54743 0.01423 0.65807 0.0
C555 C 0.51832 0.98397 0.71916 0.0
C556 C 0.51751 0.99232 0.76256 0.0
C557 C 0.51473 0.97692 0.80019 0.0
C558 C 0.51215 0.95216 0.79322 0.0
C559 C 0.5123 0.94292 0.74892 0.0
C560 C 0.51573 0.95931 0.71157 0.0
H561 H 0.51093 0.56073 0.60173 0.0
H562 H 0.43029 0.49738 0.5953 0.0
H563 H 0.44564 0.46541 0.59342 0.0
H564 H 0.53707 0.5312 0.52524 0.0
H565 H 0.56743 0.54305 0.55595 0.0
H566 H 0.5502 0.56119 0.55714 0.0
H567 H 0.54931 0.55945 0.64478 0.0
H568 H 0.56652 0.54129 0.64384 0.0
H569 H 0.53555 0.52827 0.67279 0.0
H570 H 0.46939 0.44001 0.59473 0.0
H571 H 0.5004 0.42312 0.59539 0.0
H572 H 0.56568 0.50265 0.59787 0.0
C573 C 0.49654 0.54014 0.59991 0.0
C574 C 0.4694 0.53161 0.59875 0.0
C575 C 0.45119 0.50447 0.59612 0.0
C576 C 0.45969 0.48609 0.59512 0.0
C577 C 0.48651 0.49509 0.59639 0.0
C578 C 0.50471 0.52146 0.59839 0.0
C579 C 0.53242 0.52582 0.59876 0.0
C580 C 0.54767 0.54122 0.55677 0.0
C581 C 0.54679 0.53951 0.64266 0.0
C582 C 0.52688 0.49782 0.59698 0.0
C583 C 0.50026 0.4804 0.59588 0.0
C584 C 0.49031 0.45346 0.5953 0.0
C585 C 0.50805 0.44404 0.59577 0.0
C586 C 0.53543 0.46153 0.59641 0.0
C587 C 0.54486 0.48876 0.59692 0.0
H588 H 0.06708 0.49806 0.94542 0.0
H589 H 0.09299 0.58103 0.94258 0.0
H590 H 0.04716 0.57116 0.94246 0.0
H591 H 1.01084 0.47792 0.87179 0.0
H592 H 0.99025 0.44835 0.90264 0.0
H593 H 0.02528 0.46173 0.90231 0.0
H594 H 0.02584 0.4628 0.98998 0.0
H595 H 0.99082 0.44945 0.99055 0.0
H596 H 1.01182 0.47977 0.0194 0.0
H597 H 0.99855 0.55276 0.94329 0.0
H598 H 0.95015 0.52655 0.94437 0.0
H599 H 0.95517 0.45552 0.94646 0.0
C600 C 0.06309 0.51411 0.94468 0.0
C601 C 0.08379 0.54034 0.94403 0.0
C602 C 0.07763 0.56076 0.94312 0.0
C603 C 0.05158 0.55539 0.94304 0.0
C604 C 0.03168 0.52945 0.94384 0.0
C605 C 0.03704 0.5091 0.94458 0.0
C606 C 1.01181 0.48297 0.94546 0.0
C607 C 1.00941 0.46679 0.90302 0.0
C608 C 1.00997 0.46786 0.98894 0.0
C609 C 0.9916 0.49191 0.94516 0.0
C610 C 1.00351 0.5188 0.94423 0.0
C611 C 0.98896 0.53165 0.94397 0.0
C612 C 0.96147 0.5166 0.94461 0.0
C613 C 0.94878 0.48898 0.94548 0.0
C614 C 0.9642 0.47659 0.94576 0.0
H615 H 0.49713 0.95058 0.27758 0.0
H616 H 0.42582 0.9541 0.25585 0.0
H617 H 0.4523 1.00197 0.24658 0.0
H618 H 0.53174 0.01069 0.34146 0.0
H619 H 0.56315 0.01959 0.31689 0.0
H620 H 0.53861 0.98566 0.32231 0.0
H621 H 0.54167 0.97898 0.23633 0.0
H622 H 0.56617 0.0129 0.23058 0.0
H623 H 0.53678 0.99938 0.19664 0.0
H624 H 0.48629 0.04895 0.23805 0.0
H625 H 0.52537 0.09245 0.23252 0.0
H626 H 0.57514 0.05894 0.26056 0.0
C627 C 0.48702 0.96139 0.271 0.0
C628 C 0.45934 0.94855 0.26741 0.0
C629 C 0.44695 0.96347 0.2588 0.0
C630 C 0.46184 0.99066 0.25344 0.0
C631 C 0.48906 1.00263 0.25694 0.0
C632 C 0.50156 0.98853 0.26569 0.0
C633 C 0.53111 1.00619 0.26769 0.0
C634 C 0.54178 1.00549 0.3149 0.0
C635 C 0.54473 0.99893 0.2306 0.0
C636 C 0.5333 0.03248 0.25846 0.0
C637 C 0.50877 0.02989 0.25233 0.0
C638 C 0.50558 0.05123 0.24291 0.0
C639 C 0.528 0.0759 0.23978 0.0
C640 C 0.55343 0.07921 0.24612 0.0
C641 C 0.55603 0.0571 0.25561 0.0
H642 H 0.43073 0.60541 0.75936 0.0
H643 H 0.41725 0.52634 0.769 0.0
H644 H 0.41271 0.52758 0.85203 0.0
H645 H 0.47157 0.62927 0.85145 0.0
H646 H 0.46044 0.65107 0.87103 0.0
H647 H 0.45756 0.64235 0.81217 0.0
H648 H 0.40772 0.62579 0.81461 0.0
H649 H 0.41044 0.63469 0.87356 0.0
H650 H 0.38759 0.60175 0.85607 0.0
H651 H 0.41407 0.53915 0.93537 0.0
H652 H 0.42344 0.56076 1.01027 0.0
H653 H 0.43842 0.63286 0.9458 0.0
C654 C 0.42586 0.58802 0.77876 0.0
C655 C 0.42389 0.56559 0.75756 0.0
C656 C 0.41853 0.54361 0.78443 0.0
C657 C 0.41588 0.54413 0.83165 0.0
C658 C 0.41875 0.56683 0.85172 0.0
C659 C 0.42358 0.58838 0.82603 0.0
C660 C 0.42878 0.61136 0.85601 0.0
C661 C 0.45621 0.63488 0.84713 0.0
C662 C 0.40735 0.61882 0.84968 0.0
C663 C 0.42709 0.59969 0.90245 0.0
C664 C 0.42069 0.57383 0.89945 0.0
C665 C 0.41894 0.55937 0.93804 0.0
C666 C 0.42437 0.57182 0.98059 0.0
C667 C 0.43198 0.59859 0.98422 0.0
C668 C 0.43278 0.61238 0.94445 0.0
H669 H 0.88821 0.41304 0.26726 0.0
H670 H 0.81573 0.40279 0.32472 0.0
H671 H 0.79938 0.40323 0.24764 0.0
H672 H 0.89346 0.4572 0.17858 0.0
H673 H 0.90687 0.44396 0.13841 0.0
H674 H 0.91243 0.4427 0.19804 0.0
H675 H 0.8928 0.39254 0.19213 0.0
H676 H 0.88679 0.39359 0.13259 0.0
H677 H 0.8602 0.37271 0.16958 0.0
H678 H 0.79079 0.40394 0.16381 0.0
H679 H 0.79226 0.40931 0.0809 0.0
H680 H 0.87077 0.41961 0.07897 0.0
C681 C 0.86894 0.41102 0.26371 0.0
C682 C 0.85323 0.4079 0.30197 0.0
C683 C 0.82818 0.40542 0.29589 0.0
C684 C 0.81865 0.40544 0.25224 0.0
C685 C 0.83451 0.4081 0.2152 0.0
C686 C 0.85925 0.41118 0.22058 0.0
C687 C 0.8727 0.41437 0.17546 0.0
C688 C 0.89785 0.44115 0.17245 0.0
C689 C 0.87845 0.39197 0.16696 0.0
C690 C 0.8517 0.41269 0.14369 0.0
C691 C 0.82972 0.40881 0.1672 0.0
C692 C 0.80791 0.40698 0.1451 0.0
C693 C 0.80889 0.40992 0.09789 0.0
C694 C 0.83162 0.41484 0.07329 0.0
C695 C 0.85305 0.41572 0.09664 0.0
H696 H 0.43246 0.8885 0.63708 0.0
H697 H 0.43822 0.8179 0.64112 0.0
H698 H 0.4309 0.81266 0.55867 0.0
H699 H 0.38161 0.86619 0.54882 0.0
H700 H 0.39581 0.89811 0.52341 0.0
H701 H 0.39951 0.89504 0.58324 0.0
H702 H 0.44997 0.92301 0.57476 0.0
H703 H 0.44647 0.92581 0.51482 0.0
H704 H 0.46665 0.91291 0.53536 0.0
H705 H 0.42656 0.81707 0.47468 0.0
H706 H 0.42131 0.82869 0.39642 0.0
H707 H 0.41799 0.896 0.44773 0.0
C708 C 0.4316 0.87161 0.62085 0.0
C709 C 0.43587 0.8536 0.64568 0.0
C710 C 0.43495 0.83196 0.6229 0.0
C711 C 0.43088 0.82883 0.57601 0.0
C712 C 0.42761 0.84742 0.55234 0.0
C713 C 0.42755 0.86818 0.57406 0.0
C714 C 0.42433 0.8858 0.5406 0.0
C715 C 0.39879 0.8863 0.54955 0.0
C716 C 0.44828 0.91352 0.54145 0.0
C717 C 0.42286 0.87185 0.4967 0.0
C718 C 0.42488 0.8498 0.50411 0.0
C719 C 0.42472 0.83417 0.46848 0.0
C720 C 0.42191 0.841 0.42415 0.0
C721 C 0.41919 0.86319 0.41598 0.0
C722 C 0.41989 0.87884 0.45285 0.0
H723 H 0.59745 0.40975 0.75434 0.0
H724 H 0.60795 0.48785 0.76001 0.0
H725 H 0.61251 0.48803 0.84328 0.0
H726 H 0.55667 0.3863 0.84699 0.0
H727 H 0.56887 0.36557 0.86756 0.0
H728 H 0.57115 0.37335 0.80837 0.0
H729 H 0.62125 0.3913 0.81067 0.0
H730 H 0.61918 0.38348 0.87 0.0
H731 H 0.64113 0.41632 0.85114 0.0
H732 H 0.61159 0.47779 0.92747 0.0
H733 H 0.60273 0.45711 1.00312 0.0
H734 H 0.59098 0.38532 0.94162 0.0
C735 C 0.60158 0.42724 0.77291 0.0
C736 C 0.60276 0.44896 0.75049 0.0
C737 C 0.60725 0.47108 0.77634 0.0
C738 C 0.60991 0.47138 0.82371 0.0
C739 C 0.60793 0.44935 0.84493 0.0
C740 C 0.60387 0.42768 0.82023 0.0
C741 C 0.59959 0.40543 0.85116 0.0
C742 C 0.57246 0.38126 0.84303 0.0
C743 C 0.62161 0.39875 0.84539 0.0
C744 C 0.60112 0.41766 0.89705 0.0
C745 C 0.60647 0.44317 0.89297 0.0
C746 C 0.60765 0.45789 0.93096 0.0
C747 C 0.60264 0.44604 0.97396 0.0
C748 C 0.5961 0.41961 0.97856 0.0
C749 C 0.59594 0.40559 0.93946 0.0
H750 H 0.15852 0.58529 0.08334 0.0
H751 H 0.22804 0.57769 0.09691 0.0
H752 H 0.22805 0.58443 0.17939 0.0
H753 H 0.17621 0.63548 0.17039 0.0
H754 H 0.14282 0.62198 0.18938 0.0
H755 H 0.14947 0.61817 0.13122 0.0
H756 H 0.11998 0.56798 0.13858 0.0
H757 H 0.11353 0.5716 0.19692 0.0
H758 H 0.12693 0.55091 0.18218 0.0
H759 H 0.21855 0.58906 0.26167 0.0
H760 H 0.20221 0.59471 0.33577 0.0
H761 H 0.13935 0.59947 0.26719 0.0
C762 C 0.17402 0.58547 0.10347 0.0
C763 C 0.19328 0.58097 0.08356 0.0
C764 C 0.21309 0.58116 0.11131 0.0
C765 C 0.21323 0.58489 0.15826 0.0
C766 C 0.19352 0.58855 0.17694 0.0
C767 C 0.17448 0.58918 0.15031 0.0
C768 C 0.15516 0.5929 0.1787 0.0
C769 C 0.15598 0.61867 0.16671 0.0
C770 C 0.12726 0.56945 0.17379 0.0
C771 C 0.16614 0.59401 0.22548 0.0
C772 C 0.18823 0.59141 0.22393 0.0
C773 C 0.20137 0.5913 0.26325 0.0
C774 C 0.19188 0.59436 0.30517 0.0
C775 C 0.16956 0.59757 0.30726 0.0
C776 C 0.15654 0.59719 0.26678 0.0
H777 H 0.62633 0.21233 0.59294 0.0
H778 H 0.5576 0.13529 0.60392 0.0
H779 H 0.55554 0.13105 0.52094 0.0
H780 H 0.60802 0.23252 0.48964 0.0
H781 H 0.64064 0.24833 0.46626 0.0
H782 H 0.63612 0.24645 0.52675 0.0
H783 H 0.66419 0.2239 0.53452 0.0
H784 H 0.66914 0.22613 0.47422 0.0
H785 H 0.65559 0.19487 0.50188 0.0
H786 H 0.55984 0.13529 0.43743 0.0
H787 H 0.57514 0.14385 0.35857 0.0
H788 H 0.6433 0.21659 0.40034 0.0
C789 C 0.61093 0.19459 0.57773 0.0
C790 C 0.59211 0.17416 0.60484 0.0
C791 C 0.57236 0.15111 0.58386 0.0
C792 C 0.57083 0.14862 0.53671 0.0
C793 C 0.58941 0.16919 0.51089 0.0
C794 C 0.60947 0.19148 0.53051 0.0
C795 C 0.6281 0.20967 0.49476 0.0
C796 C 0.62822 0.23579 0.49435 0.0
C797 C 0.6559 0.21387 0.50176 0.0
C798 C 0.61545 0.19394 0.45219 0.0
C799 C 0.59278 0.171 0.46234 0.0
C800 C 0.57762 0.15315 0.42898 0.0
C801 C 0.58642 0.1583 0.38416 0.0
C802 C 0.61049 0.18087 0.37318 0.0
C803 C 0.6248 0.19922 0.40761 0.0
loop_
_geom_bond_atom_site_label_1
_geom_bond_atom_site_label_2
_geom_bond_distance
_geom_bond_site_symmetry_2
_ccdc_geom_bond_type
Mg0 O7 2.141 . S
Mg0 O8 2.048 . S
Mg0 O9 2.051 . S
Mg0 O12 2.141 . S
C1 O2 1.313 . S
C1 O8 1.195 . S
O2 C1 1.313 . S
C3 O4 1.245 . S
C3 O12 1.289 . S
O4 C3 1.245 . S
C5 O6 1.245 . S
C5 O7 1.289 . S
O6 C5 1.245 . S
O7 Mg0 2.141 . S
O7 C5 1.289 . S
O8 Mg0 2.048 . S
O8 C1 1.195 . S
O9 Mg0 2.051 . S
O9 C10 1.192 1_554 S
C10 O9 1.192 1_556 S
C10 O11 1.313 . S
O11 C10 1.313 . S
O12 Mg0 2.141 . S
O12 C3 1.289 . S
Mg13 O20 2.141 . S
Mg13 O21 2.048 . S
Mg13 O22 2.048 . S
Mg13 O25 2.141 . S
C14 O15 1.313 . S
C14 O21 1.195 . S
O15 C14 1.313 . S
C16 O17 1.245 . S
C16 O25 1.289 . S
O17 C16 1.245 . S
C18 O19 1.245 . S
C18 O20 1.289 . S
O19 C18 1.245 . S
O20 Mg13 2.141 . S
O20 C18 1.289 . S
O21 Mg13 2.048 . S
O21 C14 1.195 . S
O22 Mg13 2.048 . S
O22 C23 1.195 . S
C23 O22 1.195 . S
C23 O24 1.313 . S
O24 C23 1.313 . S
O25 Mg13 2.141 . S
O25 C16 1.289 . S
Mg26 O33 2.141 . S
Mg26 O34 2.048 . S
Mg26 O35 2.048 . S
Mg26 O38 2.141 . S
C27 O28 1.313 . S
C27 O34 1.195 . S
O28 C27 1.313 . S
C29 O30 1.245 . S
C29 O38 1.289 . S
O30 C29 1.245 . S
C31 O32 1.245 . S
C31 O33 1.289 . S
O32 C31 1.245 . S
O33 Mg26 2.141 . S
O33 C31 1.289 . S
O34 Mg26 2.048 . S
O34 C27 1.195 . S
O35 Mg26 2.048 . S
O35 C36 1.195 . S
C36 O35 1.195 . S
C36 O37 1.313 . S
O37 C36 1.313 . S
O38 Mg26 2.141 . S
O38 C29 1.289 . S
Mg39 O46 2.141 . S
Mg39 O47 2.048 . S
Mg39 O48 2.051 . S
Mg39 O51 2.141 . S
C40 O41 1.313 . S
C40 O47 1.195 . S
O41 C40 1.313 . S
C42 O43 1.245 . S
C42 O51 1.289 . S
O43 C42 1.245 . S
C44 O45 1.245 . S
C44 O46 1.289 . S
O45 C44 1.245 . S
O46 Mg39 2.141 . S
O46 C44 1.289 . S
O47 Mg39 2.048 . S
O47 C40 1.195 . S
O48 Mg39 2.051 . S
O48 C49 1.192 1_554 S
C49 O48 1.192 1_556 S
C49 O50 1.313 . S
O50 C49 1.313 . S
O51 Mg39 2.141 . S
O51 C42 1.289 . S
Mg52 O59 2.141 . S
Mg52 O60 2.048 . S
Mg52 O61 2.048 . S
Mg52 O64 2.141 . S
C53 O54 1.313 . S
C53 O60 1.195 . S
O54 C53 1.313 . S
C55 O56 1.245 . S
C55 O64 1.289 . S
O56 C55 1.245 . S
C57 O58 1.245 . S
C57 O59 1.289 . S
O58 C57 1.245 . S
O59 Mg52 2.141 . S
O59 C57 1.289 . S
O60 Mg52 2.048 . S
O60 C53 1.195 . S
O61 Mg52 2.048 . S
O61 C62 1.195 . S
C62 O61 1.195 . S
C62 O63 1.313 . S
O63 C62 1.313 . S
O64 Mg52 2.141 . S
O64 C55 1.289 . S
Mg65 O72 2.141 . S
Mg65 O73 2.048 . S
Mg65 O74 2.048 . S
Mg65 O77 2.141 . S
C66 O67 1.313 . S
C66 O73 1.195 . S
O67 C66 1.313 . S
C68 O69 1.245 . S
C68 O77 1.289 . S
O69 C68 1.245 . S
C70 O71 1.245 . S
C70 O72 1.289 . S
O71 C70 1.245 . S
O72 Mg65 2.141 . S
O72 C70 1.289 . S
O73 Mg65 2.048 . S
O73 C66 1.195 . S
O74 Mg65 2.048 . S
O74 C75 1.195 . S
C75 O74 1.195 . S
C75 O76 1.313 . S
O76 C75 1.313 . S
O77 Mg65 2.141 . S
O77 C68 1.289 . S
Mg78 O85 2.141 . S
Mg78 O86 2.048 . S
Mg78 O87 2.048 . S
Mg78 O90 2.141 . S
C79 O80 1.313 . S
C79 O86 1.195 . S
O80 C79 1.313 . S
C81 O82 1.245 . S
C81 O90 1.289 . S
O82 C81 1.245 . S
C83 O84 1.245 . S
C83 O85 1.289 . S
O84 C83 1.245 . S
O85 Mg78 2.141 . S
O85 C83 1.289 . S
O86 Mg78 2.048 . S
O86 C79 1.195 . S
O87 Mg78 2.048 . S
O87 C88 1.195 . S
C88 O87 1.195 . S
C88 O89 1.313 . S
O89 C88 1.313 . S
O90 Mg78 2.141 . S
O90 C81 1.289 . S
Mg91 O98 2.141 . S
Mg91 O99 2.048 . S
Mg91 O100 2.052 . S
Mg91 O103 2.141 . S
C92 O93 1.313 . S
C92 O99 1.195 . S
O93 C92 1.313 . S
C94 O95 1.245 . S
C94 O103 1.289 . S
O95 C94 1.245 . S
C96 O97 1.245 . S
C96 O98 1.289 . S
O97 C96 1.245 . S
O98 Mg91 2.141 . S
O98 C96 1.289 . S
O99 Mg91 2.048 . S
O99 C92 1.195 . S
O100 Mg91 2.052 . S
O100 C101 1.192 1_556 S
C101 O100 1.192 1_554 S
C101 O102 1.313 . S
O102 C101 1.313 . S
O103 Mg91 2.141 . S
O103 C94 1.289 . S
Mg104 O111 2.141 . S
Mg104 O112 2.048 . S
Mg104 O113 2.048 . S
Mg104 O116 2.141 . S
C105 O106 1.313 . S
C105 O112 1.195 . S
O106 C105 1.313 . S
C107 O108 1.245 . S
C107 O116 1.289 . S
O108 C107 1.245 . S
C109 O110 1.245 . S
C109 O111 1.289 . S
O110 C109 1.245 . S
O111 Mg104 2.141 . S
O111 C109 1.289 . S
O112 Mg104 2.048 . S
O112 C105 1.195 . S
O113 Mg104 2.048 . S
O113 C114 1.195 . S
C114 O113 1.195 . S
C114 O115 1.313 . S
O115 C114 1.313 . S
O116 Mg104 2.141 . S
O116 C107 1.289 . S
Mg117 O124 2.141 . S
Mg117 O125 2.048 . S
Mg117 O126 2.048 . S
Mg117 O129 2.141 . S
C118 O119 1.313 . S
C118 O125 1.195 . S
O119 C118 1.313 . S
C120 O121 1.245 . S
C120 O129 1.289 . S
O121 C120 1.245 . S
C122 O123 1.245 . S
C122 O124 1.289 . S
O123 C122 1.245 . S
O124 Mg117 2.141 . S
O124 C122 1.289 . S
O125 Mg117 2.048 . S
O125 C118 1.195 . S
O126 Mg117 2.048 . S
O126 C127 1.195 . S
C127 O126 1.195 . S
C127 O128 1.313 . S
O128 C127 1.313 . S
O129 Mg117 2.141 . S
O129 C120 1.289 . S
Mg130 O137 2.141 . S
Mg130 O138 2.048 . S
Mg130 O139 2.052 . S
Mg130 O142 2.141 . S
C131 O132 1.313 . S
C131 O138 1.195 . S
O132 C131 1.313 . S
C133 O134 1.245 . S
C133 O142 1.289 . S
O134 C133 1.245 . S
C135 O136 1.245 . S
C135 O137 1.289 . S
O136 C135 1.245 . S
O137 Mg130 2.141 . S
O137 C135 1.289 . S
O138 Mg130 2.048 . S
O138 C131 1.195 . S
O139 Mg130 2.052 . S
O139 C140 1.192 1_556 S
C140 O139 1.192 1_554 S
C140 O141 1.313 . S
O141 C140 1.313 . S
O142 Mg130 2.141 . S
O142 C133 1.289 . S
Mg143 O150 2.141 . S
Mg143 O151 2.048 . S
Mg143 O152 2.048 . S
Mg143 O155 2.141 . S
C144 O145 1.313 . S
C144 O151 1.195 . S
O145 C144 1.313 . S
C146 O147 1.245 . S
C146 O155 1.289 . S
O147 C146 1.245 . S
C148 O149 1.245 . S
C148 O150 1.289 . S
O149 C148 1.245 . S
O150 Mg143 2.141 . S
O150 C148 1.289 . S
O151 Mg143 2.048 . S
O151 C144 1.195 . S
O152 Mg143 2.048 . S
O152 C153 1.195 . S
C153 O152 1.195 . S
C153 O154 1.313 . S
O154 C153 1.313 . S
O155 Mg143 2.141 . S
O155 C146 1.289 . S
H156 C168 0.930 . S
H157 C170 0.930 . S
H158 C171 0.930 . S
H159 C175 0.959 . S
H160 C175 0.959 . S
H161 C175 0.961 . S
H162 C176 0.960 . S
H163 C176 0.961 . S
H164 C176 0.959 . S
H165 C179 0.929 . S
H166 C180 0.931 . S
H167 C182 0.930 . S
C168 H156 0.930 . S
C168 C169 1.399 . S
C168 C173 1.399 . S
C169 C168 1.399 . S
C169 C170 1.376 . S
C170 H157 0.930 . S
C170 C169 1.376 . S
C170 C171 1.388 . S
C171 H158 0.930 . S
C171 C170 1.388 . S
C171 C172 1.390 . S
C172 C171 1.390 . S
C172 C173 1.394 . S
C172 C178 1.465 . S
C173 C168 1.399 . S
C173 C172 1.394 . S
C173 C174 1.516 . S
C174 C173 1.516 . S
C174 C175 1.502 . S
C174 C176 1.561 . S
C174 C177 1.526 . S
C175 H159 0.959 . S
C175 H160 0.959 . S
C175 H161 0.961 . S
C175 C174 1.502 . S
C176 H162 0.960 . S
C176 H163 0.961 . S
C176 H164 0.959 . S
C176 C174 1.561 . S
C177 C174 1.526 . S
C177 C178 1.396 . S
C177 C182 1.390 . S
C178 C172 1.465 . S
C178 C177 1.396 . S
C178 C179 1.399 . S
C179 H165 0.929 . S
C179 C178 1.399 . S
C179 C180 1.385 . S
C180 H166 0.931 . S
C180 C179 1.385 . S
C180 C181 1.389 . S
C181 C180 1.389 . S
C181 C182 1.387 . S
C182 H167 0.930 . S
C182 C177 1.390 . S
C182 C181 1.387 . S
H183 C195 0.930 . S
H184 C197 0.930 . S
H185 C198 0.930 . S
H186 C202 0.959 . S
H187 C202 0.959 . S
H188 C202 0.961 . S
H189 C203 0.960 . S
H190 C203 0.961 . S
H191 C203 0.959 . S
H192 C206 0.929 . S
H193 C207 0.931 . S
H194 C209 0.930 . S
C195 H183 0.930 . S
C195 C196 1.399 . S
C195 C200 1.399 . S
C196 C195 1.399 . S
C196 C197 1.376 . S
C197 H184 0.930 . S
C197 C196 1.376 . S
C197 C198 1.388 . S
C198 H185 0.930 . S
C198 C197 1.388 . S
C198 C199 1.390 . S
C199 C198 1.390 . S
C199 C200 1.394 . S
C199 C205 1.465 . S
C200 C195 1.399 . S
C200 C199 1.394 . S
C200 C201 1.516 . S
C201 C200 1.516 . S
C201 C202 1.502 . S
C201 C203 1.561 . S
C201 C204 1.526 . S
C202 H186 0.959 . S
C202 H187 0.959 . S
C202 H188 0.961 . S
C202 C201 1.502 . S
C203 H189 0.960 . S
C203 H190 0.961 . S
C203 H191 0.959 . S
C203 C201 1.561 . S
C204 C201 1.526 . S
C204 C205 1.396 . S
C204 C209 1.390 . S
C205 C199 1.465 . S
C205 C204 1.396 . S
C205 C206 1.399 . S
C206 H192 0.929 . S
C206 C205 1.399 . S
C206 C207 1.385 . S
C207 H193 0.931 . S
C207 C206 1.385 . S
C207 C208 1.389 . S
C208 C207 1.389 . S
C208 C209 1.387 . S
C209 H194 0.930 . S
C209 C204 1.390 . S
C209 C208 1.387 . S
H210 C222 0.930 . S
H211 C224 0.930 . S
H212 C225 0.930 . S
H213 C229 0.959 . S
H214 C229 0.959 . S
H215 C229 0.961 1_556 S
H216 C230 0.960 . S
H217 C230 0.961 1_554 S
H218 C230 0.959 . S
H219 C233 0.929 . S
H220 C234 0.931 . S
H221 C236 0.930 . S
C222 H210 0.930 . S
C222 C223 1.399 . S
C222 C227 1.399 . S
C223 C222 1.399 . S
C223 C224 1.376 . S
C224 H211 0.930 . S
C224 C223 1.376 . S
C224 C225 1.388 . S
C225 H212 0.930 . S
C225 C224 1.388 . S
C225 C226 1.390 . S
C226 C225 1.390 . S
C226 C227 1.394 . S
C226 C232 1.465 1_556 S
C227 C222 1.399 . S
C227 C226 1.394 . S
C227 C228 1.516 1_556 S
C228 C227 1.516 1_554 S
C228 C229 1.502 . S
C228 C230 1.561 1_554 S
C228 C231 1.526 . S
C229 H213 0.959 . S
C229 H214 0.959 . S
C229 H215 0.961 1_554 S
C229 C228 1.502 . S
C230 H216 0.960 . S
C230 H217 0.961 1_556 S
C230 H218 0.959 . S
C230 C228 1.561 1_556 S
C231 C228 1.526 . S
C231 C232 1.396 . S
C231 C236 1.390 . S
C232 C226 1.465 1_554 S
C232 C231 1.396 . S
C232 C233 1.399 . S
C233 H219 0.929 . S
C233 C232 1.399 . S
C233 C234 1.385 . S
C234 H220 0.931 . S
C234 C233 1.385 . S
C234 C235 1.389 . S
C235 C234 1.389 . S
C235 C236 1.387 . S
C236 H221 0.930 . S
C236 C231 1.390 . S
C236 C235 1.387 . S
H237 C249 0.930 . S
H238 C251 0.930 . S
H239 C252 0.930 . S
H240 C256 0.959 . S
H241 C256 0.959 . S
H242 C256 0.961 . S
H243 C257 0.960 . S
H244 C257 0.961 . S
H245 C257 0.959 . S
H246 C260 0.929 . S
H247 C261 0.931 . S
H248 C263 0.930 . S
C249 H237 0.930 . S
C249 C250 1.399 . S
C249 C254 1.399 . S
C250 C249 1.399 . S
C250 C251 1.376 . S
C251 H238 0.930 . S
C251 C250 1.376 . S
C251 C252 1.388 . S
C252 H239 0.930 . S
C252 C251 1.388 . S
C252 C253 1.390 . S
C253 C252 1.390 . S
C253 C254 1.394 . S
C253 C259 1.465 . S
C254 C249 1.399 . S
C254 C253 1.394 . S
C254 C255 1.516 . S
C255 C254 1.516 . S
C255 C256 1.502 . S
C255 C257 1.561 . S
C255 C258 1.526 . S
C256 H240 0.959 . S
C256 H241 0.959 . S
C256 H242 0.961 . S
C256 C255 1.502 . S
C257 H243 0.960 . S
C257 H244 0.961 . S
C257 H245 0.959 . S
C257 C255 1.561 . S
C258 C255 1.526 . S
C258 C259 1.396 . S
C258 C263 1.390 . S
C259 C253 1.465 . S
C259 C258 1.396 . S
C259 C260 1.399 . S
C260 H246 0.929 . S
C260 C259 1.399 . S
C260 C261 1.385 . S
C261 H247 0.931 . S
C261 C260 1.385 . S
C261 C262 1.389 . S
C262 C261 1.389 . S
C262 C263 1.387 . S
C263 H248 0.930 . S
C263 C258 1.390 . S
C263 C262 1.387 . S
H264 C276 0.930 . S
H265 C278 0.930 . S
H266 C279 0.930 . S
H267 C283 0.959 . S
H268 C283 0.959 . S
H269 C283 0.961 . S
H270 C284 0.960 . S
H271 C284 0.961 . S
H272 C284 0.959 . S
H273 C287 0.929 . S
H274 C288 0.931 . S
H275 C290 0.930 . S
C276 H264 0.930 . S
C276 C277 1.399 . S
C276 C281 1.399 . S
C277 C276 1.399 . S
C277 C278 1.376 . S
C278 H265 0.930 . S
C278 C277 1.376 . S
C278 C279 1.388 . S
C279 H266 0.930 . S
C279 C278 1.388 . S
C279 C280 1.390 . S
C280 C279 1.390 . S
C280 C281 1.394 . S
C280 C286 1.465 . S
C281 C276 1.399 . S
C281 C280 1.394 . S
C281 C282 1.516 . S
C282 C281 1.516 . S
C282 C283 1.502 . S
C282 C284 1.561 . S
C282 C285 1.526 . S
C283 H267 0.959 . S
C283 H268 0.959 . S
C283 H269 0.961 . S
C283 C282 1.502 . S
C284 H270 0.960 . S
C284 H271 0.961 . S
C284 H272 0.959 . S
C284 C282 1.561 . S
C285 C282 1.526 . S
C285 C286 1.396 . S
C285 C290 1.390 . S
C286 C280 1.465 . S
C286 C285 1.396 . S
C286 C287 1.399 . S
C287 H273 0.929 . S
C287 C286 1.399 . S
C287 C288 1.385 . S
C288 H274 0.931 . S
C288 C287 1.385 . S
C288 C289 1.389 . S
C289 C288 1.389 . S
C289 C290 1.387 . S
C290 H275 0.930 . S
C290 C285 1.390 . S
C290 C289 1.387 . S
H291 C303 0.930 . S
H292 C305 0.930 . S
H293 C306 0.930 . S
H294 C310 0.959 . S
H295 C310 0.959 . S
H296 C310 0.961 1_554 S
H297 C311 0.960 . S
H298 C311 0.961 1_556 S
H299 C311 0.959 . S
H300 C314 0.929 . S
H301 C315 0.931 . S
H302 C317 0.930 . S
C303 H291 0.930 . S
C303 C304 1.399 . S
C303 C308 1.399 . S
C304 C303 1.399 . S
C304 C305 1.376 . S
C305 H292 0.930 . S
C305 C304 1.376 . S
C305 C306 1.388 . S
C306 H293 0.930 . S
C306 C305 1.388 . S
C306 C307 1.390 . S
C307 C306 1.390 . S
C307 C308 1.394 . S
C307 C313 1.465 1_554 S
C308 C303 1.399 . S
C308 C307 1.394 . S
C308 C309 1.516 1_554 S
C309 C308 1.516 1_556 S
C309 C310 1.502 . S
C309 C311 1.561 1_556 S
C309 C312 1.526 . S
C310 H294 0.959 . S
C310 H295 0.959 . S
C310 H296 0.961 1_556 S
C310 C309 1.502 . S
C311 H297 0.960 . S
C311 H298 0.961 1_554 S
C311 H299 0.959 . S
C311 C309 1.561 1_554 S
C312 C309 1.526 . S
C312 C313 1.396 . S
C312 C317 1.390 . S
C313 C307 1.465 1_556 S
C313 C312 1.396 . S
C313 C314 1.399 . S
C314 H300 0.929 . S
C314 C313 1.399 . S
C314 C315 1.385 . S
C315 H301 0.931 . S
C315 C314 1.385 . S
C315 C316 1.389 . S
C316 C315 1.389 . S
C316 C317 1.387 . S
C317 H302 0.930 . S
C317 C312 1.390 . S
C317 C316 1.387 . S
H318 C330 0.930 . S
H319 C332 0.930 . S
H320 C333 0.930 . S
H321 C337 0.959 . S
H322 C337 0.959 . S
H323 C337 0.961 . S
H324 C338 0.960 . S
H325 C338 0.961 . S
H326 C338 0.959 1_556 S
H327 C341 0.929 . S
H328 C342 0.931 . S
H329 C344 0.930 . S
C330 H318 0.930 . S
C330 C331 1.399 . S
C330 C335 1.399 . S
C331 C330 1.399 . S
C331 C332 1.376 . S
C332 H319 0.930 . S
C332 C331 1.376 . S
C332 C333 1.388 1_554 S
C333 H320 0.930 . S
C333 C332 1.388 1_556 S
C333 C334 1.390 . S
C334 C333 1.390 . S
C334 C335 1.394 1_556 S
C334 C340 1.465 . S
C335 C330 1.399 . S
C335 C334 1.394 1_554 S
C335 C336 1.516 . S
C336 C335 1.516 . S
C336 C337 1.502 . S
C336 C338 1.561 . S
C336 C339 1.526 1_554 S
C337 H321 0.959 . S
C337 H322 0.959 . S
C337 H323 0.961 . S
C337 C336 1.502 . S
C338 H324 0.960 . S
C338 H325 0.961 . S
C338 H326 0.959 1_554 S
C338 C336 1.561 . S
C339 C336 1.526 1_556 S
C339 C340 1.396 . S
C339 C344 1.390 . S
C340 C334 1.465 . S
C340 C339 1.396 . S
C340 C341 1.399 . S
C341 H327 0.929 . S
C341 C340 1.399 . S
C341 C342 1.385 . S
C342 H328 0.931 . S
C342 C341 1.385 . S
C342 C343 1.389 . S
C343 C342 1.389 . S
C343 C344 1.387 . S
C344 H329 0.930 . S
C344 C339 1.390 . S
C344 C343 1.387 . S
H345 C357 0.930 . S
H346 C359 0.930 . S
H347 C360 0.930 . S
H348 C364 0.959 . S
H349 C364 0.959 . S
H350 C364 0.961 . S
H351 C365 0.960 . S
H352 C365 0.961 . S
H353 C365 0.959 . S
H354 C368 0.929 . S
H355 C369 0.931 . S
H356 C371 0.930 . S
C357 H345 0.930 . S
C357 C358 1.399 . S
C357 C362 1.399 . S
C358 C357 1.399 . S
C358 C359 1.376 . S
C359 H346 0.930 . S
C359 C358 1.376 . S
C359 C360 1.388 . S
C360 H347 0.930 . S
C360 C359 1.388 . S
C360 C361 1.390 . S
C361 C360 1.390 . S
C361 C362 1.394 . S
C361 C367 1.465 . S
C362 C357 1.399 . S
C362 C361 1.394 . S
C362 C363 1.516 . S
C363 C362 1.516 . S
C363 C364 1.502 . S
C363 C365 1.561 . S
C363 C366 1.526 . S
C364 H348 0.959 . S
C364 H349 0.959 . S
C364 H350 0.961 . S
C364 C363 1.502 . S
C365 H351 0.960 . S
C365 H352 0.961 . S
C365 H353 0.959 . S
C365 C363 1.561 . S
C366 C363 1.526 . S
C366 C367 1.396 . S
C366 C371 1.390 . S
C367 C361 1.465 . S
C367 C366 1.396 . S
C367 C368 1.399 . S
C368 H354 0.929 . S
C368 C367 1.399 . S
C368 C369 1.385 . S
C369 H355 0.931 . S
C369 C368 1.385 . S
C369 C370 1.389 . S
C370 C369 1.389 . S
C370 C371 1.387 . S
C371 H356 0.930 . S
C371 C366 1.390 . S
C371 C370 1.387 . S
H372 C384 0.930 . S
H373 C386 0.930 . S
H374 C387 0.930 . S
H375 C391 0.959 . S
H376 C391 0.959 . S
H377 C391 0.961 . S
H378 C392 0.960 . S
H379 C392 0.961 . S
H380 C392 0.959 . S
H381 C395 0.929 . S
H382 C396 0.931 . S
H383 C398 0.930 . S
C384 H372 0.930 . S
C384 C385 1.399 . S
C384 C389 1.399 . S
C385 C384 1.399 . S
C385 C386 1.376 . S
C386 H373 0.930 . S
C386 C385 1.376 . S
C386 C387 1.388 . S
C387 H374 0.930 . S
C387 C386 1.388 . S
C387 C388 1.390 . S
C388 C387 1.390 . S
C388 C389 1.394 . S
C388 C394 1.465 . S
C389 C384 1.399 . S
C389 C388 1.394 . S
C389 C390 1.516 . S
C390 C389 1.516 . S
C390 C391 1.502 . S
C390 C392 1.561 . S
C390 C393 1.526 . S
C391 H375 0.959 . S
C391 H376 0.959 . S
C391 H377 0.961 . S
C391 C390 1.502 . S
C392 H378 0.960 . S
C392 H379 0.961 . S
C392 H380 0.959 . S
C392 C390 1.561 . S
C393 C390 1.526 . S
C393 C394 1.396 . S
C393 C398 1.390 . S
C394 C388 1.465 . S
C394 C393 1.396 . S
C394 C395 1.399 . S
C395 H381 0.929 . S
C395 C394 1.399 . S
C395 C396 1.385 . S
C396 H382 0.931 . S
C396 C395 1.385 . S
C396 C397 1.389 . S
C397 C396 1.389 . S
C397 C398 1.387 . S
C398 H383 0.930 . S
C398 C393 1.390 . S
C398 C397 1.387 . S
H399 C411 0.930 . S
H400 C413 0.930 . S
H401 C414 0.930 . S
H402 C418 0.959 . S
H403 C418 0.959 . S
H404 C418 0.961 . S
H405 C419 0.960 . S
H406 C419 0.961 . S
H407 C419 0.959 . S
H408 C422 0.929 1_554 S
H409 C423 0.931 . S
H410 C425 0.930 . S
C411 H399 0.930 . S
C411 C412 1.399 . S
C411 C416 1.399 . S
C412 C411 1.399 . S
C412 C413 1.376 . S
C413 H400 0.930 . S
C413 C412 1.376 . S
C413 C414 1.388 . S
C414 H401 0.930 . S
C414 C413 1.388 . S
C414 C415 1.390 . S
C415 C414 1.390 . S
C415 C416 1.394 . S
C415 C421 1.471 . S
C416 C411 1.399 . S
C416 C415 1.394 . S
C416 C417 1.516 1_554 S
C417 C416 1.516 1_556 S
C417 C418 1.502 . S
C417 C419 1.561 1_556 S
C417 C420 1.526 . S
C418 H402 0.959 . S
C418 H403 0.959 . S
C418 H404 0.961 . S
C418 C417 1.502 . S
C419 H405 0.960 . S
C419 H406 0.961 . S
C419 H407 0.959 . S
C419 C417 1.561 1_554 S
C420 C417 1.526 . S
C420 C421 1.391 1_556 S
C420 C425 1.390 . S
C421 C415 1.471 . S
C421 C420 1.391 1_554 S
C421 C422 1.398 1_554 S
C422 H408 0.929 1_556 S
C422 C421 1.398 1_556 S
C422 C423 1.385 . S
C423 H409 0.931 . S
C423 C422 1.385 . S
C423 C424 1.389 . S
C424 C423 1.389 . S
C424 C425 1.387 . S
C425 H410 0.930 . S
C425 C420 1.390 . S
C425 C424 1.387 . S
H426 C438 0.930 . S
H427 C440 0.930 . S
H428 C441 0.930 . S
H429 C445 0.959 . S
H430 C445 0.959 . S
H431 C445 0.961 . S
H432 C446 0.960 . S
H433 C446 0.961 . S
H434 C446 0.959 . S
H435 C449 0.929 . S
H436 C450 0.931 . S
H437 C452 0.930 . S
C438 H426 0.930 . S
C438 C439 1.399 . S
C438 C443 1.399 . S
C439 C438 1.399 . S
C439 C440 1.376 . S
C440 H427 0.930 . S
C440 C439 1.376 . S
C440 C441 1.388 . S
C441 H428 0.930 . S
C441 C440 1.388 . S
C441 C442 1.390 . S
C442 C441 1.390 . S
C442 C443 1.394 . S
C442 C448 1.465 . S
C443 C438 1.399 . S
C443 C442 1.394 . S
C443 C444 1.516 . S
C444 C443 1.516 . S
C444 C445 1.502 . S
C444 C446 1.561 . S
C444 C447 1.526 . S
C445 H429 0.959 . S
C445 H430 0.959 . S
C445 H431 0.961 . S
C445 C444 1.502 . S
C446 H432 0.960 . S
C446 H433 0.961 . S
C446 H434 0.959 . S
C446 C444 1.561 . S
C447 C444 1.526 . S
C447 C448 1.396 . S
C447 C452 1.390 . S
C448 C442 1.465 . S
C448 C447 1.396 . S
C448 C449 1.399 . S
C449 H435 0.929 . S
C449 C448 1.399 . S
C449 C450 1.385 . S
C450 H436 0.931 . S
C450 C449 1.385 . S
C450 C451 1.389 . S
C451 C450 1.389 . S
C451 C452 1.387 . S
C452 H437 0.930 . S
C452 C447 1.390 . S
C452 C451 1.387 . S
H453 C465 0.930 . S
H454 C467 0.930 . S
H455 C468 0.930 . S
H456 C472 0.959 . S
H457 C472 0.959 . S
H458 C472 0.961 . S
H459 C473 0.960 . S
H460 C473 0.961 . S
H461 C473 0.959 . S
H462 C476 0.929 . S
H463 C477 0.931 . S
H464 C479 0.930 . S
C465 H453 0.930 . S
C465 C466 1.399 . S
C465 C470 1.399 . S
C466 C465 1.399 . S
C466 C467 1.376 . S
C467 H454 0.930 . S
C467 C466 1.376 . S
C467 C468 1.388 . S
C468 H455 0.930 . S
C468 C467 1.388 . S
C468 C469 1.390 . S
C469 C468 1.390 . S
C469 C470 1.394 . S
C469 C475 1.465 . S
C470 C465 1.399 . S
C470 C469 1.394 . S
C470 C471 1.516 . S
C471 C470 1.516 . S
C471 C472 1.502 . S
C471 C473 1.561 . S
C471 C474 1.526 . S
C472 H456 0.959 . S
C472 H457 0.959 . S
C472 H458 0.961 . S
C472 C471 1.502 . S
C473 H459 0.960 . S
C473 H460 0.961 . S
C473 H461 0.959 . S
C473 C471 1.561 . S
C474 C471 1.526 . S
C474 C475 1.396 . S
C474 C479 1.390 . S
C475 C469 1.465 . S
C475 C474 1.396 . S
C475 C476 1.399 . S
C476 H462 0.929 . S
C476 C475 1.399 . S
C476 C477 1.385 . S
C477 H463 0.931 . S
C477 C476 1.385 . S
C477 C478 1.389 . S
C478 C477 1.389 . S
C478 C479 1.387 . S
C479 H464 0.930 . S
C479 C474 1.390 . S
C479 C478 1.387 . S
H480 C492 0.930 . S
H481 C494 0.930 . S
H482 C495 0.930 . S
H483 C499 0.959 . S
H484 C499 0.959 1_556 S
H485 C499 0.961 1_556 S
H486 C500 0.960 . S
H487 C500 0.961 . S
H488 C500 0.959 . S
H489 C503 0.929 . S
H490 C504 0.931 . S
H491 C506 0.930 . S
C492 H480 0.930 . S
C492 C493 1.399 . S
C492 C497 1.399 . S
C493 C492 1.399 . S
C493 C494 1.376 . S
C494 H481 0.930 . S
C494 C493 1.376 . S
C494 C495 1.388 . S
C495 H482 0.930 . S
C495 C494 1.388 . S
C495 C496 1.390 . S
C496 C495 1.390 . S
C496 C497 1.394 . S
C496 C502 1.465 . S
C497 C492 1.399 . S
C497 C496 1.394 . S
C497 C498 1.516 . S
C498 C497 1.516 . S
C498 C499 1.502 . S
C498 C500 1.561 1_554 S
C498 C501 1.526 . S
C499 H483 0.959 . S
C499 H484 0.959 1_554 S
C499 H485 0.961 1_554 S
C499 C498 1.502 . S
C500 H486 0.960 . S
C500 H487 0.961 . S
C500 H488 0.959 . S
C500 C498 1.561 1_556 S
C501 C498 1.526 . S
C501 C502 1.396 . S
C501 C506 1.390 . S
C502 C496 1.465 . S
C502 C501 1.396 . S
C502 C503 1.399 . S
C503 H489 0.929 . S
C503 C502 1.399 . S
C503 C504 1.385 . S
C504 H490 0.931 . S
C504 C503 1.385 . S
C504 C505 1.389 . S
C505 C504 1.389 . S
C505 C506 1.387 . S
C506 H491 0.930 . S
C506 C501 1.390 . S
C506 C505 1.387 . S
H507 C519 0.930 . S
H508 C521 0.930 . S
H509 C522 0.930 . S
H510 C526 0.959 . S
H511 C526 0.959 . S
H512 C526 0.961 1_655 S
H513 C527 0.998 . S
H514 C527 0.932 1_455 S
H515 C527 0.955 . S
H516 C530 0.929 . S
H517 C531 0.931 . S
H518 C533 0.930 . S
C519 H507 0.930 . S
C519 C520 1.399 . S
C519 C524 1.399 . S
C520 C519 1.399 . S
C520 C521 1.376 . S
C521 H508 0.930 . S
C521 C520 1.376 . S
C521 C522 1.388 . S
C522 H509 0.930 . S
C522 C521 1.388 . S
C522 C523 1.390 . S
C523 C522 1.390 . S
C523 C524 1.394 . S
C523 C529 1.465 1_655 S
C524 C519 1.399 . S
C524 C523 1.394 . S
C524 C525 1.494 1_655 S
C525 C524 1.494 1_455 S
C525 C526 1.488 . S
C525 C527 1.587 1_455 S
C525 C528 1.554 . S
C526 H510 0.959 . S
C526 H511 0.959 . S
C526 H512 0.961 1_455 S
C526 C525 1.488 . S
C527 H513 0.998 . S
C527 H514 0.932 1_655 S
C527 H515 0.955 . S
C527 C525 1.587 1_655 S
C528 C525 1.554 . S
C528 C529 1.396 . S
C528 C533 1.390 . S
C529 C523 1.465 1_455 S
C529 C528 1.396 . S
C529 C530 1.399 . S
C530 H516 0.929 . S
C530 C529 1.399 . S
C530 C531 1.385 . S
C531 H517 0.931 . S
C531 C530 1.385 . S
C531 C532 1.389 . S
C532 C531 1.389 . S
C532 C533 1.387 . S
C533 H518 0.930 . S
C533 C528 1.390 . S
C533 C532 1.387 . S
H534 C546 0.930 . S
H535 C548 0.930 . S
H536 C549 0.930 . S
H537 C553 0.959 . S
H538 C553 0.959 1_565 S
H539 C553 0.961 . S
H540 C554 0.929 1_545 S
H541 C554 0.982 . S
H542 C554 0.985 . S
H543 C557 0.929 . S
H544 C558 0.931 . S
H545 C560 0.930 . S
C546 H534 0.930 . S
C546 C547 1.399 . S
C546 C551 1.399 . S
C547 C546 1.399 . S
C547 C548 1.376 . S
C548 H535 0.930 . S
C548 C547 1.376 . S
C548 C549 1.388 . S
C549 H536 0.930 . S
C549 C548 1.388 . S
C549 C550 1.390 . S
C550 C549 1.390 . S
C550 C551 1.394 . S
C550 C556 1.465 1_545 S
C551 C546 1.399 . S
C551 C550 1.394 . S
C551 C552 1.537 . S
C552 C551 1.537 . S
C552 C553 1.524 . S
C552 C554 1.535 1_545 S
C552 C555 1.495 1_545 S
C553 H537 0.959 . S
C553 H538 0.959 1_545 S
C553 H539 0.961 . S
C553 C552 1.524 . S
C554 H540 0.929 1_565 S
C554 H541 0.982 . S
C554 H542 0.985 . S
C554 C552 1.535 1_565 S
C555 C552 1.495 1_565 S
C555 C556 1.396 . S
C555 C560 1.390 . S
C556 C550 1.465 1_565 S
C556 C555 1.396 . S
C556 C557 1.399 . S
C557 H543 0.929 . S
C557 C556 1.399 . S
C557 C558 1.385 . S
C558 H544 0.931 . S
C558 C557 1.385 . S
C558 C559 1.389 . S
C559 C558 1.389 . S
C559 C560 1.387 . S
C560 H545 0.930 . S
C560 C555 1.390 . S
C560 C559 1.387 . S
H561 C573 0.930 . S
H562 C575 0.930 . S
H563 C576 0.930 . S
H564 C580 0.959 . S
H565 C580 0.959 . S
H566 C580 0.961 . S
H567 C581 0.960 . S
H568 C581 0.961 . S
H569 C581 0.959 . S
H570 C584 0.929 . S
H571 C585 0.931 . S
H572 C587 0.930 . S
C573 H561 0.930 . S
C573 C574 1.399 . S
C573 C578 1.399 . S
C574 C573 1.399 . S
C574 C575 1.376 . S
C575 H562 0.930 . S
C575 C574 1.376 . S
C575 C576 1.388 . S
C576 H563 0.930 . S
C576 C575 1.388 . S
C576 C577 1.390 . S
C577 C576 1.390 . S
C577 C578 1.394 . S
C577 C583 1.465 . S
C578 C573 1.399 . S
C578 C577 1.394 . S
C578 C579 1.516 . S
C579 C578 1.516 . S
C579 C580 1.502 . S
C579 C581 1.561 . S
C579 C582 1.526 . S
C580 H564 0.959 . S
C580 H565 0.959 . S
C580 H566 0.961 . S
C580 C579 1.502 . S
C581 H567 0.960 . S
C581 H568 0.961 . S
C581 H569 0.959 . S
C581 C579 1.561 . S
C582 C579 1.526 . S
C582 C583 1.396 . S
C582 C587 1.390 . S
C583 C577 1.465 . S
C583 C582 1.396 . S
C583 C584 1.399 . S
C584 H570 0.929 . S
C584 C583 1.399 . S
C584 C585 1.385 . S
C585 H571 0.931 . S
C585 C584 1.385 . S
C585 C586 1.389 . S
C586 C585 1.389 . S
C586 C587 1.387 . S
C587 H572 0.930 . S
C587 C582 1.390 . S
C587 C586 1.387 . S
H588 C600 0.930 . S
H589 C602 0.930 . S
H590 C603 0.930 . S
H591 C607 0.970 . S
H592 C607 0.951 1_654 S
H593 C607 0.954 1_554 S
H594 C608 0.960 1_455 S
H595 C608 0.961 . S
H596 C608 0.959 . S
H597 C611 0.929 . S
H598 C612 0.931 . S
H599 C614 0.930 . S
C600 H588 0.930 . S
C600 C601 1.399 . S
C600 C605 1.399 . S
C601 C600 1.399 . S
C601 C602 1.376 . S
C602 H589 0.930 . S
C602 C601 1.376 . S
C602 C603 1.388 . S
C603 H590 0.930 . S
C603 C602 1.388 . S
C603 C604 1.390 . S
C604 C603 1.390 . S
C604 C605 1.394 . S
C604 C610 1.465 1_455 S
C605 C600 1.399 . S
C605 C604 1.394 . S
C605 C606 1.527 . S
C606 C605 1.527 . S
C606 C607 1.518 . S
C606 C608 1.553 1_456 S
C606 C609 1.511 1_455 S
C607 H591 0.970 . S
C607 H592 0.951 1_456 S
C607 H593 0.954 1_556 S
C607 C606 1.518 . S
C608 H594 0.960 1_655 S
C608 H595 0.961 . S
C608 H596 0.959 . S
C608 C606 1.553 1_654 S
C609 C606 1.511 1_655 S
C609 C610 1.396 . S
C609 C614 1.390 . S
C610 C604 1.465 1_655 S
C610 C609 1.396 . S
C610 C611 1.399 . S
C611 H597 0.929 . S
C611 C610 1.399 . S
C611 C612 1.385 . S
C612 H598 0.931 . S
C612 C611 1.385 . S
C612 C613 1.389 . S
C613 C612 1.389 . S
C613 C614 1.387 . S
C614 H599 0.930 . S
C614 C609 1.390 . S
C614 C613 1.387 . S
H615 C627 0.930 . S
H616 C629 0.930 . S
H617 C630 0.930 . S
H618 C634 0.959 . S
H619 C634 0.959 . S
H620 C634 0.961 1_565 S
H621 C635 0.943 1_565 S
H622 C635 0.972 . S
H623 C635 0.957 . S
H624 C638 0.929 . S
H625 C639 0.931 . S
H626 C641 0.930 . S
C627 H615 0.930 . S
C627 C628 1.399 . S
C627 C632 1.399 . S
C628 C627 1.399 . S
C628 C629 1.376 . S
C629 H616 0.930 . S
C629 C628 1.376 . S
C629 C630 1.388 . S
C630 H617 0.930 . S
C630 C629 1.388 . S
C630 C631 1.390 . S
C631 C630 1.390 . S
C631 C632 1.394 . S
C631 C637 1.465 1_565 S
C632 C627 1.399 . S
C632 C631 1.394 . S
C632 C633 1.516 1_565 S
C633 C632 1.516 1_545 S
C633 C634 1.502 . S
C633 C635 1.558 . S
C633 C636 1.526 . S
C634 H618 0.959 . S
C634 H619 0.959 . S
C634 H620 0.961 1_545 S
C634 C633 1.502 . S
C635 H621 0.943 1_545 S
C635 H622 0.972 . S
C635 H623 0.957 . S
C635 C633 1.558 . S
C636 C633 1.526 . S
C636 C637 1.396 . S
C636 C641 1.390 . S
C637 C631 1.465 1_545 S
C637 C636 1.396 . S
C637 C638 1.399 . S
C638 H624 0.929 . S
C638 C637 1.399 . S
C638 C639 1.385 . S
C639 H625 0.931 . S
C639 C638 1.385 . S
C639 C640 1.389 . S
C640 C639 1.389 . S
C640 C641 1.387 . S
C641 H626 0.930 . S
C641 C636 1.390 . S
C641 C640 1.387 . S
H642 C654 0.930 . S
H643 C656 0.930 . S
H644 C657 0.930 . S
H645 C661 0.959 . S
H646 C661 0.959 . S
H647 C661 0.961 . S
H648 C662 0.960 . S
H649 C662 0.961 . S
H650 C662 0.959 . S
H651 C665 0.929 . S
H652 C666 0.931 . S
H653 C668 0.930 . S
C654 H642 0.930 . S
C654 C655 1.399 . S
C654 C659 1.399 . S
C655 C654 1.399 . S
C655 C656 1.376 . S
C656 H643 0.930 . S
C656 C655 1.376 . S
C656 C657 1.388 . S
C657 H644 0.930 . S
C657 C656 1.388 . S
C657 C658 1.390 . S
C658 C657 1.390 . S
C658 C659 1.394 . S
C658 C664 1.465 . S
C659 C654 1.399 . S
C659 C658 1.394 . S
C659 C660 1.516 . S
C660 C659 1.516 . S
C660 C661 1.502 . S
C660 C662 1.561 . S
C660 C663 1.526 . S
C661 H645 0.959 . S
C661 H646 0.959 . S
C661 H647 0.961 . S
C661 C660 1.502 . S
C662 H648 0.960 . S
C662 H649 0.961 . S
C662 H650 0.959 . S
C662 C660 1.561 . S
C663 C660 1.526 . S
C663 C664 1.396 . S
C663 C668 1.390 . S
C664 C658 1.465 . S
C664 C663 1.396 . S
C664 C665 1.399 . S
C665 H651 0.929 . S
C665 C664 1.399 . S
C665 C666 1.385 . S
C666 H652 0.931 . S
C666 C665 1.385 . S
C666 C667 1.389 . S
C667 C666 1.389 . S
C667 C668 1.387 . S
C668 H653 0.930 . S
C668 C663 1.390 . S
C668 C667 1.387 . S
H669 C681 0.930 . S
H670 C683 0.930 . S
H671 C684 0.930 . S
H672 C688 0.959 . S
H673 C688 0.959 . S
H674 C688 0.961 . S
H675 C689 0.960 . S
H676 C689 0.961 . S
H677 C689 0.959 . S
H678 C692 0.929 . S
H679 C693 0.931 . S
H680 C695 0.930 . S
C681 H669 0.930 . S
C681 C682 1.399 . S
C681 C686 1.399 . S
C682 C681 1.399 . S
C682 C683 1.376 . S
C683 H670 0.930 . S
C683 C682 1.376 . S
C683 C684 1.388 . S
C684 H671 0.930 . S
C684 C683 1.388 . S
C684 C685 1.390 . S
C685 C684 1.390 . S
C685 C686 1.394 . S
C685 C691 1.465 . S
C686 C681 1.399 . S
C686 C685 1.394 . S
C686 C687 1.516 . S
C687 C686 1.516 . S
C687 C688 1.502 . S
C687 C689 1.561 . S
C687 C690 1.526 . S
C688 H672 0.959 . S
C688 H673 0.959 . S
C688 H674 0.961 . S
C688 C687 1.502 . S
C689 H675 0.960 . S
C689 H676 0.961 . S
C689 H677 0.959 . S
C689 C687 1.561 . S
C690 C687 1.526 . S
C690 C691 1.396 . S
C690 C695 1.390 . S
C691 C685 1.465 . S
C691 C690 1.396 . S
C691 C692 1.399 . S
C692 H678 0.929 . S
C692 C691 1.399 . S
C692 C693 1.385 . S
C693 H679 0.931 . S
C693 C692 1.385 . S
C693 C694 1.389 . S
C694 C693 1.389 . S
C694 C695 1.387 . S
C695 H680 0.930 . S
C695 C690 1.390 . S
C695 C694 1.387 . S
H696 C708 0.930 . S
H697 C710 0.930 . S
H698 C711 0.930 . S
H699 C715 0.959 . S
H700 C715 0.959 . S
H701 C715 0.961 . S
H702 C716 0.960 . S
H703 C716 0.961 . S
H704 C716 0.959 . S
H705 C719 0.929 . S
H706 C720 0.931 . S
H707 C722 0.930 . S
C708 H696 0.930 . S
C708 C709 1.399 . S
C708 C713 1.399 . S
C709 C708 1.399 . S
C709 C710 1.376 . S
C710 H697 0.930 . S
C710 C709 1.376 . S
C710 C711 1.388 . S
C711 H698 0.930 . S
C711 C710 1.388 . S
C711 C712 1.390 . S
C712 C711 1.390 . S
C712 C713 1.394 . S
C712 C718 1.465 . S
C713 C708 1.399 . S
C713 C712 1.394 . S
C713 C714 1.516 . S
C714 C713 1.516 . S
C714 C715 1.502 . S
C714 C716 1.561 . S
C714 C717 1.526 . S
C715 H699 0.959 . S
C715 H700 0.959 . S
C715 H701 0.961 . S
C715 C714 1.502 . S
C716 H702 0.960 . S
C716 H703 0.961 . S
C716 H704 0.959 . S
C716 C714 1.561 . S
C717 C714 1.526 . S
C717 C718 1.396 . S
C717 C722 1.390 . S
C718 C712 1.465 . S
C718 C717 1.396 . S
C718 C719 1.399 . S
C719 H705 0.929 . S
C719 C718 1.399 . S
C719 C720 1.385 . S
C720 H706 0.931 . S
C720 C719 1.385 . S
C720 C721 1.389 . S
C721 C720 1.389 . S
C721 C722 1.387 . S
C722 H707 0.930 . S
C722 C717 1.390 . S
C722 C721 1.387 . S
H723 C735 0.930 . S
H724 C737 0.930 . S
H725 C738 0.930 . S
H726 C742 0.959 . S
H727 C742 0.959 . S
H728 C742 0.961 . S
H729 C743 0.960 . S
H730 C743 0.961 . S
H731 C743 0.959 . S
H732 C746 0.929 . S
H733 C747 0.931 . S
H734 C749 0.930 . S
C735 H723 0.930 . S
C735 C736 1.399 . S
C735 C740 1.399 . S
C736 C735 1.399 . S
C736 C737 1.376 . S
C737 H724 0.930 . S
C737 C736 1.376 . S
C737 C738 1.388 . S
C738 H725 0.930 . S
C738 C737 1.388 . S
C738 C739 1.390 . S
C739 C738 1.390 . S
C739 C740 1.394 . S
C739 C745 1.465 . S
C740 C735 1.399 . S
C740 C739 1.394 . S
C740 C741 1.516 . S
C741 C740 1.516 . S
C741 C742 1.502 . S
C741 C743 1.561 . S
C741 C744 1.526 . S
C742 H726 0.959 . S
C742 H727 0.959 . S
C742 H728 0.961 . S
C742 C741 1.502 . S
C743 H729 0.960 . S
C743 H730 0.961 . S
C743 H731 0.959 . S
C743 C741 1.561 . S
C744 C741 1.526 . S
C744 C745 1.396 . S
C744 C749 1.390 . S
C745 C739 1.465 . S
C745 C744 1.396 . S
C745 C746 1.399 . S
C746 H732 0.929 . S
C746 C745 1.399 . S
C746 C747 1.385 . S
C747 H733 0.931 . S
C747 C746 1.385 . S
C747 C748 1.389 . S
C748 C747 1.389 . S
C748 C749 1.387 . S
C749 H734 0.930 . S
C749 C744 1.390 . S
C749 C748 1.387 . S
H750 C762 0.930 . S
H751 C764 0.930 . S
H752 C765 0.930 . S
H753 C769 0.959 . S
H754 C769 0.959 . S
H755 C769 0.961 . S
H756 C770 0.960 . S
H757 C770 0.961 . S
H758 C770 0.959 . S
H759 C773 0.929 . S
H760 C774 0.931 . S
H761 C776 0.930 . S
C762 H750 0.930 . S
C762 C763 1.399 . S
C762 C767 1.399 . S
C763 C762 1.399 . S
C763 C764 1.376 . S
C764 H751 0.930 . S
C764 C763 1.376 . S
C764 C765 1.388 . S
C765 H752 0.930 . S
C765 C764 1.388 . S
C765 C766 1.390 . S
C766 C765 1.390 . S
C766 C767 1.394 . S
C766 C772 1.465 . S
C767 C762 1.399 . S
C767 C766 1.394 . S
C767 C768 1.516 . S
C768 C767 1.516 . S
C768 C769 1.502 . S
C768 C770 1.561 . S
C768 C771 1.526 . S
C769 H753 0.959 . S
C769 H754 0.959 . S
C769 H755 0.961 . S
C769 C768 1.502 . S
C770 H756 0.960 . S
C770 H757 0.961 . S
C770 H758 0.959 . S
C770 C768 1.561 . S
C771 C768 1.526 . S
C771 C772 1.396 . S
C771 C776 1.390 . S
C772 C766 1.465 . S
C772 C771 1.396 . S
C772 C773 1.399 . S
C773 H759 0.929 . S
C773 C772 1.399 . S
C773 C774 1.385 . S
C774 H760 0.931 . S
C774 C773 1.385 . S
C774 C775 1.389 . S
C775 C774 1.389 . S
C775 C776 1.387 . S
C776 H761 0.930 . S
C776 C771 1.390 . S
C776 C775 1.387 . S
H777 C789 0.930 . S
H778 C791 0.930 . S
H779 C792 0.930 . S
H780 C796 0.959 . S
H781 C796 0.959 . S
H782 C796 0.961 . S
H783 C797 0.960 . S
H784 C797 0.961 . S
H785 C797 0.959 . S
H786 C800 0.929 . S
H787 C801 0.931 . S
H788 C803 0.930 . S
C789 H777 0.930 . S
C789 C790 1.399 . S
C789 C794 1.399 . S
C790 C789 1.399 . S
C790 C791 1.376 . S
C791 H778 0.930 . S
C791 C790 1.376 . S
C791 C792 1.388 . S
C792 H779 0.930 . S
C792 C791 1.388 . S
C792 C793 1.390 . S
C793 C792 1.390 . S
C793 C794 1.394 . S
C793 C799 1.465 . S
C794 C789 1.399 . S
C794 C793 1.394 . S
C794 C795 1.516 . S
C795 C794 1.516 . S
C795 C796 1.502 . S
C795 C797 1.561 . S
C795 C798 1.526 . S
C796 H780 0.959 . S
C796 H781 0.959 . S
C796 H782 0.961 . S
C796 C795 1.502 . S
C797 H783 0.960 . S
C797 H784 0.961 . S
C797 H785 0.959 . S
C797 C795 1.561 . S
C798 C795 1.526 . S
C798 C799 1.396 . S
C798 C803 1.390 . S
C799 C793 1.465 . S
C799 C798 1.396 . S
C799 C800 1.399 . S
C800 H786 0.929 . S
C800 C799 1.399 . S
C800 C801 1.385 . S
C801 H787 0.931 . S
C801 C800 1.385 . S
C801 C802 1.389 . S
C802 C801 1.389 . S
C802 C803 1.387 . S
C803 H788 0.930 . S
C803 C798 1.390 . S
C803 C802 1.387 . S
C169 C5 1.731 . S
C181 C83 1.779 . S
C196 C18 1.755 . S
C208 C96 1.738 . S
C223 C31 1.730 . S
C235 C109 1.765 . S
C250 C44 1.728 . S
C262 C122 1.776 . S
C277 C57 1.735 . S
C289 C135 1.779 . S
C304 C148 1.730 . S
C316 C70 1.765 . S
C331 C3 1.785 . S
C343 C133 1.811 . S
C358 C16 1.804 . S
C370 C146 1.791 . S
C385 C29 1.783 . S
C397 C81 1.813 . S
C412 C42 1.808 . S
C424 C94 1.792 . S
C439 C55 1.812 . S
C451 C107 1.784 . S
C466 C68 1.809 . S
C478 C120 1.786 . S
C493 C1 1.796 . S
C505 C40 1.783 . S
C520 C14 1.767 . S
C532 C53 1.781 . S
C547 C66 1.797 . S
C559 C27 1.782 . S
C574 C79 1.795 . S
C586 C118 1.773 . S
C601 C131 1.796 . S
C613 C92 1.784 . S
C628 C105 1.767 . S
C640 C144 1.785 . S
C655 C88 0.857 . S
C667 C10 0.935 . S
C682 C23 0.935 . S
C694 C101 0.858 . S
C709 C36 0.921 . S
C721 C114 0.873 . S
C736 C127 0.858 . S
C748 C49 0.934 . S
C763 C140 0.883 . S
C775 C62 0.911 . S
C790 C75 0.891 . S
C802 C153 0.902 . S
