# Generated by pormake.
# Topology wjh, (4)-cn, num edge types: 1
# Building blocks:
#     Node 0, Type 0, BuildingBlock: CEKHIL_clean_sbu_0, # of connection points: 4
#     Node 1, Type 0, BuildingBlock: CEKHIL_clean_sbu_0, # of connection points: 4
#     Node 2, Type 0, BuildingBlock: CEKHIL_clean_sbu_0, # of connection points: 4
#     Node 3, Type 0, BuildingBlock: CEKHIL_clean_sbu_0, # of connection points: 4
#     Node 4, Type 0, BuildingBlock: CEKHIL_clean_sbu_0, # of connection points: 4
#     Node 5, Type 0, BuildingBlock: CEKHIL_clean_sbu_0, # of connection points: 4
#     Node 6, Type 0, BuildingBlock: CEKHIL_clean_sbu_0, # of connection points: 4
#     Node 7, Type 0, BuildingBlock: CEKHIL_clean_sbu_0, # of connection points: 4
#     Node 8, Type 0, BuildingBlock: CEKHIL_clean_sbu_0, # of connection points: 4
#     Node 9, Type 0, BuildingBlock: CEKHIL_clean_sbu_0, # of connection points: 4
#     Node 10, Type 0, BuildingBlock: CEKHIL_clean_sbu_0, # of connection points: 4
#     Node 11, Type 0, BuildingBlock: CEKHIL_clean_sbu_0, # of connection points: 4
#     Edge 12, Type (0, 0), BuildingBlock: UVAHIK_clean_linker_0, # of connection points: 2
#     Edge 13, Type (0, 0), BuildingBlock: UVAHIK_clean_linker_0, # of connection points: 2
#     Edge 14, Type (0, 0), BuildingBlock: UVAHIK_clean_linker_0, # of connection points: 2
#     Edge 15, Type (0, 0), BuildingBlock: UVAHIK_clean_linker_0, # of connection points: 2
#     Edge 16, Type (0, 0), BuildingBlock: UVAHIK_clean_linker_0, # of connection points: 2
#     Edge 17, Type (0, 0), BuildingBlock: UVAHIK_clean_linker_0, # of connection points: 2
#     Edge 18, Type (0, 0), BuildingBlock: UVAHIK_clean_linker_0, # of connection points: 2
#     Edge 19, Type (0, 0), BuildingBlock: UVAHIK_clean_linker_0, # of connection points: 2
#     Edge 20, Type (0, 0), BuildingBlock: UVAHIK_clean_linker_0, # of connection points: 2
#     Edge 21, Type (0, 0), BuildingBlock: UVAHIK_clean_linker_0, # of connection points: 2
#     Edge 22, Type (0, 0), BuildingBlock: UVAHIK_clean_linker_0, # of connection points: 2
#     Edge 23, Type (0, 0), BuildingBlock: UVAHIK_clean_linker_0, # of connection points: 2
#     Edge 24, Type (0, 0), BuildingBlock: UVAHIK_clean_linker_0, # of connection points: 2
#     Edge 25, Type (0, 0), BuildingBlock: UVAHIK_clean_linker_0, # of connection points: 2
#     Edge 26, Type (0, 0), BuildingBlock: UVAHIK_clean_linker_0, # of connection points: 2
#     Edge 27, Type (0, 0), BuildingBlock: UVAHIK_clean_linker_0, # of connection points: 2
#     Edge 28, Type (0, 0), BuildingBlock: UVAHIK_clean_linker_0, # of connection points: 2
#     Edge 29, Type (0, 0), BuildingBlock: UVAHIK_clean_linker_0, # of connection points: 2
#     Edge 30, Type (0, 0), BuildingBlock: UVAHIK_clean_linker_0, # of connection points: 2
#     Edge 31, Type (0, 0), BuildingBlock: UVAHIK_clean_linker_0, # of connection points: 2
#     Edge 32, Type (0, 0), BuildingBlock: UVAHIK_clean_linker_0, # of connection points: 2
#     Edge 33, Type (0, 0), BuildingBlock: UVAHIK_clean_linker_0, # of connection points: 2
#     Edge 34, Type (0, 0), BuildingBlock: UVAHIK_clean_linker_0, # of connection points: 2
#     Edge 35, Type (0, 0), BuildingBlock: UVAHIK_clean_linker_0, # of connection points: 2
# Relax obj value: 0.079
# Max RMSD: 0.099
# Mean RMSD: 0.099
data_MOF--net-wjh--node1-CEKHIL_clean_sbu_0--edge1-UVAHIK_clean_linker_0
_symmetry_space_group_name_H-M    P1
_symmetry_Int_Tables_number       1
_symmetry_cell_setting            triclinic
loop_
_symmetry_equiv_pos_as_xyz
'x, y, z'
_cell_length_a     78.565085
_cell_length_b     78.420515
_cell_length_c     34.435184
_cell_angle_alpha  90.013895
_cell_angle_beta   89.991431
_cell_angle_gamma 120.0637
loop_
_atom_site_label
_atom_site_type_symbol
_atom_site_fract_x
_atom_site_fract_y
_atom_site_fract_z
_atom_type_partial_charge
Co0 Co 0.51925 0.14671 0.03952 0.0
O1 O 0.53213 0.1748 0.04657 0.0
O2 O 0.50109 0.15394 0.06174 0.0
C3 C 0.53084 0.14786 0.97906 0.0
O4 O 0.50061 0.11696 0.03546 0.0
Co5 Co 0.54272 0.12493 0.02451 0.0
O6 O 0.51669 0.10293 0.0086 0.0
C7 C 0.5421 0.14032 0.10289 0.0
C8 C 0.51556 0.17204 0.06038 0.0
C9 C 0.50089 0.10212 0.02008 0.0
O10 O 0.52841 0.14391 0.09268 0.0
O11 O 0.55048 0.13424 0.0792 0.0
O12 O 0.51541 0.14971 0.984 0.0
O13 O 0.53914 0.1467 0.01031 0.0
Co14 Co 0.37509 0.52011 0.20476 0.0
O15 O 0.35889 0.53182 0.21138 0.0
O16 O 0.3499 0.50103 0.22674 0.0
C17 C 0.38535 0.53211 0.14444 0.0
O18 O 0.38749 0.50262 0.20104 0.0
Co19 Co 0.42026 0.54585 0.19054 0.0
O20 O 0.41801 0.52029 0.17657 0.0
C21 C 0.40341 0.54443 0.26829 0.0
C22 C 0.34554 0.51499 0.22527 0.0
C23 C 0.40334 0.50394 0.18715 0.0
O24 O 0.38667 0.52973 0.25807 0.0
O25 O 0.41778 0.55365 0.24467 0.0
O26 O 0.36854 0.51599 0.14905 0.0
O27 O 0.39445 0.54065 0.17585 0.0
Co28 Co 0.85998 0.37448 0.37319 0.0
O29 O 0.83209 0.35856 0.38122 0.0
O30 O 0.85374 0.34927 0.39527 0.0
C31 C 0.85775 0.38456 0.31295 0.0
O32 O 0.88974 0.3864 0.36797 0.0
Co33 Co 0.88029 0.4197 0.35759 0.0
O34 O 0.90263 0.41644 0.34101 0.0
C35 C 0.8665 0.4038 0.43676 0.0
C36 C 0.83548 0.34507 0.39459 0.0
C37 C 0.90414 0.40178 0.35228 0.0
O38 O 0.86295 0.3865 0.42646 0.0
O39 O 0.87199 0.41817 0.41297 0.0
O40 O 0.85665 0.36756 0.31761 0.0
O41 O 0.85894 0.39395 0.34434 0.0
Co42 Co 0.48713 0.85846 0.54 0.0
O43 O 0.47539 0.83067 0.5496 0.0
O44 O 0.50634 0.85282 0.56277 0.0
C45 C 0.47458 0.85535 0.4798 0.0
O46 O 0.50466 0.88825 0.53333 0.0
Co47 Co 0.46166 0.87795 0.52349 0.0
O48 O 0.48698 0.90019 0.50509 0.0
C49 C 0.46404 0.86479 0.60301 0.0
C50 C 0.49232 0.8345 0.56338 0.0
C51 C 0.50333 0.90219 0.51636 0.0
O52 O 0.47817 0.86185 0.59294 0.0
O53 O 0.45484 0.86976 0.579 0.0
O54 O 0.4906 0.85456 0.48469 0.0
O55 O 0.46638 0.85672 0.51102 0.0
Co56 Co 0.63223 0.48569 0.70433 0.0
O57 O 0.64849 0.47392 0.71048 0.0
O58 O 0.65705 0.50436 0.72791 0.0
C59 C 0.62265 0.47517 0.64296 0.0
O60 O 0.62 0.50331 0.70166 0.0
Co61 Co 0.58718 0.46052 0.68849 0.0
O62 O 0.58985 0.48635 0.67503 0.0
C63 C 0.60337 0.45987 0.76559 0.0
C64 C 0.66162 0.49059 0.72546 0.0
C65 C 0.60451 0.50238 0.68684 0.0
O66 O 0.61997 0.47514 0.75683 0.0
O67 O 0.58933 0.45092 0.74118 0.0
O68 O 0.63963 0.49084 0.64914 0.0
O69 O 0.61306 0.46588 0.67349 0.0
Co70 Co 0.14817 0.63247 0.87303 0.0
O71 O 0.17575 0.64875 0.8841 0.0
O72 O 0.15321 0.65719 0.89564 0.0
C73 C 0.15229 0.62333 0.81319 0.0
O74 O 0.11852 0.62001 0.86479 0.0
Co75 Co 0.12917 0.58755 0.85564 0.0
O76 O 0.10693 0.5904 0.8365 0.0
C77 C 0.14123 0.60276 0.93583 0.0
C78 C 0.17155 0.66172 0.89728 0.0
C79 C 0.10478 0.60471 0.84756 0.0
O80 O 0.14413 0.61988 0.92593 0.0
O81 O 0.13675 0.58877 0.91151 0.0
O82 O 0.15279 0.64005 0.81783 0.0
O83 O 0.15051 0.61364 0.84447 0.0
Co84 Co 0.85702 0.48602 0.88982 0.0
O85 O 0.82917 0.47547 0.88512 0.0
O86 O 0.85173 0.50573 0.86811 0.0
C87 C 0.85617 0.47452 0.9503 0.0
O88 O 0.88705 0.50216 0.89137 0.0
Co89 Co 0.87397 0.45784 0.90157 0.0
O90 O 0.89872 0.48278 0.91228 0.0
C91 C 0.8568 0.45947 0.82645 0.0
C92 C 0.83322 0.49235 0.87056 0.0
C93 C 0.90125 0.49963 0.90281 0.0
O94 O 0.85743 0.47563 0.83635 0.0
O95 O 0.86074 0.44921 0.84978 0.0
O96 O 0.85598 0.4909 0.9457 0.0
O97 O 0.85533 0.46532 0.91886 0.0
Co98 Co 0.37409 0.85554 0.05593 0.0
O99 O 0.35629 0.82759 0.05436 0.0
O100 O 0.34896 0.85005 0.0349 0.0
C101 C 0.38548 0.85636 0.11643 0.0
O102 O 0.38827 0.88561 0.05447 0.0
Co103 Co 0.41927 0.87259 0.06549 0.0
O104 O 0.41969 0.89786 0.07332 0.0
C105 C 0.39932 0.8534 -0.00756 0.0
C106 C 0.34341 0.83153 0.03976 0.0
C107 C 0.40522 0.90013 0.0641 0.0
O108 O 0.38403 0.85437 0.00246 0.0
O109 O 0.41386 0.85791 0.0152 0.0
O110 O 0.36892 0.85611 0.11168 0.0
O111 O 0.39341 0.8545 0.08525 0.0
Co112 Co 0.51861 0.37357 0.22099 0.0
O113 O 0.53167 0.35869 0.21211 0.0
O114 O 0.50047 0.3483 0.19818 0.0
C115 C 0.53039 0.38357 0.28154 0.0
O116 O 0.4997 0.38423 0.22683 0.0
Co117 Co 0.54191 0.41878 0.23667 0.0
O118 O 0.51595 0.4143 0.25412 0.0
C119 C 0.54113 0.40333 0.1579 0.0
C120 C 0.51505 0.34488 0.19832 0.0
C121 C 0.50007 0.39921 0.24309 0.0
O122 O 0.52732 0.38604 0.16799 0.0
O123 O 0.54975 0.41768 0.18183 0.0
O124 O 0.5152 0.36613 0.27622 0.0
O125 O 0.53853 0.39345 0.25051 0.0
Co126 Co 0.15026 0.52062 0.3899 0.0
O127 O 0.17819 0.53225 0.38295 0.0
O128 O 0.15615 0.50154 0.36741 0.0
C129 C 0.15179 0.53225 0.45054 0.0
O130 O 0.12043 0.50315 0.39375 0.0
Co131 Co 0.13082 0.54634 0.40467 0.0
O132 O 0.1077 0.52073 0.41938 0.0
C133 C 0.14727 0.54592 0.32765 0.0
C134 C 0.1745 0.5154 0.36872 0.0
C135 C 0.10604 0.50442 0.40853 0.0
O136 O 0.14823 0.53048 0.33685 0.0
O137 O 0.14255 0.55529 0.35178 0.0
O138 O 0.15277 0.51631 0.44549 0.0
O139 O 0.15134 0.54098 0.41931 0.0
Co140 Co 0.63331 0.15039 0.55592 0.0
O141 O 0.65085 0.17821 0.55019 0.0
O142 O 0.65803 0.15525 0.53364 0.0
C143 C 0.62332 0.1521 0.6165 0.0
O144 O 0.61916 0.12032 0.55849 0.0
Co145 Co 0.58838 0.13371 0.56945 0.0
O146 O 0.58839 0.10892 0.58071 0.0
C147 C 0.6065 0.15016 0.49333 0.0
C148 C 0.66342 0.17386 0.53558 0.0
C149 C 0.60251 0.10623 0.57075 0.0
O150 O 0.6221 0.14963 0.50275 0.0
O151 O 0.59253 0.14638 0.51717 0.0
O152 O 0.63965 0.15189 0.61168 0.0
O153 O 0.61473 0.15261 0.58519 0.0
Co154 Co 0.48681 0.63225 0.72118 0.0
O155 O 0.47515 0.64873 0.71871 0.0
O156 O 0.50527 0.65756 0.69891 0.0
C157 C 0.4769 0.62137 0.78223 0.0
O158 O 0.50422 0.61976 0.72013 0.0
Co159 Co 0.4616 0.58684 0.73401 0.0
O160 O 0.48746 0.58906 0.74453 0.0
C161 C 0.46009 0.6047 0.65936 0.0
C162 C 0.4916 0.66213 0.70352 0.0
C163 C 0.50338 0.6039 0.73278 0.0
O164 O 0.47558 0.62109 0.66838 0.0
O165 O 0.4514 0.59021 0.68295 0.0
O166 O 0.49265 0.63839 0.77672 0.0
O167 O 0.4673 0.61253 0.75141 0.0
C168 C 0.56305 0.13849 0.15532 0.0
C169 C 0.54905 0.14365 0.14364 0.0
C170 C 0.57049 0.14227 0.19295 0.0
C171 C 0.55948 0.15009 0.29201 0.0
H172 H 0.61507 0.1692 0.30817 0.0
C173 C 0.59132 0.16226 0.44538 0.0
C174 C 0.6038 0.15463 0.45295 0.0
C175 C 0.58657 0.16433 0.4074 0.0
C176 C 0.59952 0.16377 0.30412 0.0
H177 H 0.53175 0.15666 0.16275 0.0
H178 H 0.54482 0.1632 0.22902 0.0
H179 H 0.60241 0.16622 0.24229 0.0
H180 H 0.62194 0.14416 0.42671 0.0
H181 H 0.61324 0.14731 0.35996 0.0
H182 H 0.55641 0.14709 0.35361 0.0
C183 C 0.54994 0.1562 0.20872 0.0
C184 C 0.59227 0.1621 0.26645 0.0
C185 C 0.54247 0.15246 0.17082 0.0
C186 C 0.61228 0.15007 0.42168 0.0
C187 C 0.60733 0.15195 0.38349 0.0
C188 C 0.56671 0.15171 0.32965 0.0
C189 C 0.56416 0.15128 0.21998 0.0
C190 C 0.57212 0.15493 0.26 0.0
C191 C 0.594 0.15861 0.37605 0.0
C192 C 0.58676 0.15832 0.33612 0.0
H193 H 0.56838 0.13154 0.13538 0.0
H194 H 0.58108 0.13788 0.201 0.0
H195 H 0.54387 0.1443 0.28792 0.0
H196 H 0.58486 0.16627 0.46894 0.0
H197 H 0.57669 0.17 0.40263 0.0
C198 C 0.39171 0.54234 0.33722 0.0
C199 C 0.40656 0.55141 0.30904 0.0
C200 C 0.3951 0.5493 0.37551 0.0
C201 C 0.42837 0.59282 0.43524 0.0
H202 H 0.41422 0.55469 0.5182 0.0
C203 C 0.4637 0.61236 0.58799 0.0
C204 C 0.45189 0.60183 0.61976 0.0
C205 C 0.45619 0.60769 0.5502 0.0
C206 C 0.41797 0.56556 0.4955 0.0
H207 H 0.4366 0.57503 0.2992 0.0
H208 H 0.44242 0.58682 0.36544 0.0
H209 H 0.40407 0.54328 0.45203 0.0
H210 H 0.42255 0.57933 0.63721 0.0
H211 H 0.40942 0.57155 0.5717 0.0
H212 H 0.44266 0.6151 0.47869 0.0
C213 C 0.42808 0.57457 0.35798 0.0
C214 C 0.41213 0.55899 0.45756 0.0
C215 C 0.42475 0.56764 0.31997 0.0
C216 C 0.43216 0.58743 0.61324 0.0
C217 C 0.42463 0.58291 0.57569 0.0
C218 C 0.4342 0.5994 0.47323 0.0
C219 C 0.41335 0.56551 0.38621 0.0
C220 C 0.41757 0.57253 0.42693 0.0
C221 C 0.43669 0.59255 0.54366 0.0
C222 C 0.42932 0.58583 0.50369 0.0
H223 H 0.37751 0.52988 0.32978 0.0
H224 H 0.38343 0.54208 0.39669 0.0
H225 H 0.43253 0.60361 0.41224 0.0
H226 H 0.47896 0.62355 0.59217 0.0
H227 H 0.4659 0.61532 0.52608 0.0
C228 C 0.85779 0.46574 0.75489 0.0
C229 C 0.85215 0.45246 0.78603 0.0
C230 C 0.856 0.45894 0.71669 0.0
C231 C 0.85408 0.41718 0.66351 0.0
H232 H 0.84385 0.44106 0.57474 0.0
C233 C 0.85376 0.39217 0.50446 0.0
C234 C 0.86376 0.40761 0.47775 0.0
C235 C 0.85018 0.39617 0.5423 0.0
C236 C 0.84678 0.43428 0.5993 0.0
H237 H 0.83867 0.42161 0.80179 0.0
H238 H 0.83496 0.40973 0.73537 0.0
H239 H 0.84042 0.45092 0.64015 0.0
H240 H 0.87848 0.43941 0.47043 0.0
H241 H 0.87241 0.44623 0.53593 0.0
H242 H 0.86069 0.40075 0.6226 0.0
C243 C 0.84145 0.42541 0.74026 0.0
C244 C 0.84485 0.43996 0.63673 0.0
C245 C 0.84348 0.43221 0.77829 0.0
C246 C 0.8705 0.42709 0.48997 0.0
C247 C 0.86691 0.43103 0.52752 0.0
C248 C 0.85593 0.41146 0.62609 0.0
C249 C 0.84831 0.43873 0.70908 0.0
C250 C 0.84877 0.43169 0.66927 0.0
C251 C 0.8565 0.41564 0.55394 0.0
C252 C 0.85265 0.42021 0.59361 0.0
H253 H 0.86455 0.48143 0.76012 0.0
H254 H 0.86153 0.46962 0.69334 0.0
H255 H 0.85754 0.41073 0.68789 0.0
H256 H 0.84835 0.37701 0.49594 0.0
H257 H 0.84212 0.38401 0.56217 0.0
C258 C 0.44363 0.86714 0.65598 0.0
C259 C 0.45734 0.86168 0.64391 0.0
C260 C 0.436 0.86305 0.69348 0.0
C261 C 0.44567 0.85292 0.79205 0.0
H262 H 0.39012 0.83449 0.80656 0.0
C263 C 0.41306 0.83973 0.94461 0.0
C264 C 0.40116 0.84802 0.95226 0.0
C265 C 0.41757 0.83742 0.90655 0.0
C266 C 0.40566 0.83969 0.80299 0.0
H267 H 0.47408 0.84794 0.66226 0.0
H268 H 0.46069 0.84082 0.72825 0.0
H269 H 0.40345 0.83866 0.741 0.0
H270 H 0.38361 0.85921 0.92621 0.0
H271 H 0.39191 0.85567 0.85942 0.0
H272 H 0.44808 0.85454 0.85383 0.0
C273 C 0.45593 0.84831 0.70839 0.0
C274 C 0.4133 0.84208 0.76549 0.0
C275 C 0.4636 0.85241 0.67066 0.0
C276 C 0.39282 0.85279 0.92108 0.0
C277 C 0.39754 0.8507 0.88286 0.0
C278 C 0.43806 0.85059 0.82952 0.0
C279 C 0.44185 0.85338 0.71995 0.0
C280 C 0.43345 0.84906 0.75965 0.0
C281 C 0.4105 0.84358 0.87528 0.0
C282 C 0.41802 0.84423 0.83544 0.0
H283 H 0.43861 0.8745 0.63637 0.0
H284 H 0.42556 0.86758 0.70181 0.0
H285 H 0.46129 0.85851 0.78847 0.0
H286 H 0.41939 0.83557 0.96815 0.0
H287 H 0.42713 0.83137 0.90168 0.0
C288 C 0.56329 0.42581 0.10612 0.0
C289 C 0.54789 0.40707 0.11698 0.0
C290 C 0.57024 0.42956 0.06809 0.0
C291 C 0.55583 0.4132 0.96822 0.0
H292 H 0.61184 0.44518 0.94836 0.0
C293 C 0.58524 0.43254 0.81276 0.0
C294 C 0.59978 0.4522 0.80573 0.0
C295 C 0.58031 0.42544 0.85058 0.0
C296 C 0.59616 0.43635 0.95344 0.0
H297 H 0.52774 0.37757 0.09603 0.0
H298 H 0.5399 0.38426 0.02913 0.0
H299 H 0.6001 0.43526 0.01471 0.0
H300 H 0.62117 0.47961 0.83279 0.0
H301 H 0.61219 0.46735 0.89924 0.0
H302 H 0.55176 0.41471 0.90729 0.0
C303 C 0.5465 0.396 0.05037 0.0
C304 C 0.58944 0.43063 -0.0086 0.0
C305 C 0.53956 0.39217 0.08866 0.0
C306 C 0.6099 0.4644 0.83735 0.0
C307 C 0.60479 0.45733 0.87538 0.0
C308 C 0.56253 0.41898 0.93031 0.0
C309 C 0.56198 0.41473 0.03981 0.0
C310 C 0.56919 0.41922 -0.00077 0.0
C311 C 0.58964 0.43787 0.88238 0.0
C312 C 0.58276 0.43082 0.9225 0.0
H313 H 0.57009 0.4377 0.12699 0.0
H314 H 0.58191 0.44425 0.06071 0.0
H315 H 0.54014 0.40464 0.9734 0.0
H316 H 0.57743 0.42263 0.78896 0.0
H317 H 0.56896 0.41024 0.85487 0.0
C318 C 0.15747 0.57326 0.28024 0.0
C319 C 0.15138 0.55337 0.28738 0.0
C320 C 0.15949 0.58027 0.2424 0.0
C321 C 0.16211 0.56839 0.1392 0.0
H322 H 0.13971 0.60199 0.12134 0.0
C323 C 0.13922 0.57975 0.98804 0.0
C324 C 0.14359 0.59879 0.97696 0.0
C325 C 0.14225 0.57583 0.02601 0.0
C326 C 0.1463 0.59289 0.12593 0.0
H327 H 0.14354 0.5254 0.26051 0.0
H328 H 0.1466 0.53754 0.19394 0.0
H329 H 0.1417 0.59185 0.18719 0.0
H330 H 0.15436 0.62863 -0.00242 0.0
H331 H 0.15958 0.62165 0.06449 0.0
H332 H 0.16621 0.56905 0.07767 0.0
C333 C 0.15006 0.54779 0.21775 0.0
C334 C 0.14747 0.58706 0.16366 0.0
C335 C 0.14824 0.54079 0.25582 0.0
C336 C 0.15079 0.61379 0.00514 0.0
C337 C 0.15378 0.60981 0.04341 0.0
C338 C 0.16088 0.57417 0.10144 0.0
C339 C 0.15527 0.56751 0.21069 0.0
C340 C 0.15518 0.57456 0.17071 0.0
C341 C 0.14971 0.5908 0.05405 0.0
C342 C 0.15269 0.58623 0.09437 0.0
H343 H 0.1604 0.58343 0.304 0.0
H344 H 0.16405 0.59565 0.23801 0.0
H345 H 0.16843 0.55903 0.1437 0.0
H346 H 0.1335 0.56774 0.96732 0.0
H347 H 0.13855 0.56094 0.03352 0.0
C348 C 0.49451 0.30997 0.17488 0.0
C349 C 0.51308 0.32634 0.18301 0.0
C350 C 0.4929 0.29252 0.16039 0.0
C351 C 0.52078 0.2743 0.10631 0.0
H352 H 0.48644 0.22374 0.15447 0.0
C353 C 0.53022 0.20769 0.07656 0.0
C354 C 0.51351 0.18886 0.07385 0.0
C355 C 0.52859 0.22379 0.08865 0.0
C356 C 0.49587 0.23767 0.14024 0.0
H357 H 0.54448 0.33727 0.18225 0.0
H358 H 0.54168 0.30703 0.15652 0.0
H359 H 0.48617 0.25316 0.17735 0.0
H360 H 0.48191 0.17211 0.08189 0.0
H361 H 0.47895 0.20042 0.10236 0.0
H362 H 0.53045 0.25907 0.06904 0.0
C363 C 0.52838 0.30765 0.16135 0.0
C364 C 0.49573 0.25452 0.15343 0.0
C365 C 0.52996 0.32494 0.17628 0.0
C366 C 0.49507 0.18645 0.08376 0.0
C367 C 0.4934 0.20266 0.09565 0.0
C368 C 0.52079 0.25751 0.0929 0.0
C369 C 0.50986 0.29127 0.15319 0.0
C370 C 0.5085 0.27306 0.13712 0.0
C371 C 0.51015 0.22158 0.09801 0.0
C372 C 0.50869 0.23904 0.11025 0.0
H373 H 0.48123 0.31061 0.17987 0.0
H374 H 0.47845 0.28012 0.15424 0.0
H375 H 0.53051 0.28835 0.0927 0.0
H376 H 0.54468 0.21003 0.06951 0.0
H377 H 0.54188 0.23799 0.09101 0.0
C378 C 0.32384 0.52864 0.24172 0.0
C379 C 0.32648 0.51225 0.23903 0.0
C380 C 0.30599 0.52648 0.25417 0.0
C381 C 0.26021 0.49343 0.30739 0.0
H382 H 0.2432 0.52721 0.25971 0.0
C383 C 0.1874 0.49366 0.34498 0.0
C384 C 0.19053 0.51255 0.35359 0.0
C385 C 0.20271 0.49133 0.32995 0.0
C386 C 0.24776 0.51768 0.27326 0.0
H387 H 0.31246 0.48068 0.24763 0.0
H388 H 0.28091 0.4768 0.26885 0.0
H389 H 0.27198 0.52694 0.23441 0.0
H390 H 0.2121 0.54376 0.35337 0.0
H391 H 0.23853 0.53971 0.32654 0.0
H392 H 0.23569 0.48419 0.3462 0.0
C393 C 0.29282 0.49139 0.2617 0.0
C394 C 0.2643 0.51757 0.25894 0.0
C395 C 0.31084 0.49359 0.24941 0.0
C396 C 0.2092 0.52901 0.34705 0.0
C397 C 0.22433 0.52671 0.33151 0.0
C398 C 0.24343 0.49338 0.32149 0.0
C399 C 0.29015 0.50783 0.26392 0.0
C400 C 0.27112 0.50592 0.27652 0.0
C401 C 0.22123 0.50789 0.32261 0.0
C402 C 0.23741 0.50592 0.30517 0.0
H403 H 0.33565 0.54326 0.2344 0.0
H404 H 0.30471 0.53957 0.25651 0.0
H405 H 0.26506 0.48432 0.32171 0.0
H406 H 0.17316 0.4807 0.34986 0.0
H407 H 0.19997 0.47667 0.32328 0.0
C408 C 0.69789 0.18595 0.51127 0.0
C409 C 0.68248 0.18953 0.52022 0.0
C410 C 0.71566 0.20105 0.49599 0.0
C411 C 0.73508 0.24625 0.43931 0.0
H412 H 0.78545 0.26377 0.48907 0.0
C413 C 0.80006 0.32306 0.41059 0.0
C414 C 0.81914 0.32589 0.4081 0.0
C415 C 0.78436 0.305 0.4224 0.0
C416 C 0.77157 0.25885 0.47438 0.0
H417 H 0.67362 0.21167 0.52022 0.0
H418 H 0.70425 0.23766 0.49302 0.0
H419 H 0.75611 0.23411 0.51274 0.0
H420 H 0.83677 0.312 0.41644 0.0
H421 H 0.80912 0.28014 0.43665 0.0
H422 H 0.7502 0.27077 0.40105 0.0
C423 C 0.70269 0.22329 0.49792 0.0
C424 C 0.75481 0.2419 0.48799 0.0
C425 C 0.68518 0.20841 0.5137 0.0
C426 C 0.82222 0.31025 0.4181 0.0
C427 C 0.80639 0.29204 0.4298 0.0
C428 C 0.75178 0.26299 0.42551 0.0
C429 C 0.71807 0.21978 0.48873 0.0
C430 C 0.73633 0.23582 0.47125 0.0
C431 C 0.78723 0.28916 0.43175 0.0
C432 C 0.77013 0.2699 0.44363 0.0
H433 H 0.69622 0.17155 0.51609 0.0
H434 H 0.72733 0.19801 0.48912 0.0
H435 H 0.72105 0.24167 0.42549 0.0
H436 H 0.7972 0.33485 0.40349 0.0
H437 H 0.76993 0.30353 0.42452 0.0
C438 C 0.51391 0.82128 0.58628 0.0
C439 C 0.49505 0.81866 0.58006 0.0
C440 C 0.51611 0.80599 0.60197 0.0
C441 C 0.49064 0.76192 0.66269 0.0
H442 H 0.52068 0.74232 0.60862 0.0
C443 C 0.47838 0.68483 0.69309 0.0
C444 C 0.49435 0.68151 0.69173 0.0
C445 C 0.48064 0.70294 0.68184 0.0
C446 C 0.51253 0.74781 0.62453 0.0
H447 H 0.46378 0.79811 0.5858 0.0
H448 H 0.46765 0.77174 0.61376 0.0
H449 H 0.52114 0.772 0.58509 0.0
H450 H 0.5253 0.69466 0.67767 0.0
H451 H 0.52939 0.72657 0.65863 0.0
H452 H 0.482 0.73797 0.70218 0.0
C453 C 0.48071 0.78551 0.60635 0.0
C454 C 0.51278 0.76478 0.61097 0.0
C455 C 0.47851 0.80058 0.59012 0.0
C456 C 0.5127 0.69677 0.67894 0.0
C457 C 0.51501 0.71502 0.66787 0.0
C458 C 0.49057 0.74515 0.67649 0.0
C459 C 0.4995 0.78802 0.61242 0.0
C460 C 0.50141 0.77167 0.62936 0.0
C461 C 0.49899 0.71834 0.66924 0.0
C462 C 0.50104 0.73752 0.65697 0.0
H463 H 0.52692 0.83505 0.57872 0.0
H464 H 0.53076 0.80828 0.60642 0.0
H465 H 0.48201 0.76712 0.67779 0.0
H466 H 0.464 0.67334 0.70251 0.0
H467 H 0.46784 0.70473 0.68244 0.0
C468 C 0.69598 0.51225 0.75065 0.0
C469 C 0.6808 0.49357 0.73901 0.0
C470 C 0.71417 0.51485 0.76283 0.0
C471 C 0.74425 0.49031 0.75854 0.0
H472 H 0.77136 0.52292 0.84773 0.0
C473 C 0.79859 0.47908 0.84918 0.0
C474 C 0.81735 0.49546 0.8555 0.0
C475 C 0.78359 0.48142 0.83322 0.0
C476 C 0.76406 0.51399 0.82246 0.0
H477 H 0.67266 0.46295 0.73174 0.0
H478 H 0.70393 0.46731 0.75376 0.0
H479 H 0.74168 0.52203 0.82288 0.0
H480 H 0.83497 0.52726 0.85102 0.0
H481 H 0.80828 0.53141 0.82381 0.0
H482 H 0.76607 0.48159 0.75929 0.0
C483 C 0.70214 0.48012 0.75254 0.0
C484 C 0.7471 0.51349 0.80816 0.0
C485 C 0.6841 0.47756 0.74018 0.0
C486 C 0.82066 0.51437 0.84634 0.0
C487 C 0.80544 0.51675 0.83092 0.0
C488 C 0.76098 0.49065 0.77309 0.0
C489 C 0.71749 0.49881 0.76373 0.0
C490 C 0.7367 0.50122 0.7766 0.0
C491 C 0.78687 0.50023 0.8237 0.0
C492 C 0.77078 0.50212 0.80568 0.0
H493 H 0.69389 0.52488 0.74999 0.0
H494 H 0.72568 0.52947 0.771 0.0
H495 H 0.73701 0.48116 0.7335 0.0
H496 H 0.79553 0.46431 0.85586 0.0
H497 H 0.76934 0.46847 0.82831 0.0
C498 C 0.18424 0.69672 0.91883 0.0
C499 C 0.18698 0.68042 0.9144 0.0
C500 C 0.19917 0.71435 0.93493 0.0
C501 C 0.24122 0.7332 0.00044 0.0
H502 H 0.264 0.7822 0.94268 0.0
C503 C 0.31897 0.79579 0.03224 0.0
C504 C 0.32358 0.81549 0.02863 0.0
C505 C 0.30055 0.78043 0.0212 0.0
C506 C 0.25758 0.76876 0.95961 0.0
H507 H 0.20729 0.66969 0.92373 0.0
H508 H 0.23298 0.70015 0.95257 0.0
H509 H 0.23442 0.75315 0.91812 0.0
H510 H 0.31236 0.83452 0.01089 0.0
H511 H 0.27987 0.80753 -0.00802 0.0
H512 H 0.26418 0.7485 0.04185 0.0
C513 C 0.21943 0.69939 0.94336 0.0
C514 C 0.24068 0.75214 0.94546 0.0
C515 C 0.20476 0.682 0.92665 0.0
C516 C 0.30924 0.81948 0.01395 0.0
C517 C 0.29067 0.80403 0.00297 0.0
C518 C 0.2579 0.74979 0.01479 0.0
C519 C 0.21681 0.71573 0.94765 0.0
C520 C 0.23274 0.73407 0.96518 0.0
C521 C 0.28611 0.78429 0.00648 0.0
C522 C 0.26672 0.76761 -0.00609 0.0
H523 H 0.17069 0.69591 0.90951 0.0
H524 H 0.19683 0.72677 0.93795 0.0
H525 H 0.23518 0.7195 0.01649 0.0
H526 H 0.32969 0.79217 0.04321 0.0
H527 H 0.29779 0.76549 0.0235 0.0
C528 C 0.59743 0.15312 0.65584 0.0
C529 C 0.61421 0.15109 0.65455 0.0
C530 C 0.58831 0.15227 0.69095 0.0
C531 C 0.5818 0.1338 0.7904 0.0
H532 H 0.56455 0.17161 0.80924 0.0
C533 C 0.55426 0.1428 0.93916 0.0
C534 C 0.53846 0.14642 0.94076 0.0
C535 C 0.56256 0.14234 0.90378 0.0
C536 C 0.56899 0.16076 0.80415 0.0
H537 H 0.63457 0.14645 0.68911 0.0
H538 H 0.61845 0.14493 0.75128 0.0
H539 H 0.58215 0.1736 0.74957 0.0
H540 H 0.51871 0.15205 0.90641 0.0
H541 H 0.53328 0.15119 0.84388 0.0
H542 H 0.56861 0.12095 0.84499 0.0
C543 C 0.61241 0.14713 0.72473 0.0
C544 C 0.57917 0.16196 0.7701 0.0
C545 C 0.62168 0.14809 0.68931 0.0
C546 C 0.53088 0.14924 0.90601 0.0
C547 C 0.53928 0.14885 0.87034 0.0
C548 C 0.57157 0.13257 0.82445 0.0
C549 C 0.59568 0.14933 0.72581 0.0
C550 C 0.58567 0.14849 0.76284 0.0
C551 C 0.55531 0.14551 0.86896 0.0
C552 C 0.5651 0.14607 0.83174 0.0
H553 H 0.59125 0.15543 0.62959 0.0
H554 H 0.57528 0.15369 0.69071 0.0
H555 H 0.58635 0.12304 0.7853 0.0
H556 H 0.56053 0.14062 0.96539 0.0
H557 H 0.57506 0.14005 0.90385 0.0
C558 C 0.47771 0.62253 0.85528 0.0
C559 C 0.47011 0.612 0.82061 0.0
C560 C 0.4696 0.61363 0.89107 0.0
C561 C 0.43799 0.56495 0.93769 0.0
H562 H 0.42589 0.59501 0.01067 0.0
C563 C 0.38708 0.52989 0.07164 0.0
C564 C 0.39432 0.54043 0.10642 0.0
C565 C 0.39641 0.53829 0.0363 0.0
C566 C 0.4293 0.58647 -0.00932 0.0
H567 H 0.44861 0.58371 0.7963 0.0
H568 H 0.43468 0.5684 0.85805 0.0
H569 H 0.4438 0.61067 0.95126 0.0
H570 H 0.41679 0.56804 0.1315 0.0
H571 H 0.43283 0.58249 0.07047 0.0
H572 H 0.42329 0.54069 0.97709 0.0
C573 C 0.44688 0.58341 0.85796 0.0
C574 C 0.43967 0.59548 0.9568 0.0
C575 C 0.45483 0.59228 0.82244 0.0
C576 C 0.41084 0.55949 0.10522 0.0
C577 C 0.41999 0.56787 0.07017 0.0
C578 C 0.42757 0.55592 0.97157 0.0
C579 C 0.45393 0.59403 0.89266 0.0
C580 C 0.44411 0.58482 0.92988 0.0
C581 C 0.41294 0.55741 0.03532 0.0
C582 C 0.42314 0.5666 -0.00157 0.0
H583 H 0.48947 0.63774 0.85469 0.0
H584 H 0.47546 0.62213 0.91744 0.0
H585 H 0.44136 0.55639 0.91766 0.0
H586 H 0.37439 0.51517 0.07179 0.0
H587 H 0.39062 0.52993 0.00975 0.0
C588 C 0.85864 0.4492 0.98924 0.0
C589 C 0.85796 0.46677 0.98823 0.0
C590 C 0.85969 0.44105 0.02441 0.0
C591 C 0.84838 0.43996 0.1279 0.0
H592 H 0.88061 0.41551 0.13781 0.0
C593 C 0.8595 0.41195 0.27381 0.0
C594 C 0.85855 0.39357 0.27484 0.0
C595 C 0.85988 0.42082 0.23863 0.0
C596 C 0.87137 0.42206 0.13529 0.0
H597 H 0.85811 0.48976 0.02335 0.0
H598 H 0.86007 0.47547 0.08547 0.0
H599 H 0.88148 0.43244 0.07771 0.0
H600 H 0.85747 0.37014 0.23967 0.0
H601 H 0.85809 0.38578 0.17742 0.0
H602 H 0.83827 0.4296 0.18545 0.0
C603 C 0.85961 0.46796 0.05876 0.0
C604 C 0.8719 0.43183 0.10096 0.0
C605 C 0.85858 0.47619 0.0233 0.0
C606 C 0.85819 0.3843 0.23971 0.0
C607 C 0.85863 0.39328 0.2042 0.0
C608 C 0.84787 0.43024 0.16221 0.0
C609 C 0.8601 0.45024 0.05961 0.0
C610 C 0.86037 0.44084 0.09685 0.0
C611 C 0.8593 0.41158 0.20342 0.0
C612 C 0.85937 0.42121 0.1663 0.0
H613 H 0.85809 0.44148 0.96277 0.0
H614 H 0.85969 0.42724 0.02398 0.0
H615 H 0.83904 0.44641 0.1254 0.0
H616 H 0.85986 0.41956 0.30032 0.0
H617 H 0.86077 0.43506 0.23905 0.0
C618 C 0.44783 0.8545 0.44014 0.0
C619 C 0.46633 0.85581 0.44157 0.0
C620 C 0.43961 0.8552 0.40485 0.0
C621 C 0.45176 0.87208 0.30427 0.0
H622 H 0.39609 0.83611 0.28732 0.0
C623 C 0.41428 0.86166 0.15568 0.0
C624 C 0.39519 0.85892 0.1544 0.0
C625 C 0.42334 0.86271 0.19105 0.0
C626 C 0.41157 0.84646 0.29186 0.0
H627 H 0.49078 0.85891 0.40707 0.0
H628 H 0.47626 0.86013 0.34462 0.0
H629 H 0.41147 0.83411 0.34725 0.0
H630 H 0.37078 0.85568 0.18921 0.0
H631 H 0.38668 0.85749 0.2516 0.0
H632 H 0.45184 0.88438 0.24872 0.0
C633 C 0.46823 0.85864 0.37117 0.0
C634 C 0.42042 0.84525 0.32609 0.0
C635 C 0.47648 0.85783 0.40676 0.0
C636 C 0.38549 0.85777 0.18936 0.0
C637 C 0.39455 0.85869 0.22497 0.0
C638 C 0.4429 0.8733 0.26998 0.0
C639 C 0.44965 0.85726 0.36995 0.0
C640 C 0.44059 0.85807 0.33272 0.0
C641 C 0.41349 0.86095 0.22611 0.0
C642 C 0.42271 0.86048 0.2634 0.0
H643 H 0.4396 0.85294 0.46643 0.0
H644 H 0.42544 0.8544 0.40499 0.0
H645 H 0.46726 0.88235 0.30883 0.0
H646 H 0.4222 0.86263 0.12926 0.0
H647 H 0.43782 0.86423 0.19086 0.0
C648 C 0.59367 0.4577 0.59978 0.0
C649 C 0.61418 0.46819 0.60407 0.0
C650 C 0.5851 0.44886 0.56458 0.0
C651 C 0.59542 0.44695 0.45992 0.0
H652 H 0.54601 0.39754 0.46606 0.0
C653 C 0.54855 0.41275 0.32418 0.0
C654 C 0.53803 0.39219 0.32009 0.0
C655 C 0.55768 0.42142 0.35914 0.0
C656 C 0.55992 0.41117 0.46368 0.0
H657 H 0.64193 0.47811 0.57472 0.0
H658 H 0.62696 0.46197 0.51303 0.0
H659 H 0.56315 0.41388 0.52525 0.0
H660 H 0.52847 0.36446 0.34949 0.0
H661 H 0.54509 0.3796 0.41067 0.0
H662 H 0.59267 0.44373 0.39832 0.0
C663 C 0.61744 0.46095 0.53674 0.0
C664 C 0.56963 0.42077 0.49775 0.0
C665 C 0.62606 0.47021 0.57201 0.0
C666 C 0.53639 0.38037 0.35205 0.0
C667 C 0.54591 0.38909 0.38704 0.0
C668 C 0.58587 0.43718 0.42583 0.0
C669 C 0.5968 0.44983 0.53286 0.0
C670 C 0.58729 0.43902 0.49637 0.0
C671 C 0.55694 0.40977 0.39079 0.0
C672 C 0.56776 0.41937 0.42723 0.0
H673 H 0.58411 0.45609 0.62382 0.0
H674 H 0.56921 0.44109 0.56245 0.0
H675 H 0.60894 0.46096 0.45757 0.0
H676 H 0.54991 0.42227 0.30023 0.0
H677 H 0.56541 0.43734 0.36118 0.0
C678 C 0.15198 0.53162 0.52372 0.0
C679 C 0.15033 0.53992 0.48882 0.0
C680 C 0.15143 0.53997 0.5594 0.0
C681 C 0.13648 0.5736 0.60411 0.0
H682 H 0.17531 0.58164 0.68223 0.0
C683 C 0.15079 0.62288 0.74002 0.0
C684 C 0.15251 0.61477 0.77513 0.0
C685 C 0.15046 0.61386 0.70462 0.0
C686 C 0.16428 0.57938 0.66079 0.0
H687 H 0.14652 0.56327 0.46396 0.0
H688 H 0.14566 0.57765 0.52547 0.0
H689 H 0.17362 0.56414 0.62251 0.0
H690 H 0.15546 0.59106 0.80072 0.0
H691 H 0.15482 0.5755 0.73961 0.0
H692 H 0.12723 0.58896 0.64236 0.0
C693 C 0.14714 0.56465 0.52565 0.0
C694 C 0.16325 0.56925 0.6267 0.0
C695 C 0.14777 0.55642 0.49028 0.0
C696 C 0.1541 0.59771 0.77419 0.0
C697 C 0.15389 0.58882 0.73909 0.0
C698 C 0.13754 0.58376 0.63818 0.0
C699 C 0.14909 0.55665 0.56064 0.0
C700 C 0.14938 0.5663 0.59792 0.0
C701 C 0.15203 0.59673 0.7039 0.0
C702 C 0.15144 0.58675 0.6669 0.0
H703 H 0.15394 0.5189 0.52344 0.0
H704 H 0.15282 0.53339 0.58598 0.0
H705 H 0.12547 0.57136 0.58265 0.0
H706 H 0.14952 0.63601 0.73994 0.0
H707 H 0.14913 0.62034 0.67785 0.0
C708 C 0.46854 0.07723 0.049 0.0
C709 C 0.48276 0.08259 0.01964 0.0
C710 C 0.45367 0.05754 0.05327 0.0
C711 C 0.43945 0.01469 0.07437 0.0
H712 H 0.41495 0.97758 -0.01021 0.0
C713 C 0.42562 0.936 0.07987 0.0
C714 C 0.40855 0.9205 0.06307 0.0
C715 C 0.42966 0.95541 0.07691 0.0
C716 C 0.42137 0.98773 0.01387 0.0
H717 H 0.49149 0.07202 0.9696 0.0
H718 H 0.46554 0.03786 0.97671 0.0
H719 H 0.4299 0.01292 0.97744 0.0
H720 H 0.38207 0.9133 0.03074 0.0
H721 H 0.38933 0.94746 0.02526 0.0
H722 H 0.43171 0.98962 0.11045 0.0
C723 C 0.46586 0.04871 -0.00337 0.0
C724 C 0.43004 0.00796 0.00673 0.0
C725 C 0.48083 0.06827 -0.00729 0.0
C726 C 0.39535 0.92488 0.04401 0.0
C727 C 0.39952 0.94443 0.04073 0.0
C728 C 0.43091 0.99451 0.08143 0.0
C729 C 0.4526 0.04297 0.02787 0.0
C730 C 0.43976 0.02168 0.03665 0.0
C731 C 0.41682 0.95991 0.05691 0.0
C732 C 0.42241 0.98085 0.05098 0.0
H733 H 0.46966 0.08795 0.0702 0.0
H734 H 0.44355 0.05356 0.07743 0.0
H735 H 0.44695 0.02485 0.098 0.0
H736 H 0.4361 0.93321 0.09486 0.0
H737 H 0.44327 0.96701 0.08917 0.0
C738 C 0.4683 0.39358 0.21449 0.0
C739 C 0.48194 0.40046 0.24517 0.0
C740 C 0.45412 0.3994 0.21171 0.0
C741 C 0.45205 0.44311 0.23811 0.0
H742 H 0.39959 0.41661 0.19379 0.0
C743 C 0.39387 0.46977 0.21024 0.0
C744 C 0.40584 0.48639 0.18719 0.0
C745 C 0.39892 0.45513 0.21602 0.0
C746 C 0.41418 0.42407 0.2064 0.0
H747 H 0.48995 0.41666 0.29936 0.0
H748 H 0.46495 0.42628 0.29519 0.0
H749 H 0.41555 0.3974 0.21123 0.0
H750 H 0.43123 0.49954 0.14893 0.0
H751 H 0.44 0.47424 0.15942 0.0
H752 H 0.4511 0.46973 0.23234 0.0
C753 C 0.46555 0.41698 0.27259 0.0
C754 C 0.42331 0.41315 0.21625 0.0
C755 C 0.47982 0.41143 0.27507 0.0
C756 C 0.42188 0.48717 0.16744 0.0
C757 C 0.4269 0.47265 0.17329 0.0
C758 C 0.44311 0.45392 0.22791 0.0
C759 C 0.45332 0.41202 0.23979 0.0
C760 C 0.44242 0.42264 0.23206 0.0
C761 C 0.41595 0.45695 0.1988 0.0
C762 C 0.42425 0.44461 0.21151 0.0
H763 H 0.46962 0.38511 0.19103 0.0
H764 H 0.4449 0.39533 0.18609 0.0
H765 H 0.4669 0.45098 0.2495 0.0
H766 H 0.38136 0.46868 0.22572 0.0
H767 H 0.39029 0.44314 0.23589 0.0
C768 C 0.07998 0.47208 0.38119 0.0
C769 C 0.08621 0.48675 0.40993 0.0
C770 C 0.06006 0.45764 0.3781 0.0
C771 C 0.01326 0.45475 0.39819 0.0
H772 H 0.98915 0.40048 0.36334 0.0
C773 C 0.92929 0.39366 0.37779 0.0
C774 C 0.92403 0.40403 0.35158 0.0
C775 C 0.94914 0.39931 0.38323 0.0
C776 C 0.99578 0.41559 0.37326 0.0
H777 H 0.07705 0.49651 0.46055 0.0
H778 H 0.04256 0.47112 0.45585 0.0
H779 H 0.02432 0.41855 0.38105 0.0
H780 H 0.93516 0.42679 0.30732 0.0
H781 H 0.96955 0.43662 0.31712 0.0
H782 H 0.98513 0.45212 0.38963 0.0
C783 C 0.05283 0.47111 0.43489 0.0
C784 C 0.01582 0.42592 0.38323 0.0
C785 C 0.07258 0.48563 0.43763 0.0
C786 C 0.93873 0.41874 0.32825 0.0
C787 C 0.95842 0.42434 0.33368 0.0
C788 C 0.9935 0.44459 0.38787 0.0
C789 C 0.04617 0.45758 0.40396 0.0
C790 C 0.02475 0.44566 0.39572 0.0
C791 C 0.96385 0.41531 0.36242 0.0
C792 C 0.98462 0.42504 0.37491 0.0
H793 H 0.0902 0.47259 0.35947 0.0
H794 H 0.05539 0.44744 0.35393 0.0
H795 H 0.01969 0.47001 0.40697 0.0
H796 H 0.9183 0.38221 0.39611 0.0
H797 H 0.95305 0.3922 0.40565 0.0
C798 C 0.52152 0.93521 0.48506 0.0
C799 C 0.5208 0.92214 0.51374 0.0
C800 C 0.53533 0.95524 0.48731 0.0
C801 C 0.57902 0.99434 0.53911 0.0
H802 H 0.54987 0.02208 0.53084 0.0
C803 C 0.5818 0.07077 0.58886 0.0
C804 C 0.59859 0.08564 0.57008 0.0
C805 C 0.57585 0.05098 0.58302 0.0
C806 C 0.55824 0.01456 0.53327 0.0
H807 H 0.53517 0.91948 0.56523 0.0
H808 H 0.55914 0.95475 0.5697 0.0
H809 H 0.5339 0.98739 0.5144 0.0
H810 H 0.62323 0.09133 0.533 0.0
H811 H 0.61264 0.05642 0.52274 0.0
H812 H 0.60334 0.02192 0.55871 0.0
C813 C 0.54911 0.94943 0.54527 0.0
C814 C 0.54917 0.99472 0.52338 0.0
C815 C 0.53536 0.92924 0.54276 0.0
C816 C 0.61016 0.08024 0.54773 0.0
C817 C 0.60416 0.06028 0.5419 0.0
C818 C 0.58825 0.01445 0.54867 0.0
C819 C 0.54856 0.96274 0.51861 0.0
C820 C 0.55933 0.98428 0.52644 0.0
C821 C 0.58651 0.04551 0.5583 0.0
C822 C 0.57775 0.0246 0.54645 0.0
H823 H 0.51072 0.9301 0.46194 0.0
H824 H 0.53487 0.96507 0.46576 0.0
H825 H 0.5872 0.98666 0.54175 0.0
H826 H 0.57272 0.07437 0.60687 0.0
H827 H 0.56237 0.03987 0.59657 0.0
C828 C 0.59485 0.52451 0.65394 0.0
C829 C 0.60255 0.5201 0.68664 0.0
C830 C 0.58989 0.53929 0.65562 0.0
C831 C 0.59029 0.57817 0.7211 0.0
H832 H 0.54221 0.56399 0.66493 0.0
C833 C 0.52359 0.58965 0.7568 0.0
C834 C 0.52101 0.60178 0.73025 0.0
C835 C 0.53837 0.58495 0.75103 0.0
C836 C 0.55581 0.56828 0.6803 0.0
H837 H 0.61188 0.52801 0.74622 0.0
H838 H 0.60209 0.55293 0.75025 0.0
H839 H 0.55886 0.54544 0.65402 0.0
H840 H 0.53238 0.61923 0.67787 0.0
H841 H 0.55782 0.61027 0.66699 0.0
H842 H 0.58581 0.60002 0.74972 0.0
C843 C 0.60052 0.54567 0.72267 0.0
C844 C 0.56553 0.55776 0.6739 0.0
C845 C 0.60607 0.53129 0.72053 0.0
C846 C 0.53414 0.60996 0.69891 0.0
C847 C 0.54865 0.60487 0.69267 0.0
C848 C 0.58024 0.58843 0.7281 0.0
C849 C 0.59176 0.54946 0.69056 0.0
C850 C 0.5828 0.56232 0.69456 0.0
C851 C 0.55057 0.59203 0.7183 0.0
C852 C 0.56284 0.58337 0.70796 0.0
H853 H 0.59222 0.51617 0.62733 0.0
H854 H 0.58394 0.54221 0.62976 0.0
H855 H 0.60369 0.58243 0.7371 0.0
H856 H 0.51372 0.58322 0.78127 0.0
H857 H 0.53951 0.57484 0.77086 0.0
C858 C 0.07768 0.60973 0.87319 0.0
C859 C 0.08483 0.60212 0.84456 0.0
C860 C 0.05753 0.60327 0.87548 0.0
C861 C 0.01231 0.55783 0.85374 0.0
H862 H 0.9853 0.58498 0.88922 0.0
C863 C 0.92702 0.53331 0.87935 0.0
C864 C 0.92176 0.51637 0.90182 0.0
C865 C 0.94691 0.54728 0.87314 0.0
C866 C 0.99271 0.5773 0.87912 0.0
H867 H 0.07698 0.58375 0.79318 0.0
H868 H 0.04205 0.57291 0.79656 0.0
H869 H 0.02045 0.60407 0.87195 0.0
H870 H 0.93322 0.5019 0.93847 0.0
H871 H 0.96759 0.52609 0.92755 0.0
H872 H 0.985 0.53116 0.86147 0.0
C873 C 0.05182 0.58333 0.81801 0.0
C874 C 0.01276 0.58817 0.86939 0.0
C875 C 0.07183 0.58957 0.816 0.0
C876 C 0.9367 0.51454 0.92037 0.0
C877 C 0.95642 0.5284 0.91417 0.0
C878 C 0.99252 0.54708 0.86378 0.0
C879 C 0.04428 0.58923 0.84898 0.0
C880 C 0.02277 0.57848 0.85672 0.0
C881 C 0.96174 0.54447 0.88929 0.0
C882 C 0.98255 0.55661 0.87706 0.0
H883 H 0.08738 0.61946 0.89556 0.0
H884 H 0.05218 0.60811 0.89965 0.0
H885 H 0.01958 0.54984 0.84479 0.0
H886 H 0.91587 0.53522 0.86479 0.0
H887 H 0.95066 0.55959 0.85388 0.0
loop_
_geom_bond_atom_site_label_1
_geom_bond_atom_site_label_2
_geom_bond_distance
_geom_bond_site_symmetry_2
_ccdc_geom_bond_type
Co0 O1 2.216 . S
Co0 O2 2.091 . S
Co0 O4 2.004 . S
Co0 O10 2.021 . S
Co0 O12 2.152 . S
Co0 O13 2.244 . S
O1 Co0 2.216 . S
O1 C8 1.247 . S
O2 Co0 2.091 . S
O2 C8 1.261 . S
C3 O12 1.246 1_556 S
C3 O13 1.250 1_556 S
O4 Co0 2.004 . S
O4 C9 1.259 . S
Co5 O6 2.061 . S
Co5 O11 2.052 . S
Co5 O13 2.135 . S
O6 Co5 2.061 . S
O6 C9 1.235 . S
C7 O10 1.238 . S
C7 O11 1.241 . S
C8 O1 1.247 . S
C8 O2 1.261 . S
C9 O4 1.259 . S
C9 O6 1.235 . S
O10 Co0 2.021 . S
O10 C7 1.238 . S
O11 Co5 2.052 . S
O11 C7 1.241 . S
O12 Co0 2.152 . S
O12 C3 1.246 1_554 S
O13 Co0 2.244 . S
O13 C3 1.250 1_554 S
O13 Co5 2.135 . S
Co14 O15 2.216 . S
Co14 O16 2.091 . S
Co14 O18 2.004 . S
Co14 O24 2.021 . S
Co14 O26 2.137 . S
Co14 O27 2.244 . S
O15 Co14 2.216 . S
O15 C22 1.247 . S
O16 Co14 2.091 . S
O16 C22 1.261 . S
C17 O26 1.247 . S
C17 O27 1.272 . S
O18 Co14 2.004 . S
O18 C23 1.259 . S
Co19 O20 2.061 . S
Co19 O25 2.052 . S
Co19 O27 2.135 . S
O20 Co19 2.061 . S
O20 C23 1.235 . S
C21 O24 1.238 . S
C21 O25 1.241 . S
C22 O15 1.247 . S
C22 O16 1.261 . S
C23 O18 1.259 . S
C23 O20 1.235 . S
O24 Co14 2.021 . S
O24 C21 1.238 . S
O25 Co19 2.052 . S
O25 C21 1.241 . S
O26 Co14 2.137 . S
O26 C17 1.247 . S
O27 Co14 2.244 . S
O27 C17 1.272 . S
O27 Co19 2.135 . S
Co28 O29 2.216 . S
Co28 O30 2.091 . S
Co28 O32 2.004 . S
Co28 O38 2.021 . S
Co28 O40 2.137 . S
Co28 O41 2.244 . S
O29 Co28 2.216 . S
O29 C36 1.247 . S
O30 Co28 2.091 . S
O30 C36 1.261 . S
C31 O40 1.247 . S
C31 O41 1.272 . S
O32 Co28 2.004 . S
O32 C37 1.259 . S
Co33 O34 2.061 . S
Co33 O39 2.052 . S
Co33 O41 2.135 . S
O34 Co33 2.061 . S
O34 C37 1.235 . S
C35 O38 1.238 . S
C35 O39 1.241 . S
C36 O29 1.247 . S
C36 O30 1.261 . S
C37 O32 1.259 . S
C37 O34 1.235 . S
O38 Co28 2.021 . S
O38 C35 1.238 . S
O39 Co33 2.052 . S
O39 C35 1.241 . S
O40 Co28 2.137 . S
O40 C31 1.247 . S
O41 Co28 2.244 . S
O41 C31 1.272 . S
O41 Co33 2.135 . S
Co42 O43 2.216 . S
Co42 O44 2.091 . S
Co42 O46 2.004 . S
Co42 O52 2.021 . S
Co42 O54 2.137 . S
Co42 O55 2.244 . S
O43 Co42 2.216 . S
O43 C50 1.247 . S
O44 Co42 2.091 . S
O44 C50 1.261 . S
C45 O54 1.247 . S
C45 O55 1.272 . S
O46 Co42 2.004 . S
O46 C51 1.259 . S
Co47 O48 2.061 . S
Co47 O53 2.052 . S
Co47 O55 2.135 . S
O48 Co47 2.061 . S
O48 C51 1.235 . S
C49 O52 1.238 . S
C49 O53 1.241 . S
C50 O43 1.247 . S
C50 O44 1.261 . S
C51 O46 1.259 . S
C51 O48 1.235 . S
O52 Co42 2.021 . S
O52 C49 1.238 . S
O53 Co47 2.052 . S
O53 C49 1.241 . S
O54 Co42 2.137 . S
O54 C45 1.247 . S
O55 Co42 2.244 . S
O55 C45 1.272 . S
O55 Co47 2.135 . S
Co56 O57 2.216 . S
Co56 O58 2.091 . S
Co56 O60 2.004 . S
Co56 O66 2.021 . S
Co56 O68 2.137 . S
Co56 O69 2.244 . S
O57 Co56 2.216 . S
O57 C64 1.247 . S
O58 Co56 2.091 . S
O58 C64 1.261 . S
C59 O68 1.247 . S
C59 O69 1.272 . S
O60 Co56 2.004 . S
O60 C65 1.259 . S
Co61 O62 2.061 . S
Co61 O67 2.052 . S
Co61 O69 2.135 . S
O62 Co61 2.061 . S
O62 C65 1.235 . S
C63 O66 1.238 . S
C63 O67 1.241 . S
C64 O57 1.247 . S
C64 O58 1.261 . S
C65 O60 1.259 . S
C65 O62 1.235 . S
O66 Co56 2.021 . S
O66 C63 1.238 . S
O67 Co61 2.052 . S
O67 C63 1.241 . S
O68 Co56 2.137 . S
O68 C59 1.247 . S
O69 Co56 2.244 . S
O69 C59 1.272 . S
O69 Co61 2.135 . S
Co70 O71 2.216 . S
Co70 O72 2.091 . S
Co70 O74 2.004 . S
Co70 O80 2.021 . S
Co70 O82 2.137 . S
Co70 O83 2.244 . S
O71 Co70 2.216 . S
O71 C78 1.247 . S
O72 Co70 2.091 . S
O72 C78 1.261 . S
C73 O82 1.247 . S
C73 O83 1.272 . S
O74 Co70 2.004 . S
O74 C79 1.259 . S
Co75 O76 2.061 . S
Co75 O81 2.052 . S
Co75 O83 2.135 . S
O76 Co75 2.061 . S
O76 C79 1.235 . S
C77 O80 1.238 . S
C77 O81 1.241 . S
C78 O71 1.247 . S
C78 O72 1.261 . S
C79 O74 1.259 . S
C79 O76 1.235 . S
O80 Co70 2.021 . S
O80 C77 1.238 . S
O81 Co75 2.052 . S
O81 C77 1.241 . S
O82 Co70 2.137 . S
O82 C73 1.247 . S
O83 Co70 2.244 . S
O83 C73 1.272 . S
O83 Co75 2.135 . S
Co84 O85 2.216 . S
Co84 O86 2.091 . S
Co84 O88 2.004 . S
Co84 O94 2.021 . S
Co84 O96 2.137 . S
Co84 O97 2.244 . S
O85 Co84 2.216 . S
O85 C92 1.247 . S
O86 Co84 2.091 . S
O86 C92 1.261 . S
C87 O96 1.247 . S
C87 O97 1.272 . S
O88 Co84 2.004 . S
O88 C93 1.259 . S
Co89 O90 2.061 . S
Co89 O95 2.052 . S
Co89 O97 2.135 . S
O90 Co89 2.061 . S
O90 C93 1.235 . S
C91 O94 1.238 . S
C91 O95 1.241 . S
C92 O85 1.247 . S
C92 O86 1.261 . S
C93 O88 1.259 . S
C93 O90 1.235 . S
O94 Co84 2.021 . S
O94 C91 1.238 . S
O95 Co89 2.052 . S
O95 C91 1.241 . S
O96 Co84 2.137 . S
O96 C87 1.247 . S
O97 Co84 2.244 . S
O97 C87 1.272 . S
O97 Co89 2.135 . S
Co98 O99 2.216 . S
Co98 O100 2.091 . S
Co98 O102 2.004 . S
Co98 O108 2.021 1_554 S
Co98 O110 2.137 . S
Co98 O111 2.244 . S
O99 Co98 2.216 . S
O99 C106 1.247 . S
O100 Co98 2.091 . S
O100 C106 1.261 . S
C101 O110 1.247 . S
C101 O111 1.272 . S
O102 Co98 2.004 . S
O102 C107 1.259 . S
Co103 O104 2.061 . S
Co103 O109 2.052 . S
Co103 O111 2.135 . S
O104 Co103 2.061 . S
O104 C107 1.235 . S
C105 O108 1.238 . S
C105 O109 1.241 1_556 S
C106 O99 1.247 . S
C106 O100 1.261 . S
C107 O102 1.259 . S
C107 O104 1.235 . S
O108 Co98 2.021 1_556 S
O108 C105 1.238 . S
O109 Co103 2.052 . S
O109 C105 1.241 1_554 S
O110 Co98 2.137 . S
O110 C101 1.247 . S
O111 Co98 2.244 . S
O111 C101 1.272 . S
O111 Co103 2.135 . S
Co112 O113 2.216 . S
Co112 O114 2.091 . S
Co112 O116 2.004 . S
Co112 O122 2.021 . S
Co112 O124 2.137 . S
Co112 O125 2.244 . S
O113 Co112 2.216 . S
O113 C120 1.247 . S
O114 Co112 2.091 . S
O114 C120 1.261 . S
C115 O124 1.247 . S
C115 O125 1.272 . S
O116 Co112 2.004 . S
O116 C121 1.259 . S
Co117 O118 2.061 . S
Co117 O123 2.052 . S
Co117 O125 2.135 . S
O118 Co117 2.061 . S
O118 C121 1.235 . S
C119 O122 1.238 . S
C119 O123 1.241 . S
C120 O113 1.247 . S
C120 O114 1.261 . S
C121 O116 1.259 . S
C121 O118 1.235 . S
O122 Co112 2.021 . S
O122 C119 1.238 . S
O123 Co117 2.052 . S
O123 C119 1.241 . S
O124 Co112 2.137 . S
O124 C115 1.247 . S
O125 Co112 2.244 . S
O125 C115 1.272 . S
O125 Co117 2.135 . S
Co126 O127 2.216 . S
Co126 O128 2.091 . S
Co126 O130 2.004 . S
Co126 O136 2.021 . S
Co126 O138 2.137 . S
Co126 O139 2.244 . S
O127 Co126 2.216 . S
O127 C134 1.247 . S
O128 Co126 2.091 . S
O128 C134 1.261 . S
C129 O138 1.247 . S
C129 O139 1.272 . S
O130 Co126 2.004 . S
O130 C135 1.259 . S
Co131 O132 2.061 . S
Co131 O137 2.052 . S
Co131 O139 2.135 . S
O132 Co131 2.061 . S
O132 C135 1.235 . S
C133 O136 1.238 . S
C133 O137 1.241 . S
C134 O127 1.247 . S
C134 O128 1.261 . S
C135 O130 1.259 . S
C135 O132 1.235 . S
O136 Co126 2.021 . S
O136 C133 1.238 . S
O137 Co131 2.052 . S
O137 C133 1.241 . S
O138 Co126 2.137 . S
O138 C129 1.247 . S
O139 Co126 2.244 . S
O139 C129 1.272 . S
O139 Co131 2.135 . S
Co140 O141 2.216 . S
Co140 O142 2.091 . S
Co140 O144 2.004 . S
Co140 O150 2.021 . S
Co140 O152 2.137 . S
Co140 O153 2.244 . S
O141 Co140 2.216 . S
O141 C148 1.247 . S
O142 Co140 2.091 . S
O142 C148 1.261 . S
C143 O152 1.247 . S
C143 O153 1.272 . S
O144 Co140 2.004 . S
O144 C149 1.259 . S
Co145 O146 2.061 . S
Co145 O151 2.052 . S
Co145 O153 2.135 . S
O146 Co145 2.061 . S
O146 C149 1.235 . S
C147 O150 1.238 . S
C147 O151 1.241 . S
C148 O141 1.247 . S
C148 O142 1.261 . S
C149 O144 1.259 . S
C149 O146 1.235 . S
O150 Co140 2.021 . S
O150 C147 1.238 . S
O151 Co145 2.052 . S
O151 C147 1.241 . S
O152 Co140 2.137 . S
O152 C143 1.247 . S
O153 Co140 2.244 . S
O153 C143 1.272 . S
O153 Co145 2.135 . S
Co154 O155 2.216 . S
Co154 O156 2.091 . S
Co154 O158 2.004 . S
Co154 O164 2.021 . S
Co154 O166 2.137 . S
Co154 O167 2.244 . S
O155 Co154 2.216 . S
O155 C162 1.247 . S
O156 Co154 2.091 . S
O156 C162 1.261 . S
C157 O166 1.247 . S
C157 O167 1.272 . S
O158 Co154 2.004 . S
O158 C163 1.259 . S
Co159 O160 2.061 . S
Co159 O165 2.052 . S
Co159 O167 2.135 . S
O160 Co159 2.061 . S
O160 C163 1.235 . S
C161 O164 1.238 . S
C161 O165 1.241 . S
C162 O155 1.247 . S
C162 O156 1.261 . S
C163 O158 1.259 . S
C163 O160 1.235 . S
O164 Co154 2.021 . S
O164 C161 1.238 . S
O165 Co159 2.052 . S
O165 C161 1.241 . S
O166 Co154 2.137 . S
O166 C157 1.247 . S
O167 Co154 2.244 . S
O167 C157 1.272 . S
O167 Co159 2.135 . S
C168 C169 1.349 . S
C168 C170 1.327 . S
C168 H193 0.950 . S
C169 C168 1.349 . S
C169 C185 1.349 . S
C170 C168 1.327 . S
C170 C189 1.429 . S
C170 H194 0.950 . S
C171 C188 1.574 . S
C171 C190 1.368 . S
C171 H195 0.949 . S
H172 C176 0.949 . S
C173 C174 1.349 . S
C173 C175 1.327 . S
C173 H196 0.950 . S
C174 C173 1.349 . S
C174 C186 1.349 . S
C175 C173 1.327 . S
C175 C191 1.429 . S
C175 H197 0.950 . S
C176 H172 0.949 . S
C176 C184 1.574 . S
C176 C192 1.368 . S
H177 C185 0.950 . S
H178 C183 0.950 . S
H179 C184 0.949 . S
H180 C186 0.950 . S
H181 C187 0.950 . S
H182 C188 0.949 . S
C183 H178 0.950 . S
C183 C185 1.327 . S
C183 C189 1.429 . S
C184 C176 1.574 . S
C184 H179 0.949 . S
C184 C190 1.368 . S
C185 C169 1.349 . S
C185 H177 0.950 . S
C185 C183 1.327 . S
C186 C174 1.349 . S
C186 H180 0.950 . S
C186 C187 1.327 . S
C187 H181 0.950 . S
C187 C186 1.327 . S
C187 C191 1.429 . S
C188 C171 1.574 . S
C188 H182 0.949 . S
C188 C192 1.368 . S
C189 C170 1.429 . S
C189 C183 1.429 . S
C189 C190 1.523 . S
C190 C171 1.368 . S
C190 C184 1.368 . S
C190 C189 1.523 . S
C191 C175 1.429 . S
C191 C187 1.429 . S
C191 C192 1.523 . S
C192 C176 1.368 . S
C192 C188 1.368 . S
C192 C191 1.523 . S
H193 C168 0.950 . S
H194 C170 0.950 . S
H195 C171 0.949 . S
H196 C173 0.950 . S
H197 C175 0.950 . S
C198 C199 1.349 . S
C198 C200 1.327 . S
C198 H223 0.950 . S
C199 C198 1.349 . S
C199 C215 1.349 . S
C200 C198 1.327 . S
C200 C219 1.429 . S
C200 H224 0.950 . S
C201 C218 1.574 . S
C201 C220 1.368 . S
C201 H225 0.949 . S
H202 C206 0.949 . S
C203 C204 1.349 . S
C203 C205 1.327 . S
C203 H226 0.950 . S
C204 C203 1.349 . S
C204 C216 1.349 . S
C205 C203 1.327 . S
C205 C221 1.429 . S
C205 H227 0.950 . S
C206 H202 0.949 . S
C206 C214 1.574 . S
C206 C222 1.368 . S
H207 C215 0.950 . S
H208 C213 0.950 . S
H209 C214 0.949 . S
H210 C216 0.950 . S
H211 C217 0.950 . S
H212 C218 0.949 . S
C213 H208 0.950 . S
C213 C215 1.327 . S
C213 C219 1.429 . S
C214 C206 1.574 . S
C214 H209 0.949 . S
C214 C220 1.368 . S
C215 C199 1.349 . S
C215 H207 0.950 . S
C215 C213 1.327 . S
C216 C204 1.349 . S
C216 H210 0.950 . S
C216 C217 1.327 . S
C217 H211 0.950 . S
C217 C216 1.327 . S
C217 C221 1.429 . S
C218 C201 1.574 . S
C218 H212 0.949 . S
C218 C222 1.368 . S
C219 C200 1.429 . S
C219 C213 1.429 . S
C219 C220 1.523 . S
C220 C201 1.368 . S
C220 C214 1.368 . S
C220 C219 1.523 . S
C221 C205 1.429 . S
C221 C217 1.429 . S
C221 C222 1.523 . S
C222 C206 1.368 . S
C222 C218 1.368 . S
C222 C221 1.523 . S
H223 C198 0.950 . S
H224 C200 0.950 . S
H225 C201 0.949 . S
H226 C203 0.950 . S
H227 C205 0.950 . S
C228 C229 1.349 . S
C228 C230 1.327 . S
C228 H253 0.950 . S
C229 C228 1.349 . S
C229 C245 1.349 . S
C230 C228 1.327 . S
C230 C249 1.429 . S
C230 H254 0.950 . S
C231 C248 1.574 . S
C231 C250 1.368 . S
C231 H255 0.949 . S
H232 C236 0.949 . S
C233 C234 1.349 . S
C233 C235 1.327 . S
C233 H256 0.950 . S
C234 C233 1.349 . S
C234 C246 1.349 . S
C235 C233 1.327 . S
C235 C251 1.429 . S
C235 H257 0.950 . S
C236 H232 0.949 . S
C236 C244 1.574 . S
C236 C252 1.368 . S
H237 C245 0.950 . S
H238 C243 0.950 . S
H239 C244 0.949 . S
H240 C246 0.950 . S
H241 C247 0.950 . S
H242 C248 0.949 . S
C243 H238 0.950 . S
C243 C245 1.327 . S
C243 C249 1.429 . S
C244 C236 1.574 . S
C244 H239 0.949 . S
C244 C250 1.368 . S
C245 C229 1.349 . S
C245 H237 0.950 . S
C245 C243 1.327 . S
C246 C234 1.349 . S
C246 H240 0.950 . S
C246 C247 1.327 . S
C247 H241 0.950 . S
C247 C246 1.327 . S
C247 C251 1.429 . S
C248 C231 1.574 . S
C248 H242 0.949 . S
C248 C252 1.368 . S
C249 C230 1.429 . S
C249 C243 1.429 . S
C249 C250 1.523 . S
C250 C231 1.368 . S
C250 C244 1.368 . S
C250 C249 1.523 . S
C251 C235 1.429 . S
C251 C247 1.429 . S
C251 C252 1.523 . S
C252 C236 1.368 . S
C252 C248 1.368 . S
C252 C251 1.523 . S
H253 C228 0.950 . S
H254 C230 0.950 . S
H255 C231 0.949 . S
H256 C233 0.950 . S
H257 C235 0.950 . S
C258 C259 1.349 . S
C258 C260 1.327 . S
C258 H283 0.950 . S
C259 C258 1.349 . S
C259 C275 1.349 . S
C260 C258 1.327 . S
C260 C279 1.429 . S
C260 H284 0.950 . S
C261 C278 1.574 . S
C261 C280 1.368 . S
C261 H285 0.949 . S
H262 C266 0.949 . S
C263 C264 1.349 . S
C263 C265 1.327 . S
C263 H286 0.950 . S
C264 C263 1.349 . S
C264 C276 1.349 . S
C265 C263 1.327 . S
C265 C281 1.429 . S
C265 H287 0.950 . S
C266 H262 0.949 . S
C266 C274 1.574 . S
C266 C282 1.368 . S
H267 C275 0.950 . S
H268 C273 0.950 . S
H269 C274 0.949 . S
H270 C276 0.950 . S
H271 C277 0.950 . S
H272 C278 0.949 . S
C273 H268 0.950 . S
C273 C275 1.327 . S
C273 C279 1.429 . S
C274 C266 1.574 . S
C274 H269 0.949 . S
C274 C280 1.368 . S
C275 C259 1.349 . S
C275 H267 0.950 . S
C275 C273 1.327 . S
C276 C264 1.349 . S
C276 H270 0.950 . S
C276 C277 1.327 . S
C277 H271 0.950 . S
C277 C276 1.327 . S
C277 C281 1.429 . S
C278 C261 1.574 . S
C278 H272 0.949 . S
C278 C282 1.368 . S
C279 C260 1.429 . S
C279 C273 1.429 . S
C279 C280 1.523 . S
C280 C261 1.368 . S
C280 C274 1.368 . S
C280 C279 1.523 . S
C281 C265 1.429 . S
C281 C277 1.429 . S
C281 C282 1.523 . S
C282 C266 1.368 . S
C282 C278 1.368 . S
C282 C281 1.523 . S
H283 C258 0.950 . S
H284 C260 0.950 . S
H285 C261 0.949 . S
H286 C263 0.950 . S
H287 C265 0.950 . S
C288 C289 1.349 . S
C288 C290 1.327 . S
C288 H313 0.950 . S
C289 C288 1.349 . S
C289 C305 1.349 . S
C290 C288 1.327 . S
C290 C309 1.429 . S
C290 H314 0.950 . S
C291 C308 1.574 . S
C291 C310 1.368 1_556 S
C291 H315 0.949 . S
H292 C296 0.949 . S
C293 C294 1.349 . S
C293 C295 1.327 . S
C293 H316 0.950 . S
C294 C293 1.349 . S
C294 C306 1.349 . S
C295 C293 1.327 . S
C295 C311 1.429 . S
C295 H317 0.950 . S
C296 H292 0.949 . S
C296 C304 1.574 1_556 S
C296 C312 1.368 . S
H297 C305 0.950 . S
H298 C303 0.950 . S
H299 C304 0.949 . S
H300 C306 0.950 . S
H301 C307 0.950 . S
H302 C308 0.949 . S
C303 H298 0.950 . S
C303 C305 1.327 . S
C303 C309 1.429 . S
C304 C296 1.574 1_554 S
C304 H299 0.949 . S
C304 C310 1.368 . S
C305 C289 1.349 . S
C305 H297 0.950 . S
C305 C303 1.327 . S
C306 C294 1.349 . S
C306 H300 0.950 . S
C306 C307 1.327 . S
C307 H301 0.950 . S
C307 C306 1.327 . S
C307 C311 1.429 . S
C308 C291 1.574 . S
C308 H302 0.949 . S
C308 C312 1.368 . S
C309 C290 1.429 . S
C309 C303 1.429 . S
C309 C310 1.523 . S
C310 C291 1.368 1_554 S
C310 C304 1.368 . S
C310 C309 1.523 . S
C311 C295 1.429 . S
C311 C307 1.429 . S
C311 C312 1.523 . S
C312 C296 1.368 . S
C312 C308 1.368 . S
C312 C311 1.523 . S
H313 C288 0.950 . S
H314 C290 0.950 . S
H315 C291 0.949 . S
H316 C293 0.950 . S
H317 C295 0.950 . S
C318 C319 1.349 . S
C318 C320 1.327 . S
C318 H343 0.950 . S
C319 C318 1.349 . S
C319 C335 1.349 . S
C320 C318 1.327 . S
C320 C339 1.429 . S
C320 H344 0.950 . S
C321 C338 1.574 . S
C321 C340 1.368 . S
C321 H345 0.949 . S
H322 C326 0.949 . S
C323 C324 1.349 . S
C323 C325 1.327 1_556 S
C323 H346 0.950 . S
C324 C323 1.349 . S
C324 C336 1.349 1_556 S
C325 C323 1.327 1_554 S
C325 C341 1.429 . S
C325 H347 0.950 . S
C326 H322 0.949 . S
C326 C334 1.574 . S
C326 C342 1.368 . S
H327 C335 0.950 . S
H328 C333 0.950 . S
H329 C334 0.949 . S
H330 C336 0.950 . S
H331 C337 0.950 . S
H332 C338 0.949 . S
C333 H328 0.950 . S
C333 C335 1.327 . S
C333 C339 1.429 . S
C334 C326 1.574 . S
C334 H329 0.949 . S
C334 C340 1.368 . S
C335 C319 1.349 . S
C335 H327 0.950 . S
C335 C333 1.327 . S
C336 C324 1.349 1_554 S
C336 H330 0.950 . S
C336 C337 1.327 . S
C337 H331 0.950 . S
C337 C336 1.327 . S
C337 C341 1.429 . S
C338 C321 1.574 . S
C338 H332 0.949 . S
C338 C342 1.368 . S
C339 C320 1.429 . S
C339 C333 1.429 . S
C339 C340 1.523 . S
C340 C321 1.368 . S
C340 C334 1.368 . S
C340 C339 1.523 . S
C341 C325 1.429 . S
C341 C337 1.429 . S
C341 C342 1.523 . S
C342 C326 1.368 . S
C342 C338 1.368 . S
C342 C341 1.523 . S
H343 C318 0.950 . S
H344 C320 0.950 . S
H345 C321 0.949 . S
H346 C323 0.950 . S
H347 C325 0.950 . S
C348 C349 1.349 . S
C348 C350 1.327 . S
C348 H373 0.950 . S
C349 C348 1.349 . S
C349 C365 1.349 . S
C350 C348 1.327 . S
C350 C369 1.429 . S
C350 H374 0.950 . S
C351 C368 1.574 . S
C351 C370 1.368 . S
C351 H375 0.949 . S
H352 C356 0.949 . S
C353 C354 1.349 . S
C353 C355 1.327 . S
C353 H376 0.950 . S
C354 C353 1.349 . S
C354 C366 1.349 . S
C355 C353 1.327 . S
C355 C371 1.429 . S
C355 H377 0.950 . S
C356 H352 0.949 . S
C356 C364 1.574 . S
C356 C372 1.368 . S
H357 C365 0.950 . S
H358 C363 0.950 . S
H359 C364 0.949 . S
H360 C366 0.950 . S
H361 C367 0.950 . S
H362 C368 0.949 . S
C363 H358 0.950 . S
C363 C365 1.327 . S
C363 C369 1.429 . S
C364 C356 1.574 . S
C364 H359 0.949 . S
C364 C370 1.368 . S
C365 C349 1.349 . S
C365 H357 0.950 . S
C365 C363 1.327 . S
C366 C354 1.349 . S
C366 H360 0.950 . S
C366 C367 1.327 . S
C367 H361 0.950 . S
C367 C366 1.327 . S
C367 C371 1.429 . S
C368 C351 1.574 . S
C368 H362 0.949 . S
C368 C372 1.368 . S
C369 C350 1.429 . S
C369 C363 1.429 . S
C369 C370 1.523 . S
C370 C351 1.368 . S
C370 C364 1.368 . S
C370 C369 1.523 . S
C371 C355 1.429 . S
C371 C367 1.429 . S
C371 C372 1.523 . S
C372 C356 1.368 . S
C372 C368 1.368 . S
C372 C371 1.523 . S
H373 C348 0.950 . S
H374 C350 0.950 . S
H375 C351 0.949 . S
H376 C353 0.950 . S
H377 C355 0.950 . S
C378 C379 1.349 . S
C378 C380 1.327 . S
C378 H403 0.950 . S
C379 C378 1.349 . S
C379 C395 1.349 . S
C380 C378 1.327 . S
C380 C399 1.429 . S
C380 H404 0.950 . S
C381 C398 1.574 . S
C381 C400 1.368 . S
C381 H405 0.949 . S
H382 C386 0.949 . S
C383 C384 1.349 . S
C383 C385 1.327 . S
C383 H406 0.950 . S
C384 C383 1.349 . S
C384 C396 1.349 . S
C385 C383 1.327 . S
C385 C401 1.429 . S
C385 H407 0.950 . S
C386 H382 0.949 . S
C386 C394 1.574 . S
C386 C402 1.368 . S
H387 C395 0.950 . S
H388 C393 0.950 . S
H389 C394 0.949 . S
H390 C396 0.950 . S
H391 C397 0.950 . S
H392 C398 0.949 . S
C393 H388 0.950 . S
C393 C395 1.327 . S
C393 C399 1.429 . S
C394 C386 1.574 . S
C394 H389 0.949 . S
C394 C400 1.368 . S
C395 C379 1.349 . S
C395 H387 0.950 . S
C395 C393 1.327 . S
C396 C384 1.349 . S
C396 H390 0.950 . S
C396 C397 1.327 . S
C397 H391 0.950 . S
C397 C396 1.327 . S
C397 C401 1.429 . S
C398 C381 1.574 . S
C398 H392 0.949 . S
C398 C402 1.368 . S
C399 C380 1.429 . S
C399 C393 1.429 . S
C399 C400 1.523 . S
C400 C381 1.368 . S
C400 C394 1.368 . S
C400 C399 1.523 . S
C401 C385 1.429 . S
C401 C397 1.429 . S
C401 C402 1.523 . S
C402 C386 1.368 . S
C402 C398 1.368 . S
C402 C401 1.523 . S
H403 C378 0.950 . S
H404 C380 0.950 . S
H405 C381 0.949 . S
H406 C383 0.950 . S
H407 C385 0.950 . S
C408 C409 1.349 . S
C408 C410 1.327 . S
C408 H433 0.950 . S
C409 C408 1.349 . S
C409 C425 1.349 . S
C410 C408 1.327 . S
C410 C429 1.429 . S
C410 H434 0.950 . S
C411 C428 1.574 . S
C411 C430 1.368 . S
C411 H435 0.949 . S
H412 C416 0.949 . S
C413 C414 1.349 . S
C413 C415 1.327 . S
C413 H436 0.950 . S
C414 C413 1.349 . S
C414 C426 1.349 . S
C415 C413 1.327 . S
C415 C431 1.429 . S
C415 H437 0.950 . S
C416 H412 0.949 . S
C416 C424 1.574 . S
C416 C432 1.368 . S
H417 C425 0.950 . S
H418 C423 0.950 . S
H419 C424 0.949 . S
H420 C426 0.950 . S
H421 C427 0.950 . S
H422 C428 0.949 . S
C423 H418 0.950 . S
C423 C425 1.327 . S
C423 C429 1.429 . S
C424 C416 1.574 . S
C424 H419 0.949 . S
C424 C430 1.368 . S
C425 C409 1.349 . S
C425 H417 0.950 . S
C425 C423 1.327 . S
C426 C414 1.349 . S
C426 H420 0.950 . S
C426 C427 1.327 . S
C427 H421 0.950 . S
C427 C426 1.327 . S
C427 C431 1.429 . S
C428 C411 1.574 . S
C428 H422 0.949 . S
C428 C432 1.368 . S
C429 C410 1.429 . S
C429 C423 1.429 . S
C429 C430 1.523 . S
C430 C411 1.368 . S
C430 C424 1.368 . S
C430 C429 1.523 . S
C431 C415 1.429 . S
C431 C427 1.429 . S
C431 C432 1.523 . S
C432 C416 1.368 . S
C432 C428 1.368 . S
C432 C431 1.523 . S
H433 C408 0.950 . S
H434 C410 0.950 . S
H435 C411 0.949 . S
H436 C413 0.950 . S
H437 C415 0.950 . S
C438 C439 1.349 . S
C438 C440 1.327 . S
C438 H463 0.950 . S
C439 C438 1.349 . S
C439 C455 1.349 . S
C440 C438 1.327 . S
C440 C459 1.429 . S
C440 H464 0.950 . S
C441 C458 1.574 . S
C441 C460 1.368 . S
C441 H465 0.949 . S
H442 C446 0.949 . S
C443 C444 1.349 . S
C443 C445 1.327 . S
C443 H466 0.950 . S
C444 C443 1.349 . S
C444 C456 1.349 . S
C445 C443 1.327 . S
C445 C461 1.429 . S
C445 H467 0.950 . S
C446 H442 0.949 . S
C446 C454 1.574 . S
C446 C462 1.368 . S
H447 C455 0.950 . S
H448 C453 0.950 . S
H449 C454 0.949 . S
H450 C456 0.950 . S
H451 C457 0.950 . S
H452 C458 0.949 . S
C453 H448 0.950 . S
C453 C455 1.327 . S
C453 C459 1.429 . S
C454 C446 1.574 . S
C454 H449 0.949 . S
C454 C460 1.368 . S
C455 C439 1.349 . S
C455 H447 0.950 . S
C455 C453 1.327 . S
C456 C444 1.349 . S
C456 H450 0.950 . S
C456 C457 1.327 . S
C457 H451 0.950 . S
C457 C456 1.327 . S
C457 C461 1.429 . S
C458 C441 1.574 . S
C458 H452 0.949 . S
C458 C462 1.368 . S
C459 C440 1.429 . S
C459 C453 1.429 . S
C459 C460 1.523 . S
C460 C441 1.368 . S
C460 C454 1.368 . S
C460 C459 1.523 . S
C461 C445 1.429 . S
C461 C457 1.429 . S
C461 C462 1.523 . S
C462 C446 1.368 . S
C462 C458 1.368 . S
C462 C461 1.523 . S
H463 C438 0.950 . S
H464 C440 0.950 . S
H465 C441 0.949 . S
H466 C443 0.950 . S
H467 C445 0.950 . S
C468 C469 1.349 . S
C468 C470 1.327 . S
C468 H493 0.950 . S
C469 C468 1.349 . S
C469 C485 1.349 . S
C470 C468 1.327 . S
C470 C489 1.429 . S
C470 H494 0.950 . S
C471 C488 1.574 . S
C471 C490 1.368 . S
C471 H495 0.949 . S
H472 C476 0.949 . S
C473 C474 1.349 . S
C473 C475 1.327 . S
C473 H496 0.950 . S
C474 C473 1.349 . S
C474 C486 1.349 . S
C475 C473 1.327 . S
C475 C491 1.429 . S
C475 H497 0.950 . S
C476 H472 0.949 . S
C476 C484 1.574 . S
C476 C492 1.368 . S
H477 C485 0.950 . S
H478 C483 0.950 . S
H479 C484 0.949 . S
H480 C486 0.950 . S
H481 C487 0.950 . S
H482 C488 0.949 . S
C483 H478 0.950 . S
C483 C485 1.327 . S
C483 C489 1.429 . S
C484 C476 1.574 . S
C484 H479 0.949 . S
C484 C490 1.368 . S
C485 C469 1.349 . S
C485 H477 0.950 . S
C485 C483 1.327 . S
C486 C474 1.349 . S
C486 H480 0.950 . S
C486 C487 1.327 . S
C487 H481 0.950 . S
C487 C486 1.327 . S
C487 C491 1.429 . S
C488 C471 1.574 . S
C488 H482 0.949 . S
C488 C492 1.368 . S
C489 C470 1.429 . S
C489 C483 1.429 . S
C489 C490 1.523 . S
C490 C471 1.368 . S
C490 C484 1.368 . S
C490 C489 1.523 . S
C491 C475 1.429 . S
C491 C487 1.429 . S
C491 C492 1.523 . S
C492 C476 1.368 . S
C492 C488 1.368 . S
C492 C491 1.523 . S
H493 C468 0.950 . S
H494 C470 0.950 . S
H495 C471 0.949 . S
H496 C473 0.950 . S
H497 C475 0.950 . S
C498 C499 1.349 . S
C498 C500 1.327 . S
C498 H523 0.950 . S
C499 C498 1.349 . S
C499 C515 1.349 . S
C500 C498 1.327 . S
C500 C519 1.429 . S
C500 H524 0.950 . S
C501 C518 1.574 1_556 S
C501 C520 1.368 . S
C501 H525 0.949 1_556 S
H502 C506 0.949 . S
C503 C504 1.349 . S
C503 C505 1.327 . S
C503 H526 0.950 . S
C504 C503 1.349 . S
C504 C516 1.349 1_554 S
C505 C503 1.327 . S
C505 C521 1.429 . S
C505 H527 0.950 . S
C506 H502 0.949 . S
C506 C514 1.574 . S
C506 C522 1.368 . S
H507 C515 0.950 . S
H508 C513 0.950 . S
H509 C514 0.949 . S
H510 C516 0.950 . S
H511 C517 0.950 . S
H512 C518 0.949 . S
C513 H508 0.950 . S
C513 C515 1.327 . S
C513 C519 1.429 . S
C514 C506 1.574 . S
C514 H509 0.949 . S
C514 C520 1.368 . S
C515 C499 1.349 . S
C515 H507 0.950 . S
C515 C513 1.327 . S
C516 C504 1.349 1_556 S
C516 H510 0.950 . S
C516 C517 1.327 . S
C517 H511 0.950 . S
C517 C516 1.327 . S
C517 C521 1.429 1_556 S
C518 C501 1.574 1_554 S
C518 H512 0.949 . S
C518 C522 1.368 1_554 S
C519 C500 1.429 . S
C519 C513 1.429 . S
C519 C520 1.523 . S
C520 C501 1.368 . S
C520 C514 1.368 . S
C520 C519 1.523 . S
C521 C505 1.429 . S
C521 C517 1.429 1_554 S
C521 C522 1.523 1_554 S
C522 C506 1.368 . S
C522 C518 1.368 1_556 S
C522 C521 1.523 1_556 S
H523 C498 0.950 . S
H524 C500 0.950 . S
H525 C501 0.949 1_554 S
H526 C503 0.950 . S
H527 C505 0.950 . S
C528 C529 1.349 . S
C528 C530 1.327 . S
C528 H553 0.950 . S
C529 C528 1.349 . S
C529 C545 1.349 . S
C530 C528 1.327 . S
C530 C549 1.429 . S
C530 H554 0.950 . S
C531 C548 1.574 . S
C531 C550 1.368 . S
C531 H555 0.949 . S
H532 C536 0.949 . S
C533 C534 1.349 . S
C533 C535 1.327 . S
C533 H556 0.950 . S
C534 C533 1.349 . S
C534 C546 1.349 . S
C535 C533 1.327 . S
C535 C551 1.429 . S
C535 H557 0.950 . S
C536 H532 0.949 . S
C536 C544 1.574 . S
C536 C552 1.368 . S
H537 C545 0.950 . S
H538 C543 0.950 . S
H539 C544 0.949 . S
H540 C546 0.950 . S
H541 C547 0.950 . S
H542 C548 0.949 . S
C543 H538 0.950 . S
C543 C545 1.327 . S
C543 C549 1.429 . S
C544 C536 1.574 . S
C544 H539 0.949 . S
C544 C550 1.368 . S
C545 C529 1.349 . S
C545 H537 0.950 . S
C545 C543 1.327 . S
C546 C534 1.349 . S
C546 H540 0.950 . S
C546 C547 1.327 . S
C547 H541 0.950 . S
C547 C546 1.327 . S
C547 C551 1.429 . S
C548 C531 1.574 . S
C548 H542 0.949 . S
C548 C552 1.368 . S
C549 C530 1.429 . S
C549 C543 1.429 . S
C549 C550 1.523 . S
C550 C531 1.368 . S
C550 C544 1.368 . S
C550 C549 1.523 . S
C551 C535 1.429 . S
C551 C547 1.429 . S
C551 C552 1.523 . S
C552 C536 1.368 . S
C552 C548 1.368 . S
C552 C551 1.523 . S
H553 C528 0.950 . S
H554 C530 0.950 . S
H555 C531 0.949 . S
H556 C533 0.950 . S
H557 C535 0.950 . S
C558 C559 1.349 . S
C558 C560 1.327 . S
C558 H583 0.950 . S
C559 C558 1.349 . S
C559 C575 1.349 . S
C560 C558 1.327 . S
C560 C579 1.429 . S
C560 H584 0.950 . S
C561 C578 1.574 . S
C561 C580 1.368 . S
C561 H585 0.949 . S
H562 C566 0.949 . S
C563 C564 1.349 . S
C563 C565 1.327 . S
C563 H586 0.950 . S
C564 C563 1.349 . S
C564 C576 1.349 . S
C565 C563 1.327 . S
C565 C581 1.429 . S
C565 H587 0.950 . S
C566 H562 0.949 . S
C566 C574 1.574 1_554 S
C566 C582 1.368 . S
H567 C575 0.950 . S
H568 C573 0.950 . S
H569 C574 0.949 . S
H570 C576 0.950 . S
H571 C577 0.950 . S
H572 C578 0.949 . S
C573 H568 0.950 . S
C573 C575 1.327 . S
C573 C579 1.429 . S
C574 C566 1.574 1_556 S
C574 H569 0.949 . S
C574 C580 1.368 . S
C575 C559 1.349 . S
C575 H567 0.950 . S
C575 C573 1.327 . S
C576 C564 1.349 . S
C576 H570 0.950 . S
C576 C577 1.327 . S
C577 H571 0.950 . S
C577 C576 1.327 . S
C577 C581 1.429 . S
C578 C561 1.574 . S
C578 H572 0.949 . S
C578 C582 1.368 1_556 S
C579 C560 1.429 . S
C579 C573 1.429 . S
C579 C580 1.523 . S
C580 C561 1.368 . S
C580 C574 1.368 . S
C580 C579 1.523 . S
C581 C565 1.429 . S
C581 C577 1.429 . S
C581 C582 1.523 . S
C582 C566 1.368 . S
C582 C578 1.368 1_554 S
C582 C581 1.523 . S
H583 C558 0.950 . S
H584 C560 0.950 . S
H585 C561 0.949 . S
H586 C563 0.950 . S
H587 C565 0.950 . S
C588 C589 1.349 . S
C588 C590 1.327 1_556 S
C588 H613 0.950 . S
C589 C588 1.349 . S
C589 C605 1.349 1_556 S
C590 C588 1.327 1_554 S
C590 C609 1.429 . S
C590 H614 0.950 . S
C591 C608 1.574 . S
C591 C610 1.368 . S
C591 H615 0.949 . S
H592 C596 0.949 . S
C593 C594 1.349 . S
C593 C595 1.327 . S
C593 H616 0.950 . S
C594 C593 1.349 . S
C594 C606 1.349 . S
C595 C593 1.327 . S
C595 C611 1.429 . S
C595 H617 0.950 . S
C596 H592 0.949 . S
C596 C604 1.574 . S
C596 C612 1.368 . S
H597 C605 0.950 . S
H598 C603 0.950 . S
H599 C604 0.949 . S
H600 C606 0.950 . S
H601 C607 0.950 . S
H602 C608 0.949 . S
C603 H598 0.950 . S
C603 C605 1.327 . S
C603 C609 1.429 . S
C604 C596 1.574 . S
C604 H599 0.949 . S
C604 C610 1.368 . S
C605 C589 1.349 1_554 S
C605 H597 0.950 . S
C605 C603 1.327 . S
C606 C594 1.349 . S
C606 H600 0.950 . S
C606 C607 1.327 . S
C607 H601 0.950 . S
C607 C606 1.327 . S
C607 C611 1.429 . S
C608 C591 1.574 . S
C608 H602 0.949 . S
C608 C612 1.368 . S
C609 C590 1.429 . S
C609 C603 1.429 . S
C609 C610 1.523 . S
C610 C591 1.368 . S
C610 C604 1.368 . S
C610 C609 1.523 . S
C611 C595 1.429 . S
C611 C607 1.429 . S
C611 C612 1.523 . S
C612 C596 1.368 . S
C612 C608 1.368 . S
C612 C611 1.523 . S
H613 C588 0.950 . S
H614 C590 0.950 . S
H615 C591 0.949 . S
H616 C593 0.950 . S
H617 C595 0.950 . S
C618 C619 1.349 . S
C618 C620 1.327 . S
C618 H643 0.950 . S
C619 C618 1.349 . S
C619 C635 1.349 . S
C620 C618 1.327 . S
C620 C639 1.429 . S
C620 H644 0.950 . S
C621 C638 1.574 . S
C621 C640 1.368 . S
C621 H645 0.949 . S
H622 C626 0.949 . S
C623 C624 1.349 . S
C623 C625 1.327 . S
C623 H646 0.950 . S
C624 C623 1.349 . S
C624 C636 1.349 . S
C625 C623 1.327 . S
C625 C641 1.429 . S
C625 H647 0.950 . S
C626 H622 0.949 . S
C626 C634 1.574 . S
C626 C642 1.368 . S
H627 C635 0.950 . S
H628 C633 0.950 . S
H629 C634 0.949 . S
H630 C636 0.950 . S
H631 C637 0.950 . S
H632 C638 0.949 . S
C633 H628 0.950 . S
C633 C635 1.327 . S
C633 C639 1.429 . S
C634 C626 1.574 . S
C634 H629 0.949 . S
C634 C640 1.368 . S
C635 C619 1.349 . S
C635 H627 0.950 . S
C635 C633 1.327 . S
C636 C624 1.349 . S
C636 H630 0.950 . S
C636 C637 1.327 . S
C637 H631 0.950 . S
C637 C636 1.327 . S
C637 C641 1.429 . S
C638 C621 1.574 . S
C638 H632 0.949 . S
C638 C642 1.368 . S
C639 C620 1.429 . S
C639 C633 1.429 . S
C639 C640 1.523 . S
C640 C621 1.368 . S
C640 C634 1.368 . S
C640 C639 1.523 . S
C641 C625 1.429 . S
C641 C637 1.429 . S
C641 C642 1.523 . S
C642 C626 1.368 . S
C642 C638 1.368 . S
C642 C641 1.523 . S
H643 C618 0.950 . S
H644 C620 0.950 . S
H645 C621 0.949 . S
H646 C623 0.950 . S
H647 C625 0.950 . S
C648 C649 1.349 . S
C648 C650 1.327 . S
C648 H673 0.950 . S
C649 C648 1.349 . S
C649 C665 1.349 . S
C650 C648 1.327 . S
C650 C669 1.429 . S
C650 H674 0.950 . S
C651 C668 1.574 . S
C651 C670 1.368 . S
C651 H675 0.949 . S
H652 C656 0.949 . S
C653 C654 1.349 . S
C653 C655 1.327 . S
C653 H676 0.950 . S
C654 C653 1.349 . S
C654 C666 1.349 . S
C655 C653 1.327 . S
C655 C671 1.429 . S
C655 H677 0.950 . S
C656 H652 0.949 . S
C656 C664 1.574 . S
C656 C672 1.368 . S
H657 C665 0.950 . S
H658 C663 0.950 . S
H659 C664 0.949 . S
H660 C666 0.950 . S
H661 C667 0.950 . S
H662 C668 0.949 . S
C663 H658 0.950 . S
C663 C665 1.327 . S
C663 C669 1.429 . S
C664 C656 1.574 . S
C664 H659 0.949 . S
C664 C670 1.368 . S
C665 C649 1.349 . S
C665 H657 0.950 . S
C665 C663 1.327 . S
C666 C654 1.349 . S
C666 H660 0.950 . S
C666 C667 1.327 . S
C667 H661 0.950 . S
C667 C666 1.327 . S
C667 C671 1.429 . S
C668 C651 1.574 . S
C668 H662 0.949 . S
C668 C672 1.368 . S
C669 C650 1.429 . S
C669 C663 1.429 . S
C669 C670 1.523 . S
C670 C651 1.368 . S
C670 C664 1.368 . S
C670 C669 1.523 . S
C671 C655 1.429 . S
C671 C667 1.429 . S
C671 C672 1.523 . S
C672 C656 1.368 . S
C672 C668 1.368 . S
C672 C671 1.523 . S
H673 C648 0.950 . S
H674 C650 0.950 . S
H675 C651 0.949 . S
H676 C653 0.950 . S
H677 C655 0.950 . S
C678 C679 1.349 . S
C678 C680 1.327 . S
C678 H703 0.950 . S
C679 C678 1.349 . S
C679 C695 1.349 . S
C680 C678 1.327 . S
C680 C699 1.429 . S
C680 H704 0.950 . S
C681 C698 1.574 . S
C681 C700 1.368 . S
C681 H705 0.949 . S
H682 C686 0.949 . S
C683 C684 1.349 . S
C683 C685 1.327 . S
C683 H706 0.950 . S
C684 C683 1.349 . S
C684 C696 1.349 . S
C685 C683 1.327 . S
C685 C701 1.429 . S
C685 H707 0.950 . S
C686 H682 0.949 . S
C686 C694 1.574 . S
C686 C702 1.368 . S
H687 C695 0.950 . S
H688 C693 0.950 . S
H689 C694 0.949 . S
H690 C696 0.950 . S
H691 C697 0.950 . S
H692 C698 0.949 . S
C693 H688 0.950 . S
C693 C695 1.327 . S
C693 C699 1.429 . S
C694 C686 1.574 . S
C694 H689 0.949 . S
C694 C700 1.368 . S
C695 C679 1.349 . S
C695 H687 0.950 . S
C695 C693 1.327 . S
C696 C684 1.349 . S
C696 H690 0.950 . S
C696 C697 1.327 . S
C697 H691 0.950 . S
C697 C696 1.327 . S
C697 C701 1.429 . S
C698 C681 1.574 . S
C698 H692 0.949 . S
C698 C702 1.368 . S
C699 C680 1.429 . S
C699 C693 1.429 . S
C699 C700 1.523 . S
C700 C681 1.368 . S
C700 C694 1.368 . S
C700 C699 1.523 . S
C701 C685 1.429 . S
C701 C697 1.429 . S
C701 C702 1.523 . S
C702 C686 1.368 . S
C702 C698 1.368 . S
C702 C701 1.523 . S
H703 C678 0.950 . S
H704 C680 0.950 . S
H705 C681 0.949 . S
H706 C683 0.950 . S
H707 C685 0.950 . S
C708 C709 1.349 . S
C708 C710 1.327 . S
C708 H733 0.950 . S
C709 C708 1.349 . S
C709 C725 1.349 . S
C710 C708 1.327 . S
C710 C729 1.429 . S
C710 H734 0.950 . S
C711 C728 1.574 1_545 S
C711 C730 1.368 . S
C711 H735 0.949 . S
H712 C716 0.949 . S
C713 C714 1.349 . S
C713 C715 1.327 . S
C713 H736 0.950 . S
C714 C713 1.349 . S
C714 C726 1.349 . S
C715 C713 1.327 . S
C715 C731 1.429 . S
C715 H737 0.950 . S
C716 H712 0.949 . S
C716 C724 1.574 1_565 S
C716 C732 1.368 . S
H717 C725 0.950 . S
H718 C723 0.950 . S
H719 C724 0.949 . S
H720 C726 0.950 . S
H721 C727 0.950 . S
H722 C728 0.949 . S
C723 H718 0.950 . S
C723 C725 1.327 . S
C723 C729 1.429 . S
C724 C716 1.574 1_545 S
C724 H719 0.949 . S
C724 C730 1.368 . S
C725 C709 1.349 . S
C725 H717 0.950 . S
C725 C723 1.327 . S
C726 C714 1.349 . S
C726 H720 0.950 . S
C726 C727 1.327 . S
C727 H721 0.950 . S
C727 C726 1.327 . S
C727 C731 1.429 . S
C728 C711 1.574 1_565 S
C728 H722 0.949 . S
C728 C732 1.368 . S
C729 C710 1.429 . S
C729 C723 1.429 . S
C729 C730 1.523 . S
C730 C711 1.368 . S
C730 C724 1.368 . S
C730 C729 1.523 . S
C731 C715 1.429 . S
C731 C727 1.429 . S
C731 C732 1.523 . S
C732 C716 1.368 . S
C732 C728 1.368 . S
C732 C731 1.523 . S
H733 C708 0.950 . S
H734 C710 0.950 . S
H735 C711 0.949 . S
H736 C713 0.950 . S
H737 C715 0.950 . S
C738 C739 1.349 . S
C738 C740 1.327 . S
C738 H763 0.950 . S
C739 C738 1.349 . S
C739 C755 1.349 . S
C740 C738 1.327 . S
C740 C759 1.429 . S
C740 H764 0.950 . S
C741 C758 1.574 . S
C741 C760 1.368 . S
C741 H765 0.949 . S
H742 C746 0.949 . S
C743 C744 1.349 . S
C743 C745 1.327 . S
C743 H766 0.950 . S
C744 C743 1.349 . S
C744 C756 1.349 . S
C745 C743 1.327 . S
C745 C761 1.429 . S
C745 H767 0.950 . S
C746 H742 0.949 . S
C746 C754 1.574 . S
C746 C762 1.368 . S
H747 C755 0.950 . S
H748 C753 0.950 . S
H749 C754 0.949 . S
H750 C756 0.950 . S
H751 C757 0.950 . S
H752 C758 0.949 . S
C753 H748 0.950 . S
C753 C755 1.327 . S
C753 C759 1.429 . S
C754 C746 1.574 . S
C754 H749 0.949 . S
C754 C760 1.368 . S
C755 C739 1.349 . S
C755 H747 0.950 . S
C755 C753 1.327 . S
C756 C744 1.349 . S
C756 H750 0.950 . S
C756 C757 1.327 . S
C757 H751 0.950 . S
C757 C756 1.327 . S
C757 C761 1.429 . S
C758 C741 1.574 . S
C758 H752 0.949 . S
C758 C762 1.368 . S
C759 C740 1.429 . S
C759 C753 1.429 . S
C759 C760 1.523 . S
C760 C741 1.368 . S
C760 C754 1.368 . S
C760 C759 1.523 . S
C761 C745 1.429 . S
C761 C757 1.429 . S
C761 C762 1.523 . S
C762 C746 1.368 . S
C762 C758 1.368 . S
C762 C761 1.523 . S
H763 C738 0.950 . S
H764 C740 0.950 . S
H765 C741 0.949 . S
H766 C743 0.950 . S
H767 C745 0.950 . S
C768 C769 1.349 . S
C768 C770 1.327 . S
C768 H793 0.950 . S
C769 C768 1.349 . S
C769 C785 1.349 . S
C770 C768 1.327 . S
C770 C789 1.429 . S
C770 H794 0.950 . S
C771 C788 1.574 1_455 S
C771 C790 1.368 . S
C771 H795 0.949 . S
H772 C776 0.949 . S
C773 C774 1.349 . S
C773 C775 1.327 . S
C773 H796 0.950 . S
C774 C773 1.349 . S
C774 C786 1.349 . S
C775 C773 1.327 . S
C775 C791 1.429 . S
C775 H797 0.950 . S
C776 H772 0.949 . S
C776 C784 1.574 1_655 S
C776 C792 1.368 . S
H777 C785 0.950 . S
H778 C783 0.950 . S
H779 C784 0.949 . S
H780 C786 0.950 . S
H781 C787 0.950 . S
H782 C788 0.949 . S
C783 H778 0.950 . S
C783 C785 1.327 . S
C783 C789 1.429 . S
C784 C776 1.574 1_455 S
C784 H779 0.949 . S
C784 C790 1.368 . S
C785 C769 1.349 . S
C785 H777 0.950 . S
C785 C783 1.327 . S
C786 C774 1.349 . S
C786 H780 0.950 . S
C786 C787 1.327 . S
C787 H781 0.950 . S
C787 C786 1.327 . S
C787 C791 1.429 . S
C788 C771 1.574 1_655 S
C788 H782 0.949 . S
C788 C792 1.368 . S
C789 C770 1.429 . S
C789 C783 1.429 . S
C789 C790 1.523 . S
C790 C771 1.368 . S
C790 C784 1.368 . S
C790 C789 1.523 . S
C791 C775 1.429 . S
C791 C787 1.429 . S
C791 C792 1.523 . S
C792 C776 1.368 . S
C792 C788 1.368 . S
C792 C791 1.523 . S
H793 C768 0.950 . S
H794 C770 0.950 . S
H795 C771 0.949 . S
H796 C773 0.950 . S
H797 C775 0.950 . S
C798 C799 1.349 . S
C798 C800 1.327 . S
C798 H823 0.950 . S
C799 C798 1.349 . S
C799 C815 1.349 . S
C800 C798 1.327 . S
C800 C819 1.429 . S
C800 H824 0.950 . S
C801 C818 1.574 1_565 S
C801 C820 1.368 . S
C801 H825 0.949 . S
H802 C806 0.949 . S
C803 C804 1.349 . S
C803 C805 1.327 . S
C803 H826 0.950 . S
C804 C803 1.349 . S
C804 C816 1.349 . S
C805 C803 1.327 . S
C805 C821 1.429 . S
C805 H827 0.950 . S
C806 H802 0.949 . S
C806 C814 1.574 1_545 S
C806 C822 1.368 . S
H807 C815 0.950 . S
H808 C813 0.950 . S
H809 C814 0.949 . S
H810 C816 0.950 . S
H811 C817 0.950 . S
H812 C818 0.949 . S
C813 H808 0.950 . S
C813 C815 1.327 . S
C813 C819 1.429 . S
C814 C806 1.574 1_565 S
C814 H809 0.949 . S
C814 C820 1.368 . S
C815 C799 1.349 . S
C815 H807 0.950 . S
C815 C813 1.327 . S
C816 C804 1.349 . S
C816 H810 0.950 . S
C816 C817 1.327 . S
C817 H811 0.950 . S
C817 C816 1.327 . S
C817 C821 1.429 . S
C818 C801 1.574 1_545 S
C818 H812 0.949 . S
C818 C822 1.368 . S
C819 C800 1.429 . S
C819 C813 1.429 . S
C819 C820 1.523 . S
C820 C801 1.368 . S
C820 C814 1.368 . S
C820 C819 1.523 . S
C821 C805 1.429 . S
C821 C817 1.429 . S
C821 C822 1.523 . S
C822 C806 1.368 . S
C822 C818 1.368 . S
C822 C821 1.523 . S
H823 C798 0.950 . S
H824 C800 0.950 . S
H825 C801 0.949 . S
H826 C803 0.950 . S
H827 C805 0.950 . S
C828 C829 1.349 . S
C828 C830 1.327 . S
C828 H853 0.950 . S
C829 C828 1.349 . S
C829 C845 1.349 . S
C830 C828 1.327 . S
C830 C849 1.429 . S
C830 H854 0.950 . S
C831 C848 1.574 . S
C831 C850 1.368 . S
C831 H855 0.949 . S
H832 C836 0.949 . S
C833 C834 1.349 . S
C833 C835 1.327 . S
C833 H856 0.950 . S
C834 C833 1.349 . S
C834 C846 1.349 . S
C835 C833 1.327 . S
C835 C851 1.429 . S
C835 H857 0.950 . S
C836 H832 0.949 . S
C836 C844 1.574 . S
C836 C852 1.368 . S
H837 C845 0.950 . S
H838 C843 0.950 . S
H839 C844 0.949 . S
H840 C846 0.950 . S
H841 C847 0.950 . S
H842 C848 0.949 . S
C843 H838 0.950 . S
C843 C845 1.327 . S
C843 C849 1.429 . S
C844 C836 1.574 . S
C844 H839 0.949 . S
C844 C850 1.368 . S
C845 C829 1.349 . S
C845 H837 0.950 . S
C845 C843 1.327 . S
C846 C834 1.349 . S
C846 H840 0.950 . S
C846 C847 1.327 . S
C847 H841 0.950 . S
C847 C846 1.327 . S
C847 C851 1.429 . S
C848 C831 1.574 . S
C848 H842 0.949 . S
C848 C852 1.368 . S
C849 C830 1.429 . S
C849 C843 1.429 . S
C849 C850 1.523 . S
C850 C831 1.368 . S
C850 C844 1.368 . S
C850 C849 1.523 . S
C851 C835 1.429 . S
C851 C847 1.429 . S
C851 C852 1.523 . S
C852 C836 1.368 . S
C852 C848 1.368 . S
C852 C851 1.523 . S
H853 C828 0.950 . S
H854 C830 0.950 . S
H855 C831 0.949 . S
H856 C833 0.950 . S
H857 C835 0.950 . S
C858 C859 1.349 . S
C858 C860 1.327 . S
C858 H883 0.950 . S
C859 C858 1.349 . S
C859 C875 1.349 . S
C860 C858 1.327 . S
C860 C879 1.429 . S
C860 H884 0.950 . S
C861 C878 1.574 1_455 S
C861 C880 1.368 . S
C861 H885 0.949 . S
H862 C866 0.949 . S
C863 C864 1.349 . S
C863 C865 1.327 . S
C863 H886 0.950 . S
C864 C863 1.349 . S
C864 C876 1.349 . S
C865 C863 1.327 . S
C865 C881 1.429 . S
C865 H887 0.950 . S
C866 H862 0.949 . S
C866 C874 1.574 1_655 S
C866 C882 1.368 . S
H867 C875 0.950 . S
H868 C873 0.950 . S
H869 C874 0.949 . S
H870 C876 0.950 . S
H871 C877 0.950 . S
H872 C878 0.949 . S
C873 H868 0.950 . S
C873 C875 1.327 . S
C873 C879 1.429 . S
C874 C866 1.574 1_455 S
C874 H869 0.949 . S
C874 C880 1.368 . S
C875 C859 1.349 . S
C875 H867 0.950 . S
C875 C873 1.327 . S
C876 C864 1.349 . S
C876 H870 0.950 . S
C876 C877 1.327 . S
C877 H871 0.950 . S
C877 C876 1.327 . S
C877 C881 1.429 . S
C878 C861 1.574 1_655 S
C878 H872 0.949 . S
C878 C882 1.368 . S
C879 C860 1.429 . S
C879 C873 1.429 . S
C879 C880 1.523 . S
C880 C861 1.368 . S
C880 C874 1.368 . S
C880 C879 1.523 . S
C881 C865 1.429 . S
C881 C877 1.429 . S
C881 C882 1.523 . S
C882 C866 1.368 . S
C882 C878 1.368 . S
C882 C881 1.523 . S
H883 C858 0.950 . S
H884 C860 0.950 . S
H885 C861 0.949 . S
H886 C863 0.950 . S
H887 C865 0.950 . S
C169 C7 0.969 . S
C174 C147 0.969 . S
C199 C21 0.969 . S
C204 C161 0.969 . S
C229 C91 0.969 . S
C234 C35 0.969 . S
C259 C49 0.969 . S
C264 C105 0.969 . S
C289 C119 0.969 . S
C294 C63 0.969 . S
C319 C133 0.969 . S
C324 C77 0.969 . S
C349 C120 1.293 . S
C354 C8 1.293 . S
C379 C22 1.294 . S
C384 C134 1.294 . S
C409 C148 1.293 . S
C414 C36 1.293 . S
C439 C50 1.293 . S
C444 C162 1.293 . S
C469 C64 1.294 . S
C474 C92 1.294 . S
C499 C78 1.293 . S
C504 C106 1.293 . S
C529 C143 1.663 . S
C534 C3 1.685 . S
C559 C157 1.663 . S
C564 C17 1.663 . S
C589 C87 1.663 . S
C594 C31 1.663 . S
C619 C45 1.663 . S
C624 C101 1.663 . S
C649 C59 1.663 . S
C654 C115 1.663 . S
C679 C129 1.663 . S
C684 C73 1.663 . S
C709 C9 1.276 . S
C714 C107 1.276 . S
C739 C121 1.276 . S
C744 C23 1.276 . S
C769 C135 1.276 . S
C774 C37 1.276 . S
C799 C51 1.276 . S
C804 C149 1.276 . S
C829 C65 1.276 . S
C834 C163 1.276 . S
C859 C79 1.276 . S
C864 C93 1.276 . S
