# Generated by pormake.
# Topology lhb, (8)-cn, num edge types: 1
# Building blocks:
#     Node 0, Type 0, BuildingBlock: LIZSOE_clean_sbu_0, # of connection points: 8
#     Node 1, Type 0, BuildingBlock: LIZSOE_clean_sbu_0, # of connection points: 8
#     Node 2, Type 0, BuildingBlock: LIZSOE_clean_sbu_0, # of connection points: 8
#     Node 3, Type 0, BuildingBlock: LIZSOE_clean_sbu_0, # of connection points: 8
#     Node 4, Type 0, BuildingBlock: LIZSOE_clean_sbu_0, # of connection points: 8
#     Node 5, Type 0, BuildingBlock: LIZSOE_clean_sbu_0, # of connection points: 8
#     Node 6, Type 0, BuildingBlock: LIZSOE_clean_sbu_0, # of connection points: 8
#     Node 7, Type 0, BuildingBlock: LIZSOE_clean_sbu_0, # of connection points: 8
#     Edge 8, Type (0, 0), BuildingBlock: TEMPAE_clean_linker_10, # of connection points: 2
#     Edge 9, Type (0, 0), BuildingBlock: TEMPAE_clean_linker_10, # of connection points: 2
#     Edge 10, Type (0, 0), BuildingBlock: TEMPAE_clean_linker_10, # of connection points: 2
#     Edge 11, Type (0, 0), BuildingBlock: TEMPAE_clean_linker_10, # of connection points: 2
#     Edge 12, Type (0, 0), BuildingBlock: TEMPAE_clean_linker_10, # of connection points: 2
#     Edge 13, Type (0, 0), BuildingBlock: TEMPAE_clean_linker_10, # of connection points: 2
#     Edge 14, Type (0, 0), BuildingBlock: TEMPAE_clean_linker_10, # of connection points: 2
#     Edge 15, Type (0, 0), BuildingBlock: TEMPAE_clean_linker_10, # of connection points: 2
#     Edge 16, Type (0, 0), BuildingBlock: TEMPAE_clean_linker_10, # of connection points: 2
#     Edge 17, Type (0, 0), BuildingBlock: TEMPAE_clean_linker_10, # of connection points: 2
#     Edge 18, Type (0, 0), BuildingBlock: TEMPAE_clean_linker_10, # of connection points: 2
#     Edge 19, Type (0, 0), BuildingBlock: TEMPAE_clean_linker_10, # of connection points: 2
#     Edge 20, Type (0, 0), BuildingBlock: TEMPAE_clean_linker_10, # of connection points: 2
#     Edge 21, Type (0, 0), BuildingBlock: TEMPAE_clean_linker_10, # of connection points: 2
#     Edge 22, Type (0, 0), BuildingBlock: TEMPAE_clean_linker_10, # of connection points: 2
#     Edge 23, Type (0, 0), BuildingBlock: TEMPAE_clean_linker_10, # of connection points: 2
#     Edge 24, Type (0, 0), BuildingBlock: TEMPAE_clean_linker_10, # of connection points: 2
#     Edge 25, Type (0, 0), BuildingBlock: TEMPAE_clean_linker_10, # of connection points: 2
#     Edge 26, Type (0, 0), BuildingBlock: TEMPAE_clean_linker_10, # of connection points: 2
#     Edge 27, Type (0, 0), BuildingBlock: TEMPAE_clean_linker_10, # of connection points: 2
#     Edge 28, Type (0, 0), BuildingBlock: TEMPAE_clean_linker_10, # of connection points: 2
#     Edge 29, Type (0, 0), BuildingBlock: TEMPAE_clean_linker_10, # of connection points: 2
#     Edge 30, Type (0, 0), BuildingBlock: TEMPAE_clean_linker_10, # of connection points: 2
#     Edge 31, Type (0, 0), BuildingBlock: TEMPAE_clean_linker_10, # of connection points: 2
#     Edge 32, Type (0, 0), BuildingBlock: TEMPAE_clean_linker_10, # of connection points: 2
#     Edge 33, Type (0, 0), BuildingBlock: TEMPAE_clean_linker_10, # of connection points: 2
#     Edge 34, Type (0, 0), BuildingBlock: TEMPAE_clean_linker_10, # of connection points: 2
#     Edge 35, Type (0, 0), BuildingBlock: TEMPAE_clean_linker_10, # of connection points: 2
#     Edge 36, Type (0, 0), BuildingBlock: TEMPAE_clean_linker_10, # of connection points: 2
#     Edge 37, Type (0, 0), BuildingBlock: TEMPAE_clean_linker_10, # of connection points: 2
#     Edge 38, Type (0, 0), BuildingBlock: TEMPAE_clean_linker_10, # of connection points: 2
#     Edge 39, Type (0, 0), BuildingBlock: TEMPAE_clean_linker_10, # of connection points: 2
# Relax obj value: 0.115
# Max RMSD: 0.212
# Mean RMSD: 0.212
data_MOF--net-lhb--node1-LIZSOE_clean_sbu_0--edge1-TEMPAE_clean_linker_10
_symmetry_space_group_name_H-M    P1
_symmetry_Int_Tables_number       1
_symmetry_cell_setting            triclinic
loop_
_symmetry_equiv_pos_as_xyz
'x, y, z'
_cell_length_a     43.83547
_cell_length_b     15.755521
_cell_length_c     44.123538
_cell_angle_alpha  89.930969
_cell_angle_beta   90.046292
_cell_angle_gamma 90.056535
loop_
_atom_site_label
_atom_site_type_symbol
_atom_site_fract_x
_atom_site_fract_y
_atom_site_fract_z
_atom_type_partial_charge
Co0 Co 0.06196 0.16657 1.00902 0.0
N1 N 0.10036 0.21043 1.00319 0.0
C2 C 0.11044 0.22386 0.97473 0.0
N3 N 0.14831 0.25958 1.00483 0.0
C4 C 0.12364 0.23538 0.02122 0.0
C5 C 0.13982 0.2527 0.97562 0.0
Co6 Co 0.95705 0.86516 1.01467 0.0
N7 N 0.91793 0.82302 1.01244 0.0
N8 N 0.86976 0.77888 1.0182 0.0
C9 C 0.87662 0.7765 0.98854 0.0
C10 C 0.90619 0.80245 0.98514 0.0
C11 C 0.89535 0.80562 0.03245 0.0
Co12 Co 1.01008 1.01517 1.01962 0.0
C13 C 0.99511 0.82264 0.03473 0.0
H14 H 0.91832 0.80778 0.96389 0.0
O15 O 0.02353 0.1383 1.01497 0.0
O16 O 0.97977 0.04138 0.05476 0.0
O17 O 0.04323 0.9938 0.05303 0.0
O18 O 0.03952 0.97572 0.98599 0.0
O19 O 0.07139 0.08287 0.97938 0.0
O20 O 0.94448 0.94392 0.04375 0.0
O21 O 0.99604 0.89152 1.01763 0.0
O22 O 0.94697 0.94133 0.98231 0.0
O23 O 0.07637 0.09668 0.0406 0.0
O24 O 0.05093 0.2392 0.03748 0.0
O25 O 0.97844 0.05037 0.98735 0.0
O26 O 0.96879 0.80059 0.04563 0.0
C27 C 0.06841 0.03599 0.05782 0.0
C28 C 0.89978 0.80009 0.0661 0.0
H29 H 0.92082 0.83173 0.07386 0.0
H30 H 0.88004 0.82666 0.0784 0.0
H31 H 0.90127 0.73205 0.07243 0.0
C32 C 0.95402 1.00368 0.06041 0.0
C33 C 0.06248 1.00895 0.97239 0.0
H34 H 0.09729 0.21184 0.95444 0.0
H35 H 0.09777 0.25629 0.06251 0.0
H36 H 0.13576 0.29792 0.06247 0.0
H37 H 0.1291 0.18501 0.06571 0.0
C38 C 0.12128 0.24432 0.05486 0.0
C39 C 0.02423 0.20916 0.03087 0.0
C40 C 0.95545 1.01516 0.97439 0.0
H41 H 0.15423 0.26501 0.95618 0.0
H42 H 0.86088 0.76055 0.97049 0.0
Co43 Co 0.20813 0.41642 0.25538 0.0
N44 N 0.1688 0.4444 0.24326 0.0
C45 C 0.16148 0.4551 0.21368 0.0
N46 N 0.11993 0.48307 0.23902 0.0
C47 C 0.14285 0.46443 0.25829 0.0
C48 C 0.13137 0.47657 0.211 0.0
Co49 Co 0.31503 0.13114 0.25804 0.0
N50 N 0.35415 0.09724 0.24946 0.0
N51 N 0.40417 0.07065 0.24795 0.0
C52 C 0.39334 0.0676 0.21948 0.0
C53 C 0.36264 0.08277 0.22053 0.0
C54 C 0.37986 0.08624 0.26591 0.0
Co55 Co 0.26094 0.27742 0.27081 0.0
C56 C 0.28158 0.08497 0.2859 0.0
H57 H 0.34747 0.08593 0.20122 0.0
O58 O 0.24728 0.40412 0.269 0.0
O59 O 0.29407 0.30203 0.30334 0.0
O60 O 0.22999 0.25686 0.30474 0.0
O61 O 0.22946 0.23315 0.23976 0.0
O62 O 0.21119 0.34847 0.21965 0.0
O63 O 0.32938 0.20664 0.28893 0.0
O64 O 0.27506 0.15119 0.26811 0.0
O65 O 0.32037 0.21369 0.22782 0.0
O66 O 0.19205 0.32288 0.28022 0.0
O67 O 0.20723 0.47645 0.28766 0.0
O68 O 0.28944 0.31938 0.23674 0.0
O69 O 0.30934 0.05747 0.28586 0.0
C70 C 0.20208 0.28377 0.30372 0.0
C71 C 0.38076 0.07964 0.29979 0.0
H72 H 0.39106 0.13738 0.30938 0.0
H73 H 0.39537 1.02518 0.30634 0.0
H74 H 0.35796 0.07131 0.30996 0.0
C75 C 0.32039 0.26501 0.30682 0.0
C76 C 0.21365 0.26883 0.21914 0.0
H77 H 0.17723 0.44973 0.19497 0.0
H78 H 0.142 0.54057 0.29822 0.0
H79 H 0.11725 0.45009 0.29957 0.0
H80 H 0.15779 0.43749 0.30423 0.0
C81 C 0.13998 0.47257 0.29202 0.0
C82 C 0.23629 0.46326 0.28769 0.0
C83 C 0.31144 0.28748 0.22167 0.0
H84 H 0.11888 0.48799 0.1902 0.0
H85 H 0.4069 0.05823 0.19926 0.0
Co86 Co 0.7089 0.92521 0.25859 0.0
N87 N 0.671 0.97053 0.25303 0.0
C88 C 0.66202 0.98848 0.22453 0.0
N89 N 0.62475 0.03004 0.25423 0.0
C90 C 0.64806 0.99839 0.27089 0.0
C91 C 0.63362 1.02386 0.22513 0.0
Co92 Co 0.81159 0.61991 0.26919 0.0
N93 N 0.85006 0.57483 0.27267 0.0
N94 N 0.89984 0.5464 0.27641 0.0
C95 C 0.88434 0.47458 0.28212 0.0
C96 C 0.85386 0.49207 0.27962 0.0
C97 C 0.87868 0.60664 0.27068 0.0
Co98 Co 0.76014 0.77327 0.26947 0.0
C99 C 0.77162 0.58117 0.28548 0.0
H100 H 0.83552 0.44697 0.2827 0.0
O101 O 0.74727 0.89647 0.26402 0.0
O102 O 0.78999 0.8039 0.30471 0.0
O103 O 0.72694 0.75293 0.30259 0.0
O104 O 0.73074 0.73326 0.23572 0.0
O105 O 0.69867 0.84025 0.22949 0.0
O106 O 0.82227 0.69759 0.29807 0.0
O107 O 0.77322 0.64927 0.2681 0.0
O108 O 0.82505 0.69328 0.23635 0.0
O109 O 0.69438 0.85675 0.29039 0.0
O110 O 0.72042 0.9984 0.28664 0.0
O111 O 0.7929 0.80308 0.2378 0.0
O112 O 0.79606 0.55986 0.30013 0.0
C113 C 0.70202 0.79549 0.30744 0.0
C114 C 0.88628 0.69745 0.26336 0.0
H115 H 0.90748 0.71728 0.27517 0.0
H116 H 0.86772 0.7412 0.26956 0.0
H117 H 0.89003 0.70364 0.23861 0.0
C118 C 0.81446 0.76308 0.31225 0.0
C119 C 0.70741 0.76605 0.2225 0.0
H120 H 0.67547 0.97644 0.20446 0.0
H121 H 0.6378 0.06041 0.31288 0.0
H122 H 0.63789 0.94646 0.31437 0.0
H123 H 0.67319 1.0024 0.31342 0.0
C124 C 0.64957 1.00244 0.30477 0.0
C125 C 0.74693 0.96793 0.27967 0.0
C126 C 0.81684 0.76674 0.22698 0.0
H127 H 0.62014 0.04194 0.20558 0.0
H128 H 0.89445 0.41338 0.287 0.0
Co129 Co 0.06205 0.68165 0.50817 0.0
N130 N 0.10008 0.72951 0.50311 0.0
C131 C 0.11044 0.74396 0.47478 0.0
N132 N 0.14565 0.7936 0.5054 0.0
C133 C 0.12172 0.76303 0.52148 0.0
C134 C 0.13841 0.78167 0.4761 0.0
Co135 Co 0.9604 0.37317 0.50881 0.0
N136 N 0.92237 0.3258 0.50461 0.0
N137 N 0.87688 0.26132 0.50751 0.0
C138 C 0.88502 0.26642 0.47817 0.0
C139 C 0.9129 0.30483 0.47654 0.0
C140 C 0.90012 0.29708 0.52326 0.0
Co141 Co 0.01145 0.52713 0.51678 0.0
C142 C 0.99887 0.33315 0.52953 0.0
H143 H 0.92575 0.31623 0.45601 0.0
O144 O 0.02394 0.65102 0.51345 0.0
O145 O 0.97968 0.54833 0.5513 0.0
O146 O 0.04433 0.5045 0.55025 0.0
O147 O 0.04166 0.49256 0.48338 0.0
O148 O 0.07158 0.60378 0.47606 0.0
O149 O 0.94608 0.4464 0.53932 0.0
O150 O 0.99877 0.40342 0.51323 0.0
O151 O 0.94956 0.45308 0.47774 0.0
O152 O 0.07757 0.60652 0.53749 0.0
O153 O 0.05095 0.74656 0.53922 0.0
O154 O 0.98014 0.56323 0.48456 0.0
O155 O 0.97263 0.30508 0.53857 0.0
C156 C 0.06991 0.54503 0.55448 0.0
C157 C 0.90238 0.29637 0.55707 0.0
H158 H 0.92597 0.30338 0.56534 0.0
H159 H 0.88911 0.35 0.56624 0.0
H160 H 0.8927 0.23622 0.56594 0.0
C161 C 0.9543 0.50745 0.55623 0.0
C162 C 0.0636 0.52878 0.46916 0.0
H163 H 0.09823 0.72856 0.45421 0.0
H164 H 0.09607 0.81258 0.55894 0.0
H165 H 0.13606 0.81599 0.56435 0.0
H166 H 0.11592 0.71534 0.56669 0.0
C167 C 0.1174 0.77706 0.55479 0.0
C168 C 0.02448 0.72059 0.53005 0.0
C169 C 0.95753 0.52824 0.471 0.0
H170 H 0.15275 0.79729 0.45691 0.0
H171 H 0.87148 0.2449 0.45913 0.0
Co172 Co 0.20772 0.91953 0.75764 0.0
N173 N 0.16881 0.95443 0.7491 0.0
C174 C 0.16056 0.97019 0.72018 0.0
N175 N 0.11948 0.98921 0.74764 0.0
C176 C 0.1434 0.9693 0.7656 0.0
C177 C 0.13025 0.99046 0.71915 0.0
Co178 Co 0.31574 0.63753 0.75695 0.0
N179 N 0.35598 0.61452 0.74585 0.0
N180 N 0.40631 0.59099 0.7435 0.0
C181 C 0.3956 0.59576 0.71507 0.0
C182 C 0.36482 0.60852 0.71656 0.0
C183 C 0.38186 0.59997 0.7619 0.0
Co184 Co 0.26164 0.77303 0.77074 0.0
C185 C 0.28759 0.58881 0.78865 0.0
H186 H 0.34985 0.61212 0.69718 0.0
O187 O 0.24744 0.89878 0.76761 0.0
O188 O 0.29166 0.7955 0.80524 0.0
O189 O 0.22826 0.74815 0.80295 0.0
O190 O 0.23357 0.73094 0.73614 0.0
O191 O 0.20216 0.83625 0.7277 0.0
O192 O 0.33038 0.73453 0.78087 0.0
O193 O 0.27603 0.64643 0.76961 0.0
O194 O 0.31186 0.70168 0.72038 0.0
O195 O 0.19333 0.84488 0.78865 0.0
O196 O 0.21373 0.9939 0.78523 0.0
O197 O 0.29324 0.81718 0.73995 0.0
O198 O 0.3169 0.58086 0.79005 0.0
C199 C 0.20212 0.78603 0.80649 0.0
C200 C 0.38216 0.57642 0.79488 0.0
H201 H 0.36761 0.6192 0.80816 0.0
H202 H 0.40542 0.57585 0.80456 0.0
H203 H 0.37265 0.51148 0.79733 0.0
C204 C 0.31979 0.77116 0.80453 0.0
C205 C 0.21137 0.7629 0.7212 0.0
H206 H 0.17568 0.96564 0.7009 0.0
H207 H 0.13004 0.03336 0.8062 0.0
H208 H 0.13 0.92059 0.80884 0.0
H209 H 0.16547 0.97632 0.80993 0.0
C210 C 0.14258 0.97518 0.79952 0.0
C211 C 0.24137 0.96552 0.78521 0.0
C212 C 0.30893 0.78114 0.71938 0.0
H213 H 0.11689 1.00278 0.69897 0.0
H214 H 0.40919 0.59106 0.69465 0.0
Co215 Co 0.81202 0.12345 0.75492 0.0
N216 N 0.85079 0.08452 0.74682 0.0
C217 C 0.86067 0.07532 0.71805 0.0
N218 N 0.8981 0.03175 0.74712 0.0
C219 C 0.87386 0.05453 0.76422 0.0
C220 C 0.88976 0.04466 0.71817 0.0
Co221 Co 0.711 0.42571 0.76213 0.0
N222 N 0.67359 0.47098 0.75188 0.0
N223 N 0.62713 0.52969 0.75111 0.0
C224 C 0.63631 0.5183 0.72234 0.0
C225 C 0.66476 0.48288 0.72286 0.0
C226 C 0.65026 0.50127 0.76872 0.0
Co227 Co 0.76118 0.27232 0.76878 0.0
C228 C 0.75108 0.46342 0.75308 0.0
H229 H 0.67808 0.46567 0.70318 0.0
O230 O 0.77286 0.14668 0.76404 0.0
O231 O 0.72576 0.24802 0.8002 0.0
O232 O 0.79144 0.28383 0.8045 0.0
O233 O 0.79394 0.3168 0.73902 0.0
O234 O 0.81716 0.20247 0.72283 0.0
O235 O 0.69523 0.36433 0.7943 0.0
O236 O 0.7486 0.39667 0.7714 0.0
O237 O 0.69882 0.33578 0.73576 0.0
O238 O 0.8281 0.2013 0.78469 0.0
O239 O 0.80579 0.05427 0.78457 0.0
O240 O 0.7346 0.24157 0.73269 0.0
O241 O 0.73081 0.47492 0.73192 0.0
C242 C 0.81844 0.24999 0.80577 0.0
C243 C 0.6508 0.50761 0.80259 0.0
H244 H 0.67433 0.50958 0.81149 0.0
H245 H 0.63945 0.45123 0.81237 0.0
H246 H 0.63828 0.56501 0.81012 0.0
C247 C 0.70235 0.29572 0.80813 0.0
C248 C 0.81251 0.28126 0.72068 0.0
H249 H 0.84736 0.08896 0.69802 0.0
H250 H 0.85529 0.97571 0.79901 0.0
H251 H 0.89229 1.01499 0.80798 0.0
H252 H 0.85948 0.08414 0.80984 0.0
C253 C 0.87038 0.03205 0.79716 0.0
C254 C 0.77803 0.08106 0.78224 0.0
C255 C 0.70881 0.26847 0.72435 0.0
H256 H 0.90399 0.03415 0.69848 0.0
H257 H 0.62292 0.53222 0.70231 0.0
Co258 Co 0.5663 0.16447 0.51044 0.0
N259 N 0.60681 0.18856 0.50169 0.0
C260 C 0.61548 0.20816 0.47318 0.0
N261 N 0.65769 0.20353 0.50001 0.0
C262 C 0.63311 0.18902 0.51786 0.0
C263 C 0.64654 0.21626 0.47199 0.0
Co264 Co 0.45544 0.88531 0.50769 0.0
N265 N 0.41576 0.85476 0.49913 0.0
N266 N 0.36545 0.83128 0.49878 0.0
C267 C 0.37532 0.83067 0.46997 0.0
C268 C 0.4062 0.84422 0.47028 0.0
C269 C 0.39042 0.84381 0.51617 0.0
Co270 Co 0.51085 0.02826 0.52171 0.0
C271 C 0.4886 0.83591 0.53531 0.0
H272 H 0.42074 0.84882 0.45055 0.0
O273 O 0.52594 0.15422 0.5207 0.0
O274 O 0.47733 0.05373 0.5537 0.0
O275 O 0.53996 1.0048 0.55712 0.0
O276 O 0.54276 0.98434 0.49092 0.0
O277 O 0.56543 0.09894 0.47445 0.0
O278 O 0.44185 0.95929 0.53899 0.0
O279 O 0.49563 0.90283 0.51803 0.0
O280 O 0.45092 0.96976 0.4782 0.0
O281 O 0.57965 0.06902 0.53546 0.0
O282 O 0.56504 0.22341 0.54288 0.0
O283 O 0.48356 0.07217 0.4869 0.0
O284 O 0.46069 0.80936 0.53481 0.0
C285 C 0.56783 0.03155 0.55833 0.0
C286 C 0.39033 0.83388 0.54996 0.0
H287 H 0.41334 0.83307 0.56004 0.0
H288 H 0.37725 0.88582 0.56042 0.0
H289 H 0.37858 0.77361 0.55573 0.0
C290 C 0.451 1.0167 0.55712 0.0
C291 C 0.56056 1.02047 0.47194 0.0
H292 H 0.6001 0.21491 0.45416 0.0
H293 H 0.65453 0.2203 0.56012 0.0
H294 H 0.63743 0.11646 0.55846 0.0
H295 H 0.61428 0.20987 0.56264 0.0
C296 C 0.63472 0.18365 0.5517 0.0
C297 C 0.5359 0.213 0.54012 0.0
C298 C 0.46108 0.04222 0.47187 0.0
H299 H 0.65998 0.22922 0.45193 0.0
H300 H 0.36101 0.82384 0.4501 0.0
Co301 Co 0.56363 0.6727 1.01149 0.0
N302 N 0.60294 0.71409 1.00814 0.0
C303 C 0.61537 0.72499 0.98048 0.0
N304 N 0.65063 0.76395 1.01311 0.0
C305 C 0.62467 0.74122 0.02774 0.0
C306 C 0.64456 0.75395 0.98342 0.0
Co307 Co 0.45688 0.3764 1.00998 0.0
N308 N 0.41796 0.33563 1.00521 0.0
N309 N 0.3693 0.29389 1.00774 0.0
C310 C 0.37802 0.29159 0.97858 0.0
C311 C 0.40791 0.3162 0.97716 0.0
C312 C 0.39406 0.31906 0.02366 0.0
Co313 Co 0.51004 0.52441 1.01845 0.0
C314 C 0.49392 0.33244 0.03199 0.0
H315 H 0.42142 0.32153 0.95674 0.0
O316 O 0.52465 0.64711 1.01536 0.0
O317 O 0.47825 0.5503 0.05233 0.0
O318 O 0.54139 0.49793 0.0528 0.0
O319 O 0.54047 0.48584 0.98574 0.0
O320 O 0.5731 0.59208 0.98052 0.0
O321 O 0.44323 0.45338 0.03961 0.0
O322 O 0.49559 0.40164 1.01515 0.0
O323 O 0.44854 0.45527 0.97827 0.0
O324 O 0.57618 0.59734 0.04184 0.0
O325 O 0.55231 0.74131 0.0412 0.0
O326 O 0.47998 0.56337 0.98529 0.0
O327 O 0.46695 0.30813 0.04041 0.0
C328 C 0.56709 0.53634 0.05828 0.0
C329 C 0.39605 0.31451 0.05751 0.0
H330 H 0.41868 0.33263 0.06636 0.0
H331 H 0.37866 0.35556 0.06796 0.0
H332 H 0.39101 0.24844 0.06465 0.0
C333 C 0.45215 0.51301 0.05677 0.0
C334 C 0.56385 0.51887 0.97283 0.0
H335 H 0.60391 0.71218 0.95927 0.0
H336 H 0.59862 0.79731 0.06367 0.0
H337 H 0.63816 0.78921 0.07192 0.0
H338 H 0.61435 0.69522 0.07226 0.0
C339 C 0.61888 0.75628 0.06078 0.0
C340 C 0.52563 0.7164 0.03213 0.0
C341 C 0.45746 0.52925 0.97124 0.0
H342 H 0.6605 0.76445 0.96506 0.0
H343 H 0.36341 0.27627 0.95955 0.0
C344 C 0.11954 1.01903 0.08393 0.0
C345 C 0.0877 0.03032 0.08648 0.0
C346 C 0.14041 0.04714 0.10664 0.0
C347 C 0.12984 0.08909 0.13321 0.0
C348 C 0.09759 0.09619 0.13675 0.0
C349 C 0.07721 0.06743 0.11362 0.0
C350 C 0.17412 0.0371 0.10111 0.0
C351 C 0.08455 0.14023 0.16412 0.0
C352 C 0.18589 0.13292 0.20083 0.0
C353 C 0.19435 0.2186 0.19642 0.0
C354 C 0.1652 0.0902 0.18083 0.0
C355 C 0.15226 0.133 0.15534 0.0
C356 C 0.16117 0.21909 0.1509 0.0
C357 C 0.18188 0.25965 0.17094 0.0
C358 C 0.15674 0.99931 0.18735 0.0
C359 C 0.14968 0.26926 0.12429 0.0
H360 H 0.12842 0.99388 0.06285 0.0
H361 H 0.05303 0.08047 0.11576 0.0
H362 H 0.18543 0.09989 0.10223 0.0
H363 H 0.18428 0.99701 0.11916 0.0
H364 H 0.17912 1.00793 0.07875 0.0
H365 H 0.05942 0.13219 0.16573 0.0
H366 H 0.09522 0.11544 0.18516 0.0
H367 H 0.08977 0.2091 0.16281 0.0
H368 H 0.19486 0.09955 0.22038 0.0
H369 H 0.18833 0.32483 0.16649 0.0
H370 H 0.16331 0.95856 0.16795 0.0
H371 H 0.13165 0.99377 0.19007 0.0
H372 H 0.16798 0.97478 0.20816 0.0
H373 H 0.16364 0.25182 0.10433 0.0
H374 H 0.15204 0.33876 0.12788 0.0
H375 H 0.1254 0.25496 0.11946 0.0
C376 C 0.9041 1.01338 0.08846 0.0
C377 C 0.93625 1.01053 0.08987 0.0
C378 C 0.88522 0.98336 0.11241 0.0
C379 C 0.8982 0.94762 0.13908 0.0
C380 C 0.93063 0.95186 0.14186 0.0
C381 C 0.94907 0.98183 0.11736 0.0
C382 C 0.85114 0.98462 0.10813 0.0
C383 C 0.94611 0.92022 0.1702 0.0
C384 C 0.8389 0.90282 0.20338 0.0
C385 C 0.83708 0.81349 0.20421 0.0
C386 C 0.8593 0.94675 0.18364 0.0
C387 C 0.87806 0.90148 0.16267 0.0
C388 C 0.87625 0.81086 0.16366 0.0
C389 C 0.85633 0.76896 0.18429 0.0
C390 C 0.8607 0.04212 0.18636 0.0
C391 C 0.89465 0.75512 0.1428 0.0
H392 H 0.89358 0.03295 0.06734 0.0
H393 H 0.97367 0.97634 0.11892 0.0
H394 H 0.84195 0.91921 0.11025 0.0
H395 H 0.84036 1.02364 0.12601 0.0
H396 H 0.84444 1.01155 0.08585 0.0
H397 H 0.96983 0.94455 0.17206 0.0
H398 H 0.93312 0.93955 0.19065 0.0
H399 H 0.94699 0.84986 0.16979 0.0
H400 H 0.82493 0.93912 0.21894 0.0
H401 H 0.85568 0.70016 0.18451 0.0
H402 H 0.83858 0.0696 0.179 0.0
H403 H 0.87935 0.07129 0.17296 0.0
H404 H 0.86382 0.06002 0.21051 0.0
H405 H 0.87892 0.72332 0.12666 0.0
H406 H 0.90602 0.70426 0.1561 0.0
H407 H 0.91227 0.78954 0.12975 0.0
C408 C 0.09797 0.52627 0.42251 0.0
C409 C 0.08198 0.48152 0.44518 0.0
C410 C 0.11691 0.48474 0.40101 0.0
C411 C 0.12109 0.39519 0.40208 0.0
C412 C 0.10509 0.3495 0.42501 0.0
C413 C 0.08561 0.39261 0.44581 0.0
C414 C 0.13202 0.53723 0.37664 0.0
C415 C 0.10918 0.25489 0.42816 0.0
C416 C 0.14977 0.28683 0.32849 0.0
C417 C 0.18182 0.2882 0.33168 0.0
C418 C 0.12991 0.31834 0.35133 0.0
C419 C 0.14184 0.35043 0.37902 0.0
C420 C 0.17403 0.34523 0.3834 0.0
C421 C 0.19346 0.31515 0.35984 0.0
C422 C 0.09613 0.32264 0.34483 0.0
C423 C 0.18824 0.3761 0.41249 0.0
H424 H 0.09549 0.59461 0.42136 0.0
H425 H 0.07394 0.35667 0.46327 0.0
H426 H 0.15679 0.52333 0.37549 0.0
H427 H 0.12198 0.52046 0.35437 0.0
H428 H 0.12897 0.60644 0.38031 0.0
H429 H 0.10261 0.22263 0.40681 0.0
H430 H 0.13359 0.24029 0.43233 0.0
H431 H 0.0954 0.22802 0.44699 0.0
H432 H 0.14023 0.26733 0.30692 0.0
H433 H 0.21798 0.31816 0.36281 0.0
H434 H 0.08827 0.38951 0.34597 0.0
H435 H 0.0833 0.28662 0.36226 0.0
H436 H 0.09028 0.29676 0.32215 0.0
H437 H 0.18682 0.44634 0.4135 0.0
H438 H 0.2126 0.35738 0.4144 0.0
H439 H 0.17562 0.35056 0.43231 0.0
C440 C 0.82289 0.74349 0.36833 0.0
C441 C 0.83336 0.77642 0.34051 0.0
C442 C 0.84337 0.71355 0.39109 0.0
C443 C 0.87548 0.71321 0.38596 0.0
C444 C 0.88617 0.75143 0.35878 0.0
C445 C 0.86525 0.78367 0.33704 0.0
C446 C 0.83036 0.67644 0.41981 0.0
C447 C 0.9197 0.75114 0.35106 0.0
C448 C 0.93372 0.66561 0.45059 0.0
C449 C 0.93832 0.57734 0.44813 0.0
C450 C 0.91332 0.71017 0.43105 0.0
C451 C 0.89745 0.66684 0.40748 0.0
C452 C 0.90288 0.57823 0.40431 0.0
C453 C 0.92251 0.53485 0.42479 0.0
C454 C 0.90826 0.80374 0.43607 0.0
C455 C 0.88794 0.52875 0.37905 0.0
H456 H 0.79857 0.73416 0.3713 0.0
H457 H 0.87398 0.80772 0.31577 0.0
H458 H 0.83237 0.60629 0.41915 0.0
H459 H 0.84337 0.69915 0.43982 0.0
H460 H 0.80593 0.69311 0.42279 0.0
H461 H 0.92499 0.7937 0.33167 0.0
H462 H 0.93367 0.77075 0.37082 0.0
H463 H 0.92667 0.68568 0.34488 0.0
H464 H 0.94529 0.69969 0.46856 0.0
H465 H 0.92567 0.46699 0.42234 0.0
H466 H 0.88376 0.81564 0.44071 0.0
H467 H 0.91427 0.83979 0.41531 0.0
H468 H 0.92198 0.82871 0.45529 0.0
H469 H 0.86279 0.53019 0.38176 0.0
H470 H 0.89549 0.46148 0.37852 0.0
H471 H 0.8933 0.55844 0.35685 0.0
C472 C 0.07975 0.55498 0.61145 0.0
C473 C 0.09049 0.53585 0.58213 0.0
C474 C 0.09988 0.58024 0.63534 0.0
C475 C 0.13195 0.58795 0.63031 0.0
C476 C 0.14296 0.5639 0.60125 0.0
C477 C 0.12243 0.53837 0.57796 0.0
C478 C 0.08645 0.60526 0.66544 0.0
C479 C 0.17647 0.5707 0.59399 0.0
C480 C 0.17692 0.76016 0.67492 0.0
C481 C 0.19362 0.71448 0.69682 0.0
C482 C 0.15717 0.72032 0.65379 0.0
C483 C 0.15323 0.63067 0.65372 0.0
C484 C 0.1703 0.58346 0.67558 0.0
C485 C 0.19022 0.62538 0.69657 0.0
C486 C 0.14157 0.77563 0.63067 0.0
C487 C 0.16707 0.48837 0.67723 0.0
H488 H 0.05532 0.55698 0.61513 0.0
H489 H 0.13132 0.52661 0.55543 0.0
H490 H 0.09963 0.57623 0.68427 0.0
H491 H 0.08793 0.67522 0.66806 0.0
H492 H 0.06216 0.58593 0.66749 0.0
H493 H 0.18155 0.55447 0.57003 0.0
H494 H 0.18452 0.63617 0.59846 0.0
H495 H 0.18965 0.5277 0.60898 0.0
H496 H 0.17929 0.82856 0.67417 0.0
H497 H 0.20239 0.5884 0.71339 0.0
H498 H 0.1396 0.84237 0.63853 0.0
H499 H 0.11845 0.75203 0.62488 0.0
H500 H 0.15573 0.77534 0.6099 0.0
H501 H 0.18135 0.46019 0.69545 0.0
H502 H 0.17366 0.45962 0.65526 0.0
H503 H 0.14285 0.47137 0.68139 0.0
C504 C 0.83671 0.41941 0.69946 0.0
C505 C 0.83156 0.3311 0.69768 0.0
C506 C 0.85684 0.46241 0.67897 0.0
C507 C 0.87257 0.41704 0.65574 0.0
C508 C 0.86718 0.32807 0.65406 0.0
C509 C 0.84692 0.2874 0.67444 0.0
C510 C 0.86167 0.55656 0.68256 0.0
C511 C 0.88183 0.27394 0.63009 0.0
C512 C 0.90267 0.5184 0.58122 0.0
C513 C 0.9347 0.51597 0.58451 0.0
C514 C 0.8824 0.49179 0.60459 0.0
C515 C 0.89383 0.46131 0.63274 0.0
C516 C 0.9261 0.4642 0.637 0.0
C517 C 0.94593 0.49075 0.61308 0.0
C518 C 0.84866 0.489 0.59802 0.0
C519 C 0.93995 0.43239 0.66613 0.0
H520 H 0.82552 0.45485 0.71728 0.0
H521 H 0.84313 0.21988 0.67197 0.0
H522 H 0.85524 0.58991 0.66135 0.0
H523 H 0.84815 0.5833 0.70157 0.0
H524 H 0.88621 0.56971 0.68669 0.0
H525 H 0.88541 0.20798 0.6383 0.0
H526 H 0.86601 0.27079 0.6105 0.0
H527 H 0.9041 0.29951 0.62247 0.0
H528 H 0.89338 0.53453 0.55918 0.0
H529 H 0.97039 0.48489 0.61598 0.0
H530 H 0.83593 0.52409 0.61573 0.0
H531 H 0.84067 0.42221 0.59865 0.0
H532 H 0.84296 0.5164 0.5755 0.0
H533 H 0.92771 0.45934 0.68591 0.0
H534 H 0.96455 0.44869 0.66793 0.0
H535 H 0.93754 0.3623 0.66724 0.0
C536 C 0.15082 0.7725 0.83208 0.0
C537 C 0.18279 0.77842 0.83488 0.0
C538 C 0.13066 0.79885 0.8555 0.0
C539 C 0.14225 0.83257 0.88307 0.0
C540 C 0.17455 0.83234 0.88699 0.0
C541 C 0.19423 0.80603 0.86304 0.0
C542 C 0.09683 0.79802 0.84939 0.0
C543 C 0.1885 0.86614 0.91578 0.0
C544 C 0.096 1.00574 0.92544 0.0
C545 C 0.08079 0.9609 0.94859 0.0
C546 C 0.1155 0.96516 0.90428 0.0
C547 C 0.121 0.87625 0.906 0.0
C548 C 0.10572 0.8303 0.9294 0.0
C549 C 0.08569 0.87255 0.94998 0.0
C550 C 0.12933 1.01833 0.87938 0.0
C551 C 0.11119 0.73646 0.93325 0.0
H552 H 0.14141 0.75392 0.81034 0.0
H553 H 0.21868 0.81382 0.86556 0.0
H554 H 0.08422 0.77079 0.86887 0.0
H555 H 0.08874 0.86421 0.84629 0.0
H556 H 0.09111 0.76104 0.82874 0.0
H557 H 0.21318 0.85086 0.91747 0.0
H558 H 0.18583 0.93616 0.91643 0.0
H559 H 0.17656 0.83967 0.93585 0.0
H560 H 0.09249 0.07364 0.92367 0.0
H561 H 0.07469 0.83666 0.96787 0.0
H562 H 0.1154 1.00986 0.85863 0.0
H563 H 0.15303 0.99873 0.87416 0.0
H564 H 0.12937 0.08693 0.88518 0.0
H565 H 0.10527 0.70227 0.91209 0.0
H566 H 0.09769 0.70911 0.9522 0.0
H567 H 0.13577 0.72499 0.93768 0.0
C568 C 0.82631 0.23258 0.86304 0.0
C569 C 0.83836 0.24992 0.83408 0.0
C570 C 0.8452 0.20453 0.8875 0.0
C571 C 0.87713 0.19152 0.88323 0.0
C572 C 0.88953 0.21429 0.85461 0.0
C573 C 0.87032 0.2434 0.83085 0.0
C574 C 0.83057 0.18435 0.91755 0.0
C575 C 0.92294 0.20121 0.84813 0.0
C576 C 0.93491 0.15123 0.94914 0.0
C577 C 0.93657 0.06188 0.95051 0.0
C578 C 0.9153 0.19401 0.92827 0.0
C579 C 0.89708 0.14738 0.90727 0.0
C580 C 0.89906 0.05728 0.90839 0.0
C581 C 0.91819 1.0163 0.92991 0.0
C582 C 0.9137 0.28957 0.92906 0.0
C583 C 0.88131 1.00343 0.8863 0.0
H584 H 0.8018 0.23528 0.86612 0.0
H585 H 0.8802 0.25491 0.8087 0.0
H586 H 0.82931 0.11452 0.92053 0.0
H587 H 0.8445 0.21011 0.93644 0.0
H588 H 0.80711 0.21055 0.91915 0.0
H589 H 0.92989 0.22946 0.82612 0.0
H590 H 0.93722 0.22918 0.8663 0.0
H591 H 0.92773 0.13211 0.84765 0.0
H592 H 0.9484 0.18801 0.965 0.0
H593 H 0.91896 0.94757 0.93037 0.0
H594 H 0.88978 0.30989 0.93293 0.0
H595 H 0.92089 0.31626 0.90693 0.0
H596 H 0.92835 0.31706 0.94712 0.0
H597 H 0.85667 1.01901 0.8874 0.0
H598 H 0.88418 0.93442 0.89062 0.0
H599 H 0.88912 1.01747 0.86295 0.0
C600 C 0.69705 0.21755 0.6707 0.0
C601 C 0.68943 0.22054 0.70159 0.0
C602 C 0.67747 0.17943 0.64882 0.0
C603 C 0.64932 0.14079 0.65773 0.0
C604 C 0.64234 0.14082 0.68929 0.0
C605 C 0.66191 0.18183 0.71045 0.0
C606 C 0.68661 0.18673 0.61603 0.0
C607 C 0.61368 0.09885 0.70085 0.0
C608 C 0.57881 0.12038 0.60454 0.0
C609 C 0.58432 0.04516 0.58825 0.0
C610 C 0.5996 0.15247 0.62645 0.0
C611 C 0.62631 0.10592 0.63441 0.0
C612 C 0.63057 1.02573 0.61992 0.0
C613 C 0.61036 0.99815 0.59648 0.0
C614 C 0.59294 0.23912 0.63943 0.0
C615 C 0.65705 0.96957 0.62844 0.0
H616 H 0.71794 0.24817 0.66335 0.0
H617 H 0.65559 0.18362 0.7342 0.0
H618 H 0.71182 0.18461 0.61354 0.0
H619 H 0.67656 0.13636 0.60174 0.0
H620 H 0.67882 0.24918 0.60735 0.0
H621 H 0.59381 0.14017 0.69592 0.0
H622 H 0.60988 0.03711 0.68933 0.0
H623 H 0.61459 0.08793 0.72571 0.0
H624 H 0.55911 0.15831 0.59854 0.0
H625 H 0.61553 0.94081 0.58395 0.0
H626 H 0.61115 0.2642 0.65436 0.0
H627 H 0.57126 0.23652 0.6524 0.0
H628 H 0.5895 0.28509 0.62065 0.0
H629 H 0.67806 0.99267 0.61711 0.0
H630 H 0.65316 0.90284 0.62129 0.0
H631 H 0.66106 0.97083 0.65329 0.0
C632 C 0.44337 0.98243 0.61263 0.0
C633 C 0.43232 1.02118 0.58599 0.0
C634 C 0.42345 0.95302 0.63594 0.0
C635 C 0.39122 0.96181 0.63309 0.0
C636 C 0.38016 1.00613 0.60723 0.0
C637 C 0.40055 0.03431 0.5842 0.0
C638 C 0.43688 0.90617 0.66259 0.0
C639 C 0.34637 1.01711 0.6024 0.0
C640 C 0.33937 0.79103 0.67043 0.0
C641 C 0.32784 0.83122 0.69648 0.0
C642 C 0.35973 0.832 0.65016 0.0
C643 C 0.3692 0.91731 0.65519 0.0
C644 C 0.35724 0.95909 0.68126 0.0
C645 C 0.33683 0.91614 0.70134 0.0
C646 C 0.37025 0.78308 0.62281 0.0
C647 C 0.36643 0.04915 0.68828 0.0
H648 H 0.46753 0.96831 0.61411 0.0
H649 H 0.39129 0.0608 0.56345 0.0
H650 H 0.42684 0.92962 0.68409 0.0
H651 H 0.43123 0.83767 0.66071 0.0
H652 H 0.46208 0.913 0.66373 0.0
H653 H 0.34135 0.0611 0.58336 0.0
H654 H 0.336 0.95442 0.59734 0.0
H655 H 0.33533 0.04164 0.62323 0.0
H656 H 0.33243 0.72637 0.66572 0.0
H657 H 0.32855 0.94861 0.72134 0.0
H658 H 0.39382 0.80025 0.61609 0.0
H659 H 0.35461 0.7978 0.60376 0.0
H660 H 0.36934 0.71348 0.62682 0.0
H661 H 0.39161 0.05329 0.69052 0.0
H662 H 0.35583 0.07285 0.70949 0.0
H663 H 0.3597 0.09151 0.66932 0.0
C664 C 0.60008 0.51487 0.92784 0.0
C665 C 0.58229 0.47051 0.94921 0.0
C666 C 0.61933 0.47286 0.90682 0.0
C667 C 0.62174 0.38276 0.90682 0.0
C668 C 0.60383 0.33728 0.92839 0.0
C669 C 0.58426 0.38119 0.94892 0.0
C670 C 0.63618 0.52612 0.88385 0.0
C671 C 0.60581 0.2419 0.93024 0.0
C672 C 0.65065 0.28426 0.83182 0.0
C673 C 0.68258 0.28124 0.83573 0.0
C674 C 0.63064 0.31254 0.855 0.0
C675 C 0.64225 0.3374 0.88372 0.0
C676 C 0.67418 0.3272 0.88876 0.0
C677 C 0.69382 0.30045 0.86484 0.0
C678 C 0.59729 0.32387 0.84764 0.0
C679 C 0.68805 0.35158 0.91877 0.0
H680 H 0.59878 0.58351 0.92728 0.0
H681 H 0.57113 0.34544 0.96537 0.0
H682 H 0.65924 0.50067 0.87902 0.0
H683 H 0.62297 0.52583 0.86241 0.0
H684 H 0.63851 0.59308 0.89138 0.0
H685 H 0.59101 0.21533 0.94835 0.0
H686 H 0.59905 0.21333 0.90827 0.0
H687 H 0.62975 0.22271 0.93469 0.0
H688 H 0.6415 0.27285 0.80934 0.0
H689 H 0.71831 0.3019 0.86824 0.0
H690 H 0.59135 0.39215 0.84921 0.0
H691 H 0.58301 0.28954 0.86437 0.0
H692 H 0.59145 0.30096 0.82455 0.0
H693 H 0.68795 0.42174 0.921 0.0
H694 H 0.71194 0.32889 0.92095 0.0
H695 H 0.67435 0.32526 0.93773 0.0
C696 C 0.43517 0.66575 0.94815 0.0
C697 C 0.43941 0.57713 0.94716 0.0
C698 C 0.41551 0.70852 0.92734 0.0
C699 C 0.40004 0.6628 0.90405 0.0
C700 C 0.40479 0.57352 0.90273 0.0
C701 C 0.42389 0.53239 0.9242 0.0
C702 C 0.41066 0.80272 0.93084 0.0
C703 C 0.3904 0.52058 0.87807 0.0
C704 C 0.32772 0.73845 0.86066 0.0
C705 C 0.33962 0.76697 0.8328 0.0
C706 C 0.347 0.70946 0.88456 0.0
C707 C 0.3793 0.70731 0.88086 0.0
C708 C 0.39141 0.74165 0.85359 0.0
C709 C 0.37167 0.77143 0.83031 0.0
C710 C 0.33258 0.67617 0.91321 0.0
C711 C 0.42528 0.74074 0.84775 0.0
H712 H 0.4464 0.70154 0.96591 0.0
H713 H 0.42682 0.46419 0.92283 0.0
H714 H 0.38608 0.81566 0.93473 0.0
H715 H 0.42399 0.82961 0.94998 0.0
H716 H 0.41724 0.83628 0.90972 0.0
H717 H 0.39057 0.45186 0.88375 0.0
H718 H 0.36654 0.54012 0.8735 0.0
H719 H 0.40363 0.5296 0.85692 0.0
H720 H 0.30319 0.73325 0.86311 0.0
H721 H 0.38144 0.79203 0.80896 0.0
H722 H 0.34456 0.70179 0.93339 0.0
H723 H 0.33472 0.60601 0.91389 0.0
H724 H 0.30801 0.69284 0.9147 0.0
H725 H 0.43823 0.76154 0.86801 0.0
H726 H 0.43155 0.78239 0.82841 0.0
H727 H 0.43252 0.67488 0.84252 0.0
C728 C 0.61797 0.52108 0.08416 0.0
C729 C 0.58596 0.52586 0.08688 0.0
C730 C 0.63807 0.54863 0.10748 0.0
C731 C 0.6264 0.58226 0.1351 0.0
C732 C 0.5941 0.57871 0.13919 0.0
C733 C 0.57446 0.55227 0.11513 0.0
C734 C 0.6719 0.54416 0.10162 0.0
C735 C 0.57989 0.60789 0.16846 0.0
C736 C 0.68803 0.6276 0.19751 0.0
C737 C 0.68829 0.71693 0.19937 0.0
C738 C 0.66777 0.58308 0.17768 0.0
C739 C 0.64738 0.62799 0.15803 0.0
C740 C 0.64799 0.71845 0.15981 0.0
C741 C 0.66791 0.76061 0.18022 0.0
C742 C 0.66836 0.48744 0.17852 0.0
C743 C 0.62789 0.77414 0.14043 0.0
H744 H 0.62745 0.50217 0.0625 0.0
H745 H 0.54999 0.55873 0.11774 0.0
H746 H 0.68081 0.48381 0.11105 0.0
H747 H 0.67707 0.54458 0.07697 0.0
H748 H 0.68428 0.59714 0.11258 0.0
H749 H 0.55675 0.58047 0.17158 0.0
H750 H 0.59432 0.59003 0.18816 0.0
H751 H 0.57771 0.67803 0.16816 0.0
H752 H 0.70309 0.59184 0.21224 0.0
H753 H 0.66739 0.82934 0.18101 0.0
H754 H 0.68836 0.46466 0.16547 0.0
H755 H 0.6474 0.45844 0.16896 0.0
H756 H 0.67126 0.46459 0.20219 0.0
H757 H 0.61279 0.73891 0.12484 0.0
H758 H 0.6424 0.81794 0.12695 0.0
H759 H 0.61347 0.81435 0.15529 0.0
C760 C 0.34617 0.29286 0.17575 0.0
C761 C 0.32955 0.33715 0.19797 0.0
C762 C 0.36644 0.33374 0.1554 0.0
C763 C 0.37083 0.4233 0.15642 0.0
C764 C 0.35411 0.46895 0.1789 0.0
C765 C 0.3337 0.42589 0.19906 0.0
C766 C 0.38253 0.27851 0.13261 0.0
C767 C 0.35881 0.56314 0.18265 0.0
C768 C 0.44411 0.49673 0.11365 0.0
C769 C 0.43276 0.52211 0.08515 0.0
C770 C 0.42437 0.47045 0.13767 0.0
C771 C 0.39208 0.46798 0.13354 0.0
C772 C 0.38054 0.49961 0.10562 0.0
C773 C 0.40072 0.52555 0.08209 0.0
C774 C 0.43829 0.43883 0.16679 0.0
C775 C 0.34672 0.49867 0.09941 0.0
H776 H 0.3435 0.22462 0.17425 0.0
H777 H 0.32185 0.46154 0.21642 0.0
H778 H 0.36634 0.26399 0.114 0.0
H779 H 0.40324 0.30832 0.12297 0.0
H780 H 0.3892 0.21702 0.14304 0.0
H781 H 0.34327 0.59076 0.1999 0.0
H782 H 0.38274 0.57536 0.18967 0.0
H783 H 0.35521 0.59654 0.16082 0.0
H784 H 0.46858 0.49044 0.11643 0.0
H785 H 0.39131 0.54208 0.06013 0.0
H786 H 0.43644 0.3686 0.16769 0.0
H787 H 0.42575 0.46466 0.18658 0.0
H788 H 0.46275 0.45655 0.16873 0.0
H789 H 0.33845 0.43207 0.09931 0.0
H790 H 0.34099 0.52879 0.07737 0.0
H791 H 0.33423 0.53234 0.1176 0.0
C792 C 0.59389 1.01542 0.42485 0.0
C793 C 0.57916 0.97137 0.4485 0.0
C794 C 0.61391 0.97502 0.40417 0.0
C795 C 0.61997 0.88648 0.40634 0.0
C796 C 0.60493 0.84096 0.43001 0.0
C797 C 0.58483 0.88338 0.45054 0.0
C798 C 0.62765 0.02838 0.37933 0.0
C799 C 0.61052 0.74728 0.43402 0.0
C800 C 0.65046 0.7832 0.33246 0.0
C801 C 0.68244 0.78774 0.33568 0.0
C802 C 0.6301 0.80997 0.35567 0.0
C803 C 0.64142 0.84271 0.38351 0.0
C804 C 0.67369 0.84195 0.38774 0.0
C805 C 0.6936 0.81519 0.36399 0.0
C806 C 0.59633 0.81016 0.34924 0.0
C807 C 0.68741 0.87608 0.41658 0.0
H808 H 0.58982 0.0829 0.42238 0.0
H809 H 0.57415 0.84779 0.4687 0.0
H810 H 0.65078 1.00647 0.3729 0.0
H811 H 0.61258 1.02406 0.35919 0.0
H812 H 0.62911 0.09627 0.38596 0.0
H813 H 0.59771 0.72056 0.45354 0.0
H814 H 0.60372 0.71272 0.41319 0.0
H815 H 0.63524 0.73563 0.43754 0.0
H816 H 0.64125 0.76523 0.31057 0.0
H817 H 0.71803 0.82249 0.36678 0.0
H818 H 0.58411 0.77287 0.36678 0.0
H819 H 0.5908 0.78367 0.32658 0.0
H820 H 0.58767 0.87613 0.35041 0.0
H821 H 0.68441 0.946 0.41726 0.0
H822 H 0.71215 0.86161 0.41837 0.0
H823 H 0.67551 0.84915 0.4366 0.0
C824 C 0.43743 0.17955 0.4504 0.0
C825 C 0.44406 0.09235 0.44764 0.0
C826 C 0.41722 0.22177 0.42987 0.0
C827 C 0.40335 0.17695 0.40535 0.0
C828 C 0.41077 0.08947 0.40223 0.0
C829 C 0.43055 0.04899 0.42318 0.0
C830 C 0.40989 0.31403 0.43508 0.0
C831 C 0.39861 0.0376 0.3762 0.0
C832 C 0.32884 0.24 0.36299 0.0
C833 C 0.33966 0.27278 0.33528 0.0
C834 C 0.34902 0.21423 0.38666 0.0
C835 C 0.38127 0.22004 0.38294 0.0
C836 C 0.39212 0.25871 0.35588 0.0
C837 C 0.37145 0.28427 0.3327 0.0
C838 C 0.33579 0.17421 0.41477 0.0
C839 C 0.42587 0.26555 0.34995 0.0
H840 H 0.44701 0.21413 0.46938 0.0
H841 H 0.43537 0.98199 0.42041 0.0
H842 H 0.41487 0.35157 0.41439 0.0
H843 H 0.38515 0.32096 0.43983 0.0
H844 H 0.42299 0.3412 0.45434 0.0
H845 H 0.39887 0.96859 0.38139 0.0
H846 H 0.37503 0.05597 0.36991 0.0
H847 H 0.41361 0.04845 0.35635 0.0
H848 H 0.30461 0.22774 0.36527 0.0
H849 H 0.38046 0.30663 0.31125 0.0
H850 H 0.34696 0.20028 0.43534 0.0
H851 H 0.34019 0.10485 0.41436 0.0
H852 H 0.31078 0.18451 0.41647 0.0
H853 H 0.43787 0.29252 0.36987 0.0
H854 H 0.43088 0.30555 0.32982 0.0
H855 H 0.43523 0.20107 0.34605 0.0
C856 C 0.02641 0.69099 0.04208 0.0
C857 C 1.00875 0.74238 0.02295 0.0
C858 C 0.02722 0.60164 0.03852 0.0
C859 C 1.0077 0.56105 1.01706 0.0
C860 C 0.99105 0.61343 0.99667 0.0
C861 C 0.99315 0.70264 0.99889 0.0
C862 C 0.04811 0.55158 0.05901 0.0
C863 C 0.96919 0.57729 0.97355 0.0
C864 C 0.01472 0.32517 0.99498 0.0
C865 C 1.00545 0.28364 0.02172 0.0
C866 C 0.01576 0.41465 0.99297 0.0
C867 C 1.00392 0.4651 1.01693 0.0
C868 C 0.98958 0.42244 0.04163 0.0
C869 C 0.99167 0.33305 0.04431 0.0
C870 C 0.03169 0.45323 0.9659 0.0
C871 C 0.97338 0.47036 0.06643 0.0
H872 H 0.03823 0.72003 0.06102 0.0
H873 H 0.9789 0.74129 0.98425 0.0
H874 H 0.03713 0.54346 0.08146 0.0
H875 H 0.05368 0.48811 0.04965 0.0
H876 H 0.06975 0.58678 0.0628 0.0
H877 H 0.94863 0.61811 0.97144 0.0
H878 H 0.98048 0.57672 0.95106 0.0
H879 H 0.96157 0.51197 0.97909 0.0
H880 H 0.02585 0.28808 0.97748 0.0
H881 H 0.98461 0.30263 0.06522 0.0
H882 H 0.05108 0.4128 0.95856 0.0
H883 H 0.04057 0.51793 0.97038 0.0
H884 H 0.0154 0.45629 0.94668 0.0
H885 H 0.98885 0.47731 0.08617 0.0
H886 H 0.95312 0.43413 0.07431 0.0
H887 H 0.96579 0.53425 0.05899 0.0
C888 C 0.26973 0.59087 0.27407 0.0
C889 C 0.25189 0.54643 0.29533 0.0
C890 C 0.27271 0.68115 0.27508 0.0
C891 C 0.25559 0.73043 0.2964 0.0
C892 C 0.23846 0.68483 0.31846 0.0
C893 C 0.23845 0.59505 0.31865 0.0
C894 C 0.29355 0.72253 0.25226 0.0
C895 C 0.2182 0.72888 0.34124 0.0
C896 C 0.26944 0.96497 0.31961 0.0
C897 C 0.26091 1.01168 0.29364 0.0
C898 C 0.26888 0.8751 0.3204 0.0
C899 C 0.25571 0.82815 0.29609 0.0
C900 C 0.24253 0.87617 0.27183 0.0
C901 C 0.24626 0.96609 0.27038 0.0
C902 C 0.28461 0.83229 0.34678 0.0
C903 C 0.22553 0.83366 0.24631 0.0
H904 H 0.27999 0.55596 0.25554 0.0
H905 H 0.22429 0.56262 0.33519 0.0
H906 H 0.28164 0.72657 0.23012 0.0
H907 H 0.30079 0.78713 0.25922 0.0
H908 H 0.31425 0.68311 0.24875 0.0
H909 H 0.19639 0.69363 0.34396 0.0
H910 H 0.22961 0.72856 0.36369 0.0
H911 H 0.21265 0.79519 0.33489 0.0
H912 H 0.28123 0.99829 0.33769 0.0
H913 H 0.23982 0.99951 0.24986 0.0
H914 H 0.29092 0.76545 0.34214 0.0
H915 H 0.26941 0.8344 0.36685 0.0
H916 H 0.30574 0.86724 0.35298 0.0
H917 H 0.24082 0.82823 0.22639 0.0
H918 H 0.20578 0.87312 0.23923 0.0
H919 H 0.21708 0.76957 0.25253 0.0
C920 C 0.77936 0.09262 0.29256 0.0
C921 C 0.76567 0.04229 0.27011 0.0
C922 C 0.78109 0.18207 0.28971 0.0
C923 C 0.76664 0.22378 0.26488 0.0
C924 C 0.75517 0.17257 0.24092 0.0
C925 C 0.75633 0.08308 0.24322 0.0
C926 C 0.79695 0.23136 0.31442 0.0
C927 C 0.73956 0.21042 0.21355 0.0
C928 C 0.74114 0.44698 0.28985 0.0
C929 C 0.75962 0.50044 0.27223 0.0
C930 C 0.74118 0.3578 0.28571 0.0
C931 C 0.76209 0.31949 0.26514 0.0
C932 C 0.77946 0.3738 0.24603 0.0
C933 C 0.77691 0.4629 0.24892 0.0
C934 C 0.71964 0.30517 0.30466 0.0
C935 C 0.80234 0.33938 0.22364 0.0
H936 H 0.7865 0.06286 0.31357 0.0
H937 H 0.74531 0.04536 0.22579 0.0
H938 H 0.80575 0.29327 0.30613 0.0
H939 H 0.78074 0.24315 0.33322 0.0
H940 H 0.81631 0.19432 0.32387 0.0
H941 H 0.7204 0.16942 0.20593 0.0
H942 H 0.73048 0.27499 0.21778 0.0
H943 H 0.75616 0.21377 0.19462 0.0
H944 H 0.728 0.4743 0.30822 0.0
H945 H 0.79177 0.50307 0.23546 0.0
H946 H 0.73031 0.29167 0.32693 0.0
H947 H 0.71384 0.24401 0.29358 0.0
H948 H 0.69816 0.34044 0.30908 0.0
H949 H 0.82192 0.38358 0.22092 0.0
H950 H 0.7912 0.33327 0.20117 0.0
H951 H 0.81136 0.27639 0.23041 0.0
C952 C 0.02219 0.83782 0.49312 0.0
C953 C 1.00896 0.79865 0.51867 0.0
C954 C 0.02443 0.92701 0.49062 0.0
C955 C 1.01013 0.97985 0.51249 0.0
C956 C 0.99239 0.93993 0.53555 0.0
C957 C 0.99313 0.85059 0.5391 0.0
C958 C 0.04407 0.96266 0.46553 0.0
C959 C 0.97372 0.9908 0.55775 0.0
C960 C 0.03103 0.20521 0.53901 0.0
C961 C 0.01534 0.25669 0.51825 0.0
C962 C 0.03204 0.11587 0.53564 0.0
C963 C 0.01475 0.07549 0.51237 0.0
C964 C 1.00079 0.1279 0.49008 0.0
C965 C 1.00278 0.21717 0.49246 0.0
C966 C 0.05042 0.06546 0.55828 0.0
C967 C 0.98177 0.09165 0.46463 0.0
H968 H 0.03496 0.79876 0.47736 0.0
H969 H 0.98307 0.82203 0.55911 0.0
H970 H 0.03043 0.96528 0.44435 0.0
H971 H 0.05284 1.02715 0.47056 0.0
H972 H 0.06389 0.92054 0.46109 0.0
H973 H 0.95257 0.95593 0.5639 0.0
H974 H 0.98697 0.99984 0.57892 0.0
H975 H 0.96726 0.05394 0.54861 0.0
H976 H 0.04063 0.23405 0.55918 0.0
H977 H 0.99016 0.25589 0.47642 0.0
H978 H 0.05711 1.00228 0.5494 0.0
H979 H 0.03687 0.05654 0.57925 0.0
H980 H 0.07143 0.10064 0.56469 0.0
H981 H 0.99599 0.0878 0.4439 0.0
H982 H 0.96219 0.13391 0.45934 0.0
H983 H 0.97269 0.02754 0.46982 0.0
C984 C 0.27693 0.08326 0.76932 0.0
C985 C 0.26245 0.03796 0.79277 0.0
C986 C 0.28103 0.17306 0.77071 0.0
C987 C 0.26849 0.22125 0.79518 0.0
C988 C 0.25552 0.17456 0.81966 0.0
C989 C 0.25449 0.08473 0.81885 0.0
C990 C 0.29768 0.21532 0.74489 0.0
C991 C 0.24049 0.21774 0.84632 0.0
C992 C 0.28751 0.4529 0.81784 0.0
C993 C 0.27331 0.5029 0.79527 0.0
C994 C 0.28717 0.36318 0.8173 0.0
C995 C 0.26919 0.31891 0.79561 0.0
C996 C 0.25166 0.36942 0.7749 0.0
C997 C 0.2548 0.45973 0.77426 0.0
C998 C 0.30783 0.31767 0.83941 0.0
C999 C 0.23013 0.32932 0.75243 0.0
H1000 H 0.28289 0.04981 0.7487 0.0
H1001 H 0.2428 0.05165 0.83706 0.0
H1002 H 0.28193 0.22207 0.72535 0.0
H1003 H 0.30668 0.27883 0.75107 0.0
H1004 H 0.31699 0.17509 0.73727 0.0
H1005 H 0.21934 0.18347 0.85291 0.0
H1006 H 0.25609 0.21505 0.86611 0.0
H1007 H 0.23439 0.28482 0.84177 0.0
H1008 H 0.30209 0.48426 0.83429 0.0
H1009 H 0.24391 0.49573 0.75631 0.0
H1010 H 0.31301 0.25151 0.83262 0.0
H1011 H 0.29695 0.3172 0.8621 0.0
H1012 H 0.3298 0.35228 0.84183 0.0
H1013 H 0.24158 0.32497 0.73009 0.0
H1014 H 0.20959 0.36967 0.74931 0.0
H1015 H 0.22267 0.26494 0.75948 0.0
C1016 C 0.77828 0.605 0.75208 0.0
C1017 C 0.75828 0.54858 0.76669 0.0
C1018 C 0.77762 0.69358 0.75796 0.0
C1019 C 0.75461 0.72893 0.777 0.0
C1020 C 0.73461 0.67156 0.79207 0.0
C1021 C 0.73761 0.58302 0.78763 0.0
C1022 C 0.80123 0.74884 0.74277 0.0
C1023 C 0.70844 0.70145 0.81153 0.0
C1024 C 0.76282 0.95327 0.81083 0.0
C1025 C 0.75711 1.00636 0.78569 0.0
C1026 C 0.76182 0.86379 0.80853 0.0
C1027 C 0.75192 0.82478 0.78123 0.0
C1028 C 0.7411 0.87871 0.75755 0.0
C1029 C 0.74457 0.96821 0.75972 0.0
C1030 C 0.77374 0.81161 0.83472 0.0
C1031 C 0.72743 0.84281 0.72895 0.0
H1032 H 0.79386 0.58029 0.73521 0.0
H1033 H 0.72176 0.54068 0.79869 0.0
H1034 H 0.7924 0.77037 0.72051 0.0
H1035 H 0.80686 0.80558 0.75659 0.0
H1036 H 0.82258 0.7128 0.73851 0.0
H1037 H 0.71156 0.67739 0.835 0.0
H1038 H 0.70579 0.77134 0.8122 0.0
H1039 H 0.6868 0.67377 0.80293 0.0
H1040 H 0.77265 0.98151 0.83102 0.0
H1041 H 0.74013 1.00723 0.73995 0.0
H1042 H 0.78876 0.75977 0.82657 0.0
H1043 H 0.7543 0.78235 0.84694 0.0
H1044 H 0.78676 0.85073 0.8512 0.0
H1045 H 0.74524 0.83959 0.71116 0.0
H1046 H 0.70908 0.88505 0.72031 0.0
H1047 H 0.71781 0.77835 0.73245 0.0
C1048 C 0.49957 0.71496 0.569 0.0
C1049 C 0.50897 0.76241 0.5435 0.0
C1050 C 0.5005 0.62514 0.56967 0.0
C1051 C 0.51492 0.57904 0.54591 0.0
C1052 C 0.52878 0.6279 0.52224 0.0
C1053 C 0.52466 0.7177 0.52075 0.0
C1054 C 0.48382 0.58142 0.59528 0.0
C1055 C 0.54699 0.58649 0.49737 0.0
C1056 C 0.53259 0.34734 0.56973 0.0
C1057 C 0.5204 0.29745 0.54605 0.0
C1058 C 0.53214 0.43705 0.56925 0.0
C1059 C 0.51576 0.48134 0.54631 0.0
C1060 C 0.49994 0.43075 0.52433 0.0
C1061 C 0.50341 0.34054 0.52378 0.0
C1062 C 0.55106 0.48248 0.59285 0.0
C1063 C 0.47998 0.47065 0.50042 0.0
H1064 H 0.48695 0.74756 0.58665 0.0
H1065 H 0.53175 0.75165 0.50056 0.0
H1066 H 0.47819 0.51423 0.59037 0.0
H1067 H 0.49801 0.58448 0.61608 0.0
H1068 H 0.46218 0.61516 0.60041 0.0
H1069 H 0.56705 0.6264 0.49151 0.0
H1070 H 0.55518 0.52223 0.50364 0.0
H1071 H 0.53269 0.58185 0.47669 0.0
H1072 H 0.54592 0.31603 0.58716 0.0
H1073 H 0.49408 0.30463 0.50498 0.0
H1074 H 0.5387 0.48159 0.61478 0.0
H1075 H 0.55643 0.54906 0.58669 0.0
H1076 H 0.57296 0.44854 0.59658 0.0
H1077 H 0.47189 0.53477 0.50696 0.0
H1078 H 0.45979 0.42988 0.49586 0.0
H1079 H 0.49298 0.47547 0.47894 0.0
C1080 C 0.49329 0.84374 0.04277 0.0
C1081 C 0.50954 0.79463 0.02179 0.0
C1082 C 0.49133 0.93314 0.03987 0.0
C1083 C 0.50829 0.97617 1.01693 0.0
C1084 C 0.52328 0.92604 0.9947 0.0
C1085 C 0.52228 0.83659 0.99659 0.0
C1086 C 0.47217 0.98064 0.0626 0.0
C1087 C 0.54235 0.96498 0.96979 0.0
C1088 C 0.49769 0.21228 0.99657 0.0
C1089 C 0.50999 0.25382 0.02207 0.0
C1090 C 0.49667 0.12288 0.99456 0.0
C1091 C 0.51122 0.07234 1.01703 0.0
C1092 C 0.52774 0.11494 0.04039 0.0
C1093 C 0.52576 0.20431 0.04335 0.0
C1094 C 0.47806 0.08442 0.96922 0.0
C1095 C 0.54645 0.06701 0.06344 0.0
H1096 H 0.48371 0.81297 0.0626 0.0
H1097 H 0.53549 0.79974 0.98051 0.0
H1098 H 0.48523 0.98824 0.08395 0.0
H1099 H 0.4652 0.04423 0.05426 0.0
H1100 H 0.45129 0.94379 0.06818 0.0
H1101 H 0.52873 0.96661 0.9486 0.0
H1102 H 0.55011 0.03029 0.97512 0.0
H1103 H 0.56282 0.9255 0.96519 0.0
H1104 H 0.48484 0.24944 0.98025 0.0
H1105 H 0.53498 0.23476 0.06339 0.0
H1106 H 0.47021 1.01901 0.97429 0.0
H1107 H 0.49207 0.08321 0.9483 0.0
H1108 H 0.45768 0.12401 0.96429 0.0
H1109 H 0.53297 0.05907 0.0845 0.0
H1110 H 0.56723 0.10372 0.0695 0.0
H1111 H 0.55356 1.00355 0.05517 0.0
C1112 C 0.32466 0.34993 0.03447 0.0
C1113 C 0.33845 0.28492 1.01781 0.0
C1114 C 0.29318 0.35003 0.03961 0.0
C1115 C 0.27515 0.28509 0.02662 0.0
C1116 C 0.28919 0.21736 1.0108 0.0
C1117 C 0.32081 0.21786 1.00684 0.0
C1118 C 0.27963 0.42115 0.05818 0.0
C1119 C 0.27068 0.14726 0.99635 0.0
C1120 C 0.19221 0.23369 0.03875 0.0
C1121 C 0.17873 0.279 1.01484 0.0
C1122 C 0.22333 0.24217 0.04515 0.0
C1123 C 0.24161 0.29249 0.02584 0.0
C1124 C 0.22791 0.34189 1.00274 0.0
C1125 C 0.19649 0.33581 0.99799 0.0
C1126 C 0.2364 0.19327 0.07157 0.0
C1127 C 0.24667 0.39704 0.98178 0.0
H1128 H 0.33814 0.40367 0.04175 0.0
H1129 H 0.33171 0.16824 0.99376 0.0
H1130 H 0.25476 0.42931 0.05479 0.0
H1131 H 0.28357 0.40733 0.08254 0.0
H1132 H 0.29114 0.48224 0.05292 0.0
H1133 H 0.28515 0.10106 0.98395 0.0
H1134 H 0.25773 0.11248 1.01403 0.0
H1135 H 0.25389 0.17468 0.98024 0.0
H1136 H 0.1791 0.18778 0.05144 0.0
H1137 H 0.18598 0.37191 0.97987 0.0
H1138 H 0.26059 0.20888 0.07641 0.0
H1139 H 0.2344 0.12416 0.0671 0.0
H1140 H 0.22287 0.20709 0.09224 0.0
H1141 H 0.25907 0.4458 0.99509 0.0
H1142 H 0.23246 0.42979 0.9645 0.0
H1143 H 0.26395 0.3578 0.9699 0.0
C1144 C 0.82667 0.83846 0.04635 0.0
C1145 C 0.83944 0.77138 0.02994 0.0
C1146 C 0.79529 0.84163 0.05206 0.0
C1147 C 0.7763 0.77764 0.03986 0.0
C1148 C 0.78935 0.70718 0.02471 0.0
C1149 C 0.82091 0.70468 0.0202 0.0
C1150 C 0.78283 0.91571 0.06989 0.0
C1151 C 0.76984 0.63794 1.01107 0.0
C1152 C 0.69218 0.73849 0.04986 0.0
C1153 C 0.68037 0.78332 0.025 0.0
C1154 C 0.72318 0.74392 0.05737 0.0
C1155 C 0.74295 0.79011 0.0382 0.0
C1156 C 0.73084 0.8401 1.01439 0.0
C1157 C 0.69954 0.83757 1.0086 0.0
C1158 C 0.7346 0.6963 0.0848 0.0
C1159 C 0.75113 0.8917 0.99369 0.0
H1160 H 0.84089 0.8916 0.05271 0.0
H1161 H 0.831 0.65341 1.00729 0.0
H1162 H 0.75778 0.92332 0.06799 0.0
H1163 H 0.78835 0.90617 0.0942 0.0
H1164 H 0.79391 0.97572 0.06255 0.0
H1165 H 0.78364 0.58867 0.99944 0.0
H1166 H 0.75618 0.60673 0.02905 0.0
H1167 H 0.75366 0.66571 0.99442 0.0
H1168 H 0.67772 0.69553 0.06247 0.0
H1169 H 0.69027 0.87361 0.9898 0.0
H1170 H 0.75824 0.71386 0.09125 0.0
H1171 H 0.73366 0.62706 0.0803 0.0
H1172 H 0.71948 0.70939 0.10442 0.0
H1173 H 0.76353 0.94041 1.00702 0.0
H1174 H 0.73807 0.92434 0.97551 0.0
H1175 H 0.76842 0.85 0.98294 0.0
C1176 C 0.06653 0.44231 0.23733 0.0
C1177 C 0.08892 0.49991 0.24632 0.0
C1178 C 0.03601 0.45605 0.24474 0.0
C1179 C 0.02799 0.53007 0.26104 0.0
C1180 C 0.05067 0.58871 0.27011 0.0
C1181 C 0.08114 0.57253 0.26269 0.0
C1182 C 0.01239 0.39165 0.23501 0.0
C1183 C 0.04268 0.6687 0.28713 0.0
C1184 C 0.94584 0.58787 0.24869 0.0
C1185 C 0.93229 0.55294 0.27452 0.0
C1186 C 0.97746 0.58652 0.24507 0.0
C1187 C 0.99561 0.54675 0.26744 0.0
C1188 C 0.98212 0.51384 0.2941 0.0
C1189 C 0.95042 0.51759 0.29734 0.0
C1190 C 0.99117 0.62285 0.21644 0.0
C1191 C 1.00087 0.47011 0.31822 0.0
H1192 H 0.07316 0.38611 0.22482 0.0
H1193 H 0.09889 0.61672 0.26928 0.0
H1194 H 0.99931 0.36908 0.25498 0.0
H1195 H 0.99591 0.42152 0.21918 0.0
H1196 H 0.02276 0.33587 0.2236 0.0
H1197 H 0.06322 0.70632 0.29327 0.0
H1198 H 0.02745 0.70882 0.27304 0.0
H1199 H 0.03004 0.65279 0.30815 0.0
H1200 H 0.93164 0.61249 0.23064 0.0
H1201 H 0.9396 0.4906 0.31722 0.0
H1202 H 0.99909 0.57037 0.20168 0.0
H1203 H 0.0113 0.6628 0.22185 0.0
H1204 H 0.9745 0.66173 0.2035 0.0
H1205 H 1.00962 0.40903 0.30924 0.0
H1206 H 0.98736 0.45684 0.33899 0.0
H1207 H 0.02093 0.50932 0.32446 0.0
C1208 C 0.31476 0.76758 0.4955 0.0
C1209 C 0.33415 0.82853 0.50796 0.0
C1210 C 0.28343 0.76969 0.50127 0.0
C1211 C 0.27145 0.8341 0.52023 0.0
C1212 C 0.29112 0.89424 0.53374 0.0
C1213 C 0.32231 0.89142 0.52704 0.0
C1214 C 0.26304 0.70513 0.48605 0.0
C1215 C 0.27947 0.96166 0.5551 0.0
C1216 C 0.19067 0.88311 0.49888 0.0
C1217 C 0.17507 0.8214 0.51563 0.0
C1218 C 0.22217 0.89317 0.50193 0.0
C1219 C 0.23805 0.84225 0.52311 0.0
C1220 C 0.22179 0.78852 0.54306 0.0
C1221 C 0.19047 0.77673 0.53848 0.0
C1222 C 0.23872 0.95194 0.48041 0.0
C1223 C 0.23749 0.73767 0.56749 0.0
H1224 H 0.32415 0.71964 0.4806 0.0
H1225 H 0.33717 0.9407 0.53564 0.0
H1226 H 0.2507 0.66758 0.50344 0.0
H1227 H 0.2457 0.73792 0.47192 0.0
H1228 H 0.27602 0.66067 0.4714 0.0
H1229 H 0.29483 1.01771 0.55553 0.0
H1230 H 0.2562 0.98349 0.54912 0.0
H1231 H 0.27849 0.93463 0.57833 0.0
H1232 H 0.17854 0.91849 0.48158 0.0
H1233 H 0.17865 0.72814 0.55127 0.0
H1234 H 0.25309 0.91399 0.46477 0.0
H1235 H 0.25409 0.99507 0.49314 0.0
H1236 H 0.22277 0.99099 0.46667 0.0
H1237 H 0.2394 0.67055 0.56011 0.0
H1238 H 0.22365 0.73864 0.58855 0.0
H1239 H 0.2606 0.76213 0.57292 0.0
C1240 C 0.83418 0.16219 0.50263 0.0
C1241 C 0.84793 0.22997 0.51796 0.0
C1242 C 0.80297 0.14612 0.50566 0.0
C1243 C 0.78552 0.19727 0.52544 0.0
C1244 C 0.80015 0.25742 0.54425 0.0
C1245 C 0.83109 0.275 0.53961 0.0
C1246 C 0.78824 0.08213 0.48479 0.0
C1247 C 0.78262 0.31019 0.56682 0.0
C1248 C 0.70899 0.26295 0.49435 0.0
C1249 C 0.68944 0.20442 0.50813 0.0
C1250 C 0.74029 0.26167 0.50017 0.0
C1251 C 0.75216 0.20187 0.52107 0.0
C1252 C 0.73243 0.14464 0.53603 0.0
C1253 C 0.70135 0.14479 0.52862 0.0
C1254 C 0.76069 0.32322 0.48338 0.0
C1255 C 0.74414 0.08282 0.55946 0.0
H1256 H 0.84736 0.12648 0.48626 0.0
H1257 H 0.8411 0.32872 0.55108 0.0
H1258 H 0.7711 0.04339 0.49702 0.0
H1259 H 0.77617 0.11628 0.46631 0.0
H1260 H 0.80529 0.03895 0.47438 0.0
H1261 H 0.79731 0.32767 0.58636 0.0
H1262 H 0.77499 0.36978 0.55575 0.0
H1263 H 0.7622 0.27621 0.57545 0.0
H1264 H 0.69974 0.30912 0.47862 0.0
H1265 H 0.68657 0.09724 0.53847 0.0
H1266 H 0.77864 0.28809 0.47088 0.0
H1267 H 0.77229 0.36584 0.49973 0.0
H1268 H 0.74785 0.363 0.46695 0.0
H1269 H 0.72527 0.05103 0.5719 0.0
H1270 H 0.75894 0.11609 0.57607 0.0
H1271 H 0.75821 0.03339 0.54837 0.0
C1272 C 0.94495 0.95105 0.7397 0.0
C1273 C 0.92839 1.0104 0.75645 0.0
C1274 C 0.97649 0.9442 0.74317 0.0
C1275 C 0.99143 0.99613 0.76475 0.0
C1276 C 0.97442 0.05069 0.78368 0.0
C1277 C 0.94308 0.05877 0.77869 0.0
C1278 C 0.99402 0.88694 0.72196 0.0
C1279 C 0.989 0.10508 0.80786 0.0
C1280 C 0.07404 0.93801 0.77457 0.0
C1281 C 0.08809 0.99817 0.75577 0.0
C1282 C 0.04257 0.94014 0.77953 0.0
C1283 C 0.02491 1.00141 0.76417 0.0
C1284 C 0.03907 0.06384 0.74588 0.0
C1285 C 0.07066 0.06176 0.74211 0.0
C1286 C 0.02809 0.87632 0.80065 0.0
C1287 C 0.02076 0.13054 0.72931 0.0
H1288 H 0.93339 0.91411 0.72245 0.0
H1289 H 0.93044 0.10675 0.79088 0.0
H1290 H 1.00888 0.92604 0.7071 0.0
H1291 H 1.00903 0.84354 0.73497 0.0
H1292 H 0.97873 0.84818 0.70741 0.0
H1293 H 0.97792 0.09179 0.82996 0.0
H1294 H 0.01385 0.09439 0.81054 0.0
H1295 H 0.98501 0.17312 0.80259 0.0
H1296 H 0.08732 0.88675 0.78412 0.0
H1297 H 0.08177 0.10792 0.7276 0.0
H1298 H 1.00897 0.84277 0.78934 0.0
H1299 H 0.01842 0.91023 0.82048 0.0
H1300 H 0.04463 0.8283 0.80884 0.0
H1301 H 1.00386 0.09963 0.71415 0.0
H1302 H 0.03535 0.17331 0.71549 0.0
H1303 H 1.00791 0.16958 0.74586 0.0
C1304 C 0.58323 0.62247 0.74329 0.0
C1305 C 0.59719 0.55706 0.75966 0.0
C1306 C 0.55188 0.63672 0.74563 0.0
C1307 C 0.53439 0.58493 0.76521 0.0
C1308 C 0.54887 0.52522 0.78428 0.0
C1309 C 0.58016 0.51058 0.78082 0.0
C1310 C 0.53713 0.70203 0.72529 0.0
C1311 C 0.53088 0.47195 0.8064 0.0
C1312 C 0.45084 0.64129 0.77203 0.0
C1313 C 0.43787 0.58427 0.7514 0.0
C1314 C 0.48225 0.64082 0.77775 0.0
C1315 C 0.50093 0.58307 0.76178 0.0
C1316 C 0.48785 0.52537 0.74085 0.0
C1317 C 0.45636 0.52644 0.73609 0.0
C1318 C 0.49507 0.70198 0.80081 0.0
C1319 C 0.50719 0.46451 0.72268 0.0
H1320 H 0.59662 0.65873 0.72718 0.0
H1321 H 0.59062 0.45862 0.79299 0.0
H1322 H 0.52288 0.66947 0.70802 0.0
H1323 H 0.52187 0.74381 0.73866 0.0
H1324 H 0.55423 0.74208 0.7134 0.0
H1325 H 0.54585 0.44072 0.82334 0.0
H1326 H 0.51387 0.51154 0.81851 0.0
H1327 H 0.51825 0.42193 0.79391 0.0
H1328 H 0.43642 0.68772 0.78303 0.0
H1329 H 0.44611 0.48333 0.71988 0.0
H1330 H 0.51886 0.72104 0.79564 0.0
H1331 H 0.49498 0.67081 0.82338 0.0
H1332 H 0.4809 0.7602 0.80235 0.0
H1333 H 0.52401 0.5005 0.70894 0.0
H1334 H 0.49333 0.42442 0.70719 0.0
H1335 H 0.52018 0.42226 0.73811 0.0
C1336 C 0.58025 0.12135 0.24776 0.0
C1337 C 0.59497 0.05637 0.26371 0.0
C1338 C 0.54879 0.1328 0.25031 0.0
C1339 C 0.53209 0.07958 0.27007 0.0
C1340 C 0.5474 1.02183 0.28923 0.0
C1341 C 0.57866 1.00891 0.28518 0.0
C1342 C 0.53313 0.19625 0.22988 0.0
C1343 C 0.53043 0.96806 0.312 0.0
C1344 C 0.44807 0.12905 0.27572 0.0
C1345 C 0.43578 0.06807 0.25607 0.0
C1346 C 0.47939 0.13178 0.28164 0.0
C1347 C 0.49875 0.0739 0.26665 0.0
C1348 C 0.48646 1.01242 0.24665 0.0
C1349 C 0.45499 1.00973 0.24192 0.0
C1350 C 0.49134 0.19661 0.3039 0.0
C1351 C 0.50659 0.95151 0.22938 0.0
H1352 H 0.59307 0.1589 0.23158 0.0
H1353 H 0.58955 0.95725 0.2971 0.0
H1354 H 0.51866 0.16208 0.21321 0.0
H1355 H 0.51797 0.23806 0.24333 0.0
H1356 H 0.54966 0.23649 0.21729 0.0
H1357 H 0.54532 0.95141 0.33144 0.0
H1358 H 0.50993 1.00116 0.32079 0.0
H1359 H 0.523 0.90815 0.30104 0.0
H1360 H 0.43347 0.177 0.28547 0.0
H1361 H 0.44533 0.96339 0.22651 0.0
H1362 H 0.47739 0.25535 0.30326 0.0
H1363 H 0.51548 0.21414 0.29975 0.0
H1364 H 0.48979 0.16964 0.3271 0.0
H1365 H 0.52375 0.98738 0.216 0.0
H1366 H 0.49338 0.91043 0.21367 0.0
H1367 H 0.51918 0.91021 0.24545 0.0
loop_
_geom_bond_atom_site_label_1
_geom_bond_atom_site_label_2
_geom_bond_distance
_geom_bond_site_symmetry_2
_ccdc_geom_bond_type
Co0 N1 2.034 . S
Co0 O15 2.262 . S
Co0 O19 1.958 . S
Co0 O23 1.950 1_556 S
Co0 O24 2.057 . S
N1 Co0 2.034 . S
N1 C2 1.366 . S
N1 C4 1.332 1_556 S
C2 N1 1.366 . S
C2 C5 1.377 . S
C2 H34 0.931 . S
N3 C4 1.346 . S
N3 C5 1.337 1_554 S
C4 N1 1.332 1_554 S
C4 N3 1.346 . S
C4 C38 1.361 . S
C5 C2 1.377 . S
C5 N3 1.337 1_556 S
C5 H41 0.930 . S
Co6 N7 2.034 . S
Co6 O20 1.950 1_556 S
Co6 O21 2.262 . S
Co6 O22 1.958 . S
Co6 O26 2.057 . S
N7 Co6 2.034 . S
N7 C10 1.366 . S
N7 C11 1.332 1_556 S
N8 C9 1.337 1_554 S
N8 C11 1.346 . S
C9 N8 1.337 1_556 S
C9 C10 1.377 . S
C9 H42 0.930 . S
C10 N7 1.366 . S
C10 C9 1.377 . S
C10 H14 0.931 . S
C11 N7 1.332 1_554 S
C11 N8 1.346 . S
C11 C28 1.361 . S
Co12 O15 2.097 . S
Co12 O16 2.065 1_456 S
Co12 O17 2.065 1_546 S
Co12 O18 2.042 1_545 S
Co12 O21 2.097 1_445 S
Co12 O25 2.042 1_455 S
C13 O21 1.253 . S
C13 O26 1.263 . S
H14 C10 0.931 . S
O15 Co0 2.262 . S
O15 Co12 2.097 . S
O15 C39 1.253 . S
O16 Co12 2.065 1_654 S
O16 C32 1.223 . S
O17 Co12 2.065 1_564 S
O17 C27 1.222 . S
O18 Co12 2.042 1_565 S
O18 C33 1.237 . S
O19 Co0 1.958 . S
O19 C33 1.278 1_545 S
O20 Co6 1.950 1_554 S
O20 C32 1.272 1_565 S
O21 Co6 2.262 . S
O21 Co12 2.097 1_665 S
O21 C13 1.253 . S
O22 Co6 1.958 . S
O22 C40 1.278 1_565 S
O23 Co0 1.950 1_554 S
O23 C27 1.274 1_545 S
O24 Co0 2.057 . S
O24 C39 1.263 . S
O25 Co12 2.042 1_655 S
O25 C40 1.237 . S
O26 Co6 2.057 . S
O26 C13 1.263 . S
C27 O17 1.222 . S
C27 O23 1.274 1_565 S
C28 C11 1.361 . S
C28 H29 0.960 . S
C28 H30 0.961 . S
C28 H31 0.961 . S
H29 C28 0.960 . S
H30 C28 0.961 . S
H31 C28 0.961 . S
C32 O16 1.223 . S
C32 O20 1.272 1_545 S
C33 O18 1.237 . S
C33 O19 1.278 1_565 S
H34 C2 0.931 . S
H35 C38 0.961 . S
H36 C38 0.961 . S
H37 C38 0.960 . S
C38 C4 1.361 . S
C38 H35 0.961 . S
C38 H36 0.961 . S
C38 H37 0.960 . S
C39 O15 1.253 . S
C39 O24 1.263 . S
C40 O22 1.278 1_545 S
C40 O25 1.237 . S
H41 C5 0.930 . S
H42 C9 0.930 . S
Co43 N44 2.034 . S
Co43 O58 2.262 . S
Co43 O62 1.958 . S
Co43 O66 1.950 . S
Co43 O67 2.057 . S
N44 Co43 2.034 . S
N44 C45 1.366 . S
N44 C47 1.332 . S
C45 N44 1.366 . S
C45 C48 1.377 . S
C45 H77 0.931 . S
N46 C47 1.346 . S
N46 C48 1.337 . S
C47 N44 1.332 . S
C47 N46 1.346 . S
C47 C81 1.361 . S
C48 C45 1.377 . S
C48 N46 1.337 . S
C48 H84 0.930 . S
Co49 N50 2.034 . S
Co49 O63 1.950 . S
Co49 O64 2.262 . S
Co49 O65 1.958 . S
Co49 O69 2.057 . S
N50 Co49 2.034 . S
N50 C53 1.366 . S
N50 C54 1.332 . S
N51 C52 1.337 . S
N51 C54 1.346 . S
C52 N51 1.337 . S
C52 C53 1.377 . S
C52 H85 0.930 . S
C53 N50 1.366 . S
C53 C52 1.377 . S
C53 H57 0.931 . S
C54 N50 1.332 . S
C54 N51 1.346 . S
C54 C71 1.361 . S
Co55 O58 2.097 . S
Co55 O59 2.065 . S
Co55 O60 2.065 . S
Co55 O61 2.042 . S
Co55 O64 2.097 . S
Co55 O68 2.042 . S
C56 O64 1.253 . S
C56 O69 1.263 . S
H57 C53 0.931 . S
O58 Co43 2.262 . S
O58 Co55 2.097 . S
O58 C82 1.253 . S
O59 Co55 2.065 . S
O59 C75 1.221 . S
O60 Co55 2.065 . S
O60 C70 1.221 . S
O61 Co55 2.042 . S
O61 C76 1.237 . S
O62 Co43 1.958 . S
O62 C76 1.278 . S
O63 Co49 1.950 . S
O63 C75 1.277 . S
O64 Co49 2.262 . S
O64 Co55 2.097 . S
O64 C56 1.253 . S
O65 Co49 1.958 . S
O65 C83 1.278 . S
O66 Co43 1.950 . S
O66 C70 1.277 . S
O67 Co43 2.057 . S
O67 C82 1.263 . S
O68 Co55 2.042 . S
O68 C83 1.237 . S
O69 Co49 2.057 . S
O69 C56 1.263 . S
C70 O60 1.221 . S
C70 O66 1.277 . S
C71 C54 1.361 . S
C71 H72 0.960 . S
C71 H73 0.961 . S
C71 H74 0.961 1_545 S
H72 C71 0.960 . S
H73 C71 0.961 . S
H74 C71 0.961 1_565 S
C75 O59 1.221 . S
C75 O63 1.277 . S
C76 O61 1.237 . S
C76 O62 1.278 . S
H77 C45 0.931 . S
H78 C81 0.961 . S
H79 C81 0.961 . S
H80 C81 0.960 . S
C81 C47 1.361 . S
C81 H78 0.961 . S
C81 H79 0.961 . S
C81 H80 0.960 . S
C82 O58 1.253 . S
C82 O67 1.263 . S
C83 O65 1.278 . S
C83 O68 1.237 . S
H84 C48 0.930 . S
H85 C52 0.930 . S
Co86 N87 2.034 . S
Co86 O101 2.262 . S
Co86 O105 1.958 . S
Co86 O109 1.950 . S
Co86 O110 2.057 . S
N87 Co86 2.034 . S
N87 C88 1.366 . S
N87 C90 1.332 . S
C88 N87 1.366 . S
C88 C91 1.377 . S
C88 H120 0.931 . S
N89 C90 1.346 . S
N89 C91 1.337 . S
C90 N87 1.332 . S
C90 N89 1.346 . S
C90 C124 1.361 . S
C91 C88 1.377 . S
C91 N89 1.337 . S
C91 H127 0.930 . S
Co92 N93 2.034 . S
Co92 O106 1.950 . S
Co92 O107 2.262 . S
Co92 O108 1.958 . S
Co92 O112 2.057 . S
N93 Co92 2.034 . S
N93 C96 1.366 . S
N93 C97 1.332 . S
N94 C95 1.337 . S
N94 C97 1.346 . S
C95 N94 1.337 . S
C95 C96 1.377 . S
C95 H128 0.930 . S
C96 N93 1.366 . S
C96 C95 1.377 . S
C96 H100 0.931 . S
C97 N93 1.332 . S
C97 N94 1.346 . S
C97 C114 1.361 . S
Co98 O101 2.097 . S
Co98 O102 2.065 . S
Co98 O103 2.065 . S
Co98 O104 2.042 . S
Co98 O107 2.097 . S
Co98 O111 2.042 . S
C99 O107 1.253 . S
C99 O112 1.263 . S
H100 C96 0.931 . S
O101 Co86 2.262 . S
O101 Co98 2.097 . S
O101 C125 1.253 . S
O102 Co98 2.065 . S
O102 C118 1.221 . S
O103 Co98 2.065 . S
O103 C113 1.221 . S
O104 Co98 2.042 . S
O104 C119 1.237 . S
O105 Co86 1.958 . S
O105 C119 1.278 . S
O106 Co92 1.950 . S
O106 C118 1.277 . S
O107 Co92 2.262 . S
O107 Co98 2.097 . S
O107 C99 1.253 . S
O108 Co92 1.958 . S
O108 C126 1.278 . S
O109 Co86 1.950 . S
O109 C113 1.277 . S
O110 Co86 2.057 . S
O110 C125 1.263 . S
O111 Co98 2.042 . S
O111 C126 1.237 . S
O112 Co92 2.057 . S
O112 C99 1.263 . S
C113 O103 1.221 . S
C113 O109 1.277 . S
C114 C97 1.361 . S
C114 H115 0.960 . S
C114 H116 0.961 . S
C114 H117 0.961 . S
H115 C114 0.960 . S
H116 C114 0.961 . S
H117 C114 0.961 . S
C118 O102 1.221 . S
C118 O106 1.277 . S
C119 O104 1.237 . S
C119 O105 1.278 . S
H120 C88 0.931 . S
H121 C124 0.961 1_545 S
H122 C124 0.961 . S
H123 C124 0.960 . S
C124 C90 1.361 . S
C124 H121 0.961 1_565 S
C124 H122 0.961 . S
C124 H123 0.960 . S
C125 O101 1.253 . S
C125 O110 1.263 . S
C126 O108 1.278 . S
C126 O111 1.237 . S
H127 C91 0.930 . S
H128 C95 0.930 . S
Co129 N130 2.034 . S
Co129 O144 2.262 . S
Co129 O148 1.958 . S
Co129 O152 1.950 . S
Co129 O153 2.057 . S
N130 Co129 2.034 . S
N130 C131 1.366 . S
N130 C133 1.332 . S
C131 N130 1.366 . S
C131 C134 1.377 . S
C131 H163 0.931 . S
N132 C133 1.346 . S
N132 C134 1.337 . S
C133 N130 1.332 . S
C133 N132 1.346 . S
C133 C167 1.361 . S
C134 C131 1.377 . S
C134 N132 1.337 . S
C134 H170 0.930 . S
Co135 N136 2.034 . S
Co135 O149 1.950 . S
Co135 O150 2.262 . S
Co135 O151 1.958 . S
Co135 O155 2.057 . S
N136 Co135 2.034 . S
N136 C139 1.366 . S
N136 C140 1.332 . S
N137 C138 1.337 . S
N137 C140 1.346 . S
C138 N137 1.337 . S
C138 C139 1.377 . S
C138 H171 0.930 . S
C139 N136 1.366 . S
C139 C138 1.377 . S
C139 H143 0.931 . S
C140 N136 1.332 . S
C140 N137 1.346 . S
C140 C157 1.361 . S
Co141 O144 2.097 . S
Co141 O145 2.065 1_455 S
Co141 O146 2.065 . S
Co141 O147 2.042 . S
Co141 O150 2.097 1_455 S
Co141 O154 2.042 1_455 S
C142 O150 1.253 . S
C142 O155 1.263 . S
H143 C139 0.931 . S
O144 Co129 2.262 . S
O144 Co141 2.097 . S
O144 C168 1.253 . S
O145 Co141 2.065 1_655 S
O145 C161 1.221 . S
O146 Co141 2.065 . S
O146 C156 1.221 . S
O147 Co141 2.042 . S
O147 C162 1.237 . S
O148 Co129 1.958 . S
O148 C162 1.278 . S
O149 Co135 1.950 . S
O149 C161 1.277 . S
O150 Co135 2.262 . S
O150 Co141 2.097 1_655 S
O150 C142 1.253 . S
O151 Co135 1.958 . S
O151 C169 1.278 . S
O152 Co129 1.950 . S
O152 C156 1.277 . S
O153 Co129 2.057 . S
O153 C168 1.263 . S
O154 Co141 2.042 1_655 S
O154 C169 1.237 . S
O155 Co135 2.057 . S
O155 C142 1.263 . S
C156 O146 1.221 . S
C156 O152 1.277 . S
C157 C140 1.361 . S
C157 H158 0.960 . S
C157 H159 0.961 . S
C157 H160 0.961 . S
H158 C157 0.960 . S
H159 C157 0.961 . S
H160 C157 0.961 . S
C161 O145 1.221 . S
C161 O149 1.277 . S
C162 O147 1.237 . S
C162 O148 1.278 . S
H163 C131 0.931 . S
H164 C167 0.961 . S
H165 C167 0.961 . S
H166 C167 0.960 . S
C167 C133 1.361 . S
C167 H164 0.961 . S
C167 H165 0.961 . S
C167 H166 0.960 . S
C168 O144 1.253 . S
C168 O153 1.263 . S
C169 O151 1.278 . S
C169 O154 1.237 . S
H170 C134 0.930 . S
H171 C138 0.930 . S
Co172 N173 2.034 . S
Co172 O187 2.262 . S
Co172 O191 1.958 . S
Co172 O195 1.950 . S
Co172 O196 2.057 . S
N173 Co172 2.034 . S
N173 C174 1.366 . S
N173 C176 1.332 . S
C174 N173 1.366 . S
C174 C177 1.377 . S
C174 H206 0.931 . S
N175 C176 1.346 . S
N175 C177 1.337 . S
C176 N173 1.332 . S
C176 N175 1.346 . S
C176 C210 1.361 . S
C177 C174 1.377 . S
C177 N175 1.337 . S
C177 H213 0.930 . S
Co178 N179 2.034 . S
Co178 O192 1.950 . S
Co178 O193 2.262 . S
Co178 O194 1.958 . S
Co178 O198 2.057 . S
N179 Co178 2.034 . S
N179 C182 1.366 . S
N179 C183 1.332 . S
N180 C181 1.337 . S
N180 C183 1.346 . S
C181 N180 1.337 . S
C181 C182 1.377 . S
C181 H214 0.930 . S
C182 N179 1.366 . S
C182 C181 1.377 . S
C182 H186 0.931 . S
C183 N179 1.332 . S
C183 N180 1.346 . S
C183 C200 1.361 . S
Co184 O187 2.097 . S
Co184 O188 2.065 . S
Co184 O189 2.065 . S
Co184 O190 2.042 . S
Co184 O193 2.097 . S
Co184 O197 2.042 . S
C185 O193 1.253 . S
C185 O198 1.263 . S
H186 C182 0.931 . S
O187 Co172 2.262 . S
O187 Co184 2.097 . S
O187 C211 1.253 . S
O188 Co184 2.065 . S
O188 C204 1.221 . S
O189 Co184 2.065 . S
O189 C199 1.221 . S
O190 Co184 2.042 . S
O190 C205 1.237 . S
O191 Co172 1.958 . S
O191 C205 1.278 . S
O192 Co178 1.950 . S
O192 C204 1.277 . S
O193 Co178 2.262 . S
O193 Co184 2.097 . S
O193 C185 1.253 . S
O194 Co178 1.958 . S
O194 C212 1.278 . S
O195 Co172 1.950 . S
O195 C199 1.277 . S
O196 Co172 2.057 . S
O196 C211 1.263 . S
O197 Co184 2.042 . S
O197 C212 1.237 . S
O198 Co178 2.057 . S
O198 C185 1.263 . S
C199 O189 1.221 . S
C199 O195 1.277 . S
C200 C183 1.361 . S
C200 H201 0.960 . S
C200 H202 0.961 . S
C200 H203 0.961 . S
H201 C200 0.960 . S
H202 C200 0.961 . S
H203 C200 0.961 . S
C204 O188 1.221 . S
C204 O192 1.277 . S
C205 O190 1.237 . S
C205 O191 1.278 . S
H206 C174 0.931 . S
H207 C210 0.961 1_545 S
H208 C210 0.961 . S
H209 C210 0.960 . S
C210 C176 1.361 . S
C210 H207 0.961 1_565 S
C210 H208 0.961 . S
C210 H209 0.960 . S
C211 O187 1.253 . S
C211 O196 1.263 . S
C212 O194 1.278 . S
C212 O197 1.237 . S
H213 C177 0.930 . S
H214 C181 0.930 . S
Co215 N216 2.034 . S
Co215 O230 2.262 . S
Co215 O234 1.958 . S
Co215 O238 1.950 . S
Co215 O239 2.057 . S
N216 Co215 2.034 . S
N216 C217 1.366 . S
N216 C219 1.332 . S
C217 N216 1.366 . S
C217 C220 1.377 . S
C217 H249 0.931 . S
N218 C219 1.346 . S
N218 C220 1.337 . S
C219 N216 1.332 . S
C219 N218 1.346 . S
C219 C253 1.361 . S
C220 C217 1.377 . S
C220 N218 1.337 . S
C220 H256 0.930 . S
Co221 N222 2.034 . S
Co221 O235 1.950 . S
Co221 O236 2.262 . S
Co221 O237 1.958 . S
Co221 O241 2.057 . S
N222 Co221 2.034 . S
N222 C225 1.366 . S
N222 C226 1.332 . S
N223 C224 1.337 . S
N223 C226 1.346 . S
C224 N223 1.337 . S
C224 C225 1.377 . S
C224 H257 0.930 . S
C225 N222 1.366 . S
C225 C224 1.377 . S
C225 H229 0.931 . S
C226 N222 1.332 . S
C226 N223 1.346 . S
C226 C243 1.361 . S
Co227 O230 2.097 . S
Co227 O231 2.065 . S
Co227 O232 2.065 . S
Co227 O233 2.042 . S
Co227 O236 2.097 . S
Co227 O240 2.042 . S
C228 O236 1.253 . S
C228 O241 1.263 . S
H229 C225 0.931 . S
O230 Co215 2.262 . S
O230 Co227 2.097 . S
O230 C254 1.253 . S
O231 Co227 2.065 . S
O231 C247 1.221 . S
O232 Co227 2.065 . S
O232 C242 1.221 . S
O233 Co227 2.042 . S
O233 C248 1.237 . S
O234 Co215 1.958 . S
O234 C248 1.278 . S
O235 Co221 1.950 . S
O235 C247 1.277 . S
O236 Co221 2.262 . S
O236 Co227 2.097 . S
O236 C228 1.253 . S
O237 Co221 1.958 . S
O237 C255 1.278 . S
O238 Co215 1.950 . S
O238 C242 1.277 . S
O239 Co215 2.057 . S
O239 C254 1.263 . S
O240 Co227 2.042 . S
O240 C255 1.237 . S
O241 Co221 2.057 . S
O241 C228 1.263 . S
C242 O232 1.221 . S
C242 O238 1.277 . S
C243 C226 1.361 . S
C243 H244 0.960 . S
C243 H245 0.961 . S
C243 H246 0.961 . S
H244 C243 0.960 . S
H245 C243 0.961 . S
H246 C243 0.961 . S
C247 O231 1.221 . S
C247 O235 1.277 . S
C248 O233 1.237 . S
C248 O234 1.278 . S
H249 C217 0.931 . S
H250 C253 0.961 1_565 S
H251 C253 0.961 . S
H252 C253 0.960 . S
C253 C219 1.361 . S
C253 H250 0.961 1_545 S
C253 H251 0.961 . S
C253 H252 0.960 . S
C254 O230 1.253 . S
C254 O239 1.263 . S
C255 O237 1.278 . S
C255 O240 1.237 . S
H256 C220 0.930 . S
H257 C224 0.930 . S
Co258 N259 2.034 . S
Co258 O273 2.262 . S
Co258 O277 1.958 . S
Co258 O281 1.950 . S
Co258 O282 2.057 . S
N259 Co258 2.034 . S
N259 C260 1.366 . S
N259 C262 1.332 . S
C260 N259 1.366 . S
C260 C263 1.377 . S
C260 H292 0.931 . S
N261 C262 1.346 . S
N261 C263 1.337 . S
C262 N259 1.332 . S
C262 N261 1.346 . S
C262 C296 1.361 . S
C263 C260 1.377 . S
C263 N261 1.337 . S
C263 H299 0.930 . S
Co264 N265 2.034 . S
Co264 O278 1.950 . S
Co264 O279 2.262 . S
Co264 O280 1.958 . S
Co264 O284 2.057 . S
N265 Co264 2.034 . S
N265 C268 1.366 . S
N265 C269 1.332 . S
N266 C267 1.337 . S
N266 C269 1.346 . S
C267 N266 1.337 . S
C267 C268 1.377 . S
C267 H300 0.930 . S
C268 N265 1.366 . S
C268 C267 1.377 . S
C268 H272 0.931 . S
C269 N265 1.332 . S
C269 N266 1.346 . S
C269 C286 1.361 . S
Co270 O273 2.097 . S
Co270 O274 2.065 . S
Co270 O275 2.065 1_545 S
Co270 O276 2.042 1_545 S
Co270 O279 2.097 1_545 S
Co270 O283 2.042 . S
C271 O279 1.253 . S
C271 O284 1.263 . S
H272 C268 0.931 . S
O273 Co258 2.262 . S
O273 Co270 2.097 . S
O273 C297 1.253 . S
O274 Co270 2.065 . S
O274 C290 1.223 . S
O275 Co270 2.065 1_565 S
O275 C285 1.222 . S
O276 Co270 2.042 1_565 S
O276 C291 1.237 . S
O277 Co258 1.958 . S
O277 C291 1.278 1_545 S
O278 Co264 1.950 . S
O278 C290 1.272 1_565 S
O279 Co264 2.262 . S
O279 Co270 2.097 1_565 S
O279 C271 1.253 . S
O280 Co264 1.958 . S
O280 C298 1.278 1_565 S
O281 Co258 1.950 . S
O281 C285 1.274 1_545 S
O282 Co258 2.057 . S
O282 C297 1.263 . S
O283 Co270 2.042 . S
O283 C298 1.237 . S
O284 Co264 2.057 . S
O284 C271 1.263 . S
C285 O275 1.222 . S
C285 O281 1.274 1_565 S
C286 C269 1.361 . S
C286 H287 0.960 . S
C286 H288 0.961 . S
C286 H289 0.961 . S
H287 C286 0.960 . S
H288 C286 0.961 . S
H289 C286 0.961 . S
C290 O274 1.223 . S
C290 O278 1.272 1_545 S
C291 O276 1.237 . S
C291 O277 1.278 1_565 S
H292 C260 0.931 . S
H293 C296 0.961 . S
H294 C296 0.961 . S
H295 C296 0.960 . S
C296 C262 1.361 . S
C296 H293 0.961 . S
C296 H294 0.961 . S
C296 H295 0.960 . S
C297 O273 1.253 . S
C297 O282 1.263 . S
C298 O280 1.278 1_545 S
C298 O283 1.237 . S
H299 C263 0.930 . S
H300 C267 0.930 . S
Co301 N302 2.034 . S
Co301 O316 2.262 . S
Co301 O320 1.958 . S
Co301 O324 1.950 1_556 S
Co301 O325 2.057 . S
N302 Co301 2.034 . S
N302 C303 1.366 . S
N302 C305 1.332 1_556 S
C303 N302 1.366 . S
C303 C306 1.377 . S
C303 H335 0.931 . S
N304 C305 1.346 . S
N304 C306 1.337 1_554 S
C305 N302 1.332 1_554 S
C305 N304 1.346 . S
C305 C339 1.361 . S
C306 C303 1.377 . S
C306 N304 1.337 1_556 S
C306 H342 0.930 . S
Co307 N308 2.034 . S
Co307 O321 1.950 1_556 S
Co307 O322 2.262 . S
Co307 O323 1.958 . S
Co307 O327 2.057 . S
N308 Co307 2.034 . S
N308 C311 1.366 . S
N308 C312 1.332 1_556 S
N309 C310 1.337 1_554 S
N309 C312 1.346 . S
C310 N309 1.337 1_556 S
C310 C311 1.377 . S
C310 H343 0.930 . S
C311 N308 1.366 . S
C311 C310 1.377 . S
C311 H315 0.931 . S
C312 N308 1.332 1_554 S
C312 N309 1.346 . S
C312 C329 1.361 . S
Co313 O316 2.097 . S
Co313 O317 2.065 1_556 S
Co313 O318 2.065 1_556 S
Co313 O319 2.042 . S
Co313 O322 2.097 . S
Co313 O326 2.042 . S
C314 O322 1.253 . S
C314 O327 1.263 . S
H315 C311 0.931 . S
O316 Co301 2.262 . S
O316 Co313 2.097 . S
O316 C340 1.253 . S
O317 Co313 2.065 1_554 S
O317 C333 1.221 . S
O318 Co313 2.065 1_554 S
O318 C328 1.221 . S
O319 Co313 2.042 . S
O319 C334 1.237 . S
O320 Co301 1.958 . S
O320 C334 1.278 . S
O321 Co307 1.950 1_554 S
O321 C333 1.277 . S
O322 Co307 2.262 . S
O322 Co313 2.097 . S
O322 C314 1.253 . S
O323 Co307 1.958 . S
O323 C341 1.278 . S
O324 Co301 1.950 1_554 S
O324 C328 1.277 . S
O325 Co301 2.057 . S
O325 C340 1.263 . S
O326 Co313 2.042 . S
O326 C341 1.237 . S
O327 Co307 2.057 . S
O327 C314 1.263 . S
C328 O318 1.221 . S
C328 O324 1.277 . S
C329 C312 1.361 . S
C329 H330 0.960 . S
C329 H331 0.961 . S
C329 H332 0.961 . S
H330 C329 0.960 . S
H331 C329 0.961 . S
H332 C329 0.961 . S
C333 O317 1.221 . S
C333 O321 1.277 . S
C334 O319 1.237 . S
C334 O320 1.278 . S
H335 C303 0.931 . S
H336 C339 0.961 . S
H337 C339 0.961 . S
H338 C339 0.960 . S
C339 C305 1.361 . S
C339 H336 0.961 . S
C339 H337 0.961 . S
C339 H338 0.960 . S
C340 O316 1.253 . S
C340 O325 1.263 . S
C341 O323 1.278 . S
C341 O326 1.237 . S
H342 C306 0.930 . S
H343 C310 0.930 . S
C344 C345 1.391 . S
C344 C346 1.394 . S
C344 H360 0.931 . S
C345 C344 1.391 . S
C345 C349 1.376 . S
C346 C344 1.394 . S
C346 C347 1.369 . S
C346 C350 1.531 . S
C347 C346 1.369 . S
C347 C348 1.410 . S
C347 C355 1.503 . S
C348 C347 1.410 . S
C348 C349 1.392 . S
C348 C351 1.511 . S
C349 C345 1.376 . S
C349 C348 1.392 . S
C349 H361 0.929 . S
C350 C346 1.531 . S
C350 H362 0.960 . S
C350 H363 0.962 . S
C350 H364 0.960 . S
C351 C348 1.511 . S
C351 H365 0.961 . S
C351 H366 0.961 . S
C351 H367 0.961 . S
C352 C353 1.370 . S
C352 C354 1.363 . S
C352 H368 0.931 . S
C353 C352 1.370 . S
C353 C357 1.408 . S
C354 C352 1.363 . S
C354 C355 1.370 . S
C354 C358 1.524 1_545 S
C355 C347 1.503 . S
C355 C354 1.370 . S
C355 C356 1.403 . S
C356 C355 1.403 . S
C356 C357 1.404 . S
C356 C359 1.539 . S
C357 C353 1.408 . S
C357 C356 1.404 . S
C357 H369 0.930 . S
C358 C354 1.524 1_565 S
C358 H370 0.956 . S
C358 H371 0.961 . S
C358 H372 0.961 . S
C359 C356 1.539 . S
C359 H373 0.958 . S
C359 H374 0.961 . S
C359 H375 0.960 . S
H360 C344 0.931 . S
H361 C349 0.929 . S
H362 C350 0.960 . S
H363 C350 0.962 . S
H364 C350 0.960 . S
H365 C351 0.961 . S
H366 C351 0.961 . S
H367 C351 0.961 . S
H368 C352 0.931 . S
H369 C357 0.930 . S
H370 C358 0.956 . S
H371 C358 0.961 . S
H372 C358 0.961 . S
H373 C359 0.958 . S
H374 C359 0.961 . S
H375 C359 0.960 . S
C376 C377 1.391 . S
C376 C378 1.394 . S
C376 H392 0.931 1_565 S
C377 C376 1.391 . S
C377 C381 1.376 . S
C378 C376 1.394 . S
C378 C379 1.369 . S
C378 C382 1.531 . S
C379 C378 1.369 . S
C379 C380 1.410 . S
C379 C387 1.503 . S
C380 C379 1.410 . S
C380 C381 1.392 . S
C380 C383 1.511 . S
C381 C377 1.376 . S
C381 C380 1.392 . S
C381 H393 0.929 . S
C382 C378 1.531 . S
C382 H394 0.960 . S
C382 H395 0.962 1_565 S
C382 H396 0.960 . S
C383 C380 1.511 . S
C383 H397 0.961 . S
C383 H398 0.961 . S
C383 H399 0.961 . S
C384 C385 1.370 . S
C384 C386 1.363 . S
C384 H400 0.931 . S
C385 C384 1.370 . S
C385 C389 1.408 . S
C386 C384 1.363 . S
C386 C387 1.370 . S
C386 C390 1.524 . S
C387 C379 1.503 . S
C387 C386 1.370 . S
C387 C388 1.403 . S
C388 C387 1.403 . S
C388 C389 1.404 . S
C388 C391 1.539 . S
C389 C385 1.408 . S
C389 C388 1.404 . S
C389 H401 0.930 . S
C390 C386 1.524 . S
C390 H402 0.956 1_565 S
C390 H403 0.961 . S
C390 H404 0.961 1_565 S
C391 C388 1.539 . S
C391 H405 0.958 . S
C391 H406 0.961 . S
C391 H407 0.960 . S
H392 C376 0.931 1_545 S
H393 C381 0.929 . S
H394 C382 0.960 . S
H395 C382 0.962 1_545 S
H396 C382 0.960 . S
H397 C383 0.961 . S
H398 C383 0.961 . S
H399 C383 0.961 . S
H400 C384 0.931 . S
H401 C389 0.930 . S
H402 C390 0.956 1_545 S
H403 C390 0.961 . S
H404 C390 0.961 1_545 S
H405 C391 0.958 . S
H406 C391 0.961 . S
H407 C391 0.960 . S
C408 C409 1.391 . S
C408 C410 1.394 . S
C408 H424 0.931 . S
C409 C408 1.391 . S
C409 C413 1.376 . S
C410 C408 1.394 . S
C410 C411 1.369 . S
C410 C414 1.531 . S
C411 C410 1.369 . S
C411 C412 1.410 . S
C411 C419 1.503 . S
C412 C411 1.410 . S
C412 C413 1.392 . S
C412 C415 1.511 . S
C413 C409 1.376 . S
C413 C412 1.392 . S
C413 H425 0.929 . S
C414 C410 1.531 . S
C414 H426 0.960 . S
C414 H427 0.962 . S
C414 H428 0.960 . S
C415 C412 1.511 . S
C415 H429 0.961 . S
C415 H430 0.961 . S
C415 H431 0.961 . S
C416 C417 1.370 . S
C416 C418 1.363 . S
C416 H432 0.931 . S
C417 C416 1.370 . S
C417 C421 1.408 . S
C418 C416 1.363 . S
C418 C419 1.370 . S
C418 C422 1.524 . S
C419 C411 1.503 . S
C419 C418 1.370 . S
C419 C420 1.403 . S
C420 C419 1.403 . S
C420 C421 1.404 . S
C420 C423 1.539 . S
C421 C417 1.408 . S
C421 C420 1.404 . S
C421 H433 0.930 . S
C422 C418 1.524 . S
C422 H434 0.956 . S
C422 H435 0.961 . S
C422 H436 0.961 . S
C423 C420 1.539 . S
C423 H437 0.958 . S
C423 H438 0.961 . S
C423 H439 0.960 . S
H424 C408 0.931 . S
H425 C413 0.929 . S
H426 C414 0.960 . S
H427 C414 0.962 . S
H428 C414 0.960 . S
H429 C415 0.961 . S
H430 C415 0.961 . S
H431 C415 0.961 . S
H432 C416 0.931 . S
H433 C421 0.930 . S
H434 C422 0.956 . S
H435 C422 0.961 . S
H436 C422 0.961 . S
H437 C423 0.958 . S
H438 C423 0.961 . S
H439 C423 0.960 . S
C440 C441 1.391 . S
C440 C442 1.394 . S
C440 H456 0.931 . S
C441 C440 1.391 . S
C441 C445 1.376 . S
C442 C440 1.394 . S
C442 C443 1.369 . S
C442 C446 1.531 . S
C443 C442 1.369 . S
C443 C444 1.410 . S
C443 C451 1.503 . S
C444 C443 1.410 . S
C444 C445 1.392 . S
C444 C447 1.511 . S
C445 C441 1.376 . S
C445 C444 1.392 . S
C445 H457 0.929 . S
C446 C442 1.531 . S
C446 H458 0.960 . S
C446 H459 0.962 . S
C446 H460 0.960 . S
C447 C444 1.511 . S
C447 H461 0.961 . S
C447 H462 0.961 . S
C447 H463 0.961 . S
C448 C449 1.370 . S
C448 C450 1.363 . S
C448 H464 0.931 . S
C449 C448 1.370 . S
C449 C453 1.408 . S
C450 C448 1.363 . S
C450 C451 1.370 . S
C450 C454 1.524 . S
C451 C443 1.503 . S
C451 C450 1.370 . S
C451 C452 1.403 . S
C452 C451 1.403 . S
C452 C453 1.404 . S
C452 C455 1.539 . S
C453 C449 1.408 . S
C453 C452 1.404 . S
C453 H465 0.930 . S
C454 C450 1.524 . S
C454 H466 0.956 . S
C454 H467 0.961 . S
C454 H468 0.961 . S
C455 C452 1.539 . S
C455 H469 0.958 . S
C455 H470 0.961 . S
C455 H471 0.960 . S
H456 C440 0.931 . S
H457 C445 0.929 . S
H458 C446 0.960 . S
H459 C446 0.962 . S
H460 C446 0.960 . S
H461 C447 0.961 . S
H462 C447 0.961 . S
H463 C447 0.961 . S
H464 C448 0.931 . S
H465 C453 0.930 . S
H466 C454 0.956 . S
H467 C454 0.961 . S
H468 C454 0.961 . S
H469 C455 0.958 . S
H470 C455 0.961 . S
H471 C455 0.960 . S
C472 C473 1.391 . S
C472 C474 1.394 . S
C472 H488 0.931 . S
C473 C472 1.391 . S
C473 C477 1.376 . S
C474 C472 1.394 . S
C474 C475 1.369 . S
C474 C478 1.531 . S
C475 C474 1.369 . S
C475 C476 1.410 . S
C475 C483 1.503 . S
C476 C475 1.410 . S
C476 C477 1.392 . S
C476 C479 1.511 . S
C477 C473 1.376 . S
C477 C476 1.392 . S
C477 H489 0.929 . S
C478 C474 1.531 . S
C478 H490 0.960 . S
C478 H491 0.962 . S
C478 H492 0.960 . S
C479 C476 1.511 . S
C479 H493 0.961 . S
C479 H494 0.961 . S
C479 H495 0.961 . S
C480 C481 1.370 . S
C480 C482 1.363 . S
C480 H496 0.931 . S
C481 C480 1.370 . S
C481 C485 1.408 . S
C482 C480 1.363 . S
C482 C483 1.370 . S
C482 C486 1.524 . S
C483 C475 1.503 . S
C483 C482 1.370 . S
C483 C484 1.403 . S
C484 C483 1.403 . S
C484 C485 1.404 . S
C484 C487 1.539 . S
C485 C481 1.408 . S
C485 C484 1.404 . S
C485 H497 0.930 . S
C486 C482 1.524 . S
C486 H498 0.956 . S
C486 H499 0.961 . S
C486 H500 0.961 . S
C487 C484 1.539 . S
C487 H501 0.958 . S
C487 H502 0.961 . S
C487 H503 0.960 . S
H488 C472 0.931 . S
H489 C477 0.929 . S
H490 C478 0.960 . S
H491 C478 0.962 . S
H492 C478 0.960 . S
H493 C479 0.961 . S
H494 C479 0.961 . S
H495 C479 0.961 . S
H496 C480 0.931 . S
H497 C485 0.930 . S
H498 C486 0.956 . S
H499 C486 0.961 . S
H500 C486 0.961 . S
H501 C487 0.958 . S
H502 C487 0.961 . S
H503 C487 0.960 . S
C504 C505 1.391 . S
C504 C506 1.394 . S
C504 H520 0.931 . S
C505 C504 1.391 . S
C505 C509 1.376 . S
C506 C504 1.394 . S
C506 C507 1.369 . S
C506 C510 1.531 . S
C507 C506 1.369 . S
C507 C508 1.410 . S
C507 C515 1.503 . S
C508 C507 1.410 . S
C508 C509 1.392 . S
C508 C511 1.511 . S
C509 C505 1.376 . S
C509 C508 1.392 . S
C509 H521 0.929 . S
C510 C506 1.531 . S
C510 H522 0.960 . S
C510 H523 0.962 . S
C510 H524 0.960 . S
C511 C508 1.511 . S
C511 H525 0.961 . S
C511 H526 0.961 . S
C511 H527 0.961 . S
C512 C513 1.370 . S
C512 C514 1.363 . S
C512 H528 0.931 . S
C513 C512 1.370 . S
C513 C517 1.408 . S
C514 C512 1.363 . S
C514 C515 1.370 . S
C514 C518 1.524 . S
C515 C507 1.503 . S
C515 C514 1.370 . S
C515 C516 1.403 . S
C516 C515 1.403 . S
C516 C517 1.404 . S
C516 C519 1.539 . S
C517 C513 1.408 . S
C517 C516 1.404 . S
C517 H529 0.930 . S
C518 C514 1.524 . S
C518 H530 0.956 . S
C518 H531 0.961 . S
C518 H532 0.961 . S
C519 C516 1.539 . S
C519 H533 0.958 . S
C519 H534 0.961 . S
C519 H535 0.960 . S
H520 C504 0.931 . S
H521 C509 0.929 . S
H522 C510 0.960 . S
H523 C510 0.962 . S
H524 C510 0.960 . S
H525 C511 0.961 . S
H526 C511 0.961 . S
H527 C511 0.961 . S
H528 C512 0.931 . S
H529 C517 0.930 . S
H530 C518 0.956 . S
H531 C518 0.961 . S
H532 C518 0.961 . S
H533 C519 0.958 . S
H534 C519 0.961 . S
H535 C519 0.960 . S
C536 C537 1.391 . S
C536 C538 1.394 . S
C536 H552 0.931 . S
C537 C536 1.391 . S
C537 C541 1.376 . S
C538 C536 1.394 . S
C538 C539 1.369 . S
C538 C542 1.531 . S
C539 C538 1.369 . S
C539 C540 1.410 . S
C539 C547 1.503 . S
C540 C539 1.410 . S
C540 C541 1.392 . S
C540 C543 1.511 . S
C541 C537 1.376 . S
C541 C540 1.392 . S
C541 H553 0.929 . S
C542 C538 1.531 . S
C542 H554 0.960 . S
C542 H555 0.962 . S
C542 H556 0.960 . S
C543 C540 1.511 . S
C543 H557 0.961 . S
C543 H558 0.961 . S
C543 H559 0.961 . S
C544 C545 1.370 . S
C544 C546 1.363 . S
C544 H560 0.931 1_565 S
C545 C544 1.370 . S
C545 C549 1.408 . S
C546 C544 1.363 . S
C546 C547 1.370 . S
C546 C550 1.524 . S
C547 C539 1.503 . S
C547 C546 1.370 . S
C547 C548 1.403 . S
C548 C547 1.403 . S
C548 C549 1.404 . S
C548 C551 1.539 . S
C549 C545 1.408 . S
C549 C548 1.404 . S
C549 H561 0.930 . S
C550 C546 1.524 . S
C550 H562 0.956 . S
C550 H563 0.961 . S
C550 H564 0.961 1_565 S
C551 C548 1.539 . S
C551 H565 0.958 . S
C551 H566 0.961 . S
C551 H567 0.960 . S
H552 C536 0.931 . S
H553 C541 0.929 . S
H554 C542 0.960 . S
H555 C542 0.962 . S
H556 C542 0.960 . S
H557 C543 0.961 . S
H558 C543 0.961 . S
H559 C543 0.961 . S
H560 C544 0.931 1_545 S
H561 C549 0.930 . S
H562 C550 0.956 . S
H563 C550 0.961 . S
H564 C550 0.961 1_545 S
H565 C551 0.958 . S
H566 C551 0.961 . S
H567 C551 0.960 . S
C568 C569 1.391 . S
C568 C570 1.394 . S
C568 H584 0.931 . S
C569 C568 1.391 . S
C569 C573 1.376 . S
C570 C568 1.394 . S
C570 C571 1.369 . S
C570 C574 1.531 . S
C571 C570 1.369 . S
C571 C572 1.410 . S
C571 C579 1.503 . S
C572 C571 1.410 . S
C572 C573 1.392 . S
C572 C575 1.511 . S
C573 C569 1.376 . S
C573 C572 1.392 . S
C573 H585 0.929 . S
C574 C570 1.531 . S
C574 H586 0.960 . S
C574 H587 0.962 . S
C574 H588 0.960 . S
C575 C572 1.511 . S
C575 H589 0.961 . S
C575 H590 0.961 . S
C575 H591 0.961 . S
C576 C577 1.370 . S
C576 C578 1.363 . S
C576 H592 0.931 . S
C577 C576 1.370 . S
C577 C581 1.408 . S
C578 C576 1.363 . S
C578 C579 1.370 . S
C578 C582 1.524 . S
C579 C571 1.503 . S
C579 C578 1.370 . S
C579 C580 1.403 . S
C580 C579 1.403 . S
C580 C581 1.404 . S
C580 C583 1.539 1_545 S
C581 C577 1.408 . S
C581 C580 1.404 . S
C581 H593 0.930 1_545 S
C582 C578 1.524 . S
C582 H594 0.956 . S
C582 H595 0.961 . S
C582 H596 0.961 . S
C583 C580 1.539 1_565 S
C583 H597 0.958 . S
C583 H598 0.961 . S
C583 H599 0.960 . S
H584 C568 0.931 . S
H585 C573 0.929 . S
H586 C574 0.960 . S
H587 C574 0.962 . S
H588 C574 0.960 . S
H589 C575 0.961 . S
H590 C575 0.961 . S
H591 C575 0.961 . S
H592 C576 0.931 . S
H593 C581 0.930 1_565 S
H594 C582 0.956 . S
H595 C582 0.961 . S
H596 C582 0.961 . S
H597 C583 0.958 . S
H598 C583 0.961 . S
H599 C583 0.960 . S
C600 C601 1.391 . S
C600 C602 1.394 . S
C600 H616 0.931 . S
C601 C600 1.391 . S
C601 C605 1.376 . S
C602 C600 1.394 . S
C602 C603 1.369 . S
C602 C606 1.531 . S
C603 C602 1.369 . S
C603 C604 1.410 . S
C603 C611 1.503 . S
C604 C603 1.410 . S
C604 C605 1.392 . S
C604 C607 1.511 . S
C605 C601 1.376 . S
C605 C604 1.392 . S
C605 H617 0.929 . S
C606 C602 1.531 . S
C606 H618 0.960 . S
C606 H619 0.962 . S
C606 H620 0.960 . S
C607 C604 1.511 . S
C607 H621 0.961 . S
C607 H622 0.961 . S
C607 H623 0.961 . S
C608 C609 1.370 . S
C608 C610 1.363 . S
C608 H624 0.931 . S
C609 C608 1.370 . S
C609 C613 1.408 1_545 S
C610 C608 1.363 . S
C610 C611 1.370 . S
C610 C614 1.524 . S
C611 C603 1.503 . S
C611 C610 1.370 . S
C611 C612 1.403 1_545 S
C612 C611 1.403 1_565 S
C612 C613 1.404 . S
C612 C615 1.539 . S
C613 C609 1.408 1_565 S
C613 C612 1.404 . S
C613 H625 0.930 . S
C614 C610 1.524 . S
C614 H626 0.956 . S
C614 H627 0.961 . S
C614 H628 0.961 . S
C615 C612 1.539 . S
C615 H629 0.958 . S
C615 H630 0.961 . S
C615 H631 0.960 . S
H616 C600 0.931 . S
H617 C605 0.929 . S
H618 C606 0.960 . S
H619 C606 0.962 . S
H620 C606 0.960 . S
H621 C607 0.961 . S
H622 C607 0.961 . S
H623 C607 0.961 . S
H624 C608 0.931 . S
H625 C613 0.930 . S
H626 C614 0.956 . S
H627 C614 0.961 . S
H628 C614 0.961 . S
H629 C615 0.958 . S
H630 C615 0.961 . S
H631 C615 0.960 . S
C632 C633 1.391 . S
C632 C634 1.394 . S
C632 H648 0.931 . S
C633 C632 1.391 . S
C633 C637 1.376 . S
C634 C632 1.394 . S
C634 C635 1.369 . S
C634 C638 1.531 . S
C635 C634 1.369 . S
C635 C636 1.410 . S
C635 C643 1.503 . S
C636 C635 1.410 . S
C636 C637 1.392 . S
C636 C639 1.511 . S
C637 C633 1.376 . S
C637 C636 1.392 . S
C637 H649 0.929 1_565 S
C638 C634 1.531 . S
C638 H650 0.960 . S
C638 H651 0.962 . S
C638 H652 0.960 . S
C639 C636 1.511 . S
C639 H653 0.961 . S
C639 H654 0.961 . S
C639 H655 0.961 1_565 S
C640 C641 1.370 . S
C640 C642 1.363 . S
C640 H656 0.931 . S
C641 C640 1.370 . S
C641 C645 1.408 . S
C642 C640 1.363 . S
C642 C643 1.370 . S
C642 C646 1.524 . S
C643 C635 1.503 . S
C643 C642 1.370 . S
C643 C644 1.403 . S
C644 C643 1.403 . S
C644 C645 1.404 . S
C644 C647 1.539 1_565 S
C645 C641 1.408 . S
C645 C644 1.404 . S
C645 H657 0.930 . S
C646 C642 1.524 . S
C646 H658 0.956 . S
C646 H659 0.961 . S
C646 H660 0.961 . S
C647 C644 1.539 1_545 S
C647 H661 0.958 . S
C647 H662 0.961 . S
C647 H663 0.960 . S
H648 C632 0.931 . S
H649 C637 0.929 1_545 S
H650 C638 0.960 . S
H651 C638 0.962 . S
H652 C638 0.960 . S
H653 C639 0.961 . S
H654 C639 0.961 . S
H655 C639 0.961 1_545 S
H656 C640 0.931 . S
H657 C645 0.930 . S
H658 C646 0.956 . S
H659 C646 0.961 . S
H660 C646 0.961 . S
H661 C647 0.958 . S
H662 C647 0.961 . S
H663 C647 0.960 . S
C664 C665 1.391 . S
C664 C666 1.394 . S
C664 H680 0.931 . S
C665 C664 1.391 . S
C665 C669 1.376 . S
C666 C664 1.394 . S
C666 C667 1.369 . S
C666 C670 1.531 . S
C667 C666 1.369 . S
C667 C668 1.410 . S
C667 C675 1.503 . S
C668 C667 1.410 . S
C668 C669 1.392 . S
C668 C671 1.511 . S
C669 C665 1.376 . S
C669 C668 1.392 . S
C669 H681 0.929 . S
C670 C666 1.531 . S
C670 H682 0.960 . S
C670 H683 0.962 . S
C670 H684 0.960 . S
C671 C668 1.511 . S
C671 H685 0.961 . S
C671 H686 0.961 . S
C671 H687 0.961 . S
C672 C673 1.370 . S
C672 C674 1.363 . S
C672 H688 0.931 . S
C673 C672 1.370 . S
C673 C677 1.408 . S
C674 C672 1.363 . S
C674 C675 1.370 . S
C674 C678 1.524 . S
C675 C667 1.503 . S
C675 C674 1.370 . S
C675 C676 1.403 . S
C676 C675 1.403 . S
C676 C677 1.404 . S
C676 C679 1.539 . S
C677 C673 1.408 . S
C677 C676 1.404 . S
C677 H689 0.930 . S
C678 C674 1.524 . S
C678 H690 0.956 . S
C678 H691 0.961 . S
C678 H692 0.961 . S
C679 C676 1.539 . S
C679 H693 0.958 . S
C679 H694 0.961 . S
C679 H695 0.960 . S
H680 C664 0.931 . S
H681 C669 0.929 . S
H682 C670 0.960 . S
H683 C670 0.962 . S
H684 C670 0.960 . S
H685 C671 0.961 . S
H686 C671 0.961 . S
H687 C671 0.961 . S
H688 C672 0.931 . S
H689 C677 0.930 . S
H690 C678 0.956 . S
H691 C678 0.961 . S
H692 C678 0.961 . S
H693 C679 0.958 . S
H694 C679 0.961 . S
H695 C679 0.960 . S
C696 C697 1.391 . S
C696 C698 1.394 . S
C696 H712 0.931 . S
C697 C696 1.391 . S
C697 C701 1.376 . S
C698 C696 1.394 . S
C698 C699 1.369 . S
C698 C702 1.531 . S
C699 C698 1.369 . S
C699 C700 1.410 . S
C699 C707 1.503 . S
C700 C699 1.410 . S
C700 C701 1.392 . S
C700 C703 1.511 . S
C701 C697 1.376 . S
C701 C700 1.392 . S
C701 H713 0.929 . S
C702 C698 1.531 . S
C702 H714 0.960 . S
C702 H715 0.962 . S
C702 H716 0.960 . S
C703 C700 1.511 . S
C703 H717 0.961 . S
C703 H718 0.961 . S
C703 H719 0.961 . S
C704 C705 1.370 . S
C704 C706 1.363 . S
C704 H720 0.931 . S
C705 C704 1.370 . S
C705 C709 1.408 . S
C706 C704 1.363 . S
C706 C707 1.370 . S
C706 C710 1.524 . S
C707 C699 1.503 . S
C707 C706 1.370 . S
C707 C708 1.403 . S
C708 C707 1.403 . S
C708 C709 1.404 . S
C708 C711 1.539 . S
C709 C705 1.408 . S
C709 C708 1.404 . S
C709 H721 0.930 . S
C710 C706 1.524 . S
C710 H722 0.956 . S
C710 H723 0.961 . S
C710 H724 0.961 . S
C711 C708 1.539 . S
C711 H725 0.958 . S
C711 H726 0.961 . S
C711 H727 0.960 . S
H712 C696 0.931 . S
H713 C701 0.929 . S
H714 C702 0.960 . S
H715 C702 0.962 . S
H716 C702 0.960 . S
H717 C703 0.961 . S
H718 C703 0.961 . S
H719 C703 0.961 . S
H720 C704 0.931 . S
H721 C709 0.930 . S
H722 C710 0.956 . S
H723 C710 0.961 . S
H724 C710 0.961 . S
H725 C711 0.958 . S
H726 C711 0.961 . S
H727 C711 0.960 . S
C728 C729 1.391 . S
C728 C730 1.394 . S
C728 H744 0.931 . S
C729 C728 1.391 . S
C729 C733 1.376 . S
C730 C728 1.394 . S
C730 C731 1.369 . S
C730 C734 1.531 . S
C731 C730 1.369 . S
C731 C732 1.410 . S
C731 C739 1.503 . S
C732 C731 1.410 . S
C732 C733 1.392 . S
C732 C735 1.511 . S
C733 C729 1.376 . S
C733 C732 1.392 . S
C733 H745 0.929 . S
C734 C730 1.531 . S
C734 H746 0.960 . S
C734 H747 0.962 . S
C734 H748 0.960 . S
C735 C732 1.511 . S
C735 H749 0.961 . S
C735 H750 0.961 . S
C735 H751 0.961 . S
C736 C737 1.370 . S
C736 C738 1.363 . S
C736 H752 0.931 . S
C737 C736 1.370 . S
C737 C741 1.408 . S
C738 C736 1.363 . S
C738 C739 1.370 . S
C738 C742 1.524 . S
C739 C731 1.503 . S
C739 C738 1.370 . S
C739 C740 1.403 . S
C740 C739 1.403 . S
C740 C741 1.404 . S
C740 C743 1.539 . S
C741 C737 1.408 . S
C741 C740 1.404 . S
C741 H753 0.930 . S
C742 C738 1.524 . S
C742 H754 0.956 . S
C742 H755 0.961 . S
C742 H756 0.961 . S
C743 C740 1.539 . S
C743 H757 0.958 . S
C743 H758 0.961 . S
C743 H759 0.960 . S
H744 C728 0.931 . S
H745 C733 0.929 . S
H746 C734 0.960 . S
H747 C734 0.962 . S
H748 C734 0.960 . S
H749 C735 0.961 . S
H750 C735 0.961 . S
H751 C735 0.961 . S
H752 C736 0.931 . S
H753 C741 0.930 . S
H754 C742 0.956 . S
H755 C742 0.961 . S
H756 C742 0.961 . S
H757 C743 0.958 . S
H758 C743 0.961 . S
H759 C743 0.960 . S
C760 C761 1.391 . S
C760 C762 1.394 . S
C760 H776 0.931 . S
C761 C760 1.391 . S
C761 C765 1.376 . S
C762 C760 1.394 . S
C762 C763 1.369 . S
C762 C766 1.531 . S
C763 C762 1.369 . S
C763 C764 1.410 . S
C763 C771 1.503 . S
C764 C763 1.410 . S
C764 C765 1.392 . S
C764 C767 1.511 . S
C765 C761 1.376 . S
C765 C764 1.392 . S
C765 H777 0.929 . S
C766 C762 1.531 . S
C766 H778 0.960 . S
C766 H779 0.962 . S
C766 H780 0.960 . S
C767 C764 1.511 . S
C767 H781 0.961 . S
C767 H782 0.961 . S
C767 H783 0.961 . S
C768 C769 1.370 . S
C768 C770 1.363 . S
C768 H784 0.931 . S
C769 C768 1.370 . S
C769 C773 1.408 . S
C770 C768 1.363 . S
C770 C771 1.370 . S
C770 C774 1.524 . S
C771 C763 1.503 . S
C771 C770 1.370 . S
C771 C772 1.403 . S
C772 C771 1.403 . S
C772 C773 1.404 . S
C772 C775 1.539 . S
C773 C769 1.408 . S
C773 C772 1.404 . S
C773 H785 0.930 . S
C774 C770 1.524 . S
C774 H786 0.956 . S
C774 H787 0.961 . S
C774 H788 0.961 . S
C775 C772 1.539 . S
C775 H789 0.958 . S
C775 H790 0.961 . S
C775 H791 0.960 . S
H776 C760 0.931 . S
H777 C765 0.929 . S
H778 C766 0.960 . S
H779 C766 0.962 . S
H780 C766 0.960 . S
H781 C767 0.961 . S
H782 C767 0.961 . S
H783 C767 0.961 . S
H784 C768 0.931 . S
H785 C773 0.930 . S
H786 C774 0.956 . S
H787 C774 0.961 . S
H788 C774 0.961 . S
H789 C775 0.958 . S
H790 C775 0.961 . S
H791 C775 0.960 . S
C792 C793 1.391 . S
C792 C794 1.394 . S
C792 H808 0.931 1_565 S
C793 C792 1.391 . S
C793 C797 1.376 . S
C794 C792 1.394 . S
C794 C795 1.369 . S
C794 C798 1.531 . S
C795 C794 1.369 . S
C795 C796 1.410 . S
C795 C803 1.503 . S
C796 C795 1.410 . S
C796 C797 1.392 . S
C796 C799 1.511 . S
C797 C793 1.376 . S
C797 C796 1.392 . S
C797 H809 0.929 . S
C798 C794 1.531 . S
C798 H810 0.960 . S
C798 H811 0.962 1_565 S
C798 H812 0.960 . S
C799 C796 1.511 . S
C799 H813 0.961 . S
C799 H814 0.961 . S
C799 H815 0.961 . S
C800 C801 1.370 . S
C800 C802 1.363 . S
C800 H816 0.931 . S
C801 C800 1.370 . S
C801 C805 1.408 . S
C802 C800 1.363 . S
C802 C803 1.370 . S
C802 C806 1.524 . S
C803 C795 1.503 . S
C803 C802 1.370 . S
C803 C804 1.403 . S
C804 C803 1.403 . S
C804 C805 1.404 . S
C804 C807 1.539 . S
C805 C801 1.408 . S
C805 C804 1.404 . S
C805 H817 0.930 . S
C806 C802 1.524 . S
C806 H818 0.956 . S
C806 H819 0.961 . S
C806 H820 0.961 . S
C807 C804 1.539 . S
C807 H821 0.958 . S
C807 H822 0.961 . S
C807 H823 0.960 . S
H808 C792 0.931 1_545 S
H809 C797 0.929 . S
H810 C798 0.960 . S
H811 C798 0.962 1_545 S
H812 C798 0.960 . S
H813 C799 0.961 . S
H814 C799 0.961 . S
H815 C799 0.961 . S
H816 C800 0.931 . S
H817 C805 0.930 . S
H818 C806 0.956 . S
H819 C806 0.961 . S
H820 C806 0.961 . S
H821 C807 0.958 . S
H822 C807 0.961 . S
H823 C807 0.960 . S
C824 C825 1.391 . S
C824 C826 1.394 . S
C824 H840 0.931 . S
C825 C824 1.391 . S
C825 C829 1.376 . S
C826 C824 1.394 . S
C826 C827 1.369 . S
C826 C830 1.531 . S
C827 C826 1.369 . S
C827 C828 1.410 . S
C827 C835 1.503 . S
C828 C827 1.410 . S
C828 C829 1.392 . S
C828 C831 1.511 . S
C829 C825 1.376 . S
C829 C828 1.392 . S
C829 H841 0.929 . S
C830 C826 1.531 . S
C830 H842 0.960 . S
C830 H843 0.962 . S
C830 H844 0.960 . S
C831 C828 1.511 . S
C831 H845 0.961 . S
C831 H846 0.961 . S
C831 H847 0.961 . S
C832 C833 1.370 . S
C832 C834 1.363 . S
C832 H848 0.931 . S
C833 C832 1.370 . S
C833 C837 1.408 . S
C834 C832 1.363 . S
C834 C835 1.370 . S
C834 C838 1.524 . S
C835 C827 1.503 . S
C835 C834 1.370 . S
C835 C836 1.403 . S
C836 C835 1.403 . S
C836 C837 1.404 . S
C836 C839 1.539 . S
C837 C833 1.408 . S
C837 C836 1.404 . S
C837 H849 0.930 . S
C838 C834 1.524 . S
C838 H850 0.956 . S
C838 H851 0.961 . S
C838 H852 0.961 . S
C839 C836 1.539 . S
C839 H853 0.958 . S
C839 H854 0.961 . S
C839 H855 0.960 . S
H840 C824 0.931 . S
H841 C829 0.929 . S
H842 C830 0.960 . S
H843 C830 0.962 . S
H844 C830 0.960 . S
H845 C831 0.961 . S
H846 C831 0.961 . S
H847 C831 0.961 . S
H848 C832 0.931 . S
H849 C837 0.930 . S
H850 C838 0.956 . S
H851 C838 0.961 . S
H852 C838 0.961 . S
H853 C839 0.958 . S
H854 C839 0.961 . S
H855 C839 0.960 . S
C856 C857 1.391 1_455 S
C856 C858 1.394 . S
C856 H872 0.931 . S
C857 C856 1.391 1_655 S
C857 C861 1.376 1_554 S
C858 C856 1.394 . S
C858 C859 1.369 1_455 S
C858 C862 1.531 . S
C859 C858 1.369 1_655 S
C859 C860 1.410 . S
C859 C867 1.503 1_655 S
C860 C859 1.410 . S
C860 C861 1.392 1_554 S
C860 C863 1.511 1_554 S
C861 C857 1.376 1_556 S
C861 C860 1.392 1_556 S
C861 H873 0.929 . S
C862 C858 1.531 . S
C862 H874 0.960 . S
C862 H875 0.962 1_554 S
C862 H876 0.960 . S
C863 C860 1.511 1_556 S
C863 H877 0.961 . S
C863 H878 0.961 . S
C863 H879 0.961 1_556 S
C864 C865 1.372 1_556 S
C864 C866 1.363 . S
C864 H880 0.931 . S
C865 C864 1.372 1_554 S
C865 C869 1.406 1_455 S
C866 C864 1.363 . S
C866 C867 1.372 1_556 S
C866 C870 1.524 . S
C867 C859 1.503 1_455 S
C867 C866 1.372 1_554 S
C867 C868 1.402 1_455 S
C868 C867 1.402 1_655 S
C868 C869 1.404 . S
C868 C871 1.539 . S
C869 C865 1.406 1_655 S
C869 C868 1.404 . S
C869 H881 0.930 . S
C870 C866 1.524 . S
C870 H882 0.956 . S
C870 H883 0.961 1_455 S
C870 H884 0.961 . S
C871 C868 1.539 . S
C871 H885 0.958 1_655 S
C871 H886 0.961 . S
C871 H887 0.960 . S
H872 C856 0.931 . S
H873 C861 0.929 . S
H874 C862 0.960 . S
H875 C862 0.962 1_556 S
H876 C862 0.960 . S
H877 C863 0.961 . S
H878 C863 0.961 . S
H879 C863 0.961 1_554 S
H880 C864 0.931 . S
H881 C869 0.930 . S
H882 C870 0.956 . S
H883 C870 0.961 1_655 S
H884 C870 0.961 . S
H885 C871 0.958 1_455 S
H886 C871 0.961 . S
H887 C871 0.960 . S
C888 C889 1.391 . S
C888 C890 1.394 . S
C888 H904 0.931 . S
C889 C888 1.391 . S
C889 C893 1.376 . S
C890 C888 1.394 . S
C890 C891 1.369 . S
C890 C894 1.531 . S
C891 C890 1.369 . S
C891 C892 1.410 . S
C891 C899 1.503 . S
C892 C891 1.410 . S
C892 C893 1.392 . S
C892 C895 1.511 . S
C893 C889 1.376 . S
C893 C892 1.392 . S
C893 H905 0.929 . S
C894 C890 1.531 . S
C894 H906 0.960 . S
C894 H907 0.962 . S
C894 H908 0.960 . S
C895 C892 1.511 . S
C895 H909 0.961 . S
C895 H910 0.961 . S
C895 H911 0.961 . S
C896 C897 1.370 . S
C896 C898 1.363 . S
C896 H912 0.931 . S
C897 C896 1.370 . S
C897 C901 1.408 . S
C898 C896 1.363 . S
C898 C899 1.370 . S
C898 C902 1.524 . S
C899 C891 1.503 . S
C899 C898 1.370 . S
C899 C900 1.403 . S
C900 C899 1.403 . S
C900 C901 1.404 . S
C900 C903 1.539 . S
C901 C897 1.408 . S
C901 C900 1.404 . S
C901 H913 0.930 . S
C902 C898 1.524 . S
C902 H914 0.956 . S
C902 H915 0.961 . S
C902 H916 0.961 . S
C903 C900 1.539 . S
C903 H917 0.958 . S
C903 H918 0.961 . S
C903 H919 0.960 . S
H904 C888 0.931 . S
H905 C893 0.929 . S
H906 C894 0.960 . S
H907 C894 0.962 . S
H908 C894 0.960 . S
H909 C895 0.961 . S
H910 C895 0.961 . S
H911 C895 0.961 . S
H912 C896 0.931 . S
H913 C901 0.930 . S
H914 C902 0.956 . S
H915 C902 0.961 . S
H916 C902 0.961 . S
H917 C903 0.958 . S
H918 C903 0.961 . S
H919 C903 0.960 . S
C920 C921 1.391 . S
C920 C922 1.394 . S
C920 H936 0.931 . S
C921 C920 1.391 . S
C921 C925 1.376 . S
C922 C920 1.394 . S
C922 C923 1.369 . S
C922 C926 1.531 . S
C923 C922 1.369 . S
C923 C924 1.410 . S
C923 C931 1.503 . S
C924 C923 1.410 . S
C924 C925 1.392 . S
C924 C927 1.511 . S
C925 C921 1.376 . S
C925 C924 1.392 . S
C925 H937 0.929 . S
C926 C922 1.531 . S
C926 H938 0.960 . S
C926 H939 0.962 . S
C926 H940 0.960 . S
C927 C924 1.511 . S
C927 H941 0.961 . S
C927 H942 0.961 . S
C927 H943 0.961 . S
C928 C929 1.370 . S
C928 C930 1.363 . S
C928 H944 0.931 . S
C929 C928 1.370 . S
C929 C933 1.408 . S
C930 C928 1.363 . S
C930 C931 1.370 . S
C930 C934 1.524 . S
C931 C923 1.503 . S
C931 C930 1.370 . S
C931 C932 1.403 . S
C932 C931 1.403 . S
C932 C933 1.404 . S
C932 C935 1.539 . S
C933 C929 1.408 . S
C933 C932 1.404 . S
C933 H945 0.930 . S
C934 C930 1.524 . S
C934 H946 0.956 . S
C934 H947 0.961 . S
C934 H948 0.961 . S
C935 C932 1.539 . S
C935 H949 0.958 . S
C935 H950 0.961 . S
C935 H951 0.960 . S
H936 C920 0.931 . S
H937 C925 0.929 . S
H938 C926 0.960 . S
H939 C926 0.962 . S
H940 C926 0.960 . S
H941 C927 0.961 . S
H942 C927 0.961 . S
H943 C927 0.961 . S
H944 C928 0.931 . S
H945 C933 0.930 . S
H946 C934 0.956 . S
H947 C934 0.961 . S
H948 C934 0.961 . S
H949 C935 0.958 . S
H950 C935 0.961 . S
H951 C935 0.960 . S
C952 C953 1.391 . S
C952 C954 1.394 . S
C952 H968 0.931 . S
C953 C952 1.391 . S
C953 C957 1.376 1_455 S
C954 C952 1.394 . S
C954 C955 1.369 1_455 S
C954 C958 1.531 . S
C955 C954 1.369 1_655 S
C955 C956 1.410 . S
C955 C963 1.503 1_565 S
C956 C955 1.410 . S
C956 C957 1.392 . S
C956 C959 1.511 . S
C957 C953 1.376 1_655 S
C957 C956 1.392 . S
C957 H969 0.929 . S
C958 C954 1.531 . S
C958 H970 0.960 1_565 S
C958 H971 0.962 . S
C958 H972 0.960 . S
C959 C956 1.511 . S
C959 H973 0.961 . S
C959 H974 0.961 1_565 S
C959 H975 0.961 . S
C960 C961 1.370 1_455 S
C960 C962 1.363 . S
C960 H976 0.931 . S
C961 C960 1.370 1_655 S
C961 C965 1.408 . S
C962 C960 1.363 . S
C962 C963 1.370 1_455 S
C962 C966 1.524 . S
C963 C955 1.503 1_545 S
C963 C962 1.370 1_655 S
C963 C964 1.403 . S
C964 C963 1.403 . S
C964 C965 1.404 . S
C964 C967 1.539 . S
C965 C961 1.408 . S
C965 C964 1.404 . S
C965 H977 0.930 . S
C966 C962 1.524 . S
C966 H978 0.956 . S
C966 H979 0.961 1_545 S
C966 H980 0.961 . S
C967 C964 1.539 . S
C967 H981 0.958 . S
C967 H982 0.961 . S
C967 H983 0.960 1_545 S
H968 C952 0.931 . S
H969 C957 0.929 . S
H970 C958 0.960 1_545 S
H971 C958 0.962 . S
H972 C958 0.960 . S
H973 C959 0.961 . S
H974 C959 0.961 1_545 S
H975 C959 0.961 . S
H976 C960 0.931 . S
H977 C965 0.930 . S
H978 C966 0.956 . S
H979 C966 0.961 1_565 S
H980 C966 0.961 . S
H981 C967 0.958 . S
H982 C967 0.961 . S
H983 C967 0.960 1_565 S
C984 C985 1.391 . S
C984 C986 1.394 . S
C984 H1000 0.931 . S
C985 C984 1.391 . S
C985 C989 1.376 . S
C986 C984 1.394 . S
C986 C987 1.369 . S
C986 C990 1.531 . S
C987 C986 1.369 . S
C987 C988 1.410 . S
C987 C995 1.503 . S
C988 C987 1.410 . S
C988 C989 1.392 . S
C988 C991 1.511 . S
C989 C985 1.376 . S
C989 C988 1.392 . S
C989 H1001 0.929 . S
C990 C986 1.531 . S
C990 H1002 0.960 . S
C990 H1003 0.962 . S
C990 H1004 0.960 . S
C991 C988 1.511 . S
C991 H1005 0.961 . S
C991 H1006 0.961 . S
C991 H1007 0.961 . S
C992 C993 1.370 . S
C992 C994 1.363 . S
C992 H1008 0.931 . S
C993 C992 1.370 . S
C993 C997 1.408 . S
C994 C992 1.363 . S
C994 C995 1.370 . S
C994 C998 1.524 . S
C995 C987 1.503 . S
C995 C994 1.370 . S
C995 C996 1.403 . S
C996 C995 1.403 . S
C996 C997 1.404 . S
C996 C999 1.539 . S
C997 C993 1.408 . S
C997 C996 1.404 . S
C997 H1009 0.930 . S
C998 C994 1.524 . S
C998 H1010 0.956 . S
C998 H1011 0.961 . S
C998 H1012 0.961 . S
C999 C996 1.539 . S
C999 H1013 0.958 . S
C999 H1014 0.961 . S
C999 H1015 0.960 . S
H1000 C984 0.931 . S
H1001 C989 0.929 . S
H1002 C990 0.960 . S
H1003 C990 0.962 . S
H1004 C990 0.960 . S
H1005 C991 0.961 . S
H1006 C991 0.961 . S
H1007 C991 0.961 . S
H1008 C992 0.931 . S
H1009 C997 0.930 . S
H1010 C998 0.956 . S
H1011 C998 0.961 . S
H1012 C998 0.961 . S
H1013 C999 0.958 . S
H1014 C999 0.961 . S
H1015 C999 0.960 . S
C1016 C1017 1.391 . S
C1016 C1018 1.394 . S
C1016 H1032 0.931 . S
C1017 C1016 1.391 . S
C1017 C1021 1.376 . S
C1018 C1016 1.394 . S
C1018 C1019 1.369 . S
C1018 C1022 1.531 . S
C1019 C1018 1.369 . S
C1019 C1020 1.410 . S
C1019 C1027 1.503 . S
C1020 C1019 1.410 . S
C1020 C1021 1.392 . S
C1020 C1023 1.511 . S
C1021 C1017 1.376 . S
C1021 C1020 1.392 . S
C1021 H1033 0.929 . S
C1022 C1018 1.531 . S
C1022 H1034 0.960 . S
C1022 H1035 0.962 . S
C1022 H1036 0.960 . S
C1023 C1020 1.511 . S
C1023 H1037 0.961 . S
C1023 H1038 0.961 . S
C1023 H1039 0.961 . S
C1024 C1025 1.370 . S
C1024 C1026 1.363 . S
C1024 H1040 0.931 . S
C1025 C1024 1.370 . S
C1025 C1029 1.408 . S
C1026 C1024 1.363 . S
C1026 C1027 1.370 . S
C1026 C1030 1.524 . S
C1027 C1019 1.503 . S
C1027 C1026 1.370 . S
C1027 C1028 1.403 . S
C1028 C1027 1.403 . S
C1028 C1029 1.404 . S
C1028 C1031 1.539 . S
C1029 C1025 1.408 . S
C1029 C1028 1.404 . S
C1029 H1041 0.930 . S
C1030 C1026 1.524 . S
C1030 H1042 0.956 . S
C1030 H1043 0.961 . S
C1030 H1044 0.961 . S
C1031 C1028 1.539 . S
C1031 H1045 0.958 . S
C1031 H1046 0.961 . S
C1031 H1047 0.960 . S
H1032 C1016 0.931 . S
H1033 C1021 0.929 . S
H1034 C1022 0.960 . S
H1035 C1022 0.962 . S
H1036 C1022 0.960 . S
H1037 C1023 0.961 . S
H1038 C1023 0.961 . S
H1039 C1023 0.961 . S
H1040 C1024 0.931 . S
H1041 C1029 0.930 . S
H1042 C1030 0.956 . S
H1043 C1030 0.961 . S
H1044 C1030 0.961 . S
H1045 C1031 0.958 . S
H1046 C1031 0.961 . S
H1047 C1031 0.960 . S
C1048 C1049 1.391 . S
C1048 C1050 1.394 . S
C1048 H1064 0.931 . S
C1049 C1048 1.391 . S
C1049 C1053 1.376 . S
C1050 C1048 1.394 . S
C1050 C1051 1.369 . S
C1050 C1054 1.531 . S
C1051 C1050 1.369 . S
C1051 C1052 1.410 . S
C1051 C1059 1.503 . S
C1052 C1051 1.410 . S
C1052 C1053 1.392 . S
C1052 C1055 1.511 . S
C1053 C1049 1.376 . S
C1053 C1052 1.392 . S
C1053 H1065 0.929 . S
C1054 C1050 1.531 . S
C1054 H1066 0.960 . S
C1054 H1067 0.962 . S
C1054 H1068 0.960 . S
C1055 C1052 1.511 . S
C1055 H1069 0.961 . S
C1055 H1070 0.961 . S
C1055 H1071 0.961 . S
C1056 C1057 1.370 . S
C1056 C1058 1.363 . S
C1056 H1072 0.931 . S
C1057 C1056 1.370 . S
C1057 C1061 1.408 . S
C1058 C1056 1.363 . S
C1058 C1059 1.370 . S
C1058 C1062 1.524 . S
C1059 C1051 1.503 . S
C1059 C1058 1.370 . S
C1059 C1060 1.403 . S
C1060 C1059 1.403 . S
C1060 C1061 1.404 . S
C1060 C1063 1.539 . S
C1061 C1057 1.408 . S
C1061 C1060 1.404 . S
C1061 H1073 0.930 . S
C1062 C1058 1.524 . S
C1062 H1074 0.956 . S
C1062 H1075 0.961 . S
C1062 H1076 0.961 . S
C1063 C1060 1.539 . S
C1063 H1077 0.958 . S
C1063 H1078 0.961 . S
C1063 H1079 0.960 . S
H1064 C1048 0.931 . S
H1065 C1053 0.929 . S
H1066 C1054 0.960 . S
H1067 C1054 0.962 . S
H1068 C1054 0.960 . S
H1069 C1055 0.961 . S
H1070 C1055 0.961 . S
H1071 C1055 0.961 . S
H1072 C1056 0.931 . S
H1073 C1061 0.930 . S
H1074 C1062 0.956 . S
H1075 C1062 0.961 . S
H1076 C1062 0.961 . S
H1077 C1063 0.958 . S
H1078 C1063 0.961 . S
H1079 C1063 0.960 . S
C1080 C1081 1.379 1_554 S
C1080 C1082 1.394 . S
C1080 H1096 0.931 . S
C1081 C1080 1.379 1_556 S
C1081 C1085 1.388 . S
C1082 C1080 1.394 . S
C1082 C1083 1.403 . S
C1082 C1086 1.531 . S
C1083 C1082 1.403 . S
C1083 C1084 1.375 1_554 S
C1083 C1091 1.503 1_565 S
C1084 C1083 1.375 1_556 S
C1084 C1085 1.392 . S
C1084 C1087 1.511 . S
C1085 C1081 1.388 . S
C1085 C1084 1.392 . S
C1085 H1097 0.929 . S
C1086 C1082 1.531 . S
C1086 H1098 0.960 1_565 S
C1086 H1099 0.962 . S
C1086 H1100 0.960 . S
C1087 C1084 1.511 . S
C1087 H1101 0.961 . S
C1087 H1102 0.961 1_565 S
C1087 H1103 0.961 . S
C1088 C1089 1.377 . S
C1088 C1090 1.363 . S
C1088 H1104 0.931 . S
C1089 C1088 1.377 . S
C1089 C1093 1.401 1_556 S
C1090 C1088 1.363 . S
C1090 C1091 1.368 1_556 S
C1090 C1094 1.524 . S
C1091 C1083 1.503 1_545 S
C1091 C1090 1.368 1_554 S
C1091 C1092 1.405 . S
C1092 C1091 1.405 . S
C1092 C1093 1.404 . S
C1092 C1095 1.539 . S
C1093 C1089 1.401 1_554 S
C1093 C1092 1.404 . S
C1093 H1105 0.930 . S
C1094 C1090 1.524 . S
C1094 H1106 0.956 1_546 S
C1094 H1107 0.961 1_545 S
C1094 H1108 0.961 . S
C1095 C1092 1.539 . S
C1095 H1109 0.958 . S
C1095 H1110 0.961 . S
C1095 H1111 0.960 . S
H1096 C1080 0.931 . S
H1097 C1085 0.929 . S
H1098 C1086 0.960 1_545 S
H1099 C1086 0.962 . S
H1100 C1086 0.960 . S
H1101 C1087 0.961 . S
H1102 C1087 0.961 1_545 S
H1103 C1087 0.961 . S
H1104 C1088 0.931 . S
H1105 C1093 0.930 . S
H1106 C1094 0.956 1_564 S
H1107 C1094 0.961 1_565 S
H1108 C1094 0.961 . S
H1109 C1095 0.958 . S
H1110 C1095 0.961 . S
H1111 C1095 0.960 . S
C1112 C1113 1.391 . S
C1112 C1114 1.394 . S
C1112 H1128 0.931 . S
C1113 C1112 1.391 . S
C1113 C1117 1.376 1_554 S
C1114 C1112 1.394 . S
C1114 C1115 1.369 . S
C1114 C1118 1.531 . S
C1115 C1114 1.369 . S
C1115 C1116 1.410 1_554 S
C1115 C1123 1.503 . S
C1116 C1115 1.410 1_556 S
C1116 C1117 1.392 . S
C1116 C1119 1.511 . S
C1117 C1113 1.376 1_556 S
C1117 C1116 1.392 . S
C1117 H1129 0.929 . S
C1118 C1114 1.531 . S
C1118 H1130 0.960 . S
C1118 H1131 0.962 . S
C1118 H1132 0.960 . S
C1119 C1116 1.511 . S
C1119 H1133 0.961 . S
C1119 H1134 0.961 . S
C1119 H1135 0.961 . S
C1120 C1121 1.370 . S
C1120 C1122 1.363 . S
C1120 H1136 0.931 . S
C1121 C1120 1.370 . S
C1121 C1125 1.408 1_554 S
C1122 C1120 1.363 . S
C1122 C1123 1.370 . S
C1122 C1126 1.524 . S
C1123 C1115 1.503 . S
C1123 C1122 1.370 . S
C1123 C1124 1.403 1_554 S
C1124 C1123 1.403 1_556 S
C1124 C1125 1.404 . S
C1124 C1127 1.539 . S
C1125 C1121 1.408 1_556 S
C1125 C1124 1.404 . S
C1125 H1137 0.930 . S
C1126 C1122 1.524 . S
C1126 H1138 0.956 . S
C1126 H1139 0.961 . S
C1126 H1140 0.961 . S
C1127 C1124 1.539 . S
C1127 H1141 0.958 . S
C1127 H1142 0.961 . S
C1127 H1143 0.960 . S
H1128 C1112 0.931 . S
H1129 C1117 0.929 . S
H1130 C1118 0.960 . S
H1131 C1118 0.962 . S
H1132 C1118 0.960 . S
H1133 C1119 0.961 . S
H1134 C1119 0.961 . S
H1135 C1119 0.961 . S
H1136 C1120 0.931 . S
H1137 C1125 0.930 . S
H1138 C1126 0.956 . S
H1139 C1126 0.961 . S
H1140 C1126 0.961 . S
H1141 C1127 0.958 . S
H1142 C1127 0.961 . S
H1143 C1127 0.960 . S
C1144 C1145 1.391 . S
C1144 C1146 1.394 . S
C1144 H1160 0.931 . S
C1145 C1144 1.391 . S
C1145 C1149 1.376 1_554 S
C1146 C1144 1.394 . S
C1146 C1147 1.369 . S
C1146 C1150 1.531 . S
C1147 C1146 1.369 . S
C1147 C1148 1.410 1_554 S
C1147 C1155 1.503 . S
C1148 C1147 1.410 1_556 S
C1148 C1149 1.392 . S
C1148 C1151 1.511 . S
C1149 C1145 1.376 1_556 S
C1149 C1148 1.392 . S
C1149 H1161 0.929 . S
C1150 C1146 1.531 . S
C1150 H1162 0.960 . S
C1150 H1163 0.962 . S
C1150 H1164 0.960 . S
C1151 C1148 1.511 . S
C1151 H1165 0.961 . S
C1151 H1166 0.961 . S
C1151 H1167 0.961 . S
C1152 C1153 1.370 . S
C1152 C1154 1.363 . S
C1152 H1168 0.931 . S
C1153 C1152 1.370 . S
C1153 C1157 1.408 1_554 S
C1154 C1152 1.363 . S
C1154 C1155 1.370 . S
C1154 C1158 1.524 . S
C1155 C1147 1.503 . S
C1155 C1154 1.370 . S
C1155 C1156 1.403 1_554 S
C1156 C1155 1.403 1_556 S
C1156 C1157 1.404 . S
C1156 C1159 1.539 . S
C1157 C1153 1.408 1_556 S
C1157 C1156 1.404 . S
C1157 H1169 0.930 . S
C1158 C1154 1.524 . S
C1158 H1170 0.956 . S
C1158 H1171 0.961 . S
C1158 H1172 0.961 . S
C1159 C1156 1.539 . S
C1159 H1173 0.958 . S
C1159 H1174 0.961 . S
C1159 H1175 0.960 . S
H1160 C1144 0.931 . S
H1161 C1149 0.929 . S
H1162 C1150 0.960 . S
H1163 C1150 0.962 . S
H1164 C1150 0.960 . S
H1165 C1151 0.961 . S
H1166 C1151 0.961 . S
H1167 C1151 0.961 . S
H1168 C1152 0.931 . S
H1169 C1157 0.930 . S
H1170 C1158 0.956 . S
H1171 C1158 0.961 . S
H1172 C1158 0.961 . S
H1173 C1159 0.958 . S
H1174 C1159 0.961 . S
H1175 C1159 0.960 . S
C1176 C1177 1.391 . S
C1176 C1178 1.394 . S
C1176 H1192 0.931 . S
C1177 C1176 1.391 . S
C1177 C1181 1.376 . S
C1178 C1176 1.394 . S
C1178 C1179 1.369 . S
C1178 C1182 1.531 . S
C1179 C1178 1.369 . S
C1179 C1180 1.410 . S
C1179 C1187 1.503 1_455 S
C1180 C1179 1.410 . S
C1180 C1181 1.392 . S
C1180 C1183 1.511 . S
C1181 C1177 1.376 . S
C1181 C1180 1.392 . S
C1181 H1193 0.929 . S
C1182 C1178 1.531 . S
C1182 H1194 0.960 . S
C1182 H1195 0.962 . S
C1182 H1196 0.960 . S
C1183 C1180 1.511 . S
C1183 H1197 0.961 . S
C1183 H1198 0.961 1_455 S
C1183 H1199 0.961 . S
C1184 C1185 1.370 . S
C1184 C1186 1.363 . S
C1184 H1200 0.931 . S
C1185 C1184 1.370 . S
C1185 C1189 1.408 . S
C1186 C1184 1.363 . S
C1186 C1187 1.370 . S
C1186 C1190 1.524 . S
C1187 C1179 1.503 1_655 S
C1187 C1186 1.370 . S
C1187 C1188 1.403 . S
C1188 C1187 1.403 . S
C1188 C1189 1.404 . S
C1188 C1191 1.539 . S
C1189 C1185 1.408 . S
C1189 C1188 1.404 . S
C1189 H1201 0.930 . S
C1190 C1186 1.524 . S
C1190 H1202 0.956 . S
C1190 H1203 0.975 . S
C1190 H1204 0.961 . S
C1191 C1188 1.539 . S
C1191 H1205 0.958 . S
C1191 H1206 0.961 . S
C1191 H1207 0.945 1_655 S
H1192 C1176 0.931 . S
H1193 C1181 0.929 . S
H1194 C1182 0.960 . S
H1195 C1182 0.962 . S
H1196 C1182 0.960 . S
H1197 C1183 0.961 . S
H1198 C1183 0.961 1_655 S
H1199 C1183 0.961 . S
H1200 C1184 0.931 . S
H1201 C1189 0.930 . S
H1202 C1190 0.956 . S
H1203 C1190 0.975 . S
H1204 C1190 0.961 . S
H1205 C1191 0.958 . S
H1206 C1191 0.961 . S
H1207 C1191 0.945 1_455 S
C1208 C1209 1.391 . S
C1208 C1210 1.394 . S
C1208 H1224 0.931 . S
C1209 C1208 1.391 . S
C1209 C1213 1.376 . S
C1210 C1208 1.394 . S
C1210 C1211 1.369 . S
C1210 C1214 1.531 . S
C1211 C1210 1.369 . S
C1211 C1212 1.410 . S
C1211 C1219 1.503 . S
C1212 C1211 1.410 . S
C1212 C1213 1.392 . S
C1212 C1215 1.511 . S
C1213 C1209 1.376 . S
C1213 C1212 1.392 . S
C1213 H1225 0.929 . S
C1214 C1210 1.531 . S
C1214 H1226 0.960 . S
C1214 H1227 0.962 . S
C1214 H1228 0.960 . S
C1215 C1212 1.511 . S
C1215 H1229 0.961 . S
C1215 H1230 0.961 . S
C1215 H1231 0.961 . S
C1216 C1217 1.370 . S
C1216 C1218 1.363 . S
C1216 H1232 0.931 . S
C1217 C1216 1.370 . S
C1217 C1221 1.408 . S
C1218 C1216 1.363 . S
C1218 C1219 1.370 . S
C1218 C1222 1.524 . S
C1219 C1211 1.503 . S
C1219 C1218 1.370 . S
C1219 C1220 1.403 . S
C1220 C1219 1.403 . S
C1220 C1221 1.404 . S
C1220 C1223 1.539 . S
C1221 C1217 1.408 . S
C1221 C1220 1.404 . S
C1221 H1233 0.930 . S
C1222 C1218 1.524 . S
C1222 H1234 0.956 . S
C1222 H1235 0.961 . S
C1222 H1236 0.961 . S
C1223 C1220 1.539 . S
C1223 H1237 0.958 . S
C1223 H1238 0.961 . S
C1223 H1239 0.960 . S
H1224 C1208 0.931 . S
H1225 C1213 0.929 . S
H1226 C1214 0.960 . S
H1227 C1214 0.962 . S
H1228 C1214 0.960 . S
H1229 C1215 0.961 . S
H1230 C1215 0.961 . S
H1231 C1215 0.961 . S
H1232 C1216 0.931 . S
H1233 C1221 0.930 . S
H1234 C1222 0.956 . S
H1235 C1222 0.961 . S
H1236 C1222 0.961 . S
H1237 C1223 0.958 . S
H1238 C1223 0.961 . S
H1239 C1223 0.960 . S
C1240 C1241 1.391 . S
C1240 C1242 1.394 . S
C1240 H1256 0.931 . S
C1241 C1240 1.391 . S
C1241 C1245 1.376 . S
C1242 C1240 1.394 . S
C1242 C1243 1.369 . S
C1242 C1246 1.531 . S
C1243 C1242 1.369 . S
C1243 C1244 1.410 . S
C1243 C1251 1.503 . S
C1244 C1243 1.410 . S
C1244 C1245 1.392 . S
C1244 C1247 1.511 . S
C1245 C1241 1.376 . S
C1245 C1244 1.392 . S
C1245 H1257 0.929 . S
C1246 C1242 1.531 . S
C1246 H1258 0.960 . S
C1246 H1259 0.962 . S
C1246 H1260 0.960 . S
C1247 C1244 1.511 . S
C1247 H1261 0.961 . S
C1247 H1262 0.961 . S
C1247 H1263 0.961 . S
C1248 C1249 1.370 . S
C1248 C1250 1.363 . S
C1248 H1264 0.931 . S
C1249 C1248 1.370 . S
C1249 C1253 1.408 . S
C1250 C1248 1.363 . S
C1250 C1251 1.370 . S
C1250 C1254 1.524 . S
C1251 C1243 1.503 . S
C1251 C1250 1.370 . S
C1251 C1252 1.403 . S
C1252 C1251 1.403 . S
C1252 C1253 1.404 . S
C1252 C1255 1.539 . S
C1253 C1249 1.408 . S
C1253 C1252 1.404 . S
C1253 H1265 0.930 . S
C1254 C1250 1.524 . S
C1254 H1266 0.956 . S
C1254 H1267 0.961 . S
C1254 H1268 0.961 . S
C1255 C1252 1.539 . S
C1255 H1269 0.958 . S
C1255 H1270 0.961 . S
C1255 H1271 0.960 . S
H1256 C1240 0.931 . S
H1257 C1245 0.929 . S
H1258 C1246 0.960 . S
H1259 C1246 0.962 . S
H1260 C1246 0.960 . S
H1261 C1247 0.961 . S
H1262 C1247 0.961 . S
H1263 C1247 0.961 . S
H1264 C1248 0.931 . S
H1265 C1253 0.930 . S
H1266 C1254 0.956 . S
H1267 C1254 0.961 . S
H1268 C1254 0.961 . S
H1269 C1255 0.958 . S
H1270 C1255 0.961 . S
H1271 C1255 0.960 . S
C1272 C1273 1.391 . S
C1272 C1274 1.394 . S
C1272 H1288 0.931 . S
C1273 C1272 1.391 . S
C1273 C1277 1.376 1_565 S
C1274 C1272 1.394 . S
C1274 C1275 1.369 1_565 S
C1274 C1278 1.531 . S
C1275 C1274 1.369 1_545 S
C1275 C1276 1.410 . S
C1275 C1283 1.503 1_655 S
C1276 C1275 1.410 . S
C1276 C1277 1.392 . S
C1276 C1279 1.511 . S
C1277 C1273 1.376 1_545 S
C1277 C1276 1.392 . S
C1277 H1289 0.929 . S
C1278 C1274 1.531 . S
C1278 H1290 0.960 1_665 S
C1278 H1291 0.962 . S
C1278 H1292 0.960 . S
C1279 C1276 1.511 . S
C1279 H1293 0.961 . S
C1279 H1294 0.961 1_655 S
C1279 H1295 0.961 . S
C1280 C1281 1.370 1_565 S
C1280 C1282 1.363 . S
C1280 H1296 0.931 . S
C1281 C1280 1.370 1_545 S
C1281 C1285 1.408 . S
C1282 C1280 1.363 . S
C1282 C1283 1.370 1_565 S
C1282 C1286 1.524 . S
C1283 C1275 1.503 1_455 S
C1283 C1282 1.370 1_545 S
C1283 C1284 1.403 . S
C1284 C1283 1.403 . S
C1284 C1285 1.404 . S
C1284 C1287 1.539 . S
C1285 C1281 1.408 . S
C1285 C1284 1.404 . S
C1285 H1297 0.930 . S
C1286 C1282 1.524 . S
C1286 H1298 0.956 . S
C1286 H1299 0.961 . S
C1286 H1300 0.961 . S
C1287 C1284 1.539 . S
C1287 H1301 0.958 . S
C1287 H1302 0.961 . S
C1287 H1303 0.960 1_455 S
H1288 C1272 0.931 . S
H1289 C1277 0.929 . S
H1290 C1278 0.960 1_445 S
H1291 C1278 0.962 . S
H1292 C1278 0.960 . S
H1293 C1279 0.961 . S
H1294 C1279 0.961 1_455 S
H1295 C1279 0.961 . S
H1296 C1280 0.931 . S
H1297 C1285 0.930 . S
H1298 C1286 0.956 . S
H1299 C1286 0.961 . S
H1300 C1286 0.961 . S
H1301 C1287 0.958 . S
H1302 C1287 0.961 . S
H1303 C1287 0.960 1_655 S
C1304 C1305 1.391 . S
C1304 C1306 1.394 . S
C1304 H1320 0.931 . S
C1305 C1304 1.391 . S
C1305 C1309 1.376 . S
C1306 C1304 1.394 . S
C1306 C1307 1.369 . S
C1306 C1310 1.531 . S
C1307 C1306 1.369 . S
C1307 C1308 1.410 . S
C1307 C1315 1.503 . S
C1308 C1307 1.410 . S
C1308 C1309 1.392 . S
C1308 C1311 1.511 . S
C1309 C1305 1.376 . S
C1309 C1308 1.392 . S
C1309 H1321 0.929 . S
C1310 C1306 1.531 . S
C1310 H1322 0.960 . S
C1310 H1323 0.962 . S
C1310 H1324 0.960 . S
C1311 C1308 1.511 . S
C1311 H1325 0.961 . S
C1311 H1326 0.961 . S
C1311 H1327 0.961 . S
C1312 C1313 1.370 . S
C1312 C1314 1.363 . S
C1312 H1328 0.931 . S
C1313 C1312 1.370 . S
C1313 C1317 1.408 . S
C1314 C1312 1.363 . S
C1314 C1315 1.370 . S
C1314 C1318 1.524 . S
C1315 C1307 1.503 . S
C1315 C1314 1.370 . S
C1315 C1316 1.403 . S
C1316 C1315 1.403 . S
C1316 C1317 1.404 . S
C1316 C1319 1.539 . S
C1317 C1313 1.408 . S
C1317 C1316 1.404 . S
C1317 H1329 0.930 . S
C1318 C1314 1.524 . S
C1318 H1330 0.956 . S
C1318 H1331 0.961 . S
C1318 H1332 0.961 . S
C1319 C1316 1.539 . S
C1319 H1333 0.958 . S
C1319 H1334 0.961 . S
C1319 H1335 0.960 . S
H1320 C1304 0.931 . S
H1321 C1309 0.929 . S
H1322 C1310 0.960 . S
H1323 C1310 0.962 . S
H1324 C1310 0.960 . S
H1325 C1311 0.961 . S
H1326 C1311 0.961 . S
H1327 C1311 0.961 . S
H1328 C1312 0.931 . S
H1329 C1317 0.930 . S
H1330 C1318 0.956 . S
H1331 C1318 0.961 . S
H1332 C1318 0.961 . S
H1333 C1319 0.958 . S
H1334 C1319 0.961 . S
H1335 C1319 0.960 . S
C1336 C1337 1.391 . S
C1336 C1338 1.394 . S
C1336 H1352 0.931 . S
C1337 C1336 1.391 . S
C1337 C1341 1.376 1_545 S
C1338 C1336 1.394 . S
C1338 C1339 1.369 1_545 S
C1338 C1342 1.531 . S
C1339 C1338 1.369 1_565 S
C1339 C1340 1.410 . S
C1339 C1347 1.503 . S
C1340 C1339 1.410 . S
C1340 C1341 1.392 . S
C1340 C1343 1.511 . S
C1341 C1337 1.376 1_565 S
C1341 C1340 1.392 . S
C1341 H1353 0.929 . S
C1342 C1338 1.531 . S
C1342 H1354 0.960 . S
C1342 H1355 0.962 . S
C1342 H1356 0.960 . S
C1343 C1340 1.511 . S
C1343 H1357 0.961 . S
C1343 H1358 0.961 . S
C1343 H1359 0.961 . S
C1344 C1345 1.370 1_545 S
C1344 C1346 1.363 . S
C1344 H1360 0.931 . S
C1345 C1344 1.370 1_565 S
C1345 C1349 1.408 . S
C1346 C1344 1.363 . S
C1346 C1347 1.370 1_545 S
C1346 C1350 1.524 . S
C1347 C1339 1.503 . S
C1347 C1346 1.370 1_565 S
C1347 C1348 1.403 . S
C1348 C1347 1.403 . S
C1348 C1349 1.404 . S
C1348 C1351 1.539 . S
C1349 C1345 1.408 . S
C1349 C1348 1.404 . S
C1349 H1361 0.930 . S
C1350 C1346 1.524 . S
C1350 H1362 0.956 . S
C1350 H1363 0.961 . S
C1350 H1364 0.961 . S
C1351 C1348 1.539 . S
C1351 H1365 0.958 . S
C1351 H1366 0.961 . S
C1351 H1367 0.960 . S
H1352 C1336 0.931 . S
H1353 C1341 0.929 . S
H1354 C1342 0.960 . S
H1355 C1342 0.962 . S
H1356 C1342 0.960 . S
H1357 C1343 0.961 . S
H1358 C1343 0.961 . S
H1359 C1343 0.961 . S
H1360 C1344 0.931 . S
H1361 C1349 0.930 . S
H1362 C1350 0.956 . S
H1363 C1350 0.961 . S
H1364 C1350 0.961 . S
H1365 C1351 0.958 . S
H1366 C1351 0.961 . S
H1367 C1351 0.960 . S
C345 C27 1.753 1_545 S
C353 C76 1.951 . S
C377 C32 1.739 1_565 S
C385 C126 1.958 . S
C409 C162 1.942 . S
C417 C70 1.802 . S
C441 C118 1.756 . S
C449 C169 1.967 . S
C473 C156 1.789 . S
C481 C205 1.966 . S
C505 C248 1.959 . S
C513 C161 1.769 . S
C537 C199 1.822 . S
C545 C33 1.957 . S
C569 C242 1.756 . S
C577 C40 1.958 . S
C601 C255 1.954 . S
C609 C285 1.802 1_545 S
C633 C290 1.818 1_565 S
C641 C212 1.961 . S
C665 C334 1.955 . S
C673 C247 1.773 . S
C697 C341 1.971 . S
C705 C204 1.773 . S
C729 C328 1.776 . S
C737 C119 1.949 . S
C761 C83 1.966 . S
C769 C333 1.794 . S
C793 C291 1.943 . S
C801 C113 1.803 . S
C825 C298 1.966 . S
C833 C75 1.791 . S
C857 C13 1.727 1_554 S
C865 C39 1.742 1_554 S
C889 C82 1.713 . S
C897 C56 1.743 1_565 S
C921 C125 1.736 1_545 S
C929 C99 1.734 . S
C953 C168 1.754 . S
C961 C142 1.722 . S
C985 C211 1.706 1_545 S
C993 C185 1.746 . S
C1017 C228 1.703 . S
C1025 C254 1.747 1_565 S
C1049 C271 1.707 . S
C1057 C297 1.741 . S
C1081 C340 1.693 . S
C1089 C314 1.753 . S
C1113 N309 1.141 . S
C1121 N3 1.185 . S
C1145 N8 1.153 . S
C1153 N304 1.183 . S
C1177 N46 1.180 . S
C1185 N94 1.199 . S
C1209 N266 1.189 . S
C1217 N132 1.203 . S
C1241 N137 1.178 . S
C1249 N261 1.207 . S
C1273 N218 1.117 1_565 S
C1281 N175 1.212 1_545 S
C1305 N223 1.127 . S
C1313 N180 1.204 . S
C1337 N89 1.123 1_545 S
C1345 N51 1.206 1_565 S
