# Generated by pormake.
# Topology umh, (4)-cn, num edge types: 1
# Building blocks:
#     Node 0, Type 0, BuildingBlock: GALJAG_clean_sbu_0, # of connection points: 4
#     Node 1, Type 0, BuildingBlock: GALJAG_clean_sbu_0, # of connection points: 4
#     Node 2, Type 0, BuildingBlock: GALJAG_clean_sbu_0, # of connection points: 4
#     Node 3, Type 0, BuildingBlock: GALJAG_clean_sbu_0, # of connection points: 4
#     Node 4, Type 0, BuildingBlock: GALJAG_clean_sbu_0, # of connection points: 4
#     Node 5, Type 0, BuildingBlock: GALJAG_clean_sbu_0, # of connection points: 4
#     Node 6, Type 0, BuildingBlock: GALJAG_clean_sbu_0, # of connection points: 4
#     Node 7, Type 0, BuildingBlock: GALJAG_clean_sbu_0, # of connection points: 4
#     Node 8, Type 0, BuildingBlock: GALJAG_clean_sbu_0, # of connection points: 4
#     Node 9, Type 0, BuildingBlock: GALJAG_clean_sbu_0, # of connection points: 4
#     Node 10, Type 0, BuildingBlock: GALJAG_clean_sbu_0, # of connection points: 4
#     Node 11, Type 0, BuildingBlock: GALJAG_clean_sbu_0, # of connection points: 4
#     Node 12, Type 0, BuildingBlock: GALJAG_clean_sbu_0, # of connection points: 4
#     Node 13, Type 0, BuildingBlock: GALJAG_clean_sbu_0, # of connection points: 4
#     Node 14, Type 0, BuildingBlock: GALJAG_clean_sbu_0, # of connection points: 4
#     Node 15, Type 0, BuildingBlock: GALJAG_clean_sbu_0, # of connection points: 4
#     Edge 16, Type (0, 0), BuildingBlock: XUDNAN_clean_linker_2, # of connection points: 2
#     Edge 17, Type (0, 0), BuildingBlock: XUDNAN_clean_linker_2, # of connection points: 2
#     Edge 18, Type (0, 0), BuildingBlock: XUDNAN_clean_linker_2, # of connection points: 2
#     Edge 19, Type (0, 0), BuildingBlock: XUDNAN_clean_linker_2, # of connection points: 2
#     Edge 20, Type (0, 0), BuildingBlock: XUDNAN_clean_linker_2, # of connection points: 2
#     Edge 21, Type (0, 0), BuildingBlock: XUDNAN_clean_linker_2, # of connection points: 2
#     Edge 22, Type (0, 0), BuildingBlock: XUDNAN_clean_linker_2, # of connection points: 2
#     Edge 23, Type (0, 0), BuildingBlock: XUDNAN_clean_linker_2, # of connection points: 2
#     Edge 24, Type (0, 0), BuildingBlock: XUDNAN_clean_linker_2, # of connection points: 2
#     Edge 25, Type (0, 0), BuildingBlock: XUDNAN_clean_linker_2, # of connection points: 2
#     Edge 26, Type (0, 0), BuildingBlock: XUDNAN_clean_linker_2, # of connection points: 2
#     Edge 27, Type (0, 0), BuildingBlock: XUDNAN_clean_linker_2, # of connection points: 2
#     Edge 28, Type (0, 0), BuildingBlock: XUDNAN_clean_linker_2, # of connection points: 2
#     Edge 29, Type (0, 0), BuildingBlock: XUDNAN_clean_linker_2, # of connection points: 2
#     Edge 30, Type (0, 0), BuildingBlock: XUDNAN_clean_linker_2, # of connection points: 2
#     Edge 31, Type (0, 0), BuildingBlock: XUDNAN_clean_linker_2, # of connection points: 2
#     Edge 32, Type (0, 0), BuildingBlock: XUDNAN_clean_linker_2, # of connection points: 2
#     Edge 33, Type (0, 0), BuildingBlock: XUDNAN_clean_linker_2, # of connection points: 2
#     Edge 34, Type (0, 0), BuildingBlock: XUDNAN_clean_linker_2, # of connection points: 2
#     Edge 35, Type (0, 0), BuildingBlock: XUDNAN_clean_linker_2, # of connection points: 2
#     Edge 36, Type (0, 0), BuildingBlock: XUDNAN_clean_linker_2, # of connection points: 2
#     Edge 37, Type (0, 0), BuildingBlock: XUDNAN_clean_linker_2, # of connection points: 2
#     Edge 38, Type (0, 0), BuildingBlock: XUDNAN_clean_linker_2, # of connection points: 2
#     Edge 39, Type (0, 0), BuildingBlock: XUDNAN_clean_linker_2, # of connection points: 2
#     Edge 40, Type (0, 0), BuildingBlock: XUDNAN_clean_linker_2, # of connection points: 2
#     Edge 41, Type (0, 0), BuildingBlock: XUDNAN_clean_linker_2, # of connection points: 2
#     Edge 42, Type (0, 0), BuildingBlock: XUDNAN_clean_linker_2, # of connection points: 2
#     Edge 43, Type (0, 0), BuildingBlock: XUDNAN_clean_linker_2, # of connection points: 2
#     Edge 44, Type (0, 0), BuildingBlock: XUDNAN_clean_linker_2, # of connection points: 2
#     Edge 45, Type (0, 0), BuildingBlock: XUDNAN_clean_linker_2, # of connection points: 2
#     Edge 46, Type (0, 0), BuildingBlock: XUDNAN_clean_linker_2, # of connection points: 2
#     Edge 47, Type (0, 0), BuildingBlock: XUDNAN_clean_linker_2, # of connection points: 2
# Relax obj value: 0.114
# Max RMSD: 0.279
# Mean RMSD: 0.279
data_MOF--net-umh--node1-GALJAG_clean_sbu_0--edge1-XUDNAN_clean_linker_2
_symmetry_space_group_name_H-M    P1
_symmetry_Int_Tables_number       1
_symmetry_cell_setting            triclinic
loop_
_symmetry_equiv_pos_as_xyz
'x, y, z'
_cell_length_a     40.780128
_cell_length_b     40.789736
_cell_length_c     52.509198
_cell_angle_alpha  89.914432
_cell_angle_beta   90.022433
_cell_angle_gamma 90.030781
loop_
_atom_site_label
_atom_site_type_symbol
_atom_site_fract_x
_atom_site_fract_y
_atom_site_fract_z
_atom_type_partial_charge
In0 In 0.31959 0.07779 0.14796 0.0
O1 O 0.3042 0.05636 0.10927 0.0
O2 O 0.32487 0.10432 0.11024 0.0
C3 C 0.30284 0.03411 0.18431 0.0
C4 C 0.38441 0.06892 0.1484 0.0
C5 C 0.28118 0.12669 0.16447 0.0
O6 O 0.28725 0.03607 0.1635 0.0
O7 O 0.32726 0.05292 0.18604 0.0
O8 O 0.31202 0.12986 0.1631 0.0
O9 O 0.2702 0.09945 0.15706 0.0
C10 C 0.31373 0.08124 0.0968 0.0
O11 O 0.3714 0.09306 0.15972 0.0
O12 O 0.36466 0.04969 0.13738 0.0
In13 In 0.3896 0.34352 0.65631 0.0
O14 O 0.37643 0.39768 0.66289 0.0
O15 O 0.42682 0.38302 0.66195 0.0
C16 C 0.33611 0.30799 0.66738 0.0
C17 C 0.39439 0.34513 0.60495 0.0
C18 C 0.42499 0.31318 0.69275 0.0
O19 O 0.3393 0.33707 0.67545 0.0
O20 O 0.35868 0.2983 0.65286 0.0
O21 O 0.42478 0.30302 0.66995 0.0
O22 O 0.40855 0.33885 0.69664 0.0
C23 C 0.40633 0.40596 0.6646 0.0
O24 O 0.41639 0.33254 0.61891 0.0
O25 O 0.37005 0.35644 0.6169 0.0
In26 In 0.13452 0.38507 0.15764 0.0
O27 O 0.08131 0.3911 0.1695 0.0
O28 O 0.10481 0.43002 0.14893 0.0
C29 C 0.15723 0.32741 0.17378 0.0
C30 C 0.13022 0.36986 0.10787 0.0
C31 C 0.16906 0.41863 0.19247 0.0
O32 O 0.12741 0.33535 0.17689 0.0
O33 O 0.17484 0.34849 0.16264 0.0
O34 O 0.17977 0.41478 0.16994 0.0
O35 O 0.14092 0.40688 0.19663 0.0
C36 C 0.07904 0.41938 0.15955 0.0
O37 O 0.14834 0.39334 0.11535 0.0
O38 O 0.1153 0.35479 0.12538 0.0
In39 In 0.11333 0.12594 0.66109 0.0
O40 O 0.10373 0.15047 0.62235 0.0
O41 O 0.13404 0.10801 0.62354 0.0
C42 C 0.07655 0.17096 0.68566 0.0
C43 C 0.08336 0.06765 0.66601 0.0
C44 C 0.17153 0.13995 0.68312 0.0
O45 O 0.0984 0.17903 0.66975 0.0
O46 O 0.07162 0.14054 0.68736 0.0
O47 O 0.14546 0.13727 0.69577 0.0
O48 O 0.16874 0.13211 0.66005 0.0
C49 C 0.12088 0.12998 0.61006 0.0
O50 O 0.11021 0.0734 0.67726 0.0
O51 O 0.07247 0.091 0.65274 0.0
In52 In 0.35871 0.38199 0.36916 0.0
O53 O 0.40867 0.39024 0.35073 0.0
O54 O 0.38383 0.43073 0.36808 0.0
C55 C 0.33788 0.32135 0.3597 0.0
C56 C 0.3724 0.37492 0.41922 0.0
C57 C 0.31615 0.40928 0.33633 0.0
O58 O 0.36656 0.33043 0.35358 0.0
O59 O 0.3206 0.34258 0.3709 0.0
O60 O 0.31284 0.41275 0.36027 0.0
O61 O 0.34083 0.39274 0.32956 0.0
C62 C 0.40862 0.42057 0.35597 0.0
O63 O 0.38941 0.36281 0.40151 0.0
O64 O 0.34766 0.3913 0.41182 0.0
In65 In 0.09601 0.35148 0.87152 0.0
O66 O 0.08322 0.32659 0.90917 0.0
O67 O 0.11088 0.37106 0.91037 0.0
C68 C 0.07389 0.31265 0.83373 0.0
C69 C 0.05697 0.40368 0.86648 0.0
C70 C 0.15856 0.33721 0.86218 0.0
O71 O 0.06673 0.30696 0.85682 0.0
O72 O 0.09116 0.33786 0.83013 0.0
O73 O 0.14513 0.36194 0.85197 0.0
O74 O 0.14091 0.32113 0.87744 0.0
C75 C 0.0977 0.3479 0.92272 0.0
O76 O 0.08775 0.40613 0.86378 0.0
O77 O 0.04662 0.37526 0.87158 0.0
In78 In 0.17113 0.07318 0.37953 0.0
O79 O 0.17949 0.06722 0.42262 0.0
O80 O 0.15149 0.10797 0.40864 0.0
C81 C 0.19764 0.03497 0.3439 0.0
C82 C 0.11267 0.04541 0.37553 0.0
C83 C 0.21122 0.12109 0.36594 0.0
O84 O 0.20613 0.03229 0.3672 0.0
O85 O 0.17547 0.05592 0.33936 0.0
O86 O 0.18063 0.12271 0.36129 0.0
O87 O 0.22085 0.09586 0.37786 0.0
C88 C 0.163 0.09291 0.42774 0.0
O89 O 0.11832 0.07338 0.3657 0.0
O90 O 0.13643 0.03232 0.38735 0.0
In91 In 0.37771 0.13496 0.86779 0.0
O92 O 0.38109 0.08362 0.85094 0.0
O93 O 0.41969 0.10183 0.87515 0.0
C94 C 0.32787 0.17441 0.85808 0.0
C95 C 0.35797 0.11959 0.91491 0.0
C96 C 0.41557 0.16975 0.83618 0.0
O97 O 0.3303 0.14696 0.84671 0.0
O98 O 0.3498 0.18068 0.87442 0.0
O99 O 0.41743 0.17353 0.86022 0.0
O100 O 0.39591 0.14771 0.8288 0.0
C101 C 0.40839 0.07837 0.86198 0.0
O102 O 0.38151 0.13954 0.91107 0.0
O103 O 0.34467 0.10806 0.895 0.0
In104 In 0.64639 0.8989 0.8679 0.0
O105 O 0.59453 0.8962 0.85157 0.0
O106 O 0.60675 0.93443 0.87785 0.0
C107 C 0.6789 0.84771 0.84895 0.0
C108 C 0.6443 0.88287 0.91772 0.0
C109 C 0.67688 0.94192 0.8372 0.0
O110 O 0.64783 0.84879 0.84848 0.0
O111 O 0.69285 0.8719 0.85922 0.0
O112 O 0.68751 0.93572 0.85941 0.0
O113 O 0.6502 0.92805 0.83152 0.0
C114 C 0.58518 0.92117 0.86395 0.0
O115 O 0.65747 0.90938 0.91022 0.0
O116 O 0.63342 0.86483 0.90015 0.0
In117 In 0.58749 0.65991 0.36147 0.0
O118 O 0.57572 0.6625 0.40439 0.0
O119 O 0.61294 0.62968 0.39133 0.0
C120 C 0.55491 0.70236 0.33171 0.0
C121 C 0.55764 0.60497 0.34718 0.0
C122 C 0.64336 0.692 0.3535 0.0
O123 O 0.55328 0.70423 0.35586 0.0
O124 O 0.57138 0.67851 0.32332 0.0
O125 O 0.63674 0.66599 0.34131 0.0
O126 O 0.62256 0.70038 0.37006 0.0
C127 C 0.59698 0.64087 0.41002 0.0
O128 O 0.58778 0.60978 0.34247 0.0
O129 O 0.54311 0.62797 0.35877 0.0
In130 In 0.81039 0.58091 0.87102 0.0
O131 O 0.79048 0.56449 0.91008 0.0
O132 O 0.82623 0.60239 0.90897 0.0
C133 C 0.77473 0.5494 0.83528 0.0
C134 C 0.86906 0.55225 0.86569 0.0
C135 C 0.79055 0.64083 0.85693 0.0
O136 O 0.76682 0.5489 0.85861 0.0
O137 O 0.80101 0.56449 0.83049 0.0
O138 O 0.81991 0.63157 0.85418 0.0
O139 O 0.77179 0.62022 0.86738 0.0
C140 C 0.80808 0.58443 0.92251 0.0
O141 O 0.86462 0.58224 0.86073 0.0
O142 O 0.84389 0.53694 0.87316 0.0
In143 In 0.89438 0.83431 0.37849 0.0
O144 O 0.90845 0.8113 0.41673 0.0
O145 O 0.87808 0.8538 0.41696 0.0
C146 C 0.91524 0.78197 0.35137 0.0
C147 C 0.93282 0.88713 0.37223 0.0
C148 C 0.83271 0.83196 0.36038 0.0
O149 O 0.90084 0.77895 0.37255 0.0
O150 O 0.92111 0.81119 0.345 0.0
O151 O 0.85681 0.8384 0.34625 0.0
O152 O 0.83958 0.82913 0.38365 0.0
C153 C 0.8927 0.83208 0.42981 0.0
O154 O 0.90263 0.88777 0.36685 0.0
O155 O 0.94326 0.85997 0.38037 0.0
In156 In 0.62361 0.59414 0.64473 0.0
O157 O 0.63687 0.57246 0.60584 0.0
O158 O 0.61155 0.61814 0.60678 0.0
C159 C 0.64689 0.55669 0.68268 0.0
C160 C 0.56171 0.57579 0.65236 0.0
C161 C 0.66407 0.64266 0.65813 0.0
O162 O 0.65787 0.55412 0.66014 0.0
O163 O 0.62405 0.57724 0.6856 0.0
O164 O 0.63321 0.64659 0.65888 0.0
O165 O 0.67367 0.61548 0.64954 0.0
C166 C 0.62406 0.59578 0.59333 0.0
O167 O 0.57017 0.60549 0.65539 0.0
O168 O 0.58401 0.55655 0.64494 0.0
In169 In 0.87163 0.64018 0.15055 0.0
O170 O 0.87762 0.58721 0.16 0.0
O171 O 0.91876 0.61359 0.14358 0.0
C172 C 0.83749 0.69459 0.15278 0.0
C173 C 0.84928 0.62524 0.10452 0.0
C174 C 0.89085 0.65452 0.19727 0.0
O175 O 0.82572 0.66702 0.15979 0.0
O176 O 0.8665 0.69425 0.14364 0.0
O177 O 0.90604 0.66539 0.17774 0.0
O178 O 0.86634 0.63585 0.19295 0.0
C179 C 0.90731 0.58671 0.1524 0.0
O180 O 0.87521 0.64229 0.10769 0.0
O181 O 0.83464 0.61615 0.1248 0.0
In182 In 0.84898 0.8785 0.6629 0.0
O183 O 0.84027 0.88611 0.61996 0.0
O184 O 0.87099 0.84678 0.63253 0.0
C185 C 0.81583 0.91792 0.69456 0.0
C186 C 0.9076 0.90643 0.66868 0.0
C187 C 0.8147 0.82511 0.67511 0.0
O188 O 0.81073 0.91852 0.67066 0.0
O189 O 0.83788 0.89824 0.70181 0.0
O190 O 0.84454 0.82825 0.68165 0.0
O191 O 0.8028 0.84879 0.66262 0.0
C192 C 0.85842 0.86198 0.61395 0.0
O193 O 0.9008 0.87953 0.67968 0.0
O194 O 0.8848 0.91865 0.65538 0.0
In195 In 0.6075 0.87933 0.15361 0.0
O196 O 0.59288 0.85234 0.11702 0.0
O197 O 0.62862 0.8904 0.11464 0.0
C198 C 0.57271 0.85176 0.19168 0.0
C199 C 0.57697 0.93718 0.15209 0.0
C200 C 0.66718 0.85735 0.16637 0.0
O201 O 0.57375 0.83932 0.16959 0.0
O202 O 0.58841 0.87826 0.19417 0.0
O203 O 0.66212 0.88765 0.16277 0.0
O204 O 0.64233 0.83927 0.164 0.0
C205 C 0.61201 0.869 0.10304 0.0
O206 O 0.60372 0.93376 0.16412 0.0
O207 O 0.56624 0.91166 0.14135 0.0
H208 H 0.37454 0.14677 0.96125 0.0
H209 H 0.31599 0.06986 0.92674 0.0
H210 H 0.29729 0.05225 0.96929 0.0
H211 H 0.39997 0.10127 0.01634 0.0
H212 H 0.39719 0.1357 0.0377 0.0
H213 H 0.40592 0.14234 1.00448 0.0
H214 H 0.35611 0.18156 1.00119 0.0
H215 H 0.34719 0.17497 0.0344 0.0
H216 H 0.31611 0.16727 1.01074 0.0
H217 H 0.28649 0.04152 0.01589 0.0
H218 H 0.28311 0.04004 0.06299 0.0
H219 H 0.34659 0.12527 0.06698 0.0
C220 C 0.35778 0.12625 0.96267 0.0
C221 C 0.34679 0.10966 0.94066 0.0
C222 C 0.32472 0.083 0.94332 0.0
C223 C 0.31396 0.07277 0.96742 0.0
C224 C 0.32522 0.0896 0.98875 0.0
C225 C 0.34649 0.1159 0.98663 0.0
C226 C 0.35468 0.12988 1.01259 0.0
C227 C 0.39163 0.12712 0.01809 0.0
C228 C 0.34281 0.16553 0.01485 0.0
C229 C 0.33495 0.10718 0.02959 0.0
C230 C 0.31822 0.08402 0.01551 0.0
C231 C 0.29926 0.05973 0.02712 0.0
C232 C 0.29747 0.05905 0.05385 0.0
C233 C 0.31429 0.08269 0.06862 0.0
C234 C 0.33306 0.10712 0.0562 0.0
H235 H 0.33698 0.39031 0.46278 0.0
H236 H 0.42819 0.34673 0.43694 0.0
H237 H 0.44371 0.33507 0.48129 0.0
H238 H 0.37027 0.42788 0.52022 0.0
H239 H 0.33439 0.41938 0.53915 0.0
H240 H 0.33054 0.42533 0.50528 0.0
H241 H 0.30193 0.36885 0.50128 0.0
H242 H 0.3058 0.36269 0.53512 0.0
H243 H 0.32218 0.33275 0.51336 0.0
H244 H 0.44935 0.32684 0.52817 0.0
H245 H 0.44464 0.32321 0.575 0.0
H246 H 0.34996 0.37157 0.57124 0.0
C247 C 0.36029 0.37854 0.46652 0.0
C248 C 0.38136 0.36949 0.44632 0.0
C249 C 0.41157 0.3539 0.45202 0.0
C250 C 0.42068 0.34715 0.4772 0.0
C251 C 0.39934 0.35606 0.49664 0.0
C252 C 0.3698 0.37146 0.49171 0.0
C253 C 0.35127 0.37783 0.51628 0.0
C254 C 0.34634 0.4148 0.52048 0.0
C255 C 0.31835 0.35943 0.51652 0.0
C256 C 0.37499 0.36353 0.53565 0.0
C257 C 0.40258 0.35115 0.52387 0.0
C258 C 0.42789 0.3365 0.53766 0.0
C259 C 0.42499 0.3345 0.56425 0.0
C260 C 0.39698 0.34705 0.5768 0.0
C261 C 0.37169 0.36173 0.56221 0.0
H262 H 0.12699 0.3912 0.95581 0.0
H263 H 0.07383 0.29903 0.95314 0.0
H264 H 0.07849 0.29416 0.99988 0.0
H265 H 0.18345 0.36837 1.006 0.0
H266 H 0.18318 0.40822 0.02078 0.0
H267 H 0.17614 0.40451 0.98703 0.0
H268 H 0.12108 0.43558 0.99164 0.0
H269 H 0.12801 0.43952 0.02537 0.0
H270 H 0.09081 0.42078 0.01388 0.0
H271 H 0.08818 0.29931 0.04644 0.0
H272 H 0.10071 0.31468 0.09062 0.0
H273 H 0.14795 0.40383 0.06406 0.0
C274 C 0.11634 0.36999 0.96508 0.0
C275 C 0.10002 0.34544 0.95082 0.0
C276 C 0.08638 0.31811 0.96365 0.0
C277 C 0.08899 0.31511 0.99018 0.0
C278 C 0.10531 0.33963 1.00363 0.0
C279 C 0.11869 0.36661 0.9916 0.0
C280 C 0.13448 0.38969 1.01073 0.0
C281 C 0.17151 0.39287 1.00584 0.0
C282 C 0.11758 0.42338 1.01038 0.0
C283 C 0.12771 0.37151 0.03542 0.0
C284 C 0.11096 0.34264 0.03075 0.0
C285 C 0.10133 0.3218 0.05034 0.0
C286 C 0.1086 0.33082 0.07541 0.0
C287 C 0.12537 0.36046 0.08085 0.0
C288 C 0.13536 0.38091 0.0605 0.0
H289 H 0.15262 0.08522 0.58005 0.0
H290 H 0.09881 0.1769 0.5768 0.0
H291 H 0.10575 0.17809 0.53 0.0
H292 H 0.21123 0.10404 0.53024 0.0
H293 H 0.21154 0.0629 0.51776 0.0
H294 H 0.20326 0.06975 0.55104 0.0
H295 H 0.14846 0.03803 0.54692 0.0
H296 H 0.15658 0.03104 0.51366 0.0
H297 H 0.11896 0.05062 0.52327 0.0
H298 H 0.11757 0.1688 0.48379 0.0
H299 H 0.1321 0.14938 0.44093 0.0
H300 H 0.17807 0.06311 0.47376 0.0
C301 C 0.14243 0.10566 0.56952 0.0
C302 C 0.12522 0.13108 0.58207 0.0
C303 C 0.11208 0.15723 0.56758 0.0
C304 C 0.11597 0.15812 0.54102 0.0
C305 C 0.13301 0.13264 0.52926 0.0
C306 C 0.14598 0.10686 0.543 0.0
C307 C 0.16247 0.08213 0.52563 0.0
C308 C 0.19932 0.07957 0.53152 0.0
C309 C 0.1456 0.04847 0.52748 0.0
C310 C 0.15658 0.09794 0.49988 0.0
C311 C 0.13967 0.12713 0.5025 0.0
C312 C 0.13087 0.14603 0.48153 0.0
C313 C 0.13926 0.13472 0.45722 0.0
C314 C 0.15627 0.1047 0.45394 0.0
C315 C 0.16525 0.08622 0.47564 0.0
H316 H 0.64231 0.90947 0.06875 0.0
H317 H 0.58769 0.81843 0.07439 0.0
H318 H 0.59256 0.81101 0.02777 0.0
H319 H 0.60562 0.93661 1.01055 0.0
H320 H 0.64268 0.95489 0.99834 0.0
H321 H 0.6362 0.95217 0.03219 0.0
H322 H 0.69129 0.9212 0.03716 0.0
H323 H 0.6979 0.92371 1.00329 0.0
H324 H 0.69834 0.88439 0.01901 0.0
H325 H 0.60304 0.81375 0.98078 0.0
H326 H 0.61532 0.82768 0.93616 0.0
H327 H 0.66189 0.91806 0.96062 0.0
C328 C 0.63154 0.88785 0.0602 0.0
C329 C 0.61476 0.86437 0.07518 0.0
C330 C 0.60066 0.83665 0.06326 0.0
C331 C 0.60341 0.83221 0.03684 0.0
C332 C 0.62014 0.85582 0.02263 0.0
C333 C 0.63377 0.88322 0.03385 0.0
C334 C 0.64932 0.90558 0.01412 0.0
C335 C 0.63244 0.9393 0.01378 0.0
C336 C 0.68642 0.9089 0.01867 0.0
C337 C 0.64221 0.88653 0.98998 0.0
C338 C 0.6256 0.85778 0.9954 0.0
C339 C 0.61604 0.83618 0.97632 0.0
C340 C 0.62319 0.84434 0.951 0.0
C341 C 0.6396 0.87398 0.94486 0.0
C342 C 0.64947 0.89518 0.96471 0.0
H343 H 0.59276 0.64066 0.56282 0.0
H344 H 0.65338 0.55331 0.56006 0.0
H345 H 0.6521 0.55518 0.513 0.0
H346 H 0.54143 0.62016 0.50892 0.0
H347 H 0.53858 0.66184 0.49768 0.0
H348 H 0.54421 0.65371 0.53113 0.0
H349 H 0.59612 0.69033 0.53134 0.0
H350 H 0.59065 0.6986 0.4979 0.0
H351 H 0.62886 0.68184 0.50924 0.0
H352 H 0.64537 0.56717 0.46656 0.0
H353 H 0.63303 0.58765 0.42349 0.0
H354 H 0.57541 0.66676 0.45584 0.0
C355 C 0.60578 0.62192 0.55231 0.0
C356 C 0.62329 0.59684 0.56511 0.0
C357 C 0.63987 0.57273 0.55067 0.0
C358 C 0.63926 0.5736 0.52395 0.0
C359 C 0.6218 0.59864 0.51194 0.0
C360 C 0.60526 0.62232 0.52562 0.0
C361 C 0.58831 0.64653 0.50799 0.0
C362 C 0.55091 0.64548 0.51165 0.0
C363 C 0.6018 0.68138 0.51185 0.0
C364 C 0.59809 0.6329 0.48222 0.0
C365 C 0.61745 0.60529 0.48503 0.0
C366 C 0.63014 0.58867 0.46413 0.0
C367 C 0.623 0.60057 0.43972 0.0
C368 C 0.60319 0.62879 0.43625 0.0
C369 C 0.59043 0.64503 0.45786 0.0
H370 H 0.84925 0.62072 0.95238 0.0
H371 H 0.76744 0.55287 0.95635 0.0
H372 H 0.7683 0.55665 1.00344 0.0
H373 H 0.89241 0.58953 1.00666 0.0
H374 H 0.90655 0.62926 0.0169 0.0
H375 H 0.89877 0.62176 0.98365 0.0
H376 H 0.85875 0.67106 0.98241 0.0
H377 H 0.86638 0.67871 0.01566 0.0
H378 H 0.82501 0.67254 1.00455 0.0
H379 H 0.77839 0.56813 0.0503 0.0
H380 H 0.79772 0.58489 0.09297 0.0
H381 H 0.87369 0.64436 0.05803 0.0
C382 C 0.8314 0.60673 0.96312 0.0
C383 C 0.80816 0.58657 0.95069 0.0
C384 C 0.78542 0.56849 0.96547 0.0
C385 C 0.78572 0.57053 0.99221 0.0
C386 C 0.80901 0.59065 1.00385 0.0
C387 C 0.8315 0.60833 0.98975 0.0
C388 C 0.85444 0.62763 1.0068 0.0
C389 C 0.89015 0.61636 1.00329 0.0
C390 C 0.85092 0.66468 1.00207 0.0
C391 C 0.8414 0.61808 0.03277 0.0
C392 C 0.81509 0.59684 0.03068 0.0
C393 C 0.79897 0.58472 0.05212 0.0
C394 C 0.81011 0.59441 0.07629 0.0
C395 C 0.83723 0.61592 0.07887 0.0
C396 C 0.85292 0.62788 0.05673 0.0
H397 H 0.86067 0.87479 0.46155 0.0
H398 H 0.92079 0.78699 0.46167 0.0
H399 H 0.91752 0.78492 0.50864 0.0
H400 H 0.89545 0.91099 0.5179 0.0
H401 H 0.85703 0.92742 0.52905 0.0
H402 H 0.86381 0.92187 0.49544 0.0
H403 H 0.81134 0.88622 0.49257 0.0
H404 H 0.80444 0.89159 0.52619 0.0
H405 H 0.80714 0.85091 0.513 0.0
H406 H 0.90801 0.79237 0.55522 0.0
H407 H 0.89377 0.80907 0.59883 0.0
H408 H 0.83958 0.89235 0.56904 0.0
C409 C 0.87315 0.85511 0.47146 0.0
C410 C 0.89101 0.83099 0.45796 0.0
C411 C 0.907 0.8057 0.47161 0.0
C412 C 0.90525 0.80431 0.49828 0.0
C413 C 0.8874 0.82841 0.51099 0.0
C414 C 0.87166 0.85338 0.49809 0.0
C415 C 0.85434 0.87634 0.51641 0.0
C416 C 0.86851 0.91122 0.51459 0.0
C417 C 0.81711 0.87624 0.51176 0.0
C418 C 0.86284 0.8604 0.54166 0.0
C419 C 0.88189 0.83276 0.53801 0.0
C420 C 0.8931 0.81394 0.55832 0.0
C421 C 0.88484 0.82368 0.58305 0.0
C422 C 0.86552 0.85202 0.58739 0.0
C423 C 0.85426 0.87052 0.56634 0.0
H424 H 0.22136 0.30988 0.17461 0.0
H425 H 0.12337 0.27211 0.18783 0.0
H426 H 0.14625 0.21629 0.19302 0.0
H427 H 0.2477 0.24848 0.13641 0.0
H428 H 0.28929 0.24704 0.148 0.0
H429 H 0.26627 0.28445 0.15021 0.0
H430 H 0.27639 0.28646 0.19892 0.0
H431 H 0.29985 0.2491 0.19685 0.0
H432 H 0.26551 0.25165 0.21835 0.0
H433 H 0.17843 0.16431 0.18943 0.0
H434 H 0.21749 0.12014 0.17905 0.0
H435 H 0.29472 0.19212 0.16883 0.0
C436 C 0.20479 0.29 0.17928 0.0
C437 C 0.17063 0.29515 0.18084 0.0
C438 C 0.14966 0.2686 0.18675 0.0
C439 C 0.16245 0.23689 0.18975 0.0
C440 C 0.19623 0.23245 0.18718 0.0
C441 C 0.21715 0.2584 0.18244 0.0
C442 C 0.25197 0.2469 0.17808 0.0
C443 C 0.26451 0.25733 0.15161 0.0
C444 C 0.27478 0.25926 0.19932 0.0
C445 C 0.24713 0.21023 0.17975 0.0
C446 C 0.21491 0.20241 0.1854 0.0
C447 C 0.20384 0.17012 0.18557 0.0
C448 C 0.22615 0.14525 0.17949 0.0
C449 C 0.25909 0.15285 0.17327 0.0
C450 C 0.26982 0.18566 0.17396 0.0
H451 H 0.32315 0.24769 0.64832 0.0
H452 H 0.29088 0.31684 0.70575 0.0
H453 H 0.2503 0.2761 0.7213 0.0
H454 H 0.24543 0.21758 0.63251 0.0
H455 H 0.25949 0.17625 0.62722 0.0
H456 H 0.28713 0.21007 0.62274 0.0
H457 H 0.32768 0.18323 0.65468 0.0
H458 H 0.29963 0.14968 0.65974 0.0
H459 H 0.314 0.17344 0.68643 0.0
H460 H 0.2114 0.22839 0.72875 0.0
H461 H 0.17277 0.18227 0.72344 0.0
H462 H 0.2315 0.14513 0.66102 0.0
C463 C 0.30766 0.2543 0.66426 0.0
C464 C 0.31008 0.28537 0.67586 0.0
C465 C 0.28923 0.29317 0.69652 0.0
C466 C 0.26645 0.27007 0.70564 0.0
C467 C 0.26509 0.23937 0.69393 0.0
C468 C 0.28497 0.2317 0.6735 0.0
C469 C 0.27719 0.19824 0.66279 0.0
C470 C 0.26667 0.2007 0.63467 0.0
C471 C 0.30636 0.17477 0.66612 0.0
C472 C 0.24894 0.18856 0.6798 0.0
C473 C 0.24277 0.21218 0.69808 0.0
C474 C 0.2163 0.20956 0.71476 0.0
C475 C 0.19464 0.18307 0.71175 0.0
C476 C 0.19937 0.16002 0.69192 0.0
C477 C 0.22764 0.16209 0.67659 0.0
H478 H 0.27394 0.30363 0.35795 0.0
H479 H 0.37253 0.26518 0.34995 0.0
H480 H 0.3498 0.20912 0.34549 0.0
H481 H 0.24296 0.2424 0.39571 0.0
H482 H 0.20275 0.24141 0.38146 0.0
H483 H 0.22648 0.27854 0.38061 0.0
H484 H 0.22146 0.28036 0.3314 0.0
H485 H 0.19751 0.24321 0.33209 0.0
H486 H 0.23409 0.24539 0.31289 0.0
H487 H 0.31692 0.15739 0.34861 0.0
H488 H 0.27621 0.11368 0.35649 0.0
H489 H 0.19884 0.18638 0.36002 0.0
C490 C 0.29071 0.28346 0.35481 0.0
C491 C 0.32493 0.28846 0.35439 0.0
C492 C 0.3462 0.26167 0.35022 0.0
C493 C 0.33351 0.22986 0.34764 0.0
C494 C 0.29957 0.22566 0.34873 0.0
C495 C 0.27846 0.25182 0.35182 0.0
C496 C 0.24317 0.2407 0.35392 0.0
C497 C 0.22797 0.25139 0.37944 0.0
C498 C 0.22287 0.25315 0.33122 0.0
C499 C 0.2478 0.204 0.35275 0.0
C500 C 0.28048 0.19582 0.34956 0.0
C501 C 0.2912 0.16345 0.35049 0.0
C502 C 0.26798 0.13887 0.35511 0.0
C503 C 0.2345 0.14685 0.35856 0.0
C504 C 0.22421 0.1797 0.35683 0.0
H505 H 0.30326 0.21866 0.89084 0.0
H506 H 0.29606 0.18545 0.81267 0.0
H507 H 0.25781 0.23133 0.80314 0.0
H508 H 0.21953 0.23823 0.89781 0.0
H509 H 0.2274 0.27268 0.9184 0.0
H510 H 0.25576 0.23902 0.91749 0.0
H511 H 0.30259 0.27987 0.90664 0.0
H512 H 0.27401 0.31354 0.90676 0.0
H513 H 0.29891 0.30595 0.87904 0.0
H514 H 0.21945 0.28063 0.80302 0.0
H515 H 0.17657 0.32126 0.81406 0.0
H516 H 0.20841 0.31944 0.89266 0.0
C517 C 0.29369 0.2211 0.87167 0.0
C518 C 0.30251 0.19884 0.85241 0.0
C519 C 0.28925 0.20232 0.82767 0.0
C520 C 0.26798 0.22849 0.82206 0.0
C521 C 0.26031 0.25057 0.84149 0.0
C522 C 0.27231 0.2466 0.86592 0.0
C523 C 0.25816 0.2714 0.88412 0.0
C524 C 0.23907 0.25432 0.90571 0.0
C525 C 0.28503 0.29403 0.89476 0.0
C526 C 0.23565 0.28972 0.86631 0.0
C527 C 0.23782 0.27806 0.84162 0.0
C528 C 0.21785 0.2902 0.82219 0.0
C529 C 0.19391 0.31354 0.82852 0.0
C530 C 0.19 0.32374 0.85405 0.0
C531 C 0.21176 0.31257 0.8729 0.0
H532 H 0.66035 0.78359 0.84906 0.0
H533 H 0.74122 0.84857 0.83107 0.0
H534 H 0.77743 0.80084 0.82465 0.0
H535 H 0.70369 0.73311 0.88692 0.0
H536 H 0.68401 0.69523 0.87805 0.0
H537 H 0.66225 0.73329 0.87492 0.0
H538 H 0.65196 0.72177 0.82705 0.0
H539 H 0.67332 0.68326 0.83009 0.0
H540 H 0.68614 0.71272 0.80648 0.0
H541 H 0.80677 0.74752 0.82738 0.0
H542 H 0.82692 0.69221 0.83873 0.0
H543 H 0.72742 0.66227 0.85658 0.0
C544 C 0.68529 0.78756 0.84268 0.0
C545 C 0.69805 0.81947 0.84024 0.0
C546 C 0.73109 0.8241 0.83284 0.0
C547 C 0.75176 0.79719 0.82905 0.0
C548 C 0.73894 0.76591 0.83279 0.0
C549 C 0.70637 0.76092 0.83923 0.0
C550 C 0.69987 0.72535 0.84566 0.0
C551 C 0.6867 0.72156 0.87301 0.0
C552 C 0.67644 0.70986 0.82615 0.0
C553 C 0.73411 0.71155 0.84312 0.0
C554 C 0.75616 0.73511 0.8351 0.0
C555 C 0.78965 0.72866 0.83319 0.0
C556 C 0.8009 0.69731 0.8398 0.0
C557 C 0.7787 0.67314 0.84855 0.0
C558 C 0.74491 0.6803 0.84985 0.0
H559 H 0.66862 0.73876 0.38416 0.0
H560 H 0.68195 0.69254 0.31057 0.0
H561 H 0.72732 0.73125 0.30103 0.0
H562 H 0.68728 0.82258 0.36507 0.0
H563 H 0.70878 0.83131 0.3943 0.0
H564 H 0.67562 0.80207 0.39413 0.0
H565 H 0.71387 0.75756 0.41331 0.0
H566 H 0.74674 0.78687 0.41409 0.0
H567 H 0.75216 0.74846 0.39769 0.0
H568 H 0.77287 0.77354 0.30085 0.0
H569 H 0.81974 0.8089 0.31259 0.0
H570 H 0.77581 0.8262 0.38652 0.0
C571 C 0.68093 0.7369 0.36594 0.0
C572 C 0.67187 0.71288 0.34802 0.0
C573 C 0.68877 0.7108 0.32456 0.0
C574 C 0.7142 0.73289 0.31889 0.0
C575 C 0.7222 0.75671 0.33693 0.0
C576 C 0.70629 0.75845 0.36012 0.0
C577 C 0.72129 0.78398 0.37731 0.0
C578 C 0.69677 0.81162 0.38303 0.0
C579 C 0.7343 0.76827 0.40204 0.0
C580 C 0.74881 0.79591 0.36048 0.0
C581 C 0.74855 0.78053 0.33701 0.0
C582 C 0.77309 0.78602 0.31903 0.0
C583 C 0.79945 0.80637 0.32577 0.0
C584 C 0.80113 0.82033 0.35041 0.0
C585 C 0.77481 0.81617 0.36744 0.0
H586 H 0.74944 0.81659 0.66651 0.0
H587 H 0.83613 0.76646 0.69447 0.0
H588 H 0.80423 0.71506 0.69805 0.0
H589 H 0.68859 0.77026 0.70573 0.0
H590 H 0.65893 0.77023 0.68027 0.0
H591 H 0.68731 0.80389 0.68344 0.0
H592 H 0.70665 0.79483 0.63697 0.0
H593 H 0.67859 0.7611 0.6337 0.0
H594 H 0.72166 0.75507 0.6276 0.0
H595 H 0.76568 0.66825 0.69251 0.0
H596 H 0.72245 0.62919 0.68 0.0
H597 H 0.65988 0.70988 0.65693 0.0
C598 C 0.76154 0.79497 0.67393 0.0
C599 C 0.79523 0.79539 0.68024 0.0
C600 C 0.8103 0.76662 0.68967 0.0
C601 C 0.79236 0.73739 0.6918 0.0
C602 C 0.75936 0.73762 0.68476 0.0
C603 C 0.74397 0.76576 0.67631 0.0
C604 C 0.709 0.75896 0.66811 0.0
C605 C 0.68451 0.7769 0.68543 0.0
C606 C 0.70369 0.76802 0.63993 0.0
C607 C 0.70751 0.72228 0.6722 0.0
C608 C 0.73675 0.71056 0.68206 0.0
C609 C 0.74248 0.6772 0.6853 0.0
C610 C 0.71788 0.65524 0.67799 0.0
C611 C 0.68791 0.66672 0.66768 0.0
C612 C 0.68236 0.70065 0.66525 0.0
H613 H 0.77767 0.70134 0.17493 0.0
H614 H 0.85526 0.75696 0.13842 0.0
H615 H 0.82297 0.80787 0.14403 0.0
H616 H 0.71264 0.74149 0.14643 0.0
H617 H 0.68637 0.73984 0.17401 0.0
H618 H 0.71748 0.70922 0.16963 0.0
H619 H 0.74141 0.72315 0.21414 0.0
H620 H 0.71048 0.7542 0.21846 0.0
H621 H 0.75327 0.76473 0.22121 0.0
H622 H 0.77931 0.85174 0.15008 0.0
H623 H 0.72723 0.88292 0.15315 0.0
H624 H 0.67993 0.79778 0.18627 0.0
C625 C 0.7881 0.72426 0.16835 0.0
C626 C 0.81888 0.72526 0.1562 0.0
C627 C 0.83162 0.7557 0.14777 0.0
C628 C 0.81359 0.78474 0.15105 0.0
C629 C 0.78314 0.78284 0.16305 0.0
C630 C 0.77059 0.75329 0.17157 0.0
C631 C 0.73633 0.75706 0.18199 0.0
C632 C 0.71177 0.73566 0.16712 0.0
C633 C 0.73534 0.74933 0.21065 0.0
C634 C 0.73091 0.79312 0.17707 0.0
C635 C 0.75831 0.80788 0.16661 0.0
C636 C 0.75791 0.84057 0.15866 0.0
C637 C 0.72835 0.85816 0.16058 0.0
C638 C 0.69979 0.8427 0.17003 0.0
C639 C 0.70155 0.81026 0.17918 0.0
H640 H 0.17712 0.03058 0.29484 0.0
H641 H 0.25775 0.00455 0.34469 0.0
H642 H 0.291 0.98929 0.30712 0.0
H643 H 0.1947 0.96756 0.24291 0.0
H644 H 0.18299 -0.00347 0.2186 0.0
H645 H 0.1632 -0.00257 0.2493 0.0
H646 H 0.17886 0.05869 0.25415 0.0
H647 H 0.19872 0.05797 0.22369 0.0
H648 H 0.22131 0.07063 0.2515 0.0
H649 H 0.3191 0.99023 0.2648 0.0
H650 H 0.33872 0.00512 0.22178 0.0
H651 H 0.23933 0.02796 0.19897 0.0
C652 C 0.20133 0.0204 0.29791 0.0
C653 C 0.21485 0.01854 0.32266 0.0
C654 C 0.24678 0.00573 0.32592 0.0
C655 C 0.26582 -0.00297 0.30466 0.0
C656 C 0.25229 0.00069 0.28036 0.0
C657 C 0.22048 0.01153 0.27694 0.0
C658 C 0.21297 0.01751 0.24905 0.0
C659 C 0.18692 -0.0067 0.23939 0.0
C660 C 0.20238 0.05331 0.24435 0.0
C661 C 0.24613 0.01039 0.23736 0.0
C662 C 0.26838 0.00018 0.25567 0.0
C663 C 0.30168 -0.003 0.25016 0.0
C664 C 0.31263 0.00549 0.22568 0.0
C665 C 0.29035 0.01674 0.20696 0.0
C666 C 0.25659 0.018 0.21262 0.0
H667 H 0.42462 0.24697 0.69909 0.0
H668 H 0.45297 0.33767 0.73569 0.0
H669 H 0.46426 0.30755 0.77563 0.0
H670 H 0.37891 0.21972 0.74821 0.0
H671 H 0.38813 0.17672 0.74497 0.0
H672 H 0.39085 0.20325 0.71775 0.0
H673 H 0.4512 0.18563 0.71061 0.0
H674 H 0.4486 0.15872 0.73782 0.0
H675 H 0.48037 0.1894 0.73625 0.0
H676 H 0.46316 0.26963 0.81326 0.0
H677 H 0.44736 0.22801 0.84535 0.0
H678 H 0.4174 0.1625 0.78467 0.0
C679 C 0.43482 0.26009 0.71516 0.0
C680 C 0.43883 0.29441 0.71423 0.0
C681 C 0.45044 0.31123 0.73598 0.0
C682 C 0.45694 0.29431 0.75872 0.0
C683 C 0.45142 0.26057 0.75945 0.0
C684 C 0.44069 0.24361 0.73818 0.0
C685 C 0.43146 0.20869 0.74494 0.0
C686 C 0.3952 0.20172 0.7386 0.0
C687 C 0.45428 0.18416 0.73161 0.0
C688 C 0.43736 0.20906 0.77343 0.0
C689 C 0.44963 0.23892 0.7814 0.0
C690 C 0.45421 0.24591 0.80719 0.0
C691 C 0.44522 0.22213 0.82531 0.0
C692 C 0.43136 0.19197 0.81752 0.0
C693 C 0.42836 0.18516 0.79122 0.0
H694 H 0.23516 0.41203 0.19914 0.0
H695 H 0.14735 0.4501 0.23478 0.0
H696 H 0.17805 0.45919 0.27473 0.0
H697 H 0.25889 0.36577 0.2498 0.0
H698 H 0.30247 0.37163 0.24631 0.0
H699 H 0.27612 0.37504 0.219 0.0
H700 H 0.2981 0.43355 0.21003 0.0
H701 H 0.32494 0.43018 0.2372 0.0
H702 H 0.29671 0.46404 0.23483 0.0
H703 H 0.2158 0.45602 0.31258 0.0
H704 H 0.25769 0.44121 0.3448 0.0
H705 H 0.32026 0.40375 0.28472 0.0
C706 C 0.2229 0.42374 0.21499 0.0
C707 C 0.18914 0.43109 0.21377 0.0
C708 C 0.17339 0.44486 0.23527 0.0
C709 C 0.19062 0.45007 0.25803 0.0
C710 C 0.2236 0.44125 0.25905 0.0
C711 C 0.23967 0.42859 0.23802 0.0
C712 C 0.27385 0.41713 0.24498 0.0
C713 C 0.27805 0.38022 0.23972 0.0
C714 C 0.29994 0.43745 0.23092 0.0
C715 C 0.27407 0.42431 0.27328 0.0
C716 C 0.2451 0.43868 0.28102 0.0
C717 C 0.23885 0.44533 0.30666 0.0
C718 C 0.26272 0.4368 0.32485 0.0
C719 C 0.29228 0.42151 0.31729 0.0
C720 C 0.29806 0.41575 0.29111 0.0
H721 H 0.09999 0.23168 0.698 0.0
H722 H 0.02554 0.16038 0.71831 0.0
H723 H 0.01274 0.19201 0.75713 0.0
H724 H 0.13126 0.2405 0.75792 0.0
H725 H 0.13985 0.28377 0.75591 0.0
H726 H 0.13907 0.25934 0.72745 0.0
H727 H 0.09519 0.2976 0.70763 0.0
H728 H 0.09624 0.32262 0.73588 0.0
H729 H 0.05788 0.30582 0.72488 0.0
H730 H 0.01448 0.22637 0.79711 0.0
H731 H 0.0276 0.2635 0.83309 0.0
H732 H 0.10038 0.31232 0.78623 0.0
C733 C 0.08002 0.22351 0.71003 0.0
C734 C 0.06344 0.19383 0.70497 0.0
C735 C 0.03827 0.18328 0.72168 0.0
C736 C 0.0309 0.20104 0.74383 0.0
C737 C 0.04881 0.22938 0.74894 0.0
C738 C 0.07252 0.24084 0.73229 0.0
C739 C 0.09041 0.27012 0.74328 0.0
C740 C 0.12731 0.26299 0.74632 0.0
C741 C 0.08456 0.30086 0.72695 0.0
C742 C 0.07361 0.27286 0.7689 0.0
C743 C 0.04963 0.24924 0.77185 0.0
C744 C 0.0327 0.24544 0.7948 0.0
C745 C 0.04039 0.26647 0.81516 0.0
C746 C 0.06465 0.29099 0.81233 0.0
C747 C 0.08121 0.29422 0.78882 0.0
H748 H 0.74277 0.93679 0.83178 0.0
H749 H 0.6558 0.9764 0.79593 0.0
H750 H 0.68679 0.9851 0.75609 0.0
H751 H 0.80683 0.9859 0.79383 0.0
H752 H 0.83304 0.95039 0.79231 0.0
H753 H 0.80735 0.95692 0.81978 0.0
H754 H 0.78218 0.8992 0.81357 0.0
H755 H 0.80707 0.89264 0.78589 0.0
H756 H 0.76311 0.88908 0.78362 0.0
H757 H 0.72296 0.97779 0.71803 0.0
H758 H 0.76117 0.95579 0.68566 0.0
H759 H 0.82399 0.91916 0.74596 0.0
C760 C 0.73091 0.94918 0.81602 0.0
C761 C 0.69721 0.95677 0.81704 0.0
C762 C 0.68184 0.97116 0.79561 0.0
C763 C 0.69926 0.97611 0.7729 0.0
C764 C 0.73203 0.96643 0.7719 0.0
C765 C 0.74784 0.9536 0.79305 0.0
C766 C 0.78108 0.93978 0.78598 0.0
C767 C 0.80871 0.95943 0.79873 0.0
C768 C 0.78346 0.90302 0.79265 0.0
C769 C 0.78077 0.94526 0.75745 0.0
C770 C 0.75266 0.96133 0.74971 0.0
C771 C 0.74547 0.96596 0.72393 0.0
C772 C 0.76725 0.95334 0.70565 0.0
C773 C 0.79562 0.93597 0.71328 0.0
C774 C 0.80274 0.93275 0.73952 0.0
H775 H 0.54945 0.69815 0.28029 0.0
H776 H 0.53655 0.76545 0.34329 0.0
H777 H 0.53031 0.81129 0.3127 0.0
H778 H 0.59964 0.74585 0.24568 0.0
H779 H 0.58421 0.73485 0.21467 0.0
H780 H 0.58008 0.7067 0.24078 0.0
H781 H 0.51722 0.70438 0.23388 0.0
H782 H 0.52114 0.73234 0.20743 0.0
H783 H 0.49385 0.74188 0.23338 0.0
H784 H 0.53724 0.85051 0.27604 0.0
H785 H 0.5535 0.87933 0.23657 0.0
H786 H 0.56051 0.78626 0.19729 0.0
C787 C 0.54403 0.72234 0.28765 0.0
C788 C 0.54324 0.72826 0.31416 0.0
C789 C 0.53675 0.76031 0.32306 0.0
C790 C 0.53327 0.78648 0.3058 0.0
C791 C 0.5358 0.78002 0.27974 0.0
C792 C 0.54044 0.74856 0.27071 0.0
C793 C 0.54603 0.74838 0.24217 0.0
C794 C 0.57947 0.73306 0.23546 0.0
C795 C 0.51787 0.7307 0.2284 0.0
C796 C 0.54555 0.78479 0.23666 0.0
C797 C 0.53919 0.80265 0.2585 0.0
C798 C 0.5413 0.83677 0.25871 0.0
C799 C 0.55065 0.85293 0.23623 0.0
C800 C 0.55773 0.83502 0.21381 0.0
C801 C 0.55429 0.80061 0.21394 0.0
H802 H 0.7872 0.55004 0.78424 0.0
H803 H 0.71298 0.52322 0.83962 0.0
H804 H 0.67389 0.51234 0.80462 0.0
H805 H 0.73728 0.59433 0.74546 0.0
H806 H 0.75589 0.5824 0.71576 0.0
H807 H 0.77966 0.58178 0.74456 0.0
H808 H 0.79365 0.52054 0.73712 0.0
H809 H 0.76988 0.521 0.70816 0.0
H810 H 0.76097 0.49132 0.73267 0.0
H811 H 0.64035 0.51518 0.76478 0.0
H812 H 0.61569 0.52964 0.72322 0.0
H813 H 0.71198 0.55203 0.69321 0.0
C814 C 0.76306 0.54081 0.78899 0.0
C815 C 0.75317 0.53725 0.81465 0.0
C816 C 0.72117 0.52579 0.8201 0.0
C817 C 0.69883 0.51952 0.80032 0.0
C818 C 0.70902 0.52439 0.77522 0.0
C819 C 0.74056 0.53439 0.76949 0.0
C820 C 0.74443 0.54124 0.74126 0.0
C821 C 0.75491 0.57705 0.7365 0.0
C822 C 0.76867 0.51708 0.72909 0.0
C823 C 0.70976 0.53501 0.73211 0.0
C824 C 0.68977 0.52497 0.75196 0.0
C825 C 0.65593 0.52194 0.74894 0.0
C826 C 0.64212 0.53017 0.7253 0.0
C827 C 0.66214 0.54089 0.70494 0.0
C828 C 0.69642 0.54243 0.70818 0.0
H829 H 0.93812 0.78497 0.30254 0.0
H830 H 0.89923 0.71741 0.3588 0.0
H831 H 0.8952 0.67442 0.32583 0.0
H832 H 0.88572 0.76379 0.25463 0.0
H833 H 0.91465 0.76768 0.22886 0.0
H834 H 0.9203 0.7911 0.25749 0.0
H835 H 0.97854 0.76681 0.26312 0.0
H836 H 0.97326 0.74351 0.23425 0.0
H837 H 0.98396 0.72295 0.26351 0.0
H838 H 0.88639 0.64237 0.28559 0.0
H839 H 0.8769 0.62256 0.2417 0.0
H840 H 0.92281 0.71038 0.21174 0.0
C841 C 0.92989 0.76077 0.30815 0.0
C842 C 0.91926 0.75443 0.33331 0.0
C843 C 0.90785 0.7227 0.33973 0.0
C844 C 0.90542 0.69814 0.3211 0.0
C845 C 0.91482 0.70563 0.29621 0.0
C846 C 0.9273 0.73605 0.28979 0.0
C847 C 0.9327 0.73895 0.26131 0.0
C848 C 0.91211 0.76703 0.24992 0.0
C849 C 0.9693 0.7433 0.25519 0.0
C850 C 0.92031 0.70582 0.25259 0.0
C851 C 0.91026 0.68687 0.27301 0.0
C852 C 0.89492 0.65665 0.26951 0.0
C853 C 0.8895 0.64565 0.24454 0.0
C854 C 0.89957 0.66473 0.22341 0.0
C855 C 0.91566 0.69491 0.22757 0.0
H856 H 0.41741 0.0305 0.11554 0.0
H857 H 0.43052 0.09043 0.18282 0.0
H858 H 0.48754 0.0699 0.18705 0.0
H859 H 0.45337 0.96285 0.13807 0.0
H860 H 0.47238 0.95016 0.10871 0.0
H861 H 0.43615 0.97504 0.10787 0.0
H862 H 0.46649 0.01848 0.08051 0.0
H863 H 0.50296 -0.00649 0.08112 0.0
H864 H 0.50467 0.03551 0.09168 0.0
H865 H 0.53911 0.03472 0.18804 0.0
H866 H 0.57913 0.98898 0.18566 0.0
H867 H 0.53092 0.95334 0.11757 0.0
C868 C 0.43263 0.04008 0.13072 0.0
C869 C 0.4198 0.06195 0.14886 0.0
C870 C 0.44018 0.07383 0.1686 0.0
C871 C 0.47254 0.06233 0.1711 0.0
C872 C 0.48408 0.03959 0.15337 0.0
C873 C 0.46474 0.02904 0.13333 0.0
C874 C 0.48089 0.00179 0.11855 0.0
C875 C 0.45943 0.97065 0.11832 0.0
C876 C 0.48926 0.01301 0.09135 0.0
C877 C 0.51149 -0.00287 0.13426 0.0
C878 C 0.51349 0.01954 0.15395 0.0
C879 C 0.53818 0.01758 0.17235 0.0
C880 C 0.56079 -0.00841 0.17088 0.0
C881 C 0.55797 0.96782 0.15142 0.0
C882 C 0.5337 0.97136 0.13255 0.0
H883 H 0.55224 0.52466 0.68299 0.0
H884 H 0.50016 0.59593 0.63731 0.0
H885 H 0.4486 0.56411 0.64305 0.0
H886 H 0.52042 0.45838 0.65717 0.0
H887 H 0.51807 0.43371 0.68562 0.0
H888 H 0.54757 0.46616 0.6836 0.0
H889 H 0.52421 0.49231 0.72474 0.0
H890 H 0.49461 0.45958 0.72706 0.0
H891 H 0.48109 0.50164 0.72678 0.0
H892 H 0.40638 0.51796 0.64652 0.0
H893 H 0.37907 0.46348 0.64703 0.0
H894 H 0.46015 0.42378 0.69039 0.0
C895 C 0.52961 0.53419 0.67508 0.0
C896 C 0.52972 0.5626 0.65993 0.0
C897 C 0.50013 0.57436 0.64936 0.0
C898 C 0.47087 0.55643 0.65255 0.0
C899 C 0.47184 0.5274 0.66678 0.0
C900 C 0.50052 0.51681 0.67826 0.0
C901 C 0.49692 0.48299 0.68958 0.0
C902 C 0.52221 0.45893 0.67829 0.0
C903 C 0.49934 0.48422 0.71878 0.0
C904 C 0.46251 0.47498 0.68112 0.0
C905 C 0.44788 0.50106 0.66863 0.0
C906 C 0.4173 0.49774 0.65684 0.0
C907 C 0.40192 0.46681 0.65722 0.0
C908 C 0.41764 0.43975 0.66883 0.0
C909 C 0.4476 0.44429 0.6816 0.0
H910 H 0.07034 0.48113 0.14102 0.0
H911 H 0.01945 0.40195 0.1797 0.0
H912 H 0.96896 0.43561 0.18088 0.0
H913 H 0.03408 0.54641 0.17578 0.0
H914 H 0.03194 0.57365 0.14877 0.0
H915 H 0.06342 0.5428 0.15026 0.0
H916 H 0.04459 0.52 0.10657 0.0
H917 H 0.01299 0.55077 0.10494 0.0
H918 H 0.0024 0.50802 0.10223 0.0
H919 H 0.92449 0.47857 0.17834 0.0
H920 H 0.88978 0.52778 0.17323 0.0
H921 H 0.9706 0.57849 0.13652 0.0
C922 C 0.04856 0.47076 0.14966 0.0
C923 C 0.0487 0.43895 0.16025 0.0
C924 C 0.01977 0.42631 0.17147 0.0
C925 C 0.99103 0.4452 0.17218 0.0
C926 C -0.00822 0.47656 0.16158 0.0
C927 C 0.01982 0.48923 0.15056 0.0
C928 C 0.01454 0.52382 0.14103 0.0
C929 C 0.03734 0.54809 0.15479 0.0
C930 C 0.01888 0.52575 0.11197 0.0
C931 C 0.97917 0.52882 0.14859 0.0
C932 C 0.96638 0.50125 0.16028 0.0
C933 C 0.93422 0.50026 0.16916 0.0
C934 C 0.91471 0.5283 0.16616 0.0
C935 C 0.92754 0.55689 0.15448 0.0
C936 C 0.96012 0.55697 0.14549 0.0
H937 H 0.92824 0.95789 0.64059 0.0
H938 H 0.95874 0.89305 0.70167 0.0
H939 H 0.01055 0.92472 0.70601 0.0
H940 H 0.0088 0.97031 0.61231 0.0
H941 H 8e-05 0.01256 0.60481 0.0
H942 H 0.96732 0.98293 0.60559 0.0
H943 H 0.93605 0.01875 0.63837 0.0
H944 H 0.96865 0.04842 0.6377 0.0
H945 H 0.95618 0.03046 0.66755 0.0
H946 H 0.05748 0.96746 0.70519 0.0
H947 H 0.09357 0.01607 0.69937 0.0
H948 H 0.03024 0.05035 0.63855 0.0
C949 C 0.9459 0.95002 0.65475 0.0
C950 C 0.93955 0.92312 0.67085 0.0
C951 C 0.96329 0.91362 0.6891 0.0
C952 C -0.00728 0.93143 0.69166 0.0
C953 C -0.00206 0.95828 0.67561 0.0
C954 C 0.97511 0.96725 0.65742 0.0
C955 C 0.98521 -0.00226 0.64321 0.0
C956 C 0.99069 0.99043 0.6148 0.0
C957 C 0.96004 0.02546 0.64695 0.0
C958 C 0.01706 0.00516 0.65655 0.0
C959 C 0.02438 0.98219 0.67507 0.0
C960 C 0.05209 0.98535 0.69054 0.0
C961 C 0.07245 0.01294 0.68711 0.0
C962 C 0.06465 0.03687 0.66852 0.0
C963 C 0.03693 0.03244 0.65289 0.0
H964 H 0.49232 0.59417 0.34968 0.0
H965 H 0.58441 0.54626 0.33194 0.0
H966 H 0.55514 0.49323 0.32758 0.0
H967 H 0.46191 0.53458 0.38871 0.0
H968 H 0.41978 0.53867 0.37882 0.0
H969 H 0.44707 0.5731 0.3764 0.0
H970 H 0.43413 0.57843 0.3282 0.0
H971 H 0.40646 0.54409 0.3305 0.0
H972 H 0.43946 0.54343 0.30768 0.0
H973 H 0.51591 0.44444 0.33025 0.0
H974 H 0.47084 0.40523 0.33947 0.0
H975 H 0.40606 0.48674 0.35601 0.0
C976 C 0.50629 0.57268 0.34432 0.0
C977 C 0.54053 0.57418 0.34113 0.0
C978 C 0.55803 0.54555 0.33429 0.0
C979 C 0.54163 0.5154 0.33177 0.0
C980 C 0.50781 0.51462 0.33585 0.0
C981 C 0.49039 0.54269 0.34172 0.0
C982 C 0.45485 0.53535 0.34725 0.0
C983 C 0.44538 0.54605 0.3744 0.0
C984 C 0.4324 0.55126 0.32721 0.0
C985 C 0.45514 0.49857 0.34468 0.0
C986 C 0.48564 0.48691 0.33766 0.0
C987 C 0.49184 0.45337 0.33542 0.0
C988 C 0.4662 0.43132 0.34073 0.0
C989 C 0.43515 0.44307 0.34853 0.0
C990 C 0.4296 0.47707 0.35013 0.0
H991 H 0.99129 0.40209 0.87367 0.0
H992 H 0.07112 0.46792 0.85429 0.0
H993 H 0.03148 0.51393 0.851 0.0
H994 H 0.93107 0.43678 0.83196 0.0
H995 H 0.89796 0.4306 0.8542 0.0
H996 H 0.93271 0.40339 0.85446 0.0
H997 H 0.94218 0.41586 0.90234 0.0
H998 H 0.90746 0.44308 0.90224 0.0
H999 H 0.94699 0.45777 0.91253 0.0
H1000 H 0.98207 0.55259 0.85032 0.0
H1001 H 0.92811 0.58033 0.85303 0.0
H1002 H 0.88246 0.48777 0.87322 0.0
C1003 C 0.00056 0.42614 0.86864 0.0
C1004 C 0.03421 0.43154 0.86417 0.0
C1005 C 0.04534 0.46337 0.85776 0.0
C1006 C 0.02304 0.48954 0.85583 0.0
C1007 C 0.9899 0.48327 0.86041 0.0
C1008 C 0.97883 0.45228 0.86672 0.0
C1009 C 0.94229 0.45168 0.87116 0.0
C1010 C 0.925 0.42929 0.85178 0.0
C1011 C 0.93428 0.44151 0.8987 0.0
C1012 C 0.93432 0.48726 0.86646 0.0
C1013 C 0.96195 0.5052 0.8602 0.0
C1014 C 0.96031 0.53874 0.85519 0.0
C1015 C 0.92962 0.55425 0.85675 0.0
C1016 C 0.90121 0.53614 0.86334 0.0
C1017 C 0.90375 0.50226 0.86814 0.0
H1018 H -0.00398 0.8914 0.38773 0.0
H1019 H 0.91842 0.94766 0.35186 0.0
H1020 H 0.95578 -0.00444 0.34877 0.0
H1021 H 0.02857 0.95657 0.42538 0.0
H1022 H 0.0704 0.9431 0.42178 0.0
H1023 H 0.03748 0.91371 0.42069 0.0
H1024 H 0.05751 0.89378 0.37645 0.0
H1025 H 0.09053 0.92304 0.37743 0.0
H1026 H 0.06238 0.92305 0.35097 0.0
H1027 H 0.00311 0.03707 0.34934 0.0
H1028 H 0.05518 0.06805 0.35417 0.0
H1029 H 0.09937 0.98336 0.39061 0.0
C1030 C 0.98681 0.91374 0.37915 0.0
C1031 C 0.95445 0.91589 0.36994 0.0
C1032 C 0.94326 0.9456 0.35899 0.0
C1033 C 0.96426 0.97285 0.35718 0.0
C1034 C -0.00386 0.96985 0.36653 0.0
C1035 C 0.00722 0.94099 0.37736 0.0
C1036 C 0.04227 0.94374 0.38623 0.0
C1037 C 0.04481 0.93901 0.41524 0.0
C1038 C 0.06447 0.91947 0.3719 0.0
C1039 C 0.04941 0.97868 0.37865 0.0
C1040 C 0.02269 -0.00651 0.36725 0.0
C1041 C 0.02411 0.02572 0.35834 0.0
C1042 C 0.0537 0.0431 0.36114 0.0
C1043 C 0.08116 0.02811 0.37285 0.0
C1044 C 0.07874 -0.00441 0.38172 0.0
H1045 H 0.55825 0.96594 0.89535 0.0
H1046 H 0.53811 0.90904 0.82745 0.0
H1047 H 0.48563 0.93904 0.82182 0.0
H1048 H 0.47221 0.97375 0.91756 0.0
H1049 H 0.47942 0.01495 0.92861 0.0
H1050 H 0.51222 0.98536 0.92907 0.0
H1051 H 0.54827 0.0248 0.90222 0.0
H1052 H 0.51565 0.05433 0.90153 0.0
H1053 H 0.53305 0.03972 0.87211 0.0
H1054 H 0.43856 0.98087 0.82122 0.0
H1055 H 0.40257 0.0297 0.82575 0.0
H1056 H 0.45572 0.0576 0.89389 0.0
C1057 C 0.5425 0.95924 0.87957 0.0
C1058 C 0.55209 0.93529 0.86182 0.0
C1059 C 0.53096 0.92727 0.84136 0.0
C1060 C 0.50117 0.94414 0.83805 0.0
C1061 C 0.4929 0.96847 0.85559 0.0
C1062 C 0.51294 0.97563 0.87611 0.0
C1063 C 0.50047 0.00448 0.89115 0.0
C1064 C 0.49048 -0.00601 0.9182 0.0
C1065 C 0.52586 0.03247 0.89176 0.0
C1066 C 0.47095 0.01346 0.87536 0.0
C1067 C 0.46643 -0.00776 0.85515 0.0
C1068 C 0.44162 -0.0027 0.83721 0.0
C1069 C 0.42135 0.02502 0.83988 0.0
C1070 C 0.42656 0.04732 0.8601 0.0
C1071 C 0.45121 0.04095 0.87821 0.0
loop_
_geom_bond_atom_site_label_1
_geom_bond_atom_site_label_2
_geom_bond_distance
_geom_bond_site_symmetry_2
_ccdc_geom_bond_type
In0 O1 2.294 . S
In0 O2 2.326 . S
In0 O6 2.266 . S
In0 O7 2.326 . S
In0 O8 2.266 . S
In0 O9 2.326 . S
In0 O11 2.294 . S
In0 O12 2.326 . S
O1 In0 2.294 . S
O1 C10 1.240 . S
O2 In0 2.326 . S
O2 C10 1.252 . S
C3 O6 1.252 . S
C3 O7 1.260 . S
C4 O11 1.240 . S
C4 O12 1.252 . S
C5 O8 1.252 . S
C5 O9 1.260 . S
O6 In0 2.266 . S
O6 C3 1.252 . S
O7 In0 2.326 . S
O7 C3 1.260 . S
O8 In0 2.266 . S
O8 C5 1.252 . S
O9 In0 2.326 . S
O9 C5 1.260 . S
C10 O1 1.240 . S
C10 O2 1.252 . S
O11 In0 2.294 . S
O11 C4 1.240 . S
O12 In0 2.326 . S
O12 C4 1.252 . S
In13 O14 2.294 . S
In13 O15 2.326 . S
In13 O19 2.266 . S
In13 O20 2.326 . S
In13 O21 2.266 . S
In13 O22 2.326 . S
In13 O24 2.294 . S
In13 O25 2.326 . S
O14 In13 2.294 . S
O14 C23 1.240 . S
O15 In13 2.326 . S
O15 C23 1.252 . S
C16 O19 1.252 . S
C16 O20 1.260 . S
C17 O24 1.240 . S
C17 O25 1.252 . S
C18 O21 1.252 . S
C18 O22 1.260 . S
O19 In13 2.266 . S
O19 C16 1.252 . S
O20 In13 2.326 . S
O20 C16 1.260 . S
O21 In13 2.266 . S
O21 C18 1.252 . S
O22 In13 2.326 . S
O22 C18 1.260 . S
C23 O14 1.240 . S
C23 O15 1.252 . S
O24 In13 2.294 . S
O24 C17 1.240 . S
O25 In13 2.326 . S
O25 C17 1.252 . S
In26 O27 2.294 . S
In26 O28 2.326 . S
In26 O32 2.266 . S
In26 O33 2.326 . S
In26 O34 2.266 . S
In26 O35 2.326 . S
In26 O37 2.294 . S
In26 O38 2.326 . S
O27 In26 2.294 . S
O27 C36 1.240 . S
O28 In26 2.326 . S
O28 C36 1.252 . S
C29 O32 1.252 . S
C29 O33 1.260 . S
C30 O37 1.240 . S
C30 O38 1.252 . S
C31 O34 1.252 . S
C31 O35 1.260 . S
O32 In26 2.266 . S
O32 C29 1.252 . S
O33 In26 2.326 . S
O33 C29 1.260 . S
O34 In26 2.266 . S
O34 C31 1.252 . S
O35 In26 2.326 . S
O35 C31 1.260 . S
C36 O27 1.240 . S
C36 O28 1.252 . S
O37 In26 2.294 . S
O37 C30 1.240 . S
O38 In26 2.326 . S
O38 C30 1.252 . S
In39 O40 2.294 . S
In39 O41 2.326 . S
In39 O45 2.266 . S
In39 O46 2.326 . S
In39 O47 2.266 . S
In39 O48 2.326 . S
In39 O50 2.294 . S
In39 O51 2.326 . S
O40 In39 2.294 . S
O40 C49 1.240 . S
O41 In39 2.326 . S
O41 C49 1.252 . S
C42 O45 1.252 . S
C42 O46 1.260 . S
C43 O50 1.240 . S
C43 O51 1.252 . S
C44 O47 1.252 . S
C44 O48 1.260 . S
O45 In39 2.266 . S
O45 C42 1.252 . S
O46 In39 2.326 . S
O46 C42 1.260 . S
O47 In39 2.266 . S
O47 C44 1.252 . S
O48 In39 2.326 . S
O48 C44 1.260 . S
C49 O40 1.240 . S
C49 O41 1.252 . S
O50 In39 2.294 . S
O50 C43 1.240 . S
O51 In39 2.326 . S
O51 C43 1.252 . S
In52 O53 2.294 . S
In52 O54 2.326 . S
In52 O58 2.266 . S
In52 O59 2.326 . S
In52 O60 2.266 . S
In52 O61 2.326 . S
In52 O63 2.294 . S
In52 O64 2.326 . S
O53 In52 2.294 . S
O53 C62 1.240 . S
O54 In52 2.326 . S
O54 C62 1.252 . S
C55 O58 1.252 . S
C55 O59 1.260 . S
C56 O63 1.240 . S
C56 O64 1.252 . S
C57 O60 1.252 . S
C57 O61 1.260 . S
O58 In52 2.266 . S
O58 C55 1.252 . S
O59 In52 2.326 . S
O59 C55 1.260 . S
O60 In52 2.266 . S
O60 C57 1.252 . S
O61 In52 2.326 . S
O61 C57 1.260 . S
C62 O53 1.240 . S
C62 O54 1.252 . S
O63 In52 2.294 . S
O63 C56 1.240 . S
O64 In52 2.326 . S
O64 C56 1.252 . S
In65 O66 2.294 . S
In65 O67 2.326 . S
In65 O71 2.266 . S
In65 O72 2.326 . S
In65 O73 2.266 . S
In65 O74 2.326 . S
In65 O76 2.294 . S
In65 O77 2.326 . S
O66 In65 2.294 . S
O66 C75 1.240 . S
O67 In65 2.326 . S
O67 C75 1.252 . S
C68 O71 1.252 . S
C68 O72 1.260 . S
C69 O76 1.240 . S
C69 O77 1.252 . S
C70 O73 1.252 . S
C70 O74 1.260 . S
O71 In65 2.266 . S
O71 C68 1.252 . S
O72 In65 2.326 . S
O72 C68 1.260 . S
O73 In65 2.266 . S
O73 C70 1.252 . S
O74 In65 2.326 . S
O74 C70 1.260 . S
C75 O66 1.240 . S
C75 O67 1.252 . S
O76 In65 2.294 . S
O76 C69 1.240 . S
O77 In65 2.326 . S
O77 C69 1.252 . S
In78 O79 2.294 . S
In78 O80 2.326 . S
In78 O84 2.266 . S
In78 O85 2.326 . S
In78 O86 2.266 . S
In78 O87 2.326 . S
In78 O89 2.294 . S
In78 O90 2.326 . S
O79 In78 2.294 . S
O79 C88 1.240 . S
O80 In78 2.326 . S
O80 C88 1.252 . S
C81 O84 1.252 . S
C81 O85 1.260 . S
C82 O89 1.240 . S
C82 O90 1.252 . S
C83 O86 1.252 . S
C83 O87 1.260 . S
O84 In78 2.266 . S
O84 C81 1.252 . S
O85 In78 2.326 . S
O85 C81 1.260 . S
O86 In78 2.266 . S
O86 C83 1.252 . S
O87 In78 2.326 . S
O87 C83 1.260 . S
C88 O79 1.240 . S
C88 O80 1.252 . S
O89 In78 2.294 . S
O89 C82 1.240 . S
O90 In78 2.326 . S
O90 C82 1.252 . S
In91 O92 2.294 . S
In91 O93 2.326 . S
In91 O97 2.266 . S
In91 O98 2.326 . S
In91 O99 2.266 . S
In91 O100 2.326 . S
In91 O102 2.294 . S
In91 O103 2.326 . S
O92 In91 2.294 . S
O92 C101 1.240 . S
O93 In91 2.326 . S
O93 C101 1.252 . S
C94 O97 1.252 . S
C94 O98 1.260 . S
C95 O102 1.240 . S
C95 O103 1.252 . S
C96 O99 1.252 . S
C96 O100 1.260 . S
O97 In91 2.266 . S
O97 C94 1.252 . S
O98 In91 2.326 . S
O98 C94 1.260 . S
O99 In91 2.266 . S
O99 C96 1.252 . S
O100 In91 2.326 . S
O100 C96 1.260 . S
C101 O92 1.240 . S
C101 O93 1.252 . S
O102 In91 2.294 . S
O102 C95 1.240 . S
O103 In91 2.326 . S
O103 C95 1.252 . S
In104 O105 2.294 . S
In104 O106 2.326 . S
In104 O110 2.266 . S
In104 O111 2.326 . S
In104 O112 2.266 . S
In104 O113 2.326 . S
In104 O115 2.294 . S
In104 O116 2.326 . S
O105 In104 2.294 . S
O105 C114 1.240 . S
O106 In104 2.326 . S
O106 C114 1.252 . S
C107 O110 1.252 . S
C107 O111 1.260 . S
C108 O115 1.240 . S
C108 O116 1.252 . S
C109 O112 1.252 . S
C109 O113 1.260 . S
O110 In104 2.266 . S
O110 C107 1.252 . S
O111 In104 2.326 . S
O111 C107 1.260 . S
O112 In104 2.266 . S
O112 C109 1.252 . S
O113 In104 2.326 . S
O113 C109 1.260 . S
C114 O105 1.240 . S
C114 O106 1.252 . S
O115 In104 2.294 . S
O115 C108 1.240 . S
O116 In104 2.326 . S
O116 C108 1.252 . S
In117 O118 2.294 . S
In117 O119 2.326 . S
In117 O123 2.266 . S
In117 O124 2.326 . S
In117 O125 2.266 . S
In117 O126 2.326 . S
In117 O128 2.294 . S
In117 O129 2.326 . S
O118 In117 2.294 . S
O118 C127 1.240 . S
O119 In117 2.326 . S
O119 C127 1.252 . S
C120 O123 1.252 . S
C120 O124 1.260 . S
C121 O128 1.240 . S
C121 O129 1.252 . S
C122 O125 1.252 . S
C122 O126 1.260 . S
O123 In117 2.266 . S
O123 C120 1.252 . S
O124 In117 2.326 . S
O124 C120 1.260 . S
O125 In117 2.266 . S
O125 C122 1.252 . S
O126 In117 2.326 . S
O126 C122 1.260 . S
C127 O118 1.240 . S
C127 O119 1.252 . S
O128 In117 2.294 . S
O128 C121 1.240 . S
O129 In117 2.326 . S
O129 C121 1.252 . S
In130 O131 2.294 . S
In130 O132 2.326 . S
In130 O136 2.266 . S
In130 O137 2.326 . S
In130 O138 2.266 . S
In130 O139 2.326 . S
In130 O141 2.294 . S
In130 O142 2.326 . S
O131 In130 2.294 . S
O131 C140 1.240 . S
O132 In130 2.326 . S
O132 C140 1.252 . S
C133 O136 1.252 . S
C133 O137 1.260 . S
C134 O141 1.240 . S
C134 O142 1.252 . S
C135 O138 1.252 . S
C135 O139 1.260 . S
O136 In130 2.266 . S
O136 C133 1.252 . S
O137 In130 2.326 . S
O137 C133 1.260 . S
O138 In130 2.266 . S
O138 C135 1.252 . S
O139 In130 2.326 . S
O139 C135 1.260 . S
C140 O131 1.240 . S
C140 O132 1.252 . S
O141 In130 2.294 . S
O141 C134 1.240 . S
O142 In130 2.326 . S
O142 C134 1.252 . S
In143 O144 2.294 . S
In143 O145 2.326 . S
In143 O149 2.266 . S
In143 O150 2.326 . S
In143 O151 2.266 . S
In143 O152 2.326 . S
In143 O154 2.294 . S
In143 O155 2.326 . S
O144 In143 2.294 . S
O144 C153 1.240 . S
O145 In143 2.326 . S
O145 C153 1.252 . S
C146 O149 1.252 . S
C146 O150 1.260 . S
C147 O154 1.240 . S
C147 O155 1.252 . S
C148 O151 1.252 . S
C148 O152 1.260 . S
O149 In143 2.266 . S
O149 C146 1.252 . S
O150 In143 2.326 . S
O150 C146 1.260 . S
O151 In143 2.266 . S
O151 C148 1.252 . S
O152 In143 2.326 . S
O152 C148 1.260 . S
C153 O144 1.240 . S
C153 O145 1.252 . S
O154 In143 2.294 . S
O154 C147 1.240 . S
O155 In143 2.326 . S
O155 C147 1.252 . S
In156 O157 2.294 . S
In156 O158 2.326 . S
In156 O162 2.266 . S
In156 O163 2.326 . S
In156 O164 2.266 . S
In156 O165 2.326 . S
In156 O167 2.294 . S
In156 O168 2.326 . S
O157 In156 2.294 . S
O157 C166 1.240 . S
O158 In156 2.326 . S
O158 C166 1.252 . S
C159 O162 1.252 . S
C159 O163 1.260 . S
C160 O167 1.240 . S
C160 O168 1.252 . S
C161 O164 1.252 . S
C161 O165 1.260 . S
O162 In156 2.266 . S
O162 C159 1.252 . S
O163 In156 2.326 . S
O163 C159 1.260 . S
O164 In156 2.266 . S
O164 C161 1.252 . S
O165 In156 2.326 . S
O165 C161 1.260 . S
C166 O157 1.240 . S
C166 O158 1.252 . S
O167 In156 2.294 . S
O167 C160 1.240 . S
O168 In156 2.326 . S
O168 C160 1.252 . S
In169 O170 2.294 . S
In169 O171 2.326 . S
In169 O175 2.266 . S
In169 O176 2.326 . S
In169 O177 2.266 . S
In169 O178 2.326 . S
In169 O180 2.294 . S
In169 O181 2.326 . S
O170 In169 2.294 . S
O170 C179 1.240 . S
O171 In169 2.326 . S
O171 C179 1.252 . S
C172 O175 1.252 . S
C172 O176 1.260 . S
C173 O180 1.240 . S
C173 O181 1.252 . S
C174 O177 1.252 . S
C174 O178 1.260 . S
O175 In169 2.266 . S
O175 C172 1.252 . S
O176 In169 2.326 . S
O176 C172 1.260 . S
O177 In169 2.266 . S
O177 C174 1.252 . S
O178 In169 2.326 . S
O178 C174 1.260 . S
C179 O170 1.240 . S
C179 O171 1.252 . S
O180 In169 2.294 . S
O180 C173 1.240 . S
O181 In169 2.326 . S
O181 C173 1.252 . S
In182 O183 2.294 . S
In182 O184 2.326 . S
In182 O188 2.266 . S
In182 O189 2.326 . S
In182 O190 2.266 . S
In182 O191 2.326 . S
In182 O193 2.294 . S
In182 O194 2.326 . S
O183 In182 2.294 . S
O183 C192 1.240 . S
O184 In182 2.326 . S
O184 C192 1.252 . S
C185 O188 1.252 . S
C185 O189 1.260 . S
C186 O193 1.240 . S
C186 O194 1.252 . S
C187 O190 1.252 . S
C187 O191 1.260 . S
O188 In182 2.266 . S
O188 C185 1.252 . S
O189 In182 2.326 . S
O189 C185 1.260 . S
O190 In182 2.266 . S
O190 C187 1.252 . S
O191 In182 2.326 . S
O191 C187 1.260 . S
C192 O183 1.240 . S
C192 O184 1.252 . S
O193 In182 2.294 . S
O193 C186 1.240 . S
O194 In182 2.326 . S
O194 C186 1.252 . S
In195 O196 2.294 . S
In195 O197 2.326 . S
In195 O201 2.266 . S
In195 O202 2.326 . S
In195 O203 2.266 . S
In195 O204 2.326 . S
In195 O206 2.294 . S
In195 O207 2.326 . S
O196 In195 2.294 . S
O196 C205 1.240 . S
O197 In195 2.326 . S
O197 C205 1.252 . S
C198 O201 1.252 . S
C198 O202 1.260 . S
C199 O206 1.240 . S
C199 O207 1.252 . S
C200 O203 1.252 . S
C200 O204 1.260 . S
O201 In195 2.266 . S
O201 C198 1.252 . S
O202 In195 2.326 . S
O202 C198 1.260 . S
O203 In195 2.266 . S
O203 C200 1.252 . S
O204 In195 2.326 . S
O204 C200 1.260 . S
C205 O196 1.240 . S
C205 O197 1.252 . S
O206 In195 2.294 . S
O206 C199 1.240 . S
O207 In195 2.326 . S
O207 C199 1.252 . S
H208 C220 0.930 . S
H209 C222 0.930 . S
H210 C223 0.930 . S
H211 C227 0.959 . S
H212 C227 0.959 . S
H213 C227 0.961 . S
H214 C228 0.988 . S
H215 C228 0.961 . S
H216 C228 0.959 . S
H217 C231 0.929 . S
H218 C232 0.931 . S
H219 C234 0.930 . S
C220 H208 0.930 . S
C220 C221 1.399 . S
C220 C225 1.399 . S
C221 C220 1.399 . S
C221 C222 1.376 . S
C222 H209 0.930 . S
C222 C221 1.376 . S
C222 C223 1.388 . S
C223 H210 0.930 . S
C223 C222 1.388 . S
C223 C224 1.390 . S
C224 C223 1.390 . S
C224 C225 1.394 . S
C224 C230 1.465 1_556 S
C225 C220 1.399 . S
C225 C224 1.394 . S
C225 C226 1.516 1_556 S
C226 C225 1.516 1_554 S
C226 C227 1.502 . S
C226 C228 1.561 . S
C226 C229 1.526 . S
C227 H211 0.959 . S
C227 H212 0.959 . S
C227 H213 0.961 . S
C227 C226 1.502 . S
C228 H214 0.988 . S
C228 H215 0.961 . S
C228 H216 0.959 . S
C228 C226 1.561 . S
C229 C226 1.526 . S
C229 C230 1.396 . S
C229 C234 1.390 . S
C230 C224 1.465 1_554 S
C230 C229 1.396 . S
C230 C231 1.399 . S
C231 H217 0.929 . S
C231 C230 1.399 . S
C231 C232 1.385 . S
C232 H218 0.931 . S
C232 C231 1.385 . S
C232 C233 1.389 . S
C233 C232 1.389 . S
C233 C234 1.387 . S
C234 H219 0.930 . S
C234 C229 1.390 . S
C234 C233 1.387 . S
H235 C247 0.930 . S
H236 C249 0.930 . S
H237 C250 0.930 . S
H238 C254 0.959 . S
H239 C254 0.959 . S
H240 C254 0.961 . S
H241 C255 0.960 . S
H242 C255 0.961 . S
H243 C255 0.959 . S
H244 C258 0.929 . S
H245 C259 0.931 . S
H246 C261 0.930 . S
C247 H235 0.930 . S
C247 C248 1.399 . S
C247 C252 1.399 . S
C248 C247 1.399 . S
C248 C249 1.376 . S
C249 H236 0.930 . S
C249 C248 1.376 . S
C249 C250 1.388 . S
C250 H237 0.930 . S
C250 C249 1.388 . S
C250 C251 1.390 . S
C251 C250 1.390 . S
C251 C252 1.394 . S
C251 C257 1.465 . S
C252 C247 1.399 . S
C252 C251 1.394 . S
C252 C253 1.516 . S
C253 C252 1.516 . S
C253 C254 1.502 . S
C253 C255 1.561 . S
C253 C256 1.526 . S
C254 H238 0.959 . S
C254 H239 0.959 . S
C254 H240 0.961 . S
C254 C253 1.502 . S
C255 H241 0.960 . S
C255 H242 0.961 . S
C255 H243 0.959 . S
C255 C253 1.561 . S
C256 C253 1.526 . S
C256 C257 1.396 . S
C256 C261 1.390 . S
C257 C251 1.465 . S
C257 C256 1.396 . S
C257 C258 1.399 . S
C258 H244 0.929 . S
C258 C257 1.399 . S
C258 C259 1.385 . S
C259 H245 0.931 . S
C259 C258 1.385 . S
C259 C260 1.389 . S
C260 C259 1.389 . S
C260 C261 1.387 . S
C261 H246 0.930 . S
C261 C256 1.390 . S
C261 C260 1.387 . S
H262 C274 0.930 . S
H263 C276 0.930 . S
H264 C277 0.930 . S
H265 C281 0.959 . S
H266 C281 0.959 . S
H267 C281 0.961 . S
H268 C282 0.960 . S
H269 C282 0.961 . S
H270 C282 0.959 . S
H271 C285 0.929 . S
H272 C286 0.931 . S
H273 C288 0.930 . S
C274 H262 0.930 . S
C274 C275 1.399 . S
C274 C279 1.399 . S
C275 C274 1.399 . S
C275 C276 1.376 . S
C276 H263 0.930 . S
C276 C275 1.376 . S
C276 C277 1.388 . S
C277 H264 0.930 . S
C277 C276 1.388 . S
C277 C278 1.390 . S
C278 C277 1.390 . S
C278 C279 1.394 . S
C278 C284 1.465 1_556 S
C279 C274 1.399 . S
C279 C278 1.394 . S
C279 C280 1.516 . S
C280 C279 1.516 . S
C280 C281 1.502 . S
C280 C282 1.561 . S
C280 C283 1.526 1_556 S
C281 H265 0.959 . S
C281 H266 0.959 . S
C281 H267 0.961 . S
C281 C280 1.502 . S
C282 H268 0.960 . S
C282 H269 0.961 . S
C282 H270 0.959 . S
C282 C280 1.561 . S
C283 C280 1.526 1_554 S
C283 C284 1.396 . S
C283 C288 1.390 . S
C284 C278 1.465 1_554 S
C284 C283 1.396 . S
C284 C285 1.399 . S
C285 H271 0.929 . S
C285 C284 1.399 . S
C285 C286 1.385 . S
C286 H272 0.931 . S
C286 C285 1.385 . S
C286 C287 1.389 . S
C287 C286 1.389 . S
C287 C288 1.387 . S
C288 H273 0.930 . S
C288 C283 1.390 . S
C288 C287 1.387 . S
H289 C301 0.930 . S
H290 C303 0.930 . S
H291 C304 0.930 . S
H292 C308 0.959 . S
H293 C308 0.959 . S
H294 C308 0.961 . S
H295 C309 0.960 . S
H296 C309 0.961 . S
H297 C309 0.959 . S
H298 C312 0.929 . S
H299 C313 0.931 . S
H300 C315 0.930 . S
C301 H289 0.930 . S
C301 C302 1.399 . S
C301 C306 1.399 . S
C302 C301 1.399 . S
C302 C303 1.376 . S
C303 H290 0.930 . S
C303 C302 1.376 . S
C303 C304 1.388 . S
C304 H291 0.930 . S
C304 C303 1.388 . S
C304 C305 1.390 . S
C305 C304 1.390 . S
C305 C306 1.394 . S
C305 C311 1.465 . S
C306 C301 1.399 . S
C306 C305 1.394 . S
C306 C307 1.516 . S
C307 C306 1.516 . S
C307 C308 1.502 . S
C307 C309 1.561 . S
C307 C310 1.526 . S
C308 H292 0.959 . S
C308 H293 0.959 . S
C308 H294 0.961 . S
C308 C307 1.502 . S
C309 H295 0.960 . S
C309 H296 0.961 . S
C309 H297 0.959 . S
C309 C307 1.561 . S
C310 C307 1.526 . S
C310 C311 1.396 . S
C310 C315 1.390 . S
C311 C305 1.465 . S
C311 C310 1.396 . S
C311 C312 1.399 . S
C312 H298 0.929 . S
C312 C311 1.399 . S
C312 C313 1.385 . S
C313 H299 0.931 . S
C313 C312 1.385 . S
C313 C314 1.389 . S
C314 C313 1.389 . S
C314 C315 1.387 . S
C315 H300 0.930 . S
C315 C310 1.390 . S
C315 C314 1.387 . S
H316 C328 0.930 . S
H317 C330 0.930 . S
H318 C331 0.930 . S
H319 C335 0.959 . S
H320 C335 0.959 1_556 S
H321 C335 0.961 . S
H322 C336 0.960 1_554 S
H323 C336 0.961 . S
H324 C336 0.959 . S
H325 C339 0.929 . S
H326 C340 0.931 . S
H327 C342 0.930 . S
C328 H316 0.930 . S
C328 C329 1.399 . S
C328 C333 1.399 . S
C329 C328 1.399 . S
C329 C330 1.376 . S
C330 H317 0.930 . S
C330 C329 1.376 . S
C330 C331 1.388 . S
C331 H318 0.930 . S
C331 C330 1.388 . S
C331 C332 1.390 . S
C332 C331 1.390 . S
C332 C333 1.394 . S
C332 C338 1.465 1_554 S
C333 C328 1.399 . S
C333 C332 1.394 . S
C333 C334 1.548 . S
C334 C333 1.548 . S
C334 C335 1.519 . S
C334 C336 1.546 1_554 S
C334 C337 1.491 1_554 S
C335 H319 0.959 . S
C335 H320 0.959 1_554 S
C335 H321 0.961 . S
C335 C334 1.519 . S
C336 H322 0.960 1_556 S
C336 H323 0.961 . S
C336 H324 0.959 . S
C336 C334 1.546 1_556 S
C337 C334 1.491 1_556 S
C337 C338 1.396 . S
C337 C342 1.390 . S
C338 C332 1.465 1_556 S
C338 C337 1.396 . S
C338 C339 1.399 . S
C339 H325 0.929 . S
C339 C338 1.399 . S
C339 C340 1.385 . S
C340 H326 0.931 . S
C340 C339 1.385 . S
C340 C341 1.389 . S
C341 C340 1.389 . S
C341 C342 1.387 . S
C342 H327 0.930 . S
C342 C337 1.390 . S
C342 C341 1.387 . S
H343 C355 0.930 . S
H344 C357 0.930 . S
H345 C358 0.930 . S
H346 C362 0.959 . S
H347 C362 0.959 . S
H348 C362 0.961 . S
H349 C363 0.960 . S
H350 C363 0.961 . S
H351 C363 0.959 . S
H352 C366 0.929 . S
H353 C367 0.931 . S
H354 C369 0.930 . S
C355 H343 0.930 . S
C355 C356 1.399 . S
C355 C360 1.399 . S
C356 C355 1.399 . S
C356 C357 1.376 . S
C357 H344 0.930 . S
C357 C356 1.376 . S
C357 C358 1.388 . S
C358 H345 0.930 . S
C358 C357 1.388 . S
C358 C359 1.390 . S
C359 C358 1.390 . S
C359 C360 1.394 . S
C359 C365 1.465 . S
C360 C355 1.399 . S
C360 C359 1.394 . S
C360 C361 1.516 . S
C361 C360 1.516 . S
C361 C362 1.502 . S
C361 C363 1.561 . S
C361 C364 1.526 . S
C362 H346 0.959 . S
C362 H347 0.959 . S
C362 H348 0.961 . S
C362 C361 1.502 . S
C363 H349 0.960 . S
C363 H350 0.961 . S
C363 H351 0.959 . S
C363 C361 1.561 . S
C364 C361 1.526 . S
C364 C365 1.396 . S
C364 C369 1.390 . S
C365 C359 1.465 . S
C365 C364 1.396 . S
C365 C366 1.399 . S
C366 H352 0.929 . S
C366 C365 1.399 . S
C366 C367 1.385 . S
C367 H353 0.931 . S
C367 C366 1.385 . S
C367 C368 1.389 . S
C368 C367 1.389 . S
C368 C369 1.387 . S
C369 H354 0.930 . S
C369 C364 1.390 . S
C369 C368 1.387 . S
H370 C382 0.930 . S
H371 C384 0.930 . S
H372 C385 0.930 . S
H373 C389 0.959 . S
H374 C389 0.959 . S
H375 C389 0.961 . S
H376 C390 0.960 . S
H377 C390 0.961 1_554 S
H378 C390 0.959 1_554 S
H379 C393 0.929 . S
H380 C394 0.931 . S
H381 C396 0.930 . S
C382 H370 0.930 . S
C382 C383 1.399 . S
C382 C387 1.399 . S
C383 C382 1.399 . S
C383 C384 1.376 . S
C384 H371 0.930 . S
C384 C383 1.376 . S
C384 C385 1.388 . S
C385 H372 0.930 . S
C385 C384 1.388 . S
C385 C386 1.390 . S
C386 C385 1.390 . S
C386 C387 1.394 . S
C386 C392 1.465 1_556 S
C387 C382 1.399 . S
C387 C386 1.394 . S
C387 C388 1.516 . S
C388 C387 1.516 . S
C388 C389 1.502 . S
C388 C390 1.561 . S
C388 C391 1.526 1_556 S
C389 H373 0.959 . S
C389 H374 0.959 . S
C389 H375 0.961 . S
C389 C388 1.502 . S
C390 H376 0.960 . S
C390 H377 0.961 1_556 S
C390 H378 0.959 1_556 S
C390 C388 1.561 . S
C391 C388 1.526 1_554 S
C391 C392 1.396 . S
C391 C396 1.390 . S
C392 C386 1.465 1_554 S
C392 C391 1.396 . S
C392 C393 1.399 . S
C393 H379 0.929 . S
C393 C392 1.399 . S
C393 C394 1.385 . S
C394 H380 0.931 . S
C394 C393 1.385 . S
C394 C395 1.389 . S
C395 C394 1.389 . S
C395 C396 1.387 . S
C396 H381 0.930 . S
C396 C391 1.390 . S
C396 C395 1.387 . S
H397 C409 0.930 . S
H398 C411 0.930 . S
H399 C412 0.930 . S
H400 C416 0.959 . S
H401 C416 0.959 . S
H402 C416 0.961 . S
H403 C417 0.960 . S
H404 C417 0.961 . S
H405 C417 0.959 . S
H406 C420 0.929 . S
H407 C421 0.931 . S
H408 C423 0.930 . S
C409 H397 0.930 . S
C409 C410 1.399 . S
C409 C414 1.399 . S
C410 C409 1.399 . S
C410 C411 1.376 . S
C411 H398 0.930 . S
C411 C410 1.376 . S
C411 C412 1.388 . S
C412 H399 0.930 . S
C412 C411 1.388 . S
C412 C413 1.390 . S
C413 C412 1.390 . S
C413 C414 1.394 . S
C413 C419 1.465 . S
C414 C409 1.399 . S
C414 C413 1.394 . S
C414 C415 1.516 . S
C415 C414 1.516 . S
C415 C416 1.502 . S
C415 C417 1.561 . S
C415 C418 1.526 . S
C416 H400 0.959 . S
C416 H401 0.959 . S
C416 H402 0.961 . S
C416 C415 1.502 . S
C417 H403 0.960 . S
C417 H404 0.961 . S
C417 H405 0.959 . S
C417 C415 1.561 . S
C418 C415 1.526 . S
C418 C419 1.396 . S
C418 C423 1.390 . S
C419 C413 1.465 . S
C419 C418 1.396 . S
C419 C420 1.399 . S
C420 H406 0.929 . S
C420 C419 1.399 . S
C420 C421 1.385 . S
C421 H407 0.931 . S
C421 C420 1.385 . S
C421 C422 1.389 . S
C422 C421 1.389 . S
C422 C423 1.387 . S
C423 H408 0.930 . S
C423 C418 1.390 . S
C423 C422 1.387 . S
H424 C436 0.930 . S
H425 C438 0.930 . S
H426 C439 0.930 . S
H427 C443 0.959 . S
H428 C443 0.959 . S
H429 C443 0.961 . S
H430 C444 0.960 . S
H431 C444 0.961 . S
H432 C444 0.959 . S
H433 C447 0.929 . S
H434 C448 0.931 . S
H435 C450 0.930 . S
C436 H424 0.930 . S
C436 C437 1.399 . S
C436 C441 1.399 . S
C437 C436 1.399 . S
C437 C438 1.376 . S
C438 H425 0.930 . S
C438 C437 1.376 . S
C438 C439 1.388 . S
C439 H426 0.930 . S
C439 C438 1.388 . S
C439 C440 1.390 . S
C440 C439 1.390 . S
C440 C441 1.394 . S
C440 C446 1.465 . S
C441 C436 1.399 . S
C441 C440 1.394 . S
C441 C442 1.516 . S
C442 C441 1.516 . S
C442 C443 1.502 . S
C442 C444 1.561 . S
C442 C445 1.526 . S
C443 H427 0.959 . S
C443 H428 0.959 . S
C443 H429 0.961 . S
C443 C442 1.502 . S
C444 H430 0.960 . S
C444 H431 0.961 . S
C444 H432 0.959 . S
C444 C442 1.561 . S
C445 C442 1.526 . S
C445 C446 1.396 . S
C445 C450 1.390 . S
C446 C440 1.465 . S
C446 C445 1.396 . S
C446 C447 1.399 . S
C447 H433 0.929 . S
C447 C446 1.399 . S
C447 C448 1.385 . S
C448 H434 0.931 . S
C448 C447 1.385 . S
C448 C449 1.389 . S
C449 C448 1.389 . S
C449 C450 1.387 . S
C450 H435 0.930 . S
C450 C445 1.390 . S
C450 C449 1.387 . S
H451 C463 0.930 . S
H452 C465 0.930 . S
H453 C466 0.930 . S
H454 C470 0.959 . S
H455 C470 0.959 . S
H456 C470 0.961 . S
H457 C471 0.960 . S
H458 C471 0.961 . S
H459 C471 0.959 . S
H460 C474 0.929 . S
H461 C475 0.931 . S
H462 C477 0.930 . S
C463 H451 0.930 . S
C463 C464 1.399 . S
C463 C468 1.399 . S
C464 C463 1.399 . S
C464 C465 1.376 . S
C465 H452 0.930 . S
C465 C464 1.376 . S
C465 C466 1.388 . S
C466 H453 0.930 . S
C466 C465 1.388 . S
C466 C467 1.390 . S
C467 C466 1.390 . S
C467 C468 1.394 . S
C467 C473 1.465 . S
C468 C463 1.399 . S
C468 C467 1.394 . S
C468 C469 1.516 . S
C469 C468 1.516 . S
C469 C470 1.502 . S
C469 C471 1.561 . S
C469 C472 1.526 . S
C470 H454 0.959 . S
C470 H455 0.959 . S
C470 H456 0.961 . S
C470 C469 1.502 . S
C471 H457 0.960 . S
C471 H458 0.961 . S
C471 H459 0.959 . S
C471 C469 1.561 . S
C472 C469 1.526 . S
C472 C473 1.396 . S
C472 C477 1.390 . S
C473 C467 1.465 . S
C473 C472 1.396 . S
C473 C474 1.399 . S
C474 H460 0.929 . S
C474 C473 1.399 . S
C474 C475 1.385 . S
C475 H461 0.931 . S
C475 C474 1.385 . S
C475 C476 1.389 . S
C476 C475 1.389 . S
C476 C477 1.387 . S
C477 H462 0.930 . S
C477 C472 1.390 . S
C477 C476 1.387 . S
H478 C490 0.930 . S
H479 C492 0.930 . S
H480 C493 0.930 . S
H481 C497 0.959 . S
H482 C497 0.959 . S
H483 C497 0.961 . S
H484 C498 0.960 . S
H485 C498 0.961 . S
H486 C498 0.959 . S
H487 C501 0.929 . S
H488 C502 0.931 . S
H489 C504 0.930 . S
C490 H478 0.930 . S
C490 C491 1.399 . S
C490 C495 1.399 . S
C491 C490 1.399 . S
C491 C492 1.376 . S
C492 H479 0.930 . S
C492 C491 1.376 . S
C492 C493 1.388 . S
C493 H480 0.930 . S
C493 C492 1.388 . S
C493 C494 1.390 . S
C494 C493 1.390 . S
C494 C495 1.394 . S
C494 C500 1.465 . S
C495 C490 1.399 . S
C495 C494 1.394 . S
C495 C496 1.516 . S
C496 C495 1.516 . S
C496 C497 1.502 . S
C496 C498 1.561 . S
C496 C499 1.526 . S
C497 H481 0.959 . S
C497 H482 0.959 . S
C497 H483 0.961 . S
C497 C496 1.502 . S
C498 H484 0.960 . S
C498 H485 0.961 . S
C498 H486 0.959 . S
C498 C496 1.561 . S
C499 C496 1.526 . S
C499 C500 1.396 . S
C499 C504 1.390 . S
C500 C494 1.465 . S
C500 C499 1.396 . S
C500 C501 1.399 . S
C501 H487 0.929 . S
C501 C500 1.399 . S
C501 C502 1.385 . S
C502 H488 0.931 . S
C502 C501 1.385 . S
C502 C503 1.389 . S
C503 C502 1.389 . S
C503 C504 1.387 . S
C504 H489 0.930 . S
C504 C499 1.390 . S
C504 C503 1.387 . S
H505 C517 0.930 . S
H506 C519 0.930 . S
H507 C520 0.930 . S
H508 C524 0.959 . S
H509 C524 0.959 . S
H510 C524 0.961 . S
H511 C525 0.960 . S
H512 C525 0.961 . S
H513 C525 0.959 . S
H514 C528 0.929 . S
H515 C529 0.931 . S
H516 C531 0.930 . S
C517 H505 0.930 . S
C517 C518 1.399 . S
C517 C522 1.399 . S
C518 C517 1.399 . S
C518 C519 1.376 . S
C519 H506 0.930 . S
C519 C518 1.376 . S
C519 C520 1.388 . S
C520 H507 0.930 . S
C520 C519 1.388 . S
C520 C521 1.390 . S
C521 C520 1.390 . S
C521 C522 1.394 . S
C521 C527 1.465 . S
C522 C517 1.399 . S
C522 C521 1.394 . S
C522 C523 1.516 . S
C523 C522 1.516 . S
C523 C524 1.502 . S
C523 C525 1.561 . S
C523 C526 1.526 . S
C524 H508 0.959 . S
C524 H509 0.959 . S
C524 H510 0.961 . S
C524 C523 1.502 . S
C525 H511 0.960 . S
C525 H512 0.961 . S
C525 H513 0.959 . S
C525 C523 1.561 . S
C526 C523 1.526 . S
C526 C527 1.396 . S
C526 C531 1.390 . S
C527 C521 1.465 . S
C527 C526 1.396 . S
C527 C528 1.399 . S
C528 H514 0.929 . S
C528 C527 1.399 . S
C528 C529 1.385 . S
C529 H515 0.931 . S
C529 C528 1.385 . S
C529 C530 1.389 . S
C530 C529 1.389 . S
C530 C531 1.387 . S
C531 H516 0.930 . S
C531 C526 1.390 . S
C531 C530 1.387 . S
H532 C544 0.930 . S
H533 C546 0.930 . S
H534 C547 0.930 . S
H535 C551 0.959 . S
H536 C551 0.959 . S
H537 C551 0.961 . S
H538 C552 0.960 . S
H539 C552 0.961 . S
H540 C552 0.959 . S
H541 C555 0.929 . S
H542 C556 0.931 . S
H543 C558 0.930 . S
C544 H532 0.930 . S
C544 C545 1.399 . S
C544 C549 1.399 . S
C545 C544 1.399 . S
C545 C546 1.376 . S
C546 H533 0.930 . S
C546 C545 1.376 . S
C546 C547 1.388 . S
C547 H534 0.930 . S
C547 C546 1.388 . S
C547 C548 1.390 . S
C548 C547 1.390 . S
C548 C549 1.394 . S
C548 C554 1.465 . S
C549 C544 1.399 . S
C549 C548 1.394 . S
C549 C550 1.516 . S
C550 C549 1.516 . S
C550 C551 1.502 . S
C550 C552 1.561 . S
C550 C553 1.526 . S
C551 H535 0.959 . S
C551 H536 0.959 . S
C551 H537 0.961 . S
C551 C550 1.502 . S
C552 H538 0.960 . S
C552 H539 0.961 . S
C552 H540 0.959 . S
C552 C550 1.561 . S
C553 C550 1.526 . S
C553 C554 1.396 . S
C553 C558 1.390 . S
C554 C548 1.465 . S
C554 C553 1.396 . S
C554 C555 1.399 . S
C555 H541 0.929 . S
C555 C554 1.399 . S
C555 C556 1.385 . S
C556 H542 0.931 . S
C556 C555 1.385 . S
C556 C557 1.389 . S
C557 C556 1.389 . S
C557 C558 1.387 . S
C558 H543 0.930 . S
C558 C553 1.390 . S
C558 C557 1.387 . S
H559 C571 0.930 . S
H560 C573 0.930 . S
H561 C574 0.930 . S
H562 C578 0.959 . S
H563 C578 0.959 . S
H564 C578 0.961 . S
H565 C579 0.960 . S
H566 C579 0.961 . S
H567 C579 0.959 . S
H568 C582 0.929 . S
H569 C583 0.931 . S
H570 C585 0.930 . S
C571 H559 0.930 . S
C571 C572 1.399 . S
C571 C576 1.399 . S
C572 C571 1.399 . S
C572 C573 1.376 . S
C573 H560 0.930 . S
C573 C572 1.376 . S
C573 C574 1.388 . S
C574 H561 0.930 . S
C574 C573 1.388 . S
C574 C575 1.390 . S
C575 C574 1.390 . S
C575 C576 1.394 . S
C575 C581 1.465 . S
C576 C571 1.399 . S
C576 C575 1.394 . S
C576 C577 1.516 . S
C577 C576 1.516 . S
C577 C578 1.502 . S
C577 C579 1.561 . S
C577 C580 1.526 . S
C578 H562 0.959 . S
C578 H563 0.959 . S
C578 H564 0.961 . S
C578 C577 1.502 . S
C579 H565 0.960 . S
C579 H566 0.961 . S
C579 H567 0.959 . S
C579 C577 1.561 . S
C580 C577 1.526 . S
C580 C581 1.396 . S
C580 C585 1.390 . S
C581 C575 1.465 . S
C581 C580 1.396 . S
C581 C582 1.399 . S
C582 H568 0.929 . S
C582 C581 1.399 . S
C582 C583 1.385 . S
C583 H569 0.931 . S
C583 C582 1.385 . S
C583 C584 1.389 . S
C584 C583 1.389 . S
C584 C585 1.387 . S
C585 H570 0.930 . S
C585 C580 1.390 . S
C585 C584 1.387 . S
H586 C598 0.930 . S
H587 C600 0.930 . S
H588 C601 0.930 . S
H589 C605 0.959 . S
H590 C605 0.959 . S
H591 C605 0.961 . S
H592 C606 0.960 . S
H593 C606 0.961 . S
H594 C606 0.959 . S
H595 C609 0.929 . S
H596 C610 0.931 . S
H597 C612 0.930 . S
C598 H586 0.930 . S
C598 C599 1.399 . S
C598 C603 1.399 . S
C599 C598 1.399 . S
C599 C600 1.376 . S
C600 H587 0.930 . S
C600 C599 1.376 . S
C600 C601 1.388 . S
C601 H588 0.930 . S
C601 C600 1.388 . S
C601 C602 1.390 . S
C602 C601 1.390 . S
C602 C603 1.394 . S
C602 C608 1.465 . S
C603 C598 1.399 . S
C603 C602 1.394 . S
C603 C604 1.516 . S
C604 C603 1.516 . S
C604 C605 1.502 . S
C604 C606 1.561 . S
C604 C607 1.526 . S
C605 H589 0.959 . S
C605 H590 0.959 . S
C605 H591 0.961 . S
C605 C604 1.502 . S
C606 H592 0.960 . S
C606 H593 0.961 . S
C606 H594 0.959 . S
C606 C604 1.561 . S
C607 C604 1.526 . S
C607 C608 1.396 . S
C607 C612 1.390 . S
C608 C602 1.465 . S
C608 C607 1.396 . S
C608 C609 1.399 . S
C609 H595 0.929 . S
C609 C608 1.399 . S
C609 C610 1.385 . S
C610 H596 0.931 . S
C610 C609 1.385 . S
C610 C611 1.389 . S
C611 C610 1.389 . S
C611 C612 1.387 . S
C612 H597 0.930 . S
C612 C607 1.390 . S
C612 C611 1.387 . S
H613 C625 0.930 . S
H614 C627 0.930 . S
H615 C628 0.930 . S
H616 C632 0.959 . S
H617 C632 0.959 . S
H618 C632 0.961 . S
H619 C633 0.960 . S
H620 C633 0.961 . S
H621 C633 0.959 . S
H622 C636 0.929 . S
H623 C637 0.931 . S
H624 C639 0.930 . S
C625 H613 0.930 . S
C625 C626 1.399 . S
C625 C630 1.399 . S
C626 C625 1.399 . S
C626 C627 1.376 . S
C627 H614 0.930 . S
C627 C626 1.376 . S
C627 C628 1.388 . S
C628 H615 0.930 . S
C628 C627 1.388 . S
C628 C629 1.390 . S
C629 C628 1.390 . S
C629 C630 1.394 . S
C629 C635 1.465 . S
C630 C625 1.399 . S
C630 C629 1.394 . S
C630 C631 1.516 . S
C631 C630 1.516 . S
C631 C632 1.502 . S
C631 C633 1.561 . S
C631 C634 1.526 . S
C632 H616 0.959 . S
C632 H617 0.959 . S
C632 H618 0.961 . S
C632 C631 1.502 . S
C633 H619 0.960 . S
C633 H620 0.961 . S
C633 H621 0.959 . S
C633 C631 1.561 . S
C634 C631 1.526 . S
C634 C635 1.396 . S
C634 C639 1.390 . S
C635 C629 1.465 . S
C635 C634 1.396 . S
C635 C636 1.399 . S
C636 H622 0.929 . S
C636 C635 1.399 . S
C636 C637 1.385 . S
C637 H623 0.931 . S
C637 C636 1.385 . S
C637 C638 1.389 . S
C638 C637 1.389 . S
C638 C639 1.387 . S
C639 H624 0.930 . S
C639 C634 1.390 . S
C639 C638 1.387 . S
H640 C652 0.930 . S
H641 C654 0.930 . S
H642 C655 0.930 . S
H643 C659 0.959 . S
H644 C659 0.964 . S
H645 C659 0.975 . S
H646 C660 0.960 . S
H647 C660 0.961 . S
H648 C660 0.959 . S
H649 C663 0.929 . S
H650 C664 0.931 . S
H651 C666 0.930 . S
C652 H640 0.930 . S
C652 C653 1.399 . S
C652 C657 1.399 . S
C653 C652 1.399 . S
C653 C654 1.376 . S
C654 H641 0.930 . S
C654 C653 1.376 . S
C654 C655 1.388 . S
C655 H642 0.930 . S
C655 C654 1.388 . S
C655 C656 1.390 . S
C656 C655 1.390 . S
C656 C657 1.394 . S
C656 C662 1.465 . S
C657 C652 1.399 . S
C657 C656 1.394 . S
C657 C658 1.516 . S
C658 C657 1.516 . S
C658 C659 1.502 . S
C658 C660 1.561 . S
C658 C661 1.526 . S
C659 H643 0.959 . S
C659 H644 0.964 . S
C659 H645 0.975 . S
C659 C658 1.502 . S
C660 H646 0.960 . S
C660 H647 0.961 . S
C660 H648 0.959 . S
C660 C658 1.561 . S
C661 C658 1.526 . S
C661 C662 1.396 . S
C661 C666 1.390 . S
C662 C656 1.465 . S
C662 C661 1.396 . S
C662 C663 1.399 . S
C663 H649 0.929 . S
C663 C662 1.399 . S
C663 C664 1.385 . S
C664 H650 0.931 . S
C664 C663 1.385 . S
C664 C665 1.389 . S
C665 C664 1.389 . S
C665 C666 1.387 . S
C666 H651 0.930 . S
C666 C661 1.390 . S
C666 C665 1.387 . S
H667 C679 0.930 . S
H668 C681 0.930 . S
H669 C682 0.930 . S
H670 C686 0.959 . S
H671 C686 0.959 . S
H672 C686 0.961 . S
H673 C687 0.960 . S
H674 C687 0.961 . S
H675 C687 0.959 . S
H676 C690 0.929 . S
H677 C691 0.931 . S
H678 C693 0.930 . S
C679 H667 0.930 . S
C679 C680 1.399 . S
C679 C684 1.399 . S
C680 C679 1.399 . S
C680 C681 1.376 . S
C681 H668 0.930 . S
C681 C680 1.376 . S
C681 C682 1.388 . S
C682 H669 0.930 . S
C682 C681 1.388 . S
C682 C683 1.390 . S
C683 C682 1.390 . S
C683 C684 1.394 . S
C683 C689 1.465 . S
C684 C679 1.399 . S
C684 C683 1.394 . S
C684 C685 1.516 . S
C685 C684 1.516 . S
C685 C686 1.502 . S
C685 C687 1.561 . S
C685 C688 1.526 . S
C686 H670 0.959 . S
C686 H671 0.959 . S
C686 H672 0.961 . S
C686 C685 1.502 . S
C687 H673 0.960 . S
C687 H674 0.961 . S
C687 H675 0.959 . S
C687 C685 1.561 . S
C688 C685 1.526 . S
C688 C689 1.396 . S
C688 C693 1.390 . S
C689 C683 1.465 . S
C689 C688 1.396 . S
C689 C690 1.399 . S
C690 H676 0.929 . S
C690 C689 1.399 . S
C690 C691 1.385 . S
C691 H677 0.931 . S
C691 C690 1.385 . S
C691 C692 1.389 . S
C692 C691 1.389 . S
C692 C693 1.387 . S
C693 H678 0.930 . S
C693 C688 1.390 . S
C693 C692 1.387 . S
H694 C706 0.930 . S
H695 C708 0.930 . S
H696 C709 0.930 . S
H697 C713 0.959 . S
H698 C713 0.959 . S
H699 C713 0.961 . S
H700 C714 0.960 . S
H701 C714 0.961 . S
H702 C714 0.959 . S
H703 C717 0.929 . S
H704 C718 0.931 . S
H705 C720 0.930 . S
C706 H694 0.930 . S
C706 C707 1.399 . S
C706 C711 1.399 . S
C707 C706 1.399 . S
C707 C708 1.376 . S
C708 H695 0.930 . S
C708 C707 1.376 . S
C708 C709 1.388 . S
C709 H696 0.930 . S
C709 C708 1.388 . S
C709 C710 1.390 . S
C710 C709 1.390 . S
C710 C711 1.394 . S
C710 C716 1.465 . S
C711 C706 1.399 . S
C711 C710 1.394 . S
C711 C712 1.516 . S
C712 C711 1.516 . S
C712 C713 1.502 . S
C712 C714 1.561 . S
C712 C715 1.526 . S
C713 H697 0.959 . S
C713 H698 0.959 . S
C713 H699 0.961 . S
C713 C712 1.502 . S
C714 H700 0.960 . S
C714 H701 0.961 . S
C714 H702 0.959 . S
C714 C712 1.561 . S
C715 C712 1.526 . S
C715 C716 1.396 . S
C715 C720 1.390 . S
C716 C710 1.465 . S
C716 C715 1.396 . S
C716 C717 1.399 . S
C717 H703 0.929 . S
C717 C716 1.399 . S
C717 C718 1.385 . S
C718 H704 0.931 . S
C718 C717 1.385 . S
C718 C719 1.389 . S
C719 C718 1.389 . S
C719 C720 1.387 . S
C720 H705 0.930 . S
C720 C715 1.390 . S
C720 C719 1.387 . S
H721 C733 0.930 . S
H722 C735 0.930 . S
H723 C736 0.930 . S
H724 C740 0.959 . S
H725 C740 0.959 . S
H726 C740 0.961 . S
H727 C741 0.960 . S
H728 C741 0.961 . S
H729 C741 0.959 . S
H730 C744 0.929 . S
H731 C745 0.931 . S
H732 C747 0.930 . S
C733 H721 0.930 . S
C733 C734 1.399 . S
C733 C738 1.399 . S
C734 C733 1.399 . S
C734 C735 1.376 . S
C735 H722 0.930 . S
C735 C734 1.376 . S
C735 C736 1.388 . S
C736 H723 0.930 . S
C736 C735 1.388 . S
C736 C737 1.390 . S
C737 C736 1.390 . S
C737 C738 1.394 . S
C737 C743 1.465 . S
C738 C733 1.399 . S
C738 C737 1.394 . S
C738 C739 1.516 . S
C739 C738 1.516 . S
C739 C740 1.502 . S
C739 C741 1.561 . S
C739 C742 1.526 . S
C740 H724 0.959 . S
C740 H725 0.959 . S
C740 H726 0.961 . S
C740 C739 1.502 . S
C741 H727 0.960 . S
C741 H728 0.961 . S
C741 H729 0.959 . S
C741 C739 1.561 . S
C742 C739 1.526 . S
C742 C743 1.396 . S
C742 C747 1.390 . S
C743 C737 1.465 . S
C743 C742 1.396 . S
C743 C744 1.399 . S
C744 H730 0.929 . S
C744 C743 1.399 . S
C744 C745 1.385 . S
C745 H731 0.931 . S
C745 C744 1.385 . S
C745 C746 1.389 . S
C746 C745 1.389 . S
C746 C747 1.387 . S
C747 H732 0.930 . S
C747 C742 1.390 . S
C747 C746 1.387 . S
H748 C760 0.930 . S
H749 C762 0.930 . S
H750 C763 0.930 . S
H751 C767 0.959 . S
H752 C767 0.959 . S
H753 C767 0.961 . S
H754 C768 0.960 . S
H755 C768 0.961 . S
H756 C768 0.959 . S
H757 C771 0.929 . S
H758 C772 0.931 . S
H759 C774 0.930 . S
C760 H748 0.930 . S
C760 C761 1.399 . S
C760 C765 1.399 . S
C761 C760 1.399 . S
C761 C762 1.376 . S
C762 H749 0.930 . S
C762 C761 1.376 . S
C762 C763 1.388 . S
C763 H750 0.930 . S
C763 C762 1.388 . S
C763 C764 1.390 . S
C764 C763 1.390 . S
C764 C765 1.394 . S
C764 C770 1.465 . S
C765 C760 1.399 . S
C765 C764 1.394 . S
C765 C766 1.516 . S
C766 C765 1.516 . S
C766 C767 1.502 . S
C766 C768 1.561 . S
C766 C769 1.526 . S
C767 H751 0.959 . S
C767 H752 0.959 . S
C767 H753 0.961 . S
C767 C766 1.502 . S
C768 H754 0.960 . S
C768 H755 0.961 . S
C768 H756 0.959 . S
C768 C766 1.561 . S
C769 C766 1.526 . S
C769 C770 1.396 . S
C769 C774 1.390 . S
C770 C764 1.465 . S
C770 C769 1.396 . S
C770 C771 1.399 . S
C771 H757 0.929 . S
C771 C770 1.399 . S
C771 C772 1.385 . S
C772 H758 0.931 . S
C772 C771 1.385 . S
C772 C773 1.389 . S
C773 C772 1.389 . S
C773 C774 1.387 . S
C774 H759 0.930 . S
C774 C769 1.390 . S
C774 C773 1.387 . S
H775 C787 0.930 . S
H776 C789 0.930 . S
H777 C790 0.930 . S
H778 C794 0.959 . S
H779 C794 0.959 . S
H780 C794 0.961 . S
H781 C795 0.960 . S
H782 C795 0.961 . S
H783 C795 0.959 . S
H784 C798 0.929 . S
H785 C799 0.931 . S
H786 C801 0.930 . S
C787 H775 0.930 . S
C787 C788 1.399 . S
C787 C792 1.399 . S
C788 C787 1.399 . S
C788 C789 1.376 . S
C789 H776 0.930 . S
C789 C788 1.376 . S
C789 C790 1.388 . S
C790 H777 0.930 . S
C790 C789 1.388 . S
C790 C791 1.390 . S
C791 C790 1.390 . S
C791 C792 1.394 . S
C791 C797 1.465 . S
C792 C787 1.399 . S
C792 C791 1.394 . S
C792 C793 1.516 . S
C793 C792 1.516 . S
C793 C794 1.502 . S
C793 C795 1.561 . S
C793 C796 1.526 . S
C794 H778 0.959 . S
C794 H779 0.959 . S
C794 H780 0.961 . S
C794 C793 1.502 . S
C795 H781 0.960 . S
C795 H782 0.961 . S
C795 H783 0.959 . S
C795 C793 1.561 . S
C796 C793 1.526 . S
C796 C797 1.396 . S
C796 C801 1.390 . S
C797 C791 1.465 . S
C797 C796 1.396 . S
C797 C798 1.399 . S
C798 H784 0.929 . S
C798 C797 1.399 . S
C798 C799 1.385 . S
C799 H785 0.931 . S
C799 C798 1.385 . S
C799 C800 1.389 . S
C800 C799 1.389 . S
C800 C801 1.387 . S
C801 H786 0.930 . S
C801 C796 1.390 . S
C801 C800 1.387 . S
H802 C814 0.930 . S
H803 C816 0.930 . S
H804 C817 0.930 . S
H805 C821 0.959 . S
H806 C821 0.959 . S
H807 C821 0.961 . S
H808 C822 0.960 . S
H809 C822 0.961 . S
H810 C822 0.959 . S
H811 C825 0.929 . S
H812 C826 0.931 . S
H813 C828 0.930 . S
C814 H802 0.930 . S
C814 C815 1.399 . S
C814 C819 1.399 . S
C815 C814 1.399 . S
C815 C816 1.376 . S
C816 H803 0.930 . S
C816 C815 1.376 . S
C816 C817 1.388 . S
C817 H804 0.930 . S
C817 C816 1.388 . S
C817 C818 1.390 . S
C818 C817 1.390 . S
C818 C819 1.394 . S
C818 C824 1.465 . S
C819 C814 1.399 . S
C819 C818 1.394 . S
C819 C820 1.516 . S
C820 C819 1.516 . S
C820 C821 1.502 . S
C820 C822 1.561 . S
C820 C823 1.526 . S
C821 H805 0.959 . S
C821 H806 0.959 . S
C821 H807 0.961 . S
C821 C820 1.502 . S
C822 H808 0.960 . S
C822 H809 0.961 . S
C822 H810 0.959 . S
C822 C820 1.561 . S
C823 C820 1.526 . S
C823 C824 1.396 . S
C823 C828 1.390 . S
C824 C818 1.465 . S
C824 C823 1.396 . S
C824 C825 1.399 . S
C825 H811 0.929 . S
C825 C824 1.399 . S
C825 C826 1.385 . S
C826 H812 0.931 . S
C826 C825 1.385 . S
C826 C827 1.389 . S
C827 C826 1.389 . S
C827 C828 1.387 . S
C828 H813 0.930 . S
C828 C823 1.390 . S
C828 C827 1.387 . S
H829 C841 0.930 . S
H830 C843 0.930 . S
H831 C844 0.930 . S
H832 C848 0.959 . S
H833 C848 0.959 . S
H834 C848 0.961 . S
H835 C849 0.960 . S
H836 C849 0.961 . S
H837 C849 0.959 . S
H838 C852 0.929 . S
H839 C853 0.931 . S
H840 C855 0.930 . S
C841 H829 0.930 . S
C841 C842 1.399 . S
C841 C846 1.399 . S
C842 C841 1.399 . S
C842 C843 1.376 . S
C843 H830 0.930 . S
C843 C842 1.376 . S
C843 C844 1.388 . S
C844 H831 0.930 . S
C844 C843 1.388 . S
C844 C845 1.390 . S
C845 C844 1.390 . S
C845 C846 1.394 . S
C845 C851 1.465 . S
C846 C841 1.399 . S
C846 C845 1.394 . S
C846 C847 1.516 . S
C847 C846 1.516 . S
C847 C848 1.502 . S
C847 C849 1.561 . S
C847 C850 1.526 . S
C848 H832 0.959 . S
C848 H833 0.959 . S
C848 H834 0.961 . S
C848 C847 1.502 . S
C849 H835 0.960 . S
C849 H836 0.961 . S
C849 H837 0.959 . S
C849 C847 1.561 . S
C850 C847 1.526 . S
C850 C851 1.396 . S
C850 C855 1.390 . S
C851 C845 1.465 . S
C851 C850 1.396 . S
C851 C852 1.399 . S
C852 H838 0.929 . S
C852 C851 1.399 . S
C852 C853 1.385 . S
C853 H839 0.931 . S
C853 C852 1.385 . S
C853 C854 1.389 . S
C854 C853 1.389 . S
C854 C855 1.387 . S
C855 H840 0.930 . S
C855 C850 1.390 . S
C855 C854 1.387 . S
H856 C868 0.930 . S
H857 C870 0.930 . S
H858 C871 0.930 . S
H859 C875 0.959 . S
H860 C875 0.959 . S
H861 C875 0.961 . S
H862 C876 0.960 . S
H863 C876 0.961 . S
H864 C876 0.959 . S
H865 C879 0.929 . S
H866 C880 0.931 . S
H867 C882 0.930 . S
C868 H856 0.930 . S
C868 C869 1.399 . S
C868 C873 1.399 . S
C869 C868 1.399 . S
C869 C870 1.376 . S
C870 H857 0.930 . S
C870 C869 1.376 . S
C870 C871 1.388 . S
C871 H858 0.930 . S
C871 C870 1.388 . S
C871 C872 1.390 1_545 S
C872 C871 1.390 1_565 S
C872 C873 1.394 1_565 S
C872 C878 1.465 . S
C873 C868 1.399 . S
C873 C872 1.394 1_545 S
C873 C874 1.516 1_545 S
C874 C873 1.516 1_565 S
C874 C875 1.502 . S
C874 C876 1.561 1_565 S
C874 C877 1.526 . S
C875 H859 0.959 . S
C875 H860 0.959 . S
C875 H861 0.961 . S
C875 C874 1.502 . S
C876 H862 0.960 . S
C876 H863 0.961 . S
C876 H864 0.959 . S
C876 C874 1.561 1_545 S
C877 C874 1.526 . S
C877 C878 1.396 . S
C877 C882 1.390 . S
C878 C872 1.465 . S
C878 C877 1.396 . S
C878 C879 1.399 . S
C879 H865 0.929 . S
C879 C878 1.399 . S
C879 C880 1.385 . S
C880 H866 0.931 . S
C880 C879 1.385 . S
C880 C881 1.389 . S
C881 C880 1.389 . S
C881 C882 1.387 . S
C882 H867 0.930 . S
C882 C877 1.390 . S
C882 C881 1.387 . S
H883 C895 0.930 . S
H884 C897 0.930 . S
H885 C898 0.930 . S
H886 C902 0.959 . S
H887 C902 0.959 . S
H888 C902 0.961 . S
H889 C903 0.960 . S
H890 C903 0.961 . S
H891 C903 0.959 . S
H892 C906 0.929 . S
H893 C907 0.931 . S
H894 C909 0.930 . S
C895 H883 0.930 . S
C895 C896 1.399 . S
C895 C900 1.399 . S
C896 C895 1.399 . S
C896 C897 1.376 . S
C897 H884 0.930 . S
C897 C896 1.376 . S
C897 C898 1.388 . S
C898 H885 0.930 . S
C898 C897 1.388 . S
C898 C899 1.390 . S
C899 C898 1.390 . S
C899 C900 1.394 . S
C899 C905 1.465 . S
C900 C895 1.399 . S
C900 C899 1.394 . S
C900 C901 1.516 . S
C901 C900 1.516 . S
C901 C902 1.502 . S
C901 C903 1.561 . S
C901 C904 1.526 . S
C902 H886 0.959 . S
C902 H887 0.959 . S
C902 H888 0.961 . S
C902 C901 1.502 . S
C903 H889 0.960 . S
C903 H890 0.961 . S
C903 H891 0.959 . S
C903 C901 1.561 . S
C904 C901 1.526 . S
C904 C905 1.396 . S
C904 C909 1.390 . S
C905 C899 1.465 . S
C905 C904 1.396 . S
C905 C906 1.399 . S
C906 H892 0.929 . S
C906 C905 1.399 . S
C906 C907 1.385 . S
C907 H893 0.931 . S
C907 C906 1.385 . S
C907 C908 1.389 . S
C908 C907 1.389 . S
C908 C909 1.387 . S
C909 H894 0.930 . S
C909 C904 1.390 . S
C909 C908 1.387 . S
H910 C922 0.930 . S
H911 C924 0.930 . S
H912 C925 0.930 . S
H913 C929 0.959 . S
H914 C929 0.959 . S
H915 C929 0.961 . S
H916 C930 0.960 1_455 S
H917 C930 0.961 . S
H918 C930 0.959 . S
H919 C933 0.929 . S
H920 C934 0.931 . S
H921 C936 0.930 . S
C922 H910 0.930 . S
C922 C923 1.399 . S
C922 C927 1.399 . S
C923 C922 1.399 . S
C923 C924 1.376 . S
C924 H911 0.930 . S
C924 C923 1.376 . S
C924 C925 1.388 . S
C925 H912 0.930 . S
C925 C924 1.388 . S
C925 C926 1.390 . S
C926 C925 1.390 . S
C926 C927 1.394 . S
C926 C932 1.465 1_455 S
C927 C922 1.399 . S
C927 C926 1.394 . S
C927 C928 1.516 . S
C928 C927 1.516 . S
C928 C929 1.502 . S
C928 C930 1.561 1_455 S
C928 C931 1.526 1_455 S
C929 H913 0.959 . S
C929 H914 0.959 . S
C929 H915 0.961 . S
C929 C928 1.502 . S
C930 H916 0.960 1_655 S
C930 H917 0.961 . S
C930 H918 0.959 . S
C930 C928 1.561 1_655 S
C931 C928 1.526 1_655 S
C931 C932 1.396 . S
C931 C936 1.390 . S
C932 C926 1.465 1_655 S
C932 C931 1.396 . S
C932 C933 1.399 . S
C933 H919 0.929 . S
C933 C932 1.399 . S
C933 C934 1.385 . S
C934 H920 0.931 . S
C934 C933 1.385 . S
C934 C935 1.389 . S
C935 C934 1.389 . S
C935 C936 1.387 . S
C936 H921 0.930 . S
C936 C931 1.390 . S
C936 C935 1.387 . S
H937 C949 0.930 . S
H938 C951 0.930 . S
H939 C952 0.930 . S
H940 C956 0.959 . S
H941 C956 0.959 . S
H942 C956 0.961 . S
H943 C957 0.960 . S
H944 C957 0.961 . S
H945 C957 0.959 . S
H946 C960 0.929 . S
H947 C961 0.931 . S
H948 C963 0.930 . S
C949 H937 0.930 . S
C949 C950 1.399 . S
C949 C954 1.399 . S
C950 C949 1.399 . S
C950 C951 1.376 . S
C951 H938 0.930 . S
C951 C950 1.376 . S
C951 C952 1.388 1_565 S
C952 H939 0.930 . S
C952 C951 1.388 1_545 S
C952 C953 1.390 . S
C953 C952 1.390 . S
C953 C954 1.394 1_545 S
C953 C959 1.465 . S
C954 C949 1.399 . S
C954 C953 1.394 1_565 S
C954 C955 1.516 1_565 S
C955 C954 1.516 1_545 S
C955 C956 1.502 1_645 S
C955 C957 1.561 . S
C955 C958 1.526 1_655 S
C956 H940 0.959 . S
C956 H941 0.959 . S
C956 H942 0.961 . S
C956 C955 1.502 1_465 S
C957 H943 0.960 . S
C957 H944 0.961 . S
C957 H945 0.959 . S
C957 C955 1.561 . S
C958 C955 1.526 1_455 S
C958 C959 1.396 1_455 S
C958 C963 1.390 . S
C959 C953 1.465 . S
C959 C958 1.396 1_655 S
C959 C960 1.399 . S
C960 H946 0.929 . S
C960 C959 1.399 . S
C960 C961 1.385 1_655 S
C961 H947 0.931 . S
C961 C960 1.385 1_455 S
C961 C962 1.389 . S
C962 C961 1.389 . S
C962 C963 1.387 . S
C963 H948 0.930 . S
C963 C958 1.390 . S
C963 C962 1.387 . S
H964 C976 0.930 . S
H965 C978 0.930 . S
H966 C979 0.930 . S
H967 C983 0.959 . S
H968 C983 0.959 . S
H969 C983 0.961 . S
H970 C984 0.960 . S
H971 C984 0.961 . S
H972 C984 0.959 . S
H973 C987 0.929 . S
H974 C988 0.931 . S
H975 C990 0.930 . S
C976 H964 0.930 . S
C976 C977 1.399 . S
C976 C981 1.399 . S
C977 C976 1.399 . S
C977 C978 1.376 . S
C978 H965 0.930 . S
C978 C977 1.376 . S
C978 C979 1.388 . S
C979 H966 0.930 . S
C979 C978 1.388 . S
C979 C980 1.390 . S
C980 C979 1.390 . S
C980 C981 1.394 . S
C980 C986 1.465 . S
C981 C976 1.399 . S
C981 C980 1.394 . S
C981 C982 1.516 . S
C982 C981 1.516 . S
C982 C983 1.502 . S
C982 C984 1.561 . S
C982 C985 1.526 . S
C983 H967 0.959 . S
C983 H968 0.959 . S
C983 H969 0.961 . S
C983 C982 1.502 . S
C984 H970 0.960 . S
C984 H971 0.961 . S
C984 H972 0.959 . S
C984 C982 1.561 . S
C985 C982 1.526 . S
C985 C986 1.396 . S
C985 C990 1.390 . S
C986 C980 1.465 . S
C986 C985 1.396 . S
C986 C987 1.399 . S
C987 H973 0.929 . S
C987 C986 1.399 . S
C987 C988 1.385 . S
C988 H974 0.931 . S
C988 C987 1.385 . S
C988 C989 1.389 . S
C989 C988 1.389 . S
C989 C990 1.387 . S
C990 H975 0.930 . S
C990 C985 1.390 . S
C990 C989 1.387 . S
H991 C1003 0.930 . S
H992 C1005 0.930 . S
H993 C1006 0.930 1_655 S
H994 C1010 0.959 . S
H995 C1010 0.959 1_655 S
H996 C1010 0.961 . S
H997 C1011 0.960 . S
H998 C1011 0.961 . S
H999 C1011 0.959 . S
H1000 C1014 0.929 . S
H1001 C1015 0.931 . S
H1002 C1017 0.930 . S
C1003 H991 0.930 . S
C1003 C1004 1.399 . S
C1003 C1008 1.399 . S
C1004 C1003 1.399 . S
C1004 C1005 1.376 . S
C1005 H992 0.930 . S
C1005 C1004 1.376 . S
C1005 C1006 1.388 . S
C1006 H993 0.930 1_455 S
C1006 C1005 1.388 . S
C1006 C1007 1.390 1_455 S
C1007 C1006 1.390 1_655 S
C1007 C1008 1.394 1_655 S
C1007 C1013 1.465 . S
C1008 C1003 1.399 . S
C1008 C1007 1.394 1_455 S
C1008 C1009 1.516 1_455 S
C1009 C1008 1.516 1_655 S
C1009 C1010 1.502 1_655 S
C1009 C1011 1.561 . S
C1009 C1012 1.526 . S
C1010 H994 0.959 . S
C1010 H995 0.959 1_455 S
C1010 H996 0.961 . S
C1010 C1009 1.502 1_455 S
C1011 H997 0.960 . S
C1011 H998 0.961 . S
C1011 H999 0.959 . S
C1011 C1009 1.561 . S
C1012 C1009 1.526 . S
C1012 C1013 1.396 . S
C1012 C1017 1.390 . S
C1013 C1007 1.465 . S
C1013 C1012 1.396 . S
C1013 C1014 1.399 . S
C1014 H1000 0.929 . S
C1014 C1013 1.399 . S
C1014 C1015 1.385 . S
C1015 H1001 0.931 . S
C1015 C1014 1.385 . S
C1015 C1016 1.389 . S
C1016 C1015 1.389 . S
C1016 C1017 1.387 . S
C1017 H1002 0.930 . S
C1017 C1012 1.390 . S
C1017 C1016 1.387 . S
H1018 C1030 0.930 . S
H1019 C1032 0.930 . S
H1020 C1033 0.930 . S
H1021 C1037 0.959 . S
H1022 C1037 0.959 . S
H1023 C1037 0.961 . S
H1024 C1038 0.960 . S
H1025 C1038 0.961 . S
H1026 C1038 0.959 . S
H1027 C1041 0.929 . S
H1028 C1042 0.931 . S
H1029 C1044 0.930 . S
C1030 H1018 0.930 . S
C1030 C1031 1.399 . S
C1030 C1035 1.399 1_655 S
C1031 C1030 1.399 . S
C1031 C1032 1.376 . S
C1032 H1019 0.930 . S
C1032 C1031 1.376 . S
C1032 C1033 1.388 . S
C1033 H1020 0.930 . S
C1033 C1032 1.388 . S
C1033 C1034 1.390 . S
C1034 C1033 1.390 . S
C1034 C1035 1.394 1_655 S
C1034 C1040 1.465 1_665 S
C1035 C1030 1.399 1_455 S
C1035 C1034 1.394 1_455 S
C1035 C1036 1.516 . S
C1036 C1035 1.516 . S
C1036 C1037 1.502 . S
C1036 C1038 1.561 . S
C1036 C1039 1.526 . S
C1037 H1021 0.959 . S
C1037 H1022 0.959 . S
C1037 H1023 0.961 . S
C1037 C1036 1.502 . S
C1038 H1024 0.960 . S
C1038 H1025 0.961 . S
C1038 H1026 0.959 . S
C1038 C1036 1.561 . S
C1039 C1036 1.526 . S
C1039 C1040 1.396 1_565 S
C1039 C1044 1.390 1_565 S
C1040 C1034 1.465 1_445 S
C1040 C1039 1.396 1_545 S
C1040 C1041 1.399 . S
C1041 H1027 0.929 . S
C1041 C1040 1.399 . S
C1041 C1042 1.385 . S
C1042 H1028 0.931 . S
C1042 C1041 1.385 . S
C1042 C1043 1.389 . S
C1043 C1042 1.389 . S
C1043 C1044 1.387 . S
C1044 H1029 0.930 . S
C1044 C1039 1.390 1_545 S
C1044 C1043 1.387 . S
H1045 C1057 0.930 . S
H1046 C1059 0.930 . S
H1047 C1060 0.930 . S
H1048 C1064 0.959 . S
H1049 C1064 0.959 . S
H1050 C1064 0.961 . S
H1051 C1065 0.960 . S
H1052 C1065 0.961 . S
H1053 C1065 0.959 . S
H1054 C1068 0.929 . S
H1055 C1069 0.931 . S
H1056 C1071 0.930 . S
C1057 H1045 0.930 . S
C1057 C1058 1.399 . S
C1057 C1062 1.399 . S
C1058 C1057 1.399 . S
C1058 C1059 1.376 . S
C1059 H1046 0.930 . S
C1059 C1058 1.376 . S
C1059 C1060 1.388 1_565 S
C1060 H1047 0.930 . S
C1060 C1059 1.388 1_545 S
C1060 C1061 1.390 . S
C1061 C1060 1.390 . S
C1061 C1062 1.394 1_545 S
C1061 C1067 1.465 . S
C1062 C1057 1.399 . S
C1062 C1061 1.394 1_565 S
C1062 C1063 1.516 1_565 S
C1063 C1062 1.516 1_545 S
C1063 C1064 1.502 1_545 S
C1063 C1065 1.561 . S
C1063 C1066 1.526 . S
C1064 H1048 0.959 . S
C1064 H1049 0.959 . S
C1064 H1050 0.961 . S
C1064 C1063 1.502 1_565 S
C1065 H1051 0.960 . S
C1065 H1052 0.961 . S
C1065 H1053 0.959 . S
C1065 C1063 1.561 . S
C1066 C1063 1.526 . S
C1066 C1067 1.396 . S
C1066 C1071 1.390 . S
C1067 C1061 1.465 . S
C1067 C1066 1.396 . S
C1067 C1068 1.399 . S
C1068 H1054 0.929 . S
C1068 C1067 1.399 . S
C1068 C1069 1.385 . S
C1069 H1055 0.931 . S
C1069 C1068 1.385 . S
C1069 C1070 1.389 . S
C1070 C1069 1.389 . S
C1070 C1071 1.387 . S
C1071 H1056 0.930 . S
C1071 C1066 1.390 . S
C1071 C1070 1.387 . S
C221 C95 1.467 . S
C233 C10 1.540 . S
C248 C56 1.496 . S
C260 C17 1.512 . S
C275 C75 1.540 . S
C287 C30 1.467 . S
C302 C49 1.541 . S
C314 C88 1.467 . S
C329 C205 1.530 . S
C341 C108 1.498 . S
C356 C166 1.541 . S
C368 C127 1.474 . S
C383 C140 1.540 . S
C395 C173 1.476 . S
C410 C153 1.530 . S
C422 C192 1.498 . S
C437 C29 1.215 . S
C449 C5 1.143 . S
C464 C16 1.175 . S
C476 C44 1.206 . S
C491 C55 1.218 . S
C503 C83 1.142 . S
C518 C94 1.164 . S
C530 C70 1.215 . S
C545 C107 1.144 . S
C557 C135 1.183 . S
C572 C122 1.223 . S
C584 C148 1.185 . S
C599 C187 1.233 . S
C611 C161 1.165 . S
C626 C172 1.135 . S
C638 C200 1.199 . S
C653 C81 1.328 . S
C665 C3 1.319 . S
C680 C18 1.348 . S
C692 C96 1.379 . S
C707 C31 1.316 . S
C719 C57 1.339 . S
C734 C42 1.357 . S
C746 C68 1.381 . S
C761 C109 1.348 . S
C773 C185 1.380 . S
C788 C120 1.382 . S
C800 C198 1.341 . S
C815 C133 1.343 . S
C827 C159 1.320 . S
C842 C146 1.375 . S
C854 C174 1.361 . S
C869 C4 1.308 . S
C881 C199 1.302 . S
C896 C160 1.299 . S
C908 C23 1.292 . S
C923 C36 1.313 . S
C935 C179 1.310 . S
C950 C186 1.284 . S
C962 C43 1.291 . S
C977 C121 1.298 . S
C989 C62 1.292 . S
C1004 C69 1.271 . S
C1016 C134 1.274 . S
C1031 C147 1.311 . S
C1043 C82 1.313 . S
C1058 C114 1.285 . S
C1070 C101 1.292 . S
