# Generated by pormake.
# Topology kag, (6)-cn, num edge types: 1
# Building blocks:
#     Node 0, Type 0, BuildingBlock: INOVEN_clean_sbu_0, # of connection points: 6
#     Node 1, Type 0, BuildingBlock: INOVEN_clean_sbu_0, # of connection points: 6
#     Node 2, Type 0, BuildingBlock: INOVEN_clean_sbu_0, # of connection points: 6
#     Edge 3, Type (0, 0), BuildingBlock: XUDNAN_clean_linker_2, # of connection points: 2
#     Edge 4, Type (0, 0), BuildingBlock: XUDNAN_clean_linker_2, # of connection points: 2
#     Edge 5, Type (0, 0), BuildingBlock: XUDNAN_clean_linker_2, # of connection points: 2
#     Edge 6, Type (0, 0), BuildingBlock: XUDNAN_clean_linker_2, # of connection points: 2
#     Edge 7, Type (0, 0), BuildingBlock: XUDNAN_clean_linker_2, # of connection points: 2
#     Edge 8, Type (0, 0), BuildingBlock: XUDNAN_clean_linker_2, # of connection points: 2
#     Edge 9, Type (0, 0), BuildingBlock: XUDNAN_clean_linker_2, # of connection points: 2
#     Edge 10, Type (0, 0), BuildingBlock: XUDNAN_clean_linker_2, # of connection points: 2
#     Edge 11, Type (0, 0), BuildingBlock: XUDNAN_clean_linker_2, # of connection points: 2
# Relax obj value: 0.073
# Max RMSD: 0.200
# Mean RMSD: 0.106
data_MOF--net-kag--node1-INOVEN_clean_sbu_0--edge1-XUDNAN_clean_linker_2
_symmetry_space_group_name_H-M    P1
_symmetry_Int_Tables_number       1
_symmetry_cell_setting            triclinic
loop_
_symmetry_equiv_pos_as_xyz
'x, y, z'
_cell_length_a     31.049076
_cell_length_b     41.982705
_cell_length_c     14.506849
_cell_angle_alpha  96.742156
_cell_angle_beta   92.109189
_cell_angle_gamma 95.944447
loop_
_atom_site_label
_atom_site_type_symbol
_atom_site_fract_x
_atom_site_fract_y
_atom_site_fract_z
_atom_type_partial_charge
Gd0 Gd 1.05315 0.4792 0.03103 0.0
Gd1 Gd 0.07547 0.55329 0.019 0.0
C2 C 0.97395 0.52465 0.02505 0.0
C3 C 1.02607 0.42299 0.07451 0.0
C4 C 0.99019 0.39747 0.04608 0.0
C5 C 0.98644 0.38064 0.956 0.0
C6 C 0.95992 0.3891 0.11099 0.0
C7 C 0.92368 0.34658 0.99758 0.0
C8 C 0.92688 0.36398 0.08693 0.0
C9 C 0.95354 0.35542 0.93209 0.0
C10 C 1.06008 0.49701 0.85641 0.0
C11 C 0.15273 0.50835 0.04495 0.0
C12 C 0.09663 0.60584 0.94817 0.0
C13 C 0.1318 0.63245 0.95748 0.0
C14 C 0.15034 0.64634 0.04464 0.0
C15 C 0.14768 0.64369 0.87674 0.0
C16 C 0.20023 0.68259 0.9695 0.0
C17 C 0.18161 0.66847 0.88258 0.0
C18 C 0.18416 0.67139 0.05059 0.0
C19 C 0.07977 0.54247 0.20154 0.0
O20 O 0.98595 0.4958 0.03545 0.0
O21 O 1.00227 0.54948 0.0119 0.0
O22 O 1.05595 0.42769 0.01459 0.0
O23 O 1.01557 0.44984 0.11907 0.0
O24 O 0.07 0.46948 0.87827 0.0
O25 O 1.04434 0.51181 0.92544 0.0
O26 O 0.14087 0.53391 1.00918 0.0
O27 O 0.12396 0.48668 0.07382 0.0
O28 O 0.07061 0.60422 0.01722 0.0
O29 O 0.10723 0.57767 0.91281 0.0
O30 O 0.08653 0.57071 0.17314 0.0
O31 O 0.07192 0.52202 0.13033 0.0
H32 H 1.00929 0.3865 0.9043 0.0
H33 H 0.96214 0.40175 0.18082 0.0
H34 H 0.90405 0.35802 0.13858 0.0
H35 H 0.95238 0.3422 0.86312 0.0
H36 H 0.13885 0.63779 0.10791 0.0
H37 H 0.13379 0.63322 0.80891 0.0
H38 H 0.1929 0.67689 0.819 0.0
H39 H 0.19813 0.68171 0.11841 0.0
Gd40 Gd 0.61684 0.01925 1.0099 0.0
Gd41 Gd 0.52192 1.00836 0.02684 0.0
C42 C 0.55933 0.08001 0.0199 0.0
C43 C 0.6947 0.0405 0.97327 0.0
C44 C 0.71521 0.07235 0.95685 0.0
C45 C 0.75794 0.08242 0.99022 0.0
C46 C 0.69152 0.09377 0.91395 0.0
C47 C 0.75284 0.13516 0.93912 0.0
C48 C 0.71019 0.12484 0.90484 0.0
C49 C 0.77665 0.11359 0.98149 0.0
C50 C 0.59142 1.0137 0.18448 0.0
C51 C 0.57941 0.94632 0.99772 0.0
C52 C 0.44648 0.98659 0.0756 0.0
C53 C 0.42193 0.95424 0.05875 0.0
C54 C 0.4157 0.93766 0.96853 0.0
C55 C 0.40743 0.93865 0.13411 0.0
C56 C 0.382 0.89004 0.02957 0.0
C57 C 0.38771 0.90684 0.11976 0.0
C58 C 0.39574 0.90602 0.95411 0.0
C59 C 0.54504 1.01167 0.85024 0.0
O60 O 0.59291 0.06677 0.98544 0.0
O61 O 0.52836 0.06262 0.05747 0.0
O62 O 0.68233 0.03855 0.05765 0.0
O63 O 0.66601 0.02594 0.9097 0.0
O64 O 0.62417 1.00089 0.1488 0.0
O65 O 0.57452 0.02984 0.12742 0.0
O66 O 0.54296 0.95756 0.0249 0.0
O67 O 0.61272 0.96587 0.97713 0.0
O68 O 0.45214 1.00227 1.00336 0.0
O69 O 0.48149 0.98879 0.13 0.0
O70 O 0.51067 0.02283 0.88342 0.0
O71 O 0.56408 0.99768 0.90958 0.0
H72 H 0.77661 0.06633 0.02422 0.0
H73 H 0.65835 0.08676 0.88887 0.0
H74 H 0.69086 0.14104 0.87303 0.0
H75 H 0.80976 0.12082 1.00779 0.0
H76 H 0.42686 0.94889 0.90895 0.0
H77 H 0.41232 0.95085 0.20438 0.0
H78 H 0.37801 0.89516 0.17957 0.0
H79 H 0.39118 0.89408 0.88358 0.0
Gd80 Gd 0.56218 0.54894 0.04029 0.0
Gd81 Gd 0.56154 0.4767 0.04287 0.0
C82 C 0.47133 0.50651 0.05017 0.0
C83 C 0.55733 0.60821 0.01371 0.0
C84 C 0.55444 0.64243 0.99986 0.0
C85 C 0.54864 0.6655 0.07566 0.0
C86 C 0.56126 0.65288 0.91256 0.0
C87 C 0.5602 0.70905 0.97876 0.0
C88 C 0.56406 0.68576 0.90212 0.0
C89 C 0.5514 0.69841 0.06521 0.0
C90 C 0.57873 0.53112 0.21046 0.0
C91 C 0.65436 0.52095 0.03833 0.0
C92 C 0.56369 0.41806 0.08262 0.0
C93 C 0.57099 0.38399 0.05462 0.0
C94 C 0.55245 0.36692 0.97102 0.0
C95 C 0.59085 0.36693 0.11904 0.0
C96 C 0.57109 0.31599 0.01962 0.0
C97 C 0.59099 0.33336 0.10178 0.0
C98 C 0.55246 0.33338 0.95383 0.0
C99 C 0.55523 0.49574 0.86911 0.0
O100 O 0.49075 0.53145 0.01483 0.0
O101 O 0.49436 0.48548 0.08415 0.0
O102 O 0.55223 0.5979 0.09467 0.0
O103 O 0.5635 0.58586 0.94593 0.0
O104 O 0.59772 0.55624 0.17881 0.0
O105 O 0.55034 0.51645 0.15117 0.0
O106 O 0.63441 0.49343 0.06018 0.0
O107 O 0.63216 0.54445 0.01612 0.0
O108 O 0.5303 0.42854 0.04321 0.0
O109 O 0.59667 0.44031 0.10123 0.0
O110 O 0.53807 0.46804 0.88889 0.0
O111 O 0.57743 0.50948 0.93886 0.0
H112 H 0.54346 0.65826 0.14399 0.0
H113 H 0.56577 0.63574 0.85273 0.0
H114 H 0.5701 0.69301 0.83413 0.0
H115 H 0.54855 0.71561 0.12585 0.0
H116 H 0.5364 0.3793 0.92041 0.0
H117 H 0.6049 0.37945 0.18454 0.0
H118 H 0.6063 0.32099 0.15339 0.0
H119 H 0.53632 0.32097 0.89025 0.0
H120 H 0.0842 0.46506 0.68906 0.0
H121 H 1.03435 0.55281 0.80833 0.0
H122 H 1.03339 0.57224 0.65494 0.0
H123 H 0.15252 0.50135 0.52335 0.0
H124 H 0.14062 0.46847 0.43134 0.0
H125 H 0.13824 0.46094 0.55091 0.0
H126 H 1.05923 0.43451 0.51899 0.0
H127 H 1.06133 0.44205 0.39935 0.0
H128 H 1.01937 0.45685 0.46994 0.0
H129 H 1.03976 0.58369 0.49306 0.0
H130 H 1.05048 0.58608 0.32714 0.0
H131 H 0.09205 0.48998 0.30076 0.0
C132 C 0.07317 0.48837 0.68261 0.0
C133 C 1.05994 0.50765 0.76164 0.0
C134 C 1.04528 0.53781 0.74981 0.0
C135 C 1.04442 0.54903 0.66257 0.0
C136 C 1.0577 0.52969 0.58647 0.0
C137 C 0.07153 0.49989 0.59481 0.0
C138 C 0.08345 0.48408 0.50012 0.0
C139 C 0.13157 0.47837 0.50154 0.0
C140 C 1.05409 0.45249 0.47036 0.0
C141 C 0.07444 0.50982 0.43796 0.0
C142 C 1.05982 0.53589 0.49026 0.0
C143 C 1.05081 0.56332 0.45125 0.0
C144 C 1.05711 0.56444 0.35661 0.0
C145 C 0.07178 0.53819 0.30037 0.0
C146 C 0.08017 0.51024 0.34155 0.0
H147 H 0.54961 0.97335 0.29576 0.0
H148 H 0.62476 0.06643 0.3002 0.0
H149 H 0.62354 0.07481 0.47204 0.0
H150 H 0.48033 0.99821 0.48239 0.0
H151 H 0.47801 0.96022 0.5294 0.0
H152 H 0.48533 0.96154 0.40724 0.0
H153 H 0.55508 0.93313 0.42066 0.0
H154 H 0.54826 0.93208 0.54312 0.0
H155 H 0.59811 0.95067 0.50382 0.0
H156 H 0.61729 0.07186 0.64285 0.0
H157 H 0.59888 0.06077 0.80106 0.0
H158 H 0.52351 0.97142 0.68807 0.0
C159 C 0.56543 0.99555 0.33336 0.0
C160 C 0.58723 0.01939 0.28569 0.0
C161 C 0.60775 0.0481 0.33617 0.0
C162 C 0.60739 0.05294 0.43352 0.0
C163 C 0.58602 0.02888 0.47903 0.0
C164 C 0.56481 1.00095 0.43073 0.0
C165 C 0.54324 0.97941 0.49675 0.0
C166 C 0.49379 0.97457 0.47781 0.0
C167 C 0.56232 0.9469 0.49069 0.0
C168 C 0.55569 0.99955 0.58962 0.0
C169 C 0.5809 0.02778 0.57762 0.0
C170 C 0.59721 0.05001 0.65288 0.0
C171 C 0.58666 0.0436 0.74251 0.0
C172 C 0.55972 0.01556 0.75632 0.0
C173 C 0.54432 0.99306 0.67903 0.0
H174 H 0.51731 0.46636 0.69822 0.0
H175 H 0.60915 0.54582 0.82579 0.0
H176 H 0.62555 0.56116 0.6721 0.0
H177 H 0.57833 0.44564 0.49509 0.0
H178 H 0.53171 0.43727 0.41483 0.0
H179 H 0.52632 0.43149 0.53522 0.0
H180 H 0.46584 0.46963 0.54773 0.0
H181 H 0.47084 0.47531 0.42722 0.0
H182 H 0.47632 0.50976 0.51521 0.0
H183 H 0.63506 0.56743 0.50905 0.0
H184 H 0.63203 0.56805 0.34031 0.0
H185 H 0.532 0.48658 0.30854 0.0
C186 C 0.5407 0.48702 0.69339 0.0
C187 C 0.56203 0.50483 0.77443 0.0
C188 C 0.59232 0.53179 0.76527 0.0
C189 C 0.60207 0.54067 0.678 0.0
C190 C 0.5811 0.52257 0.59973 0.0
C191 C 0.55066 0.49656 0.60581 0.0
C192 C 0.53247 0.48206 0.5091 0.0
C193 C 0.54283 0.44703 0.4873 0.0
C194 C 0.48345 0.48433 0.49926 0.0
C195 C 0.55751 0.50411 0.44862 0.0
C196 C 0.58566 0.52697 0.50322 0.0
C197 C 0.61293 0.54984 0.46539 0.0
C198 C 0.61096 0.54993 0.36915 0.0
C199 C 0.58156 0.52756 0.31099 0.0
C200 C 0.55472 0.50403 0.35125 0.0
H201 H 0.22459 0.54927 1.00786 0.0
H202 H 0.18707 0.45568 0.09825 0.0
H203 H 0.26363 0.4458 0.10856 0.0
H204 H 0.3117 0.52523 0.86743 0.0
H205 H 0.34686 0.56209 0.9001 0.0
H206 H 0.2889 0.56247 0.90023 0.0
H207 H 0.29542 0.58779 0.07231 0.0
H208 H 0.35343 0.58755 0.07273 0.0
H209 H 0.32282 0.56796 0.15737 0.0
H210 H 0.34336 0.44522 0.10878 0.0
H211 H 0.42249 0.45416 0.10015 0.0
H212 H 0.41096 0.54812 1.0097 0.0
C213 C 0.23248 0.52672 0.02992 0.0
C214 C 0.19947 0.50328 0.05227 0.0
C215 C 0.21143 0.47413 0.08099 0.0
C216 C 0.25496 0.46821 0.08699 0.0
C217 C 0.28654 0.49167 0.06444 0.0
C218 C 0.27607 0.5204 0.03674 0.0
C219 C 0.31678 0.54149 0.01708 0.0
C220 C 0.316 0.5482 0.91513 0.0
C221 C 0.32244 0.57307 0.08385 0.0
C222 C 0.35156 0.51988 0.03707 0.0
C223 C 0.33316 0.49134 0.06461 0.0
C224 C 0.35819 0.46749 0.08746 0.0
C225 C 0.40327 0.47287 0.08239 0.0
C226 C 0.42326 0.50187 0.05437 0.0
C227 C 0.39682 0.52566 0.03118 0.0
H228 H 0.8004 0.17674 0.07351 0.0
H229 H 0.74894 0.16865 0.78855 0.0
H230 H 0.78254 0.22388 0.77589 0.0
H231 H 0.78795 0.26233 0.13282 0.0
H232 H 0.8376 0.26995 0.20398 0.0
H233 H 0.80686 0.23073 0.19258 0.0
H234 H 0.87459 0.20419 0.13649 0.0
H235 H 0.90552 0.24325 0.1481 0.0
H236 H 0.90203 0.21776 0.03846 0.0
H237 H 0.82549 0.27859 0.79161 0.0
H238 H 0.87505 0.32856 0.83415 0.0
H239 H 0.89922 0.29988 0.10768 0.0
C240 C 0.7962 0.18659 1.00845 0.0
C241 C 0.77217 0.16846 0.93192 0.0
C242 C 0.76692 0.1823 0.84829 0.0
C243 C 0.7859 0.21359 0.84043 0.0
C244 C 0.80966 0.23074 0.91708 0.0
C245 C 0.81473 0.21777 0.99958 0.0
C246 C 0.84309 0.24071 0.0705 0.0
C247 C 0.81733 0.25157 0.15495 0.0
C248 C 0.88371 0.22557 0.10005 0.0
C249 C 0.85436 0.26819 0.01399 0.0
C250 C 0.83436 0.26219 0.9261 0.0
C251 C 0.84113 0.28366 0.86044 0.0
C252 C 0.86952 0.31185 0.88502 0.0
C253 C 0.89096 0.31816 0.97427 0.0
C254 C 0.88273 0.29611 0.03959 0.0
H255 H 0.52741 0.89789 0.06735 0.0
H256 H 0.63882 0.91474 0.90008 0.0
H257 H 0.64501 0.85642 0.87672 0.0
H258 H 0.56951 0.83404 0.18113 0.0
H259 H 0.51736 0.81089 0.1827 0.0
H260 H 0.52091 0.85412 0.1859 0.0
H261 H 0.46844 0.84788 0.04083 0.0
H262 H 0.4645 0.80463 0.03728 0.0
H263 H 0.48091 0.82334 0.93664 0.0
H264 H 0.63914 0.79661 0.86877 0.0
H265 H 0.62338 0.7387 0.88221 0.0
H266 H 0.51649 0.75927 0.05666 0.0
C267 C 0.55304 0.88927 0.02571 0.0
C268 C 0.58258 0.91101 0.98538 0.0
C269 C 0.61587 0.89871 0.932 0.0
C270 C 0.61963 0.86555 0.91807 0.0
C271 C 0.59015 0.84481 0.95865 0.0
C272 C 0.5577 0.85609 0.01203 0.0
C273 C 0.53099 0.82842 0.04932 0.0
C274 C 0.53495 0.8321 0.1561 0.0
C275 C 0.48338 0.82592 0.01387 0.0
C276 C 0.55314 0.79989 1.00724 0.0
C277 C 0.58715 0.81002 0.95518 0.0
C278 C 0.61251 0.78835 0.90915 0.0
C279 C 0.60304 0.7554 0.91661 0.0
C280 C 0.56844 0.74421 0.96976 0.0
C281 C 0.54326 0.76696 0.01579 0.0
H282 H 0.90337 0.48015 0.048 0.0
H283 H 0.93755 0.57981 1.00105 0.0
H284 H 0.86056 0.58862 1.00028 0.0
H285 H 0.80422 0.467 0.9017 0.0
H286 H 0.77478 0.44243 0.97737 0.0
H287 H 0.83286 0.44333 0.97441 0.0
H288 H 0.84011 0.46019 0.1521 0.0
H289 H 0.78207 0.45939 0.15572 0.0
H290 H 0.81652 0.49545 0.20121 0.0
H291 H 0.78114 0.58751 1.00435 0.0
H292 H 0.70248 0.5768 0.01255 0.0
H293 H 0.71612 0.47768 0.05757 0.0
C294 C 0.89468 0.50383 0.03752 0.0
C295 C 0.92693 0.5293 0.0246 0.0
C296 C 0.91387 0.55986 0.01114 0.0
C297 C 0.87006 0.56516 0.01057 0.0
C298 C 0.83928 0.53971 0.02357 0.0
C299 C 0.85077 0.50962 0.03676 0.0
C300 C 0.81065 0.4866 0.04906 0.0
C301 C 0.80532 0.45816 0.97098 0.0
C302 C 0.81246 0.47471 0.14526 0.0
C303 C 0.77499 0.5086 0.04103 0.0
C304 C 0.7926 0.53907 0.02616 0.0
C305 C 0.76693 0.56376 0.01594 0.0
C306 C 0.72202 0.5573 0.02071 0.0
C307 C 0.7026 0.52632 0.03572 0.0
C308 C 0.72973 0.50163 0.04631 0.0
H309 H 0.20859 0.73987 0.08434 0.0
H310 H 0.2716 0.68563 0.86489 0.0
H311 H 0.32759 0.73182 0.86328 0.0
H312 H 0.22321 0.81428 0.99782 0.0
H313 H 0.23336 0.83831 0.10936 0.0
H314 H 0.20067 0.79999 0.10013 0.0
H315 H 0.25152 0.78091 0.22327 0.0
H316 H 0.28428 0.81931 0.23335 0.0
H317 H 0.30885 0.78252 0.2058 0.0
H318 H 0.37288 0.78497 0.8763 0.0
H319 H 0.40581 0.84134 0.90538 0.0
H320 H 0.31363 0.8613 0.11702 0.0
C321 C 0.23475 0.73748 0.03751 0.0
C322 C 0.23584 0.70922 0.97471 0.0
C323 C 0.27003 0.70721 0.913 0.0
C324 C 0.30207 0.73321 0.91196 0.0
C325 C 0.29954 0.76099 0.97334 0.0
C326 C 0.26696 0.76327 0.0354 0.0
C327 C 0.27038 0.79652 0.09025 0.0
C328 C 0.22948 0.81325 0.07332 0.0
C329 C 0.2793 0.79469 0.19435 0.0
C330 C 0.30936 0.81278 0.04777 0.0
C331 C 0.32585 0.79177 0.98099 0.0
C332 C 0.36052 0.80157 0.92908 0.0
C333 C 0.37882 0.83375 0.94572 0.0
C334 C 0.36259 0.85582 0.01398 0.0
C335 C 0.32744 0.84497 0.06576 0.0
H336 H 0.55877 0.27157 0.14662 0.0
H337 H 0.57899 0.27835 0.85445 0.0
H338 H 0.57286 0.21912 0.82389 0.0
H339 H 0.62211 0.20466 0.16339 0.0
H340 H 0.58696 0.18594 0.24241 0.0
H341 H 0.59139 0.22902 0.24155 0.0
H342 H 0.50815 0.226 0.21331 0.0
H343 H 0.50351 0.18284 0.21321 0.0
H344 H 0.48199 0.1999 0.11519 0.0
H345 H 0.56606 0.15975 0.82368 0.0
H346 H 0.56244 0.10326 0.85511 0.0
H347 H 0.54817 0.13297 0.14767 0.0
C348 C 0.56226 0.26066 0.07627 0.0
C349 C 0.56899 0.27994 1.00278 0.0
C350 C 0.57295 0.2644 0.91174 0.0
C351 C 0.5697 0.23066 0.89366 0.0
C352 C 0.56263 0.21253 0.96722 0.0
C353 C 0.55923 0.22686 0.05688 0.0
C354 C 0.55284 0.20148 0.12346 0.0
C355 C 0.59058 0.20552 0.19705 0.0
C356 C 0.50901 0.20263 0.16897 0.0
C357 C 0.55336 0.17067 0.05708 0.0
C358 C 0.5589 0.17783 0.96729 0.0
C359 C 0.56169 0.15387 0.89363 0.0
C360 C 0.55975 0.12181 0.91221 0.0
C361 C 0.55501 0.11372 1.00351 0.0
C362 C 0.55104 0.13845 0.07691 0.0
loop_
_geom_bond_atom_site_label_1
_geom_bond_atom_site_label_2
_geom_bond_distance
_geom_bond_site_symmetry_2
_ccdc_geom_bond_type
Gd0 C3 2.818 . S
Gd0 O20 2.377 . S
Gd0 O22 2.448 . S
Gd0 O23 2.506 1_556 S
Gd0 O24 2.435 . S
Gd0 O25 2.717 1_655 S
Gd0 O27 2.395 1_655 S
Gd0 O31 2.327 1_556 S
Gd1 C12 2.818 . S
Gd1 O21 2.395 1_455 S
Gd1 O25 2.327 1_554 S
Gd1 O26 2.377 . S
Gd1 O28 2.448 . S
Gd1 O29 2.506 1_554 S
Gd1 O30 2.435 . S
Gd1 O31 2.717 1_455 S
C2 O20 1.242 . S
C2 O21 1.239 1_556 S
C3 Gd0 2.818 . S
C3 C4 1.510 . S
C3 O22 1.249 . S
C3 O23 1.252 1_556 S
C4 C3 1.510 . S
C4 C5 1.404 . S
C4 C6 1.352 1_556 S
C5 C4 1.404 . S
C5 C9 1.389 . S
C5 H32 0.930 . S
C6 C4 1.352 1_554 S
C6 C8 1.374 . S
C6 H33 0.931 . S
C7 C8 1.355 1_556 S
C7 C9 1.368 . S
C8 C6 1.374 . S
C8 C7 1.355 1_554 S
C8 H34 0.931 . S
C9 C5 1.389 . S
C9 C7 1.368 . S
C9 H35 0.931 . S
C10 O24 1.256 1_455 S
C10 O25 1.257 . S
C11 O26 1.245 . S
C11 O27 1.238 1_554 S
C12 Gd1 2.818 . S
C12 C13 1.510 . S
C12 O28 1.249 . S
C12 O29 1.252 1_554 S
C13 C12 1.510 . S
C13 C14 1.404 . S
C13 C15 1.352 1_554 S
C14 C13 1.404 . S
C14 C18 1.389 . S
C14 H36 0.930 . S
C15 C13 1.352 1_556 S
C15 C17 1.374 . S
C15 H37 0.931 . S
C16 C17 1.350 1_554 S
C16 C18 1.375 . S
C17 C15 1.374 . S
C17 C16 1.350 1_556 S
C17 H38 0.931 . S
C18 C14 1.389 . S
C18 C16 1.375 . S
C18 H39 0.931 . S
C19 O30 1.256 . S
C19 O31 1.257 1_455 S
O20 Gd0 2.377 . S
O20 C2 1.242 . S
O21 Gd1 2.395 1_655 S
O21 C2 1.239 1_554 S
O22 Gd0 2.448 . S
O22 C3 1.249 . S
O23 Gd0 2.506 1_554 S
O23 C3 1.252 1_554 S
O24 Gd0 2.435 . S
O24 C10 1.256 1_655 S
O25 Gd0 2.717 1_455 S
O25 Gd1 2.327 1_556 S
O25 C10 1.257 . S
O26 Gd1 2.377 . S
O26 C11 1.245 . S
O27 Gd0 2.395 1_455 S
O27 C11 1.238 1_556 S
O28 Gd1 2.448 . S
O28 C12 1.249 . S
O29 Gd1 2.506 1_556 S
O29 C12 1.252 1_556 S
O30 Gd1 2.435 . S
O30 C19 1.256 . S
O31 Gd0 2.327 1_554 S
O31 Gd1 2.717 1_655 S
O31 C19 1.257 1_655 S
H32 C5 0.930 . S
H33 C6 0.931 . S
H34 C8 0.931 . S
H35 C9 0.931 . S
H36 C14 0.930 . S
H37 C15 0.931 . S
H38 C17 0.931 . S
H39 C18 0.931 . S
Gd40 C43 2.818 . S
Gd40 O60 2.377 . S
Gd40 O62 2.448 . S
Gd40 O63 2.506 1_554 S
Gd40 O64 2.435 . S
Gd40 O65 2.717 1_545 S
Gd40 O67 2.395 1_545 S
Gd40 O71 2.327 1_554 S
Gd41 C52 2.818 . S
Gd41 O61 2.395 1_565 S
Gd41 O65 2.327 1_556 S
Gd41 O66 2.377 . S
Gd41 O68 2.448 . S
Gd41 O69 2.506 1_556 S
Gd41 O70 2.435 . S
Gd41 O71 2.717 1_565 S
C42 O60 1.240 . S
C42 O61 1.240 1_554 S
C43 Gd40 2.818 . S
C43 C44 1.510 1_554 S
C43 O62 1.249 . S
C43 O63 1.252 1_554 S
C44 C43 1.510 1_556 S
C44 C45 1.404 1_556 S
C44 C46 1.352 . S
C45 C44 1.404 1_554 S
C45 C49 1.389 . S
C45 H72 0.930 . S
C46 C44 1.352 . S
C46 C48 1.374 . S
C46 H73 0.931 . S
C47 C48 1.359 . S
C47 C49 1.364 1_556 S
C48 C46 1.374 . S
C48 C47 1.359 . S
C48 H74 0.931 . S
C49 C45 1.389 . S
C49 C47 1.364 1_554 S
C49 H75 0.931 . S
C50 O64 1.256 . S
C50 O65 1.257 1_545 S
C51 O66 1.240 . S
C51 O67 1.240 1_556 S
C52 Gd41 2.818 . S
C52 C53 1.510 1_556 S
C52 O68 1.249 . S
C52 O69 1.252 1_556 S
C53 C52 1.510 1_554 S
C53 C54 1.404 1_554 S
C53 C55 1.352 . S
C54 C53 1.404 1_556 S
C54 C58 1.389 . S
C54 H76 0.930 . S
C55 C53 1.352 . S
C55 C57 1.374 . S
C55 H77 0.931 . S
C56 C57 1.359 . S
C56 C58 1.364 1_554 S
C57 C55 1.374 . S
C57 C56 1.359 . S
C57 H78 0.931 . S
C58 C54 1.389 . S
C58 C56 1.364 1_556 S
C58 H79 0.931 . S
C59 O70 1.256 . S
C59 O71 1.257 1_565 S
O60 Gd40 2.377 . S
O60 C42 1.240 . S
O61 Gd41 2.395 1_545 S
O61 C42 1.240 1_556 S
O62 Gd40 2.448 . S
O62 C43 1.249 . S
O63 Gd40 2.506 1_556 S
O63 C43 1.252 1_556 S
O64 Gd40 2.435 . S
O64 C50 1.256 . S
O65 Gd40 2.717 1_565 S
O65 Gd41 2.327 1_554 S
O65 C50 1.257 1_565 S
O66 Gd41 2.377 . S
O66 C51 1.240 . S
O67 Gd40 2.395 1_565 S
O67 C51 1.240 1_554 S
O68 Gd41 2.448 . S
O68 C52 1.249 . S
O69 Gd41 2.506 1_554 S
O69 C52 1.252 1_554 S
O70 Gd41 2.435 . S
O70 C59 1.256 . S
O71 Gd40 2.327 1_556 S
O71 Gd41 2.717 1_545 S
O71 C59 1.257 1_545 S
H72 C45 0.930 . S
H73 C46 0.931 . S
H74 C48 0.931 . S
H75 C49 0.931 . S
H76 C54 0.930 . S
H77 C55 0.931 . S
H78 C57 0.931 . S
H79 C58 0.931 . S
Gd80 C83 2.818 . S
Gd80 O100 2.377 . S
Gd80 O102 2.448 . S
Gd80 O103 2.506 1_554 S
Gd80 O104 2.435 . S
Gd80 O105 2.717 . S
Gd80 O107 2.395 . S
Gd80 O111 2.327 1_554 S
Gd81 C92 2.818 . S
Gd81 O101 2.395 . S
Gd81 O105 2.327 1_556 S
Gd81 O106 2.377 . S
Gd81 O108 2.448 . S
Gd81 O109 2.506 1_556 S
Gd81 O110 2.435 . S
Gd81 O111 2.717 . S
C82 O100 1.239 1_556 S
C82 O101 1.241 . S
C83 Gd80 2.818 . S
C83 C84 1.510 . S
C83 O102 1.249 . S
C83 O103 1.252 1_554 S
C84 C83 1.510 . S
C84 C85 1.404 . S
C84 C86 1.352 1_554 S
C85 C84 1.404 . S
C85 C89 1.389 . S
C85 H112 0.930 . S
C86 C84 1.352 1_556 S
C86 C88 1.374 . S
C86 H113 0.931 . S
C87 C88 1.359 . S
C87 C89 1.364 1_556 S
C88 C86 1.374 . S
C88 C87 1.359 . S
C88 H114 0.931 . S
C89 C85 1.389 . S
C89 C87 1.364 1_554 S
C89 H115 0.931 . S
C90 O104 1.256 . S
C90 O105 1.257 . S
C91 O106 1.240 1_554 S
C91 O107 1.240 . S
C92 Gd81 2.818 . S
C92 C93 1.510 . S
C92 O108 1.249 . S
C92 O109 1.252 1_556 S
C93 C92 1.510 . S
C93 C94 1.404 . S
C93 C95 1.352 1_556 S
C94 C93 1.404 . S
C94 C98 1.389 . S
C94 H116 0.930 . S
C95 C93 1.352 1_554 S
C95 C97 1.374 . S
C95 H117 0.931 . S
C96 C97 1.359 . S
C96 C98 1.364 1_554 S
C97 C95 1.374 . S
C97 C96 1.359 . S
C97 H118 0.931 . S
C98 C94 1.389 . S
C98 C96 1.364 1_556 S
C98 H119 0.931 . S
C99 O110 1.256 . S
C99 O111 1.257 . S
O100 Gd80 2.377 . S
O100 C82 1.239 1_554 S
O101 Gd81 2.395 . S
O101 C82 1.241 . S
O102 Gd80 2.448 . S
O102 C83 1.249 . S
O103 Gd80 2.506 1_556 S
O103 C83 1.252 1_556 S
O104 Gd80 2.435 . S
O104 C90 1.256 . S
O105 Gd80 2.717 . S
O105 Gd81 2.327 1_554 S
O105 C90 1.257 . S
O106 Gd81 2.377 . S
O106 C91 1.240 1_556 S
O107 Gd80 2.395 . S
O107 C91 1.240 . S
O108 Gd81 2.448 . S
O108 C92 1.249 . S
O109 Gd81 2.506 1_554 S
O109 C92 1.252 1_554 S
O110 Gd81 2.435 . S
O110 C99 1.256 . S
O111 Gd80 2.327 1_556 S
O111 Gd81 2.717 . S
O111 C99 1.257 . S
H112 C85 0.930 . S
H113 C86 0.931 . S
H114 C88 0.931 . S
H115 C89 0.931 . S
H116 C94 0.930 . S
H117 C95 0.931 . S
H118 C97 0.931 . S
H119 C98 0.931 . S
H120 C132 0.933 . S
H121 C134 0.930 . S
H122 C135 0.930 . S
H123 C139 0.959 . S
H124 C139 0.959 . S
H125 C139 0.961 . S
H126 C140 0.960 . S
H127 C140 0.961 . S
H128 C140 0.959 . S
H129 C143 0.930 . S
H130 C144 0.931 . S
H131 C146 0.930 . S
C132 H120 0.933 . S
C132 C133 1.398 . S
C132 C137 1.398 1_455 S
C133 C132 1.398 . S
C133 C134 1.376 . S
C134 H121 0.930 . S
C134 C133 1.376 . S
C134 C135 1.388 . S
C135 H122 0.930 . S
C135 C134 1.388 . S
C135 C136 1.390 1_455 S
C136 C135 1.390 1_655 S
C136 C137 1.394 . S
C136 C142 1.465 . S
C137 C132 1.398 1_655 S
C137 C136 1.394 . S
C137 C138 1.516 . S
C138 C137 1.516 . S
C138 C139 1.502 1_655 S
C138 C140 1.561 . S
C138 C141 1.526 . S
C139 H123 0.959 . S
C139 H124 0.959 . S
C139 H125 0.961 . S
C139 C138 1.502 1_455 S
C140 H126 0.960 . S
C140 H127 0.961 . S
C140 H128 0.959 . S
C140 C138 1.561 . S
C141 C138 1.526 . S
C141 C142 1.396 . S
C141 C146 1.390 . S
C142 C136 1.465 . S
C142 C141 1.396 . S
C142 C143 1.397 . S
C143 H129 0.930 . S
C143 C142 1.397 . S
C143 C144 1.384 1_655 S
C144 H130 0.931 . S
C144 C143 1.384 1_455 S
C144 C145 1.393 1_455 S
C145 C144 1.393 1_655 S
C145 C146 1.385 . S
C146 H131 0.930 . S
C146 C141 1.390 . S
C146 C145 1.385 . S
H147 C159 0.930 . S
H148 C161 0.930 . S
H149 C162 0.930 . S
H150 C166 0.959 . S
H151 C166 0.959 . S
H152 C166 0.961 . S
H153 C167 0.960 . S
H154 C167 0.961 . S
H155 C167 0.959 . S
H156 C170 0.929 . S
H157 C171 0.931 . S
H158 C173 0.930 . S
C159 H147 0.930 . S
C159 C160 1.399 1_565 S
C159 C164 1.399 . S
C160 C159 1.399 1_545 S
C160 C161 1.376 . S
C161 H148 0.930 . S
C161 C160 1.376 . S
C161 C162 1.388 . S
C162 H149 0.930 . S
C162 C161 1.388 . S
C162 C163 1.390 . S
C163 C162 1.390 . S
C163 C164 1.394 1_545 S
C163 C169 1.465 . S
C164 C159 1.399 . S
C164 C163 1.394 1_565 S
C164 C165 1.516 . S
C165 C164 1.516 . S
C165 C166 1.502 . S
C165 C167 1.561 . S
C165 C168 1.526 . S
C166 H150 0.959 . S
C166 H151 0.959 . S
C166 H152 0.961 . S
C166 C165 1.502 . S
C167 H153 0.960 . S
C167 H154 0.961 . S
C167 H155 0.959 . S
C167 C165 1.561 . S
C168 C165 1.526 . S
C168 C169 1.396 1_565 S
C168 C173 1.390 . S
C169 C163 1.465 . S
C169 C168 1.396 1_545 S
C169 C170 1.399 . S
C170 H156 0.929 . S
C170 C169 1.399 . S
C170 C171 1.385 . S
C171 H157 0.931 . S
C171 C170 1.385 . S
C171 C172 1.389 . S
C172 C171 1.389 . S
C172 C173 1.387 1_545 S
C173 H158 0.930 . S
C173 C168 1.390 . S
C173 C172 1.387 1_565 S
H174 C186 0.930 . S
H175 C188 0.930 . S
H176 C189 0.930 . S
H177 C193 0.959 . S
H178 C193 0.959 . S
H179 C193 0.961 . S
H180 C194 0.960 . S
H181 C194 0.961 . S
H182 C194 0.959 . S
H183 C197 0.929 . S
H184 C198 0.931 . S
H185 C200 0.930 . S
C186 H174 0.930 . S
C186 C187 1.399 . S
C186 C191 1.399 . S
C187 C186 1.399 . S
C187 C188 1.376 . S
C188 H175 0.930 . S
C188 C187 1.376 . S
C188 C189 1.388 . S
C189 H176 0.930 . S
C189 C188 1.388 . S
C189 C190 1.390 . S
C190 C189 1.390 . S
C190 C191 1.394 . S
C190 C196 1.465 . S
C191 C186 1.399 . S
C191 C190 1.394 . S
C191 C192 1.516 . S
C192 C191 1.516 . S
C192 C193 1.502 . S
C192 C194 1.561 . S
C192 C195 1.526 . S
C193 H177 0.959 . S
C193 H178 0.959 . S
C193 H179 0.961 . S
C193 C192 1.502 . S
C194 H180 0.960 . S
C194 H181 0.961 . S
C194 H182 0.959 . S
C194 C192 1.561 . S
C195 C192 1.526 . S
C195 C196 1.396 . S
C195 C200 1.390 . S
C196 C190 1.465 . S
C196 C195 1.396 . S
C196 C197 1.399 . S
C197 H183 0.929 . S
C197 C196 1.399 . S
C197 C198 1.385 . S
C198 H184 0.931 . S
C198 C197 1.385 . S
C198 C199 1.389 . S
C199 C198 1.389 . S
C199 C200 1.387 . S
C200 H185 0.930 . S
C200 C195 1.390 . S
C200 C199 1.387 . S
H201 C213 0.930 . S
H202 C215 0.930 . S
H203 C216 0.930 . S
H204 C220 0.959 . S
H205 C220 0.959 . S
H206 C220 0.961 . S
H207 C221 0.960 . S
H208 C221 0.961 . S
H209 C221 0.959 . S
H210 C224 0.929 . S
H211 C225 0.931 . S
H212 C227 0.930 . S
C213 H201 0.930 . S
C213 C214 1.399 1_554 S
C213 C218 1.399 . S
C214 C213 1.399 1_556 S
C214 C215 1.376 . S
C215 H202 0.930 . S
C215 C214 1.376 . S
C215 C216 1.388 . S
C216 H203 0.930 . S
C216 C215 1.388 . S
C216 C217 1.390 . S
C217 C216 1.390 . S
C217 C218 1.394 1_556 S
C217 C223 1.465 . S
C218 C213 1.399 . S
C218 C217 1.394 1_554 S
C218 C219 1.516 . S
C219 C218 1.516 . S
C219 C220 1.502 . S
C219 C221 1.561 . S
C219 C222 1.526 . S
C220 H204 0.959 . S
C220 H205 0.959 . S
C220 H206 0.961 . S
C220 C219 1.502 . S
C221 H207 0.960 . S
C221 H208 0.961 . S
C221 H209 0.959 . S
C221 C219 1.561 . S
C222 C219 1.526 . S
C222 C223 1.396 1_554 S
C222 C227 1.390 . S
C223 C217 1.465 . S
C223 C222 1.396 1_556 S
C223 C224 1.399 . S
C224 H210 0.929 . S
C224 C223 1.399 . S
C224 C225 1.385 . S
C225 H211 0.931 . S
C225 C224 1.385 . S
C225 C226 1.389 . S
C226 C225 1.389 . S
C226 C227 1.387 1_556 S
C227 H212 0.930 . S
C227 C222 1.390 . S
C227 C226 1.387 1_554 S
H228 C240 0.930 . S
H229 C242 0.930 . S
H230 C243 0.930 . S
H231 C247 0.959 . S
H232 C247 0.959 . S
H233 C247 0.961 . S
H234 C248 0.960 . S
H235 C248 0.961 . S
H236 C248 0.959 . S
H237 C251 0.929 . S
H238 C252 0.931 . S
H239 C254 0.930 . S
C240 H228 0.930 . S
C240 C241 1.399 1_554 S
C240 C245 1.399 . S
C241 C240 1.399 1_556 S
C241 C242 1.376 . S
C242 H229 0.930 . S
C242 C241 1.376 . S
C242 C243 1.388 . S
C243 H230 0.930 . S
C243 C242 1.388 . S
C243 C244 1.390 . S
C244 C243 1.390 . S
C244 C245 1.394 1_556 S
C244 C250 1.465 . S
C245 C240 1.399 . S
C245 C244 1.394 1_554 S
C245 C246 1.516 . S
C246 C245 1.516 . S
C246 C247 1.502 . S
C246 C248 1.561 . S
C246 C249 1.526 . S
C247 H231 0.959 . S
C247 H232 0.959 . S
C247 H233 0.961 . S
C247 C246 1.502 . S
C248 H234 0.960 . S
C248 H235 0.961 . S
C248 H236 0.959 . S
C248 C246 1.561 . S
C249 C246 1.526 . S
C249 C250 1.396 1_554 S
C249 C254 1.390 . S
C250 C244 1.465 . S
C250 C249 1.396 1_556 S
C250 C251 1.399 . S
C251 H237 0.929 . S
C251 C250 1.399 . S
C251 C252 1.385 . S
C252 H238 0.931 . S
C252 C251 1.385 . S
C252 C253 1.389 . S
C253 C252 1.389 . S
C253 C254 1.387 1_556 S
C254 H239 0.930 . S
C254 C249 1.390 . S
C254 C253 1.387 1_554 S
H255 C267 0.930 . S
H256 C269 0.930 . S
H257 C270 0.930 . S
H258 C274 0.959 . S
H259 C274 0.959 . S
H260 C274 0.961 . S
H261 C275 0.960 . S
H262 C275 0.961 . S
H263 C275 0.959 . S
H264 C278 0.929 . S
H265 C279 0.931 . S
H266 C281 0.930 . S
C267 H255 0.930 . S
C267 C268 1.399 1_554 S
C267 C272 1.399 . S
C268 C267 1.399 1_556 S
C268 C269 1.376 . S
C269 H256 0.930 . S
C269 C268 1.376 . S
C269 C270 1.388 . S
C270 H257 0.930 . S
C270 C269 1.388 . S
C270 C271 1.390 . S
C271 C270 1.390 . S
C271 C272 1.394 1_556 S
C271 C277 1.465 . S
C272 C267 1.399 . S
C272 C271 1.394 1_554 S
C272 C273 1.516 . S
C273 C272 1.516 . S
C273 C274 1.502 . S
C273 C275 1.561 . S
C273 C276 1.526 . S
C274 H258 0.959 . S
C274 H259 0.959 . S
C274 H260 0.961 . S
C274 C273 1.502 . S
C275 H261 0.960 . S
C275 H262 0.961 . S
C275 H263 0.959 . S
C275 C273 1.561 . S
C276 C273 1.526 . S
C276 C277 1.396 1_554 S
C276 C281 1.390 . S
C277 C271 1.465 . S
C277 C276 1.396 1_556 S
C277 C278 1.399 . S
C278 H264 0.929 . S
C278 C277 1.399 . S
C278 C279 1.385 . S
C279 H265 0.931 . S
C279 C278 1.385 . S
C279 C280 1.389 . S
C280 C279 1.389 . S
C280 C281 1.387 1_556 S
C281 H266 0.930 . S
C281 C276 1.390 . S
C281 C280 1.387 1_554 S
H282 C294 0.930 . S
H283 C296 0.930 . S
H284 C297 0.930 . S
H285 C301 0.959 . S
H286 C301 0.959 . S
H287 C301 0.961 . S
H288 C302 0.960 . S
H289 C302 0.961 . S
H290 C302 0.959 . S
H291 C305 0.929 . S
H292 C306 0.931 . S
H293 C308 0.930 . S
C294 H282 0.930 . S
C294 C295 1.399 . S
C294 C299 1.399 . S
C295 C294 1.399 . S
C295 C296 1.376 1_554 S
C296 H283 0.930 . S
C296 C295 1.376 1_556 S
C296 C297 1.388 . S
C297 H284 0.930 . S
C297 C296 1.388 . S
C297 C298 1.390 . S
C298 C297 1.390 . S
C298 C299 1.394 1_556 S
C298 C304 1.465 . S
C299 C294 1.399 . S
C299 C298 1.394 1_554 S
C299 C300 1.516 . S
C300 C299 1.516 . S
C300 C301 1.502 . S
C300 C302 1.561 . S
C300 C303 1.526 . S
C301 H285 0.959 . S
C301 H286 0.959 . S
C301 H287 0.961 . S
C301 C300 1.502 . S
C302 H288 0.960 . S
C302 H289 0.961 . S
C302 H290 0.959 . S
C302 C300 1.561 . S
C303 C300 1.526 . S
C303 C304 1.396 1_554 S
C303 C308 1.390 . S
C304 C298 1.465 . S
C304 C303 1.396 1_556 S
C304 C305 1.399 . S
C305 H291 0.929 . S
C305 C304 1.399 . S
C305 C306 1.385 . S
C306 H292 0.931 . S
C306 C305 1.385 . S
C306 C307 1.389 1_556 S
C307 C306 1.389 1_554 S
C307 C308 1.387 . S
C308 H293 0.930 . S
C308 C303 1.390 . S
C308 C307 1.387 . S
H309 C321 0.930 . S
H310 C323 0.930 . S
H311 C324 0.930 . S
H312 C328 0.959 . S
H313 C328 0.959 . S
H314 C328 0.961 . S
H315 C329 0.960 . S
H316 C329 0.961 . S
H317 C329 0.959 . S
H318 C332 0.929 . S
H319 C333 0.931 . S
H320 C335 0.930 . S
C321 H309 0.930 . S
C321 C322 1.399 1_554 S
C321 C326 1.399 . S
C322 C321 1.399 1_556 S
C322 C323 1.376 . S
C323 H310 0.930 . S
C323 C322 1.376 . S
C323 C324 1.388 . S
C324 H311 0.930 . S
C324 C323 1.388 . S
C324 C325 1.390 . S
C325 C324 1.390 . S
C325 C326 1.394 1_556 S
C325 C331 1.465 . S
C326 C321 1.399 . S
C326 C325 1.394 1_554 S
C326 C327 1.516 . S
C327 C326 1.516 . S
C327 C328 1.502 . S
C327 C329 1.561 . S
C327 C330 1.526 . S
C328 H312 0.959 . S
C328 H313 0.959 . S
C328 H314 0.961 . S
C328 C327 1.502 . S
C329 H315 0.960 . S
C329 H316 0.961 . S
C329 H317 0.959 . S
C329 C327 1.561 . S
C330 C327 1.526 . S
C330 C331 1.396 1_554 S
C330 C335 1.390 . S
C331 C325 1.465 . S
C331 C330 1.396 1_556 S
C331 C332 1.399 . S
C332 H318 0.929 . S
C332 C331 1.399 . S
C332 C333 1.385 . S
C333 H319 0.931 . S
C333 C332 1.385 . S
C333 C334 1.382 1_556 S
C334 C333 1.382 1_554 S
C334 C335 1.393 . S
C335 H320 0.930 . S
C335 C330 1.390 . S
C335 C334 1.393 . S
H336 C348 0.930 . S
H337 C350 0.930 . S
H338 C351 0.930 . S
H339 C355 0.959 . S
H340 C355 0.959 . S
H341 C355 0.961 . S
H342 C356 0.960 . S
H343 C356 0.961 . S
H344 C356 0.959 . S
H345 C359 0.929 . S
H346 C360 0.931 . S
H347 C362 0.930 . S
C348 H336 0.930 . S
C348 C349 1.399 1_554 S
C348 C353 1.399 . S
C349 C348 1.399 1_556 S
C349 C350 1.376 . S
C350 H337 0.930 . S
C350 C349 1.376 . S
C350 C351 1.388 . S
C351 H338 0.930 . S
C351 C350 1.388 . S
C351 C352 1.390 . S
C352 C351 1.390 . S
C352 C353 1.394 1_556 S
C352 C358 1.465 . S
C353 C348 1.399 . S
C353 C352 1.394 1_554 S
C353 C354 1.516 . S
C354 C353 1.516 . S
C354 C355 1.502 . S
C354 C356 1.561 . S
C354 C357 1.526 . S
C355 H339 0.959 . S
C355 H340 0.959 . S
C355 H341 0.961 . S
C355 C354 1.502 . S
C356 H342 0.960 . S
C356 H343 0.961 . S
C356 H344 0.959 . S
C356 C354 1.561 . S
C357 C354 1.526 . S
C357 C358 1.396 1_554 S
C357 C362 1.390 . S
C358 C352 1.465 . S
C358 C357 1.396 1_556 S
C358 C359 1.399 . S
C359 H345 0.929 . S
C359 C358 1.399 . S
C359 C360 1.385 . S
C360 H346 0.931 . S
C360 C359 1.385 . S
C360 C361 1.389 . S
C361 C360 1.389 . S
C361 C362 1.387 1_556 S
C362 H347 0.930 . S
C362 C357 1.390 . S
C362 C361 1.387 1_554 S
C133 C10 1.479 . S
C145 C19 1.422 1_655 S
C160 C50 1.415 . S
C172 C59 1.481 1_545 S
C187 C99 1.482 . S
C199 C90 1.426 . S
C214 C11 2.612 1_556 S
C226 C82 2.567 . S
C241 C47 0.910 . S
C253 C7 0.882 . S
C268 C51 2.024 . S
C280 C87 1.978 . S
C295 C2 2.605 1_554 S
C307 C91 2.551 . S
C322 C16 0.910 1_556 S
C334 C56 0.885 . S
C349 C96 1.963 1_556 S
C361 C42 2.045 1_556 S
