# Generated by pormake.
# Topology uox, (4)-cn, num edge types: 1
# Building blocks:
#     Node 0, Type 0, BuildingBlock: GALJAG_clean_sbu_0, # of connection points: 4
#     Node 1, Type 0, BuildingBlock: GALJAG_clean_sbu_0, # of connection points: 4
#     Node 2, Type 0, BuildingBlock: GALJAG_clean_sbu_0, # of connection points: 4
#     Node 3, Type 0, BuildingBlock: GALJAG_clean_sbu_0, # of connection points: 4
#     Node 4, Type 0, BuildingBlock: GALJAG_clean_sbu_0, # of connection points: 4
#     Node 5, Type 0, BuildingBlock: GALJAG_clean_sbu_0, # of connection points: 4
#     Node 6, Type 0, BuildingBlock: GALJAG_clean_sbu_0, # of connection points: 4
#     Node 7, Type 0, BuildingBlock: GALJAG_clean_sbu_0, # of connection points: 4
#     Node 8, Type 0, BuildingBlock: GALJAG_clean_sbu_0, # of connection points: 4
#     Node 9, Type 0, BuildingBlock: GALJAG_clean_sbu_0, # of connection points: 4
#     Node 10, Type 0, BuildingBlock: GALJAG_clean_sbu_0, # of connection points: 4
#     Node 11, Type 0, BuildingBlock: GALJAG_clean_sbu_0, # of connection points: 4
#     Node 12, Type 0, BuildingBlock: GALJAG_clean_sbu_0, # of connection points: 4
#     Node 13, Type 0, BuildingBlock: GALJAG_clean_sbu_0, # of connection points: 4
#     Node 14, Type 0, BuildingBlock: GALJAG_clean_sbu_0, # of connection points: 4
#     Node 15, Type 0, BuildingBlock: GALJAG_clean_sbu_0, # of connection points: 4
#     Node 16, Type 0, BuildingBlock: GALJAG_clean_sbu_0, # of connection points: 4
#     Node 17, Type 0, BuildingBlock: GALJAG_clean_sbu_0, # of connection points: 4
#     Node 18, Type 0, BuildingBlock: GALJAG_clean_sbu_0, # of connection points: 4
#     Node 19, Type 0, BuildingBlock: GALJAG_clean_sbu_0, # of connection points: 4
#     Node 20, Type 0, BuildingBlock: GALJAG_clean_sbu_0, # of connection points: 4
#     Node 21, Type 0, BuildingBlock: GALJAG_clean_sbu_0, # of connection points: 4
#     Node 22, Type 0, BuildingBlock: GALJAG_clean_sbu_0, # of connection points: 4
#     Node 23, Type 0, BuildingBlock: GALJAG_clean_sbu_0, # of connection points: 4
#     Node 24, Type 0, BuildingBlock: GALJAG_clean_sbu_0, # of connection points: 4
#     Node 25, Type 0, BuildingBlock: GALJAG_clean_sbu_0, # of connection points: 4
#     Node 26, Type 0, BuildingBlock: GALJAG_clean_sbu_0, # of connection points: 4
#     Node 27, Type 0, BuildingBlock: GALJAG_clean_sbu_0, # of connection points: 4
#     Node 28, Type 0, BuildingBlock: GALJAG_clean_sbu_0, # of connection points: 4
#     Node 29, Type 0, BuildingBlock: GALJAG_clean_sbu_0, # of connection points: 4
#     Node 30, Type 0, BuildingBlock: GALJAG_clean_sbu_0, # of connection points: 4
#     Node 31, Type 0, BuildingBlock: GALJAG_clean_sbu_0, # of connection points: 4
#     Edge 32, Type (0, 0), BuildingBlock: OJICUG_clean_linker_0, # of connection points: 2
#     Edge 33, Type (0, 0), BuildingBlock: OJICUG_clean_linker_0, # of connection points: 2
#     Edge 34, Type (0, 0), BuildingBlock: OJICUG_clean_linker_0, # of connection points: 2
#     Edge 35, Type (0, 0), BuildingBlock: OJICUG_clean_linker_0, # of connection points: 2
#     Edge 36, Type (0, 0), BuildingBlock: OJICUG_clean_linker_0, # of connection points: 2
#     Edge 37, Type (0, 0), BuildingBlock: OJICUG_clean_linker_0, # of connection points: 2
#     Edge 38, Type (0, 0), BuildingBlock: OJICUG_clean_linker_0, # of connection points: 2
#     Edge 39, Type (0, 0), BuildingBlock: OJICUG_clean_linker_0, # of connection points: 2
#     Edge 40, Type (0, 0), BuildingBlock: OJICUG_clean_linker_0, # of connection points: 2
#     Edge 41, Type (0, 0), BuildingBlock: OJICUG_clean_linker_0, # of connection points: 2
#     Edge 42, Type (0, 0), BuildingBlock: OJICUG_clean_linker_0, # of connection points: 2
#     Edge 43, Type (0, 0), BuildingBlock: OJICUG_clean_linker_0, # of connection points: 2
#     Edge 44, Type (0, 0), BuildingBlock: OJICUG_clean_linker_0, # of connection points: 2
#     Edge 45, Type (0, 0), BuildingBlock: OJICUG_clean_linker_0, # of connection points: 2
#     Edge 46, Type (0, 0), BuildingBlock: OJICUG_clean_linker_0, # of connection points: 2
#     Edge 47, Type (0, 0), BuildingBlock: OJICUG_clean_linker_0, # of connection points: 2
#     Edge 48, Type (0, 0), BuildingBlock: OJICUG_clean_linker_0, # of connection points: 2
#     Edge 49, Type (0, 0), BuildingBlock: OJICUG_clean_linker_0, # of connection points: 2
#     Edge 50, Type (0, 0), BuildingBlock: OJICUG_clean_linker_0, # of connection points: 2
#     Edge 51, Type (0, 0), BuildingBlock: OJICUG_clean_linker_0, # of connection points: 2
#     Edge 52, Type (0, 0), BuildingBlock: OJICUG_clean_linker_0, # of connection points: 2
#     Edge 53, Type (0, 0), BuildingBlock: OJICUG_clean_linker_0, # of connection points: 2
#     Edge 54, Type (0, 0), BuildingBlock: OJICUG_clean_linker_0, # of connection points: 2
#     Edge 55, Type (0, 0), BuildingBlock: OJICUG_clean_linker_0, # of connection points: 2
#     Edge 56, Type (0, 0), BuildingBlock: OJICUG_clean_linker_0, # of connection points: 2
#     Edge 57, Type (0, 0), BuildingBlock: OJICUG_clean_linker_0, # of connection points: 2
#     Edge 58, Type (0, 0), BuildingBlock: OJICUG_clean_linker_0, # of connection points: 2
#     Edge 59, Type (0, 0), BuildingBlock: OJICUG_clean_linker_0, # of connection points: 2
#     Edge 60, Type (0, 0), BuildingBlock: OJICUG_clean_linker_0, # of connection points: 2
#     Edge 61, Type (0, 0), BuildingBlock: OJICUG_clean_linker_0, # of connection points: 2
#     Edge 62, Type (0, 0), BuildingBlock: OJICUG_clean_linker_0, # of connection points: 2
#     Edge 63, Type (0, 0), BuildingBlock: OJICUG_clean_linker_0, # of connection points: 2
#     Edge 64, Type (0, 0), BuildingBlock: OJICUG_clean_linker_0, # of connection points: 2
#     Edge 65, Type (0, 0), BuildingBlock: OJICUG_clean_linker_0, # of connection points: 2
#     Edge 66, Type (0, 0), BuildingBlock: OJICUG_clean_linker_0, # of connection points: 2
#     Edge 67, Type (0, 0), BuildingBlock: OJICUG_clean_linker_0, # of connection points: 2
#     Edge 68, Type (0, 0), BuildingBlock: OJICUG_clean_linker_0, # of connection points: 2
#     Edge 69, Type (0, 0), BuildingBlock: OJICUG_clean_linker_0, # of connection points: 2
#     Edge 70, Type (0, 0), BuildingBlock: OJICUG_clean_linker_0, # of connection points: 2
#     Edge 71, Type (0, 0), BuildingBlock: OJICUG_clean_linker_0, # of connection points: 2
#     Edge 72, Type (0, 0), BuildingBlock: OJICUG_clean_linker_0, # of connection points: 2
#     Edge 73, Type (0, 0), BuildingBlock: OJICUG_clean_linker_0, # of connection points: 2
#     Edge 74, Type (0, 0), BuildingBlock: OJICUG_clean_linker_0, # of connection points: 2
#     Edge 75, Type (0, 0), BuildingBlock: OJICUG_clean_linker_0, # of connection points: 2
#     Edge 76, Type (0, 0), BuildingBlock: OJICUG_clean_linker_0, # of connection points: 2
#     Edge 77, Type (0, 0), BuildingBlock: OJICUG_clean_linker_0, # of connection points: 2
#     Edge 78, Type (0, 0), BuildingBlock: OJICUG_clean_linker_0, # of connection points: 2
#     Edge 79, Type (0, 0), BuildingBlock: OJICUG_clean_linker_0, # of connection points: 2
#     Edge 80, Type (0, 0), BuildingBlock: OJICUG_clean_linker_0, # of connection points: 2
#     Edge 81, Type (0, 0), BuildingBlock: OJICUG_clean_linker_0, # of connection points: 2
#     Edge 82, Type (0, 0), BuildingBlock: OJICUG_clean_linker_0, # of connection points: 2
#     Edge 83, Type (0, 0), BuildingBlock: OJICUG_clean_linker_0, # of connection points: 2
#     Edge 84, Type (0, 0), BuildingBlock: OJICUG_clean_linker_0, # of connection points: 2
#     Edge 85, Type (0, 0), BuildingBlock: OJICUG_clean_linker_0, # of connection points: 2
#     Edge 86, Type (0, 0), BuildingBlock: OJICUG_clean_linker_0, # of connection points: 2
#     Edge 87, Type (0, 0), BuildingBlock: OJICUG_clean_linker_0, # of connection points: 2
#     Edge 88, Type (0, 0), BuildingBlock: OJICUG_clean_linker_0, # of connection points: 2
#     Edge 89, Type (0, 0), BuildingBlock: OJICUG_clean_linker_0, # of connection points: 2
#     Edge 90, Type (0, 0), BuildingBlock: OJICUG_clean_linker_0, # of connection points: 2
#     Edge 91, Type (0, 0), BuildingBlock: OJICUG_clean_linker_0, # of connection points: 2
#     Edge 92, Type (0, 0), BuildingBlock: OJICUG_clean_linker_0, # of connection points: 2
#     Edge 93, Type (0, 0), BuildingBlock: OJICUG_clean_linker_0, # of connection points: 2
#     Edge 94, Type (0, 0), BuildingBlock: OJICUG_clean_linker_0, # of connection points: 2
#     Edge 95, Type (0, 0), BuildingBlock: OJICUG_clean_linker_0, # of connection points: 2
# Relax obj value: 0.005
# Max RMSD: 0.035
# Mean RMSD: 0.035
data_MOF--net-uox--node1-GALJAG_clean_sbu_0--edge1-OJICUG_clean_linker_0
_symmetry_space_group_name_H-M    P1
_symmetry_Int_Tables_number       1
_symmetry_cell_setting            triclinic
loop_
_symmetry_equiv_pos_as_xyz
'x, y, z'
_cell_length_a     35.474968
_cell_length_b     35.506231
_cell_length_c     53.240762
_cell_angle_alpha  90.063691
_cell_angle_beta   90.014373
_cell_angle_gamma 90.017084
loop_
_atom_site_label
_atom_site_type_symbol
_atom_site_fract_x
_atom_site_fract_y
_atom_site_fract_z
_atom_type_partial_charge
In0 In 0.39524 0.05265 0.1492 0.0
O1 O 0.38128 0.9957 0.13066 0.0
O2 O 0.33633 0.03196 0.14101 0.0
C3 C 0.46683 0.06311 0.13401 0.0
C4 C 0.39875 0.02573 0.19628 0.0
C5 C 0.36988 0.12188 0.13705 0.0
O6 O 0.44246 0.04772 0.11998 0.0
O7 O 0.45503 0.07264 0.15546 0.0
O8 O 0.37454 0.11183 0.15961 0.0
O9 O 0.37782 0.09704 0.12092 0.0
C10 C 0.34609 0.00058 0.13215 0.0
O11 O 0.37488 0.05028 0.18984 0.0
O12 O 0.42135 0.01578 0.17927 0.0
In13 In 0.19211 0.14913 0.40147 0.0
O14 O 0.19525 0.12802 0.44187 0.0
O15 O 0.22733 0.17654 0.43211 0.0
C16 C 0.12412 0.12262 0.38745 0.0
C17 C 0.24496 0.10089 0.38453 0.0
C18 C 0.17892 0.22034 0.38696 0.0
O19 O 0.13335 0.12581 0.4103 0.0
O20 O 0.14923 0.13235 0.37198 0.0
O21 O 0.19779 0.19773 0.37352 0.0
O22 O 0.16768 0.20711 0.40766 0.0
C23 C 0.21851 0.15289 0.44875 0.0
O24 O 0.24916 0.13612 0.38265 0.0
O25 O 0.2139 0.09073 0.3937 0.0
In26 In 0.10276 0.9373 0.6517 0.0
O27 O 0.11504 0.99571 0.63447 0.0
O28 O 0.16047 0.95791 0.64052 0.0
C29 C 0.03184 0.92316 0.63653 0.0
C30 C 0.0982 0.96368 0.69907 0.0
C31 C 0.13087 0.86944 0.63892 0.0
O32 O 0.05359 0.94435 0.62402 0.0
O33 O 0.04596 0.90982 0.65639 0.0
O34 O 0.12716 0.87937 0.66162 0.0
O35 O 0.1205 0.89369 0.62303 0.0
C36 C 0.15019 0.9901 0.63346 0.0
O37 O 0.12571 0.94415 0.69157 0.0
O38 O 0.07266 0.96885 0.68302 0.0
In39 In 0.31189 0.85631 0.90187 0.0
O40 O 0.3069 0.87243 0.94306 0.0
O41 O 0.27352 0.82652 0.9297 0.0
C42 C 0.3793 0.88683 0.88932 0.0
C43 C 0.25772 0.90371 0.88588 0.0
C44 C 0.32249 0.78439 0.88752 0.0
O45 O 0.37085 0.87904 0.91174 0.0
O46 O 0.35368 0.87998 0.87361 0.0
O47 O 0.30205 0.80684 0.87511 0.0
O48 O 0.33706 0.79817 0.90713 0.0
C49 C 0.2822 0.84777 0.94784 0.0
O50 O 0.26713 0.87502 0.87331 0.0
O51 O 0.27606 0.9087 0.90582 0.0
In52 In 0.40314 0.93534 0.34251 0.0
O53 O 0.37261 0.9448 0.30521 0.0
O54 O 0.43108 0.95741 0.30707 0.0
C55 C 0.37832 0.86601 0.35519 0.0
C56 C 0.35805 0.98941 0.36158 0.0
C57 C 0.47525 0.92861 0.35747 0.0
O58 O 0.37946 0.87686 0.3326 0.0
O59 O 0.38974 0.88993 0.37095 0.0
O60 O 0.4513 0.94666 0.37036 0.0
O61 O 0.46271 0.91458 0.33735 0.0
C62 C 0.40141 0.95731 0.29411 0.0
O63 O 0.39153 0.99638 0.355 0.0
O64 O 0.3486 0.95537 0.35971 0.0
In65 In 0.31686 0.14887 0.59272 0.0
O66 O 0.25845 0.13658 0.60991 0.0
O67 O 0.29534 0.09088 0.60237 0.0
C68 C 0.3295 0.21985 0.60829 0.0
C69 C 0.29136 0.15229 0.54519 0.0
C70 C 0.38525 0.12252 0.60604 0.0
O71 O 0.31073 0.19675 0.62139 0.0
O72 O 0.34094 0.20718 0.58747 0.0
O73 O 0.37597 0.12675 0.58327 0.0
O74 O 0.35999 0.13114 0.6217 0.0
C75 C 0.26337 0.10133 0.60986 0.0
O76 O 0.31233 0.12592 0.55276 0.0
O77 O 0.2844 0.17742 0.56125 0.0
In78 In 0.10017 0.06801 0.84093 0.0
O79 O 0.11774 0.02146 0.86848 0.0
O80 O 0.15371 0.03371 0.83763 0.0
C81 C 0.02797 0.07753 0.85522 0.0
C82 C 0.0945 0.04022 0.79422 0.0
C83 C 0.12965 0.13515 0.85494 0.0
O84 O 0.05077 0.05739 0.86755 0.0
O85 O 0.04143 0.09214 0.83555 0.0
O86 O 0.12174 0.1277 0.83237 0.0
O87 O 0.1234 0.1087 0.87009 0.0
C88 C 0.14761 0.0137 0.85666 0.0
O89 O 0.1184 0.06511 0.80012 0.0
O90 O 0.07231 0.03049 0.8116 0.0
In91 In 0.17999 0.8424 0.09038 0.0
O92 O 0.18581 0.86896 0.05151 0.0
O93 O 0.20957 0.81468 0.05726 0.0
C94 C 0.11187 0.86863 0.10428 0.0
C95 C 0.23352 0.88859 0.10905 0.0
C96 C 0.16816 0.77093 0.10493 0.0
O97 O 0.12154 0.86669 0.08144 0.0
O98 O 0.13644 0.85745 0.11968 0.0
O99 O 0.18784 0.79349 0.1179 0.0
O100 O 0.15532 0.7844 0.08472 0.0
C101 C 0.20456 0.84193 0.04252 0.0
O102 O 0.23964 0.85388 0.1058 0.0
O103 O 0.20046 0.89895 0.10405 0.0
In104 In 0.6015 0.941 0.84488 0.0
O105 O 0.61815 0.98752 0.87292 0.0
O106 O 0.65301 0.97807 0.84109 0.0
C107 C 0.52932 0.92964 0.85879 0.0
C108 C 0.5958 0.96807 0.79807 0.0
C109 C 0.63339 0.87456 0.85791 0.0
O110 O 0.55157 0.94991 0.87151 0.0
O111 O 0.54336 0.91577 0.83906 0.0
O112 O 0.62402 0.88199 0.83562 0.0
O113 O 0.62723 0.90069 0.87337 0.0
C114 C 0.64699 0.99713 0.86057 0.0
O115 O 0.62076 0.94453 0.8044 0.0
O116 O 0.57262 0.97691 0.8151 0.0
In117 In 0.81332 0.85175 0.59368 0.0
O118 O 0.7945 0.91182 0.60105 0.0
O119 O 0.75883 0.8677 0.61395 0.0
C120 C 0.82208 0.77974 0.60863 0.0
C121 C 0.78519 0.84619 0.54689 0.0
C122 C 0.88161 0.87919 0.60649 0.0
O123 O 0.80798 0.80455 0.6228 0.0
O124 O 0.83065 0.79112 0.58696 0.0
O125 O 0.85953 0.86366 0.62189 0.0
O126 O 0.86908 0.88156 0.5843 0.0
C127 C 0.764 0.90271 0.61159 0.0
O128 O 0.76535 0.84245 0.56636 0.0
O129 O 0.81979 0.85241 0.55089 0.0
In130 In 0.90293 0.06815 0.34083 0.0
O131 O 0.88498 0.06497 0.30007 0.0
O132 O 0.93268 0.03235 0.31129 0.0
C133 C 0.86924 0.13347 0.35423 0.0
C134 C 0.85695 0.01264 0.35679 0.0
C135 C 0.97471 0.08047 0.35516 0.0
O136 O 0.87938 0.12689 0.33195 0.0
O137 O 0.87559 0.10708 0.3694 0.0
O138 O 0.95376 0.05703 0.3663 0.0
O139 O 0.95961 0.09699 0.33675 0.0
C140 C 0.91013 0.04147 0.29395 0.0
O141 O 0.88395 0.02447 0.37012 0.0
O142 O 0.8533 0.02879 0.33594 0.0
In143 In 0.68188 0.14289 0.09201 0.0
O144 O 0.72682 0.12562 0.12091 0.0
O145 O 0.72132 0.09319 0.08754 0.0
C146 C 0.66772 0.21366 0.10761 0.0
C147 C 0.71019 0.15314 0.04579 0.0
C148 C 0.61597 0.10855 0.10367 0.0
O149 O 0.69063 0.19244 0.11902 0.0
O150 O 0.65265 0.19929 0.08837 0.0
O151 O 0.62357 0.1192 0.08166 0.0
O152 O 0.64179 0.11443 0.11942 0.0
C153 C 0.7385 0.09819 0.10793 0.0
O154 O 0.68804 0.12642 0.05107 0.0
O155 O 0.71709 0.17562 0.0636 0.0
In156 In 0.60529 0.06791 0.6549 0.0
O157 O 0.62604 0.06372 0.69539 0.0
O158 O 0.57571 0.03461 0.68556 0.0
C159 C 0.6334 0.13554 0.64194 0.0
C160 C 0.65357 0.01514 0.63777 0.0
C161 C 0.5347 0.08071 0.6386 0.0
O162 O 0.62794 0.12656 0.66464 0.0
O163 O 0.62461 0.11052 0.62614 0.0
O164 O 0.55794 0.06152 0.62587 0.0
O165 O 0.54713 0.09286 0.6593 0.0
C166 C 0.59964 0.04224 0.70228 0.0
O167 O 0.61832 0.01003 0.63749 0.0
O168 O 0.66384 0.04683 0.64583 0.0
In169 In 0.69145 0.85603 0.40161 0.0
O170 O 0.68675 0.85887 0.44411 0.0
O171 O 0.73765 0.83724 0.42835 0.0
C172 C 0.62571 0.88917 0.38836 0.0
C173 C 0.74479 0.90472 0.38635 0.0
C174 C 0.67901 0.78432 0.38667 0.0
O175 O 0.63502 0.88461 0.41102 0.0
O176 O 0.64982 0.87793 0.3727 0.0
O177 O 0.69829 0.80705 0.37376 0.0
O178 O 0.66695 0.79753 0.40712 0.0
C179 C 0.71951 0.84603 0.44792 0.0
O180 O 0.73858 0.87409 0.37498 0.0
O181 O 0.72353 0.91113 0.40483 0.0
In182 In 0.89503 0.93357 0.15383 0.0
O183 O 0.87955 0.93881 0.19496 0.0
O184 O 0.92719 0.96991 0.18191 0.0
C185 C 0.86084 0.86809 0.14136 0.0
C186 C 0.84947 0.98961 0.1383 0.0
C187 C 0.96545 0.91786 0.13823 0.0
O188 O 0.87125 0.87519 0.16353 0.0
O189 O 0.86678 0.89424 0.12591 0.0
O190 O 0.94447 0.94074 0.12658 0.0
O191 O 0.9511 0.90383 0.1578 0.0
C192 C 0.90551 0.962 0.19997 0.0
O193 O 0.87823 0.9799 0.12587 0.0
O194 O 0.84367 0.97083 0.15794 0.0
In195 In 0.81425 0.15229 0.90428 0.0
O196 O 0.76725 0.13563 0.87667 0.0
O197 O 0.77696 0.10096 0.90854 0.0
C198 C 0.82599 0.2243 0.89067 0.0
C199 C 0.7888 0.15885 0.95152 0.0
C200 C 0.87986 0.12039 0.88929 0.0
O201 O 0.80308 0.20324 0.87908 0.0
O202 O 0.84223 0.20916 0.90919 0.0
O203 O 0.87307 0.12788 0.91201 0.0
O204 O 0.85342 0.12821 0.87441 0.0
C205 C 0.75764 0.10695 0.88916 0.0
O206 O 0.8122 0.13386 0.945 0.0
O207 O 0.77935 0.18166 0.93444 0.0
In208 In 0.90367 0.56785 0.65537 0.0
O209 O 0.91742 0.52063 0.68234 0.0
O210 O 0.9009 0.57322 0.69816 0.0
C211 C 0.87228 0.63364 0.64156 0.0
C212 C 0.85272 0.51738 0.63918 0.0
C213 C 0.97506 0.57971 0.63972 0.0
O214 O 0.87548 0.62431 0.66438 0.0
O215 O 0.88482 0.60984 0.62605 0.0
O216 O 0.96318 0.58968 0.66102 0.0
O217 O 0.95106 0.56295 0.62622 0.0
C218 C 0.91064 0.53942 0.70193 0.0
O219 O 0.84367 0.54737 0.65036 0.0
O220 O 0.88766 0.51314 0.63548 0.0
In221 In 0.68313 0.65234 0.90218 0.0
O222 O 0.67875 0.65181 0.94477 0.0
O223 O 0.73144 0.66711 0.92824 0.0
C224 C 0.61574 0.62356 0.88822 0.0
C225 C 0.73216 0.59951 0.88682 0.0
C226 C 0.676 0.72514 0.88866 0.0
O227 O 0.62627 0.62408 0.91087 0.0
O228 O 0.63926 0.63696 0.87294 0.0
O229 O 0.69399 0.70171 0.87542 0.0
O230 O 0.6624 0.71197 0.90868 0.0
C231 C 0.71283 0.66122 0.94809 0.0
O232 O 0.72756 0.62991 0.87488 0.0
O233 O 0.71151 0.59551 0.90587 0.0
In234 In 0.60122 0.43231 0.15262 0.0
O235 O 0.62768 0.44014 0.19155 0.0
O236 O 0.57393 0.46451 0.18471 0.0
C237 C 0.62596 0.3632 0.13986 0.0
C238 C 0.64756 0.48421 0.13233 0.0
C239 C 0.52957 0.41998 0.13823 0.0
O240 O 0.62463 0.37381 0.16256 0.0
O241 O 0.61531 0.38745 0.12411 0.0
O242 O 0.55222 0.43902 0.12494 0.0
O243 O 0.54294 0.40822 0.15876 0.0
C244 C 0.6009 0.46005 0.19979 0.0
O245 O 0.61295 0.49072 0.13579 0.0
O246 O 0.65794 0.45144 0.13803 0.0
In247 In 0.81454 0.35227 0.40321 0.0
O248 O 0.76695 0.34174 0.4306 0.0
O249 O 0.82083 0.35505 0.44591 0.0
C250 C 0.88254 0.3798 0.38985 0.0
C251 C 0.76495 0.40368 0.3865 0.0
C252 C 0.82247 0.28038 0.38771 0.0
O253 O 0.85892 0.36707 0.3743 0.0
O254 O 0.87181 0.37911 0.41249 0.0
O255 O 0.8091 0.30568 0.37367 0.0
O256 O 0.83096 0.2912 0.40955 0.0
C257 C 0.78651 0.34756 0.44999 0.0
O258 O 0.7953 0.41249 0.39737 0.0
O259 O 0.7601 0.36879 0.38319 0.0
In260 In 0.8978 0.44105 0.84563 0.0
O261 O 0.87463 0.48531 0.87275 0.0
O262 O 0.84079 0.469 0.84147 0.0
C263 C 0.9703 0.43342 0.85985 0.0
C264 C 0.90835 0.4711 0.80002 0.0
C265 C 0.86889 0.37371 0.85932 0.0
O266 O 0.94672 0.45146 0.87297 0.0
O267 O 0.95741 0.42012 0.83964 0.0
O268 O 0.86928 0.38437 0.8367 0.0
O269 O 0.88242 0.39708 0.87466 0.0
C270 C 0.84433 0.48964 0.86059 0.0
O271 O 0.89893 0.43699 0.80302 0.0
O272 O 0.91324 0.48961 0.82004 0.0
In273 In 0.80974 0.64782 0.09256 0.0
O274 O 0.76189 0.66117 0.06598 0.0
O275 O 0.81528 0.64841 0.04975 0.0
C276 C 0.87713 0.61782 0.10518 0.0
C277 C 0.7592 0.59614 0.10779 0.0
C278 C 0.81853 0.71929 0.10878 0.0
O279 O 0.86612 0.61963 0.08263 0.0
O280 O 0.85419 0.63093 0.12104 0.0
O281 O 0.82736 0.70861 0.08698 0.0
O282 O 0.80483 0.69389 0.12263 0.0
C283 C 0.78103 0.65688 0.04624 0.0
O284 O 0.75592 0.63064 0.1132 0.0
O285 O 0.78851 0.58778 0.0956 0.0
In286 In 0.60702 0.56748 0.34128 0.0
O287 O 0.63023 0.5604 0.30135 0.0
O288 O 0.57857 0.53339 0.31054 0.0
C289 C 0.63308 0.63609 0.35419 0.0
C290 C 0.6546 0.51587 0.3604 0.0
C291 C 0.53584 0.57932 0.35669 0.0
O292 O 0.62957 0.62633 0.33143 0.0
O293 O 0.62361 0.61135 0.36995 0.0
O294 O 0.55904 0.56044 0.36964 0.0
O295 O 0.54857 0.5916 0.33611 0.0
C296 C 0.60377 0.53905 0.29432 0.0
O297 O 0.61949 0.51019 0.35938 0.0
O298 O 0.66508 0.54767 0.35269 0.0
In299 In 0.6921 0.35492 0.59561 0.0
O300 O 0.68659 0.3584 0.55291 0.0
O301 O 0.7399 0.34361 0.56844 0.0
C302 C 0.62422 0.38266 0.60864 0.0
C303 C 0.74147 0.40578 0.61346 0.0
C304 C 0.68194 0.28297 0.61027 0.0
O305 O 0.63566 0.38304 0.58614 0.0
O306 O 0.64718 0.3689 0.62423 0.0
O307 O 0.69666 0.30734 0.62451 0.0
O308 O 0.67344 0.29473 0.58868 0.0
C309 C 0.72072 0.34994 0.54897 0.0
O310 O 0.7467 0.37075 0.61567 0.0
O311 O 0.71091 0.41498 0.60304 0.0
In312 In 0.10299 0.43613 0.34266 0.0
O313 O 0.12569 0.44022 0.3026 0.0
O314 O 0.07427 0.46827 0.31112 0.0
C315 C 0.13018 0.36808 0.35571 0.0
C316 C 0.15101 0.48897 0.36015 0.0
C317 C 0.0319 0.42366 0.35817 0.0
O318 O 0.12627 0.37768 0.33299 0.0
O319 O 0.12039 0.39271 0.37152 0.0
O320 O 0.05476 0.44318 0.37101 0.0
O321 O 0.04495 0.41116 0.33773 0.0
C322 C 0.09919 0.46098 0.29499 0.0
O323 O 0.16101 0.4566 0.35323 0.0
O324 O 0.11589 0.49475 0.35933 0.0
In325 In 0.31392 0.34361 0.09292 0.0
O326 O 0.30977 0.36767 0.05332 0.0
O327 O 0.28233 0.31557 0.06075 0.0
C328 C 0.38176 0.37132 0.10641 0.0
C329 C 0.25952 0.39023 0.1101 0.0
C330 C 0.32676 0.2723 0.10761 0.0
O331 O 0.37243 0.36725 0.08364 0.0
O332 O 0.35696 0.36147 0.12207 0.0
O333 O 0.30802 0.29505 0.12104 0.0
O334 O 0.33832 0.28556 0.08701 0.0
C335 C 0.28924 0.34132 0.04516 0.0
O336 O 0.25465 0.355 0.10925 0.0
O337 O 0.29186 0.401 0.10361 0.0
In338 In 0.39451 0.56795 0.84268 0.0
O339 O 0.37765 0.52217 0.87097 0.0
O340 O 0.34255 0.53144 0.8392 0.0
C341 C 0.46639 0.58018 0.85657 0.0
C342 C 0.40208 0.53952 0.79628 0.0
C343 C 0.36317 0.63449 0.85602 0.0
O344 O 0.44503 0.55804 0.86854 0.0
O345 O 0.4516 0.59543 0.83755 0.0
O346 O 0.37083 0.62655 0.83349 0.0
O347 O 0.37042 0.60868 0.87149 0.0
C348 C 0.34864 0.5126 0.85876 0.0
O349 O 0.37686 0.56325 0.80181 0.0
O350 O 0.42447 0.53127 0.81387 0.0
In351 In 0.19189 0.64995 0.59313 0.0
O352 O 0.24966 0.6372 0.61105 0.0
O353 O 0.21255 0.59182 0.60297 0.0
C354 C 0.17919 0.72131 0.60785 0.0
C355 C 0.2183 0.65216 0.54579 0.0
C356 C 0.12363 0.62375 0.60673 0.0
O357 O 0.1979 0.69854 0.62125 0.0
O358 O 0.16786 0.70813 0.58714 0.0
O359 O 0.13269 0.62794 0.58392 0.0
O360 O 0.14898 0.6325 0.6223 0.0
C361 C 0.24436 0.602 0.61094 0.0
O362 O 0.19592 0.62683 0.55316 0.0
O363 O 0.22622 0.6769 0.56193 0.0
In364 In 0.09686 0.5537 0.14936 0.0
O365 O 0.12088 0.55075 0.18906 0.0
O366 O 0.07051 0.52032 0.18125 0.0
C367 C 0.12336 0.62192 0.13612 0.0
C368 C 0.14477 0.501 0.13146 0.0
C369 C 0.02516 0.56693 0.13517 0.0
O370 O 0.1202 0.61216 0.15887 0.0
O371 O 0.11333 0.5973 0.12036 0.0
O372 O 0.04754 0.54798 0.1216 0.0
O373 O 0.03887 0.57817 0.15574 0.0
C374 C 0.09564 0.52873 0.19702 0.0
O375 O 0.10972 0.4949 0.13277 0.0
O376 O 0.15461 0.53366 0.13787 0.0
In377 In 0.18479 0.35493 0.90371 0.0
O378 O 0.23051 0.3727 0.87558 0.0
O379 O 0.22201 0.40623 0.9082 0.0
C380 C 0.17228 0.28372 0.88837 0.0
C381 C 0.21315 0.34587 0.94997 0.0
C382 C 0.11879 0.38817 0.89117 0.0
O383 O 0.19344 0.30596 0.87634 0.0
O384 O 0.158 0.29729 0.90812 0.0
O385 O 0.12609 0.3782 0.91338 0.0
O386 O 0.14481 0.38191 0.87566 0.0
C387 C 0.24041 0.40106 0.88832 0.0
O388 O 0.18921 0.37107 0.94482 0.0
O389 O 0.22175 0.32424 0.93201 0.0
In390 In 0.40247 0.43641 0.65387 0.0
O391 O 0.37757 0.44253 0.69322 0.0
O392 O 0.43095 0.46756 0.68603 0.0
C393 C 0.37596 0.36804 0.64063 0.0
C394 C 0.35564 0.48955 0.63554 0.0
C395 C 0.47389 0.42468 0.63905 0.0
O396 O 0.37945 0.3777 0.66339 0.0
O397 O 0.38572 0.39278 0.62493 0.0
O398 O 0.45119 0.44415 0.62608 0.0
O399 O 0.46047 0.41178 0.65925 0.0
C400 C 0.40458 0.46214 0.70144 0.0
O401 O 0.39074 0.49509 0.6371 0.0
O402 O 0.34507 0.4572 0.6421 0.0
In403 In 0.31765 0.64692 0.40202 0.0
O404 O 0.25944 0.63505 0.38447 0.0
O405 O 0.29626 0.58916 0.39167 0.0
C406 C 0.33117 0.71781 0.38684 0.0
C407 C 0.2914 0.65031 0.4494 0.0
C408 C 0.38596 0.62034 0.38878 0.0
O409 O 0.31172 0.69521 0.37375 0.0
O410 O 0.34279 0.70471 0.40748 0.0
O411 O 0.37648 0.6242 0.41155 0.0
O412 O 0.3609 0.62937 0.37308 0.0
C413 C 0.26438 0.59981 0.38413 0.0
O414 O 0.31236 0.62385 0.44193 0.0
O415 O 0.28484 0.67549 0.43334 0.0
C416 C 0.36665 0.98879 0.25924 0.0
C417 C 0.4002 0.97333 0.26867 0.0
H418 H 0.34019 0.01864 0.229 0.0
C419 C 0.43324 0.97542 0.25425 0.0
H420 H 0.34091 0.98784 0.27016 0.0
C421 C 0.43268 0.99242 0.23063 0.0
C422 C 0.39934 0.00853 0.22139 0.0
H423 H 0.45948 0.9638 0.2612 0.0
H424 H 0.45846 0.99341 0.21974 0.0
C425 C 0.36633 0.00671 0.23588 0.0
C426 C 0.26333 0.11845 0.50871 0.0
C427 C 0.27383 0.15247 0.52018 0.0
H428 H 0.23619 0.0921 0.47727 0.0
C429 C 0.26547 0.18669 0.50825 0.0
H430 H 0.26916 0.09174 0.51774 0.0
C431 C 0.24745 0.18685 0.48491 0.0
C432 C 0.23632 0.15286 0.47367 0.0
H433 H 0.2732 0.21325 0.51686 0.0
H434 H 0.2418 0.21353 0.4758 0.0
C435 C 0.24416 0.11867 0.48578 0.0
C436 C 0.06171 0.00688 0.75916 0.0
C437 C 0.09503 0.02116 0.7697 0.0
H438 H 0.0366 0.97784 0.72798 0.0
C439 C 0.12945 0.01544 0.75727 0.0
H440 H 0.0349 0.01081 0.76854 0.0
C441 C 0.1306 0.99541 0.7347 0.0
C442 C 0.09721 0.98186 0.72386 0.0
H443 H 0.15557 0.02583 0.76524 0.0
H444 H 0.15747 0.99137 0.7254 0.0
C445 C 0.06271 0.98797 0.73612 0.0
C446 C 0.24879 0.81159 0.98126 0.0
C447 C 0.26255 0.846 0.97211 0.0
H448 H 0.21994 0.78329 0.01121 0.0
C449 C 0.25591 0.87916 0.98578 0.0
H450 H 0.25346 0.78571 0.97092 0.0
C451 C 0.23558 0.87798 0.00822 0.0
C452 C 0.22262 0.84346 0.0177 0.0
H453 H 0.26589 0.90608 0.97889 0.0
H454 H 0.23094 0.9039 0.01852 0.0
C455 C 0.22955 0.81024 0.00415 0.0
C456 C 0.56265 0.99729 0.76162 0.0
C457 C 0.59632 0.98683 0.77352 0.0
H458 H 0.53738 0.02263 0.72914 0.0
C459 C 0.63097 0.99579 0.76229 0.0
H460 H 0.53565 0.99078 0.77008 0.0
C461 C 0.63198 0.01518 0.73952 0.0
C462 C 0.59835 0.02479 0.72726 0.0
H463 H 0.65729 0.98837 0.77136 0.0
H464 H 0.65904 0.02175 0.73117 0.0
C465 C 0.56365 0.01553 0.73836 0.0
C466 C 0.77534 0.83947 0.47626 0.0
C467 C 0.73621 0.84381 0.47323 0.0
H468 H 0.82172 0.83731 0.50208 0.0
C469 C 0.71338 0.84792 0.49457 0.0
H470 H 0.79361 0.83644 0.46008 0.0
C471 C 0.72939 0.84796 0.51851 0.0
C472 C 0.76858 0.84452 0.52154 0.0
H473 H 0.68316 0.85138 0.49277 0.0
H474 H 0.7111 0.8515 0.53464 0.0
C475 C 0.79144 0.84015 0.50023 0.0
C476 C 0.87505 0.01281 0.25854 0.0
C477 C 0.90973 0.02223 0.26953 0.0
H478 H 0.84678 0.98507 0.22819 0.0
C479 C 0.94337 0.01126 0.25772 0.0
H480 H 0.84876 0.02061 0.2675 0.0
C481 C 0.94223 0.99178 0.23485 0.0
C482 C 0.90745 0.98172 0.22419 0.0
H483 H 0.9704 0.01814 0.26602 0.0
H484 H 0.9684 0.98407 0.22571 0.0
C485 C 0.87391 0.99218 0.23627 0.0
C486 C 0.75829 0.19158 0.98784 0.0
C487 C 0.77005 0.15816 0.97611 0.0
H488 H 0.73057 0.2162 0.01978 0.0
C489 C 0.76164 0.12338 0.98727 0.0
H490 H 0.76434 0.21868 0.97942 0.0
C491 C 0.74118 0.12194 0.0096 0.0
C492 C 0.72985 0.15528 0.02156 0.0
H493 H 0.77003 0.09723 0.97837 0.0
H494 H 0.73483 0.09474 0.01778 0.0
C495 C 0.73895 0.19017 0.01074 0.0
C496 C 0.91102 0.54477 0.74881 0.0
C497 C 0.91222 0.5223 0.72712 0.0
H498 H 0.90948 0.54604 0.78902 0.0
C499 C 0.9137 0.48292 0.72961 0.0
H500 H 0.90993 0.57519 0.7474 0.0
C501 C 0.91293 0.46625 0.75334 0.0
C502 C 0.91131 0.48867 0.77502 0.0
H503 H 0.91454 0.46489 0.7132 0.0
H504 H 0.91333 0.43581 0.7547 0.0
C505 C 0.91089 0.52809 0.77258 0.0
C506 C 0.72448 0.66109 0.01858 0.0
C507 C 0.76391 0.66013 0.0211 0.0
H508 H 0.67737 0.66201 0.99344 0.0
C509 C 0.78645 0.66125 -0.00054 0.0
H510 H 0.70639 0.66021 0.03497 0.0
C511 C 0.76979 0.66282 0.97569 0.0
C512 C 0.73033 0.66271 0.97318 0.0
H513 H 0.81691 0.66064 0.00089 0.0
H514 H 0.7878 0.66311 0.95926 0.0
C515 C 0.70784 0.66209 0.99484 0.0
C516 C 0.63703 0.51072 0.25749 0.0
C517 C 0.60322 0.51988 0.26978 0.0
H518 H 0.66279 0.48329 0.22591 0.0
C519 C 0.5688 0.50848 0.2592 0.0
H520 H 0.66393 0.51886 0.26545 0.0
C521 C 0.56812 0.48879 0.23649 0.0
C522 C 0.6019 0.47914 0.22436 0.0
H523 H 0.54237 0.51508 0.2684 0.0
H524 H 0.54117 0.48085 0.22849 0.0
C525 C 0.63639 0.49004 0.2351 0.0
C526 C 0.7144 0.34828 0.50224 0.0
C527 C 0.73744 0.34836 0.52365 0.0
H528 H 0.712 0.34744 0.46208 0.0
C529 C 0.77682 0.34745 0.52071 0.0
H530 H 0.68398 0.3489 0.50397 0.0
C531 C 0.79289 0.34707 0.49676 0.0
C532 C 0.76985 0.34701 0.47535 0.0
H533 H 0.79526 0.3476 0.53693 0.0
H534 H 0.82332 0.34681 0.49501 0.0
C535 C 0.73046 0.34732 0.4783 0.0
C536 C 0.13203 0.48673 0.25739 0.0
C537 C 0.09831 0.47741 0.26968 0.0
H538 H 0.15747 0.51163 0.22486 0.0
C539 C 0.06371 0.48558 0.25813 0.0
H540 H 0.15903 0.481 0.26609 0.0
C541 C 0.06283 0.50224 0.23439 0.0
C542 C 0.09652 0.51217 0.22229 0.0
H543 H 0.03737 0.4787 0.26735 0.0
H544 H 0.03583 0.50779 0.22562 0.0
C545 C 0.13113 0.50454 0.234 0.0
C546 C 0.26317 0.3087 0.00743 0.0
C547 C 0.27147 0.34227 0.02026 0.0
H548 H 0.23863 0.28362 0.97455 0.0
C549 C 0.26031 0.37683 0.00991 0.0
H550 H 0.27142 0.28173 0.01519 0.0
C551 C 0.24039 0.37778 0.98732 0.0
C552 C 0.2324 0.34428 0.97436 0.0
H553 H 0.26606 0.40303 0.01964 0.0
H554 H 0.23179 0.40476 0.97976 0.0
C555 C 0.24438 0.30975 0.98436 0.0
C556 C 0.43732 0.5075 0.76179 0.0
C557 C 0.40306 0.52015 0.77189 0.0
H558 H 0.46465 0.47952 0.73105 0.0
C559 C 0.36928 0.51253 0.75912 0.0
H560 H 0.46366 0.51294 0.77143 0.0
C561 C 0.36971 0.49228 0.73663 0.0
C562 C 0.40402 0.48037 0.72622 0.0
H563 H 0.34248 0.52163 0.76677 0.0
H564 H 0.34331 0.4868 0.72706 0.0
C565 C 0.43785 0.48833 0.73885 0.0
C566 C 0.24448 0.61732 0.50907 0.0
C567 C 0.23605 0.65169 0.52084 0.0
H568 H 0.26999 0.59 0.47739 0.0
C569 C 0.24659 0.68556 0.50924 0.0
H570 H 0.23695 0.59084 0.51784 0.0
C571 C 0.26469 0.68509 0.48595 0.0
C572 C 0.27367 0.65073 0.47436 0.0
H573 H 0.24048 0.71238 0.51807 0.0
H574 H 0.27201 0.71158 0.47711 0.0
C575 C 0.26369 0.61683 0.48615 0.0
C576 C 0.27955 0.9806 0.12637 0.0
C577 C 0.31802 0.97143 0.12577 0.0
H578 H 0.22293 0.96152 0.12189 0.0
C579 C 0.32877 0.93416 0.12041 0.0
H580 H 0.27035 0.00901 0.13058 0.0
C581 C 0.30134 0.90661 0.11567 0.0
C582 C 0.26288 0.91608 0.11607 0.0
H583 H 0.35826 0.92628 0.12006 0.0
H584 H 0.31022 0.87816 0.1113 0.0
C585 C 0.25234 0.95331 0.12152 0.0
C586 C 0.26656 0.03462 0.3809 0.0
C587 C 0.27449 0.07316 0.37828 0.0
H588 H 0.28686 0.97827 0.37808 0.0
C589 C 0.31087 0.08434 0.37095 0.0
H590 H 0.23888 0.02507 0.38666 0.0
C591 C 0.33873 0.05724 0.36616 0.0
C592 C 0.33047 0.01868 0.36861 0.0
H593 H 0.31781 0.1139 0.36901 0.0
H594 H 0.36644 0.0664 0.36019 0.0
C595 C 0.29418 0.00775 0.37612 0.0
C596 C 0.21571 0.00845 0.62263 0.0
C597 C 0.17803 0.0191 0.62636 0.0
H598 H 0.27195 0.02603 0.61474 0.0
C599 C 0.16832 0.05743 0.62492 0.0
H600 H 0.22411 0.97915 0.62367 0.0
C601 C 0.1961 0.08462 0.62005 0.0
C602 C 0.23381 0.07373 0.61638 0.0
H603 H 0.13951 0.06641 0.62795 0.0
H604 H 0.18805 0.11399 0.61897 0.0
C605 C 0.2432 0.03538 0.61763 0.0
C606 C 0.19473 0.96445 0.84579 0.0
C607 C 0.17374 0.98367 0.86416 0.0
H608 H 0.23729 0.92299 0.83833 0.0
C609 C 0.17917 0.97504 0.88958 0.0
H610 H 0.19079 0.9706 0.82603 0.0
C611 C 0.20643 0.94868 0.89658 0.0
C612 C 0.2277 0.92975 0.87822 0.0
H613 H 0.16333 0.98959 0.90402 0.0
H614 H 0.21098 0.94316 0.91636 0.0
C615 C 0.22112 0.93721 0.85276 0.0
C616 C 0.70675 0.0617 0.90031 0.0
C617 C 0.72678 0.08162 0.8818 0.0
H618 H 0.66467 0.01983 0.90802 0.0
C619 C 0.71851 0.07543 0.8564 0.0
H620 H 0.71262 0.06622 0.92006 0.0
C621 C 0.69192 0.04827 0.84958 0.0
C622 C 0.67243 0.02781 0.86807 0.0
H623 H 0.73368 0.09041 0.84185 0.0
H624 H 0.68687 0.04294 0.82981 0.0
C625 C 0.67931 0.03537 0.89349 0.0
C626 C 0.67073 0.94811 0.62832 0.0
C627 C 0.68123 0.9861 0.63053 0.0
H628 H 0.68909 0.89156 0.62107 0.0
C629 C 0.71914 0.99622 0.62697 0.0
H630 H 0.64174 0.93955 0.63118 0.0
C631 C 0.74602 0.96898 0.62107 0.0
C632 C 0.73567 0.93097 0.619 0.0
H633 H 0.72808 0.02529 0.62867 0.0
H634 H 0.77498 0.97769 0.6182 0.0
C635 C 0.69783 0.92068 0.62278 0.0
C636 C 0.79225 0.95396 0.39712 0.0
C637 C 0.77494 0.9309 0.379 0.0
H638 H 0.83301 0.99736 0.40432 0.0
C639 C 0.78631 0.93346 0.35385 0.0
H640 H 0.78408 0.9522 0.41669 0.0
C641 C 0.81351 0.9598 0.34675 0.0
C642 C 0.83059 0.98308 0.36482 0.0
H643 H 0.77335 0.91594 0.33958 0.0
H644 H 0.82108 0.96211 0.3271 0.0
C645 C 0.82034 0.9795 0.39013 0.0
C646 C 0.77595 0.06629 0.1414 0.0
C647 C 0.76922 0.07305 0.11587 0.0
H648 H 0.80651 0.03377 0.16848 0.0
C649 C 0.79079 0.05397 0.09772 0.0
H650 H 0.7596 0.08061 0.1557 0.0
C651 C 0.81823 0.02794 0.105 0.0
C652 C 0.82368 0.01986 0.1305 0.0
H653 H 0.78617 0.05891 0.07788 0.0
H654 H 0.83408 0.0131 0.09069 0.0
C655 C 0.80261 0.03947 0.14866 0.0
C656 C 0.80797 0.4238 0.62309 0.0
C657 C 0.76985 0.43393 0.62084 0.0
H658 H 0.86443 0.44271 0.63009 0.0
C659 C 0.75929 0.47164 0.62439 0.0
H660 H 0.81684 0.39493 0.62021 0.0
C661 C 0.78634 0.49877 0.63032 0.0
C662 C 0.82452 0.4888 0.63223 0.0
H663 H 0.73007 0.48016 0.62269 0.0
H664 H 0.7774 0.52763 0.63319 0.0
C665 C 0.83518 0.45113 0.62849 0.0
C666 C 0.80802 0.5257 0.89266 0.0
C667 C 0.81576 0.51775 0.86739 0.0
H668 H 0.77433 0.5574 0.91855 0.0
C669 C 0.79597 0.53693 0.84846 0.0
H670 H 0.82297 0.51116 0.90751 0.0
C671 C 0.76913 0.56415 0.85472 0.0
C672 C 0.7608 0.57148 0.87998 0.0
H673 H 0.80174 0.53132 0.82883 0.0
H674 H 0.75443 0.57894 0.83987 0.0
C675 C 0.78022 0.55192 0.89891 0.0
C676 C 0.7384 0.52936 0.11129 0.0
C677 C 0.73023 0.56783 0.11394 0.0
H678 H 0.71847 0.47281 0.11494 0.0
C679 C 0.69394 0.57881 0.12159 0.0
H680 H 0.76608 0.5201 0.1053 0.0
C681 C 0.66636 0.55166 0.12665 0.0
C682 C 0.67489 0.51316 0.12449 0.0
H683 H 0.68682 0.60833 0.12354 0.0
H684 H 0.63875 0.56074 0.13287 0.0
C685 C 0.7111 0.50231 0.11669 0.0
C686 C 0.74623 0.47037 0.3794 0.0
C687 C 0.73651 0.43206 0.37963 0.0
H688 H 0.72776 0.52688 0.37316 0.0
C689 C 0.6992 0.42143 0.3743 0.0
H690 H 0.77476 0.47934 0.38355 0.0
C691 C 0.67204 0.44878 0.36882 0.0
C692 C 0.682 0.48704 0.36822 0.0
H693 H 0.69093 0.39207 0.37459 0.0
H694 H 0.64352 0.43994 0.36455 0.0
C695 C 0.71931 0.49756 0.37356 0.0
C696 C 0.21693 0.50732 0.36989 0.0
C697 C 0.17906 0.51791 0.367 0.0
H698 H 0.27334 0.52491 0.37728 0.0
C699 C 0.16923 0.55612 0.36926 0.0
H700 H 0.22544 0.47813 0.36816 0.0
C701 C 0.19701 0.58324 0.37424 0.0
C702 C 0.23487 0.5724 0.37721 0.0
H703 H 0.14025 0.56505 0.3669 0.0
H704 H 0.18884 0.6125 0.37608 0.0
C705 C 0.24445 0.53419 0.375 0.0
C706 C 0.19163 0.40659 0.11882 0.0
C707 C 0.22953 0.41759 0.11625 0.0
H708 H 0.13456 0.42461 0.12529 0.0
C709 C 0.23876 0.45594 0.11804 0.0
H710 H 0.1837 0.37722 0.11728 0.0
C711 C 0.21093 0.48277 0.12239 0.0
C712 C 0.17305 0.47203 0.125 0.0
H713 H 0.26764 0.46539 0.11601 0.0
H714 H 0.21925 0.51205 0.12385 0.0
C715 C 0.16353 0.43368 0.12312 0.0
C716 C 0.31775 0.47375 0.89188 0.0
C717 C 0.32338 0.48191 0.86641 0.0
H718 H 0.28618 0.44184 0.91876 0.0
C719 C 0.30328 0.46163 0.8481 0.0
H720 H 0.33293 0.4891 0.90628 0.0
C721 C 0.2774 0.43396 0.85516 0.0
C722 C 0.27047 0.42706 0.88064 0.0
H723 H 0.3074 0.46738 0.8283 0.0
H724 H 0.26177 0.41907 0.84075 0.0
C725 C 0.29103 0.44689 0.89896 0.0
C726 C 0.33852 0.55698 0.62666 0.0
C727 C 0.32817 0.51885 0.62842 0.0
H728 H 0.31978 0.6137 0.62012 0.0
C729 C 0.29031 0.50872 0.62485 0.0
H730 H 0.3675 0.56556 0.62955 0.0
C731 C 0.26328 0.53598 0.61959 0.0
C732 C 0.27336 0.57413 0.61792 0.0
H733 H 0.28141 0.47959 0.62618 0.0
H734 H 0.23437 0.52706 0.61681 0.0
C735 C 0.31122 0.5845 0.62153 0.0
C736 C 0.34307 0.18546 0.14766 0.0
C737 C 0.35722 0.15998 0.12976 0.0
H738 H 0.32166 0.2411 0.15462 0.0
C739 C 0.35989 0.17137 0.10458 0.0
H740 H 0.34061 0.17736 0.1672 0.0
C741 C 0.34949 0.20771 0.09749 0.0
C742 C 0.33569 0.23336 0.11534 0.0
H743 H 0.37069 0.15239 0.09035 0.0
H744 H 0.35247 0.21576 0.07796 0.0
C745 C 0.33211 0.22182 0.14046 0.0
C746 C 0.06176 0.09165 0.39578 0.0
C747 C 0.08644 0.11003 0.37919 0.0
H748 H 0.007 0.06709 0.40098 0.0
C749 C 0.07456 0.11723 0.35449 0.0
H750 H 0.07028 0.08568 0.4149 0.0
C751 C 0.03838 0.10718 0.34669 0.0
C752 C 0.01355 0.08907 0.36328 0.0
H753 H 0.09295 0.13142 0.34129 0.0
H754 H 0.02978 0.11375 0.32767 0.0
C755 C 0.02569 0.08089 0.3878 0.0
C756 C 0.14295 0.82118 0.60589 0.0
C757 C 0.1452 0.83209 0.63121 0.0
H758 H 0.15194 0.77769 0.57877 0.0
C759 C 0.1605 0.80684 0.64879 0.0
H760 H 0.13137 0.84001 0.59187 0.0
C761 C 0.17278 0.77107 0.64117 0.0
C762 C 0.16948 0.75992 0.61593 0.0
H763 H 0.1627 0.81458 0.66842 0.0
H764 H 0.18392 0.75187 0.65511 0.0
C765 C 0.15474 0.78545 0.59837 0.0
C766 C 0.46417 0.90797 0.84891 0.0
C767 C 0.49024 0.92145 0.8666 0.0
H768 H 0.4085 0.88716 0.84222 0.0
C769 C 0.47908 0.92521 0.89181 0.0
H770 H 0.47198 0.90491 0.82934 0.0
C771 C 0.44279 0.91438 0.89931 0.0
C772 C 0.41693 0.9004 0.88161 0.0
H773 H 0.49872 0.93541 0.90583 0.0
H774 H 0.4351 0.91664 0.91894 0.0
C775 C 0.42779 0.89791 0.85629 0.0
C776 C 0.35781 0.78129 0.39572 0.0
C777 C 0.34121 0.75622 0.37856 0.0
H778 H 0.38228 0.83549 0.40176 0.0
C779 C 0.3361 0.76771 0.35354 0.0
H780 H 0.36209 0.77328 0.41514 0.0
C781 C 0.34812 0.80346 0.34575 0.0
C782 C 0.36503 0.82833 0.36295 0.0
H783 H 0.32352 0.74885 0.3399 0.0
H784 H 0.34428 0.81157 0.32631 0.0
C785 C 0.36941 0.81697 0.38804 0.0
C786 C 0.43347 0.11328 0.63946 0.0
C787 C 0.42308 0.10999 0.6141 0.0
H788 H 0.47687 0.10674 0.66694 0.0
C789 C 0.44934 0.09562 0.59679 0.0
H790 H 0.41389 0.12428 0.65324 0.0
C791 C 0.4855 0.08506 0.60476 0.0
C792 C 0.49604 0.08929 0.63005 0.0
H793 H 0.44202 0.09273 0.57713 0.0
H794 H 0.50541 0.07443 0.59106 0.0
C795 C 0.4696 0.1033 0.6473 0.0
C796 C 0.15725 0.19891 0.84627 0.0
C797 C 0.14287 0.1725 0.8634 0.0
H798 H 0.17867 0.25489 0.84089 0.0
C799 C 0.13979 0.18247 0.88886 0.0
H800 H 0.15996 0.19189 0.82655 0.0
C801 C 0.14978 0.21852 0.89693 0.0
C802 C 0.1638 0.24509 0.87982 0.0
H803 H 0.1287 0.16272 0.90248 0.0
H804 H 0.14634 0.22565 0.91659 0.0
C805 C 0.16804 0.23483 0.85448 0.0
C806 C 0.05027 0.90143 0.09627 0.0
C807 C 0.07465 0.88232 0.1127 0.0
H808 H 0.99654 0.9284 0.09163 0.0
C809 C 0.06324 0.87612 0.13761 0.0
H810 H 0.05846 0.9067 0.07699 0.0
C811 C 0.02792 0.8881 0.14585 0.0
C812 C 0.00342 0.90706 0.12949 0.0
H813 H 0.08141 0.86146 0.15071 0.0
H814 H 0.01978 0.8824 0.16509 0.0
C815 C 0.015 0.91399 0.10467 0.0
C816 C 0.65759 0.79113 0.8987 0.0
C817 C 0.66903 0.76436 0.88085 0.0
H818 H 0.63802 0.8472 0.90542 0.0
C819 C 0.67106 0.77477 0.85544 0.0
H820 H 0.6559 0.78385 0.91843 0.0
C821 C 0.66017 0.81094 0.84791 0.0
C822 C 0.64781 0.8374 0.86574 0.0
H823 H 0.67966 0.75457 0.8413 0.0
H824 H 0.66083 0.81799 0.82812 0.0
C825 C 0.64743 0.8274 0.89125 0.0
C826 C 0.96969 0.89332 0.64513 0.0
C827 C 0.99299 0.91368 0.6287 0.0
H828 H 0.91642 0.8668 0.65101 0.0
C829 C 0.97906 0.92365 0.60489 0.0
H830 H 0.97955 0.88523 0.66361 0.0
C831 C 0.94267 0.91275 0.59754 0.0
C832 C 0.9196 0.89208 0.614 0.0
H833 H 0.99645 0.93931 0.59184 0.0
H834 H 0.93268 0.92034 0.579 0.0
C835 C 0.93342 0.88279 0.63792 0.0
C836 C 0.83907 0.21349 0.39637 0.0
C837 C 0.83044 0.24179 0.37892 0.0
H838 H 0.85756 0.15689 0.40217 0.0
C839 C 0.83217 0.23351 0.35313 0.0
H840 H 0.83784 0.21907 0.41636 0.0
C841 C 0.84398 0.19793 0.34496 0.0
C842 C 0.85368 0.16999 0.36247 0.0
H843 H 0.82575 0.25489 0.33928 0.0
H844 H 0.84621 0.19255 0.32498 0.0
C845 C 0.85033 0.17787 0.38823 0.0
C846 C 0.55159 0.08379 0.09295 0.0
C847 C 0.57881 0.09337 0.11106 0.0
H848 H 0.49466 0.06597 0.08604 0.0
C849 C 0.56954 0.09046 0.13662 0.0
H850 H 0.55803 0.08572 0.0731 0.0
C851 C 0.53335 0.07974 0.14396 0.0
C852 C 0.50581 0.0711 0.12592 0.0
H853 H 0.58988 0.09766 0.15103 0.0
H854 H 0.52678 0.07877 0.16383 0.0
C855 C 0.51542 0.07242 0.10033 0.0
C856 C 0.67295 0.23474 0.64413 0.0
C857 C 0.67264 0.24442 0.61854 0.0
H858 H 0.66036 0.19256 0.67174 0.0
C859 C 0.66088 0.21759 0.60081 0.0
H860 H 0.68175 0.25498 0.65819 0.0
C861 C 0.6489 0.18203 0.6085 0.0
C862 C 0.64805 0.17263 0.63412 0.0
H863 H 0.66041 0.22423 0.58096 0.0
H864 H 0.63956 0.16215 0.59436 0.0
C865 C 0.66056 0.19914 0.65187 0.0
C866 C 0.5256 0.92667 0.39062 0.0
C867 C 0.51466 0.92262 0.3654 0.0
H868 H 0.56961 0.91894 0.41784 0.0
C869 C 0.54128 0.91029 0.3477 0.0
H870 H 0.50556 0.93607 0.40463 0.0
C871 C 0.57778 0.90099 0.35514 0.0
C872 C 0.58836 0.90331 0.3805 0.0
H873 H 0.5337 0.90714 0.3281 0.0
H874 H 0.59732 0.89075 0.34107 0.0
C875 C 0.56216 0.91682 0.39816 0.0
C876 C 0.82702 0.76684 0.14319 0.0
C877 C 0.82557 0.75813 0.11745 0.0
H878 H 0.83965 0.80871 0.17107 0.0
C879 C 0.83311 0.78652 0.09983 0.0
H880 H 0.82136 0.74541 0.15716 0.0
C881 C 0.84302 0.82264 0.10773 0.0
C882 C 0.84614 0.83103 0.13343 0.0
H883 H 0.83199 0.78065 0.07987 0.0
H884 H 0.84948 0.84366 0.09364 0.0
C885 C 0.83752 0.80297 0.15113 0.0
C886 C 0.979 0.08068 0.88903 0.0
C887 C 0.98913 0.08524 0.8637 0.0
H888 H 0.93639 0.08872 0.91714 0.0
C889 C 0.96238 0.09935 0.84671 0.0
H890 H 0.99916 0.06997 0.90253 0.0
C891 C 0.92641 0.10943 0.85496 0.0
C892 C 0.9167 0.10631 0.88045 0.0
H893 H 0.96941 0.10304 0.82706 0.0
H894 H 0.90659 0.12082 0.84147 0.0
C895 C 0.94318 0.0915 0.89739 0.0
C896 C 0.83014 0.73177 0.64275 0.0
C897 C 0.83103 0.74123 0.61713 0.0
H898 H 0.84277 0.69013 0.67071 0.0
C899 C 0.84339 0.7143 0.59966 0.0
H900 H 0.82082 0.75206 0.65663 0.0
C901 C 0.8558 0.67905 0.60766 0.0
C902 C 0.85635 0.67001 0.63333 0.0
H903 H 0.84425 0.72074 0.57978 0.0
H904 H 0.86582 0.6592 0.59371 0.0
C905 C 0.84282 0.69644 0.6508 0.0
C906 C 0.55408 0.59118 0.89663 0.0
C907 C 0.57825 0.61024 0.88005 0.0
H908 H 0.49962 0.56609 0.90205 0.0
C909 C 0.5659 0.61774 0.85549 0.0
H910 H 0.56294 0.58497 0.91565 0.0
C911 C 0.52975 0.60739 0.84785 0.0
C912 C 0.50532 0.58884 0.86447 0.0
H913 H 0.58388 0.6324 0.84228 0.0
H914 H 0.52082 0.61423 0.82893 0.0
C915 C 0.51796 0.5803 0.88883 0.0
C916 C 0.65634 0.30054 0.14851 0.0
C917 C 0.6378 0.32513 0.13194 0.0
H918 H 0.68105 0.24584 0.15364 0.0
C919 C 0.6301 0.31301 0.10735 0.0
H920 H 0.66269 0.30923 0.16756 0.0
C921 C 0.6401 0.2769 0.09954 0.0
C922 C 0.65855 0.25221 0.11602 0.0
H923 H 0.61578 0.33129 0.09415 0.0
H924 H 0.63333 0.26831 0.08053 0.0
C925 C 0.66695 0.26442 0.14053 0.0
C926 C 0.94525 0.40998 0.39902 0.0
C927 C 0.92021 0.39305 0.38192 0.0
H928 H 1.00039 0.43349 0.40484 0.0
C929 C 0.93174 0.38783 0.35693 0.0
H930 H 0.93705 0.41442 0.41839 0.0
C931 C 0.9678 0.39839 0.34929 0.0
C932 C 0.99312 0.41479 0.36638 0.0
H933 H 0.91312 0.37489 0.34328 0.0
H934 H 0.97595 0.39338 0.32996 0.0
C935 C 0.98139 0.42097 0.39126 0.0
C936 C 0.8637 0.32364 0.89183 0.0
C937 C 0.85564 0.3362 0.86741 0.0
H938 H 0.86076 0.27839 0.91821 0.0
C939 C 0.83611 0.31223 0.8509 0.0
H940 H 0.87874 0.34145 0.90499 0.0
C941 C 0.82531 0.27611 0.85865 0.0
C942 C 0.83444 0.26326 0.88287 0.0
H943 H 0.82947 0.32127 0.83198 0.0
H944 H 0.81074 0.25791 0.8455 0.0
C945 C 0.85347 0.28748 0.89941 0.0
C946 C 0.96186 0.5935 0.14502 0.0
C947 C 0.98645 0.57718 0.12743 0.0
H948 H 0.90817 0.61877 0.15179 0.0
C949 C 0.97431 0.57289 0.10246 0.0
H950 H 0.97034 0.59712 0.16442 0.0
C951 C 0.93857 0.58571 0.09511 0.0
C952 C 0.91432 0.60266 0.11269 0.0
H953 H 0.99274 0.56052 0.08849 0.0
H954 H 0.9301 0.58272 0.07566 0.0
C955 C 0.92619 0.60592 0.13777 0.0
C956 C 0.66214 0.6992 0.34501 0.0
C957 C 0.64637 0.67367 0.36221 0.0
H958 H 0.68555 0.75435 0.33939 0.0
C959 C 0.64288 0.68437 0.38751 0.0
H960 H 0.66528 0.69162 0.32541 0.0
C961 C 0.65409 0.72011 0.39541 0.0
C962 C 0.66951 0.74583 0.37826 0.0
H963 H 0.63086 0.66533 0.40123 0.0
H964 H 0.65042 0.72768 0.41497 0.0
C965 C 0.67389 0.73496 0.35302 0.0
C966 C 0.5742 0.38961 0.64108 0.0
C967 C 0.58639 0.39567 0.61633 0.0
H968 H 0.52919 0.39402 0.66754 0.0
C969 C 0.56176 0.41296 0.59916 0.0
H970 H 0.5925 0.37637 0.65476 0.0
C971 C 0.52533 0.42343 0.6066 0.0
C972 C 0.51294 0.41637 0.63122 0.0
H973 H 0.57048 0.41802 0.57996 0.0
H974 H 0.50664 0.43622 0.59297 0.0
C975 C 0.53786 0.39968 0.64841 0.0
C976 C 0.15991 0.30554 0.34598 0.0
C977 C 0.14433 0.33076 0.3635 0.0
H978 H 0.18376 0.25074 0.33976 0.0
C979 C 0.14183 0.31992 0.3888 0.0
H980 H 0.16231 0.31325 0.32637 0.0
C981 C 0.15376 0.28427 0.39638 0.0
C982 C 0.16888 0.25882 0.37888 0.0
H983 H 0.13001 0.33874 0.40275 0.0
H984 H 0.15081 0.27655 0.41596 0.0
C985 C 0.17233 0.2699 0.35365 0.0
C986 C 0.42978 0.38301 0.13973 0.0
C987 C 0.41902 0.38562 0.1144 0.0
H988 H 0.47312 0.39183 0.16702 0.0
C989 C 0.44433 0.40136 0.09701 0.0
H990 H 0.41089 0.37106 0.15358 0.0
C991 C 0.47997 0.41378 0.10482 0.0
C992 C 0.49099 0.41016 0.13006 0.0
H993 H 0.4367 0.40384 0.07739 0.0
H994 H 0.4992 0.42528 0.09102 0.0
C995 C 0.46543 0.39492 0.14744 0.0
C996 C 0.32545 0.73434 0.85435 0.0
C997 C 0.32994 0.74529 0.87954 0.0
H998 H 0.33296 0.69052 0.82698 0.0
C999 C 0.34337 0.71897 0.89703 0.0
H1000 H 0.31522 0.75417 0.84049 0.0
C1001 C 0.35281 0.68256 0.88944 0.0
C1002 C 0.34973 0.67193 0.8641 0.0
H1003 H 0.34693 0.72663 0.91659 0.0
H1004 H 0.36365 0.66308 0.90332 0.0
C1005 C 0.33566 0.69803 0.84663 0.0
C1006 C 0.04034 0.60205 0.64843 0.0
C1007 C 0.0136 0.58872 0.63113 0.0
H1008 H 0.09603 0.62321 0.65426 0.0
C1009 C 0.0236 0.58583 0.60565 0.0
H1010 H 0.03346 0.60454 0.66818 0.0
C1011 C 0.05949 0.59698 0.59758 0.0
C1012 C 0.08604 0.61073 0.61492 0.0
H1013 H 0.00344 0.57577 0.59191 0.0
H1014 H 0.06637 0.59506 0.5778 0.0
C1015 C 0.07621 0.61273 0.64044 0.0
C1016 C 0.1527 0.68474 0.14565 0.0
C1017 C 0.1367 0.65953 0.12828 0.0
H1018 H 0.17589 0.73988 0.15177 0.0
C1019 C 0.13276 0.67073 0.10314 0.0
H1020 H 0.15617 0.67677 0.16514 0.0
C1021 C 0.14365 0.70672 0.09559 0.0
C1022 C 0.15918 0.73217 0.11294 0.0
H1023 H 0.12056 0.65193 0.08931 0.0
H1024 H 0.1396 0.71471 0.07614 0.0
C1025 C 0.16411 0.72073 0.13799 0.0
C1026 C 0.05519 0.41528 0.90118 0.0
C1027 C 0.08188 0.40335 0.88336 0.0
H1028 H 0.99882 0.43508 0.9076 0.0
C1029 C 0.07237 0.40416 0.85776 0.0
H1030 H 0.06187 0.41504 0.92104 0.0
C1031 C 0.03636 0.41502 0.85017 0.0
C1032 C 0.00933 0.42599 0.86796 0.0
H1033 H 0.09234 0.39513 0.84359 0.0
H1034 H 0.02947 0.41419 0.83035 0.0
C1035 C 0.01926 0.42689 0.89351 0.0
C1036 C 0.35387 0.28424 0.59945 0.0
C1037 C 0.33903 0.25833 0.61673 0.0
H1038 H 0.37681 0.33912 0.59346 0.0
C1039 C 0.33531 0.26908 0.64203 0.0
H1040 H 0.35702 0.27681 0.57982 0.0
C1041 C 0.34714 0.30485 0.64996 0.0
C1042 C 0.3624 0.33053 0.63264 0.0
H1043 H 0.3241 0.24957 0.65576 0.0
H1044 H 0.34454 0.31232 0.66961 0.0
C1045 C 0.36521 0.31997 0.60728 0.0
C1046 C 0.48619 0.58296 0.39023 0.0
C1047 C 0.49702 0.5876 0.36502 0.0
H1048 H 0.44241 0.59011 0.41769 0.0
C1049 C 0.47073 0.60177 0.34774 0.0
H1050 H 0.50597 0.57219 0.40395 0.0
C1051 C 0.43449 0.61155 0.35549 0.0
C1052 C 0.42383 0.60788 0.38078 0.0
H1053 H 0.47823 0.60554 0.32818 0.0
H1054 H 0.41503 0.62273 0.3417 0.0
C1055 C 0.44993 0.5933 0.39809 0.0
loop_
_geom_bond_atom_site_label_1
_geom_bond_atom_site_label_2
_geom_bond_distance
_geom_bond_site_symmetry_2
_ccdc_geom_bond_type
In0 O1 2.294 . S
In0 O2 2.326 . S
In0 O6 2.266 . S
In0 O7 2.326 . S
In0 O8 2.266 . S
In0 O9 2.326 . S
In0 O11 2.294 . S
In0 O12 2.326 . S
O1 In0 2.294 . S
O1 C10 1.240 . S
O2 In0 2.326 . S
O2 C10 1.252 . S
C3 O6 1.252 . S
C3 O7 1.260 . S
C4 O11 1.240 . S
C4 O12 1.252 . S
C5 O8 1.252 . S
C5 O9 1.260 . S
O6 In0 2.266 . S
O6 C3 1.252 . S
O7 In0 2.326 . S
O7 C3 1.260 . S
O8 In0 2.266 . S
O8 C5 1.252 . S
O9 In0 2.326 . S
O9 C5 1.260 . S
C10 O1 1.240 . S
C10 O2 1.252 . S
O11 In0 2.294 . S
O11 C4 1.240 . S
O12 In0 2.326 . S
O12 C4 1.252 . S
In13 O14 2.294 . S
In13 O15 2.326 . S
In13 O19 2.266 . S
In13 O20 2.326 . S
In13 O21 2.266 . S
In13 O22 2.326 . S
In13 O24 2.294 . S
In13 O25 2.326 . S
O14 In13 2.294 . S
O14 C23 1.240 . S
O15 In13 2.326 . S
O15 C23 1.252 . S
C16 O19 1.252 . S
C16 O20 1.260 . S
C17 O24 1.240 . S
C17 O25 1.252 . S
C18 O21 1.252 . S
C18 O22 1.260 . S
O19 In13 2.266 . S
O19 C16 1.252 . S
O20 In13 2.326 . S
O20 C16 1.260 . S
O21 In13 2.266 . S
O21 C18 1.252 . S
O22 In13 2.326 . S
O22 C18 1.260 . S
C23 O14 1.240 . S
C23 O15 1.252 . S
O24 In13 2.294 . S
O24 C17 1.240 . S
O25 In13 2.326 . S
O25 C17 1.252 . S
In26 O27 2.294 . S
In26 O28 2.326 . S
In26 O32 2.266 . S
In26 O33 2.326 . S
In26 O34 2.266 . S
In26 O35 2.326 . S
In26 O37 2.294 . S
In26 O38 2.326 . S
O27 In26 2.294 . S
O27 C36 1.240 . S
O28 In26 2.326 . S
O28 C36 1.252 . S
C29 O32 1.252 . S
C29 O33 1.260 . S
C30 O37 1.240 . S
C30 O38 1.252 . S
C31 O34 1.252 . S
C31 O35 1.260 . S
O32 In26 2.266 . S
O32 C29 1.252 . S
O33 In26 2.326 . S
O33 C29 1.260 . S
O34 In26 2.266 . S
O34 C31 1.252 . S
O35 In26 2.326 . S
O35 C31 1.260 . S
C36 O27 1.240 . S
C36 O28 1.252 . S
O37 In26 2.294 . S
O37 C30 1.240 . S
O38 In26 2.326 . S
O38 C30 1.252 . S
In39 O40 2.294 . S
In39 O41 2.326 . S
In39 O45 2.266 . S
In39 O46 2.326 . S
In39 O47 2.266 . S
In39 O48 2.326 . S
In39 O50 2.294 . S
In39 O51 2.326 . S
O40 In39 2.294 . S
O40 C49 1.240 . S
O41 In39 2.326 . S
O41 C49 1.252 . S
C42 O45 1.252 . S
C42 O46 1.260 . S
C43 O50 1.240 . S
C43 O51 1.252 . S
C44 O47 1.252 . S
C44 O48 1.260 . S
O45 In39 2.266 . S
O45 C42 1.252 . S
O46 In39 2.326 . S
O46 C42 1.260 . S
O47 In39 2.266 . S
O47 C44 1.252 . S
O48 In39 2.326 . S
O48 C44 1.260 . S
C49 O40 1.240 . S
C49 O41 1.252 . S
O50 In39 2.294 . S
O50 C43 1.240 . S
O51 In39 2.326 . S
O51 C43 1.252 . S
In52 O53 2.294 . S
In52 O54 2.326 . S
In52 O58 2.266 . S
In52 O59 2.326 . S
In52 O60 2.266 . S
In52 O61 2.326 . S
In52 O63 2.294 . S
In52 O64 2.326 . S
O53 In52 2.294 . S
O53 C62 1.240 . S
O54 In52 2.326 . S
O54 C62 1.252 . S
C55 O58 1.252 . S
C55 O59 1.260 . S
C56 O63 1.240 . S
C56 O64 1.252 . S
C57 O60 1.252 . S
C57 O61 1.260 . S
O58 In52 2.266 . S
O58 C55 1.252 . S
O59 In52 2.326 . S
O59 C55 1.260 . S
O60 In52 2.266 . S
O60 C57 1.252 . S
O61 In52 2.326 . S
O61 C57 1.260 . S
C62 O53 1.240 . S
C62 O54 1.252 . S
O63 In52 2.294 . S
O63 C56 1.240 . S
O64 In52 2.326 . S
O64 C56 1.252 . S
In65 O66 2.294 . S
In65 O67 2.326 . S
In65 O71 2.266 . S
In65 O72 2.326 . S
In65 O73 2.266 . S
In65 O74 2.326 . S
In65 O76 2.294 . S
In65 O77 2.326 . S
O66 In65 2.294 . S
O66 C75 1.240 . S
O67 In65 2.326 . S
O67 C75 1.252 . S
C68 O71 1.252 . S
C68 O72 1.260 . S
C69 O76 1.240 . S
C69 O77 1.252 . S
C70 O73 1.252 . S
C70 O74 1.260 . S
O71 In65 2.266 . S
O71 C68 1.252 . S
O72 In65 2.326 . S
O72 C68 1.260 . S
O73 In65 2.266 . S
O73 C70 1.252 . S
O74 In65 2.326 . S
O74 C70 1.260 . S
C75 O66 1.240 . S
C75 O67 1.252 . S
O76 In65 2.294 . S
O76 C69 1.240 . S
O77 In65 2.326 . S
O77 C69 1.252 . S
In78 O79 2.294 . S
In78 O80 2.326 . S
In78 O84 2.266 . S
In78 O85 2.326 . S
In78 O86 2.266 . S
In78 O87 2.326 . S
In78 O89 2.294 . S
In78 O90 2.326 . S
O79 In78 2.294 . S
O79 C88 1.240 . S
O80 In78 2.326 . S
O80 C88 1.252 . S
C81 O84 1.252 . S
C81 O85 1.260 . S
C82 O89 1.240 . S
C82 O90 1.252 . S
C83 O86 1.252 . S
C83 O87 1.260 . S
O84 In78 2.266 . S
O84 C81 1.252 . S
O85 In78 2.326 . S
O85 C81 1.260 . S
O86 In78 2.266 . S
O86 C83 1.252 . S
O87 In78 2.326 . S
O87 C83 1.260 . S
C88 O79 1.240 . S
C88 O80 1.252 . S
O89 In78 2.294 . S
O89 C82 1.240 . S
O90 In78 2.326 . S
O90 C82 1.252 . S
In91 O92 2.294 . S
In91 O93 2.326 . S
In91 O97 2.266 . S
In91 O98 2.326 . S
In91 O99 2.266 . S
In91 O100 2.326 . S
In91 O102 2.294 . S
In91 O103 2.326 . S
O92 In91 2.294 . S
O92 C101 1.240 . S
O93 In91 2.326 . S
O93 C101 1.252 . S
C94 O97 1.252 . S
C94 O98 1.260 . S
C95 O102 1.240 . S
C95 O103 1.252 . S
C96 O99 1.252 . S
C96 O100 1.260 . S
O97 In91 2.266 . S
O97 C94 1.252 . S
O98 In91 2.326 . S
O98 C94 1.260 . S
O99 In91 2.266 . S
O99 C96 1.252 . S
O100 In91 2.326 . S
O100 C96 1.260 . S
C101 O92 1.240 . S
C101 O93 1.252 . S
O102 In91 2.294 . S
O102 C95 1.240 . S
O103 In91 2.326 . S
O103 C95 1.252 . S
In104 O105 2.294 . S
In104 O106 2.326 . S
In104 O110 2.266 . S
In104 O111 2.326 . S
In104 O112 2.266 . S
In104 O113 2.326 . S
In104 O115 2.294 . S
In104 O116 2.326 . S
O105 In104 2.294 . S
O105 C114 1.240 . S
O106 In104 2.326 . S
O106 C114 1.252 . S
C107 O110 1.252 . S
C107 O111 1.260 . S
C108 O115 1.240 . S
C108 O116 1.252 . S
C109 O112 1.252 . S
C109 O113 1.260 . S
O110 In104 2.266 . S
O110 C107 1.252 . S
O111 In104 2.326 . S
O111 C107 1.260 . S
O112 In104 2.266 . S
O112 C109 1.252 . S
O113 In104 2.326 . S
O113 C109 1.260 . S
C114 O105 1.240 . S
C114 O106 1.252 . S
O115 In104 2.294 . S
O115 C108 1.240 . S
O116 In104 2.326 . S
O116 C108 1.252 . S
In117 O118 2.294 . S
In117 O119 2.326 . S
In117 O123 2.266 . S
In117 O124 2.326 . S
In117 O125 2.266 . S
In117 O126 2.326 . S
In117 O128 2.294 . S
In117 O129 2.326 . S
O118 In117 2.294 . S
O118 C127 1.240 . S
O119 In117 2.326 . S
O119 C127 1.252 . S
C120 O123 1.252 . S
C120 O124 1.260 . S
C121 O128 1.240 . S
C121 O129 1.252 . S
C122 O125 1.252 . S
C122 O126 1.260 . S
O123 In117 2.266 . S
O123 C120 1.252 . S
O124 In117 2.326 . S
O124 C120 1.260 . S
O125 In117 2.266 . S
O125 C122 1.252 . S
O126 In117 2.326 . S
O126 C122 1.260 . S
C127 O118 1.240 . S
C127 O119 1.252 . S
O128 In117 2.294 . S
O128 C121 1.240 . S
O129 In117 2.326 . S
O129 C121 1.252 . S
In130 O131 2.294 . S
In130 O132 2.326 . S
In130 O136 2.266 . S
In130 O137 2.326 . S
In130 O138 2.266 . S
In130 O139 2.326 . S
In130 O141 2.294 . S
In130 O142 2.326 . S
O131 In130 2.294 . S
O131 C140 1.240 . S
O132 In130 2.326 . S
O132 C140 1.252 . S
C133 O136 1.252 . S
C133 O137 1.260 . S
C134 O141 1.240 . S
C134 O142 1.252 . S
C135 O138 1.252 . S
C135 O139 1.260 . S
O136 In130 2.266 . S
O136 C133 1.252 . S
O137 In130 2.326 . S
O137 C133 1.260 . S
O138 In130 2.266 . S
O138 C135 1.252 . S
O139 In130 2.326 . S
O139 C135 1.260 . S
C140 O131 1.240 . S
C140 O132 1.252 . S
O141 In130 2.294 . S
O141 C134 1.240 . S
O142 In130 2.326 . S
O142 C134 1.252 . S
In143 O144 2.294 . S
In143 O145 2.326 . S
In143 O149 2.266 . S
In143 O150 2.326 . S
In143 O151 2.266 . S
In143 O152 2.326 . S
In143 O154 2.294 . S
In143 O155 2.326 . S
O144 In143 2.294 . S
O144 C153 1.240 . S
O145 In143 2.326 . S
O145 C153 1.252 . S
C146 O149 1.252 . S
C146 O150 1.260 . S
C147 O154 1.240 . S
C147 O155 1.252 . S
C148 O151 1.252 . S
C148 O152 1.260 . S
O149 In143 2.266 . S
O149 C146 1.252 . S
O150 In143 2.326 . S
O150 C146 1.260 . S
O151 In143 2.266 . S
O151 C148 1.252 . S
O152 In143 2.326 . S
O152 C148 1.260 . S
C153 O144 1.240 . S
C153 O145 1.252 . S
O154 In143 2.294 . S
O154 C147 1.240 . S
O155 In143 2.326 . S
O155 C147 1.252 . S
In156 O157 2.294 . S
In156 O158 2.326 . S
In156 O162 2.266 . S
In156 O163 2.326 . S
In156 O164 2.266 . S
In156 O165 2.326 . S
In156 O167 2.294 . S
In156 O168 2.326 . S
O157 In156 2.294 . S
O157 C166 1.240 . S
O158 In156 2.326 . S
O158 C166 1.252 . S
C159 O162 1.252 . S
C159 O163 1.260 . S
C160 O167 1.240 . S
C160 O168 1.252 . S
C161 O164 1.252 . S
C161 O165 1.260 . S
O162 In156 2.266 . S
O162 C159 1.252 . S
O163 In156 2.326 . S
O163 C159 1.260 . S
O164 In156 2.266 . S
O164 C161 1.252 . S
O165 In156 2.326 . S
O165 C161 1.260 . S
C166 O157 1.240 . S
C166 O158 1.252 . S
O167 In156 2.294 . S
O167 C160 1.240 . S
O168 In156 2.326 . S
O168 C160 1.252 . S
In169 O170 2.294 . S
In169 O171 2.326 . S
In169 O175 2.266 . S
In169 O176 2.326 . S
In169 O177 2.266 . S
In169 O178 2.326 . S
In169 O180 2.294 . S
In169 O181 2.326 . S
O170 In169 2.294 . S
O170 C179 1.240 . S
O171 In169 2.326 . S
O171 C179 1.252 . S
C172 O175 1.252 . S
C172 O176 1.260 . S
C173 O180 1.240 . S
C173 O181 1.252 . S
C174 O177 1.252 . S
C174 O178 1.260 . S
O175 In169 2.266 . S
O175 C172 1.252 . S
O176 In169 2.326 . S
O176 C172 1.260 . S
O177 In169 2.266 . S
O177 C174 1.252 . S
O178 In169 2.326 . S
O178 C174 1.260 . S
C179 O170 1.240 . S
C179 O171 1.252 . S
O180 In169 2.294 . S
O180 C173 1.240 . S
O181 In169 2.326 . S
O181 C173 1.252 . S
In182 O183 2.294 . S
In182 O184 2.326 . S
In182 O188 2.266 . S
In182 O189 2.326 . S
In182 O190 2.266 . S
In182 O191 2.326 . S
In182 O193 2.294 . S
In182 O194 2.326 . S
O183 In182 2.294 . S
O183 C192 1.240 . S
O184 In182 2.326 . S
O184 C192 1.252 . S
C185 O188 1.252 . S
C185 O189 1.260 . S
C186 O193 1.240 . S
C186 O194 1.252 . S
C187 O190 1.252 . S
C187 O191 1.260 . S
O188 In182 2.266 . S
O188 C185 1.252 . S
O189 In182 2.326 . S
O189 C185 1.260 . S
O190 In182 2.266 . S
O190 C187 1.252 . S
O191 In182 2.326 . S
O191 C187 1.260 . S
C192 O183 1.240 . S
C192 O184 1.252 . S
O193 In182 2.294 . S
O193 C186 1.240 . S
O194 In182 2.326 . S
O194 C186 1.252 . S
In195 O196 2.294 . S
In195 O197 2.326 . S
In195 O201 2.266 . S
In195 O202 2.326 . S
In195 O203 2.266 . S
In195 O204 2.326 . S
In195 O206 2.294 . S
In195 O207 2.326 . S
O196 In195 2.294 . S
O196 C205 1.240 . S
O197 In195 2.326 . S
O197 C205 1.252 . S
C198 O201 1.252 . S
C198 O202 1.260 . S
C199 O206 1.240 . S
C199 O207 1.252 . S
C200 O203 1.252 . S
C200 O204 1.260 . S
O201 In195 2.266 . S
O201 C198 1.252 . S
O202 In195 2.326 . S
O202 C198 1.260 . S
O203 In195 2.266 . S
O203 C200 1.252 . S
O204 In195 2.326 . S
O204 C200 1.260 . S
C205 O196 1.240 . S
C205 O197 1.252 . S
O206 In195 2.294 . S
O206 C199 1.240 . S
O207 In195 2.326 . S
O207 C199 1.252 . S
In208 O209 2.294 . S
In208 O210 2.326 . S
In208 O214 2.266 . S
In208 O215 2.326 . S
In208 O216 2.266 . S
In208 O217 2.326 . S
In208 O219 2.294 . S
In208 O220 2.326 . S
O209 In208 2.294 . S
O209 C218 1.240 . S
O210 In208 2.326 . S
O210 C218 1.252 . S
C211 O214 1.252 . S
C211 O215 1.260 . S
C212 O219 1.240 . S
C212 O220 1.252 . S
C213 O216 1.252 . S
C213 O217 1.260 . S
O214 In208 2.266 . S
O214 C211 1.252 . S
O215 In208 2.326 . S
O215 C211 1.260 . S
O216 In208 2.266 . S
O216 C213 1.252 . S
O217 In208 2.326 . S
O217 C213 1.260 . S
C218 O209 1.240 . S
C218 O210 1.252 . S
O219 In208 2.294 . S
O219 C212 1.240 . S
O220 In208 2.326 . S
O220 C212 1.252 . S
In221 O222 2.294 . S
In221 O223 2.326 . S
In221 O227 2.266 . S
In221 O228 2.326 . S
In221 O229 2.266 . S
In221 O230 2.326 . S
In221 O232 2.294 . S
In221 O233 2.326 . S
O222 In221 2.294 . S
O222 C231 1.240 . S
O223 In221 2.326 . S
O223 C231 1.252 . S
C224 O227 1.252 . S
C224 O228 1.260 . S
C225 O232 1.240 . S
C225 O233 1.252 . S
C226 O229 1.252 . S
C226 O230 1.260 . S
O227 In221 2.266 . S
O227 C224 1.252 . S
O228 In221 2.326 . S
O228 C224 1.260 . S
O229 In221 2.266 . S
O229 C226 1.252 . S
O230 In221 2.326 . S
O230 C226 1.260 . S
C231 O222 1.240 . S
C231 O223 1.252 . S
O232 In221 2.294 . S
O232 C225 1.240 . S
O233 In221 2.326 . S
O233 C225 1.252 . S
In234 O235 2.294 . S
In234 O236 2.326 . S
In234 O240 2.266 . S
In234 O241 2.326 . S
In234 O242 2.266 . S
In234 O243 2.326 . S
In234 O245 2.294 . S
In234 O246 2.326 . S
O235 In234 2.294 . S
O235 C244 1.240 . S
O236 In234 2.326 . S
O236 C244 1.252 . S
C237 O240 1.252 . S
C237 O241 1.260 . S
C238 O245 1.240 . S
C238 O246 1.252 . S
C239 O242 1.252 . S
C239 O243 1.260 . S
O240 In234 2.266 . S
O240 C237 1.252 . S
O241 In234 2.326 . S
O241 C237 1.260 . S
O242 In234 2.266 . S
O242 C239 1.252 . S
O243 In234 2.326 . S
O243 C239 1.260 . S
C244 O235 1.240 . S
C244 O236 1.252 . S
O245 In234 2.294 . S
O245 C238 1.240 . S
O246 In234 2.326 . S
O246 C238 1.252 . S
In247 O248 2.294 . S
In247 O249 2.326 . S
In247 O253 2.266 . S
In247 O254 2.326 . S
In247 O255 2.266 . S
In247 O256 2.326 . S
In247 O258 2.294 . S
In247 O259 2.326 . S
O248 In247 2.294 . S
O248 C257 1.240 . S
O249 In247 2.326 . S
O249 C257 1.252 . S
C250 O253 1.252 . S
C250 O254 1.260 . S
C251 O258 1.240 . S
C251 O259 1.252 . S
C252 O255 1.252 . S
C252 O256 1.260 . S
O253 In247 2.266 . S
O253 C250 1.252 . S
O254 In247 2.326 . S
O254 C250 1.260 . S
O255 In247 2.266 . S
O255 C252 1.252 . S
O256 In247 2.326 . S
O256 C252 1.260 . S
C257 O248 1.240 . S
C257 O249 1.252 . S
O258 In247 2.294 . S
O258 C251 1.240 . S
O259 In247 2.326 . S
O259 C251 1.252 . S
In260 O261 2.294 . S
In260 O262 2.326 . S
In260 O266 2.266 . S
In260 O267 2.326 . S
In260 O268 2.266 . S
In260 O269 2.326 . S
In260 O271 2.294 . S
In260 O272 2.326 . S
O261 In260 2.294 . S
O261 C270 1.240 . S
O262 In260 2.326 . S
O262 C270 1.252 . S
C263 O266 1.252 . S
C263 O267 1.260 . S
C264 O271 1.240 . S
C264 O272 1.252 . S
C265 O268 1.252 . S
C265 O269 1.260 . S
O266 In260 2.266 . S
O266 C263 1.252 . S
O267 In260 2.326 . S
O267 C263 1.260 . S
O268 In260 2.266 . S
O268 C265 1.252 . S
O269 In260 2.326 . S
O269 C265 1.260 . S
C270 O261 1.240 . S
C270 O262 1.252 . S
O271 In260 2.294 . S
O271 C264 1.240 . S
O272 In260 2.326 . S
O272 C264 1.252 . S
In273 O274 2.294 . S
In273 O275 2.326 . S
In273 O279 2.266 . S
In273 O280 2.326 . S
In273 O281 2.266 . S
In273 O282 2.326 . S
In273 O284 2.294 . S
In273 O285 2.326 . S
O274 In273 2.294 . S
O274 C283 1.240 . S
O275 In273 2.326 . S
O275 C283 1.252 . S
C276 O279 1.252 . S
C276 O280 1.260 . S
C277 O284 1.240 . S
C277 O285 1.252 . S
C278 O281 1.252 . S
C278 O282 1.260 . S
O279 In273 2.266 . S
O279 C276 1.252 . S
O280 In273 2.326 . S
O280 C276 1.260 . S
O281 In273 2.266 . S
O281 C278 1.252 . S
O282 In273 2.326 . S
O282 C278 1.260 . S
C283 O274 1.240 . S
C283 O275 1.252 . S
O284 In273 2.294 . S
O284 C277 1.240 . S
O285 In273 2.326 . S
O285 C277 1.252 . S
In286 O287 2.294 . S
In286 O288 2.326 . S
In286 O292 2.266 . S
In286 O293 2.326 . S
In286 O294 2.266 . S
In286 O295 2.326 . S
In286 O297 2.294 . S
In286 O298 2.326 . S
O287 In286 2.294 . S
O287 C296 1.240 . S
O288 In286 2.326 . S
O288 C296 1.252 . S
C289 O292 1.252 . S
C289 O293 1.260 . S
C290 O297 1.240 . S
C290 O298 1.252 . S
C291 O294 1.252 . S
C291 O295 1.260 . S
O292 In286 2.266 . S
O292 C289 1.252 . S
O293 In286 2.326 . S
O293 C289 1.260 . S
O294 In286 2.266 . S
O294 C291 1.252 . S
O295 In286 2.326 . S
O295 C291 1.260 . S
C296 O287 1.240 . S
C296 O288 1.252 . S
O297 In286 2.294 . S
O297 C290 1.240 . S
O298 In286 2.326 . S
O298 C290 1.252 . S
In299 O300 2.294 . S
In299 O301 2.326 . S
In299 O305 2.266 . S
In299 O306 2.326 . S
In299 O307 2.266 . S
In299 O308 2.326 . S
In299 O310 2.294 . S
In299 O311 2.326 . S
O300 In299 2.294 . S
O300 C309 1.240 . S
O301 In299 2.326 . S
O301 C309 1.252 . S
C302 O305 1.252 . S
C302 O306 1.260 . S
C303 O310 1.240 . S
C303 O311 1.252 . S
C304 O307 1.252 . S
C304 O308 1.260 . S
O305 In299 2.266 . S
O305 C302 1.252 . S
O306 In299 2.326 . S
O306 C302 1.260 . S
O307 In299 2.266 . S
O307 C304 1.252 . S
O308 In299 2.326 . S
O308 C304 1.260 . S
C309 O300 1.240 . S
C309 O301 1.252 . S
O310 In299 2.294 . S
O310 C303 1.240 . S
O311 In299 2.326 . S
O311 C303 1.252 . S
In312 O313 2.294 . S
In312 O314 2.326 . S
In312 O318 2.266 . S
In312 O319 2.326 . S
In312 O320 2.266 . S
In312 O321 2.326 . S
In312 O323 2.294 . S
In312 O324 2.326 . S
O313 In312 2.294 . S
O313 C322 1.240 . S
O314 In312 2.326 . S
O314 C322 1.252 . S
C315 O318 1.252 . S
C315 O319 1.260 . S
C316 O323 1.240 . S
C316 O324 1.252 . S
C317 O320 1.252 . S
C317 O321 1.260 . S
O318 In312 2.266 . S
O318 C315 1.252 . S
O319 In312 2.326 . S
O319 C315 1.260 . S
O320 In312 2.266 . S
O320 C317 1.252 . S
O321 In312 2.326 . S
O321 C317 1.260 . S
C322 O313 1.240 . S
C322 O314 1.252 . S
O323 In312 2.294 . S
O323 C316 1.240 . S
O324 In312 2.326 . S
O324 C316 1.252 . S
In325 O326 2.294 . S
In325 O327 2.326 . S
In325 O331 2.266 . S
In325 O332 2.326 . S
In325 O333 2.266 . S
In325 O334 2.326 . S
In325 O336 2.294 . S
In325 O337 2.326 . S
O326 In325 2.294 . S
O326 C335 1.240 . S
O327 In325 2.326 . S
O327 C335 1.252 . S
C328 O331 1.252 . S
C328 O332 1.260 . S
C329 O336 1.240 . S
C329 O337 1.252 . S
C330 O333 1.252 . S
C330 O334 1.260 . S
O331 In325 2.266 . S
O331 C328 1.252 . S
O332 In325 2.326 . S
O332 C328 1.260 . S
O333 In325 2.266 . S
O333 C330 1.252 . S
O334 In325 2.326 . S
O334 C330 1.260 . S
C335 O326 1.240 . S
C335 O327 1.252 . S
O336 In325 2.294 . S
O336 C329 1.240 . S
O337 In325 2.326 . S
O337 C329 1.252 . S
In338 O339 2.294 . S
In338 O340 2.326 . S
In338 O344 2.266 . S
In338 O345 2.326 . S
In338 O346 2.266 . S
In338 O347 2.326 . S
In338 O349 2.294 . S
In338 O350 2.326 . S
O339 In338 2.294 . S
O339 C348 1.240 . S
O340 In338 2.326 . S
O340 C348 1.252 . S
C341 O344 1.252 . S
C341 O345 1.260 . S
C342 O349 1.240 . S
C342 O350 1.252 . S
C343 O346 1.252 . S
C343 O347 1.260 . S
O344 In338 2.266 . S
O344 C341 1.252 . S
O345 In338 2.326 . S
O345 C341 1.260 . S
O346 In338 2.266 . S
O346 C343 1.252 . S
O347 In338 2.326 . S
O347 C343 1.260 . S
C348 O339 1.240 . S
C348 O340 1.252 . S
O349 In338 2.294 . S
O349 C342 1.240 . S
O350 In338 2.326 . S
O350 C342 1.252 . S
In351 O352 2.294 . S
In351 O353 2.326 . S
In351 O357 2.266 . S
In351 O358 2.326 . S
In351 O359 2.266 . S
In351 O360 2.326 . S
In351 O362 2.294 . S
In351 O363 2.326 . S
O352 In351 2.294 . S
O352 C361 1.240 . S
O353 In351 2.326 . S
O353 C361 1.252 . S
C354 O357 1.252 . S
C354 O358 1.260 . S
C355 O362 1.240 . S
C355 O363 1.252 . S
C356 O359 1.252 . S
C356 O360 1.260 . S
O357 In351 2.266 . S
O357 C354 1.252 . S
O358 In351 2.326 . S
O358 C354 1.260 . S
O359 In351 2.266 . S
O359 C356 1.252 . S
O360 In351 2.326 . S
O360 C356 1.260 . S
C361 O352 1.240 . S
C361 O353 1.252 . S
O362 In351 2.294 . S
O362 C355 1.240 . S
O363 In351 2.326 . S
O363 C355 1.252 . S
In364 O365 2.294 . S
In364 O366 2.326 . S
In364 O370 2.266 . S
In364 O371 2.326 . S
In364 O372 2.266 . S
In364 O373 2.326 . S
In364 O375 2.294 . S
In364 O376 2.326 . S
O365 In364 2.294 . S
O365 C374 1.240 . S
O366 In364 2.326 . S
O366 C374 1.252 . S
C367 O370 1.252 . S
C367 O371 1.260 . S
C368 O375 1.240 . S
C368 O376 1.252 . S
C369 O372 1.252 . S
C369 O373 1.260 . S
O370 In364 2.266 . S
O370 C367 1.252 . S
O371 In364 2.326 . S
O371 C367 1.260 . S
O372 In364 2.266 . S
O372 C369 1.252 . S
O373 In364 2.326 . S
O373 C369 1.260 . S
C374 O365 1.240 . S
C374 O366 1.252 . S
O375 In364 2.294 . S
O375 C368 1.240 . S
O376 In364 2.326 . S
O376 C368 1.252 . S
In377 O378 2.294 . S
In377 O379 2.326 . S
In377 O383 2.266 . S
In377 O384 2.326 . S
In377 O385 2.266 . S
In377 O386 2.326 . S
In377 O388 2.294 . S
In377 O389 2.326 . S
O378 In377 2.294 . S
O378 C387 1.240 . S
O379 In377 2.326 . S
O379 C387 1.252 . S
C380 O383 1.252 . S
C380 O384 1.260 . S
C381 O388 1.240 . S
C381 O389 1.252 . S
C382 O385 1.252 . S
C382 O386 1.260 . S
O383 In377 2.266 . S
O383 C380 1.252 . S
O384 In377 2.326 . S
O384 C380 1.260 . S
O385 In377 2.266 . S
O385 C382 1.252 . S
O386 In377 2.326 . S
O386 C382 1.260 . S
C387 O378 1.240 . S
C387 O379 1.252 . S
O388 In377 2.294 . S
O388 C381 1.240 . S
O389 In377 2.326 . S
O389 C381 1.252 . S
In390 O391 2.294 . S
In390 O392 2.326 . S
In390 O396 2.266 . S
In390 O397 2.326 . S
In390 O398 2.266 . S
In390 O399 2.326 . S
In390 O401 2.294 . S
In390 O402 2.326 . S
O391 In390 2.294 . S
O391 C400 1.240 . S
O392 In390 2.326 . S
O392 C400 1.252 . S
C393 O396 1.252 . S
C393 O397 1.260 . S
C394 O401 1.240 . S
C394 O402 1.252 . S
C395 O398 1.252 . S
C395 O399 1.260 . S
O396 In390 2.266 . S
O396 C393 1.252 . S
O397 In390 2.326 . S
O397 C393 1.260 . S
O398 In390 2.266 . S
O398 C395 1.252 . S
O399 In390 2.326 . S
O399 C395 1.260 . S
C400 O391 1.240 . S
C400 O392 1.252 . S
O401 In390 2.294 . S
O401 C394 1.240 . S
O402 In390 2.326 . S
O402 C394 1.252 . S
In403 O404 2.294 . S
In403 O405 2.326 . S
In403 O409 2.266 . S
In403 O410 2.326 . S
In403 O411 2.266 . S
In403 O412 2.326 . S
In403 O414 2.294 . S
In403 O415 2.326 . S
O404 In403 2.294 . S
O404 C413 1.240 . S
O405 In403 2.326 . S
O405 C413 1.252 . S
C406 O409 1.252 . S
C406 O410 1.260 . S
C407 O414 1.240 . S
C407 O415 1.252 . S
C408 O411 1.252 . S
C408 O412 1.260 . S
O409 In403 2.266 . S
O409 C406 1.252 . S
O410 In403 2.326 . S
O410 C406 1.260 . S
O411 In403 2.266 . S
O411 C408 1.252 . S
O412 In403 2.326 . S
O412 C408 1.260 . S
C413 O404 1.240 . S
C413 O405 1.252 . S
O414 In403 2.294 . S
O414 C407 1.240 . S
O415 In403 2.326 . S
O415 C407 1.252 . S
C416 C417 1.387 . S
C416 H420 0.950 . S
C416 C425 1.390 1_565 S
C417 C416 1.387 . S
C417 C419 1.387 . S
H418 C425 0.950 . S
C419 C417 1.387 . S
C419 C421 1.390 1_565 S
C419 H423 0.950 . S
H420 C416 0.950 . S
C421 C419 1.390 1_545 S
C421 C422 1.387 . S
C421 H424 0.950 . S
C422 C421 1.387 . S
C422 C425 1.387 . S
H423 C419 0.950 . S
H424 C421 0.950 . S
C425 C416 1.390 1_545 S
C425 H418 0.950 . S
C425 C422 1.387 . S
C426 C427 1.387 . S
C426 H430 0.950 . S
C426 C435 1.390 . S
C427 C426 1.387 . S
C427 C429 1.387 . S
H428 C435 0.950 . S
C429 C427 1.387 . S
C429 C431 1.390 . S
C429 H433 0.950 . S
H430 C426 0.950 . S
C431 C429 1.390 . S
C431 C432 1.387 . S
C431 H434 0.950 . S
C432 C431 1.387 . S
C432 C435 1.387 . S
H433 C429 0.950 . S
H434 C431 0.950 . S
C435 C426 1.390 . S
C435 H428 0.950 . S
C435 C432 1.387 . S
C436 C437 1.387 . S
C436 H440 0.950 . S
C436 C445 1.390 1_545 S
C437 C436 1.387 . S
C437 C439 1.387 . S
H438 C445 0.950 . S
C439 C437 1.387 . S
C439 C441 1.390 1_545 S
C439 H443 0.950 . S
H440 C436 0.950 . S
C441 C439 1.390 1_565 S
C441 C442 1.387 . S
C441 H444 0.950 . S
C442 C441 1.387 . S
C442 C445 1.387 . S
H443 C439 0.950 . S
H444 C441 0.950 . S
C445 C436 1.390 1_565 S
C445 H438 0.950 . S
C445 C442 1.387 . S
C446 C447 1.387 . S
C446 H450 0.950 . S
C446 C455 1.390 1_556 S
C447 C446 1.387 . S
C447 C449 1.387 . S
H448 C455 0.950 . S
C449 C447 1.387 . S
C449 C451 1.390 1_556 S
C449 H453 0.950 . S
H450 C446 0.950 . S
C451 C449 1.390 1_554 S
C451 C452 1.387 . S
C451 H454 0.950 . S
C452 C451 1.387 . S
C452 C455 1.387 . S
H453 C449 0.950 . S
H454 C451 0.950 . S
C455 C446 1.390 1_554 S
C455 H448 0.950 . S
C455 C452 1.387 . S
C456 C457 1.387 . S
C456 H460 0.950 . S
C456 C465 1.390 1_565 S
C457 C456 1.387 . S
C457 C459 1.387 . S
H458 C465 0.950 . S
C459 C457 1.387 . S
C459 C461 1.390 1_565 S
C459 H463 0.950 . S
H460 C456 0.950 . S
C461 C459 1.390 1_545 S
C461 C462 1.387 . S
C461 H464 0.950 . S
C462 C461 1.387 . S
C462 C465 1.387 . S
H463 C459 0.950 . S
H464 C461 0.950 . S
C465 C456 1.390 1_545 S
C465 H458 0.950 . S
C465 C462 1.387 . S
C466 C467 1.387 . S
C466 H470 0.950 . S
C466 C475 1.390 . S
C467 C466 1.387 . S
C467 C469 1.387 . S
H468 C475 0.950 . S
C469 C467 1.387 . S
C469 C471 1.390 . S
C469 H473 0.950 . S
H470 C466 0.950 . S
C471 C469 1.390 . S
C471 C472 1.387 . S
C471 H474 0.950 . S
C472 C471 1.387 . S
C472 C475 1.387 . S
H473 C469 0.950 . S
H474 C471 0.950 . S
C475 C466 1.390 . S
C475 H468 0.950 . S
C475 C472 1.387 . S
C476 C477 1.387 . S
C476 H480 0.950 . S
C476 C485 1.390 1_545 S
C477 C476 1.387 . S
C477 C479 1.387 . S
H478 C485 0.950 . S
C479 C477 1.387 . S
C479 C481 1.390 1_545 S
C479 H483 0.950 . S
H480 C476 0.950 . S
C481 C479 1.390 1_565 S
C481 C482 1.387 . S
C481 H484 0.950 . S
C482 C481 1.387 . S
C482 C485 1.387 . S
H483 C479 0.950 . S
H484 C481 0.950 . S
C485 C476 1.390 1_565 S
C485 H478 0.950 . S
C485 C482 1.387 . S
C486 C487 1.387 . S
C486 H490 0.950 . S
C486 C495 1.390 1_556 S
C487 C486 1.387 . S
C487 C489 1.387 . S
H488 C495 0.950 . S
C489 C487 1.387 . S
C489 C491 1.390 1_556 S
C489 H493 0.950 . S
H490 C486 0.950 . S
C491 C489 1.390 1_554 S
C491 C492 1.387 . S
C491 H494 0.950 . S
C492 C491 1.387 . S
C492 C495 1.387 . S
H493 C489 0.950 . S
H494 C491 0.950 . S
C495 C486 1.390 1_554 S
C495 H488 0.950 . S
C495 C492 1.387 . S
C496 C497 1.387 . S
C496 H500 0.950 . S
C496 C505 1.390 . S
C497 C496 1.387 . S
C497 C499 1.387 . S
H498 C505 0.950 . S
C499 C497 1.387 . S
C499 C501 1.390 . S
C499 H503 0.950 . S
H500 C496 0.950 . S
C501 C499 1.390 . S
C501 C502 1.387 . S
C501 H504 0.950 . S
C502 C501 1.387 . S
C502 C505 1.387 . S
H503 C499 0.950 . S
H504 C501 0.950 . S
C505 C496 1.390 . S
C505 H498 0.950 . S
C505 C502 1.387 . S
C506 C507 1.387 . S
C506 H510 0.950 . S
C506 C515 1.390 1_554 S
C507 C506 1.387 . S
C507 C509 1.387 . S
H508 C515 0.950 . S
C509 C507 1.387 . S
C509 C511 1.390 1_554 S
C509 H513 0.950 . S
H510 C506 0.950 . S
C511 C509 1.390 1_556 S
C511 C512 1.387 . S
C511 H514 0.950 . S
C512 C511 1.387 . S
C512 C515 1.387 . S
H513 C509 0.950 . S
H514 C511 0.950 . S
C515 C506 1.390 1_556 S
C515 H508 0.950 . S
C515 C512 1.387 . S
C516 C517 1.387 . S
C516 H520 0.950 . S
C516 C525 1.390 . S
C517 C516 1.387 . S
C517 C519 1.387 . S
H518 C525 0.950 . S
C519 C517 1.387 . S
C519 C521 1.390 . S
C519 H523 0.950 . S
H520 C516 0.950 . S
C521 C519 1.390 . S
C521 C522 1.387 . S
C521 H524 0.950 . S
C522 C521 1.387 . S
C522 C525 1.387 . S
H523 C519 0.950 . S
H524 C521 0.950 . S
C525 C516 1.390 . S
C525 H518 0.950 . S
C525 C522 1.387 . S
C526 C527 1.387 . S
C526 H530 0.950 . S
C526 C535 1.390 . S
C527 C526 1.387 . S
C527 C529 1.387 . S
H528 C535 0.950 . S
C529 C527 1.387 . S
C529 C531 1.390 . S
C529 H533 0.950 . S
H530 C526 0.950 . S
C531 C529 1.390 . S
C531 C532 1.387 . S
C531 H534 0.950 . S
C532 C531 1.387 . S
C532 C535 1.387 . S
H533 C529 0.950 . S
H534 C531 0.950 . S
C535 C526 1.390 . S
C535 H528 0.950 . S
C535 C532 1.387 . S
C536 C537 1.387 . S
C536 H540 0.950 . S
C536 C545 1.390 . S
C537 C536 1.387 . S
C537 C539 1.387 . S
H538 C545 0.950 . S
C539 C537 1.387 . S
C539 C541 1.390 . S
C539 H543 0.950 . S
H540 C536 0.950 . S
C541 C539 1.390 . S
C541 C542 1.387 . S
C541 H544 0.950 . S
C542 C541 1.387 . S
C542 C545 1.387 . S
H543 C539 0.950 . S
H544 C541 0.950 . S
C545 C536 1.390 . S
C545 H538 0.950 . S
C545 C542 1.387 . S
C546 C547 1.387 . S
C546 H550 0.950 . S
C546 C555 1.390 1_554 S
C547 C546 1.387 . S
C547 C549 1.387 . S
H548 C555 0.950 . S
C549 C547 1.387 . S
C549 C551 1.390 1_554 S
C549 H553 0.950 . S
H550 C546 0.950 . S
C551 C549 1.390 1_556 S
C551 C552 1.387 . S
C551 H554 0.950 . S
C552 C551 1.387 . S
C552 C555 1.387 . S
H553 C549 0.950 . S
H554 C551 0.950 . S
C555 C546 1.390 1_556 S
C555 H548 0.950 . S
C555 C552 1.387 . S
C556 C557 1.387 . S
C556 H560 0.950 . S
C556 C565 1.390 . S
C557 C556 1.387 . S
C557 C559 1.387 . S
H558 C565 0.950 . S
C559 C557 1.387 . S
C559 C561 1.390 . S
C559 H563 0.950 . S
H560 C556 0.950 . S
C561 C559 1.390 . S
C561 C562 1.387 . S
C561 H564 0.950 . S
C562 C561 1.387 . S
C562 C565 1.387 . S
H563 C559 0.950 . S
H564 C561 0.950 . S
C565 C556 1.390 . S
C565 H558 0.950 . S
C565 C562 1.387 . S
C566 C567 1.387 . S
C566 H570 0.950 . S
C566 C575 1.390 . S
C567 C566 1.387 . S
C567 C569 1.387 . S
H568 C575 0.950 . S
C569 C567 1.387 . S
C569 C571 1.390 . S
C569 H573 0.950 . S
H570 C566 0.950 . S
C571 C569 1.390 . S
C571 C572 1.387 . S
C571 H574 0.950 . S
C572 C571 1.387 . S
C572 C575 1.387 . S
H573 C569 0.950 . S
H574 C571 0.950 . S
C575 C566 1.390 . S
C575 H568 0.950 . S
C575 C572 1.387 . S
C576 C577 1.387 . S
C576 H580 0.950 . S
C576 C585 1.390 . S
C577 C576 1.387 . S
C577 C579 1.387 . S
H578 C585 0.950 . S
C579 C577 1.387 . S
C579 C581 1.390 . S
C579 H583 0.950 . S
H580 C576 0.950 . S
C581 C579 1.390 . S
C581 C582 1.387 . S
C581 H584 0.950 . S
C582 C581 1.387 . S
C582 C585 1.387 . S
H583 C579 0.950 . S
H584 C581 0.950 . S
C585 C576 1.390 . S
C585 H578 0.950 . S
C585 C582 1.387 . S
C586 C587 1.387 . S
C586 H590 0.950 . S
C586 C595 1.390 . S
C587 C586 1.387 . S
C587 C589 1.387 . S
H588 C595 0.950 1_565 S
C589 C587 1.387 . S
C589 C591 1.390 . S
C589 H593 0.950 . S
H590 C586 0.950 . S
C591 C589 1.390 . S
C591 C592 1.387 . S
C591 H594 0.950 . S
C592 C591 1.387 . S
C592 C595 1.387 . S
H593 C589 0.950 . S
H594 C591 0.950 . S
C595 C586 1.390 . S
C595 H588 0.950 1_545 S
C595 C592 1.387 . S
C596 C597 1.387 . S
C596 H600 0.950 1_545 S
C596 C605 1.390 . S
C597 C596 1.387 . S
C597 C599 1.387 . S
H598 C605 0.950 . S
C599 C597 1.387 . S
C599 C601 1.390 . S
C599 H603 0.950 . S
H600 C596 0.950 1_565 S
C601 C599 1.390 . S
C601 C602 1.387 . S
C601 H604 0.950 . S
C602 C601 1.387 . S
C602 C605 1.387 . S
H603 C599 0.950 . S
H604 C601 0.950 . S
C605 C596 1.390 . S
C605 H598 0.950 . S
C605 C602 1.387 . S
C606 C607 1.387 . S
C606 H610 0.950 . S
C606 C615 1.390 . S
C607 C606 1.387 . S
C607 C609 1.387 . S
H608 C615 0.950 . S
C609 C607 1.387 . S
C609 C611 1.390 . S
C609 H613 0.950 1_565 S
H610 C606 0.950 . S
C611 C609 1.390 . S
C611 C612 1.387 . S
C611 H614 0.950 . S
C612 C611 1.387 . S
C612 C615 1.387 . S
H613 C609 0.950 1_545 S
H614 C611 0.950 . S
C615 C606 1.390 . S
C615 H608 0.950 . S
C615 C612 1.387 . S
C616 C617 1.387 . S
C616 H620 0.950 . S
C616 C625 1.390 . S
C617 C616 1.387 . S
C617 C619 1.387 . S
H618 C625 0.950 1_565 S
C619 C617 1.387 . S
C619 C621 1.390 . S
C619 H623 0.950 . S
H620 C616 0.950 . S
C621 C619 1.390 . S
C621 C622 1.387 . S
C621 H624 0.950 . S
C622 C621 1.387 . S
C622 C625 1.387 . S
H623 C619 0.950 . S
H624 C621 0.950 . S
C625 C616 1.390 . S
C625 H618 0.950 1_545 S
C625 C622 1.387 . S
C626 C627 1.387 . S
C626 H630 0.950 . S
C626 C635 1.390 . S
C627 C626 1.387 . S
C627 C629 1.387 . S
H628 C635 0.950 . S
C629 C627 1.387 . S
C629 C631 1.390 . S
C629 H633 0.950 . S
H630 C626 0.950 . S
C631 C629 1.390 . S
C631 C632 1.387 . S
C631 H634 0.950 . S
C632 C631 1.387 . S
C632 C635 1.387 . S
H633 C629 0.950 . S
H634 C631 0.950 . S
C635 C626 1.390 . S
C635 H628 0.950 . S
C635 C632 1.387 . S
C636 C637 1.387 . S
C636 H640 0.950 . S
C636 C645 1.390 . S
C637 C636 1.387 . S
C637 C639 1.387 . S
H638 C645 0.950 1_545 S
C639 C637 1.387 . S
C639 C641 1.390 . S
C639 H643 0.950 . S
H640 C636 0.950 . S
C641 C639 1.390 . S
C641 C642 1.387 . S
C641 H644 0.950 . S
C642 C641 1.387 . S
C642 C645 1.387 . S
H643 C639 0.950 . S
H644 C641 0.950 . S
C645 C636 1.390 . S
C645 H638 0.950 1_565 S
C645 C642 1.387 . S
C646 C647 1.387 . S
C646 H650 0.950 . S
C646 C655 1.390 . S
C647 C646 1.387 . S
C647 C649 1.387 . S
H648 C655 0.950 . S
C649 C647 1.387 . S
C649 C651 1.390 . S
C649 H653 0.950 . S
H650 C646 0.950 . S
C651 C649 1.390 . S
C651 C652 1.387 . S
C651 H654 0.950 1_545 S
C652 C651 1.387 . S
C652 C655 1.387 . S
H653 C649 0.950 . S
H654 C651 0.950 1_565 S
C655 C646 1.390 . S
C655 H648 0.950 . S
C655 C652 1.387 . S
C656 C657 1.387 . S
C656 H660 0.950 . S
C656 C665 1.390 . S
C657 C656 1.387 . S
C657 C659 1.387 . S
H658 C665 0.950 . S
C659 C657 1.387 . S
C659 C661 1.390 . S
C659 H663 0.950 . S
H660 C656 0.950 . S
C661 C659 1.390 . S
C661 C662 1.387 . S
C661 H664 0.950 . S
C662 C661 1.387 . S
C662 C665 1.387 . S
H663 C659 0.950 . S
H664 C661 0.950 . S
C665 C656 1.390 . S
C665 H658 0.950 . S
C665 C662 1.387 . S
C666 C667 1.387 . S
C666 H670 0.950 . S
C666 C675 1.390 . S
C667 C666 1.387 . S
C667 C669 1.387 . S
H668 C675 0.950 . S
C669 C667 1.387 . S
C669 C671 1.390 . S
C669 H673 0.950 . S
H670 C666 0.950 . S
C671 C669 1.390 . S
C671 C672 1.387 . S
C671 H674 0.950 . S
C672 C671 1.387 . S
C672 C675 1.387 . S
H673 C669 0.950 . S
H674 C671 0.950 . S
C675 C666 1.390 . S
C675 H668 0.950 . S
C675 C672 1.387 . S
C676 C677 1.387 . S
C676 H680 0.950 . S
C676 C685 1.390 . S
C677 C676 1.387 . S
C677 C679 1.387 . S
H678 C685 0.950 . S
C679 C677 1.387 . S
C679 C681 1.390 . S
C679 H683 0.950 . S
H680 C676 0.950 . S
C681 C679 1.390 . S
C681 C682 1.387 . S
C681 H684 0.950 . S
C682 C681 1.387 . S
C682 C685 1.387 . S
H683 C679 0.950 . S
H684 C681 0.950 . S
C685 C676 1.390 . S
C685 H678 0.950 . S
C685 C682 1.387 . S
C686 C687 1.387 . S
C686 H690 0.950 . S
C686 C695 1.390 . S
C687 C686 1.387 . S
C687 C689 1.387 . S
H688 C695 0.950 . S
C689 C687 1.387 . S
C689 C691 1.390 . S
C689 H693 0.950 . S
H690 C686 0.950 . S
C691 C689 1.390 . S
C691 C692 1.387 . S
C691 H694 0.950 . S
C692 C691 1.387 . S
C692 C695 1.387 . S
H693 C689 0.950 . S
H694 C691 0.950 . S
C695 C686 1.390 . S
C695 H688 0.950 . S
C695 C692 1.387 . S
C696 C697 1.387 . S
C696 H700 0.950 . S
C696 C705 1.390 . S
C697 C696 1.387 . S
C697 C699 1.387 . S
H698 C705 0.950 . S
C699 C697 1.387 . S
C699 C701 1.390 . S
C699 H703 0.950 . S
H700 C696 0.950 . S
C701 C699 1.390 . S
C701 C702 1.387 . S
C701 H704 0.950 . S
C702 C701 1.387 . S
C702 C705 1.387 . S
H703 C699 0.950 . S
H704 C701 0.950 . S
C705 C696 1.390 . S
C705 H698 0.950 . S
C705 C702 1.387 . S
C706 C707 1.387 . S
C706 H710 0.950 . S
C706 C715 1.390 . S
C707 C706 1.387 . S
C707 C709 1.387 . S
H708 C715 0.950 . S
C709 C707 1.387 . S
C709 C711 1.390 . S
C709 H713 0.950 . S
H710 C706 0.950 . S
C711 C709 1.390 . S
C711 C712 1.387 . S
C711 H714 0.950 . S
C712 C711 1.387 . S
C712 C715 1.387 . S
H713 C709 0.950 . S
H714 C711 0.950 . S
C715 C706 1.390 . S
C715 H708 0.950 . S
C715 C712 1.387 . S
C716 C717 1.387 . S
C716 H720 0.950 . S
C716 C725 1.390 . S
C717 C716 1.387 . S
C717 C719 1.387 . S
H718 C725 0.950 . S
C719 C717 1.387 . S
C719 C721 1.390 . S
C719 H723 0.950 . S
H720 C716 0.950 . S
C721 C719 1.390 . S
C721 C722 1.387 . S
C721 H724 0.950 . S
C722 C721 1.387 . S
C722 C725 1.387 . S
H723 C719 0.950 . S
H724 C721 0.950 . S
C725 C716 1.390 . S
C725 H718 0.950 . S
C725 C722 1.387 . S
C726 C727 1.387 . S
C726 H730 0.950 . S
C726 C735 1.390 . S
C727 C726 1.387 . S
C727 C729 1.387 . S
H728 C735 0.950 . S
C729 C727 1.387 . S
C729 C731 1.390 . S
C729 H733 0.950 . S
H730 C726 0.950 . S
C731 C729 1.390 . S
C731 C732 1.387 . S
C731 H734 0.950 . S
C732 C731 1.387 . S
C732 C735 1.387 . S
H733 C729 0.950 . S
H734 C731 0.950 . S
C735 C726 1.390 . S
C735 H728 0.950 . S
C735 C732 1.387 . S
C736 C737 1.387 . S
C736 H740 0.950 . S
C736 C745 1.390 . S
C737 C736 1.387 . S
C737 C739 1.387 . S
H738 C745 0.950 . S
C739 C737 1.387 . S
C739 C741 1.390 . S
C739 H743 0.950 . S
H740 C736 0.950 . S
C741 C739 1.390 . S
C741 C742 1.387 . S
C741 H744 0.950 . S
C742 C741 1.387 . S
C742 C745 1.387 . S
H743 C739 0.950 . S
H744 C741 0.950 . S
C745 C736 1.390 . S
C745 H738 0.950 . S
C745 C742 1.387 . S
C746 C747 1.387 . S
C746 H750 0.950 . S
C746 C755 1.390 . S
C747 C746 1.387 . S
C747 C749 1.387 . S
H748 C755 0.950 . S
C749 C747 1.387 . S
C749 C751 1.390 . S
C749 H753 0.950 . S
H750 C746 0.950 . S
C751 C749 1.390 . S
C751 C752 1.387 . S
C751 H754 0.950 . S
C752 C751 1.387 . S
C752 C755 1.387 . S
H753 C749 0.950 . S
H754 C751 0.950 . S
C755 C746 1.390 . S
C755 H748 0.950 . S
C755 C752 1.387 . S
C756 C757 1.387 . S
C756 H760 0.950 . S
C756 C765 1.390 . S
C757 C756 1.387 . S
C757 C759 1.387 . S
H758 C765 0.950 . S
C759 C757 1.387 . S
C759 C761 1.390 . S
C759 H763 0.950 . S
H760 C756 0.950 . S
C761 C759 1.390 . S
C761 C762 1.387 . S
C761 H764 0.950 . S
C762 C761 1.387 . S
C762 C765 1.387 . S
H763 C759 0.950 . S
H764 C761 0.950 . S
C765 C756 1.390 . S
C765 H758 0.950 . S
C765 C762 1.387 . S
C766 C767 1.387 . S
C766 H770 0.950 . S
C766 C775 1.390 . S
C767 C766 1.387 . S
C767 C769 1.387 . S
H768 C775 0.950 . S
C769 C767 1.387 . S
C769 C771 1.390 . S
C769 H773 0.950 . S
H770 C766 0.950 . S
C771 C769 1.390 . S
C771 C772 1.387 . S
C771 H774 0.950 . S
C772 C771 1.387 . S
C772 C775 1.387 . S
H773 C769 0.950 . S
H774 C771 0.950 . S
C775 C766 1.390 . S
C775 H768 0.950 . S
C775 C772 1.387 . S
C776 C777 1.387 . S
C776 H780 0.950 . S
C776 C785 1.390 . S
C777 C776 1.387 . S
C777 C779 1.387 . S
H778 C785 0.950 . S
C779 C777 1.387 . S
C779 C781 1.390 . S
C779 H783 0.950 . S
H780 C776 0.950 . S
C781 C779 1.390 . S
C781 C782 1.387 . S
C781 H784 0.950 . S
C782 C781 1.387 . S
C782 C785 1.387 . S
H783 C779 0.950 . S
H784 C781 0.950 . S
C785 C776 1.390 . S
C785 H778 0.950 . S
C785 C782 1.387 . S
C786 C787 1.387 . S
C786 H790 0.950 . S
C786 C795 1.390 . S
C787 C786 1.387 . S
C787 C789 1.387 . S
H788 C795 0.950 . S
C789 C787 1.387 . S
C789 C791 1.390 . S
C789 H793 0.950 . S
H790 C786 0.950 . S
C791 C789 1.390 . S
C791 C792 1.387 . S
C791 H794 0.950 . S
C792 C791 1.387 . S
C792 C795 1.387 . S
H793 C789 0.950 . S
H794 C791 0.950 . S
C795 C786 1.390 . S
C795 H788 0.950 . S
C795 C792 1.387 . S
C796 C797 1.387 . S
C796 H800 0.950 . S
C796 C805 1.390 . S
C797 C796 1.387 . S
C797 C799 1.387 . S
H798 C805 0.950 . S
C799 C797 1.387 . S
C799 C801 1.390 . S
C799 H803 0.950 . S
H800 C796 0.950 . S
C801 C799 1.390 . S
C801 C802 1.387 . S
C801 H804 0.950 . S
C802 C801 1.387 . S
C802 C805 1.387 . S
H803 C799 0.950 . S
H804 C801 0.950 . S
C805 C796 1.390 . S
C805 H798 0.950 . S
C805 C802 1.387 . S
C806 C807 1.387 . S
C806 H810 0.950 . S
C806 C815 1.390 . S
C807 C806 1.387 . S
C807 C809 1.387 . S
H808 C815 0.950 . S
C809 C807 1.387 . S
C809 C811 1.390 . S
C809 H813 0.950 . S
H810 C806 0.950 . S
C811 C809 1.390 . S
C811 C812 1.387 . S
C811 H814 0.950 . S
C812 C811 1.387 . S
C812 C815 1.387 . S
H813 C809 0.950 . S
H814 C811 0.950 . S
C815 C806 1.390 . S
C815 H808 0.950 . S
C815 C812 1.387 . S
C816 C817 1.387 . S
C816 H820 0.950 . S
C816 C825 1.390 . S
C817 C816 1.387 . S
C817 C819 1.387 . S
H818 C825 0.950 . S
C819 C817 1.387 . S
C819 C821 1.390 . S
C819 H823 0.950 . S
H820 C816 0.950 . S
C821 C819 1.390 . S
C821 C822 1.387 . S
C821 H824 0.950 . S
C822 C821 1.387 . S
C822 C825 1.387 . S
H823 C819 0.950 . S
H824 C821 0.950 . S
C825 C816 1.390 . S
C825 H818 0.950 . S
C825 C822 1.387 . S
C826 C827 1.387 . S
C826 H830 0.950 1_655 S
C826 C835 1.390 . S
C827 C826 1.387 . S
C827 C829 1.387 . S
H828 C835 0.950 . S
C829 C827 1.387 . S
C829 C831 1.390 . S
C829 H833 0.950 . S
H830 C826 0.950 1_455 S
C831 C829 1.390 . S
C831 C832 1.387 . S
C831 H834 0.950 . S
C832 C831 1.387 . S
C832 C835 1.387 . S
H833 C829 0.950 . S
H834 C831 0.950 . S
C835 C826 1.390 . S
C835 H828 0.950 . S
C835 C832 1.387 . S
C836 C837 1.387 . S
C836 H840 0.950 . S
C836 C845 1.390 . S
C837 C836 1.387 . S
C837 C839 1.387 . S
H838 C845 0.950 . S
C839 C837 1.387 . S
C839 C841 1.390 . S
C839 H843 0.950 . S
H840 C836 0.950 . S
C841 C839 1.390 . S
C841 C842 1.387 . S
C841 H844 0.950 . S
C842 C841 1.387 . S
C842 C845 1.387 . S
H843 C839 0.950 . S
H844 C841 0.950 . S
C845 C836 1.390 . S
C845 H838 0.950 . S
C845 C842 1.387 . S
C846 C847 1.387 . S
C846 H850 0.950 . S
C846 C855 1.390 . S
C847 C846 1.387 . S
C847 C849 1.387 . S
H848 C855 0.950 . S
C849 C847 1.387 . S
C849 C851 1.390 . S
C849 H853 0.950 . S
H850 C846 0.950 . S
C851 C849 1.390 . S
C851 C852 1.387 . S
C851 H854 0.950 . S
C852 C851 1.387 . S
C852 C855 1.387 . S
H853 C849 0.950 . S
H854 C851 0.950 . S
C855 C846 1.390 . S
C855 H848 0.950 . S
C855 C852 1.387 . S
C856 C857 1.387 . S
C856 H860 0.950 . S
C856 C865 1.390 . S
C857 C856 1.387 . S
C857 C859 1.387 . S
H858 C865 0.950 . S
C859 C857 1.387 . S
C859 C861 1.390 . S
C859 H863 0.950 . S
H860 C856 0.950 . S
C861 C859 1.390 . S
C861 C862 1.387 . S
C861 H864 0.950 . S
C862 C861 1.387 . S
C862 C865 1.387 . S
H863 C859 0.950 . S
H864 C861 0.950 . S
C865 C856 1.390 . S
C865 H858 0.950 . S
C865 C862 1.387 . S
C866 C867 1.387 . S
C866 H870 0.950 . S
C866 C875 1.390 . S
C867 C866 1.387 . S
C867 C869 1.387 . S
H868 C875 0.950 . S
C869 C867 1.387 . S
C869 C871 1.390 . S
C869 H873 0.950 . S
H870 C866 0.950 . S
C871 C869 1.390 . S
C871 C872 1.387 . S
C871 H874 0.950 . S
C872 C871 1.387 . S
C872 C875 1.387 . S
H873 C869 0.950 . S
H874 C871 0.950 . S
C875 C866 1.390 . S
C875 H868 0.950 . S
C875 C872 1.387 . S
C876 C877 1.387 . S
C876 H880 0.950 . S
C876 C885 1.390 . S
C877 C876 1.387 . S
C877 C879 1.387 . S
H878 C885 0.950 . S
C879 C877 1.387 . S
C879 C881 1.390 . S
C879 H883 0.950 . S
H880 C876 0.950 . S
C881 C879 1.390 . S
C881 C882 1.387 . S
C881 H884 0.950 . S
C882 C881 1.387 . S
C882 C885 1.387 . S
H883 C879 0.950 . S
H884 C881 0.950 . S
C885 C876 1.390 . S
C885 H878 0.950 . S
C885 C882 1.387 . S
C886 C887 1.387 . S
C886 H890 0.950 . S
C886 C895 1.390 . S
C887 C886 1.387 . S
C887 C889 1.387 . S
H888 C895 0.950 . S
C889 C887 1.387 . S
C889 C891 1.390 . S
C889 H893 0.950 . S
H890 C886 0.950 . S
C891 C889 1.390 . S
C891 C892 1.387 . S
C891 H894 0.950 . S
C892 C891 1.387 . S
C892 C895 1.387 . S
H893 C889 0.950 . S
H894 C891 0.950 . S
C895 C886 1.390 . S
C895 H888 0.950 . S
C895 C892 1.387 . S
C896 C897 1.387 . S
C896 H900 0.950 . S
C896 C905 1.390 . S
C897 C896 1.387 . S
C897 C899 1.387 . S
H898 C905 0.950 . S
C899 C897 1.387 . S
C899 C901 1.390 . S
C899 H903 0.950 . S
H900 C896 0.950 . S
C901 C899 1.390 . S
C901 C902 1.387 . S
C901 H904 0.950 . S
C902 C901 1.387 . S
C902 C905 1.387 . S
H903 C899 0.950 . S
H904 C901 0.950 . S
C905 C896 1.390 . S
C905 H898 0.950 . S
C905 C902 1.387 . S
C906 C907 1.387 . S
C906 H910 0.950 . S
C906 C915 1.390 . S
C907 C906 1.387 . S
C907 C909 1.387 . S
H908 C915 0.950 . S
C909 C907 1.387 . S
C909 C911 1.390 . S
C909 H913 0.950 . S
H910 C906 0.950 . S
C911 C909 1.390 . S
C911 C912 1.387 . S
C911 H914 0.950 . S
C912 C911 1.387 . S
C912 C915 1.387 . S
H913 C909 0.950 . S
H914 C911 0.950 . S
C915 C906 1.390 . S
C915 H908 0.950 . S
C915 C912 1.387 . S
C916 C917 1.387 . S
C916 H920 0.950 . S
C916 C925 1.390 . S
C917 C916 1.387 . S
C917 C919 1.387 . S
H918 C925 0.950 . S
C919 C917 1.387 . S
C919 C921 1.390 . S
C919 H923 0.950 . S
H920 C916 0.950 . S
C921 C919 1.390 . S
C921 C922 1.387 . S
C921 H924 0.950 . S
C922 C921 1.387 . S
C922 C925 1.387 . S
H923 C919 0.950 . S
H924 C921 0.950 . S
C925 C916 1.390 . S
C925 H918 0.950 . S
C925 C922 1.387 . S
C926 C927 1.387 . S
C926 H930 0.950 . S
C926 C935 1.390 . S
C927 C926 1.387 . S
C927 C929 1.387 . S
H928 C935 0.950 . S
C929 C927 1.387 . S
C929 C931 1.390 . S
C929 H933 0.950 . S
H930 C926 0.950 . S
C931 C929 1.390 . S
C931 C932 1.387 . S
C931 H934 0.950 1_655 S
C932 C931 1.387 . S
C932 C935 1.387 . S
H933 C929 0.950 . S
H934 C931 0.950 1_455 S
C935 C926 1.390 . S
C935 H928 0.950 . S
C935 C932 1.387 . S
C936 C937 1.387 . S
C936 H940 0.950 . S
C936 C945 1.390 . S
C937 C936 1.387 . S
C937 C939 1.387 . S
H938 C945 0.950 . S
C939 C937 1.387 . S
C939 C941 1.390 . S
C939 H943 0.950 . S
H940 C936 0.950 . S
C941 C939 1.390 . S
C941 C942 1.387 . S
C941 H944 0.950 . S
C942 C941 1.387 . S
C942 C945 1.387 . S
H943 C939 0.950 . S
H944 C941 0.950 . S
C945 C936 1.390 . S
C945 H938 0.950 . S
C945 C942 1.387 . S
C946 C947 1.387 . S
C946 H950 0.950 . S
C946 C955 1.390 . S
C947 C946 1.387 . S
C947 C949 1.387 . S
H948 C955 0.950 . S
C949 C947 1.387 . S
C949 C951 1.390 . S
C949 H953 0.950 . S
H950 C946 0.950 . S
C951 C949 1.390 . S
C951 C952 1.387 . S
C951 H954 0.950 . S
C952 C951 1.387 . S
C952 C955 1.387 . S
H953 C949 0.950 . S
H954 C951 0.950 . S
C955 C946 1.390 . S
C955 H948 0.950 . S
C955 C952 1.387 . S
C956 C957 1.387 . S
C956 H960 0.950 . S
C956 C965 1.390 . S
C957 C956 1.387 . S
C957 C959 1.387 . S
H958 C965 0.950 . S
C959 C957 1.387 . S
C959 C961 1.390 . S
C959 H963 0.950 . S
H960 C956 0.950 . S
C961 C959 1.390 . S
C961 C962 1.387 . S
C961 H964 0.950 . S
C962 C961 1.387 . S
C962 C965 1.387 . S
H963 C959 0.950 . S
H964 C961 0.950 . S
C965 C956 1.390 . S
C965 H958 0.950 . S
C965 C962 1.387 . S
C966 C967 1.387 . S
C966 H970 0.950 . S
C966 C975 1.390 . S
C967 C966 1.387 . S
C967 C969 1.387 . S
H968 C975 0.950 . S
C969 C967 1.387 . S
C969 C971 1.390 . S
C969 H973 0.950 . S
H970 C966 0.950 . S
C971 C969 1.390 . S
C971 C972 1.387 . S
C971 H974 0.950 . S
C972 C971 1.387 . S
C972 C975 1.387 . S
H973 C969 0.950 . S
H974 C971 0.950 . S
C975 C966 1.390 . S
C975 H968 0.950 . S
C975 C972 1.387 . S
C976 C977 1.387 . S
C976 H980 0.950 . S
C976 C985 1.390 . S
C977 C976 1.387 . S
C977 C979 1.387 . S
H978 C985 0.950 . S
C979 C977 1.387 . S
C979 C981 1.390 . S
C979 H983 0.950 . S
H980 C976 0.950 . S
C981 C979 1.390 . S
C981 C982 1.387 . S
C981 H984 0.950 . S
C982 C981 1.387 . S
C982 C985 1.387 . S
H983 C979 0.950 . S
H984 C981 0.950 . S
C985 C976 1.390 . S
C985 H978 0.950 . S
C985 C982 1.387 . S
C986 C987 1.387 . S
C986 H990 0.950 . S
C986 C995 1.390 . S
C987 C986 1.387 . S
C987 C989 1.387 . S
H988 C995 0.950 . S
C989 C987 1.387 . S
C989 C991 1.390 . S
C989 H993 0.950 . S
H990 C986 0.950 . S
C991 C989 1.390 . S
C991 C992 1.387 . S
C991 H994 0.950 . S
C992 C991 1.387 . S
C992 C995 1.387 . S
H993 C989 0.950 . S
H994 C991 0.950 . S
C995 C986 1.390 . S
C995 H988 0.950 . S
C995 C992 1.387 . S
C996 C997 1.387 . S
C996 H1000 0.950 . S
C996 C1005 1.390 . S
C997 C996 1.387 . S
C997 C999 1.387 . S
H998 C1005 0.950 . S
C999 C997 1.387 . S
C999 C1001 1.390 . S
C999 H1003 0.950 . S
H1000 C996 0.950 . S
C1001 C999 1.390 . S
C1001 C1002 1.387 . S
C1001 H1004 0.950 . S
C1002 C1001 1.387 . S
C1002 C1005 1.387 . S
H1003 C999 0.950 . S
H1004 C1001 0.950 . S
C1005 C996 1.390 . S
C1005 H998 0.950 . S
C1005 C1002 1.387 . S
C1006 C1007 1.387 . S
C1006 H1010 0.950 . S
C1006 C1015 1.390 . S
C1007 C1006 1.387 . S
C1007 C1009 1.387 . S
H1008 C1015 0.950 . S
C1009 C1007 1.387 . S
C1009 C1011 1.390 . S
C1009 H1013 0.950 1_455 S
H1010 C1006 0.950 . S
C1011 C1009 1.390 . S
C1011 C1012 1.387 . S
C1011 H1014 0.950 . S
C1012 C1011 1.387 . S
C1012 C1015 1.387 . S
H1013 C1009 0.950 1_655 S
H1014 C1011 0.950 . S
C1015 C1006 1.390 . S
C1015 H1008 0.950 . S
C1015 C1012 1.387 . S
C1016 C1017 1.387 . S
C1016 H1020 0.950 . S
C1016 C1025 1.390 . S
C1017 C1016 1.387 . S
C1017 C1019 1.387 . S
H1018 C1025 0.950 . S
C1019 C1017 1.387 . S
C1019 C1021 1.390 . S
C1019 H1023 0.950 . S
H1020 C1016 0.950 . S
C1021 C1019 1.390 . S
C1021 C1022 1.387 . S
C1021 H1024 0.950 . S
C1022 C1021 1.387 . S
C1022 C1025 1.387 . S
H1023 C1019 0.950 . S
H1024 C1021 0.950 . S
C1025 C1016 1.390 . S
C1025 H1018 0.950 . S
C1025 C1022 1.387 . S
C1026 C1027 1.387 . S
C1026 H1030 0.950 . S
C1026 C1035 1.390 . S
C1027 C1026 1.387 . S
C1027 C1029 1.387 . S
H1028 C1035 0.950 . S
C1029 C1027 1.387 . S
C1029 C1031 1.390 . S
C1029 H1033 0.950 . S
H1030 C1026 0.950 . S
C1031 C1029 1.390 . S
C1031 C1032 1.387 . S
C1031 H1034 0.950 1_455 S
C1032 C1031 1.387 . S
C1032 C1035 1.387 . S
H1033 C1029 0.950 . S
H1034 C1031 0.950 1_655 S
C1035 C1026 1.390 . S
C1035 H1028 0.950 . S
C1035 C1032 1.387 . S
C1036 C1037 1.387 . S
C1036 H1040 0.950 . S
C1036 C1045 1.390 . S
C1037 C1036 1.387 . S
C1037 C1039 1.387 . S
H1038 C1045 0.950 . S
C1039 C1037 1.387 . S
C1039 C1041 1.390 . S
C1039 H1043 0.950 . S
H1040 C1036 0.950 . S
C1041 C1039 1.390 . S
C1041 C1042 1.387 . S
C1041 H1044 0.950 . S
C1042 C1041 1.387 . S
C1042 C1045 1.387 . S
H1043 C1039 0.950 . S
H1044 C1041 0.950 . S
C1045 C1036 1.390 . S
C1045 H1038 0.950 . S
C1045 C1042 1.387 . S
C1046 C1047 1.387 . S
C1046 H1050 0.950 . S
C1046 C1055 1.390 . S
C1047 C1046 1.387 . S
C1047 C1049 1.387 . S
H1048 C1055 0.950 . S
C1049 C1047 1.387 . S
C1049 C1051 1.390 . S
C1049 H1053 0.950 . S
H1050 C1046 0.950 . S
C1051 C1049 1.390 . S
C1051 C1052 1.387 . S
C1051 H1054 0.950 . S
C1052 C1051 1.387 . S
C1052 C1055 1.387 . S
H1053 C1049 0.950 . S
H1054 C1051 0.950 . S
C1055 C1046 1.390 . S
C1055 H1048 0.950 . S
C1055 C1052 1.387 . S
C417 C62 1.504 . S
C422 C4 1.504 . S
C427 C69 1.504 . S
C432 C23 1.504 . S
C437 C82 1.505 . S
C442 C30 1.505 . S
C447 C49 1.505 . S
C452 C101 1.505 . S
C457 C108 1.504 . S
C462 C166 1.504 . S
C467 C179 1.504 . S
C472 C121 1.504 . S
C477 C140 1.505 . S
C482 C192 1.505 . S
C487 C199 1.504 . S
C492 C147 1.504 . S
C497 C218 1.505 . S
C502 C264 1.505 . S
C507 C283 1.504 . S
C512 C231 1.504 . S
C517 C296 1.504 . S
C522 C244 1.504 . S
C527 C309 1.504 . S
C532 C257 1.504 . S
C537 C322 1.505 . S
C542 C374 1.505 . S
C547 C335 1.504 . S
C552 C381 1.504 . S
C557 C342 1.504 . S
C562 C400 1.504 . S
C567 C355 1.505 . S
C572 C407 1.505 . S
C577 C10 1.510 1_565 S
C582 C95 1.510 . S
C587 C17 1.510 . S
C592 C56 1.510 1_545 S
C597 C36 1.510 1_545 S
C602 C75 1.510 . S
C607 C88 1.510 1_565 S
C612 C43 1.511 . S
C617 C205 1.511 . S
C622 C114 1.510 1_545 S
C627 C160 1.510 1_565 S
C632 C127 1.511 . S
C637 C173 1.511 . S
C642 C134 1.510 1_565 S
C647 C153 1.510 . S
C652 C186 1.510 1_545 S
C657 C303 1.511 . S
C662 C212 1.510 . S
C667 C270 1.510 . S
C672 C225 1.510 . S
C677 C277 1.510 . S
C682 C238 1.510 . S
C687 C251 1.511 . S
C692 C290 1.510 . S
C697 C316 1.510 . S
C702 C413 1.511 . S
C707 C329 1.510 . S
C712 C368 1.510 . S
C717 C348 1.510 . S
C722 C387 1.511 . S
C727 C394 1.510 . S
C732 C361 1.510 . S
C737 C5 1.497 . S
C742 C330 1.497 . S
C747 C16 1.497 . S
C752 C135 1.497 1_455 S
C757 C31 1.497 . S
C762 C354 1.498 . S
C767 C107 1.498 . S
C772 C42 1.497 . S
C777 C406 1.498 . S
C782 C55 1.497 . S
C787 C70 1.497 . S
C792 C161 1.498 . S
C797 C83 1.497 . S
C802 C380 1.497 . S
C807 C94 1.497 . S
C812 C187 1.497 1_455 S
C817 C226 1.497 . S
C822 C109 1.497 . S
C827 C29 1.497 1_655 S
C832 C122 1.497 . S
C837 C252 1.497 . S
C842 C133 1.497 . S
C847 C148 1.497 . S
C852 C3 1.498 . S
C857 C304 1.498 . S
C862 C159 1.497 . S
C867 C57 1.497 . S
C872 C172 1.497 . S
C877 C278 1.497 . S
C882 C185 1.497 . S
C887 C81 1.498 1_655 S
C892 C200 1.497 . S
C897 C120 1.497 . S
C902 C211 1.497 . S
C907 C224 1.497 . S
C912 C341 1.497 . S
C917 C237 1.497 . S
C922 C146 1.497 . S
C927 C250 1.497 . S
C932 C317 1.497 1_655 S
C937 C265 1.497 . S
C942 C198 1.498 . S
C947 C369 1.498 1_655 S
C952 C276 1.497 . S
C957 C289 1.497 . S
C962 C174 1.497 . S
C967 C302 1.497 . S
C972 C395 1.498 . S
C977 C315 1.497 . S
C982 C18 1.498 . S
C987 C328 1.497 . S
C992 C239 1.497 . S
C997 C44 1.498 . S
C1002 C343 1.497 . S
C1007 C213 1.497 1_455 S
C1012 C356 1.497 . S
C1017 C367 1.497 . S
C1022 C96 1.498 . S
C1027 C382 1.497 . S
C1032 C263 1.497 1_455 S
C1037 C68 1.497 . S
C1042 C393 1.497 . S
C1047 C291 1.498 . S
C1052 C408 1.497 . S
