# Generated by pormake.
# Topology sml, (6)-cn, num edge types: 1
# Building blocks:
#     Node 0, Type 0, BuildingBlock: GEDQOX_clean_sbu_0, # of connection points: 6
#     Node 1, Type 0, BuildingBlock: GEDQOX_clean_sbu_0, # of connection points: 6
#     Node 2, Type 0, BuildingBlock: GEDQOX_clean_sbu_0, # of connection points: 6
#     Node 3, Type 0, BuildingBlock: GEDQOX_clean_sbu_0, # of connection points: 6
#     Node 4, Type 0, BuildingBlock: GEDQOX_clean_sbu_0, # of connection points: 6
#     Node 5, Type 0, BuildingBlock: GEDQOX_clean_sbu_0, # of connection points: 6
#     Edge 6, Type (0, 0), BuildingBlock: EYOCIG_clean_linker_4, # of connection points: 2
#     Edge 7, Type (0, 0), BuildingBlock: EYOCIG_clean_linker_4, # of connection points: 2
#     Edge 8, Type (0, 0), BuildingBlock: EYOCIG_clean_linker_4, # of connection points: 2
#     Edge 9, Type (0, 0), BuildingBlock: EYOCIG_clean_linker_4, # of connection points: 2
#     Edge 10, Type (0, 0), BuildingBlock: EYOCIG_clean_linker_4, # of connection points: 2
#     Edge 11, Type (0, 0), BuildingBlock: EYOCIG_clean_linker_4, # of connection points: 2
#     Edge 12, Type (0, 0), BuildingBlock: EYOCIG_clean_linker_4, # of connection points: 2
#     Edge 13, Type (0, 0), BuildingBlock: EYOCIG_clean_linker_4, # of connection points: 2
#     Edge 14, Type (0, 0), BuildingBlock: EYOCIG_clean_linker_4, # of connection points: 2
#     Edge 15, Type (0, 0), BuildingBlock: EYOCIG_clean_linker_4, # of connection points: 2
#     Edge 16, Type (0, 0), BuildingBlock: EYOCIG_clean_linker_4, # of connection points: 2
#     Edge 17, Type (0, 0), BuildingBlock: EYOCIG_clean_linker_4, # of connection points: 2
#     Edge 18, Type (0, 0), BuildingBlock: EYOCIG_clean_linker_4, # of connection points: 2
#     Edge 19, Type (0, 0), BuildingBlock: EYOCIG_clean_linker_4, # of connection points: 2
#     Edge 20, Type (0, 0), BuildingBlock: EYOCIG_clean_linker_4, # of connection points: 2
#     Edge 21, Type (0, 0), BuildingBlock: EYOCIG_clean_linker_4, # of connection points: 2
#     Edge 22, Type (0, 0), BuildingBlock: EYOCIG_clean_linker_4, # of connection points: 2
#     Edge 23, Type (0, 0), BuildingBlock: EYOCIG_clean_linker_4, # of connection points: 2
# Relax obj value: 0.247
# Max RMSD: 0.234
# Mean RMSD: 0.234
data_MOF--net-sml--node1-GEDQOX_clean_sbu_0--edge1-EYOCIG_clean_linker_4
_symmetry_space_group_name_H-M    P1
_symmetry_Int_Tables_number       1
_symmetry_cell_setting            triclinic
loop_
_symmetry_equiv_pos_as_xyz
'x, y, z'
_cell_length_a     44.194936
_cell_length_b     44.2034
_cell_length_c     12.333948
_cell_angle_alpha  89.875648
_cell_angle_beta   90.006592
_cell_angle_gamma 119.98689
loop_
_atom_site_label
_atom_site_type_symbol
_atom_site_fract_x
_atom_site_fract_y
_atom_site_fract_z
_atom_type_partial_charge
Nd0 Nd 0.26058 0.41845 1.03387 0.0
Nd1 Nd 0.23481 0.47869 0.04857 0.0
C2 C 0.29646 0.38668 1.00012 0.0
C3 C 0.30048 0.36458 0.91786 0.0
C4 C 0.32486 0.38022 0.83329 0.0
C5 C 0.33503 0.36045 0.77134 0.0
C6 C 0.32102 0.32489 0.79319 0.0
C7 C 0.29396 0.3083 0.86899 0.0
C8 C 0.28373 0.32808 0.93133 0.0
C9 C 0.18924 0.39097 1.01878 0.0
C10 C 0.24556 0.45078 0.81189 0.0
C11 C 0.19932 0.51104 0.08358 0.0
C12 C 0.20185 0.53991 0.15129 0.0
C13 C 0.17541 0.53326 0.22698 0.0
C14 C 0.17543 0.56077 0.28343 0.0
C15 C 0.20185 0.59529 0.2645 0.0
C16 C 0.22916 0.6019 0.19313 0.0
C17 C 0.22924 0.57449 0.137 0.0
C18 C 0.30626 0.5061 0.05744 0.0
C19 C 0.24882 0.44492 0.27101 0.0
O20 O 0.30813 0.41958 0.97471 0.0
O21 O 0.26758 0.37263 0.05776 0.0
O22 O 0.20341 0.37142 1.02486 0.0
O23 O 0.21301 0.42224 1.01634 0.0
O24 O 0.26151 0.43541 0.8576 0.0
O25 O 0.23002 0.46523 0.86623 0.0
O26 O 0.19233 0.48199 0.13365 0.0
O27 O 0.222 0.5194 1.00419 0.0
O28 O 0.29208 0.52563 0.04936 0.0
O29 O 0.28241 0.47502 0.06879 0.0
O30 O 0.23431 0.4617 0.22503 0.0
O31 O 0.26328 0.42933 0.21722 0.0
H32 H 0.33799 0.40816 0.8198 0.0
H33 H 0.35589 0.37353 0.71259 0.0
H34 H 0.28277 0.28069 0.8862 0.0
H35 H 0.26456 0.31518 0.99493 0.0
H36 H 0.15414 0.50686 0.24003 0.0
H37 H 0.15425 0.55518 0.33894 0.0
H38 H 0.24992 0.62844 0.17824 0.0
H39 H 0.25024 0.58058 0.08028 0.0
Nd40 Nd 0.86612 0.24837 0.36647 0.0
Nd41 Nd 0.78021 0.22287 0.38148 0.0
C42 C 0.93378 0.28418 0.33307 0.0
C43 C 0.95989 0.28815 0.25079 0.0
C44 C 0.96866 0.31252 0.16611 0.0
C45 C 0.99861 0.32266 0.10409 0.0
C46 C 1.02012 0.30861 0.12598 0.0
C47 C 1.00962 0.28156 0.20188 0.0
C48 C 0.9796 0.27136 0.2643 0.0
C49 C 0.82223 0.17708 0.35034 0.0
C50 C 0.81892 0.23369 0.14474 0.0
C51 C 0.71239 0.18737 0.41635 0.0
C52 C 0.68605 0.18986 0.48413 0.0
C53 C 0.66628 0.16337 0.5598 0.0
C54 C 0.63877 0.16333 0.61638 0.0
C55 C 0.63066 0.18974 0.59758 0.0
C56 C 0.65131 0.2171 0.52623 0.0
C57 C 0.67884 0.21725 0.46996 0.0
C58 C 0.82435 0.29426 0.39057 0.0
C59 C 0.82788 0.23676 0.6038 0.0
O60 O 0.9126 0.29591 0.30759 0.0
O61 O 0.91887 0.25528 0.39071 0.0
O62 O 0.85595 0.19122 0.35553 0.0
O63 O 0.81471 0.20084 0.35029 0.0
O64 O 0.85021 0.24958 0.19034 0.0
O65 O 0.78892 0.21814 0.19916 0.0
O66 O 0.7344 0.18032 0.46636 0.0
O67 O 0.72676 0.21013 0.33709 0.0
O68 O 0.79065 0.28018 0.38262 0.0
O69 O 0.83149 0.27034 0.40146 0.0
O70 O 0.7966 0.2224 0.55801 0.0
O71 O 0.85793 0.25105 0.54983 0.0
H72 H 0.95387 0.32568 0.1526 0.0
H73 H 1.00643 0.34352 0.04527 0.0
H74 H 1.02603 0.27036 0.2191 0.0
H75 H 0.9733 0.2522 0.32798 0.0
H76 H 0.67143 0.14211 0.57271 0.0
H77 H 0.62316 0.14211 0.67186 0.0
H78 H 0.64549 0.23784 0.51146 0.0
H79 H 0.69375 0.23828 0.41324 0.0
Nd80 Nd 0.64121 0.85377 0.69887 0.0
Nd81 Nd 0.58234 0.76905 0.716 0.0
C82 C 0.67361 0.92167 0.66509 0.0
C83 C 0.69565 0.94788 0.58268 0.0
C84 C 0.67993 0.95659 0.4983 0.0
C85 C 0.69965 0.98649 0.43583 0.0
C86 C 0.73523 1.00802 0.45699 0.0
C87 C 0.75189 0.99762 0.53272 0.0
C88 C 0.73216 0.96766 0.59563 0.0
C89 C 0.66835 0.80999 0.69087 0.0
C90 C 0.60886 0.8072 0.47739 0.0
C91 C 0.54943 0.70089 0.7495 0.0
C92 C 0.52043 0.67428 0.81666 0.0
C93 C 0.52693 0.65407 0.89123 0.0
C94 C 0.49933 0.62644 0.94726 0.0
C95 C 0.46489 0.61862 0.92895 0.0
C96 C 0.45838 0.63963 0.85858 0.0
C97 C 0.48589 0.66727 0.80286 0.0
C98 C 0.55482 0.81268 0.72129 0.0
C99 C 0.61579 0.81609 0.93749 0.0
O100 O 0.64063 0.90066 0.64067 0.0
O101 O 0.68758 0.90651 0.72132 0.0
O102 O 0.68776 0.84338 0.70616 0.0
O103 O 0.63803 0.80281 0.6644 0.0
O104 O 0.62435 0.83847 0.52275 0.0
O105 O 0.5948 0.77735 0.5326 0.0
O106 O 0.5785 0.72266 0.79962 0.0
O107 O 0.5412 0.71564 0.67116 0.0
O108 O 0.53553 0.77916 0.70799 0.0
O109 O 0.5852 0.8199 0.74763 0.0
O110 O 0.59951 0.78485 0.89195 0.0
O111 O 0.63071 0.84599 0.88277 0.0
H112 H 0.65198 0.94177 0.4853 0.0
H113 H 0.68652 0.99424 0.37719 0.0
H114 H 0.77952 1.01407 0.5494 0.0
H115 H 0.74511 0.96144 0.65915 0.0
H116 H 0.55327 0.659 0.90377 0.0
H117 H 0.50478 0.61055 1.00196 0.0
H118 H 0.43187 0.63402 0.84417 0.0
H119 H 0.47991 0.68247 0.7469 0.0
Nd120 Nd 0.81088 0.62812 1.03216 0.0
Nd121 Nd 0.83752 0.57071 0.04944 0.0
C122 C 0.77565 0.66094 0.99858 0.0
C123 C 0.77164 0.68329 0.9168 0.0
C124 C 0.74723 0.66785 0.83249 0.0
C125 C 0.73707 0.68776 0.77098 0.0
C126 C 0.75112 0.72328 0.79298 0.0
C127 C 0.77822 0.73971 0.86851 0.0
C128 C 0.78843 0.71977 0.9305 0.0
C129 C 0.88167 0.65606 1.02742 0.0
C130 C 0.82535 0.59614 0.81026 0.0
C131 C 0.87268 0.53752 0.08282 0.0
C132 C 0.87045 0.5085 0.14999 0.0
C133 C 0.89721 0.515 0.22424 0.0
C134 C 0.8973 0.48741 0.28036 0.0
C135 C 0.87071 0.45296 0.26243 0.0
C136 C 0.84319 0.44642 0.1922 0.0
C137 C 0.843 0.47391 0.13639 0.0
C138 C 0.76639 0.54246 0.05509 0.0
C139 C 0.82402 0.60382 0.27094 0.0
O140 O 0.76358 0.62799 0.97379 0.0
O141 O 0.80473 0.67465 0.05462 0.0
O142 O 0.86706 0.67455 0.04902 0.0
O143 O 0.85948 0.62629 0.99321 0.0
O144 O 0.80954 0.61159 0.85564 0.0
O145 O 0.84134 0.58238 0.86568 0.0
O146 O 0.88013 0.56667 0.13245 0.0
O147 O 0.84955 0.52929 1.00527 0.0
O148 O 0.78101 0.52368 0.03868 0.0
O149 O 0.78895 0.57253 0.08569 0.0
O150 O 0.83962 0.58822 0.22516 0.0
O151 O 0.80813 0.61776 0.21614 0.0
H152 H 0.73407 0.63993 0.8189 0.0
H153 H 0.71617 0.6748 0.71247 0.0
H154 H 0.78943 0.7673 0.88581 0.0
H155 H 0.80761 0.73253 0.99399 0.0
H156 H 0.9186 0.54135 0.23657 0.0
H157 H 0.91866 0.4929 0.33489 0.0
H158 H 0.82232 0.4199 0.17802 0.0
H159 H 0.82181 0.46788 0.08058 0.0
Nd160 Nd 0.20719 0.79942 0.36607 0.0
Nd161 Nd 0.29077 0.8253 0.38287 0.0
C162 C 0.13907 0.76422 0.33171 0.0
C163 C 0.11239 0.75965 0.25023 0.0
C164 C 0.10351 0.73515 0.1662 0.0
C165 C 0.07331 0.72467 0.10493 0.0
C166 C 0.05153 0.73841 0.127 0.0
C167 C 0.06205 0.76551 0.2024 0.0
C168 C 0.0923 0.77603 0.26408 0.0
C169 C 0.25082 0.87018 0.36115 0.0
C170 C 0.25327 0.81314 0.1438 0.0
C171 C 0.3591 0.86035 0.41641 0.0
C172 C 0.38589 0.8582 0.48362 0.0
C173 C 0.40609 0.88499 0.55771 0.0
C174 C 0.43381 0.88515 0.61367 0.0
C175 C 0.4418 0.85863 0.59573 0.0
C176 C 0.42087 0.8311 0.52566 0.0
C177 C 0.39315 0.83083 0.47001 0.0
C178 C 0.2476 0.75431 0.38827 0.0
C179 C 0.24418 0.81219 0.6047 0.0
O180 O 0.16004 0.75219 0.30748 0.0
O181 O 0.15443 0.79345 0.38684 0.0
O182 O 0.2179 0.85589 0.38523 0.0
O183 O 0.25787 0.84781 0.32526 0.0
O184 O 0.22205 0.79758 0.18954 0.0
O185 O 0.28301 0.82908 0.19901 0.0
O186 O 0.33738 0.86786 0.46584 0.0
O187 O 0.34421 0.83714 0.33922 0.0
O188 O 0.28092 0.76881 0.37027 0.0
O189 O 0.24024 0.77683 0.42084 0.0
O190 O 0.27538 0.82765 0.5587 0.0
O191 O 0.2144 0.79637 0.54998 0.0
H192 H 0.11852 0.72225 0.15245 0.0
H193 H 0.06558 0.70384 0.04639 0.0
H194 H 0.04553 0.77657 0.21971 0.0
H195 H 0.09858 0.79522 0.32737 0.0
H196 H 0.40106 0.90633 0.57001 0.0
H197 H 0.44963 0.90653 0.66808 0.0
H198 H 0.42659 0.81028 0.51144 0.0
H199 H 0.37806 0.80964 0.4143 0.0
Nd200 Nd 0.43037 0.19376 0.70101 0.0
Nd201 Nd 0.49058 0.2797 0.71579 0.0
C202 C 0.39858 0.12613 0.66677 0.0
C203 C 0.37659 0.10001 0.58438 0.0
C204 C 0.39233 0.0914 0.49997 0.0
C205 C 0.37268 0.06141 0.4381 0.0
C206 C 0.33713 0.03968 0.4599 0.0
C207 C 0.32044 0.05005 0.53548 0.0
C208 C 0.3401 0.0801 0.59772 0.0
C209 C 0.40312 0.2378 0.68699 0.0
C210 C 0.46279 0.24112 0.47887 0.0
C211 C 0.52303 0.34755 0.7501 0.0
C212 C 0.55196 0.37389 0.81763 0.0
C213 C 0.54537 0.39372 0.89314 0.0
C214 C 0.57293 0.42121 0.94939 0.0
C215 C 0.60742 0.42926 0.93042 0.0
C216 C 0.61399 0.40854 0.85925 0.0
C217 C 0.58653 0.38104 0.80332 0.0
C218 C 0.51807 0.23569 0.72578 0.0
C219 C 0.45668 0.23197 0.93807 0.0
O220 O 0.43153 0.14737 0.64198 0.0
O221 O 0.38444 0.14094 0.72387 0.0
O222 O 0.38346 0.20414 0.69508 0.0
O223 O 0.43428 0.24509 0.67945 0.0
O224 O 0.44725 0.20979 0.52466 0.0
O225 O 0.47734 0.27109 0.53318 0.0
O226 O 0.49398 0.32556 0.8003 0.0
O227 O 0.53133 0.33317 0.6709 0.0
O228 O 0.53758 0.2694 0.71794 0.0
O229 O 0.48695 0.22845 0.73601 0.0
O230 O 0.47329 0.26324 0.89197 0.0
O231 O 0.4413 0.20192 0.88437 0.0
H232 H 0.42027 0.10634 0.48657 0.0
H233 H 0.38585 0.05376 0.37947 0.0
H234 H 0.29284 0.03352 0.55261 0.0
H235 H 0.32712 0.08626 0.66119 0.0
H236 H 0.51898 0.38862 0.9062 0.0
H237 H 0.56739 0.43683 1.00475 0.0
H238 H 0.64052 0.41429 0.84434 0.0
H239 H 0.59256 0.36609 0.74673 0.0
C240 C 0.37468 0.2775 0.7008 0.0
C241 C 0.39024 0.26171 0.69351 0.0
C242 C 0.35455 0.29347 0.72177 0.0
C243 C 0.33912 0.3076 0.75466 0.0
C244 C 0.12112 0.3623 1.03327 0.0
C245 C 0.15246 0.3779 1.02603 0.0
C246 C 0.08506 0.34214 0.05437 0.0
C247 C 0.0555 0.32669 0.0874 0.0
C248 C 0.78263 0.10896 0.36375 0.0
C249 C 0.7985 0.14031 0.35716 0.0
C250 C 0.76659 0.07288 0.38463 0.0
C251 C 0.75245 0.04335 0.41791 0.0
C252 C 0.69718 0.77052 0.7008 0.0
C253 C 0.68149 0.78621 0.69386 0.0
C254 C 0.71744 0.75468 0.72198 0.0
C255 C 0.733 0.74063 0.75481 0.0
C256 C 0.98635 0.70494 0.05608 0.0
C257 C 1.01604 0.72021 0.08844 0.0
C258 C 0.95014 0.68542 1.03534 0.0
C259 C 0.91873 0.67003 1.02918 0.0
C260 C 0.3059 0.9747 0.38849 0.0
C261 C 0.31998 1.00428 0.42132 0.0
C262 C 0.28987 0.93859 0.36751 0.0
C263 C 0.27414 0.90719 0.36147 0.0
C264 C 0.24591 0.44901 0.59821 0.0
C265 C 0.24476 0.45076 0.69556 0.0
C266 C 0.24798 0.44623 0.4847 0.0
C267 C 0.24925 0.44463 0.38734 0.0
C268 C 0.82102 0.23412 0.93104 0.0
C269 C 0.81816 0.23295 1.02842 0.0
C270 C 0.82581 0.23612 0.81749 0.0
C271 C 0.82861 0.23727 0.7201 0.0
C272 C 0.61101 0.80922 0.26416 0.0
C273 C 0.60909 0.80635 0.36138 0.0
C274 C 0.61398 0.81407 0.15081 0.0
C275 C 0.61578 0.81689 0.05356 0.0
C276 C 0.82592 0.59862 0.59723 0.0
C277 C 0.8267 0.59652 0.69437 0.0
C278 C 0.82414 0.60179 0.48406 0.0
C279 C 0.82309 0.60367 0.38691 0.0
C280 C 0.24626 0.81212 0.81777 0.0
C281 C 0.24335 0.81116 0.72065 0.0
C282 C 0.25125 0.8138 0.93085 0.0
C283 C 0.25417 0.81453 1.02794 0.0
C284 C 0.46086 0.23902 0.26523 0.0
C285 C 0.46269 0.24191 0.36256 0.0
C286 C 0.45801 0.23415 0.15174 0.0
C287 C 0.45641 0.23127 0.0544 0.0
C288 C 0.20302 0.65148 0.34345 0.0
C289 C 0.20028 0.62437 0.31174 0.0
C290 C 0.21135 0.68606 0.36855 0.0
C291 C 0.22427 0.71718 0.38159 0.0
C292 C 0.57557 0.19069 0.67659 0.0
C293 C 0.59998 0.18804 0.64486 0.0
C294 C 0.5493 0.19897 0.70113 0.0
C295 C 0.53118 0.21197 0.71395 0.0
C296 C 0.37417 0.53724 1.03219 0.0
C297 C 0.34307 0.51915 0.04537 0.0
C298 C 0.40872 0.56349 1.00744 0.0
C299 C 0.4358 0.58791 0.97579 0.0
C300 C 0.86128 0.36218 0.36581 0.0
C301 C 0.84818 0.33106 0.37874 0.0
C302 C 0.86966 0.39677 0.34117 0.0
C303 C 0.87235 0.42387 0.30945 0.0
C304 C 0.49703 0.85765 0.67424 0.0
C305 C 0.47257 0.8603 0.64262 0.0
C306 C 0.52334 0.84936 0.6992 0.0
C307 C 0.54149 0.83637 0.71251 0.0
C308 C 0.69817 0.51052 1.03415 0.0
C309 C 0.72929 0.52868 0.04742 0.0
C310 C 0.66361 0.48429 1.00906 0.0
C311 C 0.63652 0.4599 0.97743 0.0
loop_
_geom_bond_atom_site_label_1
_geom_bond_atom_site_label_2
_geom_bond_distance
_geom_bond_site_symmetry_2
_ccdc_geom_bond_type
Nd0 C2 2.836 1_554 S
Nd0 O20 2.500 1_554 S
Nd0 O21 2.492 1_554 S
Nd0 O22 2.487 . S
Nd0 O23 2.682 . S
Nd0 O24 2.410 1_554 S
Nd0 O29 2.414 1_554 S
Nd0 O31 2.424 . S
Nd1 C11 2.836 1_556 S
Nd1 O23 2.414 1_556 S
Nd1 O25 2.424 . S
Nd1 O26 2.500 1_556 S
Nd1 O27 2.492 1_556 S
Nd1 O28 2.487 . S
Nd1 O29 2.682 . S
Nd1 O30 2.410 1_556 S
C2 Nd0 2.836 1_556 S
C2 C3 1.498 . S
C2 O20 1.258 . S
C2 O21 1.239 . S
C3 C2 1.498 . S
C3 C4 1.366 . S
C3 C8 1.407 . S
C4 C3 1.366 . S
C4 C5 1.392 . S
C4 H32 0.930 . S
C5 C4 1.392 . S
C5 C6 1.398 . S
C5 H33 0.929 . S
C6 C5 1.398 . S
C6 C7 1.352 . S
C7 C6 1.352 . S
C7 C8 1.384 . S
C7 H34 0.930 . S
C8 C3 1.407 . S
C8 C7 1.384 . S
C8 H35 0.929 . S
C9 O22 1.241 . S
C9 O23 1.273 . S
C10 O24 1.251 . S
C10 O25 1.268 . S
C11 Nd1 2.836 1_554 S
C11 C12 1.498 . S
C11 O26 1.258 . S
C11 O27 1.239 . S
C12 C11 1.498 . S
C12 C13 1.366 . S
C12 C17 1.407 . S
C13 C12 1.366 . S
C13 C14 1.392 . S
C13 H36 0.930 . S
C14 C13 1.392 . S
C14 C15 1.398 . S
C14 H37 0.929 . S
C15 C14 1.398 . S
C15 C16 1.352 . S
C16 C15 1.352 . S
C16 C17 1.384 . S
C16 H38 0.930 . S
C17 C12 1.407 . S
C17 C16 1.384 . S
C17 H39 0.929 . S
C18 O28 1.241 . S
C18 O29 1.273 . S
C19 O30 1.251 . S
C19 O31 1.268 . S
O20 Nd0 2.500 1_556 S
O20 C2 1.258 . S
O21 Nd0 2.492 1_556 S
O21 C2 1.239 . S
O22 Nd0 2.487 . S
O22 C9 1.241 . S
O23 Nd0 2.682 . S
O23 Nd1 2.414 1_554 S
O23 C9 1.273 . S
O24 Nd0 2.410 1_556 S
O24 C10 1.251 . S
O25 Nd1 2.424 . S
O25 C10 1.268 . S
O26 Nd1 2.500 1_554 S
O26 C11 1.258 . S
O27 Nd1 2.492 1_554 S
O27 C11 1.239 . S
O28 Nd1 2.487 . S
O28 C18 1.241 . S
O29 Nd0 2.414 1_556 S
O29 Nd1 2.682 . S
O29 C18 1.273 . S
O30 Nd1 2.410 1_554 S
O30 C19 1.251 . S
O31 Nd0 2.424 . S
O31 C19 1.268 . S
H32 C4 0.930 . S
H33 C5 0.929 . S
H34 C7 0.930 . S
H35 C8 0.929 . S
H36 C13 0.930 . S
H37 C14 0.929 . S
H38 C16 0.930 . S
H39 C17 0.929 . S
Nd40 C42 2.836 . S
Nd40 O60 2.500 . S
Nd40 O61 2.492 . S
Nd40 O62 2.487 . S
Nd40 O63 2.682 . S
Nd40 O64 2.410 . S
Nd40 O69 2.414 . S
Nd40 O71 2.424 . S
Nd41 C51 2.836 . S
Nd41 O63 2.414 . S
Nd41 O65 2.424 . S
Nd41 O66 2.500 . S
Nd41 O67 2.492 . S
Nd41 O68 2.487 . S
Nd41 O69 2.682 . S
Nd41 O70 2.410 . S
C42 Nd40 2.836 . S
C42 C43 1.498 . S
C42 O60 1.258 . S
C42 O61 1.239 . S
C43 C42 1.498 . S
C43 C44 1.366 . S
C43 C48 1.407 . S
C44 C43 1.366 . S
C44 C45 1.392 . S
C44 H72 0.930 . S
C45 C44 1.392 . S
C45 C46 1.398 . S
C45 H73 0.929 1_554 S
C46 C45 1.398 . S
C46 C47 1.352 . S
C47 C46 1.352 . S
C47 C48 1.384 . S
C47 H74 0.930 . S
C48 C43 1.407 . S
C48 C47 1.384 . S
C48 H75 0.929 . S
C49 O62 1.241 . S
C49 O63 1.273 . S
C50 O64 1.251 . S
C50 O65 1.268 . S
C51 Nd41 2.836 . S
C51 C52 1.498 . S
C51 O66 1.258 . S
C51 O67 1.239 . S
C52 C51 1.498 . S
C52 C53 1.366 . S
C52 C57 1.407 . S
C53 C52 1.366 . S
C53 C54 1.392 . S
C53 H76 0.930 . S
C54 C53 1.392 . S
C54 C55 1.398 . S
C54 H77 0.929 . S
C55 C54 1.398 . S
C55 C56 1.352 . S
C56 C55 1.352 . S
C56 C57 1.384 . S
C56 H78 0.930 . S
C57 C52 1.407 . S
C57 C56 1.384 . S
C57 H79 0.929 . S
C58 O68 1.241 . S
C58 O69 1.273 . S
C59 O70 1.251 . S
C59 O71 1.268 . S
O60 Nd40 2.500 . S
O60 C42 1.258 . S
O61 Nd40 2.492 . S
O61 C42 1.239 . S
O62 Nd40 2.487 . S
O62 C49 1.241 . S
O63 Nd40 2.682 . S
O63 Nd41 2.414 . S
O63 C49 1.273 . S
O64 Nd40 2.410 . S
O64 C50 1.251 . S
O65 Nd41 2.424 . S
O65 C50 1.268 . S
O66 Nd41 2.500 . S
O66 C51 1.258 . S
O67 Nd41 2.492 . S
O67 C51 1.239 . S
O68 Nd41 2.487 . S
O68 C58 1.241 . S
O69 Nd40 2.414 . S
O69 Nd41 2.682 . S
O69 C58 1.273 . S
O70 Nd41 2.410 . S
O70 C59 1.251 . S
O71 Nd40 2.424 . S
O71 C59 1.268 . S
H72 C44 0.930 . S
H73 C45 0.929 1_556 S
H74 C47 0.930 . S
H75 C48 0.929 . S
H76 C53 0.930 . S
H77 C54 0.929 . S
H78 C56 0.930 . S
H79 C57 0.929 . S
Nd80 C82 2.836 . S
Nd80 O100 2.500 . S
Nd80 O101 2.492 . S
Nd80 O102 2.487 . S
Nd80 O103 2.682 . S
Nd80 O104 2.410 . S
Nd80 O109 2.414 . S
Nd80 O111 2.424 . S
Nd81 C91 2.836 . S
Nd81 O103 2.414 . S
Nd81 O105 2.424 . S
Nd81 O106 2.500 . S
Nd81 O107 2.492 . S
Nd81 O108 2.487 . S
Nd81 O109 2.682 . S
Nd81 O110 2.410 . S
C82 Nd80 2.836 . S
C82 C83 1.498 . S
C82 O100 1.258 . S
C82 O101 1.239 . S
C83 C82 1.498 . S
C83 C84 1.366 . S
C83 C88 1.407 . S
C84 C83 1.366 . S
C84 C85 1.392 . S
C84 H112 0.930 . S
C85 C84 1.392 . S
C85 C86 1.398 . S
C85 H113 0.929 . S
C86 C85 1.398 . S
C86 C87 1.352 . S
C87 C86 1.352 . S
C87 C88 1.384 . S
C87 H114 0.930 . S
C88 C83 1.407 . S
C88 C87 1.384 . S
C88 H115 0.929 . S
C89 O102 1.241 . S
C89 O103 1.273 . S
C90 O104 1.251 . S
C90 O105 1.268 . S
C91 Nd81 2.836 . S
C91 C92 1.498 . S
C91 O106 1.258 . S
C91 O107 1.239 . S
C92 C91 1.498 . S
C92 C93 1.366 . S
C92 C97 1.407 . S
C93 C92 1.366 . S
C93 C94 1.392 . S
C93 H116 0.930 . S
C94 C93 1.392 . S
C94 C95 1.398 . S
C94 H117 0.929 1_556 S
C95 C94 1.398 . S
C95 C96 1.352 . S
C96 C95 1.352 . S
C96 C97 1.384 . S
C96 H118 0.930 . S
C97 C92 1.407 . S
C97 C96 1.384 . S
C97 H119 0.929 . S
C98 O108 1.241 . S
C98 O109 1.273 . S
C99 O110 1.251 . S
C99 O111 1.268 . S
O100 Nd80 2.500 . S
O100 C82 1.258 . S
O101 Nd80 2.492 . S
O101 C82 1.239 . S
O102 Nd80 2.487 . S
O102 C89 1.241 . S
O103 Nd80 2.682 . S
O103 Nd81 2.414 . S
O103 C89 1.273 . S
O104 Nd80 2.410 . S
O104 C90 1.251 . S
O105 Nd81 2.424 . S
O105 C90 1.268 . S
O106 Nd81 2.500 . S
O106 C91 1.258 . S
O107 Nd81 2.492 . S
O107 C91 1.239 . S
O108 Nd81 2.487 . S
O108 C98 1.241 . S
O109 Nd80 2.414 . S
O109 Nd81 2.682 . S
O109 C98 1.273 . S
O110 Nd81 2.410 . S
O110 C99 1.251 . S
O111 Nd80 2.424 . S
O111 C99 1.268 . S
H112 C84 0.930 . S
H113 C85 0.929 . S
H114 C87 0.930 . S
H115 C88 0.929 . S
H116 C93 0.930 . S
H117 C94 0.929 1_554 S
H118 C96 0.930 . S
H119 C97 0.929 . S
Nd120 C122 2.836 1_554 S
Nd120 O140 2.500 1_554 S
Nd120 O141 2.492 1_554 S
Nd120 O142 2.487 . S
Nd120 O143 2.682 . S
Nd120 O144 2.410 1_554 S
Nd120 O149 2.414 1_554 S
Nd120 O151 2.424 . S
Nd121 C131 2.836 1_556 S
Nd121 O143 2.414 1_556 S
Nd121 O145 2.424 . S
Nd121 O146 2.500 1_556 S
Nd121 O147 2.492 1_556 S
Nd121 O148 2.487 . S
Nd121 O149 2.682 . S
Nd121 O150 2.410 1_556 S
C122 Nd120 2.836 1_556 S
C122 C123 1.498 . S
C122 O140 1.258 . S
C122 O141 1.239 . S
C123 C122 1.498 . S
C123 C124 1.366 . S
C123 C128 1.407 . S
C124 C123 1.366 . S
C124 C125 1.392 . S
C124 H152 0.930 . S
C125 C124 1.392 . S
C125 C126 1.398 . S
C125 H153 0.929 . S
C126 C125 1.398 . S
C126 C127 1.352 . S
C127 C126 1.352 . S
C127 C128 1.384 . S
C127 H154 0.930 . S
C128 C123 1.407 . S
C128 C127 1.384 . S
C128 H155 0.929 . S
C129 O142 1.241 . S
C129 O143 1.273 . S
C130 O144 1.251 . S
C130 O145 1.268 . S
C131 Nd121 2.836 1_554 S
C131 C132 1.498 . S
C131 O146 1.258 . S
C131 O147 1.239 . S
C132 C131 1.498 . S
C132 C133 1.366 . S
C132 C137 1.407 . S
C133 C132 1.366 . S
C133 C134 1.392 . S
C133 H156 0.930 . S
C134 C133 1.392 . S
C134 C135 1.398 . S
C134 H157 0.929 . S
C135 C134 1.398 . S
C135 C136 1.352 . S
C136 C135 1.352 . S
C136 C137 1.384 . S
C136 H158 0.930 . S
C137 C132 1.407 . S
C137 C136 1.384 . S
C137 H159 0.929 . S
C138 O148 1.241 . S
C138 O149 1.273 . S
C139 O150 1.251 . S
C139 O151 1.268 . S
O140 Nd120 2.500 1_556 S
O140 C122 1.258 . S
O141 Nd120 2.492 1_556 S
O141 C122 1.239 . S
O142 Nd120 2.487 . S
O142 C129 1.241 . S
O143 Nd120 2.682 . S
O143 Nd121 2.414 1_554 S
O143 C129 1.273 . S
O144 Nd120 2.410 1_556 S
O144 C130 1.251 . S
O145 Nd121 2.424 . S
O145 C130 1.268 . S
O146 Nd121 2.500 1_554 S
O146 C131 1.258 . S
O147 Nd121 2.492 1_554 S
O147 C131 1.239 . S
O148 Nd121 2.487 . S
O148 C138 1.241 . S
O149 Nd120 2.414 1_556 S
O149 Nd121 2.682 . S
O149 C138 1.273 . S
O150 Nd121 2.410 1_554 S
O150 C139 1.251 . S
O151 Nd120 2.424 . S
O151 C139 1.268 . S
H152 C124 0.930 . S
H153 C125 0.929 . S
H154 C127 0.930 . S
H155 C128 0.929 . S
H156 C133 0.930 . S
H157 C134 0.929 . S
H158 C136 0.930 . S
H159 C137 0.929 . S
Nd160 C162 2.836 . S
Nd160 O180 2.500 . S
Nd160 O181 2.492 . S
Nd160 O182 2.487 . S
Nd160 O183 2.682 . S
Nd160 O184 2.410 . S
Nd160 O189 2.414 . S
Nd160 O191 2.424 . S
Nd161 C171 2.836 . S
Nd161 O183 2.414 . S
Nd161 O185 2.424 . S
Nd161 O186 2.500 . S
Nd161 O187 2.492 . S
Nd161 O188 2.487 . S
Nd161 O189 2.682 . S
Nd161 O190 2.410 . S
C162 Nd160 2.836 . S
C162 C163 1.498 . S
C162 O180 1.258 . S
C162 O181 1.239 . S
C163 C162 1.498 . S
C163 C164 1.366 . S
C163 C168 1.407 . S
C164 C163 1.366 . S
C164 C165 1.392 . S
C164 H192 0.930 . S
C165 C164 1.392 . S
C165 C166 1.398 . S
C165 H193 0.929 1_554 S
C166 C165 1.398 . S
C166 C167 1.352 . S
C167 C166 1.352 . S
C167 C168 1.384 . S
C167 H194 0.930 . S
C168 C163 1.407 . S
C168 C167 1.384 . S
C168 H195 0.929 . S
C169 O182 1.241 . S
C169 O183 1.273 . S
C170 O184 1.251 . S
C170 O185 1.268 . S
C171 Nd161 2.836 . S
C171 C172 1.498 . S
C171 O186 1.258 . S
C171 O187 1.239 . S
C172 C171 1.498 . S
C172 C173 1.366 . S
C172 C177 1.407 . S
C173 C172 1.366 . S
C173 C174 1.392 . S
C173 H196 0.930 . S
C174 C173 1.392 . S
C174 C175 1.398 . S
C174 H197 0.929 . S
C175 C174 1.398 . S
C175 C176 1.352 . S
C176 C175 1.352 . S
C176 C177 1.384 . S
C176 H198 0.930 . S
C177 C172 1.407 . S
C177 C176 1.384 . S
C177 H199 0.929 . S
C178 O188 1.241 . S
C178 O189 1.273 . S
C179 O190 1.251 . S
C179 O191 1.268 . S
O180 Nd160 2.500 . S
O180 C162 1.258 . S
O181 Nd160 2.492 . S
O181 C162 1.239 . S
O182 Nd160 2.487 . S
O182 C169 1.241 . S
O183 Nd160 2.682 . S
O183 Nd161 2.414 . S
O183 C169 1.273 . S
O184 Nd160 2.410 . S
O184 C170 1.251 . S
O185 Nd161 2.424 . S
O185 C170 1.268 . S
O186 Nd161 2.500 . S
O186 C171 1.258 . S
O187 Nd161 2.492 . S
O187 C171 1.239 . S
O188 Nd161 2.487 . S
O188 C178 1.241 . S
O189 Nd160 2.414 . S
O189 Nd161 2.682 . S
O189 C178 1.273 . S
O190 Nd161 2.410 . S
O190 C179 1.251 . S
O191 Nd160 2.424 . S
O191 C179 1.268 . S
H192 C164 0.930 . S
H193 C165 0.929 1_556 S
H194 C167 0.930 . S
H195 C168 0.929 . S
H196 C173 0.930 . S
H197 C174 0.929 . S
H198 C176 0.930 . S
H199 C177 0.929 . S
Nd200 C202 2.836 . S
Nd200 O220 2.500 . S
Nd200 O221 2.492 . S
Nd200 O222 2.487 . S
Nd200 O223 2.682 . S
Nd200 O224 2.410 . S
Nd200 O229 2.414 . S
Nd200 O231 2.424 . S
Nd201 C211 2.836 . S
Nd201 O223 2.414 . S
Nd201 O225 2.424 . S
Nd201 O226 2.500 . S
Nd201 O227 2.492 . S
Nd201 O228 2.487 . S
Nd201 O229 2.682 . S
Nd201 O230 2.410 . S
C202 Nd200 2.836 . S
C202 C203 1.498 . S
C202 O220 1.258 . S
C202 O221 1.239 . S
C203 C202 1.498 . S
C203 C204 1.366 . S
C203 C208 1.407 . S
C204 C203 1.366 . S
C204 C205 1.392 . S
C204 H232 0.930 . S
C205 C204 1.392 . S
C205 C206 1.398 . S
C205 H233 0.929 . S
C206 C205 1.398 . S
C206 C207 1.352 . S
C207 C206 1.352 . S
C207 C208 1.384 . S
C207 H234 0.930 . S
C208 C203 1.407 . S
C208 C207 1.384 . S
C208 H235 0.929 . S
C209 O222 1.241 . S
C209 O223 1.273 . S
C210 O224 1.251 . S
C210 O225 1.268 . S
C211 Nd201 2.836 . S
C211 C212 1.498 . S
C211 O226 1.258 . S
C211 O227 1.239 . S
C212 C211 1.498 . S
C212 C213 1.366 . S
C212 C217 1.407 . S
C213 C212 1.366 . S
C213 C214 1.392 . S
C213 H236 0.930 . S
C214 C213 1.392 . S
C214 C215 1.398 . S
C214 H237 0.929 1_556 S
C215 C214 1.398 . S
C215 C216 1.352 . S
C216 C215 1.352 . S
C216 C217 1.384 . S
C216 H238 0.930 . S
C217 C212 1.407 . S
C217 C216 1.384 . S
C217 H239 0.929 . S
C218 O228 1.241 . S
C218 O229 1.273 . S
C219 O230 1.251 . S
C219 O231 1.268 . S
O220 Nd200 2.500 . S
O220 C202 1.258 . S
O221 Nd200 2.492 . S
O221 C202 1.239 . S
O222 Nd200 2.487 . S
O222 C209 1.241 . S
O223 Nd200 2.682 . S
O223 Nd201 2.414 . S
O223 C209 1.273 . S
O224 Nd200 2.410 . S
O224 C210 1.251 . S
O225 Nd201 2.424 . S
O225 C210 1.268 . S
O226 Nd201 2.500 . S
O226 C211 1.258 . S
O227 Nd201 2.492 . S
O227 C211 1.239 . S
O228 Nd201 2.487 . S
O228 C218 1.241 . S
O229 Nd200 2.414 . S
O229 Nd201 2.682 . S
O229 C218 1.273 . S
O230 Nd201 2.410 . S
O230 C219 1.251 . S
O231 Nd200 2.424 . S
O231 C219 1.268 . S
H232 C204 0.930 . S
H233 C205 0.929 . S
H234 C207 0.930 . S
H235 C208 0.929 . S
H236 C213 0.930 . S
H237 C214 0.929 1_554 S
H238 C216 0.930 . S
H239 C217 0.929 . S
C240 C241 1.170 . S
C240 C242 1.380 . S
C241 C240 1.170 . S
C242 C240 1.380 . S
C242 C243 1.170 . S
C243 C242 1.170 . S
C244 C245 1.170 . S
C244 C246 1.380 . S
C245 C244 1.170 . S
C246 C244 1.380 . S
C246 C247 1.170 . S
C247 C246 1.170 . S
C248 C249 1.170 . S
C248 C250 1.380 . S
C249 C248 1.170 . S
C250 C248 1.380 . S
C250 C251 1.170 . S
C251 C250 1.170 . S
C252 C253 1.170 . S
C252 C254 1.380 . S
C253 C252 1.170 . S
C254 C252 1.380 . S
C254 C255 1.170 . S
C255 C254 1.170 . S
C256 C257 1.170 . S
C256 C258 1.380 . S
C257 C256 1.170 . S
C258 C256 1.380 . S
C258 C259 1.170 . S
C259 C258 1.170 . S
C260 C261 1.170 . S
C260 C262 1.380 . S
C261 C260 1.170 . S
C262 C260 1.380 . S
C262 C263 1.170 . S
C263 C262 1.170 . S
C264 C265 1.170 . S
C264 C266 1.380 . S
C265 C264 1.170 . S
C266 C264 1.380 . S
C266 C267 1.170 . S
C267 C266 1.170 . S
C268 C269 1.170 . S
C268 C270 1.380 . S
C269 C268 1.170 . S
C270 C268 1.380 . S
C270 C271 1.170 . S
C271 C270 1.170 . S
C272 C273 1.170 . S
C272 C274 1.380 . S
C273 C272 1.170 . S
C274 C272 1.380 . S
C274 C275 1.170 . S
C275 C274 1.170 . S
C276 C277 1.170 . S
C276 C278 1.380 . S
C277 C276 1.170 . S
C278 C276 1.380 . S
C278 C279 1.170 . S
C279 C278 1.170 . S
C280 C281 1.170 . S
C280 C282 1.380 . S
C281 C280 1.170 . S
C282 C280 1.380 . S
C282 C283 1.170 . S
C283 C282 1.170 . S
C284 C285 1.170 . S
C284 C286 1.380 . S
C285 C284 1.170 . S
C286 C284 1.380 . S
C286 C287 1.170 . S
C287 C286 1.170 . S
C288 C289 1.170 . S
C288 C290 1.380 . S
C289 C288 1.170 . S
C290 C288 1.380 . S
C290 C291 1.170 . S
C291 C290 1.170 . S
C292 C293 1.170 . S
C292 C294 1.380 . S
C293 C292 1.170 . S
C294 C292 1.380 . S
C294 C295 1.170 . S
C295 C294 1.170 . S
C296 C297 1.170 . S
C296 C298 1.380 . S
C297 C296 1.170 . S
C298 C296 1.380 . S
C298 C299 1.170 . S
C299 C298 1.170 . S
C300 C301 1.170 . S
C300 C302 1.380 . S
C301 C300 1.170 . S
C302 C300 1.380 . S
C302 C303 1.170 . S
C303 C302 1.170 . S
C304 C305 1.170 . S
C304 C306 1.380 . S
C305 C304 1.170 . S
C306 C304 1.380 . S
C306 C307 1.170 . S
C307 C306 1.170 . S
C308 C309 1.170 . S
C308 C310 1.380 . S
C309 C308 1.170 . S
C310 C308 1.380 . S
C310 C311 1.170 . S
C311 C310 1.170 . S
C241 C209 1.794 . S
C243 C6 1.704 . S
C245 C9 1.785 . S
C247 C46 1.717 1_455 S
C249 C49 1.769 . S
C251 C86 1.739 1_545 S
C253 C89 1.782 . S
C255 C126 1.722 . S
C257 C166 1.701 1_655 S
C259 C129 1.796 . S
C261 C206 1.698 1_565 S
C263 C169 1.798 . S
C265 C10 2.078 . S
C267 C19 2.101 . S
C269 C50 2.093 1_556 S
C271 C59 2.094 . S
C273 C90 2.086 . S
C275 C99 2.100 1_554 S
C277 C130 2.078 . S
C279 C139 2.102 . S
C281 C179 2.099 . S
C283 C170 2.077 1_556 S
C285 C210 2.083 . S
C287 C219 2.089 1_554 S
C289 C15 1.668 . S
C291 C178 1.723 . S
C293 C55 1.673 . S
C295 C218 1.726 . S
C297 C18 1.722 . S
C299 C95 1.640 . S
C301 C58 1.731 . S
C303 C135 1.648 . S
C305 C175 1.664 . S
C307 C98 1.742 . S
C309 C138 1.715 . S
C311 C215 1.652 . S
