# Generated by pormake.
# Topology fnk, (5)-cn, num edge types: 1
# Building blocks:
#     Node 0, Type 0, BuildingBlock: BEQFEK_clean_sbu_0, # of connection points: 5
#     Node 1, Type 0, BuildingBlock: BEQFEK_clean_sbu_0, # of connection points: 5
#     Node 2, Type 0, BuildingBlock: BEQFEK_clean_sbu_0, # of connection points: 5
#     Node 3, Type 0, BuildingBlock: BEQFEK_clean_sbu_0, # of connection points: 5
#     Node 4, Type 0, BuildingBlock: BEQFEK_clean_sbu_0, # of connection points: 5
#     Node 5, Type 0, BuildingBlock: BEQFEK_clean_sbu_0, # of connection points: 5
#     Node 6, Type 0, BuildingBlock: BEQFEK_clean_sbu_0, # of connection points: 5
#     Node 7, Type 0, BuildingBlock: BEQFEK_clean_sbu_0, # of connection points: 5
#     Node 8, Type 0, BuildingBlock: BEQFEK_clean_sbu_0, # of connection points: 5
#     Node 9, Type 0, BuildingBlock: BEQFEK_clean_sbu_0, # of connection points: 5
#     Node 10, Type 0, BuildingBlock: BEQFEK_clean_sbu_0, # of connection points: 5
#     Node 11, Type 0, BuildingBlock: BEQFEK_clean_sbu_0, # of connection points: 5
#     Node 12, Type 0, BuildingBlock: BEQFEK_clean_sbu_0, # of connection points: 5
#     Node 13, Type 0, BuildingBlock: BEQFEK_clean_sbu_0, # of connection points: 5
#     Node 14, Type 0, BuildingBlock: BEQFEK_clean_sbu_0, # of connection points: 5
#     Node 15, Type 0, BuildingBlock: BEQFEK_clean_sbu_0, # of connection points: 5
#     Edge 16, Type (0, 0), BuildingBlock: XIVTED_clean_linker_0, # of connection points: 2
#     Edge 17, Type (0, 0), BuildingBlock: XIVTED_clean_linker_0, # of connection points: 2
#     Edge 18, Type (0, 0), BuildingBlock: XIVTED_clean_linker_0, # of connection points: 2
#     Edge 19, Type (0, 0), BuildingBlock: XIVTED_clean_linker_0, # of connection points: 2
#     Edge 20, Type (0, 0), BuildingBlock: XIVTED_clean_linker_0, # of connection points: 2
#     Edge 21, Type (0, 0), BuildingBlock: XIVTED_clean_linker_0, # of connection points: 2
#     Edge 22, Type (0, 0), BuildingBlock: XIVTED_clean_linker_0, # of connection points: 2
#     Edge 23, Type (0, 0), BuildingBlock: XIVTED_clean_linker_0, # of connection points: 2
#     Edge 24, Type (0, 0), BuildingBlock: XIVTED_clean_linker_0, # of connection points: 2
#     Edge 25, Type (0, 0), BuildingBlock: XIVTED_clean_linker_0, # of connection points: 2
#     Edge 26, Type (0, 0), BuildingBlock: XIVTED_clean_linker_0, # of connection points: 2
#     Edge 27, Type (0, 0), BuildingBlock: XIVTED_clean_linker_0, # of connection points: 2
#     Edge 28, Type (0, 0), BuildingBlock: XIVTED_clean_linker_0, # of connection points: 2
#     Edge 29, Type (0, 0), BuildingBlock: XIVTED_clean_linker_0, # of connection points: 2
#     Edge 30, Type (0, 0), BuildingBlock: XIVTED_clean_linker_0, # of connection points: 2
#     Edge 31, Type (0, 0), BuildingBlock: XIVTED_clean_linker_0, # of connection points: 2
#     Edge 32, Type (0, 0), BuildingBlock: XIVTED_clean_linker_0, # of connection points: 2
#     Edge 33, Type (0, 0), BuildingBlock: XIVTED_clean_linker_0, # of connection points: 2
#     Edge 34, Type (0, 0), BuildingBlock: XIVTED_clean_linker_0, # of connection points: 2
#     Edge 35, Type (0, 0), BuildingBlock: XIVTED_clean_linker_0, # of connection points: 2
#     Edge 36, Type (0, 0), BuildingBlock: XIVTED_clean_linker_0, # of connection points: 2
#     Edge 37, Type (0, 0), BuildingBlock: XIVTED_clean_linker_0, # of connection points: 2
#     Edge 38, Type (0, 0), BuildingBlock: XIVTED_clean_linker_0, # of connection points: 2
#     Edge 39, Type (0, 0), BuildingBlock: XIVTED_clean_linker_0, # of connection points: 2
#     Edge 40, Type (0, 0), BuildingBlock: XIVTED_clean_linker_0, # of connection points: 2
#     Edge 41, Type (0, 0), BuildingBlock: XIVTED_clean_linker_0, # of connection points: 2
#     Edge 42, Type (0, 0), BuildingBlock: XIVTED_clean_linker_0, # of connection points: 2
#     Edge 43, Type (0, 0), BuildingBlock: XIVTED_clean_linker_0, # of connection points: 2
#     Edge 44, Type (0, 0), BuildingBlock: XIVTED_clean_linker_0, # of connection points: 2
#     Edge 45, Type (0, 0), BuildingBlock: XIVTED_clean_linker_0, # of connection points: 2
#     Edge 46, Type (0, 0), BuildingBlock: XIVTED_clean_linker_0, # of connection points: 2
#     Edge 47, Type (0, 0), BuildingBlock: XIVTED_clean_linker_0, # of connection points: 2
#     Edge 48, Type (0, 0), BuildingBlock: XIVTED_clean_linker_0, # of connection points: 2
#     Edge 49, Type (0, 0), BuildingBlock: XIVTED_clean_linker_0, # of connection points: 2
#     Edge 50, Type (0, 0), BuildingBlock: XIVTED_clean_linker_0, # of connection points: 2
#     Edge 51, Type (0, 0), BuildingBlock: XIVTED_clean_linker_0, # of connection points: 2
#     Edge 52, Type (0, 0), BuildingBlock: XIVTED_clean_linker_0, # of connection points: 2
#     Edge 53, Type (0, 0), BuildingBlock: XIVTED_clean_linker_0, # of connection points: 2
#     Edge 54, Type (0, 0), BuildingBlock: XIVTED_clean_linker_0, # of connection points: 2
#     Edge 55, Type (0, 0), BuildingBlock: XIVTED_clean_linker_0, # of connection points: 2
# Relax obj value: 0.375
# Max RMSD: 0.201
# Mean RMSD: 0.201
data_MOF--net-fnk--node1-BEQFEK_clean_sbu_0--edge1-XIVTED_clean_linker_0
_symmetry_space_group_name_H-M    P1
_symmetry_Int_Tables_number       1
_symmetry_cell_setting            triclinic
loop_
_symmetry_equiv_pos_as_xyz
'x, y, z'
_cell_length_a     50.472148
_cell_length_b     50.456797
_cell_length_c     49.273829
_cell_angle_alpha  90.008262
_cell_angle_beta   90.061601
_cell_angle_gamma 89.983955
loop_
_atom_site_label
_atom_site_type_symbol
_atom_site_fract_x
_atom_site_fract_y
_atom_site_fract_z
_atom_type_partial_charge
Co0 Co 0.09483 0.40011 0.14634 0.0
Co1 Co 0.13264 0.3618 0.17748 0.0
C2 C 0.13433 0.42011 0.18739 0.0
O3 O 0.11607 0.42396 0.16991 0.0
O4 O 0.14305 0.39691 0.19254 0.0
C5 C 0.07676 0.44448 0.11378 0.0
O6 O 0.09976 0.45544 0.11929 0.0
C7 C 0.17825 0.33535 0.20352 0.0
C8 C 0.16324 0.29418 0.2048 0.0
C9 C 0.18422 0.31007 0.21262 0.0
N10 N 0.15463 0.33438 0.19091 0.0
N11 N 0.14597 0.30968 0.19147 0.0
C12 C 0.19322 0.36036 0.20894 0.0
H13 H 0.1832 0.37142 0.22547 0.0
H14 H 0.193 0.37305 0.19054 0.0
H15 H 0.21394 0.3562 0.21514 0.0
C16 C 0.12083 0.37562 0.09917 0.0
N17 N 0.11703 0.37784 0.12604 0.0
N18 N 0.13331 0.36175 0.13884 0.0
C19 C 0.14816 0.34878 0.12031 0.0
C20 C 0.14067 0.35723 0.09465 0.0
C21 C 0.1059 0.39111 0.07824 0.0
H22 H 0.08436 0.39003 0.08253 0.0
H23 H 0.11202 0.41219 0.07934 0.0
H24 H 0.10968 0.38357 0.05744 0.0
O25 O 0.07011 0.37942 0.16887 0.0
O26 O 0.09702 0.35315 0.19201 0.0
H27 H 0.16114 0.31165 0.13623 0.0
H28 H 0.18133 0.32408 0.10876 0.0
C29 C 0.16987 0.32973 0.12709 0.0
H30 H 0.18334 0.33878 0.1423 0.0
H31 H 0.12778 0.30361 0.18352 0.0
O32 O 0.07175 0.42141 0.12263 0.0
C33 C 0.07386 0.36155 0.18661 0.0
Co34 Co 0.59285 0.09715 0.14601 0.0
Co35 Co 0.63048 0.13428 0.17868 0.0
C36 C 0.57183 0.13705 0.186 0.0
O37 O 0.56837 0.11885 0.16839 0.0
O38 O 0.59495 0.14535 0.19208 0.0
C39 C 0.54901 0.0793 0.11283 0.0
O40 O 0.53758 0.1018 0.11938 0.0
C41 C 0.65637 0.18076 0.20337 0.0
C42 C 0.69581 0.16374 0.21241 0.0
C43 C 0.68051 0.18629 0.21548 0.0
N44 N 0.65738 0.15587 0.19368 0.0
N45 N 0.68108 0.14597 0.19886 0.0
C46 C 0.632 0.19759 0.20324 0.0
H47 H 0.62077 0.19436 0.18414 0.0
H48 H 0.637 0.21888 0.20552 0.0
H49 H 0.61915 0.19162 0.22045 0.0
C50 C 0.62181 0.12028 0.10009 0.0
N51 N 0.61671 0.11853 0.12676 0.0
N52 N 0.63255 0.13461 0.14012 0.0
C53 C 0.6482 0.14737 0.12215 0.0
C54 C 0.64194 0.13852 0.09626 0.0
C55 C 0.60754 0.10468 0.07876 0.0
H56 H 0.6101 0.0832 0.08281 0.0
H57 H 0.58606 0.10921 0.07984 0.0
H58 H 0.61477 0.10931 0.05805 0.0
O59 O 0.61203 0.072 0.16951 0.0
O60 O 0.63795 0.0985 0.19355 0.0
H61 H 0.6849 0.1564 0.14163 0.0
H62 H 0.67851 0.17582 0.11147 0.0
C63 C 0.66937 0.16673 0.12971 0.0
H64 H 0.66079 0.18248 0.14273 0.0
H65 H 0.6869 0.12673 0.19388 0.0
O66 O 0.57229 0.07449 0.12125 0.0
C67 C 0.62936 0.07548 0.18789 0.0
Co68 Co 0.90052 0.59645 0.14724 0.0
Co69 Co 0.86196 0.63464 0.17745 0.0
C70 C 0.85968 0.5763 0.18684 0.0
O71 O 0.87835 0.57255 0.16984 0.0
O72 O 0.85098 0.5995 0.19203 0.0
C73 C 0.91925 0.55224 0.11487 0.0
O74 O 0.89613 0.54128 0.11976 0.0
C75 C 0.81338 0.66149 0.19637 0.0
C76 C 0.82745 0.70301 0.19699 0.0
C77 C 0.80531 0.68734 0.20096 0.0
N78 N 0.83919 0.66196 0.18966 0.0
N79 N 0.84753 0.68677 0.19047 0.0
C80 C 0.79656 0.63711 0.1961 0.0
H81 H 0.80304 0.62369 0.17953 0.0
H82 H 0.7753 0.64217 0.19357 0.0
H83 H 0.79917 0.62647 0.21562 0.0
C84 C 0.87793 0.62298 0.09939 0.0
N85 N 0.87943 0.61921 0.12634 0.0
N86 N 0.86247 0.63495 0.13863 0.0
C87 C 0.8492 0.64898 0.11959 0.0
C88 C 0.85878 0.64195 0.09422 0.0
C89 C 0.89413 0.60809 0.07903 0.0
H90 H 0.88904 0.58674 0.08017 0.0
H91 H 0.89054 0.61514 0.05802 0.0
H92 H 0.91546 0.61022 0.08402 0.0
O93 O 0.92457 0.61696 0.17064 0.0
O94 O 0.8973 0.64344 0.1931 0.0
H95 H 0.83717 0.68614 0.13621 0.0
H96 H 0.81871 0.67632 0.10651 0.0
C97 C 0.82819 0.66907 0.12544 0.0
H98 H 0.8129 0.6602 0.13875 0.0
H99 H 0.86677 0.69268 0.18566 0.0
O100 O 0.92415 0.57523 0.12406 0.0
C101 C 0.92054 0.63493 0.18822 0.0
Co102 Co 0.3986 0.90109 0.14924 0.0
Co103 Co 0.36058 0.8613 0.178 0.0
C104 C 0.41864 0.86183 0.19027 0.0
O105 O 0.42257 0.88031 0.17308 0.0
O106 O 0.39556 0.85242 0.19448 0.0
C107 C 0.44278 0.92153 0.11808 0.0
O108 O 0.45454 0.89888 0.12333 0.0
C109 C 0.33676 0.81257 0.20002 0.0
C110 C 0.29434 0.82029 0.1919 0.0
C111 C 0.31173 0.80153 0.20201 0.0
N112 N 0.33428 0.83674 0.18884 0.0
N113 N 0.30888 0.84133 0.18432 0.0
C114 C 0.36269 0.79986 0.20686 0.0
H115 H 0.37671 0.80258 0.18975 0.0
H116 H 0.36033 0.77841 0.21116 0.0
H117 H 0.37126 0.80982 0.22493 0.0
C118 C 0.37719 0.87531 0.10045 0.0
N119 N 0.37817 0.87853 0.1275 0.0
N120 N 0.36235 0.86127 0.13921 0.0
C121 C 0.35093 0.84624 0.11971 0.0
C122 C 0.35999 0.85476 0.09466 0.0
C123 C 0.39242 0.89168 0.08052 0.0
H124 H 0.39034 0.91298 0.08564 0.0
H125 H 0.4137 0.88634 0.08178 0.0
H126 H 0.38542 0.88843 0.05942 0.0
O127 O 0.37596 0.9241 0.17153 0.0
O128 O 0.34934 0.8962 0.19301 0.0
H129 H 0.31324 0.83057 0.13088 0.0
H130 H 0.33071 0.8108 0.10631 0.0
C131 C 0.33303 0.82316 0.1248 0.0
H132 H 0.34113 0.8108 0.14145 0.0
H133 H 0.30154 0.85865 0.1755 0.0
O134 O 0.4195 0.92563 0.12681 0.0
C135 C 0.35738 0.91965 0.18829 0.0
Co136 Co 0.09517 0.59669 0.3469 0.0
Co137 Co 0.13451 0.63448 0.31729 0.0
C138 C 0.13468 0.57616 0.30646 0.0
O139 O 0.11622 0.57246 0.32369 0.0
O140 O 0.14386 0.59924 0.30168 0.0
C141 C 0.07531 0.55291 0.379 0.0
O142 O 0.09838 0.54164 0.37463 0.0
C143 C 0.18324 0.65851 0.29558 0.0
C144 C 0.1742 0.70105 0.30129 0.0
C145 C 0.1937 0.68371 0.29272 0.0
N146 N 0.15868 0.66087 0.30581 0.0
N147 N 0.15331 0.68632 0.30887 0.0
C148 C 0.19681 0.63264 0.2905 0.0
H149 H 0.18796 0.62319 0.27229 0.0
H150 H 0.19352 0.61919 0.308 0.0
H151 H 0.21839 0.63535 0.28722 0.0
C152 C 0.12001 0.62018 0.39523 0.0
N153 N 0.11738 0.61792 0.36819 0.0
N154 N 0.13443 0.6337 0.3561 0.0
C155 C 0.14871 0.6464 0.37537 0.0
C156 C 0.13992 0.63821 0.40061 0.0
C157 C 0.10355 0.6055 0.41551 0.0
H158 H 0.08228 0.60749 0.41022 0.0
H159 H 0.1088 0.58417 0.41481 0.0
H160 H 0.10682 0.61298 0.43643 0.0
O161 O 0.07186 0.61855 0.32402 0.0
O162 O 0.09949 0.64501 0.302 0.0
H163 H 0.1624 0.68443 0.36273 0.0
H164 H 0.1825 0.6693 0.38865 0.0
C165 C 0.1708 0.66541 0.36998 0.0
H166 H 0.18404 0.65733 0.35408 0.0
H167 H 0.13555 0.6936 0.31674 0.0
O168 O 0.07085 0.5759 0.36961 0.0
C169 C 0.07613 0.63683 0.30684 0.0
Co170 Co 0.40028 0.09478 0.34815 0.0
Co171 Co 0.36021 0.1321 0.31874 0.0
C172 C 0.41813 0.13561 0.30738 0.0
O173 O 0.42278 0.11725 0.32453 0.0
O174 O 0.39462 0.14377 0.30273 0.0
C175 C 0.44608 0.07717 0.37905 0.0
O176 O 0.45686 0.10008 0.37285 0.0
C177 C 0.33063 0.17973 0.3012 0.0
C178 C 0.29003 0.16325 0.30025 0.0
C179 C 0.30432 0.18641 0.29689 0.0
N180 N 0.33172 0.15375 0.30717 0.0
N181 N 0.30744 0.144 0.30619 0.0
C182 C 0.35396 0.19796 0.30202 0.0
H183 H 0.36909 0.19035 0.3164 0.0
H184 H 0.34781 0.21827 0.30796 0.0
H185 H 0.36296 0.19886 0.2815 0.0
C186 C 0.37461 0.11696 0.3965 0.0
N187 N 0.37776 0.11559 0.36948 0.0
N188 N 0.3611 0.13193 0.35756 0.0
C189 C 0.34696 0.14457 0.37693 0.0
C190 C 0.355 0.1353 0.40212 0.0
C191 C 0.39043 0.10114 0.41648 0.0
H192 H 0.41167 0.10631 0.41433 0.0
H193 H 0.38426 0.10502 0.43771 0.0
H194 H 0.3882 0.07972 0.41194 0.0
O195 O 0.3796 0.06991 0.32583 0.0
O196 O 0.35186 0.09637 0.30391 0.0
H197 H 0.30905 0.15455 0.36059 0.0
H198 H 0.31776 0.17297 0.39069 0.0
C199 C 0.32553 0.16436 0.37156 0.0
H200 H 0.33337 0.18048 0.35859 0.0
H201 H 0.30268 0.12431 0.31047 0.0
O202 O 0.42273 0.07201 0.37104 0.0
C203 C 0.36099 0.07337 0.3088 0.0
Co204 Co 0.89845 0.4016 0.3456 0.0
Co205 Co 0.86026 0.36221 0.31655 0.0
C206 C 0.85784 0.4202 0.30499 0.0
O207 O 0.87641 0.42453 0.32198 0.0
O208 O 0.84916 0.39684 0.30051 0.0
C209 C 0.91678 0.44676 0.37688 0.0
O210 O 0.89364 0.45756 0.37167 0.0
C211 C 0.81212 0.33402 0.2984 0.0
C212 C 0.82664 0.29268 0.30022 0.0
C213 C 0.80437 0.30788 0.29515 0.0
N214 N 0.83787 0.33418 0.30542 0.0
N215 N 0.84648 0.30946 0.30608 0.0
C216 C 0.79503 0.35819 0.29724 0.0
H217 H 0.80175 0.37289 0.31253 0.0
H218 H 0.77391 0.3531 0.30075 0.0
H219 H 0.79691 0.36734 0.27685 0.0
C220 C 0.87411 0.37842 0.39426 0.0
N221 N 0.87702 0.37993 0.36721 0.0
N222 N 0.86058 0.36331 0.35538 0.0
C223 C 0.84659 0.35061 0.37483 0.0
C224 C 0.85472 0.3599 0.39997 0.0
C225 C 0.88978 0.39433 0.41427 0.0
H226 H 0.91113 0.39334 0.40907 0.0
H227 H 0.88341 0.41534 0.41316 0.0
H228 H 0.88697 0.38706 0.43532 0.0
O229 O 0.92268 0.38033 0.32312 0.0
O230 O 0.89556 0.35322 0.30126 0.0
H231 H 0.83355 0.31313 0.35978 0.0
H232 H 0.81499 0.32495 0.38864 0.0
C233 C 0.82502 0.33096 0.36957 0.0
H234 H 0.81021 0.33972 0.35557 0.0
H235 H 0.86573 0.30402 0.31145 0.0
O236 O 0.92184 0.42366 0.36812 0.0
C237 C 0.91874 0.36195 0.30597 0.0
Co238 Co 0.59563 0.89938 0.34988 0.0
Co239 Co 0.63293 0.86113 0.31809 0.0
C240 C 0.57424 0.85935 0.31026 0.0
O241 O 0.57087 0.87775 0.32766 0.0
O242 O 0.5973 0.85062 0.30456 0.0
C243 C 0.5525 0.91882 0.3833 0.0
O244 O 0.54092 0.89597 0.37846 0.0
C245 C 0.65797 0.81387 0.2939 0.0
C246 C 0.69814 0.82963 0.28613 0.0
C247 C 0.68223 0.80761 0.28248 0.0
N248 N 0.6595 0.83866 0.30379 0.0
N249 N 0.68365 0.8478 0.29938 0.0
C250 C 0.63312 0.79778 0.29321 0.0
H251 H 0.6216 0.8011 0.31208 0.0
H252 H 0.63759 0.77638 0.29076 0.0
H253 H 0.62081 0.80434 0.27579 0.0
C254 C 0.62372 0.87629 0.39647 0.0
N255 N 0.61905 0.87797 0.3697 0.0
N256 N 0.63466 0.86138 0.35673 0.0
C257 C 0.64965 0.84829 0.37508 0.0
C258 C 0.64326 0.85751 0.40079 0.0
C259 C 0.60938 0.89224 0.41745 0.0
H260 H 0.58792 0.88763 0.41637 0.0
H261 H 0.61657 0.88797 0.43828 0.0
H262 H 0.6119 0.91365 0.41304 0.0
O263 O 0.61525 0.9236 0.32595 0.0
O264 O 0.64097 0.89651 0.3024 0.0
H265 H 0.67849 0.8186 0.38655 0.0
H266 H 0.66112 0.81258 0.3549 0.0
C267 C 0.6701 0.82799 0.36807 0.0
H268 H 0.68629 0.83761 0.35648 0.0
H269 H 0.68994 0.86682 0.30463 0.0
O270 O 0.57547 0.92315 0.37387 0.0
C271 C 0.63252 0.91969 0.30766 0.0
Co272 Co 0.89944 0.59486 0.85131 0.0
Co273 Co 0.86172 0.63176 0.81833 0.0
C274 C 0.9202 0.63359 0.8099 0.0
O275 O 0.92366 0.61572 0.82785 0.0
O276 O 0.8971 0.64209 0.80395 0.0
C277 C 0.94389 0.57803 0.88404 0.0
O278 O 0.95469 0.60072 0.8771 0.0
C279 C 0.83582 0.67803 0.79304 0.0
C280 C 0.7958 0.66156 0.78591 0.0
C281 C 0.81137 0.68373 0.78171 0.0
N282 N 0.83474 0.65343 0.80345 0.0
N283 N 0.81069 0.64386 0.7994 0.0
C284 C 0.86035 0.69457 0.79198 0.0
H285 H 0.87239 0.68835 0.77426 0.0
H286 H 0.87234 0.69138 0.81059 0.0
H287 H 0.85541 0.71589 0.78975 0.0
C288 C 0.87343 0.62147 0.89721 0.0
N289 N 0.8765 0.61733 0.87048 0.0
N290 N 0.8607 0.63331 0.85693 0.0
C291 C 0.84709 0.64834 0.87482 0.0
C292 C 0.85475 0.64121 0.90085 0.0
C293 C 0.88871 0.60725 0.9188 0.0
H294 H 0.88733 0.58556 0.91542 0.0
H295 H 0.90989 0.61298 0.91742 0.0
H296 H 0.88127 0.61204 0.93941 0.0
O297 O 0.87945 0.56939 0.82889 0.0
O298 O 0.85358 0.59566 0.80453 0.0
H299 H 0.81114 0.66067 0.85573 0.0
H300 H 0.82011 0.68007 0.88525 0.0
C301 C 0.82788 0.66961 0.86711 0.0
H302 H 0.8378 0.68404 0.85351 0.0
H303 H 0.8047 0.62488 0.80513 0.0
O304 O 0.92057 0.57267 0.87608 0.0
C305 C 0.86194 0.57265 0.81065 0.0
Co306 Co 0.40186 0.89809 0.84661 0.0
Co307 Co 0.36096 0.86179 0.81707 0.0
C308 C 0.36108 0.9202 0.80798 0.0
O309 O 0.38019 0.92296 0.82468 0.0
O310 O 0.35125 0.89747 0.80275 0.0
C311 C 0.42164 0.94127 0.87919 0.0
O312 O 0.39841 0.95226 0.87487 0.0
C313 C 0.31211 0.83779 0.79509 0.0
C314 C 0.32122 0.79527 0.80085 0.0
C315 C 0.30173 0.81255 0.7921 0.0
N316 N 0.33661 0.83551 0.80555 0.0
N317 N 0.34202 0.81006 0.80863 0.0
C318 C 0.29858 0.86363 0.7897 0.0
H319 H 0.30139 0.87704 0.80733 0.0
H320 H 0.2771 0.86086 0.7858 0.0
H321 H 0.30787 0.87317 0.77179 0.0
C322 C 0.37986 0.87193 0.89473 0.0
N323 N 0.38047 0.87608 0.86781 0.0
N324 N 0.36232 0.86138 0.85593 0.0
C325 C 0.34901 0.84786 0.87531 0.0
C326 C 0.35997 0.85393 0.90035 0.0
C327 C 0.39785 0.8853 0.91465 0.0
H328 H 0.41874 0.88268 0.90821 0.0
H329 H 0.39345 0.90683 0.91484 0.0
H330 H 0.39531 0.87746 0.93551 0.0
O331 O 0.42443 0.87686 0.82254 0.0
O332 O 0.39559 0.8517 0.80042 0.0
H333 H 0.33461 0.80999 0.86296 0.0
H334 H 0.31511 0.82547 0.88902 0.0
C335 C 0.32657 0.82917 0.87019 0.0
H336 H 0.31321 0.83738 0.85443 0.0
H337 H 0.35977 0.80282 0.81659 0.0
O338 O 0.42646 0.91848 0.86948 0.0
C339 C 0.41926 0.85929 0.80484 0.0
Co340 Co 0.09803 0.40292 0.84694 0.0
Co341 Co 0.13525 0.36289 0.81734 0.0
C342 C 0.07688 0.36276 0.8072 0.0
O343 O 0.07348 0.38149 0.82422 0.0
O344 O 0.09986 0.35339 0.8023 0.0
C345 C 0.05447 0.42284 0.87917 0.0
O346 O 0.0432 0.39982 0.87447 0.0
C347 C 0.15911 0.31417 0.79503 0.0
C348 C 0.20165 0.32292 0.80103 0.0
C349 C 0.18427 0.30363 0.79203 0.0
N350 N 0.16153 0.33856 0.80572 0.0
N351 N 0.187 0.34376 0.80895 0.0
C352 C 0.1332 0.30085 0.78946 0.0
H353 H 0.12375 0.31035 0.77159 0.0
H354 H 0.11979 0.30359 0.80707 0.0
H355 H 0.13585 0.27938 0.78538 0.0
C356 C 0.12341 0.37988 0.89518 0.0
N357 N 0.11984 0.38118 0.86818 0.0
N358 N 0.13496 0.36347 0.85619 0.0
C359 C 0.1482 0.34977 0.87553 0.0
C360 C 0.14145 0.35997 0.9007 0.0
C361 C 0.10957 0.3973 0.91525 0.0
H362 H 0.11223 0.41837 0.90943 0.0
H363 H 0.08806 0.39283 0.91484 0.0
H364 H 0.11705 0.39423 0.93619 0.0
O365 O 0.11959 0.42592 0.8236 0.0
O366 O 0.14562 0.39784 0.80157 0.0
H367 H 0.18628 0.33595 0.86321 0.0
H368 H 0.17092 0.31592 0.88896 0.0
C369 C 0.16717 0.3276 0.87025 0.0
H370 H 0.15918 0.31435 0.85428 0.0
H371 H 0.19433 0.36138 0.81711 0.0
O372 O 0.07745 0.42738 0.86983 0.0
C373 C 0.13765 0.42133 0.80628 0.0
Co374 Co 0.59513 0.0963 0.85023 0.0
Co375 Co 0.6342 0.13392 0.82001 0.0
C376 C 0.63363 0.07578 0.80851 0.0
O377 O 0.61541 0.07227 0.82604 0.0
O378 O 0.64309 0.09877 0.80373 0.0
C379 C 0.57671 0.05176 0.88165 0.0
O380 O 0.59967 0.04093 0.87574 0.0
C381 C 0.6819 0.15854 0.79634 0.0
C382 C 0.67374 0.2008 0.8049 0.0
C383 C 0.69245 0.18378 0.7941 0.0
N384 N 0.65807 0.16056 0.80832 0.0
N385 N 0.65321 0.18587 0.81309 0.0
C386 C 0.69481 0.13285 0.789 0.0
H387 H 0.693 0.11876 0.80619 0.0
H388 H 0.71603 0.13561 0.78385 0.0
H389 H 0.68431 0.1241 0.77134 0.0
C390 C 0.62216 0.11822 0.89814 0.0
N391 N 0.61821 0.11696 0.87119 0.0
N392 N 0.63526 0.13254 0.85883 0.0
C393 C 0.65088 0.14405 0.87779 0.0
C394 C 0.64295 0.13536 0.90318 0.0
C395 C 0.60643 0.10308 0.91867 0.0
H396 H 0.58499 0.10497 0.9141 0.0
H397 H 0.61186 0.08181 0.91748 0.0
H398 H 0.61025 0.11029 0.93959 0.0
O399 O 0.57126 0.11866 0.82842 0.0
O400 O 0.59876 0.1448 0.80587 0.0
H401 H 0.6665 0.18161 0.86601 0.0
H402 H 0.6869 0.16398 0.88994 0.0
C403 C 0.67393 0.16174 0.87187 0.0
H404 H 0.68565 0.15353 0.85483 0.0
H405 H 0.63608 0.19288 0.82251 0.0
O406 O 0.57161 0.07502 0.87335 0.0
C407 C 0.57538 0.13699 0.81126 0.0
Co408 Co 0.89987 0.39945 0.64841 0.0
Co409 Co 0.86189 0.36019 0.67804 0.0
C410 C 0.92015 0.3594 0.68872 0.0
O411 O 0.92383 0.37794 0.67156 0.0
O412 O 0.89707 0.35023 0.69353 0.0
C413 C 0.94471 0.4196 0.6184 0.0
O414 O 0.95691 0.39787 0.62614 0.0
C415 C 0.83654 0.31197 0.69973 0.0
C416 C 0.7943 0.32235 0.69417 0.0
C417 C 0.81103 0.30229 0.70269 0.0
N418 N 0.83493 0.33662 0.68952 0.0
N419 N 0.80964 0.34278 0.68655 0.0
C420 C 0.86199 0.29762 0.70478 0.0
H421 H 0.87153 0.3059 0.72323 0.0
H422 H 0.87567 0.30085 0.68747 0.0
H423 H 0.85866 0.27606 0.70769 0.0
C424 C 0.87471 0.37649 0.60022 0.0
N425 N 0.87803 0.37785 0.62723 0.0
N426 N 0.86238 0.36059 0.63917 0.0
C427 C 0.84887 0.34724 0.61977 0.0
C428 C 0.85618 0.35709 0.59461 0.0
C429 C 0.88901 0.39362 0.58023 0.0
H430 H 0.88563 0.41478 0.58532 0.0
H431 H 0.91059 0.3897 0.58172 0.0
H432 H 0.88244 0.38982 0.55909 0.0
O433 O 0.87859 0.423 0.6715 0.0
O434 O 0.8522 0.39537 0.69364 0.0
H435 H 0.81031 0.33499 0.63222 0.0
H436 H 0.82466 0.31452 0.60618 0.0
C437 C 0.829 0.32588 0.62496 0.0
H438 H 0.83651 0.31218 0.64078 0.0
H439 H 0.8029 0.36079 0.67874 0.0
O440 O 0.92078 0.42335 0.62526 0.0
C441 C 0.86052 0.41872 0.68888 0.0
Co442 Co 0.59581 0.90045 0.64695 0.0
Co443 Co 0.63307 0.86122 0.67755 0.0
C444 C 0.63476 0.91922 0.68927 0.0
O445 O 0.6168 0.9234 0.67156 0.0
O446 O 0.64345 0.89591 0.69408 0.0
C447 C 0.57889 0.94587 0.61544 0.0
O448 O 0.602 0.95626 0.62157 0.0
C449 C 0.68048 0.83239 0.69723 0.0
C450 C 0.6649 0.79143 0.69637 0.0
C451 C 0.68751 0.80613 0.70141 0.0
N452 N 0.65485 0.83304 0.68974 0.0
N453 N 0.64562 0.80854 0.68963 0.0
C454 C 0.69818 0.85613 0.69797 0.0
H455 H 0.69085 0.87153 0.68374 0.0
H456 H 0.71885 0.85058 0.69275 0.0
H457 H 0.69806 0.86451 0.71879 0.0
C458 C 0.62225 0.87737 0.59932 0.0
N459 N 0.61823 0.87886 0.62623 0.0
N460 N 0.63429 0.86233 0.63874 0.0
C461 C 0.64913 0.84971 0.6199 0.0
C462 C 0.64195 0.85893 0.59443 0.0
C463 C 0.60758 0.89346 0.57868 0.0
H464 H 0.586 0.89235 0.58272 0.0
H465 H 0.61377 0.91448 0.58043 0.0
H466 H 0.61155 0.88646 0.55773 0.0
O467 O 0.57066 0.87913 0.66835 0.0
O468 O 0.59713 0.85219 0.69121 0.0
H469 H 0.66172 0.81262 0.63635 0.0
H470 H 0.68071 0.82342 0.60734 0.0
C471 C 0.67048 0.83007 0.62607 0.0
H472 H 0.68515 0.83917 0.63998 0.0
H473 H 0.62632 0.80344 0.68409 0.0
O474 O 0.57332 0.92268 0.62362 0.0
C475 C 0.57406 0.86074 0.68561 0.0
Co476 Co 0.09529 0.59581 0.6474 0.0
Co477 Co 0.13342 0.63425 0.67796 0.0
C478 C 0.07526 0.6343 0.68924 0.0
O479 O 0.07151 0.6163 0.6715 0.0
O480 O 0.09836 0.64334 0.69423 0.0
C481 C 0.05051 0.5781 0.61585 0.0
O482 O 0.04008 0.60125 0.62177 0.0
C483 C 0.15786 0.68221 0.70113 0.0
C484 C 0.20032 0.67312 0.69504 0.0
C485 C 0.18312 0.69244 0.70432 0.0
N486 N 0.16004 0.65795 0.69008 0.0
N487 N 0.18545 0.65254 0.68679 0.0
C488 C 0.13209 0.69577 0.7067 0.0
H489 H 0.12269 0.68648 0.72469 0.0
H490 H 0.11854 0.69301 0.68918 0.0
H491 H 0.13492 0.71725 0.71061 0.0
C492 C 0.11876 0.62158 0.59971 0.0
N493 N 0.11638 0.61857 0.62669 0.0
N494 N 0.13226 0.63532 0.63915 0.0
C495 C 0.14512 0.64979 0.62019 0.0
C496 C 0.13694 0.64145 0.59475 0.0
C497 C 0.10422 0.60533 0.57911 0.0
H498 H 0.10643 0.58399 0.584 0.0
H499 H 0.08284 0.61033 0.57995 0.0
H500 H 0.1116 0.60906 0.55824 0.0
O501 O 0.11733 0.57162 0.66917 0.0
O502 O 0.14398 0.59866 0.6918 0.0
H503 H 0.18359 0.66217 0.63287 0.0
H504 H 0.16874 0.68332 0.60765 0.0
C505 C 0.16473 0.67125 0.62603 0.0
H506 H 0.15714 0.68428 0.64238 0.0
H507 H 0.1926 0.63498 0.67833 0.0
O508 O 0.07371 0.57264 0.6241 0.0
C509 C 0.13582 0.57541 0.68627 0.0
Co510 Co 0.40329 0.09878 0.64998 0.0
Co511 Co 0.36328 0.13572 0.67987 0.0
C512 C 0.36375 0.07743 0.6902 0.0
O513 O 0.38236 0.07423 0.67301 0.0
O514 O 0.35421 0.10032 0.69526 0.0
C515 C 0.42279 0.05529 0.61742 0.0
O516 O 0.39953 0.04436 0.62162 0.0
C517 C 0.3146 0.1595 0.70231 0.0
C518 C 0.3227 0.202 0.69506 0.0
C519 C 0.30376 0.18461 0.70474 0.0
N520 N 0.33884 0.16196 0.69131 0.0
N521 N 0.34364 0.18741 0.68731 0.0
C522 C 0.30162 0.13355 0.70845 0.0
H523 H 0.30441 0.11982 0.69109 0.0
H524 H 0.28015 0.13602 0.71255 0.0
H525 H 0.31132 0.12456 0.72645 0.0
C526 C 0.37758 0.12164 0.60179 0.0
N527 N 0.38083 0.11988 0.6288 0.0
N528 N 0.36323 0.13497 0.64102 0.0
C529 C 0.34784 0.14652 0.62188 0.0
C530 C 0.35664 0.13853 0.59655 0.0
C531 C 0.3937 0.10678 0.58136 0.0
H532 H 0.41504 0.10842 0.58649 0.0
H533 H 0.38807 0.08555 0.58195 0.0
H534 H 0.39039 0.11443 0.56051 0.0
O535 O 0.42637 0.12076 0.67292 0.0
O536 O 0.39831 0.14654 0.69523 0.0
H537 H 0.33091 0.18333 0.63424 0.0
H538 H 0.31171 0.16591 0.60914 0.0
C539 C 0.32418 0.16347 0.62754 0.0
H540 H 0.31216 0.1545 0.64396 0.0
H541 H 0.36103 0.19475 0.67869 0.0
O542 O 0.42762 0.07807 0.62715 0.0
C543 C 0.42182 0.1388 0.69028 0.0
H544 H 0.91964 0.49955 0.10105 0.0
H545 H 0.07641 0.49741 0.10094 0.0
H546 H 0.96859 0.56971 0.10088 0.0
H547 H 0.0275 0.42725 0.09908 0.0
H548 H 0.03743 0.52416 0.09023 0.0
H549 H 0.9586 0.47302 0.08972 0.0
C550 C 0.93847 0.50944 0.09814 0.0
C551 C 0.94102 0.53676 0.10264 0.0
C552 C 0.03531 0.50285 0.0917 0.0
C553 C 0.98569 0.50656 0.08997 0.0
C554 C 0.0576 0.48757 0.09777 0.0
C555 C 0.05506 0.46016 0.10165 0.0
C556 C 0.01035 0.49062 0.08972 0.0
C557 C 0.03025 0.44842 0.09692 0.0
C558 C 0.96074 0.49429 0.0917 0.0
C559 C 0.96583 0.54859 0.09824 0.0
N560 N 0.00876 0.46377 0.09171 0.0
N561 N 0.98729 0.53336 0.09263 0.0
H562 H 0.56732 0.03152 0.0947 0.0
H563 H 0.42321 0.96953 0.10208 0.0
H564 H 0.4955 0.07723 0.10335 0.0
H565 H 0.49558 0.92397 0.10511 0.0
H566 H 0.44877 0.00858 0.08938 0.0
H567 H 0.54075 0.99229 0.085 0.0
C568 C 0.54595 0.03344 0.09406 0.0
C569 C 0.53355 0.05752 0.10061 0.0
C570 C 0.45903 0.98995 0.09239 0.0
C571 C 0.50308 0.01263 0.08974 0.0
C572 C 0.44446 0.96763 0.09968 0.0
C573 C 0.4574 0.94362 0.10537 0.0
C574 C 0.48673 0.98831 0.09093 0.0
C575 C 0.48486 0.94219 0.10138 0.0
C576 C 0.5308 0.011 0.08854 0.0
C577 C 0.50586 0.05895 0.0989 0.0
N578 N 0.49869 0.96439 0.09486 0.0
N579 N 0.49151 0.03666 0.09415 0.0
H580 H 0.91734 0.49985 0.38905 0.0
H581 H 0.07407 0.50036 0.39327 0.0
H582 H 0.96557 0.42925 0.39271 0.0
H583 H 0.02586 0.57105 0.39164 0.0
H584 H 0.03457 0.47435 0.40375 0.0
H585 H 0.95629 0.52631 0.40061 0.0
C586 C 0.93599 0.48986 0.39277 0.0
C587 C 0.93839 0.46241 0.38917 0.0
C588 C 0.0327 0.49562 0.40156 0.0
C589 C 0.98304 0.4925 0.40212 0.0
C590 C 0.05528 0.51048 0.39561 0.0
C591 C 0.05312 0.53778 0.39083 0.0
C592 C 0.00784 0.50818 0.40251 0.0
C593 C 0.02834 0.54992 0.39451 0.0
C594 C 0.95826 0.50497 0.39934 0.0
C595 C 0.96296 0.45046 0.39461 0.0
N596 N 0.00658 0.53497 0.39962 0.0
N597 N 0.98444 0.46563 0.40033 0.0
H598 H 0.50007 0.92029 0.39792 0.0
H599 H 0.49937 0.07683 0.39026 0.0
H600 H 0.57077 0.96838 0.3955 0.0
H601 H 0.42886 0.02877 0.39639 0.0
H602 H 0.52602 0.03816 0.40241 0.0
H603 H 0.47412 0.95999 0.40781 0.0
C604 C 0.51021 0.9391 0.39998 0.0
C605 C 0.5375 0.94114 0.39513 0.0
C606 C 0.50467 0.03618 0.40156 0.0
C607 C 0.50794 0.98667 0.40608 0.0
C608 C 0.48945 0.05829 0.39465 0.0
C609 C 0.46194 0.05583 0.39159 0.0
C610 C 0.49226 0.01148 0.40522 0.0
C611 C 0.4501 0.03141 0.39787 0.0
C612 C 0.49539 0.9618 0.40559 0.0
C613 C 0.54966 0.96597 0.39845 0.0
N614 N 0.46536 0.01007 0.40391 0.0
N615 N 0.53473 0.98785 0.40319 0.0
H616 H 0.92715 0.52976 0.90244 0.0
H617 H 0.0729 0.47172 0.8938 0.0
H618 H 0.99754 0.57745 0.89287 0.0
H619 H 0.00189 0.42402 0.89314 0.0
H620 H 0.0464 0.51027 0.90618 0.0
H621 H 0.95495 0.49135 0.91205 0.0
C622 C 0.94847 0.53229 0.90285 0.0
C623 C 0.96009 0.55669 0.8961 0.0
C624 C 0.03666 0.49129 0.90376 0.0
C625 C 0.99198 0.51273 0.90687 0.0
C626 C 0.05176 0.46925 0.89666 0.0
C627 C 0.03946 0.44475 0.89173 0.0
C628 C 0.00904 0.48887 0.90578 0.0
C629 C 0.01213 0.44262 0.89628 0.0
C630 C 0.96432 0.51031 0.90833 0.0
C631 C 0.98775 0.55891 0.89749 0.0
N632 N -0.00226 0.46454 0.90259 0.0
N633 N 0.00279 0.53705 0.90221 0.0
H634 H 0.47045 0.9231 0.89431 0.0
H635 H 0.52826 0.06898 0.89892 0.0
H636 H 0.42261 0.99403 0.89249 0.0
H637 H 0.57602 -0.00167 0.89177 0.0
H638 H 0.4899 0.0415 0.90941 0.0
H639 H 0.50896 0.94988 0.90613 0.0
C640 C 0.46795 0.94429 0.89681 0.0
C641 C 0.44344 0.95648 0.89168 0.0
C642 C 0.50886 0.03202 0.90601 0.0
C643 C 0.4875 0.98722 0.90504 0.0
C644 C 0.5308 0.04769 0.90001 0.0
C645 C 0.55521 0.03586 0.89372 0.0
C646 C 0.51132 0.00432 0.90553 0.0
C647 C 0.55746 0.00825 0.896 0.0
C648 C 0.48997 0.95956 0.90359 0.0
C649 C 0.44124 0.98388 0.89579 0.0
N650 N 0.53564 0.99336 0.90122 0.0
N651 N 0.46313 -0.00158 0.90174 0.0
H652 H 0.92465 0.46399 0.59415 0.0
H653 H 0.99705 0.57826 0.60611 0.0
H654 H -0.00152 0.42536 0.61394 0.0
H655 H 0.06677 0.52921 0.59889 0.0
H656 H 0.96965 0.5399 0.59631 0.0
H657 H 0.94904 0.50384 0.58188 0.0
C658 C 0.94606 0.46388 0.59576 0.0
C659 C 0.95953 0.44162 0.60587 0.0
C660 C 0.99092 0.53748 0.59592 0.0
C661 C 0.98757 0.48755 0.5929 0.0
C662 C 0.00663 0.55953 0.6017 0.0
C663 C 0.03418 0.5568 0.60394 0.0
C664 C 0.00294 0.51253 0.59233 0.0
C665 C 0.04553 0.5321 0.59792 0.0
C666 C 0.96 0.48679 0.58901 0.0
C667 C 0.98726 0.44225 0.60674 0.0
N668 N 0.02983 0.51083 0.59292 0.0
N669 N 0.00033 0.46504 0.60083 0.0
H670 H 0.42285 0.00315 0.6016 0.0
H671 H 0.5795 -0.00083 0.60442 0.0
H672 H 0.47259 0.07267 0.60514 0.0
H673 H 0.52981 0.92973 0.59896 0.0
H674 H 0.54107 0.02675 0.59383 0.0
H675 H 0.46169 0.97662 0.58986 0.0
C676 C 0.44184 0.01292 0.59944 0.0
C677 C 0.44463 0.04001 0.60509 0.0
C678 C 0.53867 0.00544 0.59447 0.0
C679 C 0.48915 0.0098 0.59195 0.0
C680 C 0.56064 0.98968 0.60047 0.0
C681 C 0.55768 0.9622 0.60334 0.0
C682 C 0.51361 0.99359 0.59154 0.0
C683 C 0.53285 0.95093 0.59763 0.0
C684 C 0.46403 0.99777 0.59276 0.0
C685 C 0.46964 0.05171 0.6016 0.0
N686 N 0.51166 0.96671 0.59251 0.0
N687 N 0.49102 0.03645 0.59574 0.0
H688 H 0.23752 0.3113 0.20236 0.0
H689 H 0.26198 0.20815 0.32171 0.0
H690 H 0.17981 0.28798 0.26211 0.0
H691 H 0.31917 0.22301 0.25864 0.0
H692 H 0.23659 0.24646 0.30662 0.0
H693 H 0.27198 0.28797 0.22852 0.0
C694 C 0.23235 0.30188 0.22139 0.0
C695 C 0.20598 0.30127 0.2302 0.0
C696 C 0.25489 0.2417 0.29625 0.0
C697 C 0.24475 0.2746 0.25983 0.0
C698 C 0.26937 0.21986 0.30491 0.0
C699 C 0.29242 0.21239 0.29114 0.0
C700 C 0.26313 0.25578 0.27316 0.0
C701 C 0.3014 0.22825 0.2697 0.0
C702 C 0.25189 0.2885 0.2362 0.0
C703 C 0.19999 0.28864 0.25467 0.0
N704 N 0.2864 0.24899 0.26093 0.0
N705 N 0.21917 0.27561 0.26851 0.0
H706 H 0.77885 0.26945 0.32269 0.0
H707 H 0.68383 0.23788 0.19867 0.0
H708 H 0.77084 0.3211 0.25354 0.0
H709 H 0.69659 0.1869 0.26759 0.0
H710 H 0.70678 0.27387 0.22283 0.0
H711 H 0.73989 0.24493 0.30783 0.0
C712 C 0.76849 0.27584 0.30456 0.0
C713 C 0.77805 0.29699 0.28908 0.0
C714 C 0.70396 0.25501 0.23291 0.0
C715 C 0.734 0.26862 0.27137 0.0
C716 C 0.69077 0.23461 0.21921 0.0
C717 C 0.68859 0.20957 0.23127 0.0
C718 C 0.71496 0.25005 0.25866 0.0
C719 C 0.69815 0.20598 0.25765 0.0
C720 C 0.74628 0.26187 0.29603 0.0
C721 C 0.76395 0.30478 0.26591 0.0
N722 N 0.71115 0.22591 0.27036 0.0
N723 N 0.74285 0.29019 0.25736 0.0
H724 H 0.68558 0.75594 0.29898 0.0
H725 H 0.77878 0.72518 0.17354 0.0
H726 H 0.69712 0.80712 0.23005 0.0
H727 H 0.77242 0.67345 0.24276 0.0
H728 H 0.73966 0.74918 0.18885 0.0
H729 H 0.70815 0.72001 0.27433 0.0
C730 C 0.69218 0.75926 0.27834 0.0
C731 C 0.68981 0.78434 0.26642 0.0
C732 C 0.74643 0.73233 0.20057 0.0
C733 C 0.71568 0.74393 0.23845 0.0
C734 C 0.76871 0.71864 0.19176 0.0
C735 C 0.7788 0.69765 0.20715 0.0
C736 C 0.73463 0.72547 0.22542 0.0
C737 C 0.76511 0.68967 0.23047 0.0
C738 C 0.70513 0.73889 0.26436 0.0
C739 C 0.69884 0.788 0.23989 0.0
N740 N 0.74395 0.70401 0.23931 0.0
N741 N 0.71162 0.76811 0.22689 0.0
H742 H 0.22931 0.71664 0.31615 0.0
H743 H 0.28034 0.76442 0.17877 0.0
H744 H 0.21564 0.67008 0.24418 0.0
H745 H 0.32411 0.78156 0.25181 0.0
H746 H 0.25932 0.72692 0.20165 0.0
H747 H 0.26703 0.73783 0.29385 0.0
C748 C 0.23477 0.71047 0.29584 0.0
C749 C 0.21949 0.69182 0.28181 0.0
C750 C 0.27408 0.73838 0.21248 0.0
C751 C 0.26186 0.71635 0.25596 0.0
C752 C 0.28595 0.75978 0.19946 0.0
C753 C 0.30377 0.77596 0.21359 0.0
C754 C 0.27941 0.73383 0.24005 0.0
C755 C 0.31047 0.76937 0.24033 0.0
C756 C 0.2563 0.72244 0.28316 0.0
C757 C 0.22712 0.6844 0.25558 0.0
N758 N 0.29776 0.74912 0.25299 0.0
N759 N 0.24746 0.6972 0.24317 0.0
H760 H 0.72257 0.82167 0.74103 0.0
H761 H 0.79782 0.68369 0.72885 0.0
H762 H 0.71073 0.76396 0.67766 0.0
H763 H 0.80549 0.73512 0.79818 0.0
H764 H 0.77509 0.71901 0.70434 0.0
H765 H 0.76124 0.79632 0.75689 0.0
C766 C 0.72858 0.80407 0.73006 0.0
C767 C 0.71345 0.79462 0.70824 0.0
C768 C 0.7821 0.72288 0.72474 0.0
C769 C 0.75715 0.76564 0.72619 0.0
C770 C 0.79514 0.70275 0.73863 0.0
C771 C 0.80327 0.70667 0.76545 0.0
C772 C 0.77649 0.74685 0.73808 0.0
C773 C 0.79944 0.73156 0.77741 0.0
C774 C 0.75049 0.78956 0.73917 0.0
C775 C 0.72175 0.77164 0.69482 0.0
N776 N 0.7858 0.75067 0.76379 0.0
N777 N 0.74288 0.75783 0.70414 0.0
H778 H 0.16994 0.71312 0.75359 0.0
H779 H 0.2806 0.82569 0.74301 0.0
H780 H 0.21576 0.72874 0.68159 0.0
H781 H 0.26573 0.77983 0.81518 0.0
H782 H 0.24321 0.80329 0.72064 0.0
H783 H 0.19172 0.75084 0.77605 0.0
C784 C 0.18396 0.72505 0.7423 0.0
C785 C 0.19135 0.71794 0.71591 0.0
C786 C 0.24771 0.79876 0.74163 0.0
C787 C 0.21594 0.76071 0.74111 0.0
C788 C 0.26886 0.81156 0.75438 0.0
C789 C 0.27612 0.80432 0.78078 0.0
C790 C 0.23376 0.77896 0.75564 0.0
C791 C 0.26068 0.7857 0.79467 0.0
C792 C 0.19639 0.7464 0.75508 0.0
C793 C 0.20979 0.73365 0.70209 0.0
N794 N 0.24028 0.77345 0.78185 0.0
N795 N 0.22166 0.75426 0.71494 0.0
H796 H 0.28297 0.17145 0.75398 0.0
H797 H 0.17114 0.28283 0.74278 0.0
H798 H 0.26721 0.21679 0.68162 0.0
H799 H 0.21651 0.26717 0.81516 0.0
H800 H 0.19312 0.24518 0.72047 0.0
H801 H 0.24519 0.19324 0.7762 0.0
C802 C 0.27099 0.18534 0.74255 0.0
C803 C 0.27811 0.19262 0.71612 0.0
C804 C 0.19763 0.24958 0.74148 0.0
C805 C 0.23529 0.21731 0.74111 0.0
C806 C 0.18507 0.27088 0.75419 0.0
C807 C 0.19232 0.27799 0.78065 0.0
C808 C 0.2172 0.23532 0.75558 0.0
C809 C 0.21067 0.26227 0.79461 0.0
C810 C 0.24961 0.19779 0.75521 0.0
C811 C 0.26232 0.21092 0.70215 0.0
N812 N 0.22269 0.24172 0.78182 0.0
N813 N 0.24171 0.22286 0.7149 0.0
H814 H 0.77654 0.26802 0.67951 0.0
H815 H 0.72979 0.21508 0.81705 0.0
H816 H 0.82438 0.27959 0.75102 0.0
H817 H 0.71131 0.17261 0.74356 0.0
H818 H 0.76679 0.23664 0.79381 0.0
H819 H 0.75455 0.23068 0.70173 0.0
C820 C 0.7828 0.26219 0.69969 0.0
C821 C 0.80212 0.27674 0.7136 0.0
C822 C 0.75513 0.22207 0.78294 0.0
C823 C 0.77669 0.23479 0.73935 0.0
C824 C 0.73402 0.20989 0.79615 0.0
C825 C 0.71764 0.19223 0.78205 0.0
C826 C 0.75919 0.21721 0.75521 0.0
C827 C 0.72368 0.1861 0.75504 0.0
C828 C 0.77035 0.24088 0.71232 0.0
C829 C 0.80959 0.26865 0.73969 0.0
N830 N 0.74366 0.19909 0.74222 0.0
N831 N 0.79637 0.24854 0.75205 0.0
H832 H 0.13251 0.31227 0.06532 0.0
H833 H 0.17654 0.38753 0.93108 0.0
H834 H 0.17274 0.38746 0.06357 0.0
H835 H 0.12872 0.3169 0.93129 0.0
H836 H 0.18596 0.38095 0.97934 0.0
H837 H 0.14145 0.30686 0.01661 0.0
C838 C 0.14401 0.32716 0.05476 0.0
C839 C 0.15195 0.35031 0.06811 0.0
C840 C 0.17386 0.36653 0.9688 0.0
C841 C 0.1617 0.34472 0.01276 0.0
C842 C 0.16863 0.37024 0.94129 0.0
C843 C 0.15182 0.35275 0.92757 0.0
C844 C 0.16175 0.34542 0.98268 0.0
C845 C 0.14179 0.33075 0.94143 0.0
C846 C 0.14895 0.32422 0.02701 0.0
C847 C 0.16642 0.36932 0.05376 0.0
N848 N 0.14656 0.3279 0.96845 0.0
N849 N 0.17054 0.36628 0.02674 0.0
H850 H 0.67285 0.10298 0.93442 0.0
H851 H 0.63586 0.18351 0.06642 0.0
H852 H 0.63785 0.18076 0.93252 0.0
H853 H 0.67456 0.10748 0.06661 0.0
H854 H 0.64591 0.18805 0.0179 0.0
H855 H 0.68325 0.10908 0.98249 0.0
C856 C 0.66801 0.12163 0.94413 0.0
C857 C 0.65448 0.14139 0.92987 0.0
C858 C 0.65289 0.1707 0.02868 0.0
C859 C 0.66538 0.1483 0.98485 0.0
C860 C 0.64731 0.16825 0.05635 0.0
C861 C 0.65438 0.14508 0.07017 0.0
C862 C 0.66527 0.14962 0.01494 0.0
C863 C 0.66884 0.12562 0.05642 0.0
C864 C 0.67382 0.12513 0.97155 0.0
C865 C 0.64836 0.16515 0.94309 0.0
N866 N 0.67344 0.12812 0.02943 0.0
N867 N 0.65341 0.16779 0.97008 0.0
H868 H 0.88025 0.67964 0.92879 0.0
H869 H 0.81302 0.63254 0.06657 0.0
H870 H 0.81317 0.62714 0.93266 0.0
H871 H 0.8877 0.67338 0.06104 0.0
H872 H 0.80516 0.6415 0.01818 0.0
H873 H 0.8752 0.68903 0.97728 0.0
C874 C 0.86387 0.67087 0.93978 0.0
C875 C 0.84701 0.65275 0.92702 0.0
C876 C 0.82298 0.64904 0.02769 0.0
C877 C 0.84161 0.66249 0.98239 0.0
C878 C 0.82735 0.64405 0.05523 0.0
C879 C 0.85106 0.65215 0.06741 0.0
C880 C 0.84256 0.66214 0.01245 0.0
C881 C 0.86922 0.66679 0.05211 0.0
C882 C 0.8611 0.676 0.96744 0.0
C883 C 0.82639 0.64139 0.94198 0.0
N884 N 0.86476 0.67105 0.0253 0.0
N885 N 0.82449 0.64611 0.96907 0.0
H886 H 0.38917 0.81946 0.92979 0.0
H887 H 0.31384 0.85804 0.06617 0.0
H888 H 0.31697 0.86486 0.93179 0.0
H889 H 0.3936 0.82808 0.06187 0.0
H890 H 0.30827 0.84866 0.01749 0.0
H891 H 0.38419 0.81002 0.97823 0.0
C892 C 0.37187 0.82678 0.94042 0.0
C893 C 0.3535 0.84301 0.92717 0.0
C894 C 0.32676 0.84356 0.02734 0.0
C895 C 0.34798 0.83303 0.98242 0.0
C896 C 0.32985 0.84877 0.05503 0.0
C897 C 0.35423 0.8439 0.06762 0.0
C898 C 0.34826 0.83342 0.01247 0.0
C899 C 0.37456 0.83213 0.05261 0.0
C900 C 0.36909 0.82156 0.96802 0.0
C901 C 0.33149 0.85226 0.94156 0.0
N902 N 0.37123 0.82754 0.0257 0.0
N903 N 0.32952 0.84751 0.96866 0.0
H904 H 0.12562 0.6826 0.42795 0.0
H905 H 0.17947 0.62277 0.56735 0.0
H906 H 0.17317 0.61204 0.43443 0.0
H907 H 0.1146 0.67788 0.56136 0.0
H908 H 0.18829 0.62878 0.51875 0.0
H909 H 0.1324 0.6909 0.47661 0.0
C910 C 0.13815 0.66936 0.43958 0.0
C911 C 0.14891 0.64668 0.42757 0.0
C912 C 0.17255 0.64008 0.52819 0.0
C913 C 0.15641 0.65563 0.48278 0.0
C914 C 0.16768 0.63678 0.55585 0.0
C915 C 0.14639 0.64994 0.56799 0.0
C916 C 0.15582 0.65649 0.51277 0.0
C917 C 0.13128 0.66755 0.55247 0.0
C918 C 0.1419 0.67396 0.46725 0.0
C919 C 0.16469 0.62978 0.44322 0.0
N920 N 0.13608 0.67012 0.52548 0.0
N921 N 0.16776 0.63444 0.47018 0.0
H922 H 0.36124 0.18119 0.43053 0.0
H923 H 0.32394 0.10699 0.56748 0.0
H924 H 0.32608 0.10359 0.43492 0.0
H925 H 0.36494 0.18173 0.56475 0.0
H926 H 0.31394 0.11112 0.51905 0.0
H927 H 0.35244 0.18735 0.47918 0.0
C928 C 0.35098 0.16581 0.44169 0.0
C929 C 0.34448 0.14182 0.42911 0.0
C930 C 0.32461 0.12696 0.52907 0.0
C931 C 0.33477 0.14835 0.48436 0.0
C932 C 0.33013 0.12464 0.55668 0.0
C933 C 0.34519 0.14408 0.56975 0.0
C934 C 0.33474 0.14863 0.51445 0.0
C935 C 0.35316 0.16645 0.55513 0.0
C936 C 0.34608 0.16922 0.46939 0.0
C937 C 0.33143 0.12231 0.44417 0.0
N938 N 0.34821 0.16795 0.52804 0.0
N939 N 0.3273 0.12585 0.47112 0.0
H940 H 0.86136 0.3138 0.42795 0.0
H941 H 0.82058 0.38551 0.56579 0.0
H942 H 0.82628 0.3914 0.43342 0.0
H943 H 0.86865 0.3151 0.56237 0.0
H944 H 0.81103 0.38088 0.5173 0.0
H945 H 0.85306 0.30726 0.47668 0.0
C946 C 0.85121 0.32909 0.43936 0.0
C947 C 0.84455 0.35318 0.42705 0.0
C948 C 0.8232 0.36606 0.5272 0.0
C949 C 0.83532 0.34615 0.48232 0.0
C950 C 0.82847 0.36864 0.55483 0.0
C951 C 0.84538 0.35065 0.56772 0.0
C952 C 0.83533 0.34558 0.51239 0.0
C953 C 0.85545 0.32927 0.55289 0.0
C954 C 0.84661 0.32546 0.46709 0.0
C955 C 0.8317 0.37259 0.44244 0.0
N956 N 0.85061 0.32752 0.52579 0.0
N957 N 0.82776 0.36878 0.46938 0.0
H958 H 0.63456 0.81263 0.43009 0.0
H959 H 0.6748 0.88918 0.56419 0.0
H960 H 0.67622 0.88703 0.43174 0.0
H961 H 0.63342 0.81461 0.56416 0.0
H962 H 0.68509 0.88311 0.51609 0.0
H963 H 0.64341 0.80717 0.4788 0.0
C964 C 0.64637 0.82732 0.44063 0.0
C965 C 0.65468 0.8503 0.42724 0.0
C966 C 0.67426 0.86772 0.52663 0.0
C967 C 0.66426 0.84471 0.48267 0.0
C968 C 0.66854 0.87117 0.55406 0.0
C969 C 0.6533 0.85235 0.56781 0.0
C970 C 0.66408 0.84557 0.51278 0.0
C971 C 0.64531 0.82946 0.55402 0.0
C972 C 0.65126 0.82435 0.4684 0.0
C973 C 0.66957 0.86904 0.44158 0.0
N974 N 0.65039 0.82689 0.52704 0.0
N975 N 0.67354 0.86604 0.46864 0.0
H976 H 0.1551 0.57694 0.25502 0.0
H977 H 0.15461 0.41929 0.23891 0.0
H978 H 0.13377 0.52361 0.31988 0.0
H979 H 0.13394 0.47265 0.1738 0.0
H980 H 0.1619 0.45762 0.26864 0.0
H981 H 0.16223 0.53859 0.22525 0.0
C982 C 0.15251 0.55717 0.26318 0.0
C983 C 0.14354 0.55341 0.28986 0.0
C984 C 0.15623 0.46085 0.24769 0.0
C985 C 0.15189 0.5097 0.25608 0.0
C986 C 0.15221 0.43905 0.23069 0.0
C987 C 0.14337 0.44282 0.20394 0.0
C988 C 0.15188 0.48653 0.2377 0.0
C989 C 0.14046 0.46888 0.19438 0.0
C990 C 0.15644 0.53537 0.24615 0.0
C991 C 0.14039 0.52737 0.29934 0.0
N992 N 0.14458 0.48976 0.21129 0.0
N993 N 0.14445 0.50648 0.28243 0.0
H994 H 0.51946 0.13534 0.17162 0.0
H995 H 0.47038 0.1384 0.32136 0.0
H996 H 0.57149 0.1589 0.23686 0.0
H997 H 0.41664 0.15403 0.25513 0.0
H998 H 0.50776 0.14676 0.29101 0.0
H999 H 0.48137 0.14299 0.20129 0.0
C1000 C 0.52285 0.14256 0.19204 0.0
C1001 C 0.5487 0.14624 0.20188 0.0
C1002 C 0.48779 0.14888 0.28324 0.0
C1003 C 0.50525 0.15452 0.23603 0.0
C1004 C 0.46646 0.14405 0.30053 0.0
C1005 C 0.4404 0.14536 0.29068 0.0
C1006 C 0.48306 0.15434 0.25572 0.0
C1007 C 0.43644 0.15284 0.26354 0.0
C1008 C 0.50109 0.14699 0.20893 0.0
C1009 C 0.55191 0.15574 0.22847 0.0
N1010 N 0.45757 0.15649 0.24682 0.0
N1011 N 0.53047 0.15901 0.24482 0.0
H1012 H 0.83905 0.41888 0.25286 0.0
H1013 H 0.83727 0.57667 0.23742 0.0
H1014 H 0.85609 0.47257 0.31876 0.0
H1015 H 0.86087 0.52381 0.17295 0.0
H1016 H 0.82908 0.53813 0.26656 0.0
H1017 H 0.83196 0.45713 0.22289 0.0
C1018 C 0.84063 0.43869 0.26118 0.0
C1019 C 0.84844 0.44261 0.28823 0.0
C1020 C 0.83559 0.53504 0.24586 0.0
C1021 C 0.84019 0.4862 0.25425 0.0
C1022 C 0.84014 0.55697 0.22918 0.0
C1023 C 0.85009 0.55342 0.20283 0.0
C1024 C 0.84055 0.50944 0.23594 0.0
C1025 C 0.85352 0.52743 0.19325 0.0
C1026 C 0.83675 0.46044 0.24406 0.0
C1027 C 0.85037 0.4687 0.29794 0.0
N1028 N 0.8489 0.50641 0.20985 0.0
N1029 N 0.84642 0.48952 0.28093 0.0
H1030 H 0.57441 0.83815 0.25918 0.0
H1031 H 0.41703 0.84196 0.24192 0.0
H1032 H 0.52169 0.8613 0.3239 0.0
H1033 H 0.47133 0.86224 0.17761 0.0
H1034 H 0.45496 0.83424 0.27217 0.0
H1035 H 0.53596 0.8319 0.22943 0.0
C1036 C 0.55473 0.84129 0.26734 0.0
C1037 C 0.55123 0.85055 0.29397 0.0
C1038 C 0.45847 0.83995 0.25129 0.0
C1039 C 0.50735 0.84324 0.26014 0.0
C1040 C 0.43692 0.84422 0.234 0.0
C1041 C 0.44109 0.85301 0.20731 0.0
C1042 C 0.4843 0.84393 0.2416 0.0
C1043 C 0.46726 0.85575 0.19813 0.0
C1044 C 0.53287 0.83787 0.2503 0.0
C1045 C 0.52527 0.85441 0.30342 0.0
N1046 N 0.4879 0.8513 0.21527 0.0
N1047 N 0.5043 0.85087 0.28647 0.0
H1048 H 0.86423 0.52021 0.82469 0.0
H1049 H 0.85798 0.47093 0.67486 0.0
H1050 H 0.84036 0.57238 0.75969 0.0
H1051 H 0.84332 0.41749 0.7415 0.0
H1052 H 0.85081 0.50847 0.70536 0.0
H1053 H 0.85608 0.48215 0.79505 0.0
C1054 C 0.85691 0.52364 0.80431 0.0
C1055 C 0.85322 0.5495 0.79454 0.0
C1056 C 0.84863 0.48854 0.7132 0.0
C1057 C 0.84427 0.50612 0.76047 0.0
C1058 C 0.85278 0.46712 0.69583 0.0
C1059 C 0.85141 0.44111 0.70575 0.0
C1060 C 0.84378 0.48391 0.74084 0.0
C1061 C 0.84454 0.43726 0.73306 0.0
C1062 C 0.85216 0.50191 0.78746 0.0
C1063 C 0.84354 0.55278 0.76803 0.0
N1064 N 0.84153 0.45846 0.74983 0.0
N1065 N 0.8399 0.53135 0.75172 0.0
H1066 H 0.57412 0.83686 0.73548 0.0
H1067 H 0.41666 0.84317 0.75186 0.0
H1068 H 0.52155 0.86354 0.67195 0.0
H1069 H 0.4715 0.85457 0.81807 0.0
H1070 H 0.45433 0.83582 0.72126 0.0
H1071 H 0.53559 0.8285 0.76443 0.0
C1072 C 0.55447 0.84042 0.7274 0.0
C1073 C 0.55103 0.85128 0.70141 0.0
C1074 C 0.458 0.83943 0.74261 0.0
C1075 C 0.50704 0.84157 0.73431 0.0
C1076 C 0.43658 0.84345 0.76008 0.0
C1077 C 0.44106 0.84977 0.78744 0.0
C1078 C 0.48395 0.84126 0.75275 0.0
C1079 C 0.46724 0.85006 0.79703 0.0
C1080 C 0.53255 0.83574 0.74397 0.0
C1081 C 0.5251 0.85551 0.692 0.0
N1082 N 0.48773 0.84603 0.77967 0.0
N1083 N 0.50407 0.85082 0.70852 0.0
H1084 H 0.14127 0.47333 0.82079 0.0
H1085 H 0.13552 0.52324 0.67142 0.0
H1086 H 0.1552 0.42016 0.75374 0.0
H1087 H 0.15807 0.5753 0.73697 0.0
H1088 H 0.14449 0.48509 0.70061 0.0
H1089 H 0.1493 0.51097 0.7907 0.0
C1090 C 0.14649 0.46959 0.79981 0.0
C1091 C 0.14735 0.44364 0.78965 0.0
C1092 C 0.148 0.50484 0.70843 0.0
C1093 C 0.15599 0.48659 0.755 0.0
C1094 C 0.14279 0.52662 0.69182 0.0
C1095 C 0.14577 0.55247 0.7019 0.0
C1096 C 0.15561 0.50895 0.73552 0.0
C1097 C 0.15543 0.55571 0.72842 0.0
C1098 C 0.15114 0.49107 0.78267 0.0
C1099 C 0.15433 0.43988 0.76236 0.0
N1100 N 0.15947 0.5342 0.74452 0.0
N1101 N 0.15781 0.46117 0.7458 0.0
H1102 H 0.47391 0.14177 0.67594 0.0
H1103 H 0.52316 0.13781 0.8258 0.0
H1104 H 0.42073 0.15714 0.74258 0.0
H1105 H 0.57581 0.1583 0.76015 0.0
H1106 H 0.48528 0.14675 0.79622 0.0
H1107 H 0.51154 0.14977 0.70611 0.0
C1108 C 0.47017 0.14731 0.69683 0.0
C1109 C 0.44419 0.14857 0.70686 0.0
C1110 C 0.50511 0.14982 0.78844 0.0
C1111 C 0.48714 0.15718 0.74161 0.0
C1112 C 0.52674 0.14464 0.80529 0.0
C1113 C 0.55266 0.14706 0.79532 0.0
C1114 C 0.50943 0.15683 0.76123 0.0
C1115 C 0.55615 0.15612 0.76863 0.0
C1116 C 0.49165 0.15194 0.71402 0.0
C1117 C 0.44045 0.15595 0.73405 0.0
N1118 N 0.53477 0.16014 0.75231 0.0
N1119 N 0.46172 0.15942 0.75066 0.0
H1120 H 0.6545 0.07611 0.75718 0.0
H1121 H 0.65266 0.91821 0.74178 0.0
H1122 H 0.63165 0.02325 0.82189 0.0
H1123 H 0.63593 0.97165 0.67558 0.0
H1124 H 0.65915 0.95658 0.77173 0.0
H1125 H 0.66177 0.03755 0.72771 0.0
C1126 C 0.65154 0.0564 0.76536 0.0
C1127 C 0.64216 0.05286 0.79192 0.0
C1128 C 0.65451 0.95981 0.75052 0.0
C1129 C 0.65068 0.00887 0.75848 0.0
C1130 C 0.65098 0.93799 0.7334 0.0
C1131 C 0.64349 0.94179 0.70624 0.0
C1132 C 0.65102 0.98554 0.74024 0.0
C1133 C 0.64141 0.96786 0.69648 0.0
C1134 C 0.65557 0.03447 0.74851 0.0
C1135 C 0.63858 0.02687 0.80144 0.0
N1136 N 0.64504 0.98875 0.71349 0.0
N1137 N 0.64274 0.00586 0.7847 0.0
H1138 H 0.97248 0.63249 0.82449 0.0
H1139 H 0.023 0.63459 0.67502 0.0
H1140 H 0.92057 0.65408 0.75845 0.0
H1141 H 0.07562 0.65275 0.74153 0.0
H1142 H 0.9851 0.64189 0.705 0.0
H1143 H 0.01067 0.64009 0.79495 0.0
C1144 C 0.96914 0.63923 0.8039 0.0
C1145 C 0.9433 0.64242 0.79383 0.0
C1146 C 0.00492 0.64475 0.71291 0.0
C1147 C 0.98686 0.65065 0.75984 0.0
C1148 C 0.02655 0.6405 0.69585 0.0
C1149 C 0.05247 0.64287 0.70588 0.0
C1150 C 0.00924 0.65072 0.74038 0.0
C1151 C 0.05595 0.6507 0.733 0.0
C1152 C 0.99094 0.64364 0.78709 0.0
C1153 C 0.94013 0.65132 0.76702 0.0
N1154 N 0.03456 0.65381 0.74949 0.0
N1155 N 0.96165 0.6546 0.75077 0.0
H1156 H 0.36467 0.02531 0.67528 0.0
H1157 H 0.36275 0.97216 0.82339 0.0
H1158 H 0.34346 0.0768 0.74171 0.0
H1159 H 0.34072 0.92156 0.7565 0.0
H1160 H 0.35605 0.01092 0.7943 0.0
H1161 H 0.35642 0.98688 0.70438 0.0
C1162 C 0.35791 0.0285 0.69588 0.0
C1163 C 0.35492 0.05426 0.70618 0.0
C1164 C 0.35218 0.99136 0.78616 0.0
C1165 C 0.34598 0.01044 0.73967 0.0
C1166 C 0.35606 0.96925 0.80271 0.0
C1167 C 0.35245 0.94362 0.79227 0.0
C1168 C 0.34537 0.98778 0.75878 0.0
C1169 C 0.34371 0.94097 0.76535 0.0
C1170 C 0.35311 0.00658 0.71243 0.0
C1171 C 0.34601 0.05727 0.73299 0.0
N1172 N 0.34102 0.96277 0.74932 0.0
N1173 N 0.34238 0.03561 0.74901 0.0
H1174 H 0.91951 0.3406 0.74081 0.0
H1175 H 0.07717 0.3406 0.75649 0.0
H1176 H 0.97258 0.35933 0.67496 0.0
H1177 H 0.02434 0.36484 0.82068 0.0
H1178 H 0.03866 0.33261 0.72719 0.0
H1179 H 0.95797 0.33454 0.77074 0.0
C1180 C 0.93925 0.34278 0.73248 0.0
C1181 C 0.9429 0.35073 0.70544 0.0
C1182 C 0.03558 0.33925 0.74785 0.0
C1183 C 0.98674 0.34363 0.73941 0.0
C1184 C 0.05748 0.34369 0.76462 0.0
C1185 C 0.05393 0.35368 0.79096 0.0
C1186 C 0.00999 0.34432 0.7577 0.0
C1187 C 0.02795 0.35742 0.8004 0.0
C1188 C 0.96111 0.33949 0.7496 0.0
C1189 C 0.96891 0.35346 0.69575 0.0
N1190 N 0.00696 0.35283 0.78374 0.0
N1191 N 0.98985 0.35002 0.71275 0.0
H1192 H 0.35387 0.97164 0.17369 0.0
H1193 H 0.36298 0.02101 0.32276 0.0
H1194 H 0.33967 0.91851 0.24069 0.0
H1195 H 0.33795 0.07348 0.25849 0.0
H1196 H 0.35344 0.98306 0.29347 0.0
H1197 H 0.34659 0.00933 0.204 0.0
C1198 C 0.34868 0.96794 0.19468 0.0
C1199 C 0.34757 0.94198 0.20479 0.0
C1200 C 0.34956 0.00286 0.28596 0.0
C1201 C 0.33989 0.98492 0.23965 0.0
C1202 C 0.35512 0.02452 0.30261 0.0
C1203 C 0.35152 0.05042 0.29291 0.0
C1204 C 0.34097 0.00715 0.25922 0.0
C1205 C 0.3411 0.05383 0.26672 0.0
C1206 C 0.34448 0.98943 0.21194 0.0
C1207 C 0.3407 0.93824 0.23211 0.0
N1208 N 0.3367 0.03244 0.25055 0.0
N1209 N 0.33772 0.95951 0.24878 0.0
H1210 H 0.07483 0.34113 0.238 0.0
H1211 H 0.91739 0.3418 0.25446 0.0
H1212 H 0.02129 0.36213 0.17311 0.0
H1213 H 0.97127 0.36182 0.31937 0.0
H1214 H 0.95548 0.33422 0.22454 0.0
H1215 H 0.03665 0.33367 0.26774 0.0
C1216 C 0.05505 0.34359 0.22983 0.0
C1217 C 0.05118 0.35258 0.20316 0.0
C1218 C 0.95887 0.3398 0.24549 0.0
C1219 C 0.00765 0.34388 0.23692 0.0
C1220 C 0.93722 0.34399 0.26259 0.0
C1221 C 0.94124 0.35274 0.28932 0.0
C1222 C 0.98462 0.34392 0.25539 0.0
C1223 C 0.96733 0.35539 0.29879 0.0
C1224 C 0.03334 0.33946 0.24684 0.0
C1225 C 0.02512 0.35553 0.19365 0.0
N1226 N 0.98807 0.35113 0.28178 0.0
N1227 N 0.00431 0.35132 0.21058 0.0
H1228 H 0.64973 0.91847 0.25505 0.0
H1229 H 0.65041 0.07604 0.23907 0.0
H1230 H 0.63327 0.97219 0.32108 0.0
H1231 H 0.62731 0.02285 0.17462 0.0
H1232 H 0.65828 0.0377 0.26852 0.0
H1233 H 0.65573 0.95665 0.22485 0.0
C1234 C 0.64797 0.93828 0.26333 0.0
C1235 C 0.6407 0.94223 0.29051 0.0
C1236 C 0.65187 0.0345 0.24779 0.0
C1237 C 0.64771 0.98572 0.25625 0.0
C1238 C 0.64747 0.0563 0.23095 0.0
C1239 C 0.63786 0.0526 0.20447 0.0
C1240 C 0.64706 0.00887 0.23791 0.0
C1241 C 0.63438 0.02658 0.19501 0.0
C1242 C 0.65125 0.95998 0.24607 0.0
C1243 C 0.63856 0.96831 0.30017 0.0
N1244 N 0.63887 0.00567 0.21178 0.0
N1245 N 0.64193 0.98909 0.28301 0.0
H1246 H 0.91952 0.65574 0.23954 0.0
H1247 H 0.07727 0.65595 0.25489 0.0
H1248 H 0.973 0.63488 0.17467 0.0
H1249 H 0.02386 0.63859 0.32086 0.0
H1250 H 0.03894 0.66316 0.22511 0.0
H1251 H 0.95781 0.66422 0.269 0.0
C1252 C 0.9393 0.6535 0.23132 0.0
C1253 C 0.94313 0.64426 0.20475 0.0
C1254 C 0.0357 0.65828 0.24625 0.0
C1255 C 0.98679 0.65412 0.23816 0.0
C1256 C 0.0575 0.65433 0.26327 0.0
C1257 C 0.05367 0.64636 0.29027 0.0
C1258 C 0.01 0.65467 0.25647 0.0
C1259 C 0.02764 0.6444 0.30006 0.0
C1260 C 0.96107 0.65822 0.24816 0.0
C1261 C 0.96918 0.64163 0.19515 0.0
N1262 N 0.00677 0.64835 0.28312 0.0
N1263 N 0.99004 0.64639 0.2119 0.0
loop_
_geom_bond_atom_site_label_1
_geom_bond_atom_site_label_2
_geom_bond_distance
_geom_bond_site_symmetry_2
_ccdc_geom_bond_type
Co0 O3 1.970 . S
Co0 N17 1.989 . S
Co0 O25 1.967 . S
Co0 O32 1.920 . S
Co1 O4 1.966 . S
Co1 N10 2.022 . S
Co1 N18 1.993 . S
Co1 O26 1.941 . S
C2 O3 1.258 . S
C2 O4 1.263 . S
O3 Co0 1.970 . S
O3 C2 1.258 . S
O4 Co1 1.966 . S
O4 C2 1.263 . S
C5 O6 1.235 . S
C5 O32 1.289 . S
O6 C5 1.235 . S
C7 C9 1.400 . S
C7 N10 1.351 . S
C7 C12 1.501 . S
C8 C9 1.387 . S
C8 N11 1.341 . S
C9 C7 1.400 . S
C9 C8 1.387 . S
N10 Co1 2.022 . S
N10 C7 1.351 . S
N10 N11 1.365 . S
N11 C8 1.341 . S
N11 N10 1.365 . S
N11 H31 0.862 . S
C12 C7 1.501 . S
C12 H13 0.961 . S
C12 H14 0.961 . S
C12 H15 0.960 . S
H13 C12 0.961 . S
H14 C12 0.961 . S
H15 C12 0.960 . S
C16 N17 1.342 . S
C16 C20 1.401 . S
C16 C21 1.499 . S
N17 Co0 1.989 . S
N17 C16 1.342 . S
N17 N18 1.388 . S
N18 Co1 1.993 . S
N18 N17 1.388 . S
N18 C19 1.346 . S
C19 N18 1.346 . S
C19 C20 1.396 . S
C19 C29 1.510 . S
C20 C16 1.401 . S
C20 C19 1.396 . S
C21 C16 1.499 . S
C21 H22 0.959 . S
C21 H23 0.960 . S
C21 H24 0.961 . S
H22 C21 0.959 . S
H23 C21 0.960 . S
H24 C21 0.961 . S
O25 Co0 1.967 . S
O25 C33 1.258 . S
O26 Co1 1.941 . S
O26 C33 1.266 . S
H27 C29 0.959 . S
H28 C29 0.961 . S
C29 C19 1.510 . S
C29 H27 0.959 . S
C29 H28 0.961 . S
C29 H30 0.960 . S
H30 C29 0.960 . S
H31 N11 0.862 . S
O32 Co0 1.920 . S
O32 C5 1.289 . S
C33 O25 1.258 . S
C33 O26 1.266 . S
Co34 O37 1.970 . S
Co34 N51 1.989 . S
Co34 O59 1.967 . S
Co34 O66 1.920 . S
Co35 O38 1.966 . S
Co35 N44 2.022 . S
Co35 N52 1.993 . S
Co35 O60 1.941 . S
C36 O37 1.258 . S
C36 O38 1.263 . S
O37 Co34 1.970 . S
O37 C36 1.258 . S
O38 Co35 1.966 . S
O38 C36 1.263 . S
C39 O40 1.235 . S
C39 O66 1.289 . S
O40 C39 1.235 . S
C41 C43 1.400 . S
C41 N44 1.351 . S
C41 C46 1.501 . S
C42 C43 1.387 . S
C42 N45 1.341 . S
C43 C41 1.400 . S
C43 C42 1.387 . S
N44 Co35 2.022 . S
N44 C41 1.351 . S
N44 N45 1.365 . S
N45 C42 1.341 . S
N45 N44 1.365 . S
N45 H65 0.862 . S
C46 C41 1.501 . S
C46 H47 0.961 . S
C46 H48 0.961 . S
C46 H49 0.960 . S
H47 C46 0.961 . S
H48 C46 0.961 . S
H49 C46 0.960 . S
C50 N51 1.342 . S
C50 C54 1.401 . S
C50 C55 1.499 . S
N51 Co34 1.989 . S
N51 C50 1.342 . S
N51 N52 1.388 . S
N52 Co35 1.993 . S
N52 N51 1.388 . S
N52 C53 1.346 . S
C53 N52 1.346 . S
C53 C54 1.396 . S
C53 C63 1.510 . S
C54 C50 1.401 . S
C54 C53 1.396 . S
C55 C50 1.499 . S
C55 H56 0.959 . S
C55 H57 0.960 . S
C55 H58 0.961 . S
H56 C55 0.959 . S
H57 C55 0.960 . S
H58 C55 0.961 . S
O59 Co34 1.967 . S
O59 C67 1.258 . S
O60 Co35 1.941 . S
O60 C67 1.266 . S
H61 C63 0.959 . S
H62 C63 0.961 . S
C63 C53 1.510 . S
C63 H61 0.959 . S
C63 H62 0.961 . S
C63 H64 0.960 . S
H64 C63 0.960 . S
H65 N45 0.862 . S
O66 Co34 1.920 . S
O66 C39 1.289 . S
C67 O59 1.258 . S
C67 O60 1.266 . S
Co68 O71 1.970 . S
Co68 N85 1.989 . S
Co68 O93 1.967 . S
Co68 O100 1.920 . S
Co69 O72 1.966 . S
Co69 N78 2.022 . S
Co69 N86 1.993 . S
Co69 O94 1.941 . S
C70 O71 1.258 . S
C70 O72 1.263 . S
O71 Co68 1.970 . S
O71 C70 1.258 . S
O72 Co69 1.966 . S
O72 C70 1.263 . S
C73 O74 1.235 . S
C73 O100 1.289 . S
O74 C73 1.235 . S
C75 C77 1.400 . S
C75 N78 1.351 . S
C75 C80 1.501 . S
C76 C77 1.387 . S
C76 N79 1.341 . S
C77 C75 1.400 . S
C77 C76 1.387 . S
N78 Co69 2.022 . S
N78 C75 1.351 . S
N78 N79 1.365 . S
N79 C76 1.341 . S
N79 N78 1.365 . S
N79 H99 0.862 . S
C80 C75 1.501 . S
C80 H81 0.961 . S
C80 H82 0.961 . S
C80 H83 0.960 . S
H81 C80 0.961 . S
H82 C80 0.961 . S
H83 C80 0.960 . S
C84 N85 1.342 . S
C84 C88 1.401 . S
C84 C89 1.499 . S
N85 Co68 1.989 . S
N85 C84 1.342 . S
N85 N86 1.388 . S
N86 Co69 1.993 . S
N86 N85 1.388 . S
N86 C87 1.346 . S
C87 N86 1.346 . S
C87 C88 1.396 . S
C87 C97 1.510 . S
C88 C84 1.401 . S
C88 C87 1.396 . S
C89 C84 1.499 . S
C89 H90 0.959 . S
C89 H91 0.960 . S
C89 H92 0.961 . S
H90 C89 0.959 . S
H91 C89 0.960 . S
H92 C89 0.961 . S
O93 Co68 1.967 . S
O93 C101 1.258 . S
O94 Co69 1.941 . S
O94 C101 1.266 . S
H95 C97 0.959 . S
H96 C97 0.961 . S
C97 C87 1.510 . S
C97 H95 0.959 . S
C97 H96 0.961 . S
C97 H98 0.960 . S
H98 C97 0.960 . S
H99 N79 0.862 . S
O100 Co68 1.920 . S
O100 C73 1.289 . S
C101 O93 1.258 . S
C101 O94 1.266 . S
Co102 O105 1.970 . S
Co102 N119 1.989 . S
Co102 O127 1.967 . S
Co102 O134 1.920 . S
Co103 O106 1.966 . S
Co103 N112 2.022 . S
Co103 N120 1.993 . S
Co103 O128 1.941 . S
C104 O105 1.258 . S
C104 O106 1.263 . S
O105 Co102 1.970 . S
O105 C104 1.258 . S
O106 Co103 1.966 . S
O106 C104 1.263 . S
C107 O108 1.235 . S
C107 O134 1.289 . S
O108 C107 1.235 . S
C109 C111 1.400 . S
C109 N112 1.351 . S
C109 C114 1.501 . S
C110 C111 1.387 . S
C110 N113 1.341 . S
C111 C109 1.400 . S
C111 C110 1.387 . S
N112 Co103 2.022 . S
N112 C109 1.351 . S
N112 N113 1.365 . S
N113 C110 1.341 . S
N113 N112 1.365 . S
N113 H133 0.862 . S
C114 C109 1.501 . S
C114 H115 0.961 . S
C114 H116 0.961 . S
C114 H117 0.960 . S
H115 C114 0.961 . S
H116 C114 0.961 . S
H117 C114 0.960 . S
C118 N119 1.342 . S
C118 C122 1.401 . S
C118 C123 1.499 . S
N119 Co102 1.989 . S
N119 C118 1.342 . S
N119 N120 1.388 . S
N120 Co103 1.993 . S
N120 N119 1.388 . S
N120 C121 1.346 . S
C121 N120 1.346 . S
C121 C122 1.396 . S
C121 C131 1.510 . S
C122 C118 1.401 . S
C122 C121 1.396 . S
C123 C118 1.499 . S
C123 H124 0.959 . S
C123 H125 0.960 . S
C123 H126 0.961 . S
H124 C123 0.959 . S
H125 C123 0.960 . S
H126 C123 0.961 . S
O127 Co102 1.967 . S
O127 C135 1.258 . S
O128 Co103 1.941 . S
O128 C135 1.266 . S
H129 C131 0.959 . S
H130 C131 0.961 . S
C131 C121 1.510 . S
C131 H129 0.959 . S
C131 H130 0.961 . S
C131 H132 0.960 . S
H132 C131 0.960 . S
H133 N113 0.862 . S
O134 Co102 1.920 . S
O134 C107 1.289 . S
C135 O127 1.258 . S
C135 O128 1.266 . S
Co136 O139 1.970 . S
Co136 N153 1.989 . S
Co136 O161 1.967 . S
Co136 O168 1.920 . S
Co137 O140 1.966 . S
Co137 N146 2.022 . S
Co137 N154 1.993 . S
Co137 O162 1.941 . S
C138 O139 1.258 . S
C138 O140 1.263 . S
O139 Co136 1.970 . S
O139 C138 1.258 . S
O140 Co137 1.966 . S
O140 C138 1.263 . S
C141 O142 1.235 . S
C141 O168 1.289 . S
O142 C141 1.235 . S
C143 C145 1.400 . S
C143 N146 1.351 . S
C143 C148 1.501 . S
C144 C145 1.387 . S
C144 N147 1.341 . S
C145 C143 1.400 . S
C145 C144 1.387 . S
N146 Co137 2.022 . S
N146 C143 1.351 . S
N146 N147 1.365 . S
N147 C144 1.341 . S
N147 N146 1.365 . S
N147 H167 0.862 . S
C148 C143 1.501 . S
C148 H149 0.961 . S
C148 H150 0.961 . S
C148 H151 0.960 . S
H149 C148 0.961 . S
H150 C148 0.961 . S
H151 C148 0.960 . S
C152 N153 1.342 . S
C152 C156 1.401 . S
C152 C157 1.499 . S
N153 Co136 1.989 . S
N153 C152 1.342 . S
N153 N154 1.388 . S
N154 Co137 1.993 . S
N154 N153 1.388 . S
N154 C155 1.346 . S
C155 N154 1.346 . S
C155 C156 1.396 . S
C155 C165 1.510 . S
C156 C152 1.401 . S
C156 C155 1.396 . S
C157 C152 1.499 . S
C157 H158 0.959 . S
C157 H159 0.960 . S
C157 H160 0.961 . S
H158 C157 0.959 . S
H159 C157 0.960 . S
H160 C157 0.961 . S
O161 Co136 1.967 . S
O161 C169 1.258 . S
O162 Co137 1.941 . S
O162 C169 1.266 . S
H163 C165 0.959 . S
H164 C165 0.961 . S
C165 C155 1.510 . S
C165 H163 0.959 . S
C165 H164 0.961 . S
C165 H166 0.960 . S
H166 C165 0.960 . S
H167 N147 0.862 . S
O168 Co136 1.920 . S
O168 C141 1.289 . S
C169 O161 1.258 . S
C169 O162 1.266 . S
Co170 O173 1.970 . S
Co170 N187 1.989 . S
Co170 O195 1.967 . S
Co170 O202 1.920 . S
Co171 O174 1.966 . S
Co171 N180 2.022 . S
Co171 N188 1.993 . S
Co171 O196 1.941 . S
C172 O173 1.258 . S
C172 O174 1.263 . S
O173 Co170 1.970 . S
O173 C172 1.258 . S
O174 Co171 1.966 . S
O174 C172 1.263 . S
C175 O176 1.235 . S
C175 O202 1.289 . S
O176 C175 1.235 . S
C177 C179 1.400 . S
C177 N180 1.351 . S
C177 C182 1.501 . S
C178 C179 1.387 . S
C178 N181 1.341 . S
C179 C177 1.400 . S
C179 C178 1.387 . S
N180 Co171 2.022 . S
N180 C177 1.351 . S
N180 N181 1.365 . S
N181 C178 1.341 . S
N181 N180 1.365 . S
N181 H201 0.862 . S
C182 C177 1.501 . S
C182 H183 0.961 . S
C182 H184 0.961 . S
C182 H185 0.960 . S
H183 C182 0.961 . S
H184 C182 0.961 . S
H185 C182 0.960 . S
C186 N187 1.342 . S
C186 C190 1.401 . S
C186 C191 1.499 . S
N187 Co170 1.989 . S
N187 C186 1.342 . S
N187 N188 1.388 . S
N188 Co171 1.993 . S
N188 N187 1.388 . S
N188 C189 1.346 . S
C189 N188 1.346 . S
C189 C190 1.396 . S
C189 C199 1.510 . S
C190 C186 1.401 . S
C190 C189 1.396 . S
C191 C186 1.499 . S
C191 H192 0.959 . S
C191 H193 0.960 . S
C191 H194 0.961 . S
H192 C191 0.959 . S
H193 C191 0.960 . S
H194 C191 0.961 . S
O195 Co170 1.967 . S
O195 C203 1.258 . S
O196 Co171 1.941 . S
O196 C203 1.266 . S
H197 C199 0.959 . S
H198 C199 0.961 . S
C199 C189 1.510 . S
C199 H197 0.959 . S
C199 H198 0.961 . S
C199 H200 0.960 . S
H200 C199 0.960 . S
H201 N181 0.862 . S
O202 Co170 1.920 . S
O202 C175 1.289 . S
C203 O195 1.258 . S
C203 O196 1.266 . S
Co204 O207 1.970 . S
Co204 N221 1.989 . S
Co204 O229 1.967 . S
Co204 O236 1.920 . S
Co205 O208 1.966 . S
Co205 N214 2.022 . S
Co205 N222 1.993 . S
Co205 O230 1.941 . S
C206 O207 1.258 . S
C206 O208 1.263 . S
O207 Co204 1.970 . S
O207 C206 1.258 . S
O208 Co205 1.966 . S
O208 C206 1.263 . S
C209 O210 1.235 . S
C209 O236 1.289 . S
O210 C209 1.235 . S
C211 C213 1.400 . S
C211 N214 1.351 . S
C211 C216 1.501 . S
C212 C213 1.387 . S
C212 N215 1.341 . S
C213 C211 1.400 . S
C213 C212 1.387 . S
N214 Co205 2.022 . S
N214 C211 1.351 . S
N214 N215 1.365 . S
N215 C212 1.341 . S
N215 N214 1.365 . S
N215 H235 0.862 . S
C216 C211 1.501 . S
C216 H217 0.961 . S
C216 H218 0.961 . S
C216 H219 0.960 . S
H217 C216 0.961 . S
H218 C216 0.961 . S
H219 C216 0.960 . S
C220 N221 1.342 . S
C220 C224 1.401 . S
C220 C225 1.499 . S
N221 Co204 1.989 . S
N221 C220 1.342 . S
N221 N222 1.388 . S
N222 Co205 1.993 . S
N222 N221 1.388 . S
N222 C223 1.346 . S
C223 N222 1.346 . S
C223 C224 1.396 . S
C223 C233 1.510 . S
C224 C220 1.401 . S
C224 C223 1.396 . S
C225 C220 1.499 . S
C225 H226 0.959 . S
C225 H227 0.960 . S
C225 H228 0.961 . S
H226 C225 0.959 . S
H227 C225 0.960 . S
H228 C225 0.961 . S
O229 Co204 1.967 . S
O229 C237 1.258 . S
O230 Co205 1.941 . S
O230 C237 1.266 . S
H231 C233 0.959 . S
H232 C233 0.961 . S
C233 C223 1.510 . S
C233 H231 0.959 . S
C233 H232 0.961 . S
C233 H234 0.960 . S
H234 C233 0.960 . S
H235 N215 0.862 . S
O236 Co204 1.920 . S
O236 C209 1.289 . S
C237 O229 1.258 . S
C237 O230 1.266 . S
Co238 O241 1.970 . S
Co238 N255 1.989 . S
Co238 O263 1.967 . S
Co238 O270 1.920 . S
Co239 O242 1.966 . S
Co239 N248 2.022 . S
Co239 N256 1.993 . S
Co239 O264 1.941 . S
C240 O241 1.258 . S
C240 O242 1.263 . S
O241 Co238 1.970 . S
O241 C240 1.258 . S
O242 Co239 1.966 . S
O242 C240 1.263 . S
C243 O244 1.235 . S
C243 O270 1.289 . S
O244 C243 1.235 . S
C245 C247 1.400 . S
C245 N248 1.351 . S
C245 C250 1.501 . S
C246 C247 1.387 . S
C246 N249 1.341 . S
C247 C245 1.400 . S
C247 C246 1.387 . S
N248 Co239 2.022 . S
N248 C245 1.351 . S
N248 N249 1.365 . S
N249 C246 1.341 . S
N249 N248 1.365 . S
N249 H269 0.862 . S
C250 C245 1.501 . S
C250 H251 0.961 . S
C250 H252 0.961 . S
C250 H253 0.960 . S
H251 C250 0.961 . S
H252 C250 0.961 . S
H253 C250 0.960 . S
C254 N255 1.342 . S
C254 C258 1.401 . S
C254 C259 1.499 . S
N255 Co238 1.989 . S
N255 C254 1.342 . S
N255 N256 1.388 . S
N256 Co239 1.993 . S
N256 N255 1.388 . S
N256 C257 1.346 . S
C257 N256 1.346 . S
C257 C258 1.396 . S
C257 C267 1.510 . S
C258 C254 1.401 . S
C258 C257 1.396 . S
C259 C254 1.499 . S
C259 H260 0.959 . S
C259 H261 0.960 . S
C259 H262 0.961 . S
H260 C259 0.959 . S
H261 C259 0.960 . S
H262 C259 0.961 . S
O263 Co238 1.967 . S
O263 C271 1.258 . S
O264 Co239 1.941 . S
O264 C271 1.266 . S
H265 C267 0.959 . S
H266 C267 0.961 . S
C267 C257 1.510 . S
C267 H265 0.959 . S
C267 H266 0.961 . S
C267 H268 0.960 . S
H268 C267 0.960 . S
H269 N249 0.862 . S
O270 Co238 1.920 . S
O270 C243 1.289 . S
C271 O263 1.258 . S
C271 O264 1.266 . S
Co272 O275 1.970 . S
Co272 N289 1.989 . S
Co272 O297 1.967 . S
Co272 O304 1.920 . S
Co273 O276 1.966 . S
Co273 N282 2.022 . S
Co273 N290 1.993 . S
Co273 O298 1.941 . S
C274 O275 1.258 . S
C274 O276 1.263 . S
O275 Co272 1.970 . S
O275 C274 1.258 . S
O276 Co273 1.966 . S
O276 C274 1.263 . S
C277 O278 1.235 . S
C277 O304 1.289 . S
O278 C277 1.235 . S
C279 C281 1.400 . S
C279 N282 1.351 . S
C279 C284 1.501 . S
C280 C281 1.387 . S
C280 N283 1.341 . S
C281 C279 1.400 . S
C281 C280 1.387 . S
N282 Co273 2.022 . S
N282 C279 1.351 . S
N282 N283 1.365 . S
N283 C280 1.341 . S
N283 N282 1.365 . S
N283 H303 0.862 . S
C284 C279 1.501 . S
C284 H285 0.961 . S
C284 H286 0.961 . S
C284 H287 0.960 . S
H285 C284 0.961 . S
H286 C284 0.961 . S
H287 C284 0.960 . S
C288 N289 1.342 . S
C288 C292 1.401 . S
C288 C293 1.499 . S
N289 Co272 1.989 . S
N289 C288 1.342 . S
N289 N290 1.388 . S
N290 Co273 1.993 . S
N290 N289 1.388 . S
N290 C291 1.346 . S
C291 N290 1.346 . S
C291 C292 1.396 . S
C291 C301 1.510 . S
C292 C288 1.401 . S
C292 C291 1.396 . S
C293 C288 1.499 . S
C293 H294 0.959 . S
C293 H295 0.960 . S
C293 H296 0.961 . S
H294 C293 0.959 . S
H295 C293 0.960 . S
H296 C293 0.961 . S
O297 Co272 1.967 . S
O297 C305 1.258 . S
O298 Co273 1.941 . S
O298 C305 1.266 . S
H299 C301 0.959 . S
H300 C301 0.961 . S
C301 C291 1.510 . S
C301 H299 0.959 . S
C301 H300 0.961 . S
C301 H302 0.960 . S
H302 C301 0.960 . S
H303 N283 0.862 . S
O304 Co272 1.920 . S
O304 C277 1.289 . S
C305 O297 1.258 . S
C305 O298 1.266 . S
Co306 O309 1.970 . S
Co306 N323 1.989 . S
Co306 O331 1.967 . S
Co306 O338 1.920 . S
Co307 O310 1.966 . S
Co307 N316 2.022 . S
Co307 N324 1.993 . S
Co307 O332 1.941 . S
C308 O309 1.258 . S
C308 O310 1.263 . S
O309 Co306 1.970 . S
O309 C308 1.258 . S
O310 Co307 1.966 . S
O310 C308 1.263 . S
C311 O312 1.235 . S
C311 O338 1.289 . S
O312 C311 1.235 . S
C313 C315 1.400 . S
C313 N316 1.351 . S
C313 C318 1.501 . S
C314 C315 1.387 . S
C314 N317 1.341 . S
C315 C313 1.400 . S
C315 C314 1.387 . S
N316 Co307 2.022 . S
N316 C313 1.351 . S
N316 N317 1.365 . S
N317 C314 1.341 . S
N317 N316 1.365 . S
N317 H337 0.862 . S
C318 C313 1.501 . S
C318 H319 0.961 . S
C318 H320 0.961 . S
C318 H321 0.960 . S
H319 C318 0.961 . S
H320 C318 0.961 . S
H321 C318 0.960 . S
C322 N323 1.342 . S
C322 C326 1.401 . S
C322 C327 1.499 . S
N323 Co306 1.989 . S
N323 C322 1.342 . S
N323 N324 1.388 . S
N324 Co307 1.993 . S
N324 N323 1.388 . S
N324 C325 1.346 . S
C325 N324 1.346 . S
C325 C326 1.396 . S
C325 C335 1.510 . S
C326 C322 1.401 . S
C326 C325 1.396 . S
C327 C322 1.499 . S
C327 H328 0.959 . S
C327 H329 0.960 . S
C327 H330 0.961 . S
H328 C327 0.959 . S
H329 C327 0.960 . S
H330 C327 0.961 . S
O331 Co306 1.967 . S
O331 C339 1.258 . S
O332 Co307 1.941 . S
O332 C339 1.266 . S
H333 C335 0.959 . S
H334 C335 0.961 . S
C335 C325 1.510 . S
C335 H333 0.959 . S
C335 H334 0.961 . S
C335 H336 0.960 . S
H336 C335 0.960 . S
H337 N317 0.862 . S
O338 Co306 1.920 . S
O338 C311 1.289 . S
C339 O331 1.258 . S
C339 O332 1.266 . S
Co340 O343 1.970 . S
Co340 N357 1.989 . S
Co340 O365 1.967 . S
Co340 O372 1.920 . S
Co341 O344 1.966 . S
Co341 N350 2.022 . S
Co341 N358 1.993 . S
Co341 O366 1.941 . S
C342 O343 1.258 . S
C342 O344 1.263 . S
O343 Co340 1.970 . S
O343 C342 1.258 . S
O344 Co341 1.966 . S
O344 C342 1.263 . S
C345 O346 1.235 . S
C345 O372 1.289 . S
O346 C345 1.235 . S
C347 C349 1.400 . S
C347 N350 1.351 . S
C347 C352 1.501 . S
C348 C349 1.387 . S
C348 N351 1.341 . S
C349 C347 1.400 . S
C349 C348 1.387 . S
N350 Co341 2.022 . S
N350 C347 1.351 . S
N350 N351 1.365 . S
N351 C348 1.341 . S
N351 N350 1.365 . S
N351 H371 0.862 . S
C352 C347 1.501 . S
C352 H353 0.961 . S
C352 H354 0.961 . S
C352 H355 0.960 . S
H353 C352 0.961 . S
H354 C352 0.961 . S
H355 C352 0.960 . S
C356 N357 1.342 . S
C356 C360 1.401 . S
C356 C361 1.499 . S
N357 Co340 1.989 . S
N357 C356 1.342 . S
N357 N358 1.388 . S
N358 Co341 1.993 . S
N358 N357 1.388 . S
N358 C359 1.346 . S
C359 N358 1.346 . S
C359 C360 1.396 . S
C359 C369 1.510 . S
C360 C356 1.401 . S
C360 C359 1.396 . S
C361 C356 1.499 . S
C361 H362 0.959 . S
C361 H363 0.960 . S
C361 H364 0.961 . S
H362 C361 0.959 . S
H363 C361 0.960 . S
H364 C361 0.961 . S
O365 Co340 1.967 . S
O365 C373 1.258 . S
O366 Co341 1.941 . S
O366 C373 1.266 . S
H367 C369 0.959 . S
H368 C369 0.961 . S
C369 C359 1.510 . S
C369 H367 0.959 . S
C369 H368 0.961 . S
C369 H370 0.960 . S
H370 C369 0.960 . S
H371 N351 0.862 . S
O372 Co340 1.920 . S
O372 C345 1.289 . S
C373 O365 1.258 . S
C373 O366 1.266 . S
Co374 O377 1.970 . S
Co374 N391 1.989 . S
Co374 O399 1.967 . S
Co374 O406 1.920 . S
Co375 O378 1.966 . S
Co375 N384 2.022 . S
Co375 N392 1.993 . S
Co375 O400 1.941 . S
C376 O377 1.258 . S
C376 O378 1.263 . S
O377 Co374 1.970 . S
O377 C376 1.258 . S
O378 Co375 1.966 . S
O378 C376 1.263 . S
C379 O380 1.235 . S
C379 O406 1.289 . S
O380 C379 1.235 . S
C381 C383 1.400 . S
C381 N384 1.351 . S
C381 C386 1.501 . S
C382 C383 1.387 . S
C382 N385 1.341 . S
C383 C381 1.400 . S
C383 C382 1.387 . S
N384 Co375 2.022 . S
N384 C381 1.351 . S
N384 N385 1.365 . S
N385 C382 1.341 . S
N385 N384 1.365 . S
N385 H405 0.862 . S
C386 C381 1.501 . S
C386 H387 0.961 . S
C386 H388 0.961 . S
C386 H389 0.960 . S
H387 C386 0.961 . S
H388 C386 0.961 . S
H389 C386 0.960 . S
C390 N391 1.342 . S
C390 C394 1.401 . S
C390 C395 1.499 . S
N391 Co374 1.989 . S
N391 C390 1.342 . S
N391 N392 1.388 . S
N392 Co375 1.993 . S
N392 N391 1.388 . S
N392 C393 1.346 . S
C393 N392 1.346 . S
C393 C394 1.396 . S
C393 C403 1.510 . S
C394 C390 1.401 . S
C394 C393 1.396 . S
C395 C390 1.499 . S
C395 H396 0.959 . S
C395 H397 0.960 . S
C395 H398 0.961 . S
H396 C395 0.959 . S
H397 C395 0.960 . S
H398 C395 0.961 . S
O399 Co374 1.967 . S
O399 C407 1.258 . S
O400 Co375 1.941 . S
O400 C407 1.266 . S
H401 C403 0.959 . S
H402 C403 0.961 . S
C403 C393 1.510 . S
C403 H401 0.959 . S
C403 H402 0.961 . S
C403 H404 0.960 . S
H404 C403 0.960 . S
H405 N385 0.862 . S
O406 Co374 1.920 . S
O406 C379 1.289 . S
C407 O399 1.258 . S
C407 O400 1.266 . S
Co408 O411 1.970 . S
Co408 N425 1.989 . S
Co408 O433 1.967 . S
Co408 O440 1.920 . S
Co409 O412 1.966 . S
Co409 N418 2.022 . S
Co409 N426 1.993 . S
Co409 O434 1.941 . S
C410 O411 1.258 . S
C410 O412 1.263 . S
O411 Co408 1.970 . S
O411 C410 1.258 . S
O412 Co409 1.966 . S
O412 C410 1.263 . S
C413 O414 1.235 . S
C413 O440 1.289 . S
O414 C413 1.235 . S
C415 C417 1.400 . S
C415 N418 1.351 . S
C415 C420 1.501 . S
C416 C417 1.387 . S
C416 N419 1.341 . S
C417 C415 1.400 . S
C417 C416 1.387 . S
N418 Co409 2.022 . S
N418 C415 1.351 . S
N418 N419 1.365 . S
N419 C416 1.341 . S
N419 N418 1.365 . S
N419 H439 0.862 . S
C420 C415 1.501 . S
C420 H421 0.961 . S
C420 H422 0.961 . S
C420 H423 0.960 . S
H421 C420 0.961 . S
H422 C420 0.961 . S
H423 C420 0.960 . S
C424 N425 1.342 . S
C424 C428 1.401 . S
C424 C429 1.499 . S
N425 Co408 1.989 . S
N425 C424 1.342 . S
N425 N426 1.388 . S
N426 Co409 1.993 . S
N426 N425 1.388 . S
N426 C427 1.346 . S
C427 N426 1.346 . S
C427 C428 1.396 . S
C427 C437 1.510 . S
C428 C424 1.401 . S
C428 C427 1.396 . S
C429 C424 1.499 . S
C429 H430 0.959 . S
C429 H431 0.960 . S
C429 H432 0.961 . S
H430 C429 0.959 . S
H431 C429 0.960 . S
H432 C429 0.961 . S
O433 Co408 1.967 . S
O433 C441 1.258 . S
O434 Co409 1.941 . S
O434 C441 1.266 . S
H435 C437 0.959 . S
H436 C437 0.961 . S
C437 C427 1.510 . S
C437 H435 0.959 . S
C437 H436 0.961 . S
C437 H438 0.960 . S
H438 C437 0.960 . S
H439 N419 0.862 . S
O440 Co408 1.920 . S
O440 C413 1.289 . S
C441 O433 1.258 . S
C441 O434 1.266 . S
Co442 O445 1.970 . S
Co442 N459 1.989 . S
Co442 O467 1.967 . S
Co442 O474 1.920 . S
Co443 O446 1.966 . S
Co443 N452 2.022 . S
Co443 N460 1.993 . S
Co443 O468 1.941 . S
C444 O445 1.258 . S
C444 O446 1.263 . S
O445 Co442 1.970 . S
O445 C444 1.258 . S
O446 Co443 1.966 . S
O446 C444 1.263 . S
C447 O448 1.235 . S
C447 O474 1.289 . S
O448 C447 1.235 . S
C449 C451 1.400 . S
C449 N452 1.351 . S
C449 C454 1.501 . S
C450 C451 1.387 . S
C450 N453 1.341 . S
C451 C449 1.400 . S
C451 C450 1.387 . S
N452 Co443 2.022 . S
N452 C449 1.351 . S
N452 N453 1.365 . S
N453 C450 1.341 . S
N453 N452 1.365 . S
N453 H473 0.862 . S
C454 C449 1.501 . S
C454 H455 0.961 . S
C454 H456 0.961 . S
C454 H457 0.960 . S
H455 C454 0.961 . S
H456 C454 0.961 . S
H457 C454 0.960 . S
C458 N459 1.342 . S
C458 C462 1.401 . S
C458 C463 1.499 . S
N459 Co442 1.989 . S
N459 C458 1.342 . S
N459 N460 1.388 . S
N460 Co443 1.993 . S
N460 N459 1.388 . S
N460 C461 1.346 . S
C461 N460 1.346 . S
C461 C462 1.396 . S
C461 C471 1.510 . S
C462 C458 1.401 . S
C462 C461 1.396 . S
C463 C458 1.499 . S
C463 H464 0.959 . S
C463 H465 0.960 . S
C463 H466 0.961 . S
H464 C463 0.959 . S
H465 C463 0.960 . S
H466 C463 0.961 . S
O467 Co442 1.967 . S
O467 C475 1.258 . S
O468 Co443 1.941 . S
O468 C475 1.266 . S
H469 C471 0.959 . S
H470 C471 0.961 . S
C471 C461 1.510 . S
C471 H469 0.959 . S
C471 H470 0.961 . S
C471 H472 0.960 . S
H472 C471 0.960 . S
H473 N453 0.862 . S
O474 Co442 1.920 . S
O474 C447 1.289 . S
C475 O467 1.258 . S
C475 O468 1.266 . S
Co476 O479 1.970 . S
Co476 N493 1.989 . S
Co476 O501 1.967 . S
Co476 O508 1.920 . S
Co477 O480 1.966 . S
Co477 N486 2.022 . S
Co477 N494 1.993 . S
Co477 O502 1.941 . S
C478 O479 1.258 . S
C478 O480 1.263 . S
O479 Co476 1.970 . S
O479 C478 1.258 . S
O480 Co477 1.966 . S
O480 C478 1.263 . S
C481 O482 1.235 . S
C481 O508 1.289 . S
O482 C481 1.235 . S
C483 C485 1.400 . S
C483 N486 1.351 . S
C483 C488 1.501 . S
C484 C485 1.387 . S
C484 N487 1.341 . S
C485 C483 1.400 . S
C485 C484 1.387 . S
N486 Co477 2.022 . S
N486 C483 1.351 . S
N486 N487 1.365 . S
N487 C484 1.341 . S
N487 N486 1.365 . S
N487 H507 0.862 . S
C488 C483 1.501 . S
C488 H489 0.961 . S
C488 H490 0.961 . S
C488 H491 0.960 . S
H489 C488 0.961 . S
H490 C488 0.961 . S
H491 C488 0.960 . S
C492 N493 1.342 . S
C492 C496 1.401 . S
C492 C497 1.499 . S
N493 Co476 1.989 . S
N493 C492 1.342 . S
N493 N494 1.388 . S
N494 Co477 1.993 . S
N494 N493 1.388 . S
N494 C495 1.346 . S
C495 N494 1.346 . S
C495 C496 1.396 . S
C495 C505 1.510 . S
C496 C492 1.401 . S
C496 C495 1.396 . S
C497 C492 1.499 . S
C497 H498 0.959 . S
C497 H499 0.960 . S
C497 H500 0.961 . S
H498 C497 0.959 . S
H499 C497 0.960 . S
H500 C497 0.961 . S
O501 Co476 1.967 . S
O501 C509 1.258 . S
O502 Co477 1.941 . S
O502 C509 1.266 . S
H503 C505 0.959 . S
H504 C505 0.961 . S
C505 C495 1.510 . S
C505 H503 0.959 . S
C505 H504 0.961 . S
C505 H506 0.960 . S
H506 C505 0.960 . S
H507 N487 0.862 . S
O508 Co476 1.920 . S
O508 C481 1.289 . S
C509 O501 1.258 . S
C509 O502 1.266 . S
Co510 O513 1.970 . S
Co510 N527 1.989 . S
Co510 O535 1.967 . S
Co510 O542 1.920 . S
Co511 O514 1.966 . S
Co511 N520 2.022 . S
Co511 N528 1.993 . S
Co511 O536 1.941 . S
C512 O513 1.258 . S
C512 O514 1.263 . S
O513 Co510 1.970 . S
O513 C512 1.258 . S
O514 Co511 1.966 . S
O514 C512 1.263 . S
C515 O516 1.235 . S
C515 O542 1.289 . S
O516 C515 1.235 . S
C517 C519 1.400 . S
C517 N520 1.351 . S
C517 C522 1.501 . S
C518 C519 1.387 . S
C518 N521 1.341 . S
C519 C517 1.400 . S
C519 C518 1.387 . S
N520 Co511 2.022 . S
N520 C517 1.351 . S
N520 N521 1.365 . S
N521 C518 1.341 . S
N521 N520 1.365 . S
N521 H541 0.862 . S
C522 C517 1.501 . S
C522 H523 0.961 . S
C522 H524 0.961 . S
C522 H525 0.960 . S
H523 C522 0.961 . S
H524 C522 0.961 . S
H525 C522 0.960 . S
C526 N527 1.342 . S
C526 C530 1.401 . S
C526 C531 1.499 . S
N527 Co510 1.989 . S
N527 C526 1.342 . S
N527 N528 1.388 . S
N528 Co511 1.993 . S
N528 N527 1.388 . S
N528 C529 1.346 . S
C529 N528 1.346 . S
C529 C530 1.396 . S
C529 C539 1.510 . S
C530 C526 1.401 . S
C530 C529 1.396 . S
C531 C526 1.499 . S
C531 H532 0.959 . S
C531 H533 0.960 . S
C531 H534 0.961 . S
H532 C531 0.959 . S
H533 C531 0.960 . S
H534 C531 0.961 . S
O535 Co510 1.967 . S
O535 C543 1.258 . S
O536 Co511 1.941 . S
O536 C543 1.266 . S
H537 C539 0.959 . S
H538 C539 0.961 . S
C539 C529 1.510 . S
C539 H537 0.959 . S
C539 H538 0.961 . S
C539 H540 0.960 . S
H540 C539 0.960 . S
H541 N521 0.862 . S
O542 Co510 1.920 . S
O542 C515 1.289 . S
C543 O535 1.258 . S
C543 O536 1.266 . S
H544 C550 0.930 . S
H545 C554 0.930 . S
H546 C559 0.929 . S
H547 C557 0.929 . S
H548 C552 0.929 . S
H549 C558 0.929 . S
C550 H544 0.930 . S
C550 C551 1.367 . S
C550 C558 1.378 . S
C551 C550 1.367 . S
C551 C559 1.433 . S
C552 H548 0.929 . S
C552 C554 1.378 . S
C552 C556 1.350 . S
C553 C556 1.463 1_655 S
C553 C558 1.350 . S
C553 N561 1.427 . S
C554 H545 0.930 . S
C554 C552 1.378 . S
C554 C555 1.367 . S
C555 C554 1.367 . S
C555 C557 1.433 . S
C556 C552 1.350 . S
C556 C553 1.463 1_455 S
C556 N560 1.427 . S
C557 H547 0.929 . S
C557 C555 1.433 . S
C557 N560 1.384 . S
C558 H549 0.929 . S
C558 C550 1.378 . S
C558 C553 1.350 . S
C559 H546 0.929 . S
C559 C551 1.433 . S
C559 N561 1.384 . S
N560 C556 1.427 . S
N560 C557 1.384 . S
N561 C553 1.427 . S
N561 C559 1.384 . S
H562 C568 0.930 . S
H563 C572 0.930 . S
H564 C577 0.929 . S
H565 C575 0.929 . S
H566 C570 0.929 . S
H567 C576 0.929 . S
C568 H562 0.930 . S
C568 C569 1.367 . S
C568 C576 1.378 . S
C569 C568 1.367 . S
C569 C577 1.433 . S
C570 H566 0.929 . S
C570 C572 1.378 . S
C570 C574 1.350 . S
C571 C574 1.463 1_545 S
C571 C576 1.350 . S
C571 N579 1.427 . S
C572 H563 0.930 . S
C572 C570 1.378 . S
C572 C573 1.367 . S
C573 C572 1.367 . S
C573 C575 1.433 . S
C574 C570 1.350 . S
C574 C571 1.463 1_565 S
C574 N578 1.427 . S
C575 H565 0.929 . S
C575 C573 1.433 . S
C575 N578 1.384 . S
C576 H567 0.929 . S
C576 C568 1.378 . S
C576 C571 1.350 . S
C577 H564 0.929 . S
C577 C569 1.433 . S
C577 N579 1.384 . S
N578 C574 1.427 . S
N578 C575 1.384 . S
N579 C571 1.427 . S
N579 C577 1.384 . S
H580 C586 0.930 . S
H581 C590 0.930 . S
H582 C595 0.929 . S
H583 C593 0.929 . S
H584 C588 0.929 . S
H585 C594 0.929 . S
C586 H580 0.930 . S
C586 C587 1.367 . S
C586 C594 1.378 . S
C587 C586 1.367 . S
C587 C595 1.433 . S
C588 H584 0.929 . S
C588 C590 1.378 . S
C588 C592 1.350 . S
C589 C592 1.463 1_655 S
C589 C594 1.350 . S
C589 N597 1.427 . S
C590 H581 0.930 . S
C590 C588 1.378 . S
C590 C591 1.367 . S
C591 C590 1.367 . S
C591 C593 1.433 . S
C592 C588 1.350 . S
C592 C589 1.463 1_455 S
C592 N596 1.427 . S
C593 H583 0.929 . S
C593 C591 1.433 . S
C593 N596 1.384 . S
C594 H585 0.929 . S
C594 C586 1.378 . S
C594 C589 1.350 . S
C595 H582 0.929 . S
C595 C587 1.433 . S
C595 N597 1.384 . S
N596 C592 1.427 . S
N596 C593 1.384 . S
N597 C589 1.427 . S
N597 C595 1.384 . S
H598 C604 0.930 . S
H599 C608 0.930 . S
H600 C613 0.929 . S
H601 C611 0.929 . S
H602 C606 0.929 . S
H603 C612 0.929 . S
C604 H598 0.930 . S
C604 C605 1.367 . S
C604 C612 1.378 . S
C605 C604 1.367 . S
C605 C613 1.433 . S
C606 H602 0.929 . S
C606 C608 1.378 . S
C606 C610 1.350 . S
C607 C610 1.463 1_565 S
C607 C612 1.350 . S
C607 N615 1.427 . S
C608 H599 0.930 . S
C608 C606 1.378 . S
C608 C609 1.367 . S
C609 C608 1.367 . S
C609 C611 1.433 . S
C610 C606 1.350 . S
C610 C607 1.463 1_545 S
C610 N614 1.427 . S
C611 H601 0.929 . S
C611 C609 1.433 . S
C611 N614 1.384 . S
C612 H603 0.929 . S
C612 C604 1.378 . S
C612 C607 1.350 . S
C613 H600 0.929 . S
C613 C605 1.433 . S
C613 N615 1.384 . S
N614 C610 1.427 . S
N614 C611 1.384 . S
N615 C607 1.427 . S
N615 C613 1.384 . S
H616 C622 0.930 . S
H617 C626 0.930 . S
H618 C631 0.929 . S
H619 C629 0.929 . S
H620 C624 0.929 . S
H621 C630 0.929 . S
C622 H616 0.930 . S
C622 C623 1.367 . S
C622 C630 1.378 . S
C623 C622 1.367 . S
C623 C631 1.433 . S
C624 H620 0.929 . S
C624 C626 1.378 . S
C624 C628 1.350 . S
C625 C628 1.463 1_655 S
C625 C630 1.350 . S
C625 N633 1.427 . S
C626 H617 0.930 . S
C626 C624 1.378 . S
C626 C627 1.367 . S
C627 C626 1.367 . S
C627 C629 1.433 . S
C628 C624 1.350 . S
C628 C625 1.463 1_455 S
C628 N632 1.427 . S
C629 H619 0.929 . S
C629 C627 1.433 . S
C629 N632 1.384 . S
C630 H621 0.929 . S
C630 C622 1.378 . S
C630 C625 1.350 . S
C631 H618 0.929 . S
C631 C623 1.433 . S
C631 N633 1.384 . S
N632 C628 1.427 . S
N632 C629 1.384 . S
N633 C625 1.427 . S
N633 C631 1.384 . S
H634 C640 0.930 . S
H635 C644 0.930 . S
H636 C649 0.929 1_545 S
H637 C647 0.929 1_565 S
H638 C642 0.929 . S
H639 C648 0.929 . S
C640 H634 0.930 . S
C640 C641 1.367 . S
C640 C648 1.378 . S
C641 C640 1.367 . S
C641 C649 1.433 . S
C642 H638 0.929 . S
C642 C644 1.378 . S
C642 C646 1.350 . S
C643 C646 1.463 1_565 S
C643 C648 1.350 . S
C643 N651 1.427 1_565 S
C644 H635 0.930 . S
C644 C642 1.378 . S
C644 C645 1.367 . S
C645 C644 1.367 . S
C645 C647 1.433 . S
C646 C642 1.350 . S
C646 C643 1.463 1_545 S
C646 N650 1.427 1_545 S
C647 H637 0.929 1_545 S
C647 C645 1.433 . S
C647 N650 1.384 1_545 S
C648 H639 0.929 . S
C648 C640 1.378 . S
C648 C643 1.350 . S
C649 H636 0.929 1_565 S
C649 C641 1.433 . S
C649 N651 1.384 1_565 S
N650 C646 1.427 1_565 S
N650 C647 1.384 1_565 S
N651 C643 1.427 1_545 S
N651 C649 1.384 1_545 S
H652 C658 0.930 . S
H653 C662 0.930 . S
H654 C667 0.929 . S
H655 C665 0.929 . S
H656 C660 0.929 . S
H657 C666 0.929 . S
C658 H652 0.930 . S
C658 C659 1.367 . S
C658 C666 1.378 . S
C659 C658 1.367 . S
C659 C667 1.433 . S
C660 H656 0.929 . S
C660 C662 1.378 . S
C660 C664 1.350 . S
C661 C664 1.463 1_655 S
C661 C666 1.350 . S
C661 N669 1.427 . S
C662 H653 0.930 . S
C662 C660 1.378 . S
C662 C663 1.367 . S
C663 C662 1.367 . S
C663 C665 1.433 . S
C664 C660 1.350 . S
C664 C661 1.463 1_455 S
C664 N668 1.427 . S
C665 H655 0.929 . S
C665 C663 1.433 . S
C665 N668 1.384 . S
C666 H657 0.929 . S
C666 C658 1.378 . S
C666 C661 1.350 . S
C667 H654 0.929 . S
C667 C659 1.433 . S
C667 N669 1.384 . S
N668 C664 1.427 . S
N668 C665 1.384 . S
N669 C661 1.427 . S
N669 C667 1.384 . S
H670 C676 0.930 1_565 S
H671 C680 0.930 1_545 S
H672 C685 0.929 . S
H673 C683 0.929 . S
H674 C678 0.929 . S
H675 C684 0.929 . S
C676 H670 0.930 1_545 S
C676 C677 1.367 . S
C676 C684 1.378 1_545 S
C677 C676 1.367 . S
C677 C685 1.433 . S
C678 H674 0.929 . S
C678 C680 1.378 1_545 S
C678 C682 1.350 1_545 S
C679 C682 1.463 1_545 S
C679 C684 1.350 1_545 S
C679 N687 1.427 . S
C680 H671 0.930 1_565 S
C680 C678 1.378 1_565 S
C680 C681 1.367 . S
C681 C680 1.367 . S
C681 C683 1.433 . S
C682 C678 1.350 1_565 S
C682 C679 1.463 1_565 S
C682 N686 1.427 . S
C683 H673 0.929 . S
C683 C681 1.433 . S
C683 N686 1.384 . S
C684 H675 0.929 . S
C684 C676 1.378 1_565 S
C684 C679 1.350 1_565 S
C685 H672 0.929 . S
C685 C677 1.433 . S
C685 N687 1.384 . S
N686 C682 1.427 . S
N686 C683 1.384 . S
N687 C679 1.427 . S
N687 C685 1.384 . S
H688 C694 0.930 . S
H689 C698 0.930 . S
H690 C703 0.929 . S
H691 C701 0.929 . S
H692 C696 0.929 . S
H693 C702 0.929 . S
C694 H688 0.930 . S
C694 C695 1.367 . S
C694 C702 1.378 . S
C695 C694 1.367 . S
C695 C703 1.433 . S
C696 H692 0.929 . S
C696 C698 1.378 . S
C696 C700 1.350 . S
C697 C700 1.463 . S
C697 C702 1.350 . S
C697 N705 1.427 . S
C698 H689 0.930 . S
C698 C696 1.378 . S
C698 C699 1.367 . S
C699 C698 1.367 . S
C699 C701 1.433 . S
C700 C696 1.350 . S
C700 C697 1.463 . S
C700 N704 1.427 . S
C701 H691 0.929 . S
C701 C699 1.433 . S
C701 N704 1.384 . S
C702 H693 0.929 . S
C702 C694 1.378 . S
C702 C697 1.350 . S
C703 H690 0.929 . S
C703 C695 1.433 . S
C703 N705 1.384 . S
N704 C700 1.427 . S
N704 C701 1.384 . S
N705 C697 1.427 . S
N705 C703 1.384 . S
H706 C712 0.930 . S
H707 C716 0.930 . S
H708 C721 0.929 . S
H709 C719 0.929 . S
H710 C714 0.929 . S
H711 C720 0.929 . S
C712 H706 0.930 . S
C712 C713 1.367 . S
C712 C720 1.378 . S
C713 C712 1.367 . S
C713 C721 1.433 . S
C714 H710 0.929 . S
C714 C716 1.378 . S
C714 C718 1.350 . S
C715 C718 1.463 . S
C715 C720 1.350 . S
C715 N723 1.427 . S
C716 H707 0.930 . S
C716 C714 1.378 . S
C716 C717 1.367 . S
C717 C716 1.367 . S
C717 C719 1.433 . S
C718 C714 1.350 . S
C718 C715 1.463 . S
C718 N722 1.427 . S
C719 H709 0.929 . S
C719 C717 1.433 . S
C719 N722 1.384 . S
C720 H711 0.929 . S
C720 C712 1.378 . S
C720 C715 1.350 . S
C721 H708 0.929 . S
C721 C713 1.433 . S
C721 N723 1.384 . S
N722 C718 1.427 . S
N722 C719 1.384 . S
N723 C715 1.427 . S
N723 C721 1.384 . S
H724 C730 0.930 . S
H725 C734 0.930 . S
H726 C739 0.929 . S
H727 C737 0.929 . S
H728 C732 0.929 . S
H729 C738 0.929 . S
C730 H724 0.930 . S
C730 C731 1.367 . S
C730 C738 1.378 . S
C731 C730 1.367 . S
C731 C739 1.433 . S
C732 H728 0.929 . S
C732 C734 1.378 . S
C732 C736 1.350 . S
C733 C736 1.463 . S
C733 C738 1.350 . S
C733 N741 1.427 . S
C734 H725 0.930 . S
C734 C732 1.378 . S
C734 C735 1.367 . S
C735 C734 1.367 . S
C735 C737 1.433 . S
C736 C732 1.350 . S
C736 C733 1.463 . S
C736 N740 1.427 . S
C737 H727 0.929 . S
C737 C735 1.433 . S
C737 N740 1.384 . S
C738 H729 0.929 . S
C738 C730 1.378 . S
C738 C733 1.350 . S
C739 H726 0.929 . S
C739 C731 1.433 . S
C739 N741 1.384 . S
N740 C736 1.427 . S
N740 C737 1.384 . S
N741 C733 1.427 . S
N741 C739 1.384 . S
H742 C748 0.930 . S
H743 C752 0.930 . S
H744 C757 0.929 . S
H745 C755 0.929 . S
H746 C750 0.929 . S
H747 C756 0.929 . S
C748 H742 0.930 . S
C748 C749 1.367 . S
C748 C756 1.378 . S
C749 C748 1.367 . S
C749 C757 1.433 . S
C750 H746 0.929 . S
C750 C752 1.378 . S
C750 C754 1.350 . S
C751 C754 1.463 . S
C751 C756 1.350 . S
C751 N759 1.427 . S
C752 H743 0.930 . S
C752 C750 1.378 . S
C752 C753 1.367 . S
C753 C752 1.367 . S
C753 C755 1.433 . S
C754 C750 1.350 . S
C754 C751 1.463 . S
C754 N758 1.427 . S
C755 H745 0.929 . S
C755 C753 1.433 . S
C755 N758 1.384 . S
C756 H747 0.929 . S
C756 C748 1.378 . S
C756 C751 1.350 . S
C757 H744 0.929 . S
C757 C749 1.433 . S
C757 N759 1.384 . S
N758 C754 1.427 . S
N758 C755 1.384 . S
N759 C751 1.427 . S
N759 C757 1.384 . S
H760 C766 0.930 . S
H761 C770 0.930 . S
H762 C775 0.929 . S
H763 C773 0.929 . S
H764 C768 0.929 . S
H765 C774 0.929 . S
C766 H760 0.930 . S
C766 C767 1.367 . S
C766 C774 1.378 . S
C767 C766 1.367 . S
C767 C775 1.433 . S
C768 H764 0.929 . S
C768 C770 1.378 . S
C768 C772 1.350 . S
C769 C772 1.463 . S
C769 C774 1.350 . S
C769 N777 1.427 . S
C770 H761 0.930 . S
C770 C768 1.378 . S
C770 C771 1.367 . S
C771 C770 1.367 . S
C771 C773 1.433 . S
C772 C768 1.350 . S
C772 C769 1.463 . S
C772 N776 1.427 . S
C773 H763 0.929 . S
C773 C771 1.433 . S
C773 N776 1.384 . S
C774 H765 0.929 . S
C774 C766 1.378 . S
C774 C769 1.350 . S
C775 H762 0.929 . S
C775 C767 1.433 . S
C775 N777 1.384 . S
N776 C772 1.427 . S
N776 C773 1.384 . S
N777 C769 1.427 . S
N777 C775 1.384 . S
H778 C784 0.930 . S
H779 C788 0.930 . S
H780 C793 0.929 . S
H781 C791 0.929 . S
H782 C786 0.929 . S
H783 C792 0.929 . S
C784 H778 0.930 . S
C784 C785 1.367 . S
C784 C792 1.378 . S
C785 C784 1.367 . S
C785 C793 1.433 . S
C786 H782 0.929 . S
C786 C788 1.378 . S
C786 C790 1.350 . S
C787 C790 1.463 . S
C787 C792 1.350 . S
C787 N795 1.427 . S
C788 H779 0.930 . S
C788 C786 1.378 . S
C788 C789 1.367 . S
C789 C788 1.367 . S
C789 C791 1.433 . S
C790 C786 1.350 . S
C790 C787 1.463 . S
C790 N794 1.427 . S
C791 H781 0.929 . S
C791 C789 1.433 . S
C791 N794 1.384 . S
C792 H783 0.929 . S
C792 C784 1.378 . S
C792 C787 1.350 . S
C793 H780 0.929 . S
C793 C785 1.433 . S
C793 N795 1.384 . S
N794 C790 1.427 . S
N794 C791 1.384 . S
N795 C787 1.427 . S
N795 C793 1.384 . S
H796 C802 0.930 . S
H797 C806 0.930 . S
H798 C811 0.929 . S
H799 C809 0.929 . S
H800 C804 0.929 . S
H801 C810 0.929 . S
C802 H796 0.930 . S
C802 C803 1.367 . S
C802 C810 1.378 . S
C803 C802 1.367 . S
C803 C811 1.433 . S
C804 H800 0.929 . S
C804 C806 1.378 . S
C804 C808 1.350 . S
C805 C808 1.463 . S
C805 C810 1.350 . S
C805 N813 1.427 . S
C806 H797 0.930 . S
C806 C804 1.378 . S
C806 C807 1.367 . S
C807 C806 1.367 . S
C807 C809 1.433 . S
C808 C804 1.350 . S
C808 C805 1.463 . S
C808 N812 1.427 . S
C809 H799 0.929 . S
C809 C807 1.433 . S
C809 N812 1.384 . S
C810 H801 0.929 . S
C810 C802 1.378 . S
C810 C805 1.350 . S
C811 H798 0.929 . S
C811 C803 1.433 . S
C811 N813 1.384 . S
N812 C808 1.427 . S
N812 C809 1.384 . S
N813 C805 1.427 . S
N813 C811 1.384 . S
H814 C820 0.930 . S
H815 C824 0.930 . S
H816 C829 0.929 . S
H817 C827 0.929 . S
H818 C822 0.929 . S
H819 C828 0.929 . S
C820 H814 0.930 . S
C820 C821 1.367 . S
C820 C828 1.378 . S
C821 C820 1.367 . S
C821 C829 1.433 . S
C822 H818 0.929 . S
C822 C824 1.378 . S
C822 C826 1.350 . S
C823 C826 1.463 . S
C823 C828 1.350 . S
C823 N831 1.427 . S
C824 H815 0.930 . S
C824 C822 1.378 . S
C824 C825 1.367 . S
C825 C824 1.367 . S
C825 C827 1.433 . S
C826 C822 1.350 . S
C826 C823 1.463 . S
C826 N830 1.427 . S
C827 H817 0.929 . S
C827 C825 1.433 . S
C827 N830 1.384 . S
C828 H819 0.929 . S
C828 C820 1.378 . S
C828 C823 1.350 . S
C829 H816 0.929 . S
C829 C821 1.433 . S
C829 N831 1.384 . S
N830 C826 1.427 . S
N830 C827 1.384 . S
N831 C823 1.427 . S
N831 C829 1.384 . S
H832 C838 0.930 . S
H833 C842 0.930 . S
H834 C847 0.929 . S
H835 C845 0.929 . S
H836 C840 0.929 . S
H837 C846 0.929 . S
C838 H832 0.930 . S
C838 C839 1.367 . S
C838 C846 1.378 . S
C839 C838 1.367 . S
C839 C847 1.433 . S
C840 H836 0.929 . S
C840 C842 1.378 . S
C840 C844 1.350 . S
C841 C844 1.463 1_554 S
C841 C846 1.350 . S
C841 N849 1.427 . S
C842 H833 0.930 . S
C842 C840 1.378 . S
C842 C843 1.367 . S
C843 C842 1.367 . S
C843 C845 1.433 . S
C844 C840 1.350 . S
C844 C841 1.463 1_556 S
C844 N848 1.427 . S
C845 H835 0.929 . S
C845 C843 1.433 . S
C845 N848 1.384 . S
C846 H837 0.929 . S
C846 C838 1.378 . S
C846 C841 1.350 . S
C847 H834 0.929 . S
C847 C839 1.433 . S
C847 N849 1.384 . S
N848 C844 1.427 . S
N848 C845 1.384 . S
N849 C841 1.427 . S
N849 C847 1.384 . S
H850 C856 0.930 . S
H851 C860 0.930 . S
H852 C865 0.929 . S
H853 C863 0.929 . S
H854 C858 0.929 . S
H855 C864 0.929 . S
C856 H850 0.930 . S
C856 C857 1.367 . S
C856 C864 1.378 . S
C857 C856 1.367 . S
C857 C865 1.433 . S
C858 H854 0.929 . S
C858 C860 1.378 . S
C858 C862 1.350 . S
C859 C862 1.463 1_556 S
C859 C864 1.350 . S
C859 N867 1.427 . S
C860 H851 0.930 . S
C860 C858 1.378 . S
C860 C861 1.367 . S
C861 C860 1.367 . S
C861 C863 1.433 . S
C862 C858 1.350 . S
C862 C859 1.463 1_554 S
C862 N866 1.427 . S
C863 H853 0.929 . S
C863 C861 1.433 . S
C863 N866 1.384 . S
C864 H855 0.929 . S
C864 C856 1.378 . S
C864 C859 1.350 . S
C865 H852 0.929 . S
C865 C857 1.433 . S
C865 N867 1.384 . S
N866 C862 1.427 . S
N866 C863 1.384 . S
N867 C859 1.427 . S
N867 C865 1.384 . S
H868 C874 0.930 . S
H869 C878 0.930 . S
H870 C883 0.929 . S
H871 C881 0.929 . S
H872 C876 0.929 . S
H873 C882 0.929 . S
C874 H868 0.930 . S
C874 C875 1.367 . S
C874 C882 1.378 . S
C875 C874 1.367 . S
C875 C883 1.433 . S
C876 H872 0.929 . S
C876 C878 1.378 . S
C876 C880 1.350 . S
C877 C880 1.463 1_556 S
C877 C882 1.350 . S
C877 N885 1.427 . S
C878 H869 0.930 . S
C878 C876 1.378 . S
C878 C879 1.367 . S
C879 C878 1.367 . S
C879 C881 1.433 . S
C880 C876 1.350 . S
C880 C877 1.463 1_554 S
C880 N884 1.427 . S
C881 H871 0.929 . S
C881 C879 1.433 . S
C881 N884 1.384 . S
C882 H873 0.929 . S
C882 C874 1.378 . S
C882 C877 1.350 . S
C883 H870 0.929 . S
C883 C875 1.433 . S
C883 N885 1.384 . S
N884 C880 1.427 . S
N884 C881 1.384 . S
N885 C877 1.427 . S
N885 C883 1.384 . S
H886 C892 0.930 . S
H887 C896 0.930 . S
H888 C901 0.929 . S
H889 C899 0.929 . S
H890 C894 0.929 . S
H891 C900 0.929 . S
C892 H886 0.930 . S
C892 C893 1.367 . S
C892 C900 1.378 . S
C893 C892 1.367 . S
C893 C901 1.433 . S
C894 H890 0.929 . S
C894 C896 1.378 . S
C894 C898 1.350 . S
C895 C898 1.463 1_556 S
C895 C900 1.350 . S
C895 N903 1.427 . S
C896 H887 0.930 . S
C896 C894 1.378 . S
C896 C897 1.367 . S
C897 C896 1.367 . S
C897 C899 1.433 . S
C898 C894 1.350 . S
C898 C895 1.463 1_554 S
C898 N902 1.427 . S
C899 H889 0.929 . S
C899 C897 1.433 . S
C899 N902 1.384 . S
C900 H891 0.929 . S
C900 C892 1.378 . S
C900 C895 1.350 . S
C901 H888 0.929 . S
C901 C893 1.433 . S
C901 N903 1.384 . S
N902 C898 1.427 . S
N902 C899 1.384 . S
N903 C895 1.427 . S
N903 C901 1.384 . S
H904 C910 0.930 . S
H905 C914 0.930 . S
H906 C919 0.929 . S
H907 C917 0.929 . S
H908 C912 0.929 . S
H909 C918 0.929 . S
C910 H904 0.930 . S
C910 C911 1.367 . S
C910 C918 1.378 . S
C911 C910 1.367 . S
C911 C919 1.433 . S
C912 H908 0.929 . S
C912 C914 1.378 . S
C912 C916 1.350 . S
C913 C916 1.463 . S
C913 C918 1.350 . S
C913 N921 1.427 . S
C914 H905 0.930 . S
C914 C912 1.378 . S
C914 C915 1.367 . S
C915 C914 1.367 . S
C915 C917 1.433 . S
C916 C912 1.350 . S
C916 C913 1.463 . S
C916 N920 1.427 . S
C917 H907 0.929 . S
C917 C915 1.433 . S
C917 N920 1.384 . S
C918 H909 0.929 . S
C918 C910 1.378 . S
C918 C913 1.350 . S
C919 H906 0.929 . S
C919 C911 1.433 . S
C919 N921 1.384 . S
N920 C916 1.427 . S
N920 C917 1.384 . S
N921 C913 1.427 . S
N921 C919 1.384 . S
H922 C928 0.930 . S
H923 C932 0.930 . S
H924 C937 0.929 . S
H925 C935 0.929 . S
H926 C930 0.929 . S
H927 C936 0.929 . S
C928 H922 0.930 . S
C928 C929 1.367 . S
C928 C936 1.378 . S
C929 C928 1.367 . S
C929 C937 1.433 . S
C930 H926 0.929 . S
C930 C932 1.378 . S
C930 C934 1.350 . S
C931 C934 1.463 . S
C931 C936 1.350 . S
C931 N939 1.427 . S
C932 H923 0.930 . S
C932 C930 1.378 . S
C932 C933 1.367 . S
C933 C932 1.367 . S
C933 C935 1.433 . S
C934 C930 1.350 . S
C934 C931 1.463 . S
C934 N938 1.427 . S
C935 H925 0.929 . S
C935 C933 1.433 . S
C935 N938 1.384 . S
C936 H927 0.929 . S
C936 C928 1.378 . S
C936 C931 1.350 . S
C937 H924 0.929 . S
C937 C929 1.433 . S
C937 N939 1.384 . S
N938 C934 1.427 . S
N938 C935 1.384 . S
N939 C931 1.427 . S
N939 C937 1.384 . S
H940 C946 0.930 . S
H941 C950 0.930 . S
H942 C955 0.929 . S
H943 C953 0.929 . S
H944 C948 0.929 . S
H945 C954 0.929 . S
C946 H940 0.930 . S
C946 C947 1.367 . S
C946 C954 1.378 . S
C947 C946 1.367 . S
C947 C955 1.433 . S
C948 H944 0.929 . S
C948 C950 1.378 . S
C948 C952 1.350 . S
C949 C952 1.463 . S
C949 C954 1.350 . S
C949 N957 1.427 . S
C950 H941 0.930 . S
C950 C948 1.378 . S
C950 C951 1.367 . S
C951 C950 1.367 . S
C951 C953 1.433 . S
C952 C948 1.350 . S
C952 C949 1.463 . S
C952 N956 1.427 . S
C953 H943 0.929 . S
C953 C951 1.433 . S
C953 N956 1.384 . S
C954 H945 0.929 . S
C954 C946 1.378 . S
C954 C949 1.350 . S
C955 H942 0.929 . S
C955 C947 1.433 . S
C955 N957 1.384 . S
N956 C952 1.427 . S
N956 C953 1.384 . S
N957 C949 1.427 . S
N957 C955 1.384 . S
H958 C964 0.930 . S
H959 C968 0.930 . S
H960 C973 0.929 . S
H961 C971 0.929 . S
H962 C966 0.929 . S
H963 C972 0.929 . S
C964 H958 0.930 . S
C964 C965 1.367 . S
C964 C972 1.378 . S
C965 C964 1.367 . S
C965 C973 1.433 . S
C966 H962 0.929 . S
C966 C968 1.378 . S
C966 C970 1.350 . S
C967 C970 1.463 . S
C967 C972 1.350 . S
C967 N975 1.427 . S
C968 H959 0.930 . S
C968 C966 1.378 . S
C968 C969 1.367 . S
C969 C968 1.367 . S
C969 C971 1.433 . S
C970 C966 1.350 . S
C970 C967 1.463 . S
C970 N974 1.427 . S
C971 H961 0.929 . S
C971 C969 1.433 . S
C971 N974 1.384 . S
C972 H963 0.929 . S
C972 C964 1.378 . S
C972 C967 1.350 . S
C973 H960 0.929 . S
C973 C965 1.433 . S
C973 N975 1.384 . S
N974 C970 1.427 . S
N974 C971 1.384 . S
N975 C967 1.427 . S
N975 C973 1.384 . S
H976 C982 0.930 . S
H977 C986 0.930 . S
H978 C991 0.929 . S
H979 C989 0.929 . S
H980 C984 0.929 . S
H981 C990 0.929 . S
C982 H976 0.930 . S
C982 C983 1.367 . S
C982 C990 1.378 . S
C983 C982 1.367 . S
C983 C991 1.433 . S
C984 H980 0.929 . S
C984 C986 1.378 . S
C984 C988 1.350 . S
C985 C988 1.463 . S
C985 C990 1.350 . S
C985 N993 1.427 . S
C986 H977 0.930 . S
C986 C984 1.378 . S
C986 C987 1.367 . S
C987 C986 1.367 . S
C987 C989 1.433 . S
C988 C984 1.350 . S
C988 C985 1.463 . S
C988 N992 1.427 . S
C989 H979 0.929 . S
C989 C987 1.433 . S
C989 N992 1.384 . S
C990 H981 0.929 . S
C990 C982 1.378 . S
C990 C985 1.350 . S
C991 H978 0.929 . S
C991 C983 1.433 . S
C991 N993 1.384 . S
N992 C988 1.427 . S
N992 C989 1.384 . S
N993 C985 1.427 . S
N993 C991 1.384 . S
H994 C1000 0.930 . S
H995 C1004 0.930 . S
H996 C1009 0.929 . S
H997 C1007 0.929 . S
H998 C1002 0.929 . S
H999 C1008 0.929 . S
C1000 H994 0.930 . S
C1000 C1001 1.367 . S
C1000 C1008 1.378 . S
C1001 C1000 1.367 . S
C1001 C1009 1.433 . S
C1002 H998 0.929 . S
C1002 C1004 1.378 . S
C1002 C1006 1.350 . S
C1003 C1006 1.463 . S
C1003 C1008 1.350 . S
C1003 N1011 1.427 . S
C1004 H995 0.930 . S
C1004 C1002 1.378 . S
C1004 C1005 1.367 . S
C1005 C1004 1.367 . S
C1005 C1007 1.433 . S
C1006 C1002 1.350 . S
C1006 C1003 1.463 . S
C1006 N1010 1.427 . S
C1007 H997 0.929 . S
C1007 C1005 1.433 . S
C1007 N1010 1.384 . S
C1008 H999 0.929 . S
C1008 C1000 1.378 . S
C1008 C1003 1.350 . S
C1009 H996 0.929 . S
C1009 C1001 1.433 . S
C1009 N1011 1.384 . S
N1010 C1006 1.427 . S
N1010 C1007 1.384 . S
N1011 C1003 1.427 . S
N1011 C1009 1.384 . S
H1012 C1018 0.930 . S
H1013 C1022 0.930 . S
H1014 C1027 0.929 . S
H1015 C1025 0.929 . S
H1016 C1020 0.929 . S
H1017 C1026 0.929 . S
C1018 H1012 0.930 . S
C1018 C1019 1.367 . S
C1018 C1026 1.378 . S
C1019 C1018 1.367 . S
C1019 C1027 1.433 . S
C1020 H1016 0.929 . S
C1020 C1022 1.378 . S
C1020 C1024 1.350 . S
C1021 C1024 1.463 . S
C1021 C1026 1.350 . S
C1021 N1029 1.427 . S
C1022 H1013 0.930 . S
C1022 C1020 1.378 . S
C1022 C1023 1.367 . S
C1023 C1022 1.367 . S
C1023 C1025 1.433 . S
C1024 C1020 1.350 . S
C1024 C1021 1.463 . S
C1024 N1028 1.427 . S
C1025 H1015 0.929 . S
C1025 C1023 1.433 . S
C1025 N1028 1.384 . S
C1026 H1017 0.929 . S
C1026 C1018 1.378 . S
C1026 C1021 1.350 . S
C1027 H1014 0.929 . S
C1027 C1019 1.433 . S
C1027 N1029 1.384 . S
N1028 C1024 1.427 . S
N1028 C1025 1.384 . S
N1029 C1021 1.427 . S
N1029 C1027 1.384 . S
H1030 C1036 0.930 . S
H1031 C1040 0.930 . S
H1032 C1045 0.929 . S
H1033 C1043 0.929 . S
H1034 C1038 0.929 . S
H1035 C1044 0.929 . S
C1036 H1030 0.930 . S
C1036 C1037 1.367 . S
C1036 C1044 1.378 . S
C1037 C1036 1.367 . S
C1037 C1045 1.433 . S
C1038 H1034 0.929 . S
C1038 C1040 1.378 . S
C1038 C1042 1.350 . S
C1039 C1042 1.463 . S
C1039 C1044 1.350 . S
C1039 N1047 1.427 . S
C1040 H1031 0.930 . S
C1040 C1038 1.378 . S
C1040 C1041 1.367 . S
C1041 C1040 1.367 . S
C1041 C1043 1.433 . S
C1042 C1038 1.350 . S
C1042 C1039 1.463 . S
C1042 N1046 1.427 . S
C1043 H1033 0.929 . S
C1043 C1041 1.433 . S
C1043 N1046 1.384 . S
C1044 H1035 0.929 . S
C1044 C1036 1.378 . S
C1044 C1039 1.350 . S
C1045 H1032 0.929 . S
C1045 C1037 1.433 . S
C1045 N1047 1.384 . S
N1046 C1042 1.427 . S
N1046 C1043 1.384 . S
N1047 C1039 1.427 . S
N1047 C1045 1.384 . S
H1048 C1054 0.930 . S
H1049 C1058 0.930 . S
H1050 C1063 0.929 . S
H1051 C1061 0.929 . S
H1052 C1056 0.929 . S
H1053 C1062 0.929 . S
C1054 H1048 0.930 . S
C1054 C1055 1.367 . S
C1054 C1062 1.378 . S
C1055 C1054 1.367 . S
C1055 C1063 1.433 . S
C1056 H1052 0.929 . S
C1056 C1058 1.378 . S
C1056 C1060 1.350 . S
C1057 C1060 1.463 . S
C1057 C1062 1.350 . S
C1057 N1065 1.427 . S
C1058 H1049 0.930 . S
C1058 C1056 1.378 . S
C1058 C1059 1.367 . S
C1059 C1058 1.367 . S
C1059 C1061 1.433 . S
C1060 C1056 1.350 . S
C1060 C1057 1.463 . S
C1060 N1064 1.427 . S
C1061 H1051 0.929 . S
C1061 C1059 1.433 . S
C1061 N1064 1.384 . S
C1062 H1053 0.929 . S
C1062 C1054 1.378 . S
C1062 C1057 1.350 . S
C1063 H1050 0.929 . S
C1063 C1055 1.433 . S
C1063 N1065 1.384 . S
N1064 C1060 1.427 . S
N1064 C1061 1.384 . S
N1065 C1057 1.427 . S
N1065 C1063 1.384 . S
H1066 C1072 0.930 . S
H1067 C1076 0.930 . S
H1068 C1081 0.929 . S
H1069 C1079 0.929 . S
H1070 C1074 0.929 . S
H1071 C1080 0.929 . S
C1072 H1066 0.930 . S
C1072 C1073 1.367 . S
C1072 C1080 1.378 . S
C1073 C1072 1.367 . S
C1073 C1081 1.433 . S
C1074 H1070 0.929 . S
C1074 C1076 1.378 . S
C1074 C1078 1.350 . S
C1075 C1078 1.463 . S
C1075 C1080 1.350 . S
C1075 N1083 1.427 . S
C1076 H1067 0.930 . S
C1076 C1074 1.378 . S
C1076 C1077 1.367 . S
C1077 C1076 1.367 . S
C1077 C1079 1.433 . S
C1078 C1074 1.350 . S
C1078 C1075 1.463 . S
C1078 N1082 1.427 . S
C1079 H1069 0.929 . S
C1079 C1077 1.433 . S
C1079 N1082 1.384 . S
C1080 H1071 0.929 . S
C1080 C1072 1.378 . S
C1080 C1075 1.350 . S
C1081 H1068 0.929 . S
C1081 C1073 1.433 . S
C1081 N1083 1.384 . S
N1082 C1078 1.427 . S
N1082 C1079 1.384 . S
N1083 C1075 1.427 . S
N1083 C1081 1.384 . S
H1084 C1090 0.930 . S
H1085 C1094 0.930 . S
H1086 C1099 0.929 . S
H1087 C1097 0.929 . S
H1088 C1092 0.929 . S
H1089 C1098 0.929 . S
C1090 H1084 0.930 . S
C1090 C1091 1.367 . S
C1090 C1098 1.378 . S
C1091 C1090 1.367 . S
C1091 C1099 1.433 . S
C1092 H1088 0.929 . S
C1092 C1094 1.378 . S
C1092 C1096 1.350 . S
C1093 C1096 1.463 . S
C1093 C1098 1.350 . S
C1093 N1101 1.427 . S
C1094 H1085 0.930 . S
C1094 C1092 1.378 . S
C1094 C1095 1.367 . S
C1095 C1094 1.367 . S
C1095 C1097 1.433 . S
C1096 C1092 1.350 . S
C1096 C1093 1.463 . S
C1096 N1100 1.427 . S
C1097 H1087 0.929 . S
C1097 C1095 1.433 . S
C1097 N1100 1.384 . S
C1098 H1089 0.929 . S
C1098 C1090 1.378 . S
C1098 C1093 1.350 . S
C1099 H1086 0.929 . S
C1099 C1091 1.433 . S
C1099 N1101 1.384 . S
N1100 C1096 1.427 . S
N1100 C1097 1.384 . S
N1101 C1093 1.427 . S
N1101 C1099 1.384 . S
H1102 C1108 0.930 . S
H1103 C1112 0.930 . S
H1104 C1117 0.929 . S
H1105 C1115 0.929 . S
H1106 C1110 0.929 . S
H1107 C1116 0.929 . S
C1108 H1102 0.930 . S
C1108 C1109 1.367 . S
C1108 C1116 1.378 . S
C1109 C1108 1.367 . S
C1109 C1117 1.433 . S
C1110 H1106 0.929 . S
C1110 C1112 1.378 . S
C1110 C1114 1.350 . S
C1111 C1114 1.463 . S
C1111 C1116 1.350 . S
C1111 N1119 1.427 . S
C1112 H1103 0.930 . S
C1112 C1110 1.378 . S
C1112 C1113 1.367 . S
C1113 C1112 1.367 . S
C1113 C1115 1.433 . S
C1114 C1110 1.350 . S
C1114 C1111 1.463 . S
C1114 N1118 1.427 . S
C1115 H1105 0.929 . S
C1115 C1113 1.433 . S
C1115 N1118 1.384 . S
C1116 H1107 0.929 . S
C1116 C1108 1.378 . S
C1116 C1111 1.350 . S
C1117 H1104 0.929 . S
C1117 C1109 1.433 . S
C1117 N1119 1.384 . S
N1118 C1114 1.427 . S
N1118 C1115 1.384 . S
N1119 C1111 1.427 . S
N1119 C1117 1.384 . S
H1120 C1126 0.930 . S
H1121 C1130 0.930 . S
H1122 C1135 0.929 . S
H1123 C1133 0.929 . S
H1124 C1128 0.929 . S
H1125 C1134 0.929 . S
C1126 H1120 0.930 . S
C1126 C1127 1.367 . S
C1126 C1134 1.378 . S
C1127 C1126 1.367 . S
C1127 C1135 1.433 . S
C1128 H1124 0.929 . S
C1128 C1130 1.378 . S
C1128 C1132 1.350 . S
C1129 C1132 1.463 1_545 S
C1129 C1134 1.350 . S
C1129 N1137 1.427 . S
C1130 H1121 0.930 . S
C1130 C1128 1.378 . S
C1130 C1131 1.367 . S
C1131 C1130 1.367 . S
C1131 C1133 1.433 . S
C1132 C1128 1.350 . S
C1132 C1129 1.463 1_565 S
C1132 N1136 1.427 . S
C1133 H1123 0.929 . S
C1133 C1131 1.433 . S
C1133 N1136 1.384 . S
C1134 H1125 0.929 . S
C1134 C1126 1.378 . S
C1134 C1129 1.350 . S
C1135 H1122 0.929 . S
C1135 C1127 1.433 . S
C1135 N1137 1.384 . S
N1136 C1132 1.427 . S
N1136 C1133 1.384 . S
N1137 C1129 1.427 . S
N1137 C1135 1.384 . S
H1138 C1144 0.930 . S
H1139 C1148 0.930 . S
H1140 C1153 0.929 . S
H1141 C1151 0.929 . S
H1142 C1146 0.929 1_655 S
H1143 C1152 0.929 1_455 S
C1144 H1138 0.930 . S
C1144 C1145 1.367 . S
C1144 C1152 1.378 . S
C1145 C1144 1.367 . S
C1145 C1153 1.433 . S
C1146 H1142 0.929 1_455 S
C1146 C1148 1.378 . S
C1146 C1150 1.350 . S
C1147 C1150 1.463 1_655 S
C1147 C1152 1.350 . S
C1147 N1155 1.427 . S
C1148 H1139 0.930 . S
C1148 C1146 1.378 . S
C1148 C1149 1.367 . S
C1149 C1148 1.367 . S
C1149 C1151 1.433 . S
C1150 C1146 1.350 . S
C1150 C1147 1.463 1_455 S
C1150 N1154 1.427 . S
C1151 H1141 0.929 . S
C1151 C1149 1.433 . S
C1151 N1154 1.384 . S
C1152 H1143 0.929 1_655 S
C1152 C1144 1.378 . S
C1152 C1147 1.350 . S
C1153 H1140 0.929 . S
C1153 C1145 1.433 . S
C1153 N1155 1.384 . S
N1154 C1150 1.427 . S
N1154 C1151 1.384 . S
N1155 C1147 1.427 . S
N1155 C1153 1.384 . S
H1156 C1162 0.930 . S
H1157 C1166 0.930 . S
H1158 C1171 0.929 . S
H1159 C1169 0.929 . S
H1160 C1164 0.932 1_545 S
H1161 C1170 0.932 1_565 S
C1162 H1156 0.930 . S
C1162 C1163 1.367 . S
C1162 C1170 1.378 . S
C1163 C1162 1.367 . S
C1163 C1171 1.433 . S
C1164 H1160 0.932 1_565 S
C1164 C1166 1.378 . S
C1164 C1168 1.350 . S
C1165 C1168 1.463 1_545 S
C1165 C1170 1.350 . S
C1165 N1173 1.427 . S
C1166 H1157 0.930 . S
C1166 C1164 1.378 . S
C1166 C1167 1.367 . S
C1167 C1166 1.367 . S
C1167 C1169 1.433 . S
C1168 C1164 1.350 . S
C1168 C1165 1.463 1_565 S
C1168 N1172 1.427 . S
C1169 H1159 0.929 . S
C1169 C1167 1.433 . S
C1169 N1172 1.384 . S
C1170 H1161 0.932 1_545 S
C1170 C1162 1.378 . S
C1170 C1165 1.350 . S
C1171 H1158 0.929 . S
C1171 C1163 1.433 . S
C1171 N1173 1.384 . S
N1172 C1168 1.427 . S
N1172 C1169 1.384 . S
N1173 C1165 1.427 . S
N1173 C1171 1.384 . S
H1174 C1180 0.930 . S
H1175 C1184 0.930 . S
H1176 C1189 0.929 . S
H1177 C1187 0.929 . S
H1178 C1182 0.929 . S
H1179 C1188 0.929 . S
C1180 H1174 0.930 . S
C1180 C1181 1.367 . S
C1180 C1188 1.378 . S
C1181 C1180 1.367 . S
C1181 C1189 1.433 . S
C1182 H1178 0.929 . S
C1182 C1184 1.378 . S
C1182 C1186 1.350 . S
C1183 C1186 1.463 1_655 S
C1183 C1188 1.350 . S
C1183 N1191 1.427 . S
C1184 H1175 0.930 . S
C1184 C1182 1.378 . S
C1184 C1185 1.367 . S
C1185 C1184 1.367 . S
C1185 C1187 1.433 . S
C1186 C1182 1.350 . S
C1186 C1183 1.463 1_455 S
C1186 N1190 1.427 . S
C1187 H1177 0.929 . S
C1187 C1185 1.433 . S
C1187 N1190 1.384 . S
C1188 H1179 0.929 . S
C1188 C1180 1.378 . S
C1188 C1183 1.350 . S
C1189 H1176 0.929 . S
C1189 C1181 1.433 . S
C1189 N1191 1.384 . S
N1190 C1186 1.427 . S
N1190 C1187 1.384 . S
N1191 C1183 1.427 . S
N1191 C1189 1.384 . S
H1192 C1198 0.930 . S
H1193 C1202 0.930 . S
H1194 C1207 0.929 . S
H1195 C1205 0.929 . S
H1196 C1200 0.929 . S
H1197 C1206 0.929 . S
C1198 H1192 0.930 . S
C1198 C1199 1.367 . S
C1198 C1206 1.378 . S
C1199 C1198 1.367 . S
C1199 C1207 1.433 . S
C1200 H1196 0.929 . S
C1200 C1202 1.378 . S
C1200 C1204 1.350 . S
C1201 C1204 1.463 1_565 S
C1201 C1206 1.350 . S
C1201 N1209 1.427 . S
C1202 H1193 0.930 . S
C1202 C1200 1.378 . S
C1202 C1203 1.367 . S
C1203 C1202 1.367 . S
C1203 C1205 1.433 . S
C1204 C1200 1.350 . S
C1204 C1201 1.463 1_545 S
C1204 N1208 1.427 . S
C1205 H1195 0.929 . S
C1205 C1203 1.433 . S
C1205 N1208 1.384 . S
C1206 H1197 0.929 . S
C1206 C1198 1.378 . S
C1206 C1201 1.350 . S
C1207 H1194 0.929 . S
C1207 C1199 1.433 . S
C1207 N1209 1.384 . S
N1208 C1204 1.427 . S
N1208 C1205 1.384 . S
N1209 C1201 1.427 . S
N1209 C1207 1.384 . S
H1210 C1216 0.930 . S
H1211 C1220 0.930 . S
H1212 C1225 0.929 . S
H1213 C1223 0.929 . S
H1214 C1218 0.929 . S
H1215 C1224 0.929 . S
C1216 H1210 0.930 . S
C1216 C1217 1.367 . S
C1216 C1224 1.378 . S
C1217 C1216 1.367 . S
C1217 C1225 1.433 . S
C1218 H1214 0.929 . S
C1218 C1220 1.378 . S
C1218 C1222 1.350 . S
C1219 C1222 1.463 1_455 S
C1219 C1224 1.350 . S
C1219 N1227 1.427 . S
C1220 H1211 0.930 . S
C1220 C1218 1.378 . S
C1220 C1221 1.367 . S
C1221 C1220 1.367 . S
C1221 C1223 1.433 . S
C1222 C1218 1.350 . S
C1222 C1219 1.463 1_655 S
C1222 N1226 1.427 . S
C1223 H1213 0.929 . S
C1223 C1221 1.433 . S
C1223 N1226 1.384 . S
C1224 H1215 0.929 . S
C1224 C1216 1.378 . S
C1224 C1219 1.350 . S
C1225 H1212 0.929 . S
C1225 C1217 1.433 . S
C1225 N1227 1.384 . S
N1226 C1222 1.427 . S
N1226 C1223 1.384 . S
N1227 C1219 1.427 . S
N1227 C1225 1.384 . S
H1228 C1234 0.930 . S
H1229 C1238 0.930 . S
H1230 C1243 0.929 . S
H1231 C1241 0.929 . S
H1232 C1236 0.929 . S
H1233 C1242 0.929 . S
C1234 H1228 0.930 . S
C1234 C1235 1.367 . S
C1234 C1242 1.378 . S
C1235 C1234 1.367 . S
C1235 C1243 1.433 . S
C1236 H1232 0.929 . S
C1236 C1238 1.378 . S
C1236 C1240 1.350 . S
C1237 C1240 1.463 1_565 S
C1237 C1242 1.350 . S
C1237 N1245 1.427 . S
C1238 H1229 0.930 . S
C1238 C1236 1.378 . S
C1238 C1239 1.367 . S
C1239 C1238 1.367 . S
C1239 C1241 1.433 . S
C1240 C1236 1.350 . S
C1240 C1237 1.463 1_545 S
C1240 N1244 1.427 . S
C1241 H1231 0.929 . S
C1241 C1239 1.433 . S
C1241 N1244 1.384 . S
C1242 H1233 0.929 . S
C1242 C1234 1.378 . S
C1242 C1237 1.350 . S
C1243 H1230 0.929 . S
C1243 C1235 1.433 . S
C1243 N1245 1.384 . S
N1244 C1240 1.427 . S
N1244 C1241 1.384 . S
N1245 C1237 1.427 . S
N1245 C1243 1.384 . S
H1246 C1252 0.930 . S
H1247 C1256 0.930 . S
H1248 C1261 0.929 . S
H1249 C1259 0.929 . S
H1250 C1254 0.929 . S
H1251 C1260 0.929 . S
C1252 H1246 0.930 . S
C1252 C1253 1.367 . S
C1252 C1260 1.378 . S
C1253 C1252 1.367 . S
C1253 C1261 1.433 . S
C1254 H1250 0.929 . S
C1254 C1256 1.378 . S
C1254 C1258 1.350 . S
C1255 C1258 1.463 1_655 S
C1255 C1260 1.350 . S
C1255 N1263 1.427 . S
C1256 H1247 0.930 . S
C1256 C1254 1.378 . S
C1256 C1257 1.367 . S
C1257 C1256 1.367 . S
C1257 C1259 1.433 . S
C1258 C1254 1.350 . S
C1258 C1255 1.463 1_455 S
C1258 N1262 1.427 . S
C1259 H1249 0.929 . S
C1259 C1257 1.433 . S
C1259 N1262 1.384 . S
C1260 H1251 0.929 . S
C1260 C1252 1.378 . S
C1260 C1255 1.350 . S
C1261 H1248 0.929 . S
C1261 C1253 1.433 . S
C1261 N1263 1.384 . S
N1262 C1258 1.427 . S
N1262 C1259 1.384 . S
N1263 C1255 1.427 . S
N1263 C1261 1.384 . S
C551 C73 0.836 . S
C555 C5 0.845 . S
C569 C39 0.842 . S
C573 C107 0.830 . S
C587 C209 0.832 . S
C591 C141 0.845 . S
C605 C243 0.845 . S
C609 C175 0.838 . S
C623 C277 0.842 . S
C627 C345 0.830 . S
C641 C311 0.831 . S
C645 C379 0.837 . S
C659 C413 0.842 . S
C663 C481 0.830 . S
C677 C515 0.844 . S
C681 C447 0.839 . S
C695 C9 1.730 . S
C699 C179 1.715 . S
C713 C213 1.718 . S
C717 C43 1.731 . S
C731 C247 1.731 . S
C735 C77 1.720 . S
C749 C145 1.728 . S
C753 C111 1.725 . S
C767 C451 1.727 . S
C771 C281 1.713 . S
C785 C485 1.714 . S
C789 C315 1.721 . S
C803 C519 1.723 . S
C807 C349 1.713 . S
C821 C417 1.728 . S
C825 C383 1.725 . S
C839 C20 1.423 . S
C843 C360 1.420 . S
C857 C394 1.411 . S
C861 C54 1.419 . S
C875 C292 1.411 . S
C879 C88 1.420 . S
C893 C326 1.419 . S
C897 C122 1.423 . S
C911 C156 1.422 . S
C915 C496 1.421 . S
C929 C190 1.421 . S
C933 C530 1.412 . S
C947 C224 1.424 . S
C951 C428 1.417 . S
C965 C258 1.422 . S
C969 C462 1.412 . S
C983 C138 1.044 . S
C987 C2 1.045 . S
C1001 C36 1.027 . S
C1005 C172 1.042 . S
C1019 C206 1.047 . S
C1023 C70 1.041 . S
C1037 C240 1.031 . S
C1041 C104 1.047 . S
C1055 C305 1.256 . S
C1059 C441 1.261 . S
C1073 C475 1.263 . S
C1077 C339 1.256 . S
C1091 C373 1.262 . S
C1095 C509 1.255 . S
C1109 C543 1.255 . S
C1113 C407 1.262 . S
C1127 C376 1.036 . S
C1131 C444 1.048 . S
C1145 C274 1.030 . S
C1149 C478 1.033 . S
C1163 C512 1.028 . S
C1167 C308 1.037 . S
C1181 C410 1.041 . S
C1185 C342 1.047 . S
C1199 C135 1.263 . S
C1203 C203 1.255 . S
C1217 C33 1.263 . S
C1221 C237 1.256 . S
C1235 C271 1.257 . S
C1239 C67 1.262 . S
C1253 C101 1.264 . S
C1257 C169 1.254 . S
