# Generated by pormake.
# Topology qtz-e, (6)-cn, num edge types: 1
# Building blocks:
#     Node 0, Type 0, BuildingBlock: BETFAJ_clean_sbu_0, # of connection points: 6
#     Node 1, Type 0, BuildingBlock: BETFAJ_clean_sbu_0, # of connection points: 6
#     Node 2, Type 0, BuildingBlock: BETFAJ_clean_sbu_0, # of connection points: 6
#     Node 3, Type 0, BuildingBlock: BETFAJ_clean_sbu_0, # of connection points: 6
#     Node 4, Type 0, BuildingBlock: BETFAJ_clean_sbu_0, # of connection points: 6
#     Node 5, Type 0, BuildingBlock: BETFAJ_clean_sbu_0, # of connection points: 6
#     Edge 6, Type (0, 0), BuildingBlock: XIVTED_clean_linker_0, # of connection points: 2
#     Edge 7, Type (0, 0), BuildingBlock: XIVTED_clean_linker_0, # of connection points: 2
#     Edge 8, Type (0, 0), BuildingBlock: XIVTED_clean_linker_0, # of connection points: 2
#     Edge 9, Type (0, 0), BuildingBlock: XIVTED_clean_linker_0, # of connection points: 2
#     Edge 10, Type (0, 0), BuildingBlock: XIVTED_clean_linker_0, # of connection points: 2
#     Edge 11, Type (0, 0), BuildingBlock: XIVTED_clean_linker_0, # of connection points: 2
#     Edge 12, Type (0, 0), BuildingBlock: XIVTED_clean_linker_0, # of connection points: 2
#     Edge 13, Type (0, 0), BuildingBlock: XIVTED_clean_linker_0, # of connection points: 2
#     Edge 14, Type (0, 0), BuildingBlock: XIVTED_clean_linker_0, # of connection points: 2
#     Edge 15, Type (0, 0), BuildingBlock: XIVTED_clean_linker_0, # of connection points: 2
#     Edge 16, Type (0, 0), BuildingBlock: XIVTED_clean_linker_0, # of connection points: 2
#     Edge 17, Type (0, 0), BuildingBlock: XIVTED_clean_linker_0, # of connection points: 2
#     Edge 18, Type (0, 0), BuildingBlock: XIVTED_clean_linker_0, # of connection points: 2
#     Edge 19, Type (0, 0), BuildingBlock: XIVTED_clean_linker_0, # of connection points: 2
#     Edge 20, Type (0, 0), BuildingBlock: XIVTED_clean_linker_0, # of connection points: 2
#     Edge 21, Type (0, 0), BuildingBlock: XIVTED_clean_linker_0, # of connection points: 2
#     Edge 22, Type (0, 0), BuildingBlock: XIVTED_clean_linker_0, # of connection points: 2
#     Edge 23, Type (0, 0), BuildingBlock: XIVTED_clean_linker_0, # of connection points: 2
# Relax obj value: 0.104
# Max RMSD: 0.184
# Mean RMSD: 0.184
data_MOF--net-qtz-e--node1-BETFAJ_clean_sbu_0--edge1-XIVTED_clean_linker_0
_symmetry_space_group_name_H-M    P1
_symmetry_Int_Tables_number       1
_symmetry_cell_setting            triclinic
loop_
_symmetry_equiv_pos_as_xyz
'x, y, z'
_cell_length_a     25.884886
_cell_length_b     25.882814
_cell_length_c     52.186308
_cell_angle_alpha  90.181992
_cell_angle_beta   89.874804
_cell_angle_gamma 119.99905
loop_
_atom_site_label
_atom_site_type_symbol
_atom_site_fract_x
_atom_site_fract_y
_atom_site_fract_z
_atom_type_partial_charge
Sm0 Sm 0.18188 0.4737 0.05889 0.0
Sm1 Sm 0.17783 0.35546 0.04858 0.0
C2 C 0.15867 0.55596 0.07593 0.0
C3 C 0.16478 0.57792 0.10233 0.0
C4 C 0.13443 0.6069 0.11084 0.0
C5 C 0.13856 0.62431 0.13657 0.0
C6 C 0.17309 0.61285 0.15402 0.0
C7 C 0.2029 0.58333 0.14528 0.0
C8 C 0.1987 0.56599 0.11974 0.0
C9 C 0.28757 0.47852 0.06803 0.0
C10 C 0.13881 0.36977 0.10514 0.0
C11 C 0.19869 0.27241 0.02956 0.0
C12 C 0.22023 0.26437 1.00428 0.0
C13 C 0.26885 0.31226 0.99199 0.0
C14 C 0.28561 0.30582 0.96716 0.0
C15 C 0.25474 0.25094 0.95402 0.0
C16 C 0.20698 0.20255 0.96673 0.0
C17 C 0.18982 0.20932 0.99149 0.0
C18 C 0.07527 0.35853 0.03865 0.0
C19 C 0.22313 0.4595 1.00353 0.0
O20 O 0.11732 0.50025 0.07273 0.0
O21 O 0.20882 0.56894 0.06451 0.0
O22 O 0.23722 0.43464 0.07366 0.0
O23 O 0.28337 0.52276 0.05889 0.0
O24 O 0.13954 0.41762 0.09568 0.0
O25 O 0.15735 0.33893 0.09153 0.0
O26 O 0.23698 0.31664 0.04391 0.0
O27 O 0.14578 0.26721 0.02973 0.0
O28 O 0.12734 0.39707 0.03288 0.0
O29 O 0.07455 0.31502 0.05131 0.0
O30 O 0.23053 0.41763 1.01453 0.0
O31 O 0.19438 0.48263 1.01547 0.0
H32 H 0.10734 0.6156 0.0977 0.0
H33 H 0.11517 0.64708 0.14277 0.0
H34 H 0.22868 0.57258 0.1583 0.0
H35 H 0.2214 0.54243 0.11362 0.0
H36 H 0.29337 0.35521 1.00139 0.0
H37 H 0.32196 0.34453 0.9581 0.0
H38 H 0.18271 0.15924 0.95762 0.0
H39 H 0.15224 0.17161 1.00054 0.0
Sm40 Sm 0.69173 0.18631 0.39137 0.0
Sm41 Sm 0.80602 0.18323 0.38076 0.0
C42 C 0.58572 0.16288 0.40788 0.0
C43 C 0.56836 0.16845 0.43406 0.0
C44 C 0.50831 0.1416 0.44134 0.0
C45 C 0.49323 0.14629 0.46672 0.0
C46 C 0.53815 0.17801 0.48504 0.0
C47 C 0.5982 0.20419 0.47756 0.0
C48 C 0.61311 0.19934 0.45237 0.0
C49 C 0.79232 0.29145 0.40209 0.0
C50 C 0.75096 0.13957 0.43659 0.0
C51 C 0.91019 0.20381 0.36223 0.0
C52 C 0.93986 0.22349 0.3369 0.0
C53 C 0.94073 0.27125 0.32381 0.0
C54 C 0.96451 0.28655 0.29905 0.0
C55 C -0.01098 0.25507 0.28678 0.0
C56 C -0.01068 0.20807 0.30026 0.0
C57 C 0.96481 0.19236 0.32495 0.0
C58 C 0.70051 0.08128 0.3694 0.0
C59 C 0.74829 0.2308 0.33634 0.0
O60 O 0.60036 0.12169 0.40482 0.0
O61 O 0.62344 0.2133 0.39689 0.0
O62 O 0.78577 0.24074 0.40692 0.0
O63 O 0.7441 0.28778 0.39298 0.0
O64 O 0.7033 0.13884 0.42689 0.0
O65 O 0.80153 0.16196 0.4236 0.0
O66 O 0.90373 0.24295 0.37575 0.0
O67 O 0.86285 0.15067 0.36292 0.0
O68 O 0.71433 0.13374 0.36437 0.0
O69 O 0.74278 0.07983 0.38217 0.0
O70 O 0.79744 0.23767 0.34727 0.0
O71 O 0.69629 0.20131 0.34808 0.0
H72 H 0.47327 0.11699 0.42747 0.0
H73 H 0.44657 0.12572 0.47194 0.0
H74 H 0.63382 0.22773 0.4913 0.0
H75 H 0.6598 0.21947 0.44716 0.0
H76 H 0.92214 0.29632 0.33257 0.0
H77 H 0.96235 0.32233 0.28935 0.0
H78 H 0.00865 0.18335 0.2918 0.0
H79 H 0.96484 0.15543 0.33465 0.0
Sm80 Sm 0.49296 0.70399 0.72591 0.0
Sm81 Sm 0.61133 0.81418 0.71403 0.0
C82 C 0.40867 0.59877 0.74223 0.0
C83 C 0.38401 0.58076 0.76812 0.0
C84 C 0.35698 0.52102 0.77581 0.0
C85 C 0.33687 0.50528 0.80107 0.0
C86 C 0.34352 0.54919 0.81889 0.0
C87 C 0.37073 0.60896 0.81098 0.0
C88 C 0.39101 0.6246 0.78589 0.0
C89 C 0.49376 0.80636 0.7385 0.0
C90 C 0.60301 0.76014 0.7695 0.0
C91 C 0.69678 0.91432 0.69335 0.0
C92 C 0.7058 0.93745 0.66685 0.0
C93 C 0.74811 -0.003 0.66149 0.0
C94 C 0.75519 0.01907 0.63641 0.0
C95 C 0.7196 0.98209 0.61625 0.0
C96 C 0.67746 0.9223 0.62178 0.0
C97 C 0.67091 0.90021 0.64675 0.0
C98 C 0.59964 0.70549 0.70084 0.0
C99 C 0.50206 0.76356 0.67194 0.0
O100 O 0.46438 0.61253 0.73977 0.0
O101 O 0.39722 0.63709 0.73101 0.0
O102 O 0.53762 0.79841 0.74192 0.0
O103 O 0.44713 0.75875 0.7302 0.0
O104 O 0.55484 0.71302 0.76011 0.0
O105 O 0.63083 0.81073 0.75657 0.0
O106 O 0.65105 0.91103 0.70556 0.0
O107 O 0.70152 0.86681 0.69665 0.0
O108 O 0.56333 0.7229 0.69698 0.0
O109 O 0.64529 0.74561 0.71351 0.0
O110 O 0.54579 0.81117 0.68309 0.0
O111 O 0.47927 0.71075 0.68293 0.0
H112 H 0.35201 0.48678 0.7624 0.0
H113 H 0.31594 0.45884 0.80664 0.0
H114 H 0.37764 0.64395 0.82435 0.0
H115 H 0.41297 0.67121 0.78043 0.0
H116 H 0.7754 0.02654 0.67671 0.0
H117 H 0.78768 0.06544 0.6329 0.0
H118 H 0.64984 0.8923 0.60674 0.0
H119 H 0.63835 0.85392 0.65037 0.0
Sm120 Sm 0.77739 0.49878 0.05789 0.0
Sm121 Sm 0.79122 0.61922 0.0459 0.0
C122 C 0.79389 0.41195 0.07456 0.0
C123 C 0.78697 0.38803 0.10059 0.0
C124 C 0.81819 0.35954 0.10842 0.0
C125 C 0.81383 0.34029 0.1338 0.0
C126 C 0.77808 0.34926 0.15161 0.0
C127 C 0.74696 0.37787 0.14356 0.0
C128 C 0.7516 0.3973 0.11835 0.0
C129 C 0.67778 0.50406 0.06958 0.0
C130 C 0.83339 0.60852 0.10185 0.0
C131 C 0.78118 0.70707 0.02493 0.0
C132 C 0.76728 0.71611 0.99841 0.0
C133 C 0.75027 0.75856 0.99302 0.0
C134 C 0.735 0.76534 0.96796 0.0
C135 C 0.73588 0.72932 0.94783 0.0
C136 C 0.75337 0.68708 0.95338 0.0
C137 C 0.76915 0.68079 0.97834 0.0
C138 C 0.8857 0.60269 0.03351 0.0
C139 C 0.72989 0.51032 1.00352 0.0
O140 O 0.83754 0.46676 0.07173 0.0
O141 O 0.74453 0.40235 0.06349 0.0
O142 O 0.73019 0.54651 0.07345 0.0
O143 O 0.67702 0.45653 0.06123 0.0
O144 O 0.83025 0.55921 0.0926 0.0
O145 O 0.81331 0.63827 0.08857 0.0
O146 O 0.73774 0.6629 0.0374 0.0
O147 O 0.8323 0.70924 0.02819 0.0
O148 O 0.83173 0.56825 0.02921 0.0
O149 O 0.89284 0.64897 0.04624 0.0
O150 O 0.72803 0.55532 1.01456 0.0
O151 O 0.75766 0.48546 1.01478 0.0
H152 H 0.84633 0.35281 0.09501 0.0
H153 H 0.8382 0.31824 0.13946 0.0
H154 H 0.72007 0.38652 0.15692 0.0
H155 H 0.72815 0.4204 0.11279 0.0
H156 H 0.74831 0.78612 1.00823 0.0
H157 H 0.72124 0.79791 0.96445 0.0
H158 H 0.75534 0.65912 0.93837 0.0
H159 H 0.78258 0.64802 0.98198 0.0
Sm160 Sm 0.26305 0.78079 0.39325 0.0
Sm161 Sm 0.1554 0.79332 0.38064 0.0
C162 C 0.3676 0.79889 0.40927 0.0
C163 C 0.39253 0.80322 0.43513 0.0
C164 C 0.39564 0.8455 0.45298 0.0
C165 C 0.41099 0.8435 0.47845 0.0
C166 C 0.42354 0.79921 0.48659 0.0
C167 C 0.42315 0.75875 0.46844 0.0
C168 C 0.40788 0.76082 0.44295 0.0
C169 C 0.15819 0.68114 0.4047 0.0
C170 C 0.20887 0.83759 0.43659 0.0
C171 C 0.05715 0.78161 0.3592 0.0
C172 C 0.03477 0.76766 0.33253 0.0
C173 C 0.07239 0.76959 0.31265 0.0
C174 C 0.05089 0.75395 0.28756 0.0
C175 C -0.00864 0.73667 0.28166 0.0
C176 C 0.95403 0.73574 0.30159 0.0
C177 C 0.97548 0.75078 0.32679 0.0
C178 C 0.26586 0.88741 0.36774 0.0
C179 C 0.20326 0.73027 0.33906 0.0
O180 O 0.3584 0.84215 0.40227 0.0
O181 O 0.32375 0.74619 0.40285 0.0
O182 O 0.16797 0.73358 0.40853 0.0
O183 O 0.20497 0.68042 0.39631 0.0
O184 O 0.25528 0.83456 0.42758 0.0
O185 O 0.15895 0.81681 0.42324 0.0
O186 O 0.0585 0.73852 0.37165 0.0
O187 O 0.10549 0.83317 0.36274 0.0
O188 O 0.24673 0.83325 0.36403 0.0
O189 O 0.22662 0.89507 0.3801 0.0
O190 O 0.15654 0.72956 0.34964 0.0
O191 O 0.25572 0.75765 0.3505 0.0
H192 H 0.38422 0.87888 0.44754 0.0
H193 H 0.41053 0.8751 0.49198 0.0
H194 H 0.43366 0.72479 0.47403 0.0
H195 H 0.40606 0.72794 0.42952 0.0
H196 H 0.11849 0.783 0.31655 0.0
H197 H 0.08115 0.75596 0.27272 0.0
H198 H 0.90783 0.72217 0.29781 0.0
H199 H 0.94562 0.74881 0.34182 0.0
Sm200 Sm 0.47116 0.27611 0.72513 0.0
Sm201 Sm 0.35141 0.16388 0.71491 0.0
C202 C 0.55553 0.38229 0.74077 0.0
C203 C 0.57606 0.40748 0.76668 0.0
C204 C 0.53674 0.41038 0.78452 0.0
C205 C 0.55407 0.42596 0.81002 0.0
C206 C 0.61097 0.43878 0.81823 0.0
C207 C 0.65115 0.43855 0.80012 0.0
C208 C 0.6339 0.42321 0.77459 0.0
C209 C 0.4733 0.17391 0.73396 0.0
C210 C 0.3667 0.21699 0.77148 0.0
C211 C 0.26708 0.0622 0.69496 0.0
C212 C 0.25837 0.03527 0.6689 0.0
C213 C 0.29723 0.01674 0.65912 0.0
C214 C 0.29124 -0.00437 0.6339 0.0
C215 C 0.2462 -0.00765 0.61771 0.0
C216 C 0.20655 0.00969 0.62774 0.0
C217 C 0.21252 0.03075 0.65298 0.0
C218 C 0.3584 0.27107 0.70442 0.0
C219 C 0.4558 0.21785 0.66996 0.0
O220 O 0.50223 0.37103 0.73402 0.0
O221 O 0.56632 0.33984 0.73403 0.0
O222 O 0.43004 0.18137 0.73988 0.0
O223 O 0.51791 0.22176 0.72452 0.0
O224 O 0.41517 0.26378 0.76207 0.0
O225 O 0.33538 0.16779 0.75783 0.0
O226 O 0.31113 0.06609 0.70876 0.0
O227 O 0.26208 0.10993 0.69681 0.0
O228 O 0.39572 0.25571 0.69885 0.0
O229 O 0.3142 0.2295 0.71727 0.0
O230 O 0.41221 0.16997 0.68103 0.0
O231 O 0.48158 0.26999 0.6818 0.0
H232 H 0.49173 0.39843 0.77909 0.0
H233 H 0.52195 0.42536 0.82353 0.0
H234 H 0.69565 0.44922 0.80578 0.0
H235 H 0.6651 0.42156 0.7612 0.0
H236 H 0.33307 0.01941 0.67076 0.0
H237 H 0.32202 0.98177 0.62713 0.0
H238 H 0.17167 0.00846 0.61589 0.0
H239 H 0.18187 0.04466 0.65991 0.0
H240 H 0.10137 0.66901 0.3107 0.0
H241 H 0.27297 0.6631 0.18407 0.0
H242 H 0.29151 0.73818 0.30726 0.0
H243 H 0.0846 0.60317 0.18625 0.0
H244 H 0.27981 0.68744 0.22957 0.0
H245 H 0.0935 0.64013 0.26576 0.0
C246 C 0.1415 0.67779 0.30056 0.0
C247 C 0.19734 0.70653 0.31276 0.0
C248 C 0.23696 0.66903 0.22013 0.0
C249 C 0.18849 0.67343 0.26118 0.0
C250 C 0.23297 0.65494 0.19415 0.0
C251 C 0.17805 0.63082 0.18134 0.0
C252 C 0.18567 0.65893 0.23351 0.0
C253 C 0.12792 0.62216 0.19529 0.0
C254 C 0.13691 0.66134 0.27485 0.0
C255 C 0.24759 0.71622 0.29866 0.0
N256 N 0.1329 0.63605 0.22066 0.0
N257 N 0.24199 0.69993 0.27358 0.0
H258 H 0.53682 0.30654 0.63851 0.0
H259 H 0.45231 0.09188 0.51584 0.0
H260 H 0.40923 0.11781 0.64 0.0
H261 H 0.5903 0.27718 0.51567 0.0
H262 H 0.43276 0.10158 0.56097 0.0
H263 H 0.55583 0.29734 0.59324 0.0
C264 C 0.51308 0.26314 0.6294 0.0
C265 C 0.4713 0.21292 0.6431 0.0
C266 C 0.46731 0.14013 0.55105 0.0
C267 C 0.49234 0.20215 0.59126 0.0
C268 C 0.47813 0.13471 0.52523 0.0
C269 C 0.52321 0.18371 0.512 0.0
C270 C 0.50164 0.19501 0.56371 0.0
C271 C 0.55574 0.238 0.52523 0.0
C272 C 0.52379 0.25792 0.60353 0.0
C273 C 0.4417 0.15781 0.63024 0.0
N274 N 0.54438 0.24216 0.55033 0.0
N275 N 0.45263 0.15396 0.60506 0.0
H276 H 0.19972 0.52873 0.97116 0.0
H277 H 0.35812 0.47315 0.85056 0.0
H278 H 0.29221 0.42901 0.97477 0.0
H279 H 0.28429 0.59016 0.84868 0.0
H280 H 0.32961 0.4523 0.89567 0.0
H281 H 0.2279 0.54996 0.92601 0.0
C282 C 0.22617 0.5115 0.96253 0.0
C283 C 0.24316 0.47649 0.97675 0.0
C284 C 0.31961 0.48253 0.88539 0.0
C285 C 0.27506 0.50012 0.92505 0.0
C286 C 0.33542 0.49402 0.85958 0.0
C287 C 0.32368 0.53354 0.84586 0.0
C288 C 0.29159 0.51055 0.89755 0.0
C289 C 0.29487 0.55997 0.85863 0.0
C290 C 0.24207 0.52346 0.93672 0.0
C291 C 0.27734 0.45534 0.96451 0.0
N292 N 0.27983 0.54802 0.88374 0.0
N293 N 0.29194 0.46725 0.93938 0.0
H294 H 0.65574 0.2097 0.30428 0.0
H295 H 0.86848 0.36228 0.18309 0.0
H296 H 0.8479 0.29886 0.30749 0.0
H297 H 0.67844 0.29378 0.18185 0.0
H298 H 0.86114 0.33496 0.22832 0.0
H299 H 0.6625 0.23803 0.2592 0.0
C300 C 0.69938 0.2355 0.29559 0.0
C301 C 0.75138 0.25144 0.30967 0.0
C302 C 0.82102 0.32589 0.21815 0.0
C303 C 0.75941 0.28347 0.25803 0.0
C304 C 0.82514 0.34101 0.19228 0.0
C305 C 0.77401 0.33035 0.1787 0.0
C306 C 0.76531 0.29962 0.23051 0.0
C307 C 0.7191 0.30343 0.19168 0.0
C308 C 0.7032 0.25148 0.26982 0.0
C309 C 0.80666 0.28482 0.29735 0.0
N310 N 0.71619 0.28896 0.21684 0.0
N311 N 0.80922 0.29946 0.27224 0.0
H312 H 0.53759 0.86613 0.64488 0.0
H313 H 0.37985 0.69685 0.51482 0.0
H314 H 0.42772 0.67466 0.63884 0.0
H315 H 0.48994 0.88815 0.52121 0.0
H316 H 0.39517 0.68786 0.56036 0.0
H317 H 0.51749 0.8751 0.60005 0.0
C318 C 0.50879 0.8259 0.63419 0.0
C319 C 0.48457 0.76944 0.64564 0.0
C320 C 0.41601 0.73181 0.55182 0.0
C321 C 0.4614 0.77953 0.59412 0.0
C322 C 0.40771 0.73697 0.52576 0.0
C323 C 0.43394 0.79335 0.51413 0.0
C324 C 0.45088 0.7834 0.56644 0.0
C325 C 0.46851 0.84384 0.5294 0.0
C326 C 0.4974 0.83112 0.60853 0.0
C327 C 0.44735 0.71904 0.63082 0.0
N328 N 0.47607 0.83765 0.55474 0.0
N329 N 0.43714 0.72527 0.60578 0.0
H330 H 0.74131 0.43361 0.97059 0.0
H331 H 0.5892 0.50594 0.85281 0.0
H332 H 0.666 0.54914 0.97612 0.0
H333 H 0.66872 0.39432 0.84657 0.0
H334 H 0.61379 0.51943 0.89847 0.0
H335 H 0.71054 0.41448 0.92564 0.0
C336 C 0.71784 0.4545 0.96245 0.0
C337 C 0.70654 0.49327 0.97713 0.0
C338 C 0.62587 0.49197 0.88712 0.0
C339 C 0.67175 0.47212 0.92564 0.0
C340 C 0.61172 0.48417 0.86106 0.0
C341 C 0.62716 0.44916 0.84581 0.0
C342 C 0.65539 0.46429 0.89808 0.0
C343 C 0.65681 0.42246 0.85749 0.0
C344 C 0.70054 0.44382 0.93674 0.0
C345 C 0.67607 0.51923 0.96552 0.0
N346 N 0.66987 0.43051 0.8829 0.0
N347 N 0.66003 0.50842 0.94047 0.0
H348 H 0.30778 0.39155 0.08646 0.0
H349 H 0.66233 0.5998 0.07868 0.0
H350 H 0.39694 0.57745 0.06517 0.0
H351 H 0.56946 0.40734 0.07744 0.0
H352 H 0.56633 0.59588 0.08506 0.0
H353 H 0.40522 0.40051 0.09435 0.0
C354 C 0.34787 0.43425 0.08366 0.0
C355 C 0.34477 0.48355 0.07476 0.0
C356 C 0.56731 0.55462 0.08373 0.0
C357 C 0.4555 0.49431 0.08386 0.0
C358 C 0.62187 0.5569 0.08014 0.0
C359 C 0.6232 0.50387 0.07703 0.0
C360 C 0.51449 0.49892 0.08446 0.0
C361 C 0.56997 0.44927 0.07928 0.0
C362 C 0.40329 0.43943 0.08819 0.0
C363 C 0.39771 0.53816 0.07168 0.0
N364 N 0.51761 0.44818 0.08267 0.0
N365 N 0.4511 0.54202 0.07604 0.0
H366 H 0.04709 0.66577 0.41408 0.0
H367 H 0.89988 0.31082 0.41978 0.0
H368 H 0.14612 0.57239 0.41165 0.0
H369 H 0.80288 0.40096 0.40064 0.0
H370 H -0.01119 0.40796 0.42781 0.0
H371 H 0.9549 0.56979 0.42022 0.0
C372 C 0.04938 0.62519 0.41521 0.0
C373 C 0.10363 0.62642 0.41187 0.0
C374 C 0.94781 0.40632 0.4221 0.0
C375 C -0.00028 0.51768 0.41902 0.0
C376 C 0.8973 0.35106 0.4175 0.0
C377 C 0.84468 0.34832 0.40914 0.0
C378 C 0.9452 0.45874 0.41837 0.0
C379 C 0.84308 0.40144 0.40672 0.0
C380 C -0.00295 0.57064 0.41867 0.0
C381 C 0.1048 0.57301 0.41369 0.0
N382 N 0.89286 0.45466 0.41112 0.0
N383 N 0.05348 0.52067 0.41696 0.0
H384 H 0.573 0.16479 0.73322 0.0
H385 H 0.39529 0.81558 0.7456 0.0
H386 H 0.38504 0.06543 0.75095 0.0
H387 H 0.58752 0.91847 0.74773 0.0
H388 H 0.39112 0.90668 0.75147 0.0
H389 H 0.58033 0.07631 0.74183 0.0
C390 C 0.53328 0.12427 0.7391 0.0
C391 C 0.47809 0.1218 0.74103 0.0
C392 C 0.43426 0.90945 0.75104 0.0
C393 C 0.48613 0.02055 0.75081 0.0
C394 C 0.4367 0.85751 0.74759 0.0
C395 C 0.49192 0.86006 0.74571 0.0
C396 C 0.4875 0.96437 0.7521 0.0
C397 C 0.54416 0.91506 0.74877 0.0
C398 C 0.53761 0.07392 0.74418 0.0
C399 C 0.42823 0.06869 0.74901 0.0
N400 N 0.54073 0.96549 0.75137 0.0
N401 N 0.43325 0.01968 0.75328 0.0
H402 H 0.59794 0.63267 0.73927 0.0
H403 H 0.38919 0.33651 0.66185 0.0
H404 H 0.5485 0.63428 0.6606 0.0
H405 H 0.37211 0.3474 0.74353 0.0
H406 H 0.45483 0.44431 0.66033 0.0
H407 H 0.52882 0.52398 0.74043 0.0
C408 C 0.57453 0.60967 0.72198 0.0
C409 C 0.57898 0.64172 0.6997 0.0
C410 C 0.43565 0.42349 0.67853 0.0
C411 C 0.49901 0.51963 0.70118 0.0
C412 C 0.39738 0.36225 0.67931 0.0
C413 C 0.37493 0.3337 0.70277 0.0
C414 C 0.45265 0.45607 0.70149 0.0
C415 C 0.38784 0.36838 0.72504 0.0
C416 C 0.53411 0.54825 0.72284 0.0
C417 C 0.54648 0.61064 0.67801 0.0
N418 N 0.42716 0.4281 0.72397 0.0
N419 N 0.50751 0.55134 0.67932 0.0
H420 H 0.03549 0.38347 0.99602 0.0
H421 H 0.95599 0.59984 0.07216 0.0
H422 H 0.0143 0.37345 0.07804 0.0
H423 H 0.90178 0.54681 0.99394 0.0
H424 H -0.00699 0.52867 0.07391 0.0
H425 H -0.00732 0.44849 0.99421 0.0
C426 C 0.01917 0.39295 1.01354 0.0
C427 C 0.02761 0.37288 0.03715 0.0
C428 C 0.9738 0.5335 0.0563 0.0
C429 C -0.01766 0.45007 0.0355 0.0
C430 C 0.95426 0.57507 0.05509 0.0
C431 C 0.92667 0.5793 0.03275 0.0
C432 C 0.96586 0.49698 0.03493 0.0
C433 C 0.92345 0.54501 1.01139 0.0
C434 C -0.00413 0.43094 1.01259 0.0
C435 C 0.00737 0.38744 0.05945 0.0
N436 N 0.94244 0.50502 1.01303 0.0
N437 N -0.01324 0.42656 0.05819 0.0
H438 H 0.34057 0.9597 0.40562 0.0
H439 H 0.63419 0.04521 0.327 0.0
H440 H 0.33573 0.90336 0.32742 0.0
H441 H 0.62563 0.01784 0.40862 0.0
H442 H 0.52616 0.00194 0.32596 0.0
H443 H 0.44922 -0.00119 0.40623 0.0
C444 C 0.36285 0.95797 0.38831 0.0
C445 C 0.32993 0.92919 0.3663 0.0
C446 C 0.54758 0.00397 0.34404 0.0
C447 C 0.45199 0.97088 0.36718 0.0
C448 C 0.60896 0.02754 0.34455 0.0
C449 C 0.63822 0.03421 0.36786 0.0
C450 C 0.51563 -0.01157 0.36713 0.0
C451 C 0.60414 0.01229 0.39023 0.0
C452 C 0.42424 0.97872 0.38886 0.0
C453 C 0.36006 0.92596 0.34461 0.0
N454 N 0.54432 -0.00858 0.38945 0.0
N455 N 0.41939 0.94624 0.34561 0.0
H456 H 0.26079 0.14162 0.79594 0.0
H457 H 0.36683 0.30564 0.93193 0.0
H458 H 0.43166 0.29966 0.80841 0.0
H459 H 0.18206 0.18186 0.9143 0.0
H460 H 0.39314 0.29743 0.88781 0.0
H461 H 0.2331 0.14871 0.84028 0.0
C462 C 0.29253 0.17776 0.80795 0.0
C463 C 0.34864 0.22019 0.7983 0.0
C464 C 0.34682 0.27205 0.89361 0.0
C465 C 0.31732 0.22829 0.8492 0.0
C466 C 0.33155 0.27694 0.91887 0.0
C467 C 0.27185 0.24467 0.92716 0.0
C468 C 0.30237 0.23408 0.87631 0.0
C469 C 0.22876 0.20706 0.90916 0.0
C470 C 0.2766 0.18186 0.83326 0.0
C471 C 0.38781 0.26609 0.81485 0.0
N472 N 0.24485 0.20278 0.8847 0.0
N473 N 0.37153 0.26874 0.83942 0.0
H474 H -0.01356 0.18041 0.24807 0.0
H475 H 0.12027 0.43533 0.14138 0.0
H476 H 0.04741 0.36604 0.26395 0.0
H477 H 0.10969 0.26491 0.13041 0.0
H478 H 0.08583 0.40741 0.18533 0.0
H479 H 0.02468 0.20748 0.20434 0.0
C480 C 0.00823 0.22691 0.24257 0.0
C481 C 0.01333 0.27085 0.26003 0.0
C482 C 0.09111 0.37607 0.17338 0.0
C483 C 0.05617 0.30187 0.20949 0.0
C484 C 0.11064 0.39189 0.14815 0.0
C485 C 0.11797 0.35241 0.13202 0.0
C486 C 0.07794 0.31995 0.1827 0.0
C487 C 0.10487 0.29685 0.14211 0.0
C488 C 0.02976 0.24222 0.21746 0.0
C489 C 0.04111 0.33018 0.25129 0.0
N490 N 0.08519 0.28214 0.16675 0.0
N491 N 0.06109 0.34376 0.22672 0.0
H492 H 0.82244 0.05686 0.58975 0.0
H493 H 0.65087 0.07812 0.46614 0.0
H494 H 0.63084 0.96122 0.58191 0.0
H495 H 0.8408 0.14566 0.46717 0.0
H496 H 0.64373 0.03981 0.5094 0.0
H497 H 0.83101 0.0948 0.54603 0.0
C498 C 0.78215 0.04403 0.57891 0.0
C499 C 0.72581 0.0057 0.58963 0.0
C500 C 0.68701 0.06286 0.50019 0.0
C501 C 0.73537 0.04896 0.53942 0.0
C502 C 0.69121 0.08493 0.47541 0.0
C503 C 0.74661 0.11527 0.46284 0.0
C504 C 0.7386 0.07143 0.51281 0.0
C505 C 0.79714 0.12247 0.47601 0.0
C506 C 0.78712 0.06543 0.55387 0.0
C507 C 0.67524 -0.00992 0.57445 0.0
N508 N 0.79196 0.10095 0.50028 0.0
N509 N 0.68123 0.0119 0.55025 0.0
H510 H 0.56663 0.65962 0.79843 0.0
H511 H 0.76373 0.83183 0.92129 0.0
H512 H 0.68822 0.84971 0.79974 0.0
H513 H 0.66728 0.64011 0.91362 0.0
H514 H 0.73321 0.83996 0.87776 0.0
H515 H 0.59998 0.65233 0.84129 0.0
C516 C 0.60043 0.69994 0.80769 0.0
C517 C 0.62457 0.75546 0.79535 0.0
C518 C 0.71885 0.79613 0.88559 0.0
C519 C 0.66286 0.74732 0.84479 0.0
C520 C 0.73594 0.79142 0.91052 0.0
C521 C 0.71806 0.73519 0.92125 0.0
C522 C 0.68305 0.74424 0.87123 0.0
C523 C 0.6827 0.68444 0.90615 0.0
C524 C 0.61955 0.69566 0.83221 0.0
C525 C 0.6684 0.80597 0.80842 0.0
N526 N 0.6662 0.69019 0.88204 0.0
N527 N 0.68588 0.80073 0.83244 0.0
H528 H 0.91814 0.76573 0.25465 0.0
H529 H 0.89354 0.56868 0.13155 0.0
H530 H 0.01207 0.66787 0.2475 0.0
H531 H 0.83096 0.69509 0.13195 0.0
H532 H 0.93266 0.60068 0.1748 0.0
H533 H 0.88086 0.73621 0.21082 0.0
C534 C 0.93074 0.73782 0.24394 0.0
C535 C 0.96836 0.71929 0.2549 0.0
C536 C 0.91053 0.62159 0.16544 0.0
C537 C 0.9258 0.68536 0.20453 0.0
C538 C 0.88801 0.60325 0.14069 0.0
C539 C 0.85876 0.62917 0.12796 0.0
C540 C 0.90339 0.66587 0.17787 0.0
C541 C 0.85325 0.6739 0.14091 0.0
C542 C 0.90973 0.72131 0.21882 0.0
C543 C -0.01628 0.68379 0.23986 0.0
N544 N 0.87503 0.69057 0.16515 0.0
N545 N 0.96222 0.66782 0.21558 0.0
H546 H 0.33651 0.01403 0.58375 0.0
H547 H 0.11925 0.83431 0.46648 0.0
H548 H 0.14444 0.92377 0.58915 0.0
H549 H 0.3087 0.89955 0.46636 0.0
H550 H 0.12795 0.87356 0.51007 0.0
H551 H 0.32746 0.97866 0.53965 0.0
C552 C 0.29235 0.98644 0.5758 0.0
C553 C 0.24117 0.97166 0.59048 0.0
C554 C 0.16761 0.87932 0.50047 0.0
C555 C 0.23051 0.93152 0.53948 0.0
C556 C 0.16271 0.85707 0.47551 0.0
C557 C 0.21325 0.86324 0.46266 0.0
C558 C 0.22354 0.90843 0.51268 0.0
C559 C 0.26836 0.89318 0.47548 0.0
C560 C 0.28725 0.9665 0.55047 0.0
C561 C 0.18526 0.93692 0.57866 0.0
N562 N 0.27199 0.91455 0.49967 0.0
N563 N 0.18146 0.91803 0.55397 0.0
loop_
_geom_bond_atom_site_label_1
_geom_bond_atom_site_label_2
_geom_bond_distance
_geom_bond_site_symmetry_2
_ccdc_geom_bond_type
Sm0 C2 2.846 . S
Sm0 O20 2.543 . S
Sm0 O21 2.450 . S
Sm0 O22 2.681 . S
Sm0 O23 2.464 . S
Sm0 O24 2.396 . S
Sm0 O28 2.386 . S
Sm0 O31 2.408 . S
Sm1 C11 2.846 1_554 S
Sm1 O22 2.386 . S
Sm1 O25 2.408 . S
Sm1 O26 2.543 1_554 S
Sm1 O27 2.450 1_554 S
Sm1 O28 2.681 . S
Sm1 O29 2.464 . S
Sm1 O30 2.396 1_554 S
C2 Sm0 2.846 . S
C2 C3 1.506 . S
C2 O20 1.261 . S
C2 O21 1.242 . S
C3 C2 1.506 . S
C3 C4 1.358 . S
C3 C8 1.382 . S
C4 C3 1.358 . S
C4 C5 1.385 . S
C4 H32 0.930 . S
C5 C4 1.385 . S
C5 C6 1.395 . S
C5 H33 0.929 . S
C6 C5 1.395 . S
C6 C7 1.335 . S
C7 C6 1.335 . S
C7 C8 1.398 . S
C7 H34 0.930 . S
C8 C3 1.382 . S
C8 C7 1.398 . S
C8 H35 0.929 . S
C9 O22 1.271 . S
C9 O23 1.251 . S
C10 O24 1.252 . S
C10 O25 1.272 . S
C11 Sm1 2.846 1_556 S
C11 C12 1.506 . S
C11 O26 1.261 . S
C11 O27 1.242 . S
C12 C11 1.506 . S
C12 C13 1.358 . S
C12 C17 1.382 . S
C13 C12 1.358 . S
C13 C14 1.385 . S
C13 H36 0.930 . S
C14 C13 1.385 . S
C14 C15 1.395 . S
C14 H37 0.929 . S
C15 C14 1.395 . S
C15 C16 1.335 . S
C16 C15 1.335 . S
C16 C17 1.398 . S
C16 H38 0.930 . S
C17 C12 1.382 . S
C17 C16 1.398 . S
C17 H39 0.929 . S
C18 O28 1.271 . S
C18 O29 1.251 . S
C19 O30 1.252 . S
C19 O31 1.272 1_556 S
O20 Sm0 2.543 . S
O20 C2 1.261 . S
O21 Sm0 2.450 . S
O21 C2 1.242 . S
O22 Sm0 2.681 . S
O22 Sm1 2.386 . S
O22 C9 1.271 . S
O23 Sm0 2.464 . S
O23 C9 1.251 . S
O24 Sm0 2.396 . S
O24 C10 1.252 . S
O25 Sm1 2.408 . S
O25 C10 1.272 . S
O26 Sm1 2.543 1_556 S
O26 C11 1.261 . S
O27 Sm1 2.450 1_556 S
O27 C11 1.242 . S
O28 Sm0 2.386 . S
O28 Sm1 2.681 . S
O28 C18 1.271 . S
O29 Sm1 2.464 . S
O29 C18 1.251 . S
O30 Sm1 2.396 1_556 S
O30 C19 1.252 . S
O31 Sm0 2.408 . S
O31 C19 1.272 1_554 S
H32 C4 0.930 . S
H33 C5 0.929 . S
H34 C7 0.930 . S
H35 C8 0.929 . S
H36 C13 0.930 . S
H37 C14 0.929 . S
H38 C16 0.930 . S
H39 C17 0.929 . S
Sm40 C42 2.846 . S
Sm40 O60 2.543 . S
Sm40 O61 2.450 . S
Sm40 O62 2.681 . S
Sm40 O63 2.464 . S
Sm40 O64 2.396 . S
Sm40 O68 2.386 . S
Sm40 O71 2.408 . S
Sm41 C51 2.846 . S
Sm41 O62 2.386 . S
Sm41 O65 2.408 . S
Sm41 O66 2.543 . S
Sm41 O67 2.450 . S
Sm41 O68 2.681 . S
Sm41 O69 2.464 . S
Sm41 O70 2.396 . S
C42 Sm40 2.846 . S
C42 C43 1.506 . S
C42 O60 1.261 . S
C42 O61 1.242 . S
C43 C42 1.506 . S
C43 C44 1.358 . S
C43 C48 1.382 . S
C44 C43 1.358 . S
C44 C45 1.385 . S
C44 H72 0.930 . S
C45 C44 1.385 . S
C45 C46 1.395 . S
C45 H73 0.929 . S
C46 C45 1.395 . S
C46 C47 1.335 . S
C47 C46 1.335 . S
C47 C48 1.398 . S
C47 H74 0.930 . S
C48 C43 1.382 . S
C48 C47 1.398 . S
C48 H75 0.929 . S
C49 O62 1.271 . S
C49 O63 1.251 . S
C50 O64 1.252 . S
C50 O65 1.272 . S
C51 Sm41 2.846 . S
C51 C52 1.506 . S
C51 O66 1.261 . S
C51 O67 1.242 . S
C52 C51 1.506 . S
C52 C53 1.358 . S
C52 C57 1.382 . S
C53 C52 1.358 . S
C53 C54 1.385 . S
C53 H76 0.930 . S
C54 C53 1.385 . S
C54 C55 1.395 . S
C54 H77 0.929 1_655 S
C55 C54 1.395 . S
C55 C56 1.335 . S
C56 C55 1.335 . S
C56 C57 1.398 . S
C56 H78 0.930 . S
C57 C52 1.382 . S
C57 C56 1.398 . S
C57 H79 0.929 . S
C58 O68 1.271 . S
C58 O69 1.251 . S
C59 O70 1.252 . S
C59 O71 1.272 . S
O60 Sm40 2.543 . S
O60 C42 1.261 . S
O61 Sm40 2.450 . S
O61 C42 1.242 . S
O62 Sm40 2.681 . S
O62 Sm41 2.386 . S
O62 C49 1.271 . S
O63 Sm40 2.464 . S
O63 C49 1.251 . S
O64 Sm40 2.396 . S
O64 C50 1.252 . S
O65 Sm41 2.408 . S
O65 C50 1.272 . S
O66 Sm41 2.543 . S
O66 C51 1.261 . S
O67 Sm41 2.450 . S
O67 C51 1.242 . S
O68 Sm40 2.386 . S
O68 Sm41 2.681 . S
O68 C58 1.271 . S
O69 Sm41 2.464 . S
O69 C58 1.251 . S
O70 Sm41 2.396 . S
O70 C59 1.252 . S
O71 Sm40 2.408 . S
O71 C59 1.272 . S
H72 C44 0.930 . S
H73 C45 0.929 . S
H74 C47 0.930 . S
H75 C48 0.929 . S
H76 C53 0.930 . S
H77 C54 0.929 1_455 S
H78 C56 0.930 . S
H79 C57 0.929 . S
Sm80 C82 2.846 . S
Sm80 O100 2.543 . S
Sm80 O101 2.450 . S
Sm80 O102 2.681 . S
Sm80 O103 2.464 . S
Sm80 O104 2.396 . S
Sm80 O108 2.386 . S
Sm80 O111 2.408 . S
Sm81 C91 2.846 . S
Sm81 O102 2.386 . S
Sm81 O105 2.408 . S
Sm81 O106 2.543 . S
Sm81 O107 2.450 . S
Sm81 O108 2.681 . S
Sm81 O109 2.464 . S
Sm81 O110 2.396 . S
C82 Sm80 2.846 . S
C82 C83 1.506 . S
C82 O100 1.261 . S
C82 O101 1.242 . S
C83 C82 1.506 . S
C83 C84 1.358 . S
C83 C88 1.382 . S
C84 C83 1.358 . S
C84 C85 1.385 . S
C84 H112 0.930 . S
C85 C84 1.385 . S
C85 C86 1.395 . S
C85 H113 0.929 . S
C86 C85 1.395 . S
C86 C87 1.335 . S
C87 C86 1.335 . S
C87 C88 1.398 . S
C87 H114 0.930 . S
C88 C83 1.382 . S
C88 C87 1.398 . S
C88 H115 0.929 . S
C89 O102 1.271 . S
C89 O103 1.251 . S
C90 O104 1.252 . S
C90 O105 1.272 . S
C91 Sm81 2.846 . S
C91 C92 1.506 . S
C91 O106 1.261 . S
C91 O107 1.242 . S
C92 C91 1.506 . S
C92 C93 1.358 . S
C92 C97 1.382 . S
C93 C92 1.358 . S
C93 C94 1.385 . S
C93 H116 0.930 . S
C94 C93 1.385 . S
C94 C95 1.395 . S
C94 H117 0.929 1_565 S
C95 C94 1.395 . S
C95 C96 1.335 . S
C96 C95 1.335 . S
C96 C97 1.398 . S
C96 H118 0.930 . S
C97 C92 1.382 . S
C97 C96 1.398 . S
C97 H119 0.929 . S
C98 O108 1.271 . S
C98 O109 1.251 . S
C99 O110 1.252 . S
C99 O111 1.272 . S
O100 Sm80 2.543 . S
O100 C82 1.261 . S
O101 Sm80 2.450 . S
O101 C82 1.242 . S
O102 Sm80 2.681 . S
O102 Sm81 2.386 . S
O102 C89 1.271 . S
O103 Sm80 2.464 . S
O103 C89 1.251 . S
O104 Sm80 2.396 . S
O104 C90 1.252 . S
O105 Sm81 2.408 . S
O105 C90 1.272 . S
O106 Sm81 2.543 . S
O106 C91 1.261 . S
O107 Sm81 2.450 . S
O107 C91 1.242 . S
O108 Sm80 2.386 . S
O108 Sm81 2.681 . S
O108 C98 1.271 . S
O109 Sm81 2.464 . S
O109 C98 1.251 . S
O110 Sm81 2.396 . S
O110 C99 1.252 . S
O111 Sm80 2.408 . S
O111 C99 1.272 . S
H112 C84 0.930 . S
H113 C85 0.929 . S
H114 C87 0.930 . S
H115 C88 0.929 . S
H116 C93 0.930 . S
H117 C94 0.929 1_545 S
H118 C96 0.930 . S
H119 C97 0.929 . S
Sm120 C122 2.846 . S
Sm120 O140 2.543 . S
Sm120 O141 2.450 . S
Sm120 O142 2.681 . S
Sm120 O143 2.464 . S
Sm120 O144 2.396 . S
Sm120 O148 2.386 . S
Sm120 O151 2.408 . S
Sm121 C131 2.846 1_554 S
Sm121 O142 2.386 . S
Sm121 O145 2.408 . S
Sm121 O146 2.543 1_554 S
Sm121 O147 2.450 1_554 S
Sm121 O148 2.681 . S
Sm121 O149 2.464 . S
Sm121 O150 2.396 1_554 S
C122 Sm120 2.846 . S
C122 C123 1.506 . S
C122 O140 1.261 . S
C122 O141 1.242 . S
C123 C122 1.506 . S
C123 C124 1.358 . S
C123 C128 1.382 . S
C124 C123 1.358 . S
C124 C125 1.385 . S
C124 H152 0.930 . S
C125 C124 1.385 . S
C125 C126 1.395 . S
C125 H153 0.929 . S
C126 C125 1.395 . S
C126 C127 1.335 . S
C127 C126 1.335 . S
C127 C128 1.398 . S
C127 H154 0.930 . S
C128 C123 1.382 . S
C128 C127 1.398 . S
C128 H155 0.929 . S
C129 O142 1.271 . S
C129 O143 1.251 . S
C130 O144 1.252 . S
C130 O145 1.272 . S
C131 Sm121 2.846 1_556 S
C131 C132 1.506 . S
C131 O146 1.261 . S
C131 O147 1.242 . S
C132 C131 1.506 . S
C132 C133 1.358 . S
C132 C137 1.382 . S
C133 C132 1.358 . S
C133 C134 1.385 . S
C133 H156 0.930 . S
C134 C133 1.385 . S
C134 C135 1.395 . S
C134 H157 0.929 . S
C135 C134 1.395 . S
C135 C136 1.335 . S
C136 C135 1.335 . S
C136 C137 1.398 . S
C136 H158 0.930 . S
C137 C132 1.382 . S
C137 C136 1.398 . S
C137 H159 0.929 . S
C138 O148 1.271 . S
C138 O149 1.251 . S
C139 O150 1.252 . S
C139 O151 1.272 1_556 S
O140 Sm120 2.543 . S
O140 C122 1.261 . S
O141 Sm120 2.450 . S
O141 C122 1.242 . S
O142 Sm120 2.681 . S
O142 Sm121 2.386 . S
O142 C129 1.271 . S
O143 Sm120 2.464 . S
O143 C129 1.251 . S
O144 Sm120 2.396 . S
O144 C130 1.252 . S
O145 Sm121 2.408 . S
O145 C130 1.272 . S
O146 Sm121 2.543 1_556 S
O146 C131 1.261 . S
O147 Sm121 2.450 1_556 S
O147 C131 1.242 . S
O148 Sm120 2.386 . S
O148 Sm121 2.681 . S
O148 C138 1.271 . S
O149 Sm121 2.464 . S
O149 C138 1.251 . S
O150 Sm121 2.396 1_556 S
O150 C139 1.252 . S
O151 Sm120 2.408 . S
O151 C139 1.272 1_554 S
H152 C124 0.930 . S
H153 C125 0.929 . S
H154 C127 0.930 . S
H155 C128 0.929 . S
H156 C133 0.930 . S
H157 C134 0.929 . S
H158 C136 0.930 . S
H159 C137 0.929 . S
Sm160 C162 2.846 . S
Sm160 O180 2.543 . S
Sm160 O181 2.450 . S
Sm160 O182 2.681 . S
Sm160 O183 2.464 . S
Sm160 O184 2.396 . S
Sm160 O188 2.386 . S
Sm160 O191 2.408 . S
Sm161 C171 2.846 . S
Sm161 O182 2.386 . S
Sm161 O185 2.408 . S
Sm161 O186 2.543 . S
Sm161 O187 2.450 . S
Sm161 O188 2.681 . S
Sm161 O189 2.464 . S
Sm161 O190 2.396 . S
C162 Sm160 2.846 . S
C162 C163 1.506 . S
C162 O180 1.261 . S
C162 O181 1.242 . S
C163 C162 1.506 . S
C163 C164 1.358 . S
C163 C168 1.382 . S
C164 C163 1.358 . S
C164 C165 1.385 . S
C164 H192 0.930 . S
C165 C164 1.385 . S
C165 C166 1.395 . S
C165 H193 0.929 . S
C166 C165 1.395 . S
C166 C167 1.335 . S
C167 C166 1.335 . S
C167 C168 1.398 . S
C167 H194 0.930 . S
C168 C163 1.382 . S
C168 C167 1.398 . S
C168 H195 0.929 . S
C169 O182 1.271 . S
C169 O183 1.251 . S
C170 O184 1.252 . S
C170 O185 1.272 . S
C171 Sm161 2.846 . S
C171 C172 1.506 . S
C171 O186 1.261 . S
C171 O187 1.242 . S
C172 C171 1.506 . S
C172 C173 1.358 . S
C172 C177 1.382 . S
C173 C172 1.358 . S
C173 C174 1.385 . S
C173 H196 0.930 . S
C174 C173 1.385 . S
C174 C175 1.395 . S
C174 H197 0.929 1_455 S
C175 C174 1.395 . S
C175 C176 1.335 . S
C176 C175 1.335 . S
C176 C177 1.398 . S
C176 H198 0.930 . S
C177 C172 1.382 . S
C177 C176 1.398 . S
C177 H199 0.929 . S
C178 O188 1.271 . S
C178 O189 1.251 . S
C179 O190 1.252 . S
C179 O191 1.272 . S
O180 Sm160 2.543 . S
O180 C162 1.261 . S
O181 Sm160 2.450 . S
O181 C162 1.242 . S
O182 Sm160 2.681 . S
O182 Sm161 2.386 . S
O182 C169 1.271 . S
O183 Sm160 2.464 . S
O183 C169 1.251 . S
O184 Sm160 2.396 . S
O184 C170 1.252 . S
O185 Sm161 2.408 . S
O185 C170 1.272 . S
O186 Sm161 2.543 . S
O186 C171 1.261 . S
O187 Sm161 2.450 . S
O187 C171 1.242 . S
O188 Sm160 2.386 . S
O188 Sm161 2.681 . S
O188 C178 1.271 . S
O189 Sm161 2.464 . S
O189 C178 1.251 . S
O190 Sm161 2.396 . S
O190 C179 1.252 . S
O191 Sm160 2.408 . S
O191 C179 1.272 . S
H192 C164 0.930 . S
H193 C165 0.929 . S
H194 C167 0.930 . S
H195 C168 0.929 . S
H196 C173 0.930 . S
H197 C174 0.929 1_655 S
H198 C176 0.930 . S
H199 C177 0.929 . S
Sm200 C202 2.846 . S
Sm200 O220 2.543 . S
Sm200 O221 2.450 . S
Sm200 O222 2.681 . S
Sm200 O223 2.464 . S
Sm200 O224 2.396 . S
Sm200 O228 2.386 . S
Sm200 O231 2.408 . S
Sm201 C211 2.846 . S
Sm201 O222 2.386 . S
Sm201 O225 2.408 . S
Sm201 O226 2.543 . S
Sm201 O227 2.450 . S
Sm201 O228 2.681 . S
Sm201 O229 2.464 . S
Sm201 O230 2.396 . S
C202 Sm200 2.846 . S
C202 C203 1.506 . S
C202 O220 1.261 . S
C202 O221 1.242 . S
C203 C202 1.506 . S
C203 C204 1.358 . S
C203 C208 1.382 . S
C204 C203 1.358 . S
C204 C205 1.385 . S
C204 H232 0.930 . S
C205 C204 1.385 . S
C205 C206 1.395 . S
C205 H233 0.929 . S
C206 C205 1.395 . S
C206 C207 1.335 . S
C207 C206 1.335 . S
C207 C208 1.398 . S
C207 H234 0.930 . S
C208 C203 1.382 . S
C208 C207 1.398 . S
C208 H235 0.929 . S
C209 O222 1.271 . S
C209 O223 1.251 . S
C210 O224 1.252 . S
C210 O225 1.272 . S
C211 Sm201 2.846 . S
C211 C212 1.506 . S
C211 O226 1.261 . S
C211 O227 1.242 . S
C212 C211 1.506 . S
C212 C213 1.358 . S
C212 C217 1.382 . S
C213 C212 1.358 . S
C213 C214 1.385 . S
C213 H236 0.930 . S
C214 C213 1.385 . S
C214 C215 1.395 . S
C214 H237 0.929 1_545 S
C215 C214 1.395 . S
C215 C216 1.335 . S
C216 C215 1.335 . S
C216 C217 1.398 . S
C216 H238 0.930 . S
C217 C212 1.382 . S
C217 C216 1.398 . S
C217 H239 0.929 . S
C218 O228 1.271 . S
C218 O229 1.251 . S
C219 O230 1.252 . S
C219 O231 1.272 . S
O220 Sm200 2.543 . S
O220 C202 1.261 . S
O221 Sm200 2.450 . S
O221 C202 1.242 . S
O222 Sm200 2.681 . S
O222 Sm201 2.386 . S
O222 C209 1.271 . S
O223 Sm200 2.464 . S
O223 C209 1.251 . S
O224 Sm200 2.396 . S
O224 C210 1.252 . S
O225 Sm201 2.408 . S
O225 C210 1.272 . S
O226 Sm201 2.543 . S
O226 C211 1.261 . S
O227 Sm201 2.450 . S
O227 C211 1.242 . S
O228 Sm200 2.386 . S
O228 Sm201 2.681 . S
O228 C218 1.271 . S
O229 Sm201 2.464 . S
O229 C218 1.251 . S
O230 Sm201 2.396 . S
O230 C219 1.252 . S
O231 Sm200 2.408 . S
O231 C219 1.272 . S
H232 C204 0.930 . S
H233 C205 0.929 . S
H234 C207 0.930 . S
H235 C208 0.929 . S
H236 C213 0.930 . S
H237 C214 0.929 1_565 S
H238 C216 0.930 . S
H239 C217 0.929 . S
H240 C246 0.930 . S
H241 C250 0.930 . S
H242 C255 0.929 . S
H243 C253 0.929 . S
H244 C248 0.929 . S
H245 C254 0.929 . S
C246 H240 0.930 . S
C246 C247 1.367 . S
C246 C254 1.378 . S
C247 C246 1.367 . S
C247 C255 1.433 . S
C248 H244 0.929 . S
C248 C250 1.378 . S
C248 C252 1.350 . S
C249 C252 1.463 . S
C249 C254 1.350 . S
C249 N257 1.427 . S
C250 H241 0.930 . S
C250 C248 1.378 . S
C250 C251 1.367 . S
C251 C250 1.367 . S
C251 C253 1.433 . S
C252 C248 1.350 . S
C252 C249 1.463 . S
C252 N256 1.427 . S
C253 H243 0.929 . S
C253 C251 1.433 . S
C253 N256 1.384 . S
C254 H245 0.929 . S
C254 C246 1.378 . S
C254 C249 1.350 . S
C255 H242 0.929 . S
C255 C247 1.433 . S
C255 N257 1.384 . S
N256 C252 1.427 . S
N256 C253 1.384 . S
N257 C249 1.427 . S
N257 C255 1.384 . S
H258 C264 0.930 . S
H259 C268 0.930 . S
H260 C273 0.929 . S
H261 C271 0.929 . S
H262 C266 0.929 . S
H263 C272 0.929 . S
C264 H258 0.930 . S
C264 C265 1.367 . S
C264 C272 1.378 . S
C265 C264 1.367 . S
C265 C273 1.433 . S
C266 H262 0.929 . S
C266 C268 1.378 . S
C266 C270 1.350 . S
C267 C270 1.463 . S
C267 C272 1.350 . S
C267 N275 1.427 . S
C268 H259 0.930 . S
C268 C266 1.378 . S
C268 C269 1.367 . S
C269 C268 1.367 . S
C269 C271 1.433 . S
C270 C266 1.350 . S
C270 C267 1.463 . S
C270 N274 1.427 . S
C271 H261 0.929 . S
C271 C269 1.433 . S
C271 N274 1.384 . S
C272 H263 0.929 . S
C272 C264 1.378 . S
C272 C267 1.350 . S
C273 H260 0.929 . S
C273 C265 1.433 . S
C273 N275 1.384 . S
N274 C270 1.427 . S
N274 C271 1.384 . S
N275 C267 1.427 . S
N275 C273 1.384 . S
H276 C282 0.930 . S
H277 C286 0.930 . S
H278 C291 0.929 . S
H279 C289 0.929 . S
H280 C284 0.929 . S
H281 C290 0.929 . S
C282 H276 0.930 . S
C282 C283 1.367 . S
C282 C290 1.378 . S
C283 C282 1.367 . S
C283 C291 1.433 . S
C284 H280 0.929 . S
C284 C286 1.378 . S
C284 C288 1.350 . S
C285 C288 1.463 . S
C285 C290 1.350 . S
C285 N293 1.427 . S
C286 H277 0.930 . S
C286 C284 1.378 . S
C286 C287 1.367 . S
C287 C286 1.367 . S
C287 C289 1.433 . S
C288 C284 1.350 . S
C288 C285 1.463 . S
C288 N292 1.427 . S
C289 H279 0.929 . S
C289 C287 1.433 . S
C289 N292 1.384 . S
C290 H281 0.929 . S
C290 C282 1.378 . S
C290 C285 1.350 . S
C291 H278 0.929 . S
C291 C283 1.433 . S
C291 N293 1.384 . S
N292 C288 1.427 . S
N292 C289 1.384 . S
N293 C285 1.427 . S
N293 C291 1.384 . S
H294 C300 0.930 . S
H295 C304 0.930 . S
H296 C309 0.929 . S
H297 C307 0.929 . S
H298 C302 0.929 . S
H299 C308 0.929 . S
C300 H294 0.930 . S
C300 C301 1.367 . S
C300 C308 1.378 . S
C301 C300 1.367 . S
C301 C309 1.433 . S
C302 H298 0.929 . S
C302 C304 1.378 . S
C302 C306 1.350 . S
C303 C306 1.463 . S
C303 C308 1.350 . S
C303 N311 1.427 . S
C304 H295 0.930 . S
C304 C302 1.378 . S
C304 C305 1.367 . S
C305 C304 1.367 . S
C305 C307 1.433 . S
C306 C302 1.350 . S
C306 C303 1.463 . S
C306 N310 1.427 . S
C307 H297 0.929 . S
C307 C305 1.433 . S
C307 N310 1.384 . S
C308 H299 0.929 . S
C308 C300 1.378 . S
C308 C303 1.350 . S
C309 H296 0.929 . S
C309 C301 1.433 . S
C309 N311 1.384 . S
N310 C306 1.427 . S
N310 C307 1.384 . S
N311 C303 1.427 . S
N311 C309 1.384 . S
H312 C318 0.930 . S
H313 C322 0.930 . S
H314 C327 0.929 . S
H315 C325 0.929 . S
H316 C320 0.929 . S
H317 C326 0.929 . S
C318 H312 0.930 . S
C318 C319 1.367 . S
C318 C326 1.378 . S
C319 C318 1.367 . S
C319 C327 1.433 . S
C320 H316 0.929 . S
C320 C322 1.378 . S
C320 C324 1.350 . S
C321 C324 1.463 . S
C321 C326 1.350 . S
C321 N329 1.427 . S
C322 H313 0.930 . S
C322 C320 1.378 . S
C322 C323 1.367 . S
C323 C322 1.367 . S
C323 C325 1.433 . S
C324 C320 1.350 . S
C324 C321 1.463 . S
C324 N328 1.427 . S
C325 H315 0.929 . S
C325 C323 1.433 . S
C325 N328 1.384 . S
C326 H317 0.929 . S
C326 C318 1.378 . S
C326 C321 1.350 . S
C327 H314 0.929 . S
C327 C319 1.433 . S
C327 N329 1.384 . S
N328 C324 1.427 . S
N328 C325 1.384 . S
N329 C321 1.427 . S
N329 C327 1.384 . S
H330 C336 0.930 . S
H331 C340 0.930 . S
H332 C345 0.929 . S
H333 C343 0.929 . S
H334 C338 0.929 . S
H335 C344 0.929 . S
C336 H330 0.930 . S
C336 C337 1.367 . S
C336 C344 1.378 . S
C337 C336 1.367 . S
C337 C345 1.433 . S
C338 H334 0.929 . S
C338 C340 1.378 . S
C338 C342 1.350 . S
C339 C342 1.463 . S
C339 C344 1.350 . S
C339 N347 1.427 . S
C340 H331 0.930 . S
C340 C338 1.378 . S
C340 C341 1.367 . S
C341 C340 1.367 . S
C341 C343 1.433 . S
C342 C338 1.350 . S
C342 C339 1.463 . S
C342 N346 1.427 . S
C343 H333 0.929 . S
C343 C341 1.433 . S
C343 N346 1.384 . S
C344 H335 0.929 . S
C344 C336 1.378 . S
C344 C339 1.350 . S
C345 H332 0.929 . S
C345 C337 1.433 . S
C345 N347 1.384 . S
N346 C342 1.427 . S
N346 C343 1.384 . S
N347 C339 1.427 . S
N347 C345 1.384 . S
H348 C354 0.930 . S
H349 C358 0.930 . S
H350 C363 0.929 . S
H351 C361 0.929 . S
H352 C356 0.929 . S
H353 C362 0.929 . S
C354 H348 0.930 . S
C354 C355 1.367 . S
C354 C362 1.378 . S
C355 C354 1.367 . S
C355 C363 1.433 . S
C356 H352 0.929 . S
C356 C358 1.378 . S
C356 C360 1.350 . S
C357 C360 1.463 . S
C357 C362 1.350 . S
C357 N365 1.427 . S
C358 H349 0.930 . S
C358 C356 1.378 . S
C358 C359 1.367 . S
C359 C358 1.367 . S
C359 C361 1.433 . S
C360 C356 1.350 . S
C360 C357 1.463 . S
C360 N364 1.427 . S
C361 H351 0.929 . S
C361 C359 1.433 . S
C361 N364 1.384 . S
C362 H353 0.929 . S
C362 C354 1.378 . S
C362 C357 1.350 . S
C363 H350 0.929 . S
C363 C355 1.433 . S
C363 N365 1.384 . S
N364 C360 1.427 . S
N364 C361 1.384 . S
N365 C357 1.427 . S
N365 C363 1.384 . S
H366 C372 0.930 . S
H367 C376 0.930 . S
H368 C381 0.929 . S
H369 C379 0.929 . S
H370 C374 0.929 . S
H371 C380 0.929 . S
C372 H366 0.930 . S
C372 C373 1.367 . S
C372 C380 1.378 . S
C373 C372 1.367 . S
C373 C381 1.433 . S
C374 H370 0.929 . S
C374 C376 1.378 . S
C374 C378 1.350 . S
C375 C378 1.463 1_455 S
C375 C380 1.350 . S
C375 N383 1.427 . S
C376 H367 0.930 . S
C376 C374 1.378 . S
C376 C377 1.367 . S
C377 C376 1.367 . S
C377 C379 1.433 . S
C378 C374 1.350 . S
C378 C375 1.463 1_655 S
C378 N382 1.427 . S
C379 H369 0.929 . S
C379 C377 1.433 . S
C379 N382 1.384 . S
C380 H371 0.929 . S
C380 C372 1.378 . S
C380 C375 1.350 . S
C381 H368 0.929 . S
C381 C373 1.433 . S
C381 N383 1.384 . S
N382 C378 1.427 . S
N382 C379 1.384 . S
N383 C375 1.427 . S
N383 C381 1.384 . S
H384 C390 0.930 . S
H385 C394 0.930 . S
H386 C399 0.929 . S
H387 C397 0.929 . S
H388 C392 0.929 . S
H389 C398 0.929 . S
C390 H384 0.930 . S
C390 C391 1.367 . S
C390 C398 1.378 . S
C391 C390 1.367 . S
C391 C399 1.433 . S
C392 H388 0.929 . S
C392 C394 1.378 . S
C392 C396 1.350 . S
C393 C396 1.463 1_545 S
C393 C398 1.350 . S
C393 N401 1.427 . S
C394 H385 0.930 . S
C394 C392 1.378 . S
C394 C395 1.367 . S
C395 C394 1.367 . S
C395 C397 1.433 . S
C396 C392 1.350 . S
C396 C393 1.463 1_565 S
C396 N400 1.427 . S
C397 H387 0.929 . S
C397 C395 1.433 . S
C397 N400 1.384 . S
C398 H389 0.929 . S
C398 C390 1.378 . S
C398 C393 1.350 . S
C399 H386 0.929 . S
C399 C391 1.433 . S
C399 N401 1.384 . S
N400 C396 1.427 . S
N400 C397 1.384 . S
N401 C393 1.427 . S
N401 C399 1.384 . S
H402 C408 0.930 . S
H403 C412 0.930 . S
H404 C417 0.929 . S
H405 C415 0.929 . S
H406 C410 0.929 . S
H407 C416 0.929 . S
C408 H402 0.930 . S
C408 C409 1.367 . S
C408 C416 1.378 . S
C409 C408 1.367 . S
C409 C417 1.433 . S
C410 H406 0.929 . S
C410 C412 1.378 . S
C410 C414 1.350 . S
C411 C414 1.463 . S
C411 C416 1.350 . S
C411 N419 1.427 . S
C412 H403 0.930 . S
C412 C410 1.378 . S
C412 C413 1.367 . S
C413 C412 1.367 . S
C413 C415 1.433 . S
C414 C410 1.350 . S
C414 C411 1.463 . S
C414 N418 1.427 . S
C415 H405 0.929 . S
C415 C413 1.433 . S
C415 N418 1.384 . S
C416 H407 0.929 . S
C416 C408 1.378 . S
C416 C411 1.350 . S
C417 H404 0.929 . S
C417 C409 1.433 . S
C417 N419 1.384 . S
N418 C414 1.427 . S
N418 C415 1.384 . S
N419 C411 1.427 . S
N419 C417 1.384 . S
H420 C426 0.930 1_556 S
H421 C430 0.930 . S
H422 C435 0.929 . S
H423 C433 0.929 1_556 S
H424 C428 0.929 1_455 S
H425 C434 0.929 1_656 S
C426 H420 0.930 1_554 S
C426 C427 1.367 . S
C426 C434 1.378 . S
C427 C426 1.367 . S
C427 C435 1.433 . S
C428 H424 0.929 1_655 S
C428 C430 1.378 . S
C428 C432 1.350 . S
C429 C432 1.463 1_455 S
C429 C434 1.350 . S
C429 N437 1.427 . S
C430 H421 0.930 . S
C430 C428 1.378 . S
C430 C431 1.367 . S
C431 C430 1.367 . S
C431 C433 1.433 . S
C432 C428 1.350 . S
C432 C429 1.463 1_655 S
C432 N436 1.427 . S
C433 H423 0.929 1_554 S
C433 C431 1.433 . S
C433 N436 1.384 . S
C434 H425 0.929 1_454 S
C434 C426 1.378 . S
C434 C429 1.350 . S
C435 H422 0.929 . S
C435 C427 1.433 . S
C435 N437 1.384 . S
N436 C432 1.427 . S
N436 C433 1.384 . S
N437 C429 1.427 . S
N437 C435 1.384 . S
H438 C444 0.930 . S
H439 C448 0.930 . S
H440 C453 0.929 . S
H441 C451 0.929 . S
H442 C446 0.929 . S
H443 C452 0.929 . S
C444 H438 0.930 . S
C444 C445 1.367 . S
C444 C452 1.378 . S
C445 C444 1.367 . S
C445 C453 1.433 . S
C446 H442 0.929 . S
C446 C448 1.378 . S
C446 C450 1.350 . S
C447 C450 1.463 1_565 S
C447 C452 1.350 . S
C447 N455 1.427 . S
C448 H439 0.930 . S
C448 C446 1.378 . S
C448 C449 1.367 . S
C449 C448 1.367 . S
C449 C451 1.433 . S
C450 C446 1.350 . S
C450 C447 1.463 1_545 S
C450 N454 1.427 . S
C451 H441 0.929 . S
C451 C449 1.433 . S
C451 N454 1.384 . S
C452 H443 0.929 . S
C452 C444 1.378 . S
C452 C447 1.350 . S
C453 H440 0.929 . S
C453 C445 1.433 . S
C453 N455 1.384 . S
N454 C450 1.427 . S
N454 C451 1.384 . S
N455 C447 1.427 . S
N455 C453 1.384 . S
H456 C462 0.930 . S
H457 C466 0.930 . S
H458 C471 0.929 . S
H459 C469 0.929 . S
H460 C464 0.929 . S
H461 C470 0.929 . S
C462 H456 0.930 . S
C462 C463 1.367 . S
C462 C470 1.378 . S
C463 C462 1.367 . S
C463 C471 1.433 . S
C464 H460 0.929 . S
C464 C466 1.378 . S
C464 C468 1.350 . S
C465 C468 1.463 . S
C465 C470 1.350 . S
C465 N473 1.427 . S
C466 H457 0.930 . S
C466 C464 1.378 . S
C466 C467 1.367 . S
C467 C466 1.367 . S
C467 C469 1.433 . S
C468 C464 1.350 . S
C468 C465 1.463 . S
C468 N472 1.427 . S
C469 H459 0.929 . S
C469 C467 1.433 . S
C469 N472 1.384 . S
C470 H461 0.929 . S
C470 C462 1.378 . S
C470 C465 1.350 . S
C471 H458 0.929 . S
C471 C463 1.433 . S
C471 N473 1.384 . S
N472 C468 1.427 . S
N472 C469 1.384 . S
N473 C465 1.427 . S
N473 C471 1.384 . S
H474 C480 0.930 . S
H475 C484 0.930 . S
H476 C489 0.929 . S
H477 C487 0.929 . S
H478 C482 0.929 . S
H479 C488 0.929 . S
C480 H474 0.930 . S
C480 C481 1.367 . S
C480 C488 1.378 . S
C481 C480 1.367 . S
C481 C489 1.433 1_655 S
C482 H478 0.929 . S
C482 C484 1.378 . S
C482 C486 1.350 . S
C483 C486 1.463 . S
C483 C488 1.350 1_455 S
C483 N491 1.427 . S
C484 H475 0.930 . S
C484 C482 1.378 . S
C484 C485 1.367 . S
C485 C484 1.367 . S
C485 C487 1.433 . S
C486 C482 1.350 . S
C486 C483 1.463 . S
C486 N490 1.427 . S
C487 H477 0.929 . S
C487 C485 1.433 . S
C487 N490 1.384 . S
C488 H479 0.929 . S
C488 C480 1.378 . S
C488 C483 1.350 1_655 S
C489 H476 0.929 . S
C489 C481 1.433 1_455 S
C489 N491 1.384 . S
N490 C486 1.427 . S
N490 C487 1.384 . S
N491 C483 1.427 . S
N491 C489 1.384 . S
H492 C498 0.930 . S
H493 C502 0.930 . S
H494 C507 0.929 . S
H495 C505 0.929 . S
H496 C500 0.917 1_565 S
H497 C506 0.929 . S
C498 H492 0.930 . S
C498 C499 1.367 1_545 S
C498 C506 1.378 . S
C499 C498 1.367 1_565 S
C499 C507 1.433 . S
C500 H496 0.917 1_545 S
C500 C502 1.378 . S
C500 C504 1.350 . S
C501 C504 1.463 . S
C501 C506 1.350 . S
C501 N509 1.427 1_545 S
C502 H493 0.930 . S
C502 C500 1.378 . S
C502 C503 1.367 . S
C503 C502 1.367 . S
C503 C505 1.433 . S
C504 C500 1.350 . S
C504 C501 1.463 . S
C504 N508 1.427 . S
C505 H495 0.929 . S
C505 C503 1.433 . S
C505 N508 1.384 . S
C506 H497 0.929 . S
C506 C498 1.378 . S
C506 C501 1.350 . S
C507 H494 0.929 . S
C507 C499 1.433 . S
C507 N509 1.384 . S
N508 C504 1.427 . S
N508 C505 1.384 . S
N509 C501 1.427 1_565 S
N509 C507 1.384 . S
H510 C516 0.930 . S
H511 C520 0.930 . S
H512 C525 0.929 . S
H513 C523 0.929 . S
H514 C518 0.929 . S
H515 C524 0.929 . S
C516 H510 0.930 . S
C516 C517 1.367 . S
C516 C524 1.378 . S
C517 C516 1.367 . S
C517 C525 1.433 . S
C518 H514 0.929 . S
C518 C520 1.378 . S
C518 C522 1.350 . S
C519 C522 1.463 . S
C519 C524 1.350 . S
C519 N527 1.427 . S
C520 H511 0.930 . S
C520 C518 1.378 . S
C520 C521 1.367 . S
C521 C520 1.367 . S
C521 C523 1.433 . S
C522 C518 1.350 . S
C522 C519 1.463 . S
C522 N526 1.427 . S
C523 H513 0.929 . S
C523 C521 1.433 . S
C523 N526 1.384 . S
C524 H515 0.929 . S
C524 C516 1.378 . S
C524 C519 1.350 . S
C525 H512 0.929 . S
C525 C517 1.433 . S
C525 N527 1.384 . S
N526 C522 1.427 . S
N526 C523 1.384 . S
N527 C519 1.427 . S
N527 C525 1.384 . S
H528 C534 0.930 . S
H529 C538 0.930 . S
H530 C543 0.929 . S
H531 C541 0.929 . S
H532 C536 0.929 . S
H533 C542 0.929 . S
C534 H528 0.930 . S
C534 C535 1.367 . S
C534 C542 1.378 . S
C535 C534 1.367 . S
C535 C543 1.433 1_455 S
C536 H532 0.929 . S
C536 C538 1.378 . S
C536 C540 1.350 . S
C537 C540 1.463 . S
C537 C542 1.350 1_655 S
C537 N545 1.427 . S
C538 H529 0.930 . S
C538 C536 1.378 . S
C538 C539 1.367 . S
C539 C538 1.367 . S
C539 C541 1.433 . S
C540 C536 1.350 . S
C540 C537 1.463 . S
C540 N544 1.427 . S
C541 H531 0.929 . S
C541 C539 1.433 . S
C541 N544 1.384 . S
C542 H533 0.929 . S
C542 C534 1.378 . S
C542 C537 1.350 1_455 S
C543 H530 0.929 . S
C543 C535 1.433 1_655 S
C543 N545 1.384 . S
N544 C540 1.427 . S
N544 C541 1.384 . S
N545 C537 1.427 . S
N545 C543 1.384 . S
H546 C552 0.930 . S
H547 C556 0.930 . S
H548 C561 0.929 . S
H549 C559 0.929 . S
H550 C554 0.929 . S
H551 C560 0.929 1_545 S
C552 H546 0.930 . S
C552 C553 1.367 . S
C552 C560 1.378 1_545 S
C553 C552 1.367 . S
C553 C561 1.433 1_545 S
C554 H550 0.929 . S
C554 C556 1.378 . S
C554 C558 1.350 . S
C555 C558 1.463 . S
C555 C560 1.350 . S
C555 N563 1.427 . S
C556 H547 0.930 . S
C556 C554 1.378 . S
C556 C557 1.367 . S
C557 C556 1.367 . S
C557 C559 1.433 . S
C558 C554 1.350 . S
C558 C555 1.463 . S
C558 N562 1.427 . S
C559 H549 0.929 . S
C559 C557 1.433 . S
C559 N562 1.384 . S
C560 H551 0.929 1_565 S
C560 C552 1.378 1_565 S
C560 C555 1.350 . S
C561 H548 0.929 . S
C561 C553 1.433 1_565 S
C561 N563 1.384 . S
N562 C558 1.427 . S
N562 C559 1.384 . S
N563 C555 1.427 . S
N563 C561 1.384 . S
C247 C179 1.181 . S
C251 C6 1.185 . S
C265 C219 1.174 . S
C269 C46 1.184 . S
C283 C19 1.173 . S
C287 C86 1.184 . S
C301 C59 1.174 . S
C305 C126 1.183 . S
C319 C99 1.181 . S
C323 C166 1.184 . S
C337 C139 1.180 . S
C341 C206 1.185 . S
C355 C9 0.907 . S
C359 C129 0.912 . S
C373 C169 0.900 . S
C377 C49 0.896 . S
C391 C209 0.911 . S
C395 C89 0.906 . S
C409 C98 1.015 . S
C413 C218 1.011 . S
C427 C18 1.015 . S
C431 C138 1.018 . S
C445 C178 1.016 . S
C449 C58 1.013 . S
C463 C210 1.306 . S
C467 C15 1.279 . S
C481 C55 1.282 . S
C485 C10 1.303 . S
C499 C95 1.282 . S
C503 C50 1.306 . S
C517 C90 1.306 . S
C521 C135 1.281 . S
C535 C175 1.284 . S
C539 C130 1.304 . S
C553 C215 1.274 . S
C557 C170 1.302 . S
