# Generated by pormake.
# Topology snk, (6)-cn, num edge types: 1
# Building blocks:
#     Node 0, Type 0, BuildingBlock: BETFAJ_clean_sbu_0, # of connection points: 6
#     Node 1, Type 0, BuildingBlock: BETFAJ_clean_sbu_0, # of connection points: 6
#     Node 2, Type 0, BuildingBlock: BETFAJ_clean_sbu_0, # of connection points: 6
#     Node 3, Type 0, BuildingBlock: BETFAJ_clean_sbu_0, # of connection points: 6
#     Node 4, Type 0, BuildingBlock: BETFAJ_clean_sbu_0, # of connection points: 6
#     Node 5, Type 0, BuildingBlock: BETFAJ_clean_sbu_0, # of connection points: 6
#     Node 6, Type 0, BuildingBlock: BETFAJ_clean_sbu_0, # of connection points: 6
#     Node 7, Type 0, BuildingBlock: BETFAJ_clean_sbu_0, # of connection points: 6
#     Edge 8, Type (0, 0), BuildingBlock: ZUJKAS_clean_linker_0, # of connection points: 2
#     Edge 9, Type (0, 0), BuildingBlock: ZUJKAS_clean_linker_0, # of connection points: 2
#     Edge 10, Type (0, 0), BuildingBlock: ZUJKAS_clean_linker_0, # of connection points: 2
#     Edge 11, Type (0, 0), BuildingBlock: ZUJKAS_clean_linker_0, # of connection points: 2
#     Edge 12, Type (0, 0), BuildingBlock: ZUJKAS_clean_linker_0, # of connection points: 2
#     Edge 13, Type (0, 0), BuildingBlock: ZUJKAS_clean_linker_0, # of connection points: 2
#     Edge 14, Type (0, 0), BuildingBlock: ZUJKAS_clean_linker_0, # of connection points: 2
#     Edge 15, Type (0, 0), BuildingBlock: ZUJKAS_clean_linker_0, # of connection points: 2
#     Edge 16, Type (0, 0), BuildingBlock: ZUJKAS_clean_linker_0, # of connection points: 2
#     Edge 17, Type (0, 0), BuildingBlock: ZUJKAS_clean_linker_0, # of connection points: 2
#     Edge 18, Type (0, 0), BuildingBlock: ZUJKAS_clean_linker_0, # of connection points: 2
#     Edge 19, Type (0, 0), BuildingBlock: ZUJKAS_clean_linker_0, # of connection points: 2
#     Edge 20, Type (0, 0), BuildingBlock: ZUJKAS_clean_linker_0, # of connection points: 2
#     Edge 21, Type (0, 0), BuildingBlock: ZUJKAS_clean_linker_0, # of connection points: 2
#     Edge 22, Type (0, 0), BuildingBlock: ZUJKAS_clean_linker_0, # of connection points: 2
#     Edge 23, Type (0, 0), BuildingBlock: ZUJKAS_clean_linker_0, # of connection points: 2
#     Edge 24, Type (0, 0), BuildingBlock: ZUJKAS_clean_linker_0, # of connection points: 2
#     Edge 25, Type (0, 0), BuildingBlock: ZUJKAS_clean_linker_0, # of connection points: 2
#     Edge 26, Type (0, 0), BuildingBlock: ZUJKAS_clean_linker_0, # of connection points: 2
#     Edge 27, Type (0, 0), BuildingBlock: ZUJKAS_clean_linker_0, # of connection points: 2
#     Edge 28, Type (0, 0), BuildingBlock: ZUJKAS_clean_linker_0, # of connection points: 2
#     Edge 29, Type (0, 0), BuildingBlock: ZUJKAS_clean_linker_0, # of connection points: 2
#     Edge 30, Type (0, 0), BuildingBlock: ZUJKAS_clean_linker_0, # of connection points: 2
#     Edge 31, Type (0, 0), BuildingBlock: ZUJKAS_clean_linker_0, # of connection points: 2
# Relax obj value: 0.080
# Max RMSD: 0.134
# Mean RMSD: 0.118
data_MOF--net-snk--node1-BETFAJ_clean_sbu_0--edge1-ZUJKAS_clean_linker_0
_symmetry_space_group_name_H-M    P1
_symmetry_Int_Tables_number       1
_symmetry_cell_setting            triclinic
loop_
_symmetry_equiv_pos_as_xyz
'x, y, z'
_cell_length_a     50.177642
_cell_length_b     50.154781
_cell_length_c     30.138037
_cell_angle_alpha  83.116323
_cell_angle_beta   96.818655
_cell_angle_gamma 88.96537
loop_
_atom_site_label
_atom_site_type_symbol
_atom_site_fract_x
_atom_site_fract_y
_atom_site_fract_z
_atom_type_partial_charge
Sm0 Sm 0.98966 1.00102 0.46806 0.0
Sm1 Sm 0.01938 0.00688 0.56405 0.0
C2 C 0.96498 0.00825 0.38439 0.0
C3 C 0.97156 0.00974 0.33776 0.0
C4 C 0.95319 0.02216 0.30235 0.0
C5 C 0.95822 0.02229 0.25762 0.0
C6 C 0.98178 0.00993 0.24734 0.0
C7 C 1.00047 0.99802 0.28316 0.0
C8 C 0.99542 0.99795 0.32792 0.0
C9 C 0.02838 0.96225 0.50147 0.0
C10 C 0.04446 0.03702 0.47869 0.0
C11 C 0.04402 0.99977 0.64774 0.0
C12 C 0.0374 0.99824 0.69435 0.0
C13 C 0.05578 0.98587 0.72979 0.0
C14 C 0.05071 0.98573 0.7745 0.0
C15 C 0.02712 0.99805 0.78474 0.0
C16 C 0.00842 0.00991 0.74889 0.0
C17 C 0.0135 0.00998 0.70414 0.0
C18 C 0.98055 0.04559 0.53049 0.0
C19 C 0.96458 0.97088 0.55338 0.0
O20 O 0.97234 0.02817 0.40698 0.0
O21 O 0.96872 0.98476 0.4087 0.0
O22 O 0.02982 0.9868 0.50555 0.0
O23 O 0.00697 0.95752 0.4754 0.0
O24 O 0.02137 0.03311 0.45446 0.0
O25 O 0.05056 0.02505 0.52034 0.0
O26 O 0.03677 0.97981 0.62515 0.0
O27 O 0.04019 0.02324 0.62341 0.0
O28 O 0.97925 0.02102 0.52664 0.0
O29 O 1.00198 0.05042 0.55644 0.0
O30 O 0.98768 0.97478 0.57762 0.0
O31 O 0.95848 0.98288 0.51176 0.0
H32 H 0.93472 0.03148 0.30927 0.0
H33 H 0.94361 0.03209 0.23108 0.0
H34 H 0.01869 0.98809 0.27662 0.0
H35 H 0.0099 0.98826 0.35481 0.0
H36 H 0.07428 0.9766 0.72291 0.0
H37 H 0.06533 0.97597 0.80107 0.0
H38 H 0.99017 0.01979 0.75539 0.0
H39 H 0.99902 0.01963 0.67723 0.0
Sm40 Sm 0.26042 0.74048 0.79958 0.0
Sm41 Sm 0.2654 0.77063 0.70344 0.0
C42 C 0.26835 0.7156 0.88317 0.0
C43 C 0.26982 0.72188 0.9299 0.0
C44 C 0.27522 0.7011 0.96547 0.0
C45 C 0.27504 0.70624 1.01006 0.0
C46 C 0.26939 0.73232 0.02002 0.0
C47 C 0.26454 0.75326 0.98415 0.0
C48 C 0.26471 0.74807 0.93947 0.0
C49 C 0.22037 0.77787 0.76612 0.0
C50 C 0.29426 0.7967 0.7888 0.0
C51 C 0.25776 0.79468 0.61935 0.0
C52 C 0.25731 0.78764 0.57302 0.0
C53 C 0.23964 0.80163 0.53807 0.0
C54 C 0.23989 0.79625 0.49357 0.0
C55 C 0.25795 0.77681 0.48308 0.0
C56 C 0.27534 0.76249 0.51838 0.0
C57 C 0.27496 0.76777 0.5629 0.0
C58 C 0.30532 0.73304 0.73693 0.0
C59 C 0.23079 0.71483 0.71473 0.0
O60 O 0.28797 0.72368 0.86034 0.0
O61 O 0.24475 0.71904 0.85929 0.0
O62 O 0.24482 0.78023 0.76191 0.0
O63 O 0.21641 0.75626 0.7924 0.0
O64 O 0.29112 0.7734 0.81308 0.0
O65 O 0.28227 0.80246 0.74708 0.0
O66 O 0.23799 0.78636 0.64165 0.0
O67 O 0.28106 0.79265 0.64432 0.0
O68 O 0.28083 0.73088 0.74091 0.0
O69 O 0.30941 0.75468 0.71083 0.0
O70 O 0.23407 0.73811 0.69043 0.0
O71 O 0.24311 0.70887 0.75614 0.0
H72 H 0.27926 0.68077 0.95873 0.0
H73 H 0.27933 0.68972 0.03676 0.0
H74 H 0.2599 0.77353 0.99048 0.0
H75 H 0.26042 0.76438 0.91236 0.0
H76 H 0.22589 0.81705 0.54512 0.0
H77 H 0.22639 0.80781 0.46723 0.0
H78 H 0.28921 0.74711 0.51162 0.0
H79 H 0.28866 0.75653 0.58934 0.0
Sm80 Sm 0.51713 0.99389 0.06025 0.0
Sm81 Sm 0.4953 0.01943 0.96509 0.0
C82 C 0.53719 0.98333 0.14626 0.0
C83 C 0.53117 0.98663 0.19211 0.0
C84 C 0.52002 0.0107 0.20242 0.0
C85 C 0.51579 0.01352 0.24681 0.0
C86 C 0.52261 0.99232 0.28169 0.0
C87 C 0.53325 0.9681 0.27082 0.0
C88 C 0.53752 0.96534 0.22659 0.0
C89 C 0.47864 0.96532 0.01564 0.0
C90 C 0.46682 0.03946 0.04651 0.0
C91 C 0.47523 0.03 0.87908 0.0
C92 C 0.48103 0.0264 0.83323 0.0
C93 C 0.49193 1.00216 0.82313 0.0
C94 C 0.49599 0.99909 0.77876 0.0
C95 C 0.48925 0.02021 0.7437 0.0
C96 C 0.47884 0.04458 0.75435 0.0
C97 C 0.47474 0.04759 0.79856 0.0
C98 C 0.53369 0.04813 1.00964 0.0
C99 C 0.5456 0.97371 0.97919 0.0
O100 O 0.54252 1.00494 0.1203 0.0
O101 O 0.52274 0.96645 0.12464 0.0
O102 O 0.47804 0.99045 0.01573 0.0
O103 O 0.49938 0.95412 0.04146 0.0
O104 O 0.48705 0.02689 0.07371 0.0
O105 O 0.46336 0.03706 1.003 0.0
O106 O 0.46957 0.0086 0.90522 0.0
O107 O 0.49007 0.04668 0.90048 0.0
O108 O 0.53444 0.02298 1.00954 0.0
O109 O 0.51289 0.0592 0.98384 0.0
O110 O 0.52531 0.98615 0.95188 0.0
O111 O 0.54913 0.97643 0.02254 0.0
H112 H 0.51489 0.02743 0.17635 0.0
H113 H 0.50776 0.03252 0.25393 0.0
H114 H 0.53823 0.95116 0.29652 0.0
H115 H 0.54603 0.94656 0.21934 0.0
H116 H 0.497 0.9855 0.84936 0.0
H117 H 0.50385 0.97998 0.7718 0.0
H118 H 0.47392 0.06145 0.72849 0.0
H119 H 0.46643 0.0665 0.80565 0.0
Sm120 Sm 0.24201 0.26526 0.21739 0.0
Sm121 Sm 0.26723 0.24278 0.31227 0.0
C122 C 0.23215 0.2855 0.13133 0.0
C123 C 0.2357 0.2792 0.08568 0.0
C124 C 0.26016 0.26881 0.07553 0.0
C125 C 0.26313 0.26413 0.0314 0.0
C126 C 0.24166 0.26959 0.99667 0.0
C127 C 0.21713 0.27963 1.00725 0.0
C128 C 0.21423 0.28441 0.05122 0.0
C129 C 0.21302 0.22672 0.26101 0.0
C130 C 0.2873 0.21459 0.23086 0.0
C131 C 0.27759 0.22285 0.39842 0.0
C132 C 0.27404 0.22922 0.44403 0.0
C133 C 0.24959 0.23971 0.45409 0.0
C134 C 0.24663 0.24448 0.49817 0.0
C135 C 0.26808 0.23903 0.53293 0.0
C136 C 0.2926 0.2289 0.52243 0.0
C137 C 0.29549 0.22402 0.4785 0.0
C138 C 0.29606 0.28126 0.26817 0.0
C139 C 0.22193 0.29344 0.2988 0.0
O140 O 0.25366 0.29063 0.15766 0.0
O141 O 0.21491 0.27139 0.1527 0.0
O142 O 0.23817 0.22591 0.26127 0.0
O143 O 0.20208 0.24764 0.23531 0.0
O144 O 0.275 0.2351 0.20392 0.0
O145 O 0.28461 0.21081 0.27425 0.0
O146 O 0.25613 0.21734 0.37235 0.0
O147 O 0.29454 0.2372 0.37677 0.0
O148 O 0.27098 0.28216 0.26859 0.0
O149 O 0.30707 0.26012 0.29314 0.0
O150 O 0.2342 0.27292 0.32576 0.0
O151 O 0.22462 0.29719 0.25541 0.0
H152 H 0.27702 0.26446 0.10156 0.0
H153 H 0.28219 0.2561 0.02453 0.0
H154 H 0.2003 0.28439 0.98131 0.0
H155 H 0.19522 0.29252 0.05824 0.0
H156 H 0.23275 0.24406 0.42802 0.0
H157 H 0.22758 0.25258 0.50499 0.0
H158 H 0.30942 0.22415 0.54839 0.0
H159 H 0.31449 0.21586 0.47154 0.0
Sm160 Sm 0.75091 0.244 0.30775 0.0
Sm161 Sm 0.76091 0.27264 0.21257 0.0
C162 C 0.75419 0.21992 0.39162 0.0
C163 C 0.75624 0.22665 0.4381 0.0
C164 C 0.76108 0.20603 0.47403 0.0
C165 C 0.76169 0.2117 0.51846 0.0
C166 C 0.7574 0.23816 0.52784 0.0
C167 C 0.75293 0.25888 0.49157 0.0
C168 C 0.7524 0.25317 0.44708 0.0
C169 C 0.71335 0.28229 0.26717 0.0
C170 C 0.78811 0.29831 0.29986 0.0
C171 C 0.7557 0.29734 0.12891 0.0
C172 C 0.75211 0.29097 0.0822 0.0
C173 C 0.74556 0.31171 0.04688 0.0
C174 C 0.74382 0.30644 1.0021 0.0
C175 C 0.74859 0.28026 0.99176 0.0
C176 C 0.7545 0.25938 0.02748 0.0
C177 C 0.75622 0.26469 0.0723 0.0
C178 C 0.79861 0.2342 0.25163 0.0
C179 C 0.72467 0.21762 0.22096 0.0
O180 O 0.77519 0.22432 0.3701 0.0
O181 O 0.73144 0.22663 0.36639 0.0
O182 O 0.7383 0.2837 0.26769 0.0
O183 O 0.70718 0.26065 0.29145 0.0
O184 O 0.78157 0.2764 0.32487 0.0
O185 O 0.77943 0.30349 0.25642 0.0
O186 O 0.7354 0.29306 0.15212 0.0
O187 O 0.77889 0.29013 0.15238 0.0
O188 O 0.77372 0.23291 0.25268 0.0
O189 O 0.80443 0.25525 0.22554 0.0
O190 O 0.7299 0.24021 0.19627 0.0
O191 O 0.7346 0.21227 0.26385 0.0
H192 H 0.76398 0.18542 0.4677 0.0
H193 H 0.76483 0.1952 0.54541 0.0
H194 H 0.74989 0.27951 0.49759 0.0
H195 H 0.74871 0.26938 0.41968 0.0
H196 H 0.74231 0.33213 0.05393 0.0
H197 H 0.73951 0.32306 0.9756 0.0
H198 H 0.75786 0.23893 0.0208 0.0
H199 H 0.76113 0.24838 0.09922 0.0
Sm200 Sm 0.74314 0.76411 0.72123 0.0
Sm201 Sm 0.76854 0.74238 0.81691 0.0
C202 C 0.7327 0.78447 0.6353 0.0
C203 C 0.73627 0.77887 0.5894 0.0
C204 C 0.75903 0.76474 0.58033 0.0
C205 C 0.76224 0.7607 0.53601 0.0
C206 C 0.74275 0.77074 0.5 0.0
C207 C 0.71982 0.78448 0.50958 0.0
C208 C 0.71665 0.7885 0.55377 0.0
C209 C 0.71479 0.72537 0.76583 0.0
C210 C 0.78907 0.71407 0.7356 0.0
C211 C 0.77889 0.72196 0.90282 0.0
C212 C 0.77536 0.72756 0.94872 0.0
C213 C 0.75263 0.74172 0.95785 0.0
C214 C 0.74948 0.74578 1.00218 0.0
C215 C 0.76898 0.73573 0.03815 0.0
C216 C 0.79189 0.72196 0.02852 0.0
C217 C 0.795 0.71792 0.98432 0.0
C218 C 0.79701 0.78099 0.77232 0.0
C219 C 0.72272 0.79263 0.80226 0.0
O220 O 0.75419 0.78981 0.66143 0.0
O221 O 0.71597 0.76959 0.65659 0.0
O222 O 0.73993 0.72503 0.76595 0.0
O223 O 0.70348 0.74596 0.73972 0.0
O224 O 0.77646 0.73421 0.70818 0.0
O225 O 0.78647 0.7106 0.77905 0.0
O226 O 0.75737 0.71672 0.87666 0.0
O227 O 0.79569 0.73676 0.88156 0.0
O228 O 0.77187 0.78145 0.77223 0.0
O229 O 0.80824 0.76041 0.79857 0.0
O230 O 0.73526 0.77249 0.82982 0.0
O231 O 0.72538 0.79599 0.75885 0.0
H232 H 0.77444 0.75713 0.60737 0.0
H233 H 0.78024 0.75021 0.52986 0.0
H234 H 0.70418 0.79205 0.4829 0.0
H235 H 0.69889 0.79934 0.56011 0.0
H236 H 0.73721 0.74936 0.93083 0.0
H237 H 0.7315 0.75629 1.00837 0.0
H238 H 0.80755 0.71438 0.05516 0.0
H239 H 0.81274 0.70705 0.97794 0.0
Sm240 Sm 0.49235 0.5028 0.97012 0.0
Sm241 Sm 0.51916 0.50901 0.06838 0.0
C242 C 0.46329 0.50452 0.89055 0.0
C243 C 0.46823 0.50484 0.84322 0.0
C244 C 0.44948 0.51761 0.80868 0.0
C245 C 0.45372 0.51784 0.76355 0.0
C246 C 0.47679 0.50521 0.75211 0.0
C247 C 0.49566 0.49261 0.78696 0.0
C248 C 0.49147 0.49252 0.83207 0.0
C249 C 0.53811 0.4718 0.99807 0.0
C250 C 0.54603 0.53757 0.98411 0.0
C251 C 0.54118 0.50232 0.15378 0.0
C252 C 0.53313 0.50057 0.19947 0.0
C253 C 0.55018 0.48711 0.23575 0.0
C254 C 0.54369 0.48642 0.27974 0.0
C255 C 0.52 0.49929 0.28833 0.0
C256 C 0.5027 0.51238 0.25167 0.0
C257 C 0.50916 0.51294 0.20762 0.0
C258 C 0.48521 0.55034 0.02724 0.0
C259 C 0.46372 0.47509 0.05671 0.0
O260 O 0.46969 0.52612 0.90946 0.0
O261 O 0.46985 0.48214 0.91719 0.0
O262 O 0.52041 0.4771 0.02222 0.0
O263 O 0.53061 0.48048 0.95608 0.0
O264 O 0.52218 0.53667 0.96033 0.0
O265 O 0.55177 0.52371 0.02452 0.0
O266 O 0.53511 0.48229 0.13082 0.0
O267 O 0.53755 0.5257 0.12925 0.0
O268 O 0.48173 0.52577 0.02528 0.0
O269 O 0.50658 0.55406 0.05424 0.0
O270 O 0.48114 0.48662 0.08434 0.0
O271 O 0.46423 0.47778 1.01258 0.0
H272 H 0.43146 0.52729 0.81662 0.0
H273 H 0.43867 0.52751 0.73759 0.0
H274 H 0.51383 0.48305 0.77938 0.0
H275 H 0.50637 0.48277 0.85824 0.0
H276 H 0.56878 0.47748 0.23012 0.0
H277 H 0.5576 0.47641 0.30715 0.0
H278 H 0.48413 0.52216 0.25704 0.0
H279 H 0.49561 0.5233 0.17999 0.0
Sm280 Sm 0.01865 0.49317 0.5645 0.0
Sm281 Sm 0.99549 0.51777 0.4695 0.0
C282 C 0.03978 0.48388 0.65019 0.0
C283 C 0.03443 0.48847 0.69581 0.0
C284 C 0.05615 0.48996 0.72912 0.0
C285 C 0.05182 0.49296 0.77326 0.0
C286 C 0.02558 0.49445 0.78517 0.0
C287 C 1.00378 0.49353 0.75132 0.0
C288 C 0.00816 0.4906 0.70703 0.0
C289 C 0.98011 0.4638 0.52202 0.0
C290 C 0.96779 0.53823 0.55112 0.0
C291 C 0.97468 0.52709 0.38366 0.0
C292 C 0.9807 0.52366 0.33778 0.0
C293 C 0.99118 0.49931 0.32734 0.0
C294 C 0.99543 0.49641 0.28298 0.0
C295 C 0.98934 0.51781 0.24818 0.0
C296 C 0.97934 0.54228 0.25916 0.0
C297 C 0.97502 0.54511 0.30337 0.0
C298 C 0.03449 0.54695 0.51169 0.0
C299 C 0.04605 0.47233 0.48282 0.0
O300 O 0.04525 0.50491 0.62308 0.0
O301 O 0.02453 0.46702 0.62989 0.0
O302 O 0.97911 0.48897 0.52165 0.0
O303 O 1.0014 0.45302 0.54688 0.0
O304 O 0.98851 0.52624 0.5779 0.0
O305 O 0.96378 0.53523 0.50788 0.0
O306 O 0.97017 0.50547 0.41032 0.0
O307 O 0.98851 0.54468 0.40458 0.0
O308 O 0.03511 0.52178 0.51221 0.0
O309 O 0.01343 0.55785 0.48637 0.0
O310 O 0.02554 0.48469 0.45599 0.0
O311 O 0.05005 0.47513 0.52614 0.0
H312 H 0.07657 0.48853 0.72106 0.0
H313 H 0.06909 0.49417 0.79805 0.0
H314 H 0.98331 0.49442 0.75922 0.0
H315 H 0.99107 0.48961 0.68174 0.0
H316 H 0.9958 0.48242 0.35329 0.0
H317 H 1.00294 0.4772 0.27583 0.0
H318 H 0.97492 0.55938 0.23359 0.0
H319 H 0.96701 0.56411 0.31066 0.0
H320 H 0.09234 0.0534 0.51881 0.0
H321 H 0.12377 0.08412 0.48489 0.0
H322 H 0.07245 0.09192 0.35845 0.0
H323 H 0.04098 0.06121 0.39179 0.0
H324 H 0.1288 0.08313 0.35224 0.0
H325 H 0.10878 0.16648 0.45137 0.0
H326 H 0.11753 0.13422 0.48322 0.0
H327 H 0.08655 0.1388 0.4463 0.0
C328 C 0.08775 0.06158 0.48375 0.0
C329 C 0.06405 0.05492 0.45811 0.0
C330 C 0.10569 0.07922 0.4645 0.0
C331 C 0.10026 0.09049 0.41934 0.0
C332 C 0.07694 0.08348 0.39342 0.0
H333 H 0.15947 0.22788 0.26743 0.0
H334 H 0.13372 0.19391 0.30754 0.0
C335 C 0.05895 0.06596 0.41262 0.0
C336 C 0.11867 0.10984 0.39894 0.0
H337 H 0.14166 0.17338 0.40171 0.0
C338 C 0.13178 0.10281 0.36318 0.0
C339 C 0.12226 0.13556 0.4131 0.0
C340 C 0.10793 0.14444 0.45037 0.0
C341 C 0.14834 0.1209 0.34102 0.0
C342 C 0.15198 0.14659 0.35525 0.0
C343 C 0.13897 0.15357 0.39115 0.0
C344 C 0.16798 0.16708 0.33166 0.0
C345 C 0.16119 0.11274 0.30169 0.0
C346 C 0.19583 0.16333 0.33234 0.0
C347 C 0.21061 0.18276 0.30946 0.0
C348 C 0.19772 0.20618 0.28558 0.0
C349 C 0.1699 0.20996 0.28536 0.0
C350 C 0.15519 0.19063 0.30834 0.0
H351 H 0.15246 0.09428 0.28978 0.0
H352 H 0.15884 0.12917 0.27319 0.0
H353 H 0.183 0.10873 0.31202 0.0
H354 H 0.20612 0.14545 0.35066 0.0
H355 H 0.23207 0.1794 0.31031 0.0
H356 H 0.07324 0.97004 0.55734 0.0
H357 H 0.10365 0.93565 0.60194 0.0
H358 H 0.05628 0.8736 0.5473 0.0
H359 H 0.0257 0.90801 0.50228 0.0
H360 H 0.08847 0.89347 0.66682 0.0
H361 H 0.13508 0.85581 0.52647 0.0
H362 H 0.11718 0.88787 0.52009 0.0
H363 H 0.09897 0.85738 0.52111 0.0
C364 C 0.06941 0.94907 0.55463 0.0
C365 C 0.04724 0.94156 0.52643 0.0
C366 C 0.08672 0.92952 0.58013 0.0
C367 C 0.08219 0.90224 0.57754 0.0
C368 C 0.06017 0.89463 0.54919 0.0
H369 H 0.16639 0.77301 0.76566 0.0
H370 H 0.13088 0.80205 0.72022 0.0
C371 C 0.04278 0.91423 0.52366 0.0
C372 C 0.10042 0.88188 0.60537 0.0
H373 H 0.14932 0.83478 0.59987 0.0
C374 C 0.10167 0.88045 0.65233 0.0
C375 C 0.11759 0.8652 0.586 0.0
C376 C 0.11741 0.86663 0.53566 0.0
C377 C 0.1201 0.86295 0.68068 0.0
C378 C 0.13739 0.8464 0.66131 0.0
C379 C 0.13584 0.8475 0.61436 0.0
C380 C 0.15843 0.82899 0.68915 0.0
C381 C 0.12163 0.86295 0.731 0.0
C382 C 0.18546 0.83457 0.6862 0.0
C383 C 0.20564 0.81814 0.71196 0.0
C384 C 0.19901 0.7958 0.74078 0.0
C385 C 0.17193 0.79025 0.74383 0.0
C386 C 0.15171 0.80676 0.71804 0.0
H387 H 0.11021 0.88028 0.74007 0.0
H388 H 0.11309 0.84419 0.74598 0.0
H389 H 0.14284 0.86352 0.74627 0.0
H390 H 0.19092 0.85168 0.66396 0.0
H391 H 0.22641 0.82278 0.709 0.0
H392 H 0.31692 0.79424 0.87634 0.0
H393 H 0.34589 0.82674 0.91038 0.0
H394 H 0.33922 0.87738 0.78321 0.0
H395 H 0.31019 0.84484 0.74854 0.0
H396 H 0.39271 0.86774 0.82658 0.0
H397 H 0.32447 0.90139 0.94229 0.0
H398 H 0.32888 0.86553 0.94608 0.0
H399 H 0.31279 0.88404 0.89484 0.0
C400 C 0.32144 0.81234 0.85552 0.0
C401 C 0.31115 0.81694 0.80965 0.0
C402 C 0.33789 0.83098 0.87518 0.0
C403 C 0.3444 0.85463 0.84948 0.0
C404 C 0.33426 0.85932 0.80369 0.0
H405 H 0.43145 0.98481 0.9667 0.0
H406 H 0.39839 0.95971 0.92289 0.0
C407 C 0.31765 0.84072 0.78397 0.0
C408 C 0.36271 0.87381 0.87022 0.0
H409 H 0.37045 0.91293 0.95588 0.0
C410 C 0.38775 0.87784 0.85455 0.0
C411 C 0.35608 0.8872 0.90636 0.0
C412 C 0.329 0.88457 0.92319 0.0
C413 C 0.40677 0.8941 0.87526 0.0
C414 C 0.40062 0.90641 0.91281 0.0
C415 C 0.37519 0.90325 0.92733 0.0
C416 C 0.42072 0.92177 0.93853 0.0
C417 C 0.43335 0.89786 0.85702 0.0
C418 C 0.44402 0.90867 0.96218 0.0
C419 C 0.46279 0.92287 0.98732 0.0
C420 C 0.45859 0.95045 0.98924 0.0
C421 C 0.43521 0.96357 0.96567 0.0
C422 C 0.41634 0.94928 0.9407 0.0
H423 H 0.43238 0.89289 0.82192 0.0
H424 H 0.43988 0.91886 0.85778 0.0
H425 H 0.44883 0.88435 0.87829 0.0
H426 H 0.44757 0.88735 0.96152 0.0
H427 H 0.48061 0.91225 1.00519 0.0
H428 H 0.4266 0.0737 1.00104 0.0
H429 H 0.39622 0.10304 0.03259 0.0
H430 H 0.43252 0.07312 0.16664 0.0
H431 H 0.4634 0.04432 0.13541 0.0
H432 H 0.35851 0.09263 0.088 0.0
H433 H 0.43686 0.15255 0.17133 0.0
H434 H 0.44417 0.12994 0.13179 0.0
H435 H 0.44139 0.11721 0.18944 0.0
C436 C 0.4282 0.07338 0.03725 0.0
C437 C 0.44766 0.05672 0.06558 0.0
C438 C 0.41076 0.0902 0.05528 0.0
C439 C 0.41234 0.0908 0.10204 0.0
C440 C 0.43132 0.0737 0.13043 0.0
H441 H 0.32071 0.17365 0.27613 0.0
H442 H 0.35022 0.14338 0.24454 0.0
C443 C 0.4489 0.05703 0.11245 0.0
C444 C 0.39387 0.10896 0.12104 0.0
H445 H 0.39245 0.1586 0.18954 0.0
C446 C 0.36598 0.10715 0.10998 0.0
C447 C 0.40349 0.12803 0.14975 0.0
C448 C 0.4331 0.13229 0.16094 0.0
C449 C 0.34758 0.12342 0.12738 0.0
C450 C 0.35722 0.14222 0.15642 0.0
C451 C 0.38505 0.14408 0.1675 0.0
C452 C 0.33878 0.16033 0.17533 0.0
C453 C 0.31789 0.12004 0.11524 0.0
C454 C 0.32263 0.1801 0.147 0.0
C455 C 0.30581 0.19754 0.16495 0.0
C456 C 0.3047 0.19559 0.21172 0.0
C457 C 0.32088 0.17569 0.23999 0.0
C458 C 0.33784 0.15838 0.22199 0.0
H459 H 0.3137 0.10091 0.10099 0.0
H460 H 0.30705 0.12053 0.1452 0.0
H461 H 0.30976 0.13687 0.08963 0.0
H462 H 0.3233 0.18228 0.11096 0.0
H463 H 0.29375 0.21263 0.14209 0.0
H464 H 0.96803 0.94664 0.64024 0.0
H465 H 0.9365 0.91597 0.6735 0.0
H466 H 0.8852 0.92393 0.54702 0.0
H467 H 0.91669 0.95461 0.51319 0.0
H468 H 0.88006 0.92489 0.67954 0.0
H469 H 0.90019 0.84153 0.58046 0.0
H470 H 0.92245 0.86917 0.58567 0.0
H471 H 0.89151 0.87383 0.54868 0.0
C472 C 0.95005 0.94194 0.61939 0.0
C473 C 0.94498 0.95301 0.57392 0.0
C474 C 0.93202 0.92445 0.63854 0.0
C475 C 0.90869 0.91749 0.61259 0.0
C476 C 0.90329 0.9288 0.56744 0.0
H477 H 0.77739 0.82798 0.72256 0.0
H478 H 0.80293 0.86206 0.6816 0.0
C479 C 0.92126 0.94641 0.54824 0.0
C480 C 0.89026 0.89816 0.63292 0.0
H481 H 0.86743 0.83457 0.63029 0.0
C482 C 0.87712 0.9052 0.66863 0.0
C483 C 0.88672 0.87243 0.61878 0.0
C484 C 0.90107 0.86357 0.58153 0.0
C485 C 0.8606 0.88709 0.69084 0.0
C486 C 0.85706 0.86136 0.67669 0.0
C487 C 0.87006 0.8544 0.64078 0.0
C488 C 0.84127 0.8408 0.70054 0.0
C489 C 0.84774 0.89524 0.73016 0.0
C490 C 0.85431 0.81742 0.72401 0.0
C491 C 0.83984 0.79803 0.74731 0.0
C492 C 0.81201 0.80157 0.74728 0.0
C493 C 0.79886 0.82481 0.72324 0.0
C494 C 0.8134 0.8443 0.70002 0.0
H495 H 0.85631 0.91381 0.74186 0.0
H496 H 0.82589 0.89901 0.71994 0.0
H497 H 0.85029 0.87889 0.75878 0.0
H498 H 0.87579 0.81432 0.72469 0.0
H499 H 0.85046 0.78024 0.76538 0.0
H500 H 0.98324 0.09985 0.52901 0.0
H501 H 0.95322 0.13413 0.48241 0.0
H502 H 0.90616 0.07186 0.42781 0.0
H503 H 0.93597 0.03759 0.47412 0.0
H504 H 0.92363 0.11335 0.3629 0.0
H505 H 0.8734 0.1531 0.49772 0.0
H506 H 0.90951 0.15068 0.50609 0.0
H507 H 0.89065 0.12064 0.50587 0.0
C508 C 0.96631 0.09355 0.50737 0.0
C509 C 0.96182 0.0662 0.50499 0.0
C510 C 0.94924 0.11307 0.48095 0.0
C511 C 0.92752 0.10537 0.45208 0.0
C512 C 0.92286 0.07806 0.45005 0.0
H513 H 0.78861 0.18931 0.30595 0.0
H514 H 0.82148 0.15881 0.35421 0.0
C515 C 0.93984 0.05858 0.47649 0.0
C516 C 0.91003 0.12567 0.42268 0.0
H517 H 0.86176 0.17422 0.42345 0.0
C518 C 0.91018 0.1268 0.376 0.0
C519 C 0.89251 0.1429 0.44025 0.0
C520 C 0.89123 0.14179 0.4902 0.0
C521 C 0.89294 0.14471 0.34613 0.0
C522 C 0.87543 0.16195 0.36369 0.0
C523 C 0.87543 0.16098 0.41038 0.0
C524 C 0.85597 0.18026 0.33404 0.0
C525 C 0.89302 0.14459 0.2961 0.0
C526 C 0.86469 0.2023 0.30697 0.0
C527 C 0.84598 0.21975 0.27945 0.0
C528 C 0.81841 0.21532 0.27892 0.0
C529 C 0.80978 0.19313 0.30587 0.0
C530 C 0.82846 0.17578 0.33342 0.0
H531 H 0.9043 0.12684 0.28817 0.0
H532 H 0.87216 0.14471 0.27894 0.0
H533 H 0.90259 0.16299 0.28209 0.0
H534 H 0.8859 0.20613 0.30754 0.0
H535 H 0.85305 0.23683 0.25908 0.0
H536 H 0.70751 0.17026 0.26138 0.0
H537 H 0.67742 0.13851 0.2274 0.0
H538 H 0.67197 0.18831 0.09951 0.0
H539 H 0.7022 0.22014 0.133 0.0
H540 H 0.62462 0.14949 0.18609 0.0
H541 H 0.68938 0.11281 0.06765 0.0
H542 H 0.70244 0.13037 0.11408 0.0
H543 H 0.68572 0.14876 0.06324 0.0
C544 C 0.70015 0.17439 0.2259 0.0
C545 C 0.70737 0.19776 0.19992 0.0
C546 C 0.68291 0.1562 0.20658 0.0
C547 C 0.67272 0.16087 0.16083 0.0
C548 C 0.68 0.18406 0.13469 0.0
H549 H 0.53254 0.10162 0.01641 0.0
H550 H 0.56676 0.12742 0.05561 0.0
C551 C 0.69718 0.20231 0.154 0.0
C552 C 0.65344 0.14218 0.14102 0.0
H553 H 0.6433 0.10135 0.05801 0.0
C554 C 0.62877 0.13881 0.1583 0.0
C555 C 0.65903 0.12802 0.10513 0.0
C556 C 0.68567 0.12991 0.08662 0.0
C557 C 0.60921 0.12232 0.13971 0.0
C558 C 0.61437 0.10906 0.10263 0.0
C559 C 0.63935 0.11172 0.08624 0.0
C560 C 0.59367 0.09315 0.07939 0.0
C561 C 0.58314 0.11922 0.15984 0.0
C562 C 0.59765 0.06538 0.07923 0.0
C563 C 0.57807 0.05056 0.05684 0.0
C564 C 0.55439 0.06339 0.03387 0.0
C565 C 0.55058 0.0912 0.03388 0.0
C566 C 0.57004 0.10594 0.05642 0.0
H567 H 0.5849 0.1251 0.19444 0.0
H568 H 0.56735 0.13236 0.13861 0.0
H569 H 0.57652 0.09817 0.16099 0.0
H570 H 0.61583 0.05519 0.09662 0.0
H571 H 0.58153 0.02914 0.05727 0.0
H572 H 0.71629 0.79623 0.89072 0.0
H573 H 0.68665 0.82741 0.92015 0.0
H574 H 0.65968 0.86383 0.78504 0.0
H575 H 0.68921 0.83284 0.75524 0.0
H576 H 0.68532 0.88621 0.90632 0.0
H577 H 0.58934 0.84343 0.84031 0.0
H578 H 0.62116 0.82516 0.84595 0.0
H579 H 0.61262 0.85132 0.80003 0.0
C580 C 0.70406 0.81084 0.86718 0.0
C581 C 0.70515 0.81189 0.82051 0.0
C582 C 0.68714 0.82869 0.88412 0.0
C583 C 0.67068 0.84776 0.8548 0.0
C584 C 0.67189 0.84905 0.80829 0.0
H585 H 0.54823 0.9666 0.89076 0.0
H586 H 0.57922 0.93704 0.86094 0.0
C587 C 0.68893 0.83135 0.79133 0.0
C588 C 0.65244 0.86648 0.87281 0.0
H589 H 0.58622 0.88336 0.87404 0.0
C590 C 0.66365 0.88555 0.89943 0.0
C591 C 0.62416 0.86573 0.86357 0.0
C592 C 0.61097 0.84521 0.8362 0.0
C593 C 0.6474 0.90417 0.91639 0.0
C594 C 0.61905 0.90327 0.90758 0.0
C595 C 0.60788 0.88416 0.88088 0.0
C596 C 0.60059 0.92176 0.92592 0.0
C597 C 0.66086 0.92511 0.94254 0.0
C598 C 0.60197 0.92296 0.97249 0.0
C599 C 0.5844 0.94004 0.98965 0.0
C600 C 0.56471 0.95609 0.96072 0.0
C601 C 0.56315 0.95464 0.91411 0.0
C602 C 0.58087 0.93767 0.89696 0.0
H603 H 0.68167 0.92842 0.93443 0.0
H604 H 0.6494 0.9446 0.93552 0.0
H605 H 0.66204 0.91815 0.9791 0.0
H606 H 0.61642 0.9104 0.99577 0.0
H607 H 0.58605 0.94035 0.02574 0.0
H608 H 0.54402 0.56264 0.89818 0.0
H609 H 0.57693 0.59221 0.86659 0.0
H610 H 0.62712 0.58175 0.9942 0.0
H611 H 0.59424 0.55193 0.02637 0.0
H612 H 0.61624 0.63735 0.95173 0.0
H613 H 0.65318 0.57017 0.837 0.0
H614 H 0.61724 0.57351 0.83373 0.0
H615 H 0.63628 0.55785 0.88473 0.0
C616 C 0.5621 0.56646 0.91961 0.0
C617 C 0.5665 0.55485 0.96485 0.0
C618 C 0.58095 0.58328 0.90137 0.0
C619 C 0.60456 0.58891 0.92793 0.0
C620 C 0.60907 0.57748 0.97312 0.0
H621 H 0.73475 0.67854 0.81545 0.0
H622 H 0.70988 0.64503 0.85887 0.0
C623 C 0.59028 0.56043 0.99138 0.0
C624 C 0.62392 0.60756 0.9086 0.0
H625 H 0.66449 0.61622 0.82505 0.0
C626 C 0.62704 0.63266 0.92438 0.0
C627 C 0.63815 0.60124 0.87324 0.0
C628 C 0.6363 0.57415 0.85632 0.0
C629 C 0.64322 0.65207 0.9044 0.0
C630 C 0.6564 0.64623 0.86756 0.0
C631 C 0.65417 0.62072 0.85306 0.0
C632 C 0.67164 0.66673 0.84238 0.0
C633 C 0.64593 0.67875 0.92262 0.0
C634 C 0.6583 0.68983 0.81839 0.0
C635 C 0.67238 0.70886 0.79348 0.0
C636 C 0.70006 0.70512 0.79211 0.0
C637 C 0.71342 0.68195 0.81606 0.0
C638 C 0.69927 0.66283 0.84082 0.0
H639 H 0.64053 0.67757 0.95749 0.0
H640 H 0.66674 0.6859 0.92242 0.0
H641 H 0.63219 0.69388 0.90099 0.0
H642 H 0.63689 0.69298 0.81852 0.0
H643 H 0.66158 0.72651 0.77529 0.0
H644 H 0.66456 0.26776 0.22948 0.0
H645 H 0.63508 0.29353 0.1678 0.0
H646 H 0.69052 0.35841 0.16728 0.0
H647 H 0.72037 0.33232 0.2274 0.0
H648 H 0.60957 0.33861 0.16762 0.0
H649 H 0.67659 0.35398 0.03551 0.0
H650 H 0.68461 0.32984 0.08502 0.0
H651 H 0.69287 0.36462 0.08625 0.0
C652 C 0.67032 0.28755 0.21607 0.0
C653 C 0.69452 0.29826 0.23302 0.0
C654 C 0.65368 0.30209 0.18065 0.0
C655 C 0.661 0.32755 0.16209 0.0
C656 C 0.68497 0.33839 0.17984 0.0
H657 H 0.56771 0.46608 0.07918 0.0
H658 H 0.59795 0.42828 0.11193 0.0
C659 C 0.70175 0.32373 0.21469 0.0
C660 C 0.6424 0.34418 0.12763 0.0
H661 H 0.64117 0.38898 0.03273 0.0
C662 C 0.61629 0.34908 0.13754 0.0
C663 C 0.65089 0.35737 0.08774 0.0
C664 C 0.67768 0.35088 0.07282 0.0
C665 C 0.59929 0.36856 0.11079 0.0
C666 C 0.60901 0.38402 0.07411 0.0
C667 C 0.63414 0.37753 0.06169 0.0
C668 C 0.59422 0.40848 0.05157 0.0
C669 C 0.57142 0.37314 0.12313 0.0
C670 C 0.58366 0.4106 1.00602 0.0
C671 C 0.56657 0.43242 0.98717 0.0
C672 C 0.55991 0.45199 0.014 0.0
C673 C 0.5721 0.45078 0.05845 0.0
C674 C 0.58932 0.42928 0.07703 0.0
H675 H 0.56413 0.3547 0.14155 0.0
H676 H 0.57185 0.38918 0.14556 0.0
H677 H 0.55691 0.37952 0.09276 0.0
H678 H 0.58755 0.3948 0.98584 0.0
H679 H 0.55735 0.43312 0.95266 0.0
H680 H 0.98689 0.41436 0.49637 0.0
H681 H 0.95365 0.38848 0.45527 0.0
H682 H 0.89407 0.45199 0.45312 0.0
H683 H 0.92789 0.47862 0.49172 0.0
H684 H 0.91088 0.36736 0.4771 0.0
H685 H 0.88084 0.44 0.32566 0.0
H686 H 0.90912 0.44518 0.36613 0.0
H687 H 0.87551 0.45397 0.376 0.0
C688 C 0.96675 0.42286 0.48668 0.0
C689 C 0.95991 0.44845 0.49703 0.0
C690 C 0.94773 0.40807 0.46323 0.0
C691 C 0.92133 0.41836 0.45031 0.0
C692 C 0.91443 0.44388 0.46127 0.0
H693 H 0.79255 0.3086 0.38725 0.0
H694 H 0.82338 0.33888 0.42359 0.0
C695 C 0.93368 0.45899 0.48375 0.0
C696 C 0.90093 0.40174 0.42733 0.0
H697 H 0.85261 0.4026 0.33713 0.0
C698 C 0.8983 0.37506 0.44628 0.0
C699 C 0.88469 0.41153 0.38671 0.0
C700 C 0.88788 0.43913 0.3622 0.0
C701 C 0.88004 0.35797 0.42598 0.0
C702 C 0.8628 0.36817 0.38668 0.0
C703 C 0.86548 0.39482 0.36759 0.0
C704 C 0.84253 0.3513 0.36401 0.0
C705 C 0.88023 0.32891 0.44621 0.0
C706 C 0.84174 0.34937 0.31772 0.0
C707 C 0.82344 0.3328 0.29654 0.0
C708 C 0.80586 0.31749 0.32141 0.0
C709 C 0.80617 0.31988 0.36742 0.0
C710 C 0.82397 0.33701 0.38831 0.0
H711 H 0.89991 0.32252 0.46595 0.0
H712 H 0.86471 0.32634 0.46957 0.0
H713 H 0.87595 0.31537 0.41985 0.0
H714 H 0.85569 0.36027 0.29807 0.0
H715 H 0.82368 0.33129 0.26103 0.0
H716 H 0.79476 0.71073 0.64693 0.0
H717 H 0.824 0.67986 0.6164 0.0
H718 H 0.85315 0.64391 0.75101 0.0
H719 H 0.82348 0.67425 0.78178 0.0
H720 H 0.87761 0.67378 0.62684 0.0
H721 H 0.83506 0.57781 0.69201 0.0
H722 H 0.81858 0.60993 0.69326 0.0
H723 H 0.84591 0.59798 0.73562 0.0
C724 C 0.80723 0.69614 0.67012 0.0
C725 C 0.80656 0.69494 0.7169 0.0
C726 C 0.824 0.67847 0.65255 0.0
C727 C 0.84053 0.65913 0.68123 0.0
C728 C 0.84011 0.65807 0.72798 0.0
H729 H 0.96562 0.54465 0.63989 0.0
H730 H 0.93484 0.57391 0.67087 0.0
C731 C 0.8232 0.67562 0.74559 0.0
C732 C 0.85883 0.64078 0.66225 0.0
H733 H 0.87627 0.57459 0.66075 0.0
C734 C 0.87715 0.65209 0.63407 0.0
C735 C 0.85835 0.61241 0.67156 0.0
C736 C 0.83825 0.59878 0.69939 0.0
C737 C 0.8952 0.63595 0.61569 0.0
C738 C 0.89485 0.60765 0.62534 0.0
C739 C 0.8766 0.59629 0.6535 0.0
C740 C 0.91324 0.58955 0.60633 0.0
C741 C 0.9149 0.64932 0.58674 0.0
C742 C 0.91112 0.58826 0.55975 0.0
C743 C 0.9286 0.57143 0.54188 0.0
C744 C 0.94868 0.55553 0.57022 0.0
C745 C 0.95053 0.55665 0.61697 0.0
C746 C 0.9329 0.57336 0.63481 0.0
H747 H 0.91662 0.67101 0.59054 0.0
H748 H 0.9351 0.63935 0.59527 0.0
H749 H 0.90801 0.64756 0.55086 0.0
H750 H 0.89587 0.60026 0.53715 0.0
H751 H 0.9265 0.57109 0.50578 0.0
H752 H 0.27913 0.33232 0.23282 0.0
H753 H 0.30542 0.367 0.19534 0.0
H754 H 0.37298 0.31084 0.20929 0.0
H755 H 0.34722 0.27668 0.24869 0.0
H756 H 0.38932 0.35634 0.23225 0.0
H757 H 0.32392 0.3774 0.0699 0.0
H758 H 0.30654 0.38263 0.11693 0.0
H759 H 0.31884 0.34941 0.11114 0.0
C760 C 0.29956 0.32743 0.22764 0.0
C761 C 0.31122 0.30191 0.24369 0.0
C762 C 0.3145 0.34717 0.20586 0.0
C763 C 0.34109 0.34146 0.19871 0.0
C764 C 0.35253 0.31578 0.21433 0.0
H765 H 0.43636 0.43515 0.01916 0.0
H766 H 0.40608 0.40376 0.05415 0.0
C767 C 0.3378 0.29625 0.23681 0.0
C768 C 0.35756 0.36244 0.17696 0.0
H769 H 0.3592 0.40769 0.08316 0.0
C770 C 0.38275 0.36747 0.19954 0.0
C771 C 0.34919 0.37678 0.13401 0.0
C772 C 0.32328 0.3711 0.10637 0.0
C773 C 0.39982 0.38627 0.18048 0.0
C774 C 0.39101 0.40141 0.13835 0.0
C775 C 0.36582 0.39639 0.11571 0.0
C776 C 0.40814 0.42164 0.11635 0.0
C777 C 0.42748 0.38893 0.20511 0.0
C778 C 0.41888 0.44264 0.13909 0.0
C779 C 0.43663 0.4603 0.11948 0.0
C780 C 0.44339 0.45779 0.07619 0.0
C781 C 0.43154 0.43764 0.05254 0.0
C782 C 0.4142 0.41967 0.07252 0.0
H783 H 0.43389 0.37065 0.2289 0.0
H784 H 0.44266 0.39252 0.18129 0.0
H785 H 0.42721 0.40613 0.22505 0.0
H786 H 0.41382 0.44517 0.1723 0.0
H787 H 0.44516 0.47584 0.13833 0.0
H788 H 0.49449 0.60397 0.01766 0.0
H789 H 0.46784 0.63931 0.96706 0.0
H790 H 0.41297 0.58006 0.92224 0.0
H791 H 0.43925 0.54482 0.97276 0.0
H792 H 0.43504 0.6177 0.85197 0.0
H793 H 0.38908 0.6661 0.98322 0.0
H794 H 0.42485 0.65946 0.99114 0.0
H795 H 0.40251 0.63197 0.99347 0.0
C796 C 0.47662 0.59861 0.9972 0.0
C797 C 0.46885 0.57179 0.99883 0.0
C798 C 0.46153 0.61871 0.96842 0.0
C799 C 0.43858 0.6121 0.94119 0.0
C800 C 0.43073 0.58538 0.94305 0.0
H801 H 0.29904 0.68825 0.7941 0.0
H802 H 0.33428 0.66073 0.84251 0.0
C803 C 0.4457 0.56536 0.97186 0.0
C804 C 0.42253 0.63285 0.91037 0.0
H805 H 0.37512 0.6827 0.90757 0.0
C806 C 0.42219 0.63223 0.86392 0.0
C807 C 0.40583 0.65149 0.92654 0.0
C808 C 0.40532 0.6524 0.97629 0.0
C809 C 0.40482 0.6494 0.83295 0.0
C810 C 0.38761 0.66754 0.84917 0.0
C811 C 0.38853 0.66872 0.89556 0.0
C812 C 0.36687 0.68386 0.81877 0.0
C813 C 0.40407 0.64729 0.7833 0.0
C814 C 0.37379 0.70576 0.78943 0.0
C815 C 0.35371 0.72154 0.76181 0.0
C816 C 0.3266 0.71552 0.76344 0.0
C817 C 0.31982 0.69329 0.79233 0.0
C818 C 0.33985 0.67764 0.81998 0.0
H819 H 0.4166 0.63005 0.77667 0.0
H820 H 0.38309 0.64504 0.76805 0.0
H821 H 0.41158 0.66602 0.76627 0.0
H822 H 0.39462 0.71085 0.78845 0.0
H823 H 0.35936 0.73867 0.73985 0.0
H824 H 0.20555 0.71807 0.62852 0.0
H825 H 0.17388 0.68682 0.59699 0.0
H826 H 0.18328 0.63578 0.72387 0.0
H827 H 0.21497 0.66696 0.75594 0.0
H828 H 0.18104 0.63 0.59099 0.0
H829 H 0.10093 0.65268 0.695 0.0
H830 H 0.12892 0.67425 0.68779 0.0
H831 H 0.13352 0.64341 0.72518 0.0
C832 C 0.201 0.70017 0.64979 0.0
C833 C 0.21273 0.69512 0.6949 0.0
C834 C 0.18292 0.68231 0.63163 0.0
C835 C 0.17602 0.65918 0.65825 0.0
C836 C 0.18809 0.65372 0.70296 0.0
H837 H 0.08242 0.52779 0.55855 0.0
H838 H 0.1176 0.55377 0.59569 0.0
C839 C 0.20629 0.67152 0.72114 0.0
C840 C 0.15582 0.64109 0.63924 0.0
H841 H 0.09217 0.6194 0.64658 0.0
C842 C 0.16166 0.62753 0.60325 0.0
C843 C 0.13048 0.63817 0.65509 0.0
C844 C 0.12286 0.65301 0.69266 0.0
C845 C 0.14276 0.61111 0.5826 0.0
C846 C 0.11747 0.6081 0.5986 0.0
C847 C 0.11167 0.62161 0.63465 0.0
C848 C 0.09624 0.5921 0.57689 0.0
C849 C 0.14967 0.59771 0.54303 0.0
C850 C 0.07243 0.60497 0.55479 0.0
C851 C 0.05238 0.59022 0.53365 0.0
C852 C 0.0557 0.56229 0.53453 0.0
C853 C 0.07939 0.54933 0.55722 0.0
C854 C 0.09952 0.56413 0.57825 0.0
H855 H 0.16786 0.60608 0.52956 0.0
H856 H 0.15356 0.57591 0.55377 0.0
H857 H 0.13267 0.6 0.51554 0.0
H858 H 0.06948 0.62652 0.55351 0.0
H859 H 0.03428 0.60071 0.51658 0.0
H860 H 0.18869 0.33444 0.25339 0.0
H861 H 0.15971 0.36524 0.28489 0.0
H862 H 0.18676 0.32671 0.41866 0.0
H863 H 0.21577 0.29579 0.3876 0.0
H864 H 0.11757 0.35079 0.34106 0.0
H865 H 0.19772 0.40828 0.42666 0.0
H866 H 0.20369 0.38831 0.38255 0.0
H867 H 0.20127 0.37231 0.43843 0.0
C868 C 0.18864 0.33256 0.28955 0.0
C869 C 0.20471 0.31262 0.3179 0.0
C870 C 0.17198 0.35018 0.30749 0.0
C871 C 0.17125 0.34851 0.35418 0.0
C872 C 0.18727 0.32867 0.38259 0.0
H873 H 0.08635 0.43814 0.52803 0.0
H874 H 0.11601 0.40812 0.49646 0.0
C875 C 0.20378 0.3109 0.36469 0.0
C876 C 0.15323 0.36705 0.37302 0.0
H877 H 0.15317 0.41745 0.44002 0.0
C878 C 0.12533 0.36546 0.36256 0.0
C879 C 0.16335 0.38604 0.40131 0.0
C880 C 0.19314 0.38911 0.41276 0.0
C881 C 0.10728 0.38198 0.38022 0.0
C882 C 0.11737 0.40125 0.40817 0.0
C883 C 0.14534 0.40279 0.41861 0.0
C884 C 0.09933 0.41985 0.42714 0.0
C885 C 0.07755 0.37799 0.36978 0.0
C886 C 0.08028 0.43691 0.39881 0.0
C887 C 0.06309 0.45396 0.41682 0.0
C888 C 0.06483 0.45473 0.46363 0.0
C889 C 0.08438 0.43813 0.49186 0.0
C890 C 0.10141 0.42091 0.47382 0.0
H891 H 0.07346 0.35765 0.36003 0.0
H892 H 0.06677 0.38079 0.39908 0.0
H893 H 0.06923 0.39291 0.34106 0.0
H894 H 0.07871 0.43713 0.36262 0.0
H895 H 0.04849 0.46661 0.39393 0.0
H896 H 0.9797 0.99207 0.82175 0.0
H897 H 0.97208 0.99486 0.89984 0.0
H898 H 0.05623 0.00812 0.93453 0.0
H899 H 0.06387 0.00636 0.85639 0.0
H900 H 0.99417 0.96347 0.97819 0.0
H901 H 0.02083 0.06993 0.98429 0.0
H902 H 0.01466 0.05553 0.93209 0.0
H903 H 0.04646 0.0496 0.96665 0.0
C904 C 0.99655 0.99592 0.84583 0.0
C905 C 0.0224 0.9991 0.83255 0.0
C906 C 0.99218 0.99733 0.89057 0.0
C907 C 0.01349 1.00213 0.92297 0.0
C908 C 0.03936 1.00494 0.91001 0.0
H909 H 0.02918 0.01585 0.21028 0.0
H910 H 0.03676 0.01308 0.13216 0.0
C911 C 0.04375 1.00356 0.86533 0.0
C912 C 0.00879 1.00364 0.97048 0.0
H913 H 0.01462 0.04456 0.05384 0.0
C914 C 0.99851 0.98125 0.99466 0.0
C915 C 0.01451 0.02682 0.99204 0.0
C916 C 0.02449 0.05194 0.96738 0.0
C917 C 0.99428 0.98121 0.03997 0.0
C918 C 1.00001 1.00439 0.06154 0.0
C919 C 0.01029 0.02678 0.03736 0.0
C920 C 0.99533 0.00589 0.10907 0.0
C921 C 0.98429 0.95609 0.06464 0.0
C922 C 0.96946 1.00311 0.12205 0.0
C923 C 0.9651 1.00448 0.16674 0.0
C924 C 0.98647 0.00889 0.19952 0.0
C925 C 0.01232 0.01203 0.18621 0.0
C926 C 0.01666 0.01064 0.14146 0.0
H927 H 0.98792 0.9381 0.0477 0.0
H928 H 0.99415 0.95249 0.09991 0.0
H929 H 0.96233 0.95846 0.06541 0.0
H930 H 0.95258 0.99996 0.09754 0.0
H931 H 0.94497 1.00171 0.17571 0.0
H932 H 0.21583 0.77319 0.41725 0.0
H933 H 0.21779 0.76549 0.33897 0.0
H934 H 0.30431 0.7621 0.36249 0.0
H935 H 0.30251 0.76962 0.44078 0.0
H936 H 0.23993 0.79494 0.27149 0.0
H937 H 0.28924 0.69357 0.30677 0.0
H938 H 0.27511 0.70969 0.34945 0.0
H939 H 0.30769 0.71856 0.3342 0.0
C940 C 0.23529 0.77084 0.40576 0.0
C941 C 0.25901 0.77184 0.43546 0.0
C942 C 0.23638 0.76637 0.361 0.0
C943 C 0.26119 0.76276 0.34492 0.0
C944 C 0.28491 0.76411 0.37432 0.0
H945 H 0.2882 0.77533 0.06179 0.0
H946 H 0.28591 0.78325 0.13988 0.0
C947 C 0.28384 0.76843 0.41913 0.0
C948 C 0.26223 0.75814 0.2972 0.0
H949 H 0.28586 0.71444 0.23112 0.0
C950 C 0.24991 0.7773 0.26267 0.0
C951 C 0.27496 0.73496 0.2856 0.0
C952 C 0.28727 0.71288 0.32092 0.0
C953 C 0.25029 0.77411 0.217 0.0
C954 C 0.26377 0.75136 0.20542 0.0
C955 C 0.27578 0.73203 0.23994 0.0
C956 C 0.26509 0.74682 0.15776 0.0
C957 C 0.23573 0.79485 0.18157 0.0
C958 C 0.2547 0.72346 0.14193 0.0
C959 C 0.25605 0.71883 0.09737 0.0
C960 C 0.26798 0.73742 0.06753 0.0
C961 C 0.27851 0.76079 0.08355 0.0
C962 C 0.27719 0.76536 0.12823 0.0
H963 H 0.22068 0.80687 0.19565 0.0
H964 H 0.25047 0.80885 0.16794 0.0
H965 H 0.22535 0.78524 0.15327 0.0
H966 H 0.24528 0.70884 0.16403 0.0
H967 H 0.2474 0.70081 0.08614 0.0
H968 H 0.53058 0.99428 0.71203 0.0
H969 H 0.53614 0.98963 0.63361 0.0
H970 H 0.46138 0.03388 0.58929 0.0
H971 H 0.45545 0.03833 0.66735 0.0
H972 H 0.50183 0.96616 0.56855 0.0
H973 H 0.51467 0.07444 0.51452 0.0
H974 H 0.5175 0.0605 0.57303 0.0
H975 H 0.48498 0.06729 0.54116 0.0
C976 C 0.51522 1.00287 0.68565 0.0
C977 C 0.49267 0.01689 0.69612 0.0
C978 C 0.5185 1.00031 0.64082 0.0
C979 C 0.49942 0.01183 0.60554 0.0
C980 C 0.47669 0.0254 0.61587 0.0
H981 H 0.48107 0.01788 0.31343 0.0
H982 H 0.47542 0.02235 0.39187 0.0
C983 C 0.47336 0.02794 0.6606 0.0
C984 C 0.503 0.0093 0.55796 0.0
H985 H 0.50977 0.04589 0.45691 0.0
C986 C 0.50372 0.98357 0.54418 0.0
C987 C 0.50536 0.03206 0.52617 0.0
C988 C 0.50584 0.06014 0.53941 0.0
C989 C 0.50625 0.97999 0.49929 0.0
C990 C 0.5086 1.00275 0.4675 0.0
C991 C 0.50789 0.02849 0.48128 0.0
C992 C 0.51219 1.00023 0.41991 0.0
C993 C 0.50579 0.95192 0.48604 0.0
C994 C 0.53497 0.98676 0.40958 0.0
C995 C 0.53836 0.98434 0.36483 0.0
C996 C 0.51906 0.9954 0.32931 0.0
C997 C 0.49644 0.00929 0.3398 0.0
C998 C 0.4931 0.01174 0.38464 0.0
H999 H 0.49701 0.93759 0.51095 0.0
H1000 H 0.4941 0.95155 0.45244 0.0
H1001 H 0.52665 0.9448 0.48422 0.0
H1002 H 0.55028 0.97829 0.43616 0.0
H1003 H 0.55633 0.97405 0.35807 0.0
H1004 H 0.28458 0.28178 0.95019 0.0
H1005 H 0.28876 0.27673 0.87146 0.0
H1006 H 0.21028 0.24287 0.85741 0.0
H1007 H 0.20592 0.24787 0.93598 0.0
H1008 H 0.28724 0.23148 0.82683 0.0
H1009 H 0.20359 0.30308 0.75301 0.0
H1010 H 0.21777 0.30095 0.81128 0.0
H1011 H 0.19416 0.2767 0.79327 0.0
C1012 C 0.26829 0.27306 0.93047 0.0
C1013 C 0.24482 0.26542 0.94937 0.0
C1014 C 0.27066 0.27031 0.88538 0.0
C1015 C 0.24962 0.25993 0.85821 0.0
C1016 C 0.22648 0.25162 0.8773 0.0
H1017 H 0.22515 0.22698 0.57942 0.0
H1018 H 0.22098 0.23213 0.65813 0.0
C1019 C 0.22405 0.25444 0.9223 0.0
C1020 C 0.25201 0.25752 0.81009 0.0
H1021 H 0.22255 0.27738 0.70269 0.0
C1022 C 0.27318 0.24162 0.79967 0.0
C1023 C 0.23362 0.27072 0.77463 0.0
C1024 C 0.21114 0.28903 0.78344 0.0
C1025 C 0.27617 0.23814 0.75489 0.0
C1026 C 0.25777 0.25133 0.71943 0.0
C1027 C 0.23661 0.26724 0.72985 0.0
C1028 C 0.26015 0.24889 0.67131 0.0
C1029 C 0.29864 0.21983 0.74608 0.0
C1030 C 0.28329 0.25717 0.65219 0.0
C1031 C 0.28571 0.25428 0.60721 0.0
C1032 C 0.26492 0.24329 0.58019 0.0
C1033 C 0.24145 0.23571 0.59911 0.0
C1034 C 0.23909 0.23852 0.64418 0.0
H1035 H 0.30619 0.20578 0.77652 0.0
H1036 H 0.292 0.2079 0.71826 0.0
H1037 H 0.31562 0.23215 0.73623 0.0
H1038 H 0.2995 0.26592 0.67205 0.0
H1039 H 0.30384 0.26081 0.59351 0.0
H1040 H 0.7138 0.30149 0.9181 0.0
H1041 H 0.71473 0.29429 0.83937 0.0
H1042 H 0.78355 0.24027 0.87826 0.0
H1043 H 0.78297 0.24751 0.95691 0.0
H1044 H 0.75636 0.30459 0.78606 0.0
H1045 H 0.73245 0.19655 0.80148 0.0
H1046 H 0.72721 0.2176 0.84444 0.0
H1047 H 0.76028 0.20444 0.84039 0.0
C1048 C 0.72917 0.28809 0.90995 0.0
C1049 C 0.74826 0.27501 0.94399 0.0
C1050 C 0.7296 0.28392 0.86492 0.0
C1051 C 0.74898 0.26646 0.85296 0.0
C1052 C 0.76803 0.25336 0.88678 0.0
H1053 H 0.79076 0.21697 0.60307 0.0
H1054 H 0.78866 0.22479 0.68117 0.0
C1055 C 0.76764 0.25751 0.9318 0.0
C1056 C 0.74985 0.26267 0.80495 0.0
H1057 H 0.74665 0.21519 0.73228 0.0
C1058 C 0.75407 0.28508 0.77421 0.0
C1059 C 0.74692 0.23719 0.78956 0.0
C1060 C 0.74122 0.21259 0.82054 0.0
C1061 C 0.75606 0.28261 0.72872 0.0
C1062 C 0.75325 0.2571 0.71336 0.0
C1063 C 0.74888 0.23472 0.74408 0.0
C1064 C 0.75484 0.2531 0.6656 0.0
C1065 C 0.76186 0.3072 0.69779 0.0
C1066 C 0.73645 0.26632 0.6308 0.0
C1067 C 0.73757 0.26186 0.58606 0.0
C1068 C 0.75697 0.24388 0.5752 0.0
C1069 C 0.77539 0.23073 0.61021 0.0
C1070 C 0.77428 0.23524 0.65489 0.0
H1071 H 0.77046 0.3233 0.71691 0.0
H1072 H 0.77604 0.3022 0.67417 0.0
H1073 H 0.74286 0.31529 0.67765 0.0
H1074 H 0.72088 0.27972 0.63831 0.0
H1075 H 0.72278 0.27196 0.56012 0.0
H1076 H 0.76225 0.72625 0.46764 0.0
H1077 H 0.76744 0.7207 0.38941 0.0
H1078 H 0.73562 0.80131 0.34665 0.0
H1079 H 0.73119 0.80735 0.42468 0.0
H1080 H 0.72768 0.72421 0.31557 0.0
H1081 H 0.80446 0.80058 0.28714 0.0
H1082 H 0.7967 0.78806 0.34268 0.0
H1083 H 0.77515 0.8132 0.30765 0.0
C1084 C 0.75673 0.74294 0.44168 0.0
C1085 C 0.74633 0.76727 0.45256 0.0
C1086 C 0.75954 0.73967 0.39694 0.0
C1087 C 0.75225 0.76071 0.36222 0.0
C1088 C 0.74183 0.78496 0.37293 0.0
H1089 H 0.74957 0.78025 0.07054 0.0
H1090 H 0.74444 0.78582 0.14879 0.0
C1091 C 0.739 0.78825 0.41757 0.0
C1092 C 0.75473 0.75704 0.31463 0.0
H1093 H 0.78422 0.7823 0.22262 0.0
C1094 C 0.74016 0.7368 0.29531 0.0
C1095 C 0.77093 0.77357 0.28815 0.0
C1096 C 0.78791 0.79492 0.30749 0.0
C1097 C 0.74097 0.73294 0.25004 0.0
C1098 C 0.75717 0.74947 0.22356 0.0
C1099 C 0.77174 0.76971 0.24288 0.0
C1100 C 0.75963 0.74581 0.17597 0.0
C1101 C 0.72399 0.71159 0.2307 0.0
C1102 C 0.77004 0.72155 0.16525 0.0
C1103 C 0.77282 0.71824 0.1206 0.0
C1104 C 0.76547 0.73922 0.0856 0.0
C1105 C 0.7551 0.76356 0.09649 0.0
C1106 C 0.75233 0.76684 0.14125 0.0
H1107 H 0.70743 0.70594 0.25106 0.0
H1108 H 0.7152 0.71845 0.19552 0.0
H1109 H 0.73674 0.69331 0.23054 0.0
H1110 H 0.77626 0.7052 0.19152 0.0
H1111 H 0.78061 0.69914 0.11348 0.0
H1112 H 0.49503 0.46328 0.71216 0.0
H1113 H 0.50199 0.4629 0.63318 0.0
H1114 H 0.47441 0.54576 0.604 0.0
H1115 H 0.46795 0.5465 0.68311 0.0
H1116 H 0.46354 0.47373 0.5558 0.0
H1117 H 0.54679 0.54517 0.55221 0.0
H1118 H 0.53665 0.52899 0.60407 0.0
H1119 H 0.51734 0.5572 0.57319 0.0
C1120 C 0.49076 0.48153 0.68907 0.0
C1121 C 0.48106 0.50497 0.70405 0.0
C1122 C 0.49457 0.48122 0.64389 0.0
C1123 C 0.48903 0.50438 0.61282 0.0
C1124 C 0.47921 0.52777 0.62753 0.0
H1125 H 0.50046 0.5415 0.32613 0.0
H1126 H 0.49167 0.54236 0.40416 0.0
C1127 C 0.47528 0.52808 0.67268 0.0
C1128 C 0.49302 0.50388 0.56486 0.0
H1129 H 0.52874 0.53182 0.48232 0.0
C1130 C 0.47786 0.48635 0.53974 0.0
C1131 C 0.51166 0.52042 0.54396 0.0
C1132 C 0.52924 0.53886 0.56974 0.0
C1133 C 0.48055 0.48519 0.49411 0.0
C1134 C 0.49927 0.50166 0.47325 0.0
C1135 C 0.51437 0.51925 0.49834 0.0
C1136 C 0.50373 0.50074 0.42558 0.0
C1137 C 0.46297 0.46674 0.46836 0.0
C1138 C 0.51354 0.47709 0.41172 0.0
C1139 C 0.51849 0.4765 0.36711 0.0
C1140 C 0.51381 0.4996 0.33543 0.0
C1141 C 0.5039 0.52325 0.34945 0.0
C1142 C 0.49904 0.52384 0.39411 0.0
H1143 H 0.44513 0.46092 0.48545 0.0
H1144 H 0.45601 0.47636 0.43368 0.0
H1145 H 0.47469 0.44813 0.46584 0.0
H1146 H 0.51771 0.45914 0.43557 0.0
H1147 H 0.52595 0.45792 0.35741 0.0
H1148 H 0.0543 0.46914 0.86238 0.0
H1149 H 0.04762 0.47298 0.94038 0.0
H1150 H 0.98002 0.52766 0.89464 0.0
H1151 H 0.98682 0.52438 0.81633 0.0
H1152 H 0.04783 0.5204 0.98403 0.0
H1153 H 0.95019 0.46989 0.98391 0.0
H1154 H 0.97204 0.46699 0.94112 0.0
H1155 H 0.95158 0.49693 0.93945 0.0
C1156 C 0.03813 0.48219 0.86875 0.0
C1157 C 0.02114 0.49649 0.83283 0.0
C1158 C 0.03425 0.48422 0.91345 0.0
C1159 C 0.01315 0.50035 0.92337 0.0
C1160 C 0.99614 0.51469 0.88777 0.0
H1161 H 0.95685 0.53772 0.17112 0.0
H1162 H 0.96349 0.53383 0.09318 0.0
C1163 C 1.00004 0.51275 0.84297 0.0
C1164 C 0.00943 0.50261 0.97102 0.0
H1165 H 0.96573 0.48978 0.04912 0.0
C1166 C 0.02993 0.51363 0.99836 0.0
C1167 C 0.98603 0.49383 0.98959 0.0
C1168 C 0.96375 0.48103 0.96222 0.0
C1169 C 0.02747 0.51656 0.04354 0.0
C1170 C 1.00413 0.50763 0.06227 0.0
C1171 C 0.98363 0.4966 0.03485 0.0
C1172 C 1.00039 0.50988 0.10999 0.0
C1173 C 0.04961 0.52988 0.07037 0.0
C1174 C 0.01873 0.49742 0.14564 0.0
C1175 C 0.01518 0.49989 0.1904 0.0
C1176 C 0.99305 0.51469 0.20057 0.0
C1177 C 0.97443 0.52665 0.16471 0.0
C1178 C 0.97806 0.52425 0.12002 0.0
H1179 H 0.06211 0.54214 0.04815 0.0
H1180 H 0.04133 0.54303 0.09291 0.0
H1181 H 0.06293 0.51419 0.0915 0.0
H1182 H 0.03579 0.48571 0.13887 0.0
H1183 H 0.03 0.4905 0.21699 0.0
loop_
_geom_bond_atom_site_label_1
_geom_bond_atom_site_label_2
_geom_bond_distance
_geom_bond_site_symmetry_2
_ccdc_geom_bond_type
Sm0 C2 2.846 1_655 S
Sm0 O20 2.543 1_565 S
Sm0 O21 2.450 1_655 S
Sm0 O22 2.681 1_655 S
Sm0 O23 2.464 1_655 S
Sm0 O24 2.396 1_665 S
Sm0 O28 2.386 1_565 S
Sm0 O31 2.408 . S
Sm1 C11 2.846 1_455 S
Sm1 O22 2.386 1_545 S
Sm1 O25 2.408 . S
Sm1 O26 2.543 1_545 S
Sm1 O27 2.450 1_455 S
Sm1 O28 2.681 1_455 S
Sm1 O29 2.464 1_455 S
Sm1 O30 2.396 1_445 S
C2 Sm0 2.846 1_455 S
C2 C3 1.506 . S
C2 O20 1.261 1_465 S
C2 O21 1.242 . S
C3 C2 1.506 . S
C3 C4 1.358 1_565 S
C3 C8 1.382 . S
C4 C3 1.358 1_545 S
C4 C5 1.385 . S
C4 H32 0.930 1_455 S
C5 C4 1.385 . S
C5 C6 1.395 . S
C5 H33 0.929 . S
C6 C5 1.395 . S
C6 C7 1.335 1_545 S
C7 C6 1.335 1_565 S
C7 C8 1.398 . S
C7 H34 0.930 . S
C8 C3 1.382 . S
C8 C7 1.398 . S
C8 H35 0.929 . S
C9 O22 1.271 . S
C9 O23 1.251 . S
C10 O24 1.252 . S
C10 O25 1.272 . S
C11 Sm1 2.846 1_655 S
C11 C12 1.506 . S
C11 O26 1.261 1_645 S
C11 O27 1.242 . S
C12 C11 1.506 . S
C12 C13 1.358 1_545 S
C12 C17 1.382 . S
C13 C12 1.358 1_565 S
C13 C14 1.385 . S
C13 H36 0.930 1_655 S
C14 C13 1.385 . S
C14 C15 1.395 . S
C14 H37 0.937 . S
C15 C14 1.395 . S
C15 C16 1.335 1_565 S
C16 C15 1.335 1_545 S
C16 C17 1.398 . S
C16 H38 0.930 . S
C17 C12 1.382 . S
C17 C16 1.398 . S
C17 H39 0.929 . S
C18 O28 1.271 . S
C18 O29 1.251 . S
C19 O30 1.252 . S
C19 O31 1.272 . S
O20 Sm0 2.543 1_545 S
O20 C2 1.261 1_645 S
O21 Sm0 2.450 1_455 S
O21 C2 1.242 . S
O22 Sm0 2.681 1_455 S
O22 Sm1 2.386 1_565 S
O22 C9 1.271 . S
O23 Sm0 2.464 1_455 S
O23 C9 1.251 . S
O24 Sm0 2.396 1_445 S
O24 C10 1.252 . S
O25 Sm1 2.408 . S
O25 C10 1.272 . S
O26 Sm1 2.543 1_565 S
O26 C11 1.261 1_465 S
O27 Sm1 2.450 1_655 S
O27 C11 1.242 . S
O28 Sm0 2.386 1_545 S
O28 Sm1 2.681 1_655 S
O28 C18 1.271 . S
O29 Sm1 2.464 1_655 S
O29 C18 1.251 . S
O30 Sm1 2.396 1_665 S
O30 C19 1.252 . S
O31 Sm0 2.408 . S
O31 C19 1.272 . S
H32 C4 0.930 1_655 S
H33 C5 0.929 . S
H34 C7 0.930 . S
H35 C8 0.929 . S
H36 C13 0.930 1_455 S
H37 C14 0.937 . S
H38 C16 0.930 . S
H39 C17 0.929 . S
Sm40 C42 2.846 . S
Sm40 O60 2.543 . S
Sm40 O61 2.450 . S
Sm40 O62 2.681 . S
Sm40 O63 2.464 . S
Sm40 O64 2.396 . S
Sm40 O68 2.386 . S
Sm40 O71 2.408 . S
Sm41 C51 2.846 . S
Sm41 O62 2.386 . S
Sm41 O65 2.408 . S
Sm41 O66 2.543 . S
Sm41 O67 2.450 . S
Sm41 O68 2.681 . S
Sm41 O69 2.464 . S
Sm41 O70 2.396 . S
C42 Sm40 2.846 . S
C42 C43 1.506 . S
C42 O60 1.261 . S
C42 O61 1.242 . S
C43 C42 1.506 . S
C43 C44 1.358 . S
C43 C48 1.382 . S
C44 C43 1.358 . S
C44 C45 1.385 1_556 S
C44 H72 0.930 . S
C45 C44 1.385 1_554 S
C45 C46 1.395 . S
C45 H73 0.929 . S
C46 C45 1.395 . S
C46 C47 1.335 1_554 S
C47 C46 1.335 1_556 S
C47 C48 1.398 . S
C47 H74 0.930 1_556 S
C48 C43 1.382 . S
C48 C47 1.398 . S
C48 H75 0.929 . S
C49 O62 1.271 . S
C49 O63 1.251 . S
C50 O64 1.252 . S
C50 O65 1.272 . S
C51 Sm41 2.846 . S
C51 C52 1.506 . S
C51 O66 1.261 . S
C51 O67 1.242 . S
C52 C51 1.506 . S
C52 C53 1.358 . S
C52 C57 1.382 . S
C53 C52 1.358 . S
C53 C54 1.385 . S
C53 H76 0.930 . S
C54 C53 1.385 . S
C54 C55 1.395 . S
C54 H77 0.929 . S
C55 C54 1.395 . S
C55 C56 1.335 . S
C56 C55 1.335 . S
C56 C57 1.398 . S
C56 H78 0.930 . S
C57 C52 1.382 . S
C57 C56 1.398 . S
C57 H79 0.929 . S
C58 O68 1.271 . S
C58 O69 1.251 . S
C59 O70 1.252 . S
C59 O71 1.272 . S
O60 Sm40 2.543 . S
O60 C42 1.261 . S
O61 Sm40 2.450 . S
O61 C42 1.242 . S
O62 Sm40 2.681 . S
O62 Sm41 2.386 . S
O62 C49 1.271 . S
O63 Sm40 2.464 . S
O63 C49 1.251 . S
O64 Sm40 2.396 . S
O64 C50 1.252 . S
O65 Sm41 2.408 . S
O65 C50 1.272 . S
O66 Sm41 2.543 . S
O66 C51 1.261 . S
O67 Sm41 2.450 . S
O67 C51 1.242 . S
O68 Sm40 2.386 . S
O68 Sm41 2.681 . S
O68 C58 1.271 . S
O69 Sm41 2.464 . S
O69 C58 1.251 . S
O70 Sm41 2.396 . S
O70 C59 1.252 . S
O71 Sm40 2.408 . S
O71 C59 1.272 . S
H72 C44 0.930 . S
H73 C45 0.929 . S
H74 C47 0.930 1_554 S
H75 C48 0.929 . S
H76 C53 0.930 . S
H77 C54 0.929 . S
H78 C56 0.930 . S
H79 C57 0.929 . S
Sm80 C82 2.846 . S
Sm80 O100 2.551 . S
Sm80 O101 2.450 . S
Sm80 O102 2.681 1_554 S
Sm80 O103 2.464 . S
Sm80 O104 2.396 1_565 S
Sm80 O108 2.386 1_565 S
Sm80 O111 2.408 . S
Sm81 C91 2.846 . S
Sm81 O102 2.386 1_545 S
Sm81 O105 2.408 . S
Sm81 O106 2.557 . S
Sm81 O107 2.450 . S
Sm81 O108 2.681 1_556 S
Sm81 O109 2.464 . S
Sm81 O110 2.396 1_545 S
C82 Sm80 2.846 . S
C82 C83 1.506 . S
C82 O100 1.270 . S
C82 O101 1.242 . S
C83 C82 1.506 . S
C83 C84 1.358 1_565 S
C83 C88 1.382 . S
C84 C83 1.358 1_545 S
C84 C85 1.385 . S
C84 H112 0.930 . S
C85 C84 1.385 . S
C85 C86 1.395 1_545 S
C85 H113 0.929 . S
C86 C85 1.395 1_565 S
C86 C87 1.335 . S
C87 C86 1.335 . S
C87 C88 1.398 . S
C87 H114 0.930 . S
C88 C83 1.382 . S
C88 C87 1.398 . S
C88 H115 0.929 . S
C89 O102 1.271 . S
C89 O103 1.251 1_556 S
C90 O104 1.252 . S
C90 O105 1.272 1_554 S
C91 Sm81 2.846 . S
C91 C92 1.506 . S
C91 O106 1.277 . S
C91 O107 1.242 . S
C92 C91 1.506 . S
C92 C93 1.358 1_545 S
C92 C97 1.382 . S
C93 C92 1.358 1_565 S
C93 C94 1.385 . S
C93 H116 0.930 . S
C94 C93 1.385 . S
C94 C95 1.395 1_565 S
C94 H117 0.929 . S
C95 C94 1.395 1_545 S
C95 C96 1.335 . S
C96 C95 1.335 . S
C96 C97 1.398 . S
C96 H118 0.930 . S
C97 C92 1.382 . S
C97 C96 1.398 . S
C97 H119 0.929 . S
C98 O108 1.271 . S
C98 O109 1.251 1_554 S
C99 O110 1.252 . S
C99 O111 1.272 1_556 S
O100 Sm80 2.551 . S
O100 C82 1.270 . S
O101 Sm80 2.450 . S
O101 C82 1.242 . S
O102 Sm80 2.681 1_556 S
O102 Sm81 2.386 1_565 S
O102 C89 1.271 . S
O103 Sm80 2.464 . S
O103 C89 1.251 1_554 S
O104 Sm80 2.396 1_545 S
O104 C90 1.252 . S
O105 Sm81 2.408 . S
O105 C90 1.272 1_556 S
O106 Sm81 2.557 . S
O106 C91 1.277 . S
O107 Sm81 2.450 . S
O107 C91 1.242 . S
O108 Sm80 2.386 1_545 S
O108 Sm81 2.681 1_554 S
O108 C98 1.271 . S
O109 Sm81 2.464 . S
O109 C98 1.251 1_556 S
O110 Sm81 2.396 1_565 S
O110 C99 1.252 . S
O111 Sm80 2.408 . S
O111 C99 1.272 1_554 S
H112 C84 0.930 . S
H113 C85 0.929 . S
H114 C87 0.930 . S
H115 C88 0.929 . S
H116 C93 0.930 . S
H117 C94 0.929 . S
H118 C96 0.930 . S
H119 C97 0.929 . S
Sm120 C122 2.846 . S
Sm120 O140 2.543 . S
Sm120 O141 2.450 . S
Sm120 O142 2.681 . S
Sm120 O143 2.464 . S
Sm120 O144 2.396 . S
Sm120 O148 2.386 . S
Sm120 O151 2.408 . S
Sm121 C131 2.846 . S
Sm121 O142 2.386 . S
Sm121 O145 2.408 . S
Sm121 O146 2.543 . S
Sm121 O147 2.450 . S
Sm121 O148 2.681 . S
Sm121 O149 2.464 . S
Sm121 O150 2.396 . S
C122 Sm120 2.846 . S
C122 C123 1.506 . S
C122 O140 1.261 . S
C122 O141 1.242 . S
C123 C122 1.506 . S
C123 C124 1.358 . S
C123 C128 1.382 . S
C124 C123 1.358 . S
C124 C125 1.385 1_554 S
C124 H152 0.930 . S
C125 C124 1.385 1_556 S
C125 C126 1.395 . S
C125 H153 0.929 . S
C126 C125 1.395 . S
C126 C127 1.335 . S
C127 C126 1.335 . S
C127 C128 1.398 1_556 S
C127 H154 0.930 . S
C128 C123 1.382 . S
C128 C127 1.398 1_554 S
C128 H155 0.929 . S
C129 O142 1.271 . S
C129 O143 1.251 . S
C130 O144 1.252 . S
C130 O145 1.272 . S
C131 Sm121 2.846 . S
C131 C132 1.506 . S
C131 O146 1.261 . S
C131 O147 1.242 . S
C132 C131 1.506 . S
C132 C133 1.358 . S
C132 C137 1.382 . S
C133 C132 1.358 . S
C133 C134 1.385 . S
C133 H156 0.930 . S
C134 C133 1.385 . S
C134 C135 1.395 . S
C134 H157 0.929 . S
C135 C134 1.395 . S
C135 C136 1.335 . S
C136 C135 1.335 . S
C136 C137 1.398 . S
C136 H158 0.930 . S
C137 C132 1.382 . S
C137 C136 1.398 . S
C137 H159 0.929 . S
C138 O148 1.271 . S
C138 O149 1.251 . S
C139 O150 1.252 . S
C139 O151 1.272 . S
O140 Sm120 2.543 . S
O140 C122 1.261 . S
O141 Sm120 2.450 . S
O141 C122 1.242 . S
O142 Sm120 2.681 . S
O142 Sm121 2.386 . S
O142 C129 1.271 . S
O143 Sm120 2.464 . S
O143 C129 1.251 . S
O144 Sm120 2.396 . S
O144 C130 1.252 . S
O145 Sm121 2.408 . S
O145 C130 1.272 . S
O146 Sm121 2.543 . S
O146 C131 1.261 . S
O147 Sm121 2.450 . S
O147 C131 1.242 . S
O148 Sm120 2.386 . S
O148 Sm121 2.681 . S
O148 C138 1.271 . S
O149 Sm121 2.464 . S
O149 C138 1.251 . S
O150 Sm121 2.396 . S
O150 C139 1.252 . S
O151 Sm120 2.408 . S
O151 C139 1.272 . S
H152 C124 0.930 . S
H153 C125 0.929 . S
H154 C127 0.930 . S
H155 C128 0.929 . S
H156 C133 0.930 . S
H157 C134 0.929 . S
H158 C136 0.930 . S
H159 C137 0.929 . S
Sm160 C162 2.846 . S
Sm160 O180 2.543 . S
Sm160 O181 2.450 . S
Sm160 O182 2.681 . S
Sm160 O183 2.464 . S
Sm160 O184 2.396 . S
Sm160 O188 2.386 . S
Sm160 O191 2.408 . S
Sm161 C171 2.846 . S
Sm161 O182 2.386 . S
Sm161 O185 2.408 . S
Sm161 O186 2.543 . S
Sm161 O187 2.450 . S
Sm161 O188 2.681 . S
Sm161 O189 2.464 . S
Sm161 O190 2.396 . S
C162 Sm160 2.846 . S
C162 C163 1.506 . S
C162 O180 1.261 . S
C162 O181 1.242 . S
C163 C162 1.506 . S
C163 C164 1.358 . S
C163 C168 1.382 . S
C164 C163 1.358 . S
C164 C165 1.385 . S
C164 H192 0.930 . S
C165 C164 1.385 . S
C165 C166 1.395 . S
C165 H193 0.929 . S
C166 C165 1.395 . S
C166 C167 1.335 . S
C167 C166 1.335 . S
C167 C168 1.398 . S
C167 H194 0.930 . S
C168 C163 1.382 . S
C168 C167 1.398 . S
C168 H195 0.929 . S
C169 O182 1.271 . S
C169 O183 1.251 . S
C170 O184 1.252 . S
C170 O185 1.272 . S
C171 Sm161 2.846 . S
C171 C172 1.506 . S
C171 O186 1.261 . S
C171 O187 1.242 . S
C172 C171 1.506 . S
C172 C173 1.358 . S
C172 C177 1.382 . S
C173 C172 1.358 . S
C173 C174 1.385 1_554 S
C173 H196 0.930 . S
C174 C173 1.385 1_556 S
C174 C175 1.395 . S
C174 H197 0.929 . S
C175 C174 1.395 . S
C175 C176 1.335 1_556 S
C176 C175 1.335 1_554 S
C176 C177 1.398 . S
C176 H198 0.930 1_554 S
C177 C172 1.382 . S
C177 C176 1.398 . S
C177 H199 0.929 . S
C178 O188 1.271 . S
C178 O189 1.251 . S
C179 O190 1.252 . S
C179 O191 1.272 . S
O180 Sm160 2.543 . S
O180 C162 1.261 . S
O181 Sm160 2.450 . S
O181 C162 1.242 . S
O182 Sm160 2.681 . S
O182 Sm161 2.386 . S
O182 C169 1.271 . S
O183 Sm160 2.464 . S
O183 C169 1.251 . S
O184 Sm160 2.396 . S
O184 C170 1.252 . S
O185 Sm161 2.408 . S
O185 C170 1.272 . S
O186 Sm161 2.543 . S
O186 C171 1.261 . S
O187 Sm161 2.450 . S
O187 C171 1.242 . S
O188 Sm160 2.386 . S
O188 Sm161 2.681 . S
O188 C178 1.271 . S
O189 Sm161 2.464 . S
O189 C178 1.251 . S
O190 Sm161 2.396 . S
O190 C179 1.252 . S
O191 Sm160 2.408 . S
O191 C179 1.272 . S
H192 C164 0.930 . S
H193 C165 0.929 . S
H194 C167 0.930 . S
H195 C168 0.929 . S
H196 C173 0.930 . S
H197 C174 0.929 . S
H198 C176 0.930 1_556 S
H199 C177 0.929 . S
Sm200 C202 2.846 . S
Sm200 O220 2.543 . S
Sm200 O221 2.450 . S
Sm200 O222 2.681 . S
Sm200 O223 2.464 . S
Sm200 O224 2.396 . S
Sm200 O228 2.386 . S
Sm200 O231 2.408 . S
Sm201 C211 2.846 . S
Sm201 O222 2.386 . S
Sm201 O225 2.408 . S
Sm201 O226 2.543 . S
Sm201 O227 2.450 . S
Sm201 O228 2.681 . S
Sm201 O229 2.464 . S
Sm201 O230 2.396 . S
C202 Sm200 2.846 . S
C202 C203 1.506 . S
C202 O220 1.261 . S
C202 O221 1.242 . S
C203 C202 1.506 . S
C203 C204 1.358 . S
C203 C208 1.382 . S
C204 C203 1.358 . S
C204 C205 1.385 . S
C204 H232 0.930 . S
C205 C204 1.385 . S
C205 C206 1.395 . S
C205 H233 0.929 . S
C206 C205 1.395 . S
C206 C207 1.335 . S
C207 C206 1.335 . S
C207 C208 1.398 . S
C207 H234 0.930 . S
C208 C203 1.382 . S
C208 C207 1.398 . S
C208 H235 0.929 . S
C209 O222 1.271 . S
C209 O223 1.251 . S
C210 O224 1.252 . S
C210 O225 1.272 . S
C211 Sm201 2.846 . S
C211 C212 1.506 . S
C211 O226 1.261 . S
C211 O227 1.242 . S
C212 C211 1.506 . S
C212 C213 1.358 . S
C212 C217 1.382 . S
C213 C212 1.358 . S
C213 C214 1.385 1_556 S
C213 H236 0.930 . S
C214 C213 1.385 1_554 S
C214 C215 1.395 . S
C214 H237 0.929 . S
C215 C214 1.395 . S
C215 C216 1.335 . S
C216 C215 1.335 . S
C216 C217 1.398 1_554 S
C216 H238 0.930 . S
C217 C212 1.382 . S
C217 C216 1.398 1_556 S
C217 H239 0.929 . S
C218 O228 1.271 . S
C218 O229 1.251 . S
C219 O230 1.252 . S
C219 O231 1.272 . S
O220 Sm200 2.543 . S
O220 C202 1.261 . S
O221 Sm200 2.450 . S
O221 C202 1.242 . S
O222 Sm200 2.681 . S
O222 Sm201 2.386 . S
O222 C209 1.271 . S
O223 Sm200 2.464 . S
O223 C209 1.251 . S
O224 Sm200 2.396 . S
O224 C210 1.252 . S
O225 Sm201 2.408 . S
O225 C210 1.272 . S
O226 Sm201 2.543 . S
O226 C211 1.261 . S
O227 Sm201 2.450 . S
O227 C211 1.242 . S
O228 Sm200 2.386 . S
O228 Sm201 2.681 . S
O228 C218 1.271 . S
O229 Sm201 2.464 . S
O229 C218 1.251 . S
O230 Sm201 2.396 . S
O230 C219 1.252 . S
O231 Sm200 2.408 . S
O231 C219 1.272 . S
H232 C204 0.930 . S
H233 C205 0.929 . S
H234 C207 0.930 . S
H235 C208 0.929 . S
H236 C213 0.930 . S
H237 C214 0.929 . S
H238 C216 0.930 . S
H239 C217 0.929 . S
Sm240 C242 2.846 . S
Sm240 O260 2.543 . S
Sm240 O261 2.450 . S
Sm240 O262 2.681 1_556 S
Sm240 O263 2.464 . S
Sm240 O264 2.396 . S
Sm240 O268 2.386 . S
Sm240 O271 2.408 1_556 S
Sm241 C251 2.846 . S
Sm241 O262 2.386 . S
Sm241 O265 2.408 1_554 S
Sm241 O266 2.543 . S
Sm241 O267 2.450 . S
Sm241 O268 2.681 1_554 S
Sm241 O269 2.464 . S
Sm241 O270 2.396 . S
C242 Sm240 2.846 . S
C242 C243 1.506 . S
C242 O260 1.261 . S
C242 O261 1.242 . S
C243 C242 1.506 . S
C243 C244 1.358 . S
C243 C248 1.382 . S
C244 C243 1.358 . S
C244 C245 1.385 . S
C244 H272 0.930 . S
C245 C244 1.385 . S
C245 C246 1.395 . S
C245 H273 0.929 . S
C246 C245 1.395 . S
C246 C247 1.335 . S
C247 C246 1.335 . S
C247 C248 1.398 . S
C247 H274 0.930 . S
C248 C243 1.382 . S
C248 C247 1.398 . S
C248 H275 0.929 . S
C249 O262 1.271 . S
C249 O263 1.251 1_554 S
C250 O264 1.252 . S
C250 O265 1.272 . S
C251 Sm241 2.846 . S
C251 C252 1.506 . S
C251 O266 1.261 . S
C251 O267 1.242 . S
C252 C251 1.506 . S
C252 C253 1.358 . S
C252 C257 1.382 . S
C253 C252 1.358 . S
C253 C254 1.385 . S
C253 H276 0.930 . S
C254 C253 1.385 . S
C254 C255 1.395 . S
C254 H277 0.929 . S
C255 C254 1.395 . S
C255 C256 1.335 . S
C256 C255 1.335 . S
C256 C257 1.398 . S
C256 H278 0.930 . S
C257 C252 1.382 . S
C257 C256 1.398 . S
C257 H279 0.929 . S
C258 O268 1.271 . S
C258 O269 1.251 1_556 S
C259 O270 1.252 . S
C259 O271 1.272 . S
O260 Sm240 2.543 . S
O260 C242 1.261 . S
O261 Sm240 2.450 . S
O261 C242 1.242 . S
O262 Sm240 2.681 1_554 S
O262 Sm241 2.386 . S
O262 C249 1.271 . S
O263 Sm240 2.464 . S
O263 C249 1.251 1_556 S
O264 Sm240 2.396 . S
O264 C250 1.252 . S
O265 Sm241 2.408 1_556 S
O265 C250 1.272 . S
O266 Sm241 2.543 . S
O266 C251 1.261 . S
O267 Sm241 2.450 . S
O267 C251 1.242 . S
O268 Sm240 2.386 . S
O268 Sm241 2.681 1_556 S
O268 C258 1.271 . S
O269 Sm241 2.464 . S
O269 C258 1.251 1_554 S
O270 Sm241 2.396 . S
O270 C259 1.252 . S
O271 Sm240 2.408 1_554 S
O271 C259 1.272 . S
H272 C244 0.930 . S
H273 C245 0.929 . S
H274 C247 0.930 . S
H275 C248 0.929 . S
H276 C253 0.930 . S
H277 C254 0.929 . S
H278 C256 0.930 . S
H279 C257 0.929 . S
Sm280 C282 2.846 1_455 S
Sm280 O300 2.543 . S
Sm280 O301 2.450 1_455 S
Sm280 O302 2.681 1_455 S
Sm280 O303 2.464 1_455 S
Sm280 O304 2.396 1_455 S
Sm280 O308 2.386 . S
Sm280 O311 2.408 . S
Sm281 C291 2.846 1_655 S
Sm281 O302 2.386 . S
Sm281 O305 2.408 . S
Sm281 O306 2.543 . S
Sm281 O307 2.450 1_655 S
Sm281 O308 2.681 1_655 S
Sm281 O309 2.464 1_655 S
Sm281 O310 2.396 1_655 S
C282 Sm280 2.846 1_655 S
C282 C283 1.506 . S
C282 O300 1.261 1_655 S
C282 O301 1.242 . S
C283 C282 1.506 . S
C283 C284 1.358 . S
C283 C288 1.382 . S
C284 C283 1.358 . S
C284 C285 1.385 . S
C284 H312 0.930 1_655 S
C285 C284 1.385 . S
C285 C286 1.395 . S
C285 H313 0.929 . S
C286 C285 1.395 . S
C286 C287 1.335 . S
C287 C286 1.335 . S
C287 C288 1.398 . S
C287 H314 0.930 . S
C288 C283 1.382 . S
C288 C287 1.398 . S
C288 H315 0.929 . S
C289 O302 1.271 . S
C289 O303 1.251 . S
C290 O304 1.252 . S
C290 O305 1.272 . S
C291 Sm281 2.846 1_455 S
C291 C292 1.506 . S
C291 O306 1.261 1_455 S
C291 O307 1.242 . S
C292 C291 1.506 . S
C292 C293 1.358 . S
C292 C297 1.382 . S
C293 C292 1.358 . S
C293 C294 1.385 . S
C293 H316 0.930 1_455 S
C294 C293 1.385 . S
C294 C295 1.395 . S
C294 H317 0.929 . S
C295 C294 1.395 . S
C295 C296 1.335 . S
C296 C295 1.335 . S
C296 C297 1.398 . S
C296 H318 0.930 . S
C297 C292 1.382 . S
C297 C296 1.398 . S
C297 H319 0.929 . S
C298 O308 1.271 . S
C298 O309 1.251 . S
C299 O310 1.252 . S
C299 O311 1.272 . S
O300 Sm280 2.543 . S
O300 C282 1.261 1_455 S
O301 Sm280 2.450 1_655 S
O301 C282 1.242 . S
O302 Sm280 2.681 1_655 S
O302 Sm281 2.386 . S
O302 C289 1.271 . S
O303 Sm280 2.464 1_655 S
O303 C289 1.251 . S
O304 Sm280 2.396 1_655 S
O304 C290 1.252 . S
O305 Sm281 2.408 . S
O305 C290 1.272 . S
O306 Sm281 2.543 . S
O306 C291 1.261 1_655 S
O307 Sm281 2.450 1_455 S
O307 C291 1.242 . S
O308 Sm280 2.386 . S
O308 Sm281 2.681 1_455 S
O308 C298 1.271 . S
O309 Sm281 2.464 1_455 S
O309 C298 1.251 . S
O310 Sm281 2.396 1_455 S
O310 C299 1.252 . S
O311 Sm280 2.408 . S
O311 C299 1.272 . S
H312 C284 0.930 1_455 S
H313 C285 0.929 . S
H314 C287 0.930 . S
H315 C288 0.929 . S
H316 C293 0.930 1_655 S
H317 C294 0.929 . S
H318 C296 0.930 . S
H319 C297 0.929 . S
H320 C328 0.929 . S
H321 C330 0.930 . S
H322 C332 0.930 . S
H323 C335 0.929 . S
H324 C338 0.930 . S
H325 C340 0.960 . S
H326 C340 0.960 . S
H327 C340 0.960 . S
C328 H320 0.929 . S
C328 C329 1.377 . S
C328 C330 1.384 . S
C329 C328 1.377 . S
C329 C335 1.390 . S
C330 H321 0.930 . S
C330 C328 1.384 . S
C330 C331 1.372 . S
C331 C330 1.372 . S
C331 C332 1.400 . S
C331 C336 1.490 . S
C332 H322 0.930 . S
C332 C331 1.400 . S
C332 C335 1.386 . S
H333 C349 0.930 . S
H334 C350 0.931 . S
C335 H323 0.929 . S
C335 C329 1.390 . S
C335 C332 1.386 . S
C336 C331 1.490 . S
C336 C338 1.395 . S
C336 C339 1.403 . S
H337 C343 0.930 . S
C338 H324 0.930 . S
C338 C336 1.395 . S
C338 C341 1.403 . S
C339 C336 1.403 . S
C339 C340 1.524 . S
C339 C343 1.400 . S
C340 H325 0.960 . S
C340 H326 0.960 . S
C340 H327 0.960 . S
C340 C339 1.524 . S
C341 C338 1.403 . S
C341 C342 1.392 . S
C341 C345 1.495 . S
C342 C341 1.392 . S
C342 C343 1.385 . S
C342 C344 1.478 . S
C343 H337 0.930 . S
C343 C339 1.400 . S
C343 C342 1.385 . S
C344 C342 1.478 . S
C344 C346 1.381 . S
C344 C350 1.383 . S
C345 C341 1.495 . S
C345 H351 0.959 . S
C345 H352 0.961 . S
C345 H353 0.960 . S
C346 C344 1.381 . S
C346 C347 1.394 . S
C346 H354 0.930 . S
C347 C346 1.394 . S
C347 C348 1.383 . S
C347 H355 0.929 . S
C348 C347 1.383 . S
C348 C349 1.377 . S
C349 H333 0.930 . S
C349 C348 1.377 . S
C349 C350 1.379 . S
C350 H334 0.931 . S
C350 C344 1.383 . S
C350 C349 1.379 . S
H351 C345 0.959 . S
H352 C345 0.961 . S
H353 C345 0.960 . S
H354 C346 0.930 . S
H355 C347 0.929 . S
H356 C364 0.929 . S
H357 C366 0.930 . S
H358 C368 0.930 . S
H359 C371 0.929 . S
H360 C374 0.930 . S
H361 C376 0.960 . S
H362 C376 0.960 . S
H363 C376 0.960 . S
C364 H356 0.929 . S
C364 C365 1.377 . S
C364 C366 1.384 . S
C365 C364 1.377 . S
C365 C371 1.390 . S
C366 H357 0.930 . S
C366 C364 1.384 . S
C366 C367 1.372 . S
C367 C366 1.372 . S
C367 C368 1.400 . S
C367 C372 1.490 . S
C368 H358 0.930 . S
C368 C367 1.400 . S
C368 C371 1.386 . S
H369 C385 0.930 . S
H370 C386 0.931 . S
C371 H359 0.929 . S
C371 C365 1.390 . S
C371 C368 1.386 . S
C372 C367 1.490 . S
C372 C374 1.395 . S
C372 C375 1.403 . S
H373 C379 0.930 . S
C374 H360 0.930 . S
C374 C372 1.395 . S
C374 C377 1.403 . S
C375 C372 1.403 . S
C375 C376 1.524 . S
C375 C379 1.400 . S
C376 H361 0.960 . S
C376 H362 0.960 . S
C376 H363 0.960 . S
C376 C375 1.524 . S
C377 C374 1.403 . S
C377 C378 1.392 . S
C377 C381 1.495 . S
C378 C377 1.392 . S
C378 C379 1.385 . S
C378 C380 1.478 . S
C379 H373 0.930 . S
C379 C375 1.400 . S
C379 C378 1.385 . S
C380 C378 1.478 . S
C380 C382 1.381 . S
C380 C386 1.383 . S
C381 C377 1.495 . S
C381 H387 0.959 . S
C381 H388 0.961 . S
C381 H389 0.960 . S
C382 C380 1.381 . S
C382 C383 1.394 . S
C382 H390 0.930 . S
C383 C382 1.394 . S
C383 C384 1.383 . S
C383 H391 0.929 . S
C384 C383 1.383 . S
C384 C385 1.377 . S
C385 H369 0.930 . S
C385 C384 1.377 . S
C385 C386 1.379 . S
C386 H370 0.931 . S
C386 C380 1.383 . S
C386 C385 1.379 . S
H387 C381 0.959 . S
H388 C381 0.961 . S
H389 C381 0.960 . S
H390 C382 0.930 . S
H391 C383 0.929 . S
H392 C400 0.929 . S
H393 C402 0.930 . S
H394 C404 0.930 . S
H395 C407 0.929 . S
H396 C410 0.930 . S
H397 C412 0.960 . S
H398 C412 0.960 . S
H399 C412 0.960 . S
C400 H392 0.929 . S
C400 C401 1.377 . S
C400 C402 1.384 . S
C401 C400 1.377 . S
C401 C407 1.390 . S
C402 H393 0.930 . S
C402 C400 1.384 . S
C402 C403 1.372 . S
C403 C402 1.372 . S
C403 C404 1.400 . S
C403 C408 1.490 . S
C404 H394 0.930 . S
C404 C403 1.400 . S
C404 C407 1.386 . S
H405 C421 0.930 . S
H406 C422 0.931 . S
C407 H395 0.929 . S
C407 C401 1.390 . S
C407 C404 1.386 . S
C408 C403 1.490 . S
C408 C410 1.395 . S
C408 C411 1.403 . S
H409 C415 0.930 . S
C410 H396 0.930 . S
C410 C408 1.395 . S
C410 C413 1.403 . S
C411 C408 1.403 . S
C411 C412 1.524 . S
C411 C415 1.400 . S
C412 H397 0.960 . S
C412 H398 0.960 . S
C412 H399 0.960 . S
C412 C411 1.524 . S
C413 C410 1.403 . S
C413 C414 1.392 . S
C413 C417 1.495 . S
C414 C413 1.392 . S
C414 C415 1.385 . S
C414 C416 1.478 . S
C415 H409 0.930 . S
C415 C411 1.400 . S
C415 C414 1.385 . S
C416 C414 1.478 . S
C416 C418 1.381 . S
C416 C422 1.383 . S
C417 C413 1.495 . S
C417 H423 0.959 . S
C417 H424 0.961 . S
C417 H425 0.960 . S
C418 C416 1.381 . S
C418 C419 1.394 . S
C418 H426 0.930 . S
C419 C418 1.394 . S
C419 C420 1.383 . S
C419 H427 0.929 1_556 S
C420 C419 1.383 . S
C420 C421 1.377 . S
C421 H405 0.930 . S
C421 C420 1.377 . S
C421 C422 1.379 . S
C422 H406 0.931 . S
C422 C416 1.383 . S
C422 C421 1.379 . S
H423 C417 0.959 . S
H424 C417 0.961 . S
H425 C417 0.960 . S
H426 C418 0.930 . S
H427 C419 0.929 1_554 S
H428 C436 0.929 . S
H429 C438 0.930 . S
H430 C440 0.930 . S
H431 C443 0.929 . S
H432 C446 0.930 . S
H433 C448 0.960 . S
H434 C448 0.960 . S
H435 C448 0.960 . S
C436 H428 0.929 . S
C436 C437 1.377 . S
C436 C438 1.384 . S
C437 C436 1.377 . S
C437 C443 1.390 . S
C438 H429 0.930 . S
C438 C436 1.384 . S
C438 C439 1.372 . S
C439 C438 1.372 . S
C439 C440 1.400 . S
C439 C444 1.490 . S
C440 H430 0.930 . S
C440 C439 1.400 . S
C440 C443 1.386 . S
H441 C457 0.930 . S
H442 C458 0.931 . S
C443 H431 0.929 . S
C443 C437 1.390 . S
C443 C440 1.386 . S
C444 C439 1.490 . S
C444 C446 1.395 . S
C444 C447 1.403 . S
H445 C451 0.930 . S
C446 H432 0.930 . S
C446 C444 1.395 . S
C446 C449 1.403 . S
C447 C444 1.403 . S
C447 C448 1.524 . S
C447 C451 1.400 . S
C448 H433 0.960 . S
C448 H434 0.960 . S
C448 H435 0.960 . S
C448 C447 1.524 . S
C449 C446 1.403 . S
C449 C450 1.392 . S
C449 C453 1.495 . S
C450 C449 1.392 . S
C450 C451 1.385 . S
C450 C452 1.478 . S
C451 H445 0.930 . S
C451 C447 1.400 . S
C451 C450 1.385 . S
C452 C450 1.478 . S
C452 C454 1.381 . S
C452 C458 1.383 . S
C453 C449 1.495 . S
C453 H459 0.959 . S
C453 H460 0.961 . S
C453 H461 0.960 . S
C454 C452 1.381 . S
C454 C455 1.394 . S
C454 H462 0.930 . S
C455 C454 1.394 . S
C455 C456 1.383 . S
C455 H463 0.929 . S
C456 C455 1.383 . S
C456 C457 1.377 . S
C457 H441 0.930 . S
C457 C456 1.377 . S
C457 C458 1.379 . S
C458 H442 0.931 . S
C458 C452 1.383 . S
C458 C457 1.379 . S
H459 C453 0.959 . S
H460 C453 0.961 . S
H461 C453 0.960 . S
H462 C454 0.930 . S
H463 C455 0.929 . S
H464 C472 0.929 . S
H465 C474 0.930 . S
H466 C476 0.930 . S
H467 C479 0.929 . S
H468 C482 0.930 . S
H469 C484 0.960 . S
H470 C484 0.960 . S
H471 C484 0.960 . S
C472 H464 0.929 . S
C472 C473 1.377 . S
C472 C474 1.384 . S
C473 C472 1.377 . S
C473 C479 1.390 . S
C474 H465 0.930 . S
C474 C472 1.384 . S
C474 C475 1.372 . S
C475 C474 1.372 . S
C475 C476 1.400 . S
C475 C480 1.490 . S
C476 H466 0.930 . S
C476 C475 1.400 . S
C476 C479 1.386 . S
H477 C493 0.930 . S
H478 C494 0.931 . S
C479 H467 0.929 . S
C479 C473 1.390 . S
C479 C476 1.386 . S
C480 C475 1.490 . S
C480 C482 1.395 . S
C480 C483 1.403 . S
H481 C487 0.930 . S
C482 H468 0.930 . S
C482 C480 1.395 . S
C482 C485 1.403 . S
C483 C480 1.403 . S
C483 C484 1.524 . S
C483 C487 1.400 . S
C484 H469 0.960 . S
C484 H470 0.960 . S
C484 H471 0.960 . S
C484 C483 1.524 . S
C485 C482 1.403 . S
C485 C486 1.392 . S
C485 C489 1.495 . S
C486 C485 1.392 . S
C486 C487 1.385 . S
C486 C488 1.478 . S
C487 H481 0.930 . S
C487 C483 1.400 . S
C487 C486 1.385 . S
C488 C486 1.478 . S
C488 C490 1.381 . S
C488 C494 1.383 . S
C489 C485 1.495 . S
C489 H495 0.959 . S
C489 H496 0.961 . S
C489 H497 0.960 . S
C490 C488 1.381 . S
C490 C491 1.394 . S
C490 H498 0.930 . S
C491 C490 1.394 . S
C491 C492 1.383 . S
C491 H499 0.929 . S
C492 C491 1.383 . S
C492 C493 1.377 . S
C493 H477 0.930 . S
C493 C492 1.377 . S
C493 C494 1.379 . S
C494 H478 0.931 . S
C494 C488 1.383 . S
C494 C493 1.379 . S
H495 C489 0.959 . S
H496 C489 0.961 . S
H497 C489 0.960 . S
H498 C490 0.930 . S
H499 C491 0.929 . S
H500 C508 0.929 . S
H501 C510 0.930 . S
H502 C512 0.930 . S
H503 C515 0.929 . S
H504 C518 0.930 . S
H505 C520 0.960 . S
H506 C520 0.960 . S
H507 C520 0.960 . S
C508 H500 0.929 . S
C508 C509 1.377 . S
C508 C510 1.384 . S
C509 C508 1.377 . S
C509 C515 1.390 . S
C510 H501 0.930 . S
C510 C508 1.384 . S
C510 C511 1.372 . S
C511 C510 1.372 . S
C511 C512 1.400 . S
C511 C516 1.490 . S
C512 H502 0.930 . S
C512 C511 1.400 . S
C512 C515 1.386 . S
H513 C529 0.930 . S
H514 C530 0.931 . S
C515 H503 0.929 . S
C515 C509 1.390 . S
C515 C512 1.386 . S
C516 C511 1.490 . S
C516 C518 1.395 . S
C516 C519 1.403 . S
H517 C523 0.930 . S
C518 H504 0.930 . S
C518 C516 1.395 . S
C518 C521 1.403 . S
C519 C516 1.403 . S
C519 C520 1.524 . S
C519 C523 1.400 . S
C520 H505 0.960 . S
C520 H506 0.960 . S
C520 H507 0.960 . S
C520 C519 1.524 . S
C521 C518 1.403 . S
C521 C522 1.392 . S
C521 C525 1.495 . S
C522 C521 1.392 . S
C522 C523 1.385 . S
C522 C524 1.478 . S
C523 H517 0.930 . S
C523 C519 1.400 . S
C523 C522 1.385 . S
C524 C522 1.478 . S
C524 C526 1.381 . S
C524 C530 1.383 . S
C525 C521 1.495 . S
C525 H531 0.959 . S
C525 H532 0.961 . S
C525 H533 0.960 . S
C526 C524 1.381 . S
C526 C527 1.394 . S
C526 H534 0.930 . S
C527 C526 1.394 . S
C527 C528 1.383 . S
C527 H535 0.929 . S
C528 C527 1.383 . S
C528 C529 1.377 . S
C529 H513 0.930 . S
C529 C528 1.377 . S
C529 C530 1.379 . S
C530 H514 0.931 . S
C530 C524 1.383 . S
C530 C529 1.379 . S
H531 C525 0.959 . S
H532 C525 0.961 . S
H533 C525 0.960 . S
H534 C526 0.930 . S
H535 C527 0.929 . S
H536 C544 0.929 . S
H537 C546 0.930 . S
H538 C548 0.930 . S
H539 C551 0.929 . S
H540 C554 0.930 . S
H541 C556 0.960 . S
H542 C556 0.960 . S
H543 C556 0.960 . S
C544 H536 0.929 . S
C544 C545 1.377 . S
C544 C546 1.384 . S
C545 C544 1.377 . S
C545 C551 1.390 . S
C546 H537 0.930 . S
C546 C544 1.384 . S
C546 C547 1.372 . S
C547 C546 1.372 . S
C547 C548 1.400 . S
C547 C552 1.490 . S
C548 H538 0.930 . S
C548 C547 1.400 . S
C548 C551 1.386 . S
H549 C565 0.930 1_556 S
H550 C566 0.931 . S
C551 H539 0.929 . S
C551 C545 1.390 . S
C551 C548 1.386 . S
C552 C547 1.490 . S
C552 C554 1.395 . S
C552 C555 1.403 . S
H553 C559 0.930 . S
C554 H540 0.930 . S
C554 C552 1.395 . S
C554 C557 1.403 . S
C555 C552 1.403 . S
C555 C556 1.524 . S
C555 C559 1.400 . S
C556 H541 0.960 . S
C556 H542 0.960 . S
C556 H543 0.960 . S
C556 C555 1.524 . S
C557 C554 1.403 . S
C557 C558 1.392 . S
C557 C561 1.495 . S
C558 C557 1.392 . S
C558 C559 1.385 . S
C558 C560 1.478 . S
C559 H553 0.930 . S
C559 C555 1.400 . S
C559 C558 1.385 . S
C560 C558 1.478 . S
C560 C562 1.381 . S
C560 C566 1.383 . S
C561 C557 1.495 . S
C561 H567 0.959 . S
C561 H568 0.961 . S
C561 H569 0.960 . S
C562 C560 1.381 . S
C562 C563 1.394 . S
C562 H570 0.930 . S
C563 C562 1.394 . S
C563 C564 1.383 . S
C563 H571 0.929 . S
C564 C563 1.383 . S
C564 C565 1.377 . S
C565 H549 0.930 1_554 S
C565 C564 1.377 . S
C565 C566 1.379 . S
C566 H550 0.931 . S
C566 C560 1.383 . S
C566 C565 1.379 . S
H567 C561 0.959 . S
H568 C561 0.961 . S
H569 C561 0.960 . S
H570 C562 0.930 . S
H571 C563 0.929 . S
H572 C580 0.929 . S
H573 C582 0.930 . S
H574 C584 0.930 . S
H575 C587 0.929 . S
H576 C590 0.930 . S
H577 C592 0.960 . S
H578 C592 0.960 . S
H579 C592 0.960 . S
C580 H572 0.929 . S
C580 C581 1.377 . S
C580 C582 1.384 . S
C581 C580 1.377 . S
C581 C587 1.390 . S
C582 H573 0.930 . S
C582 C580 1.384 . S
C582 C583 1.372 . S
C583 C582 1.372 . S
C583 C584 1.400 . S
C583 C588 1.490 . S
C584 H574 0.930 . S
C584 C583 1.400 . S
C584 C587 1.386 . S
H585 C601 0.930 . S
H586 C602 0.931 . S
C587 H575 0.929 . S
C587 C581 1.390 . S
C587 C584 1.386 . S
C588 C583 1.490 . S
C588 C590 1.395 . S
C588 C591 1.403 . S
H589 C595 0.930 . S
C590 H576 0.930 . S
C590 C588 1.395 . S
C590 C593 1.403 . S
C591 C588 1.403 . S
C591 C592 1.524 . S
C591 C595 1.400 . S
C592 H577 0.960 . S
C592 H578 0.960 . S
C592 H579 0.960 . S
C592 C591 1.524 . S
C593 C590 1.403 . S
C593 C594 1.392 . S
C593 C597 1.495 . S
C594 C593 1.392 . S
C594 C595 1.385 . S
C594 C596 1.478 . S
C595 H589 0.930 . S
C595 C591 1.400 . S
C595 C594 1.385 . S
C596 C594 1.478 . S
C596 C598 1.381 . S
C596 C602 1.383 . S
C597 C593 1.495 . S
C597 H603 0.959 . S
C597 H604 0.961 . S
C597 H605 0.960 . S
C598 C596 1.381 . S
C598 C599 1.394 . S
C598 H606 0.930 . S
C599 C598 1.394 . S
C599 C600 1.383 . S
C599 H607 0.913 1_556 S
C600 C599 1.383 . S
C600 C601 1.377 . S
C601 H585 0.930 . S
C601 C600 1.377 . S
C601 C602 1.379 . S
C602 H586 0.931 . S
C602 C596 1.383 . S
C602 C601 1.379 . S
H603 C597 0.959 . S
H604 C597 0.961 . S
H605 C597 0.960 . S
H606 C598 0.930 . S
H607 C599 0.913 1_554 S
H608 C616 0.929 . S
H609 C618 0.930 . S
H610 C620 0.930 . S
H611 C623 0.929 . S
H612 C626 0.930 . S
H613 C628 0.960 . S
H614 C628 0.960 . S
H615 C628 0.960 . S
C616 H608 0.929 . S
C616 C617 1.377 . S
C616 C618 1.384 . S
C617 C616 1.377 . S
C617 C623 1.390 . S
C618 H609 0.930 . S
C618 C616 1.384 . S
C618 C619 1.372 . S
C619 C618 1.372 . S
C619 C620 1.400 . S
C619 C624 1.490 . S
C620 H610 0.930 . S
C620 C619 1.400 . S
C620 C623 1.386 . S
H621 C637 0.930 . S
H622 C638 0.931 . S
C623 H611 0.929 . S
C623 C617 1.390 . S
C623 C620 1.386 . S
C624 C619 1.490 . S
C624 C626 1.395 . S
C624 C627 1.403 . S
H625 C631 0.930 . S
C626 H612 0.930 . S
C626 C624 1.395 . S
C626 C629 1.403 . S
C627 C624 1.403 . S
C627 C628 1.524 . S
C627 C631 1.400 . S
C628 H613 0.960 . S
C628 H614 0.960 . S
C628 H615 0.960 . S
C628 C627 1.524 . S
C629 C626 1.403 . S
C629 C630 1.392 . S
C629 C633 1.495 . S
C630 C629 1.392 . S
C630 C631 1.385 . S
C630 C632 1.478 . S
C631 H625 0.930 . S
C631 C627 1.400 . S
C631 C630 1.385 . S
C632 C630 1.478 . S
C632 C634 1.381 . S
C632 C638 1.383 . S
C633 C629 1.495 . S
C633 H639 0.959 . S
C633 H640 0.961 . S
C633 H641 0.960 . S
C634 C632 1.381 . S
C634 C635 1.394 . S
C634 H642 0.930 . S
C635 C634 1.394 . S
C635 C636 1.383 . S
C635 H643 0.929 . S
C636 C635 1.383 . S
C636 C637 1.377 . S
C637 H621 0.930 . S
C637 C636 1.377 . S
C637 C638 1.379 . S
C638 H622 0.931 . S
C638 C632 1.383 . S
C638 C637 1.379 . S
H639 C633 0.959 . S
H640 C633 0.961 . S
H641 C633 0.960 . S
H642 C634 0.930 . S
H643 C635 0.929 . S
H644 C652 0.929 . S
H645 C654 0.930 . S
H646 C656 0.930 . S
H647 C659 0.929 . S
H648 C662 0.930 . S
H649 C664 0.960 . S
H650 C664 0.960 . S
H651 C664 0.960 . S
C652 H644 0.929 . S
C652 C653 1.377 . S
C652 C654 1.384 . S
C653 C652 1.377 . S
C653 C659 1.390 . S
C654 H645 0.930 . S
C654 C652 1.384 . S
C654 C655 1.372 . S
C655 C654 1.372 . S
C655 C656 1.400 . S
C655 C660 1.490 . S
C656 H646 0.930 . S
C656 C655 1.400 . S
C656 C659 1.386 . S
H657 C673 0.930 . S
H658 C674 0.931 . S
C659 H647 0.929 . S
C659 C653 1.390 . S
C659 C656 1.386 . S
C660 C655 1.490 . S
C660 C662 1.395 . S
C660 C663 1.403 . S
H661 C667 0.930 . S
C662 H648 0.930 . S
C662 C660 1.395 . S
C662 C665 1.403 . S
C663 C660 1.403 . S
C663 C664 1.524 . S
C663 C667 1.400 . S
C664 H649 0.960 . S
C664 H650 0.960 . S
C664 H651 0.960 . S
C664 C663 1.524 . S
C665 C662 1.403 . S
C665 C666 1.392 . S
C665 C669 1.495 . S
C666 C665 1.392 . S
C666 C667 1.385 . S
C666 C668 1.478 . S
C667 H661 0.930 . S
C667 C663 1.400 . S
C667 C666 1.385 . S
C668 C666 1.478 . S
C668 C670 1.381 . S
C668 C674 1.383 . S
C669 C665 1.495 . S
C669 H675 0.959 . S
C669 H676 0.961 . S
C669 H677 0.960 . S
C670 C668 1.381 . S
C670 C671 1.394 . S
C670 H678 0.930 . S
C671 C670 1.394 . S
C671 C672 1.383 . S
C671 H679 0.929 1_554 S
C672 C671 1.383 . S
C672 C673 1.377 . S
C673 H657 0.930 . S
C673 C672 1.377 . S
C673 C674 1.379 . S
C674 H658 0.931 . S
C674 C668 1.383 . S
C674 C673 1.379 . S
H675 C669 0.959 . S
H676 C669 0.961 . S
H677 C669 0.960 . S
H678 C670 0.930 . S
H679 C671 0.929 1_556 S
H680 C688 0.929 . S
H681 C690 0.930 . S
H682 C692 0.930 . S
H683 C695 0.929 . S
H684 C698 0.930 . S
H685 C700 0.960 . S
H686 C700 0.960 . S
H687 C700 0.960 . S
C688 H680 0.929 . S
C688 C689 1.377 . S
C688 C690 1.384 . S
C689 C688 1.377 . S
C689 C695 1.390 . S
C690 H681 0.930 . S
C690 C688 1.384 . S
C690 C691 1.372 . S
C691 C690 1.372 . S
C691 C692 1.400 . S
C691 C696 1.490 . S
C692 H682 0.930 . S
C692 C691 1.400 . S
C692 C695 1.386 . S
H693 C709 0.930 . S
H694 C710 0.931 . S
C695 H683 0.929 . S
C695 C689 1.390 . S
C695 C692 1.386 . S
C696 C691 1.490 . S
C696 C698 1.395 . S
C696 C699 1.403 . S
H697 C703 0.930 . S
C698 H684 0.930 . S
C698 C696 1.395 . S
C698 C701 1.403 . S
C699 C696 1.403 . S
C699 C700 1.524 . S
C699 C703 1.400 . S
C700 H685 0.960 . S
C700 H686 0.960 . S
C700 H687 0.960 . S
C700 C699 1.524 . S
C701 C698 1.403 . S
C701 C702 1.392 . S
C701 C705 1.495 . S
C702 C701 1.392 . S
C702 C703 1.385 . S
C702 C704 1.478 . S
C703 H697 0.930 . S
C703 C699 1.400 . S
C703 C702 1.385 . S
C704 C702 1.478 . S
C704 C706 1.381 . S
C704 C710 1.383 . S
C705 C701 1.495 . S
C705 H711 0.959 . S
C705 H712 0.961 . S
C705 H713 0.960 . S
C706 C704 1.381 . S
C706 C707 1.394 . S
C706 H714 0.930 . S
C707 C706 1.394 . S
C707 C708 1.383 . S
C707 H715 0.929 . S
C708 C707 1.383 . S
C708 C709 1.377 . S
C709 H693 0.930 . S
C709 C708 1.377 . S
C709 C710 1.379 . S
C710 H694 0.931 . S
C710 C704 1.383 . S
C710 C709 1.379 . S
H711 C705 0.959 . S
H712 C705 0.961 . S
H713 C705 0.960 . S
H714 C706 0.930 . S
H715 C707 0.929 . S
H716 C724 0.929 . S
H717 C726 0.930 . S
H718 C728 0.930 . S
H719 C731 0.929 . S
H720 C734 0.930 . S
H721 C736 0.960 . S
H722 C736 0.960 . S
H723 C736 0.960 . S
C724 H716 0.929 . S
C724 C725 1.377 . S
C724 C726 1.384 . S
C725 C724 1.377 . S
C725 C731 1.390 . S
C726 H717 0.930 . S
C726 C724 1.384 . S
C726 C727 1.372 . S
C727 C726 1.372 . S
C727 C728 1.400 . S
C727 C732 1.490 . S
C728 H718 0.930 . S
C728 C727 1.400 . S
C728 C731 1.386 . S
H729 C745 0.930 . S
H730 C746 0.931 . S
C731 H719 0.929 . S
C731 C725 1.390 . S
C731 C728 1.386 . S
C732 C727 1.490 . S
C732 C734 1.395 . S
C732 C735 1.403 . S
H733 C739 0.930 . S
C734 H720 0.930 . S
C734 C732 1.395 . S
C734 C737 1.403 . S
C735 C732 1.403 . S
C735 C736 1.524 . S
C735 C739 1.400 . S
C736 H721 0.960 . S
C736 H722 0.960 . S
C736 H723 0.960 . S
C736 C735 1.524 . S
C737 C734 1.403 . S
C737 C738 1.392 . S
C737 C741 1.495 . S
C738 C737 1.392 . S
C738 C739 1.385 . S
C738 C740 1.478 . S
C739 H733 0.930 . S
C739 C735 1.400 . S
C739 C738 1.385 . S
C740 C738 1.478 . S
C740 C742 1.381 . S
C740 C746 1.383 . S
C741 C737 1.495 . S
C741 H747 0.959 . S
C741 H748 0.961 . S
C741 H749 0.960 . S
C742 C740 1.381 . S
C742 C743 1.394 . S
C742 H750 0.930 . S
C743 C742 1.394 . S
C743 C744 1.383 . S
C743 H751 0.929 . S
C744 C743 1.383 . S
C744 C745 1.377 . S
C745 H729 0.930 . S
C745 C744 1.377 . S
C745 C746 1.379 . S
C746 H730 0.931 . S
C746 C740 1.383 . S
C746 C745 1.379 . S
H747 C741 0.959 . S
H748 C741 0.961 . S
H749 C741 0.960 . S
H750 C742 0.930 . S
H751 C743 0.929 . S
H752 C760 0.929 . S
H753 C762 0.930 . S
H754 C764 0.930 . S
H755 C767 0.929 . S
H756 C770 0.930 . S
H757 C772 0.960 . S
H758 C772 0.960 . S
H759 C772 0.960 . S
C760 H752 0.929 . S
C760 C761 1.377 . S
C760 C762 1.384 . S
C761 C760 1.377 . S
C761 C767 1.390 . S
C762 H753 0.930 . S
C762 C760 1.384 . S
C762 C763 1.372 . S
C763 C762 1.372 . S
C763 C764 1.400 . S
C763 C768 1.490 . S
C764 H754 0.930 . S
C764 C763 1.400 . S
C764 C767 1.386 . S
H765 C781 0.930 . S
H766 C782 0.931 . S
C767 H755 0.929 . S
C767 C761 1.390 . S
C767 C764 1.386 . S
C768 C763 1.490 . S
C768 C770 1.395 . S
C768 C771 1.403 . S
H769 C775 0.930 . S
C770 H756 0.930 . S
C770 C768 1.395 . S
C770 C773 1.403 . S
C771 C768 1.403 . S
C771 C772 1.524 . S
C771 C775 1.400 . S
C772 H757 0.960 . S
C772 H758 0.960 . S
C772 H759 0.960 . S
C772 C771 1.524 . S
C773 C770 1.403 . S
C773 C774 1.392 . S
C773 C777 1.495 . S
C774 C773 1.392 . S
C774 C775 1.385 . S
C774 C776 1.478 . S
C775 H769 0.930 . S
C775 C771 1.400 . S
C775 C774 1.385 . S
C776 C774 1.478 . S
C776 C778 1.381 . S
C776 C782 1.383 . S
C777 C773 1.495 . S
C777 H783 0.959 . S
C777 H784 0.961 . S
C777 H785 0.960 . S
C778 C776 1.381 . S
C778 C779 1.394 . S
C778 H786 0.930 . S
C779 C778 1.394 . S
C779 C780 1.383 . S
C779 H787 0.929 . S
C780 C779 1.383 . S
C780 C781 1.377 . S
C781 H765 0.930 . S
C781 C780 1.377 . S
C781 C782 1.379 . S
C782 H766 0.931 . S
C782 C776 1.383 . S
C782 C781 1.379 . S
H783 C777 0.959 . S
H784 C777 0.961 . S
H785 C777 0.960 . S
H786 C778 0.930 . S
H787 C779 0.929 . S
H788 C796 0.929 . S
H789 C798 0.930 . S
H790 C800 0.930 . S
H791 C803 0.929 . S
H792 C806 0.930 . S
H793 C808 0.960 . S
H794 C808 0.960 . S
H795 C808 0.960 . S
C796 H788 0.929 . S
C796 C797 1.377 . S
C796 C798 1.384 . S
C797 C796 1.377 . S
C797 C803 1.390 . S
C798 H789 0.930 . S
C798 C796 1.384 . S
C798 C799 1.372 . S
C799 C798 1.372 . S
C799 C800 1.400 . S
C799 C804 1.490 . S
C800 H790 0.930 . S
C800 C799 1.400 . S
C800 C803 1.386 . S
H801 C817 0.930 . S
H802 C818 0.931 . S
C803 H791 0.929 . S
C803 C797 1.390 . S
C803 C800 1.386 . S
C804 C799 1.490 . S
C804 C806 1.395 . S
C804 C807 1.403 . S
H805 C811 0.930 . S
C806 H792 0.930 . S
C806 C804 1.395 . S
C806 C809 1.403 . S
C807 C804 1.403 . S
C807 C808 1.524 . S
C807 C811 1.400 . S
C808 H793 0.960 . S
C808 H794 0.960 . S
C808 H795 0.960 . S
C808 C807 1.524 . S
C809 C806 1.403 . S
C809 C810 1.392 . S
C809 C813 1.495 . S
C810 C809 1.392 . S
C810 C811 1.385 . S
C810 C812 1.478 . S
C811 H805 0.930 . S
C811 C807 1.400 . S
C811 C810 1.385 . S
C812 C810 1.478 . S
C812 C814 1.381 . S
C812 C818 1.383 . S
C813 C809 1.495 . S
C813 H819 0.959 . S
C813 H820 0.961 . S
C813 H821 0.960 . S
C814 C812 1.381 . S
C814 C815 1.394 . S
C814 H822 0.930 . S
C815 C814 1.394 . S
C815 C816 1.383 . S
C815 H823 0.929 . S
C816 C815 1.383 . S
C816 C817 1.377 . S
C817 H801 0.930 . S
C817 C816 1.377 . S
C817 C818 1.379 . S
C818 H802 0.931 . S
C818 C812 1.383 . S
C818 C817 1.379 . S
H819 C813 0.959 . S
H820 C813 0.961 . S
H821 C813 0.960 . S
H822 C814 0.930 . S
H823 C815 0.929 . S
H824 C832 0.929 . S
H825 C834 0.930 . S
H826 C836 0.930 . S
H827 C839 0.929 . S
H828 C842 0.930 . S
H829 C844 0.960 . S
H830 C844 0.960 . S
H831 C844 0.960 . S
C832 H824 0.929 . S
C832 C833 1.377 . S
C832 C834 1.384 . S
C833 C832 1.377 . S
C833 C839 1.390 . S
C834 H825 0.930 . S
C834 C832 1.384 . S
C834 C835 1.372 . S
C835 C834 1.372 . S
C835 C836 1.400 . S
C835 C840 1.490 . S
C836 H826 0.930 . S
C836 C835 1.400 . S
C836 C839 1.386 . S
H837 C853 0.930 . S
H838 C854 0.931 . S
C839 H827 0.929 . S
C839 C833 1.390 . S
C839 C836 1.386 . S
C840 C835 1.490 . S
C840 C842 1.395 . S
C840 C843 1.403 . S
H841 C847 0.930 . S
C842 H828 0.930 . S
C842 C840 1.395 . S
C842 C845 1.403 . S
C843 C840 1.403 . S
C843 C844 1.524 . S
C843 C847 1.400 . S
C844 H829 0.960 . S
C844 H830 0.960 . S
C844 H831 0.960 . S
C844 C843 1.524 . S
C845 C842 1.403 . S
C845 C846 1.392 . S
C845 C849 1.495 . S
C846 C845 1.392 . S
C846 C847 1.385 . S
C846 C848 1.478 . S
C847 H841 0.930 . S
C847 C843 1.400 . S
C847 C846 1.385 . S
C848 C846 1.478 . S
C848 C850 1.381 . S
C848 C854 1.383 . S
C849 C845 1.495 . S
C849 H855 0.959 . S
C849 H856 0.961 . S
C849 H857 0.960 . S
C850 C848 1.381 . S
C850 C851 1.394 . S
C850 H858 0.930 . S
C851 C850 1.394 . S
C851 C852 1.383 . S
C851 H859 0.929 . S
C852 C851 1.383 . S
C852 C853 1.377 . S
C853 H837 0.930 . S
C853 C852 1.377 . S
C853 C854 1.379 . S
C854 H838 0.931 . S
C854 C848 1.383 . S
C854 C853 1.379 . S
H855 C849 0.959 . S
H856 C849 0.961 . S
H857 C849 0.960 . S
H858 C850 0.930 . S
H859 C851 0.929 . S
H860 C868 0.929 . S
H861 C870 0.930 . S
H862 C872 0.930 . S
H863 C875 0.929 . S
H864 C878 0.930 . S
H865 C880 0.960 . S
H866 C880 0.960 . S
H867 C880 0.960 . S
C868 H860 0.929 . S
C868 C869 1.377 . S
C868 C870 1.384 . S
C869 C868 1.377 . S
C869 C875 1.390 . S
C870 H861 0.930 . S
C870 C868 1.384 . S
C870 C871 1.372 . S
C871 C870 1.372 . S
C871 C872 1.400 . S
C871 C876 1.490 . S
C872 H862 0.930 . S
C872 C871 1.400 . S
C872 C875 1.386 . S
H873 C889 0.930 . S
H874 C890 0.931 . S
C875 H863 0.929 . S
C875 C869 1.390 . S
C875 C872 1.386 . S
C876 C871 1.490 . S
C876 C878 1.395 . S
C876 C879 1.403 . S
H877 C883 0.930 . S
C878 H864 0.930 . S
C878 C876 1.395 . S
C878 C881 1.403 . S
C879 C876 1.403 . S
C879 C880 1.524 . S
C879 C883 1.400 . S
C880 H865 0.960 . S
C880 H866 0.960 . S
C880 H867 0.960 . S
C880 C879 1.524 . S
C881 C878 1.403 . S
C881 C882 1.392 . S
C881 C885 1.495 . S
C882 C881 1.392 . S
C882 C883 1.385 . S
C882 C884 1.478 . S
C883 H877 0.930 . S
C883 C879 1.400 . S
C883 C882 1.385 . S
C884 C882 1.478 . S
C884 C886 1.381 . S
C884 C890 1.383 . S
C885 C881 1.495 . S
C885 H891 0.959 . S
C885 H892 0.961 . S
C885 H893 0.960 . S
C886 C884 1.381 . S
C886 C887 1.394 . S
C886 H894 0.930 . S
C887 C886 1.394 . S
C887 C888 1.383 . S
C887 H895 0.929 . S
C888 C887 1.383 . S
C888 C889 1.377 . S
C889 H873 0.930 . S
C889 C888 1.377 . S
C889 C890 1.379 . S
C890 H874 0.931 . S
C890 C884 1.383 . S
C890 C889 1.379 . S
H891 C885 0.959 . S
H892 C885 0.961 . S
H893 C885 0.960 . S
H894 C886 0.930 . S
H895 C887 0.929 . S
H896 C904 0.929 . S
H897 C906 0.930 . S
H898 C908 0.930 . S
H899 C911 0.929 1_455 S
H900 C914 0.930 . S
H901 C916 0.960 . S
H902 C916 0.960 . S
H903 C916 0.960 1_565 S
C904 H896 0.929 . S
C904 C905 1.377 1_545 S
C904 C906 1.384 . S
C905 C904 1.377 1_565 S
C905 C911 1.390 . S
C906 H897 0.930 . S
C906 C904 1.384 . S
C906 C907 1.372 1_545 S
C907 C906 1.372 1_565 S
C907 C908 1.400 1_655 S
C907 C912 1.491 . S
C908 H898 0.930 . S
C908 C907 1.400 1_455 S
C908 C911 1.386 1_455 S
H909 C925 0.930 . S
H910 C926 0.931 . S
C911 H899 0.929 1_655 S
C911 C905 1.390 . S
C911 C908 1.386 1_655 S
C912 C907 1.491 . S
C912 C914 1.395 . S
C912 C915 1.402 1_665 S
H913 C919 0.930 . S
C914 H900 0.930 . S
C914 C912 1.395 . S
C914 C917 1.403 1_556 S
C915 C912 1.402 1_445 S
C915 C916 1.524 . S
C915 C919 1.400 1_556 S
C916 H901 0.960 . S
C916 H902 0.960 . S
C916 H903 0.960 1_545 S
C916 C915 1.524 . S
C917 C914 1.403 1_554 S
C917 C918 1.405 1_565 S
C917 C921 1.495 . S
C918 C917 1.405 1_545 S
C918 C919 1.372 1_655 S
C918 C920 1.477 1_655 S
C919 H913 0.930 . S
C919 C915 1.400 1_554 S
C919 C918 1.372 1_455 S
C920 C918 1.477 1_455 S
C920 C922 1.381 1_455 S
C920 C926 1.383 1_545 S
C921 C917 1.495 . S
C921 H927 0.959 . S
C921 H928 0.961 . S
C921 H929 0.960 1_565 S
C922 C920 1.381 1_655 S
C922 C923 1.394 1_655 S
C922 H930 0.930 . S
C923 C922 1.394 1_455 S
C923 C924 1.383 . S
C923 H931 0.929 1_455 S
C924 C923 1.383 . S
C924 C925 1.377 1_545 S
C925 H909 0.930 . S
C925 C924 1.377 1_565 S
C925 C926 1.379 . S
C926 H910 0.931 . S
C926 C920 1.383 1_565 S
C926 C925 1.379 . S
H927 C921 0.959 . S
H928 C921 0.961 . S
H929 C921 0.960 1_545 S
H930 C922 0.930 . S
H931 C923 0.929 1_655 S
H932 C940 0.929 . S
H933 C942 0.930 . S
H934 C944 0.930 . S
H935 C947 0.929 . S
H936 C950 0.930 . S
H937 C952 0.960 . S
H938 C952 0.960 . S
H939 C952 0.960 . S
C940 H932 0.929 . S
C940 C941 1.377 . S
C940 C942 1.384 . S
C941 C940 1.377 . S
C941 C947 1.390 . S
C942 H933 0.930 . S
C942 C940 1.384 . S
C942 C943 1.372 . S
C943 C942 1.372 . S
C943 C944 1.400 . S
C943 C948 1.490 . S
C944 H934 0.930 . S
C944 C943 1.400 . S
C944 C947 1.386 . S
H945 C961 0.930 . S
H946 C962 0.931 . S
C947 H935 0.929 . S
C947 C941 1.390 . S
C947 C944 1.386 . S
C948 C943 1.490 . S
C948 C950 1.395 . S
C948 C951 1.403 . S
H949 C955 0.930 . S
C950 H936 0.930 . S
C950 C948 1.395 . S
C950 C953 1.403 . S
C951 C948 1.403 . S
C951 C952 1.524 . S
C951 C955 1.400 . S
C952 H937 0.960 . S
C952 H938 0.960 . S
C952 H939 0.960 . S
C952 C951 1.524 . S
C953 C950 1.403 . S
C953 C954 1.392 . S
C953 C957 1.495 . S
C954 C953 1.392 . S
C954 C955 1.385 . S
C954 C956 1.478 . S
C955 H949 0.930 . S
C955 C951 1.400 . S
C955 C954 1.385 . S
C956 C954 1.478 . S
C956 C958 1.381 . S
C956 C962 1.383 . S
C957 C953 1.495 . S
C957 H963 0.959 . S
C957 H964 0.961 . S
C957 H965 0.960 . S
C958 C956 1.381 . S
C958 C959 1.394 . S
C958 H966 0.930 . S
C959 C958 1.394 . S
C959 C960 1.383 . S
C959 H967 0.929 . S
C960 C959 1.383 . S
C960 C961 1.377 . S
C961 H945 0.930 . S
C961 C960 1.377 . S
C961 C962 1.379 . S
C962 H946 0.931 . S
C962 C956 1.383 . S
C962 C961 1.379 . S
H963 C957 0.959 . S
H964 C957 0.961 . S
H965 C957 0.960 . S
H966 C958 0.930 . S
H967 C959 0.929 . S
H968 C976 0.929 . S
H969 C978 0.930 . S
H970 C980 0.930 . S
H971 C983 0.929 . S
H972 C986 0.930 . S
H973 C988 0.960 . S
H974 C988 0.960 . S
H975 C988 0.960 . S
C976 H968 0.929 . S
C976 C977 1.377 1_565 S
C976 C978 1.384 . S
C977 C976 1.377 1_545 S
C977 C983 1.390 . S
C978 H969 0.930 . S
C978 C976 1.384 . S
C978 C979 1.372 1_565 S
C979 C978 1.372 1_545 S
C979 C980 1.400 . S
C979 C984 1.490 . S
C980 H970 0.930 . S
C980 C979 1.400 . S
C980 C983 1.386 . S
H981 C997 0.930 . S
H982 C998 0.931 . S
C983 H971 0.929 . S
C983 C977 1.390 . S
C983 C980 1.386 . S
C984 C979 1.490 . S
C984 C986 1.395 1_545 S
C984 C987 1.403 . S
H985 C991 0.930 . S
C986 H972 0.930 . S
C986 C984 1.395 1_565 S
C986 C989 1.403 . S
C987 C984 1.403 . S
C987 C988 1.524 . S
C987 C991 1.400 . S
C988 H973 0.960 . S
C988 H974 0.960 . S
C988 H975 0.960 . S
C988 C987 1.524 . S
C989 C986 1.403 . S
C989 C990 1.392 . S
C989 C993 1.495 . S
C990 C989 1.392 . S
C990 C991 1.385 1_565 S
C990 C992 1.478 . S
C991 H985 0.930 . S
C991 C987 1.400 . S
C991 C990 1.385 1_545 S
C992 C990 1.478 . S
C992 C994 1.381 . S
C992 C998 1.383 1_565 S
C993 C989 1.495 . S
C993 H999 0.959 . S
C993 H1000 0.961 . S
C993 H1001 0.960 . S
C994 C992 1.381 . S
C994 C995 1.394 . S
C994 H1002 0.930 . S
C995 C994 1.394 . S
C995 C996 1.383 . S
C995 H1003 0.929 . S
C996 C995 1.383 . S
C996 C997 1.377 1_565 S
C997 H981 0.930 . S
C997 C996 1.377 1_545 S
C997 C998 1.379 . S
C998 H982 0.931 . S
C998 C992 1.383 1_545 S
C998 C997 1.379 . S
H999 C993 0.959 . S
H1000 C993 0.961 . S
H1001 C993 0.960 . S
H1002 C994 0.930 . S
H1003 C995 0.929 . S
H1004 C1012 0.929 . S
H1005 C1014 0.930 . S
H1006 C1016 0.930 . S
H1007 C1019 0.929 . S
H1008 C1022 0.930 . S
H1009 C1024 0.960 . S
H1010 C1024 0.960 . S
H1011 C1024 0.960 . S
C1012 H1004 0.929 . S
C1012 C1013 1.377 . S
C1012 C1014 1.384 . S
C1013 C1012 1.377 . S
C1013 C1019 1.390 . S
C1014 H1005 0.930 . S
C1014 C1012 1.384 . S
C1014 C1015 1.372 . S
C1015 C1014 1.372 . S
C1015 C1016 1.400 . S
C1015 C1020 1.490 . S
C1016 H1006 0.930 . S
C1016 C1015 1.400 . S
C1016 C1019 1.386 . S
H1017 C1033 0.930 . S
H1018 C1034 0.931 . S
C1019 H1007 0.929 . S
C1019 C1013 1.390 . S
C1019 C1016 1.386 . S
C1020 C1015 1.490 . S
C1020 C1022 1.395 . S
C1020 C1023 1.403 . S
H1021 C1027 0.930 . S
C1022 H1008 0.930 . S
C1022 C1020 1.395 . S
C1022 C1025 1.403 . S
C1023 C1020 1.403 . S
C1023 C1024 1.524 . S
C1023 C1027 1.400 . S
C1024 H1009 0.960 . S
C1024 H1010 0.960 . S
C1024 H1011 0.960 . S
C1024 C1023 1.524 . S
C1025 C1022 1.403 . S
C1025 C1026 1.392 . S
C1025 C1029 1.495 . S
C1026 C1025 1.392 . S
C1026 C1027 1.385 . S
C1026 C1028 1.478 . S
C1027 H1021 0.930 . S
C1027 C1023 1.400 . S
C1027 C1026 1.385 . S
C1028 C1026 1.478 . S
C1028 C1030 1.381 . S
C1028 C1034 1.383 . S
C1029 C1025 1.495 . S
C1029 H1035 0.959 . S
C1029 H1036 0.961 . S
C1029 H1037 0.960 . S
C1030 C1028 1.381 . S
C1030 C1031 1.394 . S
C1030 H1038 0.930 . S
C1031 C1030 1.394 . S
C1031 C1032 1.383 . S
C1031 H1039 0.929 . S
C1032 C1031 1.383 . S
C1032 C1033 1.377 . S
C1033 H1017 0.930 . S
C1033 C1032 1.377 . S
C1033 C1034 1.379 . S
C1034 H1018 0.931 . S
C1034 C1028 1.383 . S
C1034 C1033 1.379 . S
H1035 C1029 0.959 . S
H1036 C1029 0.961 . S
H1037 C1029 0.960 . S
H1038 C1030 0.930 . S
H1039 C1031 0.929 . S
H1040 C1048 0.929 . S
H1041 C1050 0.930 . S
H1042 C1052 0.930 . S
H1043 C1055 0.929 . S
H1044 C1058 0.930 . S
H1045 C1060 0.960 . S
H1046 C1060 0.960 . S
H1047 C1060 0.960 . S
C1048 H1040 0.929 . S
C1048 C1049 1.377 . S
C1048 C1050 1.384 . S
C1049 C1048 1.377 . S
C1049 C1055 1.390 . S
C1050 H1041 0.930 . S
C1050 C1048 1.384 . S
C1050 C1051 1.372 . S
C1051 C1050 1.372 . S
C1051 C1052 1.400 . S
C1051 C1056 1.490 . S
C1052 H1042 0.930 . S
C1052 C1051 1.400 . S
C1052 C1055 1.386 . S
H1053 C1069 0.930 . S
H1054 C1070 0.931 . S
C1055 H1043 0.929 . S
C1055 C1049 1.390 . S
C1055 C1052 1.386 . S
C1056 C1051 1.490 . S
C1056 C1058 1.395 . S
C1056 C1059 1.403 . S
H1057 C1063 0.930 . S
C1058 H1044 0.930 . S
C1058 C1056 1.395 . S
C1058 C1061 1.403 . S
C1059 C1056 1.403 . S
C1059 C1060 1.524 . S
C1059 C1063 1.400 . S
C1060 H1045 0.960 . S
C1060 H1046 0.960 . S
C1060 H1047 0.960 . S
C1060 C1059 1.524 . S
C1061 C1058 1.403 . S
C1061 C1062 1.392 . S
C1061 C1065 1.495 . S
C1062 C1061 1.392 . S
C1062 C1063 1.385 . S
C1062 C1064 1.478 . S
C1063 H1057 0.930 . S
C1063 C1059 1.400 . S
C1063 C1062 1.385 . S
C1064 C1062 1.478 . S
C1064 C1066 1.381 . S
C1064 C1070 1.383 . S
C1065 C1061 1.495 . S
C1065 H1071 0.959 . S
C1065 H1072 0.961 . S
C1065 H1073 0.960 . S
C1066 C1064 1.381 . S
C1066 C1067 1.394 . S
C1066 H1074 0.930 . S
C1067 C1066 1.394 . S
C1067 C1068 1.383 . S
C1067 H1075 0.929 . S
C1068 C1067 1.383 . S
C1068 C1069 1.377 . S
C1069 H1053 0.930 . S
C1069 C1068 1.377 . S
C1069 C1070 1.379 . S
C1070 H1054 0.931 . S
C1070 C1064 1.383 . S
C1070 C1069 1.379 . S
H1071 C1065 0.959 . S
H1072 C1065 0.961 . S
H1073 C1065 0.960 . S
H1074 C1066 0.930 . S
H1075 C1067 0.929 . S
H1076 C1084 0.929 . S
H1077 C1086 0.930 . S
H1078 C1088 0.930 . S
H1079 C1091 0.929 . S
H1080 C1094 0.930 . S
H1081 C1096 0.960 . S
H1082 C1096 0.960 . S
H1083 C1096 0.960 . S
C1084 H1076 0.929 . S
C1084 C1085 1.377 . S
C1084 C1086 1.384 . S
C1085 C1084 1.377 . S
C1085 C1091 1.390 . S
C1086 H1077 0.930 . S
C1086 C1084 1.384 . S
C1086 C1087 1.372 . S
C1087 C1086 1.372 . S
C1087 C1088 1.400 . S
C1087 C1092 1.490 . S
C1088 H1078 0.930 . S
C1088 C1087 1.400 . S
C1088 C1091 1.386 . S
H1089 C1105 0.930 . S
H1090 C1106 0.931 . S
C1091 H1079 0.929 . S
C1091 C1085 1.390 . S
C1091 C1088 1.386 . S
C1092 C1087 1.490 . S
C1092 C1094 1.395 . S
C1092 C1095 1.403 . S
H1093 C1099 0.930 . S
C1094 H1080 0.930 . S
C1094 C1092 1.395 . S
C1094 C1097 1.403 . S
C1095 C1092 1.403 . S
C1095 C1096 1.524 . S
C1095 C1099 1.400 . S
C1096 H1081 0.960 . S
C1096 H1082 0.960 . S
C1096 H1083 0.960 . S
C1096 C1095 1.524 . S
C1097 C1094 1.403 . S
C1097 C1098 1.392 . S
C1097 C1101 1.495 . S
C1098 C1097 1.392 . S
C1098 C1099 1.385 . S
C1098 C1100 1.478 . S
C1099 H1093 0.930 . S
C1099 C1095 1.400 . S
C1099 C1098 1.385 . S
C1100 C1098 1.478 . S
C1100 C1102 1.381 . S
C1100 C1106 1.383 . S
C1101 C1097 1.495 . S
C1101 H1107 0.959 . S
C1101 H1108 0.961 . S
C1101 H1109 0.960 . S
C1102 C1100 1.381 . S
C1102 C1103 1.394 . S
C1102 H1110 0.930 . S
C1103 C1102 1.394 . S
C1103 C1104 1.383 . S
C1103 H1111 0.929 . S
C1104 C1103 1.383 . S
C1104 C1105 1.377 . S
C1105 H1089 0.930 . S
C1105 C1104 1.377 . S
C1105 C1106 1.379 . S
C1106 H1090 0.931 . S
C1106 C1100 1.383 . S
C1106 C1105 1.379 . S
H1107 C1101 0.959 . S
H1108 C1101 0.961 . S
H1109 C1101 0.960 . S
H1110 C1102 0.930 . S
H1111 C1103 0.929 . S
H1112 C1120 0.929 . S
H1113 C1122 0.930 . S
H1114 C1124 0.930 . S
H1115 C1127 0.929 . S
H1116 C1130 0.930 . S
H1117 C1132 0.960 . S
H1118 C1132 0.960 . S
H1119 C1132 0.960 . S
C1120 H1112 0.929 . S
C1120 C1121 1.377 . S
C1120 C1122 1.384 . S
C1121 C1120 1.377 . S
C1121 C1127 1.390 . S
C1122 H1113 0.930 . S
C1122 C1120 1.384 . S
C1122 C1123 1.372 . S
C1123 C1122 1.372 . S
C1123 C1124 1.400 . S
C1123 C1128 1.490 . S
C1124 H1114 0.930 . S
C1124 C1123 1.400 . S
C1124 C1127 1.386 . S
H1125 C1141 0.930 . S
H1126 C1142 0.931 . S
C1127 H1115 0.929 . S
C1127 C1121 1.390 . S
C1127 C1124 1.386 . S
C1128 C1123 1.490 . S
C1128 C1130 1.395 . S
C1128 C1131 1.403 . S
H1129 C1135 0.930 . S
C1130 H1116 0.930 . S
C1130 C1128 1.395 . S
C1130 C1133 1.403 . S
C1131 C1128 1.403 . S
C1131 C1132 1.524 . S
C1131 C1135 1.400 . S
C1132 H1117 0.960 . S
C1132 H1118 0.960 . S
C1132 H1119 0.960 . S
C1132 C1131 1.524 . S
C1133 C1130 1.403 . S
C1133 C1134 1.392 . S
C1133 C1137 1.495 . S
C1134 C1133 1.392 . S
C1134 C1135 1.385 . S
C1134 C1136 1.478 . S
C1135 H1129 0.930 . S
C1135 C1131 1.400 . S
C1135 C1134 1.385 . S
C1136 C1134 1.478 . S
C1136 C1138 1.381 . S
C1136 C1142 1.383 . S
C1137 C1133 1.495 . S
C1137 H1143 0.959 . S
C1137 H1144 0.961 . S
C1137 H1145 0.960 . S
C1138 C1136 1.381 . S
C1138 C1139 1.394 . S
C1138 H1146 0.930 . S
C1139 C1138 1.394 . S
C1139 C1140 1.383 . S
C1139 H1147 0.929 . S
C1140 C1139 1.383 . S
C1140 C1141 1.377 . S
C1141 H1125 0.930 . S
C1141 C1140 1.377 . S
C1141 C1142 1.379 . S
C1142 H1126 0.931 . S
C1142 C1136 1.383 . S
C1142 C1141 1.379 . S
H1143 C1137 0.959 . S
H1144 C1137 0.961 . S
H1145 C1137 0.960 . S
H1146 C1138 0.930 . S
H1147 C1139 0.929 . S
H1148 C1156 0.929 . S
H1149 C1158 0.930 . S
H1150 C1160 0.930 . S
H1151 C1163 0.929 . S
H1152 C1166 0.930 . S
H1153 C1168 0.960 1_554 S
H1154 C1168 0.960 . S
H1155 C1168 0.960 . S
C1156 H1148 0.929 . S
C1156 C1157 1.377 1_455 S
C1156 C1158 1.384 . S
C1157 C1156 1.377 1_655 S
C1157 C1163 1.390 . S
C1158 H1149 0.930 . S
C1158 C1156 1.384 . S
C1158 C1159 1.372 1_455 S
C1159 C1158 1.372 1_655 S
C1159 C1160 1.400 . S
C1159 C1164 1.490 . S
C1160 H1150 0.930 . S
C1160 C1159 1.400 . S
C1160 C1163 1.386 . S
H1161 C1177 0.930 . S
H1162 C1178 0.931 . S
C1163 H1151 0.929 . S
C1163 C1157 1.390 . S
C1163 C1160 1.386 . S
C1164 C1159 1.490 . S
C1164 C1166 1.395 1_655 S
C1164 C1167 1.403 . S
H1165 C1171 0.930 . S
C1166 H1152 0.930 . S
C1166 C1164 1.395 1_455 S
C1166 C1169 1.403 1_556 S
C1167 C1164 1.403 . S
C1167 C1168 1.524 . S
C1167 C1171 1.400 1_556 S
C1168 H1153 0.960 1_556 S
C1168 H1154 0.960 . S
C1168 H1155 0.960 . S
C1168 C1167 1.524 . S
C1169 C1166 1.403 1_554 S
C1169 C1170 1.392 . S
C1169 C1173 1.495 . S
C1170 C1169 1.392 . S
C1170 C1171 1.385 1_455 S
C1170 C1172 1.478 . S
C1171 H1165 0.930 . S
C1171 C1167 1.400 1_554 S
C1171 C1170 1.385 1_655 S
C1172 C1170 1.478 . S
C1172 C1174 1.381 . S
C1172 C1178 1.383 1_455 S
C1173 C1169 1.495 . S
C1173 H1179 0.959 1_554 S
C1173 H1180 0.961 . S
C1173 H1181 0.960 . S
C1174 C1172 1.381 . S
C1174 C1175 1.394 . S
C1174 H1182 0.930 . S
C1175 C1174 1.394 . S
C1175 C1176 1.383 . S
C1175 H1183 0.929 . S
C1176 C1175 1.383 . S
C1176 C1177 1.377 1_455 S
C1177 H1161 0.930 . S
C1177 C1176 1.377 1_655 S
C1177 C1178 1.379 . S
C1178 H1162 0.931 . S
C1178 C1172 1.383 1_655 S
C1178 C1177 1.379 . S
H1179 C1173 0.959 1_556 S
H1180 C1173 0.961 . S
H1181 C1173 0.960 . S
H1182 C1174 0.930 . S
H1183 C1175 0.929 . S
C329 C10 1.520 . S
C348 C129 1.516 . S
C365 C9 0.771 . S
C384 C49 0.742 . S
C401 C50 1.520 . S
C420 C89 1.490 . S
C437 C90 2.159 . S
C456 C130 2.145 . S
C473 C19 1.523 . S
C492 C218 1.520 . S
C509 C18 0.763 . S
C528 C178 0.729 . S
C545 C179 1.517 . S
C564 C98 1.486 . S
C581 C219 2.161 . S
C600 C99 2.154 . S
C617 C250 1.523 . S
C636 C209 1.502 . S
C653 C169 0.779 . S
C672 C249 0.754 . S
C689 C289 1.509 . S
C708 C170 1.534 . S
C725 C210 2.160 . S
C744 C290 2.164 . S
C761 C138 1.510 . S
C780 C259 1.529 . S
C797 C258 0.763 . S
C816 C58 0.737 . S
C833 C59 1.523 . S
C852 C298 1.511 . S
C869 C139 2.158 . S
C888 C299 2.160 . S
C905 C15 1.460 . S
C924 C6 1.442 . S
C941 C55 1.465 . S
C960 C46 1.452 . S
C977 C95 1.539 . S
C996 C86 1.546 . S
C1013 C126 1.533 . S
C1032 C135 1.535 . S
C1049 C175 1.466 . S
C1068 C166 1.474 . S
C1085 C206 1.535 . S
C1104 C215 1.516 . S
C1121 C246 1.461 . S
C1140 C255 1.469 . S
C1157 C286 1.537 . S
C1176 C295 1.548 . S
