# Generated by pormake.
# Topology unw, (4)-cn, num edge types: 1
# Building blocks:
#     Node 0, Type 0, BuildingBlock: KOZSID_clean_sbu_0, # of connection points: 4
#     Node 1, Type 0, BuildingBlock: KOZSID_clean_sbu_0, # of connection points: 4
#     Node 2, Type 0, BuildingBlock: KOZSID_clean_sbu_0, # of connection points: 4
#     Node 3, Type 0, BuildingBlock: KOZSID_clean_sbu_0, # of connection points: 4
#     Node 4, Type 0, BuildingBlock: KOZSID_clean_sbu_0, # of connection points: 4
#     Node 5, Type 0, BuildingBlock: KOZSID_clean_sbu_0, # of connection points: 4
#     Node 6, Type 0, BuildingBlock: KOZSID_clean_sbu_0, # of connection points: 4
#     Node 7, Type 0, BuildingBlock: KOZSID_clean_sbu_0, # of connection points: 4
#     Node 8, Type 0, BuildingBlock: KOZSID_clean_sbu_0, # of connection points: 4
#     Node 9, Type 0, BuildingBlock: KOZSID_clean_sbu_0, # of connection points: 4
#     Node 10, Type 0, BuildingBlock: KOZSID_clean_sbu_0, # of connection points: 4
#     Node 11, Type 0, BuildingBlock: KOZSID_clean_sbu_0, # of connection points: 4
#     Node 12, Type 0, BuildingBlock: KOZSID_clean_sbu_0, # of connection points: 4
#     Node 13, Type 0, BuildingBlock: KOZSID_clean_sbu_0, # of connection points: 4
#     Node 14, Type 0, BuildingBlock: KOZSID_clean_sbu_0, # of connection points: 4
#     Node 15, Type 0, BuildingBlock: KOZSID_clean_sbu_0, # of connection points: 4
#     Node 16, Type 0, BuildingBlock: KOZSID_clean_sbu_0, # of connection points: 4
#     Node 17, Type 0, BuildingBlock: KOZSID_clean_sbu_0, # of connection points: 4
#     Node 18, Type 0, BuildingBlock: KOZSID_clean_sbu_0, # of connection points: 4
#     Node 19, Type 0, BuildingBlock: KOZSID_clean_sbu_0, # of connection points: 4
#     Node 20, Type 0, BuildingBlock: KOZSID_clean_sbu_0, # of connection points: 4
#     Node 21, Type 0, BuildingBlock: KOZSID_clean_sbu_0, # of connection points: 4
#     Node 22, Type 0, BuildingBlock: KOZSID_clean_sbu_0, # of connection points: 4
#     Node 23, Type 0, BuildingBlock: KOZSID_clean_sbu_0, # of connection points: 4
#     Edge 24, Type (0, 0), BuildingBlock: ZUJKAS_clean_linker_0, # of connection points: 2
#     Edge 25, Type (0, 0), BuildingBlock: ZUJKAS_clean_linker_0, # of connection points: 2
#     Edge 26, Type (0, 0), BuildingBlock: ZUJKAS_clean_linker_0, # of connection points: 2
#     Edge 27, Type (0, 0), BuildingBlock: ZUJKAS_clean_linker_0, # of connection points: 2
#     Edge 28, Type (0, 0), BuildingBlock: ZUJKAS_clean_linker_0, # of connection points: 2
#     Edge 29, Type (0, 0), BuildingBlock: ZUJKAS_clean_linker_0, # of connection points: 2
#     Edge 30, Type (0, 0), BuildingBlock: ZUJKAS_clean_linker_0, # of connection points: 2
#     Edge 31, Type (0, 0), BuildingBlock: ZUJKAS_clean_linker_0, # of connection points: 2
#     Edge 32, Type (0, 0), BuildingBlock: ZUJKAS_clean_linker_0, # of connection points: 2
#     Edge 33, Type (0, 0), BuildingBlock: ZUJKAS_clean_linker_0, # of connection points: 2
#     Edge 34, Type (0, 0), BuildingBlock: ZUJKAS_clean_linker_0, # of connection points: 2
#     Edge 35, Type (0, 0), BuildingBlock: ZUJKAS_clean_linker_0, # of connection points: 2
#     Edge 36, Type (0, 0), BuildingBlock: ZUJKAS_clean_linker_0, # of connection points: 2
#     Edge 37, Type (0, 0), BuildingBlock: ZUJKAS_clean_linker_0, # of connection points: 2
#     Edge 38, Type (0, 0), BuildingBlock: ZUJKAS_clean_linker_0, # of connection points: 2
#     Edge 39, Type (0, 0), BuildingBlock: ZUJKAS_clean_linker_0, # of connection points: 2
#     Edge 40, Type (0, 0), BuildingBlock: ZUJKAS_clean_linker_0, # of connection points: 2
#     Edge 41, Type (0, 0), BuildingBlock: ZUJKAS_clean_linker_0, # of connection points: 2
#     Edge 42, Type (0, 0), BuildingBlock: ZUJKAS_clean_linker_0, # of connection points: 2
#     Edge 43, Type (0, 0), BuildingBlock: ZUJKAS_clean_linker_0, # of connection points: 2
#     Edge 44, Type (0, 0), BuildingBlock: ZUJKAS_clean_linker_0, # of connection points: 2
#     Edge 45, Type (0, 0), BuildingBlock: ZUJKAS_clean_linker_0, # of connection points: 2
#     Edge 46, Type (0, 0), BuildingBlock: ZUJKAS_clean_linker_0, # of connection points: 2
#     Edge 47, Type (0, 0), BuildingBlock: ZUJKAS_clean_linker_0, # of connection points: 2
#     Edge 48, Type (0, 0), BuildingBlock: ZUJKAS_clean_linker_0, # of connection points: 2
#     Edge 49, Type (0, 0), BuildingBlock: ZUJKAS_clean_linker_0, # of connection points: 2
#     Edge 50, Type (0, 0), BuildingBlock: ZUJKAS_clean_linker_0, # of connection points: 2
#     Edge 51, Type (0, 0), BuildingBlock: ZUJKAS_clean_linker_0, # of connection points: 2
#     Edge 52, Type (0, 0), BuildingBlock: ZUJKAS_clean_linker_0, # of connection points: 2
#     Edge 53, Type (0, 0), BuildingBlock: ZUJKAS_clean_linker_0, # of connection points: 2
#     Edge 54, Type (0, 0), BuildingBlock: ZUJKAS_clean_linker_0, # of connection points: 2
#     Edge 55, Type (0, 0), BuildingBlock: ZUJKAS_clean_linker_0, # of connection points: 2
#     Edge 56, Type (0, 0), BuildingBlock: ZUJKAS_clean_linker_0, # of connection points: 2
#     Edge 57, Type (0, 0), BuildingBlock: ZUJKAS_clean_linker_0, # of connection points: 2
#     Edge 58, Type (0, 0), BuildingBlock: ZUJKAS_clean_linker_0, # of connection points: 2
#     Edge 59, Type (0, 0), BuildingBlock: ZUJKAS_clean_linker_0, # of connection points: 2
#     Edge 60, Type (0, 0), BuildingBlock: ZUJKAS_clean_linker_0, # of connection points: 2
#     Edge 61, Type (0, 0), BuildingBlock: ZUJKAS_clean_linker_0, # of connection points: 2
#     Edge 62, Type (0, 0), BuildingBlock: ZUJKAS_clean_linker_0, # of connection points: 2
#     Edge 63, Type (0, 0), BuildingBlock: ZUJKAS_clean_linker_0, # of connection points: 2
#     Edge 64, Type (0, 0), BuildingBlock: ZUJKAS_clean_linker_0, # of connection points: 2
#     Edge 65, Type (0, 0), BuildingBlock: ZUJKAS_clean_linker_0, # of connection points: 2
#     Edge 66, Type (0, 0), BuildingBlock: ZUJKAS_clean_linker_0, # of connection points: 2
#     Edge 67, Type (0, 0), BuildingBlock: ZUJKAS_clean_linker_0, # of connection points: 2
#     Edge 68, Type (0, 0), BuildingBlock: ZUJKAS_clean_linker_0, # of connection points: 2
#     Edge 69, Type (0, 0), BuildingBlock: ZUJKAS_clean_linker_0, # of connection points: 2
#     Edge 70, Type (0, 0), BuildingBlock: ZUJKAS_clean_linker_0, # of connection points: 2
#     Edge 71, Type (0, 0), BuildingBlock: ZUJKAS_clean_linker_0, # of connection points: 2
# Relax obj value: 0.337
# Max RMSD: 0.287
# Mean RMSD: 0.269
data_MOF--net-unw--node1-KOZSID_clean_sbu_0--edge1-ZUJKAS_clean_linker_0
_symmetry_space_group_name_H-M    P1
_symmetry_Int_Tables_number       1
_symmetry_cell_setting            triclinic
loop_
_symmetry_equiv_pos_as_xyz
'x, y, z'
_cell_length_a     75.916773
_cell_length_b     66.130748
_cell_length_c     69.205311
_cell_angle_alpha  90.008584
_cell_angle_beta   90.421107
_cell_angle_gamma 90.009262
loop_
_atom_site_label
_atom_site_type_symbol
_atom_site_fract_x
_atom_site_fract_y
_atom_site_fract_z
_atom_type_partial_charge
C0 C 0.1312 0.42487 0.2151 0.0
C1 C 0.11914 0.42989 0.20078 0.0
C2 C 0.1082 0.41338 0.19865 0.0
C3 C 0.11419 0.39928 0.21179 0.0
N4 N 0.12809 0.4061 0.22198 0.0
Co5 Co 0.14204 0.39079 0.24113 0.0
N6 N 0.13395 0.36465 0.23049 0.0
C7 C 0.11948 0.3618 0.21946 0.0
C8 C 0.11719 0.34186 0.2144 0.0
C9 C 0.13099 0.33167 0.22294 0.0
C10 C 0.14096 0.34599 0.2328 0.0
N11 N 0.15613 0.37574 0.2604 0.0
C12 C 0.16145 0.35625 0.26013 0.0
C13 C 0.17094 0.35165 0.27682 0.0
C14 C 0.17139 0.36893 0.28782 0.0
C15 C 0.16217 0.38309 0.27734 0.0
N16 N 0.14998 0.41697 0.25169 0.0
C17 C 0.15652 0.42033 0.2695 0.0
C18 C 0.1617 0.44009 0.27204 0.0
C19 C 0.15823 0.44955 0.25472 0.0
C20 C 0.15102 0.43499 0.24258 0.0
N21 N 0.122 0.39055 0.25888 0.0
C22 C 0.09184 0.38772 0.28192 0.0
C23 C 0.10305 0.37116 0.27955 0.0
C24 C 0.11796 0.37289 0.26813 0.0
C25 C 0.09644 0.40611 0.27314 0.0
C26 C 0.11158 0.40719 0.26158 0.0
N27 N 0.16191 0.3904 0.2234 0.0
C28 C 0.19317 0.38988 0.21819 0.0
C29 C 0.19051 0.38308 0.19918 0.0
C30 C 0.17321 0.38135 0.19223 0.0
C31 C 0.15915 0.38506 0.20454 0.0
C32 C 0.17868 0.39359 0.23002 0.0
H33 H 0.14602 0.38265 0.19901 0.0
H34 H 0.18103 0.3982 0.24477 0.0
H35 H 0.126 0.35962 0.26647 0.0
H36 H 0.11467 0.4213 0.25449 0.0
C37 C 0.11034 0.37846 0.21159 0.0
C38 C 0.14507 0.43824 0.22259 0.0
C39 C 0.15616 0.34139 0.24538 0.0
C40 C 0.1615 0.40394 0.28122 0.0
H41 H 0.11853 0.44384 0.19263 0.0
H42 H 0.09791 0.41143 0.1879 0.0
H43 H 0.1071 0.33557 0.20505 0.0
H44 H 0.13337 0.31556 0.22211 0.0
H45 H 0.17673 0.33727 0.28077 0.0
H46 H 0.17813 0.37106 0.30151 0.0
H47 H 0.16835 0.44653 0.28448 0.0
H48 H 0.16103 0.46519 0.25143 0.0
H49 H 0.10023 0.35678 0.28637 0.0
H50 H 0.08813 0.41932 0.27468 0.0
H51 H 0.20634 0.39176 0.22403 0.0
H52 H 0.1705 0.37603 0.17771 0.0
C53 C 0.61633 0.10286 0.31356 0.0
C54 C 0.60595 0.10229 0.32994 0.0
C55 C 0.59751 0.12053 0.33085 0.0
C56 C 0.60328 0.13112 0.31507 0.0
N57 N 0.6145 0.12053 0.30384 0.0
Co58 Co 0.628 0.13069 0.28103 0.0
N59 N 0.61909 0.15888 0.28493 0.0
C60 C 0.6066 0.16491 0.29752 0.0
C61 C 0.60339 0.18531 0.29695 0.0
C62 C 0.61458 0.19274 0.2833 0.0
C63 C 0.624 0.17636 0.27628 0.0
N64 N 0.64222 0.14091 0.2588 0.0
C65 C 0.6453 0.16013 0.25302 0.0
C66 C 0.65667 0.16076 0.2374 0.0
C67 C 0.66116 0.14123 0.23338 0.0
C68 C 0.65232 0.12985 0.24671 0.0
N69 N 0.6366 0.10244 0.27692 0.0
C70 C 0.64622 0.09549 0.26196 0.0
C71 C 0.65068 0.07547 0.26364 0.0
C72 C 0.64382 0.06943 0.28088 0.0
C73 C 0.63552 0.08619 0.28873 0.0
N74 N 0.60754 0.12544 0.26329 0.0
C75 C 0.57943 0.12614 0.23627 0.0
C76 C 0.59635 0.12046 0.23072 0.0
C77 C 0.61001 0.11997 0.24437 0.0
C78 C 0.57651 0.12972 0.25587 0.0
C79 C 0.59056 0.1291 0.26901 0.0
N80 N 0.64817 0.13632 0.29837 0.0
C81 C 0.67952 0.13666 0.3043 0.0
C82 C 0.6773 0.14913 0.32045 0.0
C83 C 0.66016 0.154 0.32599 0.0
C84 C 0.64587 0.14744 0.31485 0.0
C85 C 0.66484 0.13035 0.2936 0.0
H86 H 0.63311 0.1521 0.31943 0.0
H87 H 0.66724 0.12113 0.28118 0.0
H88 H 0.62249 0.11558 0.23902 0.0
H89 H 0.5873 0.13223 0.28355 0.0
C90 C 0.59985 0.15158 0.31134 0.0
C91 C 0.62835 0.0867 0.3082 0.0
C92 C 0.63793 0.17817 0.262 0.0
C93 C 0.65351 0.10884 0.24858 0.0
H94 H 0.60502 0.09016 0.34038 0.0
H95 H 0.58887 0.12579 0.34217 0.0
H96 H 0.59452 0.1939 0.30598 0.0
H97 H 0.61597 0.20847 0.27928 0.0
H98 H 0.66138 0.17398 0.22979 0.0
H99 H 0.67003 0.13599 0.22228 0.0
H100 H 0.65897 0.0667 0.25413 0.0
H101 H 0.6455 0.05465 0.28733 0.0
H102 H 0.59917 0.11677 0.21581 0.0
H103 H 0.56357 0.13392 0.26102 0.0
H104 H 0.69254 0.13213 0.29971 0.0
H105 H 0.65774 0.16365 0.33834 0.0
C106 C 0.88729 0.57384 0.21571 0.0
C107 C 0.89907 0.57112 0.20076 0.0
C108 C 0.90941 0.58825 0.20032 0.0
C109 C 0.90336 0.60039 0.21502 0.0
N110 N 0.88999 0.59178 0.22459 0.0
Co111 Co 0.87604 0.60406 0.24546 0.0
N112 N 0.88312 0.63165 0.23775 0.0
C113 C 0.89725 0.63639 0.22698 0.0
C114 C 0.89902 0.65688 0.22438 0.0
C115 C 0.88528 0.66544 0.23429 0.0
C116 C 0.87585 0.64964 0.24244 0.0
N117 N 0.86182 0.61602 0.26631 0.0
C118 C 0.85599 0.6352 0.26835 0.0
C119 C 0.84651 0.63722 0.28536 0.0
C120 C 0.8467 0.61867 0.29425 0.0
C121 C 0.85621 0.60636 0.28225 0.0
N122 N 0.86929 0.57643 0.25317 0.0
C123 C 0.8633 0.57066 0.27054 0.0
C124 C 0.85901 0.55048 0.27103 0.0
C125 C 0.86247 0.54327 0.25281 0.0
C126 C 0.86878 0.55953 0.24223 0.0
N127 N 0.89649 0.60318 0.26298 0.0
C128 C 0.92754 0.60572 0.28503 0.0
C129 C 0.91517 0.62132 0.28521 0.0
C130 C 0.89985 0.61976 0.27424 0.0
C131 C 0.92364 0.58818 0.27438 0.0
C132 C 0.90799 0.58723 0.26335 0.0
N133 N 0.85574 0.60573 0.22801 0.0
C134 C 0.82433 0.60562 0.22327 0.0
C135 C 0.8261 0.61643 0.20589 0.0
C136 C 0.84319 0.62011 0.19915 0.0
C137 C 0.85774 0.61444 0.21027 0.0
C138 C 0.8393 0.6005 0.23414 0.0
H139 H 0.87063 0.61825 0.20498 0.0
H140 H 0.83754 0.5932 0.24793 0.0
H141 H 0.89104 0.63247 0.27443 0.0
H142 H 0.90542 0.57393 0.25471 0.0
C143 C 0.90662 0.62121 0.21714 0.0
C144 C 0.87419 0.55898 0.22194 0.0
C145 C 0.86107 0.65218 0.25584 0.0
C146 C 0.85782 0.58528 0.28389 0.0
H147 H 0.8999 0.55826 0.19113 0.0
H148 H 0.91934 0.59192 0.18973 0.0
H149 H 0.90877 0.66466 0.21581 0.0
H150 H 0.88261 0.68146 0.23554 0.0
H151 H 0.84043 0.65078 0.291 0.0
H152 H 0.84026 0.61457 0.30759 0.0
H153 H 0.8529 0.54229 0.28274 0.0
H154 H 0.86019 0.52797 0.24793 0.0
H155 H 0.91748 0.63497 0.29353 0.0
H156 H 0.93288 0.57571 0.27399 0.0
H157 H 0.81148 0.60176 0.22885 0.0
H158 H 0.84547 0.62844 0.18595 0.0
C159 C 0.37799 0.92205 0.29467 0.0
C160 C 0.3893 0.9261 0.30998 0.0
C161 C 0.40016 0.90946 0.3118 0.0
C162 C 0.39484 0.8962 0.29757 0.0
N163 N 0.38143 0.90367 0.287 0.0
Co164 Co 0.36831 0.88942 0.26638 0.0
N165 N 0.37582 0.86271 0.27612 0.0
C166 C 0.38973 0.85915 0.28778 0.0
C167 C 0.39152 0.83895 0.2921 0.0
C168 C 0.37796 0.82939 0.28243 0.0
C169 C 0.36863 0.84433 0.27268 0.0
N170 N 0.35517 0.87557 0.2456 0.0
C171 C 0.34965 0.8562 0.24471 0.0
C172 C 0.34107 0.85248 0.22726 0.0
C173 C 0.34135 0.87027 0.217 0.0
C174 C 0.35009 0.88382 0.22866 0.0
N175 N 0.36086 0.91607 0.25675 0.0
C176 C 0.35527 0.92054 0.23879 0.0
C177 C 0.35032 0.94049 0.23705 0.0
C178 C 0.35293 0.94884 0.25508 0.0
C179 C 0.35932 0.93346 0.26675 0.0
N180 N 0.38921 0.89006 0.24984 0.0
C181 C 0.42114 0.88764 0.22979 0.0
C182 C 0.40941 0.87135 0.23004 0.0
C183 C 0.39364 0.87286 0.24001 0.0
C184 C 0.41611 0.90569 0.23893 0.0
C185 C 0.40005 0.90657 0.24894 0.0
N186 N 0.34765 0.88804 0.28299 0.0
C187 C 0.31623 0.88519 0.28648 0.0
C188 C 0.31843 0.8777 0.30533 0.0
C189 C 0.33546 0.87725 0.31321 0.0
C190 C 0.34982 0.88227 0.30181 0.0
C191 C 0.33103 0.89049 0.27561 0.0
H192 H 0.36276 0.88044 0.30802 0.0
H193 H 0.32911 0.89552 0.26091 0.0
H194 H 0.38532 0.8597 0.24028 0.0
H195 H 0.39664 0.92033 0.25645 0.0
C196 C 0.39857 0.87533 0.29695 0.0
C197 C 0.3642 0.93559 0.28715 0.0
C198 C 0.35375 0.84076 0.25936 0.0
C199 C 0.35095 0.90488 0.22587 0.0
H200 H 0.3895 0.93938 0.3191 0.0
H201 H 0.40984 0.90681 0.32307 0.0
H202 H 0.40106 0.83206 0.30175 0.0
H203 H 0.37527 0.81332 0.28253 0.0
H204 H 0.33534 0.83837 0.22236 0.0
H205 H 0.33532 0.87313 0.20305 0.0
H206 H 0.34442 0.94777 0.22458 0.0
H207 H 0.35021 0.96429 0.25927 0.0
H208 H 0.41255 0.85727 0.22283 0.0
H209 H 0.42478 0.91869 0.23898 0.0
H210 H 0.30332 0.88597 0.27978 0.0
H211 H 0.33782 0.87225 0.32791 0.0
C212 C 0.11525 0.57714 0.78509 0.0
C213 C 0.10351 0.57562 0.80024 0.0
C214 C 0.0934 0.59294 0.7997 0.0
C215 C 0.09955 0.60396 0.78427 0.0
N216 N 0.11278 0.59451 0.77518 0.0
Co217 Co 0.12672 0.60507 0.75348 0.0
N218 N 0.11996 0.63324 0.75945 0.0
C219 C 0.10596 0.63894 0.76999 0.0
C220 C 0.10446 0.6596 0.77133 0.0
C221 C 0.11825 0.66723 0.76083 0.0
C222 C 0.12742 0.65075 0.75362 0.0
N223 N 0.14086 0.61536 0.73177 0.0
C224 C 0.14684 0.63427 0.72846 0.0
C225 C 0.15613 0.63501 0.71122 0.0
C226 C 0.15569 0.61589 0.70353 0.0
C227 C 0.14621 0.60454 0.7164 0.0
N228 N 0.13318 0.57688 0.74748 0.0
C229 C 0.13898 0.56984 0.73046 0.0
C230 C 0.14297 0.54958 0.73118 0.0
C231 C 0.13949 0.54369 0.74982 0.0
C232 C 0.13347 0.56075 0.7594 0.0
N233 N 0.10618 0.60306 0.73628 0.0
C234 C 0.07508 0.60348 0.71431 0.0
C235 C 0.08713 0.61938 0.71319 0.0
C236 C 0.10253 0.61884 0.72412 0.0
C237 C 0.07929 0.58677 0.72595 0.0
C238 C 0.09493 0.5869 0.73693 0.0
N239 N 0.14712 0.60763 0.77064 0.0
C240 C 0.17841 0.60575 0.77604 0.0
C241 C 0.17685 0.61705 0.79316 0.0
C242 C 0.15988 0.62233 0.79924 0.0
C243 C 0.14528 0.6173 0.78794 0.0
C244 C 0.16341 0.6013 0.76496 0.0
H245 H 0.13251 0.62209 0.79284 0.0
H246 H 0.16503 0.59336 0.75147 0.0
H247 H 0.11123 0.63163 0.72312 0.0
H248 H 0.09772 0.57423 0.74632 0.0
C249 C 0.09649 0.62463 0.78085 0.0
C250 C 0.12809 0.56166 0.77968 0.0
C251 C 0.14219 0.6521 0.74004 0.0
C252 C 0.14445 0.58341 0.71613 0.0
H253 H 0.10253 0.56343 0.8106 0.0
H254 H 0.08356 0.59747 0.81007 0.0
H255 H 0.09487 0.66811 0.77949 0.0
H256 H 0.12112 0.68309 0.7586 0.0
H257 H 0.16228 0.64806 0.70469 0.0
H258 H 0.16195 0.61079 0.6904 0.0
H259 H 0.14886 0.54048 0.71994 0.0
H260 H 0.14151 0.52869 0.75561 0.0
H261 H 0.08452 0.63241 0.70411 0.0
H262 H 0.07028 0.57413 0.72711 0.0
H263 H 0.19114 0.60081 0.77092 0.0
H264 H 0.1578 0.63121 0.81216 0.0
C265 C 0.38372 0.11203 0.68811 0.0
C266 C 0.39615 0.11111 0.67357 0.0
C267 C 0.40605 0.12853 0.6751 0.0
C268 C 0.39909 0.13907 0.69041 0.0
N269 N 0.38555 0.12921 0.6985 0.0
Co270 Co 0.37056 0.13907 0.71968 0.0
N271 N 0.37729 0.16742 0.71475 0.0
C272 C 0.39163 0.17362 0.70509 0.0
C273 C 0.39256 0.19434 0.70381 0.0
C274 C 0.37798 0.20143 0.71336 0.0
C275 C 0.36896 0.18459 0.72005 0.0
N276 N 0.35546 0.14862 0.74084 0.0
C277 C 0.34891 0.1673 0.74396 0.0
C278 C 0.33913 0.16769 0.76086 0.0
C279 C 0.33971 0.14848 0.76843 0.0
C280 C 0.34981 0.13746 0.75585 0.0
N281 N 0.36401 0.11077 0.72464 0.0
C282 C 0.35766 0.10316 0.74118 0.0
C283 C 0.35382 0.08287 0.73964 0.0
C284 C 0.35802 0.07764 0.72096 0.0
C285 C 0.36416 0.0951 0.71222 0.0
N286 N 0.39031 0.13672 0.73791 0.0
C287 C 0.41857 0.13475 0.76408 0.0
C288 C 0.40677 0.15094 0.76446 0.0
C289 C 0.39291 0.15174 0.75123 0.0
C290 C 0.41599 0.11947 0.75029 0.0
C291 C 0.40162 0.12062 0.73745 0.0
N292 N 0.35087 0.14184 0.70161 0.0
C293 C 0.31973 0.14041 0.69532 0.0
C294 C 0.3219 0.15154 0.67825 0.0
C295 C 0.33902 0.15649 0.67252 0.0
C296 C 0.35329 0.15149 0.68437 0.0
C297 C 0.33438 0.13565 0.70675 0.0
H298 H 0.36623 0.15625 0.67999 0.0
H299 H 0.33232 0.12769 0.72014 0.0
H300 H 0.38436 0.16472 0.75173 0.0
H301 H 0.3997 0.1086 0.72707 0.0
C302 C 0.40174 0.15971 0.69445 0.0
C303 C 0.37047 0.09655 0.69235 0.0
C304 C 0.35314 0.18514 0.73221 0.0
C305 C 0.35168 0.11629 0.75571 0.0
H306 H 0.39771 0.09935 0.66286 0.0
H307 H 0.41628 0.13348 0.66537 0.0
H308 H 0.4022 0.20322 0.69609 0.0
H309 H 0.37441 0.21716 0.71511 0.0
H310 H 0.33247 0.18053 0.76717 0.0
H311 H 0.33305 0.14308 0.78121 0.0
H312 H 0.34767 0.07332 0.75034 0.0
H313 H 0.35653 0.06286 0.71444 0.0
H314 H 0.40847 0.16325 0.77464 0.0
H315 H 0.4249 0.1067 0.74955 0.0
H316 H 0.30675 0.13593 0.70011 0.0
H317 H 0.34135 0.16517 0.65952 0.0
C318 C 0.86935 0.42582 0.78705 0.0
C319 C 0.88177 0.43024 0.80117 0.0
C320 C 0.89283 0.41373 0.80223 0.0
C321 C 0.88653 0.40023 0.78868 0.0
N322 N 0.87234 0.40742 0.77925 0.0
Co323 Co 0.85791 0.39291 0.75991 0.0
N324 N 0.86647 0.36635 0.76905 0.0
C325 C 0.88121 0.36312 0.77954 0.0
C326 C 0.88369 0.34301 0.78374 0.0
C327 C 0.86974 0.3331 0.7752 0.0
C328 C 0.8595 0.34775 0.76615 0.0
N329 N 0.84332 0.37869 0.74049 0.0
C330 C 0.83819 0.35914 0.73998 0.0
C331 C 0.82836 0.35527 0.72335 0.0
C332 C 0.82747 0.3731 0.71321 0.0
C333 C 0.8368 0.38682 0.72409 0.0
N334 N 0.84955 0.41951 0.75081 0.0
C335 C 0.84251 0.42368 0.73339 0.0
C336 C 0.83722 0.4435 0.73187 0.0
C337 C 0.84117 0.45216 0.74946 0.0
C338 C 0.84874 0.43708 0.76071 0.0
N339 N 0.87738 0.39376 0.74143 0.0
C340 C 0.90553 0.39308 0.71539 0.0
C341 C 0.89466 0.37622 0.71773 0.0
C342 C 0.88084 0.37682 0.73077 0.0
C343 C 0.90204 0.41043 0.72643 0.0
C344 C 0.88775 0.41053 0.73927 0.0
N345 N 0.83859 0.39149 0.77828 0.0
C346 C 0.80749 0.39021 0.78434 0.0
C347 C 0.81068 0.38248 0.8029 0.0
C348 C 0.82814 0.38074 0.80932 0.0
C349 C 0.84187 0.38528 0.7968 0.0
C350 C 0.82164 0.39479 0.77231 0.0
H351 H 0.85515 0.38278 0.80182 0.0
H352 H 0.81887 0.40012 0.75787 0.0
H353 H 0.87308 0.36332 0.73234 0.0
H354 H 0.88516 0.42404 0.74755 0.0
C355 C 0.89046 0.37946 0.78785 0.0
C356 C 0.85525 0.43943 0.7806 0.0
C357 C 0.84406 0.34355 0.75378 0.0
C358 C 0.83728 0.40783 0.72112 0.0
H359 H 0.88255 0.4438 0.80991 0.0
H360 H 0.9034 0.41135 0.81255 0.0
H361 H 0.894 0.33639 0.79258 0.0
H362 H 0.86744 0.31696 0.77554 0.0
H363 H 0.82269 0.34101 0.71881 0.0
H364 H 0.82043 0.37582 0.69981 0.0
H365 H 0.83023 0.4505 0.71994 0.0
H366 H 0.83844 0.46762 0.75352 0.0
H367 H 0.89706 0.36234 0.70986 0.0
H368 H 0.91017 0.4238 0.72507 0.0
H369 H 0.79416 0.39209 0.77894 0.0
H370 H 0.83122 0.37475 0.82352 0.0
C371 C 0.62674 0.91719 0.70792 0.0
C372 C 0.6162 0.92019 0.69174 0.0
C373 C 0.60618 0.90293 0.68958 0.0
C374 C 0.61118 0.89034 0.70448 0.0
N375 N 0.62362 0.89881 0.71577 0.0
Co376 Co 0.63614 0.88575 0.73752 0.0
N377 N 0.63037 0.85846 0.72784 0.0
C378 C 0.6173 0.85385 0.71537 0.0
C379 C 0.61664 0.83351 0.71133 0.0
C380 C 0.63005 0.82495 0.72205 0.0
C381 C 0.63814 0.84059 0.73212 0.0
N382 N 0.64869 0.87309 0.7594 0.0
C383 C 0.65498 0.85408 0.76104 0.0
C384 C 0.66271 0.85119 0.7791 0.0
C385 C 0.66108 0.86914 0.78895 0.0
C386 C 0.65243 0.88195 0.77646 0.0
N387 N 0.64183 0.913 0.74708 0.0
C388 C 0.64618 0.91812 0.76527 0.0
C389 C 0.65016 0.93837 0.76693 0.0
C390 C 0.64824 0.94621 0.74859 0.0
C391 C 0.64321 0.93025 0.73682 0.0
N392 N 0.61435 0.88546 0.75265 0.0
C393 C 0.58199 0.88214 0.77177 0.0
C394 C 0.59414 0.86626 0.77202 0.0
C395 C 0.61011 0.86822 0.76251 0.0
C396 C 0.5867 0.90018 0.76241 0.0
C397 C 0.60296 0.90151 0.75285 0.0
N398 N 0.65775 0.88536 0.7224 0.0
C399 C 0.6894 0.88585 0.72095 0.0
C400 C 0.68881 0.87814 0.70207 0.0
C401 C 0.67236 0.8753 0.69325 0.0
C402 C 0.65705 0.87892 0.70364 0.0
C403 C 0.67369 0.88958 0.7308 0.0
H404 H 0.64464 0.87554 0.69674 0.0
H405 H 0.67441 0.89507 0.74546 0.0
H406 H 0.61887 0.85543 0.76279 0.0
H407 H 0.60618 0.91528 0.74525 0.0
C408 C 0.60832 0.8693 0.7053 0.0
C409 C 0.63948 0.93169 0.71608 0.0
C410 C 0.65237 0.83813 0.74649 0.0
C411 C 0.65047 0.90297 0.77876 0.0
H412 H 0.61599 0.93315 0.68223 0.0
H413 H 0.59732 0.89944 0.67772 0.0
H414 H 0.60798 0.8259 0.70119 0.0
H415 H 0.63344 0.80906 0.72241 0.0
H416 H 0.66873 0.83752 0.78465 0.0
H417 H 0.66617 0.87261 0.80322 0.0
H418 H 0.65502 0.94622 0.77961 0.0
H419 H 0.65055 0.96171 0.74427 0.0
H420 H 0.59125 0.85221 0.7794 0.0
H421 H 0.57769 0.91287 0.76194 0.0
H422 H 0.70188 0.8885 0.7282 0.0
H423 H 0.67126 0.86919 0.67877 0.0
C424 C 0.25987 0.10396 0.38677 0.0
C425 C 0.27487 0.10686 0.39793 0.0
C426 C 0.27464 0.12685 0.40366 0.0
C427 C 0.25953 0.13495 0.39568 0.0
N428 N 0.25038 0.12117 0.38548 0.0
Co429 Co 0.22887 0.12602 0.37008 0.0
N430 N 0.23403 0.15513 0.3681 0.0
C431 C 0.24465 0.16574 0.38002 0.0
C432 C 0.24542 0.18585 0.37507 0.0
C433 C 0.23455 0.18786 0.35918 0.0
C434 C 0.22777 0.16878 0.35526 0.0
N435 N 0.20729 0.13064 0.35463 0.0
C436 C 0.20333 0.14617 0.34268 0.0
C437 C 0.18698 0.14315 0.334 0.0
C438 C 0.18048 0.12529 0.34121 0.0
C439 C 0.19321 0.11829 0.35373 0.0
N440 N 0.22388 0.09687 0.37222 0.0
C441 C 0.20814 0.08787 0.36987 0.0
C442 C 0.20934 0.06715 0.37113 0.0
C443 C 0.2269 0.06307 0.37435 0.0
C444 C 0.23544 0.0816 0.37494 0.0
N445 N 0.21558 0.13141 0.39376 0.0
C446 C 0.19939 0.14368 0.42818 0.0
C447 C 0.196 0.15369 0.41075 0.0
C448 C 0.20419 0.14743 0.39388 0.0
C449 C 0.21033 0.12653 0.42781 0.0
C450 C 0.21829 0.12062 0.41039 0.0
N451 N 0.24207 0.12134 0.34642 0.0
C452 C 0.24266 0.11087 0.31315 0.0
C453 C 0.25851 0.12134 0.31048 0.0
C454 C 0.26649 0.13064 0.32645 0.0
C455 C 0.25804 0.13055 0.34421 0.0
C456 C 0.23477 0.11081 0.33136 0.0
H457 H 0.26404 0.13885 0.35592 0.0
H458 H 0.22236 0.1031 0.33303 0.0
H459 H 0.20171 0.15615 0.38101 0.0
H460 H 0.22707 0.10775 0.41046 0.0
C461 C 0.25592 0.15568 0.39315 0.0
C462 C 0.2544 0.08474 0.37805 0.0
C463 C 0.21438 0.16431 0.34038 0.0
C464 C 0.19403 0.09873 0.36168 0.0
H465 H 0.28495 0.09581 0.40128 0.0
H466 H 0.28489 0.13478 0.41154 0.0
H467 H 0.25343 0.19752 0.3817 0.0
H468 H 0.23183 0.20176 0.35147 0.0
H469 H 0.18041 0.15271 0.32352 0.0
H470 H 0.16833 0.11785 0.33705 0.0
H471 H 0.19896 0.05623 0.36859 0.0
H472 H 0.23269 0.0482 0.37566 0.0
H473 H 0.18727 0.16663 0.41014 0.0
H474 H 0.21324 0.11823 0.44093 0.0
H475 H 0.23619 0.10333 0.30116 0.0
H476 H 0.27866 0.13904 0.32498 0.0
C477 C 0.89683 0.25211 0.40927 0.0
C478 C 0.90701 0.23511 0.406 0.0
C479 C 0.91386 0.23728 0.3877 0.0
C480 C 0.90746 0.25546 0.3809 0.0
N481 N 0.89719 0.2647 0.39392 0.0
Co482 Co 0.88367 0.28985 0.39014 0.0
N483 N 0.88433 0.28698 0.36178 0.0
C484 C 0.89586 0.27562 0.35181 0.0
C485 C 0.89291 0.27656 0.33222 0.0
C486 C 0.87881 0.28941 0.32985 0.0
C487 C 0.87397 0.29574 0.3482 0.0
N488 N 0.86995 0.31494 0.38669 0.0
C489 C 0.86067 0.32132 0.37112 0.0
C490 C 0.85319 0.34012 0.37463 0.0
C491 C 0.8581 0.34555 0.39308 0.0
C492 C 0.86831 0.32986 0.39979 0.0
N493 N 0.88326 0.29265 0.41846 0.0
C494 C 0.8805 0.30973 0.42851 0.0
C495 C 0.88005 0.30626 0.44812 0.0
C496 C 0.88259 0.28575 0.45032 0.0
C497 C 0.88447 0.27792 0.43188 0.0
N498 N 0.90559 0.30553 0.38895 0.0
C499 C 0.93777 0.32547 0.3831 0.0
C500 C 0.92279 0.33052 0.37225 0.0
C501 C 0.90699 0.32041 0.37532 0.0
C502 C 0.93615 0.31059 0.39748 0.0
C503 C 0.91986 0.30096 0.40033 0.0
N504 N 0.86185 0.27427 0.39075 0.0
C505 C 0.83148 0.27064 0.39989 0.0
C506 C 0.8298 0.25369 0.38785 0.0
C507 C 0.8447 0.24671 0.37814 0.0
C508 C 0.86053 0.25715 0.37978 0.0
C509 C 0.84766 0.28076 0.40112 0.0
H510 H 0.87161 0.25163 0.37173 0.0
H511 H 0.84859 0.29414 0.40999 0.0
H512 H 0.89606 0.3242 0.36601 0.0
H513 H 0.91891 0.28942 0.41133 0.0
C514 C 0.90682 0.2616 0.36144 0.0
C515 C 0.88737 0.25661 0.42712 0.0
C516 C 0.86028 0.31089 0.35236 0.0
C517 C 0.87401 0.327 0.41899 0.0
H518 H 0.90901 0.22245 0.41567 0.0
H519 H 0.92152 0.22624 0.37984 0.0
H520 H 0.89965 0.26821 0.32104 0.0
H521 H 0.87283 0.29355 0.31618 0.0
H522 H 0.84524 0.34909 0.36481 0.0
H523 H 0.8542 0.35901 0.40084 0.0
H524 H 0.87697 0.31703 0.45937 0.0
H525 H 0.88266 0.27752 0.46382 0.0
H526 H 0.92342 0.34161 0.36076 0.0
H527 H 0.94739 0.30629 0.40628 0.0
H528 H 0.82025 0.27651 0.40766 0.0
H529 H 0.84407 0.23341 0.36901 0.0
C530 C 0.79589 0.88375 0.41867 0.0
C531 C 0.81129 0.89487 0.42043 0.0
C532 C 0.81235 0.90663 0.40422 0.0
C533 C 0.7976 0.90194 0.39353 0.0
N534 N 0.78698 0.8883 0.40219 0.0
Co535 Co 0.76541 0.87521 0.39094 0.0
N536 N 0.76902 0.88877 0.36542 0.0
C537 C 0.78083 0.90345 0.36138 0.0
C538 C 0.78032 0.90956 0.34243 0.0
C539 C 0.76754 0.89796 0.33389 0.0
C540 C 0.76097 0.8854 0.34818 0.0
N541 N 0.74439 0.8612 0.37948 0.0
C542 C 0.73905 0.85999 0.36082 0.0
C543 C 0.72434 0.84765 0.35875 0.0
C544 C 0.72046 0.84054 0.37673 0.0
C545 C 0.73297 0.84886 0.38868 0.0
N546 N 0.76154 0.86205 0.41657 0.0
C547 C 0.74747 0.85094 0.42198 0.0
C548 C 0.74891 0.84336 0.44036 0.0
C549 C 0.76499 0.84971 0.44693 0.0
C550 C 0.77244 0.86087 0.4321 0.0
N551 N 0.75031 0.89858 0.39887 0.0
C552 C 0.72695 0.9318 0.39964 0.0
C553 C 0.72096 0.91218 0.40312 0.0
C554 C 0.7328 0.89599 0.40296 0.0
C555 C 0.7451 0.93471 0.39804 0.0
C556 C 0.75644 0.91808 0.39798 0.0
N557 N 0.78009 0.85231 0.38254 0.0
C558 C 0.78334 0.81656 0.37664 0.0
C559 C 0.79735 0.82027 0.36412 0.0
C560 C 0.80345 0.84008 0.36227 0.0
C561 C 0.79477 0.85576 0.37166 0.0
C562 C 0.77496 0.83276 0.38575 0.0
H563 H 0.79969 0.87068 0.36933 0.0
H564 H 0.7639 0.82931 0.39469 0.0
H565 H 0.72725 0.88154 0.4056 0.0
H566 H 0.77 0.92152 0.3965 0.0
C567 C 0.79394 0.90881 0.37477 0.0
C568 C 0.79043 0.86859 0.43268 0.0
C569 C 0.7477 0.86987 0.34462 0.0
C570 C 0.73478 0.8449 0.40844 0.0
H571 H 0.82092 0.89418 0.43203 0.0
H572 H 0.82294 0.91678 0.40034 0.0
H573 H 0.78883 0.92041 0.33543 0.0
H574 H 0.76383 0.89829 0.31876 0.0
H575 H 0.7173 0.84396 0.34556 0.0
H576 H 0.71002 0.83016 0.38056 0.0
H577 H 0.73988 0.8333 0.44765 0.0
H578 H 0.77085 0.84581 0.46073 0.0
H579 H 0.70709 0.90921 0.40539 0.0
H580 H 0.75054 0.94966 0.39576 0.0
H581 H 0.77828 0.80139 0.37864 0.0
H582 H 0.8146 0.84356 0.35316 0.0
C583 C 0.11158 0.75892 0.41682 0.0
C584 C 0.09965 0.77472 0.41538 0.0
C585 C 0.09214 0.77339 0.39722 0.0
C586 C 0.09992 0.75695 0.38857 0.0
N587 N 0.11169 0.74795 0.40032 0.0
Co588 Co 0.12753 0.72539 0.39356 0.0
N589 N 0.12519 0.73105 0.36568 0.0
C590 C 0.11215 0.74176 0.35726 0.0
C591 C 0.11416 0.74322 0.3376 0.0
C592 C 0.12927 0.73262 0.33352 0.0
C593 C 0.13563 0.72514 0.35097 0.0
N594 N 0.14345 0.7028 0.38725 0.0
C595 C 0.15244 0.69924 0.37083 0.0
C596 C 0.16177 0.68121 0.37224 0.0
C597 C 0.15835 0.67335 0.39021 0.0
C598 C 0.14712 0.6869 0.39875 0.0
N599 N 0.1297 0.71978 0.42137 0.0
C600 C 0.13453 0.70224 0.42962 0.0
C601 C 0.13547 0.70369 0.44945 0.0
C602 C 0.13104 0.72339 0.45371 0.0
C603 C 0.12767 0.73278 0.43618 0.0
N604 N 0.10733 0.70694 0.39155 0.0
C605 C 0.07755 0.68255 0.38535 0.0
C606 C 0.09222 0.68114 0.37334 0.0
C607 C 0.1068 0.69343 0.37658 0.0
C608 C 0.07823 0.69619 0.4009 0.0
C609 C 0.09336 0.70809 0.4039 0.0
N610 N 0.14764 0.74377 0.39494 0.0
C611 C 0.1783 0.75002 0.40168 0.0
C612 C 0.17722 0.76876 0.39227 0.0
C613 C 0.16088 0.77505 0.38501 0.0
C614 C 0.14635 0.76233 0.38636 0.0
C615 C 0.16327 0.73784 0.40308 0.0
H616 H 0.13421 0.76727 0.37977 0.0
H617 H 0.16439 0.72338 0.4102 0.0
H618 H 0.11745 0.69236 0.36647 0.0
H619 H 0.09364 0.71855 0.41589 0.0
C620 C 0.10031 0.75302 0.36859 0.0
C621 C 0.12259 0.75398 0.43375 0.0
C622 C 0.15082 0.71143 0.35313 0.0
C623 C 0.14214 0.68698 0.41829 0.0
H624 H 0.09689 0.78624 0.426 0.0
H625 H 0.08313 0.78409 0.39065 0.0
H626 H 0.10605 0.75167 0.32751 0.0
H627 H 0.13489 0.73063 0.31933 0.0
H628 H 0.16995 0.67428 0.36135 0.0
H629 H 0.16384 0.65972 0.39647 0.0
H630 H 0.14003 0.69228 0.45952 0.0
H631 H 0.13072 0.73022 0.46792 0.0
H632 H 0.09221 0.67114 0.36094 0.0
H633 H 0.06715 0.69772 0.41057 0.0
H634 H 0.1907 0.74469 0.4076 0.0
H635 H 0.1595 0.78928 0.3774 0.0
C636 C 0.21528 0.88684 0.58668 0.0
C637 C 0.20147 0.9005 0.58529 0.0
C638 C 0.20293 0.91314 0.60106 0.0
C639 C 0.21744 0.90646 0.61123 0.0
N640 N 0.22509 0.89049 0.60271 0.0
Co641 Co 0.2452 0.87474 0.61296 0.0
N642 N 0.24119 0.88452 0.63952 0.0
C643 C 0.23208 0.9012 0.6444 0.0
C644 C 0.23156 0.90404 0.66406 0.0
C645 C 0.24102 0.88825 0.67187 0.0
C646 C 0.24685 0.87663 0.65648 0.0
N647 N 0.26523 0.85871 0.62293 0.0
C648 C 0.26872 0.85271 0.64122 0.0
C649 C 0.28434 0.84179 0.64202 0.0
C650 C 0.29075 0.84112 0.62351 0.0
C651 C 0.27877 0.85164 0.61246 0.0
N652 N 0.24931 0.86522 0.58643 0.0
C653 C 0.26446 0.85783 0.57942 0.0
C654 C 0.2629 0.85212 0.56036 0.0
C655 C 0.24569 0.85616 0.55528 0.0
C656 C 0.23776 0.86408 0.57159 0.0
N657 N 0.26103 0.89773 0.60878 0.0
C658 C 0.28228 0.93218 0.60581 0.0
C659 C 0.28431 0.9188 0.62124 0.0
C660 C 0.27351 0.90192 0.62258 0.0
C661 C 0.26959 0.92787 0.59157 0.0
C662 C 0.25926 0.9103 0.59315 0.0
N663 N 0.22953 0.85196 0.61778 0.0
C664 C 0.22559 0.81609 0.62132 0.0
C665 C 0.21089 0.81941 0.63303 0.0
C666 C 0.2048 0.83921 0.63541 0.0
C667 C 0.21423 0.85523 0.62757 0.0
C668 C 0.23473 0.83263 0.61377 0.0
H669 H 0.2097 0.87035 0.63048 0.0
H670 H 0.24659 0.82985 0.60569 0.0
H671 H 0.275 0.89257 0.6352 0.0
H672 H 0.24959 0.9071 0.58204 0.0
C673 C 0.22162 0.91127 0.63054 0.0
C674 C 0.21942 0.87086 0.57263 0.0
C675 C 0.25849 0.85892 0.65818 0.0
C676 C 0.27812 0.85224 0.59215 0.0
H677 H 0.19126 0.90114 0.57435 0.0
H678 H 0.19379 0.92488 0.60523 0.0
H679 H 0.2245 0.91565 0.67185 0.0
H680 H 0.24333 0.88561 0.68711 0.0
H681 H 0.29057 0.83525 0.65467 0.0
H682 H 0.30243 0.83329 0.61863 0.0
H683 H 0.27272 0.84474 0.55156 0.0
H684 H 0.23961 0.85337 0.54134 0.0
H685 H 0.29377 0.92179 0.63269 0.0
H686 H 0.26765 0.93797 0.57943 0.0
H687 H 0.23063 0.80096 0.61903 0.0
H688 H 0.19323 0.84236 0.64398 0.0
C689 C 0.10092 0.25168 0.59105 0.0
C690 C 0.09071 0.23458 0.59371 0.0
C691 C 0.08437 0.23568 0.6123 0.0
C692 C 0.09108 0.25337 0.61989 0.0
N693 N 0.10106 0.26332 0.60707 0.0
Co694 Co 0.11478 0.28814 0.61177 0.0
N695 N 0.11489 0.28355 0.63995 0.0
C696 C 0.10359 0.27165 0.64965 0.0
C697 C 0.107 0.27146 0.66917 0.0
C698 C 0.12116 0.28416 0.6718 0.0
C699 C 0.12558 0.29153 0.65367 0.0
N700 N 0.12864 0.31297 0.61616 0.0
C701 C 0.13828 0.31847 0.63178 0.0
C702 C 0.14568 0.33747 0.62905 0.0
C703 C 0.14031 0.34395 0.61108 0.0
C704 C 0.12994 0.32865 0.60386 0.0
N705 N 0.11442 0.29261 0.58363 0.0
C706 C 0.11694 0.31028 0.57449 0.0
C707 C 0.11694 0.30805 0.55473 0.0
C708 C 0.11437 0.28772 0.55143 0.0
C709 C 0.11286 0.27869 0.56944 0.0
N710 N 0.09297 0.30374 0.61454 0.0
C711 C 0.06078 0.32234 0.62308 0.0
C712 C 0.07595 0.32668 0.63386 0.0
C713 C 0.0918 0.31734 0.62937 0.0
C714 C 0.06228 0.3094 0.60708 0.0
C715 C 0.07854 0.30022 0.60305 0.0
N716 N 0.13651 0.27259 0.60958 0.0
C717 C 0.16658 0.26951 0.59922 0.0
C718 C 0.16864 0.2521 0.61054 0.0
C719 C 0.15406 0.24458 0.62044 0.0
C720 C 0.13815 0.25497 0.61972 0.0
C721 C 0.15037 0.27961 0.59899 0.0
H722 H 0.1273 0.249 0.62787 0.0
H723 H 0.14918 0.29341 0.59078 0.0
H724 H 0.10297 0.32058 0.63852 0.0
H725 H 0.07933 0.28972 0.59112 0.0
C726 C 0.09229 0.2583 0.63963 0.0
C727 C 0.11002 0.25707 0.57317 0.0
C728 C 0.13907 0.30704 0.64998 0.0
C729 C 0.12371 0.32694 0.58474 0.0
H730 H 0.08839 0.22252 0.58342 0.0
H731 H 0.07686 0.22423 0.61978 0.0
H732 H 0.10049 0.26253 0.6801 0.0
H733 H 0.12744 0.2876 0.6855 0.0
H734 H 0.15385 0.34589 0.63909 0.0
H735 H 0.144 0.35787 0.60394 0.0
H736 H 0.1198 0.3195 0.54403 0.0
H737 H 0.11408 0.28054 0.53742 0.0
H738 H 0.0755 0.33691 0.64608 0.0
H739 H 0.05085 0.30573 0.5983 0.0
H740 H 0.17759 0.27578 0.59136 0.0
H741 H 0.15504 0.23095 0.62908 0.0
C742 C 0.74232 0.10099 0.6147 0.0
C743 C 0.72728 0.10323 0.60342 0.0
C744 C 0.72732 0.12289 0.59682 0.0
C745 C 0.74229 0.13159 0.60446 0.0
N746 N 0.75156 0.11847 0.61531 0.0
Co747 Co 0.77289 0.12458 0.63068 0.0
N748 N 0.76727 0.15365 0.63131 0.0
C749 C 0.75655 0.16343 0.61888 0.0
C750 C 0.7554 0.18374 0.62294 0.0
C751 C 0.76614 0.18675 0.6388 0.0
C752 C 0.77323 0.16804 0.64358 0.0
N753 N 0.79429 0.13038 0.64608 0.0
C754 C 0.79799 0.14664 0.65723 0.0
C755 C 0.81445 0.14456 0.66589 0.0
C756 C 0.82125 0.12646 0.65959 0.0
C757 C 0.80859 0.11843 0.64754 0.0
N758 N 0.77836 0.09553 0.62995 0.0
C759 C 0.7942 0.08694 0.63275 0.0
C760 C 0.79328 0.06614 0.63238 0.0
C761 C 0.77576 0.06161 0.62928 0.0
C762 C 0.76702 0.07995 0.62795 0.0
N763 N 0.78635 0.12906 0.60693 0.0
C764 C 0.8044 0.13845 0.57278 0.0
C765 C 0.80669 0.15005 0.5895 0.0
C766 C 0.7976 0.14519 0.60623 0.0
C767 C 0.79296 0.12175 0.57357 0.0
C768 C 0.78417 0.1172 0.59088 0.0
N769 N 0.7596 0.12078 0.65443 0.0
C770 C 0.75897 0.11168 0.68806 0.0
C771 C 0.74299 0.122 0.69029 0.0
C772 C 0.73498 0.1305 0.67392 0.0
C773 C 0.7435 0.12977 0.6562 0.0
C774 C 0.76697 0.11104 0.66993 0.0
H775 H 0.73744 0.13743 0.64413 0.0
H776 H 0.77949 0.10348 0.66863 0.0
H777 H 0.79944 0.15494 0.61854 0.0
H778 H 0.7754 0.10433 0.59123 0.0
C779 C 0.74556 0.15248 0.60614 0.0
C780 C 0.74807 0.08241 0.62458 0.0
C781 C 0.78664 0.16461 0.65867 0.0
C782 C 0.80814 0.09847 0.64047 0.0
H783 H 0.71716 0.09212 0.60056 0.0
H784 H 0.71698 0.13031 0.58863 0.0
H785 H 0.74723 0.19488 0.61576 0.0
H786 H 0.76856 0.20107 0.64592 0.0
H787 H 0.8209 0.15498 0.6757 0.0
H788 H 0.83358 0.1196 0.66399 0.0
H789 H 0.80379 0.05552 0.63539 0.0
H790 H 0.77 0.04666 0.62848 0.0
H791 H 0.81507 0.16331 0.58955 0.0
H792 H 0.79083 0.11232 0.56098 0.0
H793 H 0.76547 0.10466 0.70032 0.0
H794 H 0.7227 0.13876 0.67499 0.0
C795 C 0.89072 0.75004 0.58887 0.0
C796 C 0.90353 0.76493 0.58979 0.0
C797 C 0.91153 0.76305 0.60765 0.0
C798 C 0.90314 0.74718 0.6166 0.0
N799 N 0.8905 0.73908 0.60534 0.0
Co800 Co 0.87395 0.71733 0.61253 0.0
N801 N 0.87778 0.72234 0.64036 0.0
C802 C 0.8916 0.73218 0.64825 0.0
C803 C 0.89048 0.73344 0.66802 0.0
C804 C 0.87512 0.72364 0.67273 0.0
C805 C 0.86773 0.71679 0.65551 0.0
N806 N 0.85736 0.69555 0.61936 0.0
C807 C 0.84899 0.6922 0.6362 0.0
C808 C 0.8388 0.67477 0.63504 0.0
C809 C 0.84103 0.66706 0.61678 0.0
C810 C 0.85245 0.6801 0.60784 0.0
N811 N 0.87031 0.71233 0.58476 0.0
C812 C 0.86425 0.69528 0.57653 0.0
C813 C 0.86259 0.69707 0.55678 0.0
C814 C 0.86789 0.71648 0.55255 0.0
C815 C 0.87247 0.72535 0.57 0.0
N816 N 0.89335 0.6978 0.61308 0.0
C817 C 0.92257 0.6722 0.61718 0.0
C818 C 0.9085 0.67119 0.63007 0.0
C819 C 0.89416 0.68407 0.62784 0.0
C820 C 0.92146 0.68592 0.60174 0.0
C821 C 0.90662 0.69845 0.59982 0.0
N822 N 0.85464 0.73685 0.61248 0.0
C823 C 0.82423 0.74522 0.60657 0.0
C824 C 0.82644 0.76375 0.61614 0.0
C825 C 0.84319 0.76877 0.6232 0.0
C826 C 0.85703 0.75513 0.62133 0.0
C827 C 0.83856 0.73205 0.60472 0.0
H828 H 0.86956 0.75917 0.62759 0.0
H829 H 0.83656 0.71779 0.59745 0.0
H830 H 0.88399 0.68333 0.63856 0.0
H831 H 0.90607 0.70904 0.58795 0.0
C832 C 0.90343 0.74297 0.63652 0.0
C833 C 0.87903 0.74598 0.57239 0.0
C834 C 0.85189 0.70399 0.65394 0.0
C835 C 0.85649 0.68027 0.58803 0.0
H836 H 0.90656 0.77613 0.57892 0.0
H837 H 0.9214 0.77299 0.61382 0.0
H838 H 0.89934 0.74127 0.6778 0.0
H839 H 0.87001 0.72176 0.68716 0.0
H840 H 0.83082 0.66813 0.64627 0.0
H841 H 0.83466 0.65389 0.61063 0.0
H842 H 0.85711 0.68611 0.5468 0.0
H843 H 0.8681 0.72344 0.53839 0.0
H844 H 0.90887 0.66111 0.64241 0.0
H845 H 0.93204 0.68713 0.59139 0.0
H846 H 0.8115 0.74085 0.60076 0.0
H847 H 0.84546 0.78279 0.63092 0.0
C848 C 0.39267 0.26479 0.0982 0.0
C849 C 0.4038 0.28091 0.10196 0.0
C850 C 0.40936 0.27875 0.12085 0.0
C851 C 0.40131 0.26145 0.12749 0.0
N852 N 0.39118 0.25274 0.11384 0.0
Co853 Co 0.37598 0.22879 0.11696 0.0
N854 N 0.37534 0.23231 0.14529 0.0
C855 C 0.38691 0.24311 0.15594 0.0
C856 C 0.38301 0.24279 0.17528 0.0
C857 C 0.36823 0.23091 0.17681 0.0
C858 C 0.36396 0.22447 0.15824 0.0
N859 N 0.36075 0.20479 0.11979 0.0
C860 C 0.35056 0.19923 0.1348 0.0
C861 C 0.34239 0.18082 0.13102 0.0
C862 C 0.34781 0.17477 0.11305 0.0
C863 C 0.35899 0.1897 0.10685 0.0
N864 N 0.37686 0.22533 0.0887 0.0
C865 C 0.37365 0.20821 0.07883 0.0
C866 C 0.37456 0.21103 0.05919 0.0
C867 C 0.37852 0.23117 0.05671 0.0
C868 C 0.37988 0.2395 0.07507 0.0
N869 N 0.39686 0.21169 0.12007 0.0
C870 C 0.42834 0.19226 0.13015 0.0
C871 C 0.41265 0.18769 0.13967 0.0
C872 C 0.39713 0.19751 0.13444 0.0
C873 C 0.42767 0.20555 0.11436 0.0
C874 C 0.41173 0.21507 0.1095 0.0
N875 N 0.35524 0.24601 0.11433 0.0
C876 C 0.32604 0.25254 0.10201 0.0
C877 C 0.32558 0.27089 0.11213 0.0
C878 C 0.34022 0.27652 0.12322 0.0
C879 C 0.35479 0.26386 0.12425 0.0
C880 C 0.34114 0.24038 0.10313 0.0
H881 H 0.36567 0.2685 0.13326 0.0
H882 H 0.34137 0.22636 0.09517 0.0
H883 H 0.38556 0.19434 0.14281 0.0
H884 H 0.41162 0.22592 0.09783 0.0
C885 C 0.3992 0.25594 0.14696 0.0
C886 C 0.38403 0.26066 0.07963 0.0
C887 C 0.34997 0.20982 0.15346 0.0
C888 C 0.36578 0.1917 0.08812 0.0
H889 H 0.40727 0.29301 0.09217 0.0
H890 H 0.41732 0.28929 0.12909 0.0
H891 H 0.38967 0.25086 0.18682 0.0
H892 H 0.36146 0.22736 0.19008 0.0
H893 H 0.33369 0.17243 0.1404 0.0
H894 H 0.3437 0.16137 0.10524 0.0
H895 H 0.37153 0.20015 0.04796 0.0
H896 H 0.37986 0.23868 0.04296 0.0
H897 H 0.41246 0.17713 0.15163 0.0
H898 H 0.43949 0.2094 0.10652 0.0
H899 H 0.31486 0.24768 0.09338 0.0
H900 H 0.34022 0.29043 0.13151 0.0
C901 C 0.3866 0.74133 0.89237 0.0
C902 C 0.39834 0.72539 0.89108 0.0
C903 C 0.40557 0.72644 0.87287 0.0
C904 C 0.39783 0.74295 0.86413 0.0
N905 N 0.38634 0.75221 0.87585 0.0
Co906 Co 0.37091 0.77519 0.8692 0.0
N907 N 0.37285 0.76952 0.84132 0.0
C908 C 0.38578 0.75881 0.83288 0.0
C909 C 0.38372 0.7578 0.81316 0.0
C910 C 0.36868 0.76864 0.80908 0.0
C911 C 0.36234 0.77566 0.82661 0.0
N912 N 0.35527 0.79811 0.86282 0.0
C913 C 0.34602 0.80172 0.84642 0.0
C914 C 0.33641 0.81951 0.84805 0.0
C915 C 0.34014 0.82735 0.86602 0.0
C916 C 0.35168 0.81392 0.8744 0.0
N917 N 0.36926 0.78087 0.89708 0.0
C918 C 0.36465 0.79848 0.90528 0.0
C919 C 0.36395 0.79713 0.9251 0.0
C920 C 0.36829 0.77743 0.92944 0.0
C921 C 0.37144 0.76791 0.91196 0.0
N922 N 0.39147 0.79308 0.86725 0.0
C923 C 0.42234 0.81544 0.86065 0.0
C924 C 0.4075 0.81772 0.84873 0.0
C925 C 0.39233 0.80647 0.85223 0.0
C926 C 0.42113 0.80222 0.87649 0.0
C927 C 0.40552 0.79132 0.87964 0.0
N928 N 0.35052 0.75726 0.87063 0.0
C929 C 0.32069 0.75029 0.88016 0.0
C930 C 0.32092 0.73191 0.86996 0.0
C931 C 0.33649 0.72642 0.86057 0.0
C932 C 0.35106 0.73914 0.8612 0.0
C933 C 0.33562 0.76276 0.88028 0.0
H934 H 0.36269 0.73445 0.85361 0.0
H935 H 0.33506 0.77698 0.8879 0.0
H936 H 0.38152 0.8081 0.84219 0.0
H937 H 0.40497 0.78103 0.89174 0.0
C938 C 0.39749 0.74712 0.84417 0.0
C939 C 0.37637 0.74666 0.9095 0.0
C940 C 0.34726 0.78942 0.82876 0.0
C941 C 0.35692 0.81374 0.89394 0.0
H942 H 0.40119 0.71415 0.90204 0.0
H943 H 0.41449 0.71566 0.8664 0.0
H944 H 0.39178 0.74954 0.80301 0.0
H945 H 0.36311 0.77122 0.79485 0.0
H946 H 0.32771 0.82621 0.83739 0.0
H947 H 0.33453 0.84079 0.87244 0.0
H948 H 0.35956 0.80862 0.93512 0.0
H949 H 0.36869 0.77078 0.94372 0.0
H950 H 0.4078 0.82746 0.83616 0.0
H951 H 0.43221 0.80012 0.88623 0.0
H952 H 0.30906 0.75512 0.88785 0.0
H953 H 0.33735 0.71267 0.85213 0.0
C954 C 0.23684 0.40567 0.88836 0.0
C955 C 0.22248 0.40345 0.90041 0.0
C956 C 0.22274 0.38367 0.9067 0.0
C957 C 0.23723 0.37501 0.89815 0.0
N958 N 0.24595 0.38823 0.88702 0.0
Co959 Co 0.26672 0.38252 0.87104 0.0
N960 N 0.26139 0.35333 0.8706 0.0
C961 C 0.25111 0.34338 0.88319 0.0
C962 C 0.24963 0.32319 0.87876 0.0
C963 C 0.25967 0.32041 0.8625 0.0
C964 C 0.26684 0.33912 0.85795 0.0
N965 N 0.28756 0.37698 0.85507 0.0
C966 C 0.29086 0.36085 0.84372 0.0
C967 C 0.30718 0.36275 0.83497 0.0
C968 C 0.31418 0.38082 0.8412 0.0
C969 C 0.30183 0.38889 0.8534 0.0
N970 N 0.27199 0.41168 0.87161 0.0
C971 C 0.2877 0.42034 0.86829 0.0
C972 C 0.28678 0.4411 0.86879 0.0
C973 C 0.26944 0.44558 0.8726 0.0
C974 C 0.26074 0.42722 0.87432 0.0
N975 N 0.28096 0.37839 0.89441 0.0
C976 C 0.29844 0.36846 0.92894 0.0
C977 C 0.30114 0.35722 0.91208 0.0
C978 C 0.29227 0.36232 0.89512 0.0
C979 C 0.28755 0.38559 0.92784 0.0
C980 C 0.27898 0.39035 0.91038 0.0
N981 N 0.25251 0.3861 0.84768 0.0
C982 C 0.25028 0.3955 0.81418 0.0
C983 C 0.23414 0.38534 0.81258 0.0
C984 C 0.22696 0.37658 0.82915 0.0
C985 C 0.23636 0.37705 0.84648 0.0
C986 C 0.25916 0.39593 0.83196 0.0
H987 H 0.23088 0.36927 0.85872 0.0
H988 H 0.27174 0.40348 0.83281 0.0
H989 H 0.29418 0.35276 0.88272 0.0
H990 H 0.27029 0.40327 0.90995 0.0
C991 C 0.24051 0.35415 0.89629 0.0
C992 C 0.24201 0.42447 0.87877 0.0
C993 C 0.27938 0.34302 0.84226 0.0
C994 C 0.30148 0.40887 0.86038 0.0
H995 H 0.21279 0.41482 0.904 0.0
H996 H 0.2129 0.37623 0.91543 0.0
H997 H 0.24153 0.31201 0.88587 0.0
H998 H 0.26138 0.30628 0.85487 0.0
H999 H 0.31338 0.35217 0.82522 0.0
H1000 H 0.32645 0.38762 0.83668 0.0
H1001 H 0.29717 0.45174 0.86551 0.0
H1002 H 0.26394 0.4606 0.87365 0.0
H1003 H 0.30981 0.34422 0.91201 0.0
H1004 H 0.28513 0.39479 0.94049 0.0
H1005 H 0.25617 0.40264 0.80171 0.0
H1006 H 0.21459 0.36843 0.82853 0.0
C1007 C 0.60812 0.26333 0.90319 0.0
C1008 C 0.59723 0.27955 0.89902 0.0
C1009 C 0.59183 0.27713 0.88009 0.0
C1010 C 0.59974 0.25958 0.87384 0.0
N1011 N 0.60959 0.25096 0.88777 0.0
Co1012 Co 0.6247 0.22685 0.88518 0.0
N1013 N 0.62576 0.22994 0.85685 0.0
C1014 C 0.61434 0.24061 0.84588 0.0
C1015 C 0.61842 0.23988 0.82659 0.0
C1016 C 0.63314 0.22786 0.82545 0.0
C1017 C 0.63721 0.22178 0.84417 0.0
N1018 N 0.63996 0.2028 0.88296 0.0
C1019 C 0.6504 0.19702 0.86823 0.0
C1020 C 0.65858 0.17872 0.87244 0.0
C1021 C 0.65289 0.17295 0.8904 0.0
C1022 C 0.64156 0.18793 0.89615 0.0
N1023 N 0.62335 0.2238 0.91346 0.0
C1024 C 0.62636 0.20683 0.92362 0.0
C1025 C 0.62521 0.20999 0.94321 0.0
C1026 C 0.62135 0.23019 0.94533 0.0
C1027 C 0.62028 0.23821 0.92684 0.0
N1028 N 0.6038 0.20974 0.88181 0.0
C1029 C 0.57261 0.18998 0.87077 0.0
C1030 C 0.58879 0.18471 0.8626 0.0
C1031 C 0.60407 0.19484 0.86811 0.0
C1032 C 0.57266 0.20422 0.88585 0.0
C1033 C 0.58846 0.21377 0.89131 0.0
N1034 N 0.64548 0.24401 0.88798 0.0
C1035 C 0.67468 0.25034 0.90036 0.0
C1036 C 0.67541 0.26844 0.88991 0.0
C1037 C 0.66089 0.27414 0.87868 0.0
C1038 C 0.64617 0.26168 0.87778 0.0
C1039 C 0.65943 0.23842 0.8994 0.0
H1040 H 0.63541 0.26629 0.86859 0.0
H1041 H 0.65901 0.22455 0.9076 0.0
H1042 H 0.61593 0.19122 0.86045 0.0
H1043 H 0.58811 0.22513 0.90251 0.0
C1044 C 0.60204 0.25372 0.85448 0.0
C1045 C 0.61648 0.25936 0.92195 0.0
C1046 C 0.65113 0.2072 0.84937 0.0
C1047 C 0.63443 0.1902 0.91471 0.0
H1048 H 0.59381 0.29189 0.90856 0.0
H1049 H 0.5841 0.28765 0.87158 0.0
H1050 H 0.61191 0.24775 0.81483 0.0
H1051 H 0.64001 0.22397 0.81232 0.0
H1052 H 0.66745 0.17023 0.86334 0.0
H1053 H 0.65691 0.1597 0.89848 0.0
H1054 H 0.62809 0.19929 0.95464 0.0
H1055 H 0.6199 0.23802 0.95893 0.0
H1056 H 0.58964 0.17329 0.85143 0.0
H1057 H 0.56053 0.20873 0.89276 0.0
H1058 H 0.68579 0.24544 0.90909 0.0
H1059 H 0.66111 0.28787 0.87015 0.0
C1060 C 0.76059 0.60504 0.89404 0.0
C1061 C 0.77567 0.60561 0.9054 0.0
C1062 C 0.77677 0.62498 0.91272 0.0
C1063 C 0.76231 0.63508 0.90543 0.0
N1064 N 0.75231 0.6231 0.89414 0.0
Co1065 Co 0.73125 0.63116 0.87928 0.0
N1066 N 0.73825 0.65986 0.87981 0.0
C1067 C 0.74959 0.66841 0.89242 0.0
C1068 C 0.75199 0.68866 0.8888 0.0
C1069 C 0.74145 0.69294 0.87304 0.0
C1070 C 0.73311 0.67501 0.86795 0.0
N1071 N 0.71013 0.639 0.86437 0.0
C1072 C 0.70735 0.6558 0.85372 0.0
C1073 C 0.69064 0.65552 0.84546 0.0
C1074 C 0.68282 0.63777 0.85127 0.0
C1075 C 0.69513 0.62827 0.86276 0.0
N1076 N 0.72433 0.60247 0.87887 0.0
C1077 C 0.70803 0.59516 0.87586 0.0
C1078 C 0.70781 0.57436 0.87533 0.0
C1079 C 0.72504 0.56845 0.87809 0.0
C1080 C 0.73482 0.58603 0.88025 0.0
N1081 N 0.71827 0.63535 0.90337 0.0
C1082 C 0.70287 0.64541 0.93888 0.0
C1083 C 0.70008 0.65733 0.92243 0.0
C1084 C 0.70791 0.65217 0.90501 0.0
C1085 C 0.71276 0.62757 0.93686 0.0
C1086 C 0.7203 0.62277 0.91893 0.0
N1087 N 0.74421 0.62764 0.85527 0.0
C1088 C 0.74437 0.62013 0.82127 0.0
C1089 C 0.76097 0.6292 0.81954 0.0
C1090 C 0.76939 0.63635 0.83623 0.0
C1091 C 0.76078 0.63552 0.85387 0.0
C1092 C 0.73631 0.61923 0.83937 0.0
H1093 H 0.76724 0.64218 0.86623 0.0
H1094 H 0.72337 0.61258 0.84036 0.0
H1095 H 0.706 0.66229 0.89299 0.0
H1096 H 0.72825 0.60928 0.91778 0.0
C1097 C 0.76013 0.65622 0.9046 0.0
C1098 C 0.75391 0.58721 0.88374 0.0
C1099 C 0.71983 0.67272 0.8525 0.0
C1100 C 0.69461 0.608 0.86894 0.0
H1101 H 0.78495 0.59344 0.90784 0.0
H1102 H 0.78747 0.63125 0.92122 0.0
H1103 H 0.76098 0.69888 0.89607 0.0
H1104 H 0.74017 0.70752 0.86609 0.0
H1105 H 0.68472 0.66694 0.83628 0.0
H1106 H 0.67002 0.63211 0.84691 0.0
H1107 H 0.69671 0.56467 0.87197 0.0
H1108 H 0.72977 0.55304 0.87811 0.0
H1109 H 0.69212 0.67091 0.92302 0.0
H1110 H 0.71522 0.6178 0.94914 0.0
H1111 H 0.73752 0.61425 0.80869 0.0
H1112 H 0.78216 0.64363 0.83551 0.0
C1113 C 0.61795 0.74695 0.11495 0.0
C1114 C 0.60631 0.73103 0.11729 0.0
C1115 C 0.59944 0.73301 0.13559 0.0
C1116 C 0.60726 0.75001 0.14332 0.0
N1117 N 0.61847 0.7587 0.13091 0.0
Co1118 Co 0.6338 0.78219 0.13606 0.0
N1119 N 0.63234 0.7781 0.16424 0.0
C1120 C 0.61965 0.76774 0.17346 0.0
C1121 C 0.62197 0.76792 0.19318 0.0
C1122 C 0.63692 0.77921 0.19642 0.0
C1123 C 0.64295 0.78527 0.17844 0.0
N1124 N 0.64932 0.80562 0.14095 0.0
C1125 C 0.65871 0.81034 0.15699 0.0
C1126 C 0.66807 0.82816 0.15429 0.0
C1127 C 0.66403 0.83488 0.136 0.0
C1128 C 0.65256 0.8208 0.12852 0.0
N1129 N 0.63496 0.7863 0.10788 0.0
C1130 C 0.63929 0.80351 0.09875 0.0
C1131 C 0.63969 0.80115 0.07902 0.0
C1132 C 0.63544 0.78122 0.07571 0.0
C1133 C 0.63258 0.77255 0.09368 0.0
N1134 N 0.6131 0.79991 0.13743 0.0
C1135 C 0.58202 0.82205 0.14333 0.0
C1136 C 0.59694 0.82524 0.15494 0.0
C1137 C 0.61223 0.81409 0.15179 0.0
C1138 C 0.58326 0.80807 0.12812 0.0
C1139 C 0.59897 0.79729 0.12531 0.0
N1140 N 0.65432 0.76438 0.13515 0.0
C1141 C 0.68377 0.75667 0.12471 0.0
C1142 C 0.68372 0.7387 0.13556 0.0
C1143 C 0.66851 0.73391 0.14595 0.0
C1144 C 0.65404 0.74678 0.14545 0.0
C1145 C 0.66894 0.76932 0.12474 0.0
H1146 H 0.64265 0.74255 0.15369 0.0
H1147 H 0.66932 0.78316 0.11648 0.0
H1148 H 0.62314 0.81645 0.16157 0.0
H1149 H 0.59952 0.78637 0.11372 0.0
C1150 C 0.60787 0.7553 0.16302 0.0
C1151 C 0.62774 0.7514 0.09728 0.0
C1152 C 0.65779 0.79916 0.17533 0.0
C1153 C 0.64703 0.81946 0.10915 0.0
H1154 H 0.6033 0.71922 0.10696 0.0
H1155 H 0.59069 0.72256 0.14277 0.0
H1156 H 0.61413 0.76018 0.20389 0.0
H1157 H 0.64264 0.78271 0.2104 0.0
H1158 H 0.67678 0.83564 0.16446 0.0
H1159 H 0.66936 0.84803 0.1288 0.0
H1160 H 0.64384 0.81214 0.0684 0.0
H1161 H 0.63495 0.77398 0.06172 0.0
H1162 H 0.59663 0.83563 0.16703 0.0
H1163 H 0.57212 0.80527 0.11862 0.0
H1164 H 0.69513 0.76097 0.11631 0.0
H1165 H 0.66785 0.72053 0.15493 0.0
C1166 C 0.24214 0.6071 0.11536 0.0
C1167 C 0.22707 0.6079 0.10398 0.0
C1168 C 0.22643 0.62713 0.09627 0.0
C1169 C 0.24113 0.63693 0.10337 0.0
N1170 N 0.25084 0.6249 0.1149 0.0
Co1171 Co 0.27214 0.63266 0.12952 0.0
N1172 N 0.26586 0.66155 0.12834 0.0
C1173 C 0.25472 0.67016 0.11556 0.0
C1174 C 0.25284 0.69057 0.11875 0.0
C1175 C 0.26352 0.69489 0.13439 0.0
C1176 C 0.27139 0.67681 0.13987 0.0
N1177 N 0.2935 0.64019 0.14416 0.0
C1178 C 0.29671 0.65716 0.15441 0.0
C1179 C 0.31344 0.65656 0.16262 0.0
C1180 C 0.32081 0.63843 0.15719 0.0
C1181 C 0.30823 0.62903 0.14597 0.0
N1182 N 0.27834 0.60376 0.13062 0.0
C1183 C 0.29447 0.59601 0.13376 0.0
C1184 C 0.29421 0.57524 0.13471 0.0
C1185 C 0.27684 0.56979 0.13207 0.0
C1186 C 0.26747 0.58762 0.12955 0.0
N1187 N 0.2852 0.63573 0.10532 0.0
C1188 C 0.3025 0.64283 0.0702 0.0
C1189 C 0.30467 0.65592 0.08593 0.0
C1190 C 0.29597 0.65216 0.1032 0.0
C1191 C 0.2916 0.62584 0.07255 0.0
C1192 C 0.28317 0.62247 0.09028 0.0
N1193 N 0.25916 0.63023 0.15365 0.0
C1194 C 0.25899 0.62367 0.18784 0.0
C1195 C 0.24271 0.63349 0.1895 0.0
C1196 C 0.23439 0.6405 0.17268 0.0
C1197 C 0.24283 0.63879 0.15497 0.0
C1198 C 0.2669 0.62196 0.16971 0.0
H1199 H 0.23648 0.64532 0.14249 0.0
H1200 H 0.27962 0.61478 0.16879 0.0
H1201 H 0.2977 0.66292 0.11473 0.0
H1202 H 0.2748 0.60936 0.09178 0.0
C1203 C 0.24385 0.65801 0.1037 0.0
C1204 C 0.24843 0.58926 0.12593 0.0
C1205 C 0.28462 0.67445 0.15535 0.0
C1206 C 0.30823 0.60859 0.1403 0.0
H1207 H 0.21752 0.59596 0.10174 0.0
H1208 H 0.21589 0.63353 0.08763 0.0
H1209 H 0.24409 0.7009 0.11127 0.0
H1210 H 0.26521 0.70958 0.14102 0.0
H1211 H 0.31966 0.668 0.17154 0.0
H1212 H 0.33347 0.63247 0.16166 0.0
H1213 H 0.30509 0.56529 0.13823 0.0
H1214 H 0.27176 0.55453 0.13234 0.0
H1215 H 0.31266 0.66944 0.08479 0.0
H1216 H 0.28961 0.61523 0.0608 0.0
H1217 H 0.26574 0.6178 0.20048 0.0
H1218 H 0.22187 0.64832 0.1733 0.0
C1219 C 0.7619 0.40251 0.1153 0.0
C1220 C 0.77637 0.39839 0.10389 0.0
C1221 C 0.77457 0.37861 0.09788 0.0
C1222 C 0.75912 0.37184 0.10596 0.0
N1223 N 0.75124 0.38624 0.11651 0.0
Co1224 Co 0.72968 0.38319 0.13195 0.0
N1225 N 0.73259 0.35357 0.13322 0.0
C1226 C 0.74224 0.34227 0.12105 0.0
C1227 C 0.74142 0.32201 0.12537 0.0
C1228 C 0.73049 0.32062 0.14108 0.0
C1229 C 0.72526 0.34018 0.14552 0.0
N1230 N 0.70806 0.38039 0.14741 0.0
C1231 C 0.70286 0.36487 0.15871 0.0
C1232 C 0.68679 0.36919 0.16728 0.0
C1233 C 0.68176 0.38795 0.16073 0.0
C1234 C 0.695 0.39409 0.14866 0.0
N1235 N 0.7269 0.41279 0.13049 0.0
C1236 C 0.71195 0.42326 0.13318 0.0
C1237 C 0.71463 0.4438 0.13228 0.0
C1238 C 0.73235 0.44623 0.12891 0.0
C1239 C 0.73948 0.42695 0.12785 0.0
N1240 N 0.71569 0.37982 0.10822 0.0
C1241 C 0.69904 0.36966 0.07322 0.0
C1242 C 0.69474 0.35973 0.0904 0.0
C1243 C 0.70317 0.36496 0.10759 0.0
C1244 C 0.71102 0.38582 0.07417 0.0
C1245 C 0.71918 0.39071 0.09187 0.0
N1246 N 0.74364 0.38592 0.15561 0.0
C1247 C 0.74674 0.39697 0.1886 0.0
C1248 C 0.7623 0.38574 0.19057 0.0
C1249 C 0.7686 0.37521 0.17452 0.0
C1250 C 0.75906 0.37538 0.15729 0.0
C1251 C 0.73771 0.39708 0.17088 0.0
H1252 H 0.76393 0.36643 0.14549 0.0
H1253 H 0.72569 0.4057 0.16966 0.0
H1254 H 0.70001 0.35627 0.12025 0.0
H1255 H 0.72882 0.40272 0.0922 0.0
C1256 C 0.75402 0.3515 0.1081 0.0
C1257 C 0.75805 0.42206 0.12429 0.0
C1258 C 0.71216 0.34543 0.16026 0.0
C1259 C 0.6972 0.41368 0.14118 0.0
H1260 H 0.78711 0.40852 0.10051 0.0
H1261 H 0.78399 0.36988 0.0897 0.0
H1262 H 0.74838 0.30978 0.11838 0.0
H1263 H 0.72667 0.30679 0.14829 0.0
H1264 H 0.67942 0.35979 0.17713 0.0
H1265 H 0.67019 0.39639 0.16492 0.0
H1266 H 0.70514 0.45563 0.13511 0.0
H1267 H 0.73913 0.46054 0.12781 0.0
H1268 H 0.6852 0.34754 0.09052 0.0
H1269 H 0.71465 0.39402 0.06126 0.0
H1270 H 0.74151 0.40539 0.2007 0.0
H1271 H 0.78046 0.36614 0.17549 0.0
H1272 H 0.24433 0.54987 0.11441 0.0
H1273 H 0.22499 0.52415 0.12868 0.0
H1274 H 0.20476 0.56869 0.16828 0.0
H1275 H 0.22422 0.59433 0.15412 0.0
H1276 H 0.22522 0.51178 0.16791 0.0
H1277 H 0.15984 0.54208 0.14623 0.0
H1278 H 0.18004 0.54999 0.13486 0.0
H1279 H 0.17406 0.56002 0.15804 0.0
C1280 C 0.23574 0.55409 0.12617 0.0
C1281 C 0.23588 0.57393 0.1334 0.0
C1282 C 0.22466 0.53946 0.13424 0.0
C1283 C 0.21332 0.5445 0.14946 0.0
C1284 C 0.21317 0.5645 0.15636 0.0
H1285 H 0.14288 0.47947 0.2257 0.0
H1286 H 0.1593 0.5048 0.20715 0.0
C1287 C 0.22431 0.5791 0.14833 0.0
C1288 C 0.20239 0.52863 0.15881 0.0
H1289 H 0.15997 0.51522 0.16906 0.0
C1290 C 0.21095 0.51243 0.16803 0.0
C1291 C 0.18377 0.52956 0.15907 0.0
C1292 C 0.17383 0.54624 0.14889 0.0
C1293 C 0.20145 0.49743 0.17791 0.0
C1294 C 0.1828 0.49833 0.17818 0.0
C1295 C 0.17423 0.51447 0.16883 0.0
C1296 C 0.17203 0.48297 0.18857 0.0
C1297 C 0.21156 0.48117 0.18854 0.0
C1298 C 0.17324 0.46231 0.18394 0.0
C1299 C 0.16403 0.44786 0.19469 0.0
C1300 C 0.15336 0.45382 0.21015 0.0
C1301 C 0.15137 0.47451 0.21412 0.0
C1302 C 0.16066 0.48896 0.20345 0.0
H1303 H 0.22544 0.4857 0.19133 0.0
H1304 H 0.2053 0.47753 0.20256 0.0
H1305 H 0.21174 0.46723 0.17962 0.0
H1306 H 0.18151 0.45732 0.17219 0.0
H1307 H 0.1656 0.43197 0.19126 0.0
H1308 H 0.58234 0.14426 0.20092 0.0
H1309 H 0.55862 0.15337 0.17847 0.0
H1310 H 0.52066 0.12589 0.21632 0.0
H1311 H 0.54436 0.11625 0.23869 0.0
H1312 H 0.51518 0.11835 0.17503 0.0
H1313 H 0.52412 0.1997 0.19341 0.0
H1314 H 0.54342 0.1864 0.1855 0.0
H1315 H 0.53337 0.17966 0.20799 0.0
C1316 C 0.569 0.13973 0.2043 0.0
C1317 C 0.56524 0.12963 0.22169 0.0
C1318 C 0.55545 0.14512 0.19151 0.0
C1319 C 0.53789 0.14053 0.19588 0.0
C1320 C 0.53414 0.12963 0.21274 0.0
H1321 H 0.43879 0.19116 0.16773 0.0
H1322 H 0.46625 0.17805 0.18123 0.0
C1323 C 0.54768 0.12427 0.22557 0.0
C1324 C 0.5233 0.14823 0.18359 0.0
H1325 H 0.50174 0.19166 0.17105 0.0
C1326 C 0.51233 0.13438 0.17395 0.0
C1327 C 0.51958 0.16916 0.18237 0.0
C1328 C 0.53062 0.18466 0.19295 0.0
C1329 C 0.49752 0.14092 0.16334 0.0
C1330 C 0.49369 0.16181 0.16237 0.0
C1331 C 0.50486 0.17567 0.17169 0.0
C1332 C 0.47713 0.16947 0.15363 0.0
C1333 C 0.48564 0.12547 0.15391 0.0
C1334 C 0.47422 0.16915 0.13356 0.0
C1335 C 0.45843 0.17668 0.12574 0.0
C1336 C 0.44532 0.18446 0.13792 0.0
C1337 C 0.44846 0.1849 0.15798 0.0
C1338 C 0.46419 0.17754 0.16572 0.0
H1339 H 0.48944 0.10973 0.15772 0.0
H1340 H 0.47177 0.12802 0.15829 0.0
H1341 H 0.48626 0.12716 0.13798 0.0
H1342 H 0.48417 0.16316 0.12399 0.0
H1343 H 0.45637 0.17617 0.11024 0.0
H1344 H 0.76638 0.45986 0.11089 0.0
H1345 H 0.78837 0.48334 0.12437 0.0
H1346 H 0.80461 0.43788 0.16545 0.0
H1347 H 0.78231 0.41459 0.15232 0.0
H1348 H 0.7891 0.49459 0.16648 0.0
H1349 H 0.85143 0.46058 0.14006 0.0
H1350 H 0.83046 0.45639 0.12818 0.0
H1351 H 0.83553 0.4436 0.15039 0.0
C1352 C 0.77463 0.45497 0.12284 0.0
C1353 C 0.77247 0.43564 0.13088 0.0
C1354 C 0.78724 0.46829 0.13041 0.0
C1355 C 0.79814 0.46233 0.14586 0.0
C1356 C 0.79645 0.44272 0.15341 0.0
H1357 H 0.87648 0.51769 0.22012 0.0
H1358 H 0.85831 0.49488 0.20037 0.0
C1359 C 0.78373 0.42946 0.14594 0.0
C1360 C 0.81042 0.47704 0.15498 0.0
H1361 H 0.85401 0.48731 0.16267 0.0
C1362 C 0.8033 0.49314 0.16554 0.0
C1363 C 0.8289 0.47494 0.15385 0.0
C1364 C 0.83714 0.45804 0.14242 0.0
C1365 C 0.81416 0.50694 0.17547 0.0
C1366 C 0.83272 0.50498 0.17428 0.0
C1367 C 0.83983 0.48893 0.16351 0.0
C1368 C 0.8449 0.51887 0.18485 0.0
C1369 C 0.80556 0.52294 0.18779 0.0
C1370 C 0.84398 0.53993 0.1822 0.0
C1371 C 0.85412 0.55294 0.19376 0.0
C1372 C 0.8655 0.5451 0.20795 0.0
C1373 C 0.86742 0.52406 0.20962 0.0
C1374 C 0.85714 0.51105 0.19824 0.0
H1375 H 0.79178 0.51888 0.19143 0.0
H1376 H 0.81302 0.52535 0.20146 0.0
H1377 H 0.80522 0.53743 0.17971 0.0
H1378 H 0.8351 0.54635 0.17155 0.0
H1379 H 0.85259 0.56914 0.19209 0.0
H1380 H 0.57703 0.86145 0.15453 0.0
H1381 H 0.55009 0.87677 0.16705 0.0
H1382 H 0.52176 0.82147 0.15581 0.0
H1383 H 0.5487 0.80594 0.14339 0.0
H1384 H 0.50249 0.85768 0.14644 0.0
H1385 H 0.5313 0.85968 0.22054 0.0
H1386 H 0.54402 0.872 0.20217 0.0
H1387 H 0.54089 0.84509 0.20125 0.0
C1388 C 0.56505 0.85256 0.15461 0.0
C1389 C 0.56511 0.83235 0.14815 0.0
C1390 C 0.54965 0.86136 0.16177 0.0
C1391 C 0.53399 0.85015 0.1627 0.0
C1392 C 0.53373 0.83038 0.15529 0.0
H1393 H 0.44379 0.85626 0.23483 0.0
H1394 H 0.47132 0.84965 0.21798 0.0
C1395 C 0.54913 0.82155 0.14809 0.0
C1396 C 0.51818 0.85855 0.17244 0.0
H1397 H 0.50273 0.87295 0.21664 0.0
C1398 C 0.50256 0.8612 0.16175 0.0
C1399 C 0.51826 0.86295 0.19247 0.0
C1400 C 0.53444 0.85966 0.20488 0.0
C1401 C 0.48698 0.86795 0.17059 0.0
C1402 C 0.48706 0.87227 0.19063 0.0
C1403 C 0.50274 0.86985 0.20125 0.0
C1404 C 0.47065 0.87725 0.20124 0.0
C1405 C 0.47036 0.86965 0.15863 0.0
C1406 C 0.46127 0.89525 0.19777 0.0
C1407 C 0.44543 0.89912 0.2075 0.0
C1408 C 0.43871 0.88497 0.2207 0.0
C1409 C 0.44848 0.86732 0.22453 0.0
C1410 C 0.46426 0.86354 0.21496 0.0
H1411 H 0.47184 0.86276 0.14408 0.0
H1412 H 0.4592 0.86219 0.16608 0.0
H1413 H 0.46695 0.88585 0.15673 0.0
H1414 H 0.46611 0.90618 0.18745 0.0
H1415 H 0.4382 0.91284 0.20426 0.0
H1416 H 0.23708 0.46371 0.89045 0.0
H1417 H 0.2158 0.4882 0.87729 0.0
H1418 H 0.19457 0.44211 0.83966 0.0
H1419 H 0.21615 0.41779 0.85242 0.0
H1420 H 0.21281 0.49782 0.83525 0.0
H1421 H 0.15085 0.46874 0.86729 0.0
H1422 H 0.17232 0.46342 0.87756 0.0
H1423 H 0.16499 0.45024 0.85631 0.0
C1424 C 0.22796 0.45892 0.87925 0.0
C1425 C 0.22845 0.43907 0.87209 0.0
C1426 C 0.21573 0.47282 0.8719 0.0
C1427 C 0.20358 0.46692 0.85758 0.0
C1428 C 0.20372 0.4469 0.85085 0.0
H1429 H 0.12471 0.52078 0.78418 0.0
H1430 H 0.14278 0.49877 0.80484 0.0
C1431 C 0.21603 0.43306 0.85809 0.0
C1432 C 0.19147 0.48196 0.84877 0.0
H1433 H 0.14799 0.49387 0.84301 0.0
C1434 C 0.19864 0.49714 0.83708 0.0
C1435 C 0.17303 0.48086 0.85111 0.0
C1436 C 0.16476 0.46505 0.86385 0.0
C1437 C 0.18781 0.51088 0.82708 0.0
C1438 C 0.16928 0.5098 0.82934 0.0
C1439 C 0.16216 0.49478 0.84135 0.0
C1440 C 0.1571 0.52334 0.81845 0.0
C1441 C 0.19632 0.52579 0.8135 0.0
C1442 C 0.15859 0.54449 0.81978 0.0
C1443 C 0.1485 0.557 0.80773 0.0
C1444 C 0.13661 0.54856 0.79438 0.0
C1445 C 0.13413 0.52754 0.79408 0.0
C1446 C 0.14436 0.51502 0.80595 0.0
H1447 H 0.20988 0.52109 0.80957 0.0
H1448 H 0.18845 0.52752 0.80002 0.0
H1449 H 0.19722 0.54076 0.82068 0.0
H1450 H 0.16793 0.5513 0.82973 0.0
H1451 H 0.15047 0.57322 0.8083 0.0
H1452 H 0.54187 0.17951 0.8896 0.0
H1453 H 0.51456 0.1663 0.87506 0.0
H1454 H 0.53835 0.16818 0.81877 0.0
H1455 H 0.5652 0.18203 0.8328 0.0
H1456 H 0.4949 0.18677 0.84134 0.0
H1457 H 0.51775 0.10856 0.82627 0.0
H1458 H 0.52743 0.12417 0.84499 0.0
H1459 H 0.53277 0.12858 0.82012 0.0
C1460 C 0.54127 0.1772 0.87412 0.0
C1461 C 0.55592 0.1816 0.86247 0.0
C1462 C 0.52571 0.16952 0.86587 0.0
C1463 C 0.52461 0.16592 0.8459 0.0
C1464 C 0.53909 0.17042 0.83426 0.0
H1465 H 0.45343 0.12996 0.7556 0.0
H1466 H 0.47863 0.13581 0.7773 0.0
C1467 C 0.5545 0.17825 0.8424 0.0
C1468 C 0.50815 0.15848 0.83676 0.0
H1469 H 0.4913 0.11905 0.81063 0.0
C1470 C 0.49392 0.17185 0.8349 0.0
C1471 C 0.50711 0.13913 0.82816 0.0
C1472 C 0.52201 0.12415 0.83004 0.0
C1473 C 0.47893 0.1667 0.82394 0.0
C1474 C 0.47793 0.14738 0.8151 0.0
C1475 C 0.49202 0.13381 0.81743 0.0
C1476 C 0.46276 0.14144 0.80261 0.0
C1477 C 0.46472 0.18244 0.82115 0.0
C1478 C 0.44552 0.14178 0.80979 0.0
C1479 C 0.43116 0.13864 0.7974 0.0
C1480 C 0.43378 0.13468 0.77767 0.0
C1481 C 0.45106 0.1329 0.77076 0.0
C1482 C 0.46544 0.13632 0.78313 0.0
H1483 H 0.46959 0.19791 0.82449 0.0
H1484 H 0.45959 0.1823 0.80609 0.0
H1485 H 0.45364 0.17914 0.83103 0.0
H1486 H 0.44314 0.14508 0.82487 0.0
H1487 H 0.41796 0.13985 0.80313 0.0
H1488 H 0.75762 0.54736 0.89398 0.0
H1489 H 0.77663 0.52191 0.87879 0.0
H1490 H 0.79711 0.56753 0.84048 0.0
H1491 H 0.77798 0.59288 0.85553 0.0
H1492 H 0.7762 0.51086 0.83917 0.0
H1493 H 0.84185 0.53979 0.86158 0.0
H1494 H 0.82174 0.54749 0.87325 0.0
H1495 H 0.82777 0.5583 0.85041 0.0
C1496 C 0.76616 0.55187 0.88227 0.0
C1497 C 0.76619 0.57195 0.87568 0.0
C1498 C 0.77707 0.53739 0.87369 0.0
C1499 C 0.7884 0.54282 0.85859 0.0
C1500 C 0.7887 0.56303 0.8523 0.0
H1501 H 0.85765 0.48072 0.77921 0.0
H1502 H 0.84163 0.50525 0.7991 0.0
C1503 C 0.77775 0.57747 0.86084 0.0
C1504 C 0.79918 0.52718 0.84871 0.0
H1505 H 0.84147 0.51393 0.83769 0.0
C1506 C 0.79048 0.51141 0.83898 0.0
C1507 C 0.81781 0.52799 0.84838 0.0
C1508 C 0.8279 0.54419 0.8591 0.0
C1509 C 0.79983 0.49676 0.8285 0.0
C1510 C 0.81848 0.49756 0.82811 0.0
C1511 C 0.8272 0.51325 0.83801 0.0
C1512 C 0.8291 0.48266 0.817 0.0
C1513 C 0.78958 0.48099 0.81735 0.0
C1514 C 0.82788 0.46181 0.8208 0.0
C1515 C 0.83686 0.44783 0.8093 0.0
C1516 C 0.84732 0.45445 0.79391 0.0
C1517 C 0.84935 0.47528 0.79076 0.0
C1518 C 0.84028 0.48927 0.80218 0.0
H1519 H 0.77568 0.48565 0.81492 0.0
H1520 H 0.79569 0.47797 0.80311 0.0
H1521 H 0.78948 0.46667 0.8257 0.0
H1522 H 0.81974 0.45634 0.83247 0.0
H1523 H 0.83527 0.43181 0.81208 0.0
H1524 H 0.56418 0.90752 0.79648 0.0
H1525 H 0.53645 0.90042 0.81347 0.0
H1526 H 0.53278 0.84277 0.7846 0.0
H1527 H 0.56014 0.84983 0.76755 0.0
H1528 H 0.50077 0.8647 0.78535 0.0
H1529 H 0.53193 0.85852 0.85816 0.0
H1530 H 0.53609 0.88138 0.84485 0.0
H1531 H 0.54458 0.85776 0.83618 0.0
C1532 C 0.55731 0.89346 0.79362 0.0
C1533 C 0.56443 0.87914 0.78083 0.0
C1534 C 0.54159 0.88933 0.80346 0.0
C1535 C 0.5327 0.8709 0.80054 0.0
C1536 C 0.53946 0.85701 0.78721 0.0
H1537 H 0.45592 0.80005 0.86149 0.0
H1538 H 0.48264 0.81551 0.84841 0.0
C1539 C 0.55514 0.86104 0.77752 0.0
C1540 C 0.51644 0.86569 0.81135 0.0
H1541 H 0.50135 0.85262 0.85612 0.0
C1542 C 0.50083 0.86228 0.80086 0.0
C1543 C 0.51663 0.86224 0.83154 0.0
C1544 C 0.53319 0.86499 0.84342 0.0
C1545 C 0.48548 0.8553 0.80992 0.0
C1546 C 0.48565 0.85183 0.83012 0.0
C1547 C 0.50121 0.85542 0.84068 0.0
C1548 C 0.46998 0.84358 0.84024 0.0
C1549 C 0.46937 0.85098 0.79768 0.0
C1550 C 0.45414 0.8545 0.8407 0.0
C1551 C 0.43888 0.84574 0.84823 0.0
C1552 C 0.43912 0.82586 0.85554 0.0
C1553 C 0.45526 0.81541 0.8561 0.0
C1554 C 0.47054 0.8242 0.84854 0.0
H1555 H 0.47253 0.85029 0.78204 0.0
H1556 H 0.4632 0.83645 0.80198 0.0
H1557 H 0.45956 0.86319 0.79982 0.0
H1558 H 0.45347 0.86963 0.83474 0.0
H1559 H 0.42676 0.85437 0.8479 0.0
H1560 H 0.13536 0.23011 0.58353 0.0
H1561 H 0.15086 0.20601 0.56276 0.0
H1562 H 0.11866 0.22462 0.5143 0.0
H1563 H 0.10255 0.24787 0.53534 0.0
H1564 H 0.12392 0.18459 0.51376 0.0
H1565 H 0.18817 0.22309 0.52533 0.0
H1566 H 0.17828 0.21373 0.54703 0.0
H1567 H 0.1677 0.23368 0.53362 0.0
C1568 C 0.13153 0.22887 0.56847 0.0
C1569 C 0.11816 0.24127 0.56085 0.0
C1570 C 0.14049 0.21524 0.55657 0.0
C1571 C 0.13634 0.21392 0.53678 0.0
C1572 C 0.12231 0.22556 0.52943 0.0
H1573 H 0.19752 0.18317 0.43913 0.0
H1574 H 0.1827 0.19753 0.46699 0.0
C1575 C 0.11325 0.23903 0.54139 0.0
C1576 C 0.14682 0.20095 0.52351 0.0
H1577 H 0.18815 0.19435 0.50527 0.0
C1578 C 0.13799 0.18661 0.512 0.0
C1579 C 0.16519 0.20367 0.52111 0.0
C1580 C 0.1754 0.21948 0.53228 0.0
C1581 C 0.14688 0.17536 0.49782 0.0
C1582 C 0.16522 0.17816 0.49536 0.0
C1583 C 0.17414 0.19206 0.50727 0.0
C1584 C 0.17501 0.16871 0.47909 0.0
C1585 C 0.13636 0.16132 0.48497 0.0
C1586 C 0.17605 0.14761 0.47673 0.0
C1587 C 0.18442 0.13927 0.46052 0.0
C1588 C 0.19191 0.15191 0.44644 0.0
C1589 C 0.19152 0.17297 0.44941 0.0
C1590 C 0.18316 0.18123 0.46546 0.0
H1591 H 0.12197 0.16405 0.4861 0.0
H1592 H 0.14025 0.1631 0.46963 0.0
H1593 H 0.13898 0.14545 0.48931 0.0
H1594 H 0.17022 0.1376 0.48728 0.0
H1595 H 0.18454 0.123 0.45873 0.0
H1596 H 0.83855 0.15074 0.56883 0.0
H1597 H 0.85206 0.16658 0.54073 0.0
H1598 H 0.80472 0.15591 0.50746 0.0
H1599 H 0.79085 0.14057 0.53585 0.0
H1600 H 0.85932 0.15454 0.50356 0.0
H1601 H 0.8103 0.21701 0.50346 0.0
H1602 H 0.8122 0.19924 0.52313 0.0
H1603 H 0.80117 0.19207 0.5011 0.0
C1604 C 0.83101 0.15166 0.55551 0.0
C1605 C 0.8135 0.14468 0.55469 0.0
C1606 C 0.8388 0.16064 0.53941 0.0
C1607 C 0.82929 0.16289 0.52208 0.0
C1608 C 0.81219 0.15478 0.5208 0.0
H1609 H 0.85734 0.23547 0.42057 0.0
H1610 H 0.84323 0.21074 0.44199 0.0
C1611 C 0.80435 0.14577 0.53697 0.0
C1612 C 0.83712 0.17463 0.50589 0.0
H1613 H 0.83231 0.21821 0.47976 0.0
C1614 C 0.85335 0.16839 0.49827 0.0
C1615 C 0.82938 0.19278 0.499 0.0
C1616 C 0.81238 0.20083 0.50716 0.0
C1617 C 0.86208 0.17983 0.48411 0.0
C1618 C 0.85452 0.19816 0.47756 0.0
C1619 C 0.83809 0.20414 0.48478 0.0
C1620 C 0.86373 0.21188 0.46388 0.0
C1621 C 0.87932 0.17217 0.47627 0.0
C1622 C 0.87995 0.22074 0.46902 0.0
C1623 C 0.88796 0.23486 0.45681 0.0
C1624 C 0.87987 0.24035 0.4393 0.0
C1625 C 0.86385 0.23128 0.43397 0.0
C1626 C 0.85579 0.21724 0.4462 0.0
H1627 H 0.8808 0.15562 0.47851 0.0
H1628 H 0.88047 0.17548 0.4606 0.0
H1629 H 0.89034 0.17983 0.48393 0.0
H1630 H 0.88615 0.21719 0.48274 0.0
H1631 H 0.90026 0.24183 0.46122 0.0
H1632 H 0.81463 0.83953 0.42541 0.0
H1633 H 0.833 0.82128 0.44904 0.0
H1634 H 0.81286 0.85908 0.49464 0.0
H1635 H 0.79468 0.8775 0.4709 0.0
H1636 H 0.84977 0.85018 0.49804 0.0
H1637 H 0.80888 0.78147 0.48638 0.0
H1638 H 0.81865 0.7917 0.46493 0.0
H1639 H 0.80235 0.80608 0.47767 0.0
C1640 C 0.81446 0.84412 0.44044 0.0
C1641 C 0.8033 0.85974 0.4465 0.0
C1642 C 0.82483 0.83367 0.45391 0.0
C1643 C 0.82406 0.83862 0.47363 0.0
C1644 C 0.8136 0.85499 0.47951 0.0
H1645 H 0.84575 0.76006 0.57029 0.0
H1646 H 0.83337 0.78403 0.54687 0.0
C1647 C 0.80326 0.86548 0.46601 0.0
C1648 C 0.83311 0.82584 0.48828 0.0
H1649 H 0.83327 0.77828 0.50748 0.0
C1650 C 0.84623 0.83444 0.5001 0.0
C1651 C 0.82826 0.8054 0.49111 0.0
C1652 C 0.81367 0.7956 0.4795 0.0
C1653 C 0.85472 0.82306 0.51462 0.0
C1654 C 0.85005 0.80253 0.51721 0.0
C1655 C 0.8369 0.794 0.5054 0.0
C1656 C 0.85811 0.78964 0.53247 0.0
C1657 C 0.86828 0.8332 0.52736 0.0
C1658 C 0.87618 0.78496 0.53228 0.0
C1659 C 0.88327 0.77131 0.54575 0.0
C1660 C 0.87237 0.76219 0.55952 0.0
C1661 C 0.8544 0.76711 0.55988 0.0
C1662 C 0.84734 0.78073 0.54651 0.0
H1663 H 0.86742 0.84995 0.5265 0.0
H1664 H 0.8667 0.82853 0.54267 0.0
H1665 H 0.88164 0.82862 0.52267 0.0
H1666 H 0.88466 0.79128 0.52131 0.0
H1667 H 0.89708 0.76732 0.54495 0.0
H1668 H 0.10575 0.78073 0.45797 0.0
H1669 H 0.11945 0.80488 0.48044 0.0
H1670 H 0.17088 0.78449 0.46285 0.0
H1671 H 0.15722 0.76124 0.43976 0.0
H1672 H 0.1394 0.79798 0.511 0.0
H1673 H 0.17843 0.84412 0.46048 0.0
H1674 H 0.16158 0.82685 0.45224 0.0
H1675 H 0.18343 0.8178 0.45778 0.0
C1676 C 0.11996 0.78199 0.4584 0.0
C1677 C 0.13044 0.7696 0.44668 0.0
C1678 C 0.1278 0.79559 0.47144 0.0
C1679 C 0.14625 0.79693 0.47308 0.0
C1680 C 0.15667 0.78433 0.46147 0.0
H1681 H 0.2095 0.83166 0.57117 0.0
H1682 H 0.19021 0.81518 0.54745 0.0
C1683 C 0.14885 0.77091 0.44837 0.0
C1684 C 0.15469 0.81043 0.48775 0.0
H1685 H 0.18757 0.84521 0.4939 0.0
C1686 C 0.14976 0.80851 0.5072 0.0
C1687 C 0.16801 0.82451 0.48287 0.0
C1688 C 0.17303 0.82861 0.46218 0.0
C1689 C 0.15829 0.81955 0.52192 0.0
C1690 C 0.1725 0.83249 0.51718 0.0
C1691 C 0.17688 0.8351 0.49765 0.0
C1692 C 0.18345 0.84278 0.53225 0.0
C1693 C 0.1519 0.81723 0.5424 0.0
C1694 C 0.18656 0.86374 0.53139 0.0
C1695 C 0.19782 0.87312 0.54482 0.0
C1696 C 0.20606 0.86173 0.55944 0.0
C1697 C 0.20296 0.84082 0.56029 0.0
C1698 C 0.19185 0.83143 0.54681 0.0
H1699 H 0.13777 0.81287 0.54272 0.0
H1700 H 0.15951 0.80505 0.54965 0.0
H1701 H 0.15363 0.83142 0.55077 0.0
H1702 H 0.18048 0.8728 0.52014 0.0
H1703 H 0.20053 0.88912 0.54338 0.0
H1704 H 0.67467 0.93325 0.7106 0.0
H1705 H 0.69166 0.95907 0.69347 0.0
H1706 H 0.64343 0.98958 0.67771 0.0
H1707 H 0.62648 0.96416 0.69557 0.0
H1708 H 0.69225 0.97111 0.65613 0.0
H1709 H 0.67113 0.03491 0.70256 0.0
H1710 H 0.66677 0.00888 0.70864 0.0
H1711 H 0.65321 0.02174 0.69111 0.0
C1712 C 0.66773 0.94544 0.70337 0.0
C1713 C 0.64928 0.94657 0.70413 0.0
C1714 C 0.67743 0.96016 0.69357 0.0
C1715 C 0.66889 0.97646 0.68445 0.0
C1716 C 0.65037 0.97737 0.68487 0.0
H1717 H 0.72485 0.05779 0.60488 0.0
H1718 H 0.70469 0.03266 0.61858 0.0
C1719 C 0.64066 0.96265 0.69478 0.0
C1720 C 0.67948 0.99252 0.6748 0.0
H1721 H 0.68858 0.04318 0.67548 0.0
C1722 C 0.6914 0.98688 0.66032 0.0
C1723 C 0.67861 0.01309 0.68045 0.0
C1724 C 0.66688 0.02005 0.69666 0.0
C1725 C 0.70245 0.00114 0.6514 0.0
C1726 C 0.7013 0.02178 0.65675 0.0
C1727 C 0.68936 0.02742 0.67121 0.0
C1728 C 0.71292 0.03761 0.64824 0.0
C1729 C 0.71566 0.99381 0.6368 0.0
C1730 C 0.72388 0.04928 0.66032 0.0
C1731 C 0.73508 0.06393 0.65253 0.0
C1732 C 0.73546 0.06737 0.63251 0.0
C1733 C 0.72448 0.05581 0.6204 0.0
C1734 C 0.71318 0.0412 0.62821 0.0
H1735 H 0.71814 0.97732 0.63819 0.0
H1736 H 0.71047 0.99667 0.62202 0.0
H1737 H 0.7284 0.00192 0.63841 0.0
H1738 H 0.72395 0.04686 0.6758 0.0
H1739 H 0.74351 0.07258 0.66216 0.0
H1740 H 0.9569 0.68472 0.61639 0.0
H1741 H 0.98261 0.66668 0.62916 0.0
H1742 H 0.95027 0.6144 0.6403 0.0
H1743 H 0.92453 0.63237 0.62758 0.0
H1744 H 0.96784 0.62734 0.6724 0.0
H1745 H 0.01442 0.62073 0.61156 0.0
H1746 H 0.00637 0.64602 0.61473 0.0
H1747 H 0.9913 0.62618 0.608 0.0
C1748 C 0.95539 0.66916 0.62096 0.0
C1749 C 0.93867 0.66002 0.62108 0.0
C1750 C 0.9701 0.65883 0.62826 0.0
C1751 C 0.9684 0.63912 0.63561 0.0
C1752 C 0.95191 0.62958 0.63471 0.0
H1753 H 0.0597 0.57654 0.68908 0.0
H1754 H 0.03274 0.58189 0.66962 0.0
C1755 C 0.93721 0.63989 0.62747 0.0
C1756 C 0.98319 0.62953 0.6464 0.0
H1757 H 0.02681 0.61724 0.64356 0.0
C1758 C 0.98064 0.62481 0.66597 0.0
C1759 C 0.99986 0.62604 0.63802 0.0
C1760 C 0.00314 0.62981 0.61687 0.0
C1761 C 0.99453 0.61771 0.67761 0.0
C1762 C 0.01145 0.61542 0.66953 0.0
C1763 C 0.01383 0.61911 0.64974 0.0
C1764 C 0.0271 0.61129 0.68182 0.0
C1765 C 0.99112 0.61319 0.69862 0.0
C1766 C 0.03272 0.62597 0.69511 0.0
C1767 C 0.04799 0.62301 0.70605 0.0
C1768 C 0.05798 0.60526 0.70397 0.0
C1769 C 0.05214 0.59026 0.69104 0.0
C1770 C 0.03686 0.59336 0.67988 0.0
H1771 H 0.97691 0.61044 0.70133 0.0
H1772 H 0.99876 0.59978 0.70349 0.0
H1773 H 0.99531 0.62634 0.7075 0.0
H1774 H 0.02548 0.63999 0.6967 0.0
H1775 H 0.05218 0.63477 0.71597 0.0
H1776 H 0.38742 0.06451 0.67589 0.0
H1777 H 0.37438 0.03848 0.65479 0.0
H1778 H 0.32471 0.07014 0.65576 0.0
H1779 H 0.3378 0.09616 0.67668 0.0
H1780 H 0.34555 0.01496 0.66642 0.0
H1781 H 0.32998 0.05547 0.5982 0.0
H1782 H 0.34571 0.06494 0.61572 0.0
H1783 H 0.3225 0.06793 0.6197 0.0
C1784 C 0.37389 0.06613 0.67107 0.0
C1785 C 0.36363 0.08239 0.67753 0.0
C1786 C 0.36643 0.05127 0.65914 0.0
C1787 C 0.34865 0.05254 0.65343 0.0
C1788 C 0.33855 0.0691 0.65956 0.0
H1789 H 0.27023 0.97101 0.60683 0.0
H1790 H 0.28741 1.00108 0.61595 0.0
C1791 C 0.34598 0.08387 0.67156 0.0
C1792 C 0.34012 0.03547 0.643 0.0
H1793 H 0.31672 0.02302 0.60229 0.0
C1794 C 0.33945 0.01665 0.65228 0.0
C1795 C 0.33196 0.0378 0.62469 0.0
C1796 C 0.33266 0.05758 0.61388 0.0
C1797 C 0.33046 1.00021 0.64402 0.0
C1798 C 0.3223 0.00246 0.62566 0.0
C1799 C 0.32307 0.02127 0.61628 0.0
C1800 C 0.31248 0.9855 0.61647 0.0
C1801 C 0.32921 0.98079 0.65543 0.0
C1802 C 0.321 0.96709 0.61268 0.0
C1803 C 0.31122 0.94996 0.60764 0.0
C1804 C 0.29279 0.95104 0.60588 0.0
C1805 C 0.28444 0.96986 0.60791 0.0
C1806 C 0.29423 0.98699 0.61321 0.0
H1807 H 0.3321 0.98323 0.67103 0.0
H1808 H 0.3159 0.97397 0.65402 0.0
H1809 H 0.33898 0.96981 0.64984 0.0
H1810 H 0.33511 0.9657 0.61467 0.0
H1811 H 0.31793 0.9356 0.60613 0.0
H1812 H 0.04778 0.32217 0.65952 0.0
H1813 H 0.02031 0.33692 0.67106 0.0
H1814 H 0.00716 0.35573 0.6131 0.0
H1815 H 0.03489 0.34091 0.60133 0.0
H1816 H 0.00441 0.38684 0.64695 0.0
H1817 H 0.969 0.31409 0.65731 0.0
H1818 H 0.99134 0.31498 0.66614 0.0
H1819 H 0.98707 0.31681 0.64066 0.0
C1820 C 0.03907 0.32947 0.6492 0.0
C1821 C 0.04353 0.33048 0.62952 0.0
C1822 C 0.02336 0.33783 0.65582 0.0
C1823 C 0.01174 0.34741 0.64295 0.0
C1824 C 0.01601 0.34839 0.62325 0.0
H1825 H 0.90549 0.37836 0.6786 0.0
H1826 H 0.93101 0.36988 0.65886 0.0
C1827 C 0.03175 0.33983 0.61654 0.0
C1828 C 0.99518 0.35628 0.65038 0.0
H1829 H 0.9564 0.34321 0.67162 0.0
C1830 C 0.99378 0.37737 0.65213 0.0
C1831 C 0.98138 0.34387 0.65709 0.0
C1832 C 0.98211 0.32117 0.65513 0.0
C1833 C 0.97908 0.38634 0.661 0.0
C1834 C 0.96558 0.37385 0.6684 0.0
C1835 C 0.96678 0.3528 0.66604 0.0
C1836 C 0.95017 0.38205 0.67901 0.0
C1837 C 0.97814 0.40907 0.66242 0.0
C1838 C 0.95241 0.39222 0.69671 0.0
C1839 C 0.93778 0.39711 0.70806 0.0
C1840 C 0.9207 0.39171 0.70197 0.0
C1841 C 0.91849 0.38253 0.68377 0.0
C1842 C 0.93306 0.37769 0.67246 0.0
H1843 H 0.98687 0.41649 0.65173 0.0
H1844 H 0.96445 0.4145 0.66012 0.0
H1845 H 0.98248 0.41382 0.67708 0.0
H1846 H 0.9655 0.39542 0.70223 0.0
H1847 H 0.93991 0.40398 0.72209 0.0
H1848 H 0.69595 0.93047 0.37939 0.0
H1849 H 0.67733 0.95881 0.36961 0.0
H1850 H 0.71096 0.99987 0.40119 0.0
H1851 H 0.72967 0.97151 0.41125 0.0
H1852 H 0.65883 0.98967 0.39024 0.0
H1853 H 0.71286 0.02031 0.34488 0.0
H1854 H 0.71345 0.9951 0.35483 0.0
H1855 H 0.71817 0.01652 0.36997 0.0
C1856 C 0.6992 0.94544 0.38468 0.0
C1857 C 0.71441 0.94871 0.39601 0.0
C1858 C 0.68856 0.96165 0.37898 0.0
C1859 C 0.69293 0.98146 0.38441 0.0
C1860 C 0.70755 0.98471 0.39655 0.0
H1861 H 0.6528 0.09449 0.33587 0.0
H1862 H 0.66724 0.07008 0.35757 0.0
C1863 C 0.71823 0.9685 0.40226 0.0
C1864 C 0.68282 0.99868 0.37626 0.0
H1865 H 0.68619 0.03823 0.34482 0.0
C1866 C 0.66481 1.0004 0.38042 0.0
C1867 C 0.69067 0.01262 0.36342 0.0
C1868 C 0.70981 0.01105 0.35783 0.0
C1869 C 0.6544 0.01567 0.372 0.0
C1870 C 0.66217 0.0293 0.3588 0.0
C1871 C 0.68026 0.02783 0.355 0.0
C1872 C 0.65173 0.0445 0.34783 0.0
C1873 C 0.63522 0.01708 0.37736 0.0
C1874 C 0.63805 0.03829 0.33538 0.0
C1875 C 0.62976 0.05223 0.32313 0.0
C1876 C 0.6352 0.07249 0.323 0.0
C1877 C 0.64841 0.07889 0.33588 0.0
C1878 C 0.65665 0.06499 0.34818 0.0
H1879 H 0.63275 0.0102 0.39174 0.0
H1880 H 0.63067 0.03304 0.37759 0.0
H1881 H 0.62721 0.00871 0.36653 0.0
H1882 H 0.6343 0.02252 0.33449 0.0
H1883 H 0.61965 0.04706 0.31318 0.0
H1884 H 0.94378 0.58101 0.31181 0.0
H1885 H 0.97005 0.58911 0.33153 0.0
H1886 H 0.97543 0.64576 0.30127 0.0
H1887 H 0.94955 0.6377 0.28161 0.0
H1888 H 0.00739 0.62498 0.3066 0.0
H1889 H 0.96992 0.63257 0.37506 0.0
H1890 H 0.96759 0.6091 0.36212 0.0
H1891 H 0.95922 0.63203 0.35168 0.0
C1892 C 0.95079 0.59501 0.30923 0.0
C1893 C 0.94458 0.6088 0.29531 0.0
C1894 C 0.96565 0.59973 0.32061 0.0
C1895 C 0.97451 0.61822 0.3181 0.0
C1896 C 0.96875 0.63149 0.30357 0.0
H1897 H 0.04335 0.69575 0.38348 0.0
H1898 H 0.01812 0.67785 0.36912 0.0
C1899 C 0.95395 0.62687 0.29236 0.0
C1900 C 0.9896 0.6243 0.33063 0.0
H1901 H 1.00025 0.64005 0.37634 0.0
C1902 C 0.00591 0.62802 0.3219 0.0
C1903 C 0.98753 0.62858 0.35053 0.0
C1904 C 0.97012 0.62554 0.36048 0.0
C1905 C 0.02011 0.63622 0.33241 0.0
C1906 C 0.01806 0.64055 0.35231 0.0
C1907 C 0.00183 0.63658 0.36114 0.0
C1908 C 0.03244 0.65014 0.36379 0.0
C1909 C 0.03698 0.64094 0.32191 0.0
C1910 C 0.0486 0.64019 0.36637 0.0
C1911 C 0.06298 0.65036 0.37456 0.0
C1912 C 0.06147 0.67065 0.38046 0.0
C1913 C 0.04491 0.68011 0.37918 0.0
C1914 C 0.03051 0.66992 0.37089 0.0
H1915 H 0.03513 0.64082 0.30597 0.0
H1916 H 0.04219 0.65597 0.32629 0.0
H1917 H 0.04704 0.62939 0.32566 0.0
H1918 H 0.05029 0.6248 0.36136 0.0
H1919 H 0.07551 0.64257 0.37561 0.0
H1920 H 0.37665 0.97013 0.3046 0.0
H1921 H 0.35943 0.99562 0.32214 0.0
H1922 H 0.3125 0.95976 0.31383 0.0
H1923 H 0.3297 0.9344 0.29628 0.0
H1924 H 0.30775 0.99938 0.30349 0.0
H1925 H 0.33842 0.99492 0.37641 0.0
H1926 H 0.35371 0.99893 0.3571 0.0
H1927 H 0.34155 0.97565 0.35827 0.0
C1928 C 0.36276 0.9675 0.30701 0.0
C1929 C 0.35452 0.95017 0.29948 0.0
C1930 C 0.35291 0.98207 0.31698 0.0
C1931 C 0.33468 0.9795 0.31957 0.0
C1932 C 0.32654 0.96205 0.31213 0.0
H1933 H 0.26148 0.04661 0.39155 0.0
H1934 H 0.28154 0.02151 0.37747 0.0
C1935 C 0.33635 0.94756 0.30217 0.0
C1936 C 0.32383 0.99546 0.32896 0.0
H1937 H 0.31803 0.02162 0.37109 0.0
C1938 C 0.31001 0.00423 0.31827 0.0
C1939 C 0.32665 0.00167 0.34832 0.0
C1940 C 0.34077 0.99221 0.3608 0.0
C1941 C 0.29902 0.01908 0.32632 0.0
C1942 C 0.30208 0.02564 0.34553 0.0
C1943 C 0.3158 0.01675 0.35631 0.0
C1944 C 0.29081 0.04128 0.35479 0.0
C1945 C 0.28397 0.02728 0.3143 0.0
C1946 C 0.28969 0.0609 0.34706 0.0
C1947 C 0.27817 0.07514 0.35502 0.0
C1948 C 0.26759 0.07002 0.37083 0.0
C1949 C 0.26925 0.05073 0.3791 0.0
C1950 C 0.28078 0.03647 0.37115 0.0
H1951 H 0.28076 0.01723 0.30189 0.0
H1952 H 0.27195 0.0292 0.32317 0.0
H1953 H 0.28769 0.04229 0.30844 0.0
H1954 H 0.29756 0.06513 0.33471 0.0
H1955 H 0.2772 0.09 0.34852 0.0
H1956 H 0.07846 0.41195 0.31068 0.0
H1957 H 0.05244 0.40522 0.33076 0.0
H1958 H 0.04222 0.35072 0.29836 0.0
H1959 H 0.0679 0.3574 0.27831 0.0
H1960 H 0.01198 0.37539 0.30498 0.0
H1961 H 0.05001 0.35921 0.37231 0.0
H1962 H 0.0545 0.38275 0.36025 0.0
H1963 H 0.0601 0.35933 0.34875 0.0
C1964 C 0.07051 0.39868 0.30775 0.0
C1965 C 0.0753 0.38511 0.29305 0.0
C1966 C 0.05578 0.39475 0.31932 0.0
C1967 C 0.04557 0.37728 0.31624 0.0
C1968 C 0.04998 0.36418 0.3011 0.0
H1969 H 0.96978 0.30681 0.37897 0.0
H1970 H 0.9965 0.3212 0.36473 0.0
C1971 C 0.06469 0.368 0.28969 0.0
C1972 C 0.03028 0.37231 0.32867 0.0
H1973 H 0.01912 0.35584 0.37382 0.0
C1974 C 0.01349 0.37134 0.32009 0.0
C1975 C 0.03235 0.36673 0.3483 0.0
C1976 C 0.0502 0.36688 0.35803 0.0
C1977 C 0.99877 0.36475 0.33052 0.0
C1978 C 1.00082 0.35916 0.35016 0.0
C1979 C 0.01757 0.36027 0.35882 0.0
C1980 C 0.98575 0.35132 0.36153 0.0
C1981 C 0.98121 0.36314 0.32024 0.0
C1982 C 0.97114 0.36368 0.36524 0.0
C1983 C 0.95592 0.35553 0.37342 0.0
C1984 C 0.955 0.33484 0.37811 0.0
C1985 C 0.97009 0.3228 0.37563 0.0
C1986 C 0.98534 0.33099 0.36741 0.0
H1987 H 0.9826 0.364 0.30429 0.0
H1988 H 0.97453 0.34873 0.32394 0.0
H1989 H 0.97261 0.37578 0.3249 0.0
H1990 H 0.97129 0.37949 0.36114 0.0
H1991 H 0.94462 0.36528 0.37543 0.0
H1992 H 0.68816 0.62271 0.96822 0.0
H1993 H 0.67572 0.63515 0.99867 0.0
H1994 H 0.68921 0.69621 0.98267 0.0
H1995 H 0.70233 0.68393 0.95298 0.0
H1996 H 0.69685 0.68945 0.01968 0.0
H1997 H 0.62866 0.66316 0.00411 0.0
H1998 H 0.64515 0.64369 0.00446 0.0
H1999 H 0.64571 0.6629 0.9861 0.0
C2000 C 0.68863 0.63875 0.97131 0.0
C2001 C 0.69599 0.65233 0.95793 0.0
C2002 C 0.68132 0.64588 0.98863 0.0
C2003 C 0.68115 0.6667 0.99281 0.0
C2004 C 0.68901 0.68012 0.97975 0.0
H2005 H 0.61631 0.74415 0.06037 0.0
H2006 H 0.62933 0.7209 0.03687 0.0
C2007 C 0.69637 0.67305 0.96262 0.0
C2008 C 0.67281 0.67494 0.0106 0.0
H2009 H 0.63323 0.68091 0.03318 0.0
C2010 C 0.68297 0.68742 0.02275 0.0
C2011 C 0.65465 0.67245 0.0145 0.0
C2012 C 0.64282 0.65998 0.00156 0.0
C2013 C 0.67542 0.69805 0.03821 0.0
C2014 C 0.65723 0.69565 0.04208 0.0
C2015 C 0.64718 0.68264 0.03032 0.0
C2016 C 0.64813 0.70795 0.05706 0.0
C2017 C 0.68685 0.7126 0.04951 0.0
C2018 C 0.65383 0.7079 0.07645 0.0
C2019 C 0.64659 0.72147 0.08976 0.0
C2020 C 0.6334 0.73509 0.08396 0.0
C2021 C 0.62677 0.73408 0.06502 0.0
C2022 C 0.63413 0.72071 0.05165 0.0
H2023 H 0.6992 0.71631 0.04175 0.0
H2024 H 0.67971 0.72691 0.05247 0.0
H2025 H 0.69056 0.70564 0.06355 0.0
H2026 H 0.66422 0.6978 0.08116 0.0
H2027 H 0.65176 0.72187 0.10439 0.0
H2028 H 0.28845 0.64047 0.03354 0.0
H2029 H 0.30158 0.65267 0.00341 0.0
H2030 H 0.34875 0.66943 0.0346 0.0
H2031 H 0.33601 0.65673 0.06447 0.0
H2032 H 0.31128 0.69147 0.99617 0.0
H2033 H 0.36955 0.64217 0.98797 0.0
H2034 H 0.35183 0.63618 0.00425 0.0
H2035 H 0.36882 0.65372 0.01139 0.0
C2036 C 0.30181 0.64624 0.03387 0.0
C2037 C 0.31115 0.64767 0.05146 0.0
C2038 C 0.30926 0.65334 0.01666 0.0
C2039 C 0.32626 0.6618 0.01664 0.0
C2040 C 0.33578 0.66262 0.03408 0.0
H2041 H 0.39005 0.7385 0.94523 0.0
H2042 H 0.37763 0.71602 0.96995 0.0
C2043 C 0.32837 0.65555 0.05124 0.0
C2044 C 0.33349 0.67141 0.99889 0.0
H2045 H 0.36993 0.67342 0.97015 0.0
C2046 C 0.32397 0.68729 0.99029 0.0
C2047 C 0.3501 0.66605 0.99122 0.0
C2048 C 0.36058 0.64846 0.99907 0.0
C2049 C 0.33089 0.69847 0.97481 0.0
C2050 C 0.34771 0.69347 0.96751 0.0
C2051 C 0.35706 0.67729 0.97579 0.0
C2052 C 0.35609 0.70551 0.9519 0.0
C2053 C 0.32046 0.7161 0.96692 0.0
C2054 C 0.34843 0.7066 0.93338 0.0
C2055 C 0.35555 0.71938 0.9193 0.0
C2056 C 0.37044 0.73119 0.92353 0.0
C2057 C 0.37856 0.72948 0.94173 0.0
C2058 C 0.37147 0.71667 0.9558 0.0
H2059 H 0.30958 0.72055 0.97669 0.0
H2060 H 0.32911 0.72941 0.96463 0.0
H2061 H 0.3146 0.71184 0.95276 0.0
H2062 H 0.33673 0.6979 0.92994 0.0
H2063 H 0.34909 0.72055 0.90533 0.0
H2064 H 0.31339 0.39132 0.95819 0.0
H2065 H 0.32757 0.37894 0.98794 0.0
H2066 H 0.31603 0.31755 0.97102 0.0
H2067 H 0.30124 0.32972 0.94201 0.0
H2068 H 0.30942 0.32366 0.00867 0.0
H2069 H 0.376 0.35296 0.99064 0.0
H2070 H 0.35877 0.37154 0.99186 0.0
H2071 H 0.35815 0.35257 0.97329 0.0
C2072 C 0.31373 0.37521 0.96094 0.0
C2073 C 0.30643 0.36151 0.94752 0.0
C2074 C 0.32201 0.36814 0.97784 0.0
C2075 C 0.32319 0.34727 0.98153 0.0
C2076 C 0.31542 0.3337 0.96845 0.0
H2077 H 0.39334 0.27016 0.04255 0.0
H2078 H 0.37841 0.29398 0.02085 0.0
C2079 C 0.30711 0.3407 0.95172 0.0
C2080 C 0.33259 0.33914 0.99878 0.0
H2081 H 0.3735 0.33387 0.01911 0.0
C2082 C 0.3234 0.32606 0.01111 0.0
C2083 C 0.35086 0.34218 0.00184 0.0
C2084 C 0.36162 0.35544 0.98866 0.0
C2085 C 0.33205 0.31526 0.02584 0.0
C2086 C 0.35038 0.31808 0.02875 0.0
C2087 C 0.35945 0.33179 0.01693 0.0
C2088 C 0.36063 0.30544 0.04262 0.0
C2089 C 0.32161 0.30004 0.03734 0.0
C2090 C 0.35615 0.30451 0.06226 0.0
C2091 C 0.36437 0.29049 0.0745 0.0
C2092 C 0.37732 0.27738 0.06734 0.0
C2093 C 0.38285 0.27952 0.04816 0.0
C2094 C 0.37449 0.29332 0.03586 0.0
H2095 H 0.30884 0.29632 0.03025 0.0
H2096 H 0.32915 0.28581 0.03936 0.0
H2097 H 0.31871 0.30641 0.05181 0.0
H2098 H 0.34593 0.31416 0.06801 0.0
H2099 H 0.36015 0.2894 0.08936 0.0
H2100 H 0.69552 0.33049 0.06177 0.0
H2101 H 0.68184 0.31744 0.03242 0.0
H2102 H 0.67252 0.37831 0.01248 0.0
H2103 H 0.68588 0.39163 0.04241 0.0
H2104 H 0.64311 0.35351 0.00845 0.0
H2105 H 0.70152 0.31555 0.97816 0.0
H2106 H 0.69784 0.30803 0.0027 0.0
H2107 H 0.70314 0.33398 0.99734 0.0
C2108 C 0.69053 0.34118 0.05121 0.0
C2109 C 0.69167 0.36213 0.05454 0.0
C2110 C 0.6829 0.33366 0.03428 0.0
C2111 C 0.67638 0.34686 0.02008 0.0
C2112 C 0.67759 0.36784 0.02319 0.0
H2113 H 0.64202 0.2865 0.91334 0.0
H2114 H 0.65576 0.31143 0.93492 0.0
C2115 C 0.6853 0.37543 0.04023 0.0
C2116 C 0.66763 0.33843 0.00255 0.0
H2117 H 0.6733 0.30335 0.96694 0.0
C2118 C 0.64977 0.34281 0.99914 0.0
C2119 C 0.67637 0.32474 0.99016 0.0
C2120 C 0.69582 0.32047 0.99214 0.0
C2121 C 0.64019 0.33295 0.98442 0.0
C2122 C 0.6486 0.31801 0.97308 0.0
C2123 C 0.66672 0.31457 0.97577 0.0
C2124 C 0.63881 0.30489 0.95918 0.0
C2125 C 0.62113 0.33857 0.9813 0.0
C2126 C 0.62451 0.29312 0.96543 0.0
C2127 C 0.6166 0.27902 0.95303 0.0
C2128 C 0.62307 0.27614 0.93429 0.0
C2129 C 0.63688 0.28841 0.92776 0.0
C2130 C 0.64474 0.3026 0.9401 0.0
H2131 H 0.61858 0.35442 0.98581 0.0
H2132 H 0.61713 0.33681 0.96593 0.0
H2133 H 0.61272 0.32859 0.99025 0.0
H2134 H 0.61988 0.29425 0.98015 0.0
H2135 H 0.60573 0.26999 0.95825 0.0
H2136 H 0.13863 0.31149 0.26378 0.0
H2137 H 0.15048 0.2788 0.27426 0.0
H2138 H 0.19892 0.29137 0.24426 0.0
H2139 H 0.18715 0.32445 0.23426 0.0
H2140 H 0.16348 0.24505 0.2566 0.0
H2141 H 0.216 0.28369 0.29926 0.0
H2142 H 0.19794 0.29727 0.28826 0.0
H2143 H 0.21615 0.28895 0.27382 0.0
C2144 C 0.15163 0.30698 0.25906 0.0
C2145 C 0.16199 0.32022 0.24812 0.0
C2146 C 0.15842 0.28839 0.26508 0.0
C2147 C 0.1757 0.28279 0.26034 0.0
C2148 C 0.18569 0.29556 0.24842 0.0
H2149 H 0.23273 0.17809 0.3094 0.0
H2150 H 0.22449 0.20588 0.28735 0.0
C2151 C 0.17893 0.31428 0.24253 0.0
C2152 C 0.18346 0.26429 0.26906 0.0
H2153 H 0.21493 0.24823 0.30115 0.0
C2154 C 0.17485 0.24572 0.26617 0.0
C2155 C 0.19826 0.26519 0.28164 0.0
C2156 C 0.20757 0.28484 0.28612 0.0
C2157 C 0.18037 0.22816 0.27588 0.0
C2158 C 0.19484 0.22922 0.28879 0.0
C2159 C 0.2039 0.24753 0.29112 0.0
C2160 C 0.19968 0.21202 0.30139 0.0
C2161 C 0.1705 0.20865 0.27263 0.0
C2162 C 0.18859 0.20663 0.31667 0.0
C2163 C 0.19335 0.19107 0.32928 0.0
C2164 C 0.20915 0.18044 0.32662 0.0
C2165 C 0.22035 0.18593 0.31146 0.0
C2166 C 0.21567 0.2017 0.29893 0.0
H2167 H 0.16222 0.20921 0.25934 0.0
H2168 H 0.1798 0.19574 0.27153 0.0
H2169 H 0.16176 0.2058 0.28513 0.0
H2170 H 0.17638 0.21472 0.31903 0.0
H2171 H 0.18477 0.18741 0.34122 0.0
H2172 H 0.80468 0.24284 0.41437 0.0
H2173 H 0.77651 0.22561 0.40783 0.0
H2174 H 0.78805 0.2253 0.3469 0.0
H2175 H 0.81582 0.24268 0.35323 0.0
H2176 H 0.75319 0.23866 0.35689 0.0
H2177 H 0.77156 0.16507 0.3908 0.0
H2178 H 0.77435 0.18774 0.40492 0.0
H2179 H 0.7879 0.18363 0.38417 0.0
C2180 C 0.8011 0.23918 0.3996 0.0
C2181 C 0.81251 0.24388 0.38432 0.0
C2182 C 0.78512 0.22923 0.39591 0.0
C2183 C 0.78035 0.22398 0.37691 0.0
C2184 C 0.79155 0.22911 0.36167 0.0
H2185 H 0.70674 0.16511 0.30409 0.0
H2186 H 0.73078 0.18316 0.32015 0.0
C2187 C 0.80746 0.23892 0.36533 0.0
C2188 C 0.76374 0.21318 0.37248 0.0
H2189 H 0.74451 0.16651 0.37408 0.0
C2190 C 0.75116 0.22297 0.36087 0.0
C2191 C 0.76114 0.19274 0.37778 0.0
C2192 C 0.77444 0.18153 0.39002 0.0
C2193 C 0.73633 0.21265 0.3538 0.0
C2194 C 0.73421 0.19192 0.35821 0.0
C2195 C 0.74629 0.18237 0.37064 0.0
C2196 C 0.72021 0.1797 0.34891 0.0
C2197 C 0.72321 0.22392 0.34135 0.0
C2198 C 0.70667 0.17113 0.35987 0.0
C2199 C 0.69294 0.16062 0.35074 0.0
C2200 C 0.69266 0.15837 0.3305 0.0
C2201 C 0.70664 0.16636 0.3197 0.0
C2202 C 0.72028 0.17688 0.32882 0.0
H2203 H 0.72402 0.24051 0.34372 0.0
H2204 H 0.72607 0.22091 0.32591 0.0
H2205 H 0.70955 0.21883 0.3443 0.0
H2206 H 0.7065 0.173 0.37542 0.0
H2207 H 0.68245 0.15445 0.35947 0.0
H2208 H 0.83088 0.67259 0.2474 0.0
H2209 H 0.82053 0.70401 0.26259 0.0
H2210 H 0.86909 0.70769 0.29529 0.0
H2211 H 0.87952 0.67678 0.27966 0.0
H2212 H 0.81443 0.70838 0.30009 0.0
H2213 H 0.86384 0.7654 0.27858 0.0
H2214 H 0.86198 0.74115 0.26676 0.0
H2215 H 0.87398 0.74355 0.2892 0.0
C2216 C 0.83948 0.6806 0.25735 0.0
C2217 C 0.85606 0.67272 0.26217 0.0
C2218 C 0.83357 0.69839 0.2661 0.0
C2219 C 0.84415 0.70838 0.27987 0.0
C2220 C 0.86092 0.70064 0.28431 0.0
H2221 H 0.80652 0.78178 0.37497 0.0
H2222 H 0.81789 0.75474 0.35426 0.0
C2223 C 0.86686 0.683 0.27544 0.0
C2224 C 0.83702 0.72562 0.29106 0.0
H2225 H 0.84622 0.77362 0.3062 0.0
C2226 C 0.82128 0.72273 0.30124 0.0
C2227 C 0.84589 0.74438 0.29247 0.0
C2228 C 0.86226 0.74889 0.281 0.0
C2229 C 0.81438 0.73792 0.31313 0.0
C2230 C 0.82373 0.7563 0.31531 0.0
C2231 C 0.83922 0.75939 0.30475 0.0
C2232 C 0.81741 0.7727 0.32809 0.0
C2233 C 0.79703 0.73421 0.32303 0.0
C2234 C 0.81394 0.79191 0.32038 0.0
C2235 C 0.80767 0.80737 0.33219 0.0
C2236 C 0.80476 0.80393 0.35197 0.0
C2237 C 0.80846 0.78477 0.35974 0.0
C2238 C 0.81489 0.76932 0.34792 0.0
H2239 H 0.7893 0.72215 0.31568 0.0
H2240 H 0.79957 0.72924 0.33811 0.0
H2241 H 0.78894 0.74818 0.32346 0.0
H2242 H 0.81581 0.79485 0.30513 0.0
H2243 H 0.8047 0.82191 0.32574 0.0
H2244 H 0.28391 0.89073 0.30686 0.0
H2245 H 0.25946 0.87488 0.3243 0.0
H2246 H 0.29469 0.8289 0.34587 0.0
H2247 H 0.31891 0.84404 0.32818 0.0
H2248 H 0.24808 0.83259 0.31983 0.0
H2249 H 0.26896 0.85118 0.39484 0.0
H2250 H 0.2767 0.865 0.37404 0.0
H2251 H 0.28592 0.84073 0.37986 0.0
C2252 C 0.28645 0.87723 0.3153 0.0
C2253 C 0.30347 0.86885 0.31629 0.0
C2254 C 0.2725 0.86829 0.32533 0.0
C2255 C 0.27539 0.85097 0.33664 0.0
C2256 C 0.29229 0.84255 0.3376 0.0
H2257 H 0.20845 0.75572 0.37765 0.0
H2258 H 0.23259 0.77667 0.36545 0.0
C2259 C 0.30615 0.85133 0.32751 0.0
C2260 C 0.26067 0.84083 0.34666 0.0
H2261 H 0.2465 0.82617 0.39128 0.0
C2262 C 0.24761 0.83137 0.33544 0.0
C2263 C 0.26013 0.83929 0.36704 0.0
C2264 C 0.27358 0.84972 0.37971 0.0
C2265 C 0.2343 0.81982 0.34408 0.0
C2266 C 0.23414 0.81769 0.3644 0.0
C2267 C 0.24683 0.82769 0.37568 0.0
C2268 C 0.22078 0.80502 0.37402 0.0
C2269 C 0.22058 0.80978 0.33145 0.0
C2270 C 0.20654 0.81407 0.38346 0.0
C2271 C 0.19276 0.80216 0.39043 0.0
C2272 C 0.19311 0.78102 0.3882 0.0
C2273 C 0.20792 0.77194 0.37975 0.0
C2274 C 0.22162 0.78388 0.37265 0.0
H2275 H 0.22092 0.81544 0.31635 0.0
H2276 H 0.22295 0.79322 0.33124 0.0
H2277 H 0.2072 0.81234 0.33737 0.0
H2278 H 0.20573 0.83037 0.38469 0.0
H2279 H 0.18154 0.80952 0.39699 0.0
H2280 H 0.12417 0.67641 0.7155 0.0
H2281 H 0.13542 0.70613 0.6984 0.0
H2282 H 0.18421 0.70188 0.73059 0.0
H2283 H 0.17305 0.67169 0.74729 0.0
H2284 H 0.14728 0.74301 0.70894 0.0
H2285 H 0.20102 0.69869 0.67535 0.0
H2286 H 0.18336 0.68697 0.68857 0.0
H2287 H 0.20162 0.6983 0.70128 0.0
C2288 C 0.13714 0.68217 0.71915 0.0
C2289 C 0.14777 0.67208 0.73271 0.0
C2290 C 0.14359 0.69903 0.70936 0.0
C2291 C 0.16078 0.70596 0.71295 0.0
C2292 C 0.17105 0.69648 0.7273 0.0
H2293 H 0.20324 0.81933 0.67126 0.0
H2294 H 0.1907 0.79192 0.69033 0.0
C2295 C 0.16465 0.67948 0.73698 0.0
C2296 C 0.16808 0.72255 0.70104 0.0
H2297 H 0.20129 0.73409 0.66991 0.0
C2298 C 0.15909 0.74107 0.7004 0.0
C2299 C 0.18325 0.71982 0.68954 0.0
C2300 C 0.19279 0.69982 0.68852 0.0
C2301 C 0.16498 0.75706 0.68879 0.0
C2302 C 0.18058 0.75462 0.67793 0.0
C2303 C 0.18943 0.736 0.67836 0.0
C2304 C 0.18807 0.77126 0.66622 0.0
C2305 C 0.15421 0.77623 0.68797 0.0
C2306 C 0.19135 0.76853 0.64642 0.0
C2307 C 0.19875 0.78414 0.6355 0.0
C2308 C 0.20288 0.80274 0.64421 0.0
C2309 C 0.19976 0.80532 0.66406 0.0
C2310 C 0.19256 0.78969 0.67498 0.0
H2311 H 0.14028 0.77342 0.69198 0.0
H2312 H 0.15974 0.78733 0.6984 0.0
H2313 H 0.15446 0.78307 0.67332 0.0
H2314 H 0.18811 0.75434 0.63941 0.0
H2315 H 0.20109 0.78176 0.62025 0.0
H2316 H 0.2922 0.16813 0.69337 0.0
H2317 H 0.26806 0.18467 0.6761 0.0
H2318 H 0.29279 0.1712 0.62171 0.0
H2319 H 0.31693 0.15408 0.63892 0.0
H2320 H 0.27358 0.21872 0.6503 0.0
H2321 H 0.24008 0.15352 0.61451 0.0
H2322 H 0.25429 0.15026 0.63533 0.0
H2323 H 0.26362 0.15574 0.61219 0.0
C2324 C 0.29232 0.16819 0.67772 0.0
C2325 C 0.30645 0.15967 0.66751 0.0
C2326 C 0.27859 0.17782 0.66788 0.0
C2327 C 0.27864 0.17907 0.64766 0.0
C2328 C 0.29246 0.1702 0.63733 0.0
H2329 H 0.19276 0.24075 0.58312 0.0
H2330 H 0.22139 0.22406 0.58884 0.0
C2331 C 0.30627 0.16056 0.64718 0.0
C2332 C 0.26462 0.19072 0.63773 0.0
H2333 H 0.22691 0.18554 0.61098 0.0
C2334 C 0.26351 0.21153 0.64146 0.0
C2335 C 0.25165 0.18131 0.62605 0.0
C2336 C 0.25229 0.15896 0.62176 0.0
C2337 C 0.2493 0.22303 0.63456 0.0
C2338 C 0.23576 0.21339 0.6239 0.0
C2339 C 0.23736 0.19283 0.61917 0.0
C2340 C 0.21886 0.22374 0.61997 0.0
C2341 C 0.24856 0.24528 0.63928 0.0
C2342 C 0.20805 0.22885 0.63554 0.0
C2343 C 0.19186 0.23818 0.63234 0.0
C2344 C 0.1861 0.24258 0.61347 0.0
C2345 C 0.19697 0.23761 0.5978 0.0
C2346 C 0.21322 0.22804 0.60104 0.0
H2347 H 0.26187 0.25146 0.64251 0.0
H2348 H 0.24263 0.254 0.62716 0.0
H2349 H 0.24027 0.24753 0.65224 0.0
H2350 H 0.2121 0.22545 0.65024 0.0
H2351 H 0.18382 0.24204 0.64468 0.0
H2352 H 0.77033 0.17823 0.69108 0.0
H2353 H 0.77853 0.20779 0.71091 0.0
H2354 H 0.82301 0.21873 0.67386 0.0
H2355 H 0.81463 0.18955 0.65396 0.0
H2356 H 0.81053 0.21686 0.73114 0.0
H2357 H 0.79637 0.27265 0.67329 0.0
H2358 H 0.7887 0.24683 0.67216 0.0
H2359 H 0.81102 0.2529 0.66582 0.0
C2360 C 0.78187 0.18699 0.68733 0.0
C2361 C 0.79198 0.18171 0.67122 0.0
C2362 C 0.78655 0.20377 0.69861 0.0
C2363 C 0.80126 0.21555 0.6937 0.0
C2364 C 0.81147 0.21002 0.67772 0.0
H2365 H 0.86255 0.31403 0.73581 0.0
H2366 H 0.85124 0.28152 0.72395 0.0
C2367 C 0.80679 0.19333 0.66647 0.0
C2368 C 0.80593 0.23383 0.70502 0.0
H2369 H 0.81312 0.28456 0.70036 0.0
C2370 C 0.81089 0.23171 0.72452 0.0
C2371 C 0.80625 0.25321 0.69636 0.0
C2372 C 0.80013 0.25662 0.67581 0.0
C2373 C 0.8169 0.2484 0.73531 0.0
C2374 C 0.81792 0.26751 0.72634 0.0
C2375 C 0.81242 0.26977 0.70709 0.0
C2376 C 0.82538 0.28534 0.7363 0.0
C2377 C 0.82263 0.24555 0.75602 0.0
C2378 C 0.8146 0.29796 0.74744 0.0
C2379 C 0.82107 0.31646 0.7543 0.0
C2380 C 0.83838 0.32244 0.75013 0.0
C2381 C 0.84931 0.30943 0.73959 0.0
C2382 C 0.84285 0.29099 0.73274 0.0
H2383 H 0.82093 0.2297 0.76099 0.0
H2384 H 0.8367 0.24986 0.75765 0.0
H2385 H 0.81487 0.2557 0.7655 0.0
H2386 H 0.80101 0.29391 0.75007 0.0
H2387 H 0.81236 0.32652 0.76206 0.0
H2388 H 0.79406 0.75326 0.62975 0.0
H2389 H 0.77082 0.77593 0.64094 0.0
H2390 H 0.80157 0.8275 0.62328 0.0
H2391 H 0.82494 0.80486 0.61223 0.0
H2392 H 0.7906 0.83107 0.66007 0.0
H2393 H 0.73406 0.80972 0.61345 0.0
H2394 H 0.74374 0.78829 0.62534 0.0
H2395 H 0.75639 0.80239 0.60804 0.0
C2396 C 0.79565 0.7694 0.62777 0.0
C2397 C 0.81131 0.77729 0.62012 0.0
C2398 C 0.78236 0.78236 0.63417 0.0
C2399 C 0.78437 0.80343 0.63278 0.0
C2400 C 0.79973 0.8113 0.62448 0.0
H2401 H 0.69801 0.88421 0.66433 0.0
H2402 H 0.72239 0.86842 0.64692 0.0
C2403 C 0.81306 0.79836 0.61819 0.0
C2404 C 0.77117 0.8172 0.64147 0.0
H2405 H 0.72725 0.82814 0.64232 0.0
C2406 C 0.77678 0.83061 0.65603 0.0
C2407 C 0.75318 0.8168 0.63604 0.0
C2408 C 0.7465 0.80367 0.61972 0.0
C2409 C 0.76479 0.84308 0.66575 0.0
C2410 C 0.74666 0.84182 0.66108 0.0
C2411 C 0.74114 0.82897 0.64604 0.0
C2412 C 0.73308 0.85309 0.67202 0.0
C2413 C 0.77169 0.8575 0.68092 0.0
C2414 C 0.73114 0.84996 0.69196 0.0
C2415 C 0.71729 0.85904 0.70195 0.0
C2416 C 0.70499 0.87123 0.69212 0.0
C2417 C 0.70725 0.87482 0.67226 0.0
C2418 C 0.72116 0.86581 0.66231 0.0
H2419 H 0.78577 0.86127 0.67849 0.0
H2420 H 0.76396 0.87175 0.68111 0.0
H2421 H 0.77069 0.85028 0.69535 0.0
H2422 H 0.73991 0.83983 0.69968 0.0
H2423 H 0.71569 0.85565 0.71715 0.0
H2424 H 0.241 0.13383 0.27813 0.0
H2425 H 0.25401 0.14576 0.2479 0.0
H2426 H 0.30566 0.12952 0.26911 0.0
H2427 H 0.29272 0.11737 0.29923 0.0
H2428 H 0.27879 0.17762 0.24815 0.0
H2429 H 0.30602 0.10932 0.21281 0.0
H2430 H 0.28911 0.10808 0.23102 0.0
H2431 H 0.31179 0.11151 0.23794 0.0
C2432 C 0.25505 0.13216 0.27605 0.0
C2433 C 0.26587 0.12465 0.29098 0.0
C2434 C 0.26247 0.13911 0.25886 0.0
C2435 C 0.28077 0.13839 0.25623 0.0
C2436 C 0.29149 0.12991 0.27071 0.0
H2437 H 0.361 0.18688 0.18374 0.0
H2438 H 0.34277 0.16998 0.20797 0.0
C2439 C 0.2841 0.12309 0.28795 0.0
C2440 C 0.28893 0.14862 0.23951 0.0
H2441 H 0.31717 0.14121 0.20205 0.0
C2442 C 0.28698 0.16966 0.23786 0.0
C2443 C 0.29965 0.13817 0.22623 0.0
C2444 C 0.30167 0.11549 0.22693 0.0
C2445 C 0.29611 0.18068 0.22379 0.0
C2446 C 0.3072 0.17029 0.2108 0.0
C2447 C 0.30871 0.14915 0.21208 0.0
C2448 C 0.31804 0.18112 0.19639 0.0
C2449 C 0.29444 0.20343 0.22357 0.0
C2450 C 0.31018 0.19298 0.18186 0.0
C2451 C 0.32061 0.2029 0.16824 0.0
C2452 C 0.33901 0.20103 0.16896 0.0
C2453 C 0.34684 0.18897 0.18332 0.0
C2454 C 0.33645 0.17918 0.19698 0.0
H2455 H 0.28883 0.20932 0.23724 0.0
H2456 H 0.30744 0.21068 0.22122 0.0
H2457 H 0.28553 0.20798 0.21155 0.0
H2458 H 0.29598 0.19428 0.18085 0.0
H2459 H 0.31435 0.21173 0.15693 0.0
H2460 H 0.8248 0.30829 0.3473 0.0
H2461 H 0.80694 0.32341 0.32116 0.0
H2462 H 0.85393 0.34889 0.29633 0.0
H2463 H 0.87168 0.33395 0.32246 0.0
H2464 H 0.80548 0.36685 0.30904 0.0
H2465 H 0.82981 0.31444 0.25236 0.0
H2466 H 0.83144 0.30877 0.27784 0.0
H2467 H 0.84651 0.3263 0.26704 0.0
C2468 C 0.83121 0.31705 0.33615 0.0
C2469 C 0.84956 0.31961 0.33645 0.0
C2470 C 0.82106 0.32572 0.32135 0.0
C2471 C 0.82918 0.33701 0.30673 0.0
C2472 C 0.84748 0.33995 0.30733 0.0
H2473 H 0.7974 0.3898 0.19811 0.0
H2474 H 0.8131 0.38016 0.22771 0.0
C2475 C 0.85759 0.33139 0.32214 0.0
C2476 C 0.81865 0.34554 0.29061 0.0
H2477 H 0.81244 0.34201 0.24189 0.0
C2478 C 0.80689 0.36141 0.29435 0.0
C2479 C 0.8206 0.33837 0.27152 0.0
C2480 C 0.83266 0.32093 0.26686 0.0
C2481 C 0.79731 0.3707 0.27931 0.0
C2482 C 0.79935 0.3636 0.26016 0.0
C2483 C 0.81098 0.34755 0.25655 0.0
C2484 C 0.78956 0.37235 0.24351 0.0
C2485 C 0.78548 0.38833 0.28398 0.0
C2486 C 0.77107 0.37168 0.24273 0.0
C2487 C 0.76207 0.37736 0.22586 0.0
C2488 C 0.77144 0.38351 0.20944 0.0
C2489 C 0.78988 0.38502 0.21055 0.0
C2490 C 0.79884 0.37951 0.22743 0.0
H2491 H 0.78911 0.39542 0.29801 0.0
H2492 H 0.78602 0.40003 0.27249 0.0
H2493 H 0.77169 0.38291 0.28504 0.0
H2494 H 0.76364 0.36581 0.25478 0.0
H2495 H 0.74787 0.37577 0.22528 0.0
H2496 H 0.68585 0.78086 0.19271 0.0
H2497 H 0.70282 0.79307 0.22087 0.0
H2498 H 0.6697 0.84602 0.22353 0.0
H2499 H 0.6526 0.83359 0.19577 0.0
H2500 H 0.72179 0.82902 0.22571 0.0
H2501 H 0.66725 0.82412 0.27835 0.0
H2502 H 0.66623 0.81216 0.25493 0.0
H2503 H 0.66175 0.83875 0.25732 0.0
C2504 C 0.68226 0.79505 0.19945 0.0
C2505 C 0.66808 0.8064 0.19222 0.0
C2506 C 0.69192 0.80202 0.21542 0.0
C2507 C 0.68738 0.82033 0.22442 0.0
C2508 C 0.67323 0.83169 0.21704 0.0
H2509 H 0.72499 0.8908 0.32166 0.0
H2510 H 0.71174 0.87939 0.29102 0.0
C2511 C 0.66356 0.82469 0.20117 0.0
C2512 C 0.69745 0.82772 0.24145 0.0
H2513 H 0.69282 0.84212 0.28851 0.0
C2514 C 0.71551 0.83176 0.23949 0.0
C2515 C 0.68921 0.83124 0.25942 0.0
C2516 C 0.67008 0.82616 0.26274 0.0
C2517 C 0.72546 0.83974 0.25492 0.0
C2518 C 0.71712 0.84358 0.27274 0.0
C2519 C 0.69912 0.83934 0.27474 0.0
C2520 C 0.7268 0.85163 0.28974 0.0
C2521 C 0.7447 0.8444 0.25195 0.0
C2522 C 0.73979 0.83992 0.29897 0.0
C2523 C 0.74733 0.84644 0.31638 0.0
C2524 C 0.74199 0.86476 0.32472 0.0
C2525 C 0.72943 0.87679 0.31522 0.0
C2526 C 0.72185 0.87024 0.29785 0.0
H2527 H 0.74814 0.84487 0.23638 0.0
H2528 H 0.74825 0.85912 0.25867 0.0
H2529 H 0.75279 0.83248 0.25898 0.0
H2530 H 0.74354 0.82535 0.29315 0.0
H2531 H 0.75679 0.83685 0.32375 0.0
H2532 H 0.2084 0.62938 0.20052 0.0
H2533 H 0.19494 0.64195 0.23024 0.0
H2534 H 0.24596 0.6608 0.25128 0.0
H2535 H 0.2595 0.64858 0.22142 0.0
H2536 H 0.20202 0.63311 0.27048 0.0
H2537 H 0.21571 0.71322 0.2509 0.0
H2538 H 0.21703 0.69288 0.23356 0.0
H2539 H 0.23428 0.69635 0.25112 0.0
C2540 C 0.21677 0.63603 0.21157 0.0
C2541 C 0.23498 0.6381 0.20862 0.0
C2542 C 0.20908 0.64315 0.22853 0.0
C2543 C 0.21943 0.65259 0.24277 0.0
C2544 C 0.23773 0.65381 0.24031 0.0
H2545 H 0.18571 0.71736 0.34661 0.0
H2546 H 0.20343 0.70296 0.32033 0.0
C2547 C 0.24546 0.64661 0.22336 0.0
C2548 C 0.21086 0.66188 0.25974 0.0
H2549 H 0.20101 0.70746 0.28024 0.0
C2550 C 0.20186 0.64935 0.27269 0.0
C2551 C 0.21074 0.68308 0.26257 0.0
C2552 C 0.21983 0.69726 0.24877 0.0
C2553 C 0.19263 0.65746 0.28839 0.0
C2554 C 0.19206 0.6787 0.29089 0.0
C2555 C 0.20142 0.6912 0.27821 0.0
C2556 C 0.18135 0.68822 0.30623 0.0
C2557 C 0.18367 0.6432 0.30221 0.0
C2558 C 0.16305 0.68515 0.30666 0.0
C2559 C 0.15302 0.69335 0.32156 0.0
C2560 C 0.16106 0.70507 0.33603 0.0
C2561 C 0.17927 0.70862 0.33536 0.0
C2562 C 0.18934 0.70035 0.32047 0.0
H2563 H 0.18957 0.62783 0.30169 0.0
H2564 H 0.18449 0.6489 0.31729 0.0
H2565 H 0.16955 0.64183 0.29814 0.0
H2566 H 0.15658 0.67616 0.29563 0.0
H2567 H 0.13903 0.69012 0.32206 0.0
H2568 H 0.32015 0.76885 0.81185 0.0
H2569 H 0.3033 0.77857 0.78272 0.0
H2570 H 0.33454 0.83285 0.77796 0.0
H2571 H 0.35153 0.8229 0.80667 0.0
H2572 H 0.2831 0.81297 0.77551 0.0
H2573 H 0.33872 0.8084 0.72438 0.0
H2574 H 0.3398 0.79773 0.74837 0.0
H2575 H 0.34351 0.82434 0.74473 0.0
C2576 C 0.32335 0.7828 0.80445 0.0
C2577 C 0.33695 0.79525 0.81138 0.0
C2578 C 0.31376 0.78835 0.78791 0.0
C2579 C 0.31783 0.8063 0.77803 0.0
C2580 C 0.3314 0.81876 0.78511 0.0
H2581 H 0.28019 0.87811 0.68347 0.0
H2582 H 0.29309 0.86439 0.71334 0.0
C2583 C 0.34099 0.81318 0.80155 0.0
C2584 C 0.30782 0.8123 0.76045 0.0
H2585 H 0.3131 0.82615 0.71332 0.0
C2586 C 0.28959 0.81562 0.76184 0.0
C2587 C 0.31632 0.81563 0.7426 0.0
C2588 C 0.33563 0.81114 0.73983 0.0
C2589 C 0.27979 0.82301 0.74603 0.0
C2590 C 0.28845 0.82705 0.72845 0.0
C2591 C 0.30655 0.82321 0.72692 0.0
C2592 C 0.27919 0.83587 0.71156 0.0
C2593 C 0.26038 0.82711 0.74835 0.0
C2594 C 0.267 0.82441 0.70081 0.0
C2595 C 0.25964 0.83225 0.68378 0.0
C2596 C 0.26429 0.85166 0.67744 0.0
C2597 C 0.27619 0.86326 0.68839 0.0
C2598 C 0.28359 0.8554 0.70532 0.0
H2599 H 0.25617 0.82593 0.76365 0.0
H2600 H 0.25706 0.84244 0.74286 0.0
H2601 H 0.25274 0.81599 0.73968 0.0
H2602 H 0.26367 0.80918 0.70524 0.0
H2603 H 0.25072 0.82299 0.67528 0.0
H2604 H 0.24923 0.37276 0.77901 0.0
H2605 H 0.2341 0.36174 0.74948 0.0
H2606 H 0.18423 0.37898 0.774 0.0
H2607 H 0.19928 0.38986 0.80361 0.0
H2608 H 0.1849 0.33963 0.76145 0.0
H2609 H 0.21028 0.39058 0.70429 0.0
H2610 H 0.22709 0.37851 0.71856 0.0
H2611 H 0.21244 0.39631 0.72971 0.0
C2612 C 0.2351 0.37477 0.77786 0.0
C2613 C 0.22541 0.38216 0.79359 0.0
C2614 C 0.22647 0.36846 0.76098 0.0
C2615 C 0.20804 0.36967 0.75949 0.0
C2616 C 0.19845 0.37793 0.77485 0.0
H2617 H 0.12715 0.32915 0.68021 0.0
H2618 H 0.14452 0.34412 0.70661 0.0
C2619 C 0.20705 0.38413 0.79174 0.0
C2620 C 0.19858 0.36043 0.74288 0.0
H2621 H 0.19361 0.36209 0.6938 0.0
C2622 C 0.18674 0.34463 0.74667 0.0
C2623 C 0.20116 0.36681 0.7236 0.0
C2624 C 0.21331 0.3841 0.71874 0.0
C2625 C 0.17742 0.33502 0.73172 0.0
C2626 C 0.17983 0.34154 0.71249 0.0
C2627 C 0.19183 0.35714 0.7086 0.0
C2628 C 0.16949 0.33274 0.69634 0.0
C2629 C 0.16519 0.31779 0.7366 0.0
C2630 C 0.17786 0.32174 0.68167 0.0
C2631 C 0.16793 0.31311 0.66668 0.0
C2632 C 0.14957 0.31541 0.66623 0.0
C2633 C 0.14127 0.3268 0.68064 0.0
C2634 C 0.15116 0.33536 0.69562 0.0
H2635 H 0.16807 0.31141 0.75114 0.0
H2636 H 0.15141 0.32338 0.73655 0.0
H2637 H 0.16617 0.30549 0.72574 0.0
H2638 H 0.19202 0.31971 0.68194 0.0
H2639 H 0.17454 0.30466 0.65544 0.0
H2640 H 0.70855 0.11904 0.70121 0.0
H2641 H 0.6956 0.13123 0.73136 0.0
H2642 H 0.74736 0.14609 0.75314 0.0
H2643 H 0.7604 0.13424 0.72289 0.0
H2644 H 0.70234 0.12135 0.77209 0.0
H2645 H 0.71948 0.20056 0.7523 0.0
H2646 H 0.7197 0.18019 0.73493 0.0
H2647 H 0.73717 0.18247 0.75241 0.0
C2648 C 0.71718 0.12466 0.71253 0.0
C2649 C 0.73547 0.12582 0.70966 0.0
C2650 C 0.70978 0.13154 0.72974 0.0
C2651 C 0.72052 0.13982 0.74429 0.0
C2652 C 0.73886 0.13995 0.74195 0.0
H2653 H 0.68664 0.21011 0.845 0.0
H2654 H 0.70493 0.19282 0.82084 0.0
C2655 C 0.74629 0.13299 0.72476 0.0
C2656 C 0.71234 0.14957 0.76125 0.0
H2657 H 0.70395 0.19578 0.78117 0.0
C2658 C 0.70278 0.1376 0.7742 0.0
C2659 C 0.71302 0.17076 0.76393 0.0
C2660 C 0.72278 0.18435 0.75013 0.0
C2661 C 0.69369 0.14631 0.7897 0.0
C2662 C 0.69384 0.16759 0.79198 0.0
C2663 C 0.70383 0.17948 0.77936 0.0
C2664 C 0.68296 0.1779 0.8067 0.0
C2665 C 0.68406 0.13263 0.80352 0.0
C2666 C 0.66458 0.1755 0.80651 0.0
C2667 C 0.65423 0.18532 0.8202 0.0
C2668 C 0.66206 0.198 0.83406 0.0
C2669 C 0.68039 0.20059 0.8342 0.0
C2670 C 0.69078 0.19069 0.82052 0.0
H2671 H 0.68972 0.11714 0.80356 0.0
H2672 H 0.68449 0.13869 0.81848 0.0
H2673 H 0.67006 0.13144 0.79892 0.0
H2674 H 0.65823 0.16606 0.79573 0.0
H2675 H 0.64012 0.1829 0.82009 0.0
H2676 H 0.86397 0.68184 0.68432 0.0
H2677 H 0.84695 0.66893 0.71168 0.0
H2678 H 0.80043 0.69858 0.68941 0.0
H2679 H 0.81756 0.71165 0.66203 0.0
H2680 H 0.82638 0.69178 0.73963 0.0
H2681 H 0.78639 0.63774 0.69594 0.0
H2682 H 0.80664 0.64866 0.6872 0.0
H2683 H 0.78688 0.66353 0.68769 0.0
C2684 C 0.8502 0.68592 0.68555 0.0
C2685 C 0.84207 0.69806 0.67145 0.0
C2686 C 0.84049 0.67844 0.70103 0.0
C2687 C 0.82244 0.68268 0.70242 0.0
C2688 C 0.81432 0.695 0.68844 0.0
H2689 H 0.74507 0.64544 0.78767 0.0
H2690 H 0.75951 0.6577 0.75833 0.0
C2691 C 0.82408 0.70258 0.67298 0.0
C2692 C 0.81221 0.67409 0.71856 0.0
H2693 H 0.78029 0.63955 0.72932 0.0
C2694 C 0.81629 0.68038 0.7374 0.0
C2695 C 0.79902 0.6593 0.71552 0.0
C2696 C 0.79448 0.65173 0.69553 0.0
C2697 C 0.80749 0.67229 0.75338 0.0
C2698 C 0.79458 0.65712 0.75041 0.0
C2699 C 0.79028 0.65107 0.73153 0.0
C2700 C 0.78549 0.64744 0.76685 0.0
C2701 C 0.81193 0.68026 0.77327 0.0
C2702 C 0.7952 0.63683 0.78089 0.0
C2703 C 0.78701 0.62983 0.7976 0.0
C2704 C 0.76893 0.63312 0.80044 0.0
C2705 C 0.759 0.64254 0.78576 0.0
C2706 C 0.76724 0.64966 0.76908 0.0
H2707 H 0.81841 0.6953 0.77259 0.0
H2708 H 0.79993 0.68156 0.78226 0.0
H2709 H 0.82116 0.66965 0.78054 0.0
H2710 H 0.80923 0.63454 0.77921 0.0
H2711 H 0.79491 0.62241 0.8086 0.0
H2712 H 0.2184 0.36 0.21073 0.0
H2713 H 0.24108 0.34486 0.19057 0.0
H2714 H 0.2188 0.37401 0.14028 0.0
H2715 H 0.19597 0.3893 0.16046 0.0
H2716 H 0.22473 0.33343 0.13454 0.0
H2717 H 0.28424 0.36952 0.16563 0.0
H2718 H 0.27088 0.35799 0.18384 0.0
H2719 H 0.26232 0.37894 0.17007 0.0
C2720 C 0.21858 0.36364 0.19548 0.0
C2721 C 0.20545 0.37597 0.18722 0.0
C2722 C 0.23154 0.35493 0.18394 0.0
C2723 C 0.23176 0.3585 0.16396 0.0
C2724 C 0.21889 0.3711 0.15569 0.0
H2725 H 0.32322 0.31093 0.10362 0.0
H2726 H 0.2989 0.33368 0.11171 0.0
C2727 C 0.20586 0.3798 0.16722 0.0
C2728 C 0.24484 0.34806 0.15167 0.0
H2729 H 0.28884 0.33889 0.14771 0.0
C2730 C 0.23878 0.33484 0.13718 0.0
C2731 C 0.26316 0.35016 0.15489 0.0
C2732 C 0.27055 0.36509 0.16932 0.0
C2733 C 0.25053 0.32289 0.12652 0.0
C2734 C 0.26877 0.32394 0.13073 0.0
C2735 C 0.27485 0.33792 0.14455 0.0
C2736 C 0.28178 0.3099 0.12207 0.0
C2737 C 0.24326 0.30919 0.11096 0.0
C2738 C 0.28 0.2889 0.12452 0.0
C2739 C 0.2938 0.27588 0.11965 0.0
C2740 C 0.30967 0.28372 0.11259 0.0
C2741 C 0.31106 0.30458 0.10906 0.0
C2742 C 0.29722 0.31755 0.11372 0.0
H2743 H 0.23068 0.31517 0.10497 0.0
H2744 H 0.25275 0.30729 0.09896 0.0
H2745 H 0.24051 0.29411 0.11727 0.0
H2746 H 0.26843 0.28265 0.13135 0.0
H2747 H 0.29255 0.25989 0.12276 0.0
H2748 H 0.31904 0.69046 0.86842 0.0
H2749 H 0.29395 0.67 0.85835 0.0
H2750 H 0.26089 0.72304 0.85837 0.0
H2751 H 0.2863 0.74397 0.86676 0.0
H2752 H 0.26299 0.66015 0.87081 0.0
H2753 H 0.25403 0.70536 0.80401 0.0
H2754 H 0.27249 0.70906 0.82011 0.0
H2755 H 0.25141 0.72015 0.82549 0.0
C2756 C 0.30648 0.69788 0.86612 0.0
C2757 C 0.3049 0.71903 0.86781 0.0
C2758 C 0.29206 0.68607 0.86058 0.0
C2759 C 0.27563 0.69505 0.85693 0.0
C2760 C 0.27358 0.71586 0.86039 0.0
H2761 H 0.18097 0.62384 0.83229 0.0
H2762 H 0.20477 0.64204 0.84837 0.0
C2763 C 0.28811 0.72778 0.86554 0.0
C2764 C 0.26107 0.68276 0.84848 0.0
H2765 H 0.23277 0.68014 0.81001 0.0
C2766 C 0.25639 0.6645 0.85749 0.0
C2767 C 0.25271 0.68817 0.83086 0.0
C2768 C 0.25803 0.70663 0.81944 0.0
C2769 C 0.24365 0.65153 0.84938 0.0
C2770 C 0.23483 0.65735 0.83215 0.0
C2771 C 0.23945 0.67566 0.82324 0.0
C2772 C 0.2209 0.64477 0.82283 0.0
C2773 C 0.24028 0.63147 0.85906 0.0
C2774 C 0.22179 0.64038 0.80299 0.0
C2775 C 0.20784 0.63069 0.79354 0.0
C2776 C 0.19268 0.62487 0.80373 0.0
C2777 C 0.19222 0.62839 0.82381 0.0
C2778 C 0.20603 0.63851 0.83317 0.0
H2779 H 0.25185 0.62649 0.86776 0.0
H2780 H 0.22899 0.63304 0.86905 0.0
H2781 H 0.23711 0.6195 0.84834 0.0
H2782 H 0.23311 0.64505 0.79465 0.0
H2783 H 0.20868 0.62862 0.77806 0.0
H2784 H 0.27393 0.34399 0.80344 0.0
H2785 H 0.28319 0.31864 0.77949 0.0
H2786 H 0.30483 0.28185 0.82536 0.0
H2787 H 0.29566 0.30713 0.84915 0.0
H2788 H 0.31787 0.30489 0.77286 0.0
H2789 H 0.27413 0.24187 0.79432 0.0
H2790 H 0.27016 0.26776 0.8014 0.0
H2791 H 0.28602 0.25264 0.81435 0.0
C2792 C 0.28042 0.33029 0.8083 0.0
C2793 C 0.28372 0.3271 0.82804 0.0
C2794 C 0.28573 0.31591 0.79469 0.0
C2795 C 0.29436 0.2982 0.80071 0.0
C2796 C 0.29776 0.29516 0.82047 0.0
H2797 H 0.36721 0.21613 0.75294 0.0
H2798 H 0.35169 0.24553 0.76593 0.0
C2799 C 0.29253 0.30953 0.83402 0.0
C2800 C 0.30072 0.28326 0.78643 0.0
H2801 H 0.29945 0.23298 0.77557 0.0
C2802 C 0.31365 0.28922 0.77321 0.0
C2803 C 0.295 0.26292 0.7867 0.0
C2804 C 0.28043 0.25592 0.79982 0.0
C2805 C 0.32175 0.27509 0.76101 0.0
C2806 C 0.31692 0.25448 0.76228 0.0
C2807 C 0.30326 0.24876 0.77471 0.0
C2808 C 0.32676 0.23833 0.75216 0.0
C2809 C 0.3356 0.2823 0.74709 0.0
C2810 C 0.3179 0.22448 0.74015 0.0
C2811 C 0.32679 0.2077 0.73271 0.0
C2812 C 0.34463 0.20459 0.73718 0.0
C2813 C 0.35359 0.21864 0.74884 0.0
C2814 C 0.34473 0.2354 0.75624 0.0
H2815 H 0.33368 0.29849 0.74333 0.0
H2816 H 0.34879 0.28076 0.75397 0.0
H2817 H 0.33545 0.27322 0.73359 0.0
H2818 H 0.30399 0.22632 0.73703 0.0
H2819 H 0.31961 0.19675 0.72407 0.0
H2820 H 0.67882 0.30823 0.89908 0.0
H2821 H 0.70325 0.33055 0.89019 0.0
H2822 H 0.73204 0.27917 0.86852 0.0
H2823 H 0.70787 0.25677 0.87802 0.0
H2824 H 0.75398 0.30764 0.88484 0.0
H2825 H 0.70705 0.34331 0.83312 0.0
H2826 H 0.70064 0.34515 0.85796 0.0
H2827 H 0.70171 0.32077 0.84649 0.0
C2828 C 0.69062 0.3017 0.89295 0.0
C2829 C 0.69152 0.28088 0.8891 0.0
C2830 C 0.70448 0.31444 0.88774 0.0
C2831 C 0.71922 0.30659 0.87818 0.0
C2832 C 0.72073 0.28556 0.87576 0.0
H2833 H 0.78365 0.35847 0.79087 0.0
H2834 H 0.76158 0.34171 0.81071 0.0
C2835 C 0.70697 0.27277 0.88125 0.0
C2836 C 0.73215 0.32026 0.86893 0.0
H2837 H 0.73593 0.3561 0.83368 0.0
C2838 C 0.75006 0.31837 0.87376 0.0
C2839 C 0.72699 0.33399 0.85423 0.0
C2840 C 0.70809 0.33585 0.84747 0.0
C2841 C 0.76299 0.32963 0.8641 0.0
C2842 C 0.75779 0.34349 0.84953 0.0
C2843 C 0.73986 0.34562 0.84497 0.0
C2844 C 0.77076 0.35468 0.83769 0.0
C2845 C 0.78213 0.32595 0.869 0.0
C2846 C 0.78298 0.36797 0.84619 0.0
C2847 C 0.79566 0.37758 0.83484 0.0
C2848 C 0.79615 0.37427 0.81477 0.0
C2849 C 0.78346 0.36157 0.80624 0.0
C2850 C 0.77091 0.35187 0.81759 0.0
H2851 H 0.78403 0.31162 0.87715 0.0
H2852 H 0.79022 0.32534 0.85571 0.0
H2853 H 0.78709 0.33853 0.87814 0.0
H2854 H 0.78282 0.37077 0.8616 0.0
H2855 H 0.80519 0.38745 0.84177 0.0
H2856 H 0.72543 0.67321 0.81379 0.0
H2857 H 0.71724 0.70003 0.79072 0.0
H2858 H 0.69649 0.73563 0.8376 0.0
H2859 H 0.70482 0.70899 0.86053 0.0
H2860 H 0.68428 0.71527 0.78271 0.0
H2861 H 0.72767 0.77624 0.81002 0.0
H2862 H 0.73073 0.75007 0.81667 0.0
H2863 H 0.71463 0.76535 0.82885 0.0
C2864 C 0.71938 0.68697 0.81907 0.0
C2865 C 0.71609 0.68942 0.83885 0.0
C2866 C 0.71467 0.70219 0.80596 0.0
C2867 C 0.70659 0.72001 0.8125 0.0
C2868 C 0.70316 0.72229 0.8323 0.0
H2869 H 0.63656 0.80524 0.76213 0.0
H2870 H 0.65101 0.77481 0.77466 0.0
C2871 C 0.70788 0.70712 0.84537 0.0
C2872 C 0.70087 0.73588 0.79866 0.0
H2873 H 0.703 0.78668 0.79048 0.0
C2874 C 0.68856 0.73084 0.78419 0.0
C2875 C 0.70672 0.75612 0.80034 0.0
C2876 C 0.72081 0.76225 0.81468 0.0
C2877 C 0.68122 0.74572 0.77208 0.0
C2878 C 0.68608 0.76619 0.77476 0.0
C2879 C 0.69911 0.77103 0.78852 0.0
C2880 C 0.677 0.78304 0.76458 0.0
C2881 C 0.66821 0.73935 0.75667 0.0
C2882 C 0.68676 0.79784 0.75476 0.0
C2883 C 0.67849 0.81527 0.7477 0.0
C2884 C 0.66035 0.81808 0.75028 0.0
C2885 C 0.65048 0.80302 0.7595 0.0
C2886 C 0.65874 0.78566 0.76663 0.0
H2887 H 0.67055 0.7235 0.75203 0.0
H2888 H 0.65468 0.74017 0.76259 0.0
H2889 H 0.66891 0.74935 0.74381 0.0
H2890 H 0.70088 0.79625 0.7532 0.0
H2891 H 0.68635 0.82696 0.74098 0.0
H2892 H 0.6847 0.6973 0.13787 0.0
H2893 H 0.70977 0.67616 0.14654 0.0
H2894 H 0.74405 0.72807 0.14358 0.0
H2895 H 0.71873 0.74971 0.13653 0.0
H2896 H 0.73957 0.66517 0.13188 0.0
H2897 H 0.75393 0.71066 0.19748 0.0
H2898 H 0.73464 0.71491 0.18274 0.0
H2899 H 0.75566 0.72499 0.17559 0.0
C2900 C 0.69753 0.70433 0.13924 0.0
C2901 C 0.69953 0.72538 0.1371 0.0
C2902 C 0.71193 0.69213 0.14398 0.0
C2903 C 0.72876 0.70059 0.14637 0.0
C2904 C 0.7311 0.72129 0.14253 0.0
H2905 H 0.82121 0.62352 0.16684 0.0
H2906 H 0.79811 0.6436 0.15159 0.0
C2907 C 0.71661 0.73362 0.13816 0.0
C2908 C 0.74346 0.68783 0.15386 0.0
H2909 H 0.77356 0.68409 0.19058 0.0
C2910 C 0.74701 0.6693 0.14473 0.0
C2911 C 0.75298 0.69301 0.17085 0.0
C2912 C 0.74901 0.71186 0.18236 0.0
C2913 C 0.75962 0.65574 0.15219 0.0
C2914 C 0.76946 0.6612 0.16886 0.0
C2915 C 0.76607 0.67986 0.17779 0.0
C2916 C 0.78303 0.64775 0.17773 0.0
C2917 C 0.76171 0.63545 0.1425 0.0
C2918 C 0.78253 0.64355 0.19761 0.0
C2919 C 0.79612 0.63274 0.20658 0.0
C2920 C 0.81052 0.62557 0.19584 0.0
C2921 C 0.81057 0.62903 0.17573 0.0
C2922 C 0.79714 0.64026 0.16686 0.0
H2923 H 0.74965 0.63114 0.13428 0.0
H2924 H 0.77273 0.63624 0.13209 0.0
H2925 H 0.76464 0.62337 0.15318 0.0
H2926 H 0.77181 0.64916 0.20637 0.0
H2927 H 0.79564 0.63083 0.22209 0.0
H2928 H 0.37003 0.80861 0.24291 0.0
H2929 H 0.3558 0.77803 0.23025 0.0
H2930 H 0.30653 0.79686 0.2552 0.0
H2931 H 0.32077 0.82769 0.26756 0.0
H2932 H 0.33611 0.74566 0.24491 0.0
H2933 H 0.29599 0.79555 0.19716 0.0
H2934 H 0.31445 0.80482 0.2111 0.0
H2935 H 0.2937 0.80013 0.2226 0.0
C2936 C 0.35633 0.8058 0.24624 0.0
C2937 C 0.34647 0.82023 0.25634 0.0
C2938 C 0.34818 0.78843 0.23893 0.0
C2939 C 0.33005 0.78536 0.24151 0.0
C2940 C 0.32047 0.79911 0.2528 0.0
H2941 H 0.2785 0.67631 0.19392 0.0
H2942 H 0.28793 0.70299 0.21655 0.0
C2943 C 0.32861 0.81655 0.26002 0.0
C2944 C 0.321 0.76892 0.23074 0.0
H2945 H 0.29174 0.76052 0.19387 0.0
C2946 C 0.32627 0.74884 0.23388 0.0
C2947 C 0.30838 0.7732 0.21614 0.0
C2948 C 0.30286 0.79458 0.21136 0.0
C2949 C 0.31945 0.73293 0.22262 0.0
C2950 C 0.30681 0.73724 0.20804 0.0
C2951 C 0.30131 0.75727 0.20516 0.0
C2952 C 0.30017 0.72148 0.19457 0.0
C2953 C 0.32639 0.71181 0.22584 0.0
C2954 C 0.30341 0.72336 0.17469 0.0
C2955 C 0.29786 0.70834 0.16184 0.0
C2956 C 0.28883 0.69131 0.16865 0.0
C2957 C 0.28532 0.6895 0.18844 0.0
C2958 C 0.29083 0.70459 0.20133 0.0
H2959 H 0.33872 0.71179 0.23459 0.0
H2960 H 0.3164 0.70281 0.23368 0.0
H2961 H 0.329 0.70419 0.21185 0.0
H2962 H 0.31062 0.73624 0.16917 0.0
H2963 H 0.30095 0.70977 0.14664 0.0
H2964 H 0.682 0.32458 0.15359 0.0
H2965 H 0.66913 0.29776 0.17348 0.0
H2966 H 0.71305 0.30221 0.21322 0.0
H2967 H 0.7257 0.32948 0.19346 0.0
H2968 H 0.68311 0.261 0.18257 0.0
H2969 H 0.67104 0.30521 0.24944 0.0
H2970 H 0.6761 0.31704 0.22664 0.0
H2971 H 0.69337 0.30599 0.24107 0.0
C2972 C 0.68875 0.31989 0.16669 0.0
C2973 C 0.70461 0.32914 0.1723 0.0
C2974 C 0.68146 0.30461 0.178 0.0
C2975 C 0.68996 0.29825 0.19503 0.0
C2976 C 0.70604 0.30724 0.20041 0.0
H2977 H 0.66829 0.19735 0.27179 0.0
H2978 H 0.68068 0.2278 0.25662 0.0
C2979 C 0.71331 0.32264 0.18911 0.0
C2980 C 0.68221 0.28166 0.2066 0.0
H2981 H 0.66584 0.26983 0.25108 0.0
C2982 C 0.67929 0.26296 0.19753 0.0
C2983 C 0.67727 0.28426 0.22613 0.0
C2984 C 0.67944 0.30425 0.23639 0.0
C2985 C 0.67164 0.24676 0.20746 0.0
C2986 C 0.6666 0.24939 0.22692 0.0
C2987 C 0.66968 0.26796 0.23612 0.0
C2988 C 0.6582 0.23282 0.23783 0.0
C2989 C 0.66915 0.22683 0.19715 0.0
C2990 C 0.64128 0.22605 0.23265 0.0
C2991 C 0.63422 0.20882 0.24134 0.0
C2992 C 0.64397 0.19825 0.25534 0.0
C2993 C 0.66055 0.20552 0.26114 0.0
C2994 C 0.6676 0.22279 0.25249 0.0
H2995 H 0.67684 0.22606 0.18358 0.0
H2996 H 0.67313 0.21404 0.20662 0.0
H2997 H 0.65501 0.22487 0.19342 0.0
H2998 H 0.63383 0.23369 0.22142 0.0
H2999 H 0.62148 0.20325 0.23659 0.0
loop_
_geom_bond_atom_site_label_1
_geom_bond_atom_site_label_2
_geom_bond_distance
_geom_bond_site_symmetry_2
_ccdc_geom_bond_type
C0 C1 1.443 . S
C0 N4 1.376 . S
C0 C38 1.389 . S
C1 C0 1.443 . S
C1 C2 1.340 . S
C1 H41 0.951 . S
C2 C1 1.340 . S
C2 C3 1.439 . S
C2 H42 0.950 . S
C3 C2 1.439 . S
C3 N4 1.374 . S
C3 C37 1.395 . S
N4 C0 1.376 . S
N4 C3 1.374 . S
N4 Co5 2.008 . S
Co5 N4 2.008 . S
Co5 N6 1.995 . S
Co5 N11 2.008 . S
Co5 N16 1.995 . S
Co5 N21 2.282 . S
Co5 N27 2.282 . S
N6 Co5 1.995 . S
N6 C7 1.376 . S
N6 C10 1.383 . S
C7 N6 1.376 . S
C7 C8 1.446 . S
C7 C37 1.391 . S
C8 C7 1.446 . S
C8 C9 1.339 . S
C8 H43 0.949 . S
C9 C8 1.339 . S
C9 C10 1.439 . S
C9 H44 0.950 . S
C10 N6 1.383 . S
C10 C9 1.439 . S
C10 C39 1.392 . S
N11 Co5 2.008 . S
N11 C12 1.376 . S
N11 C15 1.374 . S
C12 N11 1.376 . S
C12 C13 1.443 . S
C12 C39 1.389 . S
C13 C12 1.443 . S
C13 C14 1.340 . S
C13 H45 0.951 . S
C14 C13 1.340 . S
C14 C15 1.439 . S
C14 H46 0.950 . S
C15 N11 1.374 . S
C15 C14 1.439 . S
C15 C40 1.395 . S
N16 Co5 1.995 . S
N16 C17 1.376 . S
N16 C20 1.383 . S
C17 N16 1.376 . S
C17 C18 1.446 . S
C17 C40 1.391 . S
C18 C17 1.446 . S
C18 C19 1.339 . S
C18 H47 0.949 . S
C19 C18 1.339 . S
C19 C20 1.439 . S
C19 H48 0.950 . S
C20 N16 1.383 . S
C20 C19 1.439 . S
C20 C38 1.392 . S
N21 Co5 2.282 . S
N21 C24 1.332 . S
N21 C26 1.332 . S
C22 C23 1.386 . S
C22 C25 1.388 . S
C23 C22 1.386 . S
C23 C24 1.382 . S
C23 H49 0.950 . S
C24 N21 1.332 . S
C24 C23 1.382 . S
C24 H35 0.952 . S
C25 C22 1.388 . S
C25 C26 1.382 . S
C25 H50 0.950 . S
C26 N21 1.332 . S
C26 C25 1.382 . S
C26 H36 0.948 . S
N27 Co5 2.282 . S
N27 C31 1.332 . S
N27 C32 1.332 . S
C28 C29 1.388 . S
C28 C32 1.382 . S
C28 H51 0.950 . S
C29 C28 1.388 . S
C29 C30 1.386 . S
C30 C29 1.386 . S
C30 C31 1.382 . S
C30 H52 0.950 . S
C31 N27 1.332 . S
C31 C30 1.382 . S
C31 H33 0.952 . S
C32 N27 1.332 . S
C32 C28 1.382 . S
C32 H34 0.948 . S
H33 C31 0.952 . S
H34 C32 0.948 . S
H35 C24 0.952 . S
H36 C26 0.948 . S
C37 C3 1.395 . S
C37 C7 1.391 . S
C38 C0 1.389 . S
C38 C20 1.392 . S
C39 C10 1.392 . S
C39 C12 1.389 . S
C40 C15 1.395 . S
C40 C17 1.391 . S
H41 C1 0.951 . S
H42 C2 0.950 . S
H43 C8 0.949 . S
H44 C9 0.950 . S
H45 C13 0.951 . S
H46 C14 0.950 . S
H47 C18 0.949 . S
H48 C19 0.950 . S
H49 C23 0.950 . S
H50 C25 0.950 . S
H51 C28 0.950 . S
H52 C30 0.950 . S
C53 C54 1.443 . S
C53 N57 1.376 . S
C53 C91 1.389 . S
C54 C53 1.443 . S
C54 C55 1.340 . S
C54 H94 0.951 . S
C55 C54 1.340 . S
C55 C56 1.439 . S
C55 H95 0.950 . S
C56 C55 1.439 . S
C56 N57 1.374 . S
C56 C90 1.395 . S
N57 C53 1.376 . S
N57 C56 1.374 . S
N57 Co58 2.008 . S
Co58 N57 2.008 . S
Co58 N59 1.995 . S
Co58 N64 2.008 . S
Co58 N69 1.995 . S
Co58 N74 2.282 . S
Co58 N80 2.282 . S
N59 Co58 1.995 . S
N59 C60 1.376 . S
N59 C63 1.383 . S
C60 N59 1.376 . S
C60 C61 1.446 . S
C60 C90 1.391 . S
C61 C60 1.446 . S
C61 C62 1.339 . S
C61 H96 0.949 . S
C62 C61 1.339 . S
C62 C63 1.439 . S
C62 H97 0.950 . S
C63 N59 1.383 . S
C63 C62 1.439 . S
C63 C92 1.392 . S
N64 Co58 2.008 . S
N64 C65 1.376 . S
N64 C68 1.374 . S
C65 N64 1.376 . S
C65 C66 1.443 . S
C65 C92 1.389 . S
C66 C65 1.443 . S
C66 C67 1.340 . S
C66 H98 0.951 . S
C67 C66 1.340 . S
C67 C68 1.439 . S
C67 H99 0.950 . S
C68 N64 1.374 . S
C68 C67 1.439 . S
C68 C93 1.395 . S
N69 Co58 1.995 . S
N69 C70 1.376 . S
N69 C73 1.383 . S
C70 N69 1.376 . S
C70 C71 1.446 . S
C70 C93 1.391 . S
C71 C70 1.446 . S
C71 C72 1.339 . S
C71 H100 0.949 . S
C72 C71 1.339 . S
C72 C73 1.439 . S
C72 H101 0.950 . S
C73 N69 1.383 . S
C73 C72 1.439 . S
C73 C91 1.392 . S
N74 Co58 2.282 . S
N74 C77 1.332 . S
N74 C79 1.332 . S
C75 C76 1.386 . S
C75 C78 1.388 . S
C76 C75 1.386 . S
C76 C77 1.382 . S
C76 H102 0.950 . S
C77 N74 1.332 . S
C77 C76 1.382 . S
C77 H88 0.952 . S
C78 C75 1.388 . S
C78 C79 1.382 . S
C78 H103 0.950 . S
C79 N74 1.332 . S
C79 C78 1.382 . S
C79 H89 0.948 . S
N80 Co58 2.282 . S
N80 C84 1.332 . S
N80 C85 1.332 . S
C81 C82 1.388 . S
C81 C85 1.382 . S
C81 H104 0.950 . S
C82 C81 1.388 . S
C82 C83 1.386 . S
C83 C82 1.386 . S
C83 C84 1.382 . S
C83 H105 0.950 . S
C84 N80 1.332 . S
C84 C83 1.382 . S
C84 H86 0.952 . S
C85 N80 1.332 . S
C85 C81 1.382 . S
C85 H87 0.948 . S
H86 C84 0.952 . S
H87 C85 0.948 . S
H88 C77 0.952 . S
H89 C79 0.948 . S
C90 C56 1.395 . S
C90 C60 1.391 . S
C91 C53 1.389 . S
C91 C73 1.392 . S
C92 C63 1.392 . S
C92 C65 1.389 . S
C93 C68 1.395 . S
C93 C70 1.391 . S
H94 C54 0.951 . S
H95 C55 0.950 . S
H96 C61 0.949 . S
H97 C62 0.950 . S
H98 C66 0.951 . S
H99 C67 0.950 . S
H100 C71 0.949 . S
H101 C72 0.950 . S
H102 C76 0.950 . S
H103 C78 0.950 . S
H104 C81 0.950 . S
H105 C83 0.950 . S
C106 C107 1.443 . S
C106 N110 1.376 . S
C106 C144 1.389 . S
C107 C106 1.443 . S
C107 C108 1.340 . S
C107 H147 0.951 . S
C108 C107 1.340 . S
C108 C109 1.439 . S
C108 H148 0.950 . S
C109 C108 1.439 . S
C109 N110 1.374 . S
C109 C143 1.395 . S
N110 C106 1.376 . S
N110 C109 1.374 . S
N110 Co111 2.008 . S
Co111 N110 2.008 . S
Co111 N112 1.995 . S
Co111 N117 2.008 . S
Co111 N122 1.995 . S
Co111 N127 2.282 . S
Co111 N133 2.282 . S
N112 Co111 1.995 . S
N112 C113 1.376 . S
N112 C116 1.383 . S
C113 N112 1.376 . S
C113 C114 1.446 . S
C113 C143 1.391 . S
C114 C113 1.446 . S
C114 C115 1.339 . S
C114 H149 0.949 . S
C115 C114 1.339 . S
C115 C116 1.439 . S
C115 H150 0.950 . S
C116 N112 1.383 . S
C116 C115 1.439 . S
C116 C145 1.392 . S
N117 Co111 2.008 . S
N117 C118 1.376 . S
N117 C121 1.374 . S
C118 N117 1.376 . S
C118 C119 1.443 . S
C118 C145 1.389 . S
C119 C118 1.443 . S
C119 C120 1.340 . S
C119 H151 0.951 . S
C120 C119 1.340 . S
C120 C121 1.439 . S
C120 H152 0.950 . S
C121 N117 1.374 . S
C121 C120 1.439 . S
C121 C146 1.395 . S
N122 Co111 1.995 . S
N122 C123 1.376 . S
N122 C126 1.383 . S
C123 N122 1.376 . S
C123 C124 1.446 . S
C123 C146 1.391 . S
C124 C123 1.446 . S
C124 C125 1.339 . S
C124 H153 0.949 . S
C125 C124 1.339 . S
C125 C126 1.439 . S
C125 H154 0.950 . S
C126 N122 1.383 . S
C126 C125 1.439 . S
C126 C144 1.392 . S
N127 Co111 2.282 . S
N127 C130 1.332 . S
N127 C132 1.332 . S
C128 C129 1.386 . S
C128 C131 1.388 . S
C129 C128 1.386 . S
C129 C130 1.382 . S
C129 H155 0.950 . S
C130 N127 1.332 . S
C130 C129 1.382 . S
C130 H141 0.952 . S
C131 C128 1.388 . S
C131 C132 1.382 . S
C131 H156 0.950 . S
C132 N127 1.332 . S
C132 C131 1.382 . S
C132 H142 0.948 . S
N133 Co111 2.282 . S
N133 C137 1.332 . S
N133 C138 1.332 . S
C134 C135 1.388 . S
C134 C138 1.382 . S
C134 H157 0.950 . S
C135 C134 1.388 . S
C135 C136 1.386 . S
C136 C135 1.386 . S
C136 C137 1.382 . S
C136 H158 0.950 . S
C137 N133 1.332 . S
C137 C136 1.382 . S
C137 H139 0.952 . S
C138 N133 1.332 . S
C138 C134 1.382 . S
C138 H140 0.948 . S
H139 C137 0.952 . S
H140 C138 0.948 . S
H141 C130 0.952 . S
H142 C132 0.948 . S
C143 C109 1.395 . S
C143 C113 1.391 . S
C144 C106 1.389 . S
C144 C126 1.392 . S
C145 C116 1.392 . S
C145 C118 1.389 . S
C146 C121 1.395 . S
C146 C123 1.391 . S
H147 C107 0.951 . S
H148 C108 0.950 . S
H149 C114 0.949 . S
H150 C115 0.950 . S
H151 C119 0.951 . S
H152 C120 0.950 . S
H153 C124 0.949 . S
H154 C125 0.950 . S
H155 C129 0.950 . S
H156 C131 0.950 . S
H157 C134 0.950 . S
H158 C136 0.950 . S
C159 C160 1.443 . S
C159 N163 1.376 . S
C159 C197 1.389 . S
C160 C159 1.443 . S
C160 C161 1.340 . S
C160 H200 0.951 . S
C161 C160 1.340 . S
C161 C162 1.439 . S
C161 H201 0.950 . S
C162 C161 1.439 . S
C162 N163 1.374 . S
C162 C196 1.395 . S
N163 C159 1.376 . S
N163 C162 1.374 . S
N163 Co164 2.008 . S
Co164 N163 2.008 . S
Co164 N165 1.995 . S
Co164 N170 2.008 . S
Co164 N175 1.995 . S
Co164 N180 2.282 . S
Co164 N186 2.282 . S
N165 Co164 1.995 . S
N165 C166 1.376 . S
N165 C169 1.383 . S
C166 N165 1.376 . S
C166 C167 1.446 . S
C166 C196 1.391 . S
C167 C166 1.446 . S
C167 C168 1.339 . S
C167 H202 0.949 . S
C168 C167 1.339 . S
C168 C169 1.439 . S
C168 H203 0.950 . S
C169 N165 1.383 . S
C169 C168 1.439 . S
C169 C198 1.392 . S
N170 Co164 2.008 . S
N170 C171 1.376 . S
N170 C174 1.374 . S
C171 N170 1.376 . S
C171 C172 1.443 . S
C171 C198 1.389 . S
C172 C171 1.443 . S
C172 C173 1.340 . S
C172 H204 0.951 . S
C173 C172 1.340 . S
C173 C174 1.439 . S
C173 H205 0.950 . S
C174 N170 1.374 . S
C174 C173 1.439 . S
C174 C199 1.395 . S
N175 Co164 1.995 . S
N175 C176 1.376 . S
N175 C179 1.383 . S
C176 N175 1.376 . S
C176 C177 1.446 . S
C176 C199 1.391 . S
C177 C176 1.446 . S
C177 C178 1.339 . S
C177 H206 0.949 . S
C178 C177 1.339 . S
C178 C179 1.439 . S
C178 H207 0.950 . S
C179 N175 1.383 . S
C179 C178 1.439 . S
C179 C197 1.392 . S
N180 Co164 2.282 . S
N180 C183 1.332 . S
N180 C185 1.332 . S
C181 C182 1.386 . S
C181 C184 1.388 . S
C182 C181 1.386 . S
C182 C183 1.382 . S
C182 H208 0.950 . S
C183 N180 1.332 . S
C183 C182 1.382 . S
C183 H194 0.952 . S
C184 C181 1.388 . S
C184 C185 1.382 . S
C184 H209 0.950 . S
C185 N180 1.332 . S
C185 C184 1.382 . S
C185 H195 0.948 . S
N186 Co164 2.282 . S
N186 C190 1.332 . S
N186 C191 1.332 . S
C187 C188 1.388 . S
C187 C191 1.382 . S
C187 H210 0.950 . S
C188 C187 1.388 . S
C188 C189 1.386 . S
C189 C188 1.386 . S
C189 C190 1.382 . S
C189 H211 0.950 . S
C190 N186 1.332 . S
C190 C189 1.382 . S
C190 H192 0.952 . S
C191 N186 1.332 . S
C191 C187 1.382 . S
C191 H193 0.948 . S
H192 C190 0.952 . S
H193 C191 0.948 . S
H194 C183 0.952 . S
H195 C185 0.948 . S
C196 C162 1.395 . S
C196 C166 1.391 . S
C197 C159 1.389 . S
C197 C179 1.392 . S
C198 C169 1.392 . S
C198 C171 1.389 . S
C199 C174 1.395 . S
C199 C176 1.391 . S
H200 C160 0.951 . S
H201 C161 0.950 . S
H202 C167 0.949 . S
H203 C168 0.950 . S
H204 C172 0.951 . S
H205 C173 0.950 . S
H206 C177 0.949 . S
H207 C178 0.950 . S
H208 C182 0.950 . S
H209 C184 0.950 . S
H210 C187 0.950 . S
H211 C189 0.950 . S
C212 C213 1.443 . S
C212 N216 1.376 . S
C212 C250 1.389 . S
C213 C212 1.443 . S
C213 C214 1.340 . S
C213 H253 0.951 . S
C214 C213 1.340 . S
C214 C215 1.439 . S
C214 H254 0.950 . S
C215 C214 1.439 . S
C215 N216 1.374 . S
C215 C249 1.395 . S
N216 C212 1.376 . S
N216 C215 1.374 . S
N216 Co217 2.008 . S
Co217 N216 2.008 . S
Co217 N218 1.995 . S
Co217 N223 2.008 . S
Co217 N228 1.995 . S
Co217 N233 2.282 . S
Co217 N239 2.282 . S
N218 Co217 1.995 . S
N218 C219 1.376 . S
N218 C222 1.383 . S
C219 N218 1.376 . S
C219 C220 1.446 . S
C219 C249 1.391 . S
C220 C219 1.446 . S
C220 C221 1.339 . S
C220 H255 0.949 . S
C221 C220 1.339 . S
C221 C222 1.439 . S
C221 H256 0.950 . S
C222 N218 1.383 . S
C222 C221 1.439 . S
C222 C251 1.392 . S
N223 Co217 2.008 . S
N223 C224 1.376 . S
N223 C227 1.374 . S
C224 N223 1.376 . S
C224 C225 1.443 . S
C224 C251 1.389 . S
C225 C224 1.443 . S
C225 C226 1.340 . S
C225 H257 0.951 . S
C226 C225 1.340 . S
C226 C227 1.439 . S
C226 H258 0.950 . S
C227 N223 1.374 . S
C227 C226 1.439 . S
C227 C252 1.395 . S
N228 Co217 1.995 . S
N228 C229 1.376 . S
N228 C232 1.383 . S
C229 N228 1.376 . S
C229 C230 1.446 . S
C229 C252 1.391 . S
C230 C229 1.446 . S
C230 C231 1.339 . S
C230 H259 0.949 . S
C231 C230 1.339 . S
C231 C232 1.439 . S
C231 H260 0.950 . S
C232 N228 1.383 . S
C232 C231 1.439 . S
C232 C250 1.392 . S
N233 Co217 2.282 . S
N233 C236 1.332 . S
N233 C238 1.332 . S
C234 C235 1.386 . S
C234 C237 1.388 . S
C235 C234 1.386 . S
C235 C236 1.382 . S
C235 H261 0.950 . S
C236 N233 1.332 . S
C236 C235 1.382 . S
C236 H247 0.952 . S
C237 C234 1.388 . S
C237 C238 1.382 . S
C237 H262 0.950 . S
C238 N233 1.332 . S
C238 C237 1.382 . S
C238 H248 0.948 . S
N239 Co217 2.282 . S
N239 C243 1.332 . S
N239 C244 1.332 . S
C240 C241 1.388 . S
C240 C244 1.382 . S
C240 H263 0.950 . S
C241 C240 1.388 . S
C241 C242 1.386 . S
C242 C241 1.386 . S
C242 C243 1.382 . S
C242 H264 0.950 . S
C243 N239 1.332 . S
C243 C242 1.382 . S
C243 H245 0.952 . S
C244 N239 1.332 . S
C244 C240 1.382 . S
C244 H246 0.948 . S
H245 C243 0.952 . S
H246 C244 0.948 . S
H247 C236 0.952 . S
H248 C238 0.948 . S
C249 C215 1.395 . S
C249 C219 1.391 . S
C250 C212 1.389 . S
C250 C232 1.392 . S
C251 C222 1.392 . S
C251 C224 1.389 . S
C252 C227 1.395 . S
C252 C229 1.391 . S
H253 C213 0.951 . S
H254 C214 0.950 . S
H255 C220 0.949 . S
H256 C221 0.950 . S
H257 C225 0.951 . S
H258 C226 0.950 . S
H259 C230 0.949 . S
H260 C231 0.950 . S
H261 C235 0.950 . S
H262 C237 0.950 . S
H263 C240 0.950 . S
H264 C242 0.950 . S
C265 C266 1.443 . S
C265 N269 1.376 . S
C265 C303 1.389 . S
C266 C265 1.443 . S
C266 C267 1.340 . S
C266 H306 0.951 . S
C267 C266 1.340 . S
C267 C268 1.439 . S
C267 H307 0.950 . S
C268 C267 1.439 . S
C268 N269 1.374 . S
C268 C302 1.395 . S
N269 C265 1.376 . S
N269 C268 1.374 . S
N269 Co270 2.008 . S
Co270 N269 2.008 . S
Co270 N271 1.995 . S
Co270 N276 2.008 . S
Co270 N281 1.995 . S
Co270 N286 2.282 . S
Co270 N292 2.282 . S
N271 Co270 1.995 . S
N271 C272 1.376 . S
N271 C275 1.383 . S
C272 N271 1.376 . S
C272 C273 1.446 . S
C272 C302 1.391 . S
C273 C272 1.446 . S
C273 C274 1.339 . S
C273 H308 0.949 . S
C274 C273 1.339 . S
C274 C275 1.439 . S
C274 H309 0.950 . S
C275 N271 1.383 . S
C275 C274 1.439 . S
C275 C304 1.392 . S
N276 Co270 2.008 . S
N276 C277 1.376 . S
N276 C280 1.374 . S
C277 N276 1.376 . S
C277 C278 1.443 . S
C277 C304 1.389 . S
C278 C277 1.443 . S
C278 C279 1.340 . S
C278 H310 0.951 . S
C279 C278 1.340 . S
C279 C280 1.439 . S
C279 H311 0.950 . S
C280 N276 1.374 . S
C280 C279 1.439 . S
C280 C305 1.395 . S
N281 Co270 1.995 . S
N281 C282 1.376 . S
N281 C285 1.383 . S
C282 N281 1.376 . S
C282 C283 1.446 . S
C282 C305 1.391 . S
C283 C282 1.446 . S
C283 C284 1.339 . S
C283 H312 0.949 . S
C284 C283 1.339 . S
C284 C285 1.439 . S
C284 H313 0.950 . S
C285 N281 1.383 . S
C285 C284 1.439 . S
C285 C303 1.392 . S
N286 Co270 2.282 . S
N286 C289 1.332 . S
N286 C291 1.332 . S
C287 C288 1.386 . S
C287 C290 1.388 . S
C288 C287 1.386 . S
C288 C289 1.382 . S
C288 H314 0.950 . S
C289 N286 1.332 . S
C289 C288 1.382 . S
C289 H300 0.952 . S
C290 C287 1.388 . S
C290 C291 1.382 . S
C290 H315 0.950 . S
C291 N286 1.332 . S
C291 C290 1.382 . S
C291 H301 0.948 . S
N292 Co270 2.282 . S
N292 C296 1.332 . S
N292 C297 1.332 . S
C293 C294 1.388 . S
C293 C297 1.382 . S
C293 H316 0.950 . S
C294 C293 1.388 . S
C294 C295 1.386 . S
C295 C294 1.386 . S
C295 C296 1.382 . S
C295 H317 0.950 . S
C296 N292 1.332 . S
C296 C295 1.382 . S
C296 H298 0.952 . S
C297 N292 1.332 . S
C297 C293 1.382 . S
C297 H299 0.948 . S
H298 C296 0.952 . S
H299 C297 0.948 . S
H300 C289 0.952 . S
H301 C291 0.948 . S
C302 C268 1.395 . S
C302 C272 1.391 . S
C303 C265 1.389 . S
C303 C285 1.392 . S
C304 C275 1.392 . S
C304 C277 1.389 . S
C305 C280 1.395 . S
C305 C282 1.391 . S
H306 C266 0.951 . S
H307 C267 0.950 . S
H308 C273 0.949 . S
H309 C274 0.950 . S
H310 C278 0.951 . S
H311 C279 0.950 . S
H312 C283 0.949 . S
H313 C284 0.950 . S
H314 C288 0.950 . S
H315 C290 0.950 . S
H316 C293 0.950 . S
H317 C295 0.950 . S
C318 C319 1.443 . S
C318 N322 1.376 . S
C318 C356 1.389 . S
C319 C318 1.443 . S
C319 C320 1.340 . S
C319 H359 0.951 . S
C320 C319 1.340 . S
C320 C321 1.439 . S
C320 H360 0.950 . S
C321 C320 1.439 . S
C321 N322 1.374 . S
C321 C355 1.395 . S
N322 C318 1.376 . S
N322 C321 1.374 . S
N322 Co323 2.008 . S
Co323 N322 2.008 . S
Co323 N324 1.995 . S
Co323 N329 2.008 . S
Co323 N334 1.995 . S
Co323 N339 2.282 . S
Co323 N345 2.282 . S
N324 Co323 1.995 . S
N324 C325 1.376 . S
N324 C328 1.383 . S
C325 N324 1.376 . S
C325 C326 1.446 . S
C325 C355 1.391 . S
C326 C325 1.446 . S
C326 C327 1.339 . S
C326 H361 0.949 . S
C327 C326 1.339 . S
C327 C328 1.439 . S
C327 H362 0.950 . S
C328 N324 1.383 . S
C328 C327 1.439 . S
C328 C357 1.392 . S
N329 Co323 2.008 . S
N329 C330 1.376 . S
N329 C333 1.374 . S
C330 N329 1.376 . S
C330 C331 1.443 . S
C330 C357 1.389 . S
C331 C330 1.443 . S
C331 C332 1.340 . S
C331 H363 0.951 . S
C332 C331 1.340 . S
C332 C333 1.439 . S
C332 H364 0.950 . S
C333 N329 1.374 . S
C333 C332 1.439 . S
C333 C358 1.395 . S
N334 Co323 1.995 . S
N334 C335 1.376 . S
N334 C338 1.383 . S
C335 N334 1.376 . S
C335 C336 1.446 . S
C335 C358 1.391 . S
C336 C335 1.446 . S
C336 C337 1.339 . S
C336 H365 0.949 . S
C337 C336 1.339 . S
C337 C338 1.439 . S
C337 H366 0.950 . S
C338 N334 1.383 . S
C338 C337 1.439 . S
C338 C356 1.392 . S
N339 Co323 2.282 . S
N339 C342 1.332 . S
N339 C344 1.332 . S
C340 C341 1.386 . S
C340 C343 1.388 . S
C341 C340 1.386 . S
C341 C342 1.382 . S
C341 H367 0.950 . S
C342 N339 1.332 . S
C342 C341 1.382 . S
C342 H353 0.952 . S
C343 C340 1.388 . S
C343 C344 1.382 . S
C343 H368 0.950 . S
C344 N339 1.332 . S
C344 C343 1.382 . S
C344 H354 0.948 . S
N345 Co323 2.282 . S
N345 C349 1.332 . S
N345 C350 1.332 . S
C346 C347 1.388 . S
C346 C350 1.382 . S
C346 H369 0.950 . S
C347 C346 1.388 . S
C347 C348 1.386 . S
C348 C347 1.386 . S
C348 C349 1.382 . S
C348 H370 0.950 . S
C349 N345 1.332 . S
C349 C348 1.382 . S
C349 H351 0.952 . S
C350 N345 1.332 . S
C350 C346 1.382 . S
C350 H352 0.948 . S
H351 C349 0.952 . S
H352 C350 0.948 . S
H353 C342 0.952 . S
H354 C344 0.948 . S
C355 C321 1.395 . S
C355 C325 1.391 . S
C356 C318 1.389 . S
C356 C338 1.392 . S
C357 C328 1.392 . S
C357 C330 1.389 . S
C358 C333 1.395 . S
C358 C335 1.391 . S
H359 C319 0.951 . S
H360 C320 0.950 . S
H361 C326 0.949 . S
H362 C327 0.950 . S
H363 C331 0.951 . S
H364 C332 0.950 . S
H365 C336 0.949 . S
H366 C337 0.950 . S
H367 C341 0.950 . S
H368 C343 0.950 . S
H369 C346 0.950 . S
H370 C348 0.950 . S
C371 C372 1.443 . S
C371 N375 1.376 . S
C371 C409 1.389 . S
C372 C371 1.443 . S
C372 C373 1.340 . S
C372 H412 0.951 . S
C373 C372 1.340 . S
C373 C374 1.439 . S
C373 H413 0.950 . S
C374 C373 1.439 . S
C374 N375 1.374 . S
C374 C408 1.395 . S
N375 C371 1.376 . S
N375 C374 1.374 . S
N375 Co376 2.008 . S
Co376 N375 2.008 . S
Co376 N377 1.995 . S
Co376 N382 2.008 . S
Co376 N387 1.995 . S
Co376 N392 2.282 . S
Co376 N398 2.282 . S
N377 Co376 1.995 . S
N377 C378 1.376 . S
N377 C381 1.383 . S
C378 N377 1.376 . S
C378 C379 1.446 . S
C378 C408 1.391 . S
C379 C378 1.446 . S
C379 C380 1.339 . S
C379 H414 0.949 . S
C380 C379 1.339 . S
C380 C381 1.439 . S
C380 H415 0.950 . S
C381 N377 1.383 . S
C381 C380 1.439 . S
C381 C410 1.392 . S
N382 Co376 2.008 . S
N382 C383 1.376 . S
N382 C386 1.374 . S
C383 N382 1.376 . S
C383 C384 1.443 . S
C383 C410 1.389 . S
C384 C383 1.443 . S
C384 C385 1.340 . S
C384 H416 0.951 . S
C385 C384 1.340 . S
C385 C386 1.439 . S
C385 H417 0.950 . S
C386 N382 1.374 . S
C386 C385 1.439 . S
C386 C411 1.395 . S
N387 Co376 1.995 . S
N387 C388 1.376 . S
N387 C391 1.383 . S
C388 N387 1.376 . S
C388 C389 1.446 . S
C388 C411 1.391 . S
C389 C388 1.446 . S
C389 C390 1.339 . S
C389 H418 0.949 . S
C390 C389 1.339 . S
C390 C391 1.439 . S
C390 H419 0.950 . S
C391 N387 1.383 . S
C391 C390 1.439 . S
C391 C409 1.392 . S
N392 Co376 2.282 . S
N392 C395 1.332 . S
N392 C397 1.332 . S
C393 C394 1.386 . S
C393 C396 1.388 . S
C394 C393 1.386 . S
C394 C395 1.382 . S
C394 H420 0.950 . S
C395 N392 1.332 . S
C395 C394 1.382 . S
C395 H406 0.952 . S
C396 C393 1.388 . S
C396 C397 1.382 . S
C396 H421 0.950 . S
C397 N392 1.332 . S
C397 C396 1.382 . S
C397 H407 0.948 . S
N398 Co376 2.282 . S
N398 C402 1.332 . S
N398 C403 1.332 . S
C399 C400 1.388 . S
C399 C403 1.382 . S
C399 H422 0.950 . S
C400 C399 1.388 . S
C400 C401 1.386 . S
C401 C400 1.386 . S
C401 C402 1.382 . S
C401 H423 0.950 . S
C402 N398 1.332 . S
C402 C401 1.382 . S
C402 H404 0.952 . S
C403 N398 1.332 . S
C403 C399 1.382 . S
C403 H405 0.948 . S
H404 C402 0.952 . S
H405 C403 0.948 . S
H406 C395 0.952 . S
H407 C397 0.948 . S
C408 C374 1.395 . S
C408 C378 1.391 . S
C409 C371 1.389 . S
C409 C391 1.392 . S
C410 C381 1.392 . S
C410 C383 1.389 . S
C411 C386 1.395 . S
C411 C388 1.391 . S
H412 C372 0.951 . S
H413 C373 0.950 . S
H414 C379 0.949 . S
H415 C380 0.950 . S
H416 C384 0.951 . S
H417 C385 0.950 . S
H418 C389 0.949 . S
H419 C390 0.950 . S
H420 C394 0.950 . S
H421 C396 0.950 . S
H422 C399 0.950 . S
H423 C401 0.950 . S
C424 C425 1.443 . S
C424 N428 1.376 . S
C424 C462 1.389 . S
C425 C424 1.443 . S
C425 C426 1.340 . S
C425 H465 0.951 . S
C426 C425 1.340 . S
C426 C427 1.439 . S
C426 H466 0.950 . S
C427 C426 1.439 . S
C427 N428 1.374 . S
C427 C461 1.395 . S
N428 C424 1.376 . S
N428 C427 1.374 . S
N428 Co429 2.008 . S
Co429 N428 2.008 . S
Co429 N430 1.995 . S
Co429 N435 2.008 . S
Co429 N440 1.995 . S
Co429 N445 2.282 . S
Co429 N451 2.282 . S
N430 Co429 1.995 . S
N430 C431 1.376 . S
N430 C434 1.383 . S
C431 N430 1.376 . S
C431 C432 1.446 . S
C431 C461 1.391 . S
C432 C431 1.446 . S
C432 C433 1.339 . S
C432 H467 0.949 . S
C433 C432 1.339 . S
C433 C434 1.439 . S
C433 H468 0.950 . S
C434 N430 1.383 . S
C434 C433 1.439 . S
C434 C463 1.392 . S
N435 Co429 2.008 . S
N435 C436 1.376 . S
N435 C439 1.374 . S
C436 N435 1.376 . S
C436 C437 1.443 . S
C436 C463 1.389 . S
C437 C436 1.443 . S
C437 C438 1.340 . S
C437 H469 0.951 . S
C438 C437 1.340 . S
C438 C439 1.439 . S
C438 H470 0.950 . S
C439 N435 1.374 . S
C439 C438 1.439 . S
C439 C464 1.395 . S
N440 Co429 1.995 . S
N440 C441 1.376 . S
N440 C444 1.383 . S
C441 N440 1.376 . S
C441 C442 1.446 . S
C441 C464 1.391 . S
C442 C441 1.446 . S
C442 C443 1.339 . S
C442 H471 0.949 . S
C443 C442 1.339 . S
C443 C444 1.439 . S
C443 H472 0.950 . S
C444 N440 1.383 . S
C444 C443 1.439 . S
C444 C462 1.392 . S
N445 Co429 2.282 . S
N445 C448 1.332 . S
N445 C450 1.332 . S
C446 C447 1.386 . S
C446 C449 1.388 . S
C447 C446 1.386 . S
C447 C448 1.382 . S
C447 H473 0.950 . S
C448 N445 1.332 . S
C448 C447 1.382 . S
C448 H459 0.952 . S
C449 C446 1.388 . S
C449 C450 1.382 . S
C449 H474 0.950 . S
C450 N445 1.332 . S
C450 C449 1.382 . S
C450 H460 0.948 . S
N451 Co429 2.282 . S
N451 C455 1.332 . S
N451 C456 1.332 . S
C452 C453 1.388 . S
C452 C456 1.382 . S
C452 H475 0.950 . S
C453 C452 1.388 . S
C453 C454 1.386 . S
C454 C453 1.386 . S
C454 C455 1.382 . S
C454 H476 0.950 . S
C455 N451 1.332 . S
C455 C454 1.382 . S
C455 H457 0.952 . S
C456 N451 1.332 . S
C456 C452 1.382 . S
C456 H458 0.948 . S
H457 C455 0.952 . S
H458 C456 0.948 . S
H459 C448 0.952 . S
H460 C450 0.948 . S
C461 C427 1.395 . S
C461 C431 1.391 . S
C462 C424 1.389 . S
C462 C444 1.392 . S
C463 C434 1.392 . S
C463 C436 1.389 . S
C464 C439 1.395 . S
C464 C441 1.391 . S
H465 C425 0.951 . S
H466 C426 0.950 . S
H467 C432 0.949 . S
H468 C433 0.950 . S
H469 C437 0.951 . S
H470 C438 0.950 . S
H471 C442 0.949 . S
H472 C443 0.950 . S
H473 C447 0.950 . S
H474 C449 0.950 . S
H475 C452 0.950 . S
H476 C454 0.950 . S
C477 C478 1.443 . S
C477 N481 1.376 . S
C477 C515 1.389 . S
C478 C477 1.443 . S
C478 C479 1.340 . S
C478 H518 0.951 . S
C479 C478 1.340 . S
C479 C480 1.439 . S
C479 H519 0.950 . S
C480 C479 1.439 . S
C480 N481 1.374 . S
C480 C514 1.395 . S
N481 C477 1.376 . S
N481 C480 1.374 . S
N481 Co482 2.008 . S
Co482 N481 2.008 . S
Co482 N483 1.995 . S
Co482 N488 2.008 . S
Co482 N493 1.995 . S
Co482 N498 2.282 . S
Co482 N504 2.282 . S
N483 Co482 1.995 . S
N483 C484 1.376 . S
N483 C487 1.383 . S
C484 N483 1.376 . S
C484 C485 1.446 . S
C484 C514 1.391 . S
C485 C484 1.446 . S
C485 C486 1.339 . S
C485 H520 0.949 . S
C486 C485 1.339 . S
C486 C487 1.439 . S
C486 H521 0.950 . S
C487 N483 1.383 . S
C487 C486 1.439 . S
C487 C516 1.392 . S
N488 Co482 2.008 . S
N488 C489 1.376 . S
N488 C492 1.374 . S
C489 N488 1.376 . S
C489 C490 1.443 . S
C489 C516 1.389 . S
C490 C489 1.443 . S
C490 C491 1.340 . S
C490 H522 0.951 . S
C491 C490 1.340 . S
C491 C492 1.439 . S
C491 H523 0.950 . S
C492 N488 1.374 . S
C492 C491 1.439 . S
C492 C517 1.395 . S
N493 Co482 1.995 . S
N493 C494 1.376 . S
N493 C497 1.383 . S
C494 N493 1.376 . S
C494 C495 1.446 . S
C494 C517 1.391 . S
C495 C494 1.446 . S
C495 C496 1.339 . S
C495 H524 0.949 . S
C496 C495 1.339 . S
C496 C497 1.439 . S
C496 H525 0.950 . S
C497 N493 1.383 . S
C497 C496 1.439 . S
C497 C515 1.392 . S
N498 Co482 2.282 . S
N498 C501 1.332 . S
N498 C503 1.332 . S
C499 C500 1.386 . S
C499 C502 1.388 . S
C500 C499 1.386 . S
C500 C501 1.382 . S
C500 H526 0.950 . S
C501 N498 1.332 . S
C501 C500 1.382 . S
C501 H512 0.952 . S
C502 C499 1.388 . S
C502 C503 1.382 . S
C502 H527 0.950 . S
C503 N498 1.332 . S
C503 C502 1.382 . S
C503 H513 0.948 . S
N504 Co482 2.282 . S
N504 C508 1.332 . S
N504 C509 1.332 . S
C505 C506 1.388 . S
C505 C509 1.382 . S
C505 H528 0.950 . S
C506 C505 1.388 . S
C506 C507 1.386 . S
C507 C506 1.386 . S
C507 C508 1.382 . S
C507 H529 0.950 . S
C508 N504 1.332 . S
C508 C507 1.382 . S
C508 H510 0.952 . S
C509 N504 1.332 . S
C509 C505 1.382 . S
C509 H511 0.948 . S
H510 C508 0.952 . S
H511 C509 0.948 . S
H512 C501 0.952 . S
H513 C503 0.948 . S
C514 C480 1.395 . S
C514 C484 1.391 . S
C515 C477 1.389 . S
C515 C497 1.392 . S
C516 C487 1.392 . S
C516 C489 1.389 . S
C517 C492 1.395 . S
C517 C494 1.391 . S
H518 C478 0.951 . S
H519 C479 0.950 . S
H520 C485 0.949 . S
H521 C486 0.950 . S
H522 C490 0.951 . S
H523 C491 0.950 . S
H524 C495 0.949 . S
H525 C496 0.950 . S
H526 C500 0.950 . S
H527 C502 0.950 . S
H528 C505 0.950 . S
H529 C507 0.950 . S
C530 C531 1.443 . S
C530 N534 1.376 . S
C530 C568 1.389 . S
C531 C530 1.443 . S
C531 C532 1.340 . S
C531 H571 0.951 . S
C532 C531 1.340 . S
C532 C533 1.439 . S
C532 H572 0.950 . S
C533 C532 1.439 . S
C533 N534 1.374 . S
C533 C567 1.395 . S
N534 C530 1.376 . S
N534 C533 1.374 . S
N534 Co535 2.008 . S
Co535 N534 2.008 . S
Co535 N536 1.995 . S
Co535 N541 2.008 . S
Co535 N546 1.995 . S
Co535 N551 2.282 . S
Co535 N557 2.282 . S
N536 Co535 1.995 . S
N536 C537 1.376 . S
N536 C540 1.383 . S
C537 N536 1.376 . S
C537 C538 1.446 . S
C537 C567 1.391 . S
C538 C537 1.446 . S
C538 C539 1.339 . S
C538 H573 0.949 . S
C539 C538 1.339 . S
C539 C540 1.439 . S
C539 H574 0.950 . S
C540 N536 1.383 . S
C540 C539 1.439 . S
C540 C569 1.392 . S
N541 Co535 2.008 . S
N541 C542 1.376 . S
N541 C545 1.374 . S
C542 N541 1.376 . S
C542 C543 1.443 . S
C542 C569 1.389 . S
C543 C542 1.443 . S
C543 C544 1.340 . S
C543 H575 0.951 . S
C544 C543 1.340 . S
C544 C545 1.439 . S
C544 H576 0.950 . S
C545 N541 1.374 . S
C545 C544 1.439 . S
C545 C570 1.395 . S
N546 Co535 1.995 . S
N546 C547 1.376 . S
N546 C550 1.383 . S
C547 N546 1.376 . S
C547 C548 1.446 . S
C547 C570 1.391 . S
C548 C547 1.446 . S
C548 C549 1.339 . S
C548 H577 0.949 . S
C549 C548 1.339 . S
C549 C550 1.439 . S
C549 H578 0.950 . S
C550 N546 1.383 . S
C550 C549 1.439 . S
C550 C568 1.392 . S
N551 Co535 2.282 . S
N551 C554 1.332 . S
N551 C556 1.332 . S
C552 C553 1.386 . S
C552 C555 1.388 . S
C553 C552 1.386 . S
C553 C554 1.382 . S
C553 H579 0.950 . S
C554 N551 1.332 . S
C554 C553 1.382 . S
C554 H565 0.952 . S
C555 C552 1.388 . S
C555 C556 1.382 . S
C555 H580 0.950 . S
C556 N551 1.332 . S
C556 C555 1.382 . S
C556 H566 0.948 . S
N557 Co535 2.282 . S
N557 C561 1.332 . S
N557 C562 1.332 . S
C558 C559 1.388 . S
C558 C562 1.382 . S
C558 H581 0.950 . S
C559 C558 1.388 . S
C559 C560 1.386 . S
C560 C559 1.386 . S
C560 C561 1.382 . S
C560 H582 0.950 . S
C561 N557 1.332 . S
C561 C560 1.382 . S
C561 H563 0.952 . S
C562 N557 1.332 . S
C562 C558 1.382 . S
C562 H564 0.948 . S
H563 C561 0.952 . S
H564 C562 0.948 . S
H565 C554 0.952 . S
H566 C556 0.948 . S
C567 C533 1.395 . S
C567 C537 1.391 . S
C568 C530 1.389 . S
C568 C550 1.392 . S
C569 C540 1.392 . S
C569 C542 1.389 . S
C570 C545 1.395 . S
C570 C547 1.391 . S
H571 C531 0.951 . S
H572 C532 0.950 . S
H573 C538 0.949 . S
H574 C539 0.950 . S
H575 C543 0.951 . S
H576 C544 0.950 . S
H577 C548 0.949 . S
H578 C549 0.950 . S
H579 C553 0.950 . S
H580 C555 0.950 . S
H581 C558 0.950 . S
H582 C560 0.950 . S
C583 C584 1.443 . S
C583 N587 1.376 . S
C583 C621 1.389 . S
C584 C583 1.443 . S
C584 C585 1.340 . S
C584 H624 0.951 . S
C585 C584 1.340 . S
C585 C586 1.439 . S
C585 H625 0.950 . S
C586 C585 1.439 . S
C586 N587 1.374 . S
C586 C620 1.395 . S
N587 C583 1.376 . S
N587 C586 1.374 . S
N587 Co588 2.008 . S
Co588 N587 2.008 . S
Co588 N589 1.995 . S
Co588 N594 2.008 . S
Co588 N599 1.995 . S
Co588 N604 2.282 . S
Co588 N610 2.282 . S
N589 Co588 1.995 . S
N589 C590 1.376 . S
N589 C593 1.383 . S
C590 N589 1.376 . S
C590 C591 1.446 . S
C590 C620 1.391 . S
C591 C590 1.446 . S
C591 C592 1.339 . S
C591 H626 0.949 . S
C592 C591 1.339 . S
C592 C593 1.439 . S
C592 H627 0.950 . S
C593 N589 1.383 . S
C593 C592 1.439 . S
C593 C622 1.392 . S
N594 Co588 2.008 . S
N594 C595 1.376 . S
N594 C598 1.374 . S
C595 N594 1.376 . S
C595 C596 1.443 . S
C595 C622 1.389 . S
C596 C595 1.443 . S
C596 C597 1.340 . S
C596 H628 0.951 . S
C597 C596 1.340 . S
C597 C598 1.439 . S
C597 H629 0.950 . S
C598 N594 1.374 . S
C598 C597 1.439 . S
C598 C623 1.395 . S
N599 Co588 1.995 . S
N599 C600 1.376 . S
N599 C603 1.383 . S
C600 N599 1.376 . S
C600 C601 1.446 . S
C600 C623 1.391 . S
C601 C600 1.446 . S
C601 C602 1.339 . S
C601 H630 0.949 . S
C602 C601 1.339 . S
C602 C603 1.439 . S
C602 H631 0.950 . S
C603 N599 1.383 . S
C603 C602 1.439 . S
C603 C621 1.392 . S
N604 Co588 2.282 . S
N604 C607 1.332 . S
N604 C609 1.332 . S
C605 C606 1.386 . S
C605 C608 1.388 . S
C606 C605 1.386 . S
C606 C607 1.382 . S
C606 H632 0.950 . S
C607 N604 1.332 . S
C607 C606 1.382 . S
C607 H618 0.952 . S
C608 C605 1.388 . S
C608 C609 1.382 . S
C608 H633 0.950 . S
C609 N604 1.332 . S
C609 C608 1.382 . S
C609 H619 0.948 . S
N610 Co588 2.282 . S
N610 C614 1.332 . S
N610 C615 1.332 . S
C611 C612 1.388 . S
C611 C615 1.382 . S
C611 H634 0.950 . S
C612 C611 1.388 . S
C612 C613 1.386 . S
C613 C612 1.386 . S
C613 C614 1.382 . S
C613 H635 0.950 . S
C614 N610 1.332 . S
C614 C613 1.382 . S
C614 H616 0.952 . S
C615 N610 1.332 . S
C615 C611 1.382 . S
C615 H617 0.948 . S
H616 C614 0.952 . S
H617 C615 0.948 . S
H618 C607 0.952 . S
H619 C609 0.948 . S
C620 C586 1.395 . S
C620 C590 1.391 . S
C621 C583 1.389 . S
C621 C603 1.392 . S
C622 C593 1.392 . S
C622 C595 1.389 . S
C623 C598 1.395 . S
C623 C600 1.391 . S
H624 C584 0.951 . S
H625 C585 0.950 . S
H626 C591 0.949 . S
H627 C592 0.950 . S
H628 C596 0.951 . S
H629 C597 0.950 . S
H630 C601 0.949 . S
H631 C602 0.950 . S
H632 C606 0.950 . S
H633 C608 0.950 . S
H634 C611 0.950 . S
H635 C613 0.950 . S
C636 C637 1.443 . S
C636 N640 1.376 . S
C636 C674 1.389 . S
C637 C636 1.443 . S
C637 C638 1.340 . S
C637 H677 0.951 . S
C638 C637 1.340 . S
C638 C639 1.439 . S
C638 H678 0.950 . S
C639 C638 1.439 . S
C639 N640 1.374 . S
C639 C673 1.395 . S
N640 C636 1.376 . S
N640 C639 1.374 . S
N640 Co641 2.008 . S
Co641 N640 2.008 . S
Co641 N642 1.995 . S
Co641 N647 2.008 . S
Co641 N652 1.995 . S
Co641 N657 2.282 . S
Co641 N663 2.282 . S
N642 Co641 1.995 . S
N642 C643 1.376 . S
N642 C646 1.383 . S
C643 N642 1.376 . S
C643 C644 1.446 . S
C643 C673 1.391 . S
C644 C643 1.446 . S
C644 C645 1.339 . S
C644 H679 0.949 . S
C645 C644 1.339 . S
C645 C646 1.439 . S
C645 H680 0.950 . S
C646 N642 1.383 . S
C646 C645 1.439 . S
C646 C675 1.392 . S
N647 Co641 2.008 . S
N647 C648 1.376 . S
N647 C651 1.374 . S
C648 N647 1.376 . S
C648 C649 1.443 . S
C648 C675 1.389 . S
C649 C648 1.443 . S
C649 C650 1.340 . S
C649 H681 0.951 . S
C650 C649 1.340 . S
C650 C651 1.439 . S
C650 H682 0.950 . S
C651 N647 1.374 . S
C651 C650 1.439 . S
C651 C676 1.395 . S
N652 Co641 1.995 . S
N652 C653 1.376 . S
N652 C656 1.383 . S
C653 N652 1.376 . S
C653 C654 1.446 . S
C653 C676 1.391 . S
C654 C653 1.446 . S
C654 C655 1.339 . S
C654 H683 0.949 . S
C655 C654 1.339 . S
C655 C656 1.439 . S
C655 H684 0.950 . S
C656 N652 1.383 . S
C656 C655 1.439 . S
C656 C674 1.392 . S
N657 Co641 2.282 . S
N657 C660 1.332 . S
N657 C662 1.332 . S
C658 C659 1.386 . S
C658 C661 1.388 . S
C659 C658 1.386 . S
C659 C660 1.382 . S
C659 H685 0.950 . S
C660 N657 1.332 . S
C660 C659 1.382 . S
C660 H671 0.952 . S
C661 C658 1.388 . S
C661 C662 1.382 . S
C661 H686 0.950 . S
C662 N657 1.332 . S
C662 C661 1.382 . S
C662 H672 0.948 . S
N663 Co641 2.282 . S
N663 C667 1.332 . S
N663 C668 1.332 . S
C664 C665 1.388 . S
C664 C668 1.382 . S
C664 H687 0.950 . S
C665 C664 1.388 . S
C665 C666 1.386 . S
C666 C665 1.386 . S
C666 C667 1.382 . S
C666 H688 0.950 . S
C667 N663 1.332 . S
C667 C666 1.382 . S
C667 H669 0.952 . S
C668 N663 1.332 . S
C668 C664 1.382 . S
C668 H670 0.948 . S
H669 C667 0.952 . S
H670 C668 0.948 . S
H671 C660 0.952 . S
H672 C662 0.948 . S
C673 C639 1.395 . S
C673 C643 1.391 . S
C674 C636 1.389 . S
C674 C656 1.392 . S
C675 C646 1.392 . S
C675 C648 1.389 . S
C676 C651 1.395 . S
C676 C653 1.391 . S
H677 C637 0.951 . S
H678 C638 0.950 . S
H679 C644 0.949 . S
H680 C645 0.950 . S
H681 C649 0.951 . S
H682 C650 0.950 . S
H683 C654 0.949 . S
H684 C655 0.950 . S
H685 C659 0.950 . S
H686 C661 0.950 . S
H687 C664 0.950 . S
H688 C666 0.950 . S
C689 C690 1.443 . S
C689 N693 1.376 . S
C689 C727 1.389 . S
C690 C689 1.443 . S
C690 C691 1.340 . S
C690 H730 0.951 . S
C691 C690 1.340 . S
C691 C692 1.439 . S
C691 H731 0.950 . S
C692 C691 1.439 . S
C692 N693 1.374 . S
C692 C726 1.395 . S
N693 C689 1.376 . S
N693 C692 1.374 . S
N693 Co694 2.008 . S
Co694 N693 2.008 . S
Co694 N695 1.995 . S
Co694 N700 2.008 . S
Co694 N705 1.995 . S
Co694 N710 2.282 . S
Co694 N716 2.282 . S
N695 Co694 1.995 . S
N695 C696 1.376 . S
N695 C699 1.383 . S
C696 N695 1.376 . S
C696 C697 1.446 . S
C696 C726 1.391 . S
C697 C696 1.446 . S
C697 C698 1.339 . S
C697 H732 0.949 . S
C698 C697 1.339 . S
C698 C699 1.439 . S
C698 H733 0.950 . S
C699 N695 1.383 . S
C699 C698 1.439 . S
C699 C728 1.392 . S
N700 Co694 2.008 . S
N700 C701 1.376 . S
N700 C704 1.374 . S
C701 N700 1.376 . S
C701 C702 1.443 . S
C701 C728 1.389 . S
C702 C701 1.443 . S
C702 C703 1.340 . S
C702 H734 0.951 . S
C703 C702 1.340 . S
C703 C704 1.439 . S
C703 H735 0.950 . S
C704 N700 1.374 . S
C704 C703 1.439 . S
C704 C729 1.395 . S
N705 Co694 1.995 . S
N705 C706 1.376 . S
N705 C709 1.383 . S
C706 N705 1.376 . S
C706 C707 1.446 . S
C706 C729 1.391 . S
C707 C706 1.446 . S
C707 C708 1.339 . S
C707 H736 0.949 . S
C708 C707 1.339 . S
C708 C709 1.439 . S
C708 H737 0.950 . S
C709 N705 1.383 . S
C709 C708 1.439 . S
C709 C727 1.392 . S
N710 Co694 2.282 . S
N710 C713 1.332 . S
N710 C715 1.332 . S
C711 C712 1.386 . S
C711 C714 1.388 . S
C712 C711 1.386 . S
C712 C713 1.382 . S
C712 H738 0.950 . S
C713 N710 1.332 . S
C713 C712 1.382 . S
C713 H724 0.952 . S
C714 C711 1.388 . S
C714 C715 1.382 . S
C714 H739 0.950 . S
C715 N710 1.332 . S
C715 C714 1.382 . S
C715 H725 0.948 . S
N716 Co694 2.282 . S
N716 C720 1.332 . S
N716 C721 1.332 . S
C717 C718 1.388 . S
C717 C721 1.382 . S
C717 H740 0.950 . S
C718 C717 1.388 . S
C718 C719 1.386 . S
C719 C718 1.386 . S
C719 C720 1.382 . S
C719 H741 0.950 . S
C720 N716 1.332 . S
C720 C719 1.382 . S
C720 H722 0.952 . S
C721 N716 1.332 . S
C721 C717 1.382 . S
C721 H723 0.948 . S
H722 C720 0.952 . S
H723 C721 0.948 . S
H724 C713 0.952 . S
H725 C715 0.948 . S
C726 C692 1.395 . S
C726 C696 1.391 . S
C727 C689 1.389 . S
C727 C709 1.392 . S
C728 C699 1.392 . S
C728 C701 1.389 . S
C729 C704 1.395 . S
C729 C706 1.391 . S
H730 C690 0.951 . S
H731 C691 0.950 . S
H732 C697 0.949 . S
H733 C698 0.950 . S
H734 C702 0.951 . S
H735 C703 0.950 . S
H736 C707 0.949 . S
H737 C708 0.950 . S
H738 C712 0.950 . S
H739 C714 0.950 . S
H740 C717 0.950 . S
H741 C719 0.950 . S
C742 C743 1.443 . S
C742 N746 1.376 . S
C742 C780 1.389 . S
C743 C742 1.443 . S
C743 C744 1.340 . S
C743 H783 0.951 . S
C744 C743 1.340 . S
C744 C745 1.439 . S
C744 H784 0.950 . S
C745 C744 1.439 . S
C745 N746 1.374 . S
C745 C779 1.395 . S
N746 C742 1.376 . S
N746 C745 1.374 . S
N746 Co747 2.008 . S
Co747 N746 2.008 . S
Co747 N748 1.995 . S
Co747 N753 2.008 . S
Co747 N758 1.995 . S
Co747 N763 2.282 . S
Co747 N769 2.282 . S
N748 Co747 1.995 . S
N748 C749 1.376 . S
N748 C752 1.383 . S
C749 N748 1.376 . S
C749 C750 1.446 . S
C749 C779 1.391 . S
C750 C749 1.446 . S
C750 C751 1.339 . S
C750 H785 0.949 . S
C751 C750 1.339 . S
C751 C752 1.439 . S
C751 H786 0.950 . S
C752 N748 1.383 . S
C752 C751 1.439 . S
C752 C781 1.392 . S
N753 Co747 2.008 . S
N753 C754 1.376 . S
N753 C757 1.374 . S
C754 N753 1.376 . S
C754 C755 1.443 . S
C754 C781 1.389 . S
C755 C754 1.443 . S
C755 C756 1.340 . S
C755 H787 0.951 . S
C756 C755 1.340 . S
C756 C757 1.439 . S
C756 H788 0.950 . S
C757 N753 1.374 . S
C757 C756 1.439 . S
C757 C782 1.395 . S
N758 Co747 1.995 . S
N758 C759 1.376 . S
N758 C762 1.383 . S
C759 N758 1.376 . S
C759 C760 1.446 . S
C759 C782 1.391 . S
C760 C759 1.446 . S
C760 C761 1.339 . S
C760 H789 0.949 . S
C761 C760 1.339 . S
C761 C762 1.439 . S
C761 H790 0.950 . S
C762 N758 1.383 . S
C762 C761 1.439 . S
C762 C780 1.392 . S
N763 Co747 2.282 . S
N763 C766 1.332 . S
N763 C768 1.332 . S
C764 C765 1.386 . S
C764 C767 1.388 . S
C765 C764 1.386 . S
C765 C766 1.382 . S
C765 H791 0.950 . S
C766 N763 1.332 . S
C766 C765 1.382 . S
C766 H777 0.952 . S
C767 C764 1.388 . S
C767 C768 1.382 . S
C767 H792 0.950 . S
C768 N763 1.332 . S
C768 C767 1.382 . S
C768 H778 0.948 . S
N769 Co747 2.282 . S
N769 C773 1.332 . S
N769 C774 1.332 . S
C770 C771 1.388 . S
C770 C774 1.382 . S
C770 H793 0.950 . S
C771 C770 1.388 . S
C771 C772 1.386 . S
C772 C771 1.386 . S
C772 C773 1.382 . S
C772 H794 0.950 . S
C773 N769 1.332 . S
C773 C772 1.382 . S
C773 H775 0.952 . S
C774 N769 1.332 . S
C774 C770 1.382 . S
C774 H776 0.948 . S
H775 C773 0.952 . S
H776 C774 0.948 . S
H777 C766 0.952 . S
H778 C768 0.948 . S
C779 C745 1.395 . S
C779 C749 1.391 . S
C780 C742 1.389 . S
C780 C762 1.392 . S
C781 C752 1.392 . S
C781 C754 1.389 . S
C782 C757 1.395 . S
C782 C759 1.391 . S
H783 C743 0.951 . S
H784 C744 0.950 . S
H785 C750 0.949 . S
H786 C751 0.950 . S
H787 C755 0.951 . S
H788 C756 0.950 . S
H789 C760 0.949 . S
H790 C761 0.950 . S
H791 C765 0.950 . S
H792 C767 0.950 . S
H793 C770 0.950 . S
H794 C772 0.950 . S
C795 C796 1.443 . S
C795 N799 1.376 . S
C795 C833 1.389 . S
C796 C795 1.443 . S
C796 C797 1.340 . S
C796 H836 0.951 . S
C797 C796 1.340 . S
C797 C798 1.439 . S
C797 H837 0.950 . S
C798 C797 1.439 . S
C798 N799 1.374 . S
C798 C832 1.395 . S
N799 C795 1.376 . S
N799 C798 1.374 . S
N799 Co800 2.008 . S
Co800 N799 2.008 . S
Co800 N801 1.995 . S
Co800 N806 2.008 . S
Co800 N811 1.995 . S
Co800 N816 2.282 . S
Co800 N822 2.282 . S
N801 Co800 1.995 . S
N801 C802 1.376 . S
N801 C805 1.383 . S
C802 N801 1.376 . S
C802 C803 1.446 . S
C802 C832 1.391 . S
C803 C802 1.446 . S
C803 C804 1.339 . S
C803 H838 0.949 . S
C804 C803 1.339 . S
C804 C805 1.439 . S
C804 H839 0.950 . S
C805 N801 1.383 . S
C805 C804 1.439 . S
C805 C834 1.392 . S
N806 Co800 2.008 . S
N806 C807 1.376 . S
N806 C810 1.374 . S
C807 N806 1.376 . S
C807 C808 1.443 . S
C807 C834 1.389 . S
C808 C807 1.443 . S
C808 C809 1.340 . S
C808 H840 0.951 . S
C809 C808 1.340 . S
C809 C810 1.439 . S
C809 H841 0.950 . S
C810 N806 1.374 . S
C810 C809 1.439 . S
C810 C835 1.395 . S
N811 Co800 1.995 . S
N811 C812 1.376 . S
N811 C815 1.383 . S
C812 N811 1.376 . S
C812 C813 1.446 . S
C812 C835 1.391 . S
C813 C812 1.446 . S
C813 C814 1.339 . S
C813 H842 0.949 . S
C814 C813 1.339 . S
C814 C815 1.439 . S
C814 H843 0.950 . S
C815 N811 1.383 . S
C815 C814 1.439 . S
C815 C833 1.392 . S
N816 Co800 2.282 . S
N816 C819 1.332 . S
N816 C821 1.332 . S
C817 C818 1.386 . S
C817 C820 1.388 . S
C818 C817 1.386 . S
C818 C819 1.382 . S
C818 H844 0.950 . S
C819 N816 1.332 . S
C819 C818 1.382 . S
C819 H830 0.952 . S
C820 C817 1.388 . S
C820 C821 1.382 . S
C820 H845 0.950 . S
C821 N816 1.332 . S
C821 C820 1.382 . S
C821 H831 0.948 . S
N822 Co800 2.282 . S
N822 C826 1.332 . S
N822 C827 1.332 . S
C823 C824 1.388 . S
C823 C827 1.382 . S
C823 H846 0.950 . S
C824 C823 1.388 . S
C824 C825 1.386 . S
C825 C824 1.386 . S
C825 C826 1.382 . S
C825 H847 0.950 . S
C826 N822 1.332 . S
C826 C825 1.382 . S
C826 H828 0.952 . S
C827 N822 1.332 . S
C827 C823 1.382 . S
C827 H829 0.948 . S
H828 C826 0.952 . S
H829 C827 0.948 . S
H830 C819 0.952 . S
H831 C821 0.948 . S
C832 C798 1.395 . S
C832 C802 1.391 . S
C833 C795 1.389 . S
C833 C815 1.392 . S
C834 C805 1.392 . S
C834 C807 1.389 . S
C835 C810 1.395 . S
C835 C812 1.391 . S
H836 C796 0.951 . S
H837 C797 0.950 . S
H838 C803 0.949 . S
H839 C804 0.950 . S
H840 C808 0.951 . S
H841 C809 0.950 . S
H842 C813 0.949 . S
H843 C814 0.950 . S
H844 C818 0.950 . S
H845 C820 0.950 . S
H846 C823 0.950 . S
H847 C825 0.950 . S
C848 C849 1.443 . S
C848 N852 1.376 . S
C848 C886 1.389 . S
C849 C848 1.443 . S
C849 C850 1.340 . S
C849 H889 0.951 . S
C850 C849 1.340 . S
C850 C851 1.439 . S
C850 H890 0.950 . S
C851 C850 1.439 . S
C851 N852 1.374 . S
C851 C885 1.395 . S
N852 C848 1.376 . S
N852 C851 1.374 . S
N852 Co853 2.008 . S
Co853 N852 2.008 . S
Co853 N854 1.995 . S
Co853 N859 2.008 . S
Co853 N864 1.995 . S
Co853 N869 2.282 . S
Co853 N875 2.282 . S
N854 Co853 1.995 . S
N854 C855 1.376 . S
N854 C858 1.383 . S
C855 N854 1.376 . S
C855 C856 1.446 . S
C855 C885 1.391 . S
C856 C855 1.446 . S
C856 C857 1.339 . S
C856 H891 0.949 . S
C857 C856 1.339 . S
C857 C858 1.439 . S
C857 H892 0.950 . S
C858 N854 1.383 . S
C858 C857 1.439 . S
C858 C887 1.392 . S
N859 Co853 2.008 . S
N859 C860 1.376 . S
N859 C863 1.374 . S
C860 N859 1.376 . S
C860 C861 1.443 . S
C860 C887 1.389 . S
C861 C860 1.443 . S
C861 C862 1.340 . S
C861 H893 0.951 . S
C862 C861 1.340 . S
C862 C863 1.439 . S
C862 H894 0.950 . S
C863 N859 1.374 . S
C863 C862 1.439 . S
C863 C888 1.395 . S
N864 Co853 1.995 . S
N864 C865 1.376 . S
N864 C868 1.383 . S
C865 N864 1.376 . S
C865 C866 1.446 . S
C865 C888 1.391 . S
C866 C865 1.446 . S
C866 C867 1.339 . S
C866 H895 0.949 . S
C867 C866 1.339 . S
C867 C868 1.439 . S
C867 H896 0.950 . S
C868 N864 1.383 . S
C868 C867 1.439 . S
C868 C886 1.392 . S
N869 Co853 2.282 . S
N869 C872 1.332 . S
N869 C874 1.332 . S
C870 C871 1.386 . S
C870 C873 1.388 . S
C871 C870 1.386 . S
C871 C872 1.382 . S
C871 H897 0.950 . S
C872 N869 1.332 . S
C872 C871 1.382 . S
C872 H883 0.952 . S
C873 C870 1.388 . S
C873 C874 1.382 . S
C873 H898 0.950 . S
C874 N869 1.332 . S
C874 C873 1.382 . S
C874 H884 0.948 . S
N875 Co853 2.282 . S
N875 C879 1.332 . S
N875 C880 1.332 . S
C876 C877 1.388 . S
C876 C880 1.382 . S
C876 H899 0.950 . S
C877 C876 1.388 . S
C877 C878 1.386 . S
C878 C877 1.386 . S
C878 C879 1.382 . S
C878 H900 0.950 . S
C879 N875 1.332 . S
C879 C878 1.382 . S
C879 H881 0.952 . S
C880 N875 1.332 . S
C880 C876 1.382 . S
C880 H882 0.948 . S
H881 C879 0.952 . S
H882 C880 0.948 . S
H883 C872 0.952 . S
H884 C874 0.948 . S
C885 C851 1.395 . S
C885 C855 1.391 . S
C886 C848 1.389 . S
C886 C868 1.392 . S
C887 C858 1.392 . S
C887 C860 1.389 . S
C888 C863 1.395 . S
C888 C865 1.391 . S
H889 C849 0.951 . S
H890 C850 0.950 . S
H891 C856 0.949 . S
H892 C857 0.950 . S
H893 C861 0.951 . S
H894 C862 0.950 . S
H895 C866 0.949 . S
H896 C867 0.950 . S
H897 C871 0.950 . S
H898 C873 0.950 . S
H899 C876 0.950 . S
H900 C878 0.950 . S
C901 C902 1.443 . S
C901 N905 1.376 . S
C901 C939 1.389 . S
C902 C901 1.443 . S
C902 C903 1.340 . S
C902 H942 0.951 . S
C903 C902 1.340 . S
C903 C904 1.439 . S
C903 H943 0.950 . S
C904 C903 1.439 . S
C904 N905 1.374 . S
C904 C938 1.395 . S
N905 C901 1.376 . S
N905 C904 1.374 . S
N905 Co906 2.008 . S
Co906 N905 2.008 . S
Co906 N907 1.995 . S
Co906 N912 2.008 . S
Co906 N917 1.995 . S
Co906 N922 2.282 . S
Co906 N928 2.282 . S
N907 Co906 1.995 . S
N907 C908 1.376 . S
N907 C911 1.383 . S
C908 N907 1.376 . S
C908 C909 1.446 . S
C908 C938 1.391 . S
C909 C908 1.446 . S
C909 C910 1.339 . S
C909 H944 0.949 . S
C910 C909 1.339 . S
C910 C911 1.439 . S
C910 H945 0.950 . S
C911 N907 1.383 . S
C911 C910 1.439 . S
C911 C940 1.392 . S
N912 Co906 2.008 . S
N912 C913 1.376 . S
N912 C916 1.374 . S
C913 N912 1.376 . S
C913 C914 1.443 . S
C913 C940 1.389 . S
C914 C913 1.443 . S
C914 C915 1.340 . S
C914 H946 0.951 . S
C915 C914 1.340 . S
C915 C916 1.439 . S
C915 H947 0.950 . S
C916 N912 1.374 . S
C916 C915 1.439 . S
C916 C941 1.395 . S
N917 Co906 1.995 . S
N917 C918 1.376 . S
N917 C921 1.383 . S
C918 N917 1.376 . S
C918 C919 1.446 . S
C918 C941 1.391 . S
C919 C918 1.446 . S
C919 C920 1.339 . S
C919 H948 0.949 . S
C920 C919 1.339 . S
C920 C921 1.439 . S
C920 H949 0.950 . S
C921 N917 1.383 . S
C921 C920 1.439 . S
C921 C939 1.392 . S
N922 Co906 2.282 . S
N922 C925 1.332 . S
N922 C927 1.332 . S
C923 C924 1.386 . S
C923 C926 1.388 . S
C924 C923 1.386 . S
C924 C925 1.382 . S
C924 H950 0.950 . S
C925 N922 1.332 . S
C925 C924 1.382 . S
C925 H936 0.952 . S
C926 C923 1.388 . S
C926 C927 1.382 . S
C926 H951 0.950 . S
C927 N922 1.332 . S
C927 C926 1.382 . S
C927 H937 0.948 . S
N928 Co906 2.282 . S
N928 C932 1.332 . S
N928 C933 1.332 . S
C929 C930 1.388 . S
C929 C933 1.382 . S
C929 H952 0.950 . S
C930 C929 1.388 . S
C930 C931 1.386 . S
C931 C930 1.386 . S
C931 C932 1.382 . S
C931 H953 0.950 . S
C932 N928 1.332 . S
C932 C931 1.382 . S
C932 H934 0.952 . S
C933 N928 1.332 . S
C933 C929 1.382 . S
C933 H935 0.948 . S
H934 C932 0.952 . S
H935 C933 0.948 . S
H936 C925 0.952 . S
H937 C927 0.948 . S
C938 C904 1.395 . S
C938 C908 1.391 . S
C939 C901 1.389 . S
C939 C921 1.392 . S
C940 C911 1.392 . S
C940 C913 1.389 . S
C941 C916 1.395 . S
C941 C918 1.391 . S
H942 C902 0.951 . S
H943 C903 0.950 . S
H944 C909 0.949 . S
H945 C910 0.950 . S
H946 C914 0.951 . S
H947 C915 0.950 . S
H948 C919 0.949 . S
H949 C920 0.950 . S
H950 C924 0.950 . S
H951 C926 0.950 . S
H952 C929 0.950 . S
H953 C931 0.950 . S
C954 C955 1.443 . S
C954 N958 1.376 . S
C954 C992 1.389 . S
C955 C954 1.443 . S
C955 C956 1.340 . S
C955 H995 0.951 . S
C956 C955 1.340 . S
C956 C957 1.439 . S
C956 H996 0.950 . S
C957 C956 1.439 . S
C957 N958 1.374 . S
C957 C991 1.395 . S
N958 C954 1.376 . S
N958 C957 1.374 . S
N958 Co959 2.008 . S
Co959 N958 2.008 . S
Co959 N960 1.995 . S
Co959 N965 2.008 . S
Co959 N970 1.995 . S
Co959 N975 2.282 . S
Co959 N981 2.282 . S
N960 Co959 1.995 . S
N960 C961 1.376 . S
N960 C964 1.383 . S
C961 N960 1.376 . S
C961 C962 1.446 . S
C961 C991 1.391 . S
C962 C961 1.446 . S
C962 C963 1.339 . S
C962 H997 0.949 . S
C963 C962 1.339 . S
C963 C964 1.439 . S
C963 H998 0.950 . S
C964 N960 1.383 . S
C964 C963 1.439 . S
C964 C993 1.392 . S
N965 Co959 2.008 . S
N965 C966 1.376 . S
N965 C969 1.374 . S
C966 N965 1.376 . S
C966 C967 1.443 . S
C966 C993 1.389 . S
C967 C966 1.443 . S
C967 C968 1.340 . S
C967 H999 0.951 . S
C968 C967 1.340 . S
C968 C969 1.439 . S
C968 H1000 0.950 . S
C969 N965 1.374 . S
C969 C968 1.439 . S
C969 C994 1.395 . S
N970 Co959 1.995 . S
N970 C971 1.376 . S
N970 C974 1.383 . S
C971 N970 1.376 . S
C971 C972 1.446 . S
C971 C994 1.391 . S
C972 C971 1.446 . S
C972 C973 1.339 . S
C972 H1001 0.949 . S
C973 C972 1.339 . S
C973 C974 1.439 . S
C973 H1002 0.950 . S
C974 N970 1.383 . S
C974 C973 1.439 . S
C974 C992 1.392 . S
N975 Co959 2.282 . S
N975 C978 1.332 . S
N975 C980 1.332 . S
C976 C977 1.386 . S
C976 C979 1.388 . S
C977 C976 1.386 . S
C977 C978 1.382 . S
C977 H1003 0.950 . S
C978 N975 1.332 . S
C978 C977 1.382 . S
C978 H989 0.952 . S
C979 C976 1.388 . S
C979 C980 1.382 . S
C979 H1004 0.950 . S
C980 N975 1.332 . S
C980 C979 1.382 . S
C980 H990 0.948 . S
N981 Co959 2.282 . S
N981 C985 1.332 . S
N981 C986 1.332 . S
C982 C983 1.388 . S
C982 C986 1.382 . S
C982 H1005 0.950 . S
C983 C982 1.388 . S
C983 C984 1.386 . S
C984 C983 1.386 . S
C984 C985 1.382 . S
C984 H1006 0.950 . S
C985 N981 1.332 . S
C985 C984 1.382 . S
C985 H987 0.952 . S
C986 N981 1.332 . S
C986 C982 1.382 . S
C986 H988 0.948 . S
H987 C985 0.952 . S
H988 C986 0.948 . S
H989 C978 0.952 . S
H990 C980 0.948 . S
C991 C957 1.395 . S
C991 C961 1.391 . S
C992 C954 1.389 . S
C992 C974 1.392 . S
C993 C964 1.392 . S
C993 C966 1.389 . S
C994 C969 1.395 . S
C994 C971 1.391 . S
H995 C955 0.951 . S
H996 C956 0.950 . S
H997 C962 0.949 . S
H998 C963 0.950 . S
H999 C967 0.951 . S
H1000 C968 0.950 . S
H1001 C972 0.949 . S
H1002 C973 0.950 . S
H1003 C977 0.950 . S
H1004 C979 0.950 . S
H1005 C982 0.950 . S
H1006 C984 0.950 . S
C1007 C1008 1.443 . S
C1007 N1011 1.376 . S
C1007 C1045 1.389 . S
C1008 C1007 1.443 . S
C1008 C1009 1.340 . S
C1008 H1048 0.951 . S
C1009 C1008 1.340 . S
C1009 C1010 1.439 . S
C1009 H1049 0.950 . S
C1010 C1009 1.439 . S
C1010 N1011 1.374 . S
C1010 C1044 1.395 . S
N1011 C1007 1.376 . S
N1011 C1010 1.374 . S
N1011 Co1012 2.008 . S
Co1012 N1011 2.008 . S
Co1012 N1013 1.995 . S
Co1012 N1018 2.008 . S
Co1012 N1023 1.995 . S
Co1012 N1028 2.282 . S
Co1012 N1034 2.282 . S
N1013 Co1012 1.995 . S
N1013 C1014 1.376 . S
N1013 C1017 1.383 . S
C1014 N1013 1.376 . S
C1014 C1015 1.446 . S
C1014 C1044 1.391 . S
C1015 C1014 1.446 . S
C1015 C1016 1.339 . S
C1015 H1050 0.949 . S
C1016 C1015 1.339 . S
C1016 C1017 1.439 . S
C1016 H1051 0.950 . S
C1017 N1013 1.383 . S
C1017 C1016 1.439 . S
C1017 C1046 1.392 . S
N1018 Co1012 2.008 . S
N1018 C1019 1.376 . S
N1018 C1022 1.374 . S
C1019 N1018 1.376 . S
C1019 C1020 1.443 . S
C1019 C1046 1.389 . S
C1020 C1019 1.443 . S
C1020 C1021 1.340 . S
C1020 H1052 0.951 . S
C1021 C1020 1.340 . S
C1021 C1022 1.439 . S
C1021 H1053 0.950 . S
C1022 N1018 1.374 . S
C1022 C1021 1.439 . S
C1022 C1047 1.395 . S
N1023 Co1012 1.995 . S
N1023 C1024 1.376 . S
N1023 C1027 1.383 . S
C1024 N1023 1.376 . S
C1024 C1025 1.446 . S
C1024 C1047 1.391 . S
C1025 C1024 1.446 . S
C1025 C1026 1.339 . S
C1025 H1054 0.949 . S
C1026 C1025 1.339 . S
C1026 C1027 1.439 . S
C1026 H1055 0.950 . S
C1027 N1023 1.383 . S
C1027 C1026 1.439 . S
C1027 C1045 1.392 . S
N1028 Co1012 2.282 . S
N1028 C1031 1.332 . S
N1028 C1033 1.332 . S
C1029 C1030 1.386 . S
C1029 C1032 1.388 . S
C1030 C1029 1.386 . S
C1030 C1031 1.382 . S
C1030 H1056 0.950 . S
C1031 N1028 1.332 . S
C1031 C1030 1.382 . S
C1031 H1042 0.952 . S
C1032 C1029 1.388 . S
C1032 C1033 1.382 . S
C1032 H1057 0.950 . S
C1033 N1028 1.332 . S
C1033 C1032 1.382 . S
C1033 H1043 0.948 . S
N1034 Co1012 2.282 . S
N1034 C1038 1.332 . S
N1034 C1039 1.332 . S
C1035 C1036 1.388 . S
C1035 C1039 1.382 . S
C1035 H1058 0.950 . S
C1036 C1035 1.388 . S
C1036 C1037 1.386 . S
C1037 C1036 1.386 . S
C1037 C1038 1.382 . S
C1037 H1059 0.950 . S
C1038 N1034 1.332 . S
C1038 C1037 1.382 . S
C1038 H1040 0.952 . S
C1039 N1034 1.332 . S
C1039 C1035 1.382 . S
C1039 H1041 0.948 . S
H1040 C1038 0.952 . S
H1041 C1039 0.948 . S
H1042 C1031 0.952 . S
H1043 C1033 0.948 . S
C1044 C1010 1.395 . S
C1044 C1014 1.391 . S
C1045 C1007 1.389 . S
C1045 C1027 1.392 . S
C1046 C1017 1.392 . S
C1046 C1019 1.389 . S
C1047 C1022 1.395 . S
C1047 C1024 1.391 . S
H1048 C1008 0.951 . S
H1049 C1009 0.950 . S
H1050 C1015 0.949 . S
H1051 C1016 0.950 . S
H1052 C1020 0.951 . S
H1053 C1021 0.950 . S
H1054 C1025 0.949 . S
H1055 C1026 0.950 . S
H1056 C1030 0.950 . S
H1057 C1032 0.950 . S
H1058 C1035 0.950 . S
H1059 C1037 0.950 . S
C1060 C1061 1.443 . S
C1060 N1064 1.376 . S
C1060 C1098 1.389 . S
C1061 C1060 1.443 . S
C1061 C1062 1.340 . S
C1061 H1101 0.951 . S
C1062 C1061 1.340 . S
C1062 C1063 1.439 . S
C1062 H1102 0.950 . S
C1063 C1062 1.439 . S
C1063 N1064 1.374 . S
C1063 C1097 1.395 . S
N1064 C1060 1.376 . S
N1064 C1063 1.374 . S
N1064 Co1065 2.008 . S
Co1065 N1064 2.008 . S
Co1065 N1066 1.995 . S
Co1065 N1071 2.008 . S
Co1065 N1076 1.995 . S
Co1065 N1081 2.282 . S
Co1065 N1087 2.282 . S
N1066 Co1065 1.995 . S
N1066 C1067 1.376 . S
N1066 C1070 1.383 . S
C1067 N1066 1.376 . S
C1067 C1068 1.446 . S
C1067 C1097 1.391 . S
C1068 C1067 1.446 . S
C1068 C1069 1.339 . S
C1068 H1103 0.949 . S
C1069 C1068 1.339 . S
C1069 C1070 1.439 . S
C1069 H1104 0.950 . S
C1070 N1066 1.383 . S
C1070 C1069 1.439 . S
C1070 C1099 1.392 . S
N1071 Co1065 2.008 . S
N1071 C1072 1.376 . S
N1071 C1075 1.374 . S
C1072 N1071 1.376 . S
C1072 C1073 1.443 . S
C1072 C1099 1.389 . S
C1073 C1072 1.443 . S
C1073 C1074 1.340 . S
C1073 H1105 0.951 . S
C1074 C1073 1.340 . S
C1074 C1075 1.439 . S
C1074 H1106 0.950 . S
C1075 N1071 1.374 . S
C1075 C1074 1.439 . S
C1075 C1100 1.395 . S
N1076 Co1065 1.995 . S
N1076 C1077 1.376 . S
N1076 C1080 1.383 . S
C1077 N1076 1.376 . S
C1077 C1078 1.446 . S
C1077 C1100 1.391 . S
C1078 C1077 1.446 . S
C1078 C1079 1.339 . S
C1078 H1107 0.949 . S
C1079 C1078 1.339 . S
C1079 C1080 1.439 . S
C1079 H1108 0.950 . S
C1080 N1076 1.383 . S
C1080 C1079 1.439 . S
C1080 C1098 1.392 . S
N1081 Co1065 2.282 . S
N1081 C1084 1.332 . S
N1081 C1086 1.332 . S
C1082 C1083 1.386 . S
C1082 C1085 1.388 . S
C1083 C1082 1.386 . S
C1083 C1084 1.382 . S
C1083 H1109 0.950 . S
C1084 N1081 1.332 . S
C1084 C1083 1.382 . S
C1084 H1095 0.952 . S
C1085 C1082 1.388 . S
C1085 C1086 1.382 . S
C1085 H1110 0.950 . S
C1086 N1081 1.332 . S
C1086 C1085 1.382 . S
C1086 H1096 0.948 . S
N1087 Co1065 2.282 . S
N1087 C1091 1.332 . S
N1087 C1092 1.332 . S
C1088 C1089 1.388 . S
C1088 C1092 1.382 . S
C1088 H1111 0.950 . S
C1089 C1088 1.388 . S
C1089 C1090 1.386 . S
C1090 C1089 1.386 . S
C1090 C1091 1.382 . S
C1090 H1112 0.950 . S
C1091 N1087 1.332 . S
C1091 C1090 1.382 . S
C1091 H1093 0.952 . S
C1092 N1087 1.332 . S
C1092 C1088 1.382 . S
C1092 H1094 0.948 . S
H1093 C1091 0.952 . S
H1094 C1092 0.948 . S
H1095 C1084 0.952 . S
H1096 C1086 0.948 . S
C1097 C1063 1.395 . S
C1097 C1067 1.391 . S
C1098 C1060 1.389 . S
C1098 C1080 1.392 . S
C1099 C1070 1.392 . S
C1099 C1072 1.389 . S
C1100 C1075 1.395 . S
C1100 C1077 1.391 . S
H1101 C1061 0.951 . S
H1102 C1062 0.950 . S
H1103 C1068 0.949 . S
H1104 C1069 0.950 . S
H1105 C1073 0.951 . S
H1106 C1074 0.950 . S
H1107 C1078 0.949 . S
H1108 C1079 0.950 . S
H1109 C1083 0.950 . S
H1110 C1085 0.950 . S
H1111 C1088 0.950 . S
H1112 C1090 0.950 . S
C1113 C1114 1.443 . S
C1113 N1117 1.376 . S
C1113 C1151 1.389 . S
C1114 C1113 1.443 . S
C1114 C1115 1.340 . S
C1114 H1154 0.951 . S
C1115 C1114 1.340 . S
C1115 C1116 1.439 . S
C1115 H1155 0.950 . S
C1116 C1115 1.439 . S
C1116 N1117 1.374 . S
C1116 C1150 1.395 . S
N1117 C1113 1.376 . S
N1117 C1116 1.374 . S
N1117 Co1118 2.008 . S
Co1118 N1117 2.008 . S
Co1118 N1119 1.995 . S
Co1118 N1124 2.008 . S
Co1118 N1129 1.995 . S
Co1118 N1134 2.282 . S
Co1118 N1140 2.282 . S
N1119 Co1118 1.995 . S
N1119 C1120 1.376 . S
N1119 C1123 1.383 . S
C1120 N1119 1.376 . S
C1120 C1121 1.446 . S
C1120 C1150 1.391 . S
C1121 C1120 1.446 . S
C1121 C1122 1.339 . S
C1121 H1156 0.949 . S
C1122 C1121 1.339 . S
C1122 C1123 1.439 . S
C1122 H1157 0.950 . S
C1123 N1119 1.383 . S
C1123 C1122 1.439 . S
C1123 C1152 1.392 . S
N1124 Co1118 2.008 . S
N1124 C1125 1.376 . S
N1124 C1128 1.374 . S
C1125 N1124 1.376 . S
C1125 C1126 1.443 . S
C1125 C1152 1.389 . S
C1126 C1125 1.443 . S
C1126 C1127 1.340 . S
C1126 H1158 0.951 . S
C1127 C1126 1.340 . S
C1127 C1128 1.439 . S
C1127 H1159 0.950 . S
C1128 N1124 1.374 . S
C1128 C1127 1.439 . S
C1128 C1153 1.395 . S
N1129 Co1118 1.995 . S
N1129 C1130 1.376 . S
N1129 C1133 1.383 . S
C1130 N1129 1.376 . S
C1130 C1131 1.446 . S
C1130 C1153 1.391 . S
C1131 C1130 1.446 . S
C1131 C1132 1.339 . S
C1131 H1160 0.949 . S
C1132 C1131 1.339 . S
C1132 C1133 1.439 . S
C1132 H1161 0.950 . S
C1133 N1129 1.383 . S
C1133 C1132 1.439 . S
C1133 C1151 1.392 . S
N1134 Co1118 2.282 . S
N1134 C1137 1.332 . S
N1134 C1139 1.332 . S
C1135 C1136 1.386 . S
C1135 C1138 1.388 . S
C1136 C1135 1.386 . S
C1136 C1137 1.382 . S
C1136 H1162 0.950 . S
C1137 N1134 1.332 . S
C1137 C1136 1.382 . S
C1137 H1148 0.952 . S
C1138 C1135 1.388 . S
C1138 C1139 1.382 . S
C1138 H1163 0.950 . S
C1139 N1134 1.332 . S
C1139 C1138 1.382 . S
C1139 H1149 0.948 . S
N1140 Co1118 2.282 . S
N1140 C1144 1.332 . S
N1140 C1145 1.332 . S
C1141 C1142 1.388 . S
C1141 C1145 1.382 . S
C1141 H1164 0.950 . S
C1142 C1141 1.388 . S
C1142 C1143 1.386 . S
C1143 C1142 1.386 . S
C1143 C1144 1.382 . S
C1143 H1165 0.950 . S
C1144 N1140 1.332 . S
C1144 C1143 1.382 . S
C1144 H1146 0.952 . S
C1145 N1140 1.332 . S
C1145 C1141 1.382 . S
C1145 H1147 0.948 . S
H1146 C1144 0.952 . S
H1147 C1145 0.948 . S
H1148 C1137 0.952 . S
H1149 C1139 0.948 . S
C1150 C1116 1.395 . S
C1150 C1120 1.391 . S
C1151 C1113 1.389 . S
C1151 C1133 1.392 . S
C1152 C1123 1.392 . S
C1152 C1125 1.389 . S
C1153 C1128 1.395 . S
C1153 C1130 1.391 . S
H1154 C1114 0.951 . S
H1155 C1115 0.950 . S
H1156 C1121 0.949 . S
H1157 C1122 0.950 . S
H1158 C1126 0.951 . S
H1159 C1127 0.950 . S
H1160 C1131 0.949 . S
H1161 C1132 0.950 . S
H1162 C1136 0.950 . S
H1163 C1138 0.950 . S
H1164 C1141 0.950 . S
H1165 C1143 0.950 . S
C1166 C1167 1.443 . S
C1166 N1170 1.376 . S
C1166 C1204 1.389 . S
C1167 C1166 1.443 . S
C1167 C1168 1.340 . S
C1167 H1207 0.951 . S
C1168 C1167 1.340 . S
C1168 C1169 1.439 . S
C1168 H1208 0.950 . S
C1169 C1168 1.439 . S
C1169 N1170 1.374 . S
C1169 C1203 1.395 . S
N1170 C1166 1.376 . S
N1170 C1169 1.374 . S
N1170 Co1171 2.008 . S
Co1171 N1170 2.008 . S
Co1171 N1172 1.995 . S
Co1171 N1177 2.008 . S
Co1171 N1182 1.995 . S
Co1171 N1187 2.282 . S
Co1171 N1193 2.282 . S
N1172 Co1171 1.995 . S
N1172 C1173 1.376 . S
N1172 C1176 1.383 . S
C1173 N1172 1.376 . S
C1173 C1174 1.446 . S
C1173 C1203 1.391 . S
C1174 C1173 1.446 . S
C1174 C1175 1.339 . S
C1174 H1209 0.949 . S
C1175 C1174 1.339 . S
C1175 C1176 1.439 . S
C1175 H1210 0.950 . S
C1176 N1172 1.383 . S
C1176 C1175 1.439 . S
C1176 C1205 1.392 . S
N1177 Co1171 2.008 . S
N1177 C1178 1.376 . S
N1177 C1181 1.374 . S
C1178 N1177 1.376 . S
C1178 C1179 1.443 . S
C1178 C1205 1.389 . S
C1179 C1178 1.443 . S
C1179 C1180 1.340 . S
C1179 H1211 0.951 . S
C1180 C1179 1.340 . S
C1180 C1181 1.439 . S
C1180 H1212 0.950 . S
C1181 N1177 1.374 . S
C1181 C1180 1.439 . S
C1181 C1206 1.395 . S
N1182 Co1171 1.995 . S
N1182 C1183 1.376 . S
N1182 C1186 1.383 . S
C1183 N1182 1.376 . S
C1183 C1184 1.446 . S
C1183 C1206 1.391 . S
C1184 C1183 1.446 . S
C1184 C1185 1.339 . S
C1184 H1213 0.949 . S
C1185 C1184 1.339 . S
C1185 C1186 1.439 . S
C1185 H1214 0.950 . S
C1186 N1182 1.383 . S
C1186 C1185 1.439 . S
C1186 C1204 1.392 . S
N1187 Co1171 2.282 . S
N1187 C1190 1.332 . S
N1187 C1192 1.332 . S
C1188 C1189 1.386 . S
C1188 C1191 1.388 . S
C1189 C1188 1.386 . S
C1189 C1190 1.382 . S
C1189 H1215 0.950 . S
C1190 N1187 1.332 . S
C1190 C1189 1.382 . S
C1190 H1201 0.952 . S
C1191 C1188 1.388 . S
C1191 C1192 1.382 . S
C1191 H1216 0.950 . S
C1192 N1187 1.332 . S
C1192 C1191 1.382 . S
C1192 H1202 0.948 . S
N1193 Co1171 2.282 . S
N1193 C1197 1.332 . S
N1193 C1198 1.332 . S
C1194 C1195 1.388 . S
C1194 C1198 1.382 . S
C1194 H1217 0.950 . S
C1195 C1194 1.388 . S
C1195 C1196 1.386 . S
C1196 C1195 1.386 . S
C1196 C1197 1.382 . S
C1196 H1218 0.950 . S
C1197 N1193 1.332 . S
C1197 C1196 1.382 . S
C1197 H1199 0.952 . S
C1198 N1193 1.332 . S
C1198 C1194 1.382 . S
C1198 H1200 0.948 . S
H1199 C1197 0.952 . S
H1200 C1198 0.948 . S
H1201 C1190 0.952 . S
H1202 C1192 0.948 . S
C1203 C1169 1.395 . S
C1203 C1173 1.391 . S
C1204 C1166 1.389 . S
C1204 C1186 1.392 . S
C1205 C1176 1.392 . S
C1205 C1178 1.389 . S
C1206 C1181 1.395 . S
C1206 C1183 1.391 . S
H1207 C1167 0.951 . S
H1208 C1168 0.950 . S
H1209 C1174 0.949 . S
H1210 C1175 0.950 . S
H1211 C1179 0.951 . S
H1212 C1180 0.950 . S
H1213 C1184 0.949 . S
H1214 C1185 0.950 . S
H1215 C1189 0.950 . S
H1216 C1191 0.950 . S
H1217 C1194 0.950 . S
H1218 C1196 0.950 . S
C1219 C1220 1.443 . S
C1219 N1223 1.376 . S
C1219 C1257 1.389 . S
C1220 C1219 1.443 . S
C1220 C1221 1.340 . S
C1220 H1260 0.951 . S
C1221 C1220 1.340 . S
C1221 C1222 1.439 . S
C1221 H1261 0.950 . S
C1222 C1221 1.439 . S
C1222 N1223 1.374 . S
C1222 C1256 1.395 . S
N1223 C1219 1.376 . S
N1223 C1222 1.374 . S
N1223 Co1224 2.008 . S
Co1224 N1223 2.008 . S
Co1224 N1225 1.995 . S
Co1224 N1230 2.008 . S
Co1224 N1235 1.995 . S
Co1224 N1240 2.282 . S
Co1224 N1246 2.282 . S
N1225 Co1224 1.995 . S
N1225 C1226 1.376 . S
N1225 C1229 1.383 . S
C1226 N1225 1.376 . S
C1226 C1227 1.446 . S
C1226 C1256 1.391 . S
C1227 C1226 1.446 . S
C1227 C1228 1.339 . S
C1227 H1262 0.949 . S
C1228 C1227 1.339 . S
C1228 C1229 1.439 . S
C1228 H1263 0.950 . S
C1229 N1225 1.383 . S
C1229 C1228 1.439 . S
C1229 C1258 1.392 . S
N1230 Co1224 2.008 . S
N1230 C1231 1.376 . S
N1230 C1234 1.374 . S
C1231 N1230 1.376 . S
C1231 C1232 1.443 . S
C1231 C1258 1.389 . S
C1232 C1231 1.443 . S
C1232 C1233 1.340 . S
C1232 H1264 0.951 . S
C1233 C1232 1.340 . S
C1233 C1234 1.439 . S
C1233 H1265 0.950 . S
C1234 N1230 1.374 . S
C1234 C1233 1.439 . S
C1234 C1259 1.395 . S
N1235 Co1224 1.995 . S
N1235 C1236 1.376 . S
N1235 C1239 1.383 . S
C1236 N1235 1.376 . S
C1236 C1237 1.446 . S
C1236 C1259 1.391 . S
C1237 C1236 1.446 . S
C1237 C1238 1.339 . S
C1237 H1266 0.949 . S
C1238 C1237 1.339 . S
C1238 C1239 1.439 . S
C1238 H1267 0.950 . S
C1239 N1235 1.383 . S
C1239 C1238 1.439 . S
C1239 C1257 1.392 . S
N1240 Co1224 2.282 . S
N1240 C1243 1.332 . S
N1240 C1245 1.332 . S
C1241 C1242 1.386 . S
C1241 C1244 1.388 . S
C1242 C1241 1.386 . S
C1242 C1243 1.382 . S
C1242 H1268 0.950 . S
C1243 N1240 1.332 . S
C1243 C1242 1.382 . S
C1243 H1254 0.952 . S
C1244 C1241 1.388 . S
C1244 C1245 1.382 . S
C1244 H1269 0.950 . S
C1245 N1240 1.332 . S
C1245 C1244 1.382 . S
C1245 H1255 0.948 . S
N1246 Co1224 2.282 . S
N1246 C1250 1.332 . S
N1246 C1251 1.332 . S
C1247 C1248 1.388 . S
C1247 C1251 1.382 . S
C1247 H1270 0.950 . S
C1248 C1247 1.388 . S
C1248 C1249 1.386 . S
C1249 C1248 1.386 . S
C1249 C1250 1.382 . S
C1249 H1271 0.950 . S
C1250 N1246 1.332 . S
C1250 C1249 1.382 . S
C1250 H1252 0.952 . S
C1251 N1246 1.332 . S
C1251 C1247 1.382 . S
C1251 H1253 0.948 . S
H1252 C1250 0.952 . S
H1253 C1251 0.948 . S
H1254 C1243 0.952 . S
H1255 C1245 0.948 . S
C1256 C1222 1.395 . S
C1256 C1226 1.391 . S
C1257 C1219 1.389 . S
C1257 C1239 1.392 . S
C1258 C1229 1.392 . S
C1258 C1231 1.389 . S
C1259 C1234 1.395 . S
C1259 C1236 1.391 . S
H1260 C1220 0.951 . S
H1261 C1221 0.950 . S
H1262 C1227 0.949 . S
H1263 C1228 0.950 . S
H1264 C1232 0.951 . S
H1265 C1233 0.950 . S
H1266 C1237 0.949 . S
H1267 C1238 0.950 . S
H1268 C1242 0.950 . S
H1269 C1244 0.950 . S
H1270 C1247 0.950 . S
H1271 C1249 0.950 . S
H1272 C1280 0.929 . S
H1273 C1282 0.930 . S
H1274 C1284 0.930 . S
H1275 C1287 0.929 . S
H1276 C1290 0.930 . S
H1277 C1292 0.960 . S
H1278 C1292 0.960 . S
H1279 C1292 0.960 . S
C1280 H1272 0.929 . S
C1280 C1281 1.377 . S
C1280 C1282 1.384 . S
C1281 C1280 1.377 . S
C1281 C1287 1.390 . S
C1282 H1273 0.930 . S
C1282 C1280 1.384 . S
C1282 C1283 1.372 . S
C1283 C1282 1.372 . S
C1283 C1284 1.400 . S
C1283 C1288 1.490 . S
C1284 H1274 0.930 . S
C1284 C1283 1.400 . S
C1284 C1287 1.386 . S
H1285 C1301 0.930 . S
H1286 C1302 0.931 . S
C1287 H1275 0.929 . S
C1287 C1281 1.390 . S
C1287 C1284 1.386 . S
C1288 C1283 1.490 . S
C1288 C1290 1.395 . S
C1288 C1291 1.403 . S
H1289 C1295 0.930 . S
C1290 H1276 0.930 . S
C1290 C1288 1.395 . S
C1290 C1293 1.403 . S
C1291 C1288 1.403 . S
C1291 C1292 1.524 . S
C1291 C1295 1.400 . S
C1292 H1277 0.960 . S
C1292 H1278 0.960 . S
C1292 H1279 0.960 . S
C1292 C1291 1.524 . S
C1293 C1290 1.403 . S
C1293 C1294 1.392 . S
C1293 C1297 1.495 . S
C1294 C1293 1.392 . S
C1294 C1295 1.385 . S
C1294 C1296 1.478 . S
C1295 H1289 0.930 . S
C1295 C1291 1.400 . S
C1295 C1294 1.385 . S
C1296 C1294 1.478 . S
C1296 C1298 1.381 . S
C1296 C1302 1.383 . S
C1297 C1293 1.495 . S
C1297 H1303 0.959 . S
C1297 H1304 0.961 . S
C1297 H1305 0.960 . S
C1298 C1296 1.381 . S
C1298 C1299 1.394 . S
C1298 H1306 0.930 . S
C1299 C1298 1.394 . S
C1299 C1300 1.383 . S
C1299 H1307 0.929 . S
C1300 C1299 1.383 . S
C1300 C1301 1.377 . S
C1301 H1285 0.930 . S
C1301 C1300 1.377 . S
C1301 C1302 1.379 . S
C1302 H1286 0.931 . S
C1302 C1296 1.383 . S
C1302 C1301 1.379 . S
H1303 C1297 0.959 . S
H1304 C1297 0.961 . S
H1305 C1297 0.960 . S
H1306 C1298 0.930 . S
H1307 C1299 0.929 . S
H1308 C1316 0.929 . S
H1309 C1318 0.930 . S
H1310 C1320 0.930 . S
H1311 C1323 0.929 . S
H1312 C1326 0.930 . S
H1313 C1328 0.960 . S
H1314 C1328 0.960 . S
H1315 C1328 0.960 . S
C1316 H1308 0.929 . S
C1316 C1317 1.377 . S
C1316 C1318 1.384 . S
C1317 C1316 1.377 . S
C1317 C1323 1.390 . S
C1318 H1309 0.930 . S
C1318 C1316 1.384 . S
C1318 C1319 1.372 . S
C1319 C1318 1.372 . S
C1319 C1320 1.400 . S
C1319 C1324 1.490 . S
C1320 H1310 0.930 . S
C1320 C1319 1.400 . S
C1320 C1323 1.386 . S
H1321 C1337 0.930 . S
H1322 C1338 0.931 . S
C1323 H1311 0.929 . S
C1323 C1317 1.390 . S
C1323 C1320 1.386 . S
C1324 C1319 1.490 . S
C1324 C1326 1.395 . S
C1324 C1327 1.403 . S
H1325 C1331 0.930 . S
C1326 H1312 0.930 . S
C1326 C1324 1.395 . S
C1326 C1329 1.403 . S
C1327 C1324 1.403 . S
C1327 C1328 1.524 . S
C1327 C1331 1.400 . S
C1328 H1313 0.960 . S
C1328 H1314 0.960 . S
C1328 H1315 0.960 . S
C1328 C1327 1.524 . S
C1329 C1326 1.403 . S
C1329 C1330 1.392 . S
C1329 C1333 1.495 . S
C1330 C1329 1.392 . S
C1330 C1331 1.385 . S
C1330 C1332 1.478 . S
C1331 H1325 0.930 . S
C1331 C1327 1.400 . S
C1331 C1330 1.385 . S
C1332 C1330 1.478 . S
C1332 C1334 1.381 . S
C1332 C1338 1.383 . S
C1333 C1329 1.495 . S
C1333 H1339 0.959 . S
C1333 H1340 0.961 . S
C1333 H1341 0.960 . S
C1334 C1332 1.381 . S
C1334 C1335 1.394 . S
C1334 H1342 0.930 . S
C1335 C1334 1.394 . S
C1335 C1336 1.383 . S
C1335 H1343 0.929 . S
C1336 C1335 1.383 . S
C1336 C1337 1.377 . S
C1337 H1321 0.930 . S
C1337 C1336 1.377 . S
C1337 C1338 1.379 . S
C1338 H1322 0.931 . S
C1338 C1332 1.383 . S
C1338 C1337 1.379 . S
H1339 C1333 0.959 . S
H1340 C1333 0.961 . S
H1341 C1333 0.960 . S
H1342 C1334 0.930 . S
H1343 C1335 0.929 . S
H1344 C1352 0.929 . S
H1345 C1354 0.930 . S
H1346 C1356 0.930 . S
H1347 C1359 0.929 . S
H1348 C1362 0.930 . S
H1349 C1364 0.960 . S
H1350 C1364 0.960 . S
H1351 C1364 0.960 . S
C1352 H1344 0.929 . S
C1352 C1353 1.377 . S
C1352 C1354 1.384 . S
C1353 C1352 1.377 . S
C1353 C1359 1.390 . S
C1354 H1345 0.930 . S
C1354 C1352 1.384 . S
C1354 C1355 1.372 . S
C1355 C1354 1.372 . S
C1355 C1356 1.400 . S
C1355 C1360 1.490 . S
C1356 H1346 0.930 . S
C1356 C1355 1.400 . S
C1356 C1359 1.386 . S
H1357 C1373 0.930 . S
H1358 C1374 0.931 . S
C1359 H1347 0.929 . S
C1359 C1353 1.390 . S
C1359 C1356 1.386 . S
C1360 C1355 1.490 . S
C1360 C1362 1.395 . S
C1360 C1363 1.403 . S
H1361 C1367 0.930 . S
C1362 H1348 0.930 . S
C1362 C1360 1.395 . S
C1362 C1365 1.403 . S
C1363 C1360 1.403 . S
C1363 C1364 1.524 . S
C1363 C1367 1.400 . S
C1364 H1349 0.960 . S
C1364 H1350 0.960 . S
C1364 H1351 0.960 . S
C1364 C1363 1.524 . S
C1365 C1362 1.403 . S
C1365 C1366 1.392 . S
C1365 C1369 1.495 . S
C1366 C1365 1.392 . S
C1366 C1367 1.385 . S
C1366 C1368 1.478 . S
C1367 H1361 0.930 . S
C1367 C1363 1.400 . S
C1367 C1366 1.385 . S
C1368 C1366 1.478 . S
C1368 C1370 1.381 . S
C1368 C1374 1.383 . S
C1369 C1365 1.495 . S
C1369 H1375 0.959 . S
C1369 H1376 0.961 . S
C1369 H1377 0.960 . S
C1370 C1368 1.381 . S
C1370 C1371 1.394 . S
C1370 H1378 0.930 . S
C1371 C1370 1.394 . S
C1371 C1372 1.383 . S
C1371 H1379 0.929 . S
C1372 C1371 1.383 . S
C1372 C1373 1.377 . S
C1373 H1357 0.930 . S
C1373 C1372 1.377 . S
C1373 C1374 1.379 . S
C1374 H1358 0.931 . S
C1374 C1368 1.383 . S
C1374 C1373 1.379 . S
H1375 C1369 0.959 . S
H1376 C1369 0.961 . S
H1377 C1369 0.960 . S
H1378 C1370 0.930 . S
H1379 C1371 0.929 . S
H1380 C1388 0.929 . S
H1381 C1390 0.930 . S
H1382 C1392 0.930 . S
H1383 C1395 0.929 . S
H1384 C1398 0.930 . S
H1385 C1400 0.960 . S
H1386 C1400 0.960 . S
H1387 C1400 0.960 . S
C1388 H1380 0.929 . S
C1388 C1389 1.377 . S
C1388 C1390 1.384 . S
C1389 C1388 1.377 . S
C1389 C1395 1.390 . S
C1390 H1381 0.930 . S
C1390 C1388 1.384 . S
C1390 C1391 1.372 . S
C1391 C1390 1.372 . S
C1391 C1392 1.400 . S
C1391 C1396 1.490 . S
C1392 H1382 0.930 . S
C1392 C1391 1.400 . S
C1392 C1395 1.386 . S
H1393 C1409 0.930 . S
H1394 C1410 0.931 . S
C1395 H1383 0.929 . S
C1395 C1389 1.390 . S
C1395 C1392 1.386 . S
C1396 C1391 1.490 . S
C1396 C1398 1.395 . S
C1396 C1399 1.403 . S
H1397 C1403 0.930 . S
C1398 H1384 0.930 . S
C1398 C1396 1.395 . S
C1398 C1401 1.403 . S
C1399 C1396 1.403 . S
C1399 C1400 1.524 . S
C1399 C1403 1.400 . S
C1400 H1385 0.960 . S
C1400 H1386 0.960 . S
C1400 H1387 0.960 . S
C1400 C1399 1.524 . S
C1401 C1398 1.403 . S
C1401 C1402 1.392 . S
C1401 C1405 1.495 . S
C1402 C1401 1.392 . S
C1402 C1403 1.385 . S
C1402 C1404 1.478 . S
C1403 H1397 0.930 . S
C1403 C1399 1.400 . S
C1403 C1402 1.385 . S
C1404 C1402 1.478 . S
C1404 C1406 1.381 . S
C1404 C1410 1.383 . S
C1405 C1401 1.495 . S
C1405 H1411 0.959 . S
C1405 H1412 0.961 . S
C1405 H1413 0.960 . S
C1406 C1404 1.381 . S
C1406 C1407 1.394 . S
C1406 H1414 0.930 . S
C1407 C1406 1.394 . S
C1407 C1408 1.383 . S
C1407 H1415 0.929 . S
C1408 C1407 1.383 . S
C1408 C1409 1.377 . S
C1409 H1393 0.930 . S
C1409 C1408 1.377 . S
C1409 C1410 1.379 . S
C1410 H1394 0.931 . S
C1410 C1404 1.383 . S
C1410 C1409 1.379 . S
H1411 C1405 0.959 . S
H1412 C1405 0.961 . S
H1413 C1405 0.960 . S
H1414 C1406 0.930 . S
H1415 C1407 0.929 . S
H1416 C1424 0.929 . S
H1417 C1426 0.930 . S
H1418 C1428 0.930 . S
H1419 C1431 0.929 . S
H1420 C1434 0.930 . S
H1421 C1436 0.960 . S
H1422 C1436 0.960 . S
H1423 C1436 0.960 . S
C1424 H1416 0.929 . S
C1424 C1425 1.377 . S
C1424 C1426 1.384 . S
C1425 C1424 1.377 . S
C1425 C1431 1.390 . S
C1426 H1417 0.930 . S
C1426 C1424 1.384 . S
C1426 C1427 1.372 . S
C1427 C1426 1.372 . S
C1427 C1428 1.400 . S
C1427 C1432 1.490 . S
C1428 H1418 0.930 . S
C1428 C1427 1.400 . S
C1428 C1431 1.386 . S
H1429 C1445 0.930 . S
H1430 C1446 0.931 . S
C1431 H1419 0.929 . S
C1431 C1425 1.390 . S
C1431 C1428 1.386 . S
C1432 C1427 1.490 . S
C1432 C1434 1.395 . S
C1432 C1435 1.403 . S
H1433 C1439 0.930 . S
C1434 H1420 0.930 . S
C1434 C1432 1.395 . S
C1434 C1437 1.403 . S
C1435 C1432 1.403 . S
C1435 C1436 1.524 . S
C1435 C1439 1.400 . S
C1436 H1421 0.960 . S
C1436 H1422 0.960 . S
C1436 H1423 0.960 . S
C1436 C1435 1.524 . S
C1437 C1434 1.403 . S
C1437 C1438 1.392 . S
C1437 C1441 1.495 . S
C1438 C1437 1.392 . S
C1438 C1439 1.385 . S
C1438 C1440 1.478 . S
C1439 H1433 0.930 . S
C1439 C1435 1.400 . S
C1439 C1438 1.385 . S
C1440 C1438 1.478 . S
C1440 C1442 1.381 . S
C1440 C1446 1.383 . S
C1441 C1437 1.495 . S
C1441 H1447 0.959 . S
C1441 H1448 0.961 . S
C1441 H1449 0.960 . S
C1442 C1440 1.381 . S
C1442 C1443 1.394 . S
C1442 H1450 0.930 . S
C1443 C1442 1.394 . S
C1443 C1444 1.383 . S
C1443 H1451 0.929 . S
C1444 C1443 1.383 . S
C1444 C1445 1.377 . S
C1445 H1429 0.930 . S
C1445 C1444 1.377 . S
C1445 C1446 1.379 . S
C1446 H1430 0.931 . S
C1446 C1440 1.383 . S
C1446 C1445 1.379 . S
H1447 C1441 0.959 . S
H1448 C1441 0.961 . S
H1449 C1441 0.960 . S
H1450 C1442 0.930 . S
H1451 C1443 0.929 . S
H1452 C1460 0.929 . S
H1453 C1462 0.930 . S
H1454 C1464 0.930 . S
H1455 C1467 0.929 . S
H1456 C1470 0.930 . S
H1457 C1472 0.960 . S
H1458 C1472 0.960 . S
H1459 C1472 0.960 . S
C1460 H1452 0.929 . S
C1460 C1461 1.377 . S
C1460 C1462 1.384 . S
C1461 C1460 1.377 . S
C1461 C1467 1.390 . S
C1462 H1453 0.930 . S
C1462 C1460 1.384 . S
C1462 C1463 1.372 . S
C1463 C1462 1.372 . S
C1463 C1464 1.400 . S
C1463 C1468 1.490 . S
C1464 H1454 0.930 . S
C1464 C1463 1.400 . S
C1464 C1467 1.386 . S
H1465 C1481 0.930 . S
H1466 C1482 0.931 . S
C1467 H1455 0.929 . S
C1467 C1461 1.390 . S
C1467 C1464 1.386 . S
C1468 C1463 1.490 . S
C1468 C1470 1.395 . S
C1468 C1471 1.403 . S
H1469 C1475 0.930 . S
C1470 H1456 0.930 . S
C1470 C1468 1.395 . S
C1470 C1473 1.403 . S
C1471 C1468 1.403 . S
C1471 C1472 1.524 . S
C1471 C1475 1.400 . S
C1472 H1457 0.960 . S
C1472 H1458 0.960 . S
C1472 H1459 0.960 . S
C1472 C1471 1.524 . S
C1473 C1470 1.403 . S
C1473 C1474 1.392 . S
C1473 C1477 1.495 . S
C1474 C1473 1.392 . S
C1474 C1475 1.385 . S
C1474 C1476 1.478 . S
C1475 H1469 0.930 . S
C1475 C1471 1.400 . S
C1475 C1474 1.385 . S
C1476 C1474 1.478 . S
C1476 C1478 1.381 . S
C1476 C1482 1.383 . S
C1477 C1473 1.495 . S
C1477 H1483 0.959 . S
C1477 H1484 0.961 . S
C1477 H1485 0.960 . S
C1478 C1476 1.381 . S
C1478 C1479 1.394 . S
C1478 H1486 0.930 . S
C1479 C1478 1.394 . S
C1479 C1480 1.383 . S
C1479 H1487 0.929 . S
C1480 C1479 1.383 . S
C1480 C1481 1.377 . S
C1481 H1465 0.930 . S
C1481 C1480 1.377 . S
C1481 C1482 1.379 . S
C1482 H1466 0.931 . S
C1482 C1476 1.383 . S
C1482 C1481 1.379 . S
H1483 C1477 0.959 . S
H1484 C1477 0.961 . S
H1485 C1477 0.960 . S
H1486 C1478 0.930 . S
H1487 C1479 0.929 . S
H1488 C1496 0.929 . S
H1489 C1498 0.930 . S
H1490 C1500 0.930 . S
H1491 C1503 0.929 . S
H1492 C1506 0.930 . S
H1493 C1508 0.960 . S
H1494 C1508 0.960 . S
H1495 C1508 0.960 . S
C1496 H1488 0.929 . S
C1496 C1497 1.377 . S
C1496 C1498 1.384 . S
C1497 C1496 1.377 . S
C1497 C1503 1.390 . S
C1498 H1489 0.930 . S
C1498 C1496 1.384 . S
C1498 C1499 1.372 . S
C1499 C1498 1.372 . S
C1499 C1500 1.400 . S
C1499 C1504 1.490 . S
C1500 H1490 0.930 . S
C1500 C1499 1.400 . S
C1500 C1503 1.386 . S
H1501 C1517 0.930 . S
H1502 C1518 0.931 . S
C1503 H1491 0.929 . S
C1503 C1497 1.390 . S
C1503 C1500 1.386 . S
C1504 C1499 1.490 . S
C1504 C1506 1.395 . S
C1504 C1507 1.403 . S
H1505 C1511 0.930 . S
C1506 H1492 0.930 . S
C1506 C1504 1.395 . S
C1506 C1509 1.403 . S
C1507 C1504 1.403 . S
C1507 C1508 1.524 . S
C1507 C1511 1.400 . S
C1508 H1493 0.960 . S
C1508 H1494 0.960 . S
C1508 H1495 0.960 . S
C1508 C1507 1.524 . S
C1509 C1506 1.403 . S
C1509 C1510 1.392 . S
C1509 C1513 1.495 . S
C1510 C1509 1.392 . S
C1510 C1511 1.385 . S
C1510 C1512 1.478 . S
C1511 H1505 0.930 . S
C1511 C1507 1.400 . S
C1511 C1510 1.385 . S
C1512 C1510 1.478 . S
C1512 C1514 1.381 . S
C1512 C1518 1.383 . S
C1513 C1509 1.495 . S
C1513 H1519 0.959 . S
C1513 H1520 0.961 . S
C1513 H1521 0.960 . S
C1514 C1512 1.381 . S
C1514 C1515 1.394 . S
C1514 H1522 0.930 . S
C1515 C1514 1.394 . S
C1515 C1516 1.383 . S
C1515 H1523 0.929 . S
C1516 C1515 1.383 . S
C1516 C1517 1.377 . S
C1517 H1501 0.930 . S
C1517 C1516 1.377 . S
C1517 C1518 1.379 . S
C1518 H1502 0.931 . S
C1518 C1512 1.383 . S
C1518 C1517 1.379 . S
H1519 C1513 0.959 . S
H1520 C1513 0.961 . S
H1521 C1513 0.960 . S
H1522 C1514 0.930 . S
H1523 C1515 0.929 . S
H1524 C1532 0.929 . S
H1525 C1534 0.930 . S
H1526 C1536 0.930 . S
H1527 C1539 0.929 . S
H1528 C1542 0.930 . S
H1529 C1544 0.960 . S
H1530 C1544 0.960 . S
H1531 C1544 0.960 . S
C1532 H1524 0.929 . S
C1532 C1533 1.377 . S
C1532 C1534 1.384 . S
C1533 C1532 1.377 . S
C1533 C1539 1.390 . S
C1534 H1525 0.930 . S
C1534 C1532 1.384 . S
C1534 C1535 1.372 . S
C1535 C1534 1.372 . S
C1535 C1536 1.400 . S
C1535 C1540 1.490 . S
C1536 H1526 0.930 . S
C1536 C1535 1.400 . S
C1536 C1539 1.386 . S
H1537 C1553 0.930 . S
H1538 C1554 0.931 . S
C1539 H1527 0.929 . S
C1539 C1533 1.390 . S
C1539 C1536 1.386 . S
C1540 C1535 1.490 . S
C1540 C1542 1.395 . S
C1540 C1543 1.403 . S
H1541 C1547 0.930 . S
C1542 H1528 0.930 . S
C1542 C1540 1.395 . S
C1542 C1545 1.403 . S
C1543 C1540 1.403 . S
C1543 C1544 1.524 . S
C1543 C1547 1.400 . S
C1544 H1529 0.960 . S
C1544 H1530 0.960 . S
C1544 H1531 0.960 . S
C1544 C1543 1.524 . S
C1545 C1542 1.403 . S
C1545 C1546 1.392 . S
C1545 C1549 1.495 . S
C1546 C1545 1.392 . S
C1546 C1547 1.385 . S
C1546 C1548 1.478 . S
C1547 H1541 0.930 . S
C1547 C1543 1.400 . S
C1547 C1546 1.385 . S
C1548 C1546 1.478 . S
C1548 C1550 1.381 . S
C1548 C1554 1.383 . S
C1549 C1545 1.495 . S
C1549 H1555 0.959 . S
C1549 H1556 0.961 . S
C1549 H1557 0.960 . S
C1550 C1548 1.381 . S
C1550 C1551 1.394 . S
C1550 H1558 0.930 . S
C1551 C1550 1.394 . S
C1551 C1552 1.383 . S
C1551 H1559 0.929 . S
C1552 C1551 1.383 . S
C1552 C1553 1.377 . S
C1553 H1537 0.930 . S
C1553 C1552 1.377 . S
C1553 C1554 1.379 . S
C1554 H1538 0.931 . S
C1554 C1548 1.383 . S
C1554 C1553 1.379 . S
H1555 C1549 0.959 . S
H1556 C1549 0.961 . S
H1557 C1549 0.960 . S
H1558 C1550 0.930 . S
H1559 C1551 0.929 . S
H1560 C1568 0.929 . S
H1561 C1570 0.930 . S
H1562 C1572 0.930 . S
H1563 C1575 0.929 . S
H1564 C1578 0.930 . S
H1565 C1580 0.960 . S
H1566 C1580 0.960 . S
H1567 C1580 0.960 . S
C1568 H1560 0.929 . S
C1568 C1569 1.377 . S
C1568 C1570 1.384 . S
C1569 C1568 1.377 . S
C1569 C1575 1.390 . S
C1570 H1561 0.930 . S
C1570 C1568 1.384 . S
C1570 C1571 1.372 . S
C1571 C1570 1.372 . S
C1571 C1572 1.400 . S
C1571 C1576 1.490 . S
C1572 H1562 0.930 . S
C1572 C1571 1.400 . S
C1572 C1575 1.386 . S
H1573 C1589 0.930 . S
H1574 C1590 0.931 . S
C1575 H1563 0.929 . S
C1575 C1569 1.390 . S
C1575 C1572 1.386 . S
C1576 C1571 1.490 . S
C1576 C1578 1.395 . S
C1576 C1579 1.403 . S
H1577 C1583 0.930 . S
C1578 H1564 0.930 . S
C1578 C1576 1.395 . S
C1578 C1581 1.403 . S
C1579 C1576 1.403 . S
C1579 C1580 1.524 . S
C1579 C1583 1.400 . S
C1580 H1565 0.960 . S
C1580 H1566 0.960 . S
C1580 H1567 0.960 . S
C1580 C1579 1.524 . S
C1581 C1578 1.403 . S
C1581 C1582 1.392 . S
C1581 C1585 1.495 . S
C1582 C1581 1.392 . S
C1582 C1583 1.385 . S
C1582 C1584 1.478 . S
C1583 H1577 0.930 . S
C1583 C1579 1.400 . S
C1583 C1582 1.385 . S
C1584 C1582 1.478 . S
C1584 C1586 1.381 . S
C1584 C1590 1.383 . S
C1585 C1581 1.495 . S
C1585 H1591 0.959 . S
C1585 H1592 0.961 . S
C1585 H1593 0.960 . S
C1586 C1584 1.381 . S
C1586 C1587 1.394 . S
C1586 H1594 0.930 . S
C1587 C1586 1.394 . S
C1587 C1588 1.383 . S
C1587 H1595 0.929 . S
C1588 C1587 1.383 . S
C1588 C1589 1.377 . S
C1589 H1573 0.930 . S
C1589 C1588 1.377 . S
C1589 C1590 1.379 . S
C1590 H1574 0.931 . S
C1590 C1584 1.383 . S
C1590 C1589 1.379 . S
H1591 C1585 0.959 . S
H1592 C1585 0.961 . S
H1593 C1585 0.960 . S
H1594 C1586 0.930 . S
H1595 C1587 0.929 . S
H1596 C1604 0.929 . S
H1597 C1606 0.930 . S
H1598 C1608 0.930 . S
H1599 C1611 0.929 . S
H1600 C1614 0.930 . S
H1601 C1616 0.960 . S
H1602 C1616 0.960 . S
H1603 C1616 0.960 . S
C1604 H1596 0.929 . S
C1604 C1605 1.377 . S
C1604 C1606 1.384 . S
C1605 C1604 1.377 . S
C1605 C1611 1.390 . S
C1606 H1597 0.930 . S
C1606 C1604 1.384 . S
C1606 C1607 1.372 . S
C1607 C1606 1.372 . S
C1607 C1608 1.400 . S
C1607 C1612 1.490 . S
C1608 H1598 0.930 . S
C1608 C1607 1.400 . S
C1608 C1611 1.386 . S
H1609 C1625 0.930 . S
H1610 C1626 0.931 . S
C1611 H1599 0.929 . S
C1611 C1605 1.390 . S
C1611 C1608 1.386 . S
C1612 C1607 1.490 . S
C1612 C1614 1.395 . S
C1612 C1615 1.403 . S
H1613 C1619 0.930 . S
C1614 H1600 0.930 . S
C1614 C1612 1.395 . S
C1614 C1617 1.403 . S
C1615 C1612 1.403 . S
C1615 C1616 1.524 . S
C1615 C1619 1.400 . S
C1616 H1601 0.960 . S
C1616 H1602 0.960 . S
C1616 H1603 0.960 . S
C1616 C1615 1.524 . S
C1617 C1614 1.403 . S
C1617 C1618 1.392 . S
C1617 C1621 1.495 . S
C1618 C1617 1.392 . S
C1618 C1619 1.385 . S
C1618 C1620 1.478 . S
C1619 H1613 0.930 . S
C1619 C1615 1.400 . S
C1619 C1618 1.385 . S
C1620 C1618 1.478 . S
C1620 C1622 1.381 . S
C1620 C1626 1.383 . S
C1621 C1617 1.495 . S
C1621 H1627 0.959 . S
C1621 H1628 0.961 . S
C1621 H1629 0.960 . S
C1622 C1620 1.381 . S
C1622 C1623 1.394 . S
C1622 H1630 0.930 . S
C1623 C1622 1.394 . S
C1623 C1624 1.383 . S
C1623 H1631 0.929 . S
C1624 C1623 1.383 . S
C1624 C1625 1.377 . S
C1625 H1609 0.930 . S
C1625 C1624 1.377 . S
C1625 C1626 1.379 . S
C1626 H1610 0.931 . S
C1626 C1620 1.383 . S
C1626 C1625 1.379 . S
H1627 C1621 0.959 . S
H1628 C1621 0.961 . S
H1629 C1621 0.960 . S
H1630 C1622 0.930 . S
H1631 C1623 0.929 . S
H1632 C1640 0.929 . S
H1633 C1642 0.930 . S
H1634 C1644 0.930 . S
H1635 C1647 0.929 . S
H1636 C1650 0.930 . S
H1637 C1652 0.960 . S
H1638 C1652 0.960 . S
H1639 C1652 0.960 . S
C1640 H1632 0.929 . S
C1640 C1641 1.377 . S
C1640 C1642 1.384 . S
C1641 C1640 1.377 . S
C1641 C1647 1.390 . S
C1642 H1633 0.930 . S
C1642 C1640 1.384 . S
C1642 C1643 1.372 . S
C1643 C1642 1.372 . S
C1643 C1644 1.400 . S
C1643 C1648 1.490 . S
C1644 H1634 0.930 . S
C1644 C1643 1.400 . S
C1644 C1647 1.386 . S
H1645 C1661 0.930 . S
H1646 C1662 0.931 . S
C1647 H1635 0.929 . S
C1647 C1641 1.390 . S
C1647 C1644 1.386 . S
C1648 C1643 1.490 . S
C1648 C1650 1.395 . S
C1648 C1651 1.403 . S
H1649 C1655 0.930 . S
C1650 H1636 0.930 . S
C1650 C1648 1.395 . S
C1650 C1653 1.403 . S
C1651 C1648 1.403 . S
C1651 C1652 1.524 . S
C1651 C1655 1.400 . S
C1652 H1637 0.960 . S
C1652 H1638 0.960 . S
C1652 H1639 0.960 . S
C1652 C1651 1.524 . S
C1653 C1650 1.403 . S
C1653 C1654 1.392 . S
C1653 C1657 1.495 . S
C1654 C1653 1.392 . S
C1654 C1655 1.385 . S
C1654 C1656 1.478 . S
C1655 H1649 0.930 . S
C1655 C1651 1.400 . S
C1655 C1654 1.385 . S
C1656 C1654 1.478 . S
C1656 C1658 1.381 . S
C1656 C1662 1.383 . S
C1657 C1653 1.495 . S
C1657 H1663 0.959 . S
C1657 H1664 0.961 . S
C1657 H1665 0.960 . S
C1658 C1656 1.381 . S
C1658 C1659 1.394 . S
C1658 H1666 0.930 . S
C1659 C1658 1.394 . S
C1659 C1660 1.383 . S
C1659 H1667 0.929 . S
C1660 C1659 1.383 . S
C1660 C1661 1.377 . S
C1661 H1645 0.930 . S
C1661 C1660 1.377 . S
C1661 C1662 1.379 . S
C1662 H1646 0.931 . S
C1662 C1656 1.383 . S
C1662 C1661 1.379 . S
H1663 C1657 0.959 . S
H1664 C1657 0.961 . S
H1665 C1657 0.960 . S
H1666 C1658 0.930 . S
H1667 C1659 0.929 . S
H1668 C1676 0.929 . S
H1669 C1678 0.930 . S
H1670 C1680 0.930 . S
H1671 C1683 0.929 . S
H1672 C1686 0.930 . S
H1673 C1688 0.960 . S
H1674 C1688 0.960 . S
H1675 C1688 0.960 . S
C1676 H1668 0.929 . S
C1676 C1677 1.377 . S
C1676 C1678 1.384 . S
C1677 C1676 1.377 . S
C1677 C1683 1.390 . S
C1678 H1669 0.930 . S
C1678 C1676 1.384 . S
C1678 C1679 1.372 . S
C1679 C1678 1.372 . S
C1679 C1680 1.400 . S
C1679 C1684 1.490 . S
C1680 H1670 0.930 . S
C1680 C1679 1.400 . S
C1680 C1683 1.386 . S
H1681 C1697 0.930 . S
H1682 C1698 0.931 . S
C1683 H1671 0.929 . S
C1683 C1677 1.390 . S
C1683 C1680 1.386 . S
C1684 C1679 1.490 . S
C1684 C1686 1.395 . S
C1684 C1687 1.403 . S
H1685 C1691 0.930 . S
C1686 H1672 0.930 . S
C1686 C1684 1.395 . S
C1686 C1689 1.403 . S
C1687 C1684 1.403 . S
C1687 C1688 1.524 . S
C1687 C1691 1.400 . S
C1688 H1673 0.960 . S
C1688 H1674 0.960 . S
C1688 H1675 0.960 . S
C1688 C1687 1.524 . S
C1689 C1686 1.403 . S
C1689 C1690 1.392 . S
C1689 C1693 1.495 . S
C1690 C1689 1.392 . S
C1690 C1691 1.385 . S
C1690 C1692 1.478 . S
C1691 H1685 0.930 . S
C1691 C1687 1.400 . S
C1691 C1690 1.385 . S
C1692 C1690 1.478 . S
C1692 C1694 1.381 . S
C1692 C1698 1.383 . S
C1693 C1689 1.495 . S
C1693 H1699 0.959 . S
C1693 H1700 0.961 . S
C1693 H1701 0.960 . S
C1694 C1692 1.381 . S
C1694 C1695 1.394 . S
C1694 H1702 0.930 . S
C1695 C1694 1.394 . S
C1695 C1696 1.383 . S
C1695 H1703 0.929 . S
C1696 C1695 1.383 . S
C1696 C1697 1.377 . S
C1697 H1681 0.930 . S
C1697 C1696 1.377 . S
C1697 C1698 1.379 . S
C1698 H1682 0.931 . S
C1698 C1692 1.383 . S
C1698 C1697 1.379 . S
H1699 C1693 0.959 . S
H1700 C1693 0.961 . S
H1701 C1693 0.960 . S
H1702 C1694 0.930 . S
H1703 C1695 0.929 . S
H1704 C1712 0.929 . S
H1705 C1714 0.930 . S
H1706 C1716 0.930 . S
H1707 C1719 0.929 . S
H1708 C1722 0.930 . S
H1709 C1724 0.960 1_545 S
H1710 C1724 0.960 . S
H1711 C1724 0.960 . S
C1712 H1704 0.929 . S
C1712 C1713 1.377 . S
C1712 C1714 1.384 . S
C1713 C1712 1.377 . S
C1713 C1719 1.390 . S
C1714 H1705 0.930 . S
C1714 C1712 1.384 . S
C1714 C1715 1.372 . S
C1715 C1714 1.372 . S
C1715 C1716 1.400 . S
C1715 C1720 1.490 . S
C1716 H1706 0.930 . S
C1716 C1715 1.400 . S
C1716 C1719 1.386 . S
H1717 C1733 0.930 . S
H1718 C1734 0.931 . S
C1719 H1707 0.929 . S
C1719 C1713 1.390 . S
C1719 C1716 1.386 . S
C1720 C1715 1.490 . S
C1720 C1722 1.395 . S
C1720 C1723 1.403 . S
H1721 C1727 0.930 . S
C1722 H1708 0.930 . S
C1722 C1720 1.395 . S
C1722 C1725 1.403 . S
C1723 C1720 1.403 . S
C1723 C1724 1.524 . S
C1723 C1727 1.400 1_565 S
C1724 H1709 0.960 1_565 S
C1724 H1710 0.960 . S
C1724 H1711 0.960 . S
C1724 C1723 1.524 . S
C1725 C1722 1.403 . S
C1725 C1726 1.392 . S
C1725 C1729 1.495 . S
C1726 C1725 1.392 . S
C1726 C1727 1.385 1_565 S
C1726 C1728 1.478 1_565 S
C1727 H1721 0.930 . S
C1727 C1723 1.400 1_545 S
C1727 C1726 1.385 1_545 S
C1728 C1726 1.478 1_545 S
C1728 C1730 1.381 . S
C1728 C1734 1.383 . S
C1729 C1725 1.495 . S
C1729 H1735 0.959 . S
C1729 H1736 0.961 . S
C1729 H1737 0.960 . S
C1730 C1728 1.381 . S
C1730 C1731 1.394 . S
C1730 H1738 0.930 1_545 S
C1731 C1730 1.394 . S
C1731 C1732 1.383 . S
C1731 H1739 0.929 . S
C1732 C1731 1.383 . S
C1732 C1733 1.377 . S
C1733 H1717 0.930 . S
C1733 C1732 1.377 . S
C1733 C1734 1.379 . S
C1734 H1718 0.931 . S
C1734 C1728 1.383 . S
C1734 C1733 1.379 . S
H1735 C1729 0.959 . S
H1736 C1729 0.961 . S
H1737 C1729 0.960 . S
H1738 C1730 0.930 1_565 S
H1739 C1731 0.929 . S
H1740 C1748 0.929 . S
H1741 C1750 0.930 . S
H1742 C1752 0.930 . S
H1743 C1755 0.929 . S
H1744 C1758 0.930 . S
H1745 C1760 0.960 . S
H1746 C1760 0.960 . S
H1747 C1760 0.960 . S
C1748 H1740 0.929 . S
C1748 C1749 1.377 . S
C1748 C1750 1.384 . S
C1749 C1748 1.377 . S
C1749 C1755 1.390 . S
C1750 H1741 0.930 . S
C1750 C1748 1.384 . S
C1750 C1751 1.372 . S
C1751 C1750 1.372 . S
C1751 C1752 1.400 . S
C1751 C1756 1.490 . S
C1752 H1742 0.930 . S
C1752 C1751 1.400 . S
C1752 C1755 1.386 . S
H1753 C1769 0.930 . S
H1754 C1770 0.931 1_655 S
C1755 H1743 0.929 . S
C1755 C1749 1.390 . S
C1755 C1752 1.386 . S
C1756 C1751 1.490 . S
C1756 C1758 1.395 . S
C1756 C1759 1.403 . S
H1757 C1763 0.930 1_455 S
C1758 H1744 0.930 . S
C1758 C1756 1.395 . S
C1758 C1761 1.403 . S
C1759 C1756 1.403 . S
C1759 C1760 1.524 . S
C1759 C1763 1.400 . S
C1760 H1745 0.960 . S
C1760 H1746 0.960 . S
C1760 H1747 0.960 . S
C1760 C1759 1.524 . S
C1761 C1758 1.403 . S
C1761 C1762 1.392 . S
C1761 C1765 1.495 . S
C1762 C1761 1.392 . S
C1762 C1763 1.385 . S
C1762 C1764 1.478 1_655 S
C1763 H1757 0.930 1_655 S
C1763 C1759 1.400 . S
C1763 C1762 1.385 . S
C1764 C1762 1.478 1_455 S
C1764 C1766 1.381 . S
C1764 C1770 1.383 . S
C1765 C1761 1.495 . S
C1765 H1771 0.959 . S
C1765 H1772 0.961 . S
C1765 H1773 0.960 . S
C1766 C1764 1.381 . S
C1766 C1767 1.394 . S
C1766 H1774 0.930 . S
C1767 C1766 1.394 . S
C1767 C1768 1.383 . S
C1767 H1775 0.929 . S
C1768 C1767 1.383 . S
C1768 C1769 1.377 . S
C1769 H1753 0.930 . S
C1769 C1768 1.377 . S
C1769 C1770 1.379 . S
C1770 H1754 0.931 1_455 S
C1770 C1764 1.383 . S
C1770 C1769 1.379 . S
H1771 C1765 0.959 . S
H1772 C1765 0.961 . S
H1773 C1765 0.960 . S
H1774 C1766 0.930 . S
H1775 C1767 0.929 . S
H1776 C1784 0.929 . S
H1777 C1786 0.930 . S
H1778 C1788 0.930 . S
H1779 C1791 0.929 . S
H1780 C1794 0.930 . S
H1781 C1796 0.960 . S
H1782 C1796 0.960 . S
H1783 C1796 0.960 . S
C1784 H1776 0.929 . S
C1784 C1785 1.377 . S
C1784 C1786 1.384 . S
C1785 C1784 1.377 . S
C1785 C1791 1.390 . S
C1786 H1777 0.930 . S
C1786 C1784 1.384 . S
C1786 C1787 1.372 . S
C1787 C1786 1.372 . S
C1787 C1788 1.400 . S
C1787 C1792 1.490 . S
C1788 H1778 0.930 . S
C1788 C1787 1.400 . S
C1788 C1791 1.386 . S
H1789 C1805 0.930 . S
H1790 C1806 0.913 1_545 S
C1791 H1779 0.929 . S
C1791 C1785 1.390 . S
C1791 C1788 1.386 . S
C1792 C1787 1.490 . S
C1792 C1794 1.395 . S
C1792 C1795 1.403 . S
H1793 C1799 0.930 . S
C1794 H1780 0.930 . S
C1794 C1792 1.395 . S
C1794 C1797 1.403 . S
C1795 C1792 1.403 . S
C1795 C1796 1.524 . S
C1795 C1799 1.400 . S
C1796 H1781 0.960 . S
C1796 H1782 0.960 . S
C1796 H1783 0.960 . S
C1796 C1795 1.524 . S
C1797 C1794 1.403 . S
C1797 C1798 1.392 . S
C1797 C1801 1.495 1_545 S
C1798 C1797 1.392 . S
C1798 C1799 1.385 . S
C1798 C1800 1.478 . S
C1799 H1793 0.930 . S
C1799 C1795 1.400 . S
C1799 C1798 1.385 . S
C1800 C1798 1.478 . S
C1800 C1802 1.381 1_545 S
C1800 C1806 1.379 1_545 S
C1801 C1797 1.495 1_565 S
C1801 H1807 0.959 . S
C1801 H1808 0.961 . S
C1801 H1809 0.960 . S
C1802 C1800 1.381 1_565 S
C1802 C1803 1.394 . S
C1802 H1810 0.930 . S
C1803 C1802 1.394 . S
C1803 C1804 1.383 . S
C1803 H1811 0.929 . S
C1804 C1803 1.383 . S
C1804 C1805 1.377 . S
C1805 H1789 0.930 . S
C1805 C1804 1.377 . S
C1805 C1806 1.402 . S
C1806 H1790 0.913 1_565 S
C1806 C1800 1.379 1_565 S
C1806 C1805 1.402 . S
H1807 C1801 0.959 . S
H1808 C1801 0.961 . S
H1809 C1801 0.960 . S
H1810 C1802 0.930 . S
H1811 C1803 0.929 . S
H1812 C1820 0.929 . S
H1813 C1822 0.930 . S
H1814 C1824 0.930 . S
H1815 C1827 0.929 . S
H1816 C1830 0.930 . S
H1817 C1832 0.961 1_655 S
H1818 C1832 0.960 . S
H1819 C1832 0.960 . S
C1820 H1812 0.929 . S
C1820 C1821 1.377 . S
C1820 C1822 1.384 . S
C1821 C1820 1.377 . S
C1821 C1827 1.390 . S
C1822 H1813 0.930 . S
C1822 C1820 1.384 . S
C1822 C1823 1.372 . S
C1823 C1822 1.372 . S
C1823 C1824 1.400 . S
C1823 C1828 1.490 . S
C1824 H1814 0.930 . S
C1824 C1823 1.400 . S
C1824 C1827 1.386 . S
H1825 C1841 0.930 . S
H1826 C1842 0.931 . S
C1827 H1815 0.929 . S
C1827 C1821 1.390 . S
C1827 C1824 1.386 . S
C1828 C1823 1.490 . S
C1828 C1830 1.395 . S
C1828 C1831 1.403 . S
H1829 C1835 0.930 . S
C1830 H1816 0.930 . S
C1830 C1828 1.395 . S
C1830 C1833 1.403 . S
C1831 C1828 1.403 . S
C1831 C1832 1.523 . S
C1831 C1835 1.400 1_455 S
C1832 H1817 0.961 1_455 S
C1832 H1818 0.960 . S
C1832 H1819 0.960 . S
C1832 C1831 1.523 . S
C1833 C1830 1.403 . S
C1833 C1834 1.392 . S
C1833 C1837 1.495 . S
C1834 C1833 1.392 . S
C1834 C1835 1.385 1_455 S
C1834 C1836 1.478 1_455 S
C1835 H1829 0.930 . S
C1835 C1831 1.400 1_655 S
C1835 C1834 1.385 1_655 S
C1836 C1834 1.478 1_655 S
C1836 C1838 1.381 . S
C1836 C1842 1.383 . S
C1837 C1833 1.495 . S
C1837 H1843 0.959 . S
C1837 H1844 0.961 . S
C1837 H1845 0.960 . S
C1838 C1836 1.381 . S
C1838 C1839 1.394 . S
C1838 H1846 0.936 1_655 S
C1839 C1838 1.394 . S
C1839 C1840 1.383 . S
C1839 H1847 0.929 . S
C1840 C1839 1.383 . S
C1840 C1841 1.377 . S
C1841 H1825 0.930 . S
C1841 C1840 1.377 . S
C1841 C1842 1.379 . S
C1842 H1826 0.931 . S
C1842 C1836 1.383 . S
C1842 C1841 1.379 . S
H1843 C1837 0.959 . S
H1844 C1837 0.961 . S
H1845 C1837 0.960 . S
H1846 C1838 0.936 1_455 S
H1847 C1839 0.929 . S
H1848 C1856 0.929 . S
H1849 C1858 0.930 . S
H1850 C1860 0.930 . S
H1851 C1863 0.929 . S
H1852 C1866 0.930 1_565 S
H1853 C1868 0.960 . S
H1854 C1868 0.960 . S
H1855 C1868 0.960 . S
C1856 H1848 0.929 . S
C1856 C1857 1.377 . S
C1856 C1858 1.384 . S
C1857 C1856 1.377 . S
C1857 C1863 1.390 . S
C1858 H1849 0.930 . S
C1858 C1856 1.384 . S
C1858 C1859 1.372 1_565 S
C1859 C1858 1.372 1_545 S
C1859 C1860 1.400 . S
C1859 C1864 1.490 . S
C1860 H1850 0.930 . S
C1860 C1859 1.400 . S
C1860 C1863 1.386 1_545 S
H1861 C1877 0.930 . S
H1862 C1878 0.931 . S
C1863 H1851 0.929 . S
C1863 C1857 1.390 . S
C1863 C1860 1.386 1_565 S
C1864 C1859 1.490 . S
C1864 C1866 1.395 . S
C1864 C1867 1.403 . S
H1865 C1871 0.930 . S
C1866 H1852 0.930 1_545 S
C1866 C1864 1.395 . S
C1866 C1869 1.403 . S
C1867 C1864 1.403 . S
C1867 C1868 1.524 . S
C1867 C1871 1.400 . S
C1868 H1853 0.960 . S
C1868 H1854 0.960 . S
C1868 H1855 0.960 . S
C1868 C1867 1.524 . S
C1869 C1866 1.403 . S
C1869 C1870 1.392 . S
C1869 C1873 1.495 . S
C1870 C1869 1.392 . S
C1870 C1871 1.385 . S
C1870 C1872 1.478 . S
C1871 H1865 0.930 . S
C1871 C1867 1.400 . S
C1871 C1870 1.385 . S
C1872 C1870 1.478 . S
C1872 C1874 1.381 . S
C1872 C1878 1.383 . S
C1873 C1869 1.495 . S
C1873 H1879 0.959 . S
C1873 H1880 0.961 . S
C1873 H1881 0.960 . S
C1874 C1872 1.381 . S
C1874 C1875 1.394 . S
C1874 H1882 0.930 . S
C1875 C1874 1.394 . S
C1875 C1876 1.383 . S
C1875 H1883 0.929 . S
C1876 C1875 1.383 . S
C1876 C1877 1.377 . S
C1877 H1861 0.930 . S
C1877 C1876 1.377 . S
C1877 C1878 1.379 . S
C1878 H1862 0.931 . S
C1878 C1872 1.383 . S
C1878 C1877 1.379 . S
H1879 C1873 0.959 . S
H1880 C1873 0.961 . S
H1881 C1873 0.960 . S
H1882 C1874 0.930 . S
H1883 C1875 0.929 . S
H1884 C1892 0.929 . S
H1885 C1894 0.927 1_455 S
H1886 C1896 0.930 . S
H1887 C1899 0.929 . S
H1888 C1902 0.930 . S
H1889 C1904 0.960 . S
H1890 C1904 0.960 . S
H1891 C1904 0.960 . S
C1892 H1884 0.929 . S
C1892 C1893 1.377 . S
C1892 C1894 1.384 . S
C1893 C1892 1.377 . S
C1893 C1899 1.390 . S
C1894 H1885 0.927 1_655 S
C1894 C1892 1.384 . S
C1894 C1895 1.372 . S
C1895 C1894 1.372 . S
C1895 C1896 1.400 . S
C1895 C1900 1.490 1_655 S
C1896 H1886 0.930 . S
C1896 C1895 1.400 . S
C1896 C1899 1.386 . S
H1897 C1913 0.930 . S
H1898 C1914 0.931 . S
C1899 H1887 0.929 . S
C1899 C1893 1.390 . S
C1899 C1896 1.386 . S
C1900 C1895 1.490 1_455 S
C1900 C1902 1.395 . S
C1900 C1903 1.403 . S
H1901 C1907 0.930 . S
C1902 H1888 0.930 . S
C1902 C1900 1.395 . S
C1902 C1905 1.403 . S
C1903 C1900 1.403 . S
C1903 C1904 1.524 1_455 S
C1903 C1907 1.400 . S
C1904 H1889 0.960 . S
C1904 H1890 0.960 . S
C1904 H1891 0.960 . S
C1904 C1903 1.524 1_655 S
C1905 C1902 1.403 . S
C1905 C1906 1.392 . S
C1905 C1909 1.495 . S
C1906 C1905 1.392 . S
C1906 C1907 1.385 . S
C1906 C1908 1.478 . S
C1907 H1901 0.930 . S
C1907 C1903 1.400 . S
C1907 C1906 1.385 . S
C1908 C1906 1.478 . S
C1908 C1910 1.381 . S
C1908 C1914 1.383 . S
C1909 C1905 1.495 . S
C1909 H1915 0.959 . S
C1909 H1916 0.961 . S
C1909 H1917 0.960 . S
C1910 C1908 1.381 . S
C1910 C1911 1.394 . S
C1910 H1918 0.930 . S
C1911 C1910 1.394 . S
C1911 C1912 1.383 . S
C1911 H1919 0.929 . S
C1912 C1911 1.383 . S
C1912 C1913 1.377 . S
C1913 H1897 0.930 . S
C1913 C1912 1.377 . S
C1913 C1914 1.379 . S
C1914 H1898 0.931 . S
C1914 C1908 1.383 . S
C1914 C1913 1.379 . S
H1915 C1909 0.959 . S
H1916 C1909 0.961 . S
H1917 C1909 0.960 . S
H1918 C1910 0.930 . S
H1919 C1911 0.929 . S
H1920 C1928 0.929 . S
H1921 C1930 0.930 . S
H1922 C1932 0.930 . S
H1923 C1935 0.929 . S
H1924 C1938 0.930 . S
H1925 C1940 0.960 . S
H1926 C1940 0.960 . S
H1927 C1940 0.960 . S
C1928 H1920 0.929 . S
C1928 C1929 1.377 . S
C1928 C1930 1.384 . S
C1929 C1928 1.377 . S
C1929 C1935 1.390 . S
C1930 H1921 0.930 . S
C1930 C1928 1.384 . S
C1930 C1931 1.372 . S
C1931 C1930 1.372 . S
C1931 C1932 1.400 . S
C1931 C1936 1.490 . S
C1932 H1922 0.930 . S
C1932 C1931 1.400 . S
C1932 C1935 1.386 . S
H1933 C1949 0.930 . S
H1934 C1950 0.974 . S
C1935 H1923 0.929 . S
C1935 C1929 1.390 . S
C1935 C1932 1.386 . S
C1936 C1931 1.490 . S
C1936 C1938 1.395 . S
C1936 C1939 1.403 . S
H1937 C1943 0.915 1_545 S
C1938 H1924 0.930 . S
C1938 C1936 1.395 . S
C1938 C1941 1.403 . S
C1939 C1936 1.403 . S
C1939 C1940 1.524 . S
C1939 C1943 1.415 . S
C1940 H1925 0.960 . S
C1940 H1926 0.960 . S
C1940 H1927 0.960 . S
C1940 C1939 1.524 . S
C1941 C1938 1.403 . S
C1941 C1942 1.405 . S
C1941 C1945 1.495 . S
C1942 C1941 1.405 . S
C1942 C1943 1.385 . S
C1942 C1944 1.465 1_565 S
C1943 H1937 0.915 1_565 S
C1943 C1939 1.415 . S
C1943 C1942 1.385 . S
C1944 C1942 1.465 1_545 S
C1944 C1946 1.381 . S
C1944 C1950 1.383 . S
C1945 C1941 1.495 . S
C1945 H1951 0.959 . S
C1945 H1952 0.961 . S
C1945 H1953 0.960 . S
C1946 C1944 1.381 . S
C1946 C1947 1.394 . S
C1946 H1954 0.930 . S
C1947 C1946 1.394 . S
C1947 C1948 1.383 . S
C1947 H1955 0.929 . S
C1948 C1947 1.383 . S
C1948 C1949 1.377 . S
C1949 H1933 0.930 . S
C1949 C1948 1.377 . S
C1949 C1950 1.379 . S
C1950 H1934 0.974 . S
C1950 C1944 1.383 . S
C1950 C1949 1.379 . S
H1951 C1945 0.959 . S
H1952 C1945 0.961 . S
H1953 C1945 0.960 . S
H1954 C1946 0.930 . S
H1955 C1947 0.929 . S
H1956 C1964 0.929 . S
H1957 C1966 0.930 . S
H1958 C1968 0.930 . S
H1959 C1971 0.929 . S
H1960 C1974 0.930 . S
H1961 C1976 0.960 . S
H1962 C1976 0.960 . S
H1963 C1976 0.960 . S
C1964 H1956 0.929 . S
C1964 C1965 1.377 . S
C1964 C1966 1.384 . S
C1965 C1964 1.377 . S
C1965 C1971 1.390 . S
C1966 H1957 0.930 . S
C1966 C1964 1.384 . S
C1966 C1967 1.372 . S
C1967 C1966 1.372 . S
C1967 C1968 1.400 . S
C1967 C1972 1.523 . S
C1968 H1958 0.930 . S
C1968 C1967 1.400 . S
C1968 C1971 1.386 . S
H1969 C1985 0.930 . S
H1970 C1986 0.931 . S
C1971 H1959 0.929 . S
C1971 C1965 1.390 . S
C1971 C1968 1.386 . S
C1972 C1967 1.523 . S
C1972 C1974 1.357 1_455 S
C1972 C1975 1.408 . S
H1973 C1979 0.930 . S
C1974 H1960 0.930 . S
C1974 C1972 1.357 1_655 S
C1974 C1977 1.403 . S
C1975 C1972 1.408 . S
C1975 C1976 1.524 . S
C1975 C1979 1.400 1_455 S
C1976 H1961 0.960 . S
C1976 H1962 0.960 . S
C1976 H1963 0.960 . S
C1976 C1975 1.524 . S
C1977 C1974 1.403 . S
C1977 C1978 1.392 . S
C1977 C1981 1.495 . S
C1978 C1977 1.392 . S
C1978 C1979 1.385 . S
C1978 C1980 1.478 . S
C1979 H1973 0.930 . S
C1979 C1975 1.400 1_655 S
C1979 C1978 1.385 . S
C1980 C1978 1.478 . S
C1980 C1982 1.381 . S
C1980 C1986 1.383 . S
C1981 C1977 1.495 . S
C1981 H1987 0.959 . S
C1981 H1988 0.961 . S
C1981 H1989 0.960 . S
C1982 C1980 1.381 . S
C1982 C1983 1.394 . S
C1982 H1990 0.930 . S
C1983 C1982 1.394 . S
C1983 C1984 1.383 . S
C1983 H1991 0.929 . S
C1984 C1983 1.383 . S
C1984 C1985 1.377 . S
C1985 H1969 0.930 . S
C1985 C1984 1.377 . S
C1985 C1986 1.379 . S
C1986 H1970 0.931 . S
C1986 C1980 1.383 . S
C1986 C1985 1.379 . S
H1987 C1981 0.959 . S
H1988 C1981 0.961 . S
H1989 C1981 0.960 . S
H1990 C1982 0.930 . S
H1991 C1983 0.929 . S
H1992 C2000 0.929 . S
H1993 C2002 0.930 . S
H1994 C2004 0.930 . S
H1995 C2007 0.929 . S
H1996 C2010 0.930 . S
H1997 C2012 0.960 . S
H1998 C2012 0.960 . S
H1999 C2012 0.960 . S
C2000 H1992 0.929 . S
C2000 C2001 1.377 . S
C2000 C2002 1.384 . S
C2001 C2000 1.377 . S
C2001 C2007 1.390 . S
C2002 H1993 0.930 . S
C2002 C2000 1.384 . S
C2002 C2003 1.372 . S
C2003 C2002 1.372 . S
C2003 C2004 1.400 . S
C2003 C2008 1.490 . S
C2004 H1994 0.930 . S
C2004 C2003 1.400 . S
C2004 C2007 1.386 . S
H2005 C2021 0.930 . S
H2006 C2022 0.924 1_556 S
C2007 H1995 0.929 . S
C2007 C2001 1.390 . S
C2007 C2004 1.386 . S
C2008 C2003 1.490 . S
C2008 C2010 1.395 . S
C2008 C2011 1.403 . S
H2009 C2015 0.930 1_554 S
C2010 H1996 0.930 . S
C2010 C2008 1.395 . S
C2010 C2013 1.403 . S
C2011 C2008 1.403 . S
C2011 C2012 1.524 . S
C2011 C2015 1.400 . S
C2012 H1997 0.960 . S
C2012 H1998 0.960 . S
C2012 H1999 0.960 . S
C2012 C2011 1.524 . S
C2013 C2010 1.403 . S
C2013 C2014 1.392 1_556 S
C2013 C2017 1.509 . S
C2014 C2013 1.392 1_554 S
C2014 C2015 1.385 1_554 S
C2014 C2016 1.478 . S
C2015 H2009 0.930 1_556 S
C2015 C2011 1.400 . S
C2015 C2014 1.385 1_556 S
C2016 C2014 1.478 . S
C2016 C2018 1.381 . S
C2016 C2022 1.383 . S
C2017 C2013 1.509 . S
C2017 H2023 0.987 . S
C2017 H2024 0.974 . S
C2017 H2025 0.908 1_556 S
C2018 C2016 1.381 . S
C2018 C2019 1.394 . S
C2018 H2026 0.930 . S
C2019 C2018 1.394 . S
C2019 C2020 1.383 . S
C2019 H2027 0.929 . S
C2020 C2019 1.383 . S
C2020 C2021 1.377 . S
C2021 H2005 0.930 . S
C2021 C2020 1.377 . S
C2021 C2022 1.379 . S
C2022 H2006 0.924 1_554 S
C2022 C2016 1.383 . S
C2022 C2021 1.379 . S
H2023 C2017 0.987 . S
H2024 C2017 0.974 . S
H2025 C2017 0.908 1_554 S
H2026 C2018 0.930 . S
H2027 C2019 0.929 . S
H2028 C2036 0.929 . S
H2029 C2038 0.930 . S
H2030 C2040 0.930 . S
H2031 C2043 0.929 . S
H2032 C2046 0.930 . S
H2033 C2048 0.960 1_556 S
H2034 C2048 0.960 . S
H2035 C2048 0.960 . S
C2036 H2028 0.929 . S
C2036 C2037 1.377 . S
C2036 C2038 1.384 . S
C2037 C2036 1.377 . S
C2037 C2043 1.390 . S
C2038 H2029 0.930 . S
C2038 C2036 1.384 . S
C2038 C2039 1.372 . S
C2039 C2038 1.372 . S
C2039 C2040 1.400 . S
C2039 C2044 1.490 . S
C2040 H2030 0.930 . S
C2040 C2039 1.400 . S
C2040 C2043 1.386 . S
H2041 C2057 0.930 . S
H2042 C2058 0.931 . S
C2043 H2031 0.929 . S
C2043 C2037 1.390 . S
C2043 C2040 1.386 . S
C2044 C2039 1.490 . S
C2044 C2046 1.395 . S
C2044 C2047 1.403 . S
H2045 C2051 0.930 . S
C2046 H2032 0.930 . S
C2046 C2044 1.395 . S
C2046 C2049 1.403 . S
C2047 C2044 1.403 . S
C2047 C2048 1.524 . S
C2047 C2051 1.400 1_554 S
C2048 H2033 0.960 1_554 S
C2048 H2034 0.960 . S
C2048 H2035 0.960 . S
C2048 C2047 1.524 . S
C2049 C2046 1.403 . S
C2049 C2050 1.419 . S
C2049 C2053 1.495 . S
C2050 C2049 1.419 . S
C2050 C2051 1.379 1_554 S
C2050 C2052 1.457 1_554 S
C2051 H2045 0.930 . S
C2051 C2047 1.400 1_556 S
C2051 C2050 1.379 1_556 S
C2052 C2050 1.457 1_556 S
C2052 C2054 1.381 . S
C2052 C2058 1.383 . S
C2053 C2049 1.495 . S
C2053 H2059 0.959 . S
C2053 H2060 0.961 . S
C2053 H2061 0.960 . S
C2054 C2052 1.381 . S
C2054 C2055 1.394 . S
C2054 H2062 0.930 . S
C2055 C2054 1.394 . S
C2055 C2056 1.383 . S
C2055 H2063 0.929 . S
C2056 C2055 1.383 . S
C2056 C2057 1.377 . S
C2057 H2041 0.930 . S
C2057 C2056 1.377 . S
C2057 C2058 1.379 . S
C2058 H2042 0.931 . S
C2058 C2052 1.383 . S
C2058 C2057 1.379 . S
H2059 C2053 0.959 . S
H2060 C2053 0.961 . S
H2061 C2053 0.960 . S
H2062 C2054 0.930 . S
H2063 C2055 0.929 . S
H2064 C2072 0.929 . S
H2065 C2074 0.930 . S
H2066 C2076 0.930 . S
H2067 C2079 0.929 . S
H2068 C2082 0.930 . S
H2069 C2084 0.960 . S
H2070 C2084 0.960 . S
H2071 C2084 0.960 . S
C2072 H2064 0.929 . S
C2072 C2073 1.377 . S
C2072 C2074 1.384 . S
C2073 C2072 1.377 . S
C2073 C2079 1.390 . S
C2074 H2065 0.930 . S
C2074 C2072 1.384 . S
C2074 C2075 1.372 . S
C2075 C2074 1.372 . S
C2075 C2076 1.400 . S
C2075 C2080 1.490 . S
C2076 H2066 0.930 . S
C2076 C2075 1.400 . S
C2076 C2079 1.386 . S
H2077 C2093 0.930 . S
H2078 C2094 0.931 1_556 S
C2079 H2067 0.929 . S
C2079 C2073 1.390 . S
C2079 C2076 1.386 . S
C2080 C2075 1.490 . S
C2080 C2082 1.395 . S
C2080 C2083 1.403 . S
H2081 C2087 0.930 . S
C2082 H2068 0.930 . S
C2082 C2080 1.395 . S
C2082 C2085 1.403 . S
C2083 C2080 1.403 . S
C2083 C2084 1.524 . S
C2083 C2087 1.400 . S
C2084 H2069 0.960 . S
C2084 H2070 0.960 . S
C2084 H2071 0.960 . S
C2084 C2083 1.524 . S
C2085 C2082 1.403 . S
C2085 C2086 1.392 . S
C2085 C2089 1.495 1_556 S
C2086 C2085 1.392 . S
C2086 C2087 1.385 . S
C2086 C2088 1.478 1_556 S
C2087 H2081 0.930 . S
C2087 C2083 1.400 . S
C2087 C2086 1.385 . S
C2088 C2086 1.478 1_554 S
C2088 C2090 1.381 . S
C2088 C2094 1.383 . S
C2089 C2085 1.495 1_554 S
C2089 H2095 0.959 . S
C2089 H2096 0.961 . S
C2089 H2097 0.960 . S
C2090 C2088 1.381 . S
C2090 C2091 1.394 . S
C2090 H2098 0.930 . S
C2091 C2090 1.394 . S
C2091 C2092 1.383 . S
C2091 H2099 0.929 . S
C2092 C2091 1.383 . S
C2092 C2093 1.377 . S
C2093 H2077 0.930 . S
C2093 C2092 1.377 . S
C2093 C2094 1.379 . S
C2094 H2078 0.931 1_554 S
C2094 C2088 1.383 . S
C2094 C2093 1.379 . S
H2095 C2089 0.959 . S
H2096 C2089 0.961 . S
H2097 C2089 0.960 . S
H2098 C2090 0.930 . S
H2099 C2091 0.929 . S
H2100 C2108 0.929 . S
H2101 C2110 0.930 . S
H2102 C2112 0.930 . S
H2103 C2115 0.929 . S
H2104 C2118 0.930 . S
H2105 C2120 0.960 . S
H2106 C2120 0.960 . S
H2107 C2120 0.960 . S
C2108 H2100 0.929 . S
C2108 C2109 1.377 . S
C2108 C2110 1.384 . S
C2109 C2108 1.377 . S
C2109 C2115 1.390 . S
C2110 H2101 0.930 . S
C2110 C2108 1.384 . S
C2110 C2111 1.372 . S
C2111 C2110 1.372 . S
C2111 C2112 1.400 . S
C2111 C2116 1.490 . S
C2112 H2102 0.930 . S
C2112 C2111 1.400 . S
C2112 C2115 1.386 . S
H2113 C2129 0.930 . S
H2114 C2130 0.931 . S
C2115 H2103 0.929 . S
C2115 C2109 1.390 . S
C2115 C2112 1.386 . S
C2116 C2111 1.490 . S
C2116 C2118 1.395 . S
C2116 C2119 1.403 . S
H2117 C2123 0.930 . S
C2118 H2104 0.930 . S
C2118 C2116 1.395 . S
C2118 C2121 1.403 . S
C2119 C2116 1.403 . S
C2119 C2120 1.524 . S
C2119 C2123 1.400 . S
C2120 H2105 0.960 . S
C2120 H2106 0.960 . S
C2120 H2107 0.960 . S
C2120 C2119 1.524 . S
C2121 C2118 1.403 . S
C2121 C2122 1.392 . S
C2121 C2125 1.495 . S
C2122 C2121 1.392 . S
C2122 C2123 1.385 . S
C2122 C2124 1.478 1_554 S
C2123 H2117 0.930 . S
C2123 C2119 1.400 . S
C2123 C2122 1.385 . S
C2124 C2122 1.478 1_556 S
C2124 C2126 1.381 . S
C2124 C2130 1.383 . S
C2125 C2121 1.495 . S
C2125 H2131 0.959 . S
C2125 H2132 0.961 1_554 S
C2125 H2133 0.960 . S
C2126 C2124 1.381 . S
C2126 C2127 1.394 . S
C2126 H2134 0.930 1_556 S
C2127 C2126 1.394 . S
C2127 C2128 1.383 . S
C2127 H2135 0.929 . S
C2128 C2127 1.383 . S
C2128 C2129 1.377 . S
C2129 H2113 0.930 . S
C2129 C2128 1.377 . S
C2129 C2130 1.379 . S
C2130 H2114 0.931 . S
C2130 C2124 1.383 . S
C2130 C2129 1.379 . S
H2131 C2125 0.959 . S
H2132 C2125 0.961 1_556 S
H2133 C2125 0.960 . S
H2134 C2126 0.930 1_554 S
H2135 C2127 0.929 . S
H2136 C2144 0.929 . S
H2137 C2146 0.930 . S
H2138 C2148 0.930 . S
H2139 C2151 0.929 . S
H2140 C2154 0.930 . S
H2141 C2156 0.960 . S
H2142 C2156 0.960 . S
H2143 C2156 0.960 . S
C2144 H2136 0.929 . S
C2144 C2145 1.377 . S
C2144 C2146 1.384 . S
C2145 C2144 1.377 . S
C2145 C2151 1.390 . S
C2146 H2137 0.930 . S
C2146 C2144 1.384 . S
C2146 C2147 1.372 . S
C2147 C2146 1.372 . S
C2147 C2148 1.400 . S
C2147 C2152 1.490 . S
C2148 H2138 0.930 . S
C2148 C2147 1.400 . S
C2148 C2151 1.386 . S
H2149 C2165 0.930 . S
H2150 C2166 0.931 . S
C2151 H2139 0.929 . S
C2151 C2145 1.390 . S
C2151 C2148 1.386 . S
C2152 C2147 1.490 . S
C2152 C2154 1.395 . S
C2152 C2155 1.403 . S
H2153 C2159 0.930 . S
C2154 H2140 0.930 . S
C2154 C2152 1.395 . S
C2154 C2157 1.403 . S
C2155 C2152 1.403 . S
C2155 C2156 1.524 . S
C2155 C2159 1.400 . S
C2156 H2141 0.960 . S
C2156 H2142 0.960 . S
C2156 H2143 0.960 . S
C2156 C2155 1.524 . S
C2157 C2154 1.403 . S
C2157 C2158 1.392 . S
C2157 C2161 1.495 . S
C2158 C2157 1.392 . S
C2158 C2159 1.385 . S
C2158 C2160 1.478 . S
C2159 H2153 0.930 . S
C2159 C2155 1.400 . S
C2159 C2158 1.385 . S
C2160 C2158 1.478 . S
C2160 C2162 1.381 . S
C2160 C2166 1.383 . S
C2161 C2157 1.495 . S
C2161 H2167 0.959 . S
C2161 H2168 0.961 . S
C2161 H2169 0.960 . S
C2162 C2160 1.381 . S
C2162 C2163 1.394 . S
C2162 H2170 0.930 . S
C2163 C2162 1.394 . S
C2163 C2164 1.383 . S
C2163 H2171 0.929 . S
C2164 C2163 1.383 . S
C2164 C2165 1.377 . S
C2165 H2149 0.930 . S
C2165 C2164 1.377 . S
C2165 C2166 1.379 . S
C2166 H2150 0.931 . S
C2166 C2160 1.383 . S
C2166 C2165 1.379 . S
H2167 C2161 0.959 . S
H2168 C2161 0.961 . S
H2169 C2161 0.960 . S
H2170 C2162 0.930 . S
H2171 C2163 0.929 . S
H2172 C2180 0.929 . S
H2173 C2182 0.930 . S
H2174 C2184 0.930 . S
H2175 C2187 0.929 . S
H2176 C2190 0.930 . S
H2177 C2192 0.960 . S
H2178 C2192 0.960 . S
H2179 C2192 0.960 . S
C2180 H2172 0.929 . S
C2180 C2181 1.377 . S
C2180 C2182 1.384 . S
C2181 C2180 1.377 . S
C2181 C2187 1.390 . S
C2182 H2173 0.930 . S
C2182 C2180 1.384 . S
C2182 C2183 1.372 . S
C2183 C2182 1.372 . S
C2183 C2184 1.400 . S
C2183 C2188 1.490 . S
C2184 H2174 0.930 . S
C2184 C2183 1.400 . S
C2184 C2187 1.386 . S
H2185 C2201 0.930 . S
H2186 C2202 0.931 . S
C2187 H2175 0.929 . S
C2187 C2181 1.390 . S
C2187 C2184 1.386 . S
C2188 C2183 1.490 . S
C2188 C2190 1.395 . S
C2188 C2191 1.403 . S
H2189 C2195 0.930 . S
C2190 H2176 0.930 . S
C2190 C2188 1.395 . S
C2190 C2193 1.403 . S
C2191 C2188 1.403 . S
C2191 C2192 1.524 . S
C2191 C2195 1.400 . S
C2192 H2177 0.960 . S
C2192 H2178 0.960 . S
C2192 H2179 0.960 . S
C2192 C2191 1.524 . S
C2193 C2190 1.403 . S
C2193 C2194 1.392 . S
C2193 C2197 1.495 . S
C2194 C2193 1.392 . S
C2194 C2195 1.385 . S
C2194 C2196 1.478 . S
C2195 H2189 0.930 . S
C2195 C2191 1.400 . S
C2195 C2194 1.385 . S
C2196 C2194 1.478 . S
C2196 C2198 1.381 . S
C2196 C2202 1.383 . S
C2197 C2193 1.495 . S
C2197 H2203 0.959 . S
C2197 H2204 0.961 . S
C2197 H2205 0.960 . S
C2198 C2196 1.381 . S
C2198 C2199 1.394 . S
C2198 H2206 0.930 . S
C2199 C2198 1.394 . S
C2199 C2200 1.383 . S
C2199 H2207 0.929 . S
C2200 C2199 1.383 . S
C2200 C2201 1.377 . S
C2201 H2185 0.930 . S
C2201 C2200 1.377 . S
C2201 C2202 1.379 . S
C2202 H2186 0.931 . S
C2202 C2196 1.383 . S
C2202 C2201 1.379 . S
H2203 C2197 0.959 . S
H2204 C2197 0.961 . S
H2205 C2197 0.960 . S
H2206 C2198 0.930 . S
H2207 C2199 0.929 . S
H2208 C2216 0.929 . S
H2209 C2218 0.930 . S
H2210 C2220 0.930 . S
H2211 C2223 0.929 . S
H2212 C2226 0.930 . S
H2213 C2228 0.960 . S
H2214 C2228 0.960 . S
H2215 C2228 0.960 . S
C2216 H2208 0.929 . S
C2216 C2217 1.377 . S
C2216 C2218 1.384 . S
C2217 C2216 1.377 . S
C2217 C2223 1.390 . S
C2218 H2209 0.930 . S
C2218 C2216 1.384 . S
C2218 C2219 1.372 . S
C2219 C2218 1.372 . S
C2219 C2220 1.400 . S
C2219 C2224 1.490 . S
C2220 H2210 0.930 . S
C2220 C2219 1.400 . S
C2220 C2223 1.386 . S
H2221 C2237 0.930 . S
H2222 C2238 0.931 . S
C2223 H2211 0.929 . S
C2223 C2217 1.390 . S
C2223 C2220 1.386 . S
C2224 C2219 1.490 . S
C2224 C2226 1.395 . S
C2224 C2227 1.403 . S
H2225 C2231 0.930 . S
C2226 H2212 0.930 . S
C2226 C2224 1.395 . S
C2226 C2229 1.403 . S
C2227 C2224 1.403 . S
C2227 C2228 1.524 . S
C2227 C2231 1.400 . S
C2228 H2213 0.960 . S
C2228 H2214 0.960 . S
C2228 H2215 0.960 . S
C2228 C2227 1.524 . S
C2229 C2226 1.403 . S
C2229 C2230 1.392 . S
C2229 C2233 1.495 . S
C2230 C2229 1.392 . S
C2230 C2231 1.385 . S
C2230 C2232 1.478 . S
C2231 H2225 0.930 . S
C2231 C2227 1.400 . S
C2231 C2230 1.385 . S
C2232 C2230 1.478 . S
C2232 C2234 1.381 . S
C2232 C2238 1.383 . S
C2233 C2229 1.495 . S
C2233 H2239 0.959 . S
C2233 H2240 0.961 . S
C2233 H2241 0.960 . S
C2234 C2232 1.381 . S
C2234 C2235 1.394 . S
C2234 H2242 0.930 . S
C2235 C2234 1.394 . S
C2235 C2236 1.383 . S
C2235 H2243 0.929 . S
C2236 C2235 1.383 . S
C2236 C2237 1.377 . S
C2237 H2221 0.930 . S
C2237 C2236 1.377 . S
C2237 C2238 1.379 . S
C2238 H2222 0.931 . S
C2238 C2232 1.383 . S
C2238 C2237 1.379 . S
H2239 C2233 0.959 . S
H2240 C2233 0.961 . S
H2241 C2233 0.960 . S
H2242 C2234 0.930 . S
H2243 C2235 0.929 . S
H2244 C2252 0.929 . S
H2245 C2254 0.930 . S
H2246 C2256 0.930 . S
H2247 C2259 0.929 . S
H2248 C2262 0.930 . S
H2249 C2264 0.960 . S
H2250 C2264 0.960 . S
H2251 C2264 0.960 . S
C2252 H2244 0.929 . S
C2252 C2253 1.377 . S
C2252 C2254 1.384 . S
C2253 C2252 1.377 . S
C2253 C2259 1.390 . S
C2254 H2245 0.930 . S
C2254 C2252 1.384 . S
C2254 C2255 1.372 . S
C2255 C2254 1.372 . S
C2255 C2256 1.400 . S
C2255 C2260 1.490 . S
C2256 H2246 0.930 . S
C2256 C2255 1.400 . S
C2256 C2259 1.386 . S
H2257 C2273 0.930 . S
H2258 C2274 0.931 . S
C2259 H2247 0.929 . S
C2259 C2253 1.390 . S
C2259 C2256 1.386 . S
C2260 C2255 1.490 . S
C2260 C2262 1.395 . S
C2260 C2263 1.403 . S
H2261 C2267 0.930 . S
C2262 H2248 0.930 . S
C2262 C2260 1.395 . S
C2262 C2265 1.403 . S
C2263 C2260 1.403 . S
C2263 C2264 1.524 . S
C2263 C2267 1.400 . S
C2264 H2249 0.960 . S
C2264 H2250 0.960 . S
C2264 H2251 0.960 . S
C2264 C2263 1.524 . S
C2265 C2262 1.403 . S
C2265 C2266 1.392 . S
C2265 C2269 1.495 . S
C2266 C2265 1.392 . S
C2266 C2267 1.385 . S
C2266 C2268 1.478 . S
C2267 H2261 0.930 . S
C2267 C2263 1.400 . S
C2267 C2266 1.385 . S
C2268 C2266 1.478 . S
C2268 C2270 1.381 . S
C2268 C2274 1.383 . S
C2269 C2265 1.495 . S
C2269 H2275 0.959 . S
C2269 H2276 0.961 . S
C2269 H2277 0.960 . S
C2270 C2268 1.381 . S
C2270 C2271 1.394 . S
C2270 H2278 0.930 . S
C2271 C2270 1.394 . S
C2271 C2272 1.383 . S
C2271 H2279 0.929 . S
C2272 C2271 1.383 . S
C2272 C2273 1.377 . S
C2273 H2257 0.930 . S
C2273 C2272 1.377 . S
C2273 C2274 1.379 . S
C2274 H2258 0.931 . S
C2274 C2268 1.383 . S
C2274 C2273 1.379 . S
H2275 C2269 0.959 . S
H2276 C2269 0.961 . S
H2277 C2269 0.960 . S
H2278 C2270 0.930 . S
H2279 C2271 0.929 . S
H2280 C2288 0.929 . S
H2281 C2290 0.930 . S
H2282 C2292 0.930 . S
H2283 C2295 0.929 . S
H2284 C2298 0.930 . S
H2285 C2300 0.960 . S
H2286 C2300 0.960 . S
H2287 C2300 0.960 . S
C2288 H2280 0.929 . S
C2288 C2289 1.377 . S
C2288 C2290 1.384 . S
C2289 C2288 1.377 . S
C2289 C2295 1.390 . S
C2290 H2281 0.930 . S
C2290 C2288 1.384 . S
C2290 C2291 1.372 . S
C2291 C2290 1.372 . S
C2291 C2292 1.400 . S
C2291 C2296 1.490 . S
C2292 H2282 0.930 . S
C2292 C2291 1.400 . S
C2292 C2295 1.386 . S
H2293 C2309 0.930 . S
H2294 C2310 0.931 . S
C2295 H2283 0.929 . S
C2295 C2289 1.390 . S
C2295 C2292 1.386 . S
C2296 C2291 1.490 . S
C2296 C2298 1.395 . S
C2296 C2299 1.403 . S
H2297 C2303 0.930 . S
C2298 H2284 0.930 . S
C2298 C2296 1.395 . S
C2298 C2301 1.403 . S
C2299 C2296 1.403 . S
C2299 C2300 1.524 . S
C2299 C2303 1.400 . S
C2300 H2285 0.960 . S
C2300 H2286 0.960 . S
C2300 H2287 0.960 . S
C2300 C2299 1.524 . S
C2301 C2298 1.403 . S
C2301 C2302 1.392 . S
C2301 C2305 1.495 . S
C2302 C2301 1.392 . S
C2302 C2303 1.385 . S
C2302 C2304 1.478 . S
C2303 H2297 0.930 . S
C2303 C2299 1.400 . S
C2303 C2302 1.385 . S
C2304 C2302 1.478 . S
C2304 C2306 1.381 . S
C2304 C2310 1.383 . S
C2305 C2301 1.495 . S
C2305 H2311 0.959 . S
C2305 H2312 0.961 . S
C2305 H2313 0.960 . S
C2306 C2304 1.381 . S
C2306 C2307 1.394 . S
C2306 H2314 0.930 . S
C2307 C2306 1.394 . S
C2307 C2308 1.383 . S
C2307 H2315 0.929 . S
C2308 C2307 1.383 . S
C2308 C2309 1.377 . S
C2309 H2293 0.930 . S
C2309 C2308 1.377 . S
C2309 C2310 1.379 . S
C2310 H2294 0.931 . S
C2310 C2304 1.383 . S
C2310 C2309 1.379 . S
H2311 C2305 0.959 . S
H2312 C2305 0.961 . S
H2313 C2305 0.960 . S
H2314 C2306 0.930 . S
H2315 C2307 0.929 . S
H2316 C2324 0.929 . S
H2317 C2326 0.930 . S
H2318 C2328 0.930 . S
H2319 C2331 0.929 . S
H2320 C2334 0.930 . S
H2321 C2336 0.960 . S
H2322 C2336 0.960 . S
H2323 C2336 0.960 . S
C2324 H2316 0.929 . S
C2324 C2325 1.377 . S
C2324 C2326 1.384 . S
C2325 C2324 1.377 . S
C2325 C2331 1.390 . S
C2326 H2317 0.930 . S
C2326 C2324 1.384 . S
C2326 C2327 1.372 . S
C2327 C2326 1.372 . S
C2327 C2328 1.400 . S
C2327 C2332 1.490 . S
C2328 H2318 0.930 . S
C2328 C2327 1.400 . S
C2328 C2331 1.386 . S
H2329 C2345 0.930 . S
H2330 C2346 0.931 . S
C2331 H2319 0.929 . S
C2331 C2325 1.390 . S
C2331 C2328 1.386 . S
C2332 C2327 1.490 . S
C2332 C2334 1.395 . S
C2332 C2335 1.403 . S
H2333 C2339 0.930 . S
C2334 H2320 0.930 . S
C2334 C2332 1.395 . S
C2334 C2337 1.403 . S
C2335 C2332 1.403 . S
C2335 C2336 1.524 . S
C2335 C2339 1.400 . S
C2336 H2321 0.960 . S
C2336 H2322 0.960 . S
C2336 H2323 0.960 . S
C2336 C2335 1.524 . S
C2337 C2334 1.403 . S
C2337 C2338 1.392 . S
C2337 C2341 1.495 . S
C2338 C2337 1.392 . S
C2338 C2339 1.385 . S
C2338 C2340 1.478 . S
C2339 H2333 0.930 . S
C2339 C2335 1.400 . S
C2339 C2338 1.385 . S
C2340 C2338 1.478 . S
C2340 C2342 1.381 . S
C2340 C2346 1.383 . S
C2341 C2337 1.495 . S
C2341 H2347 0.959 . S
C2341 H2348 0.961 . S
C2341 H2349 0.960 . S
C2342 C2340 1.381 . S
C2342 C2343 1.394 . S
C2342 H2350 0.930 . S
C2343 C2342 1.394 . S
C2343 C2344 1.383 . S
C2343 H2351 0.929 . S
C2344 C2343 1.383 . S
C2344 C2345 1.377 . S
C2345 H2329 0.930 . S
C2345 C2344 1.377 . S
C2345 C2346 1.379 . S
C2346 H2330 0.931 . S
C2346 C2340 1.383 . S
C2346 C2345 1.379 . S
H2347 C2341 0.959 . S
H2348 C2341 0.961 . S
H2349 C2341 0.960 . S
H2350 C2342 0.930 . S
H2351 C2343 0.929 . S
H2352 C2360 0.929 . S
H2353 C2362 0.930 . S
H2354 C2364 0.930 . S
H2355 C2367 0.929 . S
H2356 C2370 0.930 . S
H2357 C2372 0.960 . S
H2358 C2372 0.960 . S
H2359 C2372 0.960 . S
C2360 H2352 0.929 . S
C2360 C2361 1.377 . S
C2360 C2362 1.384 . S
C2361 C2360 1.377 . S
C2361 C2367 1.390 . S
C2362 H2353 0.930 . S
C2362 C2360 1.384 . S
C2362 C2363 1.372 . S
C2363 C2362 1.372 . S
C2363 C2364 1.400 . S
C2363 C2368 1.490 . S
C2364 H2354 0.930 . S
C2364 C2363 1.400 . S
C2364 C2367 1.386 . S
H2365 C2381 0.930 . S
H2366 C2382 0.931 . S
C2367 H2355 0.929 . S
C2367 C2361 1.390 . S
C2367 C2364 1.386 . S
C2368 C2363 1.490 . S
C2368 C2370 1.395 . S
C2368 C2371 1.403 . S
H2369 C2375 0.930 . S
C2370 H2356 0.930 . S
C2370 C2368 1.395 . S
C2370 C2373 1.403 . S
C2371 C2368 1.403 . S
C2371 C2372 1.524 . S
C2371 C2375 1.400 . S
C2372 H2357 0.960 . S
C2372 H2358 0.960 . S
C2372 H2359 0.960 . S
C2372 C2371 1.524 . S
C2373 C2370 1.403 . S
C2373 C2374 1.392 . S
C2373 C2377 1.495 . S
C2374 C2373 1.392 . S
C2374 C2375 1.385 . S
C2374 C2376 1.478 . S
C2375 H2369 0.930 . S
C2375 C2371 1.400 . S
C2375 C2374 1.385 . S
C2376 C2374 1.478 . S
C2376 C2378 1.381 . S
C2376 C2382 1.383 . S
C2377 C2373 1.495 . S
C2377 H2383 0.959 . S
C2377 H2384 0.961 . S
C2377 H2385 0.960 . S
C2378 C2376 1.381 . S
C2378 C2379 1.394 . S
C2378 H2386 0.930 . S
C2379 C2378 1.394 . S
C2379 C2380 1.383 . S
C2379 H2387 0.929 . S
C2380 C2379 1.383 . S
C2380 C2381 1.377 . S
C2381 H2365 0.930 . S
C2381 C2380 1.377 . S
C2381 C2382 1.379 . S
C2382 H2366 0.931 . S
C2382 C2376 1.383 . S
C2382 C2381 1.379 . S
H2383 C2377 0.959 . S
H2384 C2377 0.961 . S
H2385 C2377 0.960 . S
H2386 C2378 0.930 . S
H2387 C2379 0.929 . S
H2388 C2396 0.929 . S
H2389 C2398 0.930 . S
H2390 C2400 0.930 . S
H2391 C2403 0.929 . S
H2392 C2406 0.930 . S
H2393 C2408 0.960 . S
H2394 C2408 0.960 . S
H2395 C2408 0.960 . S
C2396 H2388 0.929 . S
C2396 C2397 1.377 . S
C2396 C2398 1.384 . S
C2397 C2396 1.377 . S
C2397 C2403 1.390 . S
C2398 H2389 0.930 . S
C2398 C2396 1.384 . S
C2398 C2399 1.372 . S
C2399 C2398 1.372 . S
C2399 C2400 1.400 . S
C2399 C2404 1.490 . S
C2400 H2390 0.930 . S
C2400 C2399 1.400 . S
C2400 C2403 1.386 . S
H2401 C2417 0.930 . S
H2402 C2418 0.931 . S
C2403 H2391 0.929 . S
C2403 C2397 1.390 . S
C2403 C2400 1.386 . S
C2404 C2399 1.490 . S
C2404 C2406 1.395 . S
C2404 C2407 1.403 . S
H2405 C2411 0.930 . S
C2406 H2392 0.930 . S
C2406 C2404 1.395 . S
C2406 C2409 1.403 . S
C2407 C2404 1.403 . S
C2407 C2408 1.524 . S
C2407 C2411 1.400 . S
C2408 H2393 0.960 . S
C2408 H2394 0.960 . S
C2408 H2395 0.960 . S
C2408 C2407 1.524 . S
C2409 C2406 1.403 . S
C2409 C2410 1.392 . S
C2409 C2413 1.495 . S
C2410 C2409 1.392 . S
C2410 C2411 1.385 . S
C2410 C2412 1.478 . S
C2411 H2405 0.930 . S
C2411 C2407 1.400 . S
C2411 C2410 1.385 . S
C2412 C2410 1.478 . S
C2412 C2414 1.381 . S
C2412 C2418 1.383 . S
C2413 C2409 1.495 . S
C2413 H2419 0.959 . S
C2413 H2420 0.961 . S
C2413 H2421 0.960 . S
C2414 C2412 1.381 . S
C2414 C2415 1.394 . S
C2414 H2422 0.930 . S
C2415 C2414 1.394 . S
C2415 C2416 1.383 . S
C2415 H2423 0.929 . S
C2416 C2415 1.383 . S
C2416 C2417 1.377 . S
C2417 H2401 0.930 . S
C2417 C2416 1.377 . S
C2417 C2418 1.379 . S
C2418 H2402 0.931 . S
C2418 C2412 1.383 . S
C2418 C2417 1.379 . S
H2419 C2413 0.959 . S
H2420 C2413 0.961 . S
H2421 C2413 0.960 . S
H2422 C2414 0.930 . S
H2423 C2415 0.929 . S
H2424 C2432 0.929 . S
H2425 C2434 0.930 . S
H2426 C2436 0.930 . S
H2427 C2439 0.929 . S
H2428 C2442 0.930 . S
H2429 C2444 0.960 . S
H2430 C2444 0.960 . S
H2431 C2444 0.960 . S
C2432 H2424 0.929 . S
C2432 C2433 1.377 . S
C2432 C2434 1.384 . S
C2433 C2432 1.377 . S
C2433 C2439 1.390 . S
C2434 H2425 0.930 . S
C2434 C2432 1.384 . S
C2434 C2435 1.372 . S
C2435 C2434 1.372 . S
C2435 C2436 1.400 . S
C2435 C2440 1.490 . S
C2436 H2426 0.930 . S
C2436 C2435 1.400 . S
C2436 C2439 1.386 . S
H2437 C2453 0.930 . S
H2438 C2454 0.931 . S
C2439 H2427 0.929 . S
C2439 C2433 1.390 . S
C2439 C2436 1.386 . S
C2440 C2435 1.490 . S
C2440 C2442 1.395 . S
C2440 C2443 1.403 . S
H2441 C2447 0.930 . S
C2442 H2428 0.930 . S
C2442 C2440 1.395 . S
C2442 C2445 1.403 . S
C2443 C2440 1.403 . S
C2443 C2444 1.524 . S
C2443 C2447 1.400 . S
C2444 H2429 0.960 . S
C2444 H2430 0.960 . S
C2444 H2431 0.960 . S
C2444 C2443 1.524 . S
C2445 C2442 1.403 . S
C2445 C2446 1.392 . S
C2445 C2449 1.495 . S
C2446 C2445 1.392 . S
C2446 C2447 1.385 . S
C2446 C2448 1.478 . S
C2447 H2441 0.930 . S
C2447 C2443 1.400 . S
C2447 C2446 1.385 . S
C2448 C2446 1.478 . S
C2448 C2450 1.381 . S
C2448 C2454 1.383 . S
C2449 C2445 1.495 . S
C2449 H2455 0.959 . S
C2449 H2456 0.961 . S
C2449 H2457 0.960 . S
C2450 C2448 1.381 . S
C2450 C2451 1.394 . S
C2450 H2458 0.930 . S
C2451 C2450 1.394 . S
C2451 C2452 1.383 . S
C2451 H2459 0.929 . S
C2452 C2451 1.383 . S
C2452 C2453 1.377 . S
C2453 H2437 0.930 . S
C2453 C2452 1.377 . S
C2453 C2454 1.379 . S
C2454 H2438 0.931 . S
C2454 C2448 1.383 . S
C2454 C2453 1.379 . S
H2455 C2449 0.959 . S
H2456 C2449 0.961 . S
H2457 C2449 0.960 . S
H2458 C2450 0.930 . S
H2459 C2451 0.929 . S
H2460 C2468 0.929 . S
H2461 C2470 0.930 . S
H2462 C2472 0.930 . S
H2463 C2475 0.929 . S
H2464 C2478 0.930 . S
H2465 C2480 0.960 . S
H2466 C2480 0.960 . S
H2467 C2480 0.960 . S
C2468 H2460 0.929 . S
C2468 C2469 1.377 . S
C2468 C2470 1.384 . S
C2469 C2468 1.377 . S
C2469 C2475 1.390 . S
C2470 H2461 0.930 . S
C2470 C2468 1.384 . S
C2470 C2471 1.372 . S
C2471 C2470 1.372 . S
C2471 C2472 1.400 . S
C2471 C2476 1.490 . S
C2472 H2462 0.930 . S
C2472 C2471 1.400 . S
C2472 C2475 1.386 . S
H2473 C2489 0.930 . S
H2474 C2490 0.931 . S
C2475 H2463 0.929 . S
C2475 C2469 1.390 . S
C2475 C2472 1.386 . S
C2476 C2471 1.490 . S
C2476 C2478 1.395 . S
C2476 C2479 1.403 . S
H2477 C2483 0.930 . S
C2478 H2464 0.930 . S
C2478 C2476 1.395 . S
C2478 C2481 1.403 . S
C2479 C2476 1.403 . S
C2479 C2480 1.524 . S
C2479 C2483 1.400 . S
C2480 H2465 0.960 . S
C2480 H2466 0.960 . S
C2480 H2467 0.960 . S
C2480 C2479 1.524 . S
C2481 C2478 1.403 . S
C2481 C2482 1.392 . S
C2481 C2485 1.495 . S
C2482 C2481 1.392 . S
C2482 C2483 1.385 . S
C2482 C2484 1.478 . S
C2483 H2477 0.930 . S
C2483 C2479 1.400 . S
C2483 C2482 1.385 . S
C2484 C2482 1.478 . S
C2484 C2486 1.381 . S
C2484 C2490 1.383 . S
C2485 C2481 1.495 . S
C2485 H2491 0.959 . S
C2485 H2492 0.961 . S
C2485 H2493 0.960 . S
C2486 C2484 1.381 . S
C2486 C2487 1.394 . S
C2486 H2494 0.930 . S
C2487 C2486 1.394 . S
C2487 C2488 1.383 . S
C2487 H2495 0.929 . S
C2488 C2487 1.383 . S
C2488 C2489 1.377 . S
C2489 H2473 0.930 . S
C2489 C2488 1.377 . S
C2489 C2490 1.379 . S
C2490 H2474 0.931 . S
C2490 C2484 1.383 . S
C2490 C2489 1.379 . S
H2491 C2485 0.959 . S
H2492 C2485 0.961 . S
H2493 C2485 0.960 . S
H2494 C2486 0.930 . S
H2495 C2487 0.929 . S
H2496 C2504 0.929 . S
H2497 C2506 0.930 . S
H2498 C2508 0.930 . S
H2499 C2511 0.929 . S
H2500 C2514 0.930 . S
H2501 C2516 0.960 . S
H2502 C2516 0.960 . S
H2503 C2516 0.960 . S
C2504 H2496 0.929 . S
C2504 C2505 1.377 . S
C2504 C2506 1.384 . S
C2505 C2504 1.377 . S
C2505 C2511 1.390 . S
C2506 H2497 0.930 . S
C2506 C2504 1.384 . S
C2506 C2507 1.372 . S
C2507 C2506 1.372 . S
C2507 C2508 1.400 . S
C2507 C2512 1.490 . S
C2508 H2498 0.930 . S
C2508 C2507 1.400 . S
C2508 C2511 1.386 . S
H2509 C2525 0.930 . S
H2510 C2526 0.931 . S
C2511 H2499 0.929 . S
C2511 C2505 1.390 . S
C2511 C2508 1.386 . S
C2512 C2507 1.490 . S
C2512 C2514 1.395 . S
C2512 C2515 1.403 . S
H2513 C2519 0.930 . S
C2514 H2500 0.930 . S
C2514 C2512 1.395 . S
C2514 C2517 1.403 . S
C2515 C2512 1.403 . S
C2515 C2516 1.524 . S
C2515 C2519 1.400 . S
C2516 H2501 0.960 . S
C2516 H2502 0.960 . S
C2516 H2503 0.960 . S
C2516 C2515 1.524 . S
C2517 C2514 1.403 . S
C2517 C2518 1.392 . S
C2517 C2521 1.495 . S
C2518 C2517 1.392 . S
C2518 C2519 1.385 . S
C2518 C2520 1.478 . S
C2519 H2513 0.930 . S
C2519 C2515 1.400 . S
C2519 C2518 1.385 . S
C2520 C2518 1.478 . S
C2520 C2522 1.381 . S
C2520 C2526 1.383 . S
C2521 C2517 1.495 . S
C2521 H2527 0.959 . S
C2521 H2528 0.961 . S
C2521 H2529 0.960 . S
C2522 C2520 1.381 . S
C2522 C2523 1.394 . S
C2522 H2530 0.930 . S
C2523 C2522 1.394 . S
C2523 C2524 1.383 . S
C2523 H2531 0.929 . S
C2524 C2523 1.383 . S
C2524 C2525 1.377 . S
C2525 H2509 0.930 . S
C2525 C2524 1.377 . S
C2525 C2526 1.379 . S
C2526 H2510 0.931 . S
C2526 C2520 1.383 . S
C2526 C2525 1.379 . S
H2527 C2521 0.959 . S
H2528 C2521 0.961 . S
H2529 C2521 0.960 . S
H2530 C2522 0.930 . S
H2531 C2523 0.929 . S
H2532 C2540 0.929 . S
H2533 C2542 0.930 . S
H2534 C2544 0.930 . S
H2535 C2547 0.929 . S
H2536 C2550 0.930 . S
H2537 C2552 0.960 . S
H2538 C2552 0.960 . S
H2539 C2552 0.960 . S
C2540 H2532 0.929 . S
C2540 C2541 1.377 . S
C2540 C2542 1.384 . S
C2541 C2540 1.377 . S
C2541 C2547 1.390 . S
C2542 H2533 0.930 . S
C2542 C2540 1.384 . S
C2542 C2543 1.372 . S
C2543 C2542 1.372 . S
C2543 C2544 1.400 . S
C2543 C2548 1.490 . S
C2544 H2534 0.930 . S
C2544 C2543 1.400 . S
C2544 C2547 1.386 . S
H2545 C2561 0.930 . S
H2546 C2562 0.931 . S
C2547 H2535 0.929 . S
C2547 C2541 1.390 . S
C2547 C2544 1.386 . S
C2548 C2543 1.490 . S
C2548 C2550 1.395 . S
C2548 C2551 1.403 . S
H2549 C2555 0.930 . S
C2550 H2536 0.930 . S
C2550 C2548 1.395 . S
C2550 C2553 1.403 . S
C2551 C2548 1.403 . S
C2551 C2552 1.524 . S
C2551 C2555 1.400 . S
C2552 H2537 0.960 . S
C2552 H2538 0.960 . S
C2552 H2539 0.960 . S
C2552 C2551 1.524 . S
C2553 C2550 1.403 . S
C2553 C2554 1.392 . S
C2553 C2557 1.495 . S
C2554 C2553 1.392 . S
C2554 C2555 1.385 . S
C2554 C2556 1.478 . S
C2555 H2549 0.930 . S
C2555 C2551 1.400 . S
C2555 C2554 1.385 . S
C2556 C2554 1.478 . S
C2556 C2558 1.381 . S
C2556 C2562 1.383 . S
C2557 C2553 1.495 . S
C2557 H2563 0.959 . S
C2557 H2564 0.961 . S
C2557 H2565 0.960 . S
C2558 C2556 1.381 . S
C2558 C2559 1.394 . S
C2558 H2566 0.930 . S
C2559 C2558 1.394 . S
C2559 C2560 1.383 . S
C2559 H2567 0.929 . S
C2560 C2559 1.383 . S
C2560 C2561 1.377 . S
C2561 H2545 0.930 . S
C2561 C2560 1.377 . S
C2561 C2562 1.379 . S
C2562 H2546 0.931 . S
C2562 C2556 1.383 . S
C2562 C2561 1.379 . S
H2563 C2557 0.959 . S
H2564 C2557 0.961 . S
H2565 C2557 0.960 . S
H2566 C2558 0.930 . S
H2567 C2559 0.929 . S
H2568 C2576 0.929 . S
H2569 C2578 0.930 . S
H2570 C2580 0.930 . S
H2571 C2583 0.929 . S
H2572 C2586 0.930 . S
H2573 C2588 0.960 . S
H2574 C2588 0.960 . S
H2575 C2588 0.960 . S
C2576 H2568 0.929 . S
C2576 C2577 1.377 . S
C2576 C2578 1.384 . S
C2577 C2576 1.377 . S
C2577 C2583 1.390 . S
C2578 H2569 0.930 . S
C2578 C2576 1.384 . S
C2578 C2579 1.372 . S
C2579 C2578 1.372 . S
C2579 C2580 1.400 . S
C2579 C2584 1.490 . S
C2580 H2570 0.930 . S
C2580 C2579 1.400 . S
C2580 C2583 1.386 . S
H2581 C2597 0.930 . S
H2582 C2598 0.931 . S
C2583 H2571 0.929 . S
C2583 C2577 1.390 . S
C2583 C2580 1.386 . S
C2584 C2579 1.490 . S
C2584 C2586 1.395 . S
C2584 C2587 1.403 . S
H2585 C2591 0.930 . S
C2586 H2572 0.930 . S
C2586 C2584 1.395 . S
C2586 C2589 1.403 . S
C2587 C2584 1.403 . S
C2587 C2588 1.524 . S
C2587 C2591 1.400 . S
C2588 H2573 0.960 . S
C2588 H2574 0.960 . S
C2588 H2575 0.960 . S
C2588 C2587 1.524 . S
C2589 C2586 1.403 . S
C2589 C2590 1.392 . S
C2589 C2593 1.495 . S
C2590 C2589 1.392 . S
C2590 C2591 1.385 . S
C2590 C2592 1.478 . S
C2591 H2585 0.930 . S
C2591 C2587 1.400 . S
C2591 C2590 1.385 . S
C2592 C2590 1.478 . S
C2592 C2594 1.381 . S
C2592 C2598 1.383 . S
C2593 C2589 1.495 . S
C2593 H2599 0.959 . S
C2593 H2600 0.961 . S
C2593 H2601 0.960 . S
C2594 C2592 1.381 . S
C2594 C2595 1.394 . S
C2594 H2602 0.930 . S
C2595 C2594 1.394 . S
C2595 C2596 1.383 . S
C2595 H2603 0.929 . S
C2596 C2595 1.383 . S
C2596 C2597 1.377 . S
C2597 H2581 0.930 . S
C2597 C2596 1.377 . S
C2597 C2598 1.379 . S
C2598 H2582 0.931 . S
C2598 C2592 1.383 . S
C2598 C2597 1.379 . S
H2599 C2593 0.959 . S
H2600 C2593 0.961 . S
H2601 C2593 0.960 . S
H2602 C2594 0.930 . S
H2603 C2595 0.929 . S
H2604 C2612 0.929 . S
H2605 C2614 0.930 . S
H2606 C2616 0.930 . S
H2607 C2619 0.929 . S
H2608 C2622 0.930 . S
H2609 C2624 0.960 . S
H2610 C2624 0.960 . S
H2611 C2624 0.960 . S
C2612 H2604 0.929 . S
C2612 C2613 1.377 . S
C2612 C2614 1.384 . S
C2613 C2612 1.377 . S
C2613 C2619 1.390 . S
C2614 H2605 0.930 . S
C2614 C2612 1.384 . S
C2614 C2615 1.372 . S
C2615 C2614 1.372 . S
C2615 C2616 1.400 . S
C2615 C2620 1.490 . S
C2616 H2606 0.930 . S
C2616 C2615 1.400 . S
C2616 C2619 1.386 . S
H2617 C2633 0.930 . S
H2618 C2634 0.931 . S
C2619 H2607 0.929 . S
C2619 C2613 1.390 . S
C2619 C2616 1.386 . S
C2620 C2615 1.490 . S
C2620 C2622 1.395 . S
C2620 C2623 1.403 . S
H2621 C2627 0.930 . S
C2622 H2608 0.930 . S
C2622 C2620 1.395 . S
C2622 C2625 1.403 . S
C2623 C2620 1.403 . S
C2623 C2624 1.524 . S
C2623 C2627 1.400 . S
C2624 H2609 0.960 . S
C2624 H2610 0.960 . S
C2624 H2611 0.960 . S
C2624 C2623 1.524 . S
C2625 C2622 1.403 . S
C2625 C2626 1.392 . S
C2625 C2629 1.495 . S
C2626 C2625 1.392 . S
C2626 C2627 1.385 . S
C2626 C2628 1.478 . S
C2627 H2621 0.930 . S
C2627 C2623 1.400 . S
C2627 C2626 1.385 . S
C2628 C2626 1.478 . S
C2628 C2630 1.381 . S
C2628 C2634 1.383 . S
C2629 C2625 1.495 . S
C2629 H2635 0.959 . S
C2629 H2636 0.961 . S
C2629 H2637 0.960 . S
C2630 C2628 1.381 . S
C2630 C2631 1.394 . S
C2630 H2638 0.930 . S
C2631 C2630 1.394 . S
C2631 C2632 1.383 . S
C2631 H2639 0.929 . S
C2632 C2631 1.383 . S
C2632 C2633 1.377 . S
C2633 H2617 0.930 . S
C2633 C2632 1.377 . S
C2633 C2634 1.379 . S
C2634 H2618 0.931 . S
C2634 C2628 1.383 . S
C2634 C2633 1.379 . S
H2635 C2629 0.959 . S
H2636 C2629 0.961 . S
H2637 C2629 0.960 . S
H2638 C2630 0.930 . S
H2639 C2631 0.929 . S
H2640 C2648 0.929 . S
H2641 C2650 0.930 . S
H2642 C2652 0.930 . S
H2643 C2655 0.929 . S
H2644 C2658 0.930 . S
H2645 C2660 0.960 . S
H2646 C2660 0.960 . S
H2647 C2660 0.960 . S
C2648 H2640 0.929 . S
C2648 C2649 1.377 . S
C2648 C2650 1.384 . S
C2649 C2648 1.377 . S
C2649 C2655 1.390 . S
C2650 H2641 0.930 . S
C2650 C2648 1.384 . S
C2650 C2651 1.372 . S
C2651 C2650 1.372 . S
C2651 C2652 1.400 . S
C2651 C2656 1.490 . S
C2652 H2642 0.930 . S
C2652 C2651 1.400 . S
C2652 C2655 1.386 . S
H2653 C2669 0.930 . S
H2654 C2670 0.931 . S
C2655 H2643 0.929 . S
C2655 C2649 1.390 . S
C2655 C2652 1.386 . S
C2656 C2651 1.490 . S
C2656 C2658 1.395 . S
C2656 C2659 1.403 . S
H2657 C2663 0.930 . S
C2658 H2644 0.930 . S
C2658 C2656 1.395 . S
C2658 C2661 1.403 . S
C2659 C2656 1.403 . S
C2659 C2660 1.524 . S
C2659 C2663 1.400 . S
C2660 H2645 0.960 . S
C2660 H2646 0.960 . S
C2660 H2647 0.960 . S
C2660 C2659 1.524 . S
C2661 C2658 1.403 . S
C2661 C2662 1.392 . S
C2661 C2665 1.495 . S
C2662 C2661 1.392 . S
C2662 C2663 1.385 . S
C2662 C2664 1.478 . S
C2663 H2657 0.930 . S
C2663 C2659 1.400 . S
C2663 C2662 1.385 . S
C2664 C2662 1.478 . S
C2664 C2666 1.381 . S
C2664 C2670 1.383 . S
C2665 C2661 1.495 . S
C2665 H2671 0.959 . S
C2665 H2672 0.961 . S
C2665 H2673 0.960 . S
C2666 C2664 1.381 . S
C2666 C2667 1.394 . S
C2666 H2674 0.930 . S
C2667 C2666 1.394 . S
C2667 C2668 1.383 . S
C2667 H2675 0.929 . S
C2668 C2667 1.383 . S
C2668 C2669 1.377 . S
C2669 H2653 0.930 . S
C2669 C2668 1.377 . S
C2669 C2670 1.379 . S
C2670 H2654 0.931 . S
C2670 C2664 1.383 . S
C2670 C2669 1.379 . S
H2671 C2665 0.959 . S
H2672 C2665 0.961 . S
H2673 C2665 0.960 . S
H2674 C2666 0.930 . S
H2675 C2667 0.929 . S
H2676 C2684 0.929 . S
H2677 C2686 0.930 . S
H2678 C2688 0.930 . S
H2679 C2691 0.929 . S
H2680 C2694 0.930 . S
H2681 C2696 0.960 . S
H2682 C2696 0.960 . S
H2683 C2696 0.960 . S
C2684 H2676 0.929 . S
C2684 C2685 1.377 . S
C2684 C2686 1.384 . S
C2685 C2684 1.377 . S
C2685 C2691 1.390 . S
C2686 H2677 0.930 . S
C2686 C2684 1.384 . S
C2686 C2687 1.372 . S
C2687 C2686 1.372 . S
C2687 C2688 1.400 . S
C2687 C2692 1.490 . S
C2688 H2678 0.930 . S
C2688 C2687 1.400 . S
C2688 C2691 1.386 . S
H2689 C2705 0.930 . S
H2690 C2706 0.931 . S
C2691 H2679 0.929 . S
C2691 C2685 1.390 . S
C2691 C2688 1.386 . S
C2692 C2687 1.490 . S
C2692 C2694 1.395 . S
C2692 C2695 1.403 . S
H2693 C2699 0.930 . S
C2694 H2680 0.930 . S
C2694 C2692 1.395 . S
C2694 C2697 1.403 . S
C2695 C2692 1.403 . S
C2695 C2696 1.524 . S
C2695 C2699 1.400 . S
C2696 H2681 0.960 . S
C2696 H2682 0.960 . S
C2696 H2683 0.960 . S
C2696 C2695 1.524 . S
C2697 C2694 1.403 . S
C2697 C2698 1.392 . S
C2697 C2701 1.495 . S
C2698 C2697 1.392 . S
C2698 C2699 1.385 . S
C2698 C2700 1.478 . S
C2699 H2693 0.930 . S
C2699 C2695 1.400 . S
C2699 C2698 1.385 . S
C2700 C2698 1.478 . S
C2700 C2702 1.381 . S
C2700 C2706 1.383 . S
C2701 C2697 1.495 . S
C2701 H2707 0.959 . S
C2701 H2708 0.961 . S
C2701 H2709 0.960 . S
C2702 C2700 1.381 . S
C2702 C2703 1.394 . S
C2702 H2710 0.930 . S
C2703 C2702 1.394 . S
C2703 C2704 1.383 . S
C2703 H2711 0.929 . S
C2704 C2703 1.383 . S
C2704 C2705 1.377 . S
C2705 H2689 0.930 . S
C2705 C2704 1.377 . S
C2705 C2706 1.379 . S
C2706 H2690 0.931 . S
C2706 C2700 1.383 . S
C2706 C2705 1.379 . S
H2707 C2701 0.959 . S
H2708 C2701 0.961 . S
H2709 C2701 0.960 . S
H2710 C2702 0.930 . S
H2711 C2703 0.929 . S
H2712 C2720 0.929 . S
H2713 C2722 0.930 . S
H2714 C2724 0.930 . S
H2715 C2727 0.929 . S
H2716 C2730 0.930 . S
H2717 C2732 0.960 . S
H2718 C2732 0.960 . S
H2719 C2732 0.960 . S
C2720 H2712 0.929 . S
C2720 C2721 1.377 . S
C2720 C2722 1.384 . S
C2721 C2720 1.377 . S
C2721 C2727 1.390 . S
C2722 H2713 0.930 . S
C2722 C2720 1.384 . S
C2722 C2723 1.372 . S
C2723 C2722 1.372 . S
C2723 C2724 1.400 . S
C2723 C2728 1.490 . S
C2724 H2714 0.930 . S
C2724 C2723 1.400 . S
C2724 C2727 1.386 . S
H2725 C2741 0.930 . S
H2726 C2742 0.931 . S
C2727 H2715 0.929 . S
C2727 C2721 1.390 . S
C2727 C2724 1.386 . S
C2728 C2723 1.490 . S
C2728 C2730 1.395 . S
C2728 C2731 1.403 . S
H2729 C2735 0.930 . S
C2730 H2716 0.930 . S
C2730 C2728 1.395 . S
C2730 C2733 1.403 . S
C2731 C2728 1.403 . S
C2731 C2732 1.524 . S
C2731 C2735 1.400 . S
C2732 H2717 0.960 . S
C2732 H2718 0.960 . S
C2732 H2719 0.960 . S
C2732 C2731 1.524 . S
C2733 C2730 1.403 . S
C2733 C2734 1.392 . S
C2733 C2737 1.495 . S
C2734 C2733 1.392 . S
C2734 C2735 1.385 . S
C2734 C2736 1.478 . S
C2735 H2729 0.930 . S
C2735 C2731 1.400 . S
C2735 C2734 1.385 . S
C2736 C2734 1.478 . S
C2736 C2738 1.381 . S
C2736 C2742 1.383 . S
C2737 C2733 1.495 . S
C2737 H2743 0.959 . S
C2737 H2744 0.961 . S
C2737 H2745 0.960 . S
C2738 C2736 1.381 . S
C2738 C2739 1.394 . S
C2738 H2746 0.930 . S
C2739 C2738 1.394 . S
C2739 C2740 1.383 . S
C2739 H2747 0.929 . S
C2740 C2739 1.383 . S
C2740 C2741 1.377 . S
C2741 H2725 0.930 . S
C2741 C2740 1.377 . S
C2741 C2742 1.379 . S
C2742 H2726 0.931 . S
C2742 C2736 1.383 . S
C2742 C2741 1.379 . S
H2743 C2737 0.959 . S
H2744 C2737 0.961 . S
H2745 C2737 0.960 . S
H2746 C2738 0.930 . S
H2747 C2739 0.929 . S
H2748 C2756 0.929 . S
H2749 C2758 0.930 . S
H2750 C2760 0.930 . S
H2751 C2763 0.929 . S
H2752 C2766 0.930 . S
H2753 C2768 0.960 . S
H2754 C2768 0.960 . S
H2755 C2768 0.960 . S
C2756 H2748 0.929 . S
C2756 C2757 1.377 . S
C2756 C2758 1.384 . S
C2757 C2756 1.377 . S
C2757 C2763 1.390 . S
C2758 H2749 0.930 . S
C2758 C2756 1.384 . S
C2758 C2759 1.372 . S
C2759 C2758 1.372 . S
C2759 C2760 1.400 . S
C2759 C2764 1.490 . S
C2760 H2750 0.930 . S
C2760 C2759 1.400 . S
C2760 C2763 1.386 . S
H2761 C2777 0.930 . S
H2762 C2778 0.931 . S
C2763 H2751 0.929 . S
C2763 C2757 1.390 . S
C2763 C2760 1.386 . S
C2764 C2759 1.490 . S
C2764 C2766 1.395 . S
C2764 C2767 1.403 . S
H2765 C2771 0.930 . S
C2766 H2752 0.930 . S
C2766 C2764 1.395 . S
C2766 C2769 1.403 . S
C2767 C2764 1.403 . S
C2767 C2768 1.524 . S
C2767 C2771 1.400 . S
C2768 H2753 0.960 . S
C2768 H2754 0.960 . S
C2768 H2755 0.960 . S
C2768 C2767 1.524 . S
C2769 C2766 1.403 . S
C2769 C2770 1.392 . S
C2769 C2773 1.495 . S
C2770 C2769 1.392 . S
C2770 C2771 1.385 . S
C2770 C2772 1.478 . S
C2771 H2765 0.930 . S
C2771 C2767 1.400 . S
C2771 C2770 1.385 . S
C2772 C2770 1.478 . S
C2772 C2774 1.381 . S
C2772 C2778 1.383 . S
C2773 C2769 1.495 . S
C2773 H2779 0.959 . S
C2773 H2780 0.961 . S
C2773 H2781 0.960 . S
C2774 C2772 1.381 . S
C2774 C2775 1.394 . S
C2774 H2782 0.930 . S
C2775 C2774 1.394 . S
C2775 C2776 1.383 . S
C2775 H2783 0.929 . S
C2776 C2775 1.383 . S
C2776 C2777 1.377 . S
C2777 H2761 0.930 . S
C2777 C2776 1.377 . S
C2777 C2778 1.379 . S
C2778 H2762 0.931 . S
C2778 C2772 1.383 . S
C2778 C2777 1.379 . S
H2779 C2773 0.959 . S
H2780 C2773 0.961 . S
H2781 C2773 0.960 . S
H2782 C2774 0.930 . S
H2783 C2775 0.929 . S
H2784 C2792 0.929 . S
H2785 C2794 0.930 . S
H2786 C2796 0.930 . S
H2787 C2799 0.929 . S
H2788 C2802 0.930 . S
H2789 C2804 0.960 . S
H2790 C2804 0.960 . S
H2791 C2804 0.960 . S
C2792 H2784 0.929 . S
C2792 C2793 1.377 . S
C2792 C2794 1.384 . S
C2793 C2792 1.377 . S
C2793 C2799 1.390 . S
C2794 H2785 0.930 . S
C2794 C2792 1.384 . S
C2794 C2795 1.372 . S
C2795 C2794 1.372 . S
C2795 C2796 1.400 . S
C2795 C2800 1.490 . S
C2796 H2786 0.930 . S
C2796 C2795 1.400 . S
C2796 C2799 1.386 . S
H2797 C2813 0.930 . S
H2798 C2814 0.931 . S
C2799 H2787 0.929 . S
C2799 C2793 1.390 . S
C2799 C2796 1.386 . S
C2800 C2795 1.490 . S
C2800 C2802 1.395 . S
C2800 C2803 1.403 . S
H2801 C2807 0.930 . S
C2802 H2788 0.930 . S
C2802 C2800 1.395 . S
C2802 C2805 1.403 . S
C2803 C2800 1.403 . S
C2803 C2804 1.524 . S
C2803 C2807 1.400 . S
C2804 H2789 0.960 . S
C2804 H2790 0.960 . S
C2804 H2791 0.960 . S
C2804 C2803 1.524 . S
C2805 C2802 1.403 . S
C2805 C2806 1.392 . S
C2805 C2809 1.495 . S
C2806 C2805 1.392 . S
C2806 C2807 1.385 . S
C2806 C2808 1.478 . S
C2807 H2801 0.930 . S
C2807 C2803 1.400 . S
C2807 C2806 1.385 . S
C2808 C2806 1.478 . S
C2808 C2810 1.381 . S
C2808 C2814 1.383 . S
C2809 C2805 1.495 . S
C2809 H2815 0.959 . S
C2809 H2816 0.961 . S
C2809 H2817 0.960 . S
C2810 C2808 1.381 . S
C2810 C2811 1.394 . S
C2810 H2818 0.930 . S
C2811 C2810 1.394 . S
C2811 C2812 1.383 . S
C2811 H2819 0.929 . S
C2812 C2811 1.383 . S
C2812 C2813 1.377 . S
C2813 H2797 0.930 . S
C2813 C2812 1.377 . S
C2813 C2814 1.379 . S
C2814 H2798 0.931 . S
C2814 C2808 1.383 . S
C2814 C2813 1.379 . S
H2815 C2809 0.959 . S
H2816 C2809 0.961 . S
H2817 C2809 0.960 . S
H2818 C2810 0.930 . S
H2819 C2811 0.929 . S
H2820 C2828 0.929 . S
H2821 C2830 0.930 . S
H2822 C2832 0.930 . S
H2823 C2835 0.929 . S
H2824 C2838 0.930 . S
H2825 C2840 0.960 . S
H2826 C2840 0.960 . S
H2827 C2840 0.960 . S
C2828 H2820 0.929 . S
C2828 C2829 1.377 . S
C2828 C2830 1.384 . S
C2829 C2828 1.377 . S
C2829 C2835 1.390 . S
C2830 H2821 0.930 . S
C2830 C2828 1.384 . S
C2830 C2831 1.372 . S
C2831 C2830 1.372 . S
C2831 C2832 1.400 . S
C2831 C2836 1.490 . S
C2832 H2822 0.930 . S
C2832 C2831 1.400 . S
C2832 C2835 1.386 . S
H2833 C2849 0.930 . S
H2834 C2850 0.931 . S
C2835 H2823 0.929 . S
C2835 C2829 1.390 . S
C2835 C2832 1.386 . S
C2836 C2831 1.490 . S
C2836 C2838 1.395 . S
C2836 C2839 1.403 . S
H2837 C2843 0.930 . S
C2838 H2824 0.930 . S
C2838 C2836 1.395 . S
C2838 C2841 1.403 . S
C2839 C2836 1.403 . S
C2839 C2840 1.524 . S
C2839 C2843 1.400 . S
C2840 H2825 0.960 . S
C2840 H2826 0.960 . S
C2840 H2827 0.960 . S
C2840 C2839 1.524 . S
C2841 C2838 1.403 . S
C2841 C2842 1.392 . S
C2841 C2845 1.495 . S
C2842 C2841 1.392 . S
C2842 C2843 1.385 . S
C2842 C2844 1.478 . S
C2843 H2837 0.930 . S
C2843 C2839 1.400 . S
C2843 C2842 1.385 . S
C2844 C2842 1.478 . S
C2844 C2846 1.381 . S
C2844 C2850 1.383 . S
C2845 C2841 1.495 . S
C2845 H2851 0.959 . S
C2845 H2852 0.961 . S
C2845 H2853 0.960 . S
C2846 C2844 1.381 . S
C2846 C2847 1.394 . S
C2846 H2854 0.930 . S
C2847 C2846 1.394 . S
C2847 C2848 1.383 . S
C2847 H2855 0.929 . S
C2848 C2847 1.383 . S
C2848 C2849 1.377 . S
C2849 H2833 0.930 . S
C2849 C2848 1.377 . S
C2849 C2850 1.379 . S
C2850 H2834 0.931 . S
C2850 C2844 1.383 . S
C2850 C2849 1.379 . S
H2851 C2845 0.959 . S
H2852 C2845 0.961 . S
H2853 C2845 0.960 . S
H2854 C2846 0.930 . S
H2855 C2847 0.929 . S
H2856 C2864 0.929 . S
H2857 C2866 0.930 . S
H2858 C2868 0.930 . S
H2859 C2871 0.929 . S
H2860 C2874 0.930 . S
H2861 C2876 0.960 . S
H2862 C2876 0.960 . S
H2863 C2876 0.960 . S
C2864 H2856 0.929 . S
C2864 C2865 1.377 . S
C2864 C2866 1.384 . S
C2865 C2864 1.377 . S
C2865 C2871 1.390 . S
C2866 H2857 0.930 . S
C2866 C2864 1.384 . S
C2866 C2867 1.372 . S
C2867 C2866 1.372 . S
C2867 C2868 1.400 . S
C2867 C2872 1.490 . S
C2868 H2858 0.930 . S
C2868 C2867 1.400 . S
C2868 C2871 1.386 . S
H2869 C2885 0.930 . S
H2870 C2886 0.931 . S
C2871 H2859 0.929 . S
C2871 C2865 1.390 . S
C2871 C2868 1.386 . S
C2872 C2867 1.490 . S
C2872 C2874 1.395 . S
C2872 C2875 1.403 . S
H2873 C2879 0.930 . S
C2874 H2860 0.930 . S
C2874 C2872 1.395 . S
C2874 C2877 1.403 . S
C2875 C2872 1.403 . S
C2875 C2876 1.524 . S
C2875 C2879 1.400 . S
C2876 H2861 0.960 . S
C2876 H2862 0.960 . S
C2876 H2863 0.960 . S
C2876 C2875 1.524 . S
C2877 C2874 1.403 . S
C2877 C2878 1.392 . S
C2877 C2881 1.495 . S
C2878 C2877 1.392 . S
C2878 C2879 1.385 . S
C2878 C2880 1.478 . S
C2879 H2873 0.930 . S
C2879 C2875 1.400 . S
C2879 C2878 1.385 . S
C2880 C2878 1.478 . S
C2880 C2882 1.381 . S
C2880 C2886 1.383 . S
C2881 C2877 1.495 . S
C2881 H2887 0.959 . S
C2881 H2888 0.961 . S
C2881 H2889 0.960 . S
C2882 C2880 1.381 . S
C2882 C2883 1.394 . S
C2882 H2890 0.930 . S
C2883 C2882 1.394 . S
C2883 C2884 1.383 . S
C2883 H2891 0.929 . S
C2884 C2883 1.383 . S
C2884 C2885 1.377 . S
C2885 H2869 0.930 . S
C2885 C2884 1.377 . S
C2885 C2886 1.379 . S
C2886 H2870 0.931 . S
C2886 C2880 1.383 . S
C2886 C2885 1.379 . S
H2887 C2881 0.959 . S
H2888 C2881 0.961 . S
H2889 C2881 0.960 . S
H2890 C2882 0.930 . S
H2891 C2883 0.929 . S
H2892 C2900 0.929 . S
H2893 C2902 0.930 . S
H2894 C2904 0.930 . S
H2895 C2907 0.929 . S
H2896 C2910 0.930 . S
H2897 C2912 0.960 . S
H2898 C2912 0.960 . S
H2899 C2912 0.960 . S
C2900 H2892 0.929 . S
C2900 C2901 1.377 . S
C2900 C2902 1.384 . S
C2901 C2900 1.377 . S
C2901 C2907 1.390 . S
C2902 H2893 0.930 . S
C2902 C2900 1.384 . S
C2902 C2903 1.372 . S
C2903 C2902 1.372 . S
C2903 C2904 1.400 . S
C2903 C2908 1.490 . S
C2904 H2894 0.930 . S
C2904 C2903 1.400 . S
C2904 C2907 1.386 . S
H2905 C2921 0.930 . S
H2906 C2922 0.931 . S
C2907 H2895 0.929 . S
C2907 C2901 1.390 . S
C2907 C2904 1.386 . S
C2908 C2903 1.490 . S
C2908 C2910 1.395 . S
C2908 C2911 1.403 . S
H2909 C2915 0.930 . S
C2910 H2896 0.930 . S
C2910 C2908 1.395 . S
C2910 C2913 1.403 . S
C2911 C2908 1.403 . S
C2911 C2912 1.524 . S
C2911 C2915 1.400 . S
C2912 H2897 0.960 . S
C2912 H2898 0.960 . S
C2912 H2899 0.960 . S
C2912 C2911 1.524 . S
C2913 C2910 1.403 . S
C2913 C2914 1.392 . S
C2913 C2917 1.495 . S
C2914 C2913 1.392 . S
C2914 C2915 1.385 . S
C2914 C2916 1.478 . S
C2915 H2909 0.930 . S
C2915 C2911 1.400 . S
C2915 C2914 1.385 . S
C2916 C2914 1.478 . S
C2916 C2918 1.381 . S
C2916 C2922 1.383 . S
C2917 C2913 1.495 . S
C2917 H2923 0.959 . S
C2917 H2924 0.961 . S
C2917 H2925 0.960 . S
C2918 C2916 1.381 . S
C2918 C2919 1.394 . S
C2918 H2926 0.930 . S
C2919 C2918 1.394 . S
C2919 C2920 1.383 . S
C2919 H2927 0.929 . S
C2920 C2919 1.383 . S
C2920 C2921 1.377 . S
C2921 H2905 0.930 . S
C2921 C2920 1.377 . S
C2921 C2922 1.379 . S
C2922 H2906 0.931 . S
C2922 C2916 1.383 . S
C2922 C2921 1.379 . S
H2923 C2917 0.959 . S
H2924 C2917 0.961 . S
H2925 C2917 0.960 . S
H2926 C2918 0.930 . S
H2927 C2919 0.929 . S
H2928 C2936 0.929 . S
H2929 C2938 0.930 . S
H2930 C2940 0.930 . S
H2931 C2943 0.929 . S
H2932 C2946 0.930 . S
H2933 C2948 0.960 . S
H2934 C2948 0.960 . S
H2935 C2948 0.960 . S
C2936 H2928 0.929 . S
C2936 C2937 1.377 . S
C2936 C2938 1.384 . S
C2937 C2936 1.377 . S
C2937 C2943 1.390 . S
C2938 H2929 0.930 . S
C2938 C2936 1.384 . S
C2938 C2939 1.372 . S
C2939 C2938 1.372 . S
C2939 C2940 1.400 . S
C2939 C2944 1.490 . S
C2940 H2930 0.930 . S
C2940 C2939 1.400 . S
C2940 C2943 1.386 . S
H2941 C2957 0.930 . S
H2942 C2958 0.931 . S
C2943 H2931 0.929 . S
C2943 C2937 1.390 . S
C2943 C2940 1.386 . S
C2944 C2939 1.490 . S
C2944 C2946 1.395 . S
C2944 C2947 1.403 . S
H2945 C2951 0.930 . S
C2946 H2932 0.930 . S
C2946 C2944 1.395 . S
C2946 C2949 1.403 . S
C2947 C2944 1.403 . S
C2947 C2948 1.524 . S
C2947 C2951 1.400 . S
C2948 H2933 0.960 . S
C2948 H2934 0.960 . S
C2948 H2935 0.960 . S
C2948 C2947 1.524 . S
C2949 C2946 1.403 . S
C2949 C2950 1.392 . S
C2949 C2953 1.495 . S
C2950 C2949 1.392 . S
C2950 C2951 1.385 . S
C2950 C2952 1.478 . S
C2951 H2945 0.930 . S
C2951 C2947 1.400 . S
C2951 C2950 1.385 . S
C2952 C2950 1.478 . S
C2952 C2954 1.381 . S
C2952 C2958 1.383 . S
C2953 C2949 1.495 . S
C2953 H2959 0.959 . S
C2953 H2960 0.961 . S
C2953 H2961 0.960 . S
C2954 C2952 1.381 . S
C2954 C2955 1.394 . S
C2954 H2962 0.930 . S
C2955 C2954 1.394 . S
C2955 C2956 1.383 . S
C2955 H2963 0.929 . S
C2956 C2955 1.383 . S
C2956 C2957 1.377 . S
C2957 H2941 0.930 . S
C2957 C2956 1.377 . S
C2957 C2958 1.379 . S
C2958 H2942 0.931 . S
C2958 C2952 1.383 . S
C2958 C2957 1.379 . S
H2959 C2953 0.959 . S
H2960 C2953 0.961 . S
H2961 C2953 0.960 . S
H2962 C2954 0.930 . S
H2963 C2955 0.929 . S
H2964 C2972 0.929 . S
H2965 C2974 0.930 . S
H2966 C2976 0.930 . S
H2967 C2979 0.929 . S
H2968 C2982 0.930 . S
H2969 C2984 0.960 . S
H2970 C2984 0.960 . S
H2971 C2984 0.960 . S
C2972 H2964 0.929 . S
C2972 C2973 1.377 . S
C2972 C2974 1.384 . S
C2973 C2972 1.377 . S
C2973 C2979 1.390 . S
C2974 H2965 0.930 . S
C2974 C2972 1.384 . S
C2974 C2975 1.372 . S
C2975 C2974 1.372 . S
C2975 C2976 1.400 . S
C2975 C2980 1.490 . S
C2976 H2966 0.930 . S
C2976 C2975 1.400 . S
C2976 C2979 1.386 . S
H2977 C2993 0.930 . S
H2978 C2994 0.931 . S
C2979 H2967 0.929 . S
C2979 C2973 1.390 . S
C2979 C2976 1.386 . S
C2980 C2975 1.490 . S
C2980 C2982 1.395 . S
C2980 C2983 1.403 . S
H2981 C2987 0.930 . S
C2982 H2968 0.930 . S
C2982 C2980 1.395 . S
C2982 C2985 1.403 . S
C2983 C2980 1.403 . S
C2983 C2984 1.524 . S
C2983 C2987 1.400 . S
C2984 H2969 0.960 . S
C2984 H2970 0.960 . S
C2984 H2971 0.960 . S
C2984 C2983 1.524 . S
C2985 C2982 1.403 . S
C2985 C2986 1.392 . S
C2985 C2989 1.495 . S
C2986 C2985 1.392 . S
C2986 C2987 1.385 . S
C2986 C2988 1.478 . S
C2987 H2981 0.930 . S
C2987 C2983 1.400 . S
C2987 C2986 1.385 . S
C2988 C2986 1.478 . S
C2988 C2990 1.381 . S
C2988 C2994 1.383 . S
C2989 C2985 1.495 . S
C2989 H2995 0.959 . S
C2989 H2996 0.961 . S
C2989 H2997 0.960 . S
C2990 C2988 1.381 . S
C2990 C2991 1.394 . S
C2990 H2998 0.930 . S
C2991 C2990 1.394 . S
C2991 C2992 1.383 . S
C2991 H2999 0.929 . S
C2992 C2991 1.383 . S
C2992 C2993 1.377 . S
C2993 H2977 0.930 . S
C2993 C2992 1.377 . S
C2993 C2994 1.379 . S
C2994 H2978 0.931 . S
C2994 C2988 1.383 . S
C2994 C2993 1.379 . S
H2995 C2989 0.959 . S
H2996 C2989 0.961 . S
H2997 C2989 0.960 . S
H2998 C2990 0.930 . S
H2999 C2991 0.929 . S
C1281 C1204 2.475 . S
C1300 C38 2.388 . S
C1317 C75 2.358 . S
C1336 C870 2.287 . S
C1353 C1257 2.228 . S
C1372 C144 2.126 . S
C1389 C1135 2.282 . S
C1408 C181 2.336 . S
C1425 C992 2.228 . S
C1444 C250 2.126 . S
C1461 C1029 2.274 . S
C1480 C287 2.345 . S
C1497 C1098 2.476 . S
C1516 C356 2.382 . S
C1533 C393 2.347 . S
C1552 C923 2.274 . S
C1569 C727 2.267 . S
C1588 C446 2.225 . S
C1605 C764 2.211 . S
C1624 C515 2.254 . S
C1641 C568 2.267 . S
C1660 C833 2.300 . S
C1677 C621 2.307 . S
C1696 C674 2.259 . S
C1713 C409 2.327 . S
C1732 C780 2.409 . S
C1749 C817 2.363 . S
C1768 C234 2.427 . S
C1785 C303 2.154 . S
C1804 C658 2.199 . S
C1821 C711 2.333 . S
C1840 C340 2.415 . S
C1857 C552 2.211 . S
C1876 C91 2.162 . S
C1893 C128 2.429 . S
C1912 C605 2.343 . S
C1929 C197 2.333 . S
C1948 C462 2.399 . S
C1965 C22 2.409 . S
C1984 C499 2.327 . S
C2001 C1082 2.291 . S
C2020 C1151 2.338 . S
C2037 C1188 2.288 . S
C2056 C939 2.348 . S
C2073 C976 2.187 . S
C2092 C886 2.232 . S
C2109 C1241 2.179 . S
C2128 C1045 2.244 . S
C2145 C39 1.740 . S
C2164 C463 1.784 . S
C2181 C506 1.143 . S
C2200 C82 1.123 . S
C2217 C145 1.362 . S
C2236 C559 1.350 . S
C2253 C188 1.261 . S
C2272 C612 1.191 . S
C2289 C251 1.347 . S
C2308 C665 1.409 . S
C2325 C294 1.161 . S
C2344 C718 1.122 . S
C2361 C781 1.789 . S
C2380 C357 1.752 . S
C2397 C824 1.224 . S
C2416 C400 1.286 . S
C2433 C453 1.486 . S
C2452 C887 1.468 . S
C2469 C516 1.475 . S
C2488 C1248 1.499 . S
C2505 C1152 1.809 . S
C2524 C569 1.803 . S
C2541 C1195 1.486 . S
C2560 C622 1.501 . S
C2577 C940 1.808 . S
C2596 C675 1.808 . S
C2613 C983 1.476 . S
C2632 C728 1.501 . S
C2649 C771 1.476 . S
C2668 C1046 1.495 . S
C2685 C834 1.498 . S
C2704 C1089 1.460 . S
C2721 C29 1.235 . S
C2740 C877 1.254 . S
C2757 C930 1.232 . S
C2776 C241 1.273 . S
C2793 C993 1.786 . S
C2812 C304 1.765 . S
C2829 C1036 1.222 . S
C2848 C347 1.208 . S
C2865 C1099 1.837 . S
C2884 C410 1.781 . S
C2901 C1142 1.231 . S
C2920 C135 1.273 . S
C2937 C198 1.792 . S
C2956 C1205 1.814 . S
C2973 C1258 1.790 . S
C2992 C92 1.727 . S
