# Generated by pormake.
# Topology wmc, (6)-cn, num edge types: 1
# Building blocks:
#     Node 0, Type 0, BuildingBlock: FUNLAD_clean_sbu_0, # of connection points: 6
#     Node 1, Type 0, BuildingBlock: FUNLAD_clean_sbu_0, # of connection points: 6
#     Node 2, Type 0, BuildingBlock: FUNLAD_clean_sbu_0, # of connection points: 6
#     Node 3, Type 0, BuildingBlock: FUNLAD_clean_sbu_0, # of connection points: 6
#     Node 4, Type 0, BuildingBlock: FUNLAD_clean_sbu_0, # of connection points: 6
#     Node 5, Type 0, BuildingBlock: FUNLAD_clean_sbu_0, # of connection points: 6
#     Node 6, Type 0, BuildingBlock: FUNLAD_clean_sbu_0, # of connection points: 6
#     Node 7, Type 0, BuildingBlock: FUNLAD_clean_sbu_0, # of connection points: 6
#     Node 8, Type 0, BuildingBlock: FUNLAD_clean_sbu_0, # of connection points: 6
#     Node 9, Type 0, BuildingBlock: FUNLAD_clean_sbu_0, # of connection points: 6
#     Node 10, Type 0, BuildingBlock: FUNLAD_clean_sbu_0, # of connection points: 6
#     Node 11, Type 0, BuildingBlock: FUNLAD_clean_sbu_0, # of connection points: 6
#     Node 12, Type 0, BuildingBlock: FUNLAD_clean_sbu_0, # of connection points: 6
#     Node 13, Type 0, BuildingBlock: FUNLAD_clean_sbu_0, # of connection points: 6
#     Node 14, Type 0, BuildingBlock: FUNLAD_clean_sbu_0, # of connection points: 6
#     Node 15, Type 0, BuildingBlock: FUNLAD_clean_sbu_0, # of connection points: 6
#     Node 16, Type 0, BuildingBlock: FUNLAD_clean_sbu_0, # of connection points: 6
#     Node 17, Type 0, BuildingBlock: FUNLAD_clean_sbu_0, # of connection points: 6
#     Edge 18, Type (0, 0), BuildingBlock: XIVTED_clean_linker_0, # of connection points: 2
#     Edge 19, Type (0, 0), BuildingBlock: XIVTED_clean_linker_0, # of connection points: 2
#     Edge 20, Type (0, 0), BuildingBlock: XIVTED_clean_linker_0, # of connection points: 2
#     Edge 21, Type (0, 0), BuildingBlock: XIVTED_clean_linker_0, # of connection points: 2
#     Edge 22, Type (0, 0), BuildingBlock: XIVTED_clean_linker_0, # of connection points: 2
#     Edge 23, Type (0, 0), BuildingBlock: XIVTED_clean_linker_0, # of connection points: 2
#     Edge 24, Type (0, 0), BuildingBlock: XIVTED_clean_linker_0, # of connection points: 2
#     Edge 25, Type (0, 0), BuildingBlock: XIVTED_clean_linker_0, # of connection points: 2
#     Edge 26, Type (0, 0), BuildingBlock: XIVTED_clean_linker_0, # of connection points: 2
#     Edge 27, Type (0, 0), BuildingBlock: XIVTED_clean_linker_0, # of connection points: 2
#     Edge 28, Type (0, 0), BuildingBlock: XIVTED_clean_linker_0, # of connection points: 2
#     Edge 29, Type (0, 0), BuildingBlock: XIVTED_clean_linker_0, # of connection points: 2
#     Edge 30, Type (0, 0), BuildingBlock: XIVTED_clean_linker_0, # of connection points: 2
#     Edge 31, Type (0, 0), BuildingBlock: XIVTED_clean_linker_0, # of connection points: 2
#     Edge 32, Type (0, 0), BuildingBlock: XIVTED_clean_linker_0, # of connection points: 2
#     Edge 33, Type (0, 0), BuildingBlock: XIVTED_clean_linker_0, # of connection points: 2
#     Edge 34, Type (0, 0), BuildingBlock: XIVTED_clean_linker_0, # of connection points: 2
#     Edge 35, Type (0, 0), BuildingBlock: XIVTED_clean_linker_0, # of connection points: 2
#     Edge 36, Type (0, 0), BuildingBlock: XIVTED_clean_linker_0, # of connection points: 2
#     Edge 37, Type (0, 0), BuildingBlock: XIVTED_clean_linker_0, # of connection points: 2
#     Edge 38, Type (0, 0), BuildingBlock: XIVTED_clean_linker_0, # of connection points: 2
#     Edge 39, Type (0, 0), BuildingBlock: XIVTED_clean_linker_0, # of connection points: 2
#     Edge 40, Type (0, 0), BuildingBlock: XIVTED_clean_linker_0, # of connection points: 2
#     Edge 41, Type (0, 0), BuildingBlock: XIVTED_clean_linker_0, # of connection points: 2
#     Edge 42, Type (0, 0), BuildingBlock: XIVTED_clean_linker_0, # of connection points: 2
#     Edge 43, Type (0, 0), BuildingBlock: XIVTED_clean_linker_0, # of connection points: 2
#     Edge 44, Type (0, 0), BuildingBlock: XIVTED_clean_linker_0, # of connection points: 2
#     Edge 45, Type (0, 0), BuildingBlock: XIVTED_clean_linker_0, # of connection points: 2
#     Edge 46, Type (0, 0), BuildingBlock: XIVTED_clean_linker_0, # of connection points: 2
#     Edge 47, Type (0, 0), BuildingBlock: XIVTED_clean_linker_0, # of connection points: 2
#     Edge 48, Type (0, 0), BuildingBlock: XIVTED_clean_linker_0, # of connection points: 2
#     Edge 49, Type (0, 0), BuildingBlock: XIVTED_clean_linker_0, # of connection points: 2
#     Edge 50, Type (0, 0), BuildingBlock: XIVTED_clean_linker_0, # of connection points: 2
#     Edge 51, Type (0, 0), BuildingBlock: XIVTED_clean_linker_0, # of connection points: 2
#     Edge 52, Type (0, 0), BuildingBlock: XIVTED_clean_linker_0, # of connection points: 2
#     Edge 53, Type (0, 0), BuildingBlock: XIVTED_clean_linker_0, # of connection points: 2
#     Edge 54, Type (0, 0), BuildingBlock: XIVTED_clean_linker_0, # of connection points: 2
#     Edge 55, Type (0, 0), BuildingBlock: XIVTED_clean_linker_0, # of connection points: 2
#     Edge 56, Type (0, 0), BuildingBlock: XIVTED_clean_linker_0, # of connection points: 2
#     Edge 57, Type (0, 0), BuildingBlock: XIVTED_clean_linker_0, # of connection points: 2
#     Edge 58, Type (0, 0), BuildingBlock: XIVTED_clean_linker_0, # of connection points: 2
#     Edge 59, Type (0, 0), BuildingBlock: XIVTED_clean_linker_0, # of connection points: 2
#     Edge 60, Type (0, 0), BuildingBlock: XIVTED_clean_linker_0, # of connection points: 2
#     Edge 61, Type (0, 0), BuildingBlock: XIVTED_clean_linker_0, # of connection points: 2
#     Edge 62, Type (0, 0), BuildingBlock: XIVTED_clean_linker_0, # of connection points: 2
#     Edge 63, Type (0, 0), BuildingBlock: XIVTED_clean_linker_0, # of connection points: 2
#     Edge 64, Type (0, 0), BuildingBlock: XIVTED_clean_linker_0, # of connection points: 2
#     Edge 65, Type (0, 0), BuildingBlock: XIVTED_clean_linker_0, # of connection points: 2
#     Edge 66, Type (0, 0), BuildingBlock: XIVTED_clean_linker_0, # of connection points: 2
#     Edge 67, Type (0, 0), BuildingBlock: XIVTED_clean_linker_0, # of connection points: 2
#     Edge 68, Type (0, 0), BuildingBlock: XIVTED_clean_linker_0, # of connection points: 2
#     Edge 69, Type (0, 0), BuildingBlock: XIVTED_clean_linker_0, # of connection points: 2
#     Edge 70, Type (0, 0), BuildingBlock: XIVTED_clean_linker_0, # of connection points: 2
#     Edge 71, Type (0, 0), BuildingBlock: XIVTED_clean_linker_0, # of connection points: 2
# Relax obj value: 0.569
# Max RMSD: 0.257
# Mean RMSD: 0.257
data_MOF--net-wmc--node1-FUNLAD_clean_sbu_0--edge1-XIVTED_clean_linker_0
_symmetry_space_group_name_H-M    P1
_symmetry_Int_Tables_number       1
_symmetry_cell_setting            triclinic
loop_
_symmetry_equiv_pos_as_xyz
'x, y, z'
_cell_length_a     54.44723
_cell_length_b     54.425137
_cell_length_c     28.448614
_cell_angle_alpha  89.973384
_cell_angle_beta   90.021787
_cell_angle_gamma 120.05039
loop_
_atom_site_label
_atom_site_type_symbol
_atom_site_fract_x
_atom_site_fract_y
_atom_site_fract_z
_atom_type_partial_charge
C0 C 0.60236 0.123 0.09334 0.0
N1 N 0.66501 0.18073 -0.00097 0.0
C2 C 0.66955 0.20254 0.02789 0.0
C3 C 0.69566 0.22781 0.02729 0.0
C4 C 0.717 0.23062 -0.00371 0.0
C5 C 0.71185 0.2077 0.96743 0.0
C6 C 0.68569 0.18278 0.96962 0.0
Zn7 Zn 0.62718 0.14358 -0.00218 0.0
C8 C 0.63986 0.09564 0.00985 0.0
N9 N 0.54988 0.063 -0.00606 0.0
C10 C 0.5278 0.06221 0.01781 0.0
C11 C 0.54511 0.04344 0.96005 0.0
C12 C 0.51733 0.02352 0.94668 0.0
C13 C 0.49412 0.02365 0.9683 0.0
C14 C 0.49973 0.04265 0.00562 0.0
Zn15 Zn 0.58895 0.10004 -0.00148 0.0
O16 O 0.62243 0.14439 0.07257 0.0
C17 C 0.57866 0.15046 0.98867 0.0
O18 O 0.58566 0.10104 0.07004 0.0
H19 H 0.56282 0.04445 0.94111 0.0
H20 H 0.65283 0.20043 0.051 0.0
H21 H 0.53183 0.07816 0.04406 0.0
O22 O 0.60546 0.1652 0.98963 0.0
O23 O 0.56648 0.12354 -0.00819 0.0
H24 H 0.68185 0.16507 0.94747 0.0
O25 O 0.59246 0.09963 0.92575 0.0
O26 O 0.62961 0.1424 0.92374 0.0
O27 O 0.61314 0.07843 0.00766 0.0
O28 O 0.64938 0.12206 0.00601 0.0
C29 C 0.61096 0.12053 0.90233 0.0
H30 H 0.69887 0.24522 0.0498 0.0
H31 H 0.72791 0.20905 0.94339 0.0
H32 H 0.51413 0.0089 0.9184 0.0
H33 H 0.4827 0.04378 0.02322 0.0
C34 C 0.88687 0.46876 0.10468 0.0
N35 N 0.82986 0.47876 0.01664 0.0
C36 C 0.80656 0.45503 0.03287 0.0
C37 C 0.77989 0.45278 0.03044 0.0
C38 C 0.77735 0.47528 0.01159 0.0
C39 C 0.80184 0.49987 -0.00326 0.0
C40 C 0.82798 0.50108 -0.00075 0.0
Zn41 Zn 0.86842 0.48128 0.01374 0.0
C42 C 0.91292 0.54116 0.04179 0.0
N43 N 0.95122 0.4902 0.00589 0.0
C44 C 0.95254 0.46865 0.02797 0.0
C45 C 0.97084 0.50623 0.97279 0.0
C46 C 0.99145 0.4995 0.95853 0.0
C47 C 0.99195 0.47605 0.97848 0.0
C48 C 0.97276 0.46129 0.01493 0.0
Zn49 Zn 0.91294 0.4898 0.01175 0.0
O50 O 0.86498 0.46692 0.08498 0.0
C51 C 0.86589 0.42954 0.98681 0.0
O52 O 0.91009 0.4794 0.08223 0.0
H53 H 0.9694 0.52305 0.95508 0.0
H54 H 0.80857 0.43759 0.04661 0.0
H55 H 0.93643 0.45547 0.05316 0.0
O56 O 0.84988 0.44001 0.99097 0.0
O57 O 0.89237 0.4449 -0.00546 0.0
H58 H 0.84669 0.51962 0.98602 0.0
O59 O 0.91472 0.49927 0.9403 0.0
O60 O 0.87195 0.49358 0.94216 0.0
O61 O 0.93183 0.5347 0.03112 0.0
O62 O 0.88694 0.52279 0.03728 0.0
C63 C 0.89386 0.49844 0.91896 0.0
H64 H 0.76141 0.43352 0.04253 0.0
H65 H 0.80066 0.51749 0.98148 0.0
H66 H 1.00612 0.51186 0.93086 0.0
H67 H 0.97196 0.44289 0.0311 0.0
C68 C 0.53506 0.41658 0.10546 0.0
N69 N 0.52211 0.34671 0.02077 0.0
C70 C 0.54159 0.34386 0.0466 0.0
C71 C 0.54186 0.31829 0.04592 0.0
C72 C 0.52218 0.29578 0.01786 0.0
C73 C 0.5018 0.299 -0.00711 0.0
C74 C 0.502 0.32467 -0.00485 0.0
Zn75 Zn 0.52341 0.38481 0.01535 0.0
C76 C 0.46476 0.37529 0.03299 0.0
N77 N 0.52389 0.46392 9e-05 0.0
C78 C 0.54626 0.48626 0.02175 0.0
C79 C 0.50849 0.46846 0.967 0.0
C80 C 0.5164 0.49618 0.95286 0.0
C81 C 0.54038 0.51956 0.97291 0.0
C82 C 0.55478 0.5142 0.00885 0.0
Zn83 Zn 0.52047 0.42432 0.00881 0.0
O84 O 0.53366 0.39418 0.08868 0.0
C85 C 0.5788 0.43075 -0.00822 0.0
O86 O 0.52947 0.43204 0.0794 0.0
H87 H 0.491 0.45059 0.94963 0.0
H88 H 0.55744 0.36167 0.06658 0.0
H89 H 0.55883 0.48249 0.04705 0.0
O90 O 0.56552 0.40439 -0.0 0.0
O91 O 0.56583 0.44475 -0.00632 0.0
H92 H 0.48651 0.32724 0.97525 0.0
O93 O 0.51186 0.41632 0.93761 0.0
O94 O 0.51536 0.37796 0.94178 0.0
O95 O 0.47503 0.40182 0.02521 0.0
O96 O 0.48061 0.36451 0.03051 0.0
C97 C 0.51189 0.39557 0.91748 0.0
H98 H 0.55806 0.31658 0.06534 0.0
H99 H 0.4862 0.282 0.97113 0.0
H100 H 0.50432 0.4992 0.92553 0.0
H101 H 0.57356 0.53134 0.02506 0.0
C102 C 0.88992 0.39465 0.41861 0.0
N103 N 0.94729 0.46379 0.49899 0.0
C104 C 0.96706 0.46809 0.46576 0.0
C105 C 0.98707 0.49573 0.45151 0.0
C106 C 0.98682 0.51926 0.47161 0.0
C107 C 0.96714 0.51413 0.50756 0.0
C108 C 0.94752 0.48627 0.52057 0.0
Zn109 Zn 0.91117 0.4243 0.50887 0.0
C110 C 0.85898 0.43058 0.49334 0.0
N111 N 0.83215 0.34678 0.52403 0.0
C112 C 0.83065 0.32455 0.49964 0.0
C113 C 0.80964 0.34391 0.5493 0.0
C114 C 0.78402 0.31807 0.54925 0.0
C115 C 0.78162 0.29528 0.5225 0.0
C116 C 0.80546 0.29858 0.49819 0.0
Zn117 Zn 0.86876 0.38497 0.51735 0.0
O118 O 0.91088 0.41577 0.43771 0.0
C119 C 0.91811 0.37557 0.5336 0.0
O120 O 0.86919 0.37729 0.44383 0.0
H121 H 0.81129 0.36188 0.56832 0.0
H122 H 0.96645 0.4501 0.44848 0.0
H123 H 0.84882 0.32715 0.48008 0.0
O124 O 0.93437 0.40193 0.52444 0.0
O125 O 0.89147 0.36494 0.53259 0.0
H126 H 0.93132 0.48268 0.54602 0.0
O127 O 0.86865 0.39512 0.59052 0.0
O128 O 0.91083 0.43254 0.57955 0.0
O129 O 0.84601 0.40427 0.50206 0.0
O130 O 0.886 0.44461 0.49446 0.0
C131 C 0.89003 0.41755 0.60641 0.0
H132 H 1.00209 0.49857 0.42416 0.0
H133 H 0.96576 0.53139 0.52378 0.0
H134 H 0.76595 0.31634 0.56815 0.0
H135 H 0.80446 0.28139 0.47751 0.0
C136 C 0.61115 0.49763 0.41842 0.0
N137 N 0.54585 0.49027 0.50541 0.0
C138 C 0.54132 0.50462 0.47038 0.0
C139 C 0.51359 0.4967 0.45643 0.0
C140 C 0.49023 0.47385 0.47878 0.0
C141 C 0.49561 0.46093 0.51704 0.0
C142 C 0.52355 0.46937 0.52963 0.0
Zn143 Zn 0.5843 0.491 0.51179 0.0
C144 C 0.57233 0.43084 0.49254 0.0
N145 N 0.65791 0.48233 0.51789 0.0
C146 C 0.68186 0.50371 0.498 0.0
C147 C 0.65751 0.45916 0.53669 0.0
C148 C 0.68154 0.4563 0.534 0.0
C149 C 0.70621 0.47762 0.51223 0.0
C150 C 0.70646 0.50188 0.49512 0.0
Zn151 Zn 0.62161 0.48439 0.51445 0.0
O152 O 0.5911 0.4984 0.43971 0.0
C153 C 0.63588 0.54462 0.53504 0.0
O154 O 0.62886 0.49381 0.44174 0.0
H155 H 0.63828 0.44248 0.55245 0.0
H156 H 0.55912 0.52093 0.451 0.0
H157 H 0.68165 0.52183 0.48285 0.0
O158 O 0.60977 0.53639 0.52682 0.0
O159 O 0.64468 0.5271 0.53241 0.0
H160 H 0.5272 0.45745 0.55638 0.0
O161 O 0.61219 0.47282 0.5871 0.0
O162 O 0.57784 0.48283 0.58297 0.0
O163 O 0.59893 0.44218 0.49638 0.0
O164 O 0.56054 0.44572 0.49836 0.0
C165 C 0.59171 0.47403 0.60644 0.0
H166 H 0.51053 0.50766 0.42724 0.0
H167 H 0.47847 0.44305 0.5351 0.0
H168 H 0.68069 0.43735 0.54791 0.0
H169 H 0.72501 0.5186 0.4777 0.0
C170 C 0.52017 0.12211 0.40316 0.0
N171 N 0.51956 0.06225 0.4945 0.0
C172 C 0.50513 0.04333 0.45959 0.0
C173 C 0.51257 0.02309 0.44635 0.0
C174 C 0.53512 0.02224 0.46911 0.0
C175 C 0.54807 0.04058 0.5074 0.0
C176 C 0.53998 0.06046 0.51946 0.0
Zn177 Zn 0.51886 0.09999 0.4993 0.0
C178 C 0.58075 0.14911 0.4923 0.0
N179 N 0.52696 0.18209 0.50057 0.0
C180 C 0.50892 0.18483 0.47072 0.0
C181 C 0.54409 0.20342 0.53035 0.0
C182 C 0.54363 0.22888 0.53038 0.0
C183 C 0.52561 0.23235 0.49911 0.0
C184 C 0.50804 0.20993 0.4692 0.0
Zn185 Zn 0.52641 0.14435 0.49902 0.0
O186 O 0.51637 0.10057 0.42626 0.0
C187 C 0.4646 0.09796 0.50756 0.0
O188 O 0.52394 0.14405 0.42495 0.0
H189 H 0.5582 0.20075 0.55385 0.0
H190 H 0.48914 0.04512 0.43978 0.0
H191 H 0.49513 0.16749 0.44785 0.0
O192 O 0.47273 0.07964 0.50587 0.0
O193 O 0.48279 0.12412 0.50511 0.0
H194 H 0.55167 0.07593 0.54651 0.0
O195 O 0.53085 0.14431 0.57372 0.0
O196 O 0.52204 0.1002 0.57122 0.0
O197 O 0.56972 0.16477 0.49276 0.0
O198 O 0.56504 0.12224 0.49478 0.0
C199 C 0.5284 0.12246 0.59455 0.0
H200 H 0.50148 0.009 0.41729 0.0
H201 H 0.56564 0.04099 0.52593 0.0
H202 H 0.55766 0.2459 0.5537 0.0
H203 H 0.49368 0.21175 0.44496 0.0
C204 C 0.26581 0.4552 0.43012 0.0
N205 N 0.33317 0.51194 0.34157 0.0
C206 C 0.33667 0.53363 0.36983 0.0
C207 C 0.3625 0.55918 0.3703 0.0
C208 C 0.38466 0.56246 0.34091 0.0
C209 C 0.38066 0.53958 0.3129 0.0
C210 C 0.35471 0.51431 0.31405 0.0
Zn211 Zn 0.29497 0.47522 0.33757 0.0
C212 C 0.30463 0.42606 0.35269 0.0
N213 N 0.21558 0.39668 0.32716 0.0
C214 C 0.19355 0.39678 0.34972 0.0
C215 C 0.21066 0.37648 0.29441 0.0
C216 C 0.18281 0.35646 0.2814 0.0
C217 C 0.15969 0.35716 0.30223 0.0
C218 C 0.16546 0.37717 0.33791 0.0
Zn219 Zn 0.25519 0.43289 0.33391 0.0
O220 O 0.28774 0.47599 0.41181 0.0
C221 C 0.24858 0.48494 0.31972 0.0
O222 O 0.24925 0.43416 0.40491 0.0
H223 H 0.22832 0.37681 0.2764 0.0
H224 H 0.31925 0.53134 0.39129 0.0
H225 H 0.19766 0.41329 0.37489 0.0
O226 O 0.27514 0.49785 0.32577 0.0
O227 O 0.2345 0.45793 0.32164 0.0
H228 H 0.35162 0.49672 0.29225 0.0
O229 O 0.26136 0.43216 0.26207 0.0
O230 O 0.29973 0.47414 0.26345 0.0
O231 O 0.27783 0.40988 0.34777 0.0
O232 O 0.31553 0.45268 0.34924 0.0
C233 C 0.28134 0.45286 0.2404 0.0
H234 H 0.36477 0.57654 0.39203 0.0
H235 H 0.39737 0.54132 0.29001 0.0
H236 H 0.17947 0.34114 0.25428 0.0
H237 H 0.14853 0.37885 0.35471 0.0
C238 C 0.55509 0.81281 0.434 0.0
N239 N 0.4971 0.81867 0.34147 0.0
C240 C 0.47504 0.80007 0.36875 0.0
C241 C 0.4493 0.8 0.3679 0.0
C242 C 0.44631 0.81898 0.33825 0.0
C243 C 0.46953 0.83817 0.31116 0.0
C244 C 0.49488 0.83779 0.31357 0.0
Zn245 Zn 0.53484 0.81908 0.33977 0.0
C246 C 0.58184 0.87992 0.35462 0.0
N247 N 0.61631 0.82407 0.3341 0.0
C248 C 0.61744 0.80316 0.35871 0.0
C249 C 0.63586 0.8388 0.30011 0.0
C250 C 0.65628 0.8314 0.28777 0.0
C251 C 0.65671 0.80863 0.31057 0.0
C252 C 0.63751 0.79518 0.34764 0.0
Zn253 Zn 0.5788 0.82537 0.33885 0.0
O254 O 0.53348 0.81143 0.414 0.0
C255 C 0.52938 0.76452 0.32545 0.0
O256 O 0.57727 0.81945 0.4103 0.0
H257 H 0.63459 0.85514 0.28047 0.0
H258 H 0.47727 0.78507 0.39068 0.0
H259 H 0.60143 0.79112 0.38482 0.0
O260 O 0.51418 0.77601 0.3282 0.0
O261 O 0.55623 0.77962 0.32916 0.0
H262 H 0.51276 0.85269 0.29265 0.0
O263 O 0.57955 0.83079 0.26639 0.0
O264 O 0.5366 0.8247 0.26589 0.0
O265 O 0.5995 0.87107 0.35043 0.0
O266 O 0.55548 0.8626 0.35119 0.0
C267 C 0.55849 0.82857 0.24373 0.0
H268 H 0.4317 0.78472 0.38904 0.0
H269 H 0.46807 0.85329 0.28823 0.0
H270 H 0.67095 0.84279 0.25952 0.0
H271 H 0.63671 0.77737 0.36603 0.0
C272 C 0.19885 0.75032 0.43156 0.0
N273 N 0.1943 0.68475 0.34544 0.0
C274 C 0.21638 0.68506 0.36833 0.0
C275 C 0.21936 0.66106 0.36797 0.0
C276 C 0.1993 0.63652 0.3442 0.0
C277 C 0.176 0.63633 0.32291 0.0
C278 C 0.17401 0.66088 0.32367 0.0
Zn279 Zn 0.19235 0.72101 0.33916 0.0
C280 C 0.13156 0.70667 0.35281 0.0
N281 N 0.18672 0.79694 0.32599 0.0
C282 C 0.20521 0.81953 0.35259 0.0
C283 C 0.17472 0.80102 0.28695 0.0
C284 C 0.18309 0.82851 0.27118 0.0
C285 C 0.20357 0.8524 0.29629 0.0
C286 C 0.21355 0.84733 0.3388 0.0
Zn287 Zn 0.18609 0.75859 0.33555 0.0
O288 O 0.20059 0.73001 0.4127 0.0
C289 C 0.24688 0.77069 0.32357 0.0
O290 O 0.19136 0.7649 0.40698 0.0
H291 H 0.16015 0.78306 0.26586 0.0
H292 H 0.23217 0.70423 0.38557 0.0
H293 H 0.21514 0.81627 0.38301 0.0
O294 O 0.23529 0.74399 0.32631 0.0
O295 O 0.23187 0.78251 0.32717 0.0
H296 H 0.15673 0.66115 0.30539 0.0
O297 O 0.18148 0.75171 0.26326 0.0
O298 O 0.1861 0.714 0.26584 0.0
O299 O 0.14025 0.733 0.34598 0.0
O300 O 0.14903 0.69775 0.35178 0.0
C301 C 0.18288 0.73195 0.24217 0.0
H302 H 0.23754 0.66188 0.38508 0.0
H303 H 0.16029 0.6179 0.30381 0.0
H304 H 0.17465 0.8307 0.23803 0.0
H305 H 0.22857 0.86463 0.36063 0.0
C306 C 0.55693 0.73188 0.74336 0.0
N307 N 0.61596 0.79633 0.82927 0.0
C308 C 0.63455 0.80111 0.79366 0.0
C309 C 0.65355 0.82889 0.77877 0.0
C310 C 0.65348 0.8521 0.80061 0.0
C311 C 0.63552 0.84653 0.83947 0.0
C312 C 0.6169 0.8185 0.85315 0.0
Zn313 Zn 0.57931 0.75707 0.83719 0.0
C314 C 0.52861 0.76679 0.82688 0.0
N315 N 0.49882 0.68115 0.84545 0.0
C316 C 0.49653 0.65935 0.81877 0.0
C317 C 0.47711 0.67793 0.87334 0.0
C318 C 0.45159 0.65206 0.87423 0.0
C319 C 0.44847 0.62956 0.8458 0.0
C320 C 0.47142 0.63333 0.81827 0.0
Zn321 Zn 0.53586 0.71883 0.84066 0.0
O322 O 0.5782 0.75132 0.7648 0.0
C323 C 0.58409 0.70656 0.85271 0.0
O324 O 0.53568 0.71377 0.76673 0.0
H325 H 0.47942 0.69556 0.89425 0.0
H326 H 0.63342 0.78337 0.77464 0.0
H327 H 0.51414 0.66223 0.79723 0.0
O328 O 0.60127 0.73314 0.84733 0.0
O329 O 0.5576 0.69701 0.85099 0.0
H330 H 0.60163 0.81452 0.88062 0.0
O331 O 0.53628 0.72622 0.9148 0.0
O332 O 0.57965 0.76255 0.90863 0.0
O333 O 0.514 0.74007 0.83029 0.0
O334 O 0.55555 0.77917 0.82905 0.0
C335 C 0.55805 0.74697 0.93355 0.0
H336 H 0.66739 0.83207 0.74927 0.0
H337 H 0.63439 0.8635 0.8573 0.0
H338 H 0.43419 0.64998 0.89562 0.0
H339 H 0.46988 0.61637 0.79625 0.0
C340 C 0.2796 0.8295 0.74312 0.0
N341 N 0.21547 0.82468 0.82985 0.0
C342 C 0.21045 0.83626 0.79118 0.0
C343 C 0.18261 0.82725 0.77658 0.0
C344 C 0.1593 0.80658 0.80259 0.0
C345 C 0.16535 0.79711 0.84482 0.0
C346 C 0.19347 0.80603 0.85733 0.0
Zn347 Zn 0.25449 0.82641 0.83751 0.0
C348 C 0.24373 0.76588 0.82617 0.0
N349 N 0.32986 0.82044 0.84398 0.0
C350 C 0.35162 0.83944 0.81657 0.0
C351 C 0.33276 0.80166 0.87169 0.0
C352 C 0.35818 0.80112 0.87154 0.0
C353 C 0.38048 0.8198 0.84212 0.0
C354 C 0.37711 0.83934 0.81483 0.0
Zn355 Zn 0.29256 0.82075 0.83989 0.0
O356 O 0.26027 0.8312 0.76506 0.0
C357 C 0.30571 0.88139 0.85299 0.0
O358 O 0.29765 0.82606 0.76598 0.0
H359 H 0.31519 0.78675 0.89318 0.0
H360 H 0.22792 0.85103 0.76944 0.0
H361 H 0.34906 0.85446 0.79526 0.0
O362 O 0.27917 0.87222 0.84796 0.0
O363 O 0.31505 0.86429 0.85076 0.0
H364 H 0.19746 0.79646 0.8875 0.0
O365 O 0.28518 0.81335 0.91403 0.0
O366 O 0.24927 0.82107 0.90903 0.0
O367 O 0.27045 0.77773 0.82893 0.0
O368 O 0.2316 0.78065 0.82919 0.0
C369 C 0.26466 0.8145 0.93335 0.0
H370 H 0.17976 0.83538 0.74362 0.0
H371 H 0.14859 0.78205 0.86744 0.0
H372 H 0.36002 0.7856 0.89281 0.0
H373 H 0.39396 0.8542 0.79202 0.0
C374 C 0.1858 0.45562 0.74203 0.0
N375 N 0.18731 0.39512 0.82987 0.0
C376 C 0.17441 0.37807 0.79216 0.0
C377 C 0.1821 0.35827 0.77754 0.0
C378 C 0.20282 0.35522 0.80253 0.0
C379 C 0.21373 0.37133 0.84387 0.0
C380 C 0.20603 0.39143 0.85648 0.0
Zn381 Zn 0.18704 0.43305 0.83689 0.0
C382 C 0.24828 0.48161 0.82639 0.0
N383 N 0.1953 0.51527 0.84226 0.0
C384 C 0.1764 0.51796 0.81451 0.0
C385 C 0.21391 0.53698 0.87011 0.0
C386 C 0.21428 0.56288 0.86989 0.0
C387 C 0.19556 0.56635 0.84033 0.0
C388 C 0.17628 0.54343 0.8128 0.0
Zn389 Zn 0.19421 0.47729 0.83891 0.0
O390 O 0.18272 0.43405 0.76412 0.0
C391 C 0.13288 0.43087 0.85121 0.0
O392 O 0.18983 0.47733 0.76487 0.0
H393 H 0.2287 0.53435 0.89194 0.0
H394 H 0.15963 0.38115 0.77114 0.0
H395 H 0.1615 0.50036 0.79311 0.0
O396 O 0.14136 0.41293 0.84697 0.0
O397 O 0.15057 0.45718 0.84869 0.0
H398 H 0.21656 0.40535 0.88589 0.0
O399 O 0.20085 0.47715 0.9132 0.0
O400 O 0.19219 0.43316 0.90862 0.0
O401 O 0.23732 0.49729 0.82918 0.0
O402 O 0.23271 0.45475 0.82889 0.0
C403 C 0.19921 0.45529 0.93276 0.0
H404 H 0.17298 0.34685 0.74524 0.0
H405 H 0.22898 0.36938 0.86557 0.0
H406 H 0.22959 0.58025 0.89139 0.0
H407 H 0.16135 0.54526 0.78995 0.0
C408 C 0.93381 0.7834 0.77582 0.0
N409 N 0.99969 0.84418 0.68992 0.0
C410 C 1.00162 0.8657 0.71692 0.0
C411 C 0.02647 0.89208 0.71688 0.0
C412 C 0.04961 0.89614 0.68939 0.0
C413 C 0.04766 0.87318 0.66398 0.0
C414 C 0.02224 0.84729 0.66441 0.0
Zn415 Zn 0.96174 0.80736 0.68363 0.0
C416 C 0.97207 0.7584 0.68701 0.0
N417 N 0.88211 0.7292 0.66877 0.0
C418 C 0.86026 0.72744 0.69473 0.0
C419 C 0.87698 0.71082 0.63263 0.0
C420 C 0.84904 0.69076 0.62005 0.0
C421 C 0.82603 0.68945 0.64487 0.0
C422 C 0.83209 0.70766 0.68353 0.0
Zn423 Zn 0.92167 0.76545 0.67755 0.0
O424 O 0.95571 0.80452 0.75813 0.0
C425 C 0.91465 0.81766 0.67724 0.0
O426 O 0.91665 0.76331 0.74948 0.0
H427 H 0.89447 0.7126 0.61196 0.0
H428 H 0.98353 0.86274 0.73719 0.0
H429 H 0.86449 0.74255 0.72261 0.0
O430 O 0.94133 0.82974 0.68064 0.0
O431 O 0.90025 0.7907 0.67368 0.0
H432 H 0.02023 0.82998 0.64295 0.0
O433 O 0.92704 0.76846 0.6052 0.0
O434 O 0.96566 0.81022 0.60905 0.0
O435 O 0.94517 0.74224 0.68332 0.0
O436 O 0.98267 0.78503 0.68722 0.0
C437 C 0.94684 0.78994 0.58473 0.0
H438 H 0.02733 0.90939 0.737 0.0
H439 H 0.06499 0.87569 0.64196 0.0
H440 H 0.84551 0.67689 0.59042 0.0
H441 H 0.81523 0.70779 0.70349 0.0
C442 C 0.22491 0.14891 0.76327 0.0
N443 N 0.16293 0.15103 0.67603 0.0
C444 C 0.14391 0.13359 0.70857 0.0
C445 C 0.11761 0.1319 0.71282 0.0
C446 C 0.11041 0.1478 0.68257 0.0
C447 C 0.1307 0.16601 0.64985 0.0
C448 C 0.157 0.16745 0.64741 0.0
Zn449 Zn 0.20107 0.15274 0.66979 0.0
C450 C 0.24725 0.21366 0.67866 0.0
N451 N 0.28255 0.15846 0.65745 0.0
C452 C 0.28646 0.13954 0.68309 0.0
C453 C 0.29937 0.17178 0.6197 0.0
C454 C 0.31937 0.16455 0.6043 0.0
C455 C 0.32277 0.14379 0.62843 0.0
C456 C 0.30669 0.1322 0.66958 0.0
Zn457 Zn 0.24477 0.15868 0.66657 0.0
O458 O 0.20321 0.14794 0.74442 0.0
C459 C 0.19556 0.09776 0.65776 0.0
O460 O 0.24621 0.15418 0.73813 0.0
H461 H 0.296 0.18662 0.59936 0.0
H462 H 0.14903 0.12078 0.7311 0.0
H463 H 0.27268 0.12865 0.71248 0.0
O464 O 0.18105 0.10986 0.66243 0.0
O465 O 0.22256 0.11244 0.65875 0.0
H466 H 0.17256 0.18145 0.62213 0.0
O467 O 0.24255 0.16264 0.59426 0.0
O468 O 0.19923 0.1555 0.59556 0.0
O469 O 0.26501 0.20484 0.67569 0.0
O470 O 0.22091 0.1961 0.67653 0.0
C471 C 0.22084 0.15943 0.5725 0.0
H472 H 0.10304 0.11809 0.73947 0.0
H473 H 0.12614 0.17848 0.62548 0.0
H474 H 0.33076 0.17411 0.57213 0.0
H475 H 0.30887 0.1168 0.6905 0.0
C476 C 0.85349 0.07702 0.77361 0.0
N477 N 0.85078 0.01299 0.68614 0.0
C478 C 0.86721 0.01077 0.71995 0.0
C479 C 0.86985 0.98668 0.72258 0.0
C480 C 0.85591 0.96474 0.68957 0.0
C481 C 0.838 0.96693 0.6564 0.0
C482 C 0.8357 0.9914 0.65536 0.0
Zn483 Zn 0.85095 0.05046 0.68022 0.0
C484 C 0.79161 0.03946 0.68262 0.0
N485 N 0.85229 0.13008 0.66789 0.0
C486 C 0.87231 0.15163 0.69454 0.0
C487 C 0.83981 0.13572 0.63116 0.0
C488 C 0.84856 0.16387 0.61851 0.0
C489 C 0.87035 0.18654 0.64388 0.0
C490 C 0.88155 0.17997 0.68328 0.0
Zn491 Zn 0.84912 0.09054 0.67585 0.0
O492 O 0.85201 0.055 0.75516 0.0
C493 C 0.90831 0.0983 0.67767 0.0
O494 O 0.85183 0.09509 0.74776 0.0
H495 H 0.8242 0.11848 0.6099 0.0
H496 H 0.87903 0.02811 0.74409 0.0
H497 H 0.88265 0.14704 0.72283 0.0
O498 O 0.89397 0.07159 0.68095 0.0
O499 O 0.89561 0.11241 0.6724 0.0
H500 H 0.8226 0.99353 0.62894 0.0
O501 O 0.84682 0.08571 0.60336 0.0
O502 O 0.8519 0.04819 0.60554 0.0
O503 O 0.80261 0.0665 0.68188 0.0
O504 O 0.80743 0.02863 0.68047 0.0
C505 C 0.84961 0.06681 0.58207 0.0
H506 H 0.88342 0.98563 0.74941 0.0
H507 H 0.82697 0.9506 0.6302 0.0
H508 H 0.83891 0.1678 0.58831 0.0
H509 H 0.89857 0.19654 0.70369 0.0
C510 C 0.22449 0.06987 0.07759 0.0
N511 N 0.28344 0.13044 0.16783 0.0
C512 C 0.30246 0.13593 0.13264 0.0
C513 C 0.32202 0.16398 0.11998 0.0
C514 C 0.32215 0.18675 0.14374 0.0
C515 C 0.30365 0.18039 0.18208 0.0
C516 C 0.28439 0.15206 0.19343 0.0
Zn517 Zn 0.24699 0.09083 0.17305 0.0
C518 C 0.19512 0.09847 0.17384 0.0
N519 N 0.16789 0.01299 0.17649 0.0
C520 C 0.16462 0.99307 0.14431 0.0
C521 C 0.14717 0.00781 0.20828 0.0
C522 C 0.1217 0.9819 0.20776 0.0
C523 C 0.11751 0.96141 0.17386 0.0
C524 C 0.13944 0.9671 0.14218 0.0
Zn525 Zn 0.20467 0.05118 0.17464 0.0
O526 O 0.24599 0.08799 0.10026 0.0
C527 C 0.25329 0.04005 0.17746 0.0
O528 O 0.20316 0.0509 0.09978 0.0
H529 H 0.15019 0.02395 0.2335 0.0
H530 H 0.30134 0.1186 0.11233 0.0
H531 H 0.18146 0.99746 0.1197 0.0
O532 O 0.26978 0.06699 0.17825 0.0
O533 O 0.22677 0.02988 0.17465 0.0
H534 H 0.26883 0.14748 0.22069 0.0
O535 O 0.2063 0.05383 0.24971 0.0
O536 O 0.24729 0.09357 0.2452 0.0
O537 O 0.18241 0.07169 0.17558 0.0
O538 O 0.22207 0.11249 0.1701 0.0
C539 C 0.22679 0.07526 0.26965 0.0
H540 H 0.33623 0.16778 0.09077 0.0
H541 H 0.30274 0.19708 0.20132 0.0
H542 H 0.1051 0.97834 0.23245 0.0
H543 H 0.13702 0.9517 0.11578 0.0
C544 C 0.94193 0.1602 0.07893 0.0
N545 N 0.88045 0.15827 0.16773 0.0
C546 C 0.87681 0.17329 0.13284 0.0
C547 C 0.84946 0.16585 0.11753 0.0
C548 C 0.82556 0.1427 0.13821 0.0
C549 C 0.83 0.12921 0.17671 0.0
C550 C 0.85764 0.13731 0.19087 0.0
Zn551 Zn 0.91849 0.15844 0.17445 0.0
C552 C 0.90576 0.09727 0.16276 0.0
N553 N 0.99204 0.14967 0.17882 0.0
C554 C 0.01446 0.1666 0.15067 0.0
C555 C 0.99333 0.13126 0.20961 0.0
C556 C 0.0177 0.12907 0.21247 0.0
C557 C 0.04085 0.14551 0.18264 0.0
C558 C 0.03912 0.16475 0.15181 0.0
Zn559 Zn 0.95581 0.15179 0.1748 0.0
O560 O 0.92371 0.16323 0.10196 0.0
C561 C 0.97105 0.2129 0.18765 0.0
O562 O 0.95984 0.15598 0.10073 0.0
H563 H 0.97533 0.11803 0.23175 0.0
H564 H 0.89507 0.1897 0.11449 0.0
H565 H 0.01308 0.18132 0.12676 0.0
O566 O 0.94448 0.20416 0.18496 0.0
O567 O 0.97985 0.19541 0.18391 0.0
H568 H 0.86075 0.12514 0.21785 0.0
O569 O 0.94935 0.14556 0.2494 0.0
O570 O 0.91328 0.15301 0.24601 0.0
O571 O 0.93242 0.10858 0.16539 0.0
O572 O 0.89425 0.11259 0.1657 0.0
C573 C 0.92907 0.14668 0.26965 0.0
H574 H 0.84716 0.17734 0.0884 0.0
H575 H 0.81242 0.11117 0.19368 0.0
H576 H 0.01823 0.11443 0.23767 0.0
H577 H 0.05627 0.17769 0.12789 0.0
C578 C 0.85031 0.78512 0.0829 0.0
N579 N 0.85691 0.72981 0.17565 0.0
C580 C 0.83953 0.70775 0.14713 0.0
C581 C 0.8461 0.68649 0.1363 0.0
C582 C 0.87109 0.6884 0.15411 0.0
C583 C 0.88782 0.71058 0.18506 0.0
C584 C 0.88015 0.73089 0.19584 0.0
Zn585 Zn 0.85501 0.76703 0.17855 0.0
C586 C 0.91537 0.81694 0.16192 0.0
N587 N 0.86061 0.84827 0.178 0.0
C588 C 0.8413 0.85002 0.14989 0.0
C589 C 0.87896 0.87058 0.20508 0.0
C590 C 0.87847 0.89603 0.20408 0.0
C591 C 0.85916 0.89851 0.1745 0.0
C592 C 0.84035 0.8751 0.14735 0.0
Zn593 Zn 0.8608 0.81081 0.17798 0.0
O594 O 0.8481 0.76437 0.10655 0.0
C595 C 0.80036 0.76353 0.19561 0.0
O596 O 0.85459 0.8075 0.10399 0.0
H597 H 0.89414 0.86874 0.22715 0.0
H598 H 0.82145 0.70742 0.13069 0.0
H599 H 0.82662 0.83194 0.12914 0.0
O600 O 0.8095 0.74604 0.19246 0.0
O601 O 0.81736 0.78985 0.1904 0.0
H602 H 0.89389 0.74856 0.21821 0.0
O603 O 0.86909 0.81356 0.25229 0.0
O604 O 0.86238 0.7702 0.24968 0.0
O605 O 0.90368 0.83192 0.16537 0.0
O606 O 0.90056 0.79009 0.16614 0.0
C607 C 0.86856 0.79247 0.27281 0.0
H608 H 0.83263 0.66961 0.11232 0.0
H609 H 0.90707 0.71256 0.19989 0.0
H610 H 0.89349 0.91378 0.22522 0.0
H611 H 0.825 0.87615 0.12444 0.0
H612 H 0.53717 0.14474 0.0488 0.0
H613 H 0.52515 0.27236 0.9353 0.0
H614 H 0.58469 0.19069 0.92649 0.0
H615 H 0.52455 0.26104 0.08543 0.0
H616 H 0.53267 0.23194 0.92436 0.0
H617 H 0.51789 0.1771 0.05476 0.0
C618 C 0.54279 0.16109 0.02245 0.0
C619 C 0.56235 0.1652 0.987 0.0
C620 C 0.53051 0.23812 0.95963 0.0
C621 C 0.5406 0.20176 -0.00654 0.0
C622 C 0.52615 0.26103 0.9659 0.0
C623 C 0.52439 0.27002 0.01134 0.0
C624 C 0.53262 0.2238 -0.00097 0.0
C625 C 0.52606 0.25483 0.04988 0.0
C626 C 0.53208 0.17961 0.02613 0.0
C627 C 0.56956 0.18694 0.95419 0.0
N628 N 0.53009 0.23237 0.04288 0.0
N629 N 0.55866 0.20446 0.95817 0.0
H630 H 0.75266 0.26309 0.06693 0.0
H631 H 0.83051 0.39982 0.91571 0.0
H632 H 0.74241 0.25978 0.91631 0.0
H633 H 0.86969 0.39042 0.04078 0.0
H634 H 0.79855 0.34838 0.91388 0.0
H635 H 0.79557 0.30983 0.05902 0.0
C636 C 0.75961 0.27217 0.03224 0.0
C637 C 0.74399 0.25779 -0.00777 0.0
C638 C 0.81463 0.35743 0.94102 0.0
C639 C 0.79265 0.31094 0.98296 0.0
C640 C 0.83288 0.38668 0.9419 0.0
C641 C 0.85271 0.39903 0.97821 0.0
C642 C 0.81562 0.3407 0.97772 0.0
C643 C 0.85481 0.38142 0.01193 0.0
C644 C 0.78416 0.29862 0.0277 0.0
C645 C 0.75394 0.27023 0.94799 0.0
N646 N 0.83594 0.35306 0.01157 0.0
N647 N 0.7774 0.29633 0.94457 0.0
H648 H 0.60364 0.40984 0.93579 0.0
H649 H 0.76005 0.51359 0.03231 0.0
H650 H 0.62264 0.48094 0.02568 0.0
H651 H 0.73087 0.43061 0.97278 0.0
H652 H 0.7129 0.50787 0.018 0.0
H653 H 0.65381 0.42447 0.9337 0.0
C654 C 0.61861 0.42896 0.9543 0.0
C655 C 0.60918 0.44411 0.98131 0.0
C656 C 0.71694 0.49103 0.008 0.0
C657 C 0.66648 0.4605 0.98038 0.0
C658 C 0.74372 0.49424 0.01616 0.0
C659 C 0.74913 0.47235 0.00423 0.0
C660 C 0.69573 0.46595 0.98714 0.0
C661 C 0.7274 0.44775 0.98334 0.0
C662 C 0.64719 0.43718 0.95343 0.0
C663 C 0.62928 0.46879 0.00444 0.0
N664 N 0.7017 0.44524 0.97547 0.0
N665 N 0.65713 0.47603 0.00418 0.0
H666 H 0.70505 0.43103 0.47594 0.0
H667 H 0.86782 0.48274 0.52198 0.0
H668 H 0.76281 0.51497 0.5284 0.0
H669 H 0.8105 0.40777 0.44374 0.0
H670 H 0.83193 0.49772 0.52046 0.0
H671 H 0.74498 0.42375 0.46179 0.0
C672 C 0.72623 0.44788 0.48475 0.0
C673 C 0.73067 0.47345 0.50394 0.0
C674 C 0.82753 0.4783 0.50282 0.0
C675 C 0.77673 0.46547 0.48748 0.0
C676 C 0.84804 0.46993 0.50338 0.0
C677 C 0.8418 0.44387 0.48347 0.0
C678 C 0.80087 0.46036 0.48228 0.0
C679 C 0.81589 0.42783 0.4601 0.0
C680 C 0.74911 0.44387 0.47623 0.0
C681 C 0.7586 0.49489 0.5137 0.0
N682 N 0.79629 0.43615 0.46064 0.0
N683 N 0.78065 0.49031 0.50584 0.0
H684 H 0.52239 0.26408 0.57098 0.0
H685 H 0.57769 0.40157 0.42067 0.0
H686 H 0.52958 0.26242 0.42016 0.0
H687 H 0.5315 0.39112 0.54903 0.0
H688 H 0.55952 0.35037 0.41869 0.0
H689 H 0.52577 0.31067 0.56464 0.0
C690 C 0.52453 0.2735 0.53658 0.0
C691 C 0.52593 0.25961 0.49606 0.0
C692 C 0.55273 0.3591 0.44667 0.0
C693 C 0.52984 0.31257 0.48855 0.0
C694 C 0.56299 0.38822 0.44764 0.0
C695 C 0.55577 0.40021 0.48481 0.0
C696 C 0.53601 0.34216 0.48408 0.0
C697 C 0.53713 0.38237 0.51951 0.0
C698 C 0.52616 0.29986 0.53293 0.0
C699 C 0.52837 0.27247 0.45223 0.0
N700 N 0.52833 0.35416 0.51893 0.0
N701 N 0.53068 0.29844 0.44968 0.0
H702 H 0.61489 0.1464 0.5594 0.0
H703 H 0.75651 0.26877 0.44066 0.0
H704 H 0.61631 0.18427 0.42567 0.0
H705 H 0.74373 0.26238 0.59081 0.0
H706 H 0.7091 0.22747 0.43037 0.0
H707 H 0.66651 0.17862 0.56629 0.0
C708 C 0.62631 0.16085 0.53086 0.0
C709 C 0.61172 0.16276 0.49176 0.0
C710 C 0.71685 0.23493 0.46556 0.0
C711 C 0.67001 0.19934 0.4994 0.0
C712 C 0.74386 0.25837 0.47149 0.0
C713 C 0.75389 0.26902 0.51666 0.0
C714 C 0.69991 0.22181 0.50508 0.0
C715 C 0.73658 0.25493 0.55541 0.0
C716 C 0.65554 0.17933 0.53501 0.0
C717 C 0.62707 0.18218 0.45614 0.0
N718 N 0.71031 0.23199 0.54876 0.0
N719 N 0.65545 0.1998 0.4608 0.0
H720 H 0.24797 0.63887 0.31626 0.0
H721 H 0.19667 0.47556 0.35127 0.0
H722 H 0.16156 0.57945 0.35566 0.0
H723 H 0.27071 0.53417 0.27225 0.0
H724 H 0.1815 0.51134 0.35301 0.0
H725 H 0.25613 0.59947 0.30262 0.0
C726 C 0.23076 0.61744 0.32243 0.0
C727 C 0.20418 0.61237 0.33758 0.0
C728 C 0.20075 0.51603 0.33453 0.0
C729 C 0.21318 0.56692 0.3214 0.0
C730 C 0.20925 0.4956 0.33325 0.0
C731 C 0.23512 0.50222 0.31215 0.0
C732 C 0.21842 0.54298 0.31472 0.0
C733 C 0.25084 0.52847 0.28956 0.0
C734 C 0.2353 0.59489 0.3141 0.0
C735 C 0.1824 0.58414 0.34404 0.0
N736 N 0.24243 0.54797 0.29195 0.0
N737 N 0.18744 0.56236 0.33631 0.0
H738 H 0.49207 0.73279 0.25795 0.0
H739 H 0.41879 0.59644 0.41185 0.0
H740 H 0.53336 0.72666 0.38297 0.0
H741 H 0.41001 0.59161 0.26095 0.0
H742 H 0.45996 0.64446 0.40398 0.0
H743 H 0.46104 0.68116 0.25853 0.0
C744 C 0.49495 0.72035 0.28486 0.0
C745 C 0.51524 0.73365 0.32025 0.0
C746 C 0.44928 0.63264 0.37263 0.0
C747 C 0.47935 0.67507 0.32229 0.0
C748 C 0.42574 0.60543 0.37712 0.0
C749 C 0.41103 0.59023 0.33699 0.0
C750 C 0.45758 0.64486 0.3278 0.0
C751 C 0.42089 0.60265 0.29272 0.0
C752 C 0.4773 0.691 0.28526 0.0
C753 C 0.51808 0.71691 0.35483 0.0
N754 N 0.44328 0.62946 0.28932 0.0
N755 N 0.49984 0.68839 0.35563 0.0
H756 H 0.41849 0.81672 0.25742 0.0
H757 H 0.28444 0.80997 0.38468 0.0
H758 H 0.4116 0.81878 0.40824 0.0
H759 H 0.27889 0.76691 0.25467 0.0
H760 H 0.33587 0.82765 0.38671 0.0
H761 H 0.37162 0.81226 0.24977 0.0
C762 C 0.40723 0.8166 0.28888 0.0
C763 C 0.41873 0.81789 0.33355 0.0
C764 C 0.32343 0.81489 0.35724 0.0
C765 C 0.36545 0.81311 0.32499 0.0
C766 C 0.29431 0.80515 0.35579 0.0
C767 C 0.27779 0.78725 0.31926 0.0
C768 C 0.33585 0.80693 0.3215 0.0
C769 C 0.29116 0.78086 0.28319 0.0
C770 C 0.38054 0.81401 0.28448 0.0
C771 C 0.40323 0.81748 0.37322 0.0
N772 N 0.31947 0.79065 0.28523 0.0
N773 N 0.37729 0.81509 0.36804 0.0
H774 H 0.53249 0.80833 0.885 0.0
H775 H 0.4045 0.81527 0.7613 0.0
H776 H 0.48981 0.75999 0.76139 0.0
H777 H 0.41513 0.81959 0.91187 0.0
H778 H 0.44575 0.80885 0.75347 0.0
H779 H 0.49935 0.82677 0.88716 0.0
C780 C 0.5167 0.80238 0.85756 0.0
C781 C 0.51372 0.78283 0.82284 0.0
C782 C 0.43921 0.81154 0.78815 0.0
C783 C 0.47622 0.80354 0.82506 0.0
C784 C 0.4158 0.81525 0.79264 0.0
C785 C 0.40641 0.81776 0.83732 0.0
C786 C 0.45357 0.81079 0.82855 0.0
C787 C 0.42162 0.81742 0.87688 0.0
C788 C 0.49773 0.81261 0.85907 0.0
C789 C 0.49268 0.77515 0.78855 0.0
N790 N 0.44454 0.81396 0.8716 0.0
N791 N 0.47466 0.78552 0.7905 0.0
H792 H 0.19833 0.59456 0.75982 0.0
H793 H 0.20482 0.7283 0.88766 0.0
H794 H 0.196 0.60099 0.9107 0.0
H795 H 0.24772 0.73396 0.75742 0.0
H796 H 0.18735 0.67688 0.88976 0.0
H797 H 0.20284 0.64145 0.75251 0.0
C798 C 0.19844 0.60575 0.79138 0.0
C799 C 0.19701 0.59409 0.83596 0.0
C800 C 0.20004 0.68935 0.86025 0.0
C801 C 0.20187 0.64741 0.82779 0.0
C802 C 0.20967 0.71845 0.85877 0.0
C803 C 0.22745 0.73498 0.82214 0.0
C804 C 0.20801 0.67699 0.82443 0.0
C805 C 0.23386 0.72167 0.78603 0.0
C806 C 0.20105 0.63244 0.78717 0.0
C807 C 0.19741 0.60949 0.87576 0.0
N808 N 0.22419 0.69338 0.78809 0.0
N809 N 0.19984 0.63547 0.87077 0.0
H810 H 0.28128 0.51357 0.75475 0.0
H811 H 0.41357 0.59719 0.91745 0.0
H812 H 0.28459 0.48214 0.8922 0.0
H813 H 0.42071 0.60168 0.76628 0.0
H814 H 0.36629 0.55501 0.90989 0.0
H815 H 0.33271 0.54553 0.7575 0.0
C816 C 0.29313 0.51293 0.78489 0.0
C817 C 0.27911 0.4952 0.82305 0.0
C818 C 0.37844 0.565 0.87845 0.0
C819 C 0.33734 0.53229 0.82752 0.0
C820 C 0.40523 0.58914 0.88275 0.0
C821 C 0.42089 0.60293 0.84242 0.0
C822 C 0.36713 0.55505 0.83351 0.0
C823 C 0.40933 0.59157 0.79824 0.0
C824 C 0.32236 0.53117 0.78662 0.0
C825 C 0.29499 0.49534 0.86188 0.0
N826 N 0.38296 0.56852 0.79493 0.0
N827 N 0.32333 0.5141 0.86359 0.0
H828 H 0.90733 0.9689 0.70037 0.0
H829 H 0.86155 0.80761 0.64724 0.0
H830 H 0.81961 0.90746 0.67205 0.0
H831 H 0.93849 0.86926 0.7169 0.0
H832 H 0.84461 0.84223 0.65007 0.0
H833 H 0.91874 0.93141 0.69845 0.0
C834 C 0.8903 0.94737 0.69439 0.0
C835 C 0.86234 0.94129 0.68748 0.0
C836 C 0.8651 0.84786 0.66485 0.0
C837 C 0.87545 0.89779 0.68429 0.0
C838 C 0.8747 0.82819 0.6633 0.0
C839 C 0.90169 0.83579 0.68096 0.0
C840 C 0.88275 0.87498 0.68417 0.0
C841 C 0.91784 0.8626 0.70175 0.0
C842 C 0.89687 0.92587 0.693 0.0
C843 C 0.84144 0.91302 0.67783 0.0
N844 N 0.90821 0.88109 0.70247 0.0
N845 N 0.8484 0.89217 0.67662 0.0
H846 H 0.14978 0.06836 0.60332 0.0
H847 H 0.10657 0.91413 0.69804 0.0
H848 H 0.20542 0.05726 0.6978 0.0
H849 H 0.04814 0.94316 0.66381 0.0
H850 H 0.1465 0.96253 0.68311 0.0
H851 H 0.11655 0.01754 0.60613 0.0
C852 C 0.15521 0.055 0.62396 0.0
C853 C 0.18007 0.06688 0.65088 0.0
C854 C 0.12489 0.95813 0.67898 0.0
C855 C 0.14187 0.00882 0.65512 0.0
C856 C 0.10223 0.9307 0.68747 0.0
C857 C 0.07415 0.92492 0.68263 0.0
C858 C 0.11916 0.97938 0.66435 0.0
C859 C 0.06947 0.94689 0.66865 0.0
C860 C 0.13619 0.02607 0.6258 0.0
C861 C 0.18636 0.04873 0.67664 0.0
N862 N 0.09172 0.97306 0.65979 0.0
N863 N 0.16703 0.02041 0.67882 0.0
H864 H 0.93427 0.08027 0.73648 0.0
H865 H 0.09405 0.18785 0.6661 0.0
H866 H 0.95224 0.14645 0.63564 0.0
H867 H 0.06028 0.09932 0.70075 0.0
H868 H 0.04552 0.18014 0.66777 0.0
H869 H 0.98444 0.09594 0.74095 0.0
C870 C 0.94893 0.09833 0.71542 0.0
C871 C 0.93913 0.11172 0.6848 0.0
C872 C 0.04902 0.1626 0.67514 0.0
C873 C 0.99676 0.12963 0.68955 0.0
C874 C 0.07661 0.16685 0.67403 0.0
C875 C 0.08148 0.14426 0.68386 0.0
C876 C 0.02638 0.13575 0.68692 0.0
C877 C 0.05797 0.11765 0.69434 0.0
C878 C 0.97755 0.1072 0.71797 0.0
C879 C 0.95908 0.13546 0.65931 0.0
N880 N 0.03161 0.11425 0.69583 0.0
N881 N 0.98719 0.14354 0.66172 0.0
H882 H 0.20058 0.14744 0.13317 0.0
H883 H 0.04112 0.0959 0.19397 0.0
H884 H 0.15006 0.07976 0.23031 0.0
H885 H 0.0976 0.1854 0.16901 0.0
H886 H 0.08161 0.08889 0.19574 0.0
H887 H 0.16452 0.16249 0.13698 0.0
C888 C 0.18228 0.13619 0.15584 0.0
C889 C 0.17783 0.112 0.18064 0.0
C890 C 0.08522 0.11015 0.19021 0.0
C891 C 0.13703 0.12858 0.18465 0.0
C892 C 0.06206 0.11423 0.18948 0.0
C893 C 0.06586 0.14141 0.18237 0.0
C894 C 0.11259 0.13324 0.18301 0.0
C895 C 0.09364 0.16405 0.1746 0.0
C896 C 0.16179 0.14466 0.1579 0.0
C897 C 0.15392 0.09809 0.20967 0.0
N898 N 0.11607 0.15947 0.17503 0.0
N899 N 0.13431 0.10633 0.21037 0.0
H900 H 0.85969 0.92607 0.09415 0.0
H901 H 0.86823 0.05985 0.22599 0.0
H902 H 0.85922 0.93273 0.2452 0.0
H903 H 0.90721 0.06515 0.09178 0.0
H904 H 0.85046 0.00839 0.22731 0.0
H905 H 0.86326 0.97261 0.08749 0.0
C906 C 0.85995 0.93719 0.12589 0.0
C907 C 0.85942 0.92574 0.17031 0.0
C908 C 0.86231 0.02077 0.1971 0.0
C909 C 0.86325 0.97869 0.1629 0.0
C910 C 0.8721 0.04992 0.19611 0.0
C911 C 0.8889 0.06637 0.15855 0.0
C912 C 0.86917 0.00826 0.15997 0.0
C913 C 0.8941 0.05291 0.12113 0.0
C914 C 0.86205 0.96371 0.12205 0.0
C915 C 0.85998 0.94107 0.21034 0.0
N916 N 0.88435 0.02459 0.12282 0.0
N917 N 0.86193 0.96686 0.20571 0.0
H918 H 0.08535 0.92415 0.24325 0.0
H919 H 0.94593 0.85638 0.09634 0.0
H920 H 0.08647 0.93926 0.0942 0.0
H921 H 0.95424 0.81118 0.21402 0.0
H922 H 0.99748 0.88736 0.09505 0.0
H923 H 0.03727 0.88316 0.2352 0.0
C924 C 0.07554 0.91864 0.20884 0.0
C925 C 0.08972 0.93511 0.16937 0.0
C926 C 0.98814 0.8703 0.12054 0.0
C927 C 0.03502 0.88871 0.16001 0.0
C928 C 0.95882 0.85267 0.12122 0.0
C929 C 0.94614 0.83131 0.15519 0.0
C930 C 1.00472 0.86709 0.15513 0.0
C931 C 0.96348 0.82736 0.18706 0.0
C932 C 0.04829 0.89519 0.2042 0.0
C933 C 0.07626 0.92703 0.12546 0.0
N934 N 0.992 0.84556 0.18696 0.0
N935 N 0.04946 0.90466 0.12207 0.0
H936 H 0.54954 0.16939 0.34824 0.0
H937 H 0.57465 0.079 0.15323 0.0
H938 H 0.50694 0.07783 0.34452 0.0
H939 H 0.61175 0.16989 0.14345 0.0
H940 H 0.55177 0.07932 0.22629 0.0
H941 H 0.57179 0.17095 0.27269 0.0
C942 C 0.54421 0.14962 0.33088 0.0
C943 C 0.52661 0.12342 0.35279 0.0
C944 C 0.56506 0.09929 0.20853 0.0
C945 C 0.55254 0.12511 0.26757 0.0
C946 C 0.57841 0.09914 0.16712 0.0
C947 C 0.59501 0.12445 0.14241 0.0
C948 C 0.5682 0.12494 0.22534 0.0
C949 C 0.59925 0.14997 0.1618 0.0
C950 C 0.55723 0.15055 0.28814 0.0
C951 C 0.5206 0.09849 0.32903 0.0
N952 N 0.58563 0.14956 0.2021 0.0
N953 N 0.53384 0.09997 0.28799 0.0
H954 H 0.93263 0.41421 0.35492 0.0
H955 H 0.83948 0.4339 0.15749 0.0
H956 H 0.8419 0.37711 0.36643 0.0
H957 H 0.93082 0.47307 0.1561 0.0
H958 H 0.83831 0.40853 0.22973 0.0
H959 H 0.93045 0.42886 0.27492 0.0
C960 C 0.91212 0.40841 0.33996 0.0
C961 C 0.88746 0.39465 0.36722 0.0
C962 C 0.85854 0.4227 0.21343 0.0
C963 C 0.88484 0.41241 0.27649 0.0
C964 C 0.85924 0.43741 0.17261 0.0
C965 C 0.88528 0.45576 0.15092 0.0
C966 C 0.88405 0.4264 0.23234 0.0
C967 C 0.91023 0.45922 0.17157 0.0
C968 C 0.91087 0.41708 0.29449 0.0
C969 C 0.86139 0.38765 0.34634 0.0
N970 N 0.90895 0.44468 0.21096 0.0
N971 N 0.8608 0.39717 0.30238 0.0
H972 H 0.58657 0.51689 0.35663 0.0
H973 H 0.56726 0.40258 0.16215 0.0
H974 H 0.62897 0.46799 0.36462 0.0
H975 H 0.52949 0.45585 0.1554 0.0
H976 H 0.59163 0.42692 0.23494 0.0
H977 H 0.56954 0.49778 0.27841 0.0
C978 C 0.59297 0.50274 0.34125 0.0
C979 C 0.60904 0.49388 0.36712 0.0
C980 C 0.57793 0.43316 0.21745 0.0
C981 C 0.58871 0.47097 0.2784 0.0
C982 C 0.56374 0.41902 0.17638 0.0
C983 C 0.54629 0.42716 0.15286 0.0
C984 C 0.5745 0.45545 0.23487 0.0
C985 C 0.54278 0.44889 0.17233 0.0
C986 C 0.58297 0.49153 0.29681 0.0
C987 C 0.61669 0.47544 0.34569 0.0
N988 N 0.55679 0.46227 0.21203 0.0
N989 N 0.60597 0.46412 0.3028 0.0
H990 H 0.84645 0.4715 0.86385 0.0
H991 H 0.93592 0.45618 0.65527 0.0
H992 H 0.93794 0.51575 0.85777 0.0
H993 H 0.84464 0.40564 0.66375 0.0
H994 H 0.93634 0.48088 0.72651 0.0
H995 H 0.84465 0.45212 0.78553 0.0
C996 C 0.86616 0.47797 0.84538 0.0
C997 C 0.89243 0.49507 0.86749 0.0
C998 C 0.91617 0.46433 0.7131 0.0
C999 C 0.89046 0.47234 0.77873 0.0
C1000 C 0.91592 0.45002 0.67254 0.0
C1001 C 0.89019 0.42873 0.65366 0.0
C1002 C 0.89048 0.45744 0.73518 0.0
C1003 C 0.86496 0.42171 0.67748 0.0
C1004 C 0.8651 0.4665 0.801 0.0
C1005 C 0.91725 0.50248 0.84214 0.0
N1006 N 0.86571 0.43616 0.71705 0.0
N1007 N 0.91565 0.49076 0.7994 0.0
H1008 H 0.60423 0.43909 0.65871 0.0
H1009 H 0.48977 0.41678 0.85479 0.0
H1010 H 0.55328 0.47952 0.65927 0.0
H1011 H 0.5426 0.37874 0.86447 0.0
H1012 H 0.50796 0.43343 0.77602 0.0
H1013 H 0.57962 0.4131 0.73022 0.0
C1014 C 0.58824 0.44284 0.67425 0.0
C1015 C 0.5809 0.4616 0.65318 0.0
C1016 C 0.51528 0.42102 0.7949 0.0
C1017 C 0.55223 0.43148 0.73369 0.0
C1018 C 0.50457 0.41119 0.83963 0.0
C1019 C 0.51487 0.39659 0.86612 0.0
C1020 C 0.53679 0.41659 0.77688 0.0
C1021 C 0.53409 0.38991 0.845 0.0
C1022 C 0.57395 0.42773 0.71461 0.0
C1023 C 0.5597 0.46531 0.67429 0.0
N1024 N 0.54494 0.4005 0.80182 0.0
N1025 N 0.54612 0.45036 0.71319 0.0
H1026 H 0.58198 0.07571 0.84376 0.0
H1027 H 0.56457 0.16978 0.64516 0.0
H1028 H 0.62741 0.16731 0.84712 0.0
H1029 H 0.51548 0.07834 0.65312 0.0
H1030 H 0.5892 0.17022 0.71762 0.0
H1031 H 0.56151 0.07704 0.76846 0.0
C1032 C 0.58821 0.09613 0.82795 0.0
C1033 C 0.60617 0.12142 0.85176 0.0
C1034 C 0.57283 0.15012 0.70367 0.0
C1035 C 0.58208 0.12315 0.76647 0.0
C1036 C 0.55847 0.14989 0.66282 0.0
C1037 C 0.53803 0.12397 0.64322 0.0
C1038 C 0.56659 0.12426 0.72467 0.0
C1039 C 0.53121 0.09879 0.66699 0.0
C1040 C 0.57624 0.09691 0.78527 0.0
C1041 C 0.61364 0.14732 0.82978 0.0
N1042 N 0.54562 0.09956 0.70623 0.0
N1043 N 0.60115 0.14755 0.78855 0.0
H1044 H 0.23134 0.41042 0.48478 0.0
H1045 H 0.21681 0.50315 0.68844 0.0
H1046 H 0.27856 0.50202 0.48403 0.0
H1047 H 0.16881 0.41168 0.68108 0.0
H1048 H 0.23741 0.50421 0.61139 0.0
H1049 H 0.20834 0.41137 0.5572 0.0
C1050 C 0.23719 0.4308 0.50039 0.0
C1051 C 0.25686 0.45619 0.47847 0.0
C1052 C 0.222 0.48397 0.62634 0.0
C1053 C 0.23005 0.45749 0.56111 0.0
C1054 C 0.2099 0.48336 0.66994 0.0
C1055 C 0.19125 0.45725 0.69121 0.0
C1056 C 0.21527 0.45829 0.60419 0.0
C1057 C 0.18328 0.43225 0.66605 0.0
C1058 C 0.22383 0.43134 0.54155 0.0
C1059 C 0.26367 0.48197 0.50017 0.0
N1060 N 0.1956 0.43339 0.62416 0.0
N1061 N 0.25009 0.48199 0.54033 0.0
H1062 H 0.59946 0.82636 0.49184 0.0
H1063 H 0.50891 0.71409 0.69065 0.0
H1064 H 0.50821 0.77513 0.48455 0.0
H1065 H 0.60031 0.75865 0.68148 0.0
H1066 H 0.50704 0.73362 0.61397 0.0
H1067 H 0.59903 0.80192 0.56341 0.0
C1068 C 0.57923 0.81023 0.50587 0.0
C1069 C 0.55383 0.8027 0.4823 0.0
C1070 C 0.52744 0.73864 0.62839 0.0
C1071 C 0.55319 0.77401 0.56383 0.0
C1072 C 0.52852 0.72716 0.67176 0.0
C1073 C 0.55485 0.73505 0.69249 0.0
C1074 C 0.55287 0.75804 0.60606 0.0
C1075 C 0.57959 0.75228 0.66687 0.0
C1076 C 0.57901 0.79601 0.54647 0.0
C1077 C 0.52823 0.78169 0.50199 0.0
N1078 N 0.578 0.76352 0.62531 0.0
N1079 N 0.52855 0.76785 0.54165 0.0
H1080 H 0.297 0.79976 0.68846 0.0
H1081 H 0.19 0.78637 0.48515 0.0
H1082 H 0.25355 0.84772 0.68268 0.0
H1083 H 0.23346 0.73829 0.48521 0.0
H1084 H 0.2148 0.81002 0.55673 0.0
H1085 H 0.2781 0.78028 0.61057 0.0
C1086 C 0.28429 0.80693 0.67011 0.0
C1087 C 0.27656 0.82514 0.69205 0.0
C1088 C 0.2189 0.79422 0.54136 0.0
C1089 C 0.2543 0.80241 0.60412 0.0
C1090 C 0.2045 0.78048 0.50068 0.0
C1091 C 0.20964 0.7603 0.47928 0.0
C1092 C 0.23868 0.78781 0.56098 0.0
C1093 C 0.2287 0.75356 0.50089 0.0
C1094 C 0.27316 0.79547 0.62603 0.0
C1095 C 0.25979 0.83352 0.66709 0.0
N1096 N 0.24269 0.76742 0.54059 0.0
N1097 N 0.24891 0.82178 0.62472 0.0
H1098 H 0.60318 0.78053 0.98854 0.0
H1099 H 0.51144 0.79992 0.18828 0.0
H1100 H 0.51161 0.73611 0.98664 0.0
H1101 H 0.60299 0.84445 0.18433 0.0
H1102 H 0.5104 0.77924 0.11142 0.0
H1103 H 0.60283 0.80452 0.06023 0.0
C1104 C 0.58294 0.77547 0.00377 0.0
C1105 C 0.55738 0.75631 0.98173 0.0
C1106 C 0.53068 0.79392 0.12706 0.0
C1107 C 0.5568 0.78426 0.06338 0.0
C1108 C 0.53131 0.80608 0.17056 0.0
C1109 C 0.55737 0.82368 0.1928 0.0
C1110 C 0.5563 0.79953 0.10599 0.0
C1111 C 0.58245 0.83076 0.16855 0.0
C1112 C 0.58275 0.78942 0.04446 0.0
C1113 C 0.53177 0.75056 0.00287 0.0
N1114 N 0.58128 0.81835 0.12673 0.0
N1115 N 0.53212 0.76469 0.04253 0.0
H1116 H 0.23047 0.82481 0.98892 0.0
H1117 H 0.21418 0.71547 0.18966 0.0
H1118 H 0.27593 0.77875 0.98538 0.0
H1119 H 0.16408 0.75654 0.1799 0.0
H1120 H 0.23491 0.73513 0.11269 0.0
H1121 H 0.20637 0.79947 0.05986 0.0
C1122 C 0.23572 0.80964 0.00361 0.0
C1123 C 0.25522 0.80386 0.98129 0.0
C1124 C 0.21895 0.73933 0.127 0.0
C1125 C 0.22712 0.77414 0.06217 0.0
C1126 C 0.20677 0.72774 0.17053 0.0
C1127 C 0.1876 0.73465 0.19117 0.0
C1128 C 0.2118 0.75785 0.10442 0.0
C1129 C 0.17899 0.75092 0.1653 0.0
C1130 C 0.22169 0.7949 0.04387 0.0
C1131 C 0.26121 0.78399 0.00182 0.0
N1132 N 0.19147 0.76231 0.12359 0.0
N1133 N 0.24703 0.76965 0.04113 0.0
H1134 H 0.23452 0.5025 0.98482 0.0
H1135 H 0.2565 0.40897 0.17898 0.0
H1136 H 0.19012 0.41089 0.98799 0.0
H1137 H 0.29754 0.50026 0.18705 0.0
H1138 H 0.23727 0.41051 0.10251 0.0
H1139 H 0.26021 0.50323 0.0562 0.0
C1140 C 0.22973 0.48259 0.0011 0.0
C1141 C 0.21015 0.45659 0.98056 0.0
C1142 C 0.25084 0.43031 0.12053 0.0
C1143 C 0.23997 0.45728 0.06084 0.0
C1144 C 0.26216 0.42943 0.16388 0.0
C1145 C 0.27843 0.45449 0.18936 0.0
C1146 C 0.25557 0.45641 0.1028 0.0
C1147 C 0.28512 0.48045 0.16836 0.0
C1148 C 0.24469 0.48302 0.04134 0.0
C1149 C 0.20507 0.43142 0.00258 0.0
N1150 N 0.27319 0.48073 0.12652 0.0
N1151 N 0.22 0.43241 0.0413 0.0
H1152 H 0.94995 0.82985 0.83205 0.0
H1153 H 0.83192 0.73967 0.02471 0.0
H1154 H 0.89585 0.73878 0.82822 0.0
H1155 H 0.88182 0.83114 0.02692 0.0
H1156 H 0.8531 0.73953 0.9494 0.0
H1157 H 0.92583 0.83118 0.9039 0.0
C1158 C 0.93351 0.8101 0.84699 0.0
C1159 C 0.92487 0.78416 0.82429 0.0
C1160 C 0.85913 0.7597 0.96589 0.0
C1161 C 0.8967 0.7856 0.90518 0.0
C1162 C 0.84674 0.75978 0.00858 0.0
C1163 C 0.85528 0.78543 0.03211 0.0
C1164 C 0.88044 0.78544 0.94689 0.0
C1165 C 0.8746 0.8109 0.00981 0.0
C1166 C 0.91943 0.81091 0.88748 0.0
C1167 C 0.90314 0.75924 0.84461 0.0
N1168 N 0.88696 0.81025 0.96871 0.0
N1169 N 0.8897 0.7606 0.88371 0.0
H1170 H 0.27006 0.15946 0.81759 0.0
H1171 H 0.1771 0.05397 0.02379 0.0
H1172 H 0.17852 0.11643 0.81887 0.0
H1173 H 0.26859 0.09842 0.01774 0.0
H1174 H 0.17626 0.07368 0.94664 0.0
H1175 H 0.26918 0.13666 0.89142 0.0
C1176 C 0.24974 0.14551 0.83389 0.0
C1177 C 0.22433 0.1398 0.81213 0.0
C1178 C 0.19647 0.07876 0.96199 0.0
C1179 C 0.22308 0.113 0.89636 0.0
C1180 C 0.19694 0.0672 0.00563 0.0
C1181 C 0.22298 0.07476 0.02714 0.0
C1182 C 0.22221 0.09787 0.94007 0.0
C1183 C 0.24807 0.09223 0.00248 0.0
C1184 C 0.24922 0.13227 0.87589 0.0
C1185 C 0.19861 0.12155 0.83476 0.0
N1186 N 0.24706 0.10341 0.9605 0.0
N1187 N 0.19861 0.10856 0.87564 0.0
H1188 H 0.88293 0.05933 0.82876 0.0
H1189 H 0.91749 0.18044 0.01904 0.0
H1190 H 0.84751 0.11473 0.82765 0.0
H1191 H 0.95308 0.12532 0.02539 0.0
H1192 H 0.89503 0.15884 0.9446 0.0
H1193 H 0.90915 0.08286 0.90046 0.0
C1194 C 0.88006 0.07588 0.84434 0.0
C1195 C 0.86305 0.08513 0.82237 0.0
C1196 C 0.90809 0.1517 0.96179 0.0
C1197 C 0.8936 0.11266 0.90299 0.0
C1198 C 0.92126 0.16435 0.00394 0.0
C1199 C 0.93703 0.15455 0.02835 0.0
C1200 C 0.91049 0.12889 0.94417 0.0
C1201 C 0.94119 0.13357 0.00745 0.0
C1202 C 0.8954 0.08962 0.88473 0.0
C1203 C 0.86046 0.10699 0.84346 0.0
N1204 N 0.92754 0.12103 0.96679 0.0
N1205 N 0.87575 0.12014 0.88236 0.0
H1206 H 0.17858 0.05819 0.32174 0.0
H1207 H 0.26408 0.18102 0.50988 0.0
H1208 H 0.26974 0.11106 0.32678 0.0
H1209 H 0.17424 0.12226 0.52203 0.0
H1210 H 0.26462 0.15883 0.43595 0.0
H1211 H 0.17513 0.08181 0.3928 0.0
C1212 C 0.19788 0.07414 0.33859 0.0
C1213 C 0.2245 0.08275 0.31844 0.0
C1214 C 0.24464 0.15098 0.45431 0.0
C1215 C 0.22065 0.11043 0.39813 0.0
C1216 C 0.24428 0.16398 0.4961 0.0
C1217 C 0.21912 0.15334 0.52201 0.0
C1218 C 0.21972 0.127 0.43855 0.0
C1219 C 0.19404 0.13116 0.50284 0.0
C1220 C 0.19587 0.08794 0.37859 0.0
C1221 C 0.24879 0.10386 0.34111 0.0
N1222 N 0.19504 0.11831 0.46247 0.0
N1223 N 0.24626 0.11715 0.37943 0.0
H1224 H 0.94411 0.11401 0.32262 0.0
H1225 H 0.82908 0.08933 0.5193 0.0
H1226 H 0.89334 0.1546 0.3256 0.0
H1227 H 0.88447 0.05427 0.53091 0.0
H1228 H 0.84895 0.10818 0.4423 0.0
H1229 H 0.92155 0.0895 0.39625 0.0
C1230 C 0.92869 0.1182 0.33924 0.0
C1231 C 0.92054 0.13633 0.31803 0.0
C1232 C 0.8566 0.09607 0.46126 0.0
C1233 C 0.89422 0.10789 0.40092 0.0
C1234 C 0.84498 0.08501 0.50496 0.0
C1235 C 0.85529 0.0704 0.53139 0.0
C1236 C 0.87897 0.0928 0.44404 0.0
C1237 C 0.8759 0.06535 0.51136 0.0
C1238 C 0.91557 0.10394 0.38082 0.0
C1239 C 0.90019 0.14073 0.34061 0.0
N1240 N 0.88747 0.07698 0.46898 0.0
N1241 N 0.88765 0.12649 0.38059 0.0
H1242 H 0.85439 0.74863 0.33196 0.0
H1243 H 0.96335 0.8388 0.53469 0.0
H1244 H 0.90616 0.83979 0.32292 0.0
H1245 H 0.92201 0.74775 0.52071 0.0
H1246 H 0.94449 0.84128 0.45746 0.0
H1247 H 0.878 0.74942 0.40464 0.0
C1248 C 0.87051 0.76893 0.3458 0.0
C1249 C 0.87843 0.79417 0.32142 0.0
C1250 C 0.94007 0.82086 0.47098 0.0
C1251 C 0.90619 0.79524 0.40435 0.0
C1252 C 0.95115 0.81947 0.51465 0.0
C1253 C 0.94397 0.79298 0.53405 0.0
C1254 C 0.92177 0.79558 0.44715 0.0
C1255 C 0.92781 0.76855 0.50711 0.0
C1256 C 0.88424 0.76936 0.38708 0.0
C1257 C 0.89935 0.81989 0.34098 0.0
N1258 N 0.91696 0.77042 0.46535 0.0
N1259 N 0.91275 0.81979 0.38137 0.0
H1260 H 0.31282 0.90822 0.9368 0.0
H1261 H 0.47701 0.01112 0.87632 0.0
H1262 H 0.34846 0.9192 0.79818 0.0
H1263 H 0.44354 0.99605 0.0175 0.0
H1264 H 0.42887 0.98266 0.84608 0.0
H1265 H 0.3585 0.94696 0.96525 0.0
C1266 C 0.32983 0.91982 0.91186 0.0
C1267 C 0.32671 0.91097 0.86486 0.0
C1268 C 0.43198 0.98561 0.88369 0.0
C1269 C 0.37944 0.95422 0.89746 0.0
C1270 C 0.4596 1.00164 0.90111 0.0
C1271 C 0.4646 0.00577 0.94973 0.0
C1272 C 0.40889 0.97343 0.91493 0.0
C1273 C 0.44087 0.99356 0.97979 0.0
C1274 C 0.35611 0.94152 0.92828 0.0
C1275 C 0.34982 0.92583 0.83444 0.0
N1276 N 0.41414 0.97783 0.96196 0.0
N1277 N 0.37525 0.94643 0.85133 0.0
H1278 H 0.01977 0.4529 0.0262 0.0
H1279 H 0.09608 0.438 0.7974 0.0
H1280 H 1.00601 0.47418 0.88618 0.0
H1281 H 0.10579 0.4108 0.93475 0.0
H1282 H 0.05819 0.44527 0.8277 0.0
H1283 H 0.04786 0.43343 -0.00708 0.0
C1284 C 0.02255 0.45346 0.98846 0.0
C1285 C 0.01055 0.46549 0.95911 0.0
C1286 C 0.06795 0.43692 0.85108 0.0
C1287 C 0.04284 0.44306 0.92063 0.0
C1288 C 0.08922 0.43223 0.83349 0.0
C1289 C 0.10359 0.42313 0.86335 0.0
C1290 C 0.06141 0.43313 0.89927 0.0
C1291 C 0.0947 0.41711 0.91031 0.0
C1292 C 0.03861 0.44227 0.96946 0.0
C1293 C 0.01524 0.46575 0.91045 0.0
N1294 N 0.07452 0.42268 0.92706 0.0
N1295 N 0.03101 0.45481 0.89287 0.0
H1296 H 0.58047 0.66468 0.79715 0.0
H1297 H 0.56426 0.56993 0.02253 0.0
H1298 H 0.60281 0.69881 0.93704 0.0
H1299 H 0.54259 0.53696 0.88136 0.0
H1300 H 0.5837 0.61804 0.9913 0.0
H1301 H 0.57388 0.6194 0.82582 0.0
C1302 C 0.5854 0.66303 0.83353 0.0
C1303 C 0.59291 0.68575 0.86452 0.0
C1304 C 0.57479 0.60029 0.96712 0.0
C1305 C 0.58363 0.63332 0.89848 0.0
C1306 C 0.56365 0.57273 0.98495 0.0
C1307 C 0.55147 0.54911 0.95469 0.0
C1308 C 0.57388 0.60448 0.91854 0.0
C1309 C 0.55116 0.55429 0.9063 0.0
C1310 C 0.58105 0.63697 0.85016 0.0
C1311 C 0.59779 0.68208 0.91176 0.0
N1312 N 0.56209 0.58129 0.88987 0.0
N1313 N 0.59262 0.65623 0.92748 0.0
H1314 H 0.01382 0.56948 0.52152 0.0
H1315 H 0.09375 0.6645 0.29709 0.0
H1316 H 1.00237 0.53674 0.38017 0.0
H1317 H 0.1049 0.69838 0.43707 0.0
H1318 H 0.05488 0.61915 0.3253 0.0
H1319 H 0.04306 0.61757 0.49061 0.0
C1320 C 0.01732 0.57233 0.48396 0.0
C1321 C 1.00564 0.54878 0.45355 0.0
C1322 C 0.06519 0.63667 0.34975 0.0
C1323 C 0.0393 0.60413 0.41779 0.0
C1324 C 0.08702 0.66276 0.33338 0.0
C1325 C 0.10204 0.68543 0.36453 0.0
C1326 C 0.05868 0.63297 0.39796 0.0
C1327 C 0.09332 0.68167 0.41167 0.0
C1328 C 0.03407 0.59988 0.46633 0.0
C1329 C 0.01128 0.55402 0.40521 0.0
N1330 N 0.07251 0.65581 0.42712 0.0
N1331 N 0.02769 0.58101 0.38896 0.0
H1332 H 0.44006 0.45248 0.52837 0.0
H1333 H 0.34496 0.42484 0.29922 0.0
H1334 H 0.47267 0.46713 0.38667 0.0
H1335 H 0.31132 0.40985 0.43974 0.0
H1336 H 0.39002 0.43213 0.33017 0.0
H1337 H 0.39187 0.43107 0.49679 0.0
C1338 C 0.43716 0.45117 0.49062 0.0
C1339 C 0.46068 0.46196 0.46025 0.0
C1340 C 0.37258 0.42637 0.35427 0.0
C1341 C 0.40525 0.43722 0.42371 0.0
C1342 C 0.34661 0.42155 0.33641 0.0
C1343 C 0.32418 0.4161 0.36685 0.0
C1344 C 0.37637 0.42631 0.40314 0.0
C1345 C 0.32785 0.41329 0.41498 0.0
C1346 C 0.40956 0.43887 0.47259 0.0
C1347 C 0.45539 0.45974 0.41159 0.0
N1348 N 0.35363 0.41897 0.43177 0.0
N1349 N 0.42836 0.44773 0.39495 0.0
H1350 H 0.6006 0.90634 0.43906 0.0
H1351 H 0.54081 0.01038 0.37719 0.0
H1352 H 0.57676 0.91772 0.30001 0.0
H1353 H 0.55651 0.99336 0.51892 0.0
H1354 H 0.5603 0.98167 0.34749 0.0
H1355 H 0.59325 0.94482 0.46745 0.0
C1356 C 0.59527 0.91796 0.41405 0.0
C1357 C 0.58992 0.90932 0.3669 0.0
C1358 C 0.55957 0.98425 0.38511 0.0
C1359 C 0.58001 0.95229 0.3994 0.0
C1360 C 0.54808 1.00041 0.40222 0.0
C1361 C 0.54654 1.00411 0.45083 0.0
C1362 C 0.56974 0.97151 0.41665 0.0
C1363 C 0.55726 0.99126 0.48121 0.0
C1364 C 0.59046 0.93951 0.43042 0.0
C1365 C 0.58175 0.9242 0.33638 0.0
N1366 N 0.56822 0.97545 0.46367 0.0
N1367 N 0.57672 0.94467 0.3532 0.0
H1368 H 0.10985 0.33093 0.35331 0.0
H1369 H 0.01336 0.24977 0.13118 0.0
H1370 H 0.14143 0.34141 0.21127 0.0
H1371 H 0.97997 0.24053 0.2712 0.0
H1372 H 0.05891 0.28867 0.15838 0.0
H1373 H 0.06147 0.30187 0.32341 0.0
C1374 C 0.10669 0.32726 0.31582 0.0
C1375 C 0.12999 0.33856 0.28491 0.0
C1376 C 0.04148 0.27877 0.18305 0.0
C1377 C 0.07435 0.30517 0.25034 0.0
C1378 C 0.01529 0.2569 0.16726 0.0
C1379 C 0.99269 0.2424 0.19875 0.0
C1380 C 0.04539 0.28582 0.23106 0.0
C1381 C 0.99664 0.25169 0.24557 0.0
C1382 C 0.07898 0.31063 0.29877 0.0
C1383 C 0.12435 0.33275 0.2367 0.0
N1384 N 0.02263 0.2725 0.26053 0.0
N1385 N 0.09724 0.31647 0.22103 0.0
H1386 H 0.68497 0.78766 0.36292 0.0
H1387 H 0.76107 0.76526 0.13999 0.0
H1388 H 0.6708 0.80358 0.21963 0.0
H1389 H 0.77558 0.74816 0.28187 0.0
H1390 H 0.72257 0.77231 0.16786 0.0
H1391 H 0.71407 0.76818 0.33398 0.0
C1392 C 0.68786 0.78702 0.32537 0.0
C1393 C 0.67548 0.79761 0.2938 0.0
C1394 C 0.73354 0.76622 0.1929 0.0
C1395 C 0.70889 0.77512 0.26031 0.0
C1396 C 0.75517 0.76162 0.17679 0.0
C1397 C 0.77102 0.75537 0.20849 0.0
C1398 C 0.72807 0.76521 0.24137 0.0
C1399 C 0.76332 0.75214 0.25612 0.0
C1400 C 0.70451 0.77584 0.30887 0.0
C1401 C 0.68029 0.7963 0.24552 0.0
N1402 N 0.7427 0.75753 0.27125 0.0
N1403 N 0.69659 0.78538 0.23038 0.0
H1404 H 0.17817 0.87337 0.23635 0.0
H1405 H 0.28159 0.03474 0.25308 0.0
H1406 H 0.2567 0.90008 0.31141 0.0
H1407 H 0.24153 0.99547 0.12212 0.0
H1408 H 0.27341 0.9884 0.28133 0.0
H1409 H 0.19903 0.92037 0.20153 0.0
C1410 C 0.19981 0.88877 0.2455 0.0
C1411 C 0.21552 0.88203 0.27698 0.0
C1412 C 0.2674 0.99024 0.24577 0.0
C1413 C 0.23927 0.93683 0.23782 0.0
C1414 C 0.27258 0.01679 0.2293 0.0
C1415 C 0.26246 0.019 0.18499 0.0
C1416 C 0.25145 0.96592 0.21804 0.0
C1417 C 0.2499 0.99473 0.15632 0.0
C1418 C 0.21167 0.9158 0.22555 0.0
C1419 C 0.24327 0.90393 0.2882 0.0
N1420 N 0.24399 0.96911 0.17377 0.0
N1421 N 0.25413 0.93036 0.26905 0.0
H1422 H 0.76373 0.03372 0.76466 0.0
H1423 H 0.66381 0.86852 0.70789 0.0
H1424 H 0.75363 0.99724 0.62691 0.0
H1425 H 0.6809 0.90324 0.84829 0.0
H1426 H 0.69044 0.91659 0.67627 0.0
H1427 H 0.72541 0.988 0.79361 0.0
C1428 C 0.75233 0.01655 0.73989 0.0
C1429 C 0.76155 0.0194 0.69312 0.0
C1430 C 0.68829 0.91373 0.71402 0.0
C1431 C 0.71875 0.96659 0.7264 0.0
C1432 C 0.67333 0.88618 0.73221 0.0
C1433 C 0.6703 0.88155 0.78103 0.0
C1434 C 0.70045 0.93712 0.74467 0.0
C1435 C 0.68251 0.90558 0.81047 0.0
C1436 C 0.7309 0.99021 0.75667 0.0
C1437 C 0.74681 0.99607 0.66301 0.0
N1438 N 0.69714 0.93222 0.79188 0.0
N1439 N 0.72652 0.97057 0.68027 0.0
H1440 H 0.01468 0.76764 0.62896 0.0
H1441 H 0.11219 0.75346 0.82126 0.0
H1442 H 0.97833 0.73127 0.76336 0.0
H1443 H 0.13673 0.83011 0.74156 0.0
H1444 H 0.06415 0.73339 0.78985 0.0
H1445 H 0.0607 0.77571 0.65641 0.0
C1446 C 0.016 0.75978 0.66334 0.0
C1447 C 0.99253 0.74845 0.69372 0.0
C1448 C 0.08028 0.75452 0.77928 0.0
C1449 C 0.04541 0.7585 0.72587 0.0
C1450 C 0.10782 0.76636 0.79762 0.0
C1451 C 0.12929 0.79393 0.78455 0.0
C1452 C 0.07418 0.76984 0.74636 0.0
C1453 C 0.1217 0.80869 0.75231 0.0
C1454 C 0.04242 0.76499 0.6793 0.0
C1455 C 0.99573 0.73954 0.73853 0.0
N1456 N 0.09501 0.79639 0.73417 0.0
N1457 N 0.02187 0.74516 0.75365 0.0
H1458 H 0.23219 0.24468 0.62558 0.0
H1459 H 0.25599 0.36059 0.81613 0.0
H1460 H 0.27625 0.2482 0.75338 0.0
H1461 H 0.176 0.30749 0.74569 0.0
H1462 H 0.27409 0.3313 0.7829 0.0
H1463 H 0.22483 0.28262 0.65527 0.0
C1464 C 0.2416 0.25449 0.65896 0.0
C1465 C 0.25509 0.24347 0.68688 0.0
C1466 C 0.25264 0.32633 0.77482 0.0
C1467 C 0.24593 0.28631 0.72167 0.0
C1468 C 0.24198 0.3428 0.79419 0.0
C1469 C 0.21411 0.33685 0.78405 0.0
C1470 C 0.23575 0.30424 0.74388 0.0
C1471 C 0.19773 0.31376 0.75399 0.0
C1472 C 0.2369 0.27574 0.67621 0.0
C1473 C 0.2662 0.25645 0.73045 0.0
N1474 N 0.20887 0.2986 0.73476 0.0
N1475 N 0.26103 0.27702 0.74694 0.0
H1476 H 0.67475 0.58631 0.47943 0.0
H1477 H 0.7781 0.65893 0.69925 0.0
H1478 H 0.64753 0.56648 0.62328 0.0
H1479 H 0.8051 0.67704 0.55457 0.0
H1480 H 0.72911 0.62924 0.67256 0.0
H1481 H 0.72067 0.62499 0.50639 0.0
C1482 C 0.67799 0.59106 0.51666 0.0
C1483 C 0.65703 0.57375 0.54912 0.0
C1484 C 0.74573 0.63979 0.64663 0.0
C1485 C 0.71022 0.61686 0.58061 0.0
C1486 C 0.77379 0.6568 0.66186 0.0
C1487 C 0.79601 0.67048 0.6292 0.0
C1488 C 0.7396 0.63634 0.59827 0.0
C1489 C 0.78891 0.66657 0.58116 0.0
C1490 C 0.70444 0.61277 0.53216 0.0
C1491 C 0.66283 0.57991 0.59709 0.0
N1492 N 0.76145 0.64989 0.56724 0.0
N1493 N 0.68897 0.60069 0.61143 0.0
H1494 H 0.37129 0.17263 0.57426 0.0
H1495 H 0.42822 0.06706 0.57942 0.0
H1496 H 0.31786 0.09063 0.63849 0.0
H1497 H 0.43583 0.11676 0.45668 0.0
H1498 H 0.38983 0.07478 0.60822 0.0
H1499 H 0.39946 0.15419 0.53905 0.0
C1500 C 0.36517 0.15073 0.58092 0.0
C1501 C 0.34164 0.13328 0.60936 0.0
C1502 C 0.39934 0.08315 0.57425 0.0
C1503 C 0.37489 0.11225 0.56982 0.0
C1504 C 0.42087 0.07834 0.55746 0.0
C1505 C 0.43502 0.09109 0.5154 0.0
C1506 C 0.39264 0.10133 0.54919 0.0
C1507 C 0.42532 0.1064 0.48911 0.0
C1508 C 0.38146 0.14025 0.5608 0.0
C1509 C 0.33589 0.10526 0.6176 0.0
N1510 N 0.4053 0.11167 0.50691 0.0
N1511 N 0.35249 0.0957 0.59826 0.0
H1512 H 0.92298 0.33811 0.47761 0.0
H1513 H 0.88897 0.23479 0.6979 0.0
H1514 H 0.93066 0.36566 0.62126 0.0
H1515 H 0.88044 0.20747 0.55345 0.0
H1516 H 0.91029 0.28394 0.67097 0.0
H1517 H 0.91571 0.29227 0.50483 0.0
C1518 C 0.92471 0.33504 0.51484 0.0
C1519 C 0.92817 0.35599 0.54717 0.0
C1520 C 0.90388 0.26722 0.64514 0.0
C1521 C 0.91798 0.30284 0.57897 0.0
C1522 C 0.89166 0.23906 0.66051 0.0
C1523 C 0.88259 0.2167 0.62798 0.0
C1524 C 0.90718 0.27332 0.59677 0.0
C1525 C 0.8865 0.22378 0.57993 0.0
C1526 C 0.91989 0.30859 0.53049 0.0
C1527 C 0.92886 0.35037 0.59515 0.0
N1528 N 0.89838 0.25134 0.56587 0.0
N1529 N 0.92331 0.32421 0.60965 0.0
H1530 H 0.33308 0.20588 0.05258 0.0
H1531 H 0.4419 0.36726 0.12033 0.0
H1532 H 0.35105 0.23616 0.19562 0.0
H1533 H 0.42286 0.33614 0.97834 0.0
H1534 H 0.40293 0.32168 0.14839 0.0
H1535 H 0.36154 0.25467 0.02482 0.0
C1536 C 0.34318 0.22274 0.07826 0.0
C1537 C 0.33987 0.21666 0.12664 0.0
C1538 C 0.40661 0.32509 0.11094 0.0
C1539 C 0.37229 0.27308 0.09482 0.0
C1540 C 0.42847 0.35137 0.09486 0.0
C1541 C 0.43515 0.35572 0.04684 0.0
C1542 C 0.39162 0.30287 0.07873 0.0
C1543 C 0.41794 0.3339 0.01553 0.0
C1544 C 0.35921 0.25072 0.06232 0.0
C1545 C 0.35291 0.23968 0.15804 0.0
N1546 N 0.39731 0.30833 0.032 0.0
N1547 N 0.36867 0.26677 0.14162 0.0
H1548 H 0.81088 0.13835 0.04492 0.0
H1549 H 0.64482 0.07377 0.09301 0.0
H1550 H 0.77374 0.11958 0.18362 0.0
H1551 H 0.68442 0.10273 0.95782 0.0
H1552 H 0.68997 0.08099 0.12456 0.0
H1553 H 0.76355 0.11836 0.01108 0.0
C1554 C 0.79285 0.13031 0.06841 0.0
C1555 C 0.79657 0.13113 0.1174 0.0
C1556 C 0.68858 0.08493 0.08761 0.0
C1557 C 0.74181 0.10733 0.07845 0.0
C1558 C 0.66261 0.08018 0.06937 0.0
C1559 C 0.66079 0.08715 0.02253 0.0
C1560 C 0.71283 0.09685 0.05874 0.0
C1561 C 0.68483 0.09658 -0.0061 0.0
C1562 C 0.7657 0.11852 0.04893 0.0
C1563 C 0.77207 0.11942 0.14571 0.0
N1564 N 0.7099 0.10151 0.01254 0.0
N1565 N 0.74582 0.10819 0.12588 0.0
H1566 H 0.93916 0.59556 0.00525 0.0
H1567 H 0.843 0.63076 0.16494 0.0
H1568 H 0.8967 0.5463 0.12813 0.0
H1569 H 0.92037 0.70017 0.10955 0.0
H1570 H 0.8594 0.59787 0.14187 0.0
H1571 H 0.93187 0.63412 0.03507 0.0
C1572 C 0.92948 0.5934 0.03938 0.0
C1573 C 0.91898 0.56797 0.06474 0.0
C1574 C 0.87284 0.62032 0.13487 0.0
C1575 C 0.90905 0.61087 0.09739 0.0
C1576 C 0.86339 0.639 0.14775 0.0
C1577 C 0.88041 0.66814 0.13927 0.0
C1578 C 0.89919 0.63073 0.11225 0.0
C1579 C 0.90673 0.6778 0.1169 0.0
C1580 C 0.92492 0.61515 0.05603 0.0
C1581 C 0.90549 0.56576 0.10789 0.0
N1582 N 0.91523 0.65912 0.10367 0.0
N1583 N 0.90043 0.58658 0.12235 0.0
loop_
_geom_bond_atom_site_label_1
_geom_bond_atom_site_label_2
_geom_bond_distance
_geom_bond_site_symmetry_2
_ccdc_geom_bond_type
C0 O16 1.251 . S
C0 O18 1.254 . S
N1 C2 1.333 . S
N1 C6 1.307 1_554 S
N1 Zn7 2.020 . S
C2 N1 1.333 . S
C2 C3 1.379 . S
C2 H20 0.952 . S
C3 C2 1.379 . S
C3 C4 1.390 . S
C3 H30 0.949 . S
C4 C3 1.390 . S
C4 C5 1.357 1_554 S
C5 C4 1.357 1_556 S
C5 C6 1.370 . S
C5 H31 0.950 . S
C6 N1 1.307 1_556 S
C6 C5 1.370 . S
C6 H24 0.948 . S
Zn7 N1 2.020 . S
Zn7 O16 2.039 . S
Zn7 O22 2.034 . S
Zn7 O26 2.025 1_554 S
Zn7 O28 2.024 . S
C8 O27 1.246 . S
C8 O28 1.249 . S
N9 C10 1.307 . S
N9 C11 1.333 1_554 S
N9 Zn15 2.020 . S
C10 N9 1.307 . S
C10 C14 1.370 . S
C10 H21 0.948 . S
C11 N9 1.333 1_556 S
C11 C12 1.379 . S
C11 H19 0.952 . S
C12 C11 1.379 . S
C12 C13 1.390 . S
C12 H32 0.949 . S
C13 C12 1.390 . S
C13 C14 1.357 1_556 S
C14 C10 1.370 . S
C14 C13 1.357 1_554 S
C14 H33 0.950 . S
Zn15 N9 2.020 . S
Zn15 O18 2.025 . S
Zn15 O23 2.024 . S
Zn15 O25 2.039 1_554 S
Zn15 O27 2.034 . S
O16 C0 1.251 . S
O16 Zn7 2.039 . S
C17 O22 1.246 . S
C17 O23 1.249 . S
O18 C0 1.254 . S
O18 Zn15 2.025 . S
H19 C11 0.952 . S
H20 C2 0.952 . S
H21 C10 0.948 . S
O22 Zn7 2.034 . S
O22 C17 1.246 . S
O23 Zn15 2.024 . S
O23 C17 1.249 . S
H24 C6 0.948 . S
O25 Zn15 2.039 1_556 S
O25 C29 1.251 . S
O26 Zn7 2.025 1_556 S
O26 C29 1.254 . S
O27 C8 1.246 . S
O27 Zn15 2.034 . S
O28 Zn7 2.024 . S
O28 C8 1.249 . S
C29 O25 1.251 . S
C29 O26 1.254 . S
H30 C3 0.949 . S
H31 C5 0.950 . S
H32 C12 0.949 . S
H33 C14 0.950 . S
C34 O50 1.251 . S
C34 O52 1.254 . S
N35 C36 1.333 . S
N35 C40 1.307 1_554 S
N35 Zn41 2.020 . S
C36 N35 1.333 . S
C36 C37 1.379 . S
C36 H54 0.952 . S
C37 C36 1.379 . S
C37 C38 1.390 . S
C37 H64 0.949 . S
C38 C37 1.390 . S
C38 C39 1.357 1_554 S
C39 C38 1.357 1_556 S
C39 C40 1.370 . S
C39 H65 0.950 . S
C40 N35 1.307 1_556 S
C40 C39 1.370 . S
C40 H58 0.948 . S
Zn41 N35 2.020 . S
Zn41 O50 2.039 . S
Zn41 O56 2.034 . S
Zn41 O60 2.025 1_554 S
Zn41 O62 2.024 . S
C42 O61 1.246 . S
C42 O62 1.249 . S
N43 C44 1.307 . S
N43 C45 1.333 1_554 S
N43 Zn49 2.020 . S
C44 N43 1.307 . S
C44 C48 1.370 . S
C44 H55 0.948 . S
C45 N43 1.333 1_556 S
C45 C46 1.379 . S
C45 H53 0.952 . S
C46 C45 1.379 . S
C46 C47 1.390 . S
C46 H66 0.949 . S
C47 C46 1.390 . S
C47 C48 1.357 1_556 S
C48 C44 1.370 . S
C48 C47 1.357 1_554 S
C48 H67 0.950 . S
Zn49 N43 2.020 . S
Zn49 O52 2.025 . S
Zn49 O57 2.024 . S
Zn49 O59 2.039 1_554 S
Zn49 O61 2.034 . S
O50 C34 1.251 . S
O50 Zn41 2.039 . S
C51 O56 1.246 . S
C51 O57 1.249 . S
O52 C34 1.254 . S
O52 Zn49 2.025 . S
H53 C45 0.952 . S
H54 C36 0.952 . S
H55 C44 0.948 . S
O56 Zn41 2.034 . S
O56 C51 1.246 . S
O57 Zn49 2.024 . S
O57 C51 1.249 . S
H58 C40 0.948 . S
O59 Zn49 2.039 1_556 S
O59 C63 1.251 . S
O60 Zn41 2.025 1_556 S
O60 C63 1.254 . S
O61 C42 1.246 . S
O61 Zn49 2.034 . S
O62 Zn41 2.024 . S
O62 C42 1.249 . S
C63 O59 1.251 . S
C63 O60 1.254 . S
H64 C37 0.949 . S
H65 C39 0.950 . S
H66 C46 0.949 . S
H67 C48 0.950 . S
C68 O84 1.251 . S
C68 O86 1.254 . S
N69 C70 1.333 . S
N69 C74 1.307 1_554 S
N69 Zn75 2.020 . S
C70 N69 1.333 . S
C70 C71 1.379 . S
C70 H88 0.952 . S
C71 C70 1.379 . S
C71 C72 1.390 . S
C71 H98 0.949 . S
C72 C71 1.390 . S
C72 C73 1.357 1_554 S
C73 C72 1.357 1_556 S
C73 C74 1.370 . S
C73 H99 0.950 . S
C74 N69 1.307 1_556 S
C74 C73 1.370 . S
C74 H92 0.948 . S
Zn75 N69 2.020 . S
Zn75 O84 2.039 . S
Zn75 O90 2.034 . S
Zn75 O94 2.025 1_554 S
Zn75 O96 2.024 . S
C76 O95 1.246 . S
C76 O96 1.249 . S
N77 C78 1.307 . S
N77 C79 1.333 1_554 S
N77 Zn83 2.020 . S
C78 N77 1.307 . S
C78 C82 1.370 . S
C78 H89 0.948 . S
C79 N77 1.333 1_556 S
C79 C80 1.379 . S
C79 H87 0.952 . S
C80 C79 1.379 . S
C80 C81 1.390 . S
C80 H100 0.949 . S
C81 C80 1.390 . S
C81 C82 1.357 1_556 S
C82 C78 1.370 . S
C82 C81 1.357 1_554 S
C82 H101 0.950 . S
Zn83 N77 2.020 . S
Zn83 O86 2.025 . S
Zn83 O91 2.024 . S
Zn83 O93 2.039 1_554 S
Zn83 O95 2.034 . S
O84 C68 1.251 . S
O84 Zn75 2.039 . S
C85 O90 1.246 . S
C85 O91 1.249 . S
O86 C68 1.254 . S
O86 Zn83 2.025 . S
H87 C79 0.952 . S
H88 C70 0.952 . S
H89 C78 0.948 . S
O90 Zn75 2.034 . S
O90 C85 1.246 . S
O91 Zn83 2.024 . S
O91 C85 1.249 . S
H92 C74 0.948 . S
O93 Zn83 2.039 1_556 S
O93 C97 1.251 . S
O94 Zn75 2.025 1_556 S
O94 C97 1.254 . S
O95 C76 1.246 . S
O95 Zn83 2.034 . S
O96 Zn75 2.024 . S
O96 C76 1.249 . S
C97 O93 1.251 . S
C97 O94 1.254 . S
H98 C71 0.949 . S
H99 C73 0.950 . S
H100 C80 0.949 . S
H101 C82 0.950 . S
C102 O118 1.251 . S
C102 O120 1.254 . S
N103 C104 1.333 . S
N103 C108 1.307 . S
N103 Zn109 2.020 . S
C104 N103 1.333 . S
C104 C105 1.379 . S
C104 H122 0.952 . S
C105 C104 1.379 . S
C105 C106 1.390 . S
C105 H132 0.949 . S
C106 C105 1.390 . S
C106 C107 1.357 . S
C107 C106 1.357 . S
C107 C108 1.370 . S
C107 H133 0.950 . S
C108 N103 1.307 . S
C108 C107 1.370 . S
C108 H126 0.948 . S
Zn109 N103 2.020 . S
Zn109 O118 2.039 . S
Zn109 O124 2.034 . S
Zn109 O128 2.025 . S
Zn109 O130 2.024 . S
C110 O129 1.246 . S
C110 O130 1.249 . S
N111 C112 1.307 . S
N111 C113 1.333 . S
N111 Zn117 2.020 . S
C112 N111 1.307 . S
C112 C116 1.370 . S
C112 H123 0.948 . S
C113 N111 1.333 . S
C113 C114 1.379 . S
C113 H121 0.952 . S
C114 C113 1.379 . S
C114 C115 1.390 . S
C114 H134 0.949 . S
C115 C114 1.390 . S
C115 C116 1.357 . S
C116 C112 1.370 . S
C116 C115 1.357 . S
C116 H135 0.950 . S
Zn117 N111 2.020 . S
Zn117 O120 2.025 . S
Zn117 O125 2.024 . S
Zn117 O127 2.039 . S
Zn117 O129 2.034 . S
O118 C102 1.251 . S
O118 Zn109 2.039 . S
C119 O124 1.246 . S
C119 O125 1.249 . S
O120 C102 1.254 . S
O120 Zn117 2.025 . S
H121 C113 0.952 . S
H122 C104 0.952 . S
H123 C112 0.948 . S
O124 Zn109 2.034 . S
O124 C119 1.246 . S
O125 Zn117 2.024 . S
O125 C119 1.249 . S
H126 C108 0.948 . S
O127 Zn117 2.039 . S
O127 C131 1.251 . S
O128 Zn109 2.025 . S
O128 C131 1.254 . S
O129 C110 1.246 . S
O129 Zn117 2.034 . S
O130 Zn109 2.024 . S
O130 C110 1.249 . S
C131 O127 1.251 . S
C131 O128 1.254 . S
H132 C105 0.949 . S
H133 C107 0.950 . S
H134 C114 0.949 . S
H135 C116 0.950 . S
C136 O152 1.251 . S
C136 O154 1.254 . S
N137 C138 1.333 . S
N137 C142 1.307 . S
N137 Zn143 2.020 . S
C138 N137 1.333 . S
C138 C139 1.379 . S
C138 H156 0.952 . S
C139 C138 1.379 . S
C139 C140 1.390 . S
C139 H166 0.949 . S
C140 C139 1.390 . S
C140 C141 1.357 . S
C141 C140 1.357 . S
C141 C142 1.370 . S
C141 H167 0.950 . S
C142 N137 1.307 . S
C142 C141 1.370 . S
C142 H160 0.948 . S
Zn143 N137 2.020 . S
Zn143 O152 2.039 . S
Zn143 O158 2.034 . S
Zn143 O162 2.025 . S
Zn143 O164 2.024 . S
C144 O163 1.246 . S
C144 O164 1.249 . S
N145 C146 1.307 . S
N145 C147 1.333 . S
N145 Zn151 2.020 . S
C146 N145 1.307 . S
C146 C150 1.370 . S
C146 H157 0.948 . S
C147 N145 1.333 . S
C147 C148 1.379 . S
C147 H155 0.952 . S
C148 C147 1.379 . S
C148 C149 1.390 . S
C148 H168 0.949 . S
C149 C148 1.390 . S
C149 C150 1.357 . S
C150 C146 1.370 . S
C150 C149 1.357 . S
C150 H169 0.950 . S
Zn151 N145 2.020 . S
Zn151 O154 2.025 . S
Zn151 O159 2.024 . S
Zn151 O161 2.039 . S
Zn151 O163 2.034 . S
O152 C136 1.251 . S
O152 Zn143 2.039 . S
C153 O158 1.246 . S
C153 O159 1.249 . S
O154 C136 1.254 . S
O154 Zn151 2.025 . S
H155 C147 0.952 . S
H156 C138 0.952 . S
H157 C146 0.948 . S
O158 Zn143 2.034 . S
O158 C153 1.246 . S
O159 Zn151 2.024 . S
O159 C153 1.249 . S
H160 C142 0.948 . S
O161 Zn151 2.039 . S
O161 C165 1.251 . S
O162 Zn143 2.025 . S
O162 C165 1.254 . S
O163 C144 1.246 . S
O163 Zn151 2.034 . S
O164 Zn143 2.024 . S
O164 C144 1.249 . S
C165 O161 1.251 . S
C165 O162 1.254 . S
H166 C139 0.949 . S
H167 C141 0.950 . S
H168 C148 0.949 . S
H169 C150 0.950 . S
C170 O186 1.251 . S
C170 O188 1.254 . S
N171 C172 1.333 . S
N171 C176 1.307 . S
N171 Zn177 2.020 . S
C172 N171 1.333 . S
C172 C173 1.379 . S
C172 H190 0.952 . S
C173 C172 1.379 . S
C173 C174 1.390 . S
C173 H200 0.949 . S
C174 C173 1.390 . S
C174 C175 1.357 . S
C175 C174 1.357 . S
C175 C176 1.370 . S
C175 H201 0.950 . S
C176 N171 1.307 . S
C176 C175 1.370 . S
C176 H194 0.948 . S
Zn177 N171 2.020 . S
Zn177 O186 2.039 . S
Zn177 O192 2.034 . S
Zn177 O196 2.025 . S
Zn177 O198 2.024 . S
C178 O197 1.246 . S
C178 O198 1.249 . S
N179 C180 1.307 . S
N179 C181 1.333 . S
N179 Zn185 2.020 . S
C180 N179 1.307 . S
C180 C184 1.370 . S
C180 H191 0.948 . S
C181 N179 1.333 . S
C181 C182 1.379 . S
C181 H189 0.952 . S
C182 C181 1.379 . S
C182 C183 1.390 . S
C182 H202 0.949 . S
C183 C182 1.390 . S
C183 C184 1.357 . S
C184 C180 1.370 . S
C184 C183 1.357 . S
C184 H203 0.950 . S
Zn185 N179 2.020 . S
Zn185 O188 2.025 . S
Zn185 O193 2.024 . S
Zn185 O195 2.039 . S
Zn185 O197 2.034 . S
O186 C170 1.251 . S
O186 Zn177 2.039 . S
C187 O192 1.246 . S
C187 O193 1.249 . S
O188 C170 1.254 . S
O188 Zn185 2.025 . S
H189 C181 0.952 . S
H190 C172 0.952 . S
H191 C180 0.948 . S
O192 Zn177 2.034 . S
O192 C187 1.246 . S
O193 Zn185 2.024 . S
O193 C187 1.249 . S
H194 C176 0.948 . S
O195 Zn185 2.039 . S
O195 C199 1.251 . S
O196 Zn177 2.025 . S
O196 C199 1.254 . S
O197 C178 1.246 . S
O197 Zn185 2.034 . S
O198 Zn177 2.024 . S
O198 C178 1.249 . S
C199 O195 1.251 . S
C199 O196 1.254 . S
H200 C173 0.949 . S
H201 C175 0.950 . S
H202 C182 0.949 . S
H203 C184 0.950 . S
C204 O220 1.251 . S
C204 O222 1.254 . S
N205 C206 1.333 . S
N205 C210 1.307 . S
N205 Zn211 2.020 . S
C206 N205 1.333 . S
C206 C207 1.379 . S
C206 H224 0.952 . S
C207 C206 1.379 . S
C207 C208 1.390 . S
C207 H234 0.949 . S
C208 C207 1.390 . S
C208 C209 1.357 . S
C209 C208 1.357 . S
C209 C210 1.370 . S
C209 H235 0.950 . S
C210 N205 1.307 . S
C210 C209 1.370 . S
C210 H228 0.948 . S
Zn211 N205 2.020 . S
Zn211 O220 2.039 . S
Zn211 O226 2.034 . S
Zn211 O230 2.025 . S
Zn211 O232 2.024 . S
C212 O231 1.246 . S
C212 O232 1.249 . S
N213 C214 1.307 . S
N213 C215 1.333 . S
N213 Zn219 2.020 . S
C214 N213 1.307 . S
C214 C218 1.370 . S
C214 H225 0.948 . S
C215 N213 1.333 . S
C215 C216 1.379 . S
C215 H223 0.952 . S
C216 C215 1.379 . S
C216 C217 1.390 . S
C216 H236 0.949 . S
C217 C216 1.390 . S
C217 C218 1.357 . S
C218 C214 1.370 . S
C218 C217 1.357 . S
C218 H237 0.950 . S
Zn219 N213 2.020 . S
Zn219 O222 2.025 . S
Zn219 O227 2.024 . S
Zn219 O229 2.039 . S
Zn219 O231 2.034 . S
O220 C204 1.251 . S
O220 Zn211 2.039 . S
C221 O226 1.246 . S
C221 O227 1.249 . S
O222 C204 1.254 . S
O222 Zn219 2.025 . S
H223 C215 0.952 . S
H224 C206 0.952 . S
H225 C214 0.948 . S
O226 Zn211 2.034 . S
O226 C221 1.246 . S
O227 Zn219 2.024 . S
O227 C221 1.249 . S
H228 C210 0.948 . S
O229 Zn219 2.039 . S
O229 C233 1.251 . S
O230 Zn211 2.025 . S
O230 C233 1.254 . S
O231 C212 1.246 . S
O231 Zn219 2.034 . S
O232 Zn211 2.024 . S
O232 C212 1.249 . S
C233 O229 1.251 . S
C233 O230 1.254 . S
H234 C207 0.949 . S
H235 C209 0.950 . S
H236 C216 0.949 . S
H237 C218 0.950 . S
C238 O254 1.251 . S
C238 O256 1.254 . S
N239 C240 1.333 . S
N239 C244 1.307 . S
N239 Zn245 2.020 . S
C240 N239 1.333 . S
C240 C241 1.379 . S
C240 H258 0.952 . S
C241 C240 1.379 . S
C241 C242 1.390 . S
C241 H268 0.949 . S
C242 C241 1.390 . S
C242 C243 1.357 . S
C243 C242 1.357 . S
C243 C244 1.370 . S
C243 H269 0.950 . S
C244 N239 1.307 . S
C244 C243 1.370 . S
C244 H262 0.948 . S
Zn245 N239 2.020 . S
Zn245 O254 2.039 . S
Zn245 O260 2.034 . S
Zn245 O264 2.025 . S
Zn245 O266 2.024 . S
C246 O265 1.246 . S
C246 O266 1.249 . S
N247 C248 1.307 . S
N247 C249 1.333 . S
N247 Zn253 2.020 . S
C248 N247 1.307 . S
C248 C252 1.370 . S
C248 H259 0.948 . S
C249 N247 1.333 . S
C249 C250 1.379 . S
C249 H257 0.952 . S
C250 C249 1.379 . S
C250 C251 1.390 . S
C250 H270 0.949 . S
C251 C250 1.390 . S
C251 C252 1.357 . S
C252 C248 1.370 . S
C252 C251 1.357 . S
C252 H271 0.950 . S
Zn253 N247 2.020 . S
Zn253 O256 2.025 . S
Zn253 O261 2.024 . S
Zn253 O263 2.039 . S
Zn253 O265 2.034 . S
O254 C238 1.251 . S
O254 Zn245 2.039 . S
C255 O260 1.246 . S
C255 O261 1.249 . S
O256 C238 1.254 . S
O256 Zn253 2.025 . S
H257 C249 0.952 . S
H258 C240 0.952 . S
H259 C248 0.948 . S
O260 Zn245 2.034 . S
O260 C255 1.246 . S
O261 Zn253 2.024 . S
O261 C255 1.249 . S
H262 C244 0.948 . S
O263 Zn253 2.039 . S
O263 C267 1.251 . S
O264 Zn245 2.025 . S
O264 C267 1.254 . S
O265 C246 1.246 . S
O265 Zn253 2.034 . S
O266 Zn245 2.024 . S
O266 C246 1.249 . S
C267 O263 1.251 . S
C267 O264 1.254 . S
H268 C241 0.949 . S
H269 C243 0.950 . S
H270 C250 0.949 . S
H271 C252 0.950 . S
C272 O288 1.251 . S
C272 O290 1.254 . S
N273 C274 1.333 . S
N273 C278 1.307 . S
N273 Zn279 2.020 . S
C274 N273 1.333 . S
C274 C275 1.379 . S
C274 H292 0.952 . S
C275 C274 1.379 . S
C275 C276 1.390 . S
C275 H302 0.949 . S
C276 C275 1.390 . S
C276 C277 1.357 . S
C277 C276 1.357 . S
C277 C278 1.370 . S
C277 H303 0.950 . S
C278 N273 1.307 . S
C278 C277 1.370 . S
C278 H296 0.948 . S
Zn279 N273 2.020 . S
Zn279 O288 2.039 . S
Zn279 O294 2.034 . S
Zn279 O298 2.025 . S
Zn279 O300 2.024 . S
C280 O299 1.246 . S
C280 O300 1.249 . S
N281 C282 1.307 . S
N281 C283 1.333 . S
N281 Zn287 2.020 . S
C282 N281 1.307 . S
C282 C286 1.370 . S
C282 H293 0.948 . S
C283 N281 1.333 . S
C283 C284 1.379 . S
C283 H291 0.952 . S
C284 C283 1.379 . S
C284 C285 1.390 . S
C284 H304 0.949 . S
C285 C284 1.390 . S
C285 C286 1.357 . S
C286 C282 1.370 . S
C286 C285 1.357 . S
C286 H305 0.950 . S
Zn287 N281 2.020 . S
Zn287 O290 2.025 . S
Zn287 O295 2.024 . S
Zn287 O297 2.039 . S
Zn287 O299 2.034 . S
O288 C272 1.251 . S
O288 Zn279 2.039 . S
C289 O294 1.246 . S
C289 O295 1.249 . S
O290 C272 1.254 . S
O290 Zn287 2.025 . S
H291 C283 0.952 . S
H292 C274 0.952 . S
H293 C282 0.948 . S
O294 Zn279 2.034 . S
O294 C289 1.246 . S
O295 Zn287 2.024 . S
O295 C289 1.249 . S
H296 C278 0.948 . S
O297 Zn287 2.039 . S
O297 C301 1.251 . S
O298 Zn279 2.025 . S
O298 C301 1.254 . S
O299 C280 1.246 . S
O299 Zn287 2.034 . S
O300 Zn279 2.024 . S
O300 C280 1.249 . S
C301 O297 1.251 . S
C301 O298 1.254 . S
H302 C275 0.949 . S
H303 C277 0.950 . S
H304 C284 0.949 . S
H305 C286 0.950 . S
C306 O322 1.251 . S
C306 O324 1.254 . S
N307 C308 1.333 . S
N307 C312 1.307 . S
N307 Zn313 2.020 . S
C308 N307 1.333 . S
C308 C309 1.379 . S
C308 H326 0.952 . S
C309 C308 1.379 . S
C309 C310 1.390 . S
C309 H336 0.949 . S
C310 C309 1.390 . S
C310 C311 1.357 . S
C311 C310 1.357 . S
C311 C312 1.370 . S
C311 H337 0.950 . S
C312 N307 1.307 . S
C312 C311 1.370 . S
C312 H330 0.948 . S
Zn313 N307 2.020 . S
Zn313 O322 2.039 . S
Zn313 O328 2.034 . S
Zn313 O332 2.025 . S
Zn313 O334 2.024 . S
C314 O333 1.246 . S
C314 O334 1.249 . S
N315 C316 1.307 . S
N315 C317 1.333 . S
N315 Zn321 2.020 . S
C316 N315 1.307 . S
C316 C320 1.370 . S
C316 H327 0.948 . S
C317 N315 1.333 . S
C317 C318 1.379 . S
C317 H325 0.952 . S
C318 C317 1.379 . S
C318 C319 1.390 . S
C318 H338 0.949 . S
C319 C318 1.390 . S
C319 C320 1.357 . S
C320 C316 1.370 . S
C320 C319 1.357 . S
C320 H339 0.950 . S
Zn321 N315 2.020 . S
Zn321 O324 2.025 . S
Zn321 O329 2.024 . S
Zn321 O331 2.039 . S
Zn321 O333 2.034 . S
O322 C306 1.251 . S
O322 Zn313 2.039 . S
C323 O328 1.246 . S
C323 O329 1.249 . S
O324 C306 1.254 . S
O324 Zn321 2.025 . S
H325 C317 0.952 . S
H326 C308 0.952 . S
H327 C316 0.948 . S
O328 Zn313 2.034 . S
O328 C323 1.246 . S
O329 Zn321 2.024 . S
O329 C323 1.249 . S
H330 C312 0.948 . S
O331 Zn321 2.039 . S
O331 C335 1.251 . S
O332 Zn313 2.025 . S
O332 C335 1.254 . S
O333 C314 1.246 . S
O333 Zn321 2.034 . S
O334 Zn313 2.024 . S
O334 C314 1.249 . S
C335 O331 1.251 . S
C335 O332 1.254 . S
H336 C309 0.949 . S
H337 C311 0.950 . S
H338 C318 0.949 . S
H339 C320 0.950 . S
C340 O356 1.251 . S
C340 O358 1.254 . S
N341 C342 1.333 . S
N341 C346 1.307 . S
N341 Zn347 2.020 . S
C342 N341 1.333 . S
C342 C343 1.379 . S
C342 H360 0.952 . S
C343 C342 1.379 . S
C343 C344 1.390 . S
C343 H370 0.949 . S
C344 C343 1.390 . S
C344 C345 1.357 . S
C345 C344 1.357 . S
C345 C346 1.370 . S
C345 H371 0.950 . S
C346 N341 1.307 . S
C346 C345 1.370 . S
C346 H364 0.948 . S
Zn347 N341 2.020 . S
Zn347 O356 2.039 . S
Zn347 O362 2.034 . S
Zn347 O366 2.025 . S
Zn347 O368 2.024 . S
C348 O367 1.246 . S
C348 O368 1.249 . S
N349 C350 1.307 . S
N349 C351 1.333 . S
N349 Zn355 2.020 . S
C350 N349 1.307 . S
C350 C354 1.370 . S
C350 H361 0.948 . S
C351 N349 1.333 . S
C351 C352 1.379 . S
C351 H359 0.952 . S
C352 C351 1.379 . S
C352 C353 1.390 . S
C352 H372 0.949 . S
C353 C352 1.390 . S
C353 C354 1.357 . S
C354 C350 1.370 . S
C354 C353 1.357 . S
C354 H373 0.950 . S
Zn355 N349 2.020 . S
Zn355 O358 2.025 . S
Zn355 O363 2.024 . S
Zn355 O365 2.039 . S
Zn355 O367 2.034 . S
O356 C340 1.251 . S
O356 Zn347 2.039 . S
C357 O362 1.246 . S
C357 O363 1.249 . S
O358 C340 1.254 . S
O358 Zn355 2.025 . S
H359 C351 0.952 . S
H360 C342 0.952 . S
H361 C350 0.948 . S
O362 Zn347 2.034 . S
O362 C357 1.246 . S
O363 Zn355 2.024 . S
O363 C357 1.249 . S
H364 C346 0.948 . S
O365 Zn355 2.039 . S
O365 C369 1.251 . S
O366 Zn347 2.025 . S
O366 C369 1.254 . S
O367 C348 1.246 . S
O367 Zn355 2.034 . S
O368 Zn347 2.024 . S
O368 C348 1.249 . S
C369 O365 1.251 . S
C369 O366 1.254 . S
H370 C343 0.949 . S
H371 C345 0.950 . S
H372 C352 0.949 . S
H373 C354 0.950 . S
C374 O390 1.251 . S
C374 O392 1.254 . S
N375 C376 1.333 . S
N375 C380 1.307 . S
N375 Zn381 2.020 . S
C376 N375 1.333 . S
C376 C377 1.379 . S
C376 H394 0.952 . S
C377 C376 1.379 . S
C377 C378 1.390 . S
C377 H404 0.949 . S
C378 C377 1.390 . S
C378 C379 1.357 . S
C379 C378 1.357 . S
C379 C380 1.370 . S
C379 H405 0.950 . S
C380 N375 1.307 . S
C380 C379 1.370 . S
C380 H398 0.948 . S
Zn381 N375 2.020 . S
Zn381 O390 2.039 . S
Zn381 O396 2.034 . S
Zn381 O400 2.025 . S
Zn381 O402 2.024 . S
C382 O401 1.246 . S
C382 O402 1.249 . S
N383 C384 1.307 . S
N383 C385 1.333 . S
N383 Zn389 2.020 . S
C384 N383 1.307 . S
C384 C388 1.370 . S
C384 H395 0.948 . S
C385 N383 1.333 . S
C385 C386 1.379 . S
C385 H393 0.952 . S
C386 C385 1.379 . S
C386 C387 1.390 . S
C386 H406 0.949 . S
C387 C386 1.390 . S
C387 C388 1.357 . S
C388 C384 1.370 . S
C388 C387 1.357 . S
C388 H407 0.950 . S
Zn389 N383 2.020 . S
Zn389 O392 2.025 . S
Zn389 O397 2.024 . S
Zn389 O399 2.039 . S
Zn389 O401 2.034 . S
O390 C374 1.251 . S
O390 Zn381 2.039 . S
C391 O396 1.246 . S
C391 O397 1.249 . S
O392 C374 1.254 . S
O392 Zn389 2.025 . S
H393 C385 0.952 . S
H394 C376 0.952 . S
H395 C384 0.948 . S
O396 Zn381 2.034 . S
O396 C391 1.246 . S
O397 Zn389 2.024 . S
O397 C391 1.249 . S
H398 C380 0.948 . S
O399 Zn389 2.039 . S
O399 C403 1.251 . S
O400 Zn381 2.025 . S
O400 C403 1.254 . S
O401 C382 1.246 . S
O401 Zn389 2.034 . S
O402 Zn381 2.024 . S
O402 C382 1.249 . S
C403 O399 1.251 . S
C403 O400 1.254 . S
H404 C377 0.949 . S
H405 C379 0.950 . S
H406 C386 0.949 . S
H407 C388 0.950 . S
C408 O424 1.251 . S
C408 O426 1.254 . S
N409 C410 1.333 . S
N409 C414 1.307 1_655 S
N409 Zn415 2.020 . S
C410 N409 1.333 . S
C410 C411 1.379 1_655 S
C410 H428 0.952 . S
C411 C410 1.379 1_455 S
C411 C412 1.390 . S
C411 H438 0.949 . S
C412 C411 1.390 . S
C412 C413 1.357 . S
C413 C412 1.357 . S
C413 C414 1.370 . S
C413 H439 0.950 . S
C414 N409 1.307 1_455 S
C414 C413 1.370 . S
C414 H432 0.948 . S
Zn415 N409 2.020 . S
Zn415 O424 2.039 . S
Zn415 O430 2.034 . S
Zn415 O434 2.025 . S
Zn415 O436 2.024 . S
C416 O435 1.246 . S
C416 O436 1.249 . S
N417 C418 1.307 . S
N417 C419 1.333 . S
N417 Zn423 2.020 . S
C418 N417 1.307 . S
C418 C422 1.370 . S
C418 H429 0.948 . S
C419 N417 1.333 . S
C419 C420 1.379 . S
C419 H427 0.952 . S
C420 C419 1.379 . S
C420 C421 1.390 . S
C420 H440 0.949 . S
C421 C420 1.390 . S
C421 C422 1.357 . S
C422 C418 1.370 . S
C422 C421 1.357 . S
C422 H441 0.950 . S
Zn423 N417 2.020 . S
Zn423 O426 2.025 . S
Zn423 O431 2.024 . S
Zn423 O433 2.039 . S
Zn423 O435 2.034 . S
O424 C408 1.251 . S
O424 Zn415 2.039 . S
C425 O430 1.246 . S
C425 O431 1.249 . S
O426 C408 1.254 . S
O426 Zn423 2.025 . S
H427 C419 0.952 . S
H428 C410 0.952 . S
H429 C418 0.948 . S
O430 Zn415 2.034 . S
O430 C425 1.246 . S
O431 Zn423 2.024 . S
O431 C425 1.249 . S
H432 C414 0.948 . S
O433 Zn423 2.039 . S
O433 C437 1.251 . S
O434 Zn415 2.025 . S
O434 C437 1.254 . S
O435 C416 1.246 . S
O435 Zn423 2.034 . S
O436 Zn415 2.024 . S
O436 C416 1.249 . S
C437 O433 1.251 . S
C437 O434 1.254 . S
H438 C411 0.949 . S
H439 C413 0.950 . S
H440 C420 0.949 . S
H441 C422 0.950 . S
C442 O458 1.251 . S
C442 O460 1.254 . S
N443 C444 1.333 . S
N443 C448 1.307 . S
N443 Zn449 2.020 . S
C444 N443 1.333 . S
C444 C445 1.379 . S
C444 H462 0.952 . S
C445 C444 1.379 . S
C445 C446 1.390 . S
C445 H472 0.949 . S
C446 C445 1.390 . S
C446 C447 1.357 . S
C447 C446 1.357 . S
C447 C448 1.370 . S
C447 H473 0.950 . S
C448 N443 1.307 . S
C448 C447 1.370 . S
C448 H466 0.948 . S
Zn449 N443 2.020 . S
Zn449 O458 2.039 . S
Zn449 O464 2.034 . S
Zn449 O468 2.025 . S
Zn449 O470 2.024 . S
C450 O469 1.246 . S
C450 O470 1.249 . S
N451 C452 1.307 . S
N451 C453 1.333 . S
N451 Zn457 2.020 . S
C452 N451 1.307 . S
C452 C456 1.370 . S
C452 H463 0.948 . S
C453 N451 1.333 . S
C453 C454 1.379 . S
C453 H461 0.952 . S
C454 C453 1.379 . S
C454 C455 1.390 . S
C454 H474 0.949 . S
C455 C454 1.390 . S
C455 C456 1.357 . S
C456 C452 1.370 . S
C456 C455 1.357 . S
C456 H475 0.950 . S
Zn457 N451 2.020 . S
Zn457 O460 2.025 . S
Zn457 O465 2.024 . S
Zn457 O467 2.039 . S
Zn457 O469 2.034 . S
O458 C442 1.251 . S
O458 Zn449 2.039 . S
C459 O464 1.246 . S
C459 O465 1.249 . S
O460 C442 1.254 . S
O460 Zn457 2.025 . S
H461 C453 0.952 . S
H462 C444 0.952 . S
H463 C452 0.948 . S
O464 Zn449 2.034 . S
O464 C459 1.246 . S
O465 Zn457 2.024 . S
O465 C459 1.249 . S
H466 C448 0.948 . S
O467 Zn457 2.039 . S
O467 C471 1.251 . S
O468 Zn449 2.025 . S
O468 C471 1.254 . S
O469 C450 1.246 . S
O469 Zn457 2.034 . S
O470 Zn449 2.024 . S
O470 C450 1.249 . S
C471 O467 1.251 . S
C471 O468 1.254 . S
H472 C445 0.949 . S
H473 C447 0.950 . S
H474 C454 0.949 . S
H475 C456 0.950 . S
C476 O492 1.251 . S
C476 O494 1.254 . S
N477 C478 1.333 . S
N477 C482 1.307 1_545 S
N477 Zn483 2.020 . S
C478 N477 1.333 . S
C478 C479 1.379 1_545 S
C478 H496 0.952 . S
C479 C478 1.379 1_565 S
C479 C480 1.390 . S
C479 H506 0.949 . S
C480 C479 1.390 . S
C480 C481 1.357 . S
C481 C480 1.357 . S
C481 C482 1.370 . S
C481 H507 0.950 . S
C482 N477 1.307 1_565 S
C482 C481 1.370 . S
C482 H500 0.948 . S
Zn483 N477 2.020 . S
Zn483 O492 2.039 . S
Zn483 O498 2.034 . S
Zn483 O502 2.025 . S
Zn483 O504 2.024 . S
C484 O503 1.246 . S
C484 O504 1.249 . S
N485 C486 1.307 . S
N485 C487 1.333 . S
N485 Zn491 2.020 . S
C486 N485 1.307 . S
C486 C490 1.370 . S
C486 H497 0.948 . S
C487 N485 1.333 . S
C487 C488 1.379 . S
C487 H495 0.952 . S
C488 C487 1.379 . S
C488 C489 1.390 . S
C488 H508 0.949 . S
C489 C488 1.390 . S
C489 C490 1.357 . S
C490 C486 1.370 . S
C490 C489 1.357 . S
C490 H509 0.950 . S
Zn491 N485 2.020 . S
Zn491 O494 2.025 . S
Zn491 O499 2.024 . S
Zn491 O501 2.039 . S
Zn491 O503 2.034 . S
O492 C476 1.251 . S
O492 Zn483 2.039 . S
C493 O498 1.246 . S
C493 O499 1.249 . S
O494 C476 1.254 . S
O494 Zn491 2.025 . S
H495 C487 0.952 . S
H496 C478 0.952 . S
H497 C486 0.948 . S
O498 Zn483 2.034 . S
O498 C493 1.246 . S
O499 Zn491 2.024 . S
O499 C493 1.249 . S
H500 C482 0.948 . S
O501 Zn491 2.039 . S
O501 C505 1.251 . S
O502 Zn483 2.025 . S
O502 C505 1.254 . S
O503 C484 1.246 . S
O503 Zn491 2.034 . S
O504 Zn483 2.024 . S
O504 C484 1.249 . S
C505 O501 1.251 . S
C505 O502 1.254 . S
H506 C479 0.949 . S
H507 C481 0.950 . S
H508 C488 0.949 . S
H509 C490 0.950 . S
C510 O526 1.251 . S
C510 O528 1.254 . S
N511 C512 1.333 . S
N511 C516 1.307 . S
N511 Zn517 2.020 . S
C512 N511 1.333 . S
C512 C513 1.379 . S
C512 H530 0.952 . S
C513 C512 1.379 . S
C513 C514 1.390 . S
C513 H540 0.949 . S
C514 C513 1.390 . S
C514 C515 1.357 . S
C515 C514 1.357 . S
C515 C516 1.370 . S
C515 H541 0.950 . S
C516 N511 1.307 . S
C516 C515 1.370 . S
C516 H534 0.948 . S
Zn517 N511 2.020 . S
Zn517 O526 2.039 . S
Zn517 O532 2.034 . S
Zn517 O536 2.025 . S
Zn517 O538 2.024 . S
C518 O537 1.246 . S
C518 O538 1.249 . S
N519 C520 1.307 1_545 S
N519 C521 1.333 . S
N519 Zn525 2.020 . S
C520 N519 1.307 1_565 S
C520 C524 1.370 . S
C520 H531 0.948 . S
C521 N519 1.333 . S
C521 C522 1.379 1_545 S
C521 H529 0.952 . S
C522 C521 1.379 1_565 S
C522 C523 1.390 . S
C522 H542 0.949 . S
C523 C522 1.390 . S
C523 C524 1.357 . S
C524 C520 1.370 . S
C524 C523 1.357 . S
C524 H543 0.950 . S
Zn525 N519 2.020 . S
Zn525 O528 2.025 . S
Zn525 O533 2.024 . S
Zn525 O535 2.039 . S
Zn525 O537 2.034 . S
O526 C510 1.251 . S
O526 Zn517 2.039 . S
C527 O532 1.246 . S
C527 O533 1.249 . S
O528 C510 1.254 . S
O528 Zn525 2.025 . S
H529 C521 0.952 . S
H530 C512 0.952 . S
H531 C520 0.948 . S
O532 Zn517 2.034 . S
O532 C527 1.246 . S
O533 Zn525 2.024 . S
O533 C527 1.249 . S
H534 C516 0.948 . S
O535 Zn525 2.039 . S
O535 C539 1.251 . S
O536 Zn517 2.025 . S
O536 C539 1.254 . S
O537 C518 1.246 . S
O537 Zn525 2.034 . S
O538 Zn517 2.024 . S
O538 C518 1.249 . S
C539 O535 1.251 . S
C539 O536 1.254 . S
H540 C513 0.949 . S
H541 C515 0.950 . S
H542 C522 0.949 . S
H543 C524 0.950 . S
C544 O560 1.251 . S
C544 O562 1.254 . S
N545 C546 1.333 . S
N545 C550 1.307 . S
N545 Zn551 2.020 . S
C546 N545 1.333 . S
C546 C547 1.379 . S
C546 H564 0.952 . S
C547 C546 1.379 . S
C547 C548 1.390 . S
C547 H574 0.949 . S
C548 C547 1.390 . S
C548 C549 1.357 . S
C549 C548 1.357 . S
C549 C550 1.370 . S
C549 H575 0.950 . S
C550 N545 1.307 . S
C550 C549 1.370 . S
C550 H568 0.948 . S
Zn551 N545 2.020 . S
Zn551 O560 2.039 . S
Zn551 O566 2.034 . S
Zn551 O570 2.025 . S
Zn551 O572 2.024 . S
C552 O571 1.246 . S
C552 O572 1.249 . S
N553 C554 1.307 1_655 S
N553 C555 1.333 . S
N553 Zn559 2.020 . S
C554 N553 1.307 1_455 S
C554 C558 1.370 . S
C554 H565 0.948 . S
C555 N553 1.333 . S
C555 C556 1.379 1_655 S
C555 H563 0.952 . S
C556 C555 1.379 1_455 S
C556 C557 1.390 . S
C556 H576 0.949 . S
C557 C556 1.390 . S
C557 C558 1.357 . S
C558 C554 1.370 . S
C558 C557 1.357 . S
C558 H577 0.950 . S
Zn559 N553 2.020 . S
Zn559 O562 2.025 . S
Zn559 O567 2.024 . S
Zn559 O569 2.039 . S
Zn559 O571 2.034 . S
O560 C544 1.251 . S
O560 Zn551 2.039 . S
C561 O566 1.246 . S
C561 O567 1.249 . S
O562 C544 1.254 . S
O562 Zn559 2.025 . S
H563 C555 0.952 . S
H564 C546 0.952 . S
H565 C554 0.948 . S
O566 Zn551 2.034 . S
O566 C561 1.246 . S
O567 Zn559 2.024 . S
O567 C561 1.249 . S
H568 C550 0.948 . S
O569 Zn559 2.039 . S
O569 C573 1.251 . S
O570 Zn551 2.025 . S
O570 C573 1.254 . S
O571 C552 1.246 . S
O571 Zn559 2.034 . S
O572 Zn551 2.024 . S
O572 C552 1.249 . S
C573 O569 1.251 . S
C573 O570 1.254 . S
H574 C547 0.949 . S
H575 C549 0.950 . S
H576 C556 0.949 . S
H577 C558 0.950 . S
C578 O594 1.251 . S
C578 O596 1.254 . S
N579 C580 1.333 . S
N579 C584 1.307 . S
N579 Zn585 2.020 . S
C580 N579 1.333 . S
C580 C581 1.379 . S
C580 H598 0.952 . S
C581 C580 1.379 . S
C581 C582 1.390 . S
C581 H608 0.949 . S
C582 C581 1.390 . S
C582 C583 1.357 . S
C583 C582 1.357 . S
C583 C584 1.370 . S
C583 H609 0.950 . S
C584 N579 1.307 . S
C584 C583 1.370 . S
C584 H602 0.948 . S
Zn585 N579 2.020 . S
Zn585 O594 2.039 . S
Zn585 O600 2.034 . S
Zn585 O604 2.025 . S
Zn585 O606 2.024 . S
C586 O605 1.246 . S
C586 O606 1.249 . S
N587 C588 1.307 . S
N587 C589 1.333 . S
N587 Zn593 2.020 . S
C588 N587 1.307 . S
C588 C592 1.370 . S
C588 H599 0.948 . S
C589 N587 1.333 . S
C589 C590 1.379 . S
C589 H597 0.952 . S
C590 C589 1.379 . S
C590 C591 1.390 . S
C590 H610 0.949 . S
C591 C590 1.390 . S
C591 C592 1.357 . S
C592 C588 1.370 . S
C592 C591 1.357 . S
C592 H611 0.950 . S
Zn593 N587 2.020 . S
Zn593 O596 2.025 . S
Zn593 O601 2.024 . S
Zn593 O603 2.039 . S
Zn593 O605 2.034 . S
O594 C578 1.251 . S
O594 Zn585 2.039 . S
C595 O600 1.246 . S
C595 O601 1.249 . S
O596 C578 1.254 . S
O596 Zn593 2.025 . S
H597 C589 0.952 . S
H598 C580 0.952 . S
H599 C588 0.948 . S
O600 Zn585 2.034 . S
O600 C595 1.246 . S
O601 Zn593 2.024 . S
O601 C595 1.249 . S
H602 C584 0.948 . S
O603 Zn593 2.039 . S
O603 C607 1.251 . S
O604 Zn585 2.025 . S
O604 C607 1.254 . S
O605 C586 1.246 . S
O605 Zn593 2.034 . S
O606 Zn585 2.024 . S
O606 C586 1.249 . S
C607 O603 1.251 . S
C607 O604 1.254 . S
H608 C581 0.949 . S
H609 C583 0.950 . S
H610 C590 0.949 . S
H611 C592 0.950 . S
H612 C618 0.930 . S
H613 C622 0.930 . S
H614 C627 0.929 . S
H615 C625 0.929 . S
H616 C620 0.929 . S
H617 C626 0.929 . S
C618 H612 0.930 . S
C618 C619 1.367 1_554 S
C618 C626 1.378 . S
C619 C618 1.367 1_556 S
C619 C627 1.433 . S
C620 H616 0.929 . S
C620 C622 1.378 . S
C620 C624 1.350 1_556 S
C621 C624 1.463 . S
C621 C626 1.350 . S
C621 N629 1.427 1_554 S
C622 H613 0.930 . S
C622 C620 1.378 . S
C622 C623 1.367 1_556 S
C623 C622 1.367 1_554 S
C623 C625 1.433 . S
C624 C620 1.350 1_554 S
C624 C621 1.463 . S
C624 N628 1.427 . S
C625 H615 0.929 . S
C625 C623 1.433 . S
C625 N628 1.384 . S
C626 H617 0.929 . S
C626 C618 1.378 . S
C626 C621 1.350 . S
C627 H614 0.929 . S
C627 C619 1.433 . S
C627 N629 1.384 . S
N628 C624 1.427 . S
N628 C625 1.384 . S
N629 C621 1.427 1_556 S
N629 C627 1.384 . S
H630 C636 0.930 . S
H631 C640 0.930 . S
H632 C645 0.929 . S
H633 C643 0.929 . S
H634 C638 0.929 . S
H635 C644 0.929 . S
C636 H630 0.930 . S
C636 C637 1.367 . S
C636 C644 1.378 . S
C637 C636 1.367 . S
C637 C645 1.433 1_554 S
C638 H634 0.929 . S
C638 C640 1.378 . S
C638 C642 1.350 1_556 S
C639 C642 1.463 . S
C639 C644 1.350 . S
C639 N647 1.427 1_554 S
C640 H631 0.930 . S
C640 C638 1.378 . S
C640 C641 1.367 . S
C641 C640 1.367 . S
C641 C643 1.433 1_556 S
C642 C638 1.350 1_554 S
C642 C639 1.463 . S
C642 N646 1.427 . S
C643 H633 0.929 . S
C643 C641 1.433 1_554 S
C643 N646 1.384 . S
C644 H635 0.929 . S
C644 C636 1.378 . S
C644 C639 1.350 . S
C645 H632 0.929 . S
C645 C637 1.433 1_556 S
C645 N647 1.384 . S
N646 C642 1.427 . S
N646 C643 1.384 . S
N647 C639 1.427 1_556 S
N647 C645 1.384 . S
H648 C654 0.930 . S
H649 C658 0.930 . S
H650 C663 0.929 . S
H651 C661 0.929 . S
H652 C656 0.929 . S
H653 C662 0.929 . S
C654 H648 0.930 . S
C654 C655 1.367 . S
C654 C662 1.378 . S
C655 C654 1.367 . S
C655 C663 1.433 1_556 S
C656 H652 0.929 . S
C656 C658 1.378 . S
C656 C660 1.350 . S
C657 C660 1.463 . S
C657 C662 1.350 1_554 S
C657 N665 1.427 . S
C658 H649 0.930 . S
C658 C656 1.378 . S
C658 C659 1.367 . S
C659 C658 1.367 . S
C659 C661 1.433 . S
C660 C656 1.350 . S
C660 C657 1.463 . S
C660 N664 1.427 . S
C661 H651 0.929 . S
C661 C659 1.433 . S
C661 N664 1.384 . S
C662 H653 0.929 . S
C662 C654 1.378 . S
C662 C657 1.350 1_556 S
C663 H650 0.929 . S
C663 C655 1.433 1_554 S
C663 N665 1.384 . S
N664 C660 1.427 . S
N664 C661 1.384 . S
N665 C657 1.427 . S
N665 C663 1.384 . S
H666 C672 0.930 . S
H667 C676 0.930 . S
H668 C681 0.929 . S
H669 C679 0.929 . S
H670 C674 0.929 . S
H671 C680 0.929 . S
C672 H666 0.930 . S
C672 C673 1.367 . S
C672 C680 1.378 . S
C673 C672 1.367 . S
C673 C681 1.433 . S
C674 H670 0.929 . S
C674 C676 1.378 . S
C674 C678 1.350 . S
C675 C678 1.463 . S
C675 C680 1.350 . S
C675 N683 1.427 . S
C676 H667 0.930 . S
C676 C674 1.378 . S
C676 C677 1.367 . S
C677 C676 1.367 . S
C677 C679 1.433 . S
C678 C674 1.350 . S
C678 C675 1.463 . S
C678 N682 1.427 . S
C679 H669 0.929 . S
C679 C677 1.433 . S
C679 N682 1.384 . S
C680 H671 0.929 . S
C680 C672 1.378 . S
C680 C675 1.350 . S
C681 H668 0.929 . S
C681 C673 1.433 . S
C681 N683 1.384 . S
N682 C678 1.427 . S
N682 C679 1.384 . S
N683 C675 1.427 . S
N683 C681 1.384 . S
H684 C690 0.930 . S
H685 C694 0.930 . S
H686 C699 0.929 . S
H687 C697 0.929 . S
H688 C692 0.929 . S
H689 C698 0.929 . S
C690 H684 0.930 . S
C690 C691 1.367 . S
C690 C698 1.378 . S
C691 C690 1.367 . S
C691 C699 1.433 . S
C692 H688 0.929 . S
C692 C694 1.378 . S
C692 C696 1.350 . S
C693 C696 1.463 . S
C693 C698 1.350 . S
C693 N701 1.427 . S
C694 H685 0.930 . S
C694 C692 1.378 . S
C694 C695 1.367 . S
C695 C694 1.367 . S
C695 C697 1.433 . S
C696 C692 1.350 . S
C696 C693 1.463 . S
C696 N700 1.427 . S
C697 H687 0.929 . S
C697 C695 1.433 . S
C697 N700 1.384 . S
C698 H689 0.929 . S
C698 C690 1.378 . S
C698 C693 1.350 . S
C699 H686 0.929 . S
C699 C691 1.433 . S
C699 N701 1.384 . S
N700 C696 1.427 . S
N700 C697 1.384 . S
N701 C693 1.427 . S
N701 C699 1.384 . S
H702 C708 0.930 . S
H703 C712 0.930 . S
H704 C717 0.929 . S
H705 C715 0.929 . S
H706 C710 0.929 . S
H707 C716 0.929 . S
C708 H702 0.930 . S
C708 C709 1.367 . S
C708 C716 1.378 . S
C709 C708 1.367 . S
C709 C717 1.433 . S
C710 H706 0.929 . S
C710 C712 1.378 . S
C710 C714 1.350 . S
C711 C714 1.463 . S
C711 C716 1.350 . S
C711 N719 1.427 . S
C712 H703 0.930 . S
C712 C710 1.378 . S
C712 C713 1.367 . S
C713 C712 1.367 . S
C713 C715 1.433 . S
C714 C710 1.350 . S
C714 C711 1.463 . S
C714 N718 1.427 . S
C715 H705 0.929 . S
C715 C713 1.433 . S
C715 N718 1.384 . S
C716 H707 0.929 . S
C716 C708 1.378 . S
C716 C711 1.350 . S
C717 H704 0.929 . S
C717 C709 1.433 . S
C717 N719 1.384 . S
N718 C714 1.427 . S
N718 C715 1.384 . S
N719 C711 1.427 . S
N719 C717 1.384 . S
H720 C726 0.930 . S
H721 C730 0.930 . S
H722 C735 0.929 . S
H723 C733 0.929 . S
H724 C728 0.929 . S
H725 C734 0.929 . S
C726 H720 0.930 . S
C726 C727 1.367 . S
C726 C734 1.378 . S
C727 C726 1.367 . S
C727 C735 1.433 . S
C728 H724 0.929 . S
C728 C730 1.378 . S
C728 C732 1.350 . S
C729 C732 1.463 . S
C729 C734 1.350 . S
C729 N737 1.427 . S
C730 H721 0.930 . S
C730 C728 1.378 . S
C730 C731 1.367 . S
C731 C730 1.367 . S
C731 C733 1.433 . S
C732 C728 1.350 . S
C732 C729 1.463 . S
C732 N736 1.427 . S
C733 H723 0.929 . S
C733 C731 1.433 . S
C733 N736 1.384 . S
C734 H725 0.929 . S
C734 C726 1.378 . S
C734 C729 1.350 . S
C735 H722 0.929 . S
C735 C727 1.433 . S
C735 N737 1.384 . S
N736 C732 1.427 . S
N736 C733 1.384 . S
N737 C729 1.427 . S
N737 C735 1.384 . S
H738 C744 0.930 . S
H739 C748 0.930 . S
H740 C753 0.929 . S
H741 C751 0.929 . S
H742 C746 0.929 . S
H743 C752 0.929 . S
C744 H738 0.930 . S
C744 C745 1.367 . S
C744 C752 1.378 . S
C745 C744 1.367 . S
C745 C753 1.433 . S
C746 H742 0.929 . S
C746 C748 1.378 . S
C746 C750 1.350 . S
C747 C750 1.463 . S
C747 C752 1.350 . S
C747 N755 1.427 . S
C748 H739 0.930 . S
C748 C746 1.378 . S
C748 C749 1.367 . S
C749 C748 1.367 . S
C749 C751 1.433 . S
C750 C746 1.350 . S
C750 C747 1.463 . S
C750 N754 1.427 . S
C751 H741 0.929 . S
C751 C749 1.433 . S
C751 N754 1.384 . S
C752 H743 0.929 . S
C752 C744 1.378 . S
C752 C747 1.350 . S
C753 H740 0.929 . S
C753 C745 1.433 . S
C753 N755 1.384 . S
N754 C750 1.427 . S
N754 C751 1.384 . S
N755 C747 1.427 . S
N755 C753 1.384 . S
H756 C762 0.930 . S
H757 C766 0.930 . S
H758 C771 0.929 . S
H759 C769 0.929 . S
H760 C764 0.929 . S
H761 C770 0.929 . S
C762 H756 0.930 . S
C762 C763 1.367 . S
C762 C770 1.378 . S
C763 C762 1.367 . S
C763 C771 1.433 . S
C764 H760 0.929 . S
C764 C766 1.378 . S
C764 C768 1.350 . S
C765 C768 1.463 . S
C765 C770 1.350 . S
C765 N773 1.427 . S
C766 H757 0.930 . S
C766 C764 1.378 . S
C766 C767 1.367 . S
C767 C766 1.367 . S
C767 C769 1.433 . S
C768 C764 1.350 . S
C768 C765 1.463 . S
C768 N772 1.427 . S
C769 H759 0.929 . S
C769 C767 1.433 . S
C769 N772 1.384 . S
C770 H761 0.929 . S
C770 C762 1.378 . S
C770 C765 1.350 . S
C771 H758 0.929 . S
C771 C763 1.433 . S
C771 N773 1.384 . S
N772 C768 1.427 . S
N772 C769 1.384 . S
N773 C765 1.427 . S
N773 C771 1.384 . S
H774 C780 0.930 . S
H775 C784 0.930 . S
H776 C789 0.929 . S
H777 C787 0.929 . S
H778 C782 0.929 . S
H779 C788 0.929 . S
C780 H774 0.930 . S
C780 C781 1.367 . S
C780 C788 1.378 . S
C781 C780 1.367 . S
C781 C789 1.433 . S
C782 H778 0.929 . S
C782 C784 1.378 . S
C782 C786 1.350 . S
C783 C786 1.463 . S
C783 C788 1.350 . S
C783 N791 1.427 . S
C784 H775 0.930 . S
C784 C782 1.378 . S
C784 C785 1.367 . S
C785 C784 1.367 . S
C785 C787 1.433 . S
C786 C782 1.350 . S
C786 C783 1.463 . S
C786 N790 1.427 . S
C787 H777 0.929 . S
C787 C785 1.433 . S
C787 N790 1.384 . S
C788 H779 0.929 . S
C788 C780 1.378 . S
C788 C783 1.350 . S
C789 H776 0.929 . S
C789 C781 1.433 . S
C789 N791 1.384 . S
N790 C786 1.427 . S
N790 C787 1.384 . S
N791 C783 1.427 . S
N791 C789 1.384 . S
H792 C798 0.930 . S
H793 C802 0.930 . S
H794 C807 0.929 . S
H795 C805 0.929 . S
H796 C800 0.929 . S
H797 C806 0.929 . S
C798 H792 0.930 . S
C798 C799 1.367 . S
C798 C806 1.378 . S
C799 C798 1.367 . S
C799 C807 1.433 . S
C800 H796 0.929 . S
C800 C802 1.378 . S
C800 C804 1.350 . S
C801 C804 1.463 . S
C801 C806 1.350 . S
C801 N809 1.427 . S
C802 H793 0.930 . S
C802 C800 1.378 . S
C802 C803 1.367 . S
C803 C802 1.367 . S
C803 C805 1.433 . S
C804 C800 1.350 . S
C804 C801 1.463 . S
C804 N808 1.427 . S
C805 H795 0.929 . S
C805 C803 1.433 . S
C805 N808 1.384 . S
C806 H797 0.929 . S
C806 C798 1.378 . S
C806 C801 1.350 . S
C807 H794 0.929 . S
C807 C799 1.433 . S
C807 N809 1.384 . S
N808 C804 1.427 . S
N808 C805 1.384 . S
N809 C801 1.427 . S
N809 C807 1.384 . S
H810 C816 0.930 . S
H811 C820 0.930 . S
H812 C825 0.929 . S
H813 C823 0.929 . S
H814 C818 0.929 . S
H815 C824 0.929 . S
C816 H810 0.930 . S
C816 C817 1.367 . S
C816 C824 1.378 . S
C817 C816 1.367 . S
C817 C825 1.433 . S
C818 H814 0.929 . S
C818 C820 1.378 . S
C818 C822 1.350 . S
C819 C822 1.463 . S
C819 C824 1.350 . S
C819 N827 1.427 . S
C820 H811 0.930 . S
C820 C818 1.378 . S
C820 C821 1.367 . S
C821 C820 1.367 . S
C821 C823 1.433 . S
C822 C818 1.350 . S
C822 C819 1.463 . S
C822 N826 1.427 . S
C823 H813 0.929 . S
C823 C821 1.433 . S
C823 N826 1.384 . S
C824 H815 0.929 . S
C824 C816 1.378 . S
C824 C819 1.350 . S
C825 H812 0.929 . S
C825 C817 1.433 . S
C825 N827 1.384 . S
N826 C822 1.427 . S
N826 C823 1.384 . S
N827 C819 1.427 . S
N827 C825 1.384 . S
H828 C834 0.930 . S
H829 C838 0.930 . S
H830 C843 0.929 . S
H831 C841 0.929 . S
H832 C836 0.929 . S
H833 C842 0.929 . S
C834 H828 0.930 . S
C834 C835 1.367 . S
C834 C842 1.378 . S
C835 C834 1.367 . S
C835 C843 1.433 . S
C836 H832 0.929 . S
C836 C838 1.378 . S
C836 C840 1.350 . S
C837 C840 1.463 . S
C837 C842 1.350 . S
C837 N845 1.427 . S
C838 H829 0.930 . S
C838 C836 1.378 . S
C838 C839 1.367 . S
C839 C838 1.367 . S
C839 C841 1.433 . S
C840 C836 1.350 . S
C840 C837 1.463 . S
C840 N844 1.427 . S
C841 H831 0.929 . S
C841 C839 1.433 . S
C841 N844 1.384 . S
C842 H833 0.929 . S
C842 C834 1.378 . S
C842 C837 1.350 . S
C843 H830 0.929 . S
C843 C835 1.433 . S
C843 N845 1.384 . S
N844 C840 1.427 . S
N844 C841 1.384 . S
N845 C837 1.427 . S
N845 C843 1.384 . S
H846 C852 0.930 . S
H847 C856 0.930 . S
H848 C861 0.929 . S
H849 C859 0.929 . S
H850 C854 0.929 . S
H851 C860 0.929 . S
C852 H846 0.930 . S
C852 C853 1.367 . S
C852 C860 1.378 . S
C853 C852 1.367 . S
C853 C861 1.433 . S
C854 H850 0.929 . S
C854 C856 1.378 . S
C854 C858 1.350 . S
C855 C858 1.463 1_545 S
C855 C860 1.350 . S
C855 N863 1.427 . S
C856 H847 0.930 . S
C856 C854 1.378 . S
C856 C857 1.367 . S
C857 C856 1.367 . S
C857 C859 1.433 . S
C858 C854 1.350 . S
C858 C855 1.463 1_565 S
C858 N862 1.427 . S
C859 H849 0.929 . S
C859 C857 1.433 . S
C859 N862 1.384 . S
C860 H851 0.929 . S
C860 C852 1.378 . S
C860 C855 1.350 . S
C861 H848 0.929 . S
C861 C853 1.433 . S
C861 N863 1.384 . S
N862 C858 1.427 . S
N862 C859 1.384 . S
N863 C855 1.427 . S
N863 C861 1.384 . S
H864 C870 0.930 . S
H865 C874 0.930 . S
H866 C879 0.929 . S
H867 C877 0.929 . S
H868 C872 0.929 . S
H869 C878 0.929 . S
C870 H864 0.930 . S
C870 C871 1.367 . S
C870 C878 1.378 . S
C871 C870 1.367 . S
C871 C879 1.433 . S
C872 H868 0.929 . S
C872 C874 1.378 . S
C872 C876 1.350 . S
C873 C876 1.463 1_655 S
C873 C878 1.350 . S
C873 N881 1.427 . S
C874 H865 0.930 . S
C874 C872 1.378 . S
C874 C875 1.367 . S
C875 C874 1.367 . S
C875 C877 1.433 . S
C876 C872 1.350 . S
C876 C873 1.463 1_455 S
C876 N880 1.427 . S
C877 H867 0.929 . S
C877 C875 1.433 . S
C877 N880 1.384 . S
C878 H869 0.929 . S
C878 C870 1.378 . S
C878 C873 1.350 . S
C879 H866 0.929 . S
C879 C871 1.433 . S
C879 N881 1.384 . S
N880 C876 1.427 . S
N880 C877 1.384 . S
N881 C873 1.427 . S
N881 C879 1.384 . S
H882 C888 0.930 . S
H883 C892 0.930 . S
H884 C897 0.929 . S
H885 C895 0.929 . S
H886 C890 0.929 . S
H887 C896 0.929 . S
C888 H882 0.930 . S
C888 C889 1.367 . S
C888 C896 1.378 . S
C889 C888 1.367 . S
C889 C897 1.433 . S
C890 H886 0.929 . S
C890 C892 1.378 . S
C890 C894 1.350 . S
C891 C894 1.463 . S
C891 C896 1.350 . S
C891 N899 1.427 . S
C892 H883 0.930 . S
C892 C890 1.378 . S
C892 C893 1.367 . S
C893 C892 1.367 . S
C893 C895 1.433 . S
C894 C890 1.350 . S
C894 C891 1.463 . S
C894 N898 1.427 . S
C895 H885 0.929 . S
C895 C893 1.433 . S
C895 N898 1.384 . S
C896 H887 0.929 . S
C896 C888 1.378 . S
C896 C891 1.350 . S
C897 H884 0.929 . S
C897 C889 1.433 . S
C897 N899 1.384 . S
N898 C894 1.427 . S
N898 C895 1.384 . S
N899 C891 1.427 . S
N899 C897 1.384 . S
H900 C906 0.930 . S
H901 C910 0.930 . S
H902 C915 0.929 . S
H903 C913 0.929 . S
H904 C908 0.929 . S
H905 C914 0.929 . S
C906 H900 0.930 . S
C906 C907 1.367 . S
C906 C914 1.378 . S
C907 C906 1.367 . S
C907 C915 1.433 . S
C908 H904 0.929 . S
C908 C910 1.378 . S
C908 C912 1.350 . S
C909 C912 1.463 1_565 S
C909 C914 1.350 . S
C909 N917 1.427 . S
C910 H901 0.930 . S
C910 C908 1.378 . S
C910 C911 1.367 . S
C911 C910 1.367 . S
C911 C913 1.433 . S
C912 C908 1.350 . S
C912 C909 1.463 1_545 S
C912 N916 1.427 . S
C913 H903 0.929 . S
C913 C911 1.433 . S
C913 N916 1.384 . S
C914 H905 0.929 . S
C914 C906 1.378 . S
C914 C909 1.350 . S
C915 H902 0.929 . S
C915 C907 1.433 . S
C915 N917 1.384 . S
N916 C912 1.427 . S
N916 C913 1.384 . S
N917 C909 1.427 . S
N917 C915 1.384 . S
H918 C924 0.930 . S
H919 C928 0.930 . S
H920 C933 0.929 . S
H921 C931 0.929 . S
H922 C926 0.929 . S
H923 C932 0.929 . S
C924 H918 0.930 . S
C924 C925 1.367 . S
C924 C932 1.378 . S
C925 C924 1.367 . S
C925 C933 1.433 . S
C926 H922 0.929 . S
C926 C928 1.378 . S
C926 C930 1.350 . S
C927 C930 1.463 1_455 S
C927 C932 1.350 . S
C927 N935 1.427 . S
C928 H919 0.930 . S
C928 C926 1.378 . S
C928 C929 1.367 . S
C929 C928 1.367 . S
C929 C931 1.433 . S
C930 C926 1.350 . S
C930 C927 1.463 1_655 S
C930 N934 1.427 . S
C931 H921 0.929 . S
C931 C929 1.433 . S
C931 N934 1.384 . S
C932 H923 0.929 . S
C932 C924 1.378 . S
C932 C927 1.350 . S
C933 H920 0.929 . S
C933 C925 1.433 . S
C933 N935 1.384 . S
N934 C930 1.427 . S
N934 C931 1.384 . S
N935 C927 1.427 . S
N935 C933 1.384 . S
H936 C942 0.930 . S
H937 C946 0.930 . S
H938 C951 0.929 . S
H939 C949 0.929 . S
H940 C944 0.929 . S
H941 C950 0.929 . S
C942 H936 0.930 . S
C942 C943 1.367 . S
C942 C950 1.378 . S
C943 C942 1.367 . S
C943 C951 1.433 . S
C944 H940 0.929 . S
C944 C946 1.378 . S
C944 C948 1.350 . S
C945 C948 1.463 . S
C945 C950 1.350 . S
C945 N953 1.427 . S
C946 H937 0.930 . S
C946 C944 1.378 . S
C946 C947 1.367 . S
C947 C946 1.367 . S
C947 C949 1.433 . S
C948 C944 1.350 . S
C948 C945 1.463 . S
C948 N952 1.427 . S
C949 H939 0.929 . S
C949 C947 1.433 . S
C949 N952 1.384 . S
C950 H941 0.929 . S
C950 C942 1.378 . S
C950 C945 1.350 . S
C951 H938 0.929 . S
C951 C943 1.433 . S
C951 N953 1.384 . S
N952 C948 1.427 . S
N952 C949 1.384 . S
N953 C945 1.427 . S
N953 C951 1.384 . S
H954 C960 0.930 . S
H955 C964 0.930 . S
H956 C969 0.929 . S
H957 C967 0.929 . S
H958 C962 0.929 . S
H959 C968 0.929 . S
C960 H954 0.930 . S
C960 C961 1.367 . S
C960 C968 1.378 . S
C961 C960 1.367 . S
C961 C969 1.433 . S
C962 H958 0.929 . S
C962 C964 1.378 . S
C962 C966 1.350 . S
C963 C966 1.463 . S
C963 C968 1.350 . S
C963 N971 1.427 . S
C964 H955 0.930 . S
C964 C962 1.378 . S
C964 C965 1.367 . S
C965 C964 1.367 . S
C965 C967 1.433 . S
C966 C962 1.350 . S
C966 C963 1.463 . S
C966 N970 1.427 . S
C967 H957 0.929 . S
C967 C965 1.433 . S
C967 N970 1.384 . S
C968 H959 0.929 . S
C968 C960 1.378 . S
C968 C963 1.350 . S
C969 H956 0.929 . S
C969 C961 1.433 . S
C969 N971 1.384 . S
N970 C966 1.427 . S
N970 C967 1.384 . S
N971 C963 1.427 . S
N971 C969 1.384 . S
H972 C978 0.930 . S
H973 C982 0.930 . S
H974 C987 0.929 . S
H975 C985 0.929 . S
H976 C980 0.929 . S
H977 C986 0.929 . S
C978 H972 0.930 . S
C978 C979 1.367 . S
C978 C986 1.378 . S
C979 C978 1.367 . S
C979 C987 1.433 . S
C980 H976 0.929 . S
C980 C982 1.378 . S
C980 C984 1.350 . S
C981 C984 1.463 . S
C981 C986 1.350 . S
C981 N989 1.427 . S
C982 H973 0.930 . S
C982 C980 1.378 . S
C982 C983 1.367 . S
C983 C982 1.367 . S
C983 C985 1.433 . S
C984 C980 1.350 . S
C984 C981 1.463 . S
C984 N988 1.427 . S
C985 H975 0.929 . S
C985 C983 1.433 . S
C985 N988 1.384 . S
C986 H977 0.929 . S
C986 C978 1.378 . S
C986 C981 1.350 . S
C987 H974 0.929 . S
C987 C979 1.433 . S
C987 N989 1.384 . S
N988 C984 1.427 . S
N988 C985 1.384 . S
N989 C981 1.427 . S
N989 C987 1.384 . S
H990 C996 0.930 . S
H991 C1000 0.930 . S
H992 C1005 0.929 . S
H993 C1003 0.929 . S
H994 C998 0.929 . S
H995 C1004 0.929 . S
C996 H990 0.930 . S
C996 C997 1.367 . S
C996 C1004 1.378 . S
C997 C996 1.367 . S
C997 C1005 1.433 . S
C998 H994 0.929 . S
C998 C1000 1.378 . S
C998 C1002 1.350 . S
C999 C1002 1.463 . S
C999 C1004 1.350 . S
C999 N1007 1.427 . S
C1000 H991 0.930 . S
C1000 C998 1.378 . S
C1000 C1001 1.367 . S
C1001 C1000 1.367 . S
C1001 C1003 1.433 . S
C1002 C998 1.350 . S
C1002 C999 1.463 . S
C1002 N1006 1.427 . S
C1003 H993 0.929 . S
C1003 C1001 1.433 . S
C1003 N1006 1.384 . S
C1004 H995 0.929 . S
C1004 C996 1.378 . S
C1004 C999 1.350 . S
C1005 H992 0.929 . S
C1005 C997 1.433 . S
C1005 N1007 1.384 . S
N1006 C1002 1.427 . S
N1006 C1003 1.384 . S
N1007 C999 1.427 . S
N1007 C1005 1.384 . S
H1008 C1014 0.930 . S
H1009 C1018 0.930 . S
H1010 C1023 0.929 . S
H1011 C1021 0.929 . S
H1012 C1016 0.929 . S
H1013 C1022 0.929 . S
C1014 H1008 0.930 . S
C1014 C1015 1.367 . S
C1014 C1022 1.378 . S
C1015 C1014 1.367 . S
C1015 C1023 1.433 . S
C1016 H1012 0.929 . S
C1016 C1018 1.378 . S
C1016 C1020 1.350 . S
C1017 C1020 1.463 . S
C1017 C1022 1.350 . S
C1017 N1025 1.427 . S
C1018 H1009 0.930 . S
C1018 C1016 1.378 . S
C1018 C1019 1.367 . S
C1019 C1018 1.367 . S
C1019 C1021 1.433 . S
C1020 C1016 1.350 . S
C1020 C1017 1.463 . S
C1020 N1024 1.427 . S
C1021 H1011 0.929 . S
C1021 C1019 1.433 . S
C1021 N1024 1.384 . S
C1022 H1013 0.929 . S
C1022 C1014 1.378 . S
C1022 C1017 1.350 . S
C1023 H1010 0.929 . S
C1023 C1015 1.433 . S
C1023 N1025 1.384 . S
N1024 C1020 1.427 . S
N1024 C1021 1.384 . S
N1025 C1017 1.427 . S
N1025 C1023 1.384 . S
H1026 C1032 0.930 . S
H1027 C1036 0.930 . S
H1028 C1041 0.929 . S
H1029 C1039 0.929 . S
H1030 C1034 0.929 . S
H1031 C1040 0.929 . S
C1032 H1026 0.930 . S
C1032 C1033 1.367 . S
C1032 C1040 1.378 . S
C1033 C1032 1.367 . S
C1033 C1041 1.433 . S
C1034 H1030 0.929 . S
C1034 C1036 1.378 . S
C1034 C1038 1.350 . S
C1035 C1038 1.463 . S
C1035 C1040 1.350 . S
C1035 N1043 1.427 . S
C1036 H1027 0.930 . S
C1036 C1034 1.378 . S
C1036 C1037 1.367 . S
C1037 C1036 1.367 . S
C1037 C1039 1.433 . S
C1038 C1034 1.350 . S
C1038 C1035 1.463 . S
C1038 N1042 1.427 . S
C1039 H1029 0.929 . S
C1039 C1037 1.433 . S
C1039 N1042 1.384 . S
C1040 H1031 0.929 . S
C1040 C1032 1.378 . S
C1040 C1035 1.350 . S
C1041 H1028 0.929 . S
C1041 C1033 1.433 . S
C1041 N1043 1.384 . S
N1042 C1038 1.427 . S
N1042 C1039 1.384 . S
N1043 C1035 1.427 . S
N1043 C1041 1.384 . S
H1044 C1050 0.930 . S
H1045 C1054 0.930 . S
H1046 C1059 0.929 . S
H1047 C1057 0.929 . S
H1048 C1052 0.929 . S
H1049 C1058 0.929 . S
C1050 H1044 0.930 . S
C1050 C1051 1.367 . S
C1050 C1058 1.378 . S
C1051 C1050 1.367 . S
C1051 C1059 1.433 . S
C1052 H1048 0.929 . S
C1052 C1054 1.378 . S
C1052 C1056 1.350 . S
C1053 C1056 1.463 . S
C1053 C1058 1.350 . S
C1053 N1061 1.427 . S
C1054 H1045 0.930 . S
C1054 C1052 1.378 . S
C1054 C1055 1.367 . S
C1055 C1054 1.367 . S
C1055 C1057 1.433 . S
C1056 C1052 1.350 . S
C1056 C1053 1.463 . S
C1056 N1060 1.427 . S
C1057 H1047 0.929 . S
C1057 C1055 1.433 . S
C1057 N1060 1.384 . S
C1058 H1049 0.929 . S
C1058 C1050 1.378 . S
C1058 C1053 1.350 . S
C1059 H1046 0.929 . S
C1059 C1051 1.433 . S
C1059 N1061 1.384 . S
N1060 C1056 1.427 . S
N1060 C1057 1.384 . S
N1061 C1053 1.427 . S
N1061 C1059 1.384 . S
H1062 C1068 0.930 . S
H1063 C1072 0.930 . S
H1064 C1077 0.929 . S
H1065 C1075 0.929 . S
H1066 C1070 0.929 . S
H1067 C1076 0.929 . S
C1068 H1062 0.930 . S
C1068 C1069 1.367 . S
C1068 C1076 1.378 . S
C1069 C1068 1.367 . S
C1069 C1077 1.433 . S
C1070 H1066 0.929 . S
C1070 C1072 1.378 . S
C1070 C1074 1.350 . S
C1071 C1074 1.463 . S
C1071 C1076 1.350 . S
C1071 N1079 1.427 . S
C1072 H1063 0.930 . S
C1072 C1070 1.378 . S
C1072 C1073 1.367 . S
C1073 C1072 1.367 . S
C1073 C1075 1.433 . S
C1074 C1070 1.350 . S
C1074 C1071 1.463 . S
C1074 N1078 1.427 . S
C1075 H1065 0.929 . S
C1075 C1073 1.433 . S
C1075 N1078 1.384 . S
C1076 H1067 0.929 . S
C1076 C1068 1.378 . S
C1076 C1071 1.350 . S
C1077 H1064 0.929 . S
C1077 C1069 1.433 . S
C1077 N1079 1.384 . S
N1078 C1074 1.427 . S
N1078 C1075 1.384 . S
N1079 C1071 1.427 . S
N1079 C1077 1.384 . S
H1080 C1086 0.930 . S
H1081 C1090 0.930 . S
H1082 C1095 0.929 . S
H1083 C1093 0.929 . S
H1084 C1088 0.929 . S
H1085 C1094 0.929 . S
C1086 H1080 0.930 . S
C1086 C1087 1.367 . S
C1086 C1094 1.378 . S
C1087 C1086 1.367 . S
C1087 C1095 1.433 . S
C1088 H1084 0.929 . S
C1088 C1090 1.378 . S
C1088 C1092 1.350 . S
C1089 C1092 1.463 . S
C1089 C1094 1.350 . S
C1089 N1097 1.427 . S
C1090 H1081 0.930 . S
C1090 C1088 1.378 . S
C1090 C1091 1.367 . S
C1091 C1090 1.367 . S
C1091 C1093 1.433 . S
C1092 C1088 1.350 . S
C1092 C1089 1.463 . S
C1092 N1096 1.427 . S
C1093 H1083 0.929 . S
C1093 C1091 1.433 . S
C1093 N1096 1.384 . S
C1094 H1085 0.929 . S
C1094 C1086 1.378 . S
C1094 C1089 1.350 . S
C1095 H1082 0.929 . S
C1095 C1087 1.433 . S
C1095 N1097 1.384 . S
N1096 C1092 1.427 . S
N1096 C1093 1.384 . S
N1097 C1089 1.427 . S
N1097 C1095 1.384 . S
H1098 C1104 0.930 . S
H1099 C1108 0.930 . S
H1100 C1113 0.929 . S
H1101 C1111 0.929 . S
H1102 C1106 0.929 . S
H1103 C1112 0.929 . S
C1104 H1098 0.930 . S
C1104 C1105 1.367 1_554 S
C1104 C1112 1.378 . S
C1105 C1104 1.367 1_556 S
C1105 C1113 1.433 . S
C1106 H1102 0.929 . S
C1106 C1108 1.378 . S
C1106 C1110 1.350 . S
C1107 C1110 1.463 . S
C1107 C1112 1.350 . S
C1107 N1115 1.427 . S
C1108 H1099 0.930 . S
C1108 C1106 1.378 . S
C1108 C1109 1.367 . S
C1109 C1108 1.367 . S
C1109 C1111 1.433 . S
C1110 C1106 1.350 . S
C1110 C1107 1.463 . S
C1110 N1114 1.427 . S
C1111 H1101 0.929 . S
C1111 C1109 1.433 . S
C1111 N1114 1.384 . S
C1112 H1103 0.929 . S
C1112 C1104 1.378 . S
C1112 C1107 1.350 . S
C1113 H1100 0.929 . S
C1113 C1105 1.433 . S
C1113 N1115 1.384 1_556 S
N1114 C1110 1.427 . S
N1114 C1111 1.384 . S
N1115 C1107 1.427 . S
N1115 C1113 1.384 1_554 S
H1116 C1122 0.930 1_556 S
H1117 C1126 0.930 . S
H1118 C1131 0.929 . S
H1119 C1129 0.929 . S
H1120 C1124 0.929 . S
H1121 C1130 0.929 . S
C1122 H1116 0.930 1_554 S
C1122 C1123 1.367 1_554 S
C1122 C1130 1.378 . S
C1123 C1122 1.367 1_556 S
C1123 C1131 1.433 . S
C1124 H1120 0.929 . S
C1124 C1126 1.378 . S
C1124 C1128 1.350 . S
C1125 C1128 1.463 . S
C1125 C1130 1.350 . S
C1125 N1133 1.427 . S
C1126 H1117 0.930 . S
C1126 C1124 1.378 . S
C1126 C1127 1.367 . S
C1127 C1126 1.367 . S
C1127 C1129 1.433 . S
C1128 C1124 1.350 . S
C1128 C1125 1.463 . S
C1128 N1132 1.427 . S
C1129 H1119 0.929 . S
C1129 C1127 1.433 . S
C1129 N1132 1.384 . S
C1130 H1121 0.929 . S
C1130 C1122 1.378 . S
C1130 C1125 1.350 . S
C1131 H1118 0.929 . S
C1131 C1123 1.433 . S
C1131 N1133 1.384 1_556 S
N1132 C1128 1.427 . S
N1132 C1129 1.384 . S
N1133 C1125 1.427 . S
N1133 C1131 1.384 1_554 S
H1134 C1140 0.930 . S
H1135 C1144 0.930 . S
H1136 C1149 0.929 . S
H1137 C1147 0.929 . S
H1138 C1142 0.929 . S
H1139 C1148 0.929 . S
C1140 H1134 0.930 . S
C1140 C1141 1.367 1_554 S
C1140 C1148 1.378 . S
C1141 C1140 1.367 1_556 S
C1141 C1149 1.433 . S
C1142 H1138 0.929 . S
C1142 C1144 1.378 . S
C1142 C1146 1.350 . S
C1143 C1146 1.463 . S
C1143 C1148 1.350 . S
C1143 N1151 1.427 . S
C1144 H1135 0.930 . S
C1144 C1142 1.378 . S
C1144 C1145 1.367 . S
C1145 C1144 1.367 . S
C1145 C1147 1.433 . S
C1146 C1142 1.350 . S
C1146 C1143 1.463 . S
C1146 N1150 1.427 . S
C1147 H1137 0.929 . S
C1147 C1145 1.433 . S
C1147 N1150 1.384 . S
C1148 H1139 0.929 . S
C1148 C1140 1.378 . S
C1148 C1143 1.350 . S
C1149 H1136 0.929 . S
C1149 C1141 1.433 . S
C1149 N1151 1.384 1_556 S
N1150 C1146 1.427 . S
N1150 C1147 1.384 . S
N1151 C1143 1.427 . S
N1151 C1149 1.384 1_554 S
H1152 C1158 0.930 . S
H1153 C1162 0.930 . S
H1154 C1167 0.929 . S
H1155 C1165 0.929 . S
H1156 C1160 0.929 . S
H1157 C1166 0.929 . S
C1158 H1152 0.930 . S
C1158 C1159 1.367 . S
C1158 C1166 1.378 . S
C1159 C1158 1.367 . S
C1159 C1167 1.433 . S
C1160 H1156 0.929 . S
C1160 C1162 1.378 1_556 S
C1160 C1164 1.350 . S
C1161 C1164 1.463 . S
C1161 C1166 1.350 . S
C1161 N1169 1.427 . S
C1162 H1153 0.930 . S
C1162 C1160 1.378 1_554 S
C1162 C1163 1.367 . S
C1163 C1162 1.367 . S
C1163 C1165 1.433 . S
C1164 C1160 1.350 . S
C1164 C1161 1.463 . S
C1164 N1168 1.427 . S
C1165 H1155 0.929 . S
C1165 C1163 1.433 . S
C1165 N1168 1.384 1_554 S
C1166 H1157 0.929 . S
C1166 C1158 1.378 . S
C1166 C1161 1.350 . S
C1167 H1154 0.929 . S
C1167 C1159 1.433 . S
C1167 N1169 1.384 . S
N1168 C1164 1.427 . S
N1168 C1165 1.384 1_556 S
N1169 C1161 1.427 . S
N1169 C1167 1.384 . S
H1170 C1176 0.930 . S
H1171 C1180 0.930 . S
H1172 C1185 0.929 . S
H1173 C1183 0.931 . S
H1174 C1178 0.929 . S
H1175 C1184 0.929 . S
C1176 H1170 0.930 . S
C1176 C1177 1.367 . S
C1176 C1184 1.378 . S
C1177 C1176 1.367 . S
C1177 C1185 1.433 . S
C1178 H1174 0.929 . S
C1178 C1180 1.378 1_556 S
C1178 C1182 1.350 . S
C1179 C1182 1.463 . S
C1179 C1184 1.350 . S
C1179 N1187 1.427 . S
C1180 H1171 0.930 . S
C1180 C1178 1.378 1_554 S
C1180 C1181 1.367 . S
C1181 C1180 1.367 . S
C1181 C1183 1.443 . S
C1182 C1178 1.350 . S
C1182 C1179 1.463 . S
C1182 N1186 1.427 . S
C1183 H1173 0.931 . S
C1183 C1181 1.443 . S
C1183 N1186 1.371 1_554 S
C1184 H1175 0.929 . S
C1184 C1176 1.378 . S
C1184 C1179 1.350 . S
C1185 H1172 0.929 . S
C1185 C1177 1.433 . S
C1185 N1187 1.384 . S
N1186 C1182 1.427 . S
N1186 C1183 1.371 1_556 S
N1187 C1179 1.427 . S
N1187 C1185 1.384 . S
H1188 C1194 0.930 . S
H1189 C1198 0.930 . S
H1190 C1203 0.929 . S
H1191 C1201 0.929 . S
H1192 C1196 0.929 . S
H1193 C1202 0.929 . S
C1194 H1188 0.930 . S
C1194 C1195 1.367 . S
C1194 C1202 1.378 . S
C1195 C1194 1.367 . S
C1195 C1203 1.433 . S
C1196 H1192 0.929 . S
C1196 C1198 1.378 1_556 S
C1196 C1200 1.350 . S
C1197 C1200 1.463 . S
C1197 C1202 1.350 . S
C1197 N1205 1.427 . S
C1198 H1189 0.930 . S
C1198 C1196 1.378 1_554 S
C1198 C1199 1.367 . S
C1199 C1198 1.367 . S
C1199 C1201 1.433 . S
C1200 C1196 1.350 . S
C1200 C1197 1.463 . S
C1200 N1204 1.427 . S
C1201 H1191 0.929 . S
C1201 C1199 1.433 . S
C1201 N1204 1.384 1_554 S
C1202 H1193 0.929 . S
C1202 C1194 1.378 . S
C1202 C1197 1.350 . S
C1203 H1190 0.929 . S
C1203 C1195 1.433 . S
C1203 N1205 1.384 . S
N1204 C1200 1.427 . S
N1204 C1201 1.384 1_556 S
N1205 C1197 1.427 . S
N1205 C1203 1.384 . S
H1206 C1212 0.930 . S
H1207 C1216 0.930 . S
H1208 C1221 0.929 . S
H1209 C1219 0.929 . S
H1210 C1214 0.929 . S
H1211 C1220 0.929 . S
C1212 H1206 0.930 . S
C1212 C1213 1.367 . S
C1212 C1220 1.378 . S
C1213 C1212 1.367 . S
C1213 C1221 1.433 . S
C1214 H1210 0.929 . S
C1214 C1216 1.378 . S
C1214 C1218 1.350 . S
C1215 C1218 1.463 . S
C1215 C1220 1.350 . S
C1215 N1223 1.427 . S
C1216 H1207 0.930 . S
C1216 C1214 1.378 . S
C1216 C1217 1.367 . S
C1217 C1216 1.367 . S
C1217 C1219 1.433 . S
C1218 C1214 1.350 . S
C1218 C1215 1.463 . S
C1218 N1222 1.427 . S
C1219 H1209 0.929 . S
C1219 C1217 1.433 . S
C1219 N1222 1.384 . S
C1220 H1211 0.929 . S
C1220 C1212 1.378 . S
C1220 C1215 1.350 . S
C1221 H1208 0.929 . S
C1221 C1213 1.433 . S
C1221 N1223 1.384 . S
N1222 C1218 1.427 . S
N1222 C1219 1.384 . S
N1223 C1215 1.427 . S
N1223 C1221 1.384 . S
H1224 C1230 0.930 . S
H1225 C1234 0.930 . S
H1226 C1239 0.929 . S
H1227 C1237 0.929 . S
H1228 C1232 0.929 . S
H1229 C1238 0.929 . S
C1230 H1224 0.930 . S
C1230 C1231 1.367 . S
C1230 C1238 1.378 . S
C1231 C1230 1.367 . S
C1231 C1239 1.433 . S
C1232 H1228 0.929 . S
C1232 C1234 1.378 . S
C1232 C1236 1.350 . S
C1233 C1236 1.463 . S
C1233 C1238 1.350 . S
C1233 N1241 1.427 . S
C1234 H1225 0.930 . S
C1234 C1232 1.378 . S
C1234 C1235 1.367 . S
C1235 C1234 1.367 . S
C1235 C1237 1.433 . S
C1236 C1232 1.350 . S
C1236 C1233 1.463 . S
C1236 N1240 1.427 . S
C1237 H1227 0.929 . S
C1237 C1235 1.433 . S
C1237 N1240 1.384 . S
C1238 H1229 0.929 . S
C1238 C1230 1.378 . S
C1238 C1233 1.350 . S
C1239 H1226 0.929 . S
C1239 C1231 1.433 . S
C1239 N1241 1.384 . S
N1240 C1236 1.427 . S
N1240 C1237 1.384 . S
N1241 C1233 1.427 . S
N1241 C1239 1.384 . S
H1242 C1248 0.930 . S
H1243 C1252 0.930 . S
H1244 C1257 0.929 . S
H1245 C1255 0.929 . S
H1246 C1250 0.929 . S
H1247 C1256 0.929 . S
C1248 H1242 0.930 . S
C1248 C1249 1.367 . S
C1248 C1256 1.378 . S
C1249 C1248 1.367 . S
C1249 C1257 1.433 . S
C1250 H1246 0.929 . S
C1250 C1252 1.378 . S
C1250 C1254 1.350 . S
C1251 C1254 1.463 . S
C1251 C1256 1.350 . S
C1251 N1259 1.427 . S
C1252 H1243 0.930 . S
C1252 C1250 1.378 . S
C1252 C1253 1.367 . S
C1253 C1252 1.367 . S
C1253 C1255 1.433 . S
C1254 C1250 1.350 . S
C1254 C1251 1.463 . S
C1254 N1258 1.427 . S
C1255 H1245 0.929 . S
C1255 C1253 1.433 . S
C1255 N1258 1.384 . S
C1256 H1247 0.929 . S
C1256 C1248 1.378 . S
C1256 C1251 1.350 . S
C1257 H1244 0.929 . S
C1257 C1249 1.433 . S
C1257 N1259 1.384 . S
N1258 C1254 1.427 . S
N1258 C1255 1.384 . S
N1259 C1251 1.427 . S
N1259 C1257 1.384 . S
H1260 C1266 0.930 . S
H1261 C1270 0.930 1_545 S
H1262 C1275 0.929 . S
H1263 C1273 0.929 1_554 S
H1264 C1268 0.929 . S
H1265 C1274 0.929 . S
C1266 H1260 0.930 . S
C1266 C1267 1.367 . S
C1266 C1274 1.378 . S
C1267 C1266 1.367 . S
C1267 C1275 1.433 . S
C1268 H1264 0.929 . S
C1268 C1270 1.378 . S
C1268 C1272 1.350 . S
C1269 C1272 1.463 . S
C1269 C1274 1.350 . S
C1269 N1277 1.427 . S
C1270 H1261 0.930 1_565 S
C1270 C1268 1.378 . S
C1270 C1271 1.367 . S
C1271 C1270 1.367 . S
C1271 C1273 1.433 . S
C1272 C1268 1.350 . S
C1272 C1269 1.463 . S
C1272 N1276 1.427 . S
C1273 H1263 0.929 1_556 S
C1273 C1271 1.433 . S
C1273 N1276 1.384 . S
C1274 H1265 0.929 . S
C1274 C1266 1.378 . S
C1274 C1269 1.350 . S
C1275 H1262 0.929 . S
C1275 C1267 1.433 . S
C1275 N1277 1.384 . S
N1276 C1272 1.427 . S
N1276 C1273 1.384 . S
N1277 C1269 1.427 . S
N1277 C1275 1.384 . S
H1278 C1284 0.930 1_554 S
H1279 C1288 0.930 . S
H1280 C1293 0.929 . S
H1281 C1291 0.929 . S
H1282 C1286 0.929 . S
H1283 C1292 0.929 . S
C1284 H1278 0.930 1_556 S
C1284 C1285 1.367 . S
C1284 C1292 1.378 . S
C1285 C1284 1.367 . S
C1285 C1293 1.433 . S
C1286 H1282 0.929 . S
C1286 C1288 1.378 . S
C1286 C1290 1.350 . S
C1287 C1290 1.463 . S
C1287 C1292 1.350 . S
C1287 N1295 1.427 . S
C1288 H1279 0.930 . S
C1288 C1286 1.378 . S
C1288 C1289 1.367 . S
C1289 C1288 1.367 . S
C1289 C1291 1.433 . S
C1290 C1286 1.350 . S
C1290 C1287 1.463 . S
C1290 N1294 1.427 . S
C1291 H1281 0.929 . S
C1291 C1289 1.433 . S
C1291 N1294 1.384 . S
C1292 H1283 0.929 . S
C1292 C1284 1.378 . S
C1292 C1287 1.350 . S
C1293 H1280 0.929 . S
C1293 C1285 1.433 . S
C1293 N1295 1.384 . S
N1294 C1290 1.427 . S
N1294 C1291 1.384 . S
N1295 C1287 1.427 . S
N1295 C1293 1.384 . S
H1296 C1302 0.930 . S
H1297 C1306 0.930 . S
H1298 C1311 0.929 . S
H1299 C1309 0.929 . S
H1300 C1304 0.929 . S
H1301 C1310 0.929 . S
C1302 H1296 0.930 . S
C1302 C1303 1.367 . S
C1302 C1310 1.378 . S
C1303 C1302 1.367 . S
C1303 C1311 1.433 . S
C1304 H1300 0.929 . S
C1304 C1306 1.378 . S
C1304 C1308 1.350 . S
C1305 C1308 1.463 . S
C1305 C1310 1.350 . S
C1305 N1313 1.427 . S
C1306 H1297 0.930 . S
C1306 C1304 1.378 . S
C1306 C1307 1.367 . S
C1307 C1306 1.367 . S
C1307 C1309 1.433 . S
C1308 C1304 1.350 . S
C1308 C1305 1.463 . S
C1308 N1312 1.427 . S
C1309 H1299 0.929 . S
C1309 C1307 1.433 . S
C1309 N1312 1.384 . S
C1310 H1301 0.929 . S
C1310 C1302 1.378 . S
C1310 C1305 1.350 . S
C1311 H1298 0.929 . S
C1311 C1303 1.433 . S
C1311 N1313 1.384 . S
N1312 C1308 1.427 . S
N1312 C1309 1.384 . S
N1313 C1305 1.427 . S
N1313 C1311 1.384 . S
H1314 C1320 0.930 . S
H1315 C1324 0.930 . S
H1316 C1329 0.929 1_655 S
H1317 C1327 0.929 . S
H1318 C1322 0.929 . S
H1319 C1328 0.929 . S
C1320 H1314 0.930 . S
C1320 C1321 1.367 . S
C1320 C1328 1.378 . S
C1321 C1320 1.367 . S
C1321 C1329 1.433 . S
C1322 H1318 0.929 . S
C1322 C1324 1.378 . S
C1322 C1326 1.350 . S
C1323 C1326 1.463 . S
C1323 C1328 1.350 . S
C1323 N1331 1.427 . S
C1324 H1315 0.930 . S
C1324 C1322 1.378 . S
C1324 C1325 1.367 . S
C1325 C1324 1.367 . S
C1325 C1327 1.433 . S
C1326 C1322 1.350 . S
C1326 C1323 1.463 . S
C1326 N1330 1.427 . S
C1327 H1317 0.929 . S
C1327 C1325 1.433 . S
C1327 N1330 1.384 . S
C1328 H1319 0.929 . S
C1328 C1320 1.378 . S
C1328 C1323 1.350 . S
C1329 H1316 0.929 1_455 S
C1329 C1321 1.433 . S
C1329 N1331 1.384 . S
N1330 C1326 1.427 . S
N1330 C1327 1.384 . S
N1331 C1323 1.427 . S
N1331 C1329 1.384 . S
H1332 C1338 0.930 . S
H1333 C1342 0.930 . S
H1334 C1347 0.929 . S
H1335 C1345 0.929 . S
H1336 C1340 0.929 . S
H1337 C1346 0.929 . S
C1338 H1332 0.930 . S
C1338 C1339 1.367 . S
C1338 C1346 1.378 . S
C1339 C1338 1.367 . S
C1339 C1347 1.433 . S
C1340 H1336 0.929 . S
C1340 C1342 1.378 . S
C1340 C1344 1.350 . S
C1341 C1344 1.463 . S
C1341 C1346 1.350 . S
C1341 N1349 1.427 . S
C1342 H1333 0.930 . S
C1342 C1340 1.378 . S
C1342 C1343 1.367 . S
C1343 C1342 1.367 . S
C1343 C1345 1.433 . S
C1344 C1340 1.350 . S
C1344 C1341 1.463 . S
C1344 N1348 1.427 . S
C1345 H1335 0.929 . S
C1345 C1343 1.433 . S
C1345 N1348 1.384 . S
C1346 H1337 0.929 . S
C1346 C1338 1.378 . S
C1346 C1341 1.350 . S
C1347 H1334 0.929 . S
C1347 C1339 1.433 . S
C1347 N1349 1.384 . S
N1348 C1344 1.427 . S
N1348 C1345 1.384 . S
N1349 C1341 1.427 . S
N1349 C1347 1.384 . S
H1350 C1356 0.930 . S
H1351 C1360 0.930 1_545 S
H1352 C1365 0.929 . S
H1353 C1363 0.929 . S
H1354 C1358 0.929 . S
H1355 C1364 0.929 . S
C1356 H1350 0.930 . S
C1356 C1357 1.367 . S
C1356 C1364 1.378 . S
C1357 C1356 1.367 . S
C1357 C1365 1.433 . S
C1358 H1354 0.929 . S
C1358 C1360 1.378 . S
C1358 C1362 1.350 . S
C1359 C1362 1.463 . S
C1359 C1364 1.350 . S
C1359 N1367 1.427 . S
C1360 H1351 0.930 1_565 S
C1360 C1358 1.378 . S
C1360 C1361 1.367 . S
C1361 C1360 1.367 . S
C1361 C1363 1.433 . S
C1362 C1358 1.350 . S
C1362 C1359 1.463 . S
C1362 N1366 1.427 . S
C1363 H1353 0.929 . S
C1363 C1361 1.433 . S
C1363 N1366 1.384 . S
C1364 H1355 0.929 . S
C1364 C1356 1.378 . S
C1364 C1359 1.350 . S
C1365 H1352 0.929 . S
C1365 C1357 1.433 . S
C1365 N1367 1.384 . S
N1366 C1362 1.427 . S
N1366 C1363 1.384 . S
N1367 C1359 1.427 . S
N1367 C1365 1.384 . S
H1368 C1374 0.930 . S
H1369 C1378 0.930 . S
H1370 C1383 0.929 . S
H1371 C1381 0.929 . S
H1372 C1376 0.929 . S
H1373 C1382 0.929 . S
C1374 H1368 0.930 . S
C1374 C1375 1.367 . S
C1374 C1382 1.378 . S
C1375 C1374 1.367 . S
C1375 C1383 1.433 . S
C1376 H1372 0.929 . S
C1376 C1378 1.378 . S
C1376 C1380 1.350 . S
C1377 C1380 1.463 . S
C1377 C1382 1.350 . S
C1377 N1385 1.427 . S
C1378 H1369 0.930 . S
C1378 C1376 1.378 . S
C1378 C1379 1.367 1_455 S
C1379 C1378 1.367 1_655 S
C1379 C1381 1.433 . S
C1380 C1376 1.350 . S
C1380 C1377 1.463 . S
C1380 N1384 1.427 . S
C1381 H1371 0.929 . S
C1381 C1379 1.433 . S
C1381 N1384 1.384 1_655 S
C1382 H1373 0.929 . S
C1382 C1374 1.378 . S
C1382 C1377 1.350 . S
C1383 H1370 0.929 . S
C1383 C1375 1.433 . S
C1383 N1385 1.384 . S
N1384 C1380 1.427 . S
N1384 C1381 1.384 1_455 S
N1385 C1377 1.427 . S
N1385 C1383 1.384 . S
H1386 C1392 0.930 . S
H1387 C1396 0.930 . S
H1388 C1401 0.929 . S
H1389 C1399 0.929 . S
H1390 C1394 0.929 . S
H1391 C1400 0.929 . S
C1392 H1386 0.930 . S
C1392 C1393 1.367 . S
C1392 C1400 1.378 . S
C1393 C1392 1.367 . S
C1393 C1401 1.433 . S
C1394 H1390 0.929 . S
C1394 C1396 1.378 . S
C1394 C1398 1.350 . S
C1395 C1398 1.463 . S
C1395 C1400 1.350 . S
C1395 N1403 1.427 . S
C1396 H1387 0.930 . S
C1396 C1394 1.378 . S
C1396 C1397 1.367 . S
C1397 C1396 1.367 . S
C1397 C1399 1.433 . S
C1398 C1394 1.350 . S
C1398 C1395 1.463 . S
C1398 N1402 1.427 . S
C1399 H1389 0.929 . S
C1399 C1397 1.433 . S
C1399 N1402 1.384 . S
C1400 H1391 0.929 . S
C1400 C1392 1.378 . S
C1400 C1395 1.350 . S
C1401 H1388 0.929 . S
C1401 C1393 1.433 . S
C1401 N1403 1.384 . S
N1402 C1398 1.427 . S
N1402 C1399 1.384 . S
N1403 C1395 1.427 . S
N1403 C1401 1.384 . S
H1404 C1410 0.930 . S
H1405 C1414 0.930 . S
H1406 C1419 0.929 . S
H1407 C1417 0.929 . S
H1408 C1412 0.929 . S
H1409 C1418 0.929 . S
C1410 H1404 0.930 . S
C1410 C1411 1.367 . S
C1410 C1418 1.378 . S
C1411 C1410 1.367 . S
C1411 C1419 1.433 . S
C1412 H1408 0.929 . S
C1412 C1414 1.378 1_565 S
C1412 C1416 1.350 . S
C1413 C1416 1.463 . S
C1413 C1418 1.350 . S
C1413 N1421 1.427 . S
C1414 H1405 0.930 . S
C1414 C1412 1.378 1_545 S
C1414 C1415 1.367 . S
C1415 C1414 1.367 . S
C1415 C1417 1.433 1_545 S
C1416 C1412 1.350 . S
C1416 C1413 1.463 . S
C1416 N1420 1.427 . S
C1417 H1407 0.929 . S
C1417 C1415 1.433 1_565 S
C1417 N1420 1.384 . S
C1418 H1409 0.929 . S
C1418 C1410 1.378 . S
C1418 C1413 1.350 . S
C1419 H1406 0.929 . S
C1419 C1411 1.433 . S
C1419 N1421 1.384 . S
N1420 C1416 1.427 . S
N1420 C1417 1.384 . S
N1421 C1413 1.427 . S
N1421 C1419 1.384 . S
H1422 C1428 0.930 . S
H1423 C1432 0.930 . S
H1424 C1437 0.929 . S
H1425 C1435 0.929 . S
H1426 C1430 0.929 . S
H1427 C1436 0.929 . S
C1428 H1422 0.930 . S
C1428 C1429 1.367 . S
C1428 C1436 1.378 1_545 S
C1429 C1428 1.367 . S
C1429 C1437 1.433 1_545 S
C1430 H1426 0.929 . S
C1430 C1432 1.378 . S
C1430 C1434 1.350 . S
C1431 C1434 1.463 . S
C1431 C1436 1.350 . S
C1431 N1439 1.427 . S
C1432 H1423 0.930 . S
C1432 C1430 1.378 . S
C1432 C1433 1.367 . S
C1433 C1432 1.367 . S
C1433 C1435 1.433 . S
C1434 C1430 1.350 . S
C1434 C1431 1.463 . S
C1434 N1438 1.427 . S
C1435 H1425 0.929 . S
C1435 C1433 1.433 . S
C1435 N1438 1.384 . S
C1436 H1427 0.929 . S
C1436 C1428 1.378 1_565 S
C1436 C1431 1.350 . S
C1437 H1424 0.929 . S
C1437 C1429 1.433 1_565 S
C1437 N1439 1.384 . S
N1438 C1434 1.427 . S
N1438 C1435 1.384 . S
N1439 C1431 1.427 . S
N1439 C1437 1.384 . S
H1440 C1446 0.930 . S
H1441 C1450 0.930 . S
H1442 C1455 0.929 . S
H1443 C1453 0.929 . S
H1444 C1448 0.929 . S
H1445 C1454 0.929 . S
C1446 H1440 0.930 . S
C1446 C1447 1.367 1_455 S
C1446 C1454 1.378 . S
C1447 C1446 1.367 1_655 S
C1447 C1455 1.433 . S
C1448 H1444 0.929 . S
C1448 C1450 1.378 . S
C1448 C1452 1.350 . S
C1449 C1452 1.463 . S
C1449 C1454 1.350 . S
C1449 N1457 1.427 . S
C1450 H1441 0.930 . S
C1450 C1448 1.378 . S
C1450 C1451 1.367 . S
C1451 C1450 1.367 . S
C1451 C1453 1.433 . S
C1452 C1448 1.350 . S
C1452 C1449 1.463 . S
C1452 N1456 1.427 . S
C1453 H1443 0.929 . S
C1453 C1451 1.433 . S
C1453 N1456 1.384 . S
C1454 H1445 0.929 . S
C1454 C1446 1.378 . S
C1454 C1449 1.350 . S
C1455 H1442 0.929 . S
C1455 C1447 1.433 . S
C1455 N1457 1.384 1_655 S
N1456 C1452 1.427 . S
N1456 C1453 1.384 . S
N1457 C1449 1.427 . S
N1457 C1455 1.384 1_455 S
H1458 C1464 0.930 . S
H1459 C1468 0.930 . S
H1460 C1473 0.929 . S
H1461 C1471 0.929 . S
H1462 C1466 0.929 . S
H1463 C1472 0.929 . S
C1464 H1458 0.930 . S
C1464 C1465 1.367 . S
C1464 C1472 1.378 . S
C1465 C1464 1.367 . S
C1465 C1473 1.433 . S
C1466 H1462 0.929 . S
C1466 C1468 1.378 . S
C1466 C1470 1.350 . S
C1467 C1470 1.463 . S
C1467 C1472 1.350 . S
C1467 N1475 1.427 . S
C1468 H1459 0.930 . S
C1468 C1466 1.378 . S
C1468 C1469 1.367 . S
C1469 C1468 1.367 . S
C1469 C1471 1.433 . S
C1470 C1466 1.350 . S
C1470 C1467 1.463 . S
C1470 N1474 1.427 . S
C1471 H1461 0.929 . S
C1471 C1469 1.433 . S
C1471 N1474 1.384 . S
C1472 H1463 0.929 . S
C1472 C1464 1.378 . S
C1472 C1467 1.350 . S
C1473 H1460 0.929 . S
C1473 C1465 1.433 . S
C1473 N1475 1.384 . S
N1474 C1470 1.427 . S
N1474 C1471 1.384 . S
N1475 C1467 1.427 . S
N1475 C1473 1.384 . S
H1476 C1482 0.930 . S
H1477 C1486 0.930 . S
H1478 C1491 0.929 . S
H1479 C1489 0.929 . S
H1480 C1484 0.929 . S
H1481 C1490 0.929 . S
C1482 H1476 0.930 . S
C1482 C1483 1.367 . S
C1482 C1490 1.378 . S
C1483 C1482 1.367 . S
C1483 C1491 1.433 . S
C1484 H1480 0.929 . S
C1484 C1486 1.378 . S
C1484 C1488 1.350 . S
C1485 C1488 1.463 . S
C1485 C1490 1.350 . S
C1485 N1493 1.427 . S
C1486 H1477 0.930 . S
C1486 C1484 1.378 . S
C1486 C1487 1.367 . S
C1487 C1486 1.367 . S
C1487 C1489 1.433 . S
C1488 C1484 1.350 . S
C1488 C1485 1.463 . S
C1488 N1492 1.427 . S
C1489 H1479 0.929 . S
C1489 C1487 1.433 . S
C1489 N1492 1.384 . S
C1490 H1481 0.929 . S
C1490 C1482 1.378 . S
C1490 C1485 1.350 . S
C1491 H1478 0.929 . S
C1491 C1483 1.433 . S
C1491 N1493 1.384 . S
N1492 C1488 1.427 . S
N1492 C1489 1.384 . S
N1493 C1485 1.427 . S
N1493 C1491 1.384 . S
H1494 C1500 0.930 . S
H1495 C1504 0.930 . S
H1496 C1509 0.929 . S
H1497 C1507 0.929 . S
H1498 C1502 0.929 . S
H1499 C1508 0.929 . S
C1500 H1494 0.930 . S
C1500 C1501 1.367 . S
C1500 C1508 1.378 . S
C1501 C1500 1.367 . S
C1501 C1509 1.433 . S
C1502 H1498 0.929 . S
C1502 C1504 1.378 . S
C1502 C1506 1.350 . S
C1503 C1506 1.463 . S
C1503 C1508 1.350 . S
C1503 N1511 1.427 . S
C1504 H1495 0.930 . S
C1504 C1502 1.378 . S
C1504 C1505 1.367 . S
C1505 C1504 1.367 . S
C1505 C1507 1.433 . S
C1506 C1502 1.350 . S
C1506 C1503 1.463 . S
C1506 N1510 1.427 . S
C1507 H1497 0.929 . S
C1507 C1505 1.433 . S
C1507 N1510 1.384 . S
C1508 H1499 0.929 . S
C1508 C1500 1.378 . S
C1508 C1503 1.350 . S
C1509 H1496 0.929 . S
C1509 C1501 1.433 . S
C1509 N1511 1.384 . S
N1510 C1506 1.427 . S
N1510 C1507 1.384 . S
N1511 C1503 1.427 . S
N1511 C1509 1.384 . S
H1512 C1518 0.930 . S
H1513 C1522 0.930 . S
H1514 C1527 0.929 . S
H1515 C1525 0.929 . S
H1516 C1520 0.929 . S
H1517 C1526 0.929 . S
C1518 H1512 0.930 . S
C1518 C1519 1.367 . S
C1518 C1526 1.378 . S
C1519 C1518 1.367 . S
C1519 C1527 1.433 . S
C1520 H1516 0.929 . S
C1520 C1522 1.378 . S
C1520 C1524 1.350 . S
C1521 C1524 1.463 . S
C1521 C1526 1.350 . S
C1521 N1529 1.427 . S
C1522 H1513 0.930 . S
C1522 C1520 1.378 . S
C1522 C1523 1.367 . S
C1523 C1522 1.367 . S
C1523 C1525 1.433 . S
C1524 C1520 1.350 . S
C1524 C1521 1.463 . S
C1524 N1528 1.427 . S
C1525 H1515 0.929 . S
C1525 C1523 1.433 . S
C1525 N1528 1.384 . S
C1526 H1517 0.929 . S
C1526 C1518 1.378 . S
C1526 C1521 1.350 . S
C1527 H1514 0.929 . S
C1527 C1519 1.433 . S
C1527 N1529 1.384 . S
N1528 C1524 1.427 . S
N1528 C1525 1.384 . S
N1529 C1521 1.427 . S
N1529 C1527 1.384 . S
H1530 C1536 0.930 . S
H1531 C1540 0.930 . S
H1532 C1545 0.929 . S
H1533 C1543 0.929 . S
H1534 C1538 0.929 . S
H1535 C1544 0.929 . S
C1536 H1530 0.930 . S
C1536 C1537 1.367 . S
C1536 C1544 1.378 . S
C1537 C1536 1.367 . S
C1537 C1545 1.433 . S
C1538 H1534 0.929 . S
C1538 C1540 1.378 . S
C1538 C1542 1.350 . S
C1539 C1542 1.463 . S
C1539 C1544 1.350 . S
C1539 N1547 1.427 . S
C1540 H1531 0.930 . S
C1540 C1538 1.378 . S
C1540 C1541 1.367 . S
C1541 C1540 1.367 . S
C1541 C1543 1.433 . S
C1542 C1538 1.350 . S
C1542 C1539 1.463 . S
C1542 N1546 1.427 . S
C1543 H1533 0.929 . S
C1543 C1541 1.433 . S
C1543 N1546 1.384 . S
C1544 H1535 0.929 . S
C1544 C1536 1.378 . S
C1544 C1539 1.350 . S
C1545 H1532 0.929 . S
C1545 C1537 1.433 . S
C1545 N1547 1.384 . S
N1546 C1542 1.427 . S
N1546 C1543 1.384 . S
N1547 C1539 1.427 . S
N1547 C1545 1.384 . S
H1548 C1554 0.930 . S
H1549 C1558 0.930 . S
H1550 C1563 0.929 . S
H1551 C1561 0.929 1_556 S
H1552 C1556 0.929 . S
H1553 C1562 0.929 . S
C1554 H1548 0.930 . S
C1554 C1555 1.367 . S
C1554 C1562 1.378 . S
C1555 C1554 1.367 . S
C1555 C1563 1.433 . S
C1556 H1552 0.929 . S
C1556 C1558 1.378 . S
C1556 C1560 1.350 . S
C1557 C1560 1.463 . S
C1557 C1562 1.350 . S
C1557 N1565 1.427 . S
C1558 H1549 0.930 . S
C1558 C1556 1.378 . S
C1558 C1559 1.367 . S
C1559 C1558 1.367 . S
C1559 C1561 1.433 . S
C1560 C1556 1.350 . S
C1560 C1557 1.463 . S
C1560 N1564 1.427 . S
C1561 H1551 0.929 1_554 S
C1561 C1559 1.433 . S
C1561 N1564 1.384 . S
C1562 H1553 0.929 . S
C1562 C1554 1.378 . S
C1562 C1557 1.350 . S
C1563 H1550 0.929 . S
C1563 C1555 1.433 . S
C1563 N1565 1.384 . S
N1564 C1560 1.427 . S
N1564 C1561 1.384 . S
N1565 C1557 1.427 . S
N1565 C1563 1.384 . S
H1566 C1572 0.930 . S
H1567 C1576 0.930 . S
H1568 C1581 0.929 . S
H1569 C1579 0.929 . S
H1570 C1574 0.929 . S
H1571 C1580 0.929 . S
C1572 H1566 0.930 . S
C1572 C1573 1.367 . S
C1572 C1580 1.378 . S
C1573 C1572 1.367 . S
C1573 C1581 1.433 . S
C1574 H1570 0.929 . S
C1574 C1576 1.378 . S
C1574 C1578 1.350 . S
C1575 C1578 1.463 . S
C1575 C1580 1.350 . S
C1575 N1583 1.427 . S
C1576 H1567 0.930 . S
C1576 C1574 1.378 . S
C1576 C1577 1.367 . S
C1577 C1576 1.367 . S
C1577 C1579 1.433 . S
C1578 C1574 1.350 . S
C1578 C1575 1.463 . S
C1578 N1582 1.427 . S
C1579 H1569 0.929 . S
C1579 C1577 1.433 . S
C1579 N1582 1.384 . S
C1580 H1571 0.929 . S
C1580 C1572 1.378 . S
C1580 C1575 1.350 . S
C1581 H1568 0.929 . S
C1581 C1573 1.433 . S
C1581 N1583 1.384 . S
N1582 C1578 1.427 . S
N1582 C1579 1.384 . S
N1583 C1575 1.427 . S
N1583 C1581 1.384 . S
C619 C17 0.476 1_556 S
C623 C72 0.397 . S
C637 C4 0.432 . S
C641 C51 0.507 1_556 S
C655 C85 0.481 1_556 S
C659 C38 0.418 . S
C673 C149 0.421 . S
C677 C110 0.518 . S
C691 C183 0.433 . S
C695 C144 0.514 . S
C709 C178 0.493 . S
C713 C115 0.401 . S
C727 C276 0.411 . S
C731 C221 0.508 . S
C745 C255 0.516 . S
C749 C208 0.432 . S
C763 C242 0.397 . S
C767 C289 0.479 . S
C781 C314 0.483 . S
C785 C353 0.397 . S
C799 C387 0.397 . S
C803 C348 0.480 . S
C817 C382 0.512 . S
C821 C319 0.433 . S
C835 C480 0.428 . S
C839 C425 0.521 . S
C853 C459 0.479 . S
C857 C412 0.416 . S
C871 C493 0.471 . S
C875 C446 0.406 . S
C889 C518 0.520 . S
C893 C557 0.424 . S
C907 C591 0.397 . S
C911 C552 0.475 . S
C925 C523 0.428 . S
C929 C586 0.498 . S
C943 C170 1.241 . S
C947 C0 1.240 . S
C961 C102 1.240 . S
C965 C34 1.240 . S
C979 C136 1.251 . S
C983 C68 1.251 . S
C997 C63 1.250 . S
C1001 C131 1.250 . S
C1015 C165 1.245 . S
C1019 C97 1.245 . S
C1033 C29 1.244 . S
C1037 C199 1.243 . S
C1051 C204 1.243 . S
C1055 C374 1.243 . S
C1069 C238 1.238 . S
C1073 C306 1.239 . S
C1087 C340 1.251 . S
C1091 C272 1.251 . S
C1105 C335 1.250 . S
C1109 C267 1.250 . S
C1123 C369 1.248 . S
C1127 C301 1.249 . S
C1141 C403 1.249 . S
C1145 C233 1.249 . S
C1159 C408 1.251 . S
C1163 C578 1.251 . S
C1177 C442 1.238 . S
C1181 C510 1.239 . S
C1195 C476 1.247 . S
C1199 C544 1.248 . S
C1213 C539 1.251 . S
C1217 C471 1.252 . S
C1231 C573 1.249 . S
C1235 C505 1.249 . S
C1249 C607 1.242 . S
C1253 C437 1.243 . S
C1267 C357 2.075 . S
C1271 C13 2.157 1_565 S
C1285 C47 2.160 1_455 S
C1289 C391 2.079 . S
C1303 C323 2.086 . S
C1307 C81 2.162 . S
C1321 C106 2.162 1_455 S
C1325 C280 2.084 . S
C1339 C140 2.160 . S
C1343 C212 2.078 . S
C1357 C246 2.075 . S
C1361 C174 2.157 1_565 S
C1375 C217 2.160 . S
C1379 C561 2.079 . S
C1393 C251 2.161 . S
C1397 C595 2.080 . S
C1411 C285 2.159 . S
C1415 C527 2.083 . S
C1429 C484 2.080 . S
C1433 C310 2.158 . S
C1447 C416 2.077 . S
C1451 C344 2.159 . S
C1465 C450 2.076 . S
C1469 C378 2.159 . S
C1483 C153 2.087 . S
C1487 C421 2.162 . S
C1501 C455 2.161 . S
C1505 C187 2.087 . S
C1519 C119 2.086 . S
C1523 C489 2.162 . S
C1537 C514 2.157 . S
C1541 C76 2.075 . S
C1555 C548 2.158 . S
C1559 C8 2.081 . S
C1573 C42 2.086 . S
C1577 C582 2.162 . S
