# Generated by pormake.
# Topology uog, (4)-cn, num edge types: 1
# Building blocks:
#     Node 0, Type 0, BuildingBlock: CEKHIL_clean_sbu_0, # of connection points: 4
#     Node 1, Type 0, BuildingBlock: CEKHIL_clean_sbu_0, # of connection points: 4
#     Node 2, Type 0, BuildingBlock: CEKHIL_clean_sbu_0, # of connection points: 4
#     Node 3, Type 0, BuildingBlock: CEKHIL_clean_sbu_0, # of connection points: 4
#     Node 4, Type 0, BuildingBlock: CEKHIL_clean_sbu_0, # of connection points: 4
#     Node 5, Type 0, BuildingBlock: CEKHIL_clean_sbu_0, # of connection points: 4
#     Edge 6, Type (0, 0), BuildingBlock: CIFDUS_clean_linker_0, # of connection points: 2
#     Edge 7, Type (0, 0), BuildingBlock: CIFDUS_clean_linker_0, # of connection points: 2
#     Edge 8, Type (0, 0), BuildingBlock: CIFDUS_clean_linker_0, # of connection points: 2
#     Edge 9, Type (0, 0), BuildingBlock: CIFDUS_clean_linker_0, # of connection points: 2
#     Edge 10, Type (0, 0), BuildingBlock: CIFDUS_clean_linker_0, # of connection points: 2
#     Edge 11, Type (0, 0), BuildingBlock: CIFDUS_clean_linker_0, # of connection points: 2
#     Edge 12, Type (0, 0), BuildingBlock: CIFDUS_clean_linker_0, # of connection points: 2
#     Edge 13, Type (0, 0), BuildingBlock: CIFDUS_clean_linker_0, # of connection points: 2
#     Edge 14, Type (0, 0), BuildingBlock: CIFDUS_clean_linker_0, # of connection points: 2
#     Edge 15, Type (0, 0), BuildingBlock: CIFDUS_clean_linker_0, # of connection points: 2
#     Edge 16, Type (0, 0), BuildingBlock: CIFDUS_clean_linker_0, # of connection points: 2
#     Edge 17, Type (0, 0), BuildingBlock: CIFDUS_clean_linker_0, # of connection points: 2
# Relax obj value: 0.071
# Max RMSD: 0.167
# Mean RMSD: 0.167
data_MOF--net-uog--node1-CEKHIL_clean_sbu_0--edge1-CIFDUS_clean_linker_0
_symmetry_space_group_name_H-M    P1
_symmetry_Int_Tables_number       1
_symmetry_cell_setting            triclinic
loop_
_symmetry_equiv_pos_as_xyz
'x, y, z'
_cell_length_a     25.131121
_cell_length_b     24.991116
_cell_length_c     36.650747
_cell_angle_alpha  90.14292
_cell_angle_beta   90.018242
_cell_angle_gamma 120.57741
loop_
_atom_site_label
_atom_site_type_symbol
_atom_site_fract_x
_atom_site_fract_y
_atom_site_fract_z
_atom_type_partial_charge
Co0 Co 0.60119 0.29583 0.16478 0.0
O1 O 0.62481 0.23448 0.15985 0.0
O2 O 0.53118 0.21638 0.14775 0.0
C3 C 0.64205 0.32714 0.2208 0.0
O4 O 0.56448 0.35313 0.16825 0.0
Co5 Co 0.71044 0.43001 0.16627 0.0
O6 O 0.64553 0.44962 0.17818 0.0
C7 C 0.67032 0.36676 0.09611 0.0
C8 C 0.56927 0.19537 0.14941 0.0
C9 C 0.58763 0.41196 0.17478 0.0
O10 O 0.62535 0.3216 0.11292 0.0
O11 O 0.71415 0.41372 0.11261 0.0
O12 O 0.58728 0.27939 0.21621 0.0
O13 O 0.67389 0.35053 0.19121 0.0
Co14 Co 0.31972 0.58732 0.50258 0.0
O15 O 0.40216 0.60291 0.49585 0.0
O16 O 0.31794 0.51611 0.47927 0.0
C17 C 0.33379 0.61935 0.56119 0.0
O18 O 0.22686 0.55705 0.50661 0.0
Co19 Co 0.30591 0.70198 0.5174 0.0
O20 O 0.2177 0.63863 0.52414 0.0
C21 C 0.33104 0.67719 0.44284 0.0
C22 C 0.37811 0.54804 0.48164 0.0
C23 C 0.19393 0.58134 0.5159 0.0
O24 O 0.32309 0.62474 0.45351 0.0
O25 O 0.33196 0.71769 0.46473 0.0
O26 O 0.32039 0.56337 0.55297 0.0
O27 O 0.34416 0.65586 0.53375 0.0
Co28 Co 0.72291 0.31733 0.82421 0.0
O29 O 0.78629 0.40242 0.81866 0.0
O30 O 0.79374 0.32396 0.79734 0.0
C31 C 0.71059 0.32687 0.88442 0.0
O32 O 0.66245 0.22251 0.82658 0.0
Co33 Co 0.59572 0.29743 0.84239 0.0
O34 O 0.57084 0.20873 0.84531 0.0
C35 C 0.64015 0.32935 0.7679 0.0
C36 C 0.81868 0.38397 0.80135 0.0
C37 C 0.60495 0.18707 0.83568 0.0
O38 O 0.68505 0.32192 0.77719 0.0
O39 O 0.60113 0.32799 0.79083 0.0
O40 O 0.75214 0.31521 0.87249 0.0
O41 O 0.68087 0.33806 0.85947 0.0
Co42 Co 0.40748 0.73076 0.17024 0.0
O43 O 0.38218 0.79095 0.16644 0.0
O44 O 0.47496 0.80988 0.15124 0.0
C45 C 0.37206 0.70123 0.22739 0.0
O46 O 0.4455 0.67453 0.17216 0.0
Co47 Co 0.29883 0.59584 0.17462 0.0
O48 O 0.36584 0.5782 0.1842 0.0
C49 C 0.33308 0.65587 0.10348 0.0
C50 C 0.43641 0.83017 0.15429 0.0
C51 C 0.42329 0.61601 0.17906 0.0
O52 O 0.37889 0.7023 0.11911 0.0
O53 O 0.29097 0.60937 0.12104 0.0
O54 O 0.42585 0.74957 0.22136 0.0
O55 O 0.3379 0.67637 0.19865 0.0
Co56 Co 0.70032 0.4241 0.4969 0.0
O57 O 0.61826 0.40911 0.48942 0.0
O58 O 0.70313 0.49706 0.4756 0.0
C59 C 0.68313 0.38813 0.55456 0.0
O60 O 0.79297 0.45397 0.50226 0.0
Co61 Co 0.71354 0.30884 0.50894 0.0
O62 O 0.80118 0.37137 0.51835 0.0
C63 C 0.69238 0.33888 0.4348 0.0
C64 C 0.64289 0.4651 0.47704 0.0
C65 C 0.82539 0.42913 0.51152 0.0
O66 O 0.69905 0.39018 0.44692 0.0
O67 O 0.69102 0.2971 0.45562 0.0
O68 O 0.69748 0.44474 0.54765 0.0
O69 O 0.67395 0.35325 0.52629 0.0
Co70 Co 0.27288 0.6837 0.82986 0.0
O71 O 0.21026 0.59802 0.82561 0.0
O72 O 0.20242 0.67419 0.80116 0.0
C73 C 0.28447 0.67926 0.89068 0.0
O74 O 0.33265 0.77874 0.83048 0.0
Co75 Co 0.40026 0.70583 0.85068 0.0
O76 O 0.42412 0.79442 0.8511 0.0
C77 C 0.35803 0.66991 0.77598 0.0
C78 C 0.17796 0.61458 0.80658 0.0
C79 C 0.38998 0.81505 0.83981 0.0
O80 O 0.31214 0.67645 0.7841 0.0
O81 O 0.39703 0.67342 0.79971 0.0
O82 O 0.24244 0.68893 0.87726 0.0
O83 O 0.31483 0.66657 0.86691 0.0
H84 H 0.45362 0.09087 0.14552 0.0
H85 H 0.64781 0.15307 0.13733 0.0
H86 H 0.62474 0.0461 0.13493 0.0
H87 H 0.55012 0.9339 0.14136 0.0
H88 H 0.35597 0.87185 0.14998 0.0
H89 H 0.37824 0.97829 0.14568 0.0
C90 C 0.49067 0.08093 0.14253 0.0
C91 C 0.55225 0.13006 0.14206 0.0
C92 C 0.47724 0.01879 0.14162 0.0
C93 C 0.59982 0.11622 0.13821 0.0
C94 C 0.5868 0.05487 0.13687 0.0
C95 C 0.51274 0.94367 0.14171 0.0
C96 C 0.45168 0.89481 0.14647 0.0
C97 C 0.52579 1.00561 0.13955 0.0
C98 C 0.40369 0.90847 0.1468 0.0
C99 C 0.41624 0.96955 0.14434 0.0
H100 H 0.5023 0.6131 0.4724 0.0
H101 H 0.34486 0.42666 0.46925 0.0
H102 H 0.41409 0.38501 0.46322 0.0
H103 H 0.5191 0.40131 0.46609 0.0
H104 H 0.67657 0.58764 0.47027 0.0
H105 H 0.60742 0.62984 0.4681 0.0
C106 C 0.48301 0.56333 0.46989 0.0
C107 C 0.41844 0.5229 0.47176 0.0
C108 C 0.52312 0.53984 0.46683 0.0
C109 C 0.39425 0.4587 0.46798 0.0
C110 C 0.43389 0.43492 0.46473 0.0
C111 C 0.53843 0.45124 0.46597 0.0
C112 C 0.60297 0.49136 0.4688 0.0
C113 C 0.49837 0.47498 0.46522 0.0
C114 C 0.62721 0.55583 0.46815 0.0
C115 C 0.58761 0.5799 0.46716 0.0
H116 H 0.91957 0.37049 0.79206 0.0
H117 H 0.86014 0.50445 0.78578 0.0
H118 H 0.96697 0.58902 0.78146 0.0
H119 H 0.07809 0.62652 0.78927 0.0
H120 H 0.13727 0.49246 0.79714 0.0
H121 H 0.03113 0.40747 0.79049 0.0
C122 C 0.93005 0.41798 0.78867 0.0
C123 C 0.88203 0.4311 0.78974 0.0
C124 C 0.99208 0.467 0.78705 0.0
C125 C 0.89639 0.49308 0.7855 0.0
C126 C 0.9576 0.5417 0.78314 0.0
C127 C 0.06782 0.5788 0.78855 0.0
C128 C 0.11545 0.566 0.79429 0.0
C129 C 0.00605 0.52955 0.78541 0.0
C130 C 0.10132 0.50373 0.79334 0.0
C131 C 0.04048 0.45484 0.78958 0.0
H132 H 0.11276 0.623 0.5165 0.0
H133 H 0.11982 0.45391 0.514 0.0
H134 H 0.00669 0.3927 0.5131 0.0
H135 H 0.90652 0.38743 0.51266 0.0
H136 H 0.89951 0.55658 0.51299 0.0
H137 H 0.01261 0.61776 0.5151 0.0
C138 C 0.08981 0.57269 0.51597 0.0
C139 C 0.12515 0.54315 0.5156 0.0
C140 C 0.02488 0.53793 0.515 0.0
C141 C 0.09412 0.47794 0.51436 0.0
C142 C 0.02938 0.44295 0.51387 0.0
C143 C 0.92946 0.43773 0.51339 0.0
C144 C 0.89414 0.4673 0.51293 0.0
C145 C 0.99439 0.4725 0.51417 0.0
C146 C 0.92519 0.53252 0.51336 0.0
C147 C 0.98991 0.56749 0.5146 0.0
H148 H 0.5132 0.89946 0.83746 0.0
H149 H 0.33514 0.88636 0.835 0.0
H150 H 0.38655 1.00004 0.83292 0.0
H151 H 0.48164 0.10254 0.83355 0.0
H152 H 0.65966 0.11547 0.8346 0.0
H153 H 0.60824 1.00176 0.83537 0.0
C154 C 0.48531 0.92122 0.83654 0.0
C155 C 0.42002 0.884 0.83682 0.0
C156 C 0.51521 0.98646 0.83512 0.0
C157 C 0.38517 0.91348 0.83492 0.0
C158 C 0.41465 0.97855 0.83381 0.0
C159 C 0.5095 0.08073 0.83401 0.0
C160 C 0.5748 0.11795 0.83443 0.0
C161 C 0.47959 0.01543 0.83422 0.0
C162 C 0.60963 0.08836 0.83435 0.0
C163 C 0.58014 0.02329 0.83488 0.0
H164 H 0.38693 0.49318 0.18091 0.0
H165 H 0.55073 0.67577 0.17747 0.0
H166 H 0.61511 0.62801 0.17675 0.0
H167 H 0.62444 0.53502 0.17614 0.0
H168 H 0.46042 0.35248 0.17775 0.0
H169 H 0.39622 0.40032 0.18018 0.0
C170 C 0.43677 0.523 0.18021 0.0
C171 C 0.46384 0.58844 0.17943 0.0
C172 C 0.47329 0.49521 0.17939 0.0
C173 C 0.52852 0.62559 0.17814 0.0
C174 C 0.56531 0.5982 0.17772 0.0
C175 C 0.57461 0.50527 0.17721 0.0
C176 C 0.54741 0.43979 0.17692 0.0
C177 C 0.53811 0.5331 0.17822 0.0
C178 C 0.48272 0.40268 0.17797 0.0
C179 C 0.44603 0.43012 0.17936 0.0
H180 H 0.61476 0.3086 0.92811 0.0
H181 H 0.81204 0.38531 0.9269 0.0
H182 H 0.81848 0.41061 0.99156 0.0
H183 H 0.76745 0.40471 0.04977 0.0
H184 H 0.56922 0.31974 0.05258 0.0
H185 H 0.56366 0.30441 0.98654 0.0
C186 C 0.659 0.33136 0.94208 0.0
C187 C 0.71265 0.34478 0.92296 0.0
C188 C 0.66225 0.34414 0.97973 0.0
C189 C 0.76988 0.37388 0.94126 0.0
C190 C 0.77374 0.38856 0.97822 0.0
C191 C 0.72328 0.38367 0.03576 0.0
C192 C 0.66897 0.3634 0.05588 0.0
C193 C 0.72015 0.37301 -0.00207 0.0
C194 C 0.61175 0.3354 0.03756 0.0
C195 C 0.60846 0.32659 -0.00019 0.0
H196 H 0.40131 0.78028 0.28304 0.0
H197 H 0.295 0.58528 0.25636 0.0
H198 H 0.27209 0.56022 0.32151 0.0
H199 H 0.28823 0.59473 0.38618 0.0
H200 H 0.39204 0.79103 0.41096 0.0
H201 H 0.41028 0.81486 0.34608 0.0
C202 C 0.37269 0.73222 0.29145 0.0
C203 C 0.35024 0.6845 0.26522 0.0
C204 C 0.35984 0.71863 0.3285 0.0
C205 C 0.3125 0.62262 0.27623 0.0
C206 C 0.29989 0.60845 0.3134 0.0
C207 C 0.31478 0.6427 0.37731 0.0
C208 C 0.33942 0.69111 0.40337 0.0
C209 C 0.3243 0.65613 0.33982 0.0
C210 C 0.37273 0.75303 0.3915 0.0
C211 C 0.38323 0.76667 0.35443 0.0
H212 H 0.66754 0.27883 0.7112 0.0
H213 H 0.602 0.40386 0.73717 0.0
H214 H 0.60827 0.4319 0.67258 0.0
H215 H 0.63982 0.42624 0.6098 0.0
H216 H 0.70026 0.29733 0.58332 0.0
H217 H 0.6886 0.26504 0.6474 0.0
C218 C 0.65407 0.3118 0.70262 0.0
C219 C 0.63502 0.33992 0.72881 0.0
C220 C 0.65743 0.32719 0.66561 0.0
C221 C 0.6167 0.38168 0.71743 0.0
C222 C 0.6207 0.39795 0.68061 0.0
C223 C 0.65017 0.39087 0.61811 0.0
C224 C 0.67177 0.36471 0.59223 0.0
C225 C 0.64225 0.37195 0.65466 0.0
C226 C 0.68383 0.3181 0.60294 0.0
C227 C 0.67727 0.29984 0.63949 0.0
H228 H 0.38055 0.69639 0.93394 0.0
H229 H 0.1859 0.63385 0.93554 0.0
H230 H 0.18185 0.61523 0.00091 0.0
H231 H 0.23446 0.62161 0.0587 0.0
H232 H 0.43078 0.69311 0.05847 0.0
H233 H 0.43341 0.70281 0.99208 0.0
C234 C 0.33738 0.67832 0.9487 0.0
C235 C 0.28381 0.66673 0.93004 0.0
C236 C 0.33561 0.66933 0.98671 0.0
C237 C 0.22805 0.64376 0.94941 0.0
C238 C 0.22552 0.63285 0.98681 0.0
C239 C 0.2775 0.63853 0.04395 0.0
C240 C 0.33218 0.65642 0.06325 0.0
C241 C 0.27911 0.64613 0.00588 0.0
C242 C 0.38803 0.67924 0.04403 0.0
C243 C 0.38963 0.68484 0.00609 0.0
H244 H 0.72915 0.42514 0.38054 0.0
H245 H 0.64077 0.22751 0.39949 0.0
H246 H 0.62312 0.20786 0.33417 0.0
H247 H 0.62571 0.2458 0.27263 0.0
H248 H 0.71489 0.4424 0.25188 0.0
H249 H 0.74057 0.46391 0.31715 0.0
C250 C 0.70621 0.37779 0.37033 0.0
C251 C 0.68549 0.32773 0.39494 0.0
C252 C 0.69668 0.36681 0.33258 0.0
C253 C 0.65692 0.26678 0.38124 0.0
C254 C 0.64675 0.25549 0.34389 0.0
C255 C 0.65153 0.29346 0.28237 0.0
C256 C 0.66813 0.34258 0.25786 0.0
C257 C 0.6655 0.30501 0.3195 0.0
C258 C 0.70209 0.40406 0.27043 0.0
C259 C 0.71615 0.41615 0.30769 0.0
H260 H 0.33438 0.72118 0.71845 0.0
H261 H 0.39726 0.59498 0.74662 0.0
H262 H 0.39586 0.56868 0.6819 0.0
H263 H 0.37039 0.57722 0.61796 0.0
H264 H 0.31338 0.70808 0.58979 0.0
H265 H 0.31869 0.73718 0.65419 0.0
C266 C 0.34824 0.68824 0.71035 0.0
C267 C 0.36524 0.6594 0.73713 0.0
C268 C 0.34786 0.67403 0.67331 0.0
C269 C 0.38411 0.6177 0.7264 0.0
C270 C 0.3829 0.60245 0.6895 0.0
C271 C 0.35934 0.61226 0.626 0.0
C272 C 0.34069 0.64002 0.59945 0.0
C273 C 0.36379 0.62953 0.66284 0.0
C274 C 0.32764 0.68613 0.60989 0.0
C275 C 0.33058 0.7026 0.64662 0.0
loop_
_geom_bond_atom_site_label_1
_geom_bond_atom_site_label_2
_geom_bond_distance
_geom_bond_site_symmetry_2
_ccdc_geom_bond_type
Co0 O1 2.216 . S
Co0 O2 2.091 . S
Co0 O4 2.004 . S
Co0 O10 2.021 . S
Co0 O12 2.137 . S
Co0 O13 2.244 . S
O1 Co0 2.216 . S
O1 C8 1.247 . S
O2 Co0 2.091 . S
O2 C8 1.261 . S
C3 O12 1.247 . S
C3 O13 1.272 . S
O4 Co0 2.004 . S
O4 C9 1.259 . S
Co5 O6 2.061 . S
Co5 O11 2.052 . S
Co5 O13 2.135 . S
O6 Co5 2.061 . S
O6 C9 1.235 . S
C7 O10 1.238 . S
C7 O11 1.241 . S
C8 O1 1.247 . S
C8 O2 1.261 . S
C9 O4 1.259 . S
C9 O6 1.235 . S
O10 Co0 2.021 . S
O10 C7 1.238 . S
O11 Co5 2.052 . S
O11 C7 1.241 . S
O12 Co0 2.137 . S
O12 C3 1.247 . S
O13 Co0 2.244 . S
O13 C3 1.272 . S
O13 Co5 2.135 . S
Co14 O15 2.216 . S
Co14 O16 2.091 . S
Co14 O18 2.004 . S
Co14 O24 2.021 . S
Co14 O26 2.137 . S
Co14 O27 2.244 . S
O15 Co14 2.216 . S
O15 C22 1.247 . S
O16 Co14 2.091 . S
O16 C22 1.261 . S
C17 O26 1.247 . S
C17 O27 1.272 . S
O18 Co14 2.004 . S
O18 C23 1.259 . S
Co19 O20 2.061 . S
Co19 O25 2.052 . S
Co19 O27 2.135 . S
O20 Co19 2.061 . S
O20 C23 1.235 . S
C21 O24 1.238 . S
C21 O25 1.241 . S
C22 O15 1.247 . S
C22 O16 1.261 . S
C23 O18 1.259 . S
C23 O20 1.235 . S
O24 Co14 2.021 . S
O24 C21 1.238 . S
O25 Co19 2.052 . S
O25 C21 1.241 . S
O26 Co14 2.137 . S
O26 C17 1.247 . S
O27 Co14 2.244 . S
O27 C17 1.272 . S
O27 Co19 2.135 . S
Co28 O29 2.216 . S
Co28 O30 2.091 . S
Co28 O32 2.004 . S
Co28 O38 2.021 . S
Co28 O40 2.137 . S
Co28 O41 2.244 . S
O29 Co28 2.216 . S
O29 C36 1.247 . S
O30 Co28 2.091 . S
O30 C36 1.261 . S
C31 O40 1.247 . S
C31 O41 1.272 . S
O32 Co28 2.004 . S
O32 C37 1.259 . S
Co33 O34 2.061 . S
Co33 O39 2.052 . S
Co33 O41 2.135 . S
O34 Co33 2.061 . S
O34 C37 1.235 . S
C35 O38 1.238 . S
C35 O39 1.241 . S
C36 O29 1.247 . S
C36 O30 1.261 . S
C37 O32 1.259 . S
C37 O34 1.235 . S
O38 Co28 2.021 . S
O38 C35 1.238 . S
O39 Co33 2.052 . S
O39 C35 1.241 . S
O40 Co28 2.137 . S
O40 C31 1.247 . S
O41 Co28 2.244 . S
O41 C31 1.272 . S
O41 Co33 2.135 . S
Co42 O43 2.216 . S
Co42 O44 2.091 . S
Co42 O46 2.004 . S
Co42 O52 2.021 . S
Co42 O54 2.137 . S
Co42 O55 2.244 . S
O43 Co42 2.216 . S
O43 C50 1.247 . S
O44 Co42 2.091 . S
O44 C50 1.261 . S
C45 O54 1.247 . S
C45 O55 1.272 . S
O46 Co42 2.004 . S
O46 C51 1.259 . S
Co47 O48 2.061 . S
Co47 O53 2.052 . S
Co47 O55 2.135 . S
O48 Co47 2.061 . S
O48 C51 1.235 . S
C49 O52 1.238 . S
C49 O53 1.241 . S
C50 O43 1.247 . S
C50 O44 1.261 . S
C51 O46 1.259 . S
C51 O48 1.235 . S
O52 Co42 2.021 . S
O52 C49 1.238 . S
O53 Co47 2.052 . S
O53 C49 1.241 . S
O54 Co42 2.137 . S
O54 C45 1.247 . S
O55 Co42 2.244 . S
O55 C45 1.272 . S
O55 Co47 2.135 . S
Co56 O57 2.216 . S
Co56 O58 2.091 . S
Co56 O60 2.004 . S
Co56 O66 2.021 . S
Co56 O68 2.137 . S
Co56 O69 2.244 . S
O57 Co56 2.216 . S
O57 C64 1.247 . S
O58 Co56 2.091 . S
O58 C64 1.261 . S
C59 O68 1.247 . S
C59 O69 1.272 . S
O60 Co56 2.004 . S
O60 C65 1.259 . S
Co61 O62 2.061 . S
Co61 O67 2.052 . S
Co61 O69 2.135 . S
O62 Co61 2.061 . S
O62 C65 1.235 . S
C63 O66 1.238 . S
C63 O67 1.241 . S
C64 O57 1.247 . S
C64 O58 1.261 . S
C65 O60 1.259 . S
C65 O62 1.235 . S
O66 Co56 2.021 . S
O66 C63 1.238 . S
O67 Co61 2.052 . S
O67 C63 1.241 . S
O68 Co56 2.137 . S
O68 C59 1.247 . S
O69 Co56 2.244 . S
O69 C59 1.272 . S
O69 Co61 2.135 . S
Co70 O71 2.216 . S
Co70 O72 2.091 . S
Co70 O74 2.004 . S
Co70 O80 2.021 . S
Co70 O82 2.137 . S
Co70 O83 2.244 . S
O71 Co70 2.216 . S
O71 C78 1.247 . S
O72 Co70 2.091 . S
O72 C78 1.261 . S
C73 O82 1.247 . S
C73 O83 1.272 . S
O74 Co70 2.004 . S
O74 C79 1.259 . S
Co75 O76 2.061 . S
Co75 O81 2.052 . S
Co75 O83 2.135 . S
O76 Co75 2.061 . S
O76 C79 1.235 . S
C77 O80 1.238 . S
C77 O81 1.241 . S
C78 O71 1.247 . S
C78 O72 1.261 . S
C79 O74 1.259 . S
C79 O76 1.235 . S
O80 Co70 2.021 . S
O80 C77 1.238 . S
O81 Co75 2.052 . S
O81 C77 1.241 . S
O82 Co70 2.137 . S
O82 C73 1.247 . S
O83 Co70 2.244 . S
O83 C73 1.272 . S
O83 Co75 2.135 . S
H84 C90 0.930 . S
H85 C93 0.930 . S
H86 C94 0.930 . S
H87 C95 0.930 . S
H88 C98 0.930 . S
H89 C99 0.930 . S
C90 H84 0.930 . S
C90 C91 1.355 . S
C90 C92 1.415 . S
C91 C90 1.355 . S
C91 C93 1.419 . S
C92 C90 1.415 . S
C92 C97 1.425 1_545 S
C92 C99 1.409 1_545 S
C93 H85 0.930 . S
C93 C91 1.419 . S
C93 C94 1.362 . S
C94 H86 0.930 . S
C94 C93 1.362 . S
C94 C97 1.409 1_545 S
C95 H87 0.930 . S
C95 C96 1.355 . S
C95 C97 1.415 . S
C96 C95 1.355 . S
C96 C98 1.419 . S
C97 C92 1.425 1_565 S
C97 C94 1.409 1_565 S
C97 C95 1.415 . S
C98 H88 0.930 . S
C98 C96 1.419 . S
C98 C99 1.362 . S
C99 H89 0.930 . S
C99 C92 1.409 1_565 S
C99 C98 1.362 . S
H100 C106 0.930 . S
H101 C109 0.930 . S
H102 C110 0.930 . S
H103 C111 0.930 . S
H104 C114 0.930 . S
H105 C115 0.930 . S
C106 H100 0.930 . S
C106 C107 1.355 . S
C106 C108 1.415 . S
C107 C106 1.355 . S
C107 C109 1.419 . S
C108 C106 1.415 . S
C108 C113 1.425 . S
C108 C115 1.409 . S
C109 H101 0.930 . S
C109 C107 1.419 . S
C109 C110 1.362 . S
C110 H102 0.930 . S
C110 C109 1.362 . S
C110 C113 1.409 . S
C111 H103 0.930 . S
C111 C112 1.355 . S
C111 C113 1.415 . S
C112 C111 1.355 . S
C112 C114 1.419 . S
C113 C108 1.425 . S
C113 C110 1.409 . S
C113 C111 1.415 . S
C114 H104 0.930 . S
C114 C112 1.419 . S
C114 C115 1.362 . S
C115 H105 0.930 . S
C115 C108 1.409 . S
C115 C114 1.362 . S
H116 C122 0.930 . S
H117 C125 0.930 . S
H118 C126 0.930 . S
H119 C127 0.930 . S
H120 C130 0.930 . S
H121 C131 0.930 . S
C122 H116 0.930 . S
C122 C123 1.355 . S
C122 C124 1.415 . S
C123 C122 1.355 . S
C123 C125 1.419 . S
C124 C122 1.415 . S
C124 C129 1.425 1_655 S
C124 C131 1.409 1_655 S
C125 H117 0.930 . S
C125 C123 1.419 . S
C125 C126 1.362 . S
C126 H118 0.930 . S
C126 C125 1.362 . S
C126 C129 1.409 1_655 S
C127 H119 0.930 . S
C127 C128 1.355 . S
C127 C129 1.415 . S
C128 C127 1.355 . S
C128 C130 1.419 . S
C129 C124 1.425 1_455 S
C129 C126 1.409 1_455 S
C129 C127 1.415 . S
C130 H120 0.930 . S
C130 C128 1.419 . S
C130 C131 1.362 . S
C131 H121 0.930 . S
C131 C124 1.409 1_455 S
C131 C130 1.362 . S
H132 C138 0.930 . S
H133 C141 0.930 . S
H134 C142 0.930 1_655 S
H135 C143 0.930 . S
H136 C146 0.930 . S
H137 C147 0.930 1_455 S
C138 H132 0.930 . S
C138 C139 1.355 . S
C138 C140 1.415 . S
C139 C138 1.355 . S
C139 C141 1.419 . S
C140 C138 1.415 . S
C140 C145 1.425 1_455 S
C140 C147 1.409 1_455 S
C141 H133 0.930 . S
C141 C139 1.419 . S
C141 C142 1.362 . S
C142 H134 0.930 1_455 S
C142 C141 1.362 . S
C142 C145 1.409 1_455 S
C143 H135 0.930 . S
C143 C144 1.355 . S
C143 C145 1.415 . S
C144 C143 1.355 . S
C144 C146 1.419 . S
C145 C140 1.425 1_655 S
C145 C142 1.409 1_655 S
C145 C143 1.415 . S
C146 H136 0.930 . S
C146 C144 1.419 . S
C146 C147 1.362 . S
C147 H137 0.930 1_655 S
C147 C140 1.409 1_655 S
C147 C146 1.362 . S
H148 C154 0.930 . S
H149 C157 0.930 . S
H150 C158 0.930 . S
H151 C159 0.930 . S
H152 C162 0.930 . S
H153 C163 0.930 . S
C154 H148 0.930 . S
C154 C155 1.355 . S
C154 C156 1.415 . S
C155 C154 1.355 . S
C155 C157 1.419 . S
C156 C154 1.415 . S
C156 C161 1.425 1_565 S
C156 C163 1.409 1_565 S
C157 H149 0.930 . S
C157 C155 1.419 . S
C157 C158 1.362 . S
C158 H150 0.930 . S
C158 C157 1.362 . S
C158 C161 1.409 1_565 S
C159 H151 0.930 . S
C159 C160 1.355 . S
C159 C161 1.415 . S
C160 C159 1.355 . S
C160 C162 1.419 . S
C161 C156 1.425 1_545 S
C161 C158 1.409 1_545 S
C161 C159 1.415 . S
C162 H152 0.930 . S
C162 C160 1.419 . S
C162 C163 1.362 . S
C163 H153 0.930 . S
C163 C156 1.409 1_545 S
C163 C162 1.362 . S
H164 C170 0.930 . S
H165 C173 0.930 . S
H166 C174 0.930 . S
H167 C175 0.930 . S
H168 C178 0.930 . S
H169 C179 0.930 . S
C170 H164 0.930 . S
C170 C171 1.355 . S
C170 C172 1.415 . S
C171 C170 1.355 . S
C171 C173 1.419 . S
C172 C170 1.415 . S
C172 C177 1.425 . S
C172 C179 1.409 . S
C173 H165 0.930 . S
C173 C171 1.419 . S
C173 C174 1.362 . S
C174 H166 0.930 . S
C174 C173 1.362 . S
C174 C177 1.409 . S
C175 H167 0.930 . S
C175 C176 1.355 . S
C175 C177 1.415 . S
C176 C175 1.355 . S
C176 C178 1.419 . S
C177 C172 1.425 . S
C177 C174 1.409 . S
C177 C175 1.415 . S
C178 H168 0.930 . S
C178 C176 1.419 . S
C178 C179 1.362 . S
C179 H169 0.930 . S
C179 C172 1.409 . S
C179 C178 1.362 . S
H180 C186 0.930 . S
H181 C189 0.930 . S
H182 C190 0.930 . S
H183 C191 0.930 . S
H184 C194 0.930 . S
H185 C195 0.930 . S
C186 H180 0.930 . S
C186 C187 1.355 . S
C186 C188 1.415 . S
C187 C186 1.355 . S
C187 C189 1.419 . S
C188 C186 1.415 . S
C188 C193 1.425 1_556 S
C188 C195 1.409 1_556 S
C189 H181 0.930 . S
C189 C187 1.419 . S
C189 C190 1.362 . S
C190 H182 0.930 . S
C190 C189 1.362 . S
C190 C193 1.409 1_556 S
C191 H183 0.930 . S
C191 C192 1.355 . S
C191 C193 1.415 . S
C192 C191 1.355 . S
C192 C194 1.419 . S
C193 C188 1.425 1_554 S
C193 C190 1.409 1_554 S
C193 C191 1.415 . S
C194 H184 0.930 . S
C194 C192 1.419 . S
C194 C195 1.362 . S
C195 H185 0.930 . S
C195 C188 1.409 1_554 S
C195 C194 1.362 . S
H196 C202 0.930 . S
H197 C205 0.930 . S
H198 C206 0.930 . S
H199 C207 0.930 . S
H200 C210 0.930 . S
H201 C211 0.930 . S
C202 H196 0.930 . S
C202 C203 1.355 . S
C202 C204 1.415 . S
C203 C202 1.355 . S
C203 C205 1.419 . S
C204 C202 1.415 . S
C204 C209 1.425 . S
C204 C211 1.409 . S
C205 H197 0.930 . S
C205 C203 1.419 . S
C205 C206 1.362 . S
C206 H198 0.930 . S
C206 C205 1.362 . S
C206 C209 1.409 . S
C207 H199 0.930 . S
C207 C208 1.355 . S
C207 C209 1.415 . S
C208 C207 1.355 . S
C208 C210 1.419 . S
C209 C204 1.425 . S
C209 C206 1.409 . S
C209 C207 1.415 . S
C210 H200 0.930 . S
C210 C208 1.419 . S
C210 C211 1.362 . S
C211 H201 0.930 . S
C211 C204 1.409 . S
C211 C210 1.362 . S
H212 C218 0.930 . S
H213 C221 0.930 . S
H214 C222 0.930 . S
H215 C223 0.930 . S
H216 C226 0.930 . S
H217 C227 0.930 . S
C218 H212 0.930 . S
C218 C219 1.355 . S
C218 C220 1.415 . S
C219 C218 1.355 . S
C219 C221 1.419 . S
C220 C218 1.415 . S
C220 C225 1.425 . S
C220 C227 1.409 . S
C221 H213 0.930 . S
C221 C219 1.419 . S
C221 C222 1.362 . S
C222 H214 0.930 . S
C222 C221 1.362 . S
C222 C225 1.409 . S
C223 H215 0.930 . S
C223 C224 1.355 . S
C223 C225 1.415 . S
C224 C223 1.355 . S
C224 C226 1.419 . S
C225 C220 1.425 . S
C225 C222 1.409 . S
C225 C223 1.415 . S
C226 H216 0.930 . S
C226 C224 1.419 . S
C226 C227 1.362 . S
C227 H217 0.930 . S
C227 C220 1.409 . S
C227 C226 1.362 . S
H228 C234 0.930 . S
H229 C237 0.930 . S
H230 C238 0.930 . S
H231 C239 0.930 . S
H232 C242 0.930 . S
H233 C243 0.930 . S
C234 H228 0.930 . S
C234 C235 1.355 . S
C234 C236 1.415 . S
C235 C234 1.355 . S
C235 C237 1.419 . S
C236 C234 1.415 . S
C236 C241 1.425 1_556 S
C236 C243 1.409 1_556 S
C237 H229 0.930 . S
C237 C235 1.419 . S
C237 C238 1.362 . S
C238 H230 0.930 . S
C238 C237 1.362 . S
C238 C241 1.409 1_556 S
C239 H231 0.930 . S
C239 C240 1.355 . S
C239 C241 1.415 . S
C240 C239 1.355 . S
C240 C242 1.419 . S
C241 C236 1.425 1_554 S
C241 C238 1.409 1_554 S
C241 C239 1.415 . S
C242 H232 0.930 . S
C242 C240 1.419 . S
C242 C243 1.362 . S
C243 H233 0.930 . S
C243 C236 1.409 1_554 S
C243 C242 1.362 . S
H244 C250 0.930 . S
H245 C253 0.930 . S
H246 C254 0.930 . S
H247 C255 0.930 . S
H248 C258 0.930 . S
H249 C259 0.930 . S
C250 H244 0.930 . S
C250 C251 1.355 . S
C250 C252 1.415 . S
C251 C250 1.355 . S
C251 C253 1.419 . S
C252 C250 1.415 . S
C252 C257 1.425 . S
C252 C259 1.409 . S
C253 H245 0.930 . S
C253 C251 1.419 . S
C253 C254 1.362 . S
C254 H246 0.930 . S
C254 C253 1.362 . S
C254 C257 1.409 . S
C255 H247 0.930 . S
C255 C256 1.355 . S
C255 C257 1.415 . S
C256 C255 1.355 . S
C256 C258 1.419 . S
C257 C252 1.425 . S
C257 C254 1.409 . S
C257 C255 1.415 . S
C258 H248 0.930 . S
C258 C256 1.419 . S
C258 C259 1.362 . S
C259 H249 0.930 . S
C259 C252 1.409 . S
C259 C258 1.362 . S
H260 C266 0.930 . S
H261 C269 0.930 . S
H262 C270 0.930 . S
H263 C271 0.930 . S
H264 C274 0.930 . S
H265 C275 0.930 . S
C266 H260 0.930 . S
C266 C267 1.355 . S
C266 C268 1.415 . S
C267 C266 1.355 . S
C267 C269 1.419 . S
C268 C266 1.415 . S
C268 C273 1.425 . S
C268 C275 1.409 . S
C269 H261 0.930 . S
C269 C267 1.419 . S
C269 C270 1.362 . S
C270 H262 0.930 . S
C270 C269 1.362 . S
C270 C273 1.409 . S
C271 H263 0.930 . S
C271 C272 1.355 . S
C271 C273 1.415 . S
C272 C271 1.355 . S
C272 C274 1.419 . S
C273 C268 1.425 . S
C273 C270 1.409 . S
C273 C271 1.415 . S
C274 H264 0.930 . S
C274 C272 1.419 . S
C274 C275 1.362 . S
C275 H265 0.930 . S
C275 C268 1.409 . S
C275 C274 1.362 . S
C91 C8 1.417 . S
C96 C50 1.415 . S
C107 C22 1.421 . S
C112 C64 1.416 . S
C123 C36 1.415 . S
C128 C78 1.418 . S
C139 C23 1.488 . S
C144 C65 1.494 . S
C155 C79 1.456 . S
C160 C37 1.449 . S
C171 C51 1.491 . S
C176 C9 1.495 . S
C187 C31 1.265 . S
C192 C7 1.307 . S
C203 C45 1.323 . S
C208 C21 1.349 . S
C219 C35 1.312 . S
C224 C59 1.283 . S
C235 C73 1.255 . S
C240 C49 1.299 . S
C251 C63 1.306 . S
C256 C3 1.273 . S
C267 C77 1.291 . S
C272 C17 1.248 . S
