# Generated by pormake.
# Topology rob, (6)-cn, num edge types: 1
# Building blocks:
#     Node 0, Type 0, BuildingBlock: HISSIN_clean_sbu_0, # of connection points: 6
#     Node 1, Type 0, BuildingBlock: HISSIN_clean_sbu_0, # of connection points: 6
#     Node 2, Type 0, BuildingBlock: HISSIN_clean_sbu_0, # of connection points: 6
#     Node 3, Type 0, BuildingBlock: HISSIN_clean_sbu_0, # of connection points: 6
#     Edge 4, Type (0, 0), BuildingBlock: FUNLAD_clean_linker_1, # of connection points: 2
#     Edge 5, Type (0, 0), BuildingBlock: FUNLAD_clean_linker_1, # of connection points: 2
#     Edge 6, Type (0, 0), BuildingBlock: FUNLAD_clean_linker_1, # of connection points: 2
#     Edge 7, Type (0, 0), BuildingBlock: FUNLAD_clean_linker_1, # of connection points: 2
#     Edge 8, Type (0, 0), BuildingBlock: FUNLAD_clean_linker_1, # of connection points: 2
#     Edge 9, Type (0, 0), BuildingBlock: FUNLAD_clean_linker_1, # of connection points: 2
#     Edge 10, Type (0, 0), BuildingBlock: FUNLAD_clean_linker_1, # of connection points: 2
#     Edge 11, Type (0, 0), BuildingBlock: FUNLAD_clean_linker_1, # of connection points: 2
#     Edge 12, Type (0, 0), BuildingBlock: FUNLAD_clean_linker_1, # of connection points: 2
#     Edge 13, Type (0, 0), BuildingBlock: FUNLAD_clean_linker_1, # of connection points: 2
#     Edge 14, Type (0, 0), BuildingBlock: FUNLAD_clean_linker_1, # of connection points: 2
#     Edge 15, Type (0, 0), BuildingBlock: FUNLAD_clean_linker_1, # of connection points: 2
# Relax obj value: 0.032
# Max RMSD: 0.133
# Mean RMSD: 0.133
data_MOF--net-rob--node1-HISSIN_clean_sbu_0--edge1-FUNLAD_clean_linker_1
_symmetry_space_group_name_H-M    P1
_symmetry_Int_Tables_number       1
_symmetry_cell_setting            triclinic
loop_
_symmetry_equiv_pos_as_xyz
'x, y, z'
_cell_length_a     16.635442
_cell_length_b     26.752562
_cell_length_c     37.538157
_cell_angle_alpha  95.561303
_cell_angle_beta   89.980551
_cell_angle_gamma 90.219979
loop_
_atom_site_label
_atom_site_type_symbol
_atom_site_fract_x
_atom_site_fract_y
_atom_site_fract_z
_atom_type_partial_charge
Eu0 Eu 0.20013 0.27723 0.03625 0.0
Eu1 Eu 0.32879 0.20997 0.98371 0.0
C2 C 0.17036 0.16033 1.01409 0.0
C3 C 0.07235 0.31673 0.11729 0.0
C4 C 0.07156 0.26804 0.12824 0.0
C5 C 0.0222 0.34902 0.17585 0.0
C6 C 0.04572 0.25987 0.16262 0.0
C7 C 0.04743 0.35709 0.14126 0.0
C8 C 0.02179 0.3002 0.18708 0.0
C9 C 0.10154 0.3257 0.08141 0.0
O10 O 0.26377 0.2586 0.94744 0.0
O11 O 0.14854 0.27476 0.98041 0.0
C12 C 0.18821 0.27262 0.95001 0.0
O13 O 0.28036 0.33395 1.01296 0.0
O14 O 0.3511 0.1501 0.94137 0.0
O15 O 0.45153 0.19217 0.96559 0.0
O16 O 0.3903 0.28323 1.00179 0.0
C17 C 0.35763 0.3279 1.00674 0.0
O18 O 0.30213 0.25618 0.07116 0.0
O19 O 0.34721 0.18457 0.03881 0.0
O20 O 0.21597 0.16377 0.98599 0.0
O21 O 0.17775 0.33654 0.0793 0.0
O22 O 0.07806 0.29359 0.05503 0.0
O23 O 0.1686 0.19595 0.0407 0.0
C24 C 0.4602 0.16578 0.90376 0.0
C25 C 0.53969 0.15191 0.89551 0.0
C26 C 0.444 0.19115 0.84368 0.0
C27 C 0.57125 0.15765 0.86159 0.0
C28 C 0.41273 0.18582 0.87768 0.0
C29 C 0.52357 0.17671 0.83518 0.0
C30 C 0.42779 0.15959 0.93962 0.0
C31 C 0.34164 0.21362 0.069 0.0
H32 H 0.09111 0.23631 0.11023 0.0
H33 H 0.00224 0.38109 0.19328 0.0
H34 H 0.04512 0.22181 0.17021 0.0
H35 H 0.04764 0.39493 0.13325 0.0
H36 H 0.57744 0.13673 0.91534 0.0
H37 H 0.40622 0.20755 0.82447 0.0
H38 H 0.63297 0.14681 0.85588 0.0
H39 H 0.35151 0.19756 0.88362 0.0
Eu40 Eu 0.64968 0.78822 0.06182 0.0
Eu41 Eu 0.80187 0.73723 1.01392 0.0
C42 C 0.65525 0.67169 0.0392 0.0
C43 C 0.50917 0.82131 0.14021 0.0
C44 C 0.42914 0.83008 0.15054 0.0
C45 C 0.54064 0.80195 0.20066 0.0
C46 C 0.40487 0.82477 0.18568 0.0
C47 C 0.5647 0.80694 0.16545 0.0
C48 C 0.46036 0.81114 0.21124 0.0
C49 C 0.5339 0.82621 0.10301 0.0
O50 O 0.72407 0.77467 0.97535 0.0
O51 O 0.60323 0.77498 1.0051 0.0
C52 C 0.64526 0.77738 0.97567 0.0
O53 O 0.71502 0.85113 0.03837 0.0
O54 O 0.85985 0.67307 0.98348 0.0
O55 O 0.9161 0.74623 0.98676 0.0
O56 O 0.83915 0.81481 0.03728 0.0
C57 C 0.79356 0.85484 0.0378 0.0
O58 O 0.75011 0.77946 0.10086 0.0
O59 O 0.82817 0.71834 0.07033 0.0
O60 O 0.69953 0.68093 1.01159 0.0
O61 O 0.60249 0.84875 0.09891 0.0
O62 O 0.52522 0.78623 0.08052 0.0
O63 O 0.647 0.70526 0.0667 0.0
C64 C 0.93251 0.69441 0.93267 0.0
C65 C 0.89426 0.72522 0.90963 0.0
C66 C 0.00593 0.65408 0.8818 0.0
C67 C 0.91264 0.72099 0.873 0.0
C68 C 0.98777 0.6585 0.91839 0.0
C69 C 0.96979 0.68575 0.85868 0.0
C70 C 0.91723 0.70033 0.97162 0.0
C71 C 0.80617 0.74494 0.10012 0.0
H72 H 0.38529 0.84081 0.13137 0.0
H73 H 0.58467 0.78976 0.21914 0.0
H74 H 0.34254 0.83153 0.19297 0.0
H75 H 0.62659 0.7992 0.15787 0.0
H76 H 0.8507 0.75289 0.92003 0.0
H77 H 0.04967 0.62635 0.87164 0.0
H78 H 0.88154 0.74526 0.85621 0.0
H79 H 0.01775 0.63423 0.93565 0.0
Eu80 Eu 0.16109 0.70602 0.50607 0.0
Eu81 Eu 0.28238 0.77575 0.5612 0.0
C82 C 0.13196 0.82335 0.52342 0.0
C83 C 0.05771 0.66039 0.41965 0.0
C84 C 0.11318 0.68723 0.40061 0.0
C85 C 0.98023 0.64202 0.36492 0.0
C86 C 0.10281 0.69101 0.36399 0.0
C87 C 0.99115 0.63786 0.40158 0.0
C88 C 0.03598 0.66887 0.34573 0.0
C89 C 0.06973 0.65598 0.45819 0.0
O90 O 0.21618 0.72352 0.5945 0.0
O91 O 0.10148 0.71281 0.56081 0.0
C92 C 0.13924 0.71297 0.59164 0.0
O93 O 0.24142 0.65102 0.53076 0.0
O94 O 0.29384 0.83238 0.60663 0.0
O95 O 0.40108 0.80036 0.58121 0.0
O96 O 0.34846 0.70379 0.54511 0.0
C97 C 0.31784 0.65855 0.53856 0.0
O98 O 0.26707 0.72761 0.47337 0.0
O99 O 0.31029 0.79951 0.50645 0.0
O100 O 0.17117 0.82146 0.55356 0.0
O101 O 0.14086 0.64118 0.46718 0.0
O102 O 0.04403 0.69346 0.47998 0.0
O103 O 0.13497 0.78649 0.49786 0.0
C104 C 0.40578 0.82373 0.64357 0.0
C105 C 0.38226 0.78381 0.66292 0.0
C106 C 0.48872 0.85672 0.69362 0.0
C107 C 0.41135 0.78054 0.6976 0.0
C108 C 0.45933 0.86 0.65905 0.0
C109 C 0.46522 0.81708 0.7134 0.0
C110 C 0.3719 0.82932 0.60803 0.0
C111 C 0.30746 0.77013 0.47633 0.0
H112 H 0.16471 0.7052 0.41408 0.0
H113 H 0.92904 0.62337 0.35167 0.0
H114 H 0.14681 0.71177 0.34997 0.0
H115 H 0.94784 0.61684 0.41576 0.0
H116 H 0.34035 0.75563 0.6514 0.0
H117 H 0.52969 0.88553 0.70502 0.0
H118 H 0.38994 0.74996 0.7119 0.0
H119 H 0.47772 0.89125 0.64456 0.0
Eu120 Eu 0.69666 0.2175 0.48543 0.0
Eu121 Eu 0.82121 0.28823 0.5382 0.0
C122 C 0.6604 0.33299 0.50663 0.0
C123 C 0.57181 0.17536 0.40407 0.0
C124 C 0.57165 0.22396 0.39296 0.0
C125 C 0.52027 0.14278 0.34581 0.0
C126 C 0.54521 0.23198 0.35868 0.0
C127 C 0.54604 0.13485 0.38031 0.0
C128 C 0.52009 0.19154 0.33454 0.0
C129 C 0.60089 0.16678 0.43998 0.0
O130 O 0.75884 0.2376 0.57382 0.0
O131 O 0.64367 0.22018 0.54107 0.0
C132 C 0.68371 0.22254 0.57137 0.0
O133 O 0.77501 0.16284 0.511 0.0
O134 O 0.83824 0.3472 0.5818 0.0
O135 O 0.94235 0.31075 0.5566 0.0
O136 O 0.88425 0.21459 0.52292 0.0
C137 C 0.8516 0.16963 0.5185 0.0
O138 O 0.80112 0.23828 0.4516 0.0
O139 O 0.84048 0.31233 0.48272 0.0
O140 O 0.70499 0.33098 0.53529 0.0
O141 O 0.67754 0.15767 0.44234 0.0
O142 O 0.57564 0.19832 0.46628 0.0
O143 O 0.66365 0.29782 0.47988 0.0
C144 C 0.94965 0.33458 0.61908 0.0
C145 C 0.90314 0.31472 0.6457 0.0
C146 C 0.0625 0.34298 0.66043 0.0
C147 C 0.93581 0.30956 0.67952 0.0
C148 C 0.02958 0.34851 0.62672 0.0
C149 C 0.01589 0.32403 0.68736 0.0
C150 C 0.91576 0.34089 0.58338 0.0
C151 C 0.83811 0.28186 0.45309 0.0
H152 H 0.59208 0.25573 0.4108 0.0
H153 H 0.49936 0.11077 0.32841 0.0
H154 H 0.54541 0.2699 0.35082 0.0
H155 H 0.54582 0.09709 0.38846 0.0
H156 H 0.84155 0.30299 0.64037 0.0
H157 H 0.1245 0.35396 0.66558 0.0
H158 H 0.89859 0.2933 0.69907 0.0
H159 H 0.06666 0.36367 0.60657 0.0
H160 H 0.57288 0.61924 0.06265 0.0
C161 C 0.60925 0.6244 0.0392 0.0
H162 H 0.64102 0.59442 0.98702 0.0
H163 H 0.47582 0.40602 0.06906 0.0
H164 H 0.59024 0.41491 0.10911 0.0
H165 H 0.69144 0.48143 0.10378 0.0
H166 H 0.67774 0.54008 0.05885 0.0
C167 C 0.60767 0.58897 1.01125 0.0
C168 C 0.55352 0.5443 1.01128 0.0
C169 C 0.56468 0.50865 0.03649 0.0
C170 C 0.5087 0.46856 0.03825 0.0
C171 C 0.5184 0.4357 0.06535 0.0
C172 C 0.58356 0.4406 0.08873 0.0
C173 C 0.64034 0.47817 0.08584 0.0
C174 C 0.63137 0.51185 0.06008 0.0
H175 H 0.47413 0.36479 0.99914 0.0
C176 C 0.41132 0.37184 1.00584 0.0
H177 H 0.32409 0.42741 1.02005 0.0
H178 H 0.51489 0.60532 0.95931 0.0
H179 H 0.40434 0.59383 0.91724 0.0
H180 H 0.31151 0.52185 0.91826 0.0
H181 H 0.32816 0.46119 0.96166 0.0
C182 C 0.38691 0.41937 1.01409 0.0
C183 C 0.44412 0.46243 1.01344 0.0
C184 C 0.4342 0.4973 0.98765 0.0
C185 C 0.48868 0.53834 0.98666 0.0
C186 C 0.47615 0.57307 0.96102 0.0
C187 C 0.41279 0.56699 0.93671 0.0
C188 C 0.36046 0.5265 0.93731 0.0
C189 C 0.37069 0.49198 0.96242 0.0
H190 H 0.43513 0.62371 0.54692 0.0
C191 C 0.37313 0.61563 0.53911 0.0
H192 H 0.28972 0.55877 0.52132 0.0
H193 H 0.65287 0.46186 0.48197 0.0
H194 H 0.65934 0.52247 0.43808 0.0
H195 H 0.55093 0.58423 0.43366 0.0
H196 H 0.43623 0.58633 0.47361 0.0
C197 C 0.35156 0.56801 0.52866 0.0
C198 C 0.41143 0.52657 0.52795 0.0
C199 C 0.47633 0.52434 0.50327 0.0
C200 C 0.53688 0.48711 0.50465 0.0
C201 C 0.60346 0.48785 0.48116 0.0
C202 C 0.60824 0.5227 0.45596 0.0
C203 C 0.54738 0.55759 0.45356 0.0
C204 C 0.48209 0.55859 0.47685 0.0
H205 H 0.56665 0.37467 0.4804 0.0
C206 C 0.60305 0.37458 0.50444 0.0
H207 H 0.62677 0.41047 0.55598 0.0
H208 H 0.29326 0.51892 0.57784 0.0
H209 H 0.28293 0.45564 0.61978 0.0
H210 H 0.38499 0.38912 0.62069 0.0
H211 H 0.49821 0.38556 0.57983 0.0
C212 C 0.59305 0.41116 0.53125 0.0
C213 C 0.53043 0.45064 0.52958 0.0
C214 C 0.46416 0.45195 0.55347 0.0
C215 C 0.4047 0.48995 0.55266 0.0
C216 C 0.33976 0.49067 0.57712 0.0
C217 C 0.3331 0.45459 0.60135 0.0
C218 C 0.3906 0.41716 0.60188 0.0
C219 C 0.45543 0.41564 0.5783 0.0
H220 H 0.12934 0.08476 0.99352 0.0
C221 C 0.12152 0.11436 1.01521 0.0
H222 H 0.06076 0.13629 0.06362 0.0
H223 H 0.859 0.9423 0.97664 0.0
H224 H 0.83105 -0.0009 0.93178 0.0
H225 H 0.88636 0.08519 0.93744 0.0
H226 H 0.97164 0.11445 0.9876 0.0
C227 C 0.06813 0.10772 0.04124 0.0
C228 C 0.0223 0.05959 0.04127 0.0
C229 C 0.96852 0.04407 1.01293 0.0
C230 C 0.93269 0.99545 1.01082 0.0
C231 C 0.88456 0.97962 0.98065 0.0
C232 C 0.86849 0.01175 0.95449 0.0
C233 C 0.89991 0.06013 0.95759 0.0
C234 C 0.94935 0.0763 0.98638 0.0
H235 H 0.79063 0.93765 0.04074 0.0
C236 C 0.83028 0.90529 0.03856 0.0
H237 H 0.95053 0.88037 0.03525 0.0
H238 H 0.11835 0.07866 0.10032 0.0
H239 H 0.13935 0.02405 0.14734 0.0
H240 H 0.07156 0.94166 0.14543 0.0
H241 H 0.98284 0.91319 0.09632 0.0
C242 C 0.91015 0.91232 0.0364 0.0
C243 C 0.94664 0.96357 0.0383 0.0
C244 C -0.00265 0.98011 0.06751 0.0
C245 C 0.03542 0.02802 0.06894 0.0
C246 C 0.08715 0.04294 0.09805 0.0
C247 C 0.09983 0.01193 0.12524 0.0
C248 C 0.06173 0.96553 0.12415 0.0
C249 C 0.01107 0.9496 0.09572 0.0
H250 H 0.96606 0.13279 0.52969 0.0
C251 C 0.9034 0.1259 0.52251 0.0
H252 H 0.81288 0.07093 0.51152 0.0
H253 H 0.15647 0.94319 0.48852 0.0
H254 H 0.17903 0.99113 0.43788 0.0
H255 H 0.08567 0.05843 0.42483 0.0
H256 H 0.97008 0.07871 0.46275 0.0
C257 C 0.87588 0.07844 0.51764 0.0
C258 C 0.92859 0.03505 0.52334 0.0
C259 C 0.99404 0.02232 0.49998 0.0
C260 C 0.04557 0.98183 0.50645 0.0
C261 C 0.11325 0.97196 0.48397 0.0
C262 C 0.12733 -0.00051 0.45493 0.0
C263 C 0.07495 0.03749 0.44766 0.0
C264 C 0.00904 0.04895 0.46981 0.0
H265 H 0.0487 0.86702 0.49296 0.0
C266 C 0.08308 0.86772 0.51763 0.0
H267 H 0.11287 0.90945 0.56656 0.0
H268 H 0.80866 0.04962 0.57325 0.0
H269 H 0.7826 -0.00065 0.6224 0.0
H270 H 0.86825 0.92678 0.63204 0.0
H271 H 0.98079 0.90427 0.59273 0.0
C272 C 0.08051 0.90867 0.54136 0.0
C273 C 0.02914 0.95253 0.53521 0.0
C274 C 0.96316 0.96495 0.55829 0.0
C275 C 0.913 0.00631 0.55241 0.0
C276 C 0.84814 0.01823 0.57618 0.0
C277 C 0.83254 0.98973 0.60456 0.0
C278 C 0.88081 0.94892 0.61001 0.0
C279 C 0.94536 0.93647 0.58725 0.0
H280 H 0.47381 0.24037 0.29491 0.0
C281 C 0.49191 0.20212 0.29844 0.0
H282 H 0.51263 0.1301 0.27132 0.0
H283 H 0.24608 0.23007 0.16678 0.0
H284 H 0.15318 0.22558 0.21619 0.0
H285 H 0.19871 0.19884 0.27369 0.0
H286 H 0.33781 0.17679 0.28254 0.0
C287 C 0.48954 0.16771 0.26982 0.0
C288 C 0.46095 0.1813 0.23439 0.0
C289 C 0.37881 0.19269 0.22926 0.0
C290 C 0.35234 0.20743 0.19579 0.0
C291 C 0.26994 0.219 0.19164 0.0
C292 C 0.21568 0.21634 0.21968 0.0
C293 C 0.24136 0.20133 0.25213 0.0
C294 C 0.32166 0.18918 0.25693 0.0
H295 H 0.40409 0.15988 0.10075 0.0
C296 C 0.37864 0.19735 0.10178 0.0
H297 H 0.3522 0.26429 0.13409 0.0
H298 H 0.62218 0.16188 0.23543 0.0
H299 H 0.71675 0.16904 0.187 0.0
H300 H 0.67167 0.19596 0.12928 0.0
H301 H 0.5319 0.21572 0.11957 0.0
C302 C 0.37921 0.22723 0.13282 0.0
C303 C 0.40777 0.20988 0.16721 0.0
C304 C 0.49003 0.19849 0.17238 0.0
C305 C 0.51638 0.18371 0.20591 0.0
C306 C 0.59887 0.17306 0.2105 0.0
C307 C 0.65388 0.17717 0.18296 0.0
C308 C 0.62848 0.19229 0.15045 0.0
C309 C 0.54776 0.20312 0.14514 0.0
H310 H 0.36791 0.79693 0.25152 0.0
C311 C 0.43154 0.80464 0.24805 0.0
H312 H 0.54275 0.81743 0.27494 0.0
H313 H 0.25907 0.83846 0.40256 0.0
H314 H 0.21526 0.91219 0.3754 0.0
H315 H 0.27973 0.93648 0.32041 0.0
H316 H 0.38736 0.88647 0.29189 0.0
C317 C 0.47921 0.80898 0.27721 0.0
C318 C 0.44791 0.799 0.31312 0.0
C319 C 0.38779 0.83008 0.33047 0.0
C320 C 0.3534 0.81748 0.36319 0.0
C321 C 0.28972 0.84729 0.37855 0.0
C322 C 0.26356 0.88963 0.3631 0.0
C323 C 0.29965 0.9032 0.33208 0.0
C324 C 0.36102 0.87394 0.31584 0.0
H325 H 0.38223 0.82126 0.44698 0.0
C326 C 0.34874 0.78613 0.44442 0.0
H327 H 0.31162 0.72346 0.40963 0.0
H328 H 0.56542 0.73311 0.28814 0.0
H329 H 0.61486 0.66221 0.31718 0.0
H330 H 0.55935 0.64253 0.37517 0.0
H331 H 0.45373 0.69356 0.40441 0.0
C332 C 0.343 0.75931 0.41226 0.0
C333 C 0.38205 0.77521 0.37944 0.0
C334 C 0.44473 0.74557 0.36294 0.0
C335 C 0.47755 0.75737 0.32974 0.0
C336 C 0.53889 0.72632 0.31355 0.0
C337 C 0.5678 0.6854 0.3299 0.0
C338 C 0.53648 0.67428 0.36253 0.0
C339 C 0.47568 0.70383 0.37897 0.0
H340 H 0.5377 0.77368 0.94096 0.0
C341 C 0.60211 0.78067 0.94158 0.0
H342 H 0.70526 0.79639 0.91194 0.0
H343 H 0.59971 0.71188 0.75873 0.0
H344 H 0.71271 0.65871 0.77021 0.0
H345 H 0.77326 0.66189 0.83034 0.0
H346 H 0.72205 0.71866 0.87919 0.0
C347 C 0.64066 0.79014 0.9114 0.0
C348 C 0.59988 0.78673 0.8758 0.0
C349 C 0.62865 0.75186 0.84777 0.0
C350 C 0.59228 0.74896 0.81331 0.0
C351 C 0.62417 0.71507 0.78556 0.0
C352 C 0.68908 0.68432 0.79176 0.0
C353 C 0.72327 0.68618 0.82559 0.0
C354 C 0.69349 0.71926 0.85337 0.0
H355 H 0.52901 0.84975 0.76195 0.0
C356 C 0.49681 0.81651 0.75052 0.0
H357 H 0.4625 0.74245 0.75998 0.0
H358 H 0.53667 0.86315 0.92142 0.0
H359 H 0.41995 0.91333 0.9106 0.0
H360 H 0.34752 0.90128 0.85305 0.0
H361 H 0.39301 0.83995 0.80562 0.0
C362 C 0.48965 0.77765 0.77059 0.0
C363 C 0.52593 0.78002 0.80706 0.0
C364 C 0.49564 0.81388 0.83528 0.0
C365 C 0.53432 0.81852 0.86929 0.0
C366 C 0.50696 0.85582 0.89584 0.0
C367 C 0.44038 0.88531 0.88986 0.0
C368 C 0.39984 0.87871 0.85741 0.0
C369 C 0.42693 0.84355 0.83032 0.0
H370 H 0.57893 0.19872 0.60198 0.0
C371 C 0.64221 0.2089 0.60385 0.0
H372 H 0.74238 0.22258 0.63809 0.0
H373 H 0.54018 0.27864 0.77769 0.0
H374 H 0.58963 0.36056 0.7653 0.0
H375 H 0.66095 0.37165 0.70895 0.0
H376 H 0.68275 0.301 0.66457 0.0
C377 C 0.67983 0.21086 0.63568 0.0
C378 C 0.63592 0.20351 0.6693 0.0
C379 C 0.62461 0.24515 0.69518 0.0
C380 C 0.58425 0.23869 0.72782 0.0
C381 C 0.57186 0.2812 0.75276 0.0
C382 C 0.59959 0.32852 0.74591 0.0
C383 C 0.63968 0.33477 0.71418 0.0
C384 C 0.65199 0.2938 0.68897 0.0
H385 H 0.62475 0.18665 0.79814 0.0
C386 C 0.55971 0.18304 0.79968 0.0
H387 H 0.45224 0.17617 0.76923 0.0
H388 H 0.65287 0.1151 0.6266 0.0
H389 H 0.60326 0.03322 0.63906 0.0
H390 H 0.53063 0.02242 0.69514 0.0
H391 H 0.50794 0.09346 0.73932 0.0
C392 C 0.51652 0.18327 0.76941 0.0
C393 C 0.55631 0.19043 0.73475 0.0
C394 C 0.56699 0.14888 0.70878 0.0
C395 C 0.6076 0.15528 0.67614 0.0
C396 C 0.62061 0.11267 0.6514 0.0
C397 C 0.59282 0.06537 0.6583 0.0
C398 C 0.55204 0.05927 0.68991 0.0
C399 C 0.53932 0.10036 0.715 0.0
H400 H 0.81924 0.75888 0.15839 0.0
C401 C 0.84195 0.7361 0.13499 0.0
H402 H 0.9189 0.67633 0.11697 0.0
H403 H 0.00878 0.76496 0.28758 0.0
H404 H 0.05104 0.84087 0.2626 0.0
H405 H 0.03946 0.84855 0.19785 0.0
H406 H 0.98355 0.78053 0.15783 0.0
C407 C 0.89736 0.70089 0.13968 0.0
C408 C 0.92313 0.69165 0.17671 0.0
C409 C 0.96062 0.73039 0.19949 0.0
C410 C 0.97171 0.72473 0.23653 0.0
C411 C 0.00277 0.76591 0.259 0.0
C412 C 0.02671 0.81001 0.24504 0.0
C413 C 0.01987 0.81443 0.20862 0.0
C414 C 0.98714 0.77526 0.186 0.0
H415 H 0.0819 0.68076 0.29171 0.0
C416 C 0.02767 0.67374 0.30666 0.0
H417 H 0.90112 0.66685 0.30376 0.0
H418 H 0.85669 0.60814 0.13998 0.0
H419 H 0.82445 0.52945 0.16376 0.0
H420 H 0.85079 0.51775 0.22708 0.0
H421 H 0.9087 0.58494 0.26713 0.0
C422 C 0.95648 0.67313 0.28952 0.0
C423 C 0.94998 0.67894 0.25037 0.0
C424 C 0.91775 0.63896 0.22699 0.0
C425 C 0.90395 0.64538 0.19025 0.0
C426 C 0.86936 0.60522 0.16795 0.0
C427 C 0.85051 0.55979 0.18126 0.0
C428 C 0.86523 0.55323 0.21692 0.0
C429 C 0.89832 0.59219 0.23964 0.0
H430 H 0.89465 0.33645 0.41991 0.0
C431 C 0.87495 0.2977 0.42006 0.0
H432 H 0.8609 0.22724 0.39021 0.0
H433 H 0.83816 0.29979 0.23709 0.0
H434 H 0.70533 0.26537 0.2449 0.0
H435 H 0.66349 0.23845 0.30294 0.0
H436 H 0.75331 0.24675 0.35398 0.0
C437 C 0.88173 0.26578 0.39013 0.0
C438 C 0.90863 0.28213 0.35508 0.0
C439 C 0.85502 0.27698 0.32547 0.0
C440 C 0.87976 0.29148 0.29162 0.0
C441 C 0.82382 0.2877 0.263 0.0
C442 C 0.74694 0.26841 0.26718 0.0
C443 C 0.72327 0.2534 0.29995 0.0
C444 C 0.7759 0.25806 0.32894 0.0
H445 H 0.98261 0.25024 0.22755 0.0
C446 C 0.99491 0.28925 0.22342 0.0
H447 H 0.00243 0.36303 0.24958 0.0
H448 H 0.03037 0.29112 0.40468 0.0
H449 H 0.16442 0.3234 0.39617 0.0
H450 H 0.20608 0.35013 0.33786 0.0
H451 H 0.11391 0.34441 0.28762 0.0
C452 C 0.98589 0.32416 0.2515 0.0
C453 C 0.95877 0.31006 0.28712 0.0
C454 C 0.01246 0.31504 0.3166 0.0
C455 C 0.98782 0.30053 0.3505 0.0
C456 C 0.04448 0.30334 0.37879 0.0
C457 C 0.12209 0.32137 0.37417 0.0
C458 C 0.14559 0.33635 0.34133 0.0
C459 C 0.09189 0.33304 0.31274 0.0
H460 H 0.11893 0.31527 0.72358 0.0
C461 C 0.05377 0.31817 0.72267 0.0
H462 H 0.9474 0.32167 0.7538 0.0
H463 H 0.08984 0.20261 0.87672 0.0
H464 H 0.99067 0.14371 0.85028 0.0
H465 H 0.91887 0.16006 0.79513 0.0
H466 H 0.94612 0.23531 0.766 0.0
C467 C 0.01235 0.31807 0.75352 0.0
C468 C 0.0531 0.31008 0.78799 0.0
C469 C 0.03551 0.26627 0.80508 0.0
C470 C 0.07635 0.25708 0.83714 0.0
C471 C 0.05951 0.21211 0.85283 0.0
C472 C 0.00296 0.17777 0.83781 0.0
C473 C 0.96259 0.18695 0.80675 0.0
C474 C 0.9787 0.23044 0.79036 0.0
H475 H 0.08203 0.29572 0.92029 0.0
C476 C 0.14492 0.28511 0.91763 0.0
H477 H 0.24281 0.27231 0.88198 0.0
H478 H 0.09255 0.40149 0.76541 0.0
H479 H 0.1903 0.46097 0.79244 0.0
H480 H 0.26389 0.44377 0.84696 0.0
H481 H 0.23954 0.36709 0.87495 0.0
C482 C 0.17957 0.28174 0.88509 0.0
C483 C 0.13399 0.29209 0.8524 0.0
C484 C 0.15033 0.33639 0.83576 0.0
C485 C 0.10912 0.34578 0.80384 0.0
C486 C 0.12406 0.39153 0.78888 0.0
C487 C 0.17958 0.42625 0.80431 0.0
C488 C 0.22093 0.41661 0.83504 0.0
C489 C 0.20653 0.37237 0.85077 0.0
H490 H 0.02818 0.71019 0.62406 0.0
C491 C 0.09309 0.70599 0.62463 0.0
H492 H 0.19539 0.69512 0.65589 0.0
H493 H 0.08869 0.78445 0.80669 0.0
H494 H 0.19701 0.8402 0.79279 0.0
H495 H 0.25483 0.8357 0.73207 0.0
H496 H 0.20534 0.7752 0.68504 0.0
C497 C 0.13034 0.6988 0.65563 0.0
C498 C 0.0888 0.70358 0.69121 0.0
C499 C 0.11614 0.74071 0.71821 0.0
C500 C 0.0812 0.74434 0.75301 0.0
C501 C 0.11194 0.78058 0.77965 0.0
C502 C 0.17424 0.81284 0.77207 0.0
C503 C 0.20692 0.81022 0.73792 0.0
C504 C 0.17822 0.77492 0.7112 0.0
H505 H 0.02861 0.64777 0.81043 0.0
C506 C 0.99419 0.68081 0.82017 0.0
H507 H 0.95251 0.75125 0.80658 0.0
H508 H 0.02757 0.62419 0.64772 0.0
H509 H 0.91608 0.57057 0.66116 0.0
H510 H 0.84742 0.58225 0.71962 0.0
H511 H 0.89129 0.64687 0.76536 0.0
C512 C 0.98155 0.7161 0.79748 0.0
C513 C 0.01751 0.7117 0.76077 0.0
C514 C 0.98879 0.67537 0.73364 0.0
C515 C 0.02577 0.67039 0.69916 0.0
C516 C -0.00062 0.63136 0.67364 0.0
C517 C 0.93578 0.59999 0.68113 0.0
C518 C 0.89732 0.60643 0.71409 0.0
C519 C 0.92333 0.64353 0.74017 0.0
loop_
_geom_bond_atom_site_label_1
_geom_bond_atom_site_label_2
_geom_bond_distance
_geom_bond_site_symmetry_2
_ccdc_geom_bond_type
Eu0 C9 2.828 . S
Eu0 O11 2.392 1_554 S
Eu0 O13 2.418 . S
Eu0 O18 2.373 . S
Eu0 O21 2.488 . S
Eu0 O22 2.471 . S
Eu0 O23 2.349 . S
Eu1 O10 2.373 . S
Eu1 O14 2.488 . S
Eu1 O15 2.471 . S
Eu1 O16 2.349 . S
Eu1 O19 2.392 1_556 S
Eu1 O20 2.418 . S
Eu1 C30 2.828 . S
C2 O20 1.244 . S
C2 O23 1.265 1_556 S
C3 C4 1.379 . S
C3 C7 1.373 . S
C3 C9 1.505 . S
C4 C3 1.379 . S
C4 C6 1.369 . S
C4 H32 0.930 . S
C5 C7 1.383 . S
C5 C8 1.382 . S
C5 H33 0.930 . S
C6 C4 1.369 . S
C6 C8 1.392 . S
C6 H34 0.930 . S
C7 C3 1.373 . S
C7 C5 1.383 . S
C7 H35 0.931 . S
C8 C5 1.382 . S
C8 C6 1.392 . S
C9 Eu0 2.828 . S
C9 C3 1.505 . S
C9 O21 1.249 . S
C9 O22 1.244 . S
O10 Eu1 2.373 . S
O10 C12 1.258 . S
O11 Eu0 2.392 1_556 S
O11 C12 1.242 . S
C12 O10 1.258 . S
C12 O11 1.242 . S
O13 Eu0 2.418 . S
O13 C17 1.244 . S
O14 Eu1 2.488 . S
O14 C30 1.249 . S
O15 Eu1 2.471 . S
O15 C30 1.244 . S
O16 Eu1 2.349 . S
O16 C17 1.265 1_556 S
C17 O13 1.244 . S
C17 O16 1.265 1_554 S
O18 Eu0 2.373 . S
O18 C31 1.258 . S
O19 Eu1 2.392 1_554 S
O19 C31 1.242 . S
O20 Eu1 2.418 . S
O20 C2 1.244 . S
O21 Eu0 2.488 . S
O21 C9 1.249 . S
O22 Eu0 2.471 . S
O22 C9 1.244 . S
O23 Eu0 2.349 . S
O23 C2 1.265 1_554 S
C24 C25 1.379 . S
C24 C28 1.373 . S
C24 C30 1.505 . S
C25 C24 1.379 . S
C25 C27 1.369 . S
C25 H36 0.930 . S
C26 C28 1.383 . S
C26 C29 1.382 . S
C26 H37 0.930 . S
C27 C25 1.369 . S
C27 C29 1.392 . S
C27 H38 0.930 . S
C28 C24 1.373 . S
C28 C26 1.383 . S
C28 H39 0.931 . S
C29 C26 1.382 . S
C29 C27 1.392 . S
C30 Eu1 2.828 . S
C30 O14 1.249 . S
C30 O15 1.244 . S
C30 C24 1.505 . S
C31 O18 1.258 . S
C31 O19 1.242 . S
H32 C4 0.930 . S
H33 C5 0.930 . S
H34 C6 0.930 . S
H35 C7 0.931 . S
H36 C25 0.930 . S
H37 C26 0.930 . S
H38 C27 0.930 . S
H39 C28 0.931 . S
Eu40 C49 2.828 . S
Eu40 O51 2.392 1_554 S
Eu40 O53 2.418 . S
Eu40 O58 2.373 . S
Eu40 O61 2.488 . S
Eu40 O62 2.471 . S
Eu40 O63 2.349 . S
Eu41 O50 2.373 . S
Eu41 O54 2.488 . S
Eu41 O55 2.471 . S
Eu41 O56 2.349 . S
Eu41 O59 2.392 1_556 S
Eu41 O60 2.418 . S
Eu41 C70 2.828 . S
C42 O60 1.244 . S
C42 O63 1.265 1_556 S
C43 C44 1.379 . S
C43 C47 1.373 . S
C43 C49 1.505 . S
C44 C43 1.379 . S
C44 C46 1.369 . S
C44 H72 0.930 . S
C45 C47 1.383 . S
C45 C48 1.382 . S
C45 H73 0.930 . S
C46 C44 1.369 . S
C46 C48 1.392 . S
C46 H74 0.930 . S
C47 C43 1.373 . S
C47 C45 1.383 . S
C47 H75 0.931 . S
C48 C45 1.382 . S
C48 C46 1.392 . S
C49 Eu40 2.828 . S
C49 C43 1.505 . S
C49 O61 1.249 . S
C49 O62 1.244 . S
O50 Eu41 2.373 . S
O50 C52 1.258 . S
O51 Eu40 2.392 1_556 S
O51 C52 1.242 . S
C52 O50 1.258 . S
C52 O51 1.242 . S
O53 Eu40 2.418 . S
O53 C57 1.244 . S
O54 Eu41 2.488 . S
O54 C70 1.249 . S
O55 Eu41 2.471 . S
O55 C70 1.244 . S
O56 Eu41 2.349 . S
O56 C57 1.265 1_556 S
C57 O53 1.244 . S
C57 O56 1.265 1_554 S
O58 Eu40 2.373 . S
O58 C71 1.258 . S
O59 Eu41 2.392 1_554 S
O59 C71 1.242 . S
O60 Eu41 2.418 . S
O60 C42 1.244 . S
O61 Eu40 2.488 . S
O61 C49 1.249 . S
O62 Eu40 2.471 . S
O62 C49 1.244 . S
O63 Eu40 2.349 . S
O63 C42 1.265 1_554 S
C64 C65 1.379 . S
C64 C68 1.373 . S
C64 C70 1.505 . S
C65 C64 1.379 . S
C65 C67 1.369 . S
C65 H76 0.930 . S
C66 C68 1.383 . S
C66 C69 1.382 . S
C66 H77 0.930 . S
C67 C65 1.369 . S
C67 C69 1.392 . S
C67 H78 0.930 . S
C68 C64 1.373 . S
C68 C66 1.383 . S
C68 H79 0.931 . S
C69 C66 1.382 . S
C69 C67 1.392 . S
C70 Eu41 2.828 . S
C70 O54 1.249 . S
C70 O55 1.244 . S
C70 C64 1.505 . S
C71 O58 1.258 . S
C71 O59 1.242 . S
H72 C44 0.930 . S
H73 C45 0.930 . S
H74 C46 0.930 . S
H75 C47 0.931 . S
H76 C65 0.930 . S
H77 C66 0.930 . S
H78 C67 0.930 . S
H79 C68 0.931 . S
Eu80 C89 2.828 . S
Eu80 O91 2.392 . S
Eu80 O93 2.418 . S
Eu80 O98 2.373 . S
Eu80 O101 2.488 . S
Eu80 O102 2.471 . S
Eu80 O103 2.349 . S
Eu81 O90 2.373 . S
Eu81 O94 2.488 . S
Eu81 O95 2.471 . S
Eu81 O96 2.349 . S
Eu81 O99 2.392 . S
Eu81 O100 2.418 . S
Eu81 C110 2.828 . S
C82 O100 1.244 . S
C82 O103 1.265 . S
C83 C84 1.379 . S
C83 C87 1.373 . S
C83 C89 1.505 . S
C84 C83 1.379 . S
C84 C86 1.369 . S
C84 H112 0.930 . S
C85 C87 1.383 . S
C85 C88 1.382 . S
C85 H113 0.930 . S
C86 C84 1.369 . S
C86 C88 1.392 . S
C86 H114 0.930 . S
C87 C83 1.373 . S
C87 C85 1.383 . S
C87 H115 0.931 . S
C88 C85 1.382 . S
C88 C86 1.392 . S
C89 Eu80 2.828 . S
C89 C83 1.505 . S
C89 O101 1.249 . S
C89 O102 1.244 . S
O90 Eu81 2.373 . S
O90 C92 1.258 . S
O91 Eu80 2.392 . S
O91 C92 1.242 . S
C92 O90 1.258 . S
C92 O91 1.242 . S
O93 Eu80 2.418 . S
O93 C97 1.244 . S
O94 Eu81 2.488 . S
O94 C110 1.249 . S
O95 Eu81 2.471 . S
O95 C110 1.244 . S
O96 Eu81 2.349 . S
O96 C97 1.265 . S
C97 O93 1.244 . S
C97 O96 1.265 . S
O98 Eu80 2.373 . S
O98 C111 1.258 . S
O99 Eu81 2.392 . S
O99 C111 1.242 . S
O100 Eu81 2.418 . S
O100 C82 1.244 . S
O101 Eu80 2.488 . S
O101 C89 1.249 . S
O102 Eu80 2.471 . S
O102 C89 1.244 . S
O103 Eu80 2.349 . S
O103 C82 1.265 . S
C104 C105 1.379 . S
C104 C108 1.373 . S
C104 C110 1.505 . S
C105 C104 1.379 . S
C105 C107 1.369 . S
C105 H116 0.930 . S
C106 C108 1.383 . S
C106 C109 1.382 . S
C106 H117 0.930 . S
C107 C105 1.369 . S
C107 C109 1.392 . S
C107 H118 0.930 . S
C108 C104 1.373 . S
C108 C106 1.383 . S
C108 H119 0.931 . S
C109 C106 1.382 . S
C109 C107 1.392 . S
C110 Eu81 2.828 . S
C110 O94 1.249 . S
C110 O95 1.244 . S
C110 C104 1.505 . S
C111 O98 1.258 . S
C111 O99 1.242 . S
H112 C84 0.930 . S
H113 C85 0.930 . S
H114 C86 0.930 . S
H115 C87 0.931 . S
H116 C105 0.930 . S
H117 C106 0.930 . S
H118 C107 0.930 . S
H119 C108 0.931 . S
Eu120 C129 2.828 . S
Eu120 O131 2.392 . S
Eu120 O133 2.418 . S
Eu120 O138 2.373 . S
Eu120 O141 2.488 . S
Eu120 O142 2.471 . S
Eu120 O143 2.349 . S
Eu121 O130 2.373 . S
Eu121 O134 2.488 . S
Eu121 O135 2.471 . S
Eu121 O136 2.349 . S
Eu121 O139 2.392 . S
Eu121 O140 2.418 . S
Eu121 C150 2.828 . S
C122 O140 1.244 . S
C122 O143 1.265 . S
C123 C124 1.379 . S
C123 C127 1.373 . S
C123 C129 1.505 . S
C124 C123 1.379 . S
C124 C126 1.369 . S
C124 H152 0.930 . S
C125 C127 1.383 . S
C125 C128 1.382 . S
C125 H153 0.930 . S
C126 C124 1.369 . S
C126 C128 1.392 . S
C126 H154 0.930 . S
C127 C123 1.373 . S
C127 C125 1.383 . S
C127 H155 0.931 . S
C128 C125 1.382 . S
C128 C126 1.392 . S
C129 Eu120 2.828 . S
C129 C123 1.505 . S
C129 O141 1.249 . S
C129 O142 1.244 . S
O130 Eu121 2.373 . S
O130 C132 1.258 . S
O131 Eu120 2.392 . S
O131 C132 1.242 . S
C132 O130 1.258 . S
C132 O131 1.242 . S
O133 Eu120 2.418 . S
O133 C137 1.244 . S
O134 Eu121 2.488 . S
O134 C150 1.249 . S
O135 Eu121 2.471 . S
O135 C150 1.244 . S
O136 Eu121 2.349 . S
O136 C137 1.265 . S
C137 O133 1.244 . S
C137 O136 1.265 . S
O138 Eu120 2.373 . S
O138 C151 1.258 . S
O139 Eu121 2.392 . S
O139 C151 1.242 . S
O140 Eu121 2.418 . S
O140 C122 1.244 . S
O141 Eu120 2.488 . S
O141 C129 1.249 . S
O142 Eu120 2.471 . S
O142 C129 1.244 . S
O143 Eu120 2.349 . S
O143 C122 1.265 . S
C144 C145 1.379 . S
C144 C148 1.373 . S
C144 C150 1.505 . S
C145 C144 1.379 . S
C145 C147 1.369 . S
C145 H156 0.930 . S
C146 C148 1.383 . S
C146 C149 1.382 . S
C146 H157 0.930 . S
C147 C145 1.369 . S
C147 C149 1.392 . S
C147 H158 0.930 . S
C148 C144 1.373 . S
C148 C146 1.383 . S
C148 H159 0.931 . S
C149 C146 1.382 . S
C149 C147 1.392 . S
C150 Eu121 2.828 . S
C150 O134 1.249 . S
C150 O135 1.244 . S
C150 C144 1.505 . S
C151 O138 1.258 . S
C151 O139 1.242 . S
H152 C124 0.930 . S
H153 C125 0.930 . S
H154 C126 0.930 . S
H155 C127 0.931 . S
H156 C145 0.930 . S
H157 C146 0.930 . S
H158 C147 0.930 . S
H159 C148 0.931 . S
H160 C161 0.950 . S
C161 H160 0.950 . S
C161 C167 1.266 . S
H162 C167 0.950 . S
H163 C171 0.949 . S
H164 C172 0.950 . S
H165 C173 0.951 . S
H166 C174 0.951 . S
C167 C161 1.266 . S
C167 H162 0.950 . S
C167 C168 1.478 . S
C168 C167 1.478 . S
C168 C169 1.415 . S
C168 C185 1.377 1_554 S
C169 C168 1.415 . S
C169 C170 1.438 . S
C169 C174 1.429 . S
C170 C169 1.438 . S
C170 C171 1.428 . S
C170 C183 1.398 . S
C171 H163 0.949 . S
C171 C170 1.428 . S
C171 C172 1.345 . S
C172 H164 0.950 . S
C172 C171 1.345 . S
C172 C173 1.424 . S
C173 H165 0.951 . S
C173 C172 1.424 . S
C173 C174 1.347 . S
C174 H166 0.951 . S
C174 C169 1.429 . S
C174 C173 1.347 . S
H175 C176 0.950 . S
C176 H175 0.950 . S
C176 C182 1.263 1_554 S
H177 C182 0.950 . S
H178 C186 0.949 . S
H179 C187 0.950 . S
H180 C188 0.951 . S
H181 C189 0.951 . S
C182 C176 1.263 1_556 S
C182 H177 0.950 . S
C182 C183 1.479 1_556 S
C183 C170 1.398 . S
C183 C182 1.479 1_554 S
C183 C184 1.393 1_554 S
C184 C183 1.393 1_556 S
C184 C185 1.438 . S
C184 C189 1.429 . S
C185 C168 1.377 1_556 S
C185 C184 1.438 . S
C185 C186 1.428 . S
C186 H178 0.949 . S
C186 C185 1.428 . S
C186 C187 1.345 . S
C187 H179 0.950 . S
C187 C186 1.345 . S
C187 C188 1.424 . S
C188 H180 0.951 . S
C188 C187 1.424 . S
C188 C189 1.347 . S
C189 H181 0.951 . S
C189 C184 1.429 . S
C189 C188 1.347 . S
H190 C191 0.951 . S
C191 H190 0.951 . S
C191 C197 1.265 . S
H192 C197 0.950 . S
H193 C201 0.949 . S
H194 C202 0.950 . S
H195 C203 0.951 . S
H196 C204 0.951 . S
C197 C191 1.265 . S
C197 H192 0.950 . S
C197 C198 1.478 . S
C198 C197 1.478 . S
C198 C199 1.397 . S
C198 C215 1.394 . S
C199 C198 1.397 . S
C199 C200 1.438 . S
C199 C204 1.429 . S
C200 C199 1.438 . S
C200 C201 1.428 . S
C200 C213 1.394 . S
C201 H193 0.949 . S
C201 C200 1.428 . S
C201 C202 1.345 . S
C202 H194 0.950 . S
C202 C201 1.345 . S
C202 C203 1.424 . S
C203 H195 0.951 . S
C203 C202 1.424 . S
C203 C204 1.347 . S
C204 H196 0.951 . S
C204 C199 1.429 . S
C204 C203 1.347 . S
H205 C206 0.951 . S
C206 H205 0.951 . S
C206 C212 1.265 . S
H207 C212 0.950 . S
H208 C216 0.949 . S
H209 C217 0.950 . S
H210 C218 0.951 . S
H211 C219 0.951 . S
C212 C206 1.265 . S
C212 H207 0.950 . S
C212 C213 1.478 . S
C213 C200 1.394 . S
C213 C212 1.478 . S
C213 C214 1.397 . S
C214 C213 1.397 . S
C214 C215 1.438 . S
C214 C219 1.429 . S
C215 C198 1.394 . S
C215 C214 1.438 . S
C215 C216 1.428 . S
C216 H208 0.949 . S
C216 C215 1.428 . S
C216 C217 1.345 . S
C217 H209 0.950 . S
C217 C216 1.345 . S
C217 C218 1.424 . S
C218 H210 0.951 . S
C218 C217 1.424 . S
C218 C219 1.347 . S
C219 H211 0.951 . S
C219 C214 1.429 . S
C219 C218 1.347 . S
H220 C221 0.954 . S
C221 H220 0.954 . S
C221 C227 1.264 1_554 S
H222 C227 0.950 . S
H223 C231 0.949 . S
H224 C232 0.950 . S
H225 C233 0.951 . S
H226 C234 0.951 1_455 S
C227 C221 1.264 1_556 S
C227 H222 0.950 . S
C227 C228 1.481 . S
C228 C227 1.481 . S
C228 C229 1.415 1_455 S
C228 C245 1.373 1_556 S
C229 C228 1.415 1_655 S
C229 C230 1.438 1_545 S
C229 C234 1.429 . S
C230 C229 1.438 1_565 S
C230 C231 1.428 . S
C230 C243 1.394 1_556 S
C231 H223 0.949 . S
C231 C230 1.428 . S
C231 C232 1.345 . S
C232 H224 0.950 . S
C232 C231 1.345 . S
C232 C233 1.424 1_565 S
C233 H225 0.951 . S
C233 C232 1.424 1_545 S
C233 C234 1.347 . S
C234 H226 0.951 1_655 S
C234 C229 1.429 . S
C234 C233 1.347 . S
H235 C236 0.949 1_556 S
C236 H235 0.949 1_554 S
C236 C242 1.266 . S
H237 C242 0.950 . S
H238 C246 0.949 . S
H239 C247 0.950 . S
H240 C248 0.951 . S
H241 C249 0.951 1_655 S
C242 C236 1.266 . S
C242 H237 0.950 . S
C242 C243 1.478 . S
C243 C230 1.394 1_554 S
C243 C242 1.478 . S
C243 C244 1.397 1_655 S
C244 C243 1.397 1_455 S
C244 C245 1.438 1_565 S
C244 C249 1.429 . S
C245 C228 1.373 1_554 S
C245 C244 1.438 1_545 S
C245 C246 1.428 . S
C246 H238 0.949 . S
C246 C245 1.428 . S
C246 C247 1.345 . S
C247 H239 0.950 . S
C247 C246 1.345 . S
C247 C248 1.424 1_545 S
C248 H240 0.951 . S
C248 C247 1.424 1_565 S
C248 C249 1.347 . S
C249 H241 0.951 1_455 S
C249 C244 1.429 . S
C249 C248 1.347 . S
H250 C251 0.951 . S
C251 H250 0.951 . S
C251 C257 1.265 . S
H252 C257 0.950 . S
H253 C261 0.949 . S
H254 C262 0.950 . S
H255 C263 0.951 . S
H256 C264 0.951 . S
C257 C251 1.265 . S
C257 H252 0.950 . S
C257 C258 1.478 . S
C258 C257 1.478 . S
C258 C259 1.397 . S
C258 C275 1.394 . S
C259 C258 1.397 . S
C259 C260 1.438 1_645 S
C259 C264 1.429 . S
C260 C259 1.438 1_465 S
C260 C261 1.428 . S
C260 C273 1.394 . S
C261 H253 0.949 . S
C261 C260 1.428 . S
C261 C262 1.345 1_455 S
C262 H254 0.950 . S
C262 C261 1.345 1_655 S
C262 C263 1.424 . S
C263 H255 0.951 . S
C263 C262 1.424 . S
C263 C264 1.347 1_565 S
C264 H256 0.951 . S
C264 C259 1.429 . S
C264 C263 1.347 1_545 S
H265 C266 0.951 . S
C266 H265 0.951 . S
C266 C272 1.265 . S
H267 C272 0.950 . S
H268 C276 0.949 . S
H269 C277 0.950 . S
H270 C278 0.951 . S
H271 C279 0.951 . S
C272 C266 1.265 . S
C272 H267 0.950 . S
C272 C273 1.478 . S
C273 C260 1.394 . S
C273 C272 1.478 . S
C273 C274 1.397 . S
C274 C273 1.397 . S
C274 C275 1.438 1_465 S
C274 C279 1.429 . S
C275 C258 1.394 . S
C275 C274 1.438 1_645 S
C275 C276 1.428 . S
C276 H268 0.949 . S
C276 C275 1.428 . S
C276 C277 1.345 1_655 S
C277 H269 0.950 . S
C277 C276 1.345 1_455 S
C277 C278 1.424 . S
C278 H270 0.951 . S
C278 C277 1.424 . S
C278 C279 1.347 1_545 S
C279 H271 0.951 . S
C279 C274 1.429 . S
C279 C278 1.347 1_565 S
H280 C281 0.951 . S
C281 H280 0.951 . S
C281 C287 1.265 . S
H282 C287 0.950 . S
H283 C291 0.949 . S
H284 C292 0.950 . S
H285 C293 0.951 . S
H286 C294 0.951 . S
C287 C281 1.265 . S
C287 H282 0.950 . S
C287 C288 1.478 . S
C288 C287 1.478 . S
C288 C289 1.397 . S
C288 C305 1.394 . S
C289 C288 1.397 . S
C289 C290 1.438 . S
C289 C294 1.429 . S
C290 C289 1.438 . S
C290 C291 1.428 . S
C290 C303 1.394 . S
C291 H283 0.949 . S
C291 C290 1.428 . S
C291 C292 1.345 . S
C292 H284 0.950 . S
C292 C291 1.345 . S
C292 C293 1.424 . S
C293 H285 0.951 . S
C293 C292 1.424 . S
C293 C294 1.347 . S
C294 H286 0.951 . S
C294 C289 1.429 . S
C294 C293 1.347 . S
H295 C296 0.951 . S
C296 H295 0.951 . S
C296 C302 1.265 . S
H297 C302 0.950 . S
H298 C306 0.949 . S
H299 C307 0.950 . S
H300 C308 0.951 . S
H301 C309 0.951 . S
C302 C296 1.265 . S
C302 H297 0.950 . S
C302 C303 1.478 . S
C303 C290 1.394 . S
C303 C302 1.478 . S
C303 C304 1.397 . S
C304 C303 1.397 . S
C304 C305 1.438 . S
C304 C309 1.429 . S
C305 C288 1.394 . S
C305 C304 1.438 . S
C305 C306 1.428 . S
C306 H298 0.949 . S
C306 C305 1.428 . S
C306 C307 1.345 . S
C307 H299 0.950 . S
C307 C306 1.345 . S
C307 C308 1.424 . S
C308 H300 0.951 . S
C308 C307 1.424 . S
C308 C309 1.347 . S
C309 H301 0.951 . S
C309 C304 1.429 . S
C309 C308 1.347 . S
H310 C311 0.951 . S
C311 H310 0.951 . S
C311 C317 1.265 . S
H312 C317 0.950 . S
H313 C321 0.949 . S
H314 C322 0.950 . S
H315 C323 0.951 . S
H316 C324 0.951 . S
C317 C311 1.265 . S
C317 H312 0.950 . S
C317 C318 1.478 . S
C318 C317 1.478 . S
C318 C319 1.397 . S
C318 C335 1.394 . S
C319 C318 1.397 . S
C319 C320 1.438 . S
C319 C324 1.429 . S
C320 C319 1.438 . S
C320 C321 1.428 . S
C320 C333 1.394 . S
C321 H313 0.949 . S
C321 C320 1.428 . S
C321 C322 1.345 . S
C322 H314 0.950 . S
C322 C321 1.345 . S
C322 C323 1.424 . S
C323 H315 0.951 . S
C323 C322 1.424 . S
C323 C324 1.347 . S
C324 H316 0.951 . S
C324 C319 1.429 . S
C324 C323 1.347 . S
H325 C326 0.951 . S
C326 H325 0.951 . S
C326 C332 1.265 . S
H327 C332 0.950 . S
H328 C336 0.949 . S
H329 C337 0.950 . S
H330 C338 0.951 . S
H331 C339 0.951 . S
C332 C326 1.265 . S
C332 H327 0.950 . S
C332 C333 1.478 . S
C333 C320 1.394 . S
C333 C332 1.478 . S
C333 C334 1.397 . S
C334 C333 1.397 . S
C334 C335 1.438 . S
C334 C339 1.429 . S
C335 C318 1.394 . S
C335 C334 1.438 . S
C335 C336 1.428 . S
C336 H328 0.949 . S
C336 C335 1.428 . S
C336 C337 1.345 . S
C337 H329 0.950 . S
C337 C336 1.345 . S
C337 C338 1.424 . S
C338 H330 0.951 . S
C338 C337 1.424 . S
C338 C339 1.347 . S
C339 H331 0.951 . S
C339 C334 1.429 . S
C339 C338 1.347 . S
H340 C341 0.951 . S
C341 H340 0.951 . S
C341 C347 1.265 . S
H342 C347 0.950 . S
H343 C351 0.949 . S
H344 C352 0.950 . S
H345 C353 0.951 . S
H346 C354 0.951 . S
C347 C341 1.265 . S
C347 H342 0.950 . S
C347 C348 1.478 . S
C348 C347 1.478 . S
C348 C349 1.397 . S
C348 C365 1.394 . S
C349 C348 1.397 . S
C349 C350 1.438 . S
C349 C354 1.429 . S
C350 C349 1.438 . S
C350 C351 1.428 . S
C350 C363 1.394 . S
C351 H343 0.949 . S
C351 C350 1.428 . S
C351 C352 1.345 . S
C352 H344 0.950 . S
C352 C351 1.345 . S
C352 C353 1.424 . S
C353 H345 0.951 . S
C353 C352 1.424 . S
C353 C354 1.347 . S
C354 H346 0.951 . S
C354 C349 1.429 . S
C354 C353 1.347 . S
H355 C356 0.951 . S
C356 H355 0.951 . S
C356 C362 1.265 . S
H357 C362 0.950 . S
H358 C366 0.949 . S
H359 C367 0.950 . S
H360 C368 0.951 . S
H361 C369 0.951 . S
C362 C356 1.265 . S
C362 H357 0.950 . S
C362 C363 1.478 . S
C363 C350 1.394 . S
C363 C362 1.478 . S
C363 C364 1.397 . S
C364 C363 1.397 . S
C364 C365 1.438 . S
C364 C369 1.429 . S
C365 C348 1.394 . S
C365 C364 1.438 . S
C365 C366 1.428 . S
C366 H358 0.949 . S
C366 C365 1.428 . S
C366 C367 1.345 . S
C367 H359 0.950 . S
C367 C366 1.345 . S
C367 C368 1.424 . S
C368 H360 0.951 . S
C368 C367 1.424 . S
C368 C369 1.347 . S
C369 H361 0.951 . S
C369 C364 1.429 . S
C369 C368 1.347 . S
H370 C371 0.951 . S
C371 H370 0.951 . S
C371 C377 1.265 . S
H372 C377 0.950 . S
H373 C381 0.949 . S
H374 C382 0.950 . S
H375 C383 0.951 . S
H376 C384 0.951 . S
C377 C371 1.265 . S
C377 H372 0.950 . S
C377 C378 1.478 . S
C378 C377 1.478 . S
C378 C379 1.397 . S
C378 C395 1.394 . S
C379 C378 1.397 . S
C379 C380 1.438 . S
C379 C384 1.429 . S
C380 C379 1.438 . S
C380 C381 1.428 . S
C380 C393 1.394 . S
C381 H373 0.949 . S
C381 C380 1.428 . S
C381 C382 1.345 . S
C382 H374 0.950 . S
C382 C381 1.345 . S
C382 C383 1.424 . S
C383 H375 0.951 . S
C383 C382 1.424 . S
C383 C384 1.347 . S
C384 H376 0.951 . S
C384 C379 1.429 . S
C384 C383 1.347 . S
H385 C386 0.951 . S
C386 H385 0.951 . S
C386 C392 1.265 . S
H387 C392 0.950 . S
H388 C396 0.949 . S
H389 C397 0.950 . S
H390 C398 0.951 . S
H391 C399 0.951 . S
C392 C386 1.265 . S
C392 H387 0.950 . S
C392 C393 1.478 . S
C393 C380 1.394 . S
C393 C392 1.478 . S
C393 C394 1.397 . S
C394 C393 1.397 . S
C394 C395 1.438 . S
C394 C399 1.429 . S
C395 C378 1.394 . S
C395 C394 1.438 . S
C395 C396 1.428 . S
C396 H388 0.949 . S
C396 C395 1.428 . S
C396 C397 1.345 . S
C397 H389 0.950 . S
C397 C396 1.345 . S
C397 C398 1.424 . S
C398 H390 0.951 . S
C398 C397 1.424 . S
C398 C399 1.347 . S
C399 H391 0.951 . S
C399 C394 1.429 . S
C399 C398 1.347 . S
H400 C401 0.951 . S
C401 H400 0.951 . S
C401 C407 1.265 . S
H402 C407 0.950 . S
H403 C411 0.949 . S
H404 C412 0.950 . S
H405 C413 0.951 1_455 S
H406 C414 0.951 . S
C407 C401 1.265 . S
C407 H402 0.950 . S
C407 C408 1.478 . S
C408 C407 1.478 . S
C408 C409 1.397 . S
C408 C425 1.394 . S
C409 C408 1.397 . S
C409 C410 1.438 . S
C409 C414 1.429 . S
C410 C409 1.438 . S
C410 C411 1.428 . S
C410 C423 1.394 . S
C411 H403 0.949 . S
C411 C410 1.428 . S
C411 C412 1.345 1_655 S
C412 H404 0.950 . S
C412 C411 1.345 1_455 S
C412 C413 1.424 1_455 S
C413 H405 0.951 1_655 S
C413 C412 1.424 1_655 S
C413 C414 1.347 . S
C414 H406 0.951 . S
C414 C409 1.429 . S
C414 C413 1.347 . S
H415 C416 0.951 1_455 S
C416 H415 0.951 1_655 S
C416 C422 1.265 . S
H417 C422 0.950 . S
H418 C426 0.949 . S
H419 C427 0.950 . S
H420 C428 0.951 . S
H421 C429 0.951 . S
C422 C416 1.265 . S
C422 H417 0.950 . S
C422 C423 1.478 . S
C423 C410 1.394 . S
C423 C422 1.478 . S
C423 C424 1.397 . S
C424 C423 1.397 . S
C424 C425 1.438 . S
C424 C429 1.429 . S
C425 C408 1.394 . S
C425 C424 1.438 . S
C425 C426 1.428 . S
C426 H418 0.949 . S
C426 C425 1.428 . S
C426 C427 1.345 . S
C427 H419 0.950 . S
C427 C426 1.345 . S
C427 C428 1.424 . S
C428 H420 0.951 . S
C428 C427 1.424 . S
C428 C429 1.347 . S
C429 H421 0.951 . S
C429 C424 1.429 . S
C429 C428 1.347 . S
H430 C431 0.951 . S
C431 H430 0.951 . S
C431 C437 1.265 . S
H432 C437 0.950 . S
H433 C441 0.949 . S
H434 C442 0.950 . S
H435 C443 0.951 . S
H436 C444 0.951 . S
C437 C431 1.265 . S
C437 H432 0.950 . S
C437 C438 1.478 . S
C438 C437 1.478 . S
C438 C439 1.397 . S
C438 C455 1.394 . S
C439 C438 1.397 . S
C439 C440 1.438 . S
C439 C444 1.429 . S
C440 C439 1.438 . S
C440 C441 1.428 . S
C440 C453 1.394 . S
C441 H433 0.949 . S
C441 C440 1.428 . S
C441 C442 1.345 . S
C442 H434 0.950 . S
C442 C441 1.345 . S
C442 C443 1.424 . S
C443 H435 0.951 . S
C443 C442 1.424 . S
C443 C444 1.347 . S
C444 H436 0.951 . S
C444 C439 1.429 . S
C444 C443 1.347 . S
H445 C446 0.951 1_455 S
C446 H445 0.951 1_655 S
C446 C452 1.265 . S
H447 C452 0.950 . S
H448 C456 0.949 . S
H449 C457 0.950 . S
H450 C458 0.951 . S
H451 C459 0.951 . S
C452 C446 1.265 . S
C452 H447 0.950 . S
C452 C453 1.478 . S
C453 C440 1.394 . S
C453 C452 1.478 . S
C453 C454 1.397 . S
C454 C453 1.397 . S
C454 C455 1.438 . S
C454 C459 1.429 . S
C455 C438 1.394 . S
C455 C454 1.438 . S
C455 C456 1.428 . S
C456 H448 0.949 . S
C456 C455 1.428 . S
C456 C457 1.345 . S
C457 H449 0.950 . S
C457 C456 1.345 . S
C457 C458 1.424 . S
C458 H450 0.951 . S
C458 C457 1.424 . S
C458 C459 1.347 . S
C459 H451 0.951 . S
C459 C454 1.429 . S
C459 C458 1.347 . S
H460 C461 0.951 . S
C461 H460 0.951 . S
C461 C467 1.265 1_455 S
H462 C467 0.950 . S
H463 C471 0.949 . S
H464 C472 0.950 . S
H465 C473 0.951 . S
H466 C474 0.951 . S
C467 C461 1.265 1_655 S
C467 H462 0.950 . S
C467 C468 1.478 1_655 S
C468 C467 1.478 1_455 S
C468 C469 1.397 . S
C468 C485 1.394 . S
C469 C468 1.397 . S
C469 C470 1.438 . S
C469 C474 1.429 1_455 S
C470 C469 1.438 . S
C470 C471 1.428 . S
C470 C483 1.394 . S
C471 H463 0.949 . S
C471 C470 1.428 . S
C471 C472 1.345 . S
C472 H464 0.950 . S
C472 C471 1.345 . S
C472 C473 1.424 1_455 S
C473 H465 0.951 . S
C473 C472 1.424 1_655 S
C473 C474 1.347 . S
C474 H466 0.951 . S
C474 C469 1.429 1_655 S
C474 C473 1.347 . S
H475 C476 0.951 . S
C476 H475 0.951 . S
C476 C482 1.265 . S
H477 C482 0.950 . S
H478 C486 0.949 . S
H479 C487 0.950 . S
H480 C488 0.951 . S
H481 C489 0.951 . S
C482 C476 1.265 . S
C482 H477 0.950 . S
C482 C483 1.478 . S
C483 C470 1.394 . S
C483 C482 1.478 . S
C483 C484 1.397 . S
C484 C483 1.397 . S
C484 C485 1.438 . S
C484 C489 1.429 . S
C485 C468 1.394 . S
C485 C484 1.438 . S
C485 C486 1.428 . S
C486 H478 0.949 . S
C486 C485 1.428 . S
C486 C487 1.345 . S
C487 H479 0.950 . S
C487 C486 1.345 . S
C487 C488 1.424 . S
C488 H480 0.951 . S
C488 C487 1.424 . S
C488 C489 1.347 . S
C489 H481 0.951 . S
C489 C484 1.429 . S
C489 C488 1.347 . S
H490 C491 0.951 . S
C491 H490 0.951 . S
C491 C497 1.265 . S
H492 C497 0.950 . S
H493 C501 0.949 . S
H494 C502 0.950 . S
H495 C503 0.951 . S
H496 C504 0.951 . S
C497 C491 1.265 . S
C497 H492 0.950 . S
C497 C498 1.478 . S
C498 C497 1.478 . S
C498 C499 1.397 . S
C498 C515 1.394 . S
C499 C498 1.397 . S
C499 C500 1.438 . S
C499 C504 1.429 . S
C500 C499 1.438 . S
C500 C501 1.428 . S
C500 C513 1.394 . S
C501 H493 0.949 . S
C501 C500 1.428 . S
C501 C502 1.345 . S
C502 H494 0.950 . S
C502 C501 1.345 . S
C502 C503 1.424 . S
C503 H495 0.951 . S
C503 C502 1.424 . S
C503 C504 1.347 . S
C504 H496 0.951 . S
C504 C499 1.429 . S
C504 C503 1.347 . S
H505 C506 0.951 . S
C506 H505 0.951 . S
C506 C512 1.265 1_455 S
H507 C512 0.950 . S
H508 C516 0.949 . S
H509 C517 0.950 . S
H510 C518 0.951 . S
H511 C519 0.951 . S
C512 C506 1.265 1_655 S
C512 H507 0.950 . S
C512 C513 1.478 1_655 S
C513 C500 1.394 . S
C513 C512 1.478 1_455 S
C513 C514 1.397 . S
C514 C513 1.397 . S
C514 C515 1.438 . S
C514 C519 1.429 1_455 S
C515 C498 1.394 . S
C515 C514 1.438 . S
C515 C516 1.428 . S
C516 H508 0.949 . S
C516 C515 1.428 . S
C516 C517 1.345 1_455 S
C517 H509 0.950 . S
C517 C516 1.345 1_655 S
C517 C518 1.424 . S
C518 H510 0.951 . S
C518 C517 1.424 . S
C518 C519 1.347 . S
C519 H511 0.951 . S
C519 C514 1.429 1_655 S
C519 C518 1.347 . S
C161 C42 1.517 1_554 S
C176 C17 1.522 . S
C191 C97 1.520 . S
C206 C122 1.520 . S
C221 C2 1.485 1_554 S
C236 C57 1.490 . S
C251 C137 1.520 . S
C266 C82 1.520 . S
C281 C128 1.278 . S
C296 C31 1.266 . S
C311 C48 1.280 . S
C326 C111 1.292 . S
C341 C52 1.291 . S
C356 C109 1.282 . S
C371 C132 1.292 . S
C386 C29 1.280 . S
C401 C71 1.267 . S
C416 C88 1.277 1_655 S
C431 C151 1.267 . S
C446 C8 1.276 1_655 S
C461 C149 1.281 1_455 S
C476 C12 1.292 . S
C491 C92 1.290 . S
C506 C69 1.284 1_455 S
