# Generated by pormake.
# Topology uoe, (4)-cn, num edge types: 1
# Building blocks:
#     Node 0, Type 0, BuildingBlock: QUQFOY_clean_sbu_1, # of connection points: 4
#     Node 1, Type 0, BuildingBlock: QUQFOY_clean_sbu_1, # of connection points: 4
#     Node 2, Type 0, BuildingBlock: QUQFOY_clean_sbu_1, # of connection points: 4
#     Node 3, Type 0, BuildingBlock: QUQFOY_clean_sbu_1, # of connection points: 4
#     Node 4, Type 0, BuildingBlock: QUQFOY_clean_sbu_1, # of connection points: 4
#     Node 5, Type 0, BuildingBlock: QUQFOY_clean_sbu_1, # of connection points: 4
#     Node 6, Type 0, BuildingBlock: QUQFOY_clean_sbu_1, # of connection points: 4
#     Node 7, Type 0, BuildingBlock: QUQFOY_clean_sbu_1, # of connection points: 4
#     Node 8, Type 0, BuildingBlock: QUQFOY_clean_sbu_1, # of connection points: 4
#     Node 9, Type 0, BuildingBlock: QUQFOY_clean_sbu_1, # of connection points: 4
#     Node 10, Type 0, BuildingBlock: QUQFOY_clean_sbu_1, # of connection points: 4
#     Node 11, Type 0, BuildingBlock: QUQFOY_clean_sbu_1, # of connection points: 4
#     Node 12, Type 0, BuildingBlock: QUQFOY_clean_sbu_1, # of connection points: 4
#     Node 13, Type 0, BuildingBlock: QUQFOY_clean_sbu_1, # of connection points: 4
#     Node 14, Type 0, BuildingBlock: QUQFOY_clean_sbu_1, # of connection points: 4
#     Node 15, Type 0, BuildingBlock: QUQFOY_clean_sbu_1, # of connection points: 4
#     Node 16, Type 0, BuildingBlock: QUQFOY_clean_sbu_1, # of connection points: 4
#     Node 17, Type 0, BuildingBlock: QUQFOY_clean_sbu_1, # of connection points: 4
#     Node 18, Type 0, BuildingBlock: QUQFOY_clean_sbu_1, # of connection points: 4
#     Node 19, Type 0, BuildingBlock: QUQFOY_clean_sbu_1, # of connection points: 4
#     Node 20, Type 0, BuildingBlock: QUQFOY_clean_sbu_1, # of connection points: 4
#     Node 21, Type 0, BuildingBlock: QUQFOY_clean_sbu_1, # of connection points: 4
#     Node 22, Type 0, BuildingBlock: QUQFOY_clean_sbu_1, # of connection points: 4
#     Node 23, Type 0, BuildingBlock: QUQFOY_clean_sbu_1, # of connection points: 4
#     Node 24, Type 0, BuildingBlock: QUQFOY_clean_sbu_1, # of connection points: 4
#     Node 25, Type 0, BuildingBlock: QUQFOY_clean_sbu_1, # of connection points: 4
#     Node 26, Type 0, BuildingBlock: QUQFOY_clean_sbu_1, # of connection points: 4
#     Node 27, Type 0, BuildingBlock: QUQFOY_clean_sbu_1, # of connection points: 4
#     Node 28, Type 0, BuildingBlock: QUQFOY_clean_sbu_1, # of connection points: 4
#     Node 29, Type 0, BuildingBlock: QUQFOY_clean_sbu_1, # of connection points: 4
#     Node 30, Type 0, BuildingBlock: QUQFOY_clean_sbu_1, # of connection points: 4
#     Node 31, Type 0, BuildingBlock: QUQFOY_clean_sbu_1, # of connection points: 4
#     Edge 32, Type (0, 0), BuildingBlock: EZIPEK_clean_linker_0, # of connection points: 2
#     Edge 33, Type (0, 0), BuildingBlock: EZIPEK_clean_linker_0, # of connection points: 2
#     Edge 34, Type (0, 0), BuildingBlock: EZIPEK_clean_linker_0, # of connection points: 2
#     Edge 35, Type (0, 0), BuildingBlock: EZIPEK_clean_linker_0, # of connection points: 2
#     Edge 36, Type (0, 0), BuildingBlock: EZIPEK_clean_linker_0, # of connection points: 2
#     Edge 37, Type (0, 0), BuildingBlock: EZIPEK_clean_linker_0, # of connection points: 2
#     Edge 38, Type (0, 0), BuildingBlock: EZIPEK_clean_linker_0, # of connection points: 2
#     Edge 39, Type (0, 0), BuildingBlock: EZIPEK_clean_linker_0, # of connection points: 2
#     Edge 40, Type (0, 0), BuildingBlock: EZIPEK_clean_linker_0, # of connection points: 2
#     Edge 41, Type (0, 0), BuildingBlock: EZIPEK_clean_linker_0, # of connection points: 2
#     Edge 42, Type (0, 0), BuildingBlock: EZIPEK_clean_linker_0, # of connection points: 2
#     Edge 43, Type (0, 0), BuildingBlock: EZIPEK_clean_linker_0, # of connection points: 2
#     Edge 44, Type (0, 0), BuildingBlock: EZIPEK_clean_linker_0, # of connection points: 2
#     Edge 45, Type (0, 0), BuildingBlock: EZIPEK_clean_linker_0, # of connection points: 2
#     Edge 46, Type (0, 0), BuildingBlock: EZIPEK_clean_linker_0, # of connection points: 2
#     Edge 47, Type (0, 0), BuildingBlock: EZIPEK_clean_linker_0, # of connection points: 2
#     Edge 48, Type (0, 0), BuildingBlock: EZIPEK_clean_linker_0, # of connection points: 2
#     Edge 49, Type (0, 0), BuildingBlock: EZIPEK_clean_linker_0, # of connection points: 2
#     Edge 50, Type (0, 0), BuildingBlock: EZIPEK_clean_linker_0, # of connection points: 2
#     Edge 51, Type (0, 0), BuildingBlock: EZIPEK_clean_linker_0, # of connection points: 2
#     Edge 52, Type (0, 0), BuildingBlock: EZIPEK_clean_linker_0, # of connection points: 2
#     Edge 53, Type (0, 0), BuildingBlock: EZIPEK_clean_linker_0, # of connection points: 2
#     Edge 54, Type (0, 0), BuildingBlock: EZIPEK_clean_linker_0, # of connection points: 2
#     Edge 55, Type (0, 0), BuildingBlock: EZIPEK_clean_linker_0, # of connection points: 2
#     Edge 56, Type (0, 0), BuildingBlock: EZIPEK_clean_linker_0, # of connection points: 2
#     Edge 57, Type (0, 0), BuildingBlock: EZIPEK_clean_linker_0, # of connection points: 2
#     Edge 58, Type (0, 0), BuildingBlock: EZIPEK_clean_linker_0, # of connection points: 2
#     Edge 59, Type (0, 0), BuildingBlock: EZIPEK_clean_linker_0, # of connection points: 2
#     Edge 60, Type (0, 0), BuildingBlock: EZIPEK_clean_linker_0, # of connection points: 2
#     Edge 61, Type (0, 0), BuildingBlock: EZIPEK_clean_linker_0, # of connection points: 2
#     Edge 62, Type (0, 0), BuildingBlock: EZIPEK_clean_linker_0, # of connection points: 2
#     Edge 63, Type (0, 0), BuildingBlock: EZIPEK_clean_linker_0, # of connection points: 2
#     Edge 64, Type (0, 0), BuildingBlock: EZIPEK_clean_linker_0, # of connection points: 2
#     Edge 65, Type (0, 0), BuildingBlock: EZIPEK_clean_linker_0, # of connection points: 2
#     Edge 66, Type (0, 0), BuildingBlock: EZIPEK_clean_linker_0, # of connection points: 2
#     Edge 67, Type (0, 0), BuildingBlock: EZIPEK_clean_linker_0, # of connection points: 2
#     Edge 68, Type (0, 0), BuildingBlock: EZIPEK_clean_linker_0, # of connection points: 2
#     Edge 69, Type (0, 0), BuildingBlock: EZIPEK_clean_linker_0, # of connection points: 2
#     Edge 70, Type (0, 0), BuildingBlock: EZIPEK_clean_linker_0, # of connection points: 2
#     Edge 71, Type (0, 0), BuildingBlock: EZIPEK_clean_linker_0, # of connection points: 2
#     Edge 72, Type (0, 0), BuildingBlock: EZIPEK_clean_linker_0, # of connection points: 2
#     Edge 73, Type (0, 0), BuildingBlock: EZIPEK_clean_linker_0, # of connection points: 2
#     Edge 74, Type (0, 0), BuildingBlock: EZIPEK_clean_linker_0, # of connection points: 2
#     Edge 75, Type (0, 0), BuildingBlock: EZIPEK_clean_linker_0, # of connection points: 2
#     Edge 76, Type (0, 0), BuildingBlock: EZIPEK_clean_linker_0, # of connection points: 2
#     Edge 77, Type (0, 0), BuildingBlock: EZIPEK_clean_linker_0, # of connection points: 2
#     Edge 78, Type (0, 0), BuildingBlock: EZIPEK_clean_linker_0, # of connection points: 2
#     Edge 79, Type (0, 0), BuildingBlock: EZIPEK_clean_linker_0, # of connection points: 2
#     Edge 80, Type (0, 0), BuildingBlock: EZIPEK_clean_linker_0, # of connection points: 2
#     Edge 81, Type (0, 0), BuildingBlock: EZIPEK_clean_linker_0, # of connection points: 2
#     Edge 82, Type (0, 0), BuildingBlock: EZIPEK_clean_linker_0, # of connection points: 2
#     Edge 83, Type (0, 0), BuildingBlock: EZIPEK_clean_linker_0, # of connection points: 2
#     Edge 84, Type (0, 0), BuildingBlock: EZIPEK_clean_linker_0, # of connection points: 2
#     Edge 85, Type (0, 0), BuildingBlock: EZIPEK_clean_linker_0, # of connection points: 2
#     Edge 86, Type (0, 0), BuildingBlock: EZIPEK_clean_linker_0, # of connection points: 2
#     Edge 87, Type (0, 0), BuildingBlock: EZIPEK_clean_linker_0, # of connection points: 2
#     Edge 88, Type (0, 0), BuildingBlock: EZIPEK_clean_linker_0, # of connection points: 2
#     Edge 89, Type (0, 0), BuildingBlock: EZIPEK_clean_linker_0, # of connection points: 2
#     Edge 90, Type (0, 0), BuildingBlock: EZIPEK_clean_linker_0, # of connection points: 2
#     Edge 91, Type (0, 0), BuildingBlock: EZIPEK_clean_linker_0, # of connection points: 2
#     Edge 92, Type (0, 0), BuildingBlock: EZIPEK_clean_linker_0, # of connection points: 2
#     Edge 93, Type (0, 0), BuildingBlock: EZIPEK_clean_linker_0, # of connection points: 2
#     Edge 94, Type (0, 0), BuildingBlock: EZIPEK_clean_linker_0, # of connection points: 2
#     Edge 95, Type (0, 0), BuildingBlock: EZIPEK_clean_linker_0, # of connection points: 2
# Relax obj value: 0.066
# Max RMSD: 0.142
# Mean RMSD: 0.142
data_MOF--net-uoe--node1-QUQFOY_clean_sbu_1--edge1-EZIPEK_clean_linker_0
_symmetry_space_group_name_H-M    P1
_symmetry_Int_Tables_number       1
_symmetry_cell_setting            triclinic
loop_
_symmetry_equiv_pos_as_xyz
'x, y, z'
_cell_length_a     58.477518
_cell_length_b     58.58934
_cell_length_c     21.080749
_cell_angle_alpha  89.967819
_cell_angle_beta   89.94736
_cell_angle_gamma 90.095321
loop_
_atom_site_label
_atom_site_type_symbol
_atom_site_fract_x
_atom_site_fract_y
_atom_site_fract_z
_atom_type_partial_charge
O0 O 0.10493 0.48375 0.19444 0.0
Cd1 Cd 0.09316 0.46349 0.12287 0.0
Cd2 Cd 0.1099 0.49965 0.06021 0.0
O3 O 0.13173 0.50085 0.13885 0.0
O4 O 0.09393 0.43312 0.16665 0.0
O5 O 0.11615 0.44185 0.08517 0.0
C6 C 0.1115 0.42829 0.13197 0.0
C7 C 0.12013 0.50468 0.95359 0.0
C8 C 0.12326 0.49527 0.19236 0.0
C9 C 0.05889 0.49498 0.0768 0.0
O10 O 0.07591 0.50848 0.07453 0.0
O11 O 0.06186 0.47365 0.08584 0.0
O12 O 0.11994 0.52163 0.99263 0.0
O13 O 0.11653 0.48446 0.9761 0.0
O14 O 0.79043 0.84717 0.43319 0.0
Cd15 Cd 0.80911 0.83785 0.35645 0.0
Cd16 Cd 0.76901 0.85189 0.30745 0.0
O17 O 0.76295 0.86835 0.39258 0.0
O18 O 0.8405 0.83843 0.3953 0.0
O19 O 0.82868 0.86364 0.3242 0.0
C20 C 0.84355 0.85766 0.36653 0.0
C21 C 0.76709 0.86542 0.20417 0.0
C22 C 0.77365 0.86059 0.44046 0.0
C23 C 0.77816 0.80125 0.3133 0.0
O24 O 0.76358 0.81726 0.31171 0.0
O25 O 0.79939 0.80565 0.32155 0.0
O26 O 0.74871 0.86185 0.23672 0.0
O27 O 0.78659 0.86399 0.23289 0.0
O28 O 0.41519 0.54181 0.69653 0.0
Cd29 Cd 0.42645 0.55883 0.61857 0.0
Cd30 Cd 0.41276 0.51616 0.57325 0.0
O31 O 0.39727 0.51131 0.66075 0.0
O32 O 0.4301 0.58999 0.65724 0.0
O33 O 0.40242 0.58127 0.59021 0.0
C34 C 0.41067 0.59513 0.63214 0.0
C35 C 0.39906 0.51219 0.47044 0.0
C36 C 0.40329 0.52409 0.70669 0.0
C37 C 0.46309 0.52659 0.57497 0.0
O38 O 0.44741 0.51161 0.57511 0.0
O39 O 0.45839 0.5477 0.58357 0.0
O40 O 0.40253 0.4945 0.5057 0.0
O41 O 0.40058 0.53219 0.49625 0.0
O42 O 0.72407 0.16338 0.93876 0.0
Cd43 Cd 0.70538 0.1732 0.86229 0.0
Cd44 Cd 0.7447 0.15735 0.81223 0.0
O45 O 0.7502 0.14069 0.8972 0.0
O46 O 0.67424 0.17676 0.90166 0.0
O47 O 0.68321 0.14847 0.83712 0.0
C48 C 0.66919 0.15706 0.87815 0.0
C49 C 0.74573 0.14414 0.70865 0.0
C50 C 0.74024 0.14916 0.94542 0.0
C51 C 0.73799 0.20812 0.81666 0.0
O52 O 0.75197 0.19159 0.81656 0.0
O53 O 0.71658 0.20449 0.82416 0.0
O54 O 0.76434 0.14672 0.74082 0.0
O55 O 0.7264 0.14621 0.73804 0.0
O56 O 0.10401 0.53296 0.43061 0.0
Cd57 Cd 0.08929 0.55516 0.49241 0.0
Cd58 Cd 0.10574 0.52042 0.57277 0.0
O59 O 0.12801 0.51596 0.49632 0.0
O60 O 0.08572 0.58333 0.43835 0.0
O61 O 0.11132 0.58043 0.51473 0.0
C62 C 0.10378 0.59133 0.46563 0.0
C63 C 0.1163 0.51871 0.68033 0.0
C64 C 0.12153 0.52072 0.44016 0.0
C65 C 0.05469 0.52375 0.54522 0.0
O66 O 0.0718 0.51129 0.55874 0.0
O67 O 0.05754 0.54435 0.5269 0.0
O68 O 0.11493 0.5005 0.6462 0.0
O69 O 0.11357 0.53814 0.65219 0.0
O70 O 0.72648 0.85129 0.69441 0.0
Cd71 Cd 0.70435 0.83866 0.75933 0.0
Cd72 Cd 0.74333 0.85347 0.82912 0.0
O73 O 0.75128 0.87202 0.74842 0.0
O74 O 0.67609 0.83756 0.70509 0.0
O75 O 0.68021 0.86105 0.78649 0.0
C76 C 0.66897 0.8551 0.73627 0.0
C77 C 0.75098 0.86535 0.93298 0.0
C78 C 0.74286 0.86545 0.69594 0.0
C79 C 0.73478 0.80237 0.8067 0.0
O80 O 0.74827 0.81875 0.81958 0.0
O81 O 0.71416 0.80613 0.78949 0.0
O82 O 0.76723 0.86131 0.89329 0.0
O83 O 0.7302 0.86465 0.91235 0.0
O84 O 0.41197 0.47755 0.95207 0.0
Cd85 Cd 0.42618 0.4544 0.01166 0.0
Cd86 Cd 0.41213 0.49164 0.09197 0.0
O87 O 0.39181 0.50006 0.01491 0.0
O88 O 0.42934 0.42737 0.95319 0.0
O89 O 0.40452 0.42853 0.03194 0.0
C90 C 0.41173 0.41863 0.9809 0.0
C91 C 0.40102 0.49727 0.19801 0.0
C92 C 0.39729 0.49318 0.95973 0.0
C93 C 0.4629 0.48458 0.06102 0.0
O94 O 0.44669 0.49762 0.07824 0.0
O95 O 0.45887 0.46437 0.04107 0.0
O96 O 0.40476 0.51421 0.16045 0.0
O97 O 0.40201 0.47693 0.17456 0.0
O98 O 0.78971 0.16075 0.20251 0.0
Cd99 Cd 0.81118 0.1729 0.27011 0.0
Cd100 Cd 0.77024 0.15828 0.33452 0.0
O101 O 0.76326 0.14051 0.25202 0.0
O102 O 0.83902 0.17758 0.21531 0.0
O103 O 0.83738 0.15126 0.29003 0.0
C104 C 0.84787 0.15981 0.24155 0.0
C105 C 0.76178 0.14571 0.43733 0.0
C106 C 0.77281 0.14721 0.20109 0.0
C107 C 0.77986 0.20925 0.31647 0.0
O108 O 0.76576 0.19308 0.32599 0.0
O109 O 0.80076 0.20513 0.30257 0.0
O110 O 0.74582 0.14992 0.39693 0.0
O111 O 0.78272 0.14659 0.41785 0.0
O112 O 0.91932 0.54443 0.91653 0.0
Cd113 Cd 0.93039 0.56267 0.99265 0.0
Cd114 Cd 0.91825 0.51999 0.04336 0.0
O115 O 0.90293 0.51363 0.95601 0.0
O116 O 0.93046 0.59351 0.95111 0.0
O117 O 0.90614 0.58364 0.02686 0.0
C118 C 0.91187 0.59763 0.98198 0.0
C119 C 0.90425 0.51455 0.14586 0.0
C120 C 0.90811 0.52614 0.90862 0.0
C121 C 0.96842 0.53294 0.03892 0.0
O122 O 0.95323 0.51748 0.04234 0.0
O123 O 0.96302 0.5536 0.02634 0.0
O124 O 0.90917 0.49737 0.11009 0.0
O125 O 0.9048 0.53475 0.12104 0.0
O126 O 0.22308 0.16607 0.69343 0.0
Cd127 Cd 0.20309 0.17663 0.76643 0.0
Cd128 Cd 0.24215 0.16141 0.82223 0.0
O129 O 0.24902 0.14416 0.73893 0.0
O130 O 0.17281 0.17961 0.72211 0.0
O131 O 0.18023 0.15252 0.79207 0.0
C132 C 0.16707 0.16048 0.74803 0.0
C133 C 0.24361 0.14859 0.92638 0.0
C134 C 0.23951 0.15204 0.68931 0.0
C135 C 0.23474 0.21231 0.8116 0.0
O136 O 0.2487 0.19583 0.81616 0.0
O137 O 0.21352 0.20855 0.80124 0.0
O138 O 0.26211 0.15178 0.89409 0.0
O139 O 0.22423 0.15001 0.89709 0.0
O140 O 0.59983 0.47015 0.41401 0.0
Cd141 Cd 0.58902 0.45431 0.49461 0.0
Cd142 Cd 0.60271 0.49686 0.53402 0.0
O143 O 0.61922 0.50007 0.44728 0.0
O144 O 0.58779 0.42246 0.45976 0.0
O145 O 0.61325 0.43379 0.53083 0.0
C146 C 0.60676 0.41884 0.48934 0.0
C147 C 0.61542 0.50337 0.63717 0.0
C148 C 0.61253 0.48719 0.40229 0.0
C149 C 0.55255 0.4869 0.53368 0.0
O150 O 0.56815 0.50183 0.52837 0.0
O151 O 0.55729 0.4656 0.53054 0.0
O152 O 0.61266 0.52006 0.59787 0.0
O153 O 0.61351 0.48275 0.61582 0.0
O154 O 0.29107 0.85259 0.19224 0.0
Cd155 Cd 0.31149 0.83738 0.25751 0.0
Cd156 Cd 0.27242 0.85101 0.32717 0.0
O157 O 0.26422 0.87005 0.24756 0.0
O158 O 0.34101 0.83569 0.2081 0.0
O159 O 0.33699 0.857 0.2926 0.0
C160 C 0.34966 0.85085 0.24534 0.0
C161 C 0.26938 0.8634 0.43225 0.0
C162 C 0.27385 0.86566 0.19486 0.0
C163 C 0.27962 0.80026 0.29949 0.0
O164 O 0.26653 0.8164 0.31686 0.0
O165 O 0.30001 0.80434 0.28053 0.0
O166 O 0.25143 0.85995 0.39812 0.0
O167 O 0.28918 0.8615 0.40545 0.0
O168 O 0.91403 0.47624 0.66471 0.0
Cd169 Cd 0.92744 0.4523 0.60594 0.0
Cd170 Cd 0.9146 0.49017 0.52345 0.0
O171 O 0.89539 0.50001 0.60182 0.0
O172 O 0.92775 0.42525 0.66502 0.0
O173 O 0.90532 0.42748 0.58083 0.0
C174 C 0.91079 0.4172 0.63299 0.0
C175 C 0.90399 0.49738 0.41753 0.0
C176 C 0.90043 0.49281 0.65706 0.0
C177 C 0.96525 0.48041 0.55351 0.0
O178 O 0.94953 0.4938 0.53499 0.0
O179 O 0.96054 0.46075 0.57647 0.0
O180 O 0.90875 0.51372 0.45617 0.0
O181 O 0.9034 0.47688 0.43998 0.0
O182 O 0.2886 0.16734 0.42942 0.0
Cd183 Cd 0.3086 0.1776 0.35636 0.0
Cd184 Cd 0.26786 0.16331 0.29974 0.0
O185 O 0.26214 0.14601 0.38392 0.0
O186 O 0.33887 0.1799 0.4012 0.0
O187 O 0.33095 0.15312 0.3307 0.0
C188 C 0.34418 0.1607 0.37515 0.0
C189 C 0.25952 0.15023 0.19765 0.0
C190 C 0.272 0.15348 0.43349 0.0
C191 C 0.27774 0.21411 0.31158 0.0
O192 O 0.26316 0.19811 0.30672 0.0
O193 O 0.29883 0.20971 0.32184 0.0
O194 O 0.24351 0.15412 0.23829 0.0
O195 O 0.28047 0.1516 0.21673 0.0
O196 O 0.60566 0.53302 0.15795 0.0
Cd197 Cd 0.59047 0.55683 0.10234 0.0
Cd198 Cd 0.60254 0.51991 0.01708 0.0
O199 O 0.62268 0.50902 0.09229 0.0
O200 O 0.59026 0.58327 0.16348 0.0
O201 O 0.61129 0.58268 0.07628 0.0
C202 C 0.60639 0.59222 0.12993 0.0
C203 C 0.61333 0.51729 0.90994 0.0
C204 C 0.61889 0.51629 0.14819 0.0
C205 C 0.55222 0.52811 0.0537 0.0
O206 O 0.56778 0.51534 0.03108 0.0
O207 O 0.55703 0.54749 0.07823 0.0
O208 O 0.60883 0.49932 0.94291 0.0
O209 O 0.61329 0.53677 0.93867 0.0
O210 O 0.22436 0.8478 0.93493 0.0
Cd211 Cd 0.20509 0.83833 0.85967 0.0
Cd212 Cd 0.24591 0.85209 0.807 0.0
O213 O 0.25129 0.86917 0.89183 0.0
O214 O 0.17406 0.83835 0.90096 0.0
O215 O 0.18481 0.86381 0.8292 0.0
C216 C 0.17038 0.85749 0.87243 0.0
C217 C 0.25341 0.86448 0.70397 0.0
C218 C 0.24104 0.86148 0.94064 0.0
C219 C 0.23576 0.80156 0.81562 0.0
O220 O 0.25062 0.81737 0.81321 0.0
O221 O 0.21462 0.80617 0.82462 0.0
O222 O 0.26972 0.86186 0.74448 0.0
O223 O 0.23257 0.8627 0.724 0.0
O224 O 0.5983 0.97101 0.69074 0.0
Cd225 Cd 0.58686 0.95415 0.61283 0.0
Cd226 Cd 0.59986 0.99693 0.56864 0.0
O227 O 0.61558 1.00196 0.65564 0.0
O228 O 0.58594 0.92292 0.65182 0.0
O229 O 0.61069 0.93299 0.57732 0.0
C230 C 0.6046 0.91877 0.62127 0.0
C231 C 0.61353 1.00116 0.46583 0.0
C232 C 0.60992 0.98886 0.70125 0.0
C233 C 0.54955 0.98564 0.57162 0.0
O234 O 0.56507 1.0008 0.57113 0.0
O235 O 0.55448 0.96459 0.58018 0.0
O236 O 0.60976 0.01877 0.50111 0.0
O237 O 0.61218 0.98112 0.49147 0.0
O238 O 0.29435 0.34644 0.93376 0.0
Cd239 Cd 0.31237 0.33618 0.85675 0.0
Cd240 Cd 0.27244 0.35163 0.8082 0.0
O241 O 0.26742 0.3684 0.89335 0.0
O242 O 0.34355 0.33273 0.89557 0.0
O243 O 0.3344 0.36093 0.83085 0.0
C244 C 0.34838 0.35253 0.87227 0.0
C245 C 0.27073 0.36514 0.70483 0.0
C246 C 0.27804 0.36043 0.94112 0.0
C247 C 0.27962 0.30081 0.81431 0.0
O248 O 0.26556 0.31728 0.81322 0.0
O249 O 0.30102 0.30455 0.82157 0.0
O250 O 0.25233 0.36236 0.7379 0.0
O251 O 0.29025 0.36288 0.73302 0.0
O252 O 0.91256 0.0403 0.18021 0.0
Cd253 Cd 0.92751 0.06142 0.1159 0.0
Cd254 Cd 0.91098 0.02478 0.03864 0.0
O255 O 0.88946 0.02087 0.11743 0.0
O256 O 0.93018 0.09035 0.16687 0.0
O257 O 0.90751 0.08709 0.08464 0.0
C258 C 0.91451 0.09932 0.13189 0.0
C259 C 0.89993 0.01803 0.93283 0.0
C260 C 0.89579 0.02685 0.17285 0.0
C261 C 0.96235 0.03016 0.06416 0.0
O262 O 0.94543 0.01738 0.05076 0.0
O263 O 0.95934 0.05054 0.08375 0.0
O264 O 0.90187 1.00156 0.97301 0.0
O265 O 0.90236 0.03862 0.95366 0.0
O266 O 0.22285 0.6663 0.41645 0.0
Cd267 Cd 0.20286 0.67593 0.34277 0.0
Cd268 Cd 0.24323 0.66124 0.28642 0.0
O269 O 0.2486 0.64411 0.37109 0.0
O270 O 0.17222 0.67803 0.3861 0.0
O271 O 0.18099 0.65076 0.31806 0.0
C272 C 0.16734 0.65848 0.36135 0.0
C273 C 0.25171 0.64817 0.18435 0.0
C274 C 0.23914 0.65213 0.42064 0.0
C275 C 0.23414 0.71212 0.29724 0.0
O276 O 0.24849 0.69595 0.29307 0.0
O277 O 0.21295 0.70795 0.30723 0.0
O278 O 0.26764 0.65179 0.22538 0.0
O279 O 0.23072 0.64968 0.20309 0.0
O280 O 0.60104 0.03429 0.9474 0.0
Cd281 Cd 0.58699 0.05707 0.00813 0.0
Cd282 Cd 0.60076 0.02022 0.08723 0.0
O283 O 0.6211 0.01168 0.01011 0.0
O284 O 0.58496 0.08487 0.95214 0.0
O285 O 0.60932 0.08195 0.03166 0.0
C286 C 0.60276 0.09263 0.98114 0.0
C287 C 0.61197 0.01542 0.19328 0.0
C288 C 0.61573 0.01866 0.95495 0.0
C289 C 0.55 0.02694 0.05666 0.0
O290 O 0.5662 0.01399 0.07436 0.0
O291 O 0.55406 0.04707 0.03603 0.0
O292 O 0.60831 0.99818 0.15677 0.0
O293 O 0.61084 0.03559 0.16872 0.0
O294 O 0.23 0.35141 0.19515 0.0
Cd295 Cd 0.20716 0.34113 0.2614 0.0
Cd296 Cd 0.24634 0.3543 0.32979 0.0
O297 O 0.25484 0.37231 0.24856 0.0
O298 O 0.17824 0.34153 0.20953 0.0
O299 O 0.18523 0.36595 0.28719 0.0
C300 C 0.1728 0.35999 0.23921 0.0
C301 C 0.25438 0.36597 0.4336 0.0
C302 C 0.24665 0.36526 0.19627 0.0
C303 C 0.23568 0.30363 0.30947 0.0
O304 O 0.25003 0.31943 0.32066 0.0
O305 O 0.2151 0.30831 0.29362 0.0
O306 O 0.27049 0.36139 0.39392 0.0
O307 O 0.23359 0.36598 0.41294 0.0
O308 O 0.91223 0.98319 0.41487 0.0
Cd309 Cd 0.92456 0.96129 0.48211 0.0
Cd310 Cd 0.90991 0.99796 0.5532 0.0
O311 O 0.88864 1.00306 0.47458 0.0
O312 O 0.92298 0.93193 0.43314 0.0
O313 O 0.90201 0.93873 0.51833 0.0
C314 C 0.90604 0.92617 0.46909 0.0
C315 C 0.89932 1.00152 0.66028 0.0
C316 C 0.89566 0.997 0.41988 0.0
C317 C 0.96095 0.99024 0.53214 0.0
O318 O 0.94465 1.00422 0.54123 0.0
O319 O 0.9569 0.96963 0.51613 0.0
O320 O 0.90175 0.01924 0.62457 0.0
O321 O 0.90071 0.98165 0.63384 0.0
O322 O 0.28885 0.66633 0.68027 0.0
Cd323 Cd 0.30911 0.67655 0.75303 0.0
Cd324 Cd 0.26979 0.66129 0.80951 0.0
O325 O 0.26262 0.64457 0.72559 0.0
O326 O 0.33928 0.67956 0.7077 0.0
O327 O 0.33188 0.65227 0.77721 0.0
C328 C 0.34496 0.66033 0.73298 0.0
C329 C 0.26819 0.64788 0.91322 0.0
C330 C 0.27219 0.65251 0.67603 0.0
C331 C 0.27789 0.71215 0.80126 0.0
O332 O 0.2637 0.69579 0.80503 0.0
O333 O 0.29904 0.70824 0.79037 0.0
O334 O 0.24974 0.65146 0.8812 0.0
O335 O 0.28758 0.64926 0.88381 0.0
O336 O 0.41385 0.04084 0.40605 0.0
Cd337 Cd 0.42407 0.05736 0.48614 0.0
Cd338 Cd 0.41004 0.01496 0.5279 0.0
O339 O 0.39361 0.0117 0.44122 0.0
O340 O 0.42813 0.08889 0.45017 0.0
O341 O 0.39964 0.07941 0.51401 0.0
C342 C 0.40841 0.09375 0.47408 0.0
C343 C 0.3974 0.00835 0.63118 0.0
C344 C 0.40077 0.02398 0.39541 0.0
C345 C 0.46001 0.0247 0.52874 0.0
O346 O 0.44453 0.00973 0.52219 0.0
O347 O 0.4552 0.04597 0.52568 0.0
O348 O 0.40002 0.99172 0.59166 0.0
O349 O 0.39935 0.02899 0.60997 0.0
O350 O 0.72485 0.66531 0.18912 0.0
Cd351 Cd 0.7044 0.67556 0.26142 0.0
Cd352 Cd 0.74358 0.66109 0.31824 0.0
O353 O 0.75112 0.64396 0.23508 0.0
O354 O 0.67417 0.67565 0.21613 0.0
O355 O 0.68298 0.65098 0.29186 0.0
C356 C 0.66951 0.65701 0.24613 0.0
C357 C 0.74546 0.64828 0.42243 0.0
C358 C 0.74155 0.6516 0.18527 0.0
C359 C 0.73496 0.71196 0.30703 0.0
O360 O 0.74916 0.69572 0.31245 0.0
O361 O 0.71387 0.70787 0.29549 0.0
O362 O 0.76383 0.65203 0.39007 0.0
O363 O 0.72603 0.64916 0.39324 0.0
O364 O 0.09934 0.98099 0.92308 0.0
Cd365 Cd 0.08773 0.95911 0.99098 0.0
Cd366 Cd 0.10296 0.99609 0.06145 0.0
O367 O 0.12403 0.99999 0.98149 0.0
O368 O 0.08963 0.92969 0.94243 0.0
O369 O 0.11086 0.9371 0.02668 0.0
C370 C 0.10687 0.9244 0.97769 0.0
C371 C 0.11405 1.00347 0.1667 0.0
C372 C 0.11644 0.99421 0.92717 0.0
C373 C 0.05167 0.98805 0.04124 0.0
O374 O 0.06812 1.00192 0.05027 0.0
O375 O 0.05548 0.96742 0.02511 0.0
O376 O 0.1115 0.01977 0.12624 0.0
O377 O 0.1123 0.98274 0.14632 0.0
O378 O 0.79294 0.34532 0.68989 0.0
Cd379 Cd 0.81246 0.3341 0.76286 0.0
Cd380 Cd 0.77194 0.34787 0.81791 0.0
O381 O 0.76469 0.36463 0.73378 0.0
O382 O 0.84282 0.33394 0.71817 0.0
O383 O 0.83419 0.35809 0.79525 0.0
C384 C 0.84762 0.35232 0.74913 0.0
C385 C 0.76909 0.36114 0.92154 0.0
C386 C 0.77558 0.35811 0.68477 0.0
C387 C 0.78171 0.29706 0.80635 0.0
O388 O 0.76731 0.31307 0.81311 0.0
O389 O 0.80269 0.30146 0.79409 0.0
O390 O 0.75102 0.3569 0.88847 0.0
O391 O 0.78875 0.36039 0.89338 0.0
O392 O 0.40711 0.9769 0.15055 0.0
Cd393 Cd 0.42282 0.95308 0.09573 0.0
Cd394 Cd 0.41044 0.99101 0.01105 0.0
O395 O 0.39009 1.00135 0.0862 0.0
O396 O 0.42626 0.92828 0.16143 0.0
O397 O 0.40331 0.92485 0.07917 0.0
C398 C 0.41025 0.91712 0.13321 0.0
C399 C 0.39986 0.99383 0.9038 0.0
C400 C 0.39394 0.99374 0.1417 0.0
C401 C 0.4607 0.98309 0.0478 0.0
O402 O 0.44503 0.99598 0.02634 0.0
O403 O 0.45604 0.96331 0.07022 0.0
O404 O 0.40415 0.01175 0.93714 0.0
O405 O 0.40001 0.97427 0.93222 0.0
O406 O 0.7905 0.66682 0.92578 0.0
Cd407 Cd 0.81069 0.67805 0.85421 0.0
Cd408 Cd 0.77016 0.66314 0.7958 0.0
O409 O 0.76412 0.64562 0.87952 0.0
O410 O 0.84047 0.67922 0.90164 0.0
O411 O 0.83341 0.65469 0.82422 0.0
C412 C 0.84617 0.66099 0.87124 0.0
C413 C 0.76179 0.65018 0.6935 0.0
C414 C 0.77393 0.65291 0.92936 0.0
C415 C 0.77957 0.71421 0.80971 0.0
O416 O 0.76537 0.69794 0.80312 0.0
O417 O 0.80065 0.71024 0.82141 0.0
O418 O 0.7458 0.65409 0.73417 0.0
O419 O 0.78274 0.65149 0.71259 0.0
O420 O 0.09859 0.03661 0.68682 0.0
Cd421 Cd 0.08613 0.05914 0.62192 0.0
Cd422 Cd 0.10253 0.02373 0.54528 0.0
O423 O 0.1234 0.01906 0.62463 0.0
O424 O 0.08299 0.08805 0.67274 0.0
O425 O 0.10971 0.08293 0.60006 0.0
C426 C 0.10181 0.09485 0.64686 0.0
C427 C 0.11379 0.02043 0.43883 0.0
C428 C 0.11595 0.02389 0.67986 0.0
C429 C 0.05142 0.02939 0.5644 0.0
O430 O 0.06815 0.01597 0.55515 0.0
O431 O 0.05481 0.04992 0.58229 0.0
O432 O 0.11191 1.00269 0.47468 0.0
O433 O 0.11152 0.04028 0.4649 0.0
O434 O 0.72705 0.34685 0.43085 0.0
Cd435 Cd 0.70546 0.33463 0.3641 0.0
Cd436 Cd 0.74462 0.34894 0.29659 0.0
O437 O 0.75215 0.36753 0.37763 0.0
O438 O 0.67635 0.33475 0.415 0.0
O439 O 0.68263 0.35775 0.33341 0.0
C440 C 0.67044 0.35248 0.38261 0.0
C441 C 0.75226 0.36085 0.19264 0.0
C442 C 0.74343 0.36101 0.42988 0.0
C443 C 0.73576 0.29792 0.31822 0.0
O444 O 0.7495 0.31418 0.30616 0.0
O445 O 0.71506 0.30191 0.33445 0.0
O446 O 0.76851 0.3569 0.23234 0.0
O447 O 0.73147 0.36005 0.21333 0.0
C448 C 1.00239 0.51114 0.99863 0.0
C449 C 0.9927 0.52565 0.04564 0.0
C450 C 0.02563 0.51839 0.11524 0.0
C451 C 0.03565 0.50462 0.06717 0.0
N452 N 0.03572 0.4909 0.95948 0.0
N453 N 0.996 0.54549 0.14516 0.0
C454 C 0.0246 0.50181 1.00785 0.0
C455 C 1.0047 0.53011 0.1028 0.0
N456 N 0.99008 0.5059 0.94548 0.0
N457 N 0.03576 0.51951 0.17363 0.0
H458 H 0.98047 0.55384 0.13817 0.0
H459 H 1.00478 0.55127 0.18494 0.0
H460 H 0.05101 0.51112 0.18428 0.0
H461 H 0.02838 0.52727 0.213 0.0
H462 H 0.99466 0.49317 0.91351 0.0
H463 H 0.97447 0.51354 0.93489 0.0
H464 H 0.02994 0.49073 0.9128 0.0
H465 H 0.05175 0.48334 0.96481 0.0
C466 C 0.75834 0.76982 0.25359 0.0
C467 C 0.76925 0.77739 0.31008 0.0
C468 C 0.75496 0.74334 0.36656 0.0
C469 C 0.74422 0.7357 0.30983 0.0
N470 N 0.73849 0.73961 0.19706 0.0
N471 N 0.77629 0.77292 0.42201 0.0
C472 C 0.74648 0.74851 0.25284 0.0
C473 C 0.76734 0.7644 0.36689 0.0
N474 N 0.75889 0.78341 0.20082 0.0
N475 N 0.7536 0.73009 0.41992 0.0
H476 H 0.78613 0.78776 0.42381 0.0
H477 H 0.77335 0.76604 0.46674 0.0
H478 H 0.74324 0.71562 0.42275 0.0
H479 H 0.76312 0.73278 0.46087 0.0
H480 H 0.74886 0.78074 0.16076 0.0
H481 H 0.76877 0.7982 0.1981 0.0
H482 H 0.74214 0.7464 0.15258 0.0
H483 H 0.72926 0.7244 0.1944 0.0
C484 C 0.49808 0.52089 0.50753 0.0
C485 C 0.48701 0.51838 0.56698 0.0
C486 C 0.5188 0.49437 0.60486 0.0
C487 C 0.52881 0.49527 0.54362 0.0
N488 N 0.52646 0.50634 0.43386 0.0
N489 N 0.48548 0.50105 0.67077 0.0
C490 C 0.51801 0.50775 0.4942 0.0
C491 C 0.49701 0.50459 0.61518 0.0
N492 N 0.48961 0.53594 0.46397 0.0
N493 N 0.53058 0.4846 0.65385 0.0
H494 H 0.4703 0.50943 0.68188 0.0
H495 H 0.49029 0.48897 0.70444 0.0
H496 H 0.54626 0.47643 0.64779 0.0
H497 H 0.52563 0.48589 0.70116 0.0
H498 H 0.49801 0.54024 0.42208 0.0
H499 H 0.47503 0.54573 0.4722 0.0
H500 H 0.51829 0.5131 0.39426 0.0
H501 H 0.54069 0.49645 0.42253 0.0
C502 C 0.74906 0.24532 0.86769 0.0
C503 C 0.7477 0.23162 0.81219 0.0
C504 C 0.77045 0.26012 0.7534 0.0
C505 C 0.77282 0.2732 0.80976 0.0
N506 N 0.7677 0.27677 0.92247 0.0
N507 N 0.75926 0.22434 0.70426 0.0
C508 C 0.76296 0.26538 0.86742 0.0
C509 C 0.75909 0.23856 0.75569 0.0
N510 N 0.73713 0.23911 0.92083 0.0
N511 N 0.77813 0.26879 0.697 0.0
H512 H 0.74989 0.20921 0.7025 0.0
H513 H 0.76958 0.22688 0.66459 0.0
H514 H 0.78729 0.28402 0.69354 0.0
H515 H 0.7743 0.26166 0.65305 0.0
H516 H 0.73533 0.24947 0.96057 0.0
H517 H 0.72762 0.22409 0.92399 0.0
H518 H 0.76303 0.27103 0.96737 0.0
H519 H 0.77825 0.29113 0.92376 0.0
C520 C 0.02192 0.50669 0.60718 0.0
C521 C 0.03144 0.51323 0.54777 0.0
C522 C 0.99953 0.49418 0.49269 0.0
C523 C 0.98915 0.48928 0.55207 0.0
N524 N 0.98852 0.49388 0.66575 0.0
N525 N 0.0286 0.51497 0.43369 0.0
C526 C 0.9999 0.49619 0.60937 0.0
C527 C 0.01996 0.50756 0.49042 0.0
N528 N 0.03399 0.51045 0.6617 0.0
N529 N 0.99017 0.48534 0.43857 0.0
H530 H 0.04407 0.52371 0.42959 0.0
H531 H 0.01983 0.51378 0.39089 0.0
H532 H 0.97545 0.47524 0.43892 0.0
H533 H 0.99783 0.48629 0.39409 0.0
H534 H 0.02946 0.50356 0.7055 0.0
H535 H 0.04939 0.51943 0.66261 0.0
H536 H 0.99407 0.50116 0.70809 0.0
H537 H 0.97254 0.48607 0.66969 0.0
C538 C 0.76571 0.74938 0.86582 0.0
C539 C 0.77031 0.73788 0.80786 0.0
C540 C 0.75057 0.76831 0.74881 0.0
C541 C 0.74456 0.77892 0.80712 0.0
N542 N 0.74381 0.77852 0.92116 0.0
N543 N 0.76597 0.73512 0.69457 0.0
C544 C 0.75151 0.76918 0.86566 0.0
C545 C 0.76236 0.747 0.74947 0.0
N546 N 0.775 0.74136 0.92102 0.0
N547 N 0.74589 0.77911 0.69276 0.0
H548 H 0.77608 0.72047 0.69261 0.0
H549 H 0.75821 0.7391 0.65156 0.0
H550 H 0.73675 0.79434 0.69009 0.0
H551 H 0.75223 0.77384 0.64902 0.0
H552 H 0.77429 0.75003 0.96402 0.0
H553 H 0.78501 0.72667 0.92318 0.0
H554 H 0.7463 0.77125 0.96564 0.0
H555 H 0.73316 0.79279 0.9224 0.0
C556 C 0.52037 0.50917 0.11462 0.0
C557 C 0.52857 0.51862 0.05672 0.0
C558 C 0.49523 0.50279 1.00043 0.0
C559 C 0.48642 0.49443 0.05898 0.0
N560 N 0.48894 0.4918 0.17276 0.0
N561 N 0.52304 0.52688 0.9461 0.0
C562 C 0.49852 0.49831 0.11637 0.0
C563 C 0.51578 0.51603 0.99998 0.0
N564 N 0.53399 0.50963 0.16737 0.0
N565 N 0.48389 0.498 0.94524 0.0
H566 H 0.5379 0.53676 0.94458 0.0
H567 H 0.51368 0.52765 0.90422 0.0
H568 H 0.46841 0.48916 0.94389 0.0
H569 H 0.49033 0.5015 0.90026 0.0
H570 H 0.53032 0.50072 0.20888 0.0
H571 H 0.54987 0.51774 0.16855 0.0
H572 H 0.49527 0.49669 0.21685 0.0
H573 H 0.4738 0.48241 0.17553 0.0
C574 C 0.75205 0.26438 0.25955 0.0
C575 C 0.7453 0.27433 0.31802 0.0
C576 C 0.76296 0.24239 0.37607 0.0
C577 C 0.77066 0.23299 0.31772 0.0
N578 N 0.77478 0.2359 0.2042 0.0
N579 N 0.74656 0.27466 0.43232 0.0
C580 C 0.76594 0.24433 0.25952 0.0
C581 C 0.75125 0.26376 0.37643 0.0
N582 N 0.74446 0.27379 0.20403 0.0
N583 N 0.76675 0.23072 0.43124 0.0
H584 H 0.73736 0.28987 0.43475 0.0
H585 H 0.75283 0.26947 0.47617 0.0
H586 H 0.77688 0.21609 0.43338 0.0
H587 H 0.75918 0.23487 0.4744 0.0
H588 H 0.74683 0.26648 0.15956 0.0
H589 H 0.73407 0.28825 0.20273 0.0
H590 H 0.77401 0.24437 0.16089 0.0
H591 H 0.78438 0.22095 0.20201 0.0
C592 C 0.26842 0.26427 0.869 0.0
C593 C 0.27001 0.27721 0.81201 0.0
C594 C 0.24627 0.24867 0.75653 0.0
C595 C 0.24438 0.23589 0.81368 0.0
N596 N 0.25463 0.23019 0.92312 0.0
N597 N 0.25863 0.28341 0.70359 0.0
C598 C 0.25572 0.2434 0.86962 0.0
C599 C 0.25842 0.26982 0.75638 0.0
N600 N 0.27801 0.27267 0.92344 0.0
N601 N 0.23766 0.23987 0.70134 0.0
H602 H 0.26865 0.29809 0.7001 0.0
H603 H 0.24815 0.28088 0.66434 0.0
H604 H 0.22823 0.22478 0.69932 0.0
H605 H 0.241 0.24662 0.65661 0.0
H606 H 0.2754 0.26583 0.96837 0.0
H607 H 0.28806 0.28737 0.92455 0.0
H608 H 0.26452 0.23277 0.96344 0.0
H609 H 0.24409 0.21588 0.92671 0.0
C610 C 0.26358 0.7666 0.23906 0.0
C611 C 0.26973 0.77672 0.29797 0.0
C612 C 0.24823 0.74686 0.35482 0.0
C613 C 0.24339 0.73586 0.2963 0.0
N614 N 0.24789 0.73386 0.18297 0.0
N615 N 0.27157 0.77442 0.41165 0.0
C616 C 0.25153 0.74536 0.23847 0.0
C617 C 0.26296 0.76628 0.35579 0.0
N618 N 0.26852 0.77773 0.18366 0.0
N619 N 0.23866 0.73871 0.40957 0.0
H620 H 0.2832 0.78792 0.41327 0.0
H621 H 0.26916 0.76652 0.45538 0.0
H622 H 0.22814 0.72434 0.41086 0.0
H623 H 0.23959 0.74715 0.45293 0.0
H624 H 0.26217 0.77283 0.1396 0.0
H625 H 0.27799 0.7928 0.18192 0.0
H626 H 0.25568 0.73813 0.14016 0.0
H627 H 0.23772 0.71924 0.18033 0.0
C628 C 0.26113 0.24733 0.25169 0.0
C629 C 0.26898 0.23798 0.3099 0.0
C630 C 0.25119 0.26978 0.3681 0.0
C631 C 0.24443 0.27977 0.30971 0.0
N632 N 0.24541 0.2799 0.19534 0.0
N633 N 0.27405 0.24132 0.42295 0.0
C634 C 0.24995 0.26897 0.25129 0.0
C635 C 0.26482 0.24958 0.36796 0.0
N636 N 0.26426 0.23535 0.19672 0.0
N637 N 0.2439 0.27934 0.42373 0.0
H638 H 0.28371 0.2264 0.42484 0.0
H639 H 0.27366 0.24999 0.466 0.0
H640 H 0.23367 0.29391 0.42512 0.0
H641 H 0.24628 0.27199 0.46816 0.0
H642 H 0.25653 0.23957 0.15385 0.0
H643 H 0.27394 0.22042 0.19459 0.0
H644 H 0.25145 0.27445 0.15146 0.0
H645 H 0.23665 0.29536 0.1929 0.0
C646 C 0.25833 0.74298 0.86412 0.0
C647 C 0.26863 0.73579 0.80631 0.0
C648 C 0.25311 0.76974 0.75246 0.0
C649 C 0.24419 0.77764 0.8111 0.0
N650 N 0.23998 0.77325 0.92413 0.0
N651 N 0.27734 0.74282 0.69612 0.0
C652 C 0.24712 0.76457 0.86726 0.0
C653 C 0.26654 0.7494 0.75071 0.0
N654 N 0.25907 0.72897 0.91599 0.0
N655 N 0.24796 0.7814 0.69807 0.0
H656 H 0.2864 0.72759 0.69199 0.0
H657 H 0.27861 0.75297 0.65578 0.0
H658 H 0.23784 0.79605 0.69796 0.0
H659 H 0.25201 0.77577 0.65265 0.0
H660 H 0.24952 0.73162 0.95702 0.0
H661 H 0.26854 0.71391 0.91707 0.0
H662 H 0.24419 0.76621 0.96791 0.0
H663 H 0.2307 0.78837 0.92795 0.0
C664 C 0.49485 1.0042 0.49001 0.0
C665 C 0.48373 0.01643 0.53936 0.0
C666 C 0.51528 1.00714 0.61164 0.0
C667 C 0.52556 0.99355 0.56346 0.0
N668 N 0.52345 0.97618 0.46018 0.0
N669 N 0.48142 0.02682 0.6497 0.0
C670 C 0.51475 0.99111 0.50371 0.0
C671 C 0.49345 0.01723 0.6009 0.0
N672 N 0.48676 1.00585 0.42938 0.0
N673 N 0.52657 0.01063 0.66755 0.0
H674 H 0.4657 0.0349 0.6433 0.0
H675 H 0.48618 0.02547 0.69712 0.0
H676 H 0.54179 1.00234 0.67881 0.0
H677 H 0.52153 0.02256 0.70134 0.0
H678 H 0.49519 0.99926 0.38994 0.0
H679 H 0.47263 0.01583 0.41776 0.0
H680 H 0.51522 0.97194 0.41804 0.0
H681 H 0.53802 0.96642 0.46868 0.0
C682 C 0.9954 0.01692 0.99748 0.0
C683 C 0.98575 0.02038 0.05863 0.0
C684 C 0.01825 1.00037 0.10774 0.0
C685 C 0.02794 0.99697 0.04665 0.0
N686 N 0.02722 1.00301 0.93369 0.0
N687 N 0.98609 0.01348 0.17129 0.0
C688 C 0.01678 1.00535 0.99148 0.0
C689 C 0.99676 0.0117 0.11368 0.0
N690 N 0.98381 0.02448 0.94516 0.0
N691 N 0.02999 0.99314 0.16013 0.0
H692 H 0.97069 0.02216 0.17767 0.0
H693 H 0.99169 1.00555 0.21255 0.0
H694 H 0.045 0.98359 0.1572 0.0
H695 H 0.02556 0.99719 0.20655 0.0
H696 H 0.98827 0.02069 0.89863 0.0
H697 H 0.96893 0.03423 0.94818 0.0
H698 H 0.02149 0.01049 0.89192 0.0
H699 H 0.04243 0.99403 0.9274 0.0
C700 C 0.51393 0.01362 0.11072 0.0
C701 C 0.52654 0.01694 0.05387 0.0
C702 C 0.4965 0.99702 0.99334 0.0
C703 C 0.48439 0.99264 0.05058 0.0
N704 N 0.48192 0.99531 0.16458 0.0
N705 N 0.53184 0.00903 0.94259 0.0
C706 C 0.4933 1.00043 0.10961 0.0
C707 C 0.51831 0.00796 0.99552 0.0
N708 N 0.52143 0.02372 0.1654 0.0
N709 N 0.48694 0.99094 0.9366 0.0
H710 H 0.54763 0.01735 0.94168 0.0
H711 H 0.52823 1.00044 0.90057 0.0
H712 H 0.47186 0.98148 0.93327 0.0
H713 H 0.49324 0.99621 0.89277 0.0
H714 H 0.51231 0.02391 0.20776 0.0
H715 H 0.53636 0.03347 0.16744 0.0
H716 H 0.48838 0.99837 0.20973 0.0
H717 H 0.4663 0.98673 0.16555 0.0
C718 C 0.01955 1.00402 0.6026 0.0
C719 C 0.02784 0.0201 0.55746 0.0
C720 C 0.99373 0.01378 0.49161 0.0
C721 C 0.98479 0.99884 0.53865 0.0
N722 N 0.98767 0.9813 0.6416 0.0
N723 N 0.02233 0.04207 0.46214 0.0
C724 C 0.99736 0.99428 0.59476 0.0
C725 C 0.01473 0.02554 0.50291 0.0
N726 N 0.03304 0.99791 0.6528 0.0
N727 N 0.98242 0.01608 0.43518 0.0
H728 H 0.03794 0.05045 0.46784 0.0
H729 H 0.01264 0.04865 0.42504 0.0
H730 H 0.96711 0.00764 0.42534 0.0
H731 H 0.98894 0.02482 0.39616 0.0
H732 H 0.02941 0.98431 0.68297 0.0
H733 H 0.04864 1.00578 0.66281 0.0
H734 H 0.99447 0.9796 0.68694 0.0
H735 H 0.97193 0.97312 0.63632 0.0
C736 C 0.10023 0.51875 0.85599 0.0
C737 C 0.12003 0.50894 0.88386 0.0
C738 C 0.1379 0.50603 0.77834 0.0
C739 C 0.11854 0.51694 0.75086 0.0
N740 N 0.0824 0.53639 0.7648 0.0
N741 N 0.15869 0.49556 0.87421 0.0
C742 C 0.10016 0.52427 0.79018 0.0
C743 C 0.13914 0.50316 0.84569 0.0
N744 N 0.0809 0.52158 0.89183 0.0
N745 N 0.15507 0.49834 0.73986 0.0
H746 H 0.15992 0.49305 0.9231 0.0
H747 H 0.17411 0.49315 0.85054 0.0
H748 H 0.15562 0.5017 0.69129 0.0
H749 H 0.16831 0.48788 0.75525 0.0
H750 H 0.06499 0.52573 0.87299 0.0
H751 H 0.08009 0.51788 0.94015 0.0
H752 H 0.07025 0.54488 0.79207 0.0
H753 H 0.0804 0.53938 0.71648 0.0
C754 C 0.75016 0.8861 0.03831 0.0
C755 C 0.75605 0.86658 1.00201 0.0
C756 C 0.77365 0.84907 0.09584 0.0
C757 C 0.76563 0.86744 0.13387 0.0
N758 N 0.74507 0.90289 0.14286 0.0
N759 N 0.7689 0.82741 0.99921 0.0
C760 C 0.75351 0.88581 0.10548 0.0
C761 C 0.76676 0.84759 0.03143 0.0
N762 N 0.74204 0.9051 0.00828 0.0
N763 N 0.7876 0.8327 0.12106 0.0
H764 H 0.7634 0.8251 0.95263 0.0
H765 H 0.77387 0.81218 0.02059 0.0
H766 H 0.79208 0.83186 0.16873 0.0
H767 H 0.79626 0.82077 0.09345 0.0
H768 H 0.73953 0.92071 0.03076 0.0
H769 H 0.73941 0.90575 0.95936 0.0
H770 H 0.73381 0.91534 0.12668 0.0
H771 H 0.74855 0.904 0.1913 0.0
C772 C 0.41941 0.50984 0.29913 0.0
C773 C 0.39979 0.50111 0.26772 0.0
C774 C 0.37934 0.49919 0.36979 0.0
C775 C 0.39837 0.50959 0.40018 0.0
N776 N 0.43584 0.52698 0.39298 0.0
N777 N 0.36029 0.48961 0.27057 0.0
C778 C 0.4181 0.51571 0.36445 0.0
C779 C 0.37953 0.49628 0.3024 0.0
N780 N 0.43981 0.51121 0.26737 0.0
N781 N 0.36122 0.49193 0.40552 0.0
H782 H 0.36002 0.48715 0.22156 0.0
H783 H 0.34428 0.48799 0.29167 0.0
H784 H 0.3601 0.49486 0.45423 0.0
H785 H 0.34791 0.48199 0.38783 0.0
H786 H 0.45538 0.51464 0.28931 0.0
H787 H 0.44173 0.50685 0.21974 0.0
H788 H 0.44908 0.53475 0.36789 0.0
H789 H 0.4368 0.52993 0.4416 0.0
C790 C 0.75894 0.12421 0.60884 0.0
C791 C 0.74691 0.14246 0.63818 0.0
C792 C 0.74532 0.1627 0.53621 0.0
C793 C 0.75625 0.14396 0.50609 0.0
N794 N 0.77045 0.10549 0.5108 0.0
N795 N 0.72503 0.17737 0.62717 0.0
C796 C 0.76225 0.1243 0.54164 0.0
C797 C 0.73875 0.16099 0.60091 0.0
N798 N 0.76735 0.10688 0.64542 0.0
N799 N 0.74274 0.18291 0.50439 0.0
H800 H 0.72118 0.1784 0.67523 0.0
H801 H 0.71604 0.18925 0.60024 0.0
H802 H 0.74777 0.18538 0.45747 0.0
H803 H 0.73772 0.19805 0.52617 0.0
H804 H 0.7786 0.09452 0.6287 0.0
H805 H 0.76378 0.10541 0.69376 0.0
H806 H 0.77309 0.08978 0.53263 0.0
H807 H 0.77299 0.10509 0.46182 0.0
C808 C 0.88363 0.50097 0.24467 0.0
C809 C 0.90298 0.51141 0.21589 0.0
C810 C 0.9233 0.51047 0.31786 0.0
C811 C 0.90331 0.50184 0.34792 0.0
N812 N 0.86362 0.49111 0.34232 0.0
N813 N 0.94039 0.52863 0.22617 0.0
C814 C 0.88323 0.49761 0.31191 0.0
C815 C 0.92247 0.51707 0.25299 0.0
N816 N 0.86577 0.49405 0.20755 0.0
N817 N 0.94357 0.51103 0.3503 0.0
H818 H 0.94145 0.53248 0.17799 0.0
H819 H 0.95362 0.53587 0.25244 0.0
H820 H 0.94523 0.50583 0.39736 0.0
H821 H 0.95929 0.51449 0.32908 0.0
H822 H 0.85225 0.48411 0.22406 0.0
H823 H 0.86513 0.49722 0.15886 0.0
H824 H 0.84777 0.48995 0.32017 0.0
H825 H 0.86288 0.48842 0.3912 0.0
C826 C 0.25715 0.12884 0.02609 0.0
C827 C 0.24485 0.14693 0.99681 0.0
C828 C 0.24273 0.167 0.09889 0.0
C829 C 0.25395 0.14842 0.12895 0.0
N830 N 0.26889 0.11023 0.12407 0.0
N831 N 0.22255 0.18154 1.00756 0.0
C832 C 0.26037 0.12891 0.09331 0.0
C833 C 0.23637 0.1653 0.03405 0.0
N834 N 0.26591 0.11172 0.98943 0.0
N835 N 0.23967 0.1871 0.13091 0.0
H836 H 0.21886 0.18255 0.95939 0.0
H837 H 0.21332 0.19329 0.0343 0.0
H838 H 0.24451 0.18957 0.17795 0.0
H839 H 0.23442 0.20218 0.10927 0.0
H840 H 0.27734 0.09952 1.00614 0.0
H841 H 0.26248 0.11028 0.94104 0.0
H842 H 0.27187 0.0946 0.10217 0.0
H843 H 0.27137 0.10982 0.17306 0.0
C844 C 0.63445 0.50476 0.81118 0.0
C845 C 0.61529 0.51563 0.83962 0.0
C846 C 0.59618 0.51733 0.736 0.0
C847 C 0.61593 0.50788 0.70672 0.0
N848 N 0.65485 0.49499 0.71412 0.0
N849 N 0.57912 0.53507 0.82833 0.0
C850 C 0.63536 0.50221 0.74374 0.0
C851 C 0.59664 0.52294 0.80164 0.0
N852 N 0.65163 0.49664 0.84884 0.0
N853 N 0.57636 0.51956 0.702 0.0
H854 H 0.57778 0.53826 0.87681 0.0
H855 H 0.56662 0.5434 0.80189 0.0
H856 H 0.57495 0.51531 0.65418 0.0
H857 H 0.56064 0.52358 0.72231 0.0
H858 H 0.66482 0.4863 0.83242 0.0
H859 H 0.65208 0.49933 0.89775 0.0
H860 H 0.6704 0.49268 0.73717 0.0
H861 H 0.65589 0.49283 0.66507 0.0
C862 C 0.2524 0.88443 0.5974 0.0
C863 C 0.25859 0.86522 0.63479 0.0
C864 C 0.27234 0.84534 0.53934 0.0
C865 C 0.26718 0.86493 0.50238 0.0
N866 N 0.25478 0.90393 0.49541 0.0
N867 N 0.27621 0.82796 0.64284 0.0
C868 C 0.25784 0.88472 0.53122 0.0
C869 C 0.26926 0.84596 0.60621 0.0
N870 N 0.24117 0.90227 0.62518 0.0
N871 N 0.27879 0.82554 0.50991 0.0
H872 H 0.27203 0.82608 0.69058 0.0
H873 H 0.28712 0.81518 0.62673 0.0
H874 H 0.28169 0.82433 0.46127 0.0
H875 H 0.27966 0.80977 0.53253 0.0
H876 H 0.23394 0.91574 0.60009 0.0
H877 H 0.23805 0.9031 0.67385 0.0
H878 H 0.24999 0.91968 0.51383 0.0
H879 H 0.25862 0.90453 0.44708 0.0
C880 C 0.59314 1.00408 0.29485 0.0
C881 C 0.61303 0.01207 0.26315 0.0
C882 C 0.63353 0.01366 0.36502 0.0
C883 C 0.61423 1.00384 0.39564 0.0
N884 N 0.57631 0.98747 0.38902 0.0
N885 N 0.65281 0.02253 0.26551 0.0
C886 C 0.59431 0.99826 0.3602 0.0
C887 C 0.63342 0.01643 0.29758 0.0
N888 N 0.5727 1.00331 0.26323 0.0
N889 N 0.65183 0.02051 0.40056 0.0
H890 H 0.65311 0.02496 0.21648 0.0
H891 H 0.66887 0.02376 0.28648 0.0
H892 H 0.65281 0.01774 0.44938 0.0
H893 H 0.66543 0.03 0.3826 0.0
H894 H 0.55704 1.00036 0.28535 0.0
H895 H 0.5709 0.00774 0.21559 0.0
H896 H 0.56278 0.98015 0.36416 0.0
H897 H 0.57542 0.98442 0.43763 0.0
C898 C 0.26935 0.34742 0.5319 0.0
C899 C 0.25946 0.36689 0.50268 0.0
C900 C 0.25774 0.38608 0.60635 0.0
C901 C 0.26912 0.36719 0.63454 0.0
N902 N 0.28942 0.33147 0.62149 0.0
N903 N 0.24696 0.40591 0.50938 0.0
C904 C 0.27627 0.3485 0.59636 0.0
C905 C 0.25436 0.38657 0.5392 0.0
N906 N 0.27065 0.32723 0.49941 0.0
N907 N 0.25003 0.40344 0.64392 0.0
H908 H 0.24431 0.40672 0.46049 0.0
H909 H 0.24507 0.42158 0.53199 0.0
H910 H 0.25359 0.40436 0.69235 0.0
H911 H 0.23929 0.41636 0.62792 0.0
H912 H 0.27496 0.31176 0.52059 0.0
H913 H 0.2651 0.32523 0.45277 0.0
H914 H 0.29757 0.31919 0.59382 0.0
H915 H 0.29376 0.33031 0.66921 0.0
C916 C 0.918 1.00256 0.8338 0.0
C917 C 0.89889 0.0131 0.8634 0.0
C918 C 0.87961 0.01582 0.75974 0.0
C919 C 0.8982 1.00414 0.73079 0.0
N920 N 0.93419 0.9842 0.74123 0.0
N921 N 0.86042 0.02733 0.85725 0.0
C922 C 0.91699 0.99668 0.76829 0.0
C923 C 0.8794 0.01914 0.82703 0.0
N924 N 0.93777 0.99947 0.86746 0.0
N925 N 0.86221 0.02387 0.72272 0.0
H926 H 0.85985 0.03004 0.90615 0.0
H927 H 0.84475 0.02996 0.83509 0.0
H928 H 0.86103 0.02041 0.6743 0.0
H929 H 0.84951 0.03481 0.73904 0.0
H930 H 0.95325 0.99466 0.84709 0.0
H931 H 0.93944 1.00358 0.91531 0.0
H932 H 0.94653 0.9755 0.76729 0.0
H933 H 0.93559 0.98131 0.69269 0.0
C934 C 0.27566 0.66374 0.0218 0.0
C935 C 0.26692 0.64573 0.98359 0.0
C936 C 0.25088 0.62738 0.07913 0.0
C937 C 0.25747 0.64662 0.11567 0.0
N938 N 0.27224 0.68516 0.11925 0.0
N939 N 0.24532 0.61084 0.97445 0.0
C940 C 0.26906 0.66522 0.08652 0.0
C941 C 0.25426 0.62764 0.01194 0.0
N942 N 0.28997 0.67983 0.9964 0.0
N943 N 0.24201 0.60863 0.10898 0.0
H944 H 0.24887 0.60962 0.92605 0.0
H945 H 0.23367 0.59869 0.99049 0.0
H946 H 0.2394 0.60799 0.15792 0.0
H947 H 0.23887 0.59316 0.08638 0.0
H948 H 0.29929 0.6913 0.02392 0.0
H949 H 0.29402 0.68094 0.94845 0.0
H950 H 0.27781 0.70026 0.09819 0.0
H951 H 0.26716 0.68752 0.16615 0.0
C952 C 0.41622 0.98811 0.79497 0.0
C953 C 0.39779 0.99567 0.83352 0.0
C954 C 0.37774 0.00964 0.73825 0.0
C955 C 0.39698 1.00372 0.7007 0.0
N956 N 0.43636 0.99145 0.69502 0.0
N957 N 0.36179 0.01525 0.84376 0.0
C958 C 0.41664 0.99389 0.72943 0.0
C959 C 0.37876 1.00694 0.80564 0.0
N960 N 0.43358 0.97561 0.82102 0.0
N961 N 0.3583 0.01722 0.70918 0.0
H962 H 0.36136 0.01242 0.89262 0.0
H963 H 0.34877 0.02588 0.82778 0.0
H964 H 0.35717 0.01949 0.66018 0.0
H965 H 0.34284 0.01974 0.73262 0.0
H966 H 0.44585 0.96711 0.79411 0.0
H967 H 0.43498 0.97225 0.86939 0.0
H968 H 0.45205 0.98716 0.71498 0.0
H969 H 0.43775 0.99583 0.64726 0.0
C970 C 0.75947 0.62873 0.52195 0.0
C971 C 0.74681 0.64659 0.49284 0.0
C972 C 0.74467 0.6667 0.59483 0.0
C973 C 0.75619 0.64829 0.62482 0.0
N974 N 0.77157 0.61028 0.61979 0.0
N975 N 0.72382 0.68073 0.50404 0.0
C976 C 0.76279 0.62885 0.58913 0.0
C977 C 0.73809 0.66482 0.5302 0.0
N978 N 0.76848 0.61177 0.48518 0.0
N979 N 0.7415 0.68683 0.62665 0.0
H980 H 0.71977 0.68148 0.45606 0.0
H981 H 0.71454 0.69238 0.531 0.0
H982 H 0.74657 0.68946 0.67343 0.0
H983 H 0.73597 0.70179 0.60491 0.0
H984 H 0.78014 0.59977 0.50178 0.0
H985 H 0.76502 0.6103 0.43681 0.0
H986 H 0.7747 0.59469 0.59784 0.0
H987 H 0.77412 0.60989 0.66877 0.0
C988 C 0.13424 1.007 0.33966 0.0
C989 C 0.11505 0.01773 0.36845 0.0
C990 C 0.0952 0.01816 0.26547 0.0
C991 C 0.11485 0.00859 0.23601 0.0
N992 N 0.15399 0.9963 0.24229 0.0
N993 N 0.07795 0.03553 0.3581 0.0
C994 C 0.13463 1.00359 0.27243 0.0
C995 C 0.09585 0.02409 0.33097 0.0
N996 N 0.15202 0.99992 0.37681 0.0
N997 N 0.07533 0.02025 0.23166 0.0
H998 H 0.07631 0.03823 0.4067 0.0
H999 H 0.06513 0.04353 0.33211 0.0
H1000 H 0.07391 0.01605 0.18379 0.0
H1001 H 0.05961 0.02431 0.25184 0.0
H1002 H 0.16531 0.98967 0.36063 0.0
H1003 H 0.15297 1.00345 0.42523 0.0
H1004 H 0.16976 0.99447 0.26448 0.0
H1005 H 0.15468 0.99352 0.19344 0.0
C1006 C 0.76827 0.34319 0.09428 0.0
C1007 C 0.75735 0.36209 0.12356 0.0
C1008 C 0.75479 0.38127 0.01994 0.0
C1009 C 0.76725 0.36306 0.9918 0.0
N1010 N 0.78946 0.32852 1.00487 0.0
N1011 N 0.74289 0.40044 0.1169 0.0
C1012 C 0.7753 0.34475 0.02995 0.0
C1013 C 0.7513 0.38152 0.08708 0.0
N1014 N 0.77049 0.32302 0.12655 0.0
N1015 N 0.74617 0.39819 0.98234 0.0
H1016 H 0.74014 0.40108 0.16578 0.0
H1017 H 0.74023 0.416 0.09429 0.0
H1018 H 0.74968 0.39929 0.93389 0.0
H1019 H 0.73472 0.41049 0.99834 0.0
H1020 H 0.77566 0.30784 0.10525 0.0
H1021 H 0.76486 0.32064 0.17301 0.0
H1022 H 0.79811 0.31659 0.03252 0.0
H1023 H 0.79414 0.32787 0.9573 0.0
C1024 C 0.13283 0.48938 0.36597 0.0
C1025 C 0.13388 0.51265 0.3832 0.0
C1026 C 0.13836 0.52397 0.27198 0.0
C1027 C 0.13418 0.50098 0.25412 0.0
N1028 N 0.13667 0.46125 0.28243 0.0
N1029 N 0.14682 0.5504 0.35784 0.0
C1030 C 0.13483 0.48349 0.3009 0.0
C1031 C 0.14007 0.52931 0.33762 0.0
N1032 N 0.12805 0.4732 0.41075 0.0
N1033 N 0.13878 0.54086 0.22735 0.0
H1034 H 0.14785 0.5544 0.40605 0.0
H1035 H 0.15335 0.56292 0.32778 0.0
H1036 H 0.13834 0.53768 0.17882 0.0
H1037 H 0.13879 0.55817 0.23848 0.0
H1038 H 0.12398 0.45634 0.39995 0.0
H1039 H 0.12741 0.47689 0.45906 0.0
H1040 H 0.13912 0.44774 0.31378 0.0
H1041 H 0.13782 0.45671 0.23481 0.0
C1042 C 0.7536 0.88713 0.59703 0.0
C1043 C 0.75573 0.86767 0.63643 0.0
C1044 C 0.765 0.84417 0.54558 0.0
C1045 C 0.76536 0.86379 0.50613 0.0
N1046 N 0.7642 0.90491 0.4971 0.0
N1047 N 0.77067 0.82976 0.65138 0.0
C1048 C 0.76088 0.88568 0.53249 0.0
C1049 C 0.76421 0.847 0.61161 0.0
N1050 N 0.74408 0.90659 0.62067 0.0
N1051 N 0.76392 0.82275 0.51997 0.0
H1052 H 0.77033 0.8315 0.70067 0.0
H1053 H 0.77852 0.81489 0.63522 0.0
H1054 H 0.76208 0.8199 0.47138 0.0
H1055 H 0.76185 0.80807 0.5474 0.0
H1056 H 0.73983 0.92056 0.59244 0.0
H1057 H 0.73945 0.90815 0.66831 0.0
H1058 H 0.76314 0.92131 0.51597 0.0
H1059 H 0.76982 0.90444 0.45017 0.0
C1060 C 0.41644 0.52267 0.8195 0.0
C1061 C 0.39904 0.5178 0.7741 0.0
C1062 C 0.37597 0.50066 0.85899 0.0
C1063 C 0.39282 0.50727 0.9035 0.0
N1064 N 0.42483 0.53132 0.92893 0.0
N1065 N 0.35953 0.50739 0.7551 0.0
C1066 C 0.41124 0.52114 0.88452 0.0
C1067 C 0.37786 0.50839 0.79503 0.0
N1068 N 0.43856 0.52648 0.80122 0.0
N1069 N 0.35868 0.48648 0.87746 0.0
H1070 H 0.35994 0.51385 0.70905 0.0
H1071 H 0.34331 0.50228 0.76992 0.0
H1072 H 0.35656 0.48153 0.92471 0.0
H1073 H 0.34731 0.47897 0.84564 0.0
H1074 H 0.45195 0.52822 0.8335 0.0
H1075 H 0.4442 0.52462 0.75467 0.0
H1076 H 0.43776 0.54285 0.91703 0.0
H1077 H 0.42149 0.53001 0.97746 0.0
C1078 C 0.75511 0.16637 0.11059 0.0
C1079 C 0.76104 0.14545 0.13958 0.0
C1080 C 0.75242 0.12538 0.0404 0.0
C1081 C 0.7498 0.14687 0.0099 0.0
N1082 N 0.75588 0.18773 0.01332 0.0
N1083 N 0.7676 0.105 0.13174 0.0
C1084 C 0.75329 0.16735 0.04427 0.0
C1085 C 0.76028 0.12482 0.10453 0.0
N1086 N 0.75126 0.18537 0.14665 0.0
N1087 N 0.74681 0.10577 0.00914 0.0
H1088 H 0.77276 0.10415 0.17906 0.0
H1089 H 0.76972 0.08987 0.10653 0.0
H1090 H 0.7411 0.10569 0.96229 0.0
H1091 H 0.7463 0.08984 0.03106 0.0
H1092 H 0.74508 0.2006 0.12771 0.0
H1093 H 0.75181 0.18508 0.19614 0.0
H1094 H 0.76033 0.20281 0.03652 0.0
H1095 H 0.75638 0.18904 0.96395 0.0
C1096 C 0.88003 0.50148 0.75888 0.0
C1097 C 0.89694 0.5072 0.7134 0.0
C1098 C 0.92112 0.52295 0.79589 0.0
C1099 C 0.90372 0.51891 0.84197 0.0
N1100 N 0.86418 0.50931 0.86304 0.0
N1101 N 0.92977 0.52982 0.68552 0.0
C1102 C 0.88234 0.50967 0.82234 0.0
C1103 C 0.9159 0.52059 0.731 0.0
N1104 N 0.86221 0.48777 0.74172 0.0
N1105 N 0.94323 0.52698 0.81376 0.0
H1106 H 0.92643 0.52802 0.63715 0.0
H1107 H 0.943 0.54115 0.69608 0.0
H1108 H 0.9487 0.52622 0.86065 0.0
H1109 H 0.95672 0.52795 0.7815 0.0
H1110 H 0.85072 0.48081 0.77424 0.0
H1111 H 0.85971 0.48265 0.69479 0.0
H1112 H 0.84778 0.50445 0.84922 0.0
H1113 H 0.86498 0.51594 0.90885 0.0
C1114 C 0.25552 0.17124 0.59606 0.0
C1115 C 0.25046 0.15033 0.62655 0.0
C1116 C 0.25953 0.12985 0.52829 0.0
C1117 C 0.26149 0.15118 0.49672 0.0
N1118 N 0.25413 0.19176 0.49739 0.0
N1119 N 0.24515 0.10959 0.62094 0.0
C1120 C 0.25719 0.17175 0.52971 0.0
C1121 C 0.2518 0.12946 0.5926 0.0
N1122 N 0.25911 0.19063 0.63075 0.0
N1123 N 0.26562 0.11024 0.49776 0.0
H1124 H 0.23991 0.10886 0.66823 0.0
H1125 H 0.24356 0.0942 0.59658 0.0
H1126 H 0.27094 0.11008 0.45052 0.0
H1127 H 0.26672 0.09447 0.52039 0.0
H1128 H 0.26467 0.20592 0.61052 0.0
H1129 H 0.25909 0.1907 0.68027 0.0
H1130 H 0.24913 0.20686 0.51951 0.0
H1131 H 0.25397 0.1926 0.44793 0.0
C1132 C 0.60425 0.48905 0.22433 0.0
C1133 C 0.62323 0.5019 0.20401 0.0
C1134 C 0.63849 0.50079 0.3123 0.0
C1135 C 0.61692 0.49268 0.33432 0.0
N1136 N 0.57697 0.48583 0.30866 0.0
N1137 N 0.65849 0.52105 0.22808 0.0
C1138 C 0.59918 0.48833 0.28959 0.0
C1139 C 0.64056 0.50793 0.2478 0.0
N1140 N 0.59 0.47924 0.18088 0.0
N1141 N 0.65697 0.50114 0.35176 0.0
H1142 H 0.66069 0.5255 0.18046 0.0
H1143 H 0.67035 0.52821 0.25915 0.0
H1144 H 0.65635 0.49507 0.39821 0.0
H1145 H 0.67339 0.50529 0.33628 0.0
H1146 H 0.57654 0.46849 0.19378 0.0
H1147 H 0.59324 0.48001 0.13222 0.0
H1148 H 0.5634 0.48435 0.27688 0.0
H1149 H 0.57163 0.4886 0.35513 0.0
C1150 C 0.2517 0.84464 0.04353 0.0
C1151 C 0.25025 0.86451 1.00539 0.0
C1152 C 0.26227 0.88756 0.09671 0.0
C1153 C 0.26107 0.86775 0.13512 0.0
N1154 N 0.24731 0.82924 0.14862 0.0
N1155 N 0.25041 0.90567 0.9983 0.0
C1156 C 0.25305 0.84698 0.10961 0.0
C1157 C 0.25447 0.88633 0.03256 0.0
N1158 N 0.25314 0.82348 0.01647 0.0
N1159 N 0.27123 0.9072 0.121 0.0
H1160 H 0.24454 0.90528 0.95162 0.0
H1161 H 0.25123 0.92198 0.0178 0.0
H1162 H 0.27615 0.90853 0.16846 0.0
H1163 H 0.27472 0.92157 0.0935 0.0
H1164 H 0.25598 0.80868 0.04278 0.0
H1165 H 0.25445 0.82109 0.96754 0.0
H1166 H 0.23961 0.81435 0.1319 0.0
H1167 H 0.24797 0.83052 0.19797 0.0
C1168 C 0.6353 1.00427 0.78986 0.0
C1169 C 0.61416 0.99488 0.76879 0.0
C1170 C 0.60201 0.9909 0.87915 0.0
C1171 C 0.62037 1.00476 0.89851 0.0
N1172 N 0.65443 0.0258 0.87299 0.0
N1173 N 0.57472 0.98579 0.79579 0.0
C1174 C 0.63719 0.01166 0.85411 0.0
C1175 C 0.59681 0.98968 0.81412 0.0
N1176 N 0.65359 1.00557 0.74977 0.0
N1177 N 0.58848 0.98044 0.92331 0.0
H1178 H 0.56909 0.98786 0.74933 0.0
H1179 H 0.56134 0.98373 0.82802 0.0
H1180 H 0.59183 0.98154 0.97185 0.0
H1181 H 0.57559 0.96893 0.91114 0.0
H1182 H 0.66981 0.01066 0.76461 0.0
H1183 H 0.65315 0.9994 0.70343 0.0
H1184 H 0.66578 0.03351 0.84139 0.0
H1185 H 0.65653 0.03051 0.92041 0.0
C1186 C 0.25833 0.3869 0.0981 0.0
C1187 C 0.2596 0.36717 0.1368 0.0
C1188 C 0.26837 0.3438 0.04531 0.0
C1189 C 0.26964 0.36359 1.00669 0.0
N1190 N 0.26965 0.40475 0.99883 0.0
N1191 N 0.27297 0.32863 0.15068 0.0
C1192 C 0.26573 0.38549 0.03365 0.0
C1193 C 0.26735 0.34631 0.11142 0.0
N1194 N 0.24949 0.4066 0.12226 0.0
N1195 N 0.26659 0.32257 0.01877 0.0
H1196 H 0.27251 0.33013 0.20003 0.0
H1197 H 0.2803 0.31354 0.13418 0.0
H1198 H 0.26486 0.32005 0.97001 0.0
H1199 H 0.26384 0.30784 0.0455 0.0
H1200 H 0.24579 0.42084 0.0945 0.0
H1201 H 0.24479 0.40812 0.16986 0.0
H1202 H 0.26902 0.42111 0.01809 0.0
H1203 H 0.27523 0.40427 0.95188 0.0
C1204 C 0.88308 0.02848 0.3447 0.0
C1205 C 0.88493 1.00493 0.35965 0.0
C1206 C 0.88361 0.99506 0.24648 0.0
C1207 C 0.88439 0.01862 0.23163 0.0
N1208 N 0.87514 0.05685 0.2635 0.0
N1209 N 0.87724 0.9663 0.32726 0.0
C1210 C 0.88052 0.03497 0.28006 0.0
C1211 C 0.88168 0.98842 0.31108 0.0
N1212 N 0.88558 0.04467 0.39075 0.0
N1213 N 0.88652 0.97905 0.20014 0.0
H1214 H 0.87577 0.96125 0.37443 0.0
H1215 H 0.87279 0.95373 0.29459 0.0
H1216 H 0.88693 0.98298 0.15203 0.0
H1217 H 0.88939 0.96184 0.20962 0.0
H1218 H 0.88743 0.062 0.38097 0.0
H1219 H 0.88686 0.04082 0.43878 0.0
H1220 H 0.87041 0.06932 0.29616 0.0
H1221 H 0.87319 0.06171 0.21611 0.0
C1222 C 0.25748 0.67129 0.58032 0.0
C1223 C 0.2615 0.65056 0.61295 0.0
C1224 C 0.25108 0.62924 0.51709 0.0
C1225 C 0.25001 0.65019 0.48342 0.0
N1226 N 0.25933 0.69035 0.47941 0.0
N1227 N 0.26492 0.60955 0.61111 0.0
C1228 C 0.25552 0.67095 0.514 0.0
C1229 C 0.25904 0.62934 0.58114 0.0
N1230 N 0.25494 0.6913 0.61296 0.0
N1231 N 0.24395 0.60954 0.48875 0.0
H1232 H 0.27047 0.60916 0.6581 0.0
H1233 H 0.26566 0.59383 0.58818 0.0
H1234 H 0.23851 0.609 0.44165 0.0
H1235 H 0.24214 0.59415 0.51301 0.0
H1236 H 0.25015 0.70655 0.59118 0.0
H1237 H 0.25499 0.69209 0.66243 0.0
H1238 H 0.26524 0.70549 0.4996 0.0
H1239 H 0.25912 0.69052 0.42989 0.0
C1240 C 0.40954 0.0204 0.21797 0.0
C1241 C 0.39017 0.00808 0.19793 0.0
C1242 C 0.37475 0.01015 0.30597 0.0
C1243 C 0.39645 0.01791 0.32784 0.0
N1244 N 0.43667 0.02326 0.30262 0.0
N1245 N 0.35445 0.98985 0.22258 0.0
C1246 C 0.41444 0.02137 0.28325 0.0
C1247 C 0.37264 1.00267 0.24182 0.0
N1248 N 0.42422 0.02954 0.17438 0.0
N1249 N 0.35617 0.01048 0.34518 0.0
H1250 H 0.35223 0.98514 0.1752 0.0
H1251 H 0.34238 0.98316 0.25391 0.0
H1252 H 0.35682 0.01678 0.39136 0.0
H1253 H 0.3397 1.00664 0.32968 0.0
H1254 H 0.43798 0.03992 0.1871 0.0
H1255 H 0.42111 0.02866 0.12569 0.0
H1256 H 0.45038 0.02397 0.27104 0.0
H1257 H 0.44172 0.0207 0.34942 0.0
C1258 C 0.75712 0.6708 0.09144 0.0
C1259 C 0.75248 0.64988 0.12245 0.0
C1260 C 0.76172 0.6293 0.02447 0.0
C1261 C 0.7633 0.65056 0.99243 0.0
N1262 N 0.75535 0.69102 0.99232 0.0
N1263 N 0.74762 0.60907 0.1175 0.0
C1264 C 0.7587 0.67114 0.02504 0.0
C1265 C 0.75405 0.62896 0.08884 0.0
N1266 N 0.7604 0.69035 0.12568 0.0
N1267 N 0.76813 0.60972 0.99431 0.0
H1268 H 0.74236 0.60839 0.16478 0.0
H1269 H 0.74621 0.59362 0.09336 0.0
H1270 H 0.77342 0.60954 0.94703 0.0
H1271 H 0.7695 0.59404 0.01728 0.0
H1272 H 0.76565 0.70567 0.10508 0.0
H1273 H 0.76043 0.69056 0.1752 0.0
H1274 H 0.75011 0.70611 0.01411 0.0
H1275 H 0.75523 0.69174 0.94283 0.0
C1276 C 0.12908 0.98507 0.81754 0.0
C1277 C 0.12707 1.0017 0.86635 0.0
C1278 C 0.13199 0.03154 0.7864 0.0
C1279 C 0.127 0.01536 0.73845 0.0
N1280 N 0.1226 0.97603 0.70696 0.0
N1281 N 0.12848 0.04144 0.89736 0.0
C1282 C 0.12679 0.99181 0.75319 0.0
C1283 C 0.12981 0.02515 0.85121 0.0
N1284 N 0.13258 0.96276 0.83331 0.0
N1285 N 0.13833 0.05312 0.76934 0.0
H1286 H 0.12756 0.03765 0.9455 0.0
H1287 H 0.1273 0.05882 0.88758 0.0
H1288 H 0.13988 0.05797 0.72182 0.0
H1289 H 0.14422 0.06524 0.80162 0.0
H1290 H 0.13609 0.95003 0.80024 0.0
H1291 H 0.13419 0.95757 0.88032 0.0
H1292 H 0.11917 0.95892 0.71644 0.0
H1293 H 0.12152 0.98021 0.65904 0.0
C1294 C 0.7616 0.38238 0.59245 0.0
C1295 C 0.76622 0.36074 0.6201 0.0
C1296 C 0.76407 0.34284 0.51625 0.0
C1297 C 0.75592 0.36342 0.48998 0.0
N1298 N 0.7448 0.40265 0.50307 0.0
N1299 N 0.76433 0.31963 0.61011 0.0
C1300 C 0.75413 0.3833 0.52796 0.0
C1301 C 0.76529 0.34073 0.58244 0.0
N1302 N 0.76491 0.40185 0.62673 0.0
N1303 N 0.77013 0.32509 0.47776 0.0
H1304 H 0.76315 0.31738 0.65912 0.0
H1305 H 0.76181 0.30467 0.58427 0.0
H1306 H 0.76966 0.32628 0.42835 0.0
H1307 H 0.77784 0.31028 0.4949 0.0
H1308 H 0.76382 0.41812 0.60703 0.0
H1309 H 0.77032 0.40164 0.67385 0.0
H1310 H 0.74083 0.41695 0.53023 0.0
H1311 H 0.74001 0.40379 0.45548 0.0
C1312 C 0.1186 0.38819 0.17267 0.0
C1313 C 0.12752 0.40955 0.15169 0.0
C1314 C 0.16623 0.39632 0.17926 0.0
C1315 C 0.15687 0.37668 0.20908 0.0
N1316 N 0.12399 0.35426 0.23769 0.0
N1317 N 0.16036 0.43508 0.14517 0.0
C1318 C 0.13299 0.37265 0.20652 0.0
C1319 C 0.15149 0.41386 0.15706 0.0
N1320 N 0.0966 0.38238 0.15803 0.0
N1321 N 0.18934 0.39807 0.1704 0.0
H1322 H 0.15084 0.44907 0.13055 0.0
H1323 H 0.17708 0.43963 0.15662 0.0
H1324 H 0.20091 0.38588 0.18641 0.0
H1325 H 0.19686 0.41047 0.14167 0.0
H1326 H 0.08963 0.36632 0.16682 0.0
H1327 H 0.08599 0.39287 0.13098 0.0
H1328 H 0.1065 0.35163 0.24357 0.0
H1329 H 0.13413 0.34249 0.26188 0.0
C1330 C 0.86594 0.91184 0.44569 0.0
C1331 C 0.88993 0.90758 0.44876 0.0
C1332 C 0.8838 0.87099 0.39286 0.0
C1333 C 0.85986 0.8748 0.39332 0.0
N1334 N 0.82797 0.89599 0.43627 0.0
N1335 N 0.92089 0.88077 0.4373 0.0
C1336 C 0.85092 0.89436 0.42448 0.0
C1337 C 0.89863 0.88646 0.42564 0.0
N1338 N 0.85728 0.93295 0.4594 0.0
N1339 N 0.89242 0.8529 0.35975 0.0
H1340 H 0.93189 0.89122 0.46328 0.0
H1341 H 0.92779 0.86482 0.42704 0.0
H1342 H 0.882 0.84128 0.33583 0.0
H1343 H 0.90982 0.85045 0.35178 0.0
H1344 H 0.84047 0.93758 0.44944 0.0
H1345 H 0.86701 0.94677 0.47445 0.0
H1346 H 0.82092 0.90828 0.46617 0.0
H1347 H 0.81612 0.88386 0.42152 0.0
C1348 C 0.39304 0.61671 0.7247 0.0
C1349 C 0.39647 0.61431 0.65792 0.0
C1350 C 0.36593 0.64229 0.63986 0.0
C1351 C 0.36418 0.64634 0.70648 0.0
N1352 N 0.38078 0.64151 0.81012 0.0
N1353 N 0.39 0.62945 0.55326 0.0
C1354 C 0.37933 0.63492 0.74811 0.0
C1355 C 0.38419 0.62866 0.61598 0.0
N1356 N 0.40119 0.60068 0.76605 0.0
N1357 N 0.34931 0.64979 0.59937 0.0
H1358 H 0.40359 0.6201 0.53453 0.0
H1359 H 0.38298 0.64121 0.52168 0.0
H1360 H 0.33465 0.65833 0.61413 0.0
H1361 H 0.34877 0.64519 0.55164 0.0
H1362 H 0.39706 0.60063 0.81415 0.0
H1363 H 0.40973 0.58596 0.75203 0.0
H1364 H 0.3931 0.63512 0.8411 0.0
H1365 H 0.37139 0.65512 0.82847 0.0
C1366 C 0.64569 0.14143 0.97044 0.0
C1367 C 0.64961 0.14321 0.9037 0.0
C1368 C 0.62278 0.11148 0.88725 0.0
C1369 C 0.61702 0.11144 0.9531 0.0
N1370 N 0.61873 0.13129 0.0531 0.0
N1371 N 0.63655 0.13389 0.79843 0.0
C1372 C 0.62704 0.12808 0.99322 0.0
C1373 C 0.63635 0.12957 0.86208 0.0
N1374 N 0.6607 0.15075 0.01287 0.0
N1375 N 0.61707 0.09347 0.84919 0.0
H1376 H 0.64568 0.14745 0.77862 0.0
H1377 H 0.62563 0.12565 0.76671 0.0
H1378 H 0.60903 0.07875 0.86555 0.0
H1379 H 0.6229 0.09195 0.80263 0.0
H1380 H 0.65952 0.1479 0.06158 0.0
H1381 H 0.67584 0.15885 0.99992 0.0
H1382 H 0.62418 0.1446 0.08224 0.0
H1383 H 0.60463 0.12235 0.07062 0.0
C1384 C 0.13439 0.63096 0.34635 0.0
C1385 C 0.14847 0.64383 0.38774 0.0
C1386 C 0.12787 0.62689 0.47835 0.0
C1387 C 0.11708 0.61091 0.43762 0.0
N1388 N 0.11451 0.59531 0.33092 0.0
N1389 N 0.16173 0.64952 0.4958 0.0
C1390 C 0.1213 0.61238 0.37091 0.0
C1391 C 0.14596 0.64078 0.45458 0.0
N1392 N 0.13334 0.6365 0.28349 0.0
N1393 N 0.12075 0.62905 0.53976 0.0
H1394 H 0.17644 0.65813 0.48153 0.0
H1395 H 0.16164 0.64575 0.54414 0.0
H1396 H 0.10694 0.61985 0.55809 0.0
H1397 H 0.12678 0.64183 0.56982 0.0
H1398 H 0.12172 0.62899 0.25232 0.0
H1399 H 0.1422 0.65035 0.26429 0.0
H1400 H 0.11923 0.59479 0.28326 0.0
H1401 H 0.10668 0.5803 0.34591 0.0
C1402 C 0.61479 0.87854 0.65627 0.0
C1403 C 0.62117 0.90174 0.64715 0.0
C1404 C 0.6592 0.89339 0.69059 0.0
C1405 C 0.65204 0.87095 0.70681 0.0
N1406 N 0.62221 0.84263 0.71068 0.0
N1407 N 0.64769 0.93228 0.67238 0.0
C1408 C 0.62959 0.8636 0.69096 0.0
C1409 C 0.64289 0.90945 0.66881 0.0
N1410 N 0.59487 0.87068 0.63036 0.0
N1411 N 0.68184 0.89925 0.69307 0.0
H1412 H 0.63616 0.94503 0.6599 0.0
H1413 H 0.66228 0.93866 0.69457 0.0
H1414 H 0.69472 0.88798 0.70652 0.0
H1415 H 0.68813 0.91459 0.67496 0.0
H1416 H 0.59018 0.85354 0.62989 0.0
H1417 H 0.58389 0.88115 0.60445 0.0
H1418 H 0.60537 0.83705 0.70634 0.0
H1419 H 0.63261 0.83144 0.73613 0.0
C1420 C 0.38049 0.38105 0.85868 0.0
C1421 C 0.36738 0.36681 0.89919 0.0
C1422 C 0.38879 0.38223 0.99026 0.0
C1423 C 0.39847 0.39944 0.95128 0.0
N1424 N 0.39861 0.41784 0.84788 0.0
N1425 N 0.35567 0.35858 1.00764 0.0
C1426 C 0.39323 0.39949 0.88511 0.0
C1427 C 0.37072 0.36844 0.96617 0.0
N1428 N 0.38091 0.37701 0.79492 0.0
N1429 N 0.39684 0.37892 0.05034 0.0
H1430 H 0.3408 0.3502 0.9938 0.0
H1431 H 0.35644 0.36128 0.05647 0.0
H1432 H 0.41057 0.38817 0.06877 0.0
H1433 H 0.39162 0.36528 0.07869 0.0
H1434 H 0.39177 0.38574 0.76403 0.0
H1435 H 0.37237 0.36325 0.77426 0.0
H1436 H 0.3931 0.41935 0.80105 0.0
H1437 H 0.40601 0.43276 0.86506 0.0
C1438 C 0.86463 0.13968 0.14664 0.0
C1439 C 0.86727 0.14755 0.21019 0.0
C1440 C 0.90601 0.131 0.21218 0.0
C1441 C 0.90194 0.12071 0.15203 0.0
N1442 N 0.88352 0.12636 0.05139 0.0
N1443 N 0.89053 0.151 0.30388 0.0
C1444 C 0.88309 0.12845 0.11588 0.0
C1445 C 0.88807 0.1434 0.24299 0.0
N1446 N 0.84393 0.14132 0.11681 0.0
N1447 N 0.92758 0.13069 0.23693 0.0
H1448 H 0.87843 0.16132 0.32617 0.0
H1449 H 0.90392 0.14618 0.33347 0.0
H1450 H 0.94161 0.12497 0.21091 0.0
H1451 H 0.93226 0.13896 0.2786 0.0
H1452 H 0.84045 0.13345 0.07356 0.0
H1453 H 0.82947 0.14844 0.13772 0.0
H1454 H 0.87113 0.13341 0.02181 0.0
H1455 H 0.89798 0.12061 0.02721 0.0
C1456 C 0.87312 0.60675 0.93714 0.0
C1457 C 0.8951 0.61451 0.95637 0.0
C1458 C 0.88623 0.6524 0.91158 0.0
C1459 C 0.8635 0.6451 0.89879 0.0
N1460 N 0.83384 0.617 0.91776 0.0
N1461 N 0.92164 0.64563 0.96924 0.0
C1462 C 0.85652 0.62277 0.91682 0.0
C1463 C 0.90142 0.63764 0.94555 0.0
N1464 N 0.86828 0.58391 0.93461 0.0
N1465 N 0.89349 0.67312 0.88963 0.0
H1466 H 0.93291 0.63533 0.9947 0.0
H1467 H 0.92631 0.66278 0.96847 0.0
H1468 H 0.88286 0.68413 0.86434 0.0
H1469 H 0.91043 0.67856 0.89177 0.0
H1470 H 0.85333 0.5775 0.91438 0.0
H1471 H 0.88005 0.57121 0.9457 0.0
H1472 H 0.82787 0.60172 0.93708 0.0
H1473 H 0.82076 0.62831 0.90623 0.0
C1474 C 0.12729 0.1292 0.63204 0.0
C1475 C 0.11538 0.11437 0.67378 0.0
C1476 C 0.13267 0.13496 0.76394 0.0
C1477 C 0.14777 0.14645 0.72209 0.0
N1478 N 0.16227 0.15006 0.61451 0.0
N1479 N 0.11051 0.10084 0.78216 0.0
C1480 C 0.14575 0.14259 0.65551 0.0
C1481 C 0.11882 0.11675 0.74062 0.0
N1482 N 0.12088 0.13073 0.56991 0.0
N1483 N 0.13137 0.14151 0.826 0.0
H1484 H 0.10173 0.08621 0.76855 0.0
H1485 H 0.1147 0.10078 0.8302 0.0
H1486 H 0.14087 0.15509 0.8442 0.0
H1487 H 0.11908 0.13515 0.85723 0.0
H1488 H 0.12778 0.14275 0.53882 0.0
H1489 H 0.10684 0.12189 0.55166 0.0
H1490 H 0.16248 0.1456 0.56665 0.0
H1491 H 0.17717 0.1583 0.62885 0.0
C1492 C 0.63096 0.36237 0.42536 0.0
C1493 C 0.65363 0.36907 0.40955 0.0
C1494 C 0.64493 0.40824 0.44276 0.0
C1495 C 0.62305 0.4012 0.46502 0.0
N1496 N 0.59627 0.37076 0.48489 0.0
N1497 N 0.68384 0.39705 0.42173 0.0
C1498 C 0.61632 0.37799 0.4583 0.0
C1499 C 0.66109 0.3916 0.42359 0.0
N1500 N 0.62319 0.34137 0.40723 0.0
N1501 N 0.65005 0.43091 0.43612 0.0
H1502 H 0.69663 0.38533 0.41081 0.0
H1503 H 0.69023 0.41257 0.4382 0.0
H1504 H 0.63857 0.444 0.44602 0.0
H1505 H 0.66487 0.43668 0.41365 0.0
H1506 H 0.60621 0.33624 0.4116 0.0
H1507 H 0.63341 0.32972 0.38284 0.0
H1508 H 0.59137 0.35369 0.48712 0.0
H1509 H 0.58542 0.3817 0.50973 0.0
C1510 C 0.39597 0.87611 0.13845 0.0
C1511 C 0.39802 0.89808 0.1666 0.0
C1512 C 0.37704 0.88406 0.2602 0.0
C1513 C 0.37111 0.86388 0.22715 0.0
N1514 N 0.38409 0.83647 0.15037 0.0
N1515 N 0.38753 0.92377 0.25187 0.0
C1516 C 0.38321 0.85862 0.17039 0.0
C1517 C 0.38807 0.90218 0.22728 0.0
N1518 N 0.4059 0.87213 0.08081 0.0
N1519 N 0.37346 0.88541 0.32408 0.0
H1520 H 0.39421 0.938 0.22867 0.0
H1521 H 0.37822 0.92798 0.29238 0.0
H1522 H 0.36814 0.87135 0.3507 0.0
H1523 H 0.37911 0.89906 0.35163 0.0
H1524 H 0.40289 0.8576 0.05368 0.0
H1525 H 0.41659 0.88394 0.05852 0.0
H1526 H 0.39355 0.83088 0.11161 0.0
H1527 H 0.37768 0.82309 0.17782 0.0
C1528 C 0.88778 0.36285 0.7133 0.0
C1529 C 0.86448 0.36895 0.72235 0.0
C1530 C 0.8724 0.40692 0.67789 0.0
C1531 C 0.89503 0.40012 0.66249 0.0
N1532 N 0.92386 0.37087 0.65979 0.0
N1533 N 0.83357 0.39496 0.69773 0.0
C1534 C 0.90266 0.37786 0.67883 0.0
C1535 C 0.85651 0.39048 0.70047 0.0
N1536 N 0.89577 0.34302 0.7391 0.0
N1537 N 0.86619 0.42938 0.67378 0.0
H1538 H 0.821 0.38337 0.71159 0.0
H1539 H 0.82688 0.40933 0.67526 0.0
H1540 H 0.87728 0.44229 0.65912 0.0
H1541 H 0.85074 0.43556 0.6914 0.0
H1542 H 0.91298 0.33852 0.73972 0.0
H1543 H 0.88532 0.33185 0.76459 0.0
H1544 H 0.9297 0.35418 0.66444 0.0
H1545 H 0.93503 0.38146 0.63469 0.0
C1546 C 0.39162 0.11633 0.38231 0.0
C1547 C 0.39458 0.11329 0.44904 0.0
C1548 C 0.36431 0.1415 0.46772 0.0
C1549 C 0.36301 0.14616 0.40132 0.0
N1550 N 0.38002 0.14192 0.29793 0.0
N1551 N 0.3876 0.12748 0.55446 0.0
C1552 C 0.37821 0.13488 0.3595 0.0
C1553 C 0.3822 0.1274 0.49144 0.0
N1554 N 0.39995 0.10062 0.34032 0.0
N1555 N 0.34756 0.14892 0.50801 0.0
H1556 H 0.4009 0.11772 0.57314 0.0
H1557 H 0.38055 0.13903 0.58656 0.0
H1558 H 0.33316 0.15786 0.49322 0.0
H1559 H 0.34664 0.14391 0.55538 0.0
H1560 H 0.39613 0.10099 0.29205 0.0
H1561 H 0.40837 0.08577 0.35381 0.0
H1562 H 0.39241 0.13566 0.26694 0.0
H1563 H 0.37081 0.15574 0.28004 0.0
C1564 C 0.64506 0.60282 0.17205 0.0
C1565 C 0.62216 0.60935 0.15897 0.0
C1566 C 0.62926 0.64628 0.21168 0.0
C1567 C 0.65271 0.64048 0.21874 0.0
N1568 N 0.68384 0.61523 0.19049 0.0
N1569 N 0.5928 0.63806 0.1606 0.0
C1570 C 0.66085 0.6193 0.19482 0.0
C1571 C 0.61431 0.63131 0.17741 0.0
N1572 N 0.65164 0.58053 0.1656 0.0
N1573 N 0.62119 0.66578 0.2392 0.0
H1574 H 0.58157 0.62747 0.13578 0.0
H1575 H 0.58668 0.65457 0.16687 0.0
H1576 H 0.6317 0.67693 0.26449 0.0
H1577 H 0.60393 0.67002 0.24132 0.0
H1578 H 0.66734 0.57444 0.18163 0.0
H1579 H 0.64069 0.56759 0.15048 0.0
H1580 H 0.69062 0.60123 0.16654 0.0
H1581 H 0.69629 0.62687 0.20471 0.0
C1582 C 0.1625 0.89387 0.9313 0.0
C1583 C 0.15384 0.87418 0.90007 0.0
C1584 C 0.11495 0.88491 0.93364 0.0
C1585 C 0.12331 0.9062 0.95676 0.0
N1586 N 0.15551 0.93229 0.96669 0.0
N1587 N 0.1216 0.85164 0.86705 0.0
C1588 C 0.14721 0.91099 0.9531 0.0
C1589 C 0.12997 0.86984 0.9002 0.0
N1590 N 0.18545 0.89597 0.94248 0.0
N1591 N 0.09286 0.87868 0.94593 0.0
H1592 H 0.13217 0.84029 0.84269 0.0
H1593 H 0.10423 0.84883 0.85949 0.0
H1594 H 0.08175 0.88881 0.97246 0.0
H1595 H 0.08626 0.86259 0.93564 0.0
H1596 H 0.19236 0.90837 0.97229 0.0
H1597 H 0.19747 0.88408 0.92733 0.0
H1598 H 0.17223 0.93727 0.95646 0.0
H1599 H 0.14555 0.94592 0.98176 0.0
loop_
_geom_bond_atom_site_label_1
_geom_bond_atom_site_label_2
_geom_bond_distance
_geom_bond_site_symmetry_2
_ccdc_geom_bond_type
O0 Cd1 2.223 . S
O0 C8 1.315 . S
Cd1 O0 2.223 . S
Cd1 O4 2.297 . S
Cd1 O5 2.439 . S
Cd1 O11 2.240 . S
Cd2 O3 2.240 . S
Cd2 O10 2.223 . S
Cd2 O12 2.297 1_554 S
Cd2 O13 2.439 1_554 S
O3 Cd2 2.240 . S
O3 C8 1.279 . S
O4 Cd1 2.297 . S
O4 C6 1.247 . S
O5 Cd1 2.439 . S
O5 C6 1.208 . S
C6 O4 1.247 . S
C6 O5 1.208 . S
C7 O12 1.247 . S
C7 O13 1.208 . S
C8 O0 1.315 . S
C8 O3 1.279 . S
C9 O10 1.315 . S
C9 O11 1.279 . S
O10 Cd2 2.223 . S
O10 C9 1.315 . S
O11 Cd1 2.240 . S
O11 C9 1.279 . S
O12 Cd2 2.297 1_556 S
O12 C7 1.247 . S
O13 Cd2 2.439 1_556 S
O13 C7 1.208 . S
O14 Cd15 2.223 . S
O14 C22 1.315 . S
Cd15 O14 2.223 . S
Cd15 O18 2.297 . S
Cd15 O19 2.439 . S
Cd15 O25 2.240 . S
Cd16 O17 2.240 . S
Cd16 O24 2.223 . S
Cd16 O26 2.297 . S
Cd16 O27 2.439 . S
O17 Cd16 2.240 . S
O17 C22 1.279 . S
O18 Cd15 2.297 . S
O18 C20 1.247 . S
O19 Cd15 2.439 . S
O19 C20 1.208 . S
C20 O18 1.247 . S
C20 O19 1.208 . S
C21 O26 1.247 . S
C21 O27 1.208 . S
C22 O14 1.315 . S
C22 O17 1.279 . S
C23 O24 1.315 . S
C23 O25 1.279 . S
O24 Cd16 2.223 . S
O24 C23 1.315 . S
O25 Cd15 2.240 . S
O25 C23 1.279 . S
O26 Cd16 2.297 . S
O26 C21 1.247 . S
O27 Cd16 2.439 . S
O27 C21 1.208 . S
O28 Cd29 2.223 . S
O28 C36 1.315 . S
Cd29 O28 2.223 . S
Cd29 O32 2.297 . S
Cd29 O33 2.439 . S
Cd29 O39 2.240 . S
Cd30 O31 2.240 . S
Cd30 O38 2.223 . S
Cd30 O40 2.297 . S
Cd30 O41 2.439 . S
O31 Cd30 2.240 . S
O31 C36 1.279 . S
O32 Cd29 2.297 . S
O32 C34 1.247 . S
O33 Cd29 2.439 . S
O33 C34 1.208 . S
C34 O32 1.247 . S
C34 O33 1.208 . S
C35 O40 1.247 . S
C35 O41 1.208 . S
C36 O28 1.315 . S
C36 O31 1.279 . S
C37 O38 1.315 . S
C37 O39 1.279 . S
O38 Cd30 2.223 . S
O38 C37 1.315 . S
O39 Cd29 2.240 . S
O39 C37 1.279 . S
O40 Cd30 2.297 . S
O40 C35 1.247 . S
O41 Cd30 2.439 . S
O41 C35 1.208 . S
O42 Cd43 2.223 . S
O42 C50 1.315 . S
Cd43 O42 2.223 . S
Cd43 O46 2.297 . S
Cd43 O47 2.439 . S
Cd43 O53 2.240 . S
Cd44 O45 2.240 . S
Cd44 O52 2.223 . S
Cd44 O54 2.297 . S
Cd44 O55 2.439 . S
O45 Cd44 2.240 . S
O45 C50 1.279 . S
O46 Cd43 2.297 . S
O46 C48 1.247 . S
O47 Cd43 2.439 . S
O47 C48 1.208 . S
C48 O46 1.247 . S
C48 O47 1.208 . S
C49 O54 1.247 . S
C49 O55 1.208 . S
C50 O42 1.315 . S
C50 O45 1.279 . S
C51 O52 1.315 . S
C51 O53 1.279 . S
O52 Cd44 2.223 . S
O52 C51 1.315 . S
O53 Cd43 2.240 . S
O53 C51 1.279 . S
O54 Cd44 2.297 . S
O54 C49 1.247 . S
O55 Cd44 2.439 . S
O55 C49 1.208 . S
O56 Cd57 2.223 . S
O56 C64 1.315 . S
Cd57 O56 2.223 . S
Cd57 O60 2.297 . S
Cd57 O61 2.439 . S
Cd57 O67 2.240 . S
Cd58 O59 2.240 . S
Cd58 O66 2.223 . S
Cd58 O68 2.297 . S
Cd58 O69 2.439 . S
O59 Cd58 2.240 . S
O59 C64 1.279 . S
O60 Cd57 2.297 . S
O60 C62 1.247 . S
O61 Cd57 2.439 . S
O61 C62 1.208 . S
C62 O60 1.247 . S
C62 O61 1.208 . S
C63 O68 1.247 . S
C63 O69 1.208 . S
C64 O56 1.315 . S
C64 O59 1.279 . S
C65 O66 1.315 . S
C65 O67 1.279 . S
O66 Cd58 2.223 . S
O66 C65 1.315 . S
O67 Cd57 2.240 . S
O67 C65 1.279 . S
O68 Cd58 2.297 . S
O68 C63 1.247 . S
O69 Cd58 2.439 . S
O69 C63 1.208 . S
O70 Cd71 2.223 . S
O70 C78 1.315 . S
Cd71 O70 2.223 . S
Cd71 O74 2.297 . S
Cd71 O75 2.439 . S
Cd71 O81 2.240 . S
Cd72 O73 2.240 . S
Cd72 O80 2.223 . S
Cd72 O82 2.297 . S
Cd72 O83 2.439 . S
O73 Cd72 2.240 . S
O73 C78 1.279 . S
O74 Cd71 2.297 . S
O74 C76 1.247 . S
O75 Cd71 2.439 . S
O75 C76 1.208 . S
C76 O74 1.247 . S
C76 O75 1.208 . S
C77 O82 1.247 . S
C77 O83 1.208 . S
C78 O70 1.315 . S
C78 O73 1.279 . S
C79 O80 1.315 . S
C79 O81 1.279 . S
O80 Cd72 2.223 . S
O80 C79 1.315 . S
O81 Cd71 2.240 . S
O81 C79 1.279 . S
O82 Cd72 2.297 . S
O82 C77 1.247 . S
O83 Cd72 2.439 . S
O83 C77 1.208 . S
O84 Cd85 2.223 . S
O84 C92 1.315 . S
Cd85 O84 2.223 . S
Cd85 O88 2.297 . S
Cd85 O89 2.439 1_556 S
Cd85 O95 2.240 1_556 S
Cd86 O87 2.240 1_554 S
Cd86 O94 2.223 . S
Cd86 O96 2.297 . S
Cd86 O97 2.439 . S
O87 Cd86 2.240 1_556 S
O87 C92 1.279 . S
O88 Cd85 2.297 . S
O88 C90 1.247 . S
O89 Cd85 2.439 1_554 S
O89 C90 1.208 1_554 S
C90 O88 1.247 . S
C90 O89 1.208 1_556 S
C91 O96 1.247 . S
C91 O97 1.208 . S
C92 O84 1.315 . S
C92 O87 1.279 . S
C93 O94 1.315 . S
C93 O95 1.279 . S
O94 Cd86 2.223 . S
O94 C93 1.315 . S
O95 Cd85 2.240 1_554 S
O95 C93 1.279 . S
O96 Cd86 2.297 . S
O96 C91 1.247 . S
O97 Cd86 2.439 . S
O97 C91 1.208 . S
O98 Cd99 2.223 . S
O98 C106 1.315 . S
Cd99 O98 2.223 . S
Cd99 O102 2.297 . S
Cd99 O103 2.439 . S
Cd99 O109 2.240 . S
Cd100 O101 2.240 . S
Cd100 O108 2.223 . S
Cd100 O110 2.297 . S
Cd100 O111 2.439 . S
O101 Cd100 2.240 . S
O101 C106 1.279 . S
O102 Cd99 2.297 . S
O102 C104 1.247 . S
O103 Cd99 2.439 . S
O103 C104 1.208 . S
C104 O102 1.247 . S
C104 O103 1.208 . S
C105 O110 1.247 . S
C105 O111 1.208 . S
C106 O98 1.315 . S
C106 O101 1.279 . S
C107 O108 1.315 . S
C107 O109 1.279 . S
O108 Cd100 2.223 . S
O108 C107 1.315 . S
O109 Cd99 2.240 . S
O109 C107 1.279 . S
O110 Cd100 2.297 . S
O110 C105 1.247 . S
O111 Cd100 2.439 . S
O111 C105 1.208 . S
O112 Cd113 2.223 . S
O112 C120 1.315 . S
Cd113 O112 2.223 . S
Cd113 O116 2.297 . S
Cd113 O117 2.439 1_556 S
Cd113 O123 2.240 1_556 S
Cd114 O115 2.240 1_554 S
Cd114 O122 2.223 . S
Cd114 O124 2.297 . S
Cd114 O125 2.439 . S
O115 Cd114 2.240 1_556 S
O115 C120 1.279 . S
O116 Cd113 2.297 . S
O116 C118 1.247 . S
O117 Cd113 2.439 1_554 S
O117 C118 1.208 1_554 S
C118 O116 1.247 . S
C118 O117 1.208 1_556 S
C119 O124 1.247 . S
C119 O125 1.208 . S
C120 O112 1.315 . S
C120 O115 1.279 . S
C121 O122 1.315 . S
C121 O123 1.279 . S
O122 Cd114 2.223 . S
O122 C121 1.315 . S
O123 Cd113 2.240 1_554 S
O123 C121 1.279 . S
O124 Cd114 2.297 . S
O124 C119 1.247 . S
O125 Cd114 2.439 . S
O125 C119 1.208 . S
O126 Cd127 2.223 . S
O126 C134 1.315 . S
Cd127 O126 2.223 . S
Cd127 O130 2.297 . S
Cd127 O131 2.439 . S
Cd127 O137 2.240 . S
Cd128 O129 2.240 . S
Cd128 O136 2.223 . S
Cd128 O138 2.297 . S
Cd128 O139 2.439 . S
O129 Cd128 2.240 . S
O129 C134 1.279 . S
O130 Cd127 2.297 . S
O130 C132 1.247 . S
O131 Cd127 2.439 . S
O131 C132 1.208 . S
C132 O130 1.247 . S
C132 O131 1.208 . S
C133 O138 1.247 . S
C133 O139 1.208 . S
C134 O126 1.315 . S
C134 O129 1.279 . S
C135 O136 1.315 . S
C135 O137 1.279 . S
O136 Cd128 2.223 . S
O136 C135 1.315 . S
O137 Cd127 2.240 . S
O137 C135 1.279 . S
O138 Cd128 2.297 . S
O138 C133 1.247 . S
O139 Cd128 2.439 . S
O139 C133 1.208 . S
O140 Cd141 2.223 . S
O140 C148 1.315 . S
Cd141 O140 2.223 . S
Cd141 O144 2.297 . S
Cd141 O145 2.439 . S
Cd141 O151 2.240 . S
Cd142 O143 2.240 . S
Cd142 O150 2.223 . S
Cd142 O152 2.297 . S
Cd142 O153 2.439 . S
O143 Cd142 2.240 . S
O143 C148 1.279 . S
O144 Cd141 2.297 . S
O144 C146 1.247 . S
O145 Cd141 2.439 . S
O145 C146 1.208 . S
C146 O144 1.247 . S
C146 O145 1.208 . S
C147 O152 1.247 . S
C147 O153 1.208 . S
C148 O140 1.315 . S
C148 O143 1.279 . S
C149 O150 1.315 . S
C149 O151 1.279 . S
O150 Cd142 2.223 . S
O150 C149 1.315 . S
O151 Cd141 2.240 . S
O151 C149 1.279 . S
O152 Cd142 2.297 . S
O152 C147 1.247 . S
O153 Cd142 2.439 . S
O153 C147 1.208 . S
O154 Cd155 2.223 . S
O154 C162 1.315 . S
Cd155 O154 2.223 . S
Cd155 O158 2.297 . S
Cd155 O159 2.439 . S
Cd155 O165 2.240 . S
Cd156 O157 2.240 . S
Cd156 O164 2.223 . S
Cd156 O166 2.297 . S
Cd156 O167 2.439 . S
O157 Cd156 2.240 . S
O157 C162 1.279 . S
O158 Cd155 2.297 . S
O158 C160 1.247 . S
O159 Cd155 2.439 . S
O159 C160 1.208 . S
C160 O158 1.247 . S
C160 O159 1.208 . S
C161 O166 1.247 . S
C161 O167 1.208 . S
C162 O154 1.315 . S
C162 O157 1.279 . S
C163 O164 1.315 . S
C163 O165 1.279 . S
O164 Cd156 2.223 . S
O164 C163 1.315 . S
O165 Cd155 2.240 . S
O165 C163 1.279 . S
O166 Cd156 2.297 . S
O166 C161 1.247 . S
O167 Cd156 2.439 . S
O167 C161 1.208 . S
O168 Cd169 2.223 . S
O168 C176 1.315 . S
Cd169 O168 2.223 . S
Cd169 O172 2.297 . S
Cd169 O173 2.439 . S
Cd169 O179 2.240 . S
Cd170 O171 2.240 . S
Cd170 O178 2.223 . S
Cd170 O180 2.297 . S
Cd170 O181 2.439 . S
O171 Cd170 2.240 . S
O171 C176 1.279 . S
O172 Cd169 2.297 . S
O172 C174 1.247 . S
O173 Cd169 2.439 . S
O173 C174 1.208 . S
C174 O172 1.247 . S
C174 O173 1.208 . S
C175 O180 1.247 . S
C175 O181 1.208 . S
C176 O168 1.315 . S
C176 O171 1.279 . S
C177 O178 1.315 . S
C177 O179 1.279 . S
O178 Cd170 2.223 . S
O178 C177 1.315 . S
O179 Cd169 2.240 . S
O179 C177 1.279 . S
O180 Cd170 2.297 . S
O180 C175 1.247 . S
O181 Cd170 2.439 . S
O181 C175 1.208 . S
O182 Cd183 2.223 . S
O182 C190 1.315 . S
Cd183 O182 2.223 . S
Cd183 O186 2.297 . S
Cd183 O187 2.439 . S
Cd183 O193 2.240 . S
Cd184 O185 2.240 . S
Cd184 O192 2.223 . S
Cd184 O194 2.297 . S
Cd184 O195 2.439 . S
O185 Cd184 2.240 . S
O185 C190 1.279 . S
O186 Cd183 2.297 . S
O186 C188 1.247 . S
O187 Cd183 2.439 . S
O187 C188 1.208 . S
C188 O186 1.247 . S
C188 O187 1.208 . S
C189 O194 1.247 . S
C189 O195 1.208 . S
C190 O182 1.315 . S
C190 O185 1.279 . S
C191 O192 1.315 . S
C191 O193 1.279 . S
O192 Cd184 2.223 . S
O192 C191 1.315 . S
O193 Cd183 2.240 . S
O193 C191 1.279 . S
O194 Cd184 2.297 . S
O194 C189 1.247 . S
O195 Cd184 2.439 . S
O195 C189 1.208 . S
O196 Cd197 2.223 . S
O196 C204 1.315 . S
Cd197 O196 2.223 . S
Cd197 O200 2.297 . S
Cd197 O201 2.439 . S
Cd197 O207 2.240 . S
Cd198 O199 2.240 . S
Cd198 O206 2.223 . S
Cd198 O208 2.297 1_554 S
Cd198 O209 2.439 1_554 S
O199 Cd198 2.240 . S
O199 C204 1.279 . S
O200 Cd197 2.297 . S
O200 C202 1.247 . S
O201 Cd197 2.439 . S
O201 C202 1.208 . S
C202 O200 1.247 . S
C202 O201 1.208 . S
C203 O208 1.247 . S
C203 O209 1.208 . S
C204 O196 1.315 . S
C204 O199 1.279 . S
C205 O206 1.315 . S
C205 O207 1.279 . S
O206 Cd198 2.223 . S
O206 C205 1.315 . S
O207 Cd197 2.240 . S
O207 C205 1.279 . S
O208 Cd198 2.297 1_556 S
O208 C203 1.247 . S
O209 Cd198 2.439 1_556 S
O209 C203 1.208 . S
O210 Cd211 2.223 . S
O210 C218 1.315 . S
Cd211 O210 2.223 . S
Cd211 O214 2.297 . S
Cd211 O215 2.439 . S
Cd211 O221 2.240 . S
Cd212 O213 2.240 . S
Cd212 O220 2.223 . S
Cd212 O222 2.297 . S
Cd212 O223 2.439 . S
O213 Cd212 2.240 . S
O213 C218 1.279 . S
O214 Cd211 2.297 . S
O214 C216 1.247 . S
O215 Cd211 2.439 . S
O215 C216 1.208 . S
C216 O214 1.247 . S
C216 O215 1.208 . S
C217 O222 1.247 . S
C217 O223 1.208 . S
C218 O210 1.315 . S
C218 O213 1.279 . S
C219 O220 1.315 . S
C219 O221 1.279 . S
O220 Cd212 2.223 . S
O220 C219 1.315 . S
O221 Cd211 2.240 . S
O221 C219 1.279 . S
O222 Cd212 2.297 . S
O222 C217 1.247 . S
O223 Cd212 2.439 . S
O223 C217 1.208 . S
O224 Cd225 2.223 . S
O224 C232 1.315 . S
Cd225 O224 2.223 . S
Cd225 O228 2.297 . S
Cd225 O229 2.439 . S
Cd225 O235 2.240 . S
Cd226 O227 2.240 1_545 S
Cd226 O234 2.223 . S
Cd226 O236 2.297 . S
Cd226 O237 2.439 1_545 S
O227 Cd226 2.240 1_565 S
O227 C232 1.279 . S
O228 Cd225 2.297 . S
O228 C230 1.247 . S
O229 Cd225 2.439 . S
O229 C230 1.208 . S
C230 O228 1.247 . S
C230 O229 1.208 . S
C231 O236 1.247 1_565 S
C231 O237 1.208 . S
C232 O224 1.315 . S
C232 O227 1.279 . S
C233 O234 1.315 1_565 S
C233 O235 1.279 . S
O234 Cd226 2.223 . S
O234 C233 1.315 1_545 S
O235 Cd225 2.240 . S
O235 C233 1.279 . S
O236 Cd226 2.297 . S
O236 C231 1.247 1_545 S
O237 Cd226 2.439 1_565 S
O237 C231 1.208 . S
O238 Cd239 2.223 . S
O238 C246 1.315 . S
Cd239 O238 2.223 . S
Cd239 O242 2.297 . S
Cd239 O243 2.439 . S
Cd239 O249 2.240 . S
Cd240 O241 2.240 . S
Cd240 O248 2.223 . S
Cd240 O250 2.297 . S
Cd240 O251 2.439 . S
O241 Cd240 2.240 . S
O241 C246 1.279 . S
O242 Cd239 2.297 . S
O242 C244 1.247 . S
O243 Cd239 2.439 . S
O243 C244 1.208 . S
C244 O242 1.247 . S
C244 O243 1.208 . S
C245 O250 1.247 . S
C245 O251 1.208 . S
C246 O238 1.315 . S
C246 O241 1.279 . S
C247 O248 1.315 . S
C247 O249 1.279 . S
O248 Cd240 2.223 . S
O248 C247 1.315 . S
O249 Cd239 2.240 . S
O249 C247 1.279 . S
O250 Cd240 2.297 . S
O250 C245 1.247 . S
O251 Cd240 2.439 . S
O251 C245 1.208 . S
O252 Cd253 2.223 . S
O252 C260 1.315 . S
Cd253 O252 2.223 . S
Cd253 O256 2.297 . S
Cd253 O257 2.439 . S
Cd253 O263 2.240 . S
Cd254 O255 2.240 1_565 S
Cd254 O262 2.223 . S
Cd254 O264 2.297 1_554 S
Cd254 O265 2.439 1_564 S
O255 Cd254 2.240 1_545 S
O255 C260 1.279 . S
O256 Cd253 2.297 . S
O256 C258 1.247 . S
O257 Cd253 2.439 . S
O257 C258 1.208 . S
C258 O256 1.247 . S
C258 O257 1.208 . S
C259 O264 1.247 1_545 S
C259 O265 1.208 . S
C260 O252 1.315 . S
C260 O255 1.279 . S
C261 O262 1.315 1_545 S
C261 O263 1.279 . S
O262 Cd254 2.223 . S
O262 C261 1.315 1_565 S
O263 Cd253 2.240 . S
O263 C261 1.279 . S
O264 Cd254 2.297 1_556 S
O264 C259 1.247 1_565 S
O265 Cd254 2.439 1_546 S
O265 C259 1.208 . S
O266 Cd267 2.223 . S
O266 C274 1.315 . S
Cd267 O266 2.223 . S
Cd267 O270 2.297 . S
Cd267 O271 2.439 . S
Cd267 O277 2.240 . S
Cd268 O269 2.240 . S
Cd268 O276 2.223 . S
Cd268 O278 2.297 . S
Cd268 O279 2.439 . S
O269 Cd268 2.240 . S
O269 C274 1.279 . S
O270 Cd267 2.297 . S
O270 C272 1.247 . S
O271 Cd267 2.439 . S
O271 C272 1.208 . S
C272 O270 1.247 . S
C272 O271 1.208 . S
C273 O278 1.247 . S
C273 O279 1.208 . S
C274 O266 1.315 . S
C274 O269 1.279 . S
C275 O276 1.315 . S
C275 O277 1.279 . S
O276 Cd268 2.223 . S
O276 C275 1.315 . S
O277 Cd267 2.240 . S
O277 C275 1.279 . S
O278 Cd268 2.297 . S
O278 C273 1.247 . S
O279 Cd268 2.439 . S
O279 C273 1.208 . S
O280 Cd281 2.223 . S
O280 C288 1.315 . S
Cd281 O280 2.223 . S
Cd281 O284 2.297 . S
Cd281 O285 2.439 1_556 S
Cd281 O291 2.240 1_556 S
Cd282 O283 2.240 1_564 S
Cd282 O290 2.223 . S
Cd282 O292 2.297 . S
Cd282 O293 2.439 1_565 S
O283 Cd282 2.240 1_546 S
O283 C288 1.279 . S
O284 Cd281 2.297 . S
O284 C286 1.247 . S
O285 Cd281 2.439 1_554 S
O285 C286 1.208 1_554 S
C286 O284 1.247 . S
C286 O285 1.208 1_556 S
C287 O292 1.247 1_545 S
C287 O293 1.208 . S
C288 O280 1.315 . S
C288 O283 1.279 . S
C289 O290 1.315 1_545 S
C289 O291 1.279 . S
O290 Cd282 2.223 . S
O290 C289 1.315 1_565 S
O291 Cd281 2.240 1_554 S
O291 C289 1.279 . S
O292 Cd282 2.297 . S
O292 C287 1.247 1_565 S
O293 Cd282 2.439 1_545 S
O293 C287 1.208 . S
O294 Cd295 2.223 . S
O294 C302 1.315 . S
Cd295 O294 2.223 . S
Cd295 O298 2.297 . S
Cd295 O299 2.439 . S
Cd295 O305 2.240 . S
Cd296 O297 2.240 . S
Cd296 O304 2.223 . S
Cd296 O306 2.297 . S
Cd296 O307 2.439 . S
O297 Cd296 2.240 . S
O297 C302 1.279 . S
O298 Cd295 2.297 . S
O298 C300 1.247 . S
O299 Cd295 2.439 . S
O299 C300 1.208 . S
C300 O298 1.247 . S
C300 O299 1.208 . S
C301 O306 1.247 . S
C301 O307 1.208 . S
C302 O294 1.315 . S
C302 O297 1.279 . S
C303 O304 1.315 . S
C303 O305 1.279 . S
O304 Cd296 2.223 . S
O304 C303 1.315 . S
O305 Cd295 2.240 . S
O305 C303 1.279 . S
O306 Cd296 2.297 . S
O306 C301 1.247 . S
O307 Cd296 2.439 . S
O307 C301 1.208 . S
O308 Cd309 2.223 . S
O308 C316 1.315 . S
Cd309 O308 2.223 . S
Cd309 O312 2.297 . S
Cd309 O313 2.439 . S
Cd309 O319 2.240 . S
Cd310 O311 2.240 1_545 S
Cd310 O318 2.223 . S
Cd310 O320 2.297 . S
Cd310 O321 2.439 1_545 S
O311 Cd310 2.240 1_565 S
O311 C316 1.279 . S
O312 Cd309 2.297 . S
O312 C314 1.247 . S
O313 Cd309 2.439 . S
O313 C314 1.208 . S
C314 O312 1.247 . S
C314 O313 1.208 . S
C315 O320 1.247 1_565 S
C315 O321 1.208 . S
C316 O308 1.315 . S
C316 O311 1.279 . S
C317 O318 1.315 1_565 S
C317 O319 1.279 . S
O318 Cd310 2.223 . S
O318 C317 1.315 1_545 S
O319 Cd309 2.240 . S
O319 C317 1.279 . S
O320 Cd310 2.297 . S
O320 C315 1.247 1_545 S
O321 Cd310 2.439 1_565 S
O321 C315 1.208 . S
O322 Cd323 2.223 . S
O322 C330 1.315 . S
Cd323 O322 2.223 . S
Cd323 O326 2.297 . S
Cd323 O327 2.439 . S
Cd323 O333 2.240 . S
Cd324 O325 2.240 . S
Cd324 O332 2.223 . S
Cd324 O334 2.297 . S
Cd324 O335 2.439 . S
O325 Cd324 2.240 . S
O325 C330 1.279 . S
O326 Cd323 2.297 . S
O326 C328 1.247 . S
O327 Cd323 2.439 . S
O327 C328 1.208 . S
C328 O326 1.247 . S
C328 O327 1.208 . S
C329 O334 1.247 . S
C329 O335 1.208 . S
C330 O322 1.315 . S
C330 O325 1.279 . S
C331 O332 1.315 . S
C331 O333 1.279 . S
O332 Cd324 2.223 . S
O332 C331 1.315 . S
O333 Cd323 2.240 . S
O333 C331 1.279 . S
O334 Cd324 2.297 . S
O334 C329 1.247 . S
O335 Cd324 2.439 . S
O335 C329 1.208 . S
O336 Cd337 2.223 . S
O336 C344 1.315 . S
Cd337 O336 2.223 . S
Cd337 O340 2.297 . S
Cd337 O341 2.439 . S
Cd337 O347 2.240 . S
Cd338 O339 2.240 1_565 S
Cd338 O346 2.223 . S
Cd338 O348 2.297 . S
Cd338 O349 2.439 1_565 S
O339 Cd338 2.240 1_545 S
O339 C344 1.279 . S
O340 Cd337 2.297 . S
O340 C342 1.247 . S
O341 Cd337 2.439 . S
O341 C342 1.208 . S
C342 O340 1.247 . S
C342 O341 1.208 . S
C343 O348 1.247 1_545 S
C343 O349 1.208 . S
C344 O336 1.315 . S
C344 O339 1.279 . S
C345 O346 1.315 1_545 S
C345 O347 1.279 . S
O346 Cd338 2.223 . S
O346 C345 1.315 1_565 S
O347 Cd337 2.240 . S
O347 C345 1.279 . S
O348 Cd338 2.297 . S
O348 C343 1.247 1_565 S
O349 Cd338 2.439 1_545 S
O349 C343 1.208 . S
O350 Cd351 2.223 . S
O350 C358 1.315 . S
Cd351 O350 2.223 . S
Cd351 O354 2.297 . S
Cd351 O355 2.439 . S
Cd351 O361 2.240 . S
Cd352 O353 2.240 . S
Cd352 O360 2.223 . S
Cd352 O362 2.297 . S
Cd352 O363 2.439 . S
O353 Cd352 2.240 . S
O353 C358 1.279 . S
O354 Cd351 2.297 . S
O354 C356 1.247 . S
O355 Cd351 2.439 . S
O355 C356 1.208 . S
C356 O354 1.247 . S
C356 O355 1.208 . S
C357 O362 1.247 . S
C357 O363 1.208 . S
C358 O350 1.315 . S
C358 O353 1.279 . S
C359 O360 1.315 . S
C359 O361 1.279 . S
O360 Cd352 2.223 . S
O360 C359 1.315 . S
O361 Cd351 2.240 . S
O361 C359 1.279 . S
O362 Cd352 2.297 . S
O362 C357 1.247 . S
O363 Cd352 2.439 . S
O363 C357 1.208 . S
O364 Cd365 2.223 . S
O364 C372 1.315 . S
Cd365 O364 2.223 . S
Cd365 O368 2.297 . S
Cd365 O369 2.439 1_556 S
Cd365 O375 2.240 1_556 S
Cd366 O367 2.240 1_544 S
Cd366 O374 2.223 . S
Cd366 O376 2.297 . S
Cd366 O377 2.439 1_545 S
O367 Cd366 2.240 1_566 S
O367 C372 1.279 . S
O368 Cd365 2.297 . S
O368 C370 1.247 . S
O369 Cd365 2.439 1_554 S
O369 C370 1.208 1_554 S
C370 O368 1.247 . S
C370 O369 1.208 1_556 S
C371 O376 1.247 1_565 S
C371 O377 1.208 . S
C372 O364 1.315 . S
C372 O367 1.279 . S
C373 O374 1.315 1_565 S
C373 O375 1.279 . S
O374 Cd366 2.223 . S
O374 C373 1.315 1_545 S
O375 Cd365 2.240 1_554 S
O375 C373 1.279 . S
O376 Cd366 2.297 . S
O376 C371 1.247 1_545 S
O377 Cd366 2.439 1_565 S
O377 C371 1.208 . S
O378 Cd379 2.223 . S
O378 C386 1.315 . S
Cd379 O378 2.223 . S
Cd379 O382 2.297 . S
Cd379 O383 2.439 . S
Cd379 O389 2.240 . S
Cd380 O381 2.240 . S
Cd380 O388 2.223 . S
Cd380 O390 2.297 . S
Cd380 O391 2.439 . S
O381 Cd380 2.240 . S
O381 C386 1.279 . S
O382 Cd379 2.297 . S
O382 C384 1.247 . S
O383 Cd379 2.439 . S
O383 C384 1.208 . S
C384 O382 1.247 . S
C384 O383 1.208 . S
C385 O390 1.247 . S
C385 O391 1.208 . S
C386 O378 1.315 . S
C386 O381 1.279 . S
C387 O388 1.315 . S
C387 O389 1.279 . S
O388 Cd380 2.223 . S
O388 C387 1.315 . S
O389 Cd379 2.240 . S
O389 C387 1.279 . S
O390 Cd380 2.297 . S
O390 C385 1.247 . S
O391 Cd380 2.439 . S
O391 C385 1.208 . S
O392 Cd393 2.223 . S
O392 C400 1.315 . S
Cd393 O392 2.223 . S
Cd393 O396 2.297 . S
Cd393 O397 2.439 . S
Cd393 O403 2.240 . S
Cd394 O395 2.240 1_545 S
Cd394 O402 2.223 . S
Cd394 O404 2.297 1_554 S
Cd394 O405 2.439 1_544 S
O395 Cd394 2.240 1_565 S
O395 C400 1.279 . S
O396 Cd393 2.297 . S
O396 C398 1.247 . S
O397 Cd393 2.439 . S
O397 C398 1.208 . S
C398 O396 1.247 . S
C398 O397 1.208 . S
C399 O404 1.247 1_565 S
C399 O405 1.208 . S
C400 O392 1.315 . S
C400 O395 1.279 . S
C401 O402 1.315 1_565 S
C401 O403 1.279 . S
O402 Cd394 2.223 . S
O402 C401 1.315 1_545 S
O403 Cd393 2.240 . S
O403 C401 1.279 . S
O404 Cd394 2.297 1_556 S
O404 C399 1.247 1_545 S
O405 Cd394 2.439 1_566 S
O405 C399 1.208 . S
O406 Cd407 2.223 . S
O406 C414 1.315 . S
Cd407 O406 2.223 . S
Cd407 O410 2.297 . S
Cd407 O411 2.439 . S
Cd407 O417 2.240 . S
Cd408 O409 2.240 . S
Cd408 O416 2.223 . S
Cd408 O418 2.297 . S
Cd408 O419 2.439 . S
O409 Cd408 2.240 . S
O409 C414 1.279 . S
O410 Cd407 2.297 . S
O410 C412 1.247 . S
O411 Cd407 2.439 . S
O411 C412 1.208 . S
C412 O410 1.247 . S
C412 O411 1.208 . S
C413 O418 1.247 . S
C413 O419 1.208 . S
C414 O406 1.315 . S
C414 O409 1.279 . S
C415 O416 1.315 . S
C415 O417 1.279 . S
O416 Cd408 2.223 . S
O416 C415 1.315 . S
O417 Cd407 2.240 . S
O417 C415 1.279 . S
O418 Cd408 2.297 . S
O418 C413 1.247 . S
O419 Cd408 2.439 . S
O419 C413 1.208 . S
O420 Cd421 2.223 . S
O420 C428 1.315 . S
Cd421 O420 2.223 . S
Cd421 O424 2.297 . S
Cd421 O425 2.439 . S
Cd421 O431 2.240 . S
Cd422 O423 2.240 1_565 S
Cd422 O430 2.223 . S
Cd422 O432 2.297 . S
Cd422 O433 2.439 1_565 S
O423 Cd422 2.240 1_545 S
O423 C428 1.279 . S
O424 Cd421 2.297 . S
O424 C426 1.247 . S
O425 Cd421 2.439 . S
O425 C426 1.208 . S
C426 O424 1.247 . S
C426 O425 1.208 . S
C427 O432 1.247 1_545 S
C427 O433 1.208 . S
C428 O420 1.315 . S
C428 O423 1.279 . S
C429 O430 1.315 1_545 S
C429 O431 1.279 . S
O430 Cd422 2.223 . S
O430 C429 1.315 1_565 S
O431 Cd421 2.240 . S
O431 C429 1.279 . S
O432 Cd422 2.297 . S
O432 C427 1.247 1_565 S
O433 Cd422 2.439 1_545 S
O433 C427 1.208 . S
O434 Cd435 2.223 . S
O434 C442 1.315 . S
Cd435 O434 2.223 . S
Cd435 O438 2.297 . S
Cd435 O439 2.439 . S
Cd435 O445 2.240 . S
Cd436 O437 2.240 . S
Cd436 O444 2.223 . S
Cd436 O446 2.297 . S
Cd436 O447 2.439 . S
O437 Cd436 2.240 . S
O437 C442 1.279 . S
O438 Cd435 2.297 . S
O438 C440 1.247 . S
O439 Cd435 2.439 . S
O439 C440 1.208 . S
C440 O438 1.247 . S
C440 O439 1.208 . S
C441 O446 1.247 . S
C441 O447 1.208 . S
C442 O434 1.315 . S
C442 O437 1.279 . S
C443 O444 1.315 . S
C443 O445 1.279 . S
O444 Cd436 2.223 . S
O444 C443 1.315 . S
O445 Cd435 2.240 . S
O445 C443 1.279 . S
O446 Cd436 2.297 . S
O446 C441 1.247 . S
O447 Cd436 2.439 . S
O447 C441 1.208 . S
C448 C449 1.363 . S
C448 C454 1.379 1_655 S
C448 N456 1.356 1_554 S
C449 C448 1.363 . S
C449 C455 1.363 . S
C450 C451 1.363 . S
C450 C455 1.379 1_455 S
C450 N457 1.356 . S
C451 C450 1.363 . S
C451 C454 1.363 . S
N452 C454 1.356 . S
N452 H464 1.003 . S
N452 H465 0.985 . S
N453 C455 1.356 . S
N453 H458 0.984 . S
N453 H459 1.004 . S
C454 C448 1.379 1_455 S
C454 C451 1.363 . S
C454 N452 1.356 . S
C455 C449 1.363 . S
C455 C450 1.379 1_655 S
C455 N453 1.356 . S
N456 C448 1.356 1_556 S
N456 H462 0.984 . S
N456 H463 0.984 . S
N457 C450 1.356 . S
N457 H460 0.984 . S
N457 H461 0.985 . S
H458 N453 0.984 . S
H459 N453 1.004 . S
H460 N457 0.984 . S
H461 N457 0.985 . S
H462 N456 0.984 . S
H463 N456 0.984 . S
H464 N452 1.003 . S
H465 N452 0.985 . S
C466 C467 1.363 . S
C466 C472 1.379 . S
C466 N474 1.356 . S
C467 C466 1.363 . S
C467 C473 1.363 . S
C468 C469 1.363 . S
C468 C473 1.379 . S
C468 N475 1.356 . S
C469 C468 1.363 . S
C469 C472 1.363 . S
N470 C472 1.356 . S
N470 H482 0.984 . S
N470 H483 0.985 . S
N471 C473 1.356 . S
N471 H476 0.984 . S
N471 H477 0.985 . S
C472 C466 1.379 . S
C472 C469 1.363 . S
C472 N470 1.356 . S
C473 C467 1.363 . S
C473 C468 1.379 . S
C473 N471 1.356 . S
N474 C466 1.356 . S
N474 H480 0.984 . S
N474 H481 0.984 . S
N475 C468 1.356 . S
N475 H478 0.984 . S
N475 H479 0.985 . S
H476 N471 0.984 . S
H477 N471 0.985 . S
H478 N475 0.984 . S
H479 N475 0.985 . S
H480 N474 0.984 . S
H481 N474 0.984 . S
H482 N470 0.984 . S
H483 N470 0.985 . S
C484 C485 1.363 . S
C484 C490 1.379 . S
C484 N492 1.356 . S
C485 C484 1.363 . S
C485 C491 1.363 . S
C486 C487 1.363 . S
C486 C491 1.379 . S
C486 N493 1.356 . S
C487 C486 1.363 . S
C487 C490 1.363 . S
N488 C490 1.356 . S
N488 H500 0.984 . S
N488 H501 0.985 . S
N489 C491 1.356 . S
N489 H494 0.984 . S
N489 H495 0.985 . S
C490 C484 1.379 . S
C490 C487 1.363 . S
C490 N488 1.356 . S
C491 C485 1.363 . S
C491 C486 1.379 . S
C491 N489 1.356 . S
N492 C484 1.356 . S
N492 H498 0.984 . S
N492 H499 0.984 . S
N493 C486 1.356 . S
N493 H496 0.984 . S
N493 H497 0.985 . S
H494 N489 0.984 . S
H495 N489 0.985 . S
H496 N493 0.984 . S
H497 N493 0.985 . S
H498 N492 0.984 . S
H499 N492 0.984 . S
H500 N488 0.984 . S
H501 N488 0.985 . S
C502 C503 1.363 . S
C502 C508 1.379 . S
C502 N510 1.356 . S
C503 C502 1.363 . S
C503 C509 1.363 . S
C504 C505 1.363 . S
C504 C509 1.379 . S
C504 N511 1.356 . S
C505 C504 1.363 . S
C505 C508 1.363 . S
N506 C508 1.356 . S
N506 H518 0.984 . S
N506 H519 0.985 . S
N507 C509 1.356 . S
N507 H512 0.984 . S
N507 H513 0.985 . S
C508 C502 1.379 . S
C508 C505 1.363 . S
C508 N506 1.356 . S
C509 C503 1.363 . S
C509 C504 1.379 . S
C509 N507 1.356 . S
N510 C502 1.356 . S
N510 H516 0.984 . S
N510 H517 0.984 . S
N511 C504 1.356 . S
N511 H514 0.984 . S
N511 H515 0.985 . S
H512 N507 0.984 . S
H513 N507 0.985 . S
H514 N511 0.984 . S
H515 N511 0.985 . S
H516 N510 0.984 . S
H517 N510 0.984 . S
H518 N506 0.984 . S
H519 N506 0.985 . S
C520 C521 1.363 . S
C520 C526 1.379 1_455 S
C520 N528 1.356 . S
C521 C520 1.363 . S
C521 C527 1.363 . S
C522 C523 1.363 . S
C522 C527 1.379 1_655 S
C522 N529 1.356 . S
C523 C522 1.363 . S
C523 C526 1.363 . S
N524 C526 1.356 . S
N524 H536 0.984 . S
N524 H537 0.985 . S
N525 C527 1.356 . S
N525 H530 0.984 . S
N525 H531 0.985 . S
C526 C520 1.379 1_655 S
C526 C523 1.363 . S
C526 N524 1.356 . S
C527 C521 1.363 . S
C527 C522 1.379 1_455 S
C527 N525 1.356 . S
N528 C520 1.356 . S
N528 H534 0.984 . S
N528 H535 0.984 . S
N529 C522 1.356 . S
N529 H532 0.984 . S
N529 H533 0.985 . S
H530 N525 0.984 . S
H531 N525 0.985 . S
H532 N529 0.984 . S
H533 N529 0.985 . S
H534 N528 0.984 . S
H535 N528 0.984 . S
H536 N524 0.984 . S
H537 N524 0.985 . S
C538 C539 1.363 . S
C538 C544 1.379 . S
C538 N546 1.356 . S
C539 C538 1.363 . S
C539 C545 1.363 . S
C540 C541 1.363 . S
C540 C545 1.379 . S
C540 N547 1.356 . S
C541 C540 1.363 . S
C541 C544 1.363 . S
N542 C544 1.356 . S
N542 H554 0.984 . S
N542 H555 0.985 . S
N543 C545 1.356 . S
N543 H548 0.984 . S
N543 H549 0.985 . S
C544 C538 1.379 . S
C544 C541 1.363 . S
C544 N542 1.356 . S
C545 C539 1.363 . S
C545 C540 1.379 . S
C545 N543 1.356 . S
N546 C538 1.356 . S
N546 H552 0.984 . S
N546 H553 0.984 . S
N547 C540 1.356 . S
N547 H550 0.984 . S
N547 H551 0.985 . S
H548 N543 0.984 . S
H549 N543 0.985 . S
H550 N547 0.984 . S
H551 N547 0.985 . S
H552 N546 0.984 . S
H553 N546 0.984 . S
H554 N542 0.984 . S
H555 N542 0.985 . S
C556 C557 1.363 . S
C556 C562 1.379 . S
C556 N564 1.356 . S
C557 C556 1.363 . S
C557 C563 1.363 . S
C558 C559 1.363 . S
C558 C563 1.379 . S
C558 N565 1.356 1_554 S
C559 C558 1.363 . S
C559 C562 1.363 . S
N560 C562 1.356 . S
N560 H572 0.984 . S
N560 H573 0.985 . S
N561 C563 1.356 . S
N561 H566 0.984 . S
N561 H567 0.985 1_554 S
C562 C556 1.379 . S
C562 C559 1.363 . S
C562 N560 1.356 . S
C563 C557 1.363 . S
C563 C558 1.379 . S
C563 N561 1.356 . S
N564 C556 1.356 . S
N564 H570 0.984 . S
N564 H571 0.984 . S
N565 C558 1.356 1_556 S
N565 H568 0.984 . S
N565 H569 0.985 . S
H566 N561 0.984 . S
H567 N561 0.985 1_556 S
H568 N565 0.984 . S
H569 N565 0.985 . S
H570 N564 0.984 . S
H571 N564 0.984 . S
H572 N560 0.984 . S
H573 N560 0.985 . S
C574 C575 1.363 . S
C574 C580 1.379 . S
C574 N582 1.356 . S
C575 C574 1.363 . S
C575 C581 1.363 . S
C576 C577 1.363 . S
C576 C581 1.379 . S
C576 N583 1.356 . S
C577 C576 1.363 . S
C577 C580 1.363 . S
N578 C580 1.356 . S
N578 H590 0.984 . S
N578 H591 0.985 . S
N579 C581 1.356 . S
N579 H584 0.984 . S
N579 H585 0.985 . S
C580 C574 1.379 . S
C580 C577 1.363 . S
C580 N578 1.356 . S
C581 C575 1.363 . S
C581 C576 1.379 . S
C581 N579 1.356 . S
N582 C574 1.356 . S
N582 H588 0.984 . S
N582 H589 0.984 . S
N583 C576 1.356 . S
N583 H586 0.984 . S
N583 H587 0.985 . S
H584 N579 0.984 . S
H585 N579 0.985 . S
H586 N583 0.984 . S
H587 N583 0.985 . S
H588 N582 0.984 . S
H589 N582 0.984 . S
H590 N578 0.984 . S
H591 N578 0.985 . S
C592 C593 1.363 . S
C592 C598 1.379 . S
C592 N600 1.356 . S
C593 C592 1.363 . S
C593 C599 1.363 . S
C594 C595 1.363 . S
C594 C599 1.379 . S
C594 N601 1.356 . S
C595 C594 1.363 . S
C595 C598 1.363 . S
N596 C598 1.356 . S
N596 H608 0.984 . S
N596 H609 0.985 . S
N597 C599 1.356 . S
N597 H602 0.984 . S
N597 H603 0.985 . S
C598 C592 1.379 . S
C598 C595 1.363 . S
C598 N596 1.356 . S
C599 C593 1.363 . S
C599 C594 1.379 . S
C599 N597 1.356 . S
N600 C592 1.356 . S
N600 H606 0.984 . S
N600 H607 0.984 . S
N601 C594 1.356 . S
N601 H604 0.984 . S
N601 H605 0.985 . S
H602 N597 0.984 . S
H603 N597 0.985 . S
H604 N601 0.984 . S
H605 N601 0.985 . S
H606 N600 0.984 . S
H607 N600 0.984 . S
H608 N596 0.984 . S
H609 N596 0.985 . S
C610 C611 1.363 . S
C610 C616 1.379 . S
C610 N618 1.356 . S
C611 C610 1.363 . S
C611 C617 1.363 . S
C612 C613 1.363 . S
C612 C617 1.379 . S
C612 N619 1.356 . S
C613 C612 1.363 . S
C613 C616 1.363 . S
N614 C616 1.356 . S
N614 H626 0.984 . S
N614 H627 0.985 . S
N615 C617 1.356 . S
N615 H620 0.984 . S
N615 H621 0.985 . S
C616 C610 1.379 . S
C616 C613 1.363 . S
C616 N614 1.356 . S
C617 C611 1.363 . S
C617 C612 1.379 . S
C617 N615 1.356 . S
N618 C610 1.356 . S
N618 H624 0.984 . S
N618 H625 0.984 . S
N619 C612 1.356 . S
N619 H622 0.984 . S
N619 H623 0.985 . S
H620 N615 0.984 . S
H621 N615 0.985 . S
H622 N619 0.984 . S
H623 N619 0.985 . S
H624 N618 0.984 . S
H625 N618 0.984 . S
H626 N614 0.984 . S
H627 N614 0.985 . S
C628 C629 1.363 . S
C628 C634 1.379 . S
C628 N636 1.356 . S
C629 C628 1.363 . S
C629 C635 1.363 . S
C630 C631 1.363 . S
C630 C635 1.379 . S
C630 N637 1.356 . S
C631 C630 1.363 . S
C631 C634 1.363 . S
N632 C634 1.356 . S
N632 H644 0.984 . S
N632 H645 0.985 . S
N633 C635 1.356 . S
N633 H638 0.984 . S
N633 H639 0.985 . S
C634 C628 1.379 . S
C634 C631 1.363 . S
C634 N632 1.356 . S
C635 C629 1.363 . S
C635 C630 1.379 . S
C635 N633 1.356 . S
N636 C628 1.356 . S
N636 H642 0.984 . S
N636 H643 0.984 . S
N637 C630 1.356 . S
N637 H640 0.984 . S
N637 H641 0.985 . S
H638 N633 0.984 . S
H639 N633 0.985 . S
H640 N637 0.984 . S
H641 N637 0.985 . S
H642 N636 0.984 . S
H643 N636 0.984 . S
H644 N632 0.984 . S
H645 N632 0.985 . S
C646 C647 1.363 . S
C646 C652 1.379 . S
C646 N654 1.356 . S
C647 C646 1.363 . S
C647 C653 1.363 . S
C648 C649 1.363 . S
C648 C653 1.379 . S
C648 N655 1.356 . S
C649 C648 1.363 . S
C649 C652 1.363 . S
N650 C652 1.356 . S
N650 H662 0.984 . S
N650 H663 0.985 . S
N651 C653 1.356 . S
N651 H656 0.984 . S
N651 H657 0.985 . S
C652 C646 1.379 . S
C652 C649 1.363 . S
C652 N650 1.356 . S
C653 C647 1.363 . S
C653 C648 1.379 . S
C653 N651 1.356 . S
N654 C646 1.356 . S
N654 H660 0.984 . S
N654 H661 0.984 . S
N655 C648 1.356 . S
N655 H658 0.984 . S
N655 H659 0.985 . S
H656 N651 0.984 . S
H657 N651 0.985 . S
H658 N655 0.984 . S
H659 N655 0.985 . S
H660 N654 0.984 . S
H661 N654 0.984 . S
H662 N650 0.984 . S
H663 N650 0.985 . S
C664 C665 1.363 1_565 S
C664 C670 1.379 . S
C664 N672 1.356 . S
C665 C664 1.363 1_545 S
C665 C671 1.363 . S
C666 C667 1.363 1_545 S
C666 C671 1.379 . S
C666 N673 1.356 . S
C667 C666 1.363 1_565 S
C667 C670 1.363 . S
N668 C670 1.356 . S
N668 H680 0.984 . S
N668 H681 0.985 . S
N669 C671 1.356 . S
N669 H674 0.984 . S
N669 H675 0.985 . S
C670 C664 1.379 . S
C670 C667 1.363 . S
C670 N668 1.356 . S
C671 C665 1.363 . S
C671 C666 1.379 . S
C671 N669 1.356 . S
N672 C664 1.356 . S
N672 H678 0.984 . S
N672 H679 0.984 . S
N673 C666 1.356 . S
N673 H676 0.984 . S
N673 H677 0.985 . S
H674 N669 0.984 . S
H675 N669 0.985 . S
H676 N673 0.984 . S
H677 N673 0.985 . S
H678 N672 0.984 . S
H679 N672 0.984 . S
H680 N668 0.984 . S
H681 N668 0.985 . S
C682 C683 1.363 . S
C682 C688 1.379 1_644 S
C682 N690 1.356 1_554 S
C683 C682 1.363 . S
C683 C689 1.363 . S
C684 C685 1.363 . S
C684 C689 1.379 1_465 S
C684 N691 1.356 . S
C685 C684 1.363 . S
C685 C688 1.363 1_554 S
N686 C688 1.356 . S
N686 H698 0.984 . S
N686 H699 0.985 . S
N687 C689 1.356 . S
N687 H692 0.984 . S
N687 H693 0.985 . S
C688 C682 1.379 1_466 S
C688 C685 1.363 1_556 S
C688 N686 1.356 . S
C689 C683 1.363 . S
C689 C684 1.379 1_645 S
C689 N687 1.356 . S
N690 C682 1.356 1_556 S
N690 H696 0.984 . S
N690 H697 0.984 . S
N691 C684 1.356 . S
N691 H694 0.984 . S
N691 H695 0.985 . S
H692 N687 0.984 . S
H693 N687 0.985 . S
H694 N691 0.984 . S
H695 N691 0.985 . S
H696 N690 0.984 . S
H697 N690 0.984 . S
H698 N686 0.984 . S
H699 N686 0.985 . S
C700 C701 1.363 . S
C700 C706 1.379 1_545 S
C700 N708 1.356 . S
C701 C700 1.363 . S
C701 C707 1.363 1_554 S
C702 C703 1.363 . S
C702 C707 1.379 1_564 S
C702 N709 1.356 1_554 S
C703 C702 1.363 . S
C703 C706 1.363 . S
N704 C706 1.356 . S
N704 H716 0.984 . S
N704 H717 0.985 . S
N705 C707 1.356 . S
N705 H710 0.984 . S
N705 H711 0.985 . S
C706 C700 1.379 1_565 S
C706 C703 1.363 . S
C706 N704 1.356 . S
C707 C701 1.363 1_556 S
C707 C702 1.379 1_546 S
C707 N705 1.356 . S
N708 C700 1.356 . S
N708 H714 0.984 . S
N708 H715 0.984 . S
N709 C702 1.356 1_556 S
N709 H712 0.984 . S
N709 H713 0.985 . S
H710 N705 0.984 . S
H711 N705 0.985 . S
H712 N709 0.984 . S
H713 N709 0.985 . S
H714 N708 0.984 . S
H715 N708 0.984 . S
H716 N704 0.984 . S
H717 N704 0.985 . S
C718 C719 1.363 1_565 S
C718 C724 1.379 1_455 S
C718 N726 1.356 1_565 S
C719 C718 1.363 1_545 S
C719 C725 1.363 . S
C720 C721 1.363 1_545 S
C720 C725 1.379 1_655 S
C720 N727 1.356 1_545 S
C721 C720 1.363 1_565 S
C721 C724 1.363 . S
N722 C724 1.356 . S
N722 H734 0.984 . S
N722 H735 0.985 . S
N723 C725 1.356 . S
N723 H728 0.984 . S
N723 H729 0.985 . S
C724 C718 1.379 1_655 S
C724 C721 1.363 . S
C724 N722 1.356 . S
C725 C719 1.363 . S
C725 C720 1.379 1_455 S
C725 N723 1.356 . S
N726 C718 1.356 1_545 S
N726 H732 0.984 1_545 S
N726 H733 0.984 . S
N727 C720 1.356 1_565 S
N727 H730 0.984 . S
N727 H731 0.985 1_565 S
H728 N723 0.984 . S
H729 N723 0.985 . S
H730 N727 0.984 . S
H731 N727 0.985 1_545 S
H732 N726 0.984 1_565 S
H733 N726 0.984 . S
H734 N722 0.984 . S
H735 N722 0.985 . S
C736 C737 1.363 . S
C736 C742 1.379 . S
C736 N744 1.356 . S
C737 C736 1.363 . S
C737 C743 1.363 . S
C738 C739 1.363 . S
C738 C743 1.379 . S
C738 N745 1.356 . S
C739 C738 1.363 . S
C739 C742 1.363 . S
N740 C742 1.356 . S
N740 H752 0.984 . S
N740 H753 0.985 . S
N741 C743 1.356 . S
N741 H746 0.984 . S
N741 H747 0.985 . S
C742 C736 1.379 . S
C742 C739 1.363 . S
C742 N740 1.356 . S
C743 C737 1.363 . S
C743 C738 1.379 . S
C743 N741 1.356 . S
N744 C736 1.356 . S
N744 H750 0.984 . S
N744 H751 0.984 . S
N745 C738 1.356 . S
N745 H748 0.984 . S
N745 H749 0.985 . S
H746 N741 0.984 . S
H747 N741 0.985 . S
H748 N745 0.984 . S
H749 N745 0.985 . S
H750 N744 0.984 . S
H751 N744 0.984 . S
H752 N740 0.984 . S
H753 N740 0.985 . S
C754 C755 1.363 1_554 S
C754 C760 1.379 . S
C754 N762 1.356 1_554 S
C755 C754 1.363 1_556 S
C755 C761 1.363 1_556 S
C756 C757 1.363 . S
C756 C761 1.379 . S
C756 N763 1.356 . S
C757 C756 1.363 . S
C757 C760 1.363 . S
N758 C760 1.356 . S
N758 H770 0.984 . S
N758 H771 0.985 . S
N759 C761 1.356 1_556 S
N759 H764 0.984 . S
N759 H765 0.985 . S
C760 C754 1.379 . S
C760 C757 1.363 . S
C760 N758 1.356 . S
C761 C755 1.363 1_554 S
C761 C756 1.379 . S
C761 N759 1.356 1_554 S
N762 C754 1.356 1_556 S
N762 H768 0.984 . S
N762 H769 0.984 . S
N763 C756 1.356 . S
N763 H766 0.984 . S
N763 H767 0.985 . S
H764 N759 0.984 . S
H765 N759 0.985 . S
H766 N763 0.984 . S
H767 N763 0.985 . S
H768 N762 0.984 . S
H769 N762 0.984 . S
H770 N758 0.984 . S
H771 N758 0.985 . S
C772 C773 1.363 . S
C772 C778 1.379 . S
C772 N780 1.356 . S
C773 C772 1.363 . S
C773 C779 1.363 . S
C774 C775 1.363 . S
C774 C779 1.379 . S
C774 N781 1.356 . S
C775 C774 1.363 . S
C775 C778 1.363 . S
N776 C778 1.356 . S
N776 H788 0.984 . S
N776 H789 0.985 . S
N777 C779 1.356 . S
N777 H782 0.984 . S
N777 H783 0.985 . S
C778 C772 1.379 . S
C778 C775 1.363 . S
C778 N776 1.356 . S
C779 C773 1.363 . S
C779 C774 1.379 . S
C779 N777 1.356 . S
N780 C772 1.356 . S
N780 H786 0.984 . S
N780 H787 0.984 . S
N781 C774 1.356 . S
N781 H784 0.984 . S
N781 H785 0.985 . S
H782 N777 0.984 . S
H783 N777 0.985 . S
H784 N781 0.984 . S
H785 N781 0.985 . S
H786 N780 0.984 . S
H787 N780 0.984 . S
H788 N776 0.984 . S
H789 N776 0.985 . S
C790 C791 1.363 . S
C790 C796 1.379 . S
C790 N798 1.356 . S
C791 C790 1.363 . S
C791 C797 1.363 . S
C792 C793 1.363 . S
C792 C797 1.379 . S
C792 N799 1.356 . S
C793 C792 1.363 . S
C793 C796 1.363 . S
N794 C796 1.356 . S
N794 H806 0.984 . S
N794 H807 0.985 . S
N795 C797 1.356 . S
N795 H800 0.984 . S
N795 H801 0.985 . S
C796 C790 1.379 . S
C796 C793 1.363 . S
C796 N794 1.356 . S
C797 C791 1.363 . S
C797 C792 1.379 . S
C797 N795 1.356 . S
N798 C790 1.356 . S
N798 H804 0.984 . S
N798 H805 0.984 . S
N799 C792 1.356 . S
N799 H802 0.984 . S
N799 H803 0.985 . S
H800 N795 0.984 . S
H801 N795 0.985 . S
H802 N799 0.984 . S
H803 N799 0.985 . S
H804 N798 0.984 . S
H805 N798 0.984 . S
H806 N794 0.984 . S
H807 N794 0.985 . S
C808 C809 1.363 . S
C808 C814 1.379 . S
C808 N816 1.356 . S
C809 C808 1.363 . S
C809 C815 1.363 . S
C810 C811 1.363 . S
C810 C815 1.379 . S
C810 N817 1.356 . S
C811 C810 1.363 . S
C811 C814 1.363 . S
N812 C814 1.356 . S
N812 H824 0.984 . S
N812 H825 0.985 . S
N813 C815 1.356 . S
N813 H818 0.984 . S
N813 H819 0.985 . S
C814 C808 1.379 . S
C814 C811 1.363 . S
C814 N812 1.356 . S
C815 C809 1.363 . S
C815 C810 1.379 . S
C815 N813 1.356 . S
N816 C808 1.356 . S
N816 H822 0.984 . S
N816 H823 0.984 . S
N817 C810 1.356 . S
N817 H820 0.984 . S
N817 H821 0.985 . S
H818 N813 0.984 . S
H819 N813 0.985 . S
H820 N817 0.984 . S
H821 N817 0.985 . S
H822 N816 0.984 . S
H823 N816 0.984 . S
H824 N812 0.984 . S
H825 N812 0.985 . S
C826 C827 1.363 1_554 S
C826 C832 1.379 . S
C826 N834 1.356 1_554 S
C827 C826 1.363 1_556 S
C827 C833 1.363 1_556 S
C828 C829 1.363 . S
C828 C833 1.379 . S
C828 N835 1.356 . S
C829 C828 1.363 . S
C829 C832 1.363 . S
N830 C832 1.356 . S
N830 H842 0.984 . S
N830 H843 0.985 . S
N831 C833 1.356 1_556 S
N831 H836 0.984 . S
N831 H837 0.985 . S
C832 C826 1.379 . S
C832 C829 1.363 . S
C832 N830 1.356 . S
C833 C827 1.363 1_554 S
C833 C828 1.379 . S
C833 N831 1.356 1_554 S
N834 C826 1.356 1_556 S
N834 H840 0.984 . S
N834 H841 0.984 . S
N835 C828 1.356 . S
N835 H838 0.984 . S
N835 H839 0.985 . S
H836 N831 0.984 . S
H837 N831 0.985 . S
H838 N835 0.984 . S
H839 N835 0.985 . S
H840 N834 0.984 . S
H841 N834 0.984 . S
H842 N830 0.984 . S
H843 N830 0.985 . S
C844 C845 1.363 . S
C844 C850 1.379 . S
C844 N852 1.356 . S
C845 C844 1.363 . S
C845 C851 1.363 . S
C846 C847 1.363 . S
C846 C851 1.379 . S
C846 N853 1.356 . S
C847 C846 1.363 . S
C847 C850 1.363 . S
N848 C850 1.356 . S
N848 H860 0.984 . S
N848 H861 0.985 . S
N849 C851 1.356 . S
N849 H854 0.984 . S
N849 H855 0.985 . S
C850 C844 1.379 . S
C850 C847 1.363 . S
C850 N848 1.356 . S
C851 C845 1.363 . S
C851 C846 1.379 . S
C851 N849 1.356 . S
N852 C844 1.356 . S
N852 H858 0.984 . S
N852 H859 0.984 . S
N853 C846 1.356 . S
N853 H856 0.984 . S
N853 H857 0.985 . S
H854 N849 0.984 . S
H855 N849 0.985 . S
H856 N853 0.984 . S
H857 N853 0.985 . S
H858 N852 0.984 . S
H859 N852 0.984 . S
H860 N848 0.984 . S
H861 N848 0.985 . S
C862 C863 1.363 . S
C862 C868 1.379 . S
C862 N870 1.356 . S
C863 C862 1.363 . S
C863 C869 1.363 . S
C864 C865 1.363 . S
C864 C869 1.379 . S
C864 N871 1.356 . S
C865 C864 1.363 . S
C865 C868 1.363 . S
N866 C868 1.356 . S
N866 H878 0.984 . S
N866 H879 0.985 . S
N867 C869 1.356 . S
N867 H872 0.984 . S
N867 H873 0.985 . S
C868 C862 1.379 . S
C868 C865 1.363 . S
C868 N866 1.356 . S
C869 C863 1.363 . S
C869 C864 1.379 . S
C869 N867 1.356 . S
N870 C862 1.356 . S
N870 H876 0.984 . S
N870 H877 0.984 . S
N871 C864 1.356 . S
N871 H874 0.984 . S
N871 H875 0.985 . S
H872 N867 0.984 . S
H873 N867 0.985 . S
H874 N871 0.984 . S
H875 N871 0.985 . S
H876 N870 0.984 . S
H877 N870 0.984 . S
H878 N866 0.984 . S
H879 N866 0.985 . S
C880 C881 1.363 1_565 S
C880 C886 1.379 . S
C880 N888 1.356 . S
C881 C880 1.363 1_545 S
C881 C887 1.363 . S
C882 C883 1.363 1_545 S
C882 C887 1.379 . S
C882 N889 1.356 . S
C883 C882 1.363 1_565 S
C883 C886 1.363 . S
N884 C886 1.356 . S
N884 H896 0.984 . S
N884 H897 0.985 . S
N885 C887 1.356 . S
N885 H890 0.984 . S
N885 H891 0.985 . S
C886 C880 1.379 . S
C886 C883 1.363 . S
C886 N884 1.356 . S
C887 C881 1.363 . S
C887 C882 1.379 . S
C887 N885 1.356 . S
N888 C880 1.356 . S
N888 H894 0.984 . S
N888 H895 0.984 . S
N889 C882 1.356 . S
N889 H892 0.984 . S
N889 H893 0.985 . S
H890 N885 0.984 . S
H891 N885 0.985 . S
H892 N889 0.984 . S
H893 N889 0.985 . S
H894 N888 0.984 . S
H895 N888 0.984 . S
H896 N884 0.984 . S
H897 N884 0.985 . S
C898 C899 1.363 . S
C898 C904 1.379 . S
C898 N906 1.356 . S
C899 C898 1.363 . S
C899 C905 1.363 . S
C900 C901 1.363 . S
C900 C905 1.379 . S
C900 N907 1.356 . S
C901 C900 1.363 . S
C901 C904 1.363 . S
N902 C904 1.356 . S
N902 H914 0.984 . S
N902 H915 0.985 . S
N903 C905 1.356 . S
N903 H908 0.984 . S
N903 H909 0.985 . S
C904 C898 1.379 . S
C904 C901 1.363 . S
C904 N902 1.356 . S
C905 C899 1.363 . S
C905 C900 1.379 . S
C905 N903 1.356 . S
N906 C898 1.356 . S
N906 H912 0.984 . S
N906 H913 0.984 . S
N907 C900 1.356 . S
N907 H910 0.984 . S
N907 H911 0.985 . S
H908 N903 0.984 . S
H909 N903 0.985 . S
H910 N907 0.984 . S
H911 N907 0.985 . S
H912 N906 0.984 . S
H913 N906 0.984 . S
H914 N902 0.984 . S
H915 N902 0.985 . S
C916 C917 1.363 1_565 S
C916 C922 1.379 . S
C916 N924 1.356 . S
C917 C916 1.363 1_545 S
C917 C923 1.363 . S
C918 C919 1.363 1_545 S
C918 C923 1.379 . S
C918 N925 1.356 . S
C919 C918 1.363 1_565 S
C919 C922 1.363 . S
N920 C922 1.356 . S
N920 H932 0.984 . S
N920 H933 0.985 . S
N921 C923 1.356 . S
N921 H926 0.984 . S
N921 H927 0.985 . S
C922 C916 1.379 . S
C922 C919 1.363 . S
C922 N920 1.356 . S
C923 C917 1.363 . S
C923 C918 1.379 . S
C923 N921 1.356 . S
N924 C916 1.356 . S
N924 H930 0.984 . S
N924 H931 0.984 . S
N925 C918 1.356 . S
N925 H928 0.984 . S
N925 H929 0.985 . S
H926 N921 0.984 . S
H927 N921 0.985 . S
H928 N925 0.984 . S
H929 N925 0.985 . S
H930 N924 0.984 . S
H931 N924 0.984 . S
H932 N920 0.984 . S
H933 N920 0.985 . S
C934 C935 1.363 1_554 S
C934 C940 1.379 . S
C934 N942 1.356 1_554 S
C935 C934 1.363 1_556 S
C935 C941 1.363 1_556 S
C936 C937 1.363 . S
C936 C941 1.379 . S
C936 N943 1.356 . S
C937 C936 1.363 . S
C937 C940 1.363 . S
N938 C940 1.356 . S
N938 H950 0.984 . S
N938 H951 0.985 . S
N939 C941 1.356 1_556 S
N939 H944 0.984 . S
N939 H945 0.985 . S
C940 C934 1.379 . S
C940 C937 1.363 . S
C940 N938 1.356 . S
C941 C935 1.363 1_554 S
C941 C936 1.379 . S
C941 N939 1.356 1_554 S
N942 C934 1.356 1_556 S
N942 H948 0.984 . S
N942 H949 0.984 . S
N943 C936 1.356 . S
N943 H946 0.984 . S
N943 H947 0.985 . S
H944 N939 0.984 . S
H945 N939 0.985 . S
H946 N943 0.984 . S
H947 N943 0.985 . S
H948 N942 0.984 . S
H949 N942 0.984 . S
H950 N938 0.984 . S
H951 N938 0.985 . S
C952 C953 1.363 . S
C952 C958 1.379 . S
C952 N960 1.356 . S
C953 C952 1.363 . S
C953 C959 1.363 1_565 S
C954 C955 1.363 . S
C954 C959 1.379 . S
C954 N961 1.356 . S
C955 C954 1.363 . S
C955 C958 1.363 1_545 S
N956 C958 1.356 . S
N956 H968 0.984 . S
N956 H969 0.985 . S
N957 C959 1.356 . S
N957 H962 0.984 . S
N957 H963 0.985 . S
C958 C952 1.379 . S
C958 C955 1.363 1_565 S
C958 N956 1.356 . S
C959 C953 1.363 1_545 S
C959 C954 1.379 . S
C959 N957 1.356 . S
N960 C952 1.356 . S
N960 H966 0.984 . S
N960 H967 0.984 . S
N961 C954 1.356 . S
N961 H964 0.984 . S
N961 H965 0.985 . S
H962 N957 0.984 . S
H963 N957 0.985 . S
H964 N961 0.984 . S
H965 N961 0.985 . S
H966 N960 0.984 . S
H967 N960 0.984 . S
H968 N956 0.984 . S
H969 N956 0.985 . S
C970 C971 1.363 . S
C970 C976 1.379 . S
C970 N978 1.356 . S
C971 C970 1.363 . S
C971 C977 1.363 . S
C972 C973 1.363 . S
C972 C977 1.379 . S
C972 N979 1.356 . S
C973 C972 1.363 . S
C973 C976 1.363 . S
N974 C976 1.356 . S
N974 H986 0.984 . S
N974 H987 0.985 . S
N975 C977 1.356 . S
N975 H980 0.984 . S
N975 H981 0.985 . S
C976 C970 1.379 . S
C976 C973 1.363 . S
C976 N974 1.356 . S
C977 C971 1.363 . S
C977 C972 1.379 . S
C977 N975 1.356 . S
N978 C970 1.356 . S
N978 H984 0.984 . S
N978 H985 0.984 . S
N979 C972 1.356 . S
N979 H982 0.984 . S
N979 H983 0.985 . S
H980 N975 0.984 . S
H981 N975 0.985 . S
H982 N979 0.984 . S
H983 N979 0.985 . S
H984 N978 0.984 . S
H985 N978 0.984 . S
H986 N974 0.984 . S
H987 N974 0.985 . S
C988 C989 1.363 1_565 S
C988 C994 1.379 . S
C988 N996 1.356 . S
C989 C988 1.363 1_545 S
C989 C995 1.363 . S
C990 C991 1.363 1_545 S
C990 C995 1.379 . S
C990 N997 1.356 . S
C991 C990 1.363 1_565 S
C991 C994 1.363 . S
N992 C994 1.356 . S
N992 H1004 0.984 . S
N992 H1005 0.985 . S
N993 C995 1.356 . S
N993 H998 0.984 . S
N993 H999 0.985 . S
C994 C988 1.379 . S
C994 C991 1.363 . S
C994 N992 1.356 . S
C995 C989 1.363 . S
C995 C990 1.379 . S
C995 N993 1.356 . S
N996 C988 1.356 . S
N996 H1002 0.984 . S
N996 H1003 0.984 . S
N997 C990 1.356 . S
N997 H1000 0.984 . S
N997 H1001 0.985 . S
H998 N993 0.984 . S
H999 N993 0.985 . S
H1000 N997 0.984 . S
H1001 N997 0.985 . S
H1002 N996 0.984 . S
H1003 N996 0.984 . S
H1004 N992 0.984 . S
H1005 N992 0.985 . S
C1006 C1007 1.363 . S
C1006 C1012 1.379 . S
C1006 N1014 1.356 . S
C1007 C1006 1.363 . S
C1007 C1013 1.363 . S
C1008 C1009 1.363 1_554 S
C1008 C1013 1.379 . S
C1008 N1015 1.356 1_554 S
C1009 C1008 1.363 1_556 S
C1009 C1012 1.363 1_556 S
N1010 C1012 1.356 1_556 S
N1010 H1022 0.984 . S
N1010 H1023 0.985 . S
N1011 C1013 1.356 . S
N1011 H1016 0.984 . S
N1011 H1017 0.985 . S
C1012 C1006 1.379 . S
C1012 C1009 1.363 1_554 S
C1012 N1010 1.356 1_554 S
C1013 C1007 1.363 . S
C1013 C1008 1.379 . S
C1013 N1011 1.356 . S
N1014 C1006 1.356 . S
N1014 H1020 0.984 . S
N1014 H1021 0.984 . S
N1015 C1008 1.356 1_556 S
N1015 H1018 0.984 . S
N1015 H1019 0.985 . S
H1016 N1011 0.984 . S
H1017 N1011 0.985 . S
H1018 N1015 0.984 . S
H1019 N1015 0.985 . S
H1020 N1014 0.984 . S
H1021 N1014 0.984 . S
H1022 N1010 0.984 . S
H1023 N1010 0.985 . S
C1024 C1025 1.363 . S
C1024 C1030 1.379 . S
C1024 N1032 1.356 . S
C1025 C1024 1.363 . S
C1025 C1031 1.363 . S
C1026 C1027 1.363 . S
C1026 C1031 1.379 . S
C1026 N1033 1.356 . S
C1027 C1026 1.363 . S
C1027 C1030 1.363 . S
N1028 C1030 1.356 . S
N1028 H1040 0.984 . S
N1028 H1041 0.985 . S
N1029 C1031 1.356 . S
N1029 H1034 0.984 . S
N1029 H1035 0.985 . S
C1030 C1024 1.379 . S
C1030 C1027 1.363 . S
C1030 N1028 1.356 . S
C1031 C1025 1.363 . S
C1031 C1026 1.379 . S
C1031 N1029 1.356 . S
N1032 C1024 1.356 . S
N1032 H1038 0.984 . S
N1032 H1039 0.984 . S
N1033 C1026 1.356 . S
N1033 H1036 0.984 . S
N1033 H1037 0.985 . S
H1034 N1029 0.984 . S
H1035 N1029 0.985 . S
H1036 N1033 0.984 . S
H1037 N1033 0.985 . S
H1038 N1032 0.984 . S
H1039 N1032 0.984 . S
H1040 N1028 0.984 . S
H1041 N1028 0.985 . S
C1042 C1043 1.363 . S
C1042 C1048 1.379 . S
C1042 N1050 1.356 . S
C1043 C1042 1.363 . S
C1043 C1049 1.363 . S
C1044 C1045 1.363 . S
C1044 C1049 1.379 . S
C1044 N1051 1.356 . S
C1045 C1044 1.363 . S
C1045 C1048 1.363 . S
N1046 C1048 1.356 . S
N1046 H1058 0.984 . S
N1046 H1059 0.985 . S
N1047 C1049 1.356 . S
N1047 H1052 0.984 . S
N1047 H1053 0.985 . S
C1048 C1042 1.379 . S
C1048 C1045 1.363 . S
C1048 N1046 1.356 . S
C1049 C1043 1.363 . S
C1049 C1044 1.379 . S
C1049 N1047 1.356 . S
N1050 C1042 1.356 . S
N1050 H1056 0.984 . S
N1050 H1057 0.984 . S
N1051 C1044 1.356 . S
N1051 H1054 0.984 . S
N1051 H1055 0.985 . S
H1052 N1047 0.984 . S
H1053 N1047 0.985 . S
H1054 N1051 0.984 . S
H1055 N1051 0.985 . S
H1056 N1050 0.984 . S
H1057 N1050 0.984 . S
H1058 N1046 0.984 . S
H1059 N1046 0.985 . S
C1060 C1061 1.363 . S
C1060 C1066 1.379 . S
C1060 N1068 1.356 . S
C1061 C1060 1.363 . S
C1061 C1067 1.363 . S
C1062 C1063 1.363 . S
C1062 C1067 1.379 . S
C1062 N1069 1.356 . S
C1063 C1062 1.363 . S
C1063 C1066 1.363 . S
N1064 C1066 1.356 . S
N1064 H1076 0.984 . S
N1064 H1077 0.985 . S
N1065 C1067 1.356 . S
N1065 H1070 0.984 . S
N1065 H1071 0.985 . S
C1066 C1060 1.379 . S
C1066 C1063 1.363 . S
C1066 N1064 1.356 . S
C1067 C1061 1.363 . S
C1067 C1062 1.379 . S
C1067 N1065 1.356 . S
N1068 C1060 1.356 . S
N1068 H1074 0.984 . S
N1068 H1075 0.984 . S
N1069 C1062 1.356 . S
N1069 H1072 0.984 . S
N1069 H1073 0.985 . S
H1070 N1065 0.984 . S
H1071 N1065 0.985 . S
H1072 N1069 0.984 . S
H1073 N1069 0.985 . S
H1074 N1068 0.984 . S
H1075 N1068 0.984 . S
H1076 N1064 0.984 . S
H1077 N1064 0.985 . S
C1078 C1079 1.363 . S
C1078 C1084 1.379 . S
C1078 N1086 1.356 . S
C1079 C1078 1.363 . S
C1079 C1085 1.363 . S
C1080 C1081 1.363 1_554 S
C1080 C1085 1.379 . S
C1080 N1087 1.356 1_554 S
C1081 C1080 1.363 1_556 S
C1081 C1084 1.363 1_556 S
N1082 C1084 1.356 1_556 S
N1082 H1094 0.984 . S
N1082 H1095 0.985 . S
N1083 C1085 1.356 . S
N1083 H1088 0.984 . S
N1083 H1089 0.985 . S
C1084 C1078 1.379 . S
C1084 C1081 1.363 1_554 S
C1084 N1082 1.356 1_554 S
C1085 C1079 1.363 . S
C1085 C1080 1.379 . S
C1085 N1083 1.356 . S
N1086 C1078 1.356 . S
N1086 H1092 0.984 . S
N1086 H1093 0.984 . S
N1087 C1080 1.356 1_556 S
N1087 H1090 0.984 . S
N1087 H1091 0.985 . S
H1088 N1083 0.984 . S
H1089 N1083 0.985 . S
H1090 N1087 0.984 . S
H1091 N1087 0.985 . S
H1092 N1086 0.984 . S
H1093 N1086 0.984 . S
H1094 N1082 0.984 . S
H1095 N1082 0.985 . S
C1096 C1097 1.363 . S
C1096 C1102 1.379 . S
C1096 N1104 1.356 . S
C1097 C1096 1.363 . S
C1097 C1103 1.363 . S
C1098 C1099 1.363 . S
C1098 C1103 1.379 . S
C1098 N1105 1.356 . S
C1099 C1098 1.363 . S
C1099 C1102 1.363 . S
N1100 C1102 1.356 . S
N1100 H1112 0.984 . S
N1100 H1113 0.985 . S
N1101 C1103 1.356 . S
N1101 H1106 0.984 . S
N1101 H1107 0.985 . S
C1102 C1096 1.379 . S
C1102 C1099 1.363 . S
C1102 N1100 1.356 . S
C1103 C1097 1.363 . S
C1103 C1098 1.379 . S
C1103 N1101 1.356 . S
N1104 C1096 1.356 . S
N1104 H1110 0.984 . S
N1104 H1111 0.984 . S
N1105 C1098 1.356 . S
N1105 H1108 0.984 . S
N1105 H1109 0.985 . S
H1106 N1101 0.984 . S
H1107 N1101 0.985 . S
H1108 N1105 0.984 . S
H1109 N1105 0.985 . S
H1110 N1104 0.984 . S
H1111 N1104 0.984 . S
H1112 N1100 0.984 . S
H1113 N1100 0.985 . S
C1114 C1115 1.363 . S
C1114 C1120 1.379 . S
C1114 N1122 1.356 . S
C1115 C1114 1.363 . S
C1115 C1121 1.363 . S
C1116 C1117 1.363 . S
C1116 C1121 1.379 . S
C1116 N1123 1.356 . S
C1117 C1116 1.363 . S
C1117 C1120 1.363 . S
N1118 C1120 1.356 . S
N1118 H1130 0.984 . S
N1118 H1131 0.985 . S
N1119 C1121 1.356 . S
N1119 H1124 0.984 . S
N1119 H1125 0.985 . S
C1120 C1114 1.379 . S
C1120 C1117 1.363 . S
C1120 N1118 1.356 . S
C1121 C1115 1.363 . S
C1121 C1116 1.379 . S
C1121 N1119 1.356 . S
N1122 C1114 1.356 . S
N1122 H1128 0.984 . S
N1122 H1129 0.984 . S
N1123 C1116 1.356 . S
N1123 H1126 0.984 . S
N1123 H1127 0.985 . S
H1124 N1119 0.984 . S
H1125 N1119 0.985 . S
H1126 N1123 0.984 . S
H1127 N1123 0.985 . S
H1128 N1122 0.984 . S
H1129 N1122 0.984 . S
H1130 N1118 0.984 . S
H1131 N1118 0.985 . S
C1132 C1133 1.363 . S
C1132 C1138 1.379 . S
C1132 N1140 1.356 . S
C1133 C1132 1.363 . S
C1133 C1139 1.363 . S
C1134 C1135 1.363 . S
C1134 C1139 1.379 . S
C1134 N1141 1.356 . S
C1135 C1134 1.363 . S
C1135 C1138 1.363 . S
N1136 C1138 1.356 . S
N1136 H1148 0.984 . S
N1136 H1149 0.985 . S
N1137 C1139 1.356 . S
N1137 H1142 0.984 . S
N1137 H1143 0.985 . S
C1138 C1132 1.379 . S
C1138 C1135 1.363 . S
C1138 N1136 1.356 . S
C1139 C1133 1.363 . S
C1139 C1134 1.379 . S
C1139 N1137 1.356 . S
N1140 C1132 1.356 . S
N1140 H1146 0.984 . S
N1140 H1147 0.984 . S
N1141 C1134 1.356 . S
N1141 H1144 0.984 . S
N1141 H1145 0.985 . S
H1142 N1137 0.984 . S
H1143 N1137 0.985 . S
H1144 N1141 0.984 . S
H1145 N1141 0.985 . S
H1146 N1140 0.984 . S
H1147 N1140 0.984 . S
H1148 N1136 0.984 . S
H1149 N1136 0.985 . S
C1150 C1151 1.363 1_554 S
C1150 C1156 1.379 . S
C1150 N1158 1.356 1_554 S
C1151 C1150 1.363 1_556 S
C1151 C1157 1.363 1_556 S
C1152 C1153 1.363 . S
C1152 C1157 1.379 . S
C1152 N1159 1.356 . S
C1153 C1152 1.363 . S
C1153 C1156 1.363 . S
N1154 C1156 1.356 . S
N1154 H1166 0.984 . S
N1154 H1167 0.985 . S
N1155 C1157 1.356 1_556 S
N1155 H1160 0.984 . S
N1155 H1161 0.985 . S
C1156 C1150 1.379 . S
C1156 C1153 1.363 . S
C1156 N1154 1.356 . S
C1157 C1151 1.363 1_554 S
C1157 C1152 1.379 . S
C1157 N1155 1.356 1_554 S
N1158 C1150 1.356 1_556 S
N1158 H1164 0.984 . S
N1158 H1165 0.984 . S
N1159 C1152 1.356 . S
N1159 H1162 0.984 . S
N1159 H1163 0.985 . S
H1160 N1155 0.984 . S
H1161 N1155 0.985 . S
H1162 N1159 0.984 . S
H1163 N1159 0.985 . S
H1164 N1158 0.984 . S
H1165 N1158 0.984 . S
H1166 N1154 0.984 . S
H1167 N1154 0.985 . S
C1168 C1169 1.363 1_545 S
C1168 C1174 1.379 . S
C1168 N1176 1.356 . S
C1169 C1168 1.363 1_565 S
C1169 C1175 1.363 . S
C1170 C1171 1.363 1_565 S
C1170 C1175 1.379 . S
C1170 N1177 1.356 . S
C1171 C1170 1.363 1_545 S
C1171 C1174 1.363 . S
N1172 C1174 1.356 . S
N1172 H1184 0.984 . S
N1172 H1185 0.985 . S
N1173 C1175 1.356 . S
N1173 H1178 0.984 . S
N1173 H1179 0.985 . S
C1174 C1168 1.379 . S
C1174 C1171 1.363 . S
C1174 N1172 1.356 . S
C1175 C1169 1.363 . S
C1175 C1170 1.379 . S
C1175 N1173 1.356 . S
N1176 C1168 1.356 . S
N1176 H1182 0.984 . S
N1176 H1183 0.984 . S
N1177 C1170 1.356 . S
N1177 H1180 0.984 . S
N1177 H1181 0.985 . S
H1178 N1173 0.984 . S
H1179 N1173 0.985 . S
H1180 N1177 0.984 . S
H1181 N1177 0.985 . S
H1182 N1176 0.984 . S
H1183 N1176 0.984 . S
H1184 N1172 0.984 . S
H1185 N1172 0.985 . S
C1186 C1187 1.363 . S
C1186 C1192 1.379 . S
C1186 N1194 1.356 . S
C1187 C1186 1.363 . S
C1187 C1193 1.363 . S
C1188 C1189 1.363 1_554 S
C1188 C1193 1.379 . S
C1188 N1195 1.356 1_554 S
C1189 C1188 1.363 1_556 S
C1189 C1192 1.363 1_556 S
N1190 C1192 1.356 1_556 S
N1190 H1202 0.984 . S
N1190 H1203 0.985 . S
N1191 C1193 1.356 . S
N1191 H1196 0.984 . S
N1191 H1197 0.985 . S
C1192 C1186 1.379 . S
C1192 C1189 1.363 1_554 S
C1192 N1190 1.356 1_554 S
C1193 C1187 1.363 . S
C1193 C1188 1.379 . S
C1193 N1191 1.356 . S
N1194 C1186 1.356 . S
N1194 H1200 0.984 . S
N1194 H1201 0.984 . S
N1195 C1188 1.356 1_556 S
N1195 H1198 0.984 . S
N1195 H1199 0.985 . S
H1196 N1191 0.984 . S
H1197 N1191 0.985 . S
H1198 N1195 0.984 . S
H1199 N1195 0.985 . S
H1200 N1194 0.984 . S
H1201 N1194 0.984 . S
H1202 N1190 0.984 . S
H1203 N1190 0.985 . S
C1204 C1205 1.363 1_545 S
C1204 C1210 1.379 . S
C1204 N1212 1.356 . S
C1205 C1204 1.363 1_565 S
C1205 C1211 1.363 . S
C1206 C1207 1.363 1_565 S
C1206 C1211 1.379 . S
C1206 N1213 1.356 . S
C1207 C1206 1.363 1_545 S
C1207 C1210 1.363 . S
N1208 C1210 1.356 . S
N1208 H1220 0.984 . S
N1208 H1221 0.985 . S
N1209 C1211 1.356 . S
N1209 H1214 0.984 . S
N1209 H1215 0.985 . S
C1210 C1204 1.379 . S
C1210 C1207 1.363 . S
C1210 N1208 1.356 . S
C1211 C1205 1.363 . S
C1211 C1206 1.379 . S
C1211 N1209 1.356 . S
N1212 C1204 1.356 . S
N1212 H1218 0.984 . S
N1212 H1219 0.984 . S
N1213 C1206 1.356 . S
N1213 H1216 0.984 . S
N1213 H1217 0.985 . S
H1214 N1209 0.984 . S
H1215 N1209 0.985 . S
H1216 N1213 0.984 . S
H1217 N1213 0.985 . S
H1218 N1212 0.984 . S
H1219 N1212 0.984 . S
H1220 N1208 0.984 . S
H1221 N1208 0.985 . S
C1222 C1223 1.363 . S
C1222 C1228 1.379 . S
C1222 N1230 1.356 . S
C1223 C1222 1.363 . S
C1223 C1229 1.363 . S
C1224 C1225 1.363 . S
C1224 C1229 1.379 . S
C1224 N1231 1.356 . S
C1225 C1224 1.363 . S
C1225 C1228 1.363 . S
N1226 C1228 1.356 . S
N1226 H1238 0.984 . S
N1226 H1239 0.985 . S
N1227 C1229 1.356 . S
N1227 H1232 0.984 . S
N1227 H1233 0.985 . S
C1228 C1222 1.379 . S
C1228 C1225 1.363 . S
C1228 N1226 1.356 . S
C1229 C1223 1.363 . S
C1229 C1224 1.379 . S
C1229 N1227 1.356 . S
N1230 C1222 1.356 . S
N1230 H1236 0.984 . S
N1230 H1237 0.984 . S
N1231 C1224 1.356 . S
N1231 H1234 0.984 . S
N1231 H1235 0.985 . S
H1232 N1227 0.984 . S
H1233 N1227 0.985 . S
H1234 N1231 0.984 . S
H1235 N1231 0.985 . S
H1236 N1230 0.984 . S
H1237 N1230 0.984 . S
H1238 N1226 0.984 . S
H1239 N1226 0.985 . S
C1240 C1241 1.363 1_545 S
C1240 C1246 1.379 . S
C1240 N1248 1.356 . S
C1241 C1240 1.363 1_565 S
C1241 C1247 1.363 . S
C1242 C1243 1.363 1_565 S
C1242 C1247 1.379 . S
C1242 N1249 1.356 . S
C1243 C1242 1.363 1_545 S
C1243 C1246 1.363 . S
N1244 C1246 1.356 . S
N1244 H1256 0.984 . S
N1244 H1257 0.985 . S
N1245 C1247 1.356 . S
N1245 H1250 0.984 . S
N1245 H1251 0.985 . S
C1246 C1240 1.379 . S
C1246 C1243 1.363 . S
C1246 N1244 1.356 . S
C1247 C1241 1.363 . S
C1247 C1242 1.379 . S
C1247 N1245 1.356 . S
N1248 C1240 1.356 . S
N1248 H1254 0.984 . S
N1248 H1255 0.984 . S
N1249 C1242 1.356 . S
N1249 H1252 0.984 . S
N1249 H1253 0.985 . S
H1250 N1245 0.984 . S
H1251 N1245 0.985 . S
H1252 N1249 0.984 . S
H1253 N1249 0.985 . S
H1254 N1248 0.984 . S
H1255 N1248 0.984 . S
H1256 N1244 0.984 . S
H1257 N1244 0.985 . S
C1258 C1259 1.363 . S
C1258 C1264 1.379 . S
C1258 N1266 1.356 . S
C1259 C1258 1.363 . S
C1259 C1265 1.363 . S
C1260 C1261 1.363 1_554 S
C1260 C1265 1.379 . S
C1260 N1267 1.356 1_554 S
C1261 C1260 1.363 1_556 S
C1261 C1264 1.363 1_556 S
N1262 C1264 1.356 1_556 S
N1262 H1274 0.984 . S
N1262 H1275 0.985 . S
N1263 C1265 1.356 . S
N1263 H1268 0.984 . S
N1263 H1269 0.985 . S
C1264 C1258 1.379 . S
C1264 C1261 1.363 1_554 S
C1264 N1262 1.356 1_554 S
C1265 C1259 1.363 . S
C1265 C1260 1.379 . S
C1265 N1263 1.356 . S
N1266 C1258 1.356 . S
N1266 H1272 0.984 . S
N1266 H1273 0.984 . S
N1267 C1260 1.356 1_556 S
N1267 H1270 0.984 . S
N1267 H1271 0.985 . S
H1268 N1263 0.984 . S
H1269 N1263 0.985 . S
H1270 N1267 0.984 . S
H1271 N1267 0.985 . S
H1272 N1266 0.984 . S
H1273 N1266 0.984 . S
H1274 N1262 0.984 . S
H1275 N1262 0.985 . S
C1276 C1277 1.363 . S
C1276 C1282 1.379 . S
C1276 N1284 1.356 . S
C1277 C1276 1.363 . S
C1277 C1283 1.363 1_565 S
C1278 C1279 1.363 . S
C1278 C1283 1.379 . S
C1278 N1285 1.356 . S
C1279 C1278 1.363 . S
C1279 C1282 1.363 1_545 S
N1280 C1282 1.356 . S
N1280 H1292 0.984 . S
N1280 H1293 0.985 . S
N1281 C1283 1.356 . S
N1281 H1286 0.984 . S
N1281 H1287 0.985 . S
C1282 C1276 1.379 . S
C1282 C1279 1.363 1_565 S
C1282 N1280 1.356 . S
C1283 C1277 1.363 1_545 S
C1283 C1278 1.379 . S
C1283 N1281 1.356 . S
N1284 C1276 1.356 . S
N1284 H1290 0.984 . S
N1284 H1291 0.984 . S
N1285 C1278 1.356 . S
N1285 H1288 0.984 . S
N1285 H1289 0.985 . S
H1286 N1281 0.984 . S
H1287 N1281 0.985 . S
H1288 N1285 0.984 . S
H1289 N1285 0.985 . S
H1290 N1284 0.984 . S
H1291 N1284 0.984 . S
H1292 N1280 0.984 . S
H1293 N1280 0.985 . S
C1294 C1295 1.363 . S
C1294 C1300 1.379 . S
C1294 N1302 1.356 . S
C1295 C1294 1.363 . S
C1295 C1301 1.363 . S
C1296 C1297 1.363 . S
C1296 C1301 1.379 . S
C1296 N1303 1.356 . S
C1297 C1296 1.363 . S
C1297 C1300 1.363 . S
N1298 C1300 1.356 . S
N1298 H1310 0.984 . S
N1298 H1311 0.985 . S
N1299 C1301 1.356 . S
N1299 H1304 0.984 . S
N1299 H1305 0.985 . S
C1300 C1294 1.379 . S
C1300 C1297 1.363 . S
C1300 N1298 1.356 . S
C1301 C1295 1.363 . S
C1301 C1296 1.379 . S
C1301 N1299 1.356 . S
N1302 C1294 1.356 . S
N1302 H1308 0.984 . S
N1302 H1309 0.984 . S
N1303 C1296 1.356 . S
N1303 H1306 0.984 . S
N1303 H1307 0.985 . S
H1304 N1299 0.984 . S
H1305 N1299 0.985 . S
H1306 N1303 0.984 . S
H1307 N1303 0.985 . S
H1308 N1302 0.984 . S
H1309 N1302 0.984 . S
H1310 N1298 0.984 . S
H1311 N1298 0.985 . S
C1312 C1313 1.363 . S
C1312 C1318 1.379 . S
C1312 N1320 1.356 . S
C1313 C1312 1.363 . S
C1313 C1319 1.363 . S
C1314 C1315 1.363 . S
C1314 C1319 1.379 . S
C1314 N1321 1.356 . S
C1315 C1314 1.363 . S
C1315 C1318 1.363 . S
N1316 C1318 1.356 . S
N1316 H1328 0.984 . S
N1316 H1329 0.985 . S
N1317 C1319 1.356 . S
N1317 H1322 0.984 . S
N1317 H1323 0.985 . S
C1318 C1312 1.379 . S
C1318 C1315 1.363 . S
C1318 N1316 1.356 . S
C1319 C1313 1.363 . S
C1319 C1314 1.379 . S
C1319 N1317 1.356 . S
N1320 C1312 1.356 . S
N1320 H1326 0.984 . S
N1320 H1327 0.984 . S
N1321 C1314 1.356 . S
N1321 H1324 0.984 . S
N1321 H1325 0.985 . S
H1322 N1317 0.984 . S
H1323 N1317 0.985 . S
H1324 N1321 0.984 . S
H1325 N1321 0.985 . S
H1326 N1320 0.984 . S
H1327 N1320 0.984 . S
H1328 N1316 0.984 . S
H1329 N1316 0.985 . S
C1330 C1331 1.363 . S
C1330 C1336 1.379 . S
C1330 N1338 1.356 . S
C1331 C1330 1.363 . S
C1331 C1337 1.363 . S
C1332 C1333 1.363 . S
C1332 C1337 1.379 . S
C1332 N1339 1.356 . S
C1333 C1332 1.363 . S
C1333 C1336 1.363 . S
N1334 C1336 1.356 . S
N1334 H1346 0.984 . S
N1334 H1347 0.985 . S
N1335 C1337 1.356 . S
N1335 H1340 0.984 . S
N1335 H1341 0.985 . S
C1336 C1330 1.379 . S
C1336 C1333 1.363 . S
C1336 N1334 1.356 . S
C1337 C1331 1.363 . S
C1337 C1332 1.379 . S
C1337 N1335 1.356 . S
N1338 C1330 1.356 . S
N1338 H1344 0.984 . S
N1338 H1345 0.984 . S
N1339 C1332 1.356 . S
N1339 H1342 0.984 . S
N1339 H1343 0.985 . S
H1340 N1335 0.984 . S
H1341 N1335 0.985 . S
H1342 N1339 0.984 . S
H1343 N1339 0.985 . S
H1344 N1338 0.984 . S
H1345 N1338 0.984 . S
H1346 N1334 0.984 . S
H1347 N1334 0.985 . S
C1348 C1349 1.363 . S
C1348 C1354 1.379 . S
C1348 N1356 1.356 . S
C1349 C1348 1.363 . S
C1349 C1355 1.363 . S
C1350 C1351 1.363 . S
C1350 C1355 1.379 . S
C1350 N1357 1.356 . S
C1351 C1350 1.363 . S
C1351 C1354 1.363 . S
N1352 C1354 1.356 . S
N1352 H1364 0.984 . S
N1352 H1365 0.985 . S
N1353 C1355 1.356 . S
N1353 H1358 0.984 . S
N1353 H1359 0.985 . S
C1354 C1348 1.379 . S
C1354 C1351 1.363 . S
C1354 N1352 1.356 . S
C1355 C1349 1.363 . S
C1355 C1350 1.379 . S
C1355 N1353 1.356 . S
N1356 C1348 1.356 . S
N1356 H1362 0.984 . S
N1356 H1363 0.984 . S
N1357 C1350 1.356 . S
N1357 H1360 0.984 . S
N1357 H1361 0.985 . S
H1358 N1353 0.984 . S
H1359 N1353 0.985 . S
H1360 N1357 0.984 . S
H1361 N1357 0.985 . S
H1362 N1356 0.984 . S
H1363 N1356 0.984 . S
H1364 N1352 0.984 . S
H1365 N1352 0.985 . S
C1366 C1367 1.363 . S
C1366 C1372 1.379 . S
C1366 N1374 1.356 . S
C1367 C1366 1.363 . S
C1367 C1373 1.363 . S
C1368 C1369 1.363 . S
C1368 C1373 1.379 . S
C1368 N1375 1.356 . S
C1369 C1368 1.363 . S
C1369 C1372 1.363 . S
N1370 C1372 1.356 1_554 S
N1370 H1382 0.984 . S
N1370 H1383 0.985 . S
N1371 C1373 1.356 . S
N1371 H1376 0.984 . S
N1371 H1377 0.985 . S
C1372 C1366 1.379 . S
C1372 C1369 1.363 . S
C1372 N1370 1.356 1_556 S
C1373 C1367 1.363 . S
C1373 C1368 1.379 . S
C1373 N1371 1.356 . S
N1374 C1366 1.356 . S
N1374 H1380 0.984 1_556 S
N1374 H1381 0.984 . S
N1375 C1368 1.356 . S
N1375 H1378 0.984 . S
N1375 H1379 0.985 . S
H1376 N1371 0.984 . S
H1377 N1371 0.985 . S
H1378 N1375 0.984 . S
H1379 N1375 0.985 . S
H1380 N1374 0.984 1_554 S
H1381 N1374 0.984 . S
H1382 N1370 0.984 . S
H1383 N1370 0.985 . S
C1384 C1385 1.363 . S
C1384 C1390 1.379 . S
C1384 N1392 1.356 . S
C1385 C1384 1.363 . S
C1385 C1391 1.363 . S
C1386 C1387 1.363 . S
C1386 C1391 1.379 . S
C1386 N1393 1.356 . S
C1387 C1386 1.363 . S
C1387 C1390 1.363 . S
N1388 C1390 1.356 . S
N1388 H1400 0.984 . S
N1388 H1401 0.985 . S
N1389 C1391 1.356 . S
N1389 H1394 0.984 . S
N1389 H1395 0.985 . S
C1390 C1384 1.379 . S
C1390 C1387 1.363 . S
C1390 N1388 1.356 . S
C1391 C1385 1.363 . S
C1391 C1386 1.379 . S
C1391 N1389 1.356 . S
N1392 C1384 1.356 . S
N1392 H1398 0.984 . S
N1392 H1399 0.984 . S
N1393 C1386 1.356 . S
N1393 H1396 0.984 . S
N1393 H1397 0.985 . S
H1394 N1389 0.984 . S
H1395 N1389 0.985 . S
H1396 N1393 0.984 . S
H1397 N1393 0.985 . S
H1398 N1392 0.984 . S
H1399 N1392 0.984 . S
H1400 N1388 0.984 . S
H1401 N1388 0.985 . S
C1402 C1403 1.363 . S
C1402 C1408 1.379 . S
C1402 N1410 1.356 . S
C1403 C1402 1.363 . S
C1403 C1409 1.363 . S
C1404 C1405 1.363 . S
C1404 C1409 1.379 . S
C1404 N1411 1.356 . S
C1405 C1404 1.363 . S
C1405 C1408 1.363 . S
N1406 C1408 1.356 . S
N1406 H1418 0.984 . S
N1406 H1419 0.985 . S
N1407 C1409 1.356 . S
N1407 H1412 0.984 . S
N1407 H1413 0.985 . S
C1408 C1402 1.379 . S
C1408 C1405 1.363 . S
C1408 N1406 1.356 . S
C1409 C1403 1.363 . S
C1409 C1404 1.379 . S
C1409 N1407 1.356 . S
N1410 C1402 1.356 . S
N1410 H1416 0.984 . S
N1410 H1417 0.984 . S
N1411 C1404 1.356 . S
N1411 H1414 0.984 . S
N1411 H1415 0.985 . S
H1412 N1407 0.984 . S
H1413 N1407 0.985 . S
H1414 N1411 0.984 . S
H1415 N1411 0.985 . S
H1416 N1410 0.984 . S
H1417 N1410 0.984 . S
H1418 N1406 0.984 . S
H1419 N1406 0.985 . S
C1420 C1421 1.363 . S
C1420 C1426 1.379 . S
C1420 N1428 1.356 . S
C1421 C1420 1.363 . S
C1421 C1427 1.363 . S
C1422 C1423 1.363 . S
C1422 C1427 1.379 . S
C1422 N1429 1.356 1_556 S
C1423 C1422 1.363 . S
C1423 C1426 1.363 . S
N1424 C1426 1.356 . S
N1424 H1436 0.984 . S
N1424 H1437 0.985 . S
N1425 C1427 1.356 . S
N1425 H1430 0.984 . S
N1425 H1431 0.985 1_556 S
C1426 C1420 1.379 . S
C1426 C1423 1.363 . S
C1426 N1424 1.356 . S
C1427 C1421 1.363 . S
C1427 C1422 1.379 . S
C1427 N1425 1.356 . S
N1428 C1420 1.356 . S
N1428 H1434 0.984 . S
N1428 H1435 0.984 . S
N1429 C1422 1.356 1_554 S
N1429 H1432 0.984 . S
N1429 H1433 0.985 . S
H1430 N1425 0.984 . S
H1431 N1425 0.985 1_554 S
H1432 N1429 0.984 . S
H1433 N1429 0.985 . S
H1434 N1428 0.984 . S
H1435 N1428 0.984 . S
H1436 N1424 0.984 . S
H1437 N1424 0.985 . S
C1438 C1439 1.363 . S
C1438 C1444 1.379 . S
C1438 N1446 1.356 . S
C1439 C1438 1.363 . S
C1439 C1445 1.363 . S
C1440 C1441 1.363 . S
C1440 C1445 1.379 . S
C1440 N1447 1.356 . S
C1441 C1440 1.363 . S
C1441 C1444 1.363 . S
N1442 C1444 1.356 . S
N1442 H1454 0.984 . S
N1442 H1455 0.985 . S
N1443 C1445 1.356 . S
N1443 H1448 0.984 . S
N1443 H1449 0.985 . S
C1444 C1438 1.379 . S
C1444 C1441 1.363 . S
C1444 N1442 1.356 . S
C1445 C1439 1.363 . S
C1445 C1440 1.379 . S
C1445 N1443 1.356 . S
N1446 C1438 1.356 . S
N1446 H1452 0.984 . S
N1446 H1453 0.984 . S
N1447 C1440 1.356 . S
N1447 H1450 0.984 . S
N1447 H1451 0.985 . S
H1448 N1443 0.984 . S
H1449 N1443 0.985 . S
H1450 N1447 0.984 . S
H1451 N1447 0.985 . S
H1452 N1446 0.984 . S
H1453 N1446 0.984 . S
H1454 N1442 0.984 . S
H1455 N1442 0.985 . S
C1456 C1457 1.363 . S
C1456 C1462 1.379 . S
C1456 N1464 1.356 1_556 S
C1457 C1456 1.363 . S
C1457 C1463 1.363 . S
C1458 C1459 1.363 . S
C1458 C1463 1.379 . S
C1458 N1465 1.356 . S
C1459 C1458 1.363 . S
C1459 C1462 1.363 . S
N1460 C1462 1.356 . S
N1460 H1472 0.984 . S
N1460 H1473 0.985 . S
N1461 C1463 1.356 . S
N1461 H1466 0.984 . S
N1461 H1467 0.985 . S
C1462 C1456 1.379 . S
C1462 C1459 1.363 . S
C1462 N1460 1.356 . S
C1463 C1457 1.363 . S
C1463 C1458 1.379 . S
C1463 N1461 1.356 . S
N1464 C1456 1.356 1_554 S
N1464 H1470 0.984 . S
N1464 H1471 0.984 . S
N1465 C1458 1.356 . S
N1465 H1468 0.984 . S
N1465 H1469 0.985 . S
H1466 N1461 0.984 . S
H1467 N1461 0.985 . S
H1468 N1465 0.984 . S
H1469 N1465 0.985 . S
H1470 N1464 0.984 . S
H1471 N1464 0.984 . S
H1472 N1460 0.984 . S
H1473 N1460 0.985 . S
C1474 C1475 1.363 . S
C1474 C1480 1.379 . S
C1474 N1482 1.356 . S
C1475 C1474 1.363 . S
C1475 C1481 1.363 . S
C1476 C1477 1.363 . S
C1476 C1481 1.379 . S
C1476 N1483 1.356 . S
C1477 C1476 1.363 . S
C1477 C1480 1.363 . S
N1478 C1480 1.356 . S
N1478 H1490 0.984 . S
N1478 H1491 0.985 . S
N1479 C1481 1.356 . S
N1479 H1484 0.984 . S
N1479 H1485 0.985 . S
C1480 C1474 1.379 . S
C1480 C1477 1.363 . S
C1480 N1478 1.356 . S
C1481 C1475 1.363 . S
C1481 C1476 1.379 . S
C1481 N1479 1.356 . S
N1482 C1474 1.356 . S
N1482 H1488 0.984 . S
N1482 H1489 0.984 . S
N1483 C1476 1.356 . S
N1483 H1486 0.984 . S
N1483 H1487 0.985 . S
H1484 N1479 0.984 . S
H1485 N1479 0.985 . S
H1486 N1483 0.984 . S
H1487 N1483 0.985 . S
H1488 N1482 0.984 . S
H1489 N1482 0.984 . S
H1490 N1478 0.984 . S
H1491 N1478 0.985 . S
C1492 C1493 1.363 . S
C1492 C1498 1.379 . S
C1492 N1500 1.356 . S
C1493 C1492 1.363 . S
C1493 C1499 1.363 . S
C1494 C1495 1.363 . S
C1494 C1499 1.379 . S
C1494 N1501 1.356 . S
C1495 C1494 1.363 . S
C1495 C1498 1.363 . S
N1496 C1498 1.356 . S
N1496 H1508 0.984 . S
N1496 H1509 0.985 . S
N1497 C1499 1.356 . S
N1497 H1502 0.984 . S
N1497 H1503 0.985 . S
C1498 C1492 1.379 . S
C1498 C1495 1.363 . S
C1498 N1496 1.356 . S
C1499 C1493 1.363 . S
C1499 C1494 1.379 . S
C1499 N1497 1.356 . S
N1500 C1492 1.356 . S
N1500 H1506 0.984 . S
N1500 H1507 0.984 . S
N1501 C1494 1.356 . S
N1501 H1504 0.984 . S
N1501 H1505 0.985 . S
H1502 N1497 0.984 . S
H1503 N1497 0.985 . S
H1504 N1501 0.984 . S
H1505 N1501 0.985 . S
H1506 N1500 0.984 . S
H1507 N1500 0.984 . S
H1508 N1496 0.984 . S
H1509 N1496 0.985 . S
C1510 C1511 1.363 . S
C1510 C1516 1.379 . S
C1510 N1518 1.356 . S
C1511 C1510 1.363 . S
C1511 C1517 1.363 . S
C1512 C1513 1.363 . S
C1512 C1517 1.379 . S
C1512 N1519 1.356 . S
C1513 C1512 1.363 . S
C1513 C1516 1.363 . S
N1514 C1516 1.356 . S
N1514 H1526 0.984 . S
N1514 H1527 0.985 . S
N1515 C1517 1.356 . S
N1515 H1520 0.984 . S
N1515 H1521 0.985 . S
C1516 C1510 1.379 . S
C1516 C1513 1.363 . S
C1516 N1514 1.356 . S
C1517 C1511 1.363 . S
C1517 C1512 1.379 . S
C1517 N1515 1.356 . S
N1518 C1510 1.356 . S
N1518 H1524 0.984 . S
N1518 H1525 0.984 . S
N1519 C1512 1.356 . S
N1519 H1522 0.984 . S
N1519 H1523 0.985 . S
H1520 N1515 0.984 . S
H1521 N1515 0.985 . S
H1522 N1519 0.984 . S
H1523 N1519 0.985 . S
H1524 N1518 0.984 . S
H1525 N1518 0.984 . S
H1526 N1514 0.984 . S
H1527 N1514 0.985 . S
C1528 C1529 1.363 . S
C1528 C1534 1.379 . S
C1528 N1536 1.356 . S
C1529 C1528 1.363 . S
C1529 C1535 1.363 . S
C1530 C1531 1.363 . S
C1530 C1535 1.379 . S
C1530 N1537 1.356 . S
C1531 C1530 1.363 . S
C1531 C1534 1.363 . S
N1532 C1534 1.356 . S
N1532 H1544 0.984 . S
N1532 H1545 0.985 . S
N1533 C1535 1.356 . S
N1533 H1538 0.984 . S
N1533 H1539 0.985 . S
C1534 C1528 1.379 . S
C1534 C1531 1.363 . S
C1534 N1532 1.356 . S
C1535 C1529 1.363 . S
C1535 C1530 1.379 . S
C1535 N1533 1.356 . S
N1536 C1528 1.356 . S
N1536 H1542 0.984 . S
N1536 H1543 0.984 . S
N1537 C1530 1.356 . S
N1537 H1540 0.984 . S
N1537 H1541 0.985 . S
H1538 N1533 0.984 . S
H1539 N1533 0.985 . S
H1540 N1537 0.984 . S
H1541 N1537 0.985 . S
H1542 N1536 0.984 . S
H1543 N1536 0.984 . S
H1544 N1532 0.984 . S
H1545 N1532 0.985 . S
C1546 C1547 1.363 . S
C1546 C1552 1.379 . S
C1546 N1554 1.356 . S
C1547 C1546 1.363 . S
C1547 C1553 1.363 . S
C1548 C1549 1.363 . S
C1548 C1553 1.379 . S
C1548 N1555 1.356 . S
C1549 C1548 1.363 . S
C1549 C1552 1.363 . S
N1550 C1552 1.356 . S
N1550 H1562 0.984 . S
N1550 H1563 0.985 . S
N1551 C1553 1.356 . S
N1551 H1556 0.984 . S
N1551 H1557 0.985 . S
C1552 C1546 1.379 . S
C1552 C1549 1.363 . S
C1552 N1550 1.356 . S
C1553 C1547 1.363 . S
C1553 C1548 1.379 . S
C1553 N1551 1.356 . S
N1554 C1546 1.356 . S
N1554 H1560 0.984 . S
N1554 H1561 0.984 . S
N1555 C1548 1.356 . S
N1555 H1558 0.984 . S
N1555 H1559 0.985 . S
H1556 N1551 0.984 . S
H1557 N1551 0.985 . S
H1558 N1555 0.984 . S
H1559 N1555 0.985 . S
H1560 N1554 0.984 . S
H1561 N1554 0.984 . S
H1562 N1550 0.984 . S
H1563 N1550 0.985 . S
C1564 C1565 1.363 . S
C1564 C1570 1.379 . S
C1564 N1572 1.356 . S
C1565 C1564 1.363 . S
C1565 C1571 1.363 . S
C1566 C1567 1.363 . S
C1566 C1571 1.379 . S
C1566 N1573 1.356 . S
C1567 C1566 1.363 . S
C1567 C1570 1.363 . S
N1568 C1570 1.356 . S
N1568 H1580 0.984 . S
N1568 H1581 0.985 . S
N1569 C1571 1.356 . S
N1569 H1574 0.984 . S
N1569 H1575 0.985 . S
C1570 C1564 1.379 . S
C1570 C1567 1.363 . S
C1570 N1568 1.356 . S
C1571 C1565 1.363 . S
C1571 C1566 1.379 . S
C1571 N1569 1.356 . S
N1572 C1564 1.356 . S
N1572 H1578 0.984 . S
N1572 H1579 0.984 . S
N1573 C1566 1.356 . S
N1573 H1576 0.984 . S
N1573 H1577 0.985 . S
H1574 N1569 0.984 . S
H1575 N1569 0.985 . S
H1576 N1573 0.984 . S
H1577 N1573 0.985 . S
H1578 N1572 0.984 . S
H1579 N1572 0.984 . S
H1580 N1568 0.984 . S
H1581 N1568 0.985 . S
C1582 C1583 1.363 . S
C1582 C1588 1.379 . S
C1582 N1590 1.356 . S
C1583 C1582 1.363 . S
C1583 C1589 1.363 . S
C1584 C1585 1.363 . S
C1584 C1589 1.379 . S
C1584 N1591 1.356 . S
C1585 C1584 1.363 . S
C1585 C1588 1.363 . S
N1586 C1588 1.356 . S
N1586 H1598 0.984 . S
N1586 H1599 0.985 . S
N1587 C1589 1.356 . S
N1587 H1592 0.984 . S
N1587 H1593 0.985 . S
C1588 C1582 1.379 . S
C1588 C1585 1.363 . S
C1588 N1586 1.356 . S
C1589 C1583 1.363 . S
C1589 C1584 1.379 . S
C1589 N1587 1.356 . S
N1590 C1582 1.356 . S
N1590 H1596 0.984 . S
N1590 H1597 0.984 . S
N1591 C1584 1.356 . S
N1591 H1594 0.984 1_556 S
N1591 H1595 0.985 . S
H1592 N1587 0.984 . S
H1593 N1587 0.985 . S
H1594 N1591 0.984 1_554 S
H1595 N1591 0.985 . S
H1596 N1590 0.984 . S
H1597 N1590 0.984 . S
H1598 N1586 0.984 . S
H1599 N1586 0.985 . S
C449 C121 1.360 . S
C451 C9 1.360 . S
C467 C23 1.360 . S
C469 C359 1.360 . S
C485 C37 1.360 . S
C487 C149 1.360 . S
C503 C51 1.360 . S
C505 C387 1.360 . S
C521 C65 1.360 . S
C523 C177 1.360 . S
C539 C415 1.360 . S
C541 C79 1.360 . S
C557 C205 1.360 . S
C559 C93 1.360 . S
C575 C443 1.360 . S
C577 C107 1.360 . S
C593 C247 1.360 . S
C595 C135 1.360 . S
C611 C163 1.360 . S
C613 C275 1.360 . S
C629 C191 1.360 . S
C631 C303 1.360 . S
C647 C331 1.360 . S
C649 C219 1.360 . S
C665 C345 1.360 . S
C667 C233 1.360 . S
C683 C261 1.360 . S
C685 C373 1.360 . S
C701 C289 1.360 . S
C703 C401 1.360 . S
C719 C429 1.360 . S
C721 C317 1.360 . S
C737 C7 1.279 . S
C739 C63 1.279 . S
C755 C77 1.279 . S
C757 C21 1.279 . S
C773 C91 1.279 . S
C775 C35 1.279 . S
C791 C49 1.279 . S
C793 C105 1.279 . S
C809 C119 1.279 . S
C811 C175 1.279 . S
C827 C133 1.279 . S
C829 C189 1.279 . S
C845 C203 1.279 . S
C847 C147 1.279 . S
C863 C217 1.279 . S
C865 C161 1.279 . S
C881 C287 1.279 . S
C883 C231 1.279 . S
C899 C301 1.279 . S
C901 C245 1.279 . S
C917 C259 1.279 . S
C919 C315 1.279 . S
C935 C329 1.279 . S
C937 C273 1.279 . S
C953 C399 1.279 . S
C955 C343 1.279 . S
C971 C357 1.279 . S
C973 C413 1.279 . S
C989 C427 1.279 . S
C991 C371 1.279 . S
C1007 C441 1.279 . S
C1009 C385 1.279 . S
C1025 C64 1.224 . S
C1027 C8 1.224 . S
C1043 C78 1.224 . S
C1045 C22 1.224 . S
C1061 C36 1.224 . S
C1063 C92 1.224 . S
C1079 C106 1.224 . S
C1081 C50 1.224 . S
C1097 C176 1.224 . S
C1099 C120 1.224 . S
C1115 C134 1.224 . S
C1117 C190 1.224 . S
C1133 C204 1.224 . S
C1135 C148 1.224 . S
C1151 C218 1.224 . S
C1153 C162 1.224 . S
C1169 C232 1.224 . S
C1171 C288 1.224 . S
C1187 C302 1.224 . S
C1189 C246 1.224 . S
C1205 C316 1.224 . S
C1207 C260 1.224 . S
C1223 C330 1.224 . S
C1225 C274 1.224 . S
C1241 C400 1.224 . S
C1243 C344 1.224 . S
C1259 C358 1.224 . S
C1261 C414 1.224 . S
C1277 C372 1.224 . S
C1279 C428 1.224 . S
C1295 C386 1.224 . S
C1297 C442 1.224 . S
C1313 C6 1.428 . S
C1315 C300 1.428 . S
C1331 C314 1.428 . S
C1333 C20 1.428 . S
C1349 C34 1.428 . S
C1351 C328 1.428 . S
C1367 C48 1.428 . S
C1369 C286 1.428 . S
C1385 C272 1.428 . S
C1387 C62 1.428 . S
C1403 C230 1.428 . S
C1405 C76 1.428 . S
C1421 C244 1.428 . S
C1423 C90 1.428 . S
C1439 C104 1.428 . S
C1441 C258 1.428 . S
C1457 C118 1.428 . S
C1459 C412 1.428 . S
C1475 C426 1.428 . S
C1477 C132 1.428 . S
C1493 C440 1.428 . S
C1495 C146 1.428 . S
C1511 C398 1.428 . S
C1513 C160 1.428 . S
C1529 C384 1.428 . S
C1531 C174 1.428 . S
C1547 C342 1.428 . S
C1549 C188 1.428 . S
C1565 C202 1.428 . S
C1567 C356 1.428 . S
C1583 C216 1.428 . S
C1585 C370 1.428 . S
