# Generated by pormake.
# Topology sxb, (6)-cn, num edge types: 1
# Building blocks:
#     Node 0, Type 0, BuildingBlock: BETDAH_clean_sbu_0, # of connection points: 6
#     Node 1, Type 0, BuildingBlock: BETDAH_clean_sbu_0, # of connection points: 6
#     Node 2, Type 0, BuildingBlock: BETDAH_clean_sbu_0, # of connection points: 6
#     Node 3, Type 0, BuildingBlock: BETDAH_clean_sbu_0, # of connection points: 6
#     Edge 4, Type (0, 0), BuildingBlock: FUNLAD_clean_linker_1, # of connection points: 2
#     Edge 5, Type (0, 0), BuildingBlock: FUNLAD_clean_linker_1, # of connection points: 2
#     Edge 6, Type (0, 0), BuildingBlock: FUNLAD_clean_linker_1, # of connection points: 2
#     Edge 7, Type (0, 0), BuildingBlock: FUNLAD_clean_linker_1, # of connection points: 2
#     Edge 8, Type (0, 0), BuildingBlock: FUNLAD_clean_linker_1, # of connection points: 2
#     Edge 9, Type (0, 0), BuildingBlock: FUNLAD_clean_linker_1, # of connection points: 2
#     Edge 10, Type (0, 0), BuildingBlock: FUNLAD_clean_linker_1, # of connection points: 2
#     Edge 11, Type (0, 0), BuildingBlock: FUNLAD_clean_linker_1, # of connection points: 2
#     Edge 12, Type (0, 0), BuildingBlock: FUNLAD_clean_linker_1, # of connection points: 2
#     Edge 13, Type (0, 0), BuildingBlock: FUNLAD_clean_linker_1, # of connection points: 2
#     Edge 14, Type (0, 0), BuildingBlock: FUNLAD_clean_linker_1, # of connection points: 2
#     Edge 15, Type (0, 0), BuildingBlock: FUNLAD_clean_linker_1, # of connection points: 2
# Relax obj value: 0.392
# Max RMSD: 0.127
# Mean RMSD: 0.081
data_MOF--net-sxb--node1-BETDAH_clean_sbu_0--edge1-FUNLAD_clean_linker_1
_symmetry_space_group_name_H-M    P1
_symmetry_Int_Tables_number       1
_symmetry_cell_setting            triclinic
loop_
_symmetry_equiv_pos_as_xyz
'x, y, z'
_cell_length_a     19.383735
_cell_length_b     37.759329
_cell_length_c     31.470397
_cell_angle_alpha  93.055015
_cell_angle_beta   95.327598
_cell_angle_gamma 70.78058
loop_
_atom_site_label
_atom_site_type_symbol
_atom_site_fract_x
_atom_site_fract_y
_atom_site_fract_z
_atom_type_partial_charge
Ho0 Ho 1.00485 1.02753 -0.00379 0.0
Ho1 Ho 0.13551 0.03717 0.01754 0.0
C2 C 0.9973 0.11918 0.00946 0.0
C3 C 0.8711 1.02701 0.98535 0.0
C4 C 0.81602 0.03483 0.94859 0.0
C5 C 0.74157 0.05036 0.95528 0.0
C6 C 0.68847 0.05284 0.92133 0.0
C7 C 0.70928 0.03895 0.88028 0.0
C8 C 0.78388 1.02668 0.87302 0.0
C9 C 0.83689 1.02464 0.90687 0.0
C10 C 0.07392 1.0267 0.92378 0.0
C11 C 0.14205 0.94629 0.00707 0.0
C12 C 0.27056 0.03373 0.01669 0.0
C13 C 0.32742 1.00857 -0.00919 0.0
C14 C 0.3413 0.96943 0.98905 0.0
C15 C 0.38158 0.94717 0.95696 0.0
C16 C 0.40851 0.96383 0.92657 0.0
C17 C 0.39931 1.00231 0.9302 0.0
C18 C 0.35892 1.02451 0.96197 0.0
C19 C 0.06626 0.04004 0.08986 0.0
O20 O 0.95876 0.09514 0.00353 0.0
O21 O 0.07039 0.10235 0.01485 0.0
O22 O 0.92829 0.99739 0.98123 0.0
O23 O 0.88843 0.05537 0.00265 0.0
O24 O 1.03686 1.00503 0.93006 0.0
O25 O 0.07032 0.0487 0.95561 0.0
O26 O 0.17946 0.97028 0.00449 0.0
O27 O 0.06977 0.96349 0.00942 0.0
O28 O 0.24739 1.0185 0.04624 0.0
O29 O 0.21675 0.05754 -0.00552 0.0
O30 O 0.1014 0.06246 0.08188 0.0
O31 O 0.06921 1.01689 0.05882 0.0
H32 H 0.72445 0.05921 0.98705 0.0
H33 H 0.63139 0.06423 0.92782 0.0
H34 H 0.80147 1.01636 0.84169 0.0
H35 H 0.8942 1.01335 0.90073 0.0
H36 H 0.31885 0.95616 0.01134 0.0
H37 H 0.3899 0.91733 0.95517 0.0
H38 H 0.42172 1.01542 0.90764 0.0
H39 H 0.34919 0.05449 0.96268 0.0
Ho40 Ho 0.07845 1.00175 0.50798 0.0
Ho41 Ho 1.01652 0.07459 0.51014 0.0
C42 C 0.88166 0.03499 0.50799 0.0
C43 C 0.1118 0.93057 0.52069 0.0
C44 C 0.07044 0.90386 0.51721 0.0
C45 C 1.0075 0.91027 0.53929 0.0
C46 C 0.9672 0.88555 0.53391 0.0
C47 C 0.98822 0.85435 0.50593 0.0
C48 C 1.052 0.84754 0.48445 0.0
C49 C 0.09274 0.87209 0.49014 0.0
C50 C 1.05335 1.02793 0.42718 0.0
C51 C 0.21335 0.04132 0.51031 0.0
C52 C 0.98379 0.14563 0.49719 0.0
C53 C 1.02745 0.17106 0.50157 0.0
C54 C 1.01137 0.20108 0.47388 0.0
C55 C 1.05539 0.22409 0.47634 0.0
C56 C 0.11633 0.21719 0.50659 0.0
C57 C 0.13119 0.18754 0.53475 0.0
C58 C 0.08756 0.16449 0.5321 0.0
C59 C 1.0359 0.0485 0.59036 0.0
O60 O 0.94748 1.00601 0.51096 0.0
O61 O 0.8942 0.06796 0.50444 0.0
O62 O 0.11922 0.94413 0.48486 0.0
O63 O 0.0967 0.95618 0.55109 0.0
O64 O 0.11478 1.0047 0.44255 0.0
O65 O 1.0081 0.03715 0.45562 0.0
O66 O 0.1476 0.0703 0.50792 0.0
O67 O 0.20076 1.0083 0.51307 0.0
O68 O 0.97386 0.13218 0.53256 0.0
O69 O 1.00086 0.11997 0.46699 0.0
O70 O 0.97508 0.07067 0.57312 0.0
O71 O 0.08444 0.03944 0.56359 0.0
H72 H 0.98876 0.93457 0.56035 0.0
H73 H 0.91854 0.89125 0.55103 0.0
H74 H 0.07095 0.82318 0.46355 0.0
H75 H 0.14136 0.86649 0.47302 0.0
H76 H 0.96517 0.20651 0.45013 0.0
H77 H 1.04114 0.24727 0.45483 0.0
H78 H 0.17764 0.1817 0.55839 0.0
H79 H 0.10132 0.14128 0.55363 0.0
Ho80 Ho 0.49183 0.52785 -0.00157 0.0
Ho81 Ho 0.64921 0.53782 0.01225 0.0
C82 C 0.49425 0.61811 0.00695 0.0
C83 C 0.37451 0.51603 0.01667 0.0
C84 C 0.31221 0.53355 0.043 0.0
C85 C 0.30952 0.51795 0.08217 0.0
C86 C 0.2471 0.53168 0.10491 0.0
C87 C 0.18609 0.56065 0.08837 0.0
C88 C 0.19019 0.57778 0.05064 0.0
C89 C 0.2525 0.56421 0.02797 0.0
C90 C 0.5517 0.5243 0.92161 0.0
C91 C 0.6466 0.44754 0.00425 0.0
C92 C 0.76589 0.54946 -0.00741 0.0
C93 C 0.82499 0.53277 0.96382 0.0
C94 C 0.82349 0.54949 0.92468 0.0
C95 C 0.88299 0.53637 0.89954 0.0
C96 C 0.94521 0.50684 0.91355 0.0
C97 C 0.94511 0.48864 0.95124 0.0
C98 C 0.88578 0.50164 0.97636 0.0
C99 C 0.58983 0.5416 0.08913 0.0
O100 O 0.45301 0.59507 0.00482 0.0
O101 O 0.5685 0.60151 0.00875 0.0
O102 O 0.37789 0.53414 0.98293 0.0
O103 O 0.43878 0.50049 0.03708 0.0
O104 O 0.48681 0.52235 0.92517 0.0
O105 O 0.57803 0.52758 0.95925 0.0
O106 O 0.68788 0.47057 0.00644 0.0
O107 O 0.57234 0.46414 0.00207 0.0
O108 O 0.76447 0.52976 0.0254 0.0
O109 O 0.70046 0.56666 0.97444 0.0
O110 O 0.65429 0.54409 0.08538 0.0
O111 O 0.56339 0.53774 0.05163 0.0
H112 H 0.35457 0.49423 0.09447 0.0
H113 H 0.24473 0.51814 0.13399 0.0
H114 H 0.14392 0.60061 0.03776 0.0
H115 H 0.25269 0.57698 -0.002 0.0
H116 H 0.77753 0.57359 0.91423 0.0
H117 H 0.88234 0.55079 0.87057 0.0
H118 H 0.99243 0.46543 0.96224 0.0
H119 H 0.88878 0.48804 0.00623 0.0
Ho120 Ho 0.60171 0.49591 0.50607 0.0
Ho121 Ho 0.54068 0.56652 0.50346 0.0
C122 C 0.40483 0.52822 0.503 0.0
C123 C 0.63318 0.42513 0.52063 0.0
C124 C 0.58758 0.40067 0.51994 0.0
C125 C 0.51977 0.41279 0.53796 0.0
C126 C 0.47201 0.39191 0.53134 0.0
C127 C 0.49153 0.35829 0.50681 0.0
C128 C 0.56025 0.34578 0.4899 0.0
C129 C 0.60794 0.36671 0.49651 0.0
C130 C 0.5974 0.51725 0.42416 0.0
C131 C 0.73718 0.5344 0.50663 0.0
C132 C 0.50672 0.63679 0.48611 0.0
C133 C 0.54879 0.65875 0.47046 0.0
C134 C 0.60246 0.6428 0.44157 0.0
C135 C 0.648 0.66239 0.43088 0.0
C136 C 0.64147 0.69783 0.44946 0.0
C137 C 0.58543 0.71442 0.47683 0.0
C138 C 0.53962 0.69493 0.48731 0.0
C139 C 0.54585 0.54486 0.5853 0.0
O140 O 0.47066 0.4994 0.50569 0.0
O141 O 0.41762 0.5611 0.49996 0.0
O142 O 0.63653 0.43804 0.48369 0.0
O143 O 0.62453 0.45092 0.55081 0.0
O144 O 0.65469 0.49619 0.44576 0.0
O145 O 0.54393 0.52788 0.44764 0.0
O146 O 0.67122 0.56281 0.50062 0.0
O147 O 0.72444 0.50201 0.51319 0.0
O148 O 0.52847 0.62372 0.52427 0.0
O149 O 0.49276 0.6119 0.45948 0.0
O150 O 0.48793 0.56556 0.5638 0.0
O151 O 0.59921 0.5346 0.56175 0.0
H152 H 0.50236 0.4391 0.55587 0.0
H153 H 0.41893 0.40315 0.54404 0.0
H154 H 0.57655 0.32008 0.47079 0.0
H155 H 0.65971 0.35705 0.482 0.0
H156 H 0.61069 0.61479 0.42824 0.0
H157 H 0.69034 0.64919 0.40945 0.0
H158 H 0.57741 0.74223 0.49062 0.0
H159 H 0.49834 0.70769 0.5095 0.0
H160 H 0.50448 0.6767 0.01003 0.0
C161 C 0.46104 0.66432 0.00758 0.0
H162 H 0.3454 0.67947 0.00517 0.0
H163 H 0.18192 0.84817 0.06381 0.0
H164 H 0.14587 0.81041 0.11127 0.0
H165 H 0.20371 0.74194 0.11225 0.0
H166 H 0.29926 0.70998 0.06635 0.0
C167 C 0.38859 0.69195 0.00632 0.0
C168 C 0.3571 0.73866 0.00785 0.0
C169 C 0.29815 0.75994 0.03397 0.0
C170 C 0.26206 0.80155 0.03306 0.0
C171 C 0.20833 0.8182 0.06188 0.0
C172 C 0.18753 0.79677 0.08962 0.0
C173 C 0.22021 0.75811 0.09018 0.0
C174 C 0.27477 0.73999 0.06319 0.0
H175 H 0.13267 0.88766 0.00587 0.0
C176 C 0.17582 0.90012 0.0066 0.0
H177 H 0.29093 0.88538 0.00615 0.0
H178 H 0.45697 0.71644 0.95028 0.0
H179 H 0.49295 0.75416 0.90265 0.0
H180 H 0.43416 0.82255 0.901 0.0
H181 H 0.33793 0.8545 0.94639 0.0
C182 C 0.2483 0.87267 0.00643 0.0
C183 C 0.28036 0.82595 0.0053 0.0
C184 C 0.33935 0.80465 0.97917 0.0
C185 C 0.37566 0.76305 0.98024 0.0
C186 C 0.42998 0.7464 0.95178 0.0
C187 C 0.45084 0.76779 0.92402 0.0
C188 C 0.41766 0.80642 0.92311 0.0
C189 C 0.36269 0.82454 0.94984 0.0
H190 H 0.63629 0.38895 0.00011 0.0
C191 C 0.67976 0.40132 0.00352 0.0
H192 H 0.79544 0.38613 0.01244 0.0
H193 H 0.95728 0.21847 0.07254 0.0
H194 H 0.99263 0.25712 0.12822 0.0
H195 H 0.93499 0.32562 0.12973 0.0
H196 H 0.84035 0.35677 0.07606 0.0
C197 C 0.75216 0.37369 0.00747 0.0
C198 C 0.78339 0.327 0.00785 0.0
C199 C 0.84175 0.30619 0.03861 0.0
C200 C 0.87763 0.26454 0.03753 0.0
C201 C 0.9309 0.24842 0.07079 0.0
C202 C 0.95133 0.27036 0.1032 0.0
C203 C 0.91878 0.30905 0.10405 0.0
C204 C 0.86474 0.32669 0.07263 0.0
H205 H 1.00682 0.17783 0.01523 0.0
C206 C 0.96355 0.16537 0.01037 0.0
H207 H 0.84828 0.18033 -0.00099 0.0
H208 H 0.6848 0.34822 0.94095 0.0
H209 H 0.64994 0.30964 0.88494 0.0
H210 H 0.70853 0.24121 0.88289 0.0
H211 H 0.8034 0.21003 0.93637 0.0
C212 C 0.89119 0.19292 0.0052 0.0
C213 C 0.85965 0.23963 0.00511 0.0
C214 C 0.80138 0.26048 0.97428 0.0
C215 C 0.76528 0.3021 0.97548 0.0
C216 C 0.71168 0.31827 0.9424 0.0
C217 C 0.69145 0.29638 0.90985 0.0
C218 C 0.72451 0.25773 0.90872 0.0
C219 C 0.77868 0.24006 0.94006 0.0
H220 H 0.19861 0.23967 0.54016 0.0
C221 C 0.16571 0.24012 0.51009 0.0
H222 H 0.14607 0.25964 0.44664 0.0
H223 H 0.27062 0.39383 0.49611 0.0
H224 H 0.14347 0.42751 0.4739 0.0
H225 H 1.05425 0.39384 0.45786 0.0
H226 H 0.09229 0.326 0.46203 0.0
C227 C 0.17646 0.25882 0.47751 0.0
C228 C 0.23112 0.27892 0.48328 0.0
C229 C 0.2075 0.31854 0.48165 0.0
C230 C 0.25846 0.33804 0.49227 0.0
C231 C 0.23394 0.37762 0.48918 0.0
C232 C 0.16111 0.39731 0.47648 0.0
C233 C 0.11091 0.37834 0.4673 0.0
C234 C 0.13346 0.33941 0.46987 0.0
H235 H 0.45025 0.31764 0.46841 0.0
C236 C 0.44039 0.3367 0.49604 0.0
H237 H 0.37212 0.35721 0.54687 0.0
H238 H 0.29762 0.2028 0.47805 0.0
H239 H 0.42551 0.16867 0.49742 0.0
H240 H 0.51102 0.20219 0.52482 0.0
H241 H 0.47 0.2701 0.5304 0.0
C242 C 0.38393 0.3388 0.51893 0.0
C243 C 0.33246 0.31785 0.50535 0.0
C244 C 0.35665 0.27805 0.50541 0.0
C245 C 0.30636 0.25859 0.49273 0.0
C246 C 0.33283 0.2189 0.48959 0.0
C247 C 0.40615 0.19896 0.50051 0.0
C248 C 0.45436 0.21786 0.51556 0.0
C249 C 0.43016 0.25693 0.51826 0.0
H250 H 0.9085 0.82934 0.52586 0.0
C251 C 0.94269 0.82945 0.50035 0.0
H252 H 0.96594 0.81078 0.43682 0.0
H253 H 0.82761 0.68707 0.50585 0.0
H254 H 0.95112 0.65818 0.53818 0.0
H255 H 1.04583 0.68821 0.5347 0.0
H256 H 1.01747 0.74749 0.49901 0.0
C257 C 0.93723 0.8094 0.46437 0.0
C258 C 0.88485 0.78806 0.46019 0.0
C259 C 0.90255 0.75343 0.48087 0.0
C260 C 0.84813 0.73608 0.48267 0.0
C261 C 0.86687 0.70159 0.50382 0.0
C262 C 0.93755 0.68469 0.52242 0.0
C263 C 0.9909 0.70159 0.52044 0.0
C264 C 0.97388 0.73562 0.50002 0.0
H265 H 0.72138 0.70977 0.41111 0.0
C266 C 0.69529 0.71627 0.44101 0.0
H267 H 0.69711 0.74225 0.50215 0.0
H268 H 0.83703 0.85148 0.41278 0.0
H269 H 0.71531 0.8788 0.37731 0.0
H270 H 0.61972 0.84958 0.38193 0.0
H271 H 0.64566 0.79233 0.42107 0.0
C272 C 0.71754 0.73793 0.47065 0.0
C273 C 0.77645 0.75338 0.4636 0.0
C274 C 0.76013 0.78674 0.44051 0.0
C275 C 0.81479 0.80394 0.43848 0.0
C276 C 0.79725 0.8374 0.41549 0.0
C277 C 0.72766 0.85338 0.39506 0.0
C278 C 0.67388 0.83686 0.39755 0.0
C279 C 0.68953 0.80398 0.42007 0.0
H280 H 0.50749 0.93307 0.89751 0.0
C281 C 0.44828 0.94185 0.89119 0.0
H282 H 0.35885 0.95917 0.84651 0.0
H283 H 0.48825 0.07998 0.81808 0.0
H284 H 0.35593 0.11169 0.80562 0.0
H285 H 0.27038 0.07512 0.79744 0.0
H286 H 0.31619 1.00687 0.80231 0.0
C287 C 0.41828 0.94958 0.85094 0.0
C288 C 0.45865 0.96402 0.82172 0.0
C289 C 0.4312 1.00284 0.81367 0.0
C290 C 0.48035 1.02375 0.81739 0.0
C291 C 0.45216 0.06319 0.81499 0.0
C292 C 0.37691 0.08145 0.80778 0.0
C293 C 0.32869 0.06085 0.80322 0.0
C294 C 0.35529 1.0219 0.80635 0.0
H295 H 0.67183 1.02753 0.81353 0.0
C296 C 0.65628 0.03214 0.8462 0.0
H297 H 0.58231 1.02669 0.88862 0.0
H298 H 0.52401 0.88911 0.81495 0.0
H299 H 0.65647 0.85612 0.81547 0.0
H300 H 0.74353 0.89179 0.82056 0.0
H301 H 0.69957 0.9601 0.8247 0.0
C302 C 0.59745 1.02392 0.85598 0.0
C303 C 0.55608 1.00511 0.82617 0.0
C304 C 0.58356 0.96553 0.82125 0.0
C305 C 0.53394 0.94488 0.81846 0.0
C306 C 0.56103 0.90538 0.81672 0.0
C307 C 0.63617 0.88648 0.8171 0.0
C308 C 0.68522 0.90659 0.82002 0.0
C309 C 0.65949 0.94573 0.82249 0.0
H310 H 0.28681 0.07869 0.50734 0.0
C311 C 0.29751 0.04878 0.50962 0.0
H312 H 0.38783 0.99798 0.51176 0.0
H313 H 0.7147 0.98313 0.46863 0.0
H314 H 0.68624 0.93082 0.43322 0.0
H315 H 0.56275 0.92606 0.43049 0.0
H316 H 0.46454 0.9733 0.46289 0.0
C317 C 0.37917 1.02771 0.51003 0.0
C318 C 0.46402 0.0351 0.50833 0.0
C319 C 0.52902 1.00816 0.48923 0.0
C320 C 0.60639 1.01104 0.49026 0.0
C321 C 0.65953 0.98247 0.46939 0.0
C322 C 0.64367 0.9523 0.44874 0.0
C323 C 0.57385 0.94962 0.44732 0.0
C324 C 0.51772 0.97694 0.46673 0.0
H325 H 0.80827 0.9977 0.51156 0.0
C326 C 0.7975 1.02758 0.50893 0.0
H327 H 0.70701 0.07837 0.50658 0.0
H328 H 0.381 0.09261 0.55128 0.0
H329 H 0.41051 0.14414 0.58831 0.0
H330 H 0.53377 0.14902 0.59036 0.0
H331 H 0.63092 0.10271 0.55616 0.0
C332 C 0.71581 0.04864 0.50849 0.0
C333 C 0.63101 0.04123 0.51036 0.0
C334 C 0.56615 0.06806 0.52967 0.0
C335 C 0.48881 0.06515 0.52875 0.0
C336 C 0.43612 0.09332 0.55043 0.0
C337 C 0.45259 0.12296 0.57202 0.0
C338 C 0.5223 0.12575 0.57308 0.0
C339 C 0.57779 0.099 0.55261 0.0
H340 H 1.01418 0.48914 0.85881 0.0
C341 C 1.01357 0.49855 0.89202 0.0
H342 H 0.12276 0.49804 0.89488 0.0
H343 H 0.97081 0.6219 0.04661 0.0
H344 H 0.91457 0.66273 0.98705 0.0
H345 H 0.93272 0.63941 0.91279 0.0
H346 H 1.00685 0.57507 0.89765 0.0
C347 C 0.07343 0.50479 0.91169 0.0
C348 C 0.07401 0.52084 0.95609 0.0
C349 C 1.03236 0.55879 0.96446 0.0
C350 C 1.02308 0.57243 0.00725 0.0
C351 C 0.97999 0.61021 0.01467 0.0
C352 C 0.94744 0.63392 0.9808 0.0
C353 C 0.95757 0.62079 0.93899 0.0
C354 C 0.99982 0.58376 0.93074 0.0
H355 H 0.11256 0.57899 0.14092 0.0
C356 C 0.11547 0.56973 0.10769 0.0
H357 H 1.00535 0.57173 0.10161 0.0
H358 H 0.1622 0.44775 0.95094 0.0
H359 H 0.21808 0.40675 0.01044 0.0
H360 H 0.19873 0.42976 0.08471 0.0
H361 H 0.12407 0.49396 0.09992 0.0
C362 C 1.0562 0.5643 0.08617 0.0
C363 C 1.0578 0.54851 0.04158 0.0
C364 C 0.09961 0.51056 0.03318 0.0
C365 C 0.10918 0.497 -0.00961 0.0
C366 C 0.15263 0.4593 0.9829 0.0
C367 C 0.18497 0.43551 0.01673 0.0
C368 C 0.17418 0.44848 0.05854 0.0
C369 C 0.13167 0.48545 0.06685 0.0
H370 H 0.3312 0.49067 0.50274 0.0
C371 C 0.32075 0.5207 0.50321 0.0
H372 H 0.2312 0.5716 0.50378 0.0
H373 H 0.89188 0.58421 0.46515 0.0
H374 H 0.90928 0.63495 0.42881 0.0
H375 H 1.03155 0.6398 0.42509 0.0
H376 H 0.13936 0.59422 0.45688 0.0
C377 C 0.23923 0.54184 0.50333 0.0
C378 C 0.15404 0.53448 0.5031 0.0
C379 C 0.08329 0.56045 0.48438 0.0
C380 C 1.00644 0.55757 0.48635 0.0
C381 C 0.94705 0.58502 0.46548 0.0
C382 C 0.95649 0.6142 0.44422 0.0
C383 C 1.02565 0.61697 0.44221 0.0
C384 C 0.08757 0.59064 0.46136 0.0
H385 H 0.8102 0.57197 0.50516 0.0
C386 C 0.82119 0.54198 0.50628 0.0
H387 H 0.91117 0.4913 0.50831 0.0
H388 H 0.25028 0.47905 0.54578 0.0
H389 H 0.2325 0.42943 0.58409 0.0
H390 H 0.11008 0.42499 0.58858 0.0
H391 H 1.00258 0.46968 0.55536 0.0
C392 C 0.90293 0.52103 0.50741 0.0
C393 C 0.98811 0.52842 0.50743 0.0
C394 C 1.05881 0.50269 0.52657 0.0
C395 C 0.13568 0.50549 0.52442 0.0
C396 C 0.19502 0.47839 0.54579 0.0
C397 C 0.18539 0.44985 0.56817 0.0
C398 C 0.11615 0.4473 0.5706 0.0
C399 C 1.05438 0.4731 0.55058 0.0
H400 H 0.98531 0.0606 0.37237 0.0
C401 C 1.03574 0.03816 0.38116 0.0
H402 H 0.13174 0.99865 0.36027 0.0
H403 H 0.93306 0.04429 0.17305 0.0
H404 H 0.83952 1.02548 0.2023 0.0
H405 H 0.85218 1.00756 0.27753 0.0
H406 H 0.95744 1.00933 0.3244 0.0
C407 C 0.08102 1.02062 0.35061 0.0
C408 C 0.07064 0.03183 0.30431 0.0
C409 C 1.01036 1.029 0.27644 0.0
C410 C 1.00512 0.03726 0.23199 0.0
C411 C 0.94178 0.03658 0.20618 0.0
C412 C 0.88732 1.0261 0.22267 0.0
C413 C 0.8943 1.01616 0.2651 0.0
C414 C 0.95491 1.01752 0.29177 0.0
H415 H 1.0499 1.00512 0.14032 0.0
C416 C 1.05558 0.03208 0.13448 0.0
H417 H 0.06497 0.08255 0.16134 0.0
H418 H 0.19127 0.04257 0.34775 0.0
H419 H 0.28814 0.05791 0.31782 0.0
H420 H 0.28434 0.06697 0.24055 0.0
H421 H 0.18333 0.06122 0.19277 0.0
C422 C 1.05803 0.056 0.16786 0.0
C423 C 1.06218 0.04632 0.21443 0.0
C424 C 0.12282 0.04866 0.24229 0.0
C425 C 0.12639 0.04207 0.28694 0.0
C426 C 0.1866 0.04608 0.3136 0.0
C427 C 0.24256 0.0551 0.29688 0.0
C428 C 0.2403 0.06031 0.25341 0.0
C429 C 0.18149 0.05714 0.22634 0.0
H430 H 0.11164 0.05779 0.87781 0.0
C431 C 0.09164 0.03438 0.88065 0.0
H432 H 1.06266 0.99042 0.84818 0.0
H433 H 1.01497 0.10174 0.68427 0.0
H434 H 0.9234 0.14775 0.72378 0.0
H435 H 0.90571 0.13656 0.79785 0.0
H436 H 0.98094 0.07987 0.83333 0.0
C437 C 0.08048 1.01454 0.84505 0.0
C438 C 0.09306 1.02309 0.80054 0.0
C439 C 1.04606 0.05558 0.77926 0.0
C440 C 1.053 0.06093 0.73531 0.0
C441 C 1.00903 0.09505 0.71642 0.0
C442 C 0.95676 0.12195 0.73893 0.0
C443 C 0.94704 0.11573 0.7807 0.0
C444 C 0.99094 0.08303 0.80077 0.0
H445 H 0.9943 0.04037 0.65029 0.0
C446 C 1.04428 0.03953 0.63659 0.0
H447 H 0.15507 0.03546 0.65067 0.0
H448 H 0.19843 0.96062 0.83201 0.0
H449 H 0.29141 0.91498 0.79271 0.0
H450 H 0.29874 0.92228 0.71603 0.0
H451 H 0.21362 0.97534 0.67805 0.0
C452 C 0.10471 0.03579 0.66347 0.0
C453 C 0.10362 0.03266 0.71134 0.0
C454 C 0.15314 1.00122 0.73328 0.0
C455 C 0.14807 0.9966 0.77765 0.0
C456 C 0.19894 0.9651 0.79838 0.0
C457 C 0.25274 0.93878 0.77624 0.0
C458 C 0.25697 0.94294 0.73306 0.0
C459 C 0.20777 0.97361 0.71165 0.0
H460 H 0.64731 0.50475 0.36271 0.0
C461 C 0.59613 0.51986 0.37659 0.0
H462 H 0.48796 0.55586 0.36277 0.0
H463 H 0.55907 0.6137 0.19006 0.0
H464 H 0.53968 0.66904 0.23634 0.0
H465 H 0.5233 0.66634 0.31274 0.0
H466 H 0.52579 0.6084 0.3435 0.0
C467 C 0.53898 0.53917 0.34978 0.0
C468 C 0.54633 0.5408 0.3022 0.0
C469 C 0.5442 0.57487 0.28411 0.0
C470 C 0.55489 0.57628 0.2398 0.0
C471 C 0.55263 0.61085 0.22337 0.0
C472 C 0.5412 0.64287 0.24954 0.0
C473 C 0.53182 0.64138 0.29256 0.0
C474 C 0.53326 0.6079 0.3098 0.0
H475 H 0.50501 0.53636 0.12992 0.0
C476 C 0.55804 0.54041 0.13067 0.0
H477 H 0.64644 0.54924 0.16867 0.0
H478 H 0.54382 0.47221 0.32343 0.0
H479 H 0.56459 0.41669 0.27741 0.0
H480 H 0.58846 0.41838 0.20207 0.0
H481 H 0.59067 0.47567 0.17191 0.0
C482 C 0.59464 0.54398 0.16889 0.0
C483 C 0.56801 0.54365 0.21278 0.0
C484 C 0.56753 0.50985 0.23051 0.0
C485 C 0.55593 0.50855 0.27479 0.0
C486 C 0.55433 0.47453 0.29071 0.0
C487 C 0.56582 0.44249 0.26457 0.0
C488 C 0.57912 0.44346 0.2221 0.0
C489 C 0.58013 0.4766 0.20514 0.0
H490 H 0.49223 0.54352 0.64361 0.0
C491 C 0.54586 0.53837 0.63203 0.0
H492 H 0.65829 0.52653 0.65123 0.0
H493 H 0.5901 0.58468 0.84361 0.0
H494 H 0.62881 0.6338 0.81794 0.0
H495 H 0.65389 0.63442 0.74267 0.0
H496 H 0.63955 0.58598 0.69227 0.0
C497 C 0.6045 0.52947 0.66121 0.0
C498 C 0.59599 0.52683 0.7085 0.0
C499 C 0.60706 0.5544 0.73853 0.0
C500 C 0.59404 0.55355 0.78269 0.0
C501 C 0.60132 0.58303 0.81048 0.0
C502 C 0.6231 0.61165 0.79605 0.0
C503 C 0.63714 0.61202 0.75363 0.0
C504 C 0.62887 0.58398 0.72505 0.0
H505 H 0.6408 0.52448 0.88112 0.0
C506 C 0.58431 0.52504 0.8802 0.0
H507 H 0.48887 0.52558 0.84231 0.0
H508 H 0.57873 0.46676 0.66227 0.0
H509 H 0.54496 0.41595 0.68821 0.0
H510 H 0.52456 0.41368 0.76404 0.0
H511 H 0.5378 0.46217 0.81455 0.0
C512 C 0.54462 0.52598 0.84191 0.0
C513 C 0.5718 0.52435 0.79769 0.0
C514 C 0.56463 0.49569 0.76793 0.0
C515 C 0.57647 0.49695 0.72377 0.0
C516 C 0.56919 0.46761 0.69569 0.0
C517 C 0.55025 0.43811 0.71022 0.0
C518 C 0.53874 0.43685 0.75292 0.0
C519 C 0.54601 0.46507 0.78154 0.0
loop_
_geom_bond_atom_site_label_1
_geom_bond_atom_site_label_2
_geom_bond_distance
_geom_bond_site_symmetry_2
_ccdc_geom_bond_type
Ho0 C3 2.811 . S
Ho0 O20 2.322 1_565 S
Ho0 O22 2.378 . S
Ho0 O23 2.524 1_566 S
Ho0 O24 2.381 . S
Ho0 O25 2.677 1_655 S
Ho0 O27 2.346 1_655 S
Ho0 O31 2.290 1_566 S
Ho1 C12 2.812 . S
Ho1 O21 2.346 1_455 S
Ho1 O25 2.297 1_544 S
Ho1 O26 2.322 1_545 S
Ho1 O28 2.378 . S
Ho1 O29 2.524 1_544 S
Ho1 O30 2.381 . S
Ho1 O31 2.685 1_455 S
C2 O20 1.259 . S
C2 O21 1.268 1_556 S
C3 Ho0 2.811 . S
C3 C4 1.488 1_565 S
C3 O22 1.217 . S
C3 O23 1.287 1_566 S
C4 C3 1.488 1_545 S
C4 C5 1.348 1_556 S
C4 C9 1.413 . S
C5 C4 1.348 1_554 S
C5 C6 1.442 . S
C5 H32 0.930 . S
C6 C5 1.442 . S
C6 C7 1.381 1_554 S
C6 H33 0.931 . S
C7 C6 1.381 1_556 S
C7 C8 1.321 . S
C8 C7 1.321 . S
C8 C9 1.403 . S
C8 H34 0.934 . S
C9 C4 1.413 . S
C9 C8 1.403 . S
C9 H35 0.930 . S
C10 O24 1.275 . S
C10 O25 1.260 1_655 S
C11 O26 1.259 . S
C11 O27 1.268 1_554 S
C12 Ho1 2.812 . S
C12 C13 1.487 1_545 S
C12 O28 1.222 . S
C12 O29 1.283 1_544 S
C13 C12 1.487 1_565 S
C13 C14 1.348 1_554 S
C13 C18 1.413 . S
C14 C13 1.348 1_556 S
C14 C15 1.442 . S
C14 H36 0.930 . S
C15 C14 1.442 . S
C15 C16 1.381 1_556 S
C15 H37 0.931 . S
C16 C15 1.381 1_554 S
C16 C17 1.321 . S
C17 C16 1.321 . S
C17 C18 1.403 . S
C17 H38 0.934 . S
C18 C13 1.413 . S
C18 C17 1.403 . S
C18 H39 0.930 . S
C19 O30 1.275 . S
C19 O31 1.263 1_455 S
O20 Ho0 2.322 1_545 S
O20 C2 1.259 . S
O21 Ho1 2.346 1_655 S
O21 C2 1.268 1_554 S
O22 Ho0 2.378 . S
O22 C3 1.217 . S
O23 Ho0 2.524 1_544 S
O23 C3 1.287 1_544 S
O24 Ho0 2.381 . S
O24 C10 1.275 . S
O25 Ho0 2.677 1_455 S
O25 Ho1 2.297 1_566 S
O25 C10 1.260 1_455 S
O26 Ho1 2.322 1_565 S
O26 C11 1.259 . S
O27 Ho0 2.346 1_455 S
O27 C11 1.268 1_556 S
O28 Ho1 2.378 . S
O28 C12 1.222 . S
O29 Ho1 2.524 1_566 S
O29 C12 1.283 1_566 S
O30 Ho1 2.381 . S
O30 C19 1.275 . S
O31 Ho0 2.290 1_544 S
O31 Ho1 2.685 1_655 S
O31 C19 1.263 1_655 S
H32 C5 0.930 . S
H33 C6 0.931 . S
H34 C8 0.934 . S
H35 C9 0.930 . S
H36 C14 0.930 . S
H37 C15 0.931 . S
H38 C17 0.934 . S
H39 C18 0.930 . S
Ho40 C43 2.811 1_455 S
Ho40 O60 2.322 1_455 S
Ho40 O62 2.378 1_455 S
Ho40 O63 2.524 1_455 S
Ho40 O64 2.381 . S
Ho40 O65 2.669 1_565 S
Ho40 O67 2.346 . S
Ho40 O71 2.305 1_455 S
Ho41 C52 2.811 1_655 S
Ho41 O61 2.346 . S
Ho41 O65 2.305 1_655 S
Ho41 O66 2.322 1_655 S
Ho41 O68 2.378 1_655 S
Ho41 O69 2.524 1_655 S
Ho41 O70 2.381 . S
Ho41 O71 2.669 1_545 S
C42 O60 1.259 1_545 S
C42 O61 1.268 . S
C43 Ho40 2.811 1_655 S
C43 C44 1.488 . S
C43 O62 1.215 . S
C43 O63 1.289 . S
C44 C43 1.488 . S
C44 C45 1.348 . S
C44 C49 1.413 . S
C45 C44 1.348 . S
C45 C46 1.442 . S
C45 H72 0.930 . S
C46 C45 1.442 . S
C46 C47 1.381 . S
C46 H73 0.931 . S
C47 C46 1.381 . S
C47 C48 1.321 . S
C48 C47 1.321 . S
C48 C49 1.403 . S
C48 H74 0.934 . S
C49 C44 1.413 . S
C49 C48 1.403 . S
C49 H75 0.930 . S
C50 O64 1.275 . S
C50 O65 1.256 1_565 S
C51 O66 1.259 1_565 S
C51 O67 1.268 . S
C52 Ho41 2.811 1_455 S
C52 C53 1.488 . S
C52 O68 1.215 . S
C52 O69 1.289 . S
C53 C52 1.488 . S
C53 C54 1.348 . S
C53 C58 1.413 . S
C54 C53 1.348 . S
C54 C55 1.442 . S
C54 H76 0.930 . S
C55 C54 1.442 . S
C55 C56 1.381 . S
C55 H77 0.931 . S
C56 C55 1.381 . S
C56 C57 1.321 . S
C57 C56 1.321 . S
C57 C58 1.403 . S
C57 H78 0.934 . S
C58 C53 1.413 . S
C58 C57 1.403 . S
C58 H79 0.930 . S
C59 O70 1.271 . S
C59 O71 1.258 1_545 S
O60 Ho40 2.322 1_655 S
O60 C42 1.259 1_565 S
O61 Ho41 2.346 . S
O61 C42 1.268 . S
O62 Ho40 2.378 1_655 S
O62 C43 1.215 . S
O63 Ho40 2.524 1_655 S
O63 C43 1.289 . S
O64 Ho40 2.381 . S
O64 C50 1.275 . S
O65 Ho40 2.669 1_545 S
O65 Ho41 2.305 1_455 S
O65 C50 1.256 1_545 S
O66 Ho41 2.322 1_455 S
O66 C51 1.259 1_545 S
O67 Ho40 2.346 . S
O67 C51 1.268 . S
O68 Ho41 2.378 1_455 S
O68 C52 1.215 . S
O69 Ho41 2.524 1_455 S
O69 C52 1.289 . S
O70 Ho41 2.381 . S
O70 C59 1.271 . S
O71 Ho40 2.305 1_655 S
O71 Ho41 2.669 1_565 S
O71 C59 1.258 1_565 S
H72 C45 0.930 . S
H73 C46 0.931 . S
H74 C48 0.934 . S
H75 C49 0.930 . S
H76 C54 0.930 . S
H77 C55 0.931 . S
H78 C57 0.934 . S
H79 C58 0.930 . S
Ho80 C83 2.811 . S
Ho80 O100 2.322 . S
Ho80 O102 2.378 . S
Ho80 O103 2.524 1_556 S
Ho80 O104 2.381 . S
Ho80 O105 2.669 . S
Ho80 O107 2.346 . S
Ho80 O111 2.305 1_556 S
Ho81 C92 2.811 . S
Ho81 O101 2.346 . S
Ho81 O105 2.305 1_554 S
Ho81 O106 2.322 . S
Ho81 O108 2.378 . S
Ho81 O109 2.524 1_554 S
Ho81 O110 2.381 . S
Ho81 O111 2.669 . S
C82 O100 1.259 . S
C82 O101 1.268 1_556 S
C83 Ho80 2.811 . S
C83 C84 1.488 . S
C83 O102 1.215 . S
C83 O103 1.289 1_556 S
C84 C83 1.488 . S
C84 C85 1.348 1_556 S
C84 C89 1.413 . S
C85 C84 1.348 1_554 S
C85 C86 1.442 . S
C85 H112 0.930 . S
C86 C85 1.442 . S
C86 C87 1.381 1_554 S
C86 H113 0.931 . S
C87 C86 1.381 1_556 S
C87 C88 1.321 . S
C88 C87 1.321 . S
C88 C89 1.403 . S
C88 H114 0.934 . S
C89 C84 1.413 . S
C89 C88 1.403 . S
C89 H115 0.930 . S
C90 O104 1.275 . S
C90 O105 1.256 . S
C91 O106 1.259 . S
C91 O107 1.268 1_554 S
C92 Ho81 2.811 . S
C92 C93 1.488 . S
C92 O108 1.215 . S
C92 O109 1.289 1_554 S
C93 C92 1.488 . S
C93 C94 1.348 1_554 S
C93 C98 1.413 . S
C94 C93 1.348 1_556 S
C94 C95 1.442 . S
C94 H116 0.930 . S
C95 C94 1.442 . S
C95 C96 1.381 1_556 S
C95 H117 0.931 . S
C96 C95 1.381 1_554 S
C96 C97 1.321 . S
C97 C96 1.321 . S
C97 C98 1.403 . S
C97 H118 0.934 . S
C98 C93 1.413 . S
C98 C97 1.403 . S
C98 H119 0.930 . S
C99 O110 1.275 . S
C99 O111 1.256 . S
O100 Ho80 2.322 . S
O100 C82 1.259 . S
O101 Ho81 2.346 . S
O101 C82 1.268 1_554 S
O102 Ho80 2.378 . S
O102 C83 1.215 . S
O103 Ho80 2.524 1_554 S
O103 C83 1.289 1_554 S
O104 Ho80 2.381 . S
O104 C90 1.275 . S
O105 Ho80 2.669 . S
O105 Ho81 2.305 1_556 S
O105 C90 1.256 . S
O106 Ho81 2.322 . S
O106 C91 1.259 . S
O107 Ho80 2.346 . S
O107 C91 1.268 1_556 S
O108 Ho81 2.378 . S
O108 C92 1.215 . S
O109 Ho81 2.524 1_556 S
O109 C92 1.289 1_556 S
O110 Ho81 2.381 . S
O110 C99 1.275 . S
O111 Ho80 2.305 1_554 S
O111 Ho81 2.669 . S
O111 C99 1.256 . S
H112 C85 0.930 . S
H113 C86 0.931 . S
H114 C88 0.934 . S
H115 C89 0.930 . S
H116 C94 0.930 . S
H117 C95 0.931 . S
H118 C97 0.934 . S
H119 C98 0.930 . S
Ho120 C123 2.811 . S
Ho120 O140 2.322 . S
Ho120 O142 2.378 . S
Ho120 O143 2.524 . S
Ho120 O144 2.381 . S
Ho120 O145 2.669 . S
Ho120 O147 2.346 . S
Ho120 O151 2.305 . S
Ho121 C132 2.811 . S
Ho121 O141 2.346 . S
Ho121 O145 2.305 . S
Ho121 O146 2.322 . S
Ho121 O148 2.378 . S
Ho121 O149 2.524 . S
Ho121 O150 2.381 . S
Ho121 O151 2.669 . S
C122 O140 1.259 . S
C122 O141 1.268 . S
C123 Ho120 2.811 . S
C123 C124 1.488 . S
C123 O142 1.215 . S
C123 O143 1.289 . S
C124 C123 1.488 . S
C124 C125 1.348 . S
C124 C129 1.413 . S
C125 C124 1.348 . S
C125 C126 1.442 . S
C125 H152 0.930 . S
C126 C125 1.442 . S
C126 C127 1.381 . S
C126 H153 0.931 . S
C127 C126 1.381 . S
C127 C128 1.321 . S
C128 C127 1.321 . S
C128 C129 1.403 . S
C128 H154 0.934 . S
C129 C124 1.413 . S
C129 C128 1.403 . S
C129 H155 0.930 . S
C130 O144 1.275 . S
C130 O145 1.256 . S
C131 O146 1.259 . S
C131 O147 1.268 . S
C132 Ho121 2.811 . S
C132 C133 1.488 . S
C132 O148 1.215 . S
C132 O149 1.289 . S
C133 C132 1.488 . S
C133 C134 1.348 . S
C133 C138 1.413 . S
C134 C133 1.348 . S
C134 C135 1.442 . S
C134 H156 0.930 . S
C135 C134 1.442 . S
C135 C136 1.381 . S
C135 H157 0.931 . S
C136 C135 1.381 . S
C136 C137 1.321 . S
C137 C136 1.321 . S
C137 C138 1.403 . S
C137 H158 0.934 . S
C138 C133 1.413 . S
C138 C137 1.403 . S
C138 H159 0.930 . S
C139 O150 1.275 . S
C139 O151 1.256 . S
O140 Ho120 2.322 . S
O140 C122 1.259 . S
O141 Ho121 2.346 . S
O141 C122 1.268 . S
O142 Ho120 2.378 . S
O142 C123 1.215 . S
O143 Ho120 2.524 . S
O143 C123 1.289 . S
O144 Ho120 2.381 . S
O144 C130 1.275 . S
O145 Ho120 2.669 . S
O145 Ho121 2.305 . S
O145 C130 1.256 . S
O146 Ho121 2.322 . S
O146 C131 1.259 . S
O147 Ho120 2.346 . S
O147 C131 1.268 . S
O148 Ho121 2.378 . S
O148 C132 1.215 . S
O149 Ho121 2.524 . S
O149 C132 1.289 . S
O150 Ho121 2.381 . S
O150 C139 1.275 . S
O151 Ho120 2.305 . S
O151 Ho121 2.669 . S
O151 C139 1.256 . S
H152 C125 0.930 . S
H153 C126 0.931 . S
H154 C128 0.934 . S
H155 C129 0.930 . S
H156 C134 0.930 . S
H157 C135 0.931 . S
H158 C137 0.934 . S
H159 C138 0.930 . S
H160 C161 0.963 . S
C161 H160 0.963 . S
C161 C167 1.257 1_556 S
H162 C167 0.950 . S
H163 C171 0.949 . S
H164 C172 0.950 . S
H165 C173 0.951 . S
H166 C174 0.951 . S
C167 C161 1.257 1_554 S
C167 H162 0.950 . S
C167 C168 1.478 . S
C168 C167 1.478 . S
C168 C169 1.397 . S
C168 C185 1.394 1_554 S
C169 C168 1.397 . S
C169 C170 1.438 . S
C169 C174 1.429 . S
C170 C169 1.438 . S
C170 C171 1.428 . S
C170 C183 1.394 1_554 S
C171 H163 0.949 . S
C171 C170 1.428 . S
C171 C172 1.345 . S
C172 H164 0.950 . S
C172 C171 1.345 . S
C172 C173 1.424 . S
C173 H165 0.951 . S
C173 C172 1.424 . S
C173 C174 1.347 . S
C174 H166 0.951 . S
C174 C169 1.429 . S
C174 C173 1.347 . S
H175 C176 0.951 . S
C176 H175 0.951 . S
C176 C182 1.265 1_554 S
H177 C182 0.950 . S
H178 C186 0.949 . S
H179 C187 0.950 . S
H180 C188 0.951 . S
H181 C189 0.951 . S
C182 C176 1.265 1_556 S
C182 H177 0.950 . S
C182 C183 1.478 . S
C183 C170 1.394 1_556 S
C183 C182 1.478 . S
C183 C184 1.397 . S
C184 C183 1.397 . S
C184 C185 1.438 . S
C184 C189 1.429 . S
C185 C168 1.394 1_556 S
C185 C184 1.438 . S
C185 C186 1.428 . S
C186 H178 0.949 . S
C186 C185 1.428 . S
C186 C187 1.345 . S
C187 H179 0.950 . S
C187 C186 1.345 . S
C187 C188 1.424 . S
C188 H180 0.951 . S
C188 C187 1.424 . S
C188 C189 1.347 . S
C189 H181 0.951 . S
C189 C184 1.429 . S
C189 C188 1.347 . S
H190 C191 0.951 . S
C191 H190 0.951 . S
C191 C197 1.266 1_556 S
H192 C197 0.949 . S
H193 C201 0.949 . S
H194 C202 0.950 . S
H195 C203 0.951 . S
H196 C204 0.951 . S
C197 C191 1.266 1_554 S
C197 H192 0.949 . S
C197 C198 1.478 . S
C198 C197 1.478 . S
C198 C199 1.401 . S
C198 C215 1.390 1_554 S
C199 C198 1.401 . S
C199 C200 1.438 . S
C199 C204 1.429 . S
C200 C199 1.438 . S
C200 C201 1.428 . S
C200 C213 1.394 1_554 S
C201 H193 0.949 . S
C201 C200 1.428 . S
C201 C202 1.345 . S
C202 H194 0.950 . S
C202 C201 1.345 . S
C202 C203 1.424 . S
C203 H195 0.951 . S
C203 C202 1.424 . S
C203 C204 1.347 . S
C204 H196 0.951 . S
C204 C199 1.429 . S
C204 C203 1.347 . S
H205 C206 0.951 . S
C206 H205 0.951 . S
C206 C212 1.266 1_554 S
H207 C212 0.949 . S
H208 C216 0.949 . S
H209 C217 0.950 . S
H210 C218 0.951 . S
H211 C219 0.951 . S
C212 C206 1.266 1_556 S
C212 H207 0.949 . S
C212 C213 1.478 . S
C213 C200 1.394 1_556 S
C213 C212 1.478 . S
C213 C214 1.396 . S
C214 C213 1.396 . S
C214 C215 1.438 . S
C214 C219 1.429 . S
C215 C198 1.390 1_556 S
C215 C214 1.438 . S
C215 C216 1.428 . S
C216 H208 0.949 . S
C216 C215 1.428 . S
C216 C217 1.345 . S
C217 H209 0.950 . S
C217 C216 1.345 . S
C217 C218 1.424 . S
C218 H210 0.951 . S
C218 C217 1.424 . S
C218 C219 1.347 . S
C219 H211 0.951 . S
C219 C214 1.429 . S
C219 C218 1.347 . S
H220 C221 0.951 . S
C221 H220 0.951 . S
C221 C227 1.265 . S
H222 C227 0.950 . S
H223 C231 0.949 . S
H224 C232 0.950 . S
H225 C233 0.951 . S
H226 C234 0.951 . S
C227 C221 1.265 . S
C227 H222 0.950 . S
C227 C228 1.478 . S
C228 C227 1.478 . S
C228 C229 1.397 . S
C228 C245 1.394 . S
C229 C228 1.397 . S
C229 C230 1.438 . S
C229 C234 1.429 . S
C230 C229 1.438 . S
C230 C231 1.428 . S
C230 C243 1.394 . S
C231 H223 0.949 . S
C231 C230 1.428 . S
C231 C232 1.345 . S
C232 H224 0.950 . S
C232 C231 1.345 . S
C232 C233 1.424 . S
C233 H225 0.951 . S
C233 C232 1.424 . S
C233 C234 1.347 . S
C234 H226 0.951 . S
C234 C229 1.429 . S
C234 C233 1.347 . S
H235 C236 0.951 . S
C236 H235 0.951 . S
C236 C242 1.265 . S
H237 C242 0.950 . S
H238 C246 0.949 . S
H239 C247 0.950 . S
H240 C248 0.951 . S
H241 C249 0.951 . S
C242 C236 1.265 . S
C242 H237 0.950 . S
C242 C243 1.478 . S
C243 C230 1.394 . S
C243 C242 1.478 . S
C243 C244 1.397 . S
C244 C243 1.397 . S
C244 C245 1.438 . S
C244 C249 1.429 . S
C245 C228 1.394 . S
C245 C244 1.438 . S
C245 C246 1.428 . S
C246 H238 0.949 . S
C246 C245 1.428 . S
C246 C247 1.345 . S
C247 H239 0.950 . S
C247 C246 1.345 . S
C247 C248 1.424 . S
C248 H240 0.951 . S
C248 C247 1.424 . S
C248 C249 1.347 . S
C249 H241 0.951 . S
C249 C244 1.429 . S
C249 C248 1.347 . S
H250 C251 0.951 . S
C251 H250 0.951 . S
C251 C257 1.265 . S
H252 C257 0.950 . S
H253 C261 0.949 . S
H254 C262 0.950 . S
H255 C263 0.951 . S
H256 C264 0.951 . S
C257 C251 1.265 . S
C257 H252 0.950 . S
C257 C258 1.478 . S
C258 C257 1.478 . S
C258 C259 1.397 . S
C258 C275 1.394 . S
C259 C258 1.397 . S
C259 C260 1.438 . S
C259 C264 1.429 . S
C260 C259 1.438 . S
C260 C261 1.428 . S
C260 C273 1.394 . S
C261 H253 0.949 . S
C261 C260 1.428 . S
C261 C262 1.345 . S
C262 H254 0.950 . S
C262 C261 1.345 . S
C262 C263 1.424 . S
C263 H255 0.951 . S
C263 C262 1.424 . S
C263 C264 1.347 . S
C264 H256 0.951 . S
C264 C259 1.429 . S
C264 C263 1.347 . S
H265 C266 0.951 . S
C266 H265 0.951 . S
C266 C272 1.265 . S
H267 C272 0.950 . S
H268 C276 0.949 . S
H269 C277 0.950 . S
H270 C278 0.951 . S
H271 C279 0.951 . S
C272 C266 1.265 . S
C272 H267 0.950 . S
C272 C273 1.478 . S
C273 C260 1.394 . S
C273 C272 1.478 . S
C273 C274 1.397 . S
C274 C273 1.397 . S
C274 C275 1.438 . S
C274 C279 1.429 . S
C275 C258 1.394 . S
C275 C274 1.438 . S
C275 C276 1.428 . S
C276 H268 0.949 . S
C276 C275 1.428 . S
C276 C277 1.345 . S
C277 H269 0.950 . S
C277 C276 1.345 . S
C277 C278 1.424 . S
C278 H270 0.951 . S
C278 C277 1.424 . S
C278 C279 1.347 . S
C279 H271 0.951 . S
C279 C274 1.429 . S
C279 C278 1.347 . S
H280 C281 0.951 . S
C281 H280 0.951 . S
C281 C287 1.265 . S
H282 C287 0.949 . S
H283 C291 0.949 . S
H284 C292 0.950 . S
H285 C293 0.951 . S
H286 C294 0.951 . S
C287 C281 1.265 . S
C287 H282 0.949 . S
C287 C288 1.480 . S
C288 C287 1.480 . S
C288 C289 1.409 1_565 S
C288 C305 1.380 1_554 S
C289 C288 1.409 1_545 S
C289 C290 1.438 . S
C289 C294 1.429 . S
C290 C289 1.438 . S
C290 C291 1.428 . S
C290 C303 1.385 1_554 S
C291 H283 0.949 . S
C291 C290 1.428 . S
C291 C292 1.345 . S
C292 H284 0.950 . S
C292 C291 1.345 . S
C292 C293 1.424 . S
C293 H285 0.951 . S
C293 C292 1.424 . S
C293 C294 1.347 . S
C294 H286 0.951 . S
C294 C289 1.429 . S
C294 C293 1.347 . S
H295 C296 0.951 . S
C296 H295 0.951 . S
C296 C302 1.265 . S
H297 C302 0.949 . S
H298 C306 0.949 . S
H299 C307 0.950 . S
H300 C308 0.951 . S
H301 C309 0.951 . S
C302 C296 1.265 . S
C302 H297 0.949 . S
C302 C303 1.480 . S
C303 C290 1.385 1_556 S
C303 C302 1.480 . S
C303 C304 1.404 1_545 S
C304 C303 1.404 1_565 S
C304 C305 1.438 . S
C304 C309 1.429 . S
C305 C288 1.380 1_556 S
C305 C304 1.438 . S
C305 C306 1.428 . S
C306 H298 0.949 . S
C306 C305 1.428 . S
C306 C307 1.345 . S
C307 H299 0.950 . S
C307 C306 1.345 . S
C307 C308 1.424 . S
C308 H300 0.951 . S
C308 C307 1.424 . S
C308 C309 1.347 . S
C309 H301 0.951 . S
C309 C304 1.429 . S
C309 C308 1.347 . S
H310 C311 0.951 . S
C311 H310 0.951 . S
C311 C317 1.265 1_545 S
H312 C317 0.950 . S
H313 C321 0.949 . S
H314 C322 0.950 . S
H315 C323 0.951 . S
H316 C324 0.951 . S
C317 C311 1.265 1_565 S
C317 H312 0.950 . S
C317 C318 1.478 . S
C318 C317 1.478 . S
C318 C319 1.397 . S
C318 C335 1.394 1_565 S
C319 C318 1.397 . S
C319 C320 1.438 . S
C319 C324 1.429 . S
C320 C319 1.438 . S
C320 C321 1.428 . S
C320 C333 1.394 1_565 S
C321 H313 0.949 . S
C321 C320 1.428 . S
C321 C322 1.345 . S
C322 H314 0.950 . S
C322 C321 1.345 . S
C322 C323 1.424 . S
C323 H315 0.951 . S
C323 C322 1.424 . S
C323 C324 1.347 . S
C324 H316 0.951 . S
C324 C319 1.429 . S
C324 C323 1.347 . S
H325 C326 0.967 . S
C326 H325 0.967 . S
C326 C332 1.260 1_565 S
H327 C332 0.950 . S
H328 C336 0.949 . S
H329 C337 0.950 . S
H330 C338 0.951 . S
H331 C339 0.951 . S
C332 C326 1.260 1_545 S
C332 H327 0.950 . S
C332 C333 1.478 . S
C333 C320 1.394 1_545 S
C333 C332 1.478 . S
C333 C334 1.397 . S
C334 C333 1.397 . S
C334 C335 1.438 . S
C334 C339 1.429 . S
C335 C318 1.394 1_545 S
C335 C334 1.438 . S
C335 C336 1.428 . S
C336 H328 0.949 . S
C336 C335 1.428 . S
C336 C337 1.345 . S
C337 H329 0.950 . S
C337 C336 1.345 . S
C337 C338 1.424 . S
C338 H330 0.951 . S
C338 C337 1.424 . S
C338 C339 1.347 . S
C339 H331 0.951 . S
C339 C334 1.429 . S
C339 C338 1.347 . S
H340 C341 0.951 . S
C341 H340 0.951 . S
C341 C347 1.265 1_554 S
H342 C347 0.950 . S
H343 C351 0.949 1_455 S
H344 C352 0.950 . S
H345 C353 0.951 . S
H346 C354 0.951 . S
C347 C341 1.265 1_556 S
C347 H342 0.950 . S
C347 C348 1.478 . S
C348 C347 1.478 . S
C348 C349 1.397 1_556 S
C348 C365 1.394 1_655 S
C349 C348 1.397 1_554 S
C349 C350 1.438 . S
C349 C354 1.429 . S
C350 C349 1.438 . S
C350 C351 1.428 . S
C350 C363 1.394 1_655 S
C351 H343 0.949 1_655 S
C351 C350 1.428 . S
C351 C352 1.345 . S
C352 H344 0.950 . S
C352 C351 1.345 . S
C352 C353 1.424 . S
C353 H345 0.951 . S
C353 C352 1.424 . S
C353 C354 1.347 . S
C354 H346 0.951 . S
C354 C349 1.429 . S
C354 C353 1.347 . S
H355 C356 0.951 . S
C356 H355 0.951 . S
C356 C362 1.265 1_556 S
H357 C362 0.950 . S
H358 C366 0.949 1_655 S
H359 C367 0.950 . S
H360 C368 0.951 . S
H361 C369 0.951 . S
C362 C356 1.265 1_554 S
C362 H357 0.950 . S
C362 C363 1.478 . S
C363 C350 1.394 1_455 S
C363 C362 1.478 . S
C363 C364 1.397 1_554 S
C364 C363 1.397 1_556 S
C364 C365 1.438 . S
C364 C369 1.429 . S
C365 C348 1.394 1_455 S
C365 C364 1.438 . S
C365 C366 1.428 . S
C366 H358 0.949 1_455 S
C366 C365 1.428 . S
C366 C367 1.345 . S
C367 H359 0.950 . S
C367 C366 1.345 . S
C367 C368 1.424 . S
C368 H360 0.951 . S
C368 C367 1.424 . S
C368 C369 1.347 . S
C369 H361 0.951 . S
C369 C364 1.429 . S
C369 C368 1.347 . S
H370 C371 0.951 . S
C371 H370 0.951 . S
C371 C377 1.265 . S
H372 C377 0.950 . S
H373 C381 0.949 . S
H374 C382 0.950 . S
H375 C383 0.943 1_455 S
H376 C384 0.951 . S
C377 C371 1.265 . S
C377 H372 0.950 . S
C377 C378 1.478 . S
C378 C377 1.478 . S
C378 C379 1.397 . S
C378 C395 1.394 . S
C379 C378 1.397 . S
C379 C380 1.438 1_455 S
C379 C384 1.429 . S
C380 C379 1.438 1_655 S
C380 C381 1.428 . S
C380 C393 1.394 . S
C381 H373 0.949 . S
C381 C380 1.428 . S
C381 C382 1.345 . S
C382 H374 0.950 . S
C382 C381 1.345 . S
C382 C383 1.424 . S
C383 H375 0.943 1_655 S
C383 C382 1.424 . S
C383 C384 1.347 1_655 S
C384 H376 0.951 . S
C384 C379 1.429 . S
C384 C383 1.347 1_455 S
H385 C386 0.951 . S
C386 H385 0.951 . S
C386 C392 1.265 . S
H387 C392 0.950 . S
H388 C396 0.949 . S
H389 C397 0.950 . S
H390 C398 0.945 1_655 S
H391 C399 0.951 . S
C392 C386 1.265 . S
C392 H387 0.950 . S
C392 C393 1.478 . S
C393 C380 1.394 . S
C393 C392 1.478 . S
C393 C394 1.397 . S
C394 C393 1.397 . S
C394 C395 1.438 1_655 S
C394 C399 1.429 . S
C395 C378 1.394 . S
C395 C394 1.438 1_455 S
C395 C396 1.428 . S
C396 H388 0.949 . S
C396 C395 1.428 . S
C396 C397 1.345 . S
C397 H389 0.950 . S
C397 C396 1.345 . S
C397 C398 1.424 . S
C398 H390 0.945 1_455 S
C398 C397 1.424 . S
C398 C399 1.347 1_455 S
C399 H391 0.951 . S
C399 C394 1.429 . S
C399 C398 1.347 1_655 S
H400 C401 0.951 . S
C401 H400 0.951 . S
C401 C407 1.265 1_645 S
H402 C407 0.950 . S
H403 C411 0.949 . S
H404 C412 0.950 . S
H405 C413 0.951 . S
H406 C414 0.951 . S
C407 C401 1.265 1_465 S
C407 H402 0.950 . S
C407 C408 1.480 . S
C408 C407 1.480 . S
C408 C409 1.417 . S
C408 C425 1.373 1_465 S
C409 C408 1.417 . S
C409 C410 1.438 . S
C409 C414 1.429 . S
C410 C409 1.438 . S
C410 C411 1.428 . S
C410 C423 1.394 1_465 S
C411 H403 0.949 . S
C411 C410 1.428 . S
C411 C412 1.345 . S
C412 H404 0.950 . S
C412 C411 1.345 . S
C412 C413 1.424 . S
C413 H405 0.951 . S
C413 C412 1.424 . S
C413 C414 1.347 . S
C414 H406 0.951 . S
C414 C409 1.429 . S
C414 C413 1.347 . S
H415 C416 0.950 1_565 S
C416 H415 0.950 1_545 S
C416 C422 1.265 1_455 S
H417 C422 0.950 . S
H418 C426 0.949 . S
H419 C427 0.950 . S
H420 C428 0.951 . S
H421 C429 0.951 . S
C422 C416 1.265 1_655 S
C422 H417 0.950 . S
C422 C423 1.478 . S
C423 C410 1.394 1_645 S
C423 C422 1.478 . S
C423 C424 1.397 . S
C424 C423 1.397 . S
C424 C425 1.438 . S
C424 C429 1.429 . S
C425 C408 1.373 1_645 S
C425 C424 1.438 . S
C425 C426 1.428 . S
C426 H418 0.949 . S
C426 C425 1.428 . S
C426 C427 1.345 . S
C427 H419 0.950 . S
C427 C426 1.345 . S
C427 C428 1.424 . S
C428 H420 0.951 . S
C428 C427 1.424 . S
C428 C429 1.347 . S
C429 H421 0.951 . S
C429 C424 1.429 . S
C429 C428 1.347 . S
H430 C431 0.951 . S
C431 H430 0.951 . S
C431 C437 1.265 1_465 S
H432 C437 0.950 . S
H433 C441 0.949 1_455 S
H434 C442 0.950 . S
H435 C443 0.951 . S
H436 C444 0.951 . S
C437 C431 1.265 1_645 S
C437 H432 0.950 . S
C437 C438 1.478 . S
C438 C437 1.478 . S
C438 C439 1.397 . S
C438 C455 1.394 1_645 S
C439 C438 1.397 . S
C439 C440 1.438 . S
C439 C444 1.429 . S
C440 C439 1.438 . S
C440 C441 1.428 . S
C440 C453 1.394 1_645 S
C441 H433 0.949 1_655 S
C441 C440 1.428 . S
C441 C442 1.345 . S
C442 H434 0.950 . S
C442 C441 1.345 . S
C442 C443 1.424 . S
C443 H435 0.951 . S
C443 C442 1.424 . S
C443 C444 1.347 . S
C444 H436 0.951 . S
C444 C439 1.429 . S
C444 C443 1.347 . S
H445 C446 0.951 . S
C446 H445 0.951 . S
C446 C452 1.265 1_645 S
H447 C452 0.950 . S
H448 C456 0.949 1_655 S
H449 C457 0.950 . S
H450 C458 0.951 . S
H451 C459 0.951 . S
C452 C446 1.265 1_465 S
C452 H447 0.950 . S
C452 C453 1.478 . S
C453 C440 1.394 1_465 S
C453 C452 1.478 . S
C453 C454 1.397 . S
C454 C453 1.397 . S
C454 C455 1.438 . S
C454 C459 1.429 . S
C455 C438 1.394 1_465 S
C455 C454 1.438 . S
C455 C456 1.428 . S
C456 H448 0.949 1_455 S
C456 C455 1.428 . S
C456 C457 1.345 . S
C457 H449 0.950 . S
C457 C456 1.345 . S
C457 C458 1.424 . S
C458 H450 0.951 . S
C458 C457 1.424 . S
C458 C459 1.347 . S
C459 H451 0.951 . S
C459 C454 1.429 . S
C459 C458 1.347 . S
H460 C461 0.951 . S
C461 H460 0.951 . S
C461 C467 1.265 . S
H462 C467 0.950 . S
H463 C471 0.949 . S
H464 C472 0.950 . S
H465 C473 0.951 . S
H466 C474 0.951 . S
C467 C461 1.265 . S
C467 H462 0.950 . S
C467 C468 1.478 . S
C468 C467 1.478 . S
C468 C469 1.397 . S
C468 C485 1.394 . S
C469 C468 1.397 . S
C469 C470 1.438 . S
C469 C474 1.429 . S
C470 C469 1.438 . S
C470 C471 1.428 . S
C470 C483 1.394 . S
C471 H463 0.949 . S
C471 C470 1.428 . S
C471 C472 1.345 . S
C472 H464 0.950 . S
C472 C471 1.345 . S
C472 C473 1.424 . S
C473 H465 0.951 . S
C473 C472 1.424 . S
C473 C474 1.347 . S
C474 H466 0.951 . S
C474 C469 1.429 . S
C474 C473 1.347 . S
H475 C476 0.951 . S
C476 H475 0.951 . S
C476 C482 1.265 . S
H477 C482 0.950 . S
H478 C486 0.949 . S
H479 C487 0.950 . S
H480 C488 0.951 . S
H481 C489 0.951 . S
C482 C476 1.265 . S
C482 H477 0.950 . S
C482 C483 1.478 . S
C483 C470 1.394 . S
C483 C482 1.478 . S
C483 C484 1.397 . S
C484 C483 1.397 . S
C484 C485 1.438 . S
C484 C489 1.429 . S
C485 C468 1.394 . S
C485 C484 1.438 . S
C485 C486 1.428 . S
C486 H478 0.949 . S
C486 C485 1.428 . S
C486 C487 1.345 . S
C487 H479 0.950 . S
C487 C486 1.345 . S
C487 C488 1.424 . S
C488 H480 0.951 . S
C488 C487 1.424 . S
C488 C489 1.347 . S
C489 H481 0.951 . S
C489 C484 1.429 . S
C489 C488 1.347 . S
H490 C491 0.951 . S
C491 H490 0.951 . S
C491 C497 1.265 . S
H492 C497 0.950 . S
H493 C501 0.949 . S
H494 C502 0.950 . S
H495 C503 0.951 . S
H496 C504 0.951 . S
C497 C491 1.265 . S
C497 H492 0.950 . S
C497 C498 1.478 . S
C498 C497 1.478 . S
C498 C499 1.397 . S
C498 C515 1.394 . S
C499 C498 1.397 . S
C499 C500 1.438 . S
C499 C504 1.429 . S
C500 C499 1.438 . S
C500 C501 1.428 . S
C500 C513 1.394 . S
C501 H493 0.949 . S
C501 C500 1.428 . S
C501 C502 1.345 . S
C502 H494 0.950 . S
C502 C501 1.345 . S
C502 C503 1.424 . S
C503 H495 0.951 . S
C503 C502 1.424 . S
C503 C504 1.347 . S
C504 H496 0.951 . S
C504 C499 1.429 . S
C504 C503 1.347 . S
H505 C506 0.951 . S
C506 H505 0.951 . S
C506 C512 1.265 . S
H507 C512 0.950 . S
H508 C516 0.949 . S
H509 C517 0.950 . S
H510 C518 0.951 . S
H511 C519 0.951 . S
C512 C506 1.265 . S
C512 H507 0.950 . S
C512 C513 1.478 . S
C513 C500 1.394 . S
C513 C512 1.478 . S
C513 C514 1.397 . S
C514 C513 1.397 . S
C514 C515 1.438 . S
C514 C519 1.429 . S
C515 C498 1.394 . S
C515 C514 1.438 . S
C515 C516 1.428 . S
C516 H508 0.949 . S
C516 C515 1.428 . S
C516 C517 1.345 . S
C517 H509 0.950 . S
C517 C516 1.345 . S
C517 C518 1.424 . S
C518 H510 0.951 . S
C518 C517 1.424 . S
C518 C519 1.347 . S
C519 H511 0.951 . S
C519 C514 1.429 . S
C519 C518 1.347 . S
C161 C82 3.544 . S
C176 C11 3.544 . S
C191 C91 3.546 1_556 S
C206 C2 3.546 1_554 S
C221 C56 0.142 . S
C236 C127 0.142 . S
C251 C47 0.173 . S
C266 C136 0.173 . S
C281 C16 1.028 . S
C296 C7 1.028 . S
C311 C51 4.875 1_545 S
C326 C42 4.868 1_565 S
C341 C96 0.986 . S
C356 C87 0.986 . S
C371 C122 4.873 . S
C386 C131 4.873 . S
C401 C50 1.456 1_645 S
C416 C19 1.424 . S
C431 C10 1.479 1_455 S
C446 C59 1.439 . S
C461 C130 1.444 . S
C476 C99 1.484 . S
C491 C139 1.448 . S
C506 C90 1.490 . S
