# Generated by pormake.
# Topology lcv-a, (4)-cn, num edge types: 1
# Building blocks:
#     Node 0, Type 0, BuildingBlock: QUQFOY_clean_sbu_1, # of connection points: 4
#     Node 1, Type 0, BuildingBlock: QUQFOY_clean_sbu_1, # of connection points: 4
#     Node 2, Type 0, BuildingBlock: QUQFOY_clean_sbu_1, # of connection points: 4
#     Node 3, Type 0, BuildingBlock: QUQFOY_clean_sbu_1, # of connection points: 4
#     Node 4, Type 0, BuildingBlock: QUQFOY_clean_sbu_1, # of connection points: 4
#     Node 5, Type 0, BuildingBlock: QUQFOY_clean_sbu_1, # of connection points: 4
#     Node 6, Type 0, BuildingBlock: QUQFOY_clean_sbu_1, # of connection points: 4
#     Node 7, Type 0, BuildingBlock: QUQFOY_clean_sbu_1, # of connection points: 4
#     Node 8, Type 0, BuildingBlock: QUQFOY_clean_sbu_1, # of connection points: 4
#     Node 9, Type 0, BuildingBlock: QUQFOY_clean_sbu_1, # of connection points: 4
#     Node 10, Type 0, BuildingBlock: QUQFOY_clean_sbu_1, # of connection points: 4
#     Node 11, Type 0, BuildingBlock: QUQFOY_clean_sbu_1, # of connection points: 4
#     Node 12, Type 0, BuildingBlock: QUQFOY_clean_sbu_1, # of connection points: 4
#     Node 13, Type 0, BuildingBlock: QUQFOY_clean_sbu_1, # of connection points: 4
#     Node 14, Type 0, BuildingBlock: QUQFOY_clean_sbu_1, # of connection points: 4
#     Node 15, Type 0, BuildingBlock: QUQFOY_clean_sbu_1, # of connection points: 4
#     Node 16, Type 0, BuildingBlock: QUQFOY_clean_sbu_1, # of connection points: 4
#     Node 17, Type 0, BuildingBlock: QUQFOY_clean_sbu_1, # of connection points: 4
#     Node 18, Type 0, BuildingBlock: QUQFOY_clean_sbu_1, # of connection points: 4
#     Node 19, Type 0, BuildingBlock: QUQFOY_clean_sbu_1, # of connection points: 4
#     Node 20, Type 0, BuildingBlock: QUQFOY_clean_sbu_1, # of connection points: 4
#     Node 21, Type 0, BuildingBlock: QUQFOY_clean_sbu_1, # of connection points: 4
#     Node 22, Type 0, BuildingBlock: QUQFOY_clean_sbu_1, # of connection points: 4
#     Node 23, Type 0, BuildingBlock: QUQFOY_clean_sbu_1, # of connection points: 4
#     Node 24, Type 0, BuildingBlock: QUQFOY_clean_sbu_1, # of connection points: 4
#     Node 25, Type 0, BuildingBlock: QUQFOY_clean_sbu_1, # of connection points: 4
#     Node 26, Type 0, BuildingBlock: QUQFOY_clean_sbu_1, # of connection points: 4
#     Node 27, Type 0, BuildingBlock: QUQFOY_clean_sbu_1, # of connection points: 4
#     Node 28, Type 0, BuildingBlock: QUQFOY_clean_sbu_1, # of connection points: 4
#     Node 29, Type 0, BuildingBlock: QUQFOY_clean_sbu_1, # of connection points: 4
#     Node 30, Type 0, BuildingBlock: QUQFOY_clean_sbu_1, # of connection points: 4
#     Node 31, Type 0, BuildingBlock: QUQFOY_clean_sbu_1, # of connection points: 4
#     Node 32, Type 0, BuildingBlock: QUQFOY_clean_sbu_1, # of connection points: 4
#     Node 33, Type 0, BuildingBlock: QUQFOY_clean_sbu_1, # of connection points: 4
#     Node 34, Type 0, BuildingBlock: QUQFOY_clean_sbu_1, # of connection points: 4
#     Node 35, Type 0, BuildingBlock: QUQFOY_clean_sbu_1, # of connection points: 4
#     Node 36, Type 0, BuildingBlock: QUQFOY_clean_sbu_1, # of connection points: 4
#     Node 37, Type 0, BuildingBlock: QUQFOY_clean_sbu_1, # of connection points: 4
#     Node 38, Type 0, BuildingBlock: QUQFOY_clean_sbu_1, # of connection points: 4
#     Node 39, Type 0, BuildingBlock: QUQFOY_clean_sbu_1, # of connection points: 4
#     Node 40, Type 0, BuildingBlock: QUQFOY_clean_sbu_1, # of connection points: 4
#     Node 41, Type 0, BuildingBlock: QUQFOY_clean_sbu_1, # of connection points: 4
#     Node 42, Type 0, BuildingBlock: QUQFOY_clean_sbu_1, # of connection points: 4
#     Node 43, Type 0, BuildingBlock: QUQFOY_clean_sbu_1, # of connection points: 4
#     Node 44, Type 0, BuildingBlock: QUQFOY_clean_sbu_1, # of connection points: 4
#     Node 45, Type 0, BuildingBlock: QUQFOY_clean_sbu_1, # of connection points: 4
#     Node 46, Type 0, BuildingBlock: QUQFOY_clean_sbu_1, # of connection points: 4
#     Node 47, Type 0, BuildingBlock: QUQFOY_clean_sbu_1, # of connection points: 4
#     Edge 48, Type (0, 0), BuildingBlock: UVAHIK_clean_linker_0, # of connection points: 2
#     Edge 49, Type (0, 0), BuildingBlock: UVAHIK_clean_linker_0, # of connection points: 2
#     Edge 50, Type (0, 0), BuildingBlock: UVAHIK_clean_linker_0, # of connection points: 2
#     Edge 51, Type (0, 0), BuildingBlock: UVAHIK_clean_linker_0, # of connection points: 2
#     Edge 52, Type (0, 0), BuildingBlock: UVAHIK_clean_linker_0, # of connection points: 2
#     Edge 53, Type (0, 0), BuildingBlock: UVAHIK_clean_linker_0, # of connection points: 2
#     Edge 54, Type (0, 0), BuildingBlock: UVAHIK_clean_linker_0, # of connection points: 2
#     Edge 55, Type (0, 0), BuildingBlock: UVAHIK_clean_linker_0, # of connection points: 2
#     Edge 56, Type (0, 0), BuildingBlock: UVAHIK_clean_linker_0, # of connection points: 2
#     Edge 57, Type (0, 0), BuildingBlock: UVAHIK_clean_linker_0, # of connection points: 2
#     Edge 58, Type (0, 0), BuildingBlock: UVAHIK_clean_linker_0, # of connection points: 2
#     Edge 59, Type (0, 0), BuildingBlock: UVAHIK_clean_linker_0, # of connection points: 2
#     Edge 60, Type (0, 0), BuildingBlock: UVAHIK_clean_linker_0, # of connection points: 2
#     Edge 61, Type (0, 0), BuildingBlock: UVAHIK_clean_linker_0, # of connection points: 2
#     Edge 62, Type (0, 0), BuildingBlock: UVAHIK_clean_linker_0, # of connection points: 2
#     Edge 63, Type (0, 0), BuildingBlock: UVAHIK_clean_linker_0, # of connection points: 2
#     Edge 64, Type (0, 0), BuildingBlock: UVAHIK_clean_linker_0, # of connection points: 2
#     Edge 65, Type (0, 0), BuildingBlock: UVAHIK_clean_linker_0, # of connection points: 2
#     Edge 66, Type (0, 0), BuildingBlock: UVAHIK_clean_linker_0, # of connection points: 2
#     Edge 67, Type (0, 0), BuildingBlock: UVAHIK_clean_linker_0, # of connection points: 2
#     Edge 68, Type (0, 0), BuildingBlock: UVAHIK_clean_linker_0, # of connection points: 2
#     Edge 69, Type (0, 0), BuildingBlock: UVAHIK_clean_linker_0, # of connection points: 2
#     Edge 70, Type (0, 0), BuildingBlock: UVAHIK_clean_linker_0, # of connection points: 2
#     Edge 71, Type (0, 0), BuildingBlock: UVAHIK_clean_linker_0, # of connection points: 2
#     Edge 72, Type (0, 0), BuildingBlock: UVAHIK_clean_linker_0, # of connection points: 2
#     Edge 73, Type (0, 0), BuildingBlock: UVAHIK_clean_linker_0, # of connection points: 2
#     Edge 74, Type (0, 0), BuildingBlock: UVAHIK_clean_linker_0, # of connection points: 2
#     Edge 75, Type (0, 0), BuildingBlock: UVAHIK_clean_linker_0, # of connection points: 2
#     Edge 76, Type (0, 0), BuildingBlock: UVAHIK_clean_linker_0, # of connection points: 2
#     Edge 77, Type (0, 0), BuildingBlock: UVAHIK_clean_linker_0, # of connection points: 2
#     Edge 78, Type (0, 0), BuildingBlock: UVAHIK_clean_linker_0, # of connection points: 2
#     Edge 79, Type (0, 0), BuildingBlock: UVAHIK_clean_linker_0, # of connection points: 2
#     Edge 80, Type (0, 0), BuildingBlock: UVAHIK_clean_linker_0, # of connection points: 2
#     Edge 81, Type (0, 0), BuildingBlock: UVAHIK_clean_linker_0, # of connection points: 2
#     Edge 82, Type (0, 0), BuildingBlock: UVAHIK_clean_linker_0, # of connection points: 2
#     Edge 83, Type (0, 0), BuildingBlock: UVAHIK_clean_linker_0, # of connection points: 2
#     Edge 84, Type (0, 0), BuildingBlock: UVAHIK_clean_linker_0, # of connection points: 2
#     Edge 85, Type (0, 0), BuildingBlock: UVAHIK_clean_linker_0, # of connection points: 2
#     Edge 86, Type (0, 0), BuildingBlock: UVAHIK_clean_linker_0, # of connection points: 2
#     Edge 87, Type (0, 0), BuildingBlock: UVAHIK_clean_linker_0, # of connection points: 2
#     Edge 88, Type (0, 0), BuildingBlock: UVAHIK_clean_linker_0, # of connection points: 2
#     Edge 89, Type (0, 0), BuildingBlock: UVAHIK_clean_linker_0, # of connection points: 2
#     Edge 90, Type (0, 0), BuildingBlock: UVAHIK_clean_linker_0, # of connection points: 2
#     Edge 91, Type (0, 0), BuildingBlock: UVAHIK_clean_linker_0, # of connection points: 2
#     Edge 92, Type (0, 0), BuildingBlock: UVAHIK_clean_linker_0, # of connection points: 2
#     Edge 93, Type (0, 0), BuildingBlock: UVAHIK_clean_linker_0, # of connection points: 2
#     Edge 94, Type (0, 0), BuildingBlock: UVAHIK_clean_linker_0, # of connection points: 2
#     Edge 95, Type (0, 0), BuildingBlock: UVAHIK_clean_linker_0, # of connection points: 2
#     Edge 96, Type (0, 0), BuildingBlock: UVAHIK_clean_linker_0, # of connection points: 2
#     Edge 97, Type (0, 0), BuildingBlock: UVAHIK_clean_linker_0, # of connection points: 2
#     Edge 98, Type (0, 0), BuildingBlock: UVAHIK_clean_linker_0, # of connection points: 2
#     Edge 99, Type (0, 0), BuildingBlock: UVAHIK_clean_linker_0, # of connection points: 2
#     Edge 100, Type (0, 0), BuildingBlock: UVAHIK_clean_linker_0, # of connection points: 2
#     Edge 101, Type (0, 0), BuildingBlock: UVAHIK_clean_linker_0, # of connection points: 2
#     Edge 102, Type (0, 0), BuildingBlock: UVAHIK_clean_linker_0, # of connection points: 2
#     Edge 103, Type (0, 0), BuildingBlock: UVAHIK_clean_linker_0, # of connection points: 2
#     Edge 104, Type (0, 0), BuildingBlock: UVAHIK_clean_linker_0, # of connection points: 2
#     Edge 105, Type (0, 0), BuildingBlock: UVAHIK_clean_linker_0, # of connection points: 2
#     Edge 106, Type (0, 0), BuildingBlock: UVAHIK_clean_linker_0, # of connection points: 2
#     Edge 107, Type (0, 0), BuildingBlock: UVAHIK_clean_linker_0, # of connection points: 2
#     Edge 108, Type (0, 0), BuildingBlock: UVAHIK_clean_linker_0, # of connection points: 2
#     Edge 109, Type (0, 0), BuildingBlock: UVAHIK_clean_linker_0, # of connection points: 2
#     Edge 110, Type (0, 0), BuildingBlock: UVAHIK_clean_linker_0, # of connection points: 2
#     Edge 111, Type (0, 0), BuildingBlock: UVAHIK_clean_linker_0, # of connection points: 2
#     Edge 112, Type (0, 0), BuildingBlock: UVAHIK_clean_linker_0, # of connection points: 2
#     Edge 113, Type (0, 0), BuildingBlock: UVAHIK_clean_linker_0, # of connection points: 2
#     Edge 114, Type (0, 0), BuildingBlock: UVAHIK_clean_linker_0, # of connection points: 2
#     Edge 115, Type (0, 0), BuildingBlock: UVAHIK_clean_linker_0, # of connection points: 2
#     Edge 116, Type (0, 0), BuildingBlock: UVAHIK_clean_linker_0, # of connection points: 2
#     Edge 117, Type (0, 0), BuildingBlock: UVAHIK_clean_linker_0, # of connection points: 2
#     Edge 118, Type (0, 0), BuildingBlock: UVAHIK_clean_linker_0, # of connection points: 2
#     Edge 119, Type (0, 0), BuildingBlock: UVAHIK_clean_linker_0, # of connection points: 2
#     Edge 120, Type (0, 0), BuildingBlock: UVAHIK_clean_linker_0, # of connection points: 2
#     Edge 121, Type (0, 0), BuildingBlock: UVAHIK_clean_linker_0, # of connection points: 2
#     Edge 122, Type (0, 0), BuildingBlock: UVAHIK_clean_linker_0, # of connection points: 2
#     Edge 123, Type (0, 0), BuildingBlock: UVAHIK_clean_linker_0, # of connection points: 2
#     Edge 124, Type (0, 0), BuildingBlock: UVAHIK_clean_linker_0, # of connection points: 2
#     Edge 125, Type (0, 0), BuildingBlock: UVAHIK_clean_linker_0, # of connection points: 2
#     Edge 126, Type (0, 0), BuildingBlock: UVAHIK_clean_linker_0, # of connection points: 2
#     Edge 127, Type (0, 0), BuildingBlock: UVAHIK_clean_linker_0, # of connection points: 2
#     Edge 128, Type (0, 0), BuildingBlock: UVAHIK_clean_linker_0, # of connection points: 2
#     Edge 129, Type (0, 0), BuildingBlock: UVAHIK_clean_linker_0, # of connection points: 2
#     Edge 130, Type (0, 0), BuildingBlock: UVAHIK_clean_linker_0, # of connection points: 2
#     Edge 131, Type (0, 0), BuildingBlock: UVAHIK_clean_linker_0, # of connection points: 2
#     Edge 132, Type (0, 0), BuildingBlock: UVAHIK_clean_linker_0, # of connection points: 2
#     Edge 133, Type (0, 0), BuildingBlock: UVAHIK_clean_linker_0, # of connection points: 2
#     Edge 134, Type (0, 0), BuildingBlock: UVAHIK_clean_linker_0, # of connection points: 2
#     Edge 135, Type (0, 0), BuildingBlock: UVAHIK_clean_linker_0, # of connection points: 2
#     Edge 136, Type (0, 0), BuildingBlock: UVAHIK_clean_linker_0, # of connection points: 2
#     Edge 137, Type (0, 0), BuildingBlock: UVAHIK_clean_linker_0, # of connection points: 2
#     Edge 138, Type (0, 0), BuildingBlock: UVAHIK_clean_linker_0, # of connection points: 2
#     Edge 139, Type (0, 0), BuildingBlock: UVAHIK_clean_linker_0, # of connection points: 2
#     Edge 140, Type (0, 0), BuildingBlock: UVAHIK_clean_linker_0, # of connection points: 2
#     Edge 141, Type (0, 0), BuildingBlock: UVAHIK_clean_linker_0, # of connection points: 2
#     Edge 142, Type (0, 0), BuildingBlock: UVAHIK_clean_linker_0, # of connection points: 2
#     Edge 143, Type (0, 0), BuildingBlock: UVAHIK_clean_linker_0, # of connection points: 2
# Relax obj value: 0.765
# Max RMSD: 0.365
# Mean RMSD: 0.337
data_MOF--net-lcv-a--node1-QUQFOY_clean_sbu_1--edge1-UVAHIK_clean_linker_0
_symmetry_space_group_name_H-M    P1
_symmetry_Int_Tables_number       1
_symmetry_cell_setting            triclinic
loop_
_symmetry_equiv_pos_as_xyz
'x, y, z'
_cell_length_a     117.49016
_cell_length_b     117.42912
_cell_length_c     117.47717
_cell_angle_alpha  89.488121
_cell_angle_beta   89.465934
_cell_angle_gamma 89.516895
loop_
_atom_site_label
_atom_site_type_symbol
_atom_site_fract_x
_atom_site_fract_y
_atom_site_fract_z
_atom_type_partial_charge
O0 O 0.98489 0.35673 0.21499 0.0
Cd1 Cd 0.99928 0.35474 0.22453 0.0
Cd2 Cd 0.98789 0.33587 0.22933 0.0
O3 O 0.97364 0.3434 0.22203 0.0
O4 O 0.00606 0.37037 0.22381 0.0
O5 O 0.99952 0.36268 0.23975 0.0
C6 C 0.00358 0.37145 0.23446 0.0
C7 C 0.9946 0.32961 0.24656 0.0
C8 C 0.9753 0.35182 0.21531 0.0
C9 C 0.00794 0.33293 0.21465 0.0
O10 O 0.99829 0.32899 0.2174 0.0
O11 O 0.01086 0.34288 0.21776 0.0
O12 O 0.98689 0.32386 0.24133 0.0
O13 O 0.99667 0.33987 0.24301 0.0
O14 O 0.98534 0.73726 0.4593 0.0
Cd15 Cd 0.9896 0.75328 0.46464 0.0
Cd16 Cd 0.00627 0.73974 0.47301 0.0
O17 O 0.99575 0.72603 0.47032 0.0
O18 O 0.97499 0.76186 0.46171 0.0
O19 O 0.98124 0.75796 0.47897 0.0
C20 C 0.97312 0.76163 0.47255 0.0
C21 C 0.01089 0.74887 0.48975 0.0
C22 C 0.98777 0.72742 0.46319 0.0
C23 C 0.01298 0.75544 0.45439 0.0
O24 O 0.01487 0.74575 0.45891 0.0
O25 O 0.00388 0.76101 0.45681 0.0
O26 O 0.01644 0.73983 0.48666 0.0
O27 O 1.00218 0.75196 0.48383 0.0
O28 O 0.59655 0.72869 0.7069 0.0
Cd29 Cd 0.58187 0.73223 0.71594 0.0
Cd30 Cd 0.59533 0.74981 0.72017 0.0
O31 O 0.60902 0.74017 0.71469 0.0
O32 O 0.57379 0.71713 0.71622 0.0
O33 O 0.58143 0.72471 0.73145 0.0
C34 C 0.57671 0.71608 0.72676 0.0
C35 C 0.58937 0.75611 0.73787 0.0
C36 C 0.60675 0.73196 0.70811 0.0
C37 C 0.57602 0.75452 0.70503 0.0
O38 O 0.58627 0.75698 0.70717 0.0
O39 O 0.57155 0.74553 0.70932 0.0
O40 O 0.59716 0.76157 0.73224 0.0
O41 O 0.58603 0.74647 0.73393 0.0
O42 O 0.60222 0.35072 0.96154 0.0
Cd43 Cd 0.59906 0.33427 0.96615 0.0
Cd44 Cd 0.58074 0.34537 0.9751 0.0
O45 O 0.58952 0.36036 0.97167 0.0
O46 O 0.61464 0.32718 0.96456 0.0
O47 O 0.60605 0.32973 0.98114 0.0
C48 C 0.61519 0.32712 0.97554 0.0
C49 C 0.57546 0.33734 0.99246 0.0
C50 C 0.59818 0.3601 0.96509 0.0
C51 C 0.57639 0.3297 0.95553 0.0
O52 O 0.5727 0.33784 0.96166 0.0
O53 O 0.58663 0.32606 0.95653 0.0
O54 O 0.56969 0.34575 0.98818 0.0
O55 O 0.58481 0.33438 0.98739 0.0
O56 O 0.98883 0.73471 0.37401 0.0
Cd57 Cd 0.00466 0.73898 0.36779 0.0
Cd58 Cd 0.99128 0.75665 0.36136 0.0
O59 O 0.97746 0.74623 0.36429 0.0
O60 O 0.01331 0.72411 0.36896 0.0
O61 O 0.00792 0.73172 0.35262 0.0
C62 C 0.01209 0.72312 0.3581 0.0
C63 C 0.99994 0.76253 0.34451 0.0
C64 C 0.97892 0.7377 0.37088 0.0
C65 C 0.0079 0.7614 0.3793 0.0
O66 O 0.99803 0.76382 0.37561 0.0
O67 O 0.01315 0.75247 0.37585 0.0
O68 O 0.99131 0.76815 0.34856 0.0
O69 O 0.00284 0.75314 0.34952 0.0
O70 O 0.58182 0.73587 0.6047 0.0
Cd71 Cd 0.58675 0.74664 0.61705 0.0
Cd72 Cd 0.56069 0.73747 0.60489 0.0
O73 O 0.56988 0.72225 0.60547 0.0
O74 O 0.60251 0.74377 0.62265 0.0
O75 O 0.59795 0.75766 0.61053 0.0
C76 C 0.60573 0.75181 0.61577 0.0
C77 C 0.5561 0.74849 0.58909 0.0
C78 C 0.58001 0.72548 0.60686 0.0
C79 C 0.56288 0.75066 0.62829 0.0
O80 O 0.55769 0.74545 0.62038 0.0
O81 O 0.57371 0.75214 0.62826 0.0
O82 O 0.54901 0.74103 0.59308 0.0
O83 O 0.5661 0.74894 0.59356 0.0
O84 O 0.60481 0.34688 0.87953 0.0
Cd85 Cd 0.58912 0.34282 0.87333 0.0
Cd86 Cd 0.6028 0.32524 0.86686 0.0
O87 O 0.61653 0.33575 0.86974 0.0
O88 O 0.58096 0.35797 0.87456 0.0
O89 O 0.58593 0.35035 0.85814 0.0
C90 C 0.58216 0.35906 0.86366 0.0
C91 C 0.5943 0.31994 0.84996 0.0
C92 C 0.61482 0.34409 0.8764 0.0
C93 C 0.58578 0.32018 0.88488 0.0
O94 O 0.5957 0.31784 0.88112 0.0
O95 O 0.58054 0.32918 0.88151 0.0
O96 O 0.60284 0.31413 0.85389 0.0
O97 O 0.5914 0.32916 0.85515 0.0
O98 O 0.99365 0.34763 0.09885 0.0
Cd99 Cd 0.98979 0.33429 0.1091 0.0
Cd100 Cd 0.01465 0.3458 0.09585 0.0
O101 O 0.00605 0.36071 0.10037 0.0
O102 O 0.97475 0.33593 0.11701 0.0
O103 O 0.97766 0.32489 0.10201 0.0
C104 C 0.97061 0.3296 0.10912 0.0
C105 C 0.01867 0.33761 0.07855 0.0
C106 C 0.99619 0.3572 0.10293 0.0
C107 C 0.01472 0.3286 0.11671 0.0
O108 O 0.01923 0.33522 0.10929 0.0
O109 O 0.0039 0.32722 0.11775 0.0
O110 O 0.02572 0.34469 0.08302 0.0
O111 O 0.00876 0.33642 0.08329 0.0
O112 O 0.21943 0.98629 0.34994 0.0
Cd113 Cd 0.22359 0.00255 0.34565 0.0
Cd114 Cd 0.23347 0.99001 0.32865 0.0
O115 O 0.2301 0.9756 0.33863 0.0
O116 O 0.21878 0.01052 0.35999 0.0
O117 O 0.23673 0.00884 0.35458 0.0
C118 C 0.22942 0.01156 0.36237 0.0
C119 C 0.24943 1.00086 0.32488 0.0
C120 C 0.22312 0.97659 0.34694 0.0
C121 C 0.21389 0.00448 0.32191 0.0
O122 O 0.22003 0.99592 0.3193 0.0
O123 O 0.21475 0.00919 0.33164 0.0
O124 O 0.24754 0.99178 0.31903 0.0
O125 O 0.24311 0.00272 0.33373 0.0
O126 O 0.3515 0.9647 0.59919 0.0
Cd127 Cd 0.33661 0.97318 0.59613 0.0
Cd128 Cd 0.34915 0.97737 0.57698 0.0
O129 O 0.36311 0.97045 0.58544 0.0
O130 O 0.32905 0.97178 0.61149 0.0
O131 O 0.33446 0.98825 0.60424 0.0
C132 C 0.33058 0.98254 0.61284 0.0
C133 C 0.3422 0.9952 0.57225 0.0
C134 C 0.36128 0.96472 0.59454 0.0
C135 C 0.32968 0.9621 0.5741 0.0
O136 O 0.33915 0.96529 0.56997 0.0
O137 O 0.32642 0.96531 0.58401 0.0
O138 O 0.34986 0.99036 0.56587 0.0
O139 O 0.33996 0.99062 0.58206 0.0
O140 O 0.373 0.10676 0.84895 0.0
Cd141 Cd 0.36506 0.09181 0.8451 0.0
Cd142 Cd 0.36128 0.10527 0.82678 0.0
O143 O 0.36582 0.11906 0.83656 0.0
O144 O 0.3658 0.08352 0.86014 0.0
O145 O 0.34971 0.08993 0.85285 0.0
C146 C 0.35504 0.08551 0.86139 0.0
C147 C 0.34411 0.098 0.82078 0.0
C148 C 0.3717 0.11692 0.84538 0.0
C149 C 0.37671 0.08607 0.82285 0.0
O150 O 0.37469 0.09634 0.82 0.0
O151 O 0.3723 0.08191 0.83197 0.0
O152 O 0.34903 0.10607 0.81502 0.0
O153 O 0.34825 0.09525 0.83058 0.0
O154 O 0.23578 0.13092 0.09686 0.0
Cd155 Cd 0.25103 0.12357 0.09213 0.0
Cd156 Cd 0.23665 0.11887 0.07472 0.0
O157 O 0.22324 0.12352 0.08518 0.0
O158 O 0.25982 0.12409 0.10681 0.0
O159 O 0.25364 0.10813 0.09943 0.0
C160 C 0.25814 0.11329 0.1079 0.0
C161 C 0.24303 0.10099 0.06925 0.0
C162 C 0.22554 0.12939 0.09389 0.0
C163 C 0.2551 0.13523 0.06954 0.0
O164 O 0.24505 0.13221 0.06715 0.0
O165 O 0.25998 0.13145 0.07852 0.0
O166 O 0.23506 0.10611 0.06359 0.0
O167 O 0.24654 0.10567 0.07846 0.0
O168 O 0.21145 0.101 0.23322 0.0
Cd169 Cd 0.22141 0.0874 0.2379 0.0
Cd170 Cd 0.22442 0.10186 0.25479 0.0
O171 O 0.21905 0.11454 0.24357 0.0
O172 O 0.22256 0.07826 0.2235 0.0
O173 O 0.2369 0.088 0.23039 0.0
C174 C 0.23271 0.08223 0.22215 0.0
C175 C 0.24172 0.09575 0.26201 0.0
C176 C 0.21259 0.11147 0.23553 0.0
C177 C 0.21076 0.08224 0.26066 0.0
O178 O 0.21155 0.09287 0.2623 0.0
O179 O 0.21573 0.07771 0.25205 0.0
O180 O 0.23636 0.10425 0.26662 0.0
O181 O 0.23798 0.09196 0.25247 0.0
O182 O 0.23148 0.97031 0.48986 0.0
Cd183 Cd 0.24724 0.97646 0.49364 0.0
Cd184 Cd 0.23419 0.98299 0.51128 0.0
O185 O 0.22008 0.98009 0.50128 0.0
O186 O 0.25553 0.97381 0.47889 0.0
O187 O 0.25114 0.99098 0.48513 0.0
C188 C 0.25489 0.98464 0.47698 0.0
C189 C 0.24395 0.99909 0.51674 0.0
C190 C 0.22154 0.97335 0.49295 0.0
C191 C 0.25078 0.96508 0.51635 0.0
O192 O 0.24084 0.96867 0.51881 0.0
O193 O 0.25579 0.96853 0.50725 0.0
O194 O 0.23501 0.99584 0.52239 0.0
O195 O 0.2463 0.99404 0.50728 0.0
O196 O 0.36959 0.98773 0.73835 0.0
Cd197 Cd 0.36444 0.00374 0.7425 0.0
Cd198 Cd 0.35601 0.99081 0.76011 0.0
O199 O 0.36008 0.97659 0.75025 0.0
O200 O 0.36844 0.01193 0.72795 0.0
O201 O 0.35073 0.00938 0.73371 0.0
C202 C 0.35772 0.01244 0.72574 0.0
C203 C 0.33944 1.00089 0.76395 0.0
C204 C 0.36668 0.97788 0.74168 0.0
C205 C 0.37464 0.00634 0.766 0.0
O206 O 0.36925 0.99747 0.76903 0.0
O207 O 0.37313 0.01087 0.75616 0.0
O208 O 0.34194 0.99185 0.76985 0.0
O209 O 0.34555 0.0031 0.75502 0.0
O210 O 0.34742 0.1227 0.98936 0.0
Cd211 Cd 0.33121 0.11737 0.99265 0.0
Cd212 Cd 0.34331 0.1073 0.00976 0.0
O213 O 0.35787 0.11175 1.00062 0.0
O214 O 0.3237 0.12129 0.97777 0.0
O215 O 0.32671 0.10361 0.98357 0.0
C216 C 0.32376 0.11055 0.97552 0.0
C217 C 0.33486 0.08984 0.01283 0.0
C218 C 0.35706 0.11906 0.99261 0.0
C219 C 0.32673 0.12539 0.01672 0.0
O220 O 0.33556 0.1197 0.01945 0.0
O221 O 0.32284 0.12497 0.00659 0.0
O222 O 0.34343 0.09287 0.01893 0.0
O223 O 0.33217 0.09616 0.0042 0.0
O224 O 0.35496 0.21358 0.98783 0.0
Cd225 Cd 0.35066 0.22015 0.00337 0.0
Cd226 Cd 0.33366 0.2284 0.9895 0.0
O227 O 0.3431 0.22208 0.97591 0.0
O228 O 0.3653 0.21784 0.0119 0.0
O229 O 0.35858 0.2348 0.00715 0.0
C230 C 0.36684 0.22869 0.0111 0.0
C231 C 0.33014 0.24686 0.99526 0.0
C232 C 0.3516 0.21556 0.97776 0.0
C233 C 0.32669 0.21188 0.00785 0.0
O234 O 0.32401 0.21697 0.99865 0.0
O235 O 0.33676 0.21257 0.01182 0.0
O236 O 0.32423 0.24249 0.98717 0.0
O237 O 0.33882 0.24116 0.99895 0.0
O238 O 0.8412 0.37637 0.1067 0.0
Cd239 Cd 0.83796 0.36832 0.09178 0.0
Cd240 Cd 0.81974 0.36234 0.10504 0.0
O241 O 0.82921 0.36807 0.11873 0.0
O242 O 0.8532 0.36917 0.08377 0.0
O243 O 0.84603 0.35314 0.09048 0.0
C244 C 0.8546 0.3585 0.08616 0.0
C245 C 0.81548 0.34433 0.09863 0.0
C246 C 0.83761 0.37461 0.11677 0.0
C247 C 0.81478 0.37789 0.08565 0.0
O248 O 0.81149 0.37449 0.09543 0.0
O249 O 0.82476 0.37536 0.08194 0.0
O250 O 0.80943 0.34889 0.10668 0.0
O251 O 0.82467 0.34946 0.09544 0.0
O252 O 0.96155 0.59876 0.34688 0.0
Cd253 Cd 0.97084 0.59536 0.33246 0.0
Cd254 Cd 0.97477 0.5763 0.34586 0.0
O255 O 0.96653 0.58501 0.35888 0.0
O256 O 0.97155 0.61077 0.32464 0.0
O257 O 0.98653 0.60222 0.33211 0.0
C258 C 0.98211 0.61121 0.32752 0.0
C259 C 0.99362 0.57179 0.34229 0.0
C260 C 0.96108 0.59419 0.35671 0.0
C261 C 0.96123 0.57279 0.32481 0.0
O262 O 0.96427 0.56879 0.3344 0.0
O263 O 0.96375 0.58298 0.32184 0.0
O264 O 0.98759 0.56539 0.34901 0.0
O265 O 0.98925 0.58135 0.33892 0.0
O266 O 0.73316 0.71275 0.60113 0.0
Cd267 Cd 0.73659 0.72106 0.58631 0.0
Cd268 Cd 0.75467 0.7265 0.59907 0.0
O269 O 0.74476 0.72121 0.61303 0.0
O270 O 0.72144 0.72041 0.5785 0.0
O271 O 0.72864 0.73628 0.58519 0.0
C272 C 0.72006 0.73101 0.58103 0.0
C273 C 0.75994 0.74365 0.59081 0.0
C274 C 0.73648 0.71454 0.61117 0.0
C275 C 0.75933 0.71051 0.58056 0.0
O276 O 0.7625 0.71362 0.59035 0.0
O277 O 0.74971 0.71374 0.57659 0.0
O278 O 0.76559 0.73956 0.59937 0.0
O279 O 0.75047 0.73884 0.58826 0.0
O280 O 0.124 0.98255 0.3509 0.0
Cd281 Cd 0.11644 0.98622 0.33571 0.0
Cd282 Cd 0.11078 0.00462 0.34856 0.0
O283 O 0.11671 0.9954 0.36256 0.0
O284 O 0.11807 0.97113 0.32785 0.0
O285 O 0.10147 0.97826 0.33321 0.0
C286 C 0.10727 0.96976 0.32929 0.0
C287 C 0.09312 0.0095 0.34149 0.0
C288 C 0.12281 0.98655 0.36084 0.0
C289 C 0.12685 0.00905 0.32962 0.0
O290 O 0.12315 0.01253 0.33917 0.0
O291 O 0.12425 0.99915 0.32603 0.0
O292 O 0.09759 0.01547 0.34949 0.0
O293 O 0.09798 0.99997 0.33884 0.0
O294 O 0.22912 0.87492 0.49023 0.0
Cd295 Cd 0.23369 0.86607 0.50463 0.0
Cd296 Cd 0.25139 0.86214 0.49007 0.0
O297 O 0.2407 0.86768 0.47717 0.0
O298 O 0.219 0.86551 0.5137 0.0
O299 O 0.22676 0.85045 0.50553 0.0
C300 C 0.2182 0.85496 0.51081 0.0
C301 C 0.25748 0.84447 0.49659 0.0
C302 C 0.23214 0.87384 0.47988 0.0
C303 C 0.2564 0.87678 0.50942 0.0
O304 O 0.25874 0.87489 0.49903 0.0
O305 O 0.24739 0.87261 0.51399 0.0
O306 O 0.26282 0.84942 0.48824 0.0
O307 O 0.24802 0.84897 0.50004 0.0
O308 O 0.9644 0.49754 0.2372 0.0
Cd309 Cd 0.96946 0.50193 0.25325 0.0
Cd310 Cd 0.97919 0.51783 0.23958 0.0
O311 O 0.97669 0.50677 0.22623 0.0
O312 O 0.9655 0.48769 0.26205 0.0
O313 O 0.98318 0.49302 0.25864 0.0
C314 C 0.97624 0.48532 0.26227 0.0
C315 C 0.9959 0.52163 0.24917 0.0
C316 C 0.96898 0.49933 0.22752 0.0
C317 C 0.96037 0.52574 0.25458 0.0
O318 O 0.96526 0.52719 0.24498 0.0
O319 O 0.96216 0.51667 0.26042 0.0
O320 O 0.99342 0.52724 0.23998 0.0
O321 O 0.98932 0.5134 0.25223 0.0
O322 O 0.62474 0.58945 0.7337 0.0
Cd323 Cd 0.61618 0.58549 0.7484 0.0
Cd324 Cd 0.61088 0.56767 0.73446 0.0
O325 O 0.61805 0.57722 0.72127 0.0
O326 O 0.61673 0.60029 0.75704 0.0
O327 O 0.60094 0.59347 0.74987 0.0
C328 C 0.60612 0.60177 0.75466 0.0
C329 C 0.59247 0.56354 0.73998 0.0
C330 C 0.62411 0.58582 0.72359 0.0
C331 C 0.62569 0.56198 0.75408 0.0
O332 O 0.62223 0.5589 0.74438 0.0
O333 O 0.62334 0.57194 0.75786 0.0
O334 O 0.59742 0.55765 0.73205 0.0
O335 O 0.59749 0.5726 0.74345 0.0
O336 O 0.48096 0.84306 0.71542 0.0
Cd337 Cd 0.49769 0.83997 0.71879 0.0
Cd338 Cd 0.48738 0.82275 0.72992 0.0
O339 O 0.47236 0.83212 0.72821 0.0
O340 O 0.50461 0.8552 0.71523 0.0
O341 O 0.50327 0.84814 0.73267 0.0
C342 C 0.50549 0.8567 0.72606 0.0
C343 C 0.49745 0.81789 0.74614 0.0
C344 C 0.47201 0.83994 0.72065 0.0
C345 C 0.50112 0.8167 0.70916 0.0
O346 O 0.49317 0.81378 0.71599 0.0
O347 O 0.50523 0.82673 0.70947 0.0
O348 O 0.48843 0.81231 0.74342 0.0
O349 O 0.49989 0.82693 0.74029 0.0
O350 O 0.49268 0.23434 0.96748 0.0
Cd351 Cd 0.49626 0.25026 0.97326 0.0
Cd352 Cd 0.51393 0.23741 0.98143 0.0
O353 O 0.50493 0.22315 0.97646 0.0
O354 O 0.4812 0.25819 0.97095 0.0
O355 O 0.48819 0.25433 0.98793 0.0
C356 C 0.47972 0.25775 0.98185 0.0
C357 C 0.51808 0.24458 0.99913 0.0
C358 C 0.49638 0.22447 0.97 0.0
C359 C 0.51967 0.25491 0.96365 0.0
O360 O 0.5228 0.24594 0.96893 0.0
O361 O 0.50952 0.2588 0.96477 0.0
O362 O 0.52416 0.23638 0.99491 0.0
O363 O 0.50889 0.24755 0.9939 0.0
O364 O 0.10429 0.23403 0.21293 0.0
Cd365 Cd 0.0881 0.2384 0.21788 0.0
Cd366 Cd 0.09996 0.25722 0.22208 0.0
O367 O 0.11466 0.24741 0.22073 0.0
O368 O 0.0801 0.22337 0.21738 0.0
O369 O 0.08378 0.23225 0.2334 0.0
C370 C 0.08029 0.22322 0.22835 0.0
C371 C 0.09018 0.26498 0.23749 0.0
C372 C 0.11393 0.238 0.21551 0.0
C373 C 0.08419 0.25898 0.20298 0.0
O374 O 0.09355 0.2626 0.20678 0.0
O375 O 0.07955 0.25017 0.20743 0.0
O376 O 0.09898 0.27007 0.2332 0.0
O377 O 0.08781 0.25496 0.23377 0.0
O378 O 0.09521 0.84908 0.4634 0.0
Cd379 Cd 0.09042 0.83409 0.47093 0.0
Cd380 Cd 0.07244 0.8484 0.47585 0.0
O381 O 0.08282 0.86162 0.47026 0.0
O382 O 0.10507 0.82501 0.47063 0.0
O383 O 0.09734 0.83168 0.48643 0.0
C384 C 0.1059 0.82689 0.4814 0.0
C385 C 0.06701 0.84219 0.49379 0.0
C386 C 0.09182 0.8593 0.46459 0.0
C387 C 0.06762 0.82945 0.46005 0.0
O388 O 0.06453 0.83924 0.46348 0.0
O389 O 0.07727 0.82523 0.46294 0.0
O390 O 0.06137 0.85031 0.48881 0.0
O391 O 0.0764 0.83878 0.48911 0.0
O392 O 0.49295 0.23585 0.87597 0.0
Cd393 Cd 0.50813 0.23998 0.86848 0.0
Cd394 Cd 0.49413 0.2574 0.86146 0.0
O395 O 0.48076 0.24717 0.86701 0.0
O396 O 0.51686 0.22508 0.86921 0.0
O397 O 0.51038 0.23257 0.85323 0.0
C398 C 0.51491 0.224 0.85848 0.0
C399 C 0.50107 0.26246 0.84368 0.0
C400 C 0.4828 0.23888 0.87377 0.0
C401 C 0.51229 0.26356 0.87768 0.0
O402 O 0.50258 0.26618 0.87371 0.0
O403 O 0.51676 0.25378 0.87569 0.0
O404 O 0.49243 0.26788 0.84799 0.0
O405 O 0.50455 0.25335 0.84884 0.0
O406 O 0.09309 0.23577 0.12859 0.0
Cd407 Cd 0.09021 0.25036 0.11939 0.0
Cd408 Cd 0.0727 0.23737 0.11372 0.0
O409 O 0.08284 0.22369 0.11879 0.0
O410 O 0.10549 0.25786 0.12047 0.0
O411 O 0.09899 0.25067 0.10453 0.0
C412 C 0.10738 0.25487 0.11007 0.0
C413 C 0.06832 0.24358 0.09545 0.0
C414 C 0.09044 0.22564 0.12614 0.0
C415 C 0.06725 0.25685 0.12847 0.0
O416 O 0.06459 0.24663 0.12632 0.0
O417 O 0.07675 0.26089 0.12496 0.0
O418 O 0.07721 0.24715 0.10063 0.0
O419 O 0.06239 0.23563 0.10031 0.0
O420 O 0.10356 0.84421 0.3737 0.0
Cd421 Cd 0.08781 0.84008 0.36794 0.0
Cd422 Cd 0.10137 0.82273 0.35984 0.0
O423 O 0.11524 0.83238 0.36474 0.0
O424 O 0.07939 0.85485 0.37056 0.0
O425 O 0.08329 0.84825 0.35344 0.0
C426 C 0.07967 0.85652 0.35969 0.0
C427 C 0.09385 0.81897 0.34218 0.0
C428 C 0.11357 0.84089 0.37119 0.0
C429 C 0.08414 0.81639 0.3776 0.0
O430 O 0.09324 0.81352 0.37239 0.0
O431 O 0.07989 0.82639 0.37636 0.0
O432 O 0.10241 0.81305 0.34591 0.0
O433 O 0.09067 0.82779 0.34791 0.0
O434 O 0.48177 0.8506 0.63293 0.0
Cd435 Cd 0.48613 0.8359 0.62452 0.0
Cd436 Cd 0.50401 0.85008 0.62035 0.0
O437 O 0.49373 0.86333 0.62587 0.0
O438 O 0.47127 0.82751 0.62499 0.0
O439 O 0.47862 0.83473 0.60919 0.0
C440 C 0.47008 0.83012 0.61437 0.0
C441 C 0.50886 0.84463 0.60199 0.0
C442 C 0.48496 0.86086 0.63178 0.0
C443 C 0.5087 0.83002 0.63513 0.0
O444 O 0.51141 0.84026 0.63288 0.0
O445 O 0.4995 0.82587 0.63123 0.0
O446 O 0.5148 0.85225 0.60712 0.0
O447 O 0.49973 0.84105 0.60699 0.0
O448 O 0.7112 0.47741 0.84822 0.0
Cd449 Cd 0.71736 0.49309 0.8434 0.0
Cd450 Cd 0.72304 0.47915 0.82577 0.0
O451 O 0.71941 0.46542 0.83623 0.0
O452 O 0.71574 0.50164 0.85811 0.0
O453 O 0.73239 0.4969 0.85063 0.0
C454 C 0.72664 0.50086 0.85915 0.0
C455 C 0.74043 0.48678 0.82035 0.0
C456 C 0.71347 0.4673 0.84513 0.0
C457 C 0.70566 0.4969 0.82093 0.0
O458 O 0.70924 0.48699 0.81837 0.0
O459 O 0.70909 0.50175 0.82997 0.0
O460 O 0.73618 0.47842 0.81472 0.0
O461 O 0.73524 0.48995 0.82953 0.0
O462 O 0.85004 0.46262 0.09588 0.0
Cd463 Cd 0.83483 0.46965 0.09143 0.0
Cd464 Cd 0.8486 0.47643 0.07395 0.0
O465 O 0.86204 0.47199 0.08467 0.0
O466 O 0.82598 0.46926 0.10623 0.0
O467 O 0.83237 0.48511 0.09831 0.0
C468 C 0.82784 0.48005 0.107 0.0
C469 C 0.84109 0.49372 0.06796 0.0
C470 C 0.86012 0.46526 0.09302 0.0
C471 C 0.83119 0.45913 0.0685 0.0
O472 O 0.84075 0.46337 0.06571 0.0
O473 O 0.82651 0.46148 0.07809 0.0
O474 O 0.84995 0.48946 0.06286 0.0
O475 O 0.83761 0.48883 0.07722 0.0
O476 O 0.85406 0.60474 0.33371 0.0
Cd477 Cd 0.86608 0.59276 0.33708 0.0
Cd478 Cd 0.85362 0.60489 0.31255 0.0
O479 O 0.85483 0.61928 0.32271 0.0
O480 O 0.87229 0.59398 0.35274 0.0
O481 O 0.85961 0.58108 0.34773 0.0
C482 C 0.86522 0.58607 0.35568 0.0
C483 C 0.83794 0.59412 0.30794 0.0
C484 C 0.85678 0.61507 0.33245 0.0
C485 C 0.87692 0.59119 0.31267 0.0
O486 O 0.86898 0.5972 0.30819 0.0
O487 O 0.87703 0.58855 0.32332 0.0
O488 O 0.8412 0.6024 0.30136 0.0
O489 O 0.84294 0.59278 0.31762 0.0
O490 O 0.72827 0.62171 0.59225 0.0
Cd491 Cd 0.74394 0.61522 0.58871 0.0
Cd492 Cd 0.73169 0.60871 0.57039 0.0
O493 O 0.71723 0.61282 0.58013 0.0
O494 O 0.75162 0.6172 0.60379 0.0
O495 O 0.74716 0.60039 0.59697 0.0
C496 C 0.75059 0.60637 0.60542 0.0
C497 C 0.74134 0.59211 0.56573 0.0
C498 C 0.71845 0.61928 0.58869 0.0
C499 C 0.74868 0.62649 0.56593 0.0
O500 O 0.73944 0.62223 0.56252 0.0
O501 O 0.75272 0.6238 0.57569 0.0
O502 O 0.73266 0.59541 0.55979 0.0
O503 O 0.74332 0.59737 0.5751 0.0
O504 O 0.73135 0.59482 0.74358 0.0
Cd505 Cd 0.71997 0.58274 0.73944 0.0
Cd506 Cd 0.7326 0.59373 0.76457 0.0
O507 O 0.73043 0.6087 0.75519 0.0
O508 O 0.71312 0.58544 0.7242 0.0
O509 O 0.72665 0.57256 0.72747 0.0
C510 C 0.72048 0.5782 0.72024 0.0
C511 C 0.749 0.58377 0.76919 0.0
C512 C 0.72828 0.605 0.74537 0.0
C513 C 0.71003 0.57887 0.76392 0.0
O514 O 0.7178 0.58489 0.76841 0.0
O515 O 0.70967 0.57696 0.75315 0.0
O516 O 0.74477 0.59129 0.77608 0.0
O517 O 0.74449 0.58282 0.75925 0.0
O518 O 0.73431 0.45945 0.98452 0.0
Cd519 Cd 0.7504 0.46493 0.98823 0.0
Cd520 Cd 0.73731 0.4724 0.00573 0.0
O521 O 0.72316 0.46962 0.99586 0.0
O522 O 0.75844 0.4622 0.97329 0.0
O523 O 0.7547 0.47939 0.97985 0.0
C524 C 0.75811 0.47307 0.97155 0.0
C525 C 0.74662 0.48908 0.0103 0.0
C526 C 0.72445 0.46285 0.98755 0.0
C527 C 0.75367 0.45398 0.01115 0.0
O528 O 0.74394 0.45816 0.01356 0.0
O529 O 0.75883 0.45688 1.00195 0.0
O530 O 0.73803 0.48568 0.01638 0.0
O531 O 0.74907 0.48356 1.00114 0.0
O532 O 0.87905 0.48876 0.22936 0.0
Cd533 Cd 0.87168 0.50424 0.23328 0.0
Cd534 Cd 0.86706 0.49082 0.25188 0.0
O535 O 0.87183 0.47695 0.24224 0.0
O536 O 0.87143 0.51232 0.21801 0.0
O537 O 0.85595 0.50624 0.22682 0.0
C538 C 0.86063 0.51045 0.21777 0.0
C539 C 0.84922 0.49729 0.25753 0.0
C540 C 0.87761 0.47871 0.2332 0.0
C541 C 0.88341 0.50968 0.25521 0.0
O542 O 0.88027 0.49983 0.25845 0.0
O543 O 0.87969 0.51399 0.2459 0.0
O544 O 0.8545 0.48967 0.26357 0.0
O545 O 0.8537 0.50031 0.24792 0.0
O546 O 0.85124 0.62539 0.48269 0.0
Cd547 Cd 0.83653 0.61683 0.48614 0.0
Cd548 Cd 0.84961 0.61185 0.50406 0.0
O549 O 0.86346 0.61643 0.49389 0.0
O550 O 0.82862 0.61732 0.47102 0.0
O551 O 0.83606 0.60161 0.47841 0.0
C552 C 0.83156 0.60677 0.46979 0.0
C553 C 0.84142 0.59489 0.51001 0.0
C554 C 0.86139 0.62332 0.48571 0.0
C555 C 0.83069 0.62735 0.50854 0.0
O556 O 0.84101 0.62533 0.51098 0.0
O557 O 0.82638 0.62315 0.49955 0.0
O558 O 0.84968 0.59921 0.51574 0.0
O559 O 0.83903 0.59943 0.50027 0.0
O560 O 0.84726 0.71826 0.48036 0.0
Cd561 Cd 0.84335 0.72518 0.49583 0.0
Cd562 Cd 0.82558 0.73088 0.48275 0.0
O563 O 0.83585 0.72763 0.46865 0.0
O564 O 0.85827 0.7235 0.50394 0.0
O565 O 0.8512 0.74015 0.49856 0.0
C566 C 0.85966 0.73432 0.50253 0.0
C567 C 0.81932 0.74704 0.4922 0.0
C568 C 0.84426 0.72092 0.47033 0.0
C569 C 0.82101 0.71373 0.5002 0.0
O570 O 0.81868 0.71665 0.49005 0.0
O571 O 0.82986 0.71765 0.50502 0.0
O572 O 0.81377 0.74333 0.48352 0.0
O573 O 0.8291 0.74246 0.49436 0.0
O574 O 0.33483 0.85501 0.60628 0.0
Cd575 Cd 0.33833 0.86561 0.59304 0.0
Cd576 Cd 0.31341 0.85524 0.60537 0.0
O577 O 0.32307 0.85768 0.61995 0.0
O578 O 0.35374 0.87233 0.5943 0.0
O579 O 0.34968 0.85836 0.58245 0.0
C580 C 0.35724 0.86463 0.58725 0.0
C581 C 0.30943 0.8392 0.59482 0.0
C582 C 0.33306 0.85905 0.61607 0.0
C583 C 0.31413 0.87709 0.59016 0.0
O584 O 0.30912 0.87005 0.59682 0.0
O585 O 0.32481 0.87632 0.58769 0.0
O586 O 0.30244 0.84262 0.60269 0.0
O587 O 0.31917 0.84418 0.59389 0.0
O588 O 0.46597 0.10055 0.85106 0.0
Cd589 Cd 0.47419 0.09581 0.83644 0.0
Cd590 Cd 0.47856 0.07855 0.8505 0.0
O591 O 0.47512 0.08986 0.86364 0.0
O592 O 0.47476 0.11038 0.82725 0.0
O593 O 0.48986 0.10261 0.8354 0.0
C594 C 0.48531 0.11118 0.83014 0.0
C595 C 0.49479 0.07085 0.84207 0.0
C596 C 0.4684 0.09812 0.86131 0.0
C597 C 0.46236 0.07369 0.83283 0.0
O598 O 0.46439 0.07187 0.84328 0.0
O599 O 0.46706 0.08207 0.82762 0.0
O600 O 0.49052 0.0662 0.85118 0.0
O601 O 0.49072 0.08059 0.83886 0.0
O602 O 0.24635 0.22899 0.09932 0.0
Cd603 Cd 0.24052 0.2164 0.08934 0.0
Cd604 Cd 0.26723 0.22961 0.09744 0.0
O605 O 0.25841 0.22948 0.11283 0.0
O606 O 0.22515 0.21105 0.09423 0.0
O607 O 0.22808 0.22222 0.07917 0.0
C608 C 0.22101 0.21744 0.08622 0.0
C609 C 0.27366 0.24543 0.08753 0.0
C610 C 0.24838 0.22732 0.10977 0.0
C611 C 0.26427 0.20552 0.08462 0.0
O612 O 0.26917 0.21393 0.08935 0.0
O613 O 0.25337 0.20495 0.0837 0.0
O614 O 0.28012 0.24025 0.09482 0.0
O615 O 0.2633 0.24198 0.08647 0.0
O616 O 0.6278 0.4844 0.84683 0.0
Cd617 Cd 0.62139 0.48715 0.83086 0.0
Cd618 Cd 0.6128 0.50441 0.84297 0.0
O619 O 0.61568 0.49441 0.85729 0.0
O620 O 0.62368 0.47168 0.82379 0.0
O621 O 0.60676 0.47867 0.82833 0.0
C622 C 0.61288 0.47008 0.82515 0.0
C623 C 0.59579 0.50899 0.83405 0.0
C624 C 0.62356 0.48696 0.85646 0.0
C625 C 0.631 0.51014 0.82632 0.0
O626 O 0.62677 0.51246 0.83603 0.0
O627 O 0.62852 0.5008 0.82142 0.0
O628 O 0.59928 0.51502 0.84249 0.0
O629 O 0.60153 0.49996 0.83144 0.0
O630 O 0.73685 0.37476 0.98974 0.0
Cd631 Cd 0.74045 0.3691 0.0059 0.0
Cd632 Cd 0.7581 0.36136 0.99307 0.0
O633 O 0.74798 0.36399 0.97895 0.0
O634 O 0.72516 0.37113 0.01362 0.0
O635 O 0.73267 0.3543 0.00981 0.0
C636 C 0.72396 0.36023 0.01303 0.0
C637 C 0.76305 0.34467 0.00261 0.0
C638 C 0.73977 0.37104 0.98002 0.0
C639 C 0.76313 0.37995 0.00909 0.0
O640 O 0.76558 0.37566 0.99947 0.0
O641 O 0.75398 0.37715 0.01435 0.0
O642 O 0.76908 0.34812 0.99399 0.0
O643 O 0.75382 0.35019 0.00502 0.0
O644 O 0.46364 0.98433 0.73439 0.0
Cd645 Cd 0.47044 0.98747 0.74991 0.0
Cd646 Cd 0.47742 0.00568 0.73716 0.0
O647 O 0.47235 0.99655 0.72293 0.0
O648 O 0.46812 0.97232 0.75774 0.0
O649 O 0.48507 0.97885 0.75301 0.0
C650 C 0.47892 0.97051 0.75665 0.0
C651 C 0.49442 0.00977 0.74591 0.0
C652 C 0.46575 0.98811 0.72446 0.0
C653 C 0.46028 0.01077 0.75484 0.0
O654 O 0.46452 0.01403 0.7454 0.0
O655 O 0.46254 1.00084 0.75888 0.0
O656 O 0.49096 0.01595 0.7374 0.0
O657 O 0.48906 1.00045 0.74815 0.0
O658 O 0.11808 0.09788 0.23223 0.0
Cd659 Cd 0.11276 0.09354 0.24823 0.0
Cd660 Cd 0.10617 0.07537 0.23599 0.0
O661 O 0.10938 0.0853 0.22155 0.0
O662 O 0.11462 0.10824 0.25664 0.0
O663 O 0.09785 0.101 0.25268 0.0
C664 C 0.1037 0.10942 0.25639 0.0
C665 C 0.0898 0.06961 0.24541 0.0
C666 C 0.11538 0.09422 0.2225 0.0
C667 C 0.12501 0.07107 0.25188 0.0
O668 O 0.12019 0.06766 0.24292 0.0
O669 O 0.12235 0.08071 0.2562 0.0
O670 O 0.0934 0.06418 0.23651 0.0
O671 O 0.09469 0.07907 0.2479 0.0
C672 C 0.01274 0.32944 0.25757 0.0
C673 C 0.00302 0.32364 0.25392 0.0
C674 C 0.02259 0.32342 0.26066 0.0
C675 C 0.03505 0.29436 0.26561 0.0
H676 H 0.06011 0.3064 0.24764 0.0
C677 C 0.07134 0.26627 0.24757 0.0
C678 C 0.08197 0.27111 0.24499 0.0
C679 C 0.06254 0.27285 0.2523 0.0
C680 C 0.05336 0.30298 0.25296 0.0
H681 H 0.99561 0.3069 0.25208 0.0
H682 H 0.01271 0.29644 0.25748 0.0
H683 H 0.04293 0.31768 0.25006 0.0
H684 H 0.09199 0.28645 0.24632 0.0
H685 H 0.07679 0.29785 0.25492 0.0
H686 H 0.04544 0.27948 0.2682 0.0
C687 C 0.01279 0.30565 0.2579 0.0
C688 C 0.04344 0.30949 0.25435 0.0
C689 C 0.00294 0.31168 0.2548 0.0
C690 C 0.08389 0.28246 0.24812 0.0
C691 C 0.07511 0.28903 0.25295 0.0
C692 C 0.04504 0.28785 0.26427 0.0
C693 C 0.02293 0.31145 0.26022 0.0
C694 C 0.03404 0.30517 0.26045 0.0
C695 C 0.06417 0.28445 0.25467 0.0
C696 C 0.05423 0.29195 0.25766 0.0
H697 H 0.0131 0.33865 0.2571 0.0
H698 H 0.03016 0.32816 0.2627 0.0
H699 H 0.02803 0.29081 0.27046 0.0
H700 H 0.06954 0.25756 0.24527 0.0
H701 H 0.05426 0.269 0.2534 0.0
C702 C 0.06826 0.82661 0.5083 0.0
C703 C 0.06174 0.83512 0.50286 0.0
C704 C 0.06296 0.81725 0.51346 0.0
C705 C 0.03464 0.80385 0.51966 0.0
H706 H 0.04907 0.77785 0.50523 0.0
C707 C 0.00994 0.76712 0.50049 0.0
C708 C 0.01537 0.75659 0.49854 0.0
C709 C 0.01554 0.77577 0.50623 0.0
C710 C 0.04499 0.78486 0.50965 0.0
H711 H 0.04456 0.84127 0.49993 0.0
H712 H 0.03534 0.82492 0.50872 0.0
H713 H 0.05929 0.79551 0.50651 0.0
H714 H 0.03038 0.74642 0.50228 0.0
H715 H 0.04004 0.76142 0.5126 0.0
H716 H 0.02008 0.79321 0.52225 0.0
C717 C 0.04452 0.82542 0.50908 0.0
C718 C 0.0509 0.79507 0.51038 0.0
C719 C 0.04983 0.83484 0.50401 0.0
C720 C 0.02601 0.75448 0.50353 0.0
C721 C 0.03159 0.76313 0.50937 0.0
C722 C 0.02872 0.79356 0.51897 0.0
C723 C 0.05105 0.81617 0.51318 0.0
C724 C 0.04565 0.80484 0.51498 0.0
C725 C 0.02668 0.77407 0.51024 0.0
C726 C 0.03366 0.78407 0.51352 0.0
H727 H 0.07746 0.82666 0.5077 0.0
H728 H 0.06823 0.81044 0.51684 0.0
H729 H 0.03041 0.81115 0.52341 0.0
H730 H 1.0017 0.76901 0.49684 0.0
H731 H 0.01145 0.78405 0.50667 0.0
C732 C 0.58304 0.77352 0.74836 0.0
C733 C 0.58277 0.76164 0.74713 0.0
C734 C 0.57436 0.7792 0.75432 0.0
C735 C 0.54403 0.77475 0.75922 0.0
H736 H 0.54528 0.80488 0.77231 0.0
C737 C 0.50407 0.80214 0.75906 0.0
C738 C 0.50592 0.81288 0.75404 0.0
C739 C 0.51318 0.79584 0.76354 0.0
C740 C 0.54477 0.79645 0.76871 0.0
H741 H 0.57405 0.74626 0.75248 0.0
H742 H 0.55911 0.75612 0.76312 0.0
H743 H 0.56269 0.79345 0.7706 0.0
H744 H 0.51852 0.826 0.75106 0.0
H745 H 0.53434 0.81501 0.75856 0.0
H746 H 0.52636 0.7779 0.75662 0.0
C747 C 0.5658 0.76111 0.75917 0.0
C748 C 0.55475 0.78989 0.76774 0.0
C749 C 0.57442 0.75545 0.75313 0.0
C750 C 0.5168 0.81771 0.75477 0.0
C751 C 0.52592 0.81138 0.75915 0.0
C752 C 0.53409 0.78129 0.76014 0.0
C753 C 0.56528 0.77308 0.75925 0.0
C754 C 0.55456 0.77912 0.76261 0.0
C755 C 0.52434 0.80012 0.763 0.0
C756 C 0.53438 0.7924 0.76451 0.0
H757 H 0.58936 0.77855 0.74385 0.0
H758 H 0.57426 0.78842 0.75417 0.0
H759 H 0.54352 0.76659 0.75505 0.0
H760 H 0.49577 0.79822 0.75878 0.0
H761 H 0.51159 0.78732 0.76675 0.0
C762 C 0.53454 0.25229 0.00981 0.0
C763 C 0.52275 0.25216 0.00792 0.0
C764 C 0.53963 0.26187 0.01452 0.0
C765 C 0.53379 0.2924 0.01362 0.0
H766 H 0.56381 0.29417 0.02682 0.0
C767 C 0.55966 0.33238 0.00607 0.0
C768 C 0.57053 0.32999 1.00155 0.0
C769 C 0.55366 0.32398 0.01209 0.0
C770 C 0.5554 0.29384 0.02317 0.0
H771 H 0.50686 0.26114 0.01112 0.0
H772 H 0.51569 0.27764 0.01972 0.0
H773 H 0.55305 0.27649 0.02849 0.0
H774 H 0.58411 0.31737 1.0009 0.0
H775 H 0.5736 0.30274 0.01109 0.0
H776 H 0.53629 0.30939 0.00768 0.0
C777 C 0.52108 0.27058 0.01714 0.0
C778 C 0.54922 0.28371 0.02414 0.0
C779 C 0.516 0.26106 0.0123 0.0
C780 C 0.57571 0.31948 0.0042 0.0
C781 C 0.56968 0.31106 0.01012 0.0
C782 C 0.53993 0.30248 0.01264 0.0
C783 C 0.53301 0.27143 0.01756 0.0
C784 C 0.53851 0.28273 0.01899 0.0
C785 C 0.55835 0.31301 0.01362 0.0
C786 C 0.551 0.30321 0.01701 0.0
H787 H 0.53999 0.24555 0.00657 0.0
H788 H 0.54884 0.26216 0.01473 0.0
H789 H 0.52567 0.29198 0.00936 0.0
H790 H 0.55547 0.34044 0.0043 0.0
H791 H 0.54506 0.32589 0.01494 0.0
C792 C 0.00787 0.77937 0.33403 0.0
C793 C 0.00761 0.76752 0.33576 0.0
C794 C 0.01722 0.78444 0.32858 0.0
C795 C 0.04764 0.77831 0.32628 0.0
H796 H 0.04855 0.808 0.31164 0.0
C797 C 0.08829 0.80353 0.32879 0.0
C798 C 0.08633 0.81444 0.33326 0.0
C799 C 0.07946 0.79763 0.32359 0.0
C800 C 0.04846 0.79968 0.31568 0.0
H801 H 0.01618 0.75159 0.33186 0.0
H802 H 0.03228 0.76037 0.32208 0.0
H803 H 0.03064 0.79756 0.31258 0.0
H804 H 0.07407 0.82832 0.33434 0.0
H805 H 0.05871 0.81803 0.32561 0.0
H806 H 0.06515 0.78061 0.33007 0.0
C807 C 0.02548 0.76581 0.32525 0.0
C808 C 0.03819 0.79369 0.31622 0.0
C809 C 0.01621 0.76076 0.33079 0.0
C810 C 0.07584 0.81986 0.33112 0.0
C811 C 0.06699 0.81394 0.32603 0.0
C812 C 0.05785 0.78428 0.32579 0.0
C813 C 0.02643 0.77773 0.32467 0.0
C814 C 0.03758 0.78311 0.32188 0.0
C815 C 0.06848 0.8025 0.32286 0.0
C816 C 0.05833 0.79523 0.32087 0.0
H817 H 1.00139 0.78482 0.33777 0.0
H818 H 0.01765 0.79364 0.32833 0.0
H819 H 0.04752 0.77028 0.33088 0.0
H820 H 0.09632 0.79916 0.33016 0.0
H821 H 0.08102 0.78896 0.32091 0.0
C822 C 0.54069 0.7596 0.5794 0.0
C823 C 0.55235 0.75756 0.58111 0.0
C824 C 0.53694 0.77002 0.57489 0.0
C825 C 0.54653 0.79918 0.57661 0.0
H826 H 0.51742 0.80581 0.56268 0.0
C827 C 0.52443 0.84049 0.58783 0.0
C828 C 0.5133 0.8386 0.59184 0.0
C829 C 0.5298 0.83253 0.58073 0.0
C830 C 0.52561 0.80414 0.56655 0.0
H831 H 0.56929 0.76416 0.57798 0.0
H832 H 0.56276 0.78224 0.56992 0.0
H833 H 0.52611 0.78697 0.56046 0.0
H834 H 0.49858 0.82769 0.59034 0.0
H835 H 0.50796 0.81376 0.57842 0.0
H836 H 0.54574 0.81587 0.58348 0.0
C837 C 0.55649 0.77594 0.57236 0.0
C838 C 0.53059 0.79334 0.56524 0.0
C839 C 0.56023 0.76555 0.57694 0.0
C840 C 0.50722 0.82934 0.58754 0.0
C841 C 0.51262 0.82134 0.58057 0.0
C842 C 0.54153 0.8099 0.57799 0.0
C843 C 0.5448 0.77857 0.57195 0.0
C844 C 0.54087 0.79059 0.57069 0.0
C845 C 0.5242 0.82247 0.57764 0.0
C846 C 0.53074 0.81236 0.57345 0.0
H847 H 0.5344 0.75359 0.58247 0.0
H848 H 0.52788 0.77174 0.57471 0.0
H849 H 0.55438 0.79737 0.58105 0.0
H850 H 0.52929 0.84763 0.59085 0.0
H851 H 0.53862 0.83387 0.57834 0.0
C852 C 0.58661 0.30363 0.83889 0.0
C853 C 0.58678 0.31537 0.84108 0.0
C854 C 0.57742 0.29884 0.83318 0.0
C855 C 0.54704 0.30479 0.83098 0.0
H856 H 0.54674 0.27657 0.81414 0.0
C857 C 0.50655 0.27917 0.83147 0.0
C858 C 0.5085 0.26784 0.83494 0.0
C859 C 0.51542 0.28562 0.82675 0.0
C860 C 0.54665 0.28448 0.81882 0.0
H861 H 0.57819 0.33147 0.83782 0.0
H862 H 0.56234 0.32317 0.82765 0.0
H863 H 0.56456 0.28696 0.81609 0.0
H864 H 0.52077 0.25394 0.83461 0.0
H865 H 0.53618 0.26514 0.82678 0.0
H866 H 0.52946 0.30205 0.83445 0.0
C867 C 0.5691 0.3176 0.83062 0.0
C868 C 0.55687 0.29043 0.81991 0.0
C869 C 0.57823 0.32236 0.83638 0.0
C870 C 0.51901 0.26269 0.83218 0.0
C871 C 0.5279 0.26916 0.82761 0.0
C872 C 0.53689 0.29882 0.82997 0.0
C873 C 0.56827 0.30573 0.8295 0.0
C874 C 0.55725 0.30048 0.82633 0.0
C875 C 0.52643 0.28089 0.82553 0.0
C876 C 0.53661 0.28837 0.82422 0.0
H877 H 0.59305 0.29801 0.84241 0.0
H878 H 0.57705 0.28966 0.8325 0.0
H879 H 0.547 0.31239 0.83614 0.0
H880 H 0.49851 0.28336 0.83332 0.0
H881 H 0.51386 0.29453 0.82487 0.0
C882 C 0.01525 0.32082 0.06615 0.0
C883 C 0.02272 0.32917 0.0701 0.0
C884 C 0.0195 0.31054 0.06189 0.0
C885 C 0.04646 0.29395 0.05625 0.0
H886 H 0.03129 0.27151 0.07527 0.0
C887 C 0.06992 0.25945 0.08126 0.0
C888 C 0.06407 0.24981 0.0853 0.0
C889 C 0.0646 0.26726 0.07398 0.0
C890 C 0.03554 0.27746 0.06961 0.0
H891 H 0.04046 0.33398 0.07104 0.0
H892 H 0.04786 0.31607 0.06388 0.0
H893 H 0.02202 0.2895 0.07147 0.0
H894 H 0.04859 0.24007 0.0837 0.0
H895 H 0.03939 0.25356 0.07075 0.0
H896 H 0.06031 0.28201 0.05501 0.0
C897 C 0.03872 0.31736 0.06403 0.0
C898 C 0.03017 0.28787 0.0674 0.0
C899 C 0.03446 0.32768 0.06819 0.0
C900 C 0.05328 0.24749 0.08087 0.0
C901 C 0.04797 0.25528 0.0735 0.0
C902 C 0.05184 0.28347 0.05844 0.0
C903 C 0.0313 0.30838 0.06159 0.0
C904 C 0.03577 0.29647 0.06115 0.0
C905 C 0.05332 0.26558 0.0705 0.0
C906 C 0.04666 0.27531 0.06561 0.0
H907 H 0.00613 0.32178 0.06732 0.0
H908 H 0.01354 0.30392 0.05975 0.0
H909 H 0.05093 0.30029 0.05123 0.0
H910 H 0.0783 0.26146 0.08442 0.0
H911 H 0.06902 0.27508 0.07192 0.0
C912 C 0.25437 0.07864 0.26398 0.0
C913 C 0.25015 0.0889 0.26853 0.0
C914 C 0.2593 0.07034 0.27104 0.0
C915 C 0.25649 0.06105 0.30084 0.0
H916 H 0.27686 0.0368 0.29111 0.0
C917 C 0.25846 0.01995 0.32682 0.0
C918 C 0.25668 0.01015 0.32029 0.0
C919 C 0.26196 0.03011 0.32162 0.0
C920 C 0.27118 0.04352 0.29397 0.0
H921 H 0.24906 0.09902 0.28385 0.0
H922 H 0.25799 0.0847 0.2961 0.0
H923 H 0.27547 0.05433 0.27979 0.0
H924 H 0.25837 0.00305 0.30339 0.0
H925 H 0.26434 0.02075 0.29431 0.0
H926 H 0.25182 0.05016 0.31471 0.0
C927 C 0.25713 0.0829 0.28713 0.0
C928 C 0.27037 0.05358 0.28748 0.0
C929 C 0.25213 0.09118 0.28007 0.0
C930 C 0.25966 0.01042 0.30868 0.0
C931 C 0.26309 0.02062 0.30345 0.0
C932 C 0.25732 0.05105 0.30732 0.0
C933 C 0.26021 0.07213 0.28282 0.0
C934 C 0.26276 0.06235 0.29066 0.0
C935 C 0.2637 0.03073 0.30976 0.0
C936 C 0.26443 0.04201 0.30382 0.0
H937 H 0.25304 0.07659 0.25512 0.0
H938 H 0.26153 0.06219 0.26737 0.0
H939 H 0.25037 0.06746 0.30349 0.0
H940 H 0.25634 0.02001 0.33582 0.0
H941 H 0.26263 0.03765 0.3268 0.0
C942 C 0.33364 0.00555 0.55564 0.0
C943 C 0.33423 0.00385 0.56749 0.0
C944 C 0.32389 0.0104 0.55074 0.0
C945 C 0.29341 0.01094 0.55728 0.0
H946 H 0.29122 0.02632 0.52805 0.0
C947 C 0.25136 0.01005 0.53333 0.0
C948 C 0.25255 0.00658 0.52195 0.0
C949 C 0.26075 0.01417 0.53926 0.0
C950 C 0.29167 0.02202 0.53622 0.0
H951 H 0.32568 0.00727 0.58355 0.0
H952 H 0.30885 0.01595 0.57503 0.0
H953 H 0.30942 0.02573 0.53796 0.0
H954 H 0.26424 0.00587 0.50757 0.0
H955 H 0.28052 0.0128 0.51787 0.0
H956 H 0.27594 0.00665 0.55535 0.0
C957 C 0.31575 0.01322 0.56949 0.0
C958 C 0.30211 0.0217 0.54192 0.0
C959 C 0.32546 0.00834 0.57438 0.0
C960 C 0.26302 0.0084 0.51634 0.0
C961 C 0.2724 0.01244 0.52228 0.0
C962 C 0.28303 0.01121 0.55159 0.0
C963 C 0.31456 0.0137 0.55758 0.0
C964 C 0.30319 0.01588 0.55238 0.0
C965 C 0.27154 0.01485 0.53397 0.0
C966 C 0.28206 0.01647 0.54082 0.0
H967 H 0.34023 1.0022 0.55006 0.0
H968 H 0.32331 0.01062 0.54154 0.0
H969 H 0.29392 0.0062 0.56521 0.0
H970 H 0.24341 0.00885 0.5379 0.0
H971 H 0.25968 0.01624 0.54817 0.0
C972 C 0.3271 0.0087 0.77963 0.0
C973 C 0.33167 0.00978 0.76858 0.0
C974 C 0.32293 0.01828 0.78539 0.0
C975 C 0.31728 0.04979 0.7825 0.0
H976 H 0.33123 0.05032 0.81224 0.0
C977 C 0.3347 0.09019 0.80351 0.0
C978 C 0.33567 0.09045 0.81543 0.0
C979 C 0.32973 0.08086 0.79819 0.0
C980 C 0.327 0.05033 0.80409 0.0
H981 H 0.33418 0.02155 0.75444 0.0
H982 H 0.32716 0.03817 0.76448 0.0
H983 H 0.33026 0.03258 0.80206 0.0
H984 H 0.33093 0.08182 0.83114 0.0
H985 H 0.32198 0.06576 0.82189 0.0
H986 H 0.3146 0.06778 0.78439 0.0
C987 C 0.32672 0.02998 0.76876 0.0
C988 C 0.32643 0.04007 0.79821 0.0
C989 C 0.3308 0.0204 0.76299 0.0
C990 C 0.33043 0.08183 0.82193 0.0
C991 C 0.32539 0.07255 0.81662 0.0
C992 C 0.31788 0.06011 0.78839 0.0
C993 C 0.3233 0.02916 0.78025 0.0
C994 C 0.32186 0.03969 0.7872 0.0
C995 C 0.32555 0.07164 0.80469 0.0
C996 C 0.32303 0.06055 0.79914 0.0
H997 H 0.32753 1.00064 0.78416 0.0
H998 H 0.32005 0.01727 0.79412 0.0
H999 H 0.31354 0.04981 0.77411 0.0
H1000 H 0.33866 0.09668 0.79824 0.0
H1001 H 0.33003 0.08047 0.78899 0.0
C1002 C 0.24952 0.08936 0.05265 0.0
C1003 C 0.24943 0.09122 0.06445 0.0
C1004 C 0.25806 0.08265 0.04765 0.0
C1005 C 0.28789 0.07646 0.05364 0.0
H1006 H 0.2872 0.0625 0.02389 0.0
C1007 C 0.32842 0.07591 0.02776 0.0
C1008 C 0.32679 0.08112 0.01708 0.0
C1009 C 0.31922 0.0711 0.03366 0.0
C1010 C 0.28756 0.06631 0.03224 0.0
H1011 H 0.25727 0.0863 0.08041 0.0
H1012 H 0.27192 0.07431 0.07174 0.0
H1013 H 0.26947 0.06524 0.03461 0.0
H1014 H 0.31464 0.08381 0.0035 0.0
H1015 H 0.29866 0.07578 0.01382 0.0
H1016 H 0.30573 0.07828 0.05109 0.0
C1017 C 0.26566 0.07835 0.06628 0.0
C1018 C 0.27738 0.06788 0.03838 0.0
C1019 C 0.25721 0.08516 0.07127 0.0
C1020 C 0.31617 0.08001 0.01179 0.0
C1021 C 0.30696 0.07532 0.01773 0.0
C1022 C 0.298 0.07492 0.04752 0.0
C1023 C 0.26662 0.07758 0.05437 0.0
C1024 C 0.27738 0.0734 0.04896 0.0
C1025 C 0.3082 0.07152 0.02905 0.0
C1026 C 0.29794 0.07028 0.03652 0.0
H1027 H 0.24364 0.09391 0.04717 0.0
H1028 H 0.25851 0.08229 0.03845 0.0
H1029 H 0.28827 0.08089 0.06167 0.0
H1030 H 0.33654 0.07645 0.03201 0.0
H1031 H 0.32057 0.06788 0.04222 0.0
C1032 C 0.2902 0.25577 0.07887 0.0
C1033 C 0.2784 0.254 0.0795 0.0
C1034 C 0.29499 0.26163 0.06961 0.0
C1035 C 0.28866 0.26498 0.03957 0.0
H1036 H 0.31797 0.27986 0.03876 0.0
C1037 C 0.31487 0.26122 0.99955 0.0
C1038 C 0.32565 0.25657 1.00195 0.0
C1039 C 0.30876 0.2671 0.00796 0.0
C1040 C 0.30974 0.27578 0.03881 0.0
H1041 H 0.26224 0.25813 0.07162 0.0
H1042 H 0.27058 0.26849 0.05555 0.0
H1043 H 0.30732 0.2786 0.05669 0.0
H1044 H 0.33918 0.256 0.01438 0.0
H1045 H 0.32851 0.26581 0.02904 0.0
H1046 H 0.29132 0.26134 0.02204 0.0
C1047 C 0.27617 0.26511 0.06206 0.0
C1048 C 0.30364 0.27507 0.04909 0.0
C1049 C 0.27139 0.2592 0.0713 0.0
C1050 C 0.33082 0.25931 0.0123 0.0
C1051 C 0.32467 0.26504 0.02075 0.0
C1052 C 0.29476 0.26562 0.02935 0.0
C1053 C 0.28806 0.26588 0.06081 0.0
C1054 C 0.29325 0.26921 0.04968 0.0
C1055 C 0.31326 0.26829 0.01895 0.0
C1056 C 0.30564 0.27055 0.02893 0.0
H1057 H 0.29584 0.25192 0.08508 0.0
H1058 H 0.30417 0.26199 0.06892 0.0
H1059 H 0.28076 0.26029 0.03969 0.0
H1060 H 0.31071 0.25944 0.99157 0.0
H1061 H 0.30014 0.26985 0.00614 0.0
C1062 C 0.7601 0.33164 0.01925 0.0
C1063 C 0.7674 0.33605 0.01078 0.0
C1064 C 0.76453 0.32631 0.02894 0.0
C1065 C 0.79141 0.31683 0.04325 0.0
H1066 H 0.77779 0.33247 0.06896 0.0
C1067 C 0.8166 0.33216 0.08136 0.0
C1068 C 0.81083 0.33519 0.09145 0.0
C1069 C 0.81081 0.32692 0.07252 0.0
C1070 C 0.78158 0.32769 0.06204 0.0
H1071 H 0.785 0.33725 0.00525 0.0
H1072 H 0.79276 0.32816 0.02224 0.0
H1073 H 0.7683 0.33288 0.05086 0.0
H1074 H 0.79495 0.33349 0.10084 0.0
H1075 H 0.78497 0.32393 0.08559 0.0
H1076 H 0.80499 0.31209 0.05444 0.0
C1077 C 0.7836 0.3287 0.02139 0.0
C1078 C 0.7761 0.32796 0.05156 0.0
C1079 C 0.77915 0.33394 0.01163 0.0
C1080 C 0.79961 0.33143 0.09311 0.0
C1081 C 0.79384 0.32606 0.0843 0.0
C1082 C 0.79689 0.3165 0.05381 0.0
C1083 C 0.77637 0.32539 0.03044 0.0
C1084 C 0.78113 0.3229 0.04192 0.0
C1085 C 0.79915 0.32446 0.07361 0.0
C1086 C 0.79226 0.32232 0.06323 0.0
H1087 H 0.75098 0.33301 0.01877 0.0
H1088 H 0.7587 0.3236 0.03561 0.0
H1089 H 0.79543 0.3127 0.03604 0.0
H1090 H 0.82529 0.33481 0.07983 0.0
H1091 H 0.81525 0.32583 0.06449 0.0
C1092 C 0.01011 0.53612 0.25533 0.0
C1093 C 0.0048 0.52556 0.25704 0.0
C1094 C 0.01599 0.54125 0.26423 0.0
C1095 C 0.02457 0.53718 0.29487 0.0
H1096 H 0.01186 0.56759 0.29755 0.0
C1097 C 0.00543 0.55542 0.33549 0.0
C1098 C 0.00382 0.56726 0.33631 0.0
C1099 C 0.01179 0.55086 0.32647 0.0
C1100 C 0.01582 0.55925 0.29694 0.0
H1101 H 0.00267 0.51149 0.26894 0.0
H1102 H 0.01254 0.52045 0.2844 0.0
H1103 H 0.01175 0.55828 0.27936 0.0
H1104 H 0.00916 0.58361 0.32953 0.0
H1105 H 0.02051 0.57566 0.31401 0.0
H1106 H 0.02782 0.53796 0.31279 0.0
C1107 C 0.01232 0.52484 0.27626 0.0
C1108 C 0.01576 0.55386 0.28641 0.0
C1109 C 0.00654 0.5197 0.26737 0.0
C1110 C 0.01009 0.57444 0.32901 0.0
C1111 C 0.01652 0.56988 0.32005 0.0
C1112 C 0.02458 0.54258 0.30547 0.0
C1113 C 0.01658 0.53594 0.27502 0.0
C1114 C 0.01962 0.54255 0.28534 0.0
C1115 C 0.01672 0.55806 0.31818 0.0
C1116 C 0.01971 0.55348 0.30673 0.0
H1117 H 0.00904 0.54081 0.24743 0.0
H1118 H 0.01942 0.54968 0.26286 0.0
H1119 H 0.02786 0.52856 0.29431 0.0
H1120 H 1.00077 0.54965 0.34101 0.0
H1121 H 0.01177 0.54172 0.32536 0.0
C1122 C 0.8201 0.75825 0.51016 0.0
C1123 C 0.81377 0.7544 0.50087 0.0
C1124 C 0.81461 0.76204 0.52006 0.0
C1125 C 0.78635 0.76891 0.53339 0.0
H1126 H 0.79913 0.75261 0.55917 0.0
C1127 C 0.75984 0.75411 0.57218 0.0
C1128 C 0.76529 0.75169 0.58256 0.0
C1129 C 0.76597 0.7585 0.56289 0.0
C1130 C 0.79553 0.75751 0.55221 0.0
H1131 H 0.79671 0.7526 0.4943 0.0
H1132 H 0.78713 0.75913 0.51157 0.0
H1133 H 0.80951 0.75317 0.54131 0.0
H1134 H 0.78113 0.75332 0.59168 0.0
H1135 H 0.79171 0.76139 0.57563 0.0
H1136 H 0.77216 0.77293 0.54429 0.0
C1137 C 0.79634 0.75927 0.51122 0.0
C1138 C 0.80152 0.75781 0.54188 0.0
C1139 C 0.80185 0.75552 0.50128 0.0
C1140 C 0.77668 0.75498 0.5838 0.0
C1141 C 0.78279 0.75947 0.57452 0.0
C1142 C 0.78036 0.76867 0.54378 0.0
C1143 C 0.80266 0.76202 0.52093 0.0
C1144 C 0.79691 0.76328 0.53225 0.0
C1145 C 0.77768 0.7607 0.56376 0.0
C1146 C 0.78474 0.7627 0.55327 0.0
H1147 H 0.8293 0.75759 0.5101 0.0
H1148 H 0.81974 0.76436 0.52727 0.0
H1149 H 0.7826 0.77331 0.52618 0.0
H1150 H 0.75106 0.75174 0.57091 0.0
H1151 H 0.76168 0.75929 0.5548 0.0
C1152 C 0.07849 0.05282 0.25228 0.0
C1153 C 0.08208 0.06408 0.25384 0.0
C1154 C 0.07421 0.04644 0.26147 0.0
C1155 C 0.0662 0.04782 0.29255 0.0
H1156 H 0.08212 0.01881 0.29358 0.0
C1157 C 0.08259 0.02639 0.33361 0.0
C1158 C 0.08449 0.01455 0.33375 0.0
C1159 C 0.07771 0.03172 0.3241 0.0
C1160 C 0.07734 0.02673 0.29342 0.0
H1161 H 0.08278 0.07785 0.266 0.0
H1162 H 0.07556 0.06676 0.28196 0.0
H1163 H 0.08169 0.02959 0.27597 0.0
H1164 H 0.08138 0.99889 0.32469 0.0
H1165 H 0.0726 0.00814 0.30829 0.0
H1166 H 0.06242 0.04512 0.31028 0.0
C1167 C 0.07597 0.06279 0.27369 0.0
C1168 C 0.07708 0.03296 0.28324 0.0
C1169 C 0.08017 0.06917 0.26449 0.0
C1170 C 0.08016 0.00804 0.3248 0.0
C1171 C 0.07523 0.01337 0.31534 0.0
C1172 C 0.06649 0.04158 0.30278 0.0
C1173 C 0.07348 0.05117 0.27244 0.0
C1174 C 0.0718 0.04375 0.28272 0.0
C1175 C 0.07456 0.02532 0.31457 0.0
C1176 C 0.07235 0.03109 0.30342 0.0
H1177 H 0.07975 0.04865 0.24417 0.0
H1178 H 0.07208 0.03761 0.26011 0.0
H1179 H 0.06189 0.056 0.29244 0.0
H1180 H 0.08581 0.03167 0.34035 0.0
H1181 H 0.07734 0.04094 0.32385 0.0
C1182 C 0.31331 0.82826 0.57701 0.0
C1183 C 0.30567 0.83145 0.58572 0.0
C1184 C 0.3093 0.82397 0.56675 0.0
C1185 C 0.28329 0.81484 0.55123 0.0
H1186 H 0.29596 0.83374 0.52714 0.0
C1187 C 0.25744 0.83152 0.51353 0.0
C1188 C 0.26304 0.83556 0.50368 0.0
C1189 C 0.26356 0.82626 0.52229 0.0
C1190 C 0.29247 0.8281 0.53359 0.0
H1191 H 0.28792 0.83144 0.59095 0.0
H1192 H 0.28091 0.82407 0.57305 0.0
H1193 H 0.3052 0.83289 0.54541 0.0
H1194 H 0.2792 0.83582 0.49465 0.0
H1195 H 0.28983 0.82624 0.50975 0.0
H1196 H 0.27027 0.81041 0.53945 0.0
C1197 C 0.29002 0.82484 0.57412 0.0
C1198 C 0.29779 0.82763 0.54416 0.0
C1199 C 0.29404 0.8291 0.58441 0.0
C1200 C 0.27464 0.83293 0.50218 0.0
C1201 C 0.28076 0.82755 0.51091 0.0
C1202 C 0.27799 0.81523 0.54059 0.0
C1203 C 0.29755 0.82281 0.56496 0.0
C1204 C 0.29307 0.82132 0.55324 0.0
C1205 C 0.27543 0.82479 0.52136 0.0
C1206 C 0.28227 0.82222 0.53175 0.0
H1207 H 0.32234 0.82984 0.57779 0.0
H1208 H 0.31535 0.82224 0.55996 0.0
H1209 H 0.27952 0.80977 0.558 0.0
H1210 H 0.24848 0.83331 0.51495 0.0
H1211 H 0.25909 0.82428 0.53015 0.0
C1212 C 0.57975 0.56406 0.75707 0.0
C1213 C 0.58306 0.55867 0.7469 0.0
C1214 C 0.57452 0.55787 0.76584 0.0
C1215 C 0.57621 0.5283 0.7757 0.0
H1216 H 0.56149 0.54088 0.80251 0.0
C1217 C 0.5824 0.50588 0.81803 0.0
C1218 C 0.58678 0.51317 0.82631 0.0
C1219 C 0.57654 0.51032 0.80867 0.0
C1220 C 0.56554 0.5372 0.79507 0.0
H1221 H 0.58166 0.54312 0.73723 0.0
H1222 H 0.57207 0.53246 0.75234 0.0
H1223 H 0.5601 0.55098 0.78427 0.0
H1224 H 0.5874 0.53068 0.83192 0.0
H1225 H 0.57741 0.53846 0.81549 0.0
H1226 H 0.58213 0.51486 0.78647 0.0
C1227 C 0.57403 0.54132 0.75377 0.0
C1228 C 0.56476 0.54299 0.78461 0.0
C1229 C 0.57942 0.54748 0.74503 0.0
C1230 C 0.58414 0.52485 0.82567 0.0
C1231 C 0.57837 0.52931 0.81623 0.0
C1232 C 0.57693 0.52251 0.78609 0.0
C1233 C 0.57232 0.54619 0.76458 0.0
C1234 C 0.57051 0.53886 0.77489 0.0
C1235 C 0.57506 0.52215 0.80732 0.0
C1236 C 0.572 0.5271 0.79601 0.0
H1237 H 0.58227 0.57273 0.75875 0.0
H1238 H 0.5733 0.56201 0.77397 0.0
H1239 H 0.58094 0.52487 0.76854 0.0
H1240 H 0.58417 0.49682 0.81836 0.0
H1241 H 0.57385 0.50454 0.8021 0.0
C1242 C 0.75377 0.49205 0.80439 0.0
C1243 C 0.7497 0.49385 0.81552 0.0
C1244 C 0.76002 0.5005 0.79871 0.0
C1245 C 0.7724 0.52978 0.80204 0.0
H1246 H 0.7577 0.53497 0.77305 0.0
C1247 C 0.759 0.57354 0.78499 0.0
C1248 C 0.75718 0.57501 0.77326 0.0
C1249 C 0.76357 0.56331 0.78919 0.0
C1250 C 0.76219 0.53361 0.78096 0.0
H1251 H 0.75015 0.50536 0.82986 0.0
H1252 H 0.7607 0.52009 0.81995 0.0
H1253 H 0.7559 0.5167 0.7824 0.0
H1254 H 0.7602 0.56762 0.75664 0.0
H1255 H 0.76839 0.54992 0.76396 0.0
H1256 H 0.77801 0.54709 0.80084 0.0
C1257 C 0.75921 0.51219 0.81555 0.0
C1258 C 0.76116 0.52304 0.78637 0.0
C1259 C 0.75305 0.50373 0.82124 0.0
C1260 C 0.76132 0.56667 0.76574 0.0
C1261 C 0.76596 0.55649 0.76994 0.0
C1262 C 0.77339 0.54041 0.79663 0.0
C1263 C 0.76225 0.51095 0.80401 0.0
C1264 C 0.76583 0.52112 0.7972 0.0
C1265 C 0.76647 0.55441 0.78174 0.0
C1266 C 0.7679 0.54259 0.78624 0.0
H1267 H 0.75145 0.48448 0.79978 0.0
H1268 H 0.76249 0.49912 0.78992 0.0
H1269 H 0.77632 0.52853 0.81027 0.0
H1270 H 0.75595 0.57981 0.79101 0.0
H1271 H 0.76382 0.56204 0.79833 0.0
C1272 C 0.76356 0.50153 0.00749 0.0
C1273 C 0.75468 0.49764 0.01458 0.0
C1274 C 0.77301 0.5069 0.01211 0.0
C1275 C 0.78561 0.51788 0.03901 0.0
H1276 H 0.81239 0.50176 0.028 0.0
C1277 C 0.82306 0.50506 0.0672 0.0
C1278 C 0.83358 0.50212 0.06217 0.0
C1279 C 0.81424 0.50954 0.06058 0.0
C1280 C 0.80514 0.50665 0.03105 0.0
H1281 H 0.74821 0.49738 0.03191 0.0
H1282 H 0.76474 0.50658 0.04001 0.0
H1283 H 0.79481 0.50053 0.01764 0.0
H1284 H 0.84362 0.50314 0.04662 0.0
H1285 H 0.82835 0.51133 0.03516 0.0
H1286 H 0.79595 0.52358 0.05275 0.0
C1287 C 0.76441 0.50558 0.03086 0.0
C1288 C 0.79498 0.50592 0.02507 0.0
C1289 C 0.75491 0.50027 0.02622 0.0
C1290 C 0.83557 0.50517 0.05074 0.0
C1291 C 0.82676 0.50975 0.04413 0.0
C1292 C 0.79585 0.51867 0.04499 0.0
C1293 C 0.77383 0.50842 0.02394 0.0
C1294 C 0.78497 0.51119 0.02917 0.0
C1295 C 0.81577 0.51129 0.04881 0.0
C1296 C 0.80565 0.51271 0.04131 0.0
H1297 H 0.76359 0.49975 0.99845 0.0
H1298 H 0.77999 0.50924 0.00649 0.0
H1299 H 0.77811 0.52218 0.04231 0.0
H1300 H 0.82126 0.50294 0.07602 0.0
H1301 H 0.80595 0.5106 0.06455 0.0
C1302 C 0.82579 0.5859 0.29268 0.0
C1303 C 0.83028 0.58517 0.30371 0.0
C1304 C 0.82145 0.57621 0.28746 0.0
C1305 C 0.81614 0.54484 0.2919 0.0
H1306 H 0.83074 0.54304 0.26226 0.0
C1307 C 0.83808 0.50491 0.27406 0.0
C1308 C 0.83958 0.50399 0.26222 0.0
C1309 C 0.83168 0.51392 0.27861 0.0
C1310 C 0.82632 0.54337 0.27038 0.0
H1311 H 0.83248 0.57405 0.31838 0.0
H1312 H 0.82533 0.55721 0.30923 0.0
H1313 H 0.8287 0.56128 0.27133 0.0
H1314 H 0.83429 0.51078 0.24587 0.0
H1315 H 0.82289 0.52627 0.2538 0.0
H1316 H 0.81455 0.52666 0.29115 0.0
C1317 C 0.825 0.56519 0.30457 0.0
C1318 C 0.82511 0.55392 0.27562 0.0
C1319 C 0.82919 0.57489 0.30983 0.0
C1320 C 0.83342 0.51137 0.25504 0.0
C1321 C 0.82695 0.5203 0.25958 0.0
C1322 C 0.81742 0.53422 0.28666 0.0
C1323 C 0.82167 0.56557 0.2931 0.0
C1324 C 0.82041 0.55477 0.28664 0.0
C1325 C 0.8266 0.5221 0.2714 0.0
C1326 C 0.8229 0.53333 0.276 0.0
H1327 H 0.82635 0.59374 0.28779 0.0
H1328 H 0.81862 0.57692 0.27873 0.0
H1329 H 0.81227 0.54518 0.30028 0.0
H1330 H 0.84272 0.49936 0.27982 0.0
H1331 H 0.83161 0.51504 0.28775 0.0
C1332 C 0.82459 0.58212 0.50868 0.0
C1333 C 0.83326 0.5868 0.51531 0.0
C1334 C 0.81484 0.57758 0.51383 0.0
C1335 C 0.80097 0.57005 0.54168 0.0
H1336 H 0.77463 0.58432 0.52774 0.0
C1337 C 0.76055 0.58284 0.56662 0.0
C1338 C 0.75023 0.58448 0.56082 0.0
C1339 C 0.77026 0.57889 0.56088 0.0
C1340 C 0.78177 0.57997 0.53165 0.0
H1341 H 0.83899 0.5893 0.53258 0.0
H1342 H 0.82197 0.58144 0.54158 0.0
H1343 H 0.79283 0.58484 0.51798 0.0
H1344 H 0.74172 0.58192 0.54477 0.0
H1345 H 0.75854 0.57461 0.53485 0.0
H1346 H 0.78988 0.56552 0.55556 0.0
C1347 C 0.82269 0.58123 0.53239 0.0
C1348 C 0.79229 0.5803 0.52603 0.0
C1349 C 0.83249 0.58574 0.52722 0.0
C1350 C 0.74954 0.58085 0.54949 0.0
C1351 C 0.75925 0.5768 0.54375 0.0
C1352 C 0.79039 0.56966 0.5473 0.0
C1353 C 0.8135 0.57765 0.52574 0.0
C1354 C 0.8021 0.57561 0.53107 0.0
C1355 C 0.76989 0.57636 0.5492 0.0
C1356 C 0.78069 0.5749 0.54251 0.0
H1357 H 0.82495 0.58271 0.49947 0.0
H1358 H 0.80805 0.57463 0.50846 0.0
H1359 H 0.80832 0.56624 0.54575 0.0
H1360 H 0.7614 0.58549 0.57538 0.0
H1361 H 0.77824 0.5787 0.56541 0.0
C1362 C 0.5044 0.05266 0.83603 0.0
C1363 C 0.50228 0.06433 0.83418 0.0
C1364 C 0.5085 0.04581 0.82715 0.0
C1365 C 0.51893 0.04641 0.79671 0.0
H1366 H 0.50077 0.01912 0.79472 0.0
C1367 C 0.50473 0.02611 0.75459 0.0
C1368 C 0.50233 0.01439 0.75446 0.0
C1369 C 0.50887 0.0312 0.76445 0.0
C1370 C 0.50614 0.02655 0.79518 0.0
H1371 H 0.50394 0.07812 0.82189 0.0
H1372 H 0.51084 0.06625 0.80649 0.0
H1373 H 0.50064 0.02987 0.81219 0.0
H1374 H 0.50375 0.99864 0.76414 0.0
H1375 H 0.51118 0.00746 0.7812 0.0
H1376 H 0.52389 0.04331 0.77937 0.0
C1377 C 0.50944 0.06231 0.81475 0.0
C1378 C 0.50609 0.03275 0.80528 0.0
C1379 C 0.50541 0.06916 0.82362 0.0
C1380 C 0.50538 0.0077 0.76397 0.0
C1381 C 0.50954 0.01278 0.7738 0.0
C1382 C 0.51893 0.04022 0.78655 0.0
C1383 C 0.51053 0.05045 0.81622 0.0
C1384 C 0.51224 0.04294 0.80612 0.0
C1385 C 0.51075 0.02467 0.77438 0.0
C1386 C 0.51231 0.03035 0.78557 0.0
H1387 H 0.50214 0.04866 0.84407 0.0
H1388 H 0.50953 0.03675 0.82871 0.0
H1389 H 0.52393 0.05409 0.79707 0.0
H1390 H 0.50247 0.03153 0.74744 0.0
H1391 H 0.50969 0.04037 0.76457 0.0
C1392 C 0.9666 0.3654 0.20167 0.0
C1393 C 0.96783 0.35411 0.20552 0.0
C1394 C 0.96502 0.36777 0.1901 0.0
C1395 C 0.96271 0.35435 0.16122 0.0
H1396 H 0.98519 0.37716 0.1533 0.0
C1397 C 0.99722 0.36336 0.12324 0.0
C1398 C 0.99067 0.36082 0.11368 0.0
C1399 C 0.99203 0.36466 0.13393 0.0
C1400 C 0.97887 0.37078 0.15533 0.0
H1401 H 0.96693 0.33644 0.20059 0.0
H1402 H 0.96435 0.34049 0.18045 0.0
H1403 H 0.97892 0.37509 0.17292 0.0
H1404 H 0.97355 0.35842 0.10758 0.0
H1405 H 0.96441 0.36088 0.12623 0.0
H1406 H 0.9633 0.34958 0.14366 0.0
C1407 C 0.96448 0.34759 0.18626 0.0
C1408 C 0.9751 0.36969 0.16661 0.0
C1409 C 0.96586 0.34523 0.19788 0.0
C1410 C 0.97878 0.36034 0.11486 0.0
C1411 C 0.97357 0.36165 0.12555 0.0
C1412 C 0.96652 0.35542 0.14991 0.0
C1413 C 0.96487 0.35889 0.18213 0.0
C1414 C 0.96718 0.36126 0.16979 0.0
C1415 C 0.98016 0.36351 0.13528 0.0
C1416 C 0.97489 0.36345 0.1469 0.0
H1417 H 0.96812 0.37241 0.20738 0.0
H1418 H 0.96493 0.37659 0.1873 0.0
H1419 H 0.95653 0.34785 0.1633 0.0
H1420 H 0.00642 0.36369 0.12261 0.0
H1421 H 0.99741 0.36597 0.14123 0.0
C1422 C 0.96859 0.72014 0.37603 0.0
C1423 C 0.96932 0.73204 0.37656 0.0
C1424 C 0.96345 0.71399 0.3849 0.0
C1425 C 0.95226 0.71816 0.41497 0.0
H1426 H 0.97502 0.69492 0.42114 0.0
C1427 C 0.97022 0.71716 0.45848 0.0
C1428 C 0.98213 0.71778 0.45786 0.0
C1429 C 0.96413 0.71218 0.44968 0.0
C1430 C 0.96858 0.7014 0.41962 0.0
H1431 H 0.96422 0.74697 0.38596 0.0
H1432 H 0.95578 0.73648 0.40162 0.0
H1433 H 0.9711 0.70031 0.40174 0.0
H1434 H 0.99711 0.71258 0.44843 0.0
H1435 H 0.98673 0.70439 0.43292 0.0
H1436 H 0.95088 0.72035 0.43285 0.0
C1437 C 0.95878 0.73166 0.39436 0.0
C1438 C 0.96613 0.7044 0.40836 0.0
C1439 C 0.96362 0.73779 0.38532 0.0
C1440 C 0.98792 0.71206 0.44914 0.0
C1441 C 0.98186 0.70737 0.44018 0.0
C1442 C 0.95499 0.71543 0.42622 0.0
C1443 C 0.95943 0.71964 0.3947 0.0
C1444 C 0.9586 0.71349 0.4059 0.0
C1445 C 0.96986 0.7082 0.43988 0.0
C1446 C 0.96388 0.70767 0.42869 0.0
H1447 H 0.97296 0.71554 0.36931 0.0
H1448 H 0.96367 0.70479 0.38455 0.0
H1449 H 0.94594 0.72474 0.41345 0.0
H1450 H 0.96559 0.72156 0.46516 0.0
H1451 H 0.95493 0.71253 0.45006 0.0
C1452 C 0.61849 0.73534 0.69103 0.0
C1453 C 0.61507 0.72782 0.6997 0.0
C1454 C 0.62091 0.73123 0.68014 0.0
C1455 C 0.61016 0.70696 0.66391 0.0
H1456 H 0.6203 0.72621 0.63899 0.0
C1457 C 0.59917 0.71999 0.614 0.0
C1458 C 0.58729 0.71965 0.61527 0.0
C1459 C 0.60624 0.71686 0.62305 0.0
C1460 C 0.61757 0.72051 0.64573 0.0
H1461 H 0.61344 0.7101 0.70451 0.0
H1462 H 0.6187 0.7028 0.68583 0.0
H1463 H 0.62875 0.72828 0.65757 0.0
H1464 H 0.57343 0.71514 0.62664 0.0
H1465 H 0.58557 0.71005 0.6425 0.0
H1466 H 0.59906 0.69914 0.65205 0.0
C1467 C 0.61881 0.71191 0.68711 0.0
C1468 C 0.62234 0.72182 0.65651 0.0
C1469 C 0.61603 0.71606 0.69791 0.0
C1470 C 0.58257 0.71536 0.62541 0.0
C1471 C 0.5896 0.71241 0.63451 0.0
C1472 C 0.60559 0.70549 0.6531 0.0
C1473 C 0.62017 0.71948 0.67783 0.0
C1474 C 0.61814 0.7156 0.66592 0.0
C1475 C 0.60152 0.71352 0.63361 0.0
C1476 C 0.60866 0.71276 0.64404 0.0
H1477 H 0.61769 0.74446 0.69219 0.0
H1478 H 0.62198 0.73743 0.67335 0.0
H1479 H 0.60663 0.70191 0.67081 0.0
H1480 H 0.60298 0.72328 0.60622 0.0
H1481 H 0.61536 0.71762 0.62193 0.0
C1482 C 0.61467 0.3724 0.96147 0.0
C1483 C 0.60303 0.37041 0.95995 0.0
C1484 C 0.62121 0.37709 0.95262 0.0
C1485 C 0.61919 0.38424 0.9212 0.0
H1486 H 0.64327 0.36154 0.91966 0.0
C1487 C 0.62873 0.34529 0.89177 0.0
C1488 C 0.62416 0.3501 0.88186 0.0
C1489 C 0.63246 0.35231 0.9005 0.0
C1490 C 0.63661 0.36797 0.91989 0.0
H1491 H 0.58874 0.3733 0.94885 0.0
H1492 H 0.59994 0.38112 0.93338 0.0
H1493 H 0.63624 0.36766 0.93798 0.0
H1494 H 0.62149 0.36578 0.87245 0.0
H1495 H 0.62878 0.37804 0.88729 0.0
H1496 H 0.61855 0.38343 0.90315 0.0
C1497 C 0.60424 0.3793 0.9413 0.0
C1498 C 0.63265 0.37168 0.93049 0.0
C1499 C 0.59769 0.37485 0.95026 0.0
C1500 C 0.62506 0.36188 0.88003 0.0
C1501 C 0.62902 0.36891 0.88866 0.0
C1502 C 0.62295 0.3803 0.91061 0.0
C1503 C 0.61623 0.3795 0.942 0.0
C1504 C 0.62325 0.3792 0.9313 0.0
C1505 C 0.63177 0.36428 0.89939 0.0
C1506 C 0.6311 0.37144 0.90985 0.0
H1507 H 0.61897 0.369 0.9689 0.0
H1508 H 0.63033 0.37759 0.9537 0.0
H1509 H 0.61232 0.39043 0.92144 0.0
H1510 H 0.62794 0.33623 0.89343 0.0
H1511 H 0.63451 0.34828 0.90855 0.0
C1512 C 0.13961 0.98858 0.37304 0.0
C1513 C 0.13053 0.98185 0.36951 0.0
C1514 C 0.14997 0.98346 0.37608 0.0
C1515 C 0.17226 0.97143 0.3806 0.0
H1516 H 0.1779 0.94777 0.3584 0.0
C1517 C 0.21695 0.96604 0.36403 0.0
C1518 C 0.21721 0.96683 0.3521 0.0
C1519 C 0.20711 0.96242 0.36974 0.0
C1520 C 0.17652 0.95433 0.36469 0.0
H1521 H 0.12448 0.9646 0.36799 0.0
H1522 H 0.1422 0.95564 0.37411 0.0
H1523 H 0.15852 0.95313 0.36316 0.0
H1524 H 0.20811 0.96288 0.33677 0.0
H1525 H 0.19097 0.95673 0.34653 0.0
H1526 H 0.19024 0.97348 0.38121 0.0
C1527 C 0.14163 0.96485 0.374 0.0
C1528 C 0.16532 0.95733 0.36759 0.0
C1529 C 0.13137 0.96997 0.37073 0.0
C1530 C 0.2082 0.96221 0.34597 0.0
C1531 C 0.19826 0.95878 0.35165 0.0
C1532 C 0.18346 0.96857 0.37755 0.0
C1533 C 0.15134 0.97151 0.37581 0.0
C1534 C 0.16302 0.96633 0.37517 0.0
C1535 C 0.19728 0.95974 0.36359 0.0
C1536 C 0.18575 0.96037 0.36911 0.0
H1537 H 0.13925 0.99775 0.37198 0.0
H1538 H 0.15717 0.98897 0.3774 0.0
H1539 H 0.17088 0.97817 0.38671 0.0
H1540 H 0.22378 0.96963 0.36896 0.0
H1541 H 0.20686 0.96284 0.37894 0.0
C1542 C 0.33392 0.87979 0.62057 0.0
C1543 C 0.33951 0.86927 0.61927 0.0
C1544 C 0.34016 0.88988 0.62081 0.0
C1545 C 0.35522 0.91043 0.62388 0.0
H1546 H 0.3783 0.91215 0.60012 0.0
C1547 C 0.37031 0.95389 0.61014 0.0
C1548 C 0.36904 0.95559 0.59837 0.0
C1549 C 0.37146 0.94288 0.61464 0.0
C1550 C 0.37194 0.91183 0.60685 0.0
H1551 H 0.35595 0.86092 0.61798 0.0
H1552 H 0.36691 0.87854 0.61876 0.0
H1553 H 0.36993 0.89385 0.6051 0.0
H1554 H 0.36967 0.94735 0.58199 0.0
H1555 H 0.37156 0.92819 0.58974 0.0
H1556 H 0.35655 0.92847 0.6251 0.0
C1557 C 0.35772 0.87904 0.61938 0.0
C1558 C 0.36721 0.90128 0.6098 0.0
C1559 C 0.35146 0.86894 0.61906 0.0
C1560 C 0.37077 0.94631 0.59109 0.0
C1561 C 0.37172 0.93525 0.59559 0.0
C1562 C 0.35991 0.92096 0.62091 0.0
C1563 C 0.35212 0.88967 0.61982 0.0
C1564 C 0.35852 0.9005 0.6181 0.0
C1565 C 0.37118 0.93336 0.60745 0.0
C1566 C 0.36808 0.92188 0.6121 0.0
H1567 H 0.32471 0.8803 0.62057 0.0
H1568 H 0.33553 0.89789 0.62103 0.0
H1569 H 0.34868 0.91014 0.63043 0.0
H1570 H 0.36897 0.96091 0.61594 0.0
H1571 H 0.37144 0.94179 0.62381 0.0
C1572 C 0.37854 0.12664 0.86252 0.0
C1573 C 0.37889 0.12555 0.85064 0.0
C1574 C 0.38822 0.13 0.86841 0.0
C1575 C 0.41952 0.13609 0.86398 0.0
H1576 H 0.42238 0.11345 0.888 0.0
C1577 C 0.45208 0.09876 0.87449 0.0
C1578 C 0.4618 0.10411 0.87009 0.0
C1579 C 0.44253 0.10525 0.87759 0.0
C1580 C 0.42179 0.11984 0.88133 0.0
H1581 H 0.38906 0.12828 0.83547 0.0
H1582 H 0.40601 0.13372 0.84557 0.0
H1583 H 0.4037 0.11924 0.88169 0.0
H1584 H 0.46988 0.12032 0.86702 0.0
H1585 H 0.45358 0.13172 0.87325 0.0
H1586 H 0.4376 0.13568 0.86268 0.0
C1587 C 0.39832 0.13232 0.85052 0.0
C1588 C 0.41097 0.12336 0.87779 0.0
C1589 C 0.38854 0.12924 0.84463 0.0
C1590 C 0.46248 0.11602 0.87048 0.0
C1591 C 0.45302 0.12253 0.87382 0.0
C1592 C 0.43033 0.13238 0.86733 0.0
C1593 C 0.39854 0.13192 0.86253 0.0
C1594 C 0.40968 0.13103 0.86858 0.0
C1595 C 0.44261 0.11723 0.87647 0.0
C1596 C 0.4316 0.12368 0.87559 0.0
H1597 H 0.37117 0.12378 0.86733 0.0
H1598 H 0.38788 0.13004 0.87762 0.0
H1599 H 0.41893 0.14233 0.85716 0.0
H1600 H 0.45129 0.08958 0.87407 0.0
H1601 H 0.43476 0.10074 0.87957 0.0
C1602 C 0.21632 0.13614 0.11155 0.0
C1603 C 0.21687 0.13639 0.09962 0.0
C1604 C 0.21311 0.14589 0.11755 0.0
C1605 C 0.20748 0.17736 0.11304 0.0
H1606 H 0.23278 0.1795 0.13382 0.0
C1607 C 0.24718 0.20795 0.11824 0.0
C1608 C 0.24194 0.21845 0.11588 0.0
C1609 C 0.2406 0.19853 0.12126 0.0
C1610 C 0.22563 0.17909 0.12809 0.0
H1611 H 0.21303 0.14632 0.08455 0.0
H1612 H 0.20789 0.1634 0.09481 0.0
H1613 H 0.22543 0.16103 0.12911 0.0
H1614 H 0.22597 0.22774 0.11578 0.0
H1615 H 0.21446 0.21138 0.12169 0.0
H1616 H 0.20861 0.19536 0.11107 0.0
C1617 C 0.20966 0.15577 0.09974 0.0
C1618 C 0.22123 0.16843 0.1255 0.0
C1619 C 0.21257 0.14591 0.09377 0.0
C1620 C 0.23017 0.21969 0.11759 0.0
C1621 C 0.22359 0.2103 0.12085 0.0
C1622 C 0.21203 0.18801 0.11549 0.0
C1623 C 0.21085 0.15616 0.11167 0.0
C1624 C 0.21258 0.16735 0.11734 0.0
C1625 C 0.22866 0.19946 0.12214 0.0
C1626 C 0.22165 0.18893 0.12247 0.0
H1627 H 0.21961 0.12885 0.11623 0.0
H1628 H 0.21365 0.1457 0.12674 0.0
H1629 H 0.20056 0.17693 0.10703 0.0
H1630 H 0.25624 0.20677 0.11682 0.0
H1631 H 0.24486 0.19035 0.12201 0.0
C1632 C 0.13081 0.09349 0.20833 0.0
C1633 C 0.12139 0.09939 0.21277 0.0
C1634 C 0.14037 0.09947 0.2045 0.0
C1635 C 0.15322 0.12657 0.21292 0.0
H1636 H 0.1795 0.11176 0.19939 0.0
C1637 C 0.20509 0.1198 0.21773 0.0
C1638 C 0.20494 0.11949 0.22967 0.0
C1639 C 0.19529 0.12285 0.21172 0.0
C1640 C 0.17233 0.11632 0.20302 0.0
H1641 H 0.11367 0.11602 0.21489 0.0
H1642 H 0.12992 0.12649 0.20731 0.0
H1643 H 0.16066 0.10638 0.19352 0.0
H1644 H 0.19491 0.12308 0.24473 0.0
H1645 H 0.17775 0.12802 0.23445 0.0
H1646 H 0.16489 0.13656 0.22238 0.0
C1647 C 0.13031 0.11727 0.20737 0.0
C1648 C 0.16142 0.11305 0.19976 0.0
C1649 C 0.12086 0.11128 0.21147 0.0
C1650 C 0.19529 0.12348 0.23551 0.0
C1651 C 0.18539 0.12627 0.22953 0.0
C1652 C 0.16412 0.13003 0.21599 0.0
C1653 C 0.14056 0.11148 0.20487 0.0
C1654 C 0.15172 0.11754 0.20526 0.0
C1655 C 0.18504 0.12524 0.21757 0.0
C1656 C 0.17383 0.12438 0.2117 0.0
H1657 H 0.13148 0.08433 0.20939 0.0
H1658 H 0.14799 0.09458 0.20261 0.0
H1659 H 0.14606 0.13037 0.21737 0.0
H1660 H 0.21244 0.11666 0.21305 0.0
H1661 H 0.19551 0.12235 0.20252 0.0
C1662 C 0.21124 0.96703 0.47599 0.0
C1663 C 0.21211 0.96709 0.4879 0.0
C1664 C 0.20714 0.95743 0.47044 0.0
C1665 C 0.19838 0.92695 0.47611 0.0
H1666 H 0.22119 0.92115 0.4528 0.0
C1667 C 0.21468 0.88204 0.47143 0.0
C1668 C 0.22661 0.8815 0.47164 0.0
C1669 C 0.2091 0.89202 0.46793 0.0
C1670 C 0.21475 0.92257 0.4593 0.0
H1671 H 0.20815 0.95789 0.5034 0.0
H1672 H 0.20138 0.94109 0.49393 0.0
H1673 H 0.21686 0.94052 0.45815 0.0
H1674 H 0.24208 0.89041 0.46732 0.0
H1675 H 0.23257 0.90791 0.46165 0.0
H1676 H 0.19725 0.90898 0.47822 0.0
C1677 C 0.20356 0.94839 0.48869 0.0
C1678 C 0.21207 0.93379 0.46226 0.0
C1679 C 0.20739 0.95811 0.49422 0.0
C1680 C 0.23286 0.89057 0.46706 0.0
C1681 C 0.22732 0.90067 0.46384 0.0
C1682 C 0.20125 0.91573 0.47334 0.0
C1683 C 0.20422 0.94758 0.47671 0.0
C1684 C 0.20433 0.93613 0.47121 0.0
C1685 C 0.21539 0.90179 0.46498 0.0
C1686 C 0.20998 0.91337 0.46536 0.0
H1687 H 0.2149 0.97386 0.47094 0.0
H1688 H 0.20734 0.95735 0.46123 0.0
H1689 H 0.19206 0.92837 0.48273 0.0
H1690 H 0.20968 0.87512 0.47497 0.0
H1691 H 0.19991 0.89235 0.4685 0.0
C1692 C 0.37274 0.96759 0.7245 0.0
C1693 C 0.37294 0.96839 0.73641 0.0
C1694 C 0.38245 0.9641 0.71845 0.0
C1695 C 0.4134 0.95619 0.72229 0.0
H1696 H 0.41759 0.97996 0.69955 0.0
C1697 C 0.44917 0.99043 0.71205 0.0
C1698 C 0.45847 0.9837 0.71542 0.0
C1699 C 0.43884 0.98531 0.70929 0.0
C1700 C 0.41661 0.97323 0.70584 0.0
H1701 H 0.38283 0.96472 0.75142 0.0
H1702 H 0.39976 0.95879 0.74106 0.0
H1703 H 0.39857 0.97528 0.70605 0.0
H1704 H 0.46495 0.96646 0.71676 0.0
H1705 H 0.44726 0.9575 0.71112 0.0
H1706 H 0.43149 0.95498 0.72296 0.0
C1707 C 0.39218 0.9607 0.73622 0.0
C1708 C 0.40561 0.97038 0.70948 0.0
C1709 C 0.38238 0.964 0.74225 0.0
C1710 C 0.45789 0.97184 0.71413 0.0
C1711 C 0.44765 0.96671 0.71116 0.0
C1712 C 0.42441 0.95916 0.71878 0.0
C1713 C 0.39262 0.96157 0.72423 0.0
C1714 C 0.40388 0.96222 0.71819 0.0
C1715 C 0.43773 0.97335 0.70968 0.0
C1716 C 0.4262 0.96814 0.71092 0.0
H1717 H 0.36557 0.97102 0.7198 0.0
H1718 H 0.3823 0.96448 0.70924 0.0
H1719 H 0.41244 0.94966 0.72878 0.0
H1720 H 0.44933 0.99958 0.71316 0.0
H1721 H 0.43148 0.9908 0.70819 0.0
C1722 C 0.37178 0.13375 0.99341 0.0
C1723 C 0.36702 0.12465 0.98755 0.0
C1724 C 0.37653 0.14289 0.98737 0.0
C1725 C 0.37009 0.15641 0.95989 0.0
H1726 H 0.38553 0.1811 0.97469 0.0
C1727 C 0.35032 0.1997 0.9643 0.0
C1728 C 0.35675 0.20856 0.96878 0.0
C1729 C 0.35572 0.18968 0.96072 0.0
C1730 C 0.38139 0.17436 0.97011 0.0
H1731 H 0.36494 0.11704 0.97102 0.0
H1732 H 0.37394 0.13256 0.96048 0.0
H1733 H 0.38978 0.16169 0.98025 0.0
H1734 H 0.37379 0.21478 0.97136 0.0
H1735 H 0.38329 0.19767 0.96431 0.0
H1736 H 0.36165 0.16908 0.9498 0.0
C1737 C 0.3736 0.13299 0.96968 0.0
C1738 C 0.38373 0.16315 0.97348 0.0
C1739 C 0.36864 0.12397 0.97572 0.0
C1740 C 0.36867 0.20802 0.96792 0.0
C1741 C 0.37408 0.19811 0.96408 0.0
C1742 C 0.36793 0.16761 0.95635 0.0
C1743 C 0.37669 0.14299 0.97535 0.0
C1744 C 0.37746 0.15409 0.96905 0.0
C1745 C 0.36766 0.18844 0.96142 0.0
C1746 C 0.37288 0.17679 0.96203 0.0
H1747 H 0.37044 0.13455 0.00251 0.0
H1748 H 0.37878 0.15036 0.99214 0.0
H1749 H 0.36512 0.14973 0.95612 0.0
H1750 H 0.34112 0.19987 0.96502 0.0
H1751 H 0.35038 0.18252 0.95872 0.0
C1752 C 0.85452 0.37983 0.12769 0.0
C1753 C 0.84286 0.38142 0.12567 0.0
C1754 C 0.86128 0.38902 0.1308 0.0
C1755 C 0.87326 0.4101 0.12275 0.0
H1756 H 0.86069 0.43898 0.13255 0.0
C1757 C 0.87289 0.44876 0.09463 0.0
C1758 C 0.86923 0.4592 0.09908 0.0
C1759 C 0.87563 0.43971 0.10195 0.0
C1760 C 0.86465 0.43105 0.12996 0.0
H1761 H 0.82885 0.39339 0.12661 0.0
H1762 H 0.84047 0.40943 0.13178 0.0
H1763 H 0.85317 0.42151 0.14048 0.0
H1764 H 0.86735 0.46905 0.11444 0.0
H1765 H 0.8729 0.45356 0.12723 0.0
H1766 H 0.88464 0.41965 0.11213 0.0
C1767 C 0.84456 0.40116 0.13123 0.0
C1768 C 0.86016 0.42095 0.13443 0.0
C1769 C 0.83779 0.39191 0.12832 0.0
C1770 C 0.87023 0.46107 0.1108 0.0
C1771 C 0.87317 0.45209 0.11815 0.0
C1772 C 0.8779 0.42021 0.11844 0.0
C1773 C 0.85652 0.40003 0.13163 0.0
C1774 C 0.86381 0.41034 0.13024 0.0
C1775 C 0.87486 0.44104 0.11387 0.0
C1776 C 0.87307 0.4308 0.12133 0.0
H1777 H 0.85863 0.37181 0.12559 0.0
H1778 H 0.87039 0.3877 0.13143 0.0
H1779 H 0.87645 0.40217 0.11931 0.0
H1780 H 0.87201 0.44706 0.08562 0.0
H1781 H 0.87692 0.43141 0.09821 0.0
C1782 C 0.95114 0.6104 0.36577 0.0
C1783 C 0.9522 0.59858 0.36443 0.0
C1784 C 0.9405 0.61535 0.36802 0.0
C1785 C 0.90929 0.60849 0.37092 0.0
H1786 H 0.90669 0.63266 0.34836 0.0
C1787 C 0.87679 0.62175 0.3336 0.0
C1788 C 0.86644 0.61926 0.33908 0.0
C1789 C 0.88675 0.62273 0.3399 0.0
C1790 C 0.90723 0.62594 0.35471 0.0
H1791 H 0.94339 0.58254 0.36572 0.0
H1792 H 0.92482 0.59104 0.36927 0.0
H1793 H 0.92529 0.62704 0.35516 0.0
H1794 H 0.85814 0.61671 0.3554 0.0
H1795 H 0.87547 0.61891 0.36652 0.0
H1796 H 0.89128 0.60674 0.36961 0.0
C1797 C 0.9321 0.59662 0.36884 0.0
C1798 C 0.91794 0.62281 0.3588 0.0
C1799 C 0.9428 0.59167 0.36687 0.0
C1800 C 0.86604 0.61871 0.35101 0.0
C1801 C 0.87599 0.61983 0.35735 0.0
C1802 C 0.89857 0.61155 0.36671 0.0
C1803 C 0.93069 0.60856 0.3686 0.0
C1804 C 0.91919 0.61369 0.3666 0.0
C1805 C 0.88657 0.62134 0.35184 0.0
C1806 C 0.89746 0.61996 0.35816 0.0
H1807 H 0.95829 0.6159 0.36391 0.0
H1808 H 0.93984 0.62455 0.36821 0.0
H1809 H 0.90984 0.60162 0.3771 0.0
H1810 H 0.87735 0.62204 0.32439 0.0
H1811 H 0.89471 0.62373 0.3353 0.0
C1812 C 0.70745 0.62458 0.60572 0.0
C1813 C 0.70901 0.6257 0.5939 0.0
C1814 C 0.70453 0.63407 0.61229 0.0
C1815 C 0.69985 0.66586 0.61034 0.0
H1816 H 0.72312 0.66587 0.63353 0.0
C1817 C 0.71951 0.70778 0.62145 0.0
C1818 C 0.73138 0.70725 0.62003 0.0
C1819 C 0.71332 0.6979 0.6238 0.0
C1820 C 0.71653 0.66605 0.62714 0.0
H1821 H 0.70711 0.63709 0.5795 0.0
H1822 H 0.70211 0.6536 0.59077 0.0
H1823 H 0.71678 0.64796 0.62583 0.0
H1824 H 0.74622 0.69638 0.62148 0.0
H1825 H 0.7356 0.67918 0.62549 0.0
H1826 H 0.70045 0.68399 0.61081 0.0
C1827 C 0.70304 0.6455 0.59514 0.0
C1828 C 0.71273 0.65571 0.6228 0.0
C1829 C 0.7058 0.63595 0.58858 0.0
C1830 C 0.73709 0.69707 0.62272 0.0
C1831 C 0.73091 0.68713 0.62491 0.0
C1832 C 0.70375 0.67621 0.61458 0.0
C1833 C 0.70329 0.64487 0.60713 0.0
C1834 C 0.70476 0.65549 0.61391 0.0
C1835 C 0.71891 0.68727 0.62458 0.0
C1836 C 0.71258 0.67646 0.62262 0.0
H1837 H 0.70997 0.61678 0.61004 0.0
H1838 H 0.70439 0.63315 0.62147 0.0
H1839 H 0.69351 0.66606 0.60371 0.0
H1840 H 0.7149 0.71553 0.6193 0.0
H1841 H 0.70411 0.69843 0.62388 0.0
C1842 C 0.96666 0.48124 0.21734 0.0
C1843 C 0.96443 0.49297 0.21794 0.0
C1844 C 0.95881 0.47399 0.21229 0.0
C1845 C 0.92907 0.47421 0.20021 0.0
H1846 H 0.92464 0.45119 0.2236 0.0
C1847 C 0.89361 0.46511 0.2345 0.0
C1848 C 0.88467 0.4697 0.2281 0.0
C1849 C 0.90353 0.46131 0.22904 0.0
C1850 C 0.92568 0.45758 0.21698 0.0
H1851 H 0.95304 0.50654 0.21281 0.0
H1852 H 0.93925 0.49412 0.20432 0.0
H1853 H 0.9434 0.45878 0.22026 0.0
H1854 H 0.8781 0.47211 0.21111 0.0
H1855 H 0.89496 0.46452 0.20153 0.0
H1856 H 0.91117 0.47416 0.19797 0.0
C1857 C 0.94706 0.4903 0.20739 0.0
C1858 C 0.93658 0.46183 0.21488 0.0
C1859 C 0.95501 0.49753 0.21226 0.0
C1860 C 0.88497 0.46866 0.21621 0.0
C1861 C 0.89475 0.4645 0.21074 0.0
C1862 C 0.91812 0.47022 0.20255 0.0
C1863 C 0.94844 0.47836 0.20811 0.0
C1864 C 0.93826 0.47088 0.20709 0.0
C1865 C 0.90457 0.46185 0.21705 0.0
C1866 C 0.91615 0.46251 0.21163 0.0
H1867 H 0.97385 0.47755 0.2218 0.0
H1868 H 0.96039 0.4649 0.21267 0.0
H1869 H 0.93009 0.48076 0.19374 0.0
H1870 H 0.89359 0.46592 0.24368 0.0
H1871 H 0.91075 0.45929 0.23435 0.0
C1872 C 0.71845 0.60982 0.72725 0.0
C1873 C 0.71832 0.60948 0.73919 0.0
C1874 C 0.70832 0.61138 0.72122 0.0
C1875 C 0.68561 0.60376 0.71198 0.0
H1876 H 0.65895 0.61841 0.72499 0.0
C1877 C 0.6418 0.58383 0.71238 0.0
C1878 C 0.63236 0.59056 0.71541 0.0
C1879 C 0.65233 0.58892 0.71019 0.0
C1880 C 0.66627 0.61445 0.72095 0.0
H1881 H 0.70772 0.61113 0.75425 0.0
H1882 H 0.69006 0.61358 0.74388 0.0
H1883 H 0.67764 0.62353 0.73162 0.0
H1884 H 0.62596 0.60782 0.71677 0.0
H1885 H 0.64408 0.61676 0.71213 0.0
H1886 H 0.67422 0.59456 0.7014 0.0
C1887 C 0.69792 0.61293 0.73904 0.0
C1888 C 0.67705 0.61728 0.72493 0.0
C1889 C 0.70806 0.61152 0.74504 0.0
C1890 C 0.63314 0.60245 0.71442 0.0
C1891 C 0.64359 0.60756 0.71198 0.0
C1892 C 0.67484 0.601 0.7079 0.0
C1893 C 0.69785 0.61245 0.72705 0.0
C1894 C 0.68681 0.61155 0.72093 0.0
C1895 C 0.65351 0.60085 0.71083 0.0
C1896 C 0.66497 0.60588 0.71274 0.0
H1897 H 0.72629 0.60821 0.72258 0.0
H1898 H 0.70863 0.61115 0.71201 0.0
H1899 H 0.69289 0.59917 0.70864 0.0
H1900 H 0.64145 0.57465 0.71326 0.0
H1901 H 0.65971 0.58341 0.70931 0.0
C1902 C 0.48426 0.87322 0.64859 0.0
C1903 C 0.479 0.86937 0.63873 0.0
C1904 C 0.47766 0.87658 0.65795 0.0
C1905 C 0.4498 0.8677 0.66927 0.0
H1906 H 0.46381 0.87921 0.69645 0.0
C1907 C 0.45632 0.84049 0.70719 0.0
C1908 C 0.46134 0.84516 0.71682 0.0
C1909 C 0.45153 0.84762 0.69891 0.0
C1910 C 0.45941 0.87614 0.68905 0.0
H1911 H 0.46292 0.86753 0.63016 0.0
H1912 H 0.45138 0.87423 0.64613 0.0
H1913 H 0.46948 0.88673 0.67812 0.0
H1914 H 0.46342 0.86056 0.72649 0.0
H1915 H 0.45431 0.87297 0.71249 0.0
H1916 H 0.43972 0.85711 0.6802 0.0
C1917 C 0.46054 0.87415 0.64697 0.0
C1918 C 0.46288 0.88037 0.67842 0.0
C1919 C 0.46715 0.87051 0.63772 0.0
C1920 C 0.45957 0.85675 0.71911 0.0
C1921 C 0.45457 0.86389 0.71093 0.0
C1922 C 0.44611 0.8637 0.67991 0.0
C1923 C 0.46565 0.87626 0.65753 0.0
C1924 C 0.45888 0.87544 0.66836 0.0
C1925 C 0.45159 0.85956 0.70024 0.0
C1926 C 0.45164 0.86707 0.68988 0.0
H1927 H 0.49338 0.87225 0.6496 0.0
H1928 H 0.48204 0.87812 0.66584 0.0
H1929 H 0.44627 0.86376 0.66181 0.0
H1930 H 0.45769 0.83158 0.70519 0.0
H1931 H 0.44926 0.84379 0.69091 0.0
C1932 C 0.49753 0.21086 0.95428 0.0
C1933 C 0.49145 0.21501 0.96369 0.0
C1934 C 0.49171 0.20712 0.94469 0.0
C1935 C 0.47833 0.20241 0.92365 0.0
H1936 H 0.45483 0.22545 0.9198 0.0
C1937 C 0.47299 0.22146 0.88013 0.0
C1938 C 0.47383 0.23336 0.88054 0.0
C1939 C 0.46926 0.21529 0.88968 0.0
C1940 C 0.46134 0.21892 0.92068 0.0
H1941 H 0.47473 0.21683 0.97132 0.0
H1942 H 0.46457 0.2095 0.95498 0.0
H1943 H 0.46074 0.22003 0.93875 0.0
H1944 H 0.47027 0.24826 0.89064 0.0
H1945 H 0.46408 0.23769 0.90734 0.0
H1946 H 0.47987 0.20229 0.90559 0.0
C1947 C 0.47378 0.20964 0.95466 0.0
C1948 C 0.46464 0.21563 0.93164 0.0
C1949 C 0.4796 0.21361 0.96414 0.0
C1950 C 0.46951 0.23909 0.89006 0.0
C1951 C 0.466 0.23294 0.8997 0.0
C1952 C 0.47519 0.20587 0.9127 0.0
C1953 C 0.4797 0.20735 0.94445 0.0
C1954 C 0.47371 0.20785 0.93327 0.0
C1955 C 0.46666 0.22093 0.89992 0.0
C1956 C 0.46716 0.21472 0.91107 0.0
H1957 H 0.50666 0.21201 0.95367 0.0
H1958 H 0.49668 0.20541 0.93709 0.0
H1959 H 0.48504 0.1961 0.92454 0.0
H1960 H 0.47637 0.21685 0.87288 0.0
H1961 H 0.46949 0.20608 0.88935 0.0
C1962 C 0.09198 0.21294 0.14281 0.0
C1963 C 0.09639 0.21651 0.13229 0.0
C1964 C 0.09926 0.20878 0.15124 0.0
C1965 C 0.11589 0.20206 0.16928 0.0
H1966 H 0.14029 0.22404 0.16965 0.0
C1967 C 0.12511 0.22082 0.21088 0.0
C1968 C 0.1238 0.23268 0.20989 0.0
C1969 C 0.12883 0.21445 0.20154 0.0
C1970 C 0.13357 0.21779 0.16973 0.0
H1971 H 0.11155 0.21743 0.12175 0.0
H1972 H 0.12425 0.20962 0.13625 0.0
H1973 H 0.13132 0.21951 0.15182 0.0
H1974 H 0.12725 0.24735 0.19924 0.0
H1975 H 0.1333 0.23646 0.18292 0.0
H1976 H 0.11711 0.20137 0.18729 0.0
C1977 C 0.11524 0.21027 0.13818 0.0
C1978 C 0.12849 0.21502 0.1594 0.0
C1979 C 0.10794 0.21456 0.12979 0.0
C1980 C 0.12821 0.2382 0.20022 0.0
C1981 C 0.13163 0.23184 0.19077 0.0
C1982 C 0.12078 0.20501 0.17962 0.0
C1983 C 0.11112 0.20813 0.14927 0.0
C1984 C 0.11901 0.20775 0.15917 0.0
C1985 C 0.13089 0.21984 0.19097 0.0
C1986 C 0.12911 0.21359 0.18009 0.0
H1987 H 0.08314 0.21462 0.14499 0.0
H1988 H 0.09568 0.20732 0.15965 0.0
H1989 H 0.10892 0.19608 0.16938 0.0
H1990 H 0.12181 0.21637 0.21831 0.0
H1991 H 0.12872 0.20525 0.20224 0.0
C1992 C 0.09287 0.87174 0.44765 0.0
C1993 C 0.09785 0.86793 0.45779 0.0
C1994 C 0.09974 0.87482 0.43836 0.0
C1995 C 0.12788 0.86543 0.42797 0.0
H1996 H 0.11559 0.87827 0.40021 0.0
C1997 C 0.124 0.85811 0.37644 0.0
C1998 C 0.12278 0.84627 0.37748 0.0
C1999 C 0.12725 0.86455 0.38581 0.0
C2000 C 0.11949 0.87482 0.40782 0.0
H2001 H 0.11369 0.8659 0.46682 0.0
H2002 H 0.12568 0.8721 0.45093 0.0
H2003 H 0.10862 0.88502 0.41835 0.0
H2004 H 0.12545 0.8317 0.3885 0.0
H2005 H 0.13079 0.84273 0.40485 0.0
H2006 H 0.13874 0.85522 0.41743 0.0
C2007 C 0.11654 0.87221 0.44987 0.0
C2008 C 0.11529 0.8786 0.41831 0.0
C2009 C 0.10967 0.86888 0.45907 0.0
C2010 C 0.12648 0.84081 0.38744 0.0
C2011 C 0.12948 0.84724 0.3969 0.0
C2012 C 0.13227 0.86183 0.41748 0.0
C2013 C 0.11172 0.87427 0.43911 0.0
C2014 C 0.1188 0.87335 0.4285 0.0
C2015 C 0.12897 0.85926 0.39646 0.0
C2016 C 0.12752 0.86583 0.40724 0.0
H2017 H 0.08379 0.87088 0.44641 0.0
H2018 H 0.09559 0.87634 0.43029 0.0
H2019 H 0.13097 0.86118 0.43555 0.0
H2020 H 0.12112 0.86251 0.36883 0.0
H2021 H 0.12721 0.87374 0.38498 0.0
C2022 C 0.69797 0.4534 0.8458 0.0
C2023 C 0.70738 0.45816 0.85112 0.0
C2024 C 0.68869 0.44969 0.85233 0.0
C2025 C 0.67645 0.4595 0.87948 0.0
H2026 H 0.64989 0.44725 0.86494 0.0
C2027 C 0.62662 0.46979 0.86825 0.0
C2028 C 0.62865 0.48142 0.86642 0.0
C2029 C 0.63495 0.46284 0.87324 0.0
C2030 C 0.65711 0.45054 0.86947 0.0
H2031 H 0.71549 0.46101 0.86728 0.0
H2032 H 0.69976 0.45363 0.87873 0.0
H2033 H 0.66845 0.43955 0.86034 0.0
H2034 H 0.64023 0.4952 0.86946 0.0
H2035 H 0.65481 0.48329 0.87788 0.0
H2036 H 0.6651 0.47047 0.88864 0.0
C2037 C 0.69912 0.45335 0.86956 0.0
C2038 C 0.66788 0.44621 0.86663 0.0
C2039 C 0.70825 0.45737 0.86301 0.0
C2040 C 0.63841 0.48628 0.87097 0.0
C2041 C 0.64683 0.47934 0.87579 0.0
C2042 C 0.66567 0.4636 0.88256 0.0
C2043 C 0.68878 0.45054 0.86432 0.0
C2044 C 0.67775 0.45139 0.87076 0.0
C2045 C 0.64558 0.46739 0.87616 0.0
C2046 C 0.65596 0.45995 0.87678 0.0
H2047 H 0.69708 0.45403 0.83664 0.0
H2048 H 0.68102 0.44754 0.84784 0.0
H2049 H 0.68373 0.46366 0.88313 0.0
H2050 H 0.61916 0.46585 0.86468 0.0
H2051 H 0.6335 0.45376 0.87374 0.0
C2052 C 0.73943 0.38552 0.96483 0.0
C2053 C 0.73413 0.37626 0.97018 0.0
C2054 C 0.73285 0.39425 0.96001 0.0
C2055 C 0.71809 0.41393 0.95321 0.0
H2056 H 0.69453 0.41867 0.97599 0.0
C2057 C 0.71387 0.45755 0.97041 0.0
C2058 C 0.7148 0.45713 0.9823 0.0
C2059 C 0.70942 0.4483 0.96454 0.0
C2060 C 0.70106 0.41755 0.96954 0.0
H2061 H 0.71806 0.36791 0.9733 0.0
H2062 H 0.70658 0.38269 0.96414 0.0
H2063 H 0.70123 0.39961 0.97217 0.0
H2064 H 0.7105 0.44759 0.9975 0.0
H2065 H 0.70321 0.43138 0.9875 0.0
H2066 H 0.719 0.43193 0.95165 0.0
C2067 C 0.71574 0.38359 0.96408 0.0
C2068 C 0.70482 0.40649 0.96715 0.0
C2069 C 0.72233 0.37498 0.96914 0.0
C2070 C 0.70974 0.44815 0.98832 0.0
C2071 C 0.70559 0.43876 0.98248 0.0
C2072 C 0.71456 0.425 0.95583 0.0
C2073 C 0.72084 0.3938 0.96038 0.0
C2074 C 0.71403 0.4046 0.95959 0.0
C2075 C 0.70629 0.43832 0.97048 0.0
C2076 C 0.70663 0.427 0.96469 0.0
H2077 H 0.74851 0.38677 0.96571 0.0
H2078 H 0.73723 0.40188 0.95728 0.0
H2079 H 0.7248 0.41281 0.94692 0.0
H2080 H 0.71775 0.46443 0.96559 0.0
H2081 H 0.70962 0.44854 0.95533 0.0
C2082 C 0.84397 0.70485 0.45713 0.0
C2083 C 0.84969 0.71442 0.46112 0.0
C2084 C 0.85011 0.69513 0.45391 0.0
C2085 C 0.86417 0.67401 0.44992 0.0
H2086 H 0.88698 0.67064 0.47337 0.0
C2087 C 0.87138 0.63033 0.46856 0.0
C2088 C 0.8702 0.63048 0.48046 0.0
C2089 C 0.8746 0.64017 0.4626 0.0
C2090 C 0.88067 0.67139 0.46674 0.0
H2091 H 0.86619 0.72209 0.4632 0.0
H2092 H 0.87696 0.7055 0.45675 0.0
H2093 H 0.88057 0.68947 0.46779 0.0
H2094 H 0.87266 0.64048 0.49555 0.0
H2095 H 0.87801 0.65766 0.48533 0.0
H2096 H 0.86333 0.6559 0.4498 0.0
C2097 C 0.86775 0.70518 0.45662 0.0
C2098 C 0.87708 0.68228 0.46335 0.0
C2099 C 0.86159 0.71481 0.46007 0.0
C2100 C 0.87372 0.6401 0.48639 0.0
C2101 C 0.87672 0.65002 0.48044 0.0
C2102 C 0.8676 0.66311 0.45345 0.0
C2103 C 0.86211 0.6949 0.45448 0.0
C2104 C 0.86829 0.68374 0.45536 0.0
C2105 C 0.87637 0.65042 0.46844 0.0
C2106 C 0.87543 0.66165 0.46239 0.0
H2107 H 0.8348 0.70428 0.45805 0.0
H2108 H 0.84536 0.68747 0.4523 0.0
H2109 H 0.85765 0.67475 0.44349 0.0
H2110 H 0.8686 0.62302 0.4638 0.0
H2111 H 0.87463 0.64001 0.45338 0.0
C2112 C 0.02182 0.33127 0.19862 0.0
C2113 C 0.01527 0.32603 0.20713 0.0
C2114 C 0.0275 0.32468 0.19052 0.0
C2115 C 0.02695 0.2938 0.17716 0.0
H2116 H 0.06162 0.31074 0.16497 0.0
C2117 C 0.05356 0.2731 0.13126 0.0
C2118 C 0.05962 0.26378 0.13574 0.0
C2119 C 0.04713 0.28017 0.13849 0.0
C2120 C 0.05365 0.30636 0.16702 0.0
H2121 H 0.00968 0.30981 0.21409 0.0
H2122 H 0.02027 0.29824 0.2003 0.0
H2123 H 0.04899 0.31936 0.18201 0.0
H2124 H 0.06251 0.25358 0.15087 0.0
H2125 H 0.05173 0.26624 0.16349 0.0
H2126 H 0.0266 0.27783 0.16415 0.0
C2127 C 0.02068 0.30743 0.19963 0.0
C2128 C 0.04579 0.31187 0.17786 0.0
C2129 C 0.01475 0.31405 0.2076 0.0
C2130 C 0.05832 0.26104 0.14731 0.0
C2131 C 0.05218 0.2683 0.15454 0.0
C2132 C 0.03156 0.28522 0.16628 0.0
C2133 C 0.02707 0.31269 0.19096 0.0
C2134 C 0.03333 0.30591 0.18235 0.0
C2135 C 0.04744 0.27854 0.15038 0.0
C2136 C 0.04403 0.28793 0.1588 0.0
H2137 H 0.02212 0.34047 0.1979 0.0
H2138 H 0.03196 0.32908 0.18371 0.0
H2139 H 0.01892 0.29142 0.18103 0.0
H2140 H 0.05396 0.27504 0.12223 0.0
H2141 H 0.0426 0.28733 0.13487 0.0
C2142 C 0.0748 0.81152 0.39617 0.0
C2143 C 0.07883 0.80806 0.38549 0.0
C2144 C 0.07047 0.80355 0.40394 0.0
C2145 C 0.05558 0.77621 0.40497 0.0
H2146 H 0.05865 0.78037 0.43746 0.0
C2147 C 0.0259 0.75333 0.43753 0.0
C2148 C 0.02163 0.7601 0.44642 0.0
C2149 C 0.03466 0.75729 0.43039 0.0
C2150 C 0.05759 0.77916 0.42841 0.0
H2151 H 0.08155 0.79352 0.37453 0.0
H2152 H 0.07318 0.77966 0.38786 0.0
H2153 H 0.07188 0.78973 0.42426 0.0
H2154 H 0.02349 0.77606 0.45521 0.0
H2155 H 0.0392 0.78277 0.44316 0.0
H2156 H 0.04147 0.76542 0.40898 0.0
C2157 C 0.07362 0.7885 0.39034 0.0
C2158 C 0.06512 0.7846 0.42086 0.0
C2159 C 0.07837 0.79644 0.3827 0.0
C2160 C 0.02646 0.77079 0.44824 0.0
C2161 C 0.03551 0.77458 0.44136 0.0
C2162 C 0.04809 0.77065 0.4125 0.0
C2163 C 0.06959 0.79196 0.40109 0.0
C2164 C 0.06367 0.78387 0.40903 0.0
C2165 C 0.0396 0.768 0.43219 0.0
C2166 C 0.04863 0.7725 0.42431 0.0
H2167 H 0.07525 0.82038 0.39863 0.0
H2168 H 0.06759 0.80656 0.41211 0.0
H2169 H 0.05457 0.77502 0.39591 0.0
H2170 H 0.02244 0.74495 0.43609 0.0
H2171 H 0.03768 0.75186 0.42358 0.0
C2172 C 0.57476 0.76639 0.68743 0.0
C2173 C 0.56959 0.76233 0.69749 0.0
C2174 C 0.56938 0.77468 0.6807 0.0
C2175 C 0.54647 0.79694 0.68146 0.0
H2176 H 0.54716 0.7934 0.64869 0.0
C2177 C 0.51794 0.81133 0.64031 0.0
C2178 C 0.51647 0.82301 0.64226 0.0
C2179 C 0.52581 0.80496 0.64667 0.0
C2180 C 0.54685 0.79449 0.65783 0.0
H2181 H 0.55499 0.76404 0.70868 0.0
H2182 H 0.54575 0.77888 0.69722 0.0
H2183 H 0.55816 0.78041 0.66064 0.0
H2184 H 0.52198 0.83717 0.6525 0.0
H2185 H 0.53524 0.82592 0.66401 0.0
H2186 H 0.53512 0.81101 0.67859 0.0
C2187 C 0.55377 0.7754 0.69425 0.0
C2188 C 0.5533 0.78713 0.66471 0.0
C2189 C 0.559 0.76683 0.70081 0.0
C2190 C 0.5229 0.82815 0.65083 0.0
C2191 C 0.53049 0.8217 0.65744 0.0
C2192 C 0.54015 0.8044 0.67455 0.0
C2193 C 0.55881 0.77935 0.68401 0.0
C2194 C 0.55293 0.78802 0.67666 0.0
C2195 C 0.53208 0.81001 0.65544 0.0
C2196 C 0.53991 0.803 0.66267 0.0
H2197 H 0.58304 0.76318 0.68479 0.0
H2198 H 0.57365 0.7776 0.67302 0.0
H2199 H 0.54618 0.7981 0.69059 0.0
H2200 H 0.51323 0.80717 0.63367 0.0
H2201 H 0.52687 0.79603 0.64479 0.0
C2202 C 0.55722 0.32233 0.95052 0.0
C2203 C 0.56852 0.3246 0.94727 0.0
C2204 C 0.54956 0.31782 0.94274 0.0
C2205 C 0.54497 0.31245 0.9117 0.0
H2206 H 0.52697 0.28731 0.92314 0.0
C2207 C 0.51636 0.28373 0.88322 0.0
C2208 C 0.51809 0.27194 0.88495 0.0
C2209 C 0.52121 0.29168 0.89054 0.0
C2210 C 0.53206 0.29421 0.9198 0.0
H2211 H 0.58047 0.32465 0.93315 0.0
H2212 H 0.56694 0.31725 0.91938 0.0
H2213 H 0.53798 0.2985 0.93633 0.0
H2214 H 0.52613 0.2593 0.89576 0.0
H2215 H 0.53412 0.27313 0.90871 0.0
H2216 H 0.53925 0.30775 0.89508 0.0
C2217 C 0.56407 0.3186 0.92803 0.0
C2218 C 0.53821 0.30083 0.92739 0.0
C2219 C 0.57188 0.32273 0.93594 0.0
C2220 C 0.52475 0.2683 0.89413 0.0
C2221 C 0.52929 0.27624 0.9016 0.0
C2222 C 0.53874 0.30582 0.9041 0.0
C2223 C 0.5529 0.31574 0.9314 0.0
C2224 C 0.5451 0.3098 0.92342 0.0
C2225 C 0.52761 0.28801 0.89994 0.0
C2226 C 0.53266 0.29627 0.90803 0.0
H2227 H 0.55436 0.3239 0.95916 0.0
H2228 H 0.54098 0.31598 0.94562 0.0
H2229 H 0.54995 0.31945 0.90834 0.0
H2230 H 0.51123 0.28679 0.8762 0.0
H2231 H 0.51972 0.30068 0.88902 0.0
C2232 C 0.06476 0.81562 0.44429 0.0
C2233 C 0.0601 0.82326 0.45217 0.0
C2234 C 0.05783 0.81053 0.43623 0.0
C2235 C 0.02961 0.80032 0.43047 0.0
H2236 H 0.03927 0.80149 0.39885 0.0
C2237 C 0.00644 0.77403 0.39628 0.0
C2238 C 0.01311 0.76924 0.38752 0.0
C2239 C 0.01108 0.78191 0.40378 0.0
C2240 C 0.03652 0.80085 0.40765 0.0
H2241 H 0.04441 0.83127 0.45802 0.0
H2242 H 0.03223 0.82182 0.44412 0.0
H2243 H 0.04893 0.81296 0.41289 0.0
H2244 H 0.02964 0.76945 0.37932 0.0
H2245 H 0.03754 0.78366 0.39188 0.0
H2246 H 0.01745 0.78794 0.4255 0.0
C2247 C 0.04129 0.82003 0.44407 0.0
C2248 C 0.0421 0.80747 0.41569 0.0
C2249 C 0.04827 0.82542 0.45201 0.0
C2250 C 0.02441 0.77276 0.38619 0.0
C2251 C 0.02892 0.78096 0.39344 0.0
C2252 C 0.02413 0.79353 0.42247 0.0
C2253 C 0.04607 0.81266 0.43595 0.0
C2254 C 0.03898 0.80698 0.42725 0.0
C2255 C 0.02246 0.78545 0.40258 0.0
C2256 C 0.02765 0.79347 0.41095 0.0
H2257 H 0.07382 0.81382 0.44411 0.0
H2258 H 0.06169 0.80486 0.43021 0.0
H2259 H 0.02694 0.79987 0.43931 0.0
H2260 H 0.99762 0.77161 0.39736 0.0
H2261 H 0.00563 0.78536 0.4104 0.0
C2262 C 0.55417 0.75066 0.64786 0.0
C2263 C 0.55569 0.75592 0.63719 0.0
C2264 C 0.54607 0.75493 0.65563 0.0
C2265 C 0.52195 0.77668 0.65774 0.0
H2266 H 0.52836 0.7745 0.6899 0.0
C2267 C 0.50872 0.81146 0.68981 0.0
C2268 C 0.50548 0.8082 0.70089 0.0
C2269 C 0.51234 0.80326 0.68194 0.0
C2270 C 0.52647 0.77522 0.68094 0.0
H2271 H 0.54998 0.76957 0.62616 0.0
H2272 H 0.53645 0.77742 0.6397 0.0
H2273 H 0.53965 0.76343 0.67657 0.0
H2274 H 0.50343 0.79383 0.7124 0.0
H2275 H 0.51039 0.77962 0.69888 0.0
H2276 H 0.50933 0.78922 0.66221 0.0
C2277 C 0.54109 0.76983 0.64219 0.0
C2278 C 0.53287 0.76871 0.67321 0.0
C2279 C 0.54906 0.76548 0.63442 0.0
C2280 C 0.50596 0.7966 0.70393 0.0
C2281 C 0.50994 0.78846 0.69619 0.0
C2282 C 0.51585 0.78351 0.66544 0.0
C2283 C 0.53936 0.76462 0.65294 0.0
C2284 C 0.53112 0.76977 0.66139 0.0
C2285 C 0.51325 0.79168 0.68509 0.0
C2286 C 0.51837 0.7832 0.67709 0.0
H2287 H 0.559 0.74307 0.65004 0.0
H2288 H 0.54498 0.75046 0.66365 0.0
H2289 H 0.51968 0.77719 0.64885 0.0
H2290 H 0.50828 0.82031 0.68718 0.0
H2291 H 0.51476 0.80605 0.67346 0.0
C2292 C 0.52507 0.26312 0.94468 0.0
C2293 C 0.52796 0.2605 0.95595 0.0
C2294 C 0.53329 0.26735 0.93708 0.0
C2295 C 0.55999 0.28368 0.93638 0.0
H2296 H 0.5594 0.27593 0.90438 0.0
C2297 C 0.5866 0.30867 0.90285 0.0
C2298 C 0.58054 0.31217 0.89315 0.0
C2299 C 0.58207 0.30056 0.91041 0.0
C2300 C 0.55969 0.27822 0.91328 0.0
H2301 H 0.54165 0.2602 0.96816 0.0
H2302 H 0.55583 0.26836 0.95509 0.0
H2303 H 0.54862 0.26457 0.91823 0.0
H2304 H 0.56537 0.30937 0.88332 0.0
H2305 H 0.55771 0.29476 0.89617 0.0
H2306 H 0.57172 0.29674 0.93168 0.0
C2307 C 0.5473 0.26696 0.95204 0.0
C2308 C 0.55339 0.2718 0.92119 0.0
C2309 C 0.53918 0.26232 0.95953 0.0
C2310 C 0.57006 0.30707 0.89091 0.0
C2311 C 0.56573 0.29864 0.89825 0.0
C2312 C 0.56666 0.28982 0.92855 0.0
C2313 C 0.54447 0.26951 0.94068 0.0
C2314 C 0.55291 0.27487 0.93272 0.0
C2315 C 0.5715 0.29549 0.90829 0.0
C2316 C 0.56611 0.28759 0.9168 0.0
H2317 H 0.51655 0.26155 0.94165 0.0
H2318 H 0.53081 0.26898 0.92839 0.0
H2319 H 0.55997 0.28625 0.94521 0.0
H2320 H 0.59483 0.31232 0.90464 0.0
H2321 H 0.58688 0.29824 0.91792 0.0
C2322 C 0.02181 0.326 0.13636 0.0
C2323 C 0.02247 0.32305 0.12489 0.0
C2324 C 0.02946 0.32132 0.14414 0.0
C2325 C 0.05673 0.30018 0.14798 0.0
H2326 H 0.04519 0.28895 0.18514 0.0
C2327 C 0.06674 0.2641 0.19203 0.0
C2328 C 0.07841 0.2655 0.19381 0.0
C2329 C 0.06099 0.27107 0.1843 0.0
C2330 C 0.04728 0.29184 0.17649 0.0
H2331 H 0.03222 0.3137 0.11228 0.0
H2332 H 0.04515 0.30472 0.12612 0.0
H2333 H 0.02755 0.3081 0.16265 0.0
H2334 H 0.09337 0.27488 0.1883 0.0
H2335 H 0.0832 0.28695 0.17447 0.0
H2336 H 0.07244 0.2887 0.15462 0.0
C2337 C 0.03876 0.31069 0.12913 0.0
C2338 C 0.03608 0.30431 0.16211 0.0
C2339 C 0.03129 0.31573 0.12122 0.0
C2340 C 0.08432 0.27365 0.18717 0.0
C2341 C 0.07856 0.28051 0.17921 0.0
C2342 C 0.06426 0.29183 0.15755 0.0
C2343 C 0.03759 0.31306 0.14079 0.0
C2344 C 0.04348 0.30617 0.14974 0.0
C2345 C 0.06677 0.27948 0.17794 0.0
C2346 C 0.06008 0.28762 0.17095 0.0
H2347 H 0.01548 0.3321 0.13928 0.0
H2348 H 0.02881 0.32411 0.15287 0.0
H2349 H 0.06094 0.30179 0.13991 0.0
H2350 H 0.06193 0.25791 0.19694 0.0
H2351 H 0.0519 0.26993 0.18344 0.0
C2352 C 0.14282 0.06902 0.26308 0.0
C2353 C 0.134 0.06391 0.2571 0.0
C2354 C 0.15129 0.06236 0.26811 0.0
C2355 C 0.16506 0.03111 0.27034 0.0
H2356 H 0.18129 0.03846 0.30673 0.0
C2357 C 0.20769 0.00893 0.3019 0.0
C2358 C 0.20534 0.00862 0.31369 0.0
C2359 C 0.19966 0.01347 0.29427 0.0
C2360 C 0.17722 0.03725 0.29848 0.0
H2361 H 0.12737 0.0478 0.25126 0.0
H2362 H 0.14195 0.03605 0.26075 0.0
H2363 H 0.15774 0.05738 0.28999 0.0
H2364 H 0.19246 0.01164 0.32661 0.0
H2365 H 0.17836 0.01905 0.31334 0.0
H2366 H 0.17873 0.0233 0.28451 0.0
C2367 C 0.14242 0.04523 0.26126 0.0
C2368 C 0.16217 0.04948 0.28767 0.0
C2369 C 0.13404 0.05196 0.25595 0.0
C2370 C 0.19461 0.0121 0.31763 0.0
C2371 C 0.18653 0.01626 0.31002 0.0
C2372 C 0.17506 0.02265 0.27722 0.0
C2373 C 0.15096 0.05039 0.26763 0.0
C2374 C 0.15887 0.04366 0.27481 0.0
C2375 C 0.18915 0.0175 0.29837 0.0
C2376 C 0.18113 0.02521 0.29093 0.0
H2377 H 0.14322 0.0782 0.26382 0.0
H2378 H 0.15803 0.06665 0.27255 0.0
H2379 H 0.16254 0.02819 0.26204 0.0
H2380 H 0.21589 0.00612 0.29865 0.0
H2381 H 0.20185 0.0144 0.28534 0.0
C2382 C 0.32348 0.95348 0.55564 0.0
C2383 C 0.32286 0.95392 0.56763 0.0
C2384 C 0.31708 0.94549 0.54964 0.0
C2385 C 0.28944 0.92808 0.55667 0.0
H2386 H 0.30178 0.9083 0.52383 0.0
C2387 C 0.26403 0.88366 0.528 0.0
C2388 C 0.26427 0.8839 0.51607 0.0
C2389 C 0.27125 0.89064 0.53418 0.0
C2390 C 0.29787 0.9121 0.53126 0.0
H2391 H 0.31584 0.94586 0.58273 0.0
H2392 H 0.30522 0.93176 0.57248 0.0
H2393 H 0.31399 0.92429 0.5341 0.0
H2394 H 0.27265 0.89137 0.50126 0.0
H2395 H 0.28487 0.90396 0.51212 0.0
H2396 H 0.26919 0.9089 0.54884 0.0
C2397 C 0.31009 0.93789 0.56758 0.0
C2398 C 0.30572 0.92257 0.53782 0.0
C2399 C 0.31619 0.94597 0.57351 0.0
C2400 C 0.27219 0.89103 0.51047 0.0
C2401 C 0.2793 0.89816 0.51667 0.0
C2402 C 0.27764 0.91231 0.54691 0.0
C2403 C 0.31014 0.93778 0.55559 0.0
C2404 C 0.30213 0.9302 0.54977 0.0
C2405 C 0.27871 0.89823 0.52859 0.0
C2406 C 0.2847 0.90699 0.53523 0.0
H2407 H 0.32872 0.95945 0.55091 0.0
H2408 H 0.31729 0.94559 0.54042 0.0
H2409 H 0.2876 0.93337 0.5641 0.0
H2410 H 0.25823 0.87809 0.53257 0.0
H2411 H 0.27084 0.89019 0.54338 0.0
C2412 C 0.39214 0.08404 0.80798 0.0
C2413 C 0.38404 0.07899 0.81534 0.0
C2414 C 0.39939 0.07728 0.80122 0.0
C2415 C 0.41104 0.04596 0.80392 0.0
H2416 H 0.42624 0.05605 0.76776 0.0
C2417 C 0.4436 0.01398 0.76764 0.0
C2418 C 0.45235 0.01852 0.76092 0.0
C2419 C 0.43599 0.02116 0.77329 0.0
C2420 C 0.42373 0.05286 0.77607 0.0
H2421 H 0.37654 0.06302 0.82064 0.0
H2422 H 0.38875 0.0513 0.80862 0.0
H2423 H 0.41063 0.06854 0.77898 0.0
H2424 H 0.45981 0.0342 0.7545 0.0
H2425 H 0.44674 0.04685 0.76508 0.0
H2426 H 0.43082 0.02611 0.79542 0.0
C2427 C 0.38993 0.06044 0.80842 0.0
C2428 C 0.41351 0.06087 0.78327 0.0
C2429 C 0.38289 0.06714 0.81532 0.0
C2430 C 0.45317 0.03047 0.75976 0.0
C2431 C 0.44566 0.03772 0.7657 0.0
C2432 C 0.42641 0.03405 0.79312 0.0
C2433 C 0.39854 0.06538 0.80162 0.0
C2434 C 0.40729 0.05793 0.79631 0.0
C2435 C 0.43715 0.03309 0.77274 0.0
C2436 C 0.42992 0.0402 0.78033 0.0
H2437 H 0.39315 0.0932 0.80773 0.0
H2438 H 0.40596 0.08133 0.79612 0.0
H2439 H 0.40696 0.0447 0.81224 0.0
H2440 H 0.44253 0.00485 0.76842 0.0
H2441 H 0.42923 0.01724 0.77822 0.0
C2442 C 0.30664 0.20875 0.0145 0.0
C2443 C 0.31796 0.20481 0.0136 0.0
C2444 C 0.29812 0.20176 0.01911 0.0
C2445 C 0.29059 0.17176 0.02348 0.0
H2446 H 0.2725 0.18196 0.0492 0.0
C2447 C 0.27105 0.14051 0.05625 0.0
C2448 C 0.26083 0.1434 0.06179 0.0
C2449 C 0.27594 0.14801 0.04827 0.0
C2450 C 0.27738 0.17895 0.04196 0.0
H2451 H 0.32919 0.19042 0.01653 0.0
H2452 H 0.31424 0.178 0.02403 0.0
H2453 H 0.28516 0.19527 0.03944 0.0
H2454 H 0.24748 0.15614 0.0631 0.0
H2455 H 0.25643 0.1696 0.04983 0.0
H2456 H 0.28331 0.1553 0.0263 0.0
C2457 C 0.31199 0.1866 0.02153 0.0
C2458 C 0.28462 0.18663 0.03634 0.0
C2459 C 0.32058 0.19373 0.0173 0.0
C2460 C 0.25551 0.15384 0.05912 0.0
C2461 C 0.26062 0.16152 0.05147 0.0
C2462 C 0.28354 0.16401 0.02924 0.0
C2463 C 0.30067 0.19054 0.02254 0.0
C2464 C 0.29168 0.18297 0.02735 0.0
C2465 C 0.27102 0.1588 0.04608 0.0
C2466 C 0.27715 0.16739 0.03884 0.0
H2467 H 0.30439 0.21726 0.01161 0.0
H2468 H 0.28949 0.20502 0.01975 0.0
H2469 H 0.29554 0.16887 0.01622 0.0
H2470 H 0.27514 0.13237 0.05793 0.0
H2471 H 0.28381 0.14548 0.04412 0.0
C2472 C 0.19567 0.08034 0.27588 0.0
C2473 C 0.20407 0.07527 0.26886 0.0
C2474 C 0.18881 0.07364 0.28309 0.0
C2475 C 0.17799 0.04266 0.28082 0.0
H2476 H 0.16109 0.0527 0.31614 0.0
C2477 C 0.14286 0.01154 0.31582 0.0
C2478 C 0.13463 0.01644 0.32296 0.0
C2479 C 0.15054 0.01838 0.30986 0.0
C2480 C 0.16396 0.04958 0.30796 0.0
H2481 H 0.21254 0.05938 0.26471 0.0
H2482 H 0.20085 0.04778 0.27744 0.0
H2483 H 0.17753 0.06482 0.30576 0.0
H2484 H 0.12809 0.03241 0.32964 0.0
H2485 H 0.14126 0.04448 0.3186 0.0
H2486 H 0.15734 0.02358 0.28794 0.0
C2487 C 0.19928 0.05688 0.2771 0.0
C2488 C 0.17477 0.0573 0.30136 0.0
C2489 C 0.20597 0.0635 0.26977 0.0
C2490 C 0.13431 0.0284 0.32408 0.0
C2491 C 0.14188 0.03531 0.31785 0.0
C2492 C 0.1618 0.03125 0.29056 0.0
C2493 C 0.19034 0.0618 0.28348 0.0
C2494 C 0.18161 0.05432 0.28866 0.0
C2495 C 0.14996 0.03035 0.31053 0.0
C2496 C 0.1577 0.03726 0.30324 0.0
H2497 H 0.19407 0.08943 0.27545 0.0
H2498 H 0.18193 0.07765 0.28781 0.0
H2499 H 0.1825 0.04142 0.27273 0.0
H2500 H 0.14356 1.00237 0.31503 0.0
H2501 H 0.15704 0.01416 0.30481 0.0
C2502 C 0.25014 0.94989 0.53157 0.0
C2503 C 0.2565 0.95703 0.52425 0.0
C2504 C 0.25561 0.942 0.53876 0.0
C2505 C 0.28572 0.92676 0.53872 0.0
H2506 H 0.27164 0.9152 0.57489 0.0
C2507 C 0.31226 0.89568 0.57972 0.0
C2508 C 0.30708 0.88618 0.58478 0.0
C2509 C 0.30575 0.90368 0.57377 0.0
C2510 C 0.27564 0.91681 0.56671 0.0
H2511 H 0.27353 0.96214 0.51937 0.0
H2512 H 0.28304 0.9489 0.53218 0.0
H2513 H 0.26146 0.93089 0.56166 0.0
H2514 H 0.29082 0.87804 0.58818 0.0
H2515 H 0.2795 0.89198 0.57732 0.0
H2516 H 0.30319 0.90628 0.55034 0.0
C2517 C 0.27383 0.94888 0.532 0.0
C2518 C 0.26912 0.92705 0.55819 0.0
C2519 C 0.2684 0.95655 0.52467 0.0
C2520 C 0.29511 0.88524 0.58429 0.0
C2521 C 0.28857 0.89325 0.57818 0.0
C2522 C 0.29541 0.91137 0.55153 0.0
C2523 C 0.26753 0.94125 0.53883 0.0
C2524 C 0.27357 0.93202 0.54505 0.0
C2525 C 0.29393 0.90232 0.57256 0.0
C2526 C 0.288 0.90936 0.56395 0.0
H2527 H 0.24092 0.95015 0.53149 0.0
H2528 H 0.25053 0.93624 0.5439 0.0
H2529 H 0.288 0.93013 0.53029 0.0
H2530 H 0.32139 0.8968 0.58011 0.0
H2531 H 0.31009 0.91073 0.56967 0.0
C2532 C 0.45556 0.06458 0.81501 0.0
C2533 C 0.45469 0.06586 0.82682 0.0
C2534 C 0.4482 0.05733 0.80934 0.0
C2535 C 0.42406 0.03337 0.8134 0.0
H2536 H 0.40618 0.0424 0.77826 0.0
C2537 C 0.38144 0.01161 0.78556 0.0
C2538 C 0.38326 0.01102 0.77369 0.0
C2539 C 0.38952 0.01677 0.79258 0.0
C2540 C 0.41068 0.04087 0.78626 0.0
H2541 H 0.44573 0.06014 0.84205 0.0
H2542 H 0.43241 0.04792 0.83196 0.0
H2543 H 0.43093 0.06012 0.79388 0.0
H2544 H 0.39534 0.01417 0.76005 0.0
H2545 H 0.40949 0.02267 0.77215 0.0
H2546 H 0.41079 0.01801 0.81082 0.0
C2547 C 0.43899 0.0523 0.82716 0.0
C2548 C 0.42665 0.05218 0.79623 0.0
C2549 C 0.44654 0.0594 0.8329 0.0
C2550 C 0.39358 0.01482 0.76909 0.0
C2551 C 0.40171 0.0196 0.77608 0.0
C2552 C 0.41343 0.02583 0.80667 0.0
C2553 C 0.43958 0.05143 0.81528 0.0
C2554 C 0.43053 0.04573 0.80879 0.0
C2555 C 0.39958 0.02111 0.78778 0.0
C2556 C 0.40702 0.02902 0.79392 0.0
H2557 H 0.46193 0.06917 0.81013 0.0
H2558 H 0.44916 0.05653 0.8002 0.0
H2559 H 0.42703 0.0298 0.82137 0.0
H2560 H 0.37356 0.00857 0.7893 0.0
H2561 H 0.38765 0.0179 0.80154 0.0
C2562 C 0.26784 0.18546 0.07737 0.0
C2563 C 0.27183 0.19641 0.07986 0.0
C2564 C 0.27528 0.17711 0.07293 0.0
C2565 C 0.30207 0.17526 0.05601 0.0
H2566 H 0.29899 0.14279 0.06109 0.0
C2567 C 0.31633 0.14325 0.02214 0.0
C2568 C 0.32128 0.13285 0.02538 0.0
C2569 C 0.31198 0.15068 0.03037 0.0
C2570 C 0.30009 0.15184 0.05966 0.0
H2571 H 0.28692 0.20699 0.07981 0.0
H2572 H 0.29961 0.19269 0.07194 0.0
H2573 H 0.28819 0.15614 0.07298 0.0
H2574 H 0.32538 0.12197 0.0398 0.0
H2575 H 0.31717 0.13477 0.05415 0.0
H2576 H 0.31379 0.17102 0.04268 0.0
C2577 C 0.29078 0.19047 0.07336 0.0
C2578 C 0.29379 0.15951 0.06642 0.0
C2579 C 0.28345 0.1987 0.07794 0.0
C2580 C 0.32156 0.12994 0.03704 0.0
C2581 C 0.31685 0.13726 0.04526 0.0
C2582 C 0.30821 0.16763 0.04921 0.0
C2583 C 0.2868 0.1796 0.07058 0.0
C2584 C 0.29442 0.17133 0.06444 0.0
C2585 C 0.31206 0.14781 0.04203 0.0
C2586 C 0.30695 0.15581 0.05059 0.0
H2587 H 0.259 0.18333 0.07886 0.0
H2588 H 0.27191 0.16882 0.07101 0.0
H2589 H 0.3029 0.18427 0.05419 0.0
H2590 H 0.31612 0.14582 0.01327 0.0
H2591 H 0.30852 0.1587 0.02754 0.0
C2592 C 0.77027 0.44738 0.02274 0.0
C2593 C 0.75895 0.44602 0.01943 0.0
C2594 C 0.77486 0.44055 0.03141 0.0
C2595 C 0.77053 0.41246 0.04629 0.0
H2596 H 0.79455 0.42364 0.06543 0.0
C2597 C 0.79515 0.38484 0.08032 0.0
C2598 C 0.80707 0.38529 0.07885 0.0
C2599 C 0.78795 0.39228 0.07424 0.0
C2600 C 0.78795 0.42037 0.06003 0.0
H2601 H 0.74352 0.43652 0.0226 0.0
H2602 H 0.75171 0.42412 0.03721 0.0
H2603 H 0.78473 0.43676 0.05265 0.0
H2604 H 0.82071 0.39398 0.06994 0.0
H2605 H 0.8082 0.40704 0.05983 0.0
H2606 H 0.7738 0.39607 0.05393 0.0
C2607 C 0.75708 0.43049 0.03325 0.0
C2608 C 0.78228 0.42789 0.05267 0.0
C2609 C 0.75236 0.43761 0.02486 0.0
C2610 C 0.8116 0.39332 0.07122 0.0
C2611 C 0.80443 0.4009 0.06545 0.0
C2612 C 0.77614 0.40497 0.05379 0.0
C2613 C 0.76846 0.4318 0.03665 0.0
C2614 C 0.77371 0.424 0.04539 0.0
C2615 C 0.79257 0.40054 0.06684 0.0
C2616 C 0.78525 0.40875 0.06038 0.0
H2617 H 0.77546 0.45399 0.0189 0.0
H2618 H 0.7835 0.44213 0.03392 0.0
H2619 H 0.76406 0.40902 0.04083 0.0
H2620 H 0.79139 0.37871 0.08615 0.0
H2621 H 0.77883 0.39175 0.0755 0.0
C2622 C 0.89121 0.52781 0.26329 0.0
C2623 C 0.89149 0.5159 0.26249 0.0
C2624 C 0.8984 0.5334 0.27087 0.0
C2625 C 0.92563 0.52959 0.28638 0.0
H2626 H 0.91481 0.55544 0.30375 0.0
C2627 C 0.95497 0.55376 0.31763 0.0
C2628 C 0.95383 0.56571 0.31764 0.0
C2629 C 0.94722 0.547 0.31175 0.0
C2630 C 0.91804 0.5483 0.29891 0.0
H2631 H 0.89966 0.50052 0.26887 0.0
H2632 H 0.91244 0.51027 0.28169 0.0
H2633 H 0.90168 0.54528 0.29165 0.0
H2634 H 0.94348 0.57987 0.31181 0.0
H2635 H 0.92983 0.56809 0.30219 0.0
H2636 H 0.94197 0.53255 0.29364 0.0
C2637 C 0.90663 0.51533 0.27659 0.0
C2638 C 0.91047 0.54246 0.29195 0.0
C2639 C 0.89926 0.50973 0.26926 0.0
C2640 C 0.94476 0.57072 0.31176 0.0
C2641 C 0.93685 0.56394 0.30624 0.0
C2642 C 0.93317 0.53536 0.29344 0.0
C2643 C 0.9063 0.52725 0.27754 0.0
C2644 C 0.91421 0.53317 0.2854 0.0
C2645 C 0.93795 0.55201 0.30601 0.0
C2646 C 0.92959 0.54502 0.29956 0.0
H2647 H 0.88522 0.53278 0.2583 0.0
H2648 H 0.89778 0.54256 0.27144 0.0
H2649 H 0.92887 0.52253 0.28142 0.0
H2650 H 0.96183 0.54964 0.32225 0.0
H2651 H 0.94833 0.53784 0.31196 0.0
C2652 C 0.82906 0.64209 0.52385 0.0
C2653 C 0.82378 0.63453 0.51632 0.0
C2654 C 0.82252 0.64924 0.53088 0.0
C2655 C 0.7917 0.66223 0.52909 0.0
H2656 H 0.8028 0.67534 0.56531 0.0
C2657 C 0.76169 0.69443 0.56717 0.0
C2658 C 0.76668 0.70263 0.57402 0.0
C2659 C 0.76845 0.68683 0.56106 0.0
C2660 C 0.79944 0.67336 0.55703 0.0
H2661 H 0.80759 0.62788 0.51094 0.0
H2662 H 0.79623 0.63998 0.52342 0.0
H2663 H 0.8144 0.65966 0.5534 0.0
H2664 H 0.7827 0.7091 0.58022 0.0
H2665 H 0.79467 0.69609 0.56878 0.0
H2666 H 0.77294 0.68261 0.53859 0.0
C2667 C 0.8054 0.64078 0.52357 0.0
C2668 C 0.80685 0.66308 0.54939 0.0
C2669 C 0.81189 0.63382 0.51641 0.0
C2670 C 0.77865 0.70291 0.57485 0.0
C2671 C 0.7855 0.69543 0.56842 0.0
C2672 C 0.78066 0.67772 0.54056 0.0
C2673 C 0.81062 0.64884 0.53058 0.0
C2674 C 0.80351 0.65758 0.53629 0.0
C2675 C 0.78042 0.68749 0.56126 0.0
C2676 C 0.78709 0.68035 0.55325 0.0
H2677 H 0.83824 0.64277 0.52404 0.0
H2678 H 0.82678 0.6554 0.53613 0.0
H2679 H 0.79018 0.65858 0.5207 0.0
H2680 H 0.75251 0.69378 0.56665 0.0
H2681 H 0.7642 0.68046 0.55607 0.0
C2682 C 0.9439 0.53895 0.25153 0.0
C2683 C 0.95243 0.53466 0.25872 0.0
C2684 C 0.93638 0.54746 0.25528 0.0
C2685 C 0.93194 0.56965 0.27745 0.0
H2686 H 0.89999 0.56292 0.27354 0.0
C2687 C 0.89689 0.58395 0.30906 0.0
C2688 C 0.8861 0.58701 0.30493 0.0
C2689 C 0.90544 0.58011 0.30159 0.0
C2690 C 0.90886 0.56509 0.27454 0.0
H2691 H 0.96026 0.53633 0.2752 0.0
H2692 H 0.94749 0.55165 0.28159 0.0
H2693 H 0.91439 0.55167 0.26351 0.0
H2694 H 0.87591 0.58849 0.28965 0.0
H2695 H 0.89069 0.58145 0.27677 0.0
H2696 H 0.92633 0.58318 0.28838 0.0
C2697 C 0.94636 0.5482 0.27317 0.0
C2698 C 0.91713 0.5586 0.26882 0.0
C2699 C 0.95362 0.53936 0.26958 0.0
C2700 C 0.88412 0.58619 0.29315 0.0
C2701 C 0.89259 0.58214 0.28574 0.0
C2702 C 0.92363 0.57633 0.28295 0.0
C2703 C 0.93743 0.55214 0.2662 0.0
C2704 C 0.92878 0.56041 0.27065 0.0
C2705 C 0.90335 0.57897 0.28985 0.0
C2706 C 0.91203 0.57365 0.28214 0.0
H2707 H 0.94292 0.53555 0.24305 0.0
H2708 H 0.92972 0.55039 0.24962 0.0
H2709 H 0.94084 0.57151 0.27879 0.0
H2710 H 0.89874 0.58458 0.31804 0.0
H2711 H 0.91357 0.57775 0.30512 0.0
C2712 C 0.69834 0.51442 0.81095 0.0
C2713 C 0.69758 0.5027 0.81314 0.0
C2714 C 0.69112 0.51969 0.80304 0.0
C2715 C 0.66289 0.51603 0.78919 0.0
H2716 H 0.6729 0.54191 0.77119 0.0
C2717 C 0.63209 0.54228 0.75993 0.0
C2718 C 0.63336 0.55419 0.76043 0.0
C2719 C 0.64005 0.53493 0.76513 0.0
C2720 C 0.66991 0.53475 0.77621 0.0
H2721 H 0.68869 0.48729 0.80874 0.0
H2722 H 0.67569 0.49658 0.79541 0.0
H2723 H 0.68662 0.53127 0.78249 0.0
H2724 H 0.64412 0.56767 0.76642 0.0
H2725 H 0.65808 0.55493 0.77476 0.0
H2726 H 0.64618 0.51952 0.78282 0.0
C2727 C 0.6819 0.50173 0.79969 0.0
C2728 C 0.67782 0.52862 0.78273 0.0
C2729 C 0.68939 0.49639 0.80731 0.0
C2730 C 0.64275 0.55857 0.76609 0.0
C2731 C 0.65084 0.55124 0.77086 0.0
C2732 C 0.65501 0.52209 0.78252 0.0
C2733 C 0.68261 0.51351 0.79746 0.0
C2734 C 0.67438 0.51936 0.7896 0.0
C2735 C 0.64965 0.53935 0.7706 0.0
C2736 C 0.65831 0.53181 0.77628 0.0
H2737 H 0.70472 0.51946 0.81514 0.0
H2738 H 0.69218 0.52867 0.80143 0.0
H2739 H 0.65983 0.50904 0.79441 0.0
H2740 H 0.62496 0.53865 0.75549 0.0
H2741 H 0.63883 0.52582 0.7646 0.0
C2742 C 0.82611 0.45302 0.0488 0.0
C2743 C 0.82585 0.45105 0.06063 0.0
C2744 C 0.82147 0.4451 0.04131 0.0
C2745 C 0.81286 0.41481 0.03926 0.0
H2746 H 0.78991 0.42591 0.01842 0.0
C2747 C 0.77547 0.38672 0.02496 0.0
C2748 C 0.77121 0.38818 0.01393 0.0
C2749 C 0.78412 0.3938 0.02892 0.0
C2750 C 0.79633 0.42261 0.02415 0.0
H2751 H 0.82103 0.43908 0.07387 0.0
H2752 H 0.81355 0.42508 0.06087 0.0
H2753 H 0.80226 0.43938 0.02794 0.0
H2754 H 0.77262 0.39811 0.99838 0.0
H2755 H 0.78714 0.41091 0.0055 0.0
H2756 H 0.80684 0.39804 0.03573 0.0
C2757 C 0.81693 0.43284 0.05731 0.0
C2758 C 0.8034 0.43036 0.02962 0.0
C2759 C 0.82116 0.44091 0.06481 0.0
C2760 C 0.77563 0.39693 0.007 0.0
C2761 C 0.78398 0.40425 0.01109 0.0
C2762 C 0.80568 0.40704 0.03396 0.0
C2763 C 0.81686 0.43486 0.04548 0.0
C2764 C 0.81127 0.42659 0.03777 0.0
C2765 C 0.78836 0.4028 0.02212 0.0
C2766 C 0.79699 0.41087 0.02667 0.0
H2767 H 0.8298 0.46076 0.04535 0.0
H2768 H 0.82161 0.44693 0.03225 0.0
H2769 H 0.81944 0.41163 0.04487 0.0
H2770 H 0.77239 0.37987 0.03038 0.0
H2771 H 0.78739 0.39228 0.03738 0.0
C2772 C 0.75472 0.63431 0.54677 0.0
C2773 C 0.75446 0.63509 0.55875 0.0
C2774 C 0.76075 0.64234 0.54015 0.0
C2775 C 0.78672 0.66137 0.54685 0.0
H2776 H 0.77623 0.67975 0.51246 0.0
C2777 C 0.81239 0.70624 0.51827 0.0
C2778 C 0.81316 0.70599 0.50637 0.0
C2779 C 0.80502 0.69891 0.52408 0.0
C2780 C 0.77971 0.67627 0.52025 0.0
H2781 H 0.75923 0.64538 0.57308 0.0
H2782 H 0.76917 0.65952 0.5617 0.0
H2783 H 0.76374 0.6637 0.52291 0.0
H2784 H 0.80647 0.69817 0.49118 0.0
H2785 H 0.79403 0.68486 0.50148 0.0
H2786 H 0.80693 0.68094 0.53919 0.0
C2787 C 0.76527 0.65248 0.55736 0.0
C2788 C 0.77169 0.66576 0.52692 0.0
C2789 C 0.7596 0.64438 0.56392 0.0
C2790 C 0.80613 0.69848 0.50039 0.0
C2791 C 0.7989 0.69094 0.50626 0.0
C2792 C 0.79876 0.67718 0.53695 0.0
C2793 C 0.76635 0.65131 0.54548 0.0
C2794 C 0.77463 0.65865 0.53943 0.0
C2795 C 0.79848 0.69092 0.51818 0.0
C2796 C 0.79242 0.68191 0.52467 0.0
H2797 H 0.75066 0.62727 0.54257 0.0
H2798 H 0.76146 0.64124 0.53103 0.0
H2799 H 0.7881 0.65644 0.55469 0.0
H2800 H 0.81745 0.71213 0.52309 0.0
H2801 H 0.80458 0.69944 0.53327 0.0
C2802 C 0.64808 0.52254 0.82737 0.0
C2803 C 0.63893 0.51842 0.82103 0.0
C2804 C 0.65525 0.53096 0.82288 0.0
C2805 C 0.65739 0.55344 0.80023 0.0
H2806 H 0.68983 0.54832 0.80333 0.0
C2807 C 0.69067 0.57047 0.76787 0.0
C2808 C 0.70136 0.57387 0.77178 0.0
C2809 C 0.68258 0.56594 0.77548 0.0
C2810 C 0.6808 0.54997 0.80248 0.0
H2811 H 0.62972 0.52029 0.80527 0.0
H2812 H 0.64191 0.53542 0.79757 0.0
H2813 H 0.67649 0.53619 0.81372 0.0
H2814 H 0.71185 0.57524 0.78683 0.0
H2815 H 0.69789 0.56707 0.79992 0.0
H2816 H 0.66184 0.56754 0.78931 0.0
C2817 C 0.64382 0.53186 0.80587 0.0
C2818 C 0.67312 0.54299 0.80843 0.0
C2819 C 0.63688 0.52312 0.81022 0.0
C2820 C 0.70371 0.57269 0.78348 0.0
C2821 C 0.6957 0.56798 0.79102 0.0
C2822 C 0.66511 0.5606 0.79451 0.0
C2823 C 0.65326 0.53573 0.81204 0.0
C2824 C 0.66131 0.54426 0.80696 0.0
C2825 C 0.68503 0.56446 0.78713 0.0
C2826 C 0.67688 0.55849 0.79497 0.0
H2827 H 0.64971 0.51919 0.83583 0.0
H2828 H 0.66226 0.53384 0.82799 0.0
H2829 H 0.64835 0.55498 0.79922 0.0
H2830 H 0.68853 0.57135 0.75896 0.0
H2831 H 0.67454 0.56334 0.77209 0.0
C2832 C 1.00102 0.38405 0.25156 0.0
C2833 C 0.00404 0.38277 0.24002 0.0
C2834 C 0.99978 0.39491 0.25629 0.0
C2835 C 0.00514 0.42593 0.2505 0.0
H2836 H 0.97928 0.43022 0.27077 0.0
C2837 C 0.97266 0.46441 0.26458 0.0
C2838 C 0.98035 0.47351 0.26453 0.0
C2839 C 0.97659 0.45314 0.26396 0.0
C2840 C 0.98651 0.42922 0.26508 0.0
H2841 H 0.00853 0.39195 0.22455 0.0
H2842 H 0.00614 0.41076 0.23265 0.0
H2843 H 0.9845 0.41114 0.26467 0.0
H2844 H 0.99825 0.47784 0.26473 0.0
H2845 H 0.00511 0.4582 0.26414 0.0
H2846 H 0.00672 0.44404 0.25031 0.0
C2847 C 0.00493 0.40344 0.23818 0.0
C2848 C 0.98963 0.4182 0.2617 0.0
C2849 C 0.00626 0.39259 0.23348 0.0
C2850 C 0.99208 0.47103 0.26473 0.0
C2851 C 0.99602 0.45975 0.26424 0.0
C2852 C 1.00196 0.43695 0.25379 0.0
C2853 C 1.00144 0.40479 0.24959 0.0
C2854 C 0.99887 0.4164 0.25418 0.0
C2855 C 0.98833 0.45065 0.2634 0.0
C2856 C 0.99246 0.43879 0.26097 0.0
H2857 H 0.99928 0.37666 0.25685 0.0
H2858 H 0.99731 0.39556 0.26517 0.0
H2859 H 0.01243 0.42493 0.24489 0.0
H2860 H 0.96357 0.46599 0.26434 0.0
H2861 H 0.97036 0.44645 0.26323 0.0
C2862 C 0.95951 0.76294 0.48913 0.0
C2863 C 0.96149 0.7635 0.47731 0.0
C2864 C 0.9484 0.76221 0.49352 0.0
C2865 C 0.91752 0.76413 0.48552 0.0
H2866 H 0.91391 0.74248 0.51036 0.0
C2867 C 0.88078 0.73252 0.50503 0.0
C2868 C 0.87111 0.7395 0.50356 0.0
C2869 C 0.89174 0.73694 0.50363 0.0
C2870 C 0.91472 0.74851 0.50339 0.0
H2871 H 0.95324 0.76434 0.46089 0.0
H2872 H 0.93399 0.76286 0.46847 0.0
H2873 H 0.93289 0.74776 0.50402 0.0
H2874 H 0.86546 0.75681 0.50019 0.0
H2875 H 0.88455 0.76462 0.49813 0.0
H2876 H 0.89936 0.76433 0.48443 0.0
C2877 C 0.94095 0.76316 0.47442 0.0
C2878 C 0.92567 0.7517 0.49984 0.0
C2879 C 0.95205 0.764 0.47004 0.0
C2880 C 0.87271 0.75118 0.50136 0.0
C2881 C 0.88368 0.75563 0.50004 0.0
C2882 C 0.90658 0.76086 0.48901 0.0
C2883 C 0.93897 0.76191 0.48621 0.0
C2884 C 0.92726 0.75942 0.49072 0.0
C2885 C 0.89336 0.7485 0.5008 0.0
C2886 C 0.905 0.75285 0.49787 0.0
H2887 H 0.96657 0.76257 0.49499 0.0
H2888 H 0.94724 0.76156 0.50266 0.0
H2889 H 0.91834 0.77022 0.4786 0.0
H2890 H 0.8799 0.72347 0.50664 0.0
H2891 H 0.89891 0.73112 0.50417 0.0
C2892 C 0.60598 0.62206 0.76139 0.0
C2893 C 0.60059 0.61317 0.75567 0.0
C2894 C 0.60182 0.63327 0.76056 0.0
C2895 C 0.57728 0.65107 0.74956 0.0
H2896 H 0.60048 0.67427 0.74726 0.0
C2897 C 0.57129 0.69538 0.72752 0.0
C2898 C 0.57631 0.70484 0.73269 0.0
C2899 C 0.5728 0.68439 0.73207 0.0
C2900 C 0.59386 0.66793 0.74803 0.0
H2901 H 0.58629 0.60905 0.74497 0.0
H2902 H 0.57929 0.62848 0.74321 0.0
H2903 H 0.6059 0.65483 0.75208 0.0
H2904 H 0.58637 0.71016 0.74707 0.0
H2905 H 0.58906 0.69102 0.7549 0.0
H2906 H 0.56536 0.66424 0.74488 0.0
C2907 C 0.58657 0.62688 0.74858 0.0
C2908 C 0.59696 0.65673 0.75086 0.0
C2909 C 0.59062 0.61567 0.74957 0.0
C2910 C 0.58236 0.7031 0.74285 0.0
C2911 C 0.58399 0.69211 0.7473 0.0
C2912 C 0.57422 0.66226 0.74654 0.0
C2913 C 0.59227 0.63593 0.75382 0.0
C2914 C 0.58874 0.64807 0.7516 0.0
C2915 C 0.57947 0.68259 0.74181 0.0
C2916 C 0.58249 0.67081 0.74568 0.0
H2917 H 0.61365 0.62043 0.76621 0.0
H2918 H 0.60629 0.63988 0.76501 0.0
H2919 H 0.57064 0.64477 0.75024 0.0
H2920 H 0.56661 0.6964 0.71967 0.0
H2921 H 0.56924 0.67723 0.72761 0.0
C2922 C 0.71134 0.34308 0.01274 0.0
C2923 C 0.71252 0.35492 0.01386 0.0
C2924 C 0.70064 0.33828 0.01087 0.0
C2925 C 0.67943 0.33179 0.99796 0.0
H2926 H 0.65113 0.34478 0.00926 0.0
C2927 C 0.63653 0.32595 0.97505 0.0
C2928 C 0.62633 0.32615 0.98141 0.0
C2929 C 0.64703 0.32757 0.98035 0.0
C2930 C 0.65892 0.34089 0.00613 0.0
H2931 H 0.70321 0.37092 0.01456 0.0
H2932 H 0.68466 0.36263 0.01119 0.0
H2933 H 0.66912 0.35117 0.01694 0.0
H2934 H 0.61929 0.32744 0.99848 0.0
H2935 H 0.63759 0.32992 0.00775 0.0
H2936 H 0.66923 0.32145 0.98722 0.0
C2937 C 0.69194 0.35697 0.01187 0.0
C2938 C 0.66929 0.34469 0.01045 0.0
C2939 C 0.70263 0.36176 0.01382 0.0
C2940 C 0.62697 0.32726 0.9933 0.0
C2941 C 0.63747 0.32883 0.99861 0.0
C2942 C 0.66906 0.32795 0.99369 0.0
C2943 C 0.69084 0.3452 0.01 0.0
C2944 C 0.67972 0.34035 0.00629 0.0
C2945 C 0.64763 0.32937 0.99217 0.0
C2946 C 0.65865 0.33259 0.99755 0.0
H2947 H 0.71876 0.33754 0.01276 0.0
H2948 H 0.70013 0.32915 0.00976 0.0
H2949 H 0.68723 0.3283 0.99442 0.0
H2950 H 0.63639 0.3252 0.96587 0.0
H2951 H 0.6546 0.32801 0.97504 0.0
C2952 C 0.98366 0.63198 0.32224 0.0
C2953 C 0.98844 0.62213 0.32723 0.0
C2954 C 0.98862 0.64267 0.32384 0.0
C2955 C 0.00455 0.65775 0.34525 0.0
H2956 H 0.00887 0.68109 0.32213 0.0
C2957 C 0.01859 0.70265 0.35822 0.0
C2958 C 0.01346 0.71189 0.3525 0.0
C2959 C 0.01779 0.69158 0.35393 0.0
C2960 C 0.0076 0.67475 0.32874 0.0
H2961 H 0.00252 0.61578 0.33735 0.0
H2962 H 0.01102 0.6344 0.34025 0.0
H2963 H 0.00289 0.66206 0.31662 0.0
H2964 H 0.00394 0.71676 0.33748 0.0
H2965 H 1.00217 0.6976 0.33028 0.0
H2966 H 0.00854 0.67039 0.35747 0.0
C2967 C 0.00345 0.63385 0.3351 0.0
C2968 C 0.00423 0.6638 0.32554 0.0
C2969 C 0.99861 0.62316 0.33336 0.0
C2970 C 0.00807 0.70987 0.34208 0.0
C2971 C 0.00708 0.69879 0.33791 0.0
C2972 C 0.0077 0.66871 0.34848 0.0
C2973 C 0.99836 0.64375 0.3306 0.0
C2974 C 0.00261 0.65521 0.33377 0.0
C2975 C 0.01163 0.68941 0.34394 0.0
C2976 C 0.0092 0.67745 0.3403 0.0
H2977 H 0.97582 0.63151 0.31749 0.0
H2978 H 0.98448 0.65016 0.32029 0.0
H2979 H 0.00321 0.65135 0.35181 0.0
H2980 H 0.02286 0.70391 0.36624 0.0
H2981 H 0.02174 0.68469 0.35868 0.0
C2982 C 0.70671 0.74671 0.58685 0.0
C2983 C 0.70852 0.7363 0.58126 0.0
C2984 C 0.69568 0.75044 0.58958 0.0
C2985 C 0.673 0.75 0.60249 0.0
H2986 H 0.64685 0.74759 0.58279 0.0
C2987 C 0.62639 0.74728 0.61892 0.0
C2988 C 0.61795 0.75319 0.61279 0.0
C2989 C 0.63768 0.747 0.61498 0.0
C2990 C 0.65408 0.74842 0.58837 0.0
H2991 H 0.70006 0.72208 0.57339 0.0
H2992 H 0.68081 0.7287 0.57796 0.0
H2993 H 0.66597 0.744 0.57511 0.0
H2994 H 0.61488 0.76383 0.59792 0.0
H2995 H 0.63456 0.76329 0.59104 0.0
H2996 H 0.6611 0.75413 0.61581 0.0
C2997 C 0.68794 0.73394 0.58031 0.0
C2998 C 0.66502 0.74628 0.58399 0.0
C2999 C 0.69899 0.73015 0.57768 0.0
C3000 C 0.62117 0.75923 0.60289 0.0
C3001 C 0.63242 0.75883 0.59887 0.0
C3002 C 0.66206 0.752 0.6069 0.0
C3003 C 0.68618 0.74392 0.58666 0.0
C3004 C 0.6746 0.74697 0.59101 0.0
C3005 C 0.64076 0.75252 0.60475 0.0
C3006 C 0.65246 0.75115 0.59992 0.0
H3007 H 0.71383 0.75168 0.58974 0.0
H3008 H 0.69459 0.75826 0.59431 0.0
H3009 H 0.68019 0.75048 0.60816 0.0
H3010 H 0.6242 0.74254 0.62656 0.0
H3011 H 0.64388 0.74202 0.61969 0.0
C3012 C 0.58283 0.37148 0.84612 0.0
C3013 C 0.58124 0.37041 0.85796 0.0
C3014 C 0.58436 0.3822 0.841 0.0
C3015 C 0.58259 0.41366 0.84639 0.0
H3016 H 0.60591 0.41496 0.82286 0.0
C3017 C 0.61516 0.44878 0.82509 0.0
C3018 C 0.60798 0.45842 0.82508 0.0
C3019 C 0.61082 0.43792 0.82747 0.0
C3020 C 0.59941 0.4148 0.82946 0.0
H3021 H 0.57948 0.37992 0.87362 0.0
H3022 H 0.58229 0.39851 0.86479 0.0
H3023 H 0.60003 0.39661 0.83052 0.0
H3024 H 0.59044 0.46404 0.82683 0.0
H3025 H 0.5828 0.44512 0.83056 0.0
H3026 H 0.58241 0.43187 0.84577 0.0
C3027 C 0.5822 0.39111 0.85936 0.0
C3028 C 0.59589 0.4042 0.83376 0.0
C3029 C 0.58059 0.3804 0.86446 0.0
C3030 C 0.59624 0.45682 0.8268 0.0
C3031 C 0.59187 0.44595 0.82909 0.0
C3032 C 0.58616 0.42425 0.84214 0.0
C3033 C 0.58443 0.39216 0.84759 0.0
C3034 C 0.58752 0.40346 0.84239 0.0
C3035 C 0.59914 0.43637 0.82982 0.0
C3036 C 0.59473 0.425 0.8337 0.0
H3037 H 0.58336 0.36398 0.84083 0.0
H3038 H 0.58576 0.38263 0.83188 0.0
H3039 H 0.57602 0.41349 0.85291 0.0
H3040 H 0.62427 0.44968 0.82391 0.0
H3041 H 0.61675 0.43083 0.82804 0.0
C3042 C 0.95374 0.32466 0.09719 0.0
C3043 C 0.9581 0.32916 0.1073 0.0
C3044 C 0.94223 0.32612 0.09444 0.0
C3045 C 0.91377 0.33354 0.10623 0.0
H3046 H 0.90772 0.34479 0.07571 0.0
C3047 C 0.87559 0.3592 0.08178 0.0
C3048 C 0.86609 0.35308 0.08575 0.0
C3049 C 0.88665 0.35497 0.08343 0.0
C3050 C 0.90926 0.34164 0.08426 0.0
H3051 H 0.9536 0.33827 0.12271 0.0
H3052 H 0.93352 0.34062 0.11801 0.0
H3053 H 0.92715 0.33958 0.08106 0.0
H3054 H 0.86081 0.33739 0.09408 0.0
H3055 H 0.88007 0.33004 0.09691 0.0
H3056 H 0.89592 0.3358 0.10949 0.0
C3057 C 0.93901 0.33599 0.11218 0.0
C3058 C 0.92038 0.33855 0.0873 0.0
C3059 C 0.95054 0.33463 0.11488 0.0
C3060 C 0.86791 0.34235 0.09089 0.0
C3061 C 0.87897 0.33817 0.09262 0.0
C3062 C 0.90263 0.33651 0.10315 0.0
C3063 C 0.93477 0.33202 0.10179 0.0
C3064 C 0.9228 0.33458 0.09837 0.0
C3065 C 0.88849 0.34455 0.08917 0.0
C3066 C 0.90025 0.34071 0.09216 0.0
H3067 H 0.95931 0.32044 0.09113 0.0
H3068 H 0.93922 0.32282 0.08645 0.0
H3069 H 0.91532 0.33046 0.1148 0.0
H3070 H 0.87452 0.36752 0.07785 0.0
H3071 H 0.89379 0.36013 0.0807 0.0
C3072 C 0.25485 1.00101 0.46298 0.0
C3073 C 0.25636 0.9893 0.46525 0.0
C3074 C 0.25366 0.00502 0.45176 0.0
C3075 C 0.24199 0.99527 0.42518 0.0
H3076 H 0.25618 0.02144 0.41072 0.0
C3077 C 0.22498 0.0133 0.38318 0.0
C3078 C 0.23307 0.01356 0.37427 0.0
C3079 C 0.22843 0.01221 0.3945 0.0
C3080 C 0.25214 0.01414 0.41469 0.0
H3081 H 0.25858 0.97276 0.4574 0.0
H3082 H 0.25637 0.97975 0.43793 0.0
H3083 H 0.26201 0.01545 0.42996 0.0
H3084 H 0.25115 0.01387 0.37042 0.0
H3085 H 0.25716 0.01222 0.39027 0.0
H3086 H 0.23202 0.99398 0.4101 0.0
C3087 C 0.25607 0.98581 0.44483 0.0
C3088 C 0.25546 0.01074 0.42568 0.0
C3089 C 0.25742 0.98183 0.456 0.0
C3090 C 0.2447 0.0137 0.37706 0.0
C3091 C 0.24815 0.01274 0.38843 0.0
C3092 C 0.23854 0.99879 0.41435 0.0
C3093 C 0.25381 0.99738 0.44261 0.0
C3094 C 0.25048 1.00118 0.43098 0.0
C3095 C 0.24004 0.0115 0.39722 0.0
C3096 C 0.24358 0.00823 0.40895 0.0
H3097 H 0.25398 0.007 0.4699 0.0
H3098 H 0.25191 0.01399 0.4503 0.0
H3099 H 0.23791 0.98796 0.42909 0.0
H3100 H 0.21596 0.01319 0.38138 0.0
H3101 H 0.222 0.01142 0.40112 0.0
C3102 C 0.32867 0.98064 0.63401 0.0
C3103 C 0.32969 0.9877 0.62433 0.0
C3104 C 0.33024 0.985 0.64492 0.0
C3105 C 0.33089 0.01031 0.66281 0.0
H3106 H 0.35495 0.99415 0.67878 0.0
C3107 C 0.34207 0.0139 0.71128 0.0
C3108 C 0.35374 0.01424 0.71387 0.0
C3109 C 0.33849 0.01275 0.69999 0.0
C3110 C 0.34825 0.99879 0.67442 0.0
H3111 H 0.33237 0.0051 0.61862 0.0
H3112 H 0.3348 0.01278 0.63779 0.0
H3113 H 0.34903 0.98767 0.66008 0.0
H3114 H 0.37073 0.01448 0.70647 0.0
H3115 H 0.36447 0.01234 0.68688 0.0
H3116 H 0.32997 0.02128 0.67739 0.0
C3117 C 0.33291 0.00383 0.63686 0.0
C3118 C 0.3448 0.99502 0.66376 0.0
C3119 C 0.33151 0.99942 0.62589 0.0
C3120 C 0.36168 0.01424 0.70483 0.0
C3121 C 0.35811 0.01294 0.69359 0.0
C3122 C 0.33419 0.01396 0.67365 0.0
C3123 C 0.33269 0.99657 0.64644 0.0
C3124 C 0.3361 1.00072 0.65783 0.0
C3125 C 0.34651 0.01178 0.69109 0.0
C3126 C 0.34297 0.00826 0.67952 0.0
H3127 H 0.32729 0.97158 0.63316 0.0
H3128 H 0.32993 0.97924 0.65216 0.0
H3129 H 0.32416 0.01486 0.65841 0.0
H3130 H 0.33573 0.01385 0.71803 0.0
H3131 H 0.32949 0.01187 0.69831 0.0
C3132 C 0.32296 0.09479 0.96119 0.0
C3133 C 0.32249 0.10649 0.96364 0.0
C3134 C 0.32414 0.09103 0.94994 0.0
C3135 C 0.32371 0.1009 0.91938 0.0
H3136 H 0.34475 0.07566 0.91522 0.0
C3137 C 0.35601 0.08221 0.88249 0.0
C3138 C 0.34944 0.0844 0.87276 0.0
C3139 C 0.35126 0.08331 0.89341 0.0
C3140 C 0.3389 0.08276 0.91618 0.0
H3141 H 0.32235 0.12338 0.95605 0.0
H3142 H 0.32462 0.11692 0.93658 0.0
H3143 H 0.33892 0.08106 0.93431 0.0
H3144 H 0.3325 0.0888 0.86692 0.0
H3145 H 0.32412 0.0903 0.88593 0.0
H3146 H 0.32424 0.10304 0.90129 0.0
C3147 C 0.32389 0.11056 0.94327 0.0
C3148 C 0.33539 0.08577 0.92719 0.0
C3149 C 0.32259 0.1143 0.9545 0.0
C3150 C 0.33783 0.08707 0.87422 0.0
C3151 C 0.33305 0.08807 0.88516 0.0
C3152 C 0.32731 0.09796 0.90838 0.0
C3153 C 0.32501 0.09888 0.94083 0.0
C3154 C 0.32787 0.095 0.92899 0.0
C3155 C 0.33977 0.08652 0.89494 0.0
C3156 C 0.33511 0.08895 0.9066 0.0
H3157 H 0.32288 0.08852 0.96801 0.0
H3158 H 0.32468 0.08196 0.94843 0.0
H3159 H 0.31778 0.10794 0.92035 0.0
H3160 H 0.365 0.08023 0.88171 0.0
H3161 H 0.35681 0.08217 0.90065 0.0
C3162 C 0.24746 0.08939 0.20833 0.0
C3163 C 0.23854 0.08183 0.21085 0.0
C3164 C 0.25143 0.09083 0.19712 0.0
C3165 C 0.24172 0.08664 0.16731 0.0
H3166 H 0.27207 0.09722 0.15976 0.0
C3167 C 0.25488 0.09653 0.1209 0.0
C3168 C 0.25951 0.10742 0.11909 0.0
C3169 C 0.25394 0.09191 0.1319 0.0
C3170 C 0.26356 0.09427 0.16175 0.0
H3171 H 0.22739 0.06925 0.20367 0.0
H3172 H 0.23466 0.0713 0.18426 0.0
H3173 H 0.26756 0.09134 0.17928 0.0
H3174 H 0.26748 0.12164 0.12744 0.0
H3175 H 0.26605 0.11347 0.14662 0.0
H3176 H 0.23777 0.08953 0.14976 0.0
C3177 C 0.23832 0.07649 0.19083 0.0
C3178 C 0.26093 0.09094 0.17297 0.0
C3179 C 0.23423 0.07518 0.20202 0.0
C3180 C 0.26389 0.11323 0.1285 0.0
C3181 C 0.26307 0.10854 0.1395 0.0
C3182 C 0.2444 0.08981 0.15609 0.0
C3183 C 0.24671 0.08463 0.18813 0.0
C3184 C 0.24991 0.08723 0.17598 0.0
C3185 C 0.25774 0.098 0.14138 0.0
C3186 C 0.2553 0.09381 0.15318 0.0
H3187 H 0.25093 0.09473 0.21489 0.0
H3188 H 0.25779 0.09726 0.19548 0.0
H3189 H 0.23307 0.08412 0.16922 0.0
H3190 H 0.2514 0.0918 0.11388 0.0
H3191 H 0.24993 0.0837 0.13303 0.0
C3192 C 0.38792 0.22659 0.01365 0.0
C3193 C 0.37828 0.2337 0.01273 0.0
C3194 C 0.39889 0.23107 0.0126 0.0
C3195 C 0.41359 0.25596 0.99968 0.0
H3196 H 0.44013 0.24167 0.01317 0.0
C3197 C 0.46649 0.25789 0.99879 0.0
C3198 C 0.46819 0.25919 0.98699 0.0
C3199 C 0.45549 0.25685 0.00339 0.0
C3200 C 0.43284 0.24593 0.00944 0.0
H3201 H 0.37267 0.25124 0.01084 0.0
H3202 H 0.39178 0.25911 0.00944 0.0
H3203 H 0.42123 0.236 0.01947 0.0
H3204 H 0.45955 0.26103 0.97084 0.0
H3205 H 0.4405 0.25905 0.97875 0.0
H3206 H 0.4252 0.266 0.98976 0.0
C3207 C 0.39089 0.25 0.0106 0.0
C3208 C 0.42195 0.24254 0.01296 0.0
C3209 C 0.3799 0.2455 0.01154 0.0
C3210 C 0.45859 0.26011 0.97998 0.0
C3211 C 0.4476 0.25898 0.98455 0.0
C3212 C 0.42448 0.25942 0.99624 0.0
C3213 C 0.40054 0.2428 0.01071 0.0
C3214 C 0.41215 0.24732 0.00796 0.0
C3215 C 0.44589 0.25701 0.99628 0.0
C3216 C 0.43428 0.25428 1.00088 0.0
H3217 H 0.38701 0.21744 0.01448 0.0
H3218 H 0.40605 0.22519 0.01264 0.0
H3219 H 0.40631 0.25979 0.99551 0.0
H3220 H 0.47369 0.25717 0.00446 0.0
H3221 H 0.45454 0.2556 0.01249 0.0
C3222 C 0.07863 0.86992 0.34292 0.0
C3223 C 0.07787 0.86809 0.35475 0.0
C3224 C 0.07938 0.88099 0.3384 0.0
C3225 C 0.07714 0.91196 0.34606 0.0
H3226 H 0.09918 0.91546 0.32155 0.0
C3227 C 0.10904 0.94862 0.32689 0.0
C3228 C 0.10207 0.9583 0.32828 0.0
C3229 C 0.10458 0.93766 0.32825 0.0
C3230 C 0.09303 0.91468 0.32843 0.0
H3231 H 0.07669 0.87655 0.37105 0.0
H3232 H 0.0782 0.89571 0.36328 0.0
H3233 H 0.09385 0.8965 0.32794 0.0
H3234 H 0.08475 0.96401 0.33144 0.0
H3235 H 0.07687 0.94493 0.33339 0.0
H3236 H 0.07687 0.93013 0.34703 0.0
C3237 C 0.07804 0.88867 0.35739 0.0
C3238 C 0.08982 0.90374 0.332 0.0
C3239 C 0.07719 0.87762 0.36189 0.0
C3240 C 0.09037 0.95675 0.33035 0.0
C3241 C 0.08588 0.94577 0.3316 0.0
C3242 C 0.08044 0.9229 0.34256 0.0
C3243 C 0.07949 0.89052 0.3456 0.0
C3244 C 0.08197 0.9022 0.34101 0.0
C3245 C 0.09299 0.93607 0.33093 0.0
C3246 C 0.08859 0.92443 0.33382 0.0
H3247 H 0.07915 0.86278 0.33715 0.0
H3248 H 0.08019 0.88203 0.32927 0.0
H3249 H 0.07093 0.91118 0.35288 0.0
H3250 H 0.1181 0.94947 0.32538 0.0
H3251 H 0.1104 0.93048 0.32778 0.0
C3252 C 0.11903 0.83151 0.49734 0.0
C3253 C 0.11696 0.82548 0.48729 0.0
C3254 C 0.13007 0.83233 0.50163 0.0
C3255 C 0.16018 0.82986 0.49158 0.0
H3256 H 0.16673 0.83629 0.52316 0.0
C3257 C 0.20587 0.83838 0.50614 0.0
C3258 C 0.20721 0.84881 0.51175 0.0
C3259 C 0.19505 0.83371 0.50477 0.0
C3260 C 0.16501 0.83449 0.51431 0.0
H3261 H 0.12473 0.81479 0.47441 0.0
H3262 H 0.14386 0.81566 0.4822 0.0
H3263 H 0.14751 0.83077 0.51779 0.0
H3264 H 0.19829 0.86208 0.52104 0.0
H3265 H 0.1794 0.85378 0.51885 0.0
H3266 H 0.17771 0.83349 0.48816 0.0
C3267 C 0.13707 0.82021 0.48653 0.0
C3268 C 0.15398 0.83137 0.51119 0.0
C3269 C 0.12605 0.81957 0.48212 0.0
C3270 C 0.19756 0.85403 0.51669 0.0
C3271 C 0.18674 0.84927 0.51544 0.0
C3272 C 0.17122 0.83277 0.49473 0.0
C3273 C 0.13934 0.82697 0.4961 0.0
C3274 C 0.15133 0.82918 0.49973 0.0
C3275 C 0.18532 0.83928 0.50911 0.0
C3276 C 0.17374 0.83528 0.5061 0.0
H3277 H 0.11225 0.83624 0.50151 0.0
H3278 H 0.13137 0.83771 0.50893 0.0
H3279 H 0.15854 0.82855 0.48264 0.0
H3280 H 0.21309 0.83411 0.50222 0.0
H3281 H 0.19425 0.82593 0.49998 0.0
C3282 C 0.50668 0.87006 0.74263 0.0
C3283 C 0.50704 0.8683 0.7308 0.0
C3284 C 0.50577 0.88109 0.74704 0.0
C3285 C 0.50752 0.91205 0.73916 0.0
H3286 H 0.4859 0.91562 0.76403 0.0
C3287 C 0.47655 0.94937 0.75887 0.0
C3288 C 0.48378 0.95879 0.75764 0.0
C3289 C 0.48074 0.93826 0.7574 0.0
C3290 C 0.49194 0.91481 0.75706 0.0
H3291 H 0.50732 0.87686 0.71437 0.0
H3292 H 0.50566 0.89598 0.722 0.0
H3293 H 0.49105 0.89662 0.75756 0.0
H3294 H 0.50127 0.96383 0.75465 0.0
H3295 H 0.50863 0.94449 0.75242 0.0
H3296 H 0.50795 0.93024 0.73825 0.0
C3297 C 0.50619 0.88889 0.72793 0.0
C3298 C 0.49503 0.90386 0.75344 0.0
C3299 C 0.50713 0.87788 0.72353 0.0
C3300 C 0.49544 0.95678 0.75562 0.0
C3301 C 0.49964 0.94567 0.75421 0.0
C3302 C 0.50439 0.923 0.74275 0.0
C3303 C 0.50518 0.89066 0.73974 0.0
C3304 C 0.50274 0.90232 0.74431 0.0
C3305 C 0.49229 0.93626 0.75471 0.0
C3306 C 0.49642 0.92456 0.75164 0.0
H3307 H 0.50659 0.86289 0.74849 0.0
H3308 H 0.50526 0.88209 0.75618 0.0
H3309 H 0.51359 0.91124 0.73222 0.0
H3310 H 0.46751 0.95057 0.76035 0.0
H3311 H 0.47475 0.93131 0.75776 0.0
C3312 C 0.10417 0.12928 0.26407 0.0
C3313 C 0.09833 0.12072 0.25831 0.0
C3314 C 0.10023 0.14058 0.26378 0.0
C3315 C 0.07609 0.15939 0.25335 0.0
H3316 H 0.10018 0.18166 0.25099 0.0
C3317 C 0.07362 0.20298 0.22941 0.0
C3318 C 0.07847 0.21243 0.23476 0.0
C3319 C 0.07413 0.19216 0.2345 0.0
C3320 C 0.09334 0.17557 0.25179 0.0
H3321 H 0.08348 0.11722 0.24816 0.0
H3322 H 0.07691 0.13682 0.24719 0.0
H3323 H 0.10485 0.16208 0.25592 0.0
H3324 H 0.08711 0.21799 0.24994 0.0
H3325 H 0.0882 0.19905 0.25869 0.0
H3326 H 0.06474 0.17296 0.24835 0.0
C3327 C 0.08434 0.13492 0.25226 0.0
C3328 C 0.09598 0.16429 0.25471 0.0
C3329 C 0.08813 0.12359 0.25279 0.0
C3330 C 0.08324 0.21092 0.24561 0.0
C3331 C 0.08394 0.20007 0.2506 0.0
C3332 C 0.07349 0.17065 0.25018 0.0
C3333 C 0.09052 0.14367 0.25745 0.0
C3334 C 0.08743 0.15595 0.25542 0.0
C3335 C 0.07968 0.19053 0.24495 0.0
C3336 C 0.08211 0.17883 0.24928 0.0
H3337 H 0.11202 0.12733 0.26846 0.0
H3338 H 0.10505 0.14693 0.26824 0.0
H3339 H 0.06919 0.15337 0.25403 0.0
H3340 H 0.06991 0.20385 0.22104 0.0
H3341 H 0.07082 0.18495 0.22994 0.0
C3342 C 0.48678 0.13136 0.82293 0.0
C3343 C 0.49136 0.12223 0.82924 0.0
C3344 C 0.49123 0.14235 0.8239 0.0
C3345 C 0.51522 0.15899 0.83683 0.0
H3346 H 0.49264 0.18324 0.83662 0.0
C3347 C 0.52009 0.20313 0.85872 0.0
C3348 C 0.51592 0.21275 0.85281 0.0
C3349 C 0.51884 0.19217 0.85424 0.0
C3350 C 0.4991 0.1766 0.83657 0.0
H3351 H 0.50458 0.11743 0.84116 0.0
H3352 H 0.51205 0.13649 0.84317 0.0
H3353 H 0.48711 0.16407 0.83161 0.0
H3354 H 0.50774 0.21837 0.83722 0.0
H3355 H 0.50548 0.19932 0.82954 0.0
H3356 H 0.52703 0.1716 0.84244 0.0
C3357 C 0.5052 0.13525 0.83722 0.0
C3358 C 0.49595 0.16555 0.83362 0.0
C3359 C 0.50088 0.12424 0.83609 0.0
C3360 C 0.51107 0.21119 0.84203 0.0
C3361 C 0.50968 0.20025 0.83764 0.0
C3362 C 0.51832 0.17003 0.83998 0.0
C3363 C 0.50026 0.14455 0.83139 0.0
C3364 C 0.50393 0.15652 0.83375 0.0
C3365 C 0.51325 0.19059 0.84383 0.0
C3366 C 0.51028 0.17895 0.83993 0.0
H3367 H 0.47947 0.13011 0.81753 0.0
H3368 H 0.48737 0.14916 0.81898 0.0
H3369 H 0.5217 0.15239 0.83686 0.0
H3370 H 0.52384 0.204 0.86705 0.0
H3371 H 0.52166 0.18489 0.85923 0.0
C3372 C 0.20396 0.22705 0.07726 0.0
C3373 C 0.20868 0.22047 0.08614 0.0
C3374 C 0.1928 0.23137 0.07814 0.0
C3375 C 0.17382 0.24448 0.09629 0.0
H3376 H 0.14692 0.2302 0.08425 0.0
C3377 C 0.12854 0.25562 0.11258 0.0
C3378 C 0.11917 0.25432 0.10536 0.0
C3379 C 0.13955 0.25271 0.10892 0.0
C3380 C 0.15432 0.23447 0.0875 0.0
H3381 H 0.2052 0.21317 0.10281 0.0
H3382 H 0.18583 0.2207 0.10432 0.0
H3383 H 0.16576 0.22222 0.07994 0.0
H3384 H 0.1142 0.24963 0.08832 0.0
H3385 H 0.13344 0.24499 0.08177 0.0
H3386 H 0.16258 0.25675 0.10385 0.0
C3387 C 0.19076 0.22241 0.09666 0.0
C3388 C 0.1651 0.22983 0.08506 0.0
C3389 C 0.20183 0.21802 0.09573 0.0
C3390 C 0.12121 0.25072 0.09413 0.0
C3391 C 0.13226 0.24791 0.09042 0.0
C3392 C 0.16307 0.2492 0.09864 0.0
C3393 C 0.18622 0.22926 0.08796 0.0
C3394 C 0.17491 0.23471 0.08957 0.0
C3395 C 0.14156 0.24852 0.09787 0.0
C3396 C 0.15312 0.24416 0.09445 0.0
H3397 H 0.209 0.22918 0.06978 0.0
H3398 H 0.18944 0.23667 0.07135 0.0
H3399 H 0.1813 0.24838 0.09985 0.0
H3400 H 0.1273 0.25826 0.12132 0.0
H3401 H 0.1464 0.25321 0.11499 0.0
C3402 C 0.37752 0.86819 0.59242 0.0
C3403 C 0.36958 0.86187 0.58628 0.0
C3404 C 0.3887 0.86425 0.59371 0.0
C3405 C 0.41051 0.84354 0.5835 0.0
H3406 H 0.42082 0.84521 0.6147 0.0
C3407 C 0.44905 0.82673 0.61538 0.0
C3408 C 0.4587 0.8299 0.60896 0.0
C3409 C 0.4381 0.82919 0.61142 0.0
C3410 C 0.41805 0.84454 0.60596 0.0
H3411 H 0.36745 0.8468 0.57599 0.0
H3412 H 0.38702 0.83995 0.5782 0.0
H3413 H 0.40236 0.85315 0.60967 0.0
H3414 H 0.46432 0.83728 0.5929 0.0
H3415 H 0.44521 0.84153 0.586 0.0
H3416 H 0.42629 0.83487 0.57987 0.0
C3417 C 0.38457 0.84797 0.58204 0.0
C3418 C 0.40751 0.84927 0.60303 0.0
C3419 C 0.37334 0.85191 0.58076 0.0
C3420 C 0.45709 0.83472 0.59808 0.0
C3421 C 0.44611 0.83716 0.5941 0.0
C3422 C 0.42114 0.83887 0.58643 0.0
C3423 C 0.39226 0.85389 0.58888 0.0
C3424 C 0.40361 0.84889 0.59177 0.0
C3425 C 0.4365 0.83485 0.60094 0.0
C3426 C 0.42503 0.8393 0.59772 0.0
H3427 H 0.37496 0.8759 0.59675 0.0
H3428 H 0.39447 0.86916 0.59882 0.0
H3429 H 0.40776 0.84312 0.57474 0.0
H3430 H 0.44995 0.82296 0.62377 0.0
H3431 H 0.43087 0.82705 0.61679 0.0
C3432 C 0.75861 0.48975 0.95799 0.0
C3433 C 0.75958 0.47794 0.9599 0.0
C3434 C 0.75749 0.49415 0.94692 0.0
C3435 C 0.75898 0.4863 0.916 0.0
H3436 H 0.73618 0.51016 0.91298 0.0
C3437 C 0.72541 0.50384 0.88024 0.0
C3438 C 0.73213 0.50253 0.87036 0.0
C3439 C 0.73026 0.50289 0.89105 0.0
C3440 C 0.74254 0.50347 0.91363 0.0
H3441 H 0.76077 0.46157 0.95156 0.0
H3442 H 0.75864 0.46916 0.93239 0.0
H3443 H 0.74226 0.50411 0.93181 0.0
H3444 H 0.7494 0.50004 0.86415 0.0
H3445 H 0.75792 0.49878 0.88298 0.0
H3446 H 0.75874 0.48516 0.89785 0.0
C3447 C 0.7589 0.47511 0.93937 0.0
C3448 C 0.74618 0.50009 0.92448 0.0
C3449 C 0.76011 0.47072 0.95042 0.0
C3450 C 0.74395 0.50104 0.87157 0.0
C3451 C 0.74882 0.50019 0.8824 0.0
C3452 C 0.75527 0.48961 0.90515 0.0
C3453 C 0.75722 0.48686 0.93747 0.0
C3454 C 0.75431 0.49131 0.92585 0.0
C3455 C 0.74199 0.50071 0.8923 0.0
C3456 C 0.74684 0.4981 0.9038 0.0
H3457 H 0.7582 0.49557 0.96508 0.0
H3458 H 0.7565 0.50327 0.94582 0.0
H3459 H 0.76538 0.47964 0.91665 0.0
H3460 H 0.71627 0.50492 0.87965 0.0
H3461 H 0.72465 0.50324 0.89841 0.0
C3462 C 0.84347 0.50605 0.20616 0.0
C3463 C 0.85418 0.51125 0.20696 0.0
C3464 C 0.83838 0.50452 0.19556 0.0
C3465 C 0.83808 0.51333 0.16544 0.0
H3466 H 0.8316 0.48161 0.15965 0.0
C3467 C 0.83286 0.49608 0.11986 0.0
C3468 C 0.82683 0.48596 0.1181 0.0
C3469 C 0.83416 0.50042 0.13082 0.0
C3470 C 0.83305 0.49057 0.16111 0.0
H3471 H 0.86754 0.51965 0.19728 0.0
H3472 H 0.85846 0.51725 0.17878 0.0
H3473 H 0.83744 0.48734 0.1785 0.0
H3474 H 0.81667 0.47298 0.12642 0.0
H3475 H 0.81833 0.48088 0.14545 0.0
H3476 H 0.83354 0.51666 0.14813 0.0
C3477 C 0.85409 0.51426 0.18638 0.0
C3478 C 0.83649 0.49383 0.17196 0.0
C3479 C 0.85928 0.51563 0.19698 0.0
C3480 C 0.82142 0.48075 0.12748 0.0
C3481 C 0.82253 0.48523 0.13844 0.0
C3482 C 0.83441 0.51011 0.15462 0.0
C3483 C 0.84378 0.50834 0.18553 0.0
C3484 C 0.83922 0.50521 0.17421 0.0
C3485 C 0.8293 0.49488 0.14035 0.0
C3486 C 0.83203 0.49863 0.1522 0.0
H3487 H 0.83929 0.50255 0.21365 0.0
H3488 H 0.83038 0.50003 0.19518 0.0
H3489 H 0.84005 0.52218 0.16696 0.0
H3490 H 0.83723 0.50028 0.11285 0.0
H3491 H 0.83955 0.50777 0.13181 0.0
C3492 C 0.86878 0.58924 0.37643 0.0
C3493 C 0.86235 0.5841 0.36788 0.0
C3494 C 0.8649 0.58931 0.38774 0.0
C3495 C 0.85664 0.58442 0.41205 0.0
H3496 H 0.82515 0.59391 0.41601 0.0
C3497 C 0.83724 0.59086 0.45678 0.0
C3498 C 0.83173 0.60142 0.45837 0.0
C3499 C 0.83979 0.58695 0.44581 0.0
C3500 C 0.83394 0.59122 0.41505 0.0
H3501 H 0.84702 0.57454 0.36464 0.0
H3502 H 0.84026 0.57466 0.38437 0.0
H3503 H 0.83262 0.59012 0.39691 0.0
H3504 H 0.82388 0.61575 0.44962 0.0
H3505 H 0.8282 0.60886 0.43051 0.0
H3506 H 0.85806 0.58581 0.43014 0.0
C3507 C 0.84828 0.5787 0.3823 0.0
C3508 C 0.8382 0.58895 0.40412 0.0
C3509 C 0.85222 0.57853 0.37101 0.0
C3510 C 0.8281 0.60757 0.44872 0.0
C3511 C 0.83059 0.60361 0.43774 0.0
C3512 C 0.85235 0.58658 0.42299 0.0
C3513 C 0.85443 0.58433 0.39075 0.0
C3514 C 0.84965 0.58569 0.40247 0.0
C3515 C 0.83682 0.59345 0.43617 0.0
C3516 C 0.84099 0.59017 0.42462 0.0
H3517 H 0.87659 0.59361 0.37433 0.0
H3518 H 0.86983 0.59377 0.39401 0.0
H3519 H 0.86547 0.58187 0.41109 0.0
H3520 H 0.84016 0.58587 0.464 0.0
H3521 H 0.84443 0.57899 0.44489 0.0
C3522 C 0.75375 0.60831 0.6264 0.0
C3523 C 0.75121 0.60139 0.61708 0.0
C3524 C 0.75173 0.6045 0.63756 0.0
C3525 C 0.74439 0.57915 0.65557 0.0
H3526 H 0.7294 0.6019 0.67428 0.0
C3527 C 0.73294 0.57248 0.70367 0.0
C3528 C 0.72297 0.57779 0.70781 0.0
C3529 C 0.73651 0.57412 0.69234 0.0
C3530 C 0.73347 0.59539 0.66916 0.0
H3531 H 0.74528 0.58467 0.61227 0.0
H3532 H 0.74171 0.57806 0.6317 0.0
H3533 H 0.73635 0.60711 0.65544 0.0
H3534 H 0.70854 0.58829 0.70302 0.0
H3535 H 0.71456 0.59097 0.68332 0.0
H3536 H 0.74124 0.56737 0.66931 0.0
C3537 C 0.74532 0.58643 0.63041 0.0
C3538 C 0.73765 0.59844 0.65839 0.0
C3539 C 0.74738 0.59024 0.61923 0.0
C3540 C 0.71628 0.58415 0.70017 0.0
C3541 C 0.71982 0.58578 0.68887 0.0
C3542 C 0.74022 0.5761 0.66641 0.0
C3543 C 0.74707 0.59368 0.6397 0.0
C3544 C 0.74315 0.59038 0.65141 0.0
C3545 C 0.73017 0.58111 0.6849 0.0
C3546 C 0.73463 0.58417 0.67332 0.0
H3547 H 0.75676 0.61692 0.62508 0.0
H3548 H 0.75345 0.61022 0.64451 0.0
H3549 H 0.74863 0.57272 0.65047 0.0
H3550 H 0.73834 0.56756 0.70933 0.0
H3551 H 0.74453 0.57041 0.68961 0.0
loop_
_geom_bond_atom_site_label_1
_geom_bond_atom_site_label_2
_geom_bond_distance
_geom_bond_site_symmetry_2
_ccdc_geom_bond_type
O0 Cd1 2.223 1_655 S
O0 C8 1.315 . S
Cd1 O0 2.223 1_455 S
Cd1 O4 2.297 1_455 S
Cd1 O5 2.439 1_455 S
Cd1 O11 2.240 . S
Cd2 O3 2.240 . S
Cd2 O10 2.223 1_655 S
Cd2 O12 2.297 1_655 S
Cd2 O13 2.439 1_655 S
O3 Cd2 2.240 . S
O3 C8 1.279 . S
O4 Cd1 2.297 1_655 S
O4 C6 1.247 . S
O5 Cd1 2.439 1_655 S
O5 C6 1.208 . S
C6 O4 1.247 . S
C6 O5 1.208 . S
C7 O12 1.247 . S
C7 O13 1.208 . S
C8 O0 1.315 . S
C8 O3 1.279 . S
C9 O10 1.315 . S
C9 O11 1.279 . S
O10 Cd2 2.223 1_455 S
O10 C9 1.315 . S
O11 Cd1 2.240 . S
O11 C9 1.279 . S
O12 Cd2 2.297 1_455 S
O12 C7 1.247 . S
O13 Cd2 2.439 1_455 S
O13 C7 1.208 . S
O14 Cd15 2.223 . S
O14 C22 1.315 . S
Cd15 O14 2.223 . S
Cd15 O18 2.297 . S
Cd15 O19 2.439 . S
Cd15 O25 2.240 1_655 S
Cd16 O17 2.240 1_455 S
Cd16 O24 2.223 . S
Cd16 O26 2.297 . S
Cd16 O27 2.439 . S
O17 Cd16 2.240 1_655 S
O17 C22 1.279 . S
O18 Cd15 2.297 . S
O18 C20 1.247 . S
O19 Cd15 2.439 . S
O19 C20 1.208 . S
C20 O18 1.247 . S
C20 O19 1.208 . S
C21 O26 1.247 . S
C21 O27 1.208 . S
C22 O14 1.315 . S
C22 O17 1.279 . S
C23 O24 1.315 . S
C23 O25 1.279 . S
O24 Cd16 2.223 . S
O24 C23 1.315 . S
O25 Cd15 2.240 1_455 S
O25 C23 1.279 . S
O26 Cd16 2.297 . S
O26 C21 1.247 . S
O27 Cd16 2.439 . S
O27 C21 1.208 . S
O28 Cd29 2.223 . S
O28 C36 1.315 . S
Cd29 O28 2.223 . S
Cd29 O32 2.297 . S
Cd29 O33 2.439 . S
Cd29 O39 2.240 . S
Cd30 O31 2.240 . S
Cd30 O38 2.223 . S
Cd30 O40 2.297 . S
Cd30 O41 2.439 . S
O31 Cd30 2.240 . S
O31 C36 1.279 . S
O32 Cd29 2.297 . S
O32 C34 1.247 . S
O33 Cd29 2.439 . S
O33 C34 1.208 . S
C34 O32 1.247 . S
C34 O33 1.208 . S
C35 O40 1.247 . S
C35 O41 1.208 . S
C36 O28 1.315 . S
C36 O31 1.279 . S
C37 O38 1.315 . S
C37 O39 1.279 . S
O38 Cd30 2.223 . S
O38 C37 1.315 . S
O39 Cd29 2.240 . S
O39 C37 1.279 . S
O40 Cd30 2.297 . S
O40 C35 1.247 . S
O41 Cd30 2.439 . S
O41 C35 1.208 . S
O42 Cd43 2.223 . S
O42 C50 1.315 . S
Cd43 O42 2.223 . S
Cd43 O46 2.297 . S
Cd43 O47 2.439 . S
Cd43 O53 2.240 . S
Cd44 O45 2.240 . S
Cd44 O52 2.223 . S
Cd44 O54 2.297 . S
Cd44 O55 2.439 . S
O45 Cd44 2.240 . S
O45 C50 1.279 . S
O46 Cd43 2.297 . S
O46 C48 1.247 . S
O47 Cd43 2.439 . S
O47 C48 1.208 . S
C48 O46 1.247 . S
C48 O47 1.208 . S
C49 O54 1.247 . S
C49 O55 1.208 . S
C50 O42 1.315 . S
C50 O45 1.279 . S
C51 O52 1.315 . S
C51 O53 1.279 . S
O52 Cd44 2.223 . S
O52 C51 1.315 . S
O53 Cd43 2.240 . S
O53 C51 1.279 . S
O54 Cd44 2.297 . S
O54 C49 1.247 . S
O55 Cd44 2.439 . S
O55 C49 1.208 . S
O56 Cd57 2.223 1_655 S
O56 C64 1.315 . S
Cd57 O56 2.223 1_455 S
Cd57 O60 2.297 1_455 S
Cd57 O61 2.439 1_455 S
Cd57 O67 2.240 . S
Cd58 O59 2.240 . S
Cd58 O66 2.223 1_655 S
Cd58 O68 2.297 1_655 S
Cd58 O69 2.439 1_655 S
O59 Cd58 2.240 . S
O59 C64 1.279 . S
O60 Cd57 2.297 1_655 S
O60 C62 1.247 . S
O61 Cd57 2.439 1_655 S
O61 C62 1.208 . S
C62 O60 1.247 . S
C62 O61 1.208 . S
C63 O68 1.247 . S
C63 O69 1.208 . S
C64 O56 1.315 . S
C64 O59 1.279 . S
C65 O66 1.315 . S
C65 O67 1.279 . S
O66 Cd58 2.223 1_455 S
O66 C65 1.315 . S
O67 Cd57 2.240 . S
O67 C65 1.279 . S
O68 Cd58 2.297 1_455 S
O68 C63 1.247 . S
O69 Cd58 2.439 1_455 S
O69 C63 1.208 . S
O70 Cd71 2.223 . S
O70 C78 1.315 . S
Cd71 O70 2.223 . S
Cd71 O74 2.297 . S
Cd71 O75 2.439 . S
Cd71 O81 2.240 . S
Cd72 O73 2.240 . S
Cd72 O80 2.223 . S
Cd72 O82 2.297 . S
Cd72 O83 2.439 . S
O73 Cd72 2.240 . S
O73 C78 1.279 . S
O74 Cd71 2.297 . S
O74 C76 1.247 . S
O75 Cd71 2.439 . S
O75 C76 1.208 . S
C76 O74 1.247 . S
C76 O75 1.208 . S
C77 O82 1.247 . S
C77 O83 1.208 . S
C78 O70 1.315 . S
C78 O73 1.279 . S
C79 O80 1.315 . S
C79 O81 1.279 . S
O80 Cd72 2.223 . S
O80 C79 1.315 . S
O81 Cd71 2.240 . S
O81 C79 1.279 . S
O82 Cd72 2.297 . S
O82 C77 1.247 . S
O83 Cd72 2.439 . S
O83 C77 1.208 . S
O84 Cd85 2.223 . S
O84 C92 1.315 . S
Cd85 O84 2.223 . S
Cd85 O88 2.297 . S
Cd85 O89 2.439 . S
Cd85 O95 2.240 . S
Cd86 O87 2.240 . S
Cd86 O94 2.223 . S
Cd86 O96 2.297 . S
Cd86 O97 2.439 . S
O87 Cd86 2.240 . S
O87 C92 1.279 . S
O88 Cd85 2.297 . S
O88 C90 1.247 . S
O89 Cd85 2.439 . S
O89 C90 1.208 . S
C90 O88 1.247 . S
C90 O89 1.208 . S
C91 O96 1.247 . S
C91 O97 1.208 . S
C92 O84 1.315 . S
C92 O87 1.279 . S
C93 O94 1.315 . S
C93 O95 1.279 . S
O94 Cd86 2.223 . S
O94 C93 1.315 . S
O95 Cd85 2.240 . S
O95 C93 1.279 . S
O96 Cd86 2.297 . S
O96 C91 1.247 . S
O97 Cd86 2.439 . S
O97 C91 1.208 . S
O98 Cd99 2.223 . S
O98 C106 1.315 . S
Cd99 O98 2.223 . S
Cd99 O102 2.297 . S
Cd99 O103 2.439 . S
Cd99 O109 2.240 1_655 S
Cd100 O101 2.237 . S
Cd100 O108 2.223 . S
Cd100 O110 2.297 . S
Cd100 O111 2.439 . S
O101 Cd100 2.237 . S
O101 C106 1.280 1_455 S
O102 Cd99 2.297 . S
O102 C104 1.247 . S
O103 Cd99 2.439 . S
O103 C104 1.208 . S
C104 O102 1.247 . S
C104 O103 1.208 . S
C105 O110 1.247 . S
C105 O111 1.208 . S
C106 O98 1.315 . S
C106 O101 1.280 1_655 S
C107 O108 1.315 . S
C107 O109 1.279 . S
O108 Cd100 2.223 . S
O108 C107 1.315 . S
O109 Cd99 2.240 1_455 S
O109 C107 1.279 . S
O110 Cd100 2.297 . S
O110 C105 1.247 . S
O111 Cd100 2.439 . S
O111 C105 1.208 . S
O112 Cd113 2.223 1_565 S
O112 C120 1.315 . S
Cd113 O112 2.223 1_545 S
Cd113 O116 2.297 1_545 S
Cd113 O117 2.439 1_545 S
Cd113 O123 2.240 . S
Cd114 O115 2.240 . S
Cd114 O122 2.223 1_565 S
Cd114 O124 2.297 1_565 S
Cd114 O125 2.439 1_565 S
O115 Cd114 2.240 . S
O115 C120 1.279 . S
O116 Cd113 2.297 1_565 S
O116 C118 1.247 . S
O117 Cd113 2.439 1_565 S
O117 C118 1.208 . S
C118 O116 1.247 . S
C118 O117 1.208 . S
C119 O124 1.247 . S
C119 O125 1.208 . S
C120 O112 1.315 . S
C120 O115 1.279 . S
C121 O122 1.315 . S
C121 O123 1.279 . S
O122 Cd114 2.223 1_545 S
O122 C121 1.315 . S
O123 Cd113 2.240 . S
O123 C121 1.279 . S
O124 Cd114 2.297 1_545 S
O124 C119 1.247 . S
O125 Cd114 2.439 1_545 S
O125 C119 1.208 . S
O126 Cd127 2.223 . S
O126 C134 1.315 . S
Cd127 O126 2.223 . S
Cd127 O130 2.297 . S
Cd127 O131 2.439 . S
Cd127 O137 2.240 . S
Cd128 O129 2.240 . S
Cd128 O136 2.223 . S
Cd128 O138 2.297 . S
Cd128 O139 2.439 . S
O129 Cd128 2.240 . S
O129 C134 1.279 . S
O130 Cd127 2.297 . S
O130 C132 1.247 . S
O131 Cd127 2.439 . S
O131 C132 1.208 . S
C132 O130 1.247 . S
C132 O131 1.208 . S
C133 O138 1.247 . S
C133 O139 1.208 . S
C134 O126 1.315 . S
C134 O129 1.279 . S
C135 O136 1.315 . S
C135 O137 1.279 . S
O136 Cd128 2.223 . S
O136 C135 1.315 . S
O137 Cd127 2.240 . S
O137 C135 1.279 . S
O138 Cd128 2.297 . S
O138 C133 1.247 . S
O139 Cd128 2.439 . S
O139 C133 1.208 . S
O140 Cd141 2.223 . S
O140 C148 1.315 . S
Cd141 O140 2.223 . S
Cd141 O144 2.297 . S
Cd141 O145 2.439 . S
Cd141 O151 2.240 . S
Cd142 O143 2.240 . S
Cd142 O150 2.223 . S
Cd142 O152 2.297 . S
Cd142 O153 2.439 . S
O143 Cd142 2.240 . S
O143 C148 1.279 . S
O144 Cd141 2.297 . S
O144 C146 1.247 . S
O145 Cd141 2.439 . S
O145 C146 1.208 . S
C146 O144 1.247 . S
C146 O145 1.208 . S
C147 O152 1.247 . S
C147 O153 1.208 . S
C148 O140 1.315 . S
C148 O143 1.279 . S
C149 O150 1.315 . S
C149 O151 1.279 . S
O150 Cd142 2.223 . S
O150 C149 1.315 . S
O151 Cd141 2.240 . S
O151 C149 1.279 . S
O152 Cd142 2.297 . S
O152 C147 1.247 . S
O153 Cd142 2.439 . S
O153 C147 1.208 . S
O154 Cd155 2.223 . S
O154 C162 1.315 . S
Cd155 O154 2.223 . S
Cd155 O158 2.297 . S
Cd155 O159 2.439 . S
Cd155 O165 2.240 . S
Cd156 O157 2.240 . S
Cd156 O164 2.223 . S
Cd156 O166 2.297 . S
Cd156 O167 2.439 . S
O157 Cd156 2.240 . S
O157 C162 1.279 . S
O158 Cd155 2.297 . S
O158 C160 1.247 . S
O159 Cd155 2.439 . S
O159 C160 1.208 . S
C160 O158 1.247 . S
C160 O159 1.208 . S
C161 O166 1.247 . S
C161 O167 1.208 . S
C162 O154 1.315 . S
C162 O157 1.279 . S
C163 O164 1.315 . S
C163 O165 1.279 . S
O164 Cd156 2.223 . S
O164 C163 1.315 . S
O165 Cd155 2.240 . S
O165 C163 1.279 . S
O166 Cd156 2.297 . S
O166 C161 1.247 . S
O167 Cd156 2.439 . S
O167 C161 1.208 . S
O168 Cd169 2.223 . S
O168 C176 1.315 . S
Cd169 O168 2.223 . S
Cd169 O172 2.297 . S
Cd169 O173 2.439 . S
Cd169 O179 2.240 . S
Cd170 O171 2.240 . S
Cd170 O178 2.223 . S
Cd170 O180 2.297 . S
Cd170 O181 2.439 . S
O171 Cd170 2.240 . S
O171 C176 1.279 . S
O172 Cd169 2.297 . S
O172 C174 1.247 . S
O173 Cd169 2.439 . S
O173 C174 1.208 . S
C174 O172 1.247 . S
C174 O173 1.208 . S
C175 O180 1.247 . S
C175 O181 1.208 . S
C176 O168 1.315 . S
C176 O171 1.279 . S
C177 O178 1.315 . S
C177 O179 1.279 . S
O178 Cd170 2.223 . S
O178 C177 1.315 . S
O179 Cd169 2.240 . S
O179 C177 1.279 . S
O180 Cd170 2.297 . S
O180 C175 1.247 . S
O181 Cd170 2.439 . S
O181 C175 1.208 . S
O182 Cd183 2.223 . S
O182 C190 1.315 . S
Cd183 O182 2.223 . S
Cd183 O186 2.297 . S
Cd183 O187 2.439 . S
Cd183 O193 2.240 . S
Cd184 O185 2.240 . S
Cd184 O192 2.223 . S
Cd184 O194 2.297 . S
Cd184 O195 2.439 . S
O185 Cd184 2.240 . S
O185 C190 1.279 . S
O186 Cd183 2.297 . S
O186 C188 1.247 . S
O187 Cd183 2.439 . S
O187 C188 1.208 . S
C188 O186 1.247 . S
C188 O187 1.208 . S
C189 O194 1.247 . S
C189 O195 1.208 . S
C190 O182 1.315 . S
C190 O185 1.279 . S
C191 O192 1.315 . S
C191 O193 1.279 . S
O192 Cd184 2.223 . S
O192 C191 1.315 . S
O193 Cd183 2.240 . S
O193 C191 1.279 . S
O194 Cd184 2.297 . S
O194 C189 1.247 . S
O195 Cd184 2.439 . S
O195 C189 1.208 . S
O196 Cd197 2.223 1_565 S
O196 C204 1.315 . S
Cd197 O196 2.223 1_545 S
Cd197 O200 2.297 1_545 S
Cd197 O201 2.439 1_545 S
Cd197 O207 2.240 . S
Cd198 O199 2.240 . S
Cd198 O206 2.223 1_565 S
Cd198 O208 2.297 1_565 S
Cd198 O209 2.439 1_565 S
O199 Cd198 2.240 . S
O199 C204 1.279 . S
O200 Cd197 2.297 1_565 S
O200 C202 1.247 . S
O201 Cd197 2.439 1_565 S
O201 C202 1.208 . S
C202 O200 1.247 . S
C202 O201 1.208 . S
C203 O208 1.247 . S
C203 O209 1.208 . S
C204 O196 1.315 . S
C204 O199 1.279 . S
C205 O206 1.315 . S
C205 O207 1.279 . S
O206 Cd198 2.223 1_545 S
O206 C205 1.315 . S
O207 Cd197 2.240 . S
O207 C205 1.279 . S
O208 Cd198 2.297 1_545 S
O208 C203 1.247 . S
O209 Cd198 2.439 1_545 S
O209 C203 1.208 . S
O210 Cd211 2.223 . S
O210 C218 1.315 . S
Cd211 O210 2.223 . S
Cd211 O214 2.297 . S
Cd211 O215 2.439 . S
Cd211 O221 2.240 1_556 S
Cd212 O213 2.237 . S
Cd212 O220 2.223 . S
Cd212 O222 2.297 . S
Cd212 O223 2.439 . S
O213 Cd212 2.237 . S
O213 C218 1.280 1_554 S
O214 Cd211 2.297 . S
O214 C216 1.247 . S
O215 Cd211 2.439 . S
O215 C216 1.208 . S
C216 O214 1.247 . S
C216 O215 1.208 . S
C217 O222 1.247 . S
C217 O223 1.208 . S
C218 O210 1.315 . S
C218 O213 1.280 1_556 S
C219 O220 1.315 . S
C219 O221 1.279 . S
O220 Cd212 2.223 . S
O220 C219 1.315 . S
O221 Cd211 2.240 1_554 S
O221 C219 1.279 . S
O222 Cd212 2.297 . S
O222 C217 1.247 . S
O223 Cd212 2.439 . S
O223 C217 1.208 . S
O224 Cd225 2.223 1_556 S
O224 C232 1.315 . S
Cd225 O224 2.223 1_554 S
Cd225 O228 2.297 1_554 S
Cd225 O229 2.439 1_554 S
Cd225 O235 2.240 . S
Cd226 O227 2.240 . S
Cd226 O234 2.223 1_556 S
Cd226 O236 2.297 1_556 S
Cd226 O237 2.439 1_556 S
O227 Cd226 2.240 . S
O227 C232 1.279 . S
O228 Cd225 2.297 1_556 S
O228 C230 1.247 . S
O229 Cd225 2.439 1_556 S
O229 C230 1.208 . S
C230 O228 1.247 . S
C230 O229 1.208 . S
C231 O236 1.247 . S
C231 O237 1.208 . S
C232 O224 1.315 . S
C232 O227 1.279 . S
C233 O234 1.315 . S
C233 O235 1.279 . S
O234 Cd226 2.223 1_554 S
O234 C233 1.315 . S
O235 Cd225 2.240 . S
O235 C233 1.279 . S
O236 Cd226 2.297 1_554 S
O236 C231 1.247 . S
O237 Cd226 2.439 1_554 S
O237 C231 1.208 . S
O238 Cd239 2.223 . S
O238 C246 1.315 . S
Cd239 O238 2.223 . S
Cd239 O242 2.297 . S
Cd239 O243 2.439 . S
Cd239 O249 2.240 . S
Cd240 O241 2.240 . S
Cd240 O248 2.223 . S
Cd240 O250 2.297 . S
Cd240 O251 2.439 . S
O241 Cd240 2.240 . S
O241 C246 1.279 . S
O242 Cd239 2.297 . S
O242 C244 1.247 . S
O243 Cd239 2.439 . S
O243 C244 1.208 . S
C244 O242 1.247 . S
C244 O243 1.208 . S
C245 O250 1.247 . S
C245 O251 1.208 . S
C246 O238 1.315 . S
C246 O241 1.279 . S
C247 O248 1.315 . S
C247 O249 1.279 . S
O248 Cd240 2.223 . S
O248 C247 1.315 . S
O249 Cd239 2.240 . S
O249 C247 1.279 . S
O250 Cd240 2.297 . S
O250 C245 1.247 . S
O251 Cd240 2.439 . S
O251 C245 1.208 . S
O252 Cd253 2.223 . S
O252 C260 1.315 . S
Cd253 O252 2.223 . S
Cd253 O256 2.297 . S
Cd253 O257 2.439 . S
Cd253 O263 2.240 . S
Cd254 O255 2.240 . S
Cd254 O262 2.223 . S
Cd254 O264 2.297 . S
Cd254 O265 2.439 . S
O255 Cd254 2.240 . S
O255 C260 1.279 . S
O256 Cd253 2.297 . S
O256 C258 1.247 . S
O257 Cd253 2.439 . S
O257 C258 1.208 . S
C258 O256 1.247 . S
C258 O257 1.208 . S
C259 O264 1.247 . S
C259 O265 1.208 . S
C260 O252 1.315 . S
C260 O255 1.279 . S
C261 O262 1.315 . S
C261 O263 1.279 . S
O262 Cd254 2.223 . S
O262 C261 1.315 . S
O263 Cd253 2.240 . S
O263 C261 1.279 . S
O264 Cd254 2.297 . S
O264 C259 1.247 . S
O265 Cd254 2.439 . S
O265 C259 1.208 . S
O266 Cd267 2.223 . S
O266 C274 1.315 . S
Cd267 O266 2.223 . S
Cd267 O270 2.297 . S
Cd267 O271 2.439 . S
Cd267 O277 2.240 . S
Cd268 O269 2.240 . S
Cd268 O276 2.223 . S
Cd268 O278 2.297 . S
Cd268 O279 2.439 . S
O269 Cd268 2.240 . S
O269 C274 1.279 . S
O270 Cd267 2.297 . S
O270 C272 1.247 . S
O271 Cd267 2.439 . S
O271 C272 1.208 . S
C272 O270 1.247 . S
C272 O271 1.208 . S
C273 O278 1.247 . S
C273 O279 1.208 . S
C274 O266 1.315 . S
C274 O269 1.279 . S
C275 O276 1.315 . S
C275 O277 1.279 . S
O276 Cd268 2.223 . S
O276 C275 1.315 . S
O277 Cd267 2.240 . S
O277 C275 1.279 . S
O278 Cd268 2.297 . S
O278 C273 1.247 . S
O279 Cd268 2.439 . S
O279 C273 1.208 . S
O280 Cd281 2.223 . S
O280 C288 1.315 . S
Cd281 O280 2.223 . S
Cd281 O284 2.297 . S
Cd281 O285 2.439 . S
Cd281 O291 2.240 1_565 S
Cd282 O283 2.237 . S
Cd282 O290 2.223 . S
Cd282 O292 2.297 . S
Cd282 O293 2.439 . S
O283 Cd282 2.237 . S
O283 C288 1.280 1_545 S
O284 Cd281 2.297 . S
O284 C286 1.247 . S
O285 Cd281 2.439 . S
O285 C286 1.208 . S
C286 O284 1.247 . S
C286 O285 1.208 . S
C287 O292 1.247 . S
C287 O293 1.208 . S
C288 O280 1.315 . S
C288 O283 1.280 1_565 S
C289 O290 1.315 . S
C289 O291 1.279 . S
O290 Cd282 2.223 . S
O290 C289 1.315 . S
O291 Cd281 2.240 1_545 S
O291 C289 1.279 . S
O292 Cd282 2.297 . S
O292 C287 1.247 . S
O293 Cd282 2.439 . S
O293 C287 1.208 . S
O294 Cd295 2.223 . S
O294 C302 1.315 . S
Cd295 O294 2.223 . S
Cd295 O298 2.297 . S
Cd295 O299 2.439 . S
Cd295 O305 2.240 . S
Cd296 O297 2.240 . S
Cd296 O304 2.223 . S
Cd296 O306 2.297 . S
Cd296 O307 2.439 . S
O297 Cd296 2.240 . S
O297 C302 1.279 . S
O298 Cd295 2.297 . S
O298 C300 1.247 . S
O299 Cd295 2.439 . S
O299 C300 1.208 . S
C300 O298 1.247 . S
C300 O299 1.208 . S
C301 O306 1.247 . S
C301 O307 1.208 . S
C302 O294 1.315 . S
C302 O297 1.279 . S
C303 O304 1.315 . S
C303 O305 1.279 . S
O304 Cd296 2.223 . S
O304 C303 1.315 . S
O305 Cd295 2.240 . S
O305 C303 1.279 . S
O306 Cd296 2.297 . S
O306 C301 1.247 . S
O307 Cd296 2.439 . S
O307 C301 1.208 . S
O308 Cd309 2.223 . S
O308 C316 1.315 . S
Cd309 O308 2.223 . S
Cd309 O312 2.297 . S
Cd309 O313 2.439 . S
Cd309 O319 2.240 . S
Cd310 O311 2.240 . S
Cd310 O318 2.223 . S
Cd310 O320 2.297 . S
Cd310 O321 2.439 . S
O311 Cd310 2.240 . S
O311 C316 1.279 . S
O312 Cd309 2.297 . S
O312 C314 1.247 . S
O313 Cd309 2.439 . S
O313 C314 1.208 . S
C314 O312 1.247 . S
C314 O313 1.208 . S
C315 O320 1.247 . S
C315 O321 1.208 . S
C316 O308 1.315 . S
C316 O311 1.279 . S
C317 O318 1.315 . S
C317 O319 1.279 . S
O318 Cd310 2.223 . S
O318 C317 1.315 . S
O319 Cd309 2.240 . S
O319 C317 1.279 . S
O320 Cd310 2.297 . S
O320 C315 1.247 . S
O321 Cd310 2.439 . S
O321 C315 1.208 . S
O322 Cd323 2.223 . S
O322 C330 1.315 . S
Cd323 O322 2.223 . S
Cd323 O326 2.297 . S
Cd323 O327 2.439 . S
Cd323 O333 2.240 . S
Cd324 O325 2.240 . S
Cd324 O332 2.223 . S
Cd324 O334 2.297 . S
Cd324 O335 2.439 . S
O325 Cd324 2.240 . S
O325 C330 1.279 . S
O326 Cd323 2.297 . S
O326 C328 1.247 . S
O327 Cd323 2.439 . S
O327 C328 1.208 . S
C328 O326 1.247 . S
C328 O327 1.208 . S
C329 O334 1.247 . S
C329 O335 1.208 . S
C330 O322 1.315 . S
C330 O325 1.279 . S
C331 O332 1.315 . S
C331 O333 1.279 . S
O332 Cd324 2.223 . S
O332 C331 1.315 . S
O333 Cd323 2.240 . S
O333 C331 1.279 . S
O334 Cd324 2.297 . S
O334 C329 1.247 . S
O335 Cd324 2.439 . S
O335 C329 1.208 . S
O336 Cd337 2.223 . S
O336 C344 1.315 . S
Cd337 O336 2.223 . S
Cd337 O340 2.297 . S
Cd337 O341 2.439 . S
Cd337 O347 2.240 . S
Cd338 O339 2.240 . S
Cd338 O346 2.223 . S
Cd338 O348 2.297 . S
Cd338 O349 2.439 . S
O339 Cd338 2.240 . S
O339 C344 1.279 . S
O340 Cd337 2.297 . S
O340 C342 1.247 . S
O341 Cd337 2.439 . S
O341 C342 1.208 . S
C342 O340 1.247 . S
C342 O341 1.208 . S
C343 O348 1.247 . S
C343 O349 1.208 . S
C344 O336 1.315 . S
C344 O339 1.279 . S
C345 O346 1.315 . S
C345 O347 1.279 . S
O346 Cd338 2.223 . S
O346 C345 1.315 . S
O347 Cd337 2.240 . S
O347 C345 1.279 . S
O348 Cd338 2.297 . S
O348 C343 1.247 . S
O349 Cd338 2.439 . S
O349 C343 1.208 . S
O350 Cd351 2.223 . S
O350 C358 1.315 . S
Cd351 O350 2.223 . S
Cd351 O354 2.297 . S
Cd351 O355 2.439 . S
Cd351 O361 2.240 . S
Cd352 O353 2.240 . S
Cd352 O360 2.223 . S
Cd352 O362 2.297 . S
Cd352 O363 2.439 . S
O353 Cd352 2.240 . S
O353 C358 1.279 . S
O354 Cd351 2.297 . S
O354 C356 1.247 . S
O355 Cd351 2.439 . S
O355 C356 1.208 . S
C356 O354 1.247 . S
C356 O355 1.208 . S
C357 O362 1.247 . S
C357 O363 1.208 . S
C358 O350 1.315 . S
C358 O353 1.279 . S
C359 O360 1.315 . S
C359 O361 1.279 . S
O360 Cd352 2.223 . S
O360 C359 1.315 . S
O361 Cd351 2.240 . S
O361 C359 1.279 . S
O362 Cd352 2.297 . S
O362 C357 1.247 . S
O363 Cd352 2.439 . S
O363 C357 1.208 . S
O364 Cd365 2.223 . S
O364 C372 1.315 . S
Cd365 O364 2.223 . S
Cd365 O368 2.297 . S
Cd365 O369 2.439 . S
Cd365 O375 2.240 . S
Cd366 O367 2.240 . S
Cd366 O374 2.223 . S
Cd366 O376 2.297 . S
Cd366 O377 2.439 . S
O367 Cd366 2.240 . S
O367 C372 1.279 . S
O368 Cd365 2.297 . S
O368 C370 1.247 . S
O369 Cd365 2.439 . S
O369 C370 1.208 . S
C370 O368 1.247 . S
C370 O369 1.208 . S
C371 O376 1.247 . S
C371 O377 1.208 . S
C372 O364 1.315 . S
C372 O367 1.279 . S
C373 O374 1.315 . S
C373 O375 1.279 . S
O374 Cd366 2.223 . S
O374 C373 1.315 . S
O375 Cd365 2.240 . S
O375 C373 1.279 . S
O376 Cd366 2.297 . S
O376 C371 1.247 . S
O377 Cd366 2.439 . S
O377 C371 1.208 . S
O378 Cd379 2.223 . S
O378 C386 1.315 . S
Cd379 O378 2.223 . S
Cd379 O382 2.297 . S
Cd379 O383 2.439 . S
Cd379 O389 2.240 . S
Cd380 O381 2.240 . S
Cd380 O388 2.223 . S
Cd380 O390 2.297 . S
Cd380 O391 2.439 . S
O381 Cd380 2.240 . S
O381 C386 1.279 . S
O382 Cd379 2.297 . S
O382 C384 1.247 . S
O383 Cd379 2.439 . S
O383 C384 1.208 . S
C384 O382 1.247 . S
C384 O383 1.208 . S
C385 O390 1.247 . S
C385 O391 1.208 . S
C386 O378 1.315 . S
C386 O381 1.279 . S
C387 O388 1.315 . S
C387 O389 1.279 . S
O388 Cd380 2.223 . S
O388 C387 1.315 . S
O389 Cd379 2.240 . S
O389 C387 1.279 . S
O390 Cd380 2.297 . S
O390 C385 1.247 . S
O391 Cd380 2.439 . S
O391 C385 1.208 . S
O392 Cd393 2.223 . S
O392 C400 1.315 . S
Cd393 O392 2.223 . S
Cd393 O396 2.297 . S
Cd393 O397 2.439 . S
Cd393 O403 2.240 . S
Cd394 O395 2.240 . S
Cd394 O402 2.223 . S
Cd394 O404 2.297 . S
Cd394 O405 2.439 . S
O395 Cd394 2.240 . S
O395 C400 1.279 . S
O396 Cd393 2.297 . S
O396 C398 1.247 . S
O397 Cd393 2.439 . S
O397 C398 1.208 . S
C398 O396 1.247 . S
C398 O397 1.208 . S
C399 O404 1.247 . S
C399 O405 1.208 . S
C400 O392 1.315 . S
C400 O395 1.279 . S
C401 O402 1.315 . S
C401 O403 1.279 . S
O402 Cd394 2.223 . S
O402 C401 1.315 . S
O403 Cd393 2.240 . S
O403 C401 1.279 . S
O404 Cd394 2.297 . S
O404 C399 1.247 . S
O405 Cd394 2.439 . S
O405 C399 1.208 . S
O406 Cd407 2.223 . S
O406 C414 1.315 . S
Cd407 O406 2.223 . S
Cd407 O410 2.297 . S
Cd407 O411 2.439 . S
Cd407 O417 2.240 . S
Cd408 O409 2.240 . S
Cd408 O416 2.223 . S
Cd408 O418 2.297 . S
Cd408 O419 2.439 . S
O409 Cd408 2.240 . S
O409 C414 1.279 . S
O410 Cd407 2.297 . S
O410 C412 1.247 . S
O411 Cd407 2.439 . S
O411 C412 1.208 . S
C412 O410 1.247 . S
C412 O411 1.208 . S
C413 O418 1.247 . S
C413 O419 1.208 . S
C414 O406 1.315 . S
C414 O409 1.279 . S
C415 O416 1.315 . S
C415 O417 1.279 . S
O416 Cd408 2.223 . S
O416 C415 1.315 . S
O417 Cd407 2.240 . S
O417 C415 1.279 . S
O418 Cd408 2.297 . S
O418 C413 1.247 . S
O419 Cd408 2.439 . S
O419 C413 1.208 . S
O420 Cd421 2.223 . S
O420 C428 1.315 . S
Cd421 O420 2.223 . S
Cd421 O424 2.297 . S
Cd421 O425 2.439 . S
Cd421 O431 2.240 . S
Cd422 O423 2.240 . S
Cd422 O430 2.223 . S
Cd422 O432 2.297 . S
Cd422 O433 2.439 . S
O423 Cd422 2.240 . S
O423 C428 1.279 . S
O424 Cd421 2.297 . S
O424 C426 1.247 . S
O425 Cd421 2.439 . S
O425 C426 1.208 . S
C426 O424 1.247 . S
C426 O425 1.208 . S
C427 O432 1.247 . S
C427 O433 1.208 . S
C428 O420 1.315 . S
C428 O423 1.279 . S
C429 O430 1.315 . S
C429 O431 1.279 . S
O430 Cd422 2.223 . S
O430 C429 1.315 . S
O431 Cd421 2.240 . S
O431 C429 1.279 . S
O432 Cd422 2.297 . S
O432 C427 1.247 . S
O433 Cd422 2.439 . S
O433 C427 1.208 . S
O434 Cd435 2.223 . S
O434 C442 1.315 . S
Cd435 O434 2.223 . S
Cd435 O438 2.297 . S
Cd435 O439 2.439 . S
Cd435 O445 2.240 . S
Cd436 O437 2.240 . S
Cd436 O444 2.223 . S
Cd436 O446 2.297 . S
Cd436 O447 2.439 . S
O437 Cd436 2.240 . S
O437 C442 1.279 . S
O438 Cd435 2.297 . S
O438 C440 1.247 . S
O439 Cd435 2.439 . S
O439 C440 1.208 . S
C440 O438 1.247 . S
C440 O439 1.208 . S
C441 O446 1.247 . S
C441 O447 1.208 . S
C442 O434 1.315 . S
C442 O437 1.279 . S
C443 O444 1.315 . S
C443 O445 1.279 . S
O444 Cd436 2.223 . S
O444 C443 1.315 . S
O445 Cd435 2.240 . S
O445 C443 1.279 . S
O446 Cd436 2.297 . S
O446 C441 1.247 . S
O447 Cd436 2.439 . S
O447 C441 1.208 . S
O448 Cd449 2.223 . S
O448 C456 1.315 . S
Cd449 O448 2.223 . S
Cd449 O452 2.297 . S
Cd449 O453 2.439 . S
Cd449 O459 2.240 . S
Cd450 O451 2.240 . S
Cd450 O458 2.223 . S
Cd450 O460 2.297 . S
Cd450 O461 2.439 . S
O451 Cd450 2.240 . S
O451 C456 1.279 . S
O452 Cd449 2.297 . S
O452 C454 1.247 . S
O453 Cd449 2.439 . S
O453 C454 1.208 . S
C454 O452 1.247 . S
C454 O453 1.208 . S
C455 O460 1.247 . S
C455 O461 1.208 . S
C456 O448 1.315 . S
C456 O451 1.279 . S
C457 O458 1.315 . S
C457 O459 1.279 . S
O458 Cd450 2.223 . S
O458 C457 1.315 . S
O459 Cd449 2.240 . S
O459 C457 1.279 . S
O460 Cd450 2.297 . S
O460 C455 1.247 . S
O461 Cd450 2.439 . S
O461 C455 1.208 . S
O462 Cd463 2.223 . S
O462 C470 1.315 . S
Cd463 O462 2.223 . S
Cd463 O466 2.297 . S
Cd463 O467 2.439 . S
Cd463 O473 2.240 . S
Cd464 O465 2.240 . S
Cd464 O472 2.223 . S
Cd464 O474 2.297 . S
Cd464 O475 2.439 . S
O465 Cd464 2.240 . S
O465 C470 1.279 . S
O466 Cd463 2.297 . S
O466 C468 1.247 . S
O467 Cd463 2.439 . S
O467 C468 1.208 . S
C468 O466 1.247 . S
C468 O467 1.208 . S
C469 O474 1.247 . S
C469 O475 1.208 . S
C470 O462 1.315 . S
C470 O465 1.279 . S
C471 O472 1.315 . S
C471 O473 1.279 . S
O472 Cd464 2.223 . S
O472 C471 1.315 . S
O473 Cd463 2.240 . S
O473 C471 1.279 . S
O474 Cd464 2.297 . S
O474 C469 1.247 . S
O475 Cd464 2.439 . S
O475 C469 1.208 . S
O476 Cd477 2.223 . S
O476 C484 1.315 . S
Cd477 O476 2.223 . S
Cd477 O480 2.297 . S
Cd477 O481 2.439 . S
Cd477 O487 2.240 . S
Cd478 O479 2.240 . S
Cd478 O486 2.223 . S
Cd478 O488 2.297 . S
Cd478 O489 2.439 . S
O479 Cd478 2.240 . S
O479 C484 1.279 . S
O480 Cd477 2.297 . S
O480 C482 1.247 . S
O481 Cd477 2.439 . S
O481 C482 1.208 . S
C482 O480 1.247 . S
C482 O481 1.208 . S
C483 O488 1.247 . S
C483 O489 1.208 . S
C484 O476 1.315 . S
C484 O479 1.279 . S
C485 O486 1.315 . S
C485 O487 1.279 . S
O486 Cd478 2.223 . S
O486 C485 1.315 . S
O487 Cd477 2.240 . S
O487 C485 1.279 . S
O488 Cd478 2.297 . S
O488 C483 1.247 . S
O489 Cd478 2.439 . S
O489 C483 1.208 . S
O490 Cd491 2.223 . S
O490 C498 1.315 . S
Cd491 O490 2.223 . S
Cd491 O494 2.297 . S
Cd491 O495 2.439 . S
Cd491 O501 2.240 . S
Cd492 O493 2.240 . S
Cd492 O500 2.223 . S
Cd492 O502 2.297 . S
Cd492 O503 2.439 . S
O493 Cd492 2.240 . S
O493 C498 1.279 . S
O494 Cd491 2.297 . S
O494 C496 1.247 . S
O495 Cd491 2.439 . S
O495 C496 1.208 . S
C496 O494 1.247 . S
C496 O495 1.208 . S
C497 O502 1.247 . S
C497 O503 1.208 . S
C498 O490 1.315 . S
C498 O493 1.279 . S
C499 O500 1.315 . S
C499 O501 1.279 . S
O500 Cd492 2.223 . S
O500 C499 1.315 . S
O501 Cd491 2.240 . S
O501 C499 1.279 . S
O502 Cd492 2.297 . S
O502 C497 1.247 . S
O503 Cd492 2.439 . S
O503 C497 1.208 . S
O504 Cd505 2.223 . S
O504 C512 1.315 . S
Cd505 O504 2.223 . S
Cd505 O508 2.297 . S
Cd505 O509 2.439 . S
Cd505 O515 2.240 . S
Cd506 O507 2.240 . S
Cd506 O514 2.223 . S
Cd506 O516 2.297 . S
Cd506 O517 2.439 . S
O507 Cd506 2.240 . S
O507 C512 1.279 . S
O508 Cd505 2.297 . S
O508 C510 1.247 . S
O509 Cd505 2.439 . S
O509 C510 1.208 . S
C510 O508 1.247 . S
C510 O509 1.208 . S
C511 O516 1.247 . S
C511 O517 1.208 . S
C512 O504 1.315 . S
C512 O507 1.279 . S
C513 O514 1.315 . S
C513 O515 1.279 . S
O514 Cd506 2.223 . S
O514 C513 1.315 . S
O515 Cd505 2.240 . S
O515 C513 1.279 . S
O516 Cd506 2.297 . S
O516 C511 1.247 . S
O517 Cd506 2.439 . S
O517 C511 1.208 . S
O518 Cd519 2.223 . S
O518 C526 1.315 . S
Cd519 O518 2.223 . S
Cd519 O522 2.297 . S
Cd519 O523 2.439 . S
Cd519 O529 2.240 1_556 S
Cd520 O521 2.240 1_554 S
Cd520 O528 2.223 . S
Cd520 O530 2.297 . S
Cd520 O531 2.439 . S
O521 Cd520 2.240 1_556 S
O521 C526 1.279 . S
O522 Cd519 2.297 . S
O522 C524 1.247 . S
O523 Cd519 2.439 . S
O523 C524 1.208 . S
C524 O522 1.247 . S
C524 O523 1.208 . S
C525 O530 1.247 . S
C525 O531 1.208 . S
C526 O518 1.315 . S
C526 O521 1.279 . S
C527 O528 1.315 . S
C527 O529 1.279 . S
O528 Cd520 2.223 . S
O528 C527 1.315 . S
O529 Cd519 2.240 1_554 S
O529 C527 1.279 . S
O530 Cd520 2.297 . S
O530 C525 1.247 . S
O531 Cd520 2.439 . S
O531 C525 1.208 . S
O532 Cd533 2.223 . S
O532 C540 1.315 . S
Cd533 O532 2.223 . S
Cd533 O536 2.297 . S
Cd533 O537 2.439 . S
Cd533 O543 2.240 . S
Cd534 O535 2.240 . S
Cd534 O542 2.223 . S
Cd534 O544 2.297 . S
Cd534 O545 2.439 . S
O535 Cd534 2.240 . S
O535 C540 1.279 . S
O536 Cd533 2.297 . S
O536 C538 1.247 . S
O537 Cd533 2.439 . S
O537 C538 1.208 . S
C538 O536 1.247 . S
C538 O537 1.208 . S
C539 O544 1.247 . S
C539 O545 1.208 . S
C540 O532 1.315 . S
C540 O535 1.279 . S
C541 O542 1.315 . S
C541 O543 1.279 . S
O542 Cd534 2.223 . S
O542 C541 1.315 . S
O543 Cd533 2.240 . S
O543 C541 1.279 . S
O544 Cd534 2.297 . S
O544 C539 1.247 . S
O545 Cd534 2.439 . S
O545 C539 1.208 . S
O546 Cd547 2.223 . S
O546 C554 1.315 . S
Cd547 O546 2.223 . S
Cd547 O550 2.297 . S
Cd547 O551 2.439 . S
Cd547 O557 2.240 . S
Cd548 O549 2.240 . S
Cd548 O556 2.223 . S
Cd548 O558 2.297 . S
Cd548 O559 2.439 . S
O549 Cd548 2.240 . S
O549 C554 1.279 . S
O550 Cd547 2.297 . S
O550 C552 1.247 . S
O551 Cd547 2.439 . S
O551 C552 1.208 . S
C552 O550 1.247 . S
C552 O551 1.208 . S
C553 O558 1.247 . S
C553 O559 1.208 . S
C554 O546 1.315 . S
C554 O549 1.279 . S
C555 O556 1.315 . S
C555 O557 1.279 . S
O556 Cd548 2.223 . S
O556 C555 1.315 . S
O557 Cd547 2.240 . S
O557 C555 1.279 . S
O558 Cd548 2.297 . S
O558 C553 1.247 . S
O559 Cd548 2.439 . S
O559 C553 1.208 . S
O560 Cd561 2.223 . S
O560 C568 1.315 . S
Cd561 O560 2.223 . S
Cd561 O564 2.297 . S
Cd561 O565 2.439 . S
Cd561 O571 2.240 . S
Cd562 O563 2.240 . S
Cd562 O570 2.223 . S
Cd562 O572 2.297 . S
Cd562 O573 2.439 . S
O563 Cd562 2.240 . S
O563 C568 1.279 . S
O564 Cd561 2.297 . S
O564 C566 1.247 . S
O565 Cd561 2.439 . S
O565 C566 1.208 . S
C566 O564 1.247 . S
C566 O565 1.208 . S
C567 O572 1.247 . S
C567 O573 1.208 . S
C568 O560 1.315 . S
C568 O563 1.279 . S
C569 O570 1.315 . S
C569 O571 1.279 . S
O570 Cd562 2.223 . S
O570 C569 1.315 . S
O571 Cd561 2.240 . S
O571 C569 1.279 . S
O572 Cd562 2.297 . S
O572 C567 1.247 . S
O573 Cd562 2.439 . S
O573 C567 1.208 . S
O574 Cd575 2.223 . S
O574 C582 1.315 . S
Cd575 O574 2.223 . S
Cd575 O578 2.297 . S
Cd575 O579 2.439 . S
Cd575 O585 2.240 . S
Cd576 O577 2.240 . S
Cd576 O584 2.223 . S
Cd576 O586 2.297 . S
Cd576 O587 2.439 . S
O577 Cd576 2.240 . S
O577 C582 1.279 . S
O578 Cd575 2.297 . S
O578 C580 1.247 . S
O579 Cd575 2.439 . S
O579 C580 1.208 . S
C580 O578 1.247 . S
C580 O579 1.208 . S
C581 O586 1.247 . S
C581 O587 1.208 . S
C582 O574 1.315 . S
C582 O577 1.279 . S
C583 O584 1.315 . S
C583 O585 1.279 . S
O584 Cd576 2.223 . S
O584 C583 1.315 . S
O585 Cd575 2.240 . S
O585 C583 1.279 . S
O586 Cd576 2.297 . S
O586 C581 1.247 . S
O587 Cd576 2.439 . S
O587 C581 1.208 . S
O588 Cd589 2.223 . S
O588 C596 1.315 . S
Cd589 O588 2.223 . S
Cd589 O592 2.297 . S
Cd589 O593 2.439 . S
Cd589 O599 2.240 . S
Cd590 O591 2.240 . S
Cd590 O598 2.223 . S
Cd590 O600 2.297 . S
Cd590 O601 2.439 . S
O591 Cd590 2.240 . S
O591 C596 1.279 . S
O592 Cd589 2.297 . S
O592 C594 1.247 . S
O593 Cd589 2.439 . S
O593 C594 1.208 . S
C594 O592 1.247 . S
C594 O593 1.208 . S
C595 O600 1.247 . S
C595 O601 1.208 . S
C596 O588 1.315 . S
C596 O591 1.279 . S
C597 O598 1.315 . S
C597 O599 1.279 . S
O598 Cd590 2.223 . S
O598 C597 1.315 . S
O599 Cd589 2.240 . S
O599 C597 1.279 . S
O600 Cd590 2.297 . S
O600 C595 1.247 . S
O601 Cd590 2.439 . S
O601 C595 1.208 . S
O602 Cd603 2.223 . S
O602 C610 1.315 . S
Cd603 O602 2.223 . S
Cd603 O606 2.297 . S
Cd603 O607 2.439 . S
Cd603 O613 2.240 . S
Cd604 O605 2.240 . S
Cd604 O612 2.223 . S
Cd604 O614 2.297 . S
Cd604 O615 2.439 . S
O605 Cd604 2.240 . S
O605 C610 1.279 . S
O606 Cd603 2.297 . S
O606 C608 1.247 . S
O607 Cd603 2.439 . S
O607 C608 1.208 . S
C608 O606 1.247 . S
C608 O607 1.208 . S
C609 O614 1.247 . S
C609 O615 1.208 . S
C610 O602 1.315 . S
C610 O605 1.279 . S
C611 O612 1.315 . S
C611 O613 1.279 . S
O612 Cd604 2.223 . S
O612 C611 1.315 . S
O613 Cd603 2.240 . S
O613 C611 1.279 . S
O614 Cd604 2.297 . S
O614 C609 1.247 . S
O615 Cd604 2.439 . S
O615 C609 1.208 . S
O616 Cd617 2.223 . S
O616 C624 1.315 . S
Cd617 O616 2.223 . S
Cd617 O620 2.297 . S
Cd617 O621 2.439 . S
Cd617 O627 2.240 . S
Cd618 O619 2.240 . S
Cd618 O626 2.223 . S
Cd618 O628 2.297 . S
Cd618 O629 2.439 . S
O619 Cd618 2.240 . S
O619 C624 1.279 . S
O620 Cd617 2.297 . S
O620 C622 1.247 . S
O621 Cd617 2.439 . S
O621 C622 1.208 . S
C622 O620 1.247 . S
C622 O621 1.208 . S
C623 O628 1.247 . S
C623 O629 1.208 . S
C624 O616 1.315 . S
C624 O619 1.279 . S
C625 O626 1.315 . S
C625 O627 1.279 . S
O626 Cd618 2.223 . S
O626 C625 1.315 . S
O627 Cd617 2.240 . S
O627 C625 1.279 . S
O628 Cd618 2.297 . S
O628 C623 1.247 . S
O629 Cd618 2.439 . S
O629 C623 1.208 . S
O630 Cd631 2.223 1_556 S
O630 C638 1.315 . S
Cd631 O630 2.223 1_554 S
Cd631 O634 2.297 1_554 S
Cd631 O635 2.439 1_554 S
Cd631 O641 2.240 . S
Cd632 O633 2.240 . S
Cd632 O640 2.223 1_556 S
Cd632 O642 2.297 1_556 S
Cd632 O643 2.439 1_556 S
O633 Cd632 2.240 . S
O633 C638 1.279 . S
O634 Cd631 2.297 1_556 S
O634 C636 1.247 . S
O635 Cd631 2.439 1_556 S
O635 C636 1.208 . S
C636 O634 1.247 . S
C636 O635 1.208 . S
C637 O642 1.247 . S
C637 O643 1.208 . S
C638 O630 1.315 . S
C638 O633 1.279 . S
C639 O640 1.315 . S
C639 O641 1.279 . S
O640 Cd632 2.223 1_554 S
O640 C639 1.315 . S
O641 Cd631 2.240 . S
O641 C639 1.279 . S
O642 Cd632 2.297 1_554 S
O642 C637 1.247 . S
O643 Cd632 2.439 1_554 S
O643 C637 1.208 . S
O644 Cd645 2.223 . S
O644 C652 1.315 . S
Cd645 O644 2.223 . S
Cd645 O648 2.297 . S
Cd645 O649 2.439 . S
Cd645 O655 2.240 1_565 S
Cd646 O647 2.240 1_545 S
Cd646 O654 2.223 . S
Cd646 O656 2.297 . S
Cd646 O657 2.439 . S
O647 Cd646 2.240 1_565 S
O647 C652 1.279 . S
O648 Cd645 2.297 . S
O648 C650 1.247 . S
O649 Cd645 2.439 . S
O649 C650 1.208 . S
C650 O648 1.247 . S
C650 O649 1.208 . S
C651 O656 1.247 . S
C651 O657 1.208 . S
C652 O644 1.315 . S
C652 O647 1.279 . S
C653 O654 1.315 . S
C653 O655 1.279 . S
O654 Cd646 2.223 . S
O654 C653 1.315 . S
O655 Cd645 2.240 1_545 S
O655 C653 1.279 . S
O656 Cd646 2.297 . S
O656 C651 1.247 . S
O657 Cd646 2.439 . S
O657 C651 1.208 . S
O658 Cd659 2.223 . S
O658 C666 1.315 . S
Cd659 O658 2.223 . S
Cd659 O662 2.297 . S
Cd659 O663 2.439 . S
Cd659 O669 2.240 . S
Cd660 O661 2.240 . S
Cd660 O668 2.223 . S
Cd660 O670 2.297 . S
Cd660 O671 2.439 . S
O661 Cd660 2.240 . S
O661 C666 1.279 . S
O662 Cd659 2.297 . S
O662 C664 1.247 . S
O663 Cd659 2.439 . S
O663 C664 1.208 . S
C664 O662 1.247 . S
C664 O663 1.208 . S
C665 O670 1.247 . S
C665 O671 1.208 . S
C666 O658 1.315 . S
C666 O661 1.279 . S
C667 O668 1.315 . S
C667 O669 1.279 . S
O668 Cd660 2.223 . S
O668 C667 1.315 . S
O669 Cd659 2.240 . S
O669 C667 1.279 . S
O670 Cd660 2.297 . S
O670 C665 1.247 . S
O671 Cd660 2.439 . S
O671 C665 1.208 . S
C672 C673 1.349 . S
C672 C674 1.327 . S
C672 H697 0.950 . S
C673 C672 1.349 . S
C673 C689 1.349 . S
C674 C672 1.327 . S
C674 C693 1.429 . S
C674 H698 0.950 . S
C675 C692 1.574 . S
C675 C694 1.368 . S
C675 H699 0.949 . S
H676 C680 0.949 . S
C677 C678 1.349 . S
C677 C679 1.327 . S
C677 H700 0.950 . S
C678 C677 1.349 . S
C678 C690 1.349 . S
C679 C677 1.327 . S
C679 C695 1.429 . S
C679 H701 0.950 . S
C680 H676 0.949 . S
C680 C688 1.574 . S
C680 C696 1.368 . S
H681 C689 0.950 . S
H682 C687 0.950 . S
H683 C688 0.949 . S
H684 C690 0.950 . S
H685 C691 0.950 . S
H686 C692 0.949 . S
C687 H682 0.950 . S
C687 C689 1.327 . S
C687 C693 1.429 . S
C688 C680 1.574 . S
C688 H683 0.949 . S
C688 C694 1.368 . S
C689 C673 1.349 . S
C689 H681 0.950 . S
C689 C687 1.327 . S
C690 C678 1.349 . S
C690 H684 0.950 . S
C690 C691 1.327 . S
C691 H685 0.950 . S
C691 C690 1.327 . S
C691 C695 1.429 . S
C692 C675 1.574 . S
C692 H686 0.949 . S
C692 C696 1.368 . S
C693 C674 1.429 . S
C693 C687 1.429 . S
C693 C694 1.523 . S
C694 C675 1.368 . S
C694 C688 1.368 . S
C694 C693 1.523 . S
C695 C679 1.429 . S
C695 C691 1.429 . S
C695 C696 1.523 . S
C696 C680 1.368 . S
C696 C692 1.368 . S
C696 C695 1.523 . S
H697 C672 0.950 . S
H698 C674 0.950 . S
H699 C675 0.949 . S
H700 C677 0.950 . S
H701 C679 0.950 . S
C702 C703 1.349 . S
C702 C704 1.327 . S
C702 H727 0.950 . S
C703 C702 1.349 . S
C703 C719 1.349 . S
C704 C702 1.327 . S
C704 C723 1.429 . S
C704 H728 0.950 . S
C705 C722 1.574 . S
C705 C724 1.368 . S
C705 H729 0.949 . S
H706 C710 0.949 . S
C707 C708 1.349 . S
C707 C709 1.327 . S
C707 H730 0.950 . S
C708 C707 1.349 . S
C708 C720 1.349 . S
C709 C707 1.327 . S
C709 C725 1.429 . S
C709 H731 0.950 . S
C710 H706 0.949 . S
C710 C718 1.574 . S
C710 C726 1.368 . S
H711 C719 0.950 . S
H712 C717 0.950 . S
H713 C718 0.949 . S
H714 C720 0.950 . S
H715 C721 0.950 . S
H716 C722 0.949 . S
C717 H712 0.950 . S
C717 C719 1.327 . S
C717 C723 1.429 . S
C718 C710 1.574 . S
C718 H713 0.949 . S
C718 C724 1.368 . S
C719 C703 1.349 . S
C719 H711 0.950 . S
C719 C717 1.327 . S
C720 C708 1.349 . S
C720 H714 0.950 . S
C720 C721 1.327 . S
C721 H715 0.950 . S
C721 C720 1.327 . S
C721 C725 1.429 . S
C722 C705 1.574 . S
C722 H716 0.949 . S
C722 C726 1.368 . S
C723 C704 1.429 . S
C723 C717 1.429 . S
C723 C724 1.523 . S
C724 C705 1.368 . S
C724 C718 1.368 . S
C724 C723 1.523 . S
C725 C709 1.429 . S
C725 C721 1.429 . S
C725 C726 1.523 . S
C726 C710 1.368 . S
C726 C722 1.368 . S
C726 C725 1.523 . S
H727 C702 0.950 . S
H728 C704 0.950 . S
H729 C705 0.949 . S
H730 C707 0.950 . S
H731 C709 0.950 . S
C732 C733 1.349 . S
C732 C734 1.327 . S
C732 H757 0.950 . S
C733 C732 1.349 . S
C733 C749 1.349 . S
C734 C732 1.327 . S
C734 C753 1.429 . S
C734 H758 0.950 . S
C735 C752 1.574 . S
C735 C754 1.368 . S
C735 H759 0.949 . S
H736 C740 0.949 . S
C737 C738 1.349 . S
C737 C739 1.327 . S
C737 H760 0.950 . S
C738 C737 1.349 . S
C738 C750 1.349 . S
C739 C737 1.327 . S
C739 C755 1.429 . S
C739 H761 0.950 . S
C740 H736 0.949 . S
C740 C748 1.574 . S
C740 C756 1.368 . S
H741 C749 0.950 . S
H742 C747 0.950 . S
H743 C748 0.949 . S
H744 C750 0.950 . S
H745 C751 0.950 . S
H746 C752 0.949 . S
C747 H742 0.950 . S
C747 C749 1.327 . S
C747 C753 1.429 . S
C748 C740 1.574 . S
C748 H743 0.949 . S
C748 C754 1.368 . S
C749 C733 1.349 . S
C749 H741 0.950 . S
C749 C747 1.327 . S
C750 C738 1.349 . S
C750 H744 0.950 . S
C750 C751 1.327 . S
C751 H745 0.950 . S
C751 C750 1.327 . S
C751 C755 1.429 . S
C752 C735 1.574 . S
C752 H746 0.949 . S
C752 C756 1.368 . S
C753 C734 1.429 . S
C753 C747 1.429 . S
C753 C754 1.523 . S
C754 C735 1.368 . S
C754 C748 1.368 . S
C754 C753 1.523 . S
C755 C739 1.429 . S
C755 C751 1.429 . S
C755 C756 1.523 . S
C756 C740 1.368 . S
C756 C752 1.368 . S
C756 C755 1.523 . S
H757 C732 0.950 . S
H758 C734 0.950 . S
H759 C735 0.949 . S
H760 C737 0.950 . S
H761 C739 0.950 . S
C762 C763 1.349 . S
C762 C764 1.327 . S
C762 H787 0.950 . S
C763 C762 1.349 . S
C763 C779 1.349 1_554 S
C764 C762 1.327 . S
C764 C783 1.429 . S
C764 H788 0.950 . S
C765 C782 1.574 . S
C765 C784 1.368 1_556 S
C765 H789 0.949 . S
H766 C770 0.949 . S
C767 C768 1.349 1_556 S
C767 C769 1.327 . S
C767 H790 0.950 . S
C768 C767 1.349 1_554 S
C768 C780 1.349 . S
C769 C767 1.327 . S
C769 C785 1.429 1_556 S
C769 H791 0.950 . S
C770 H766 0.949 . S
C770 C778 1.574 . S
C770 C786 1.368 . S
H771 C779 0.950 . S
H772 C777 0.950 . S
H773 C778 0.949 . S
H774 C780 0.950 . S
H775 C781 0.950 . S
H776 C782 0.949 . S
C777 H772 0.950 . S
C777 C779 1.327 . S
C777 C783 1.429 1_556 S
C778 C770 1.574 . S
C778 H773 0.949 . S
C778 C784 1.368 . S
C779 C763 1.349 1_556 S
C779 H771 0.950 . S
C779 C777 1.327 . S
C780 C768 1.349 . S
C780 H774 0.950 . S
C780 C781 1.327 . S
C781 H775 0.950 . S
C781 C780 1.327 . S
C781 C785 1.429 . S
C782 C765 1.574 . S
C782 H776 0.949 . S
C782 C786 1.368 1_556 S
C783 C764 1.429 . S
C783 C777 1.429 1_554 S
C783 C784 1.523 . S
C784 C765 1.368 1_554 S
C784 C778 1.368 . S
C784 C783 1.523 . S
C785 C769 1.429 1_554 S
C785 C781 1.429 . S
C785 C786 1.523 . S
C786 C770 1.368 . S
C786 C782 1.368 1_554 S
C786 C785 1.523 . S
H787 C762 0.950 . S
H788 C764 0.950 . S
H789 C765 0.949 . S
H790 C767 0.950 . S
H791 C769 0.950 . S
C792 C793 1.349 . S
C792 C794 1.327 . S
C792 H817 0.950 . S
C793 C792 1.349 . S
C793 C809 1.349 . S
C794 C792 1.327 . S
C794 C813 1.429 . S
C794 H818 0.950 . S
C795 C812 1.574 . S
C795 C814 1.368 . S
C795 H819 0.949 . S
H796 C800 0.949 . S
C797 C798 1.349 . S
C797 C799 1.327 . S
C797 H820 0.950 . S
C798 C797 1.349 . S
C798 C810 1.349 . S
C799 C797 1.327 . S
C799 C815 1.429 . S
C799 H821 0.950 . S
C800 H796 0.949 . S
C800 C808 1.574 . S
C800 C816 1.368 . S
H801 C809 0.950 . S
H802 C807 0.950 . S
H803 C808 0.949 . S
H804 C810 0.950 . S
H805 C811 0.950 . S
H806 C812 0.949 . S
C807 H802 0.950 . S
C807 C809 1.327 . S
C807 C813 1.429 . S
C808 C800 1.574 . S
C808 H803 0.949 . S
C808 C814 1.368 . S
C809 C793 1.349 . S
C809 H801 0.950 . S
C809 C807 1.327 . S
C810 C798 1.349 . S
C810 H804 0.950 . S
C810 C811 1.327 . S
C811 H805 0.950 . S
C811 C810 1.327 . S
C811 C815 1.429 . S
C812 C795 1.574 . S
C812 H806 0.949 . S
C812 C816 1.368 . S
C813 C794 1.429 . S
C813 C807 1.429 . S
C813 C814 1.523 . S
C814 C795 1.368 . S
C814 C808 1.368 . S
C814 C813 1.523 . S
C815 C799 1.429 . S
C815 C811 1.429 . S
C815 C816 1.523 . S
C816 C800 1.368 . S
C816 C812 1.368 . S
C816 C815 1.523 . S
H817 C792 0.950 . S
H818 C794 0.950 . S
H819 C795 0.949 . S
H820 C797 0.950 . S
H821 C799 0.950 . S
C822 C823 1.349 . S
C822 C824 1.327 . S
C822 H847 0.950 . S
C823 C822 1.349 . S
C823 C839 1.349 . S
C824 C822 1.327 . S
C824 C843 1.429 . S
C824 H848 0.950 . S
C825 C842 1.574 . S
C825 C844 1.368 . S
C825 H849 0.949 . S
H826 C830 0.949 . S
C827 C828 1.349 . S
C827 C829 1.327 . S
C827 H850 0.950 . S
C828 C827 1.349 . S
C828 C840 1.349 . S
C829 C827 1.327 . S
C829 C845 1.429 . S
C829 H851 0.950 . S
C830 H826 0.949 . S
C830 C838 1.574 . S
C830 C846 1.368 . S
H831 C839 0.950 . S
H832 C837 0.950 . S
H833 C838 0.949 . S
H834 C840 0.950 . S
H835 C841 0.950 . S
H836 C842 0.949 . S
C837 H832 0.950 . S
C837 C839 1.327 . S
C837 C843 1.429 . S
C838 C830 1.574 . S
C838 H833 0.949 . S
C838 C844 1.368 . S
C839 C823 1.349 . S
C839 H831 0.950 . S
C839 C837 1.327 . S
C840 C828 1.349 . S
C840 H834 0.950 . S
C840 C841 1.327 . S
C841 H835 0.950 . S
C841 C840 1.327 . S
C841 C845 1.429 . S
C842 C825 1.574 . S
C842 H836 0.949 . S
C842 C846 1.368 . S
C843 C824 1.429 . S
C843 C837 1.429 . S
C843 C844 1.523 . S
C844 C825 1.368 . S
C844 C838 1.368 . S
C844 C843 1.523 . S
C845 C829 1.429 . S
C845 C841 1.429 . S
C845 C846 1.523 . S
C846 C830 1.368 . S
C846 C842 1.368 . S
C846 C845 1.523 . S
H847 C822 0.950 . S
H848 C824 0.950 . S
H849 C825 0.949 . S
H850 C827 0.950 . S
H851 C829 0.950 . S
C852 C853 1.349 . S
C852 C854 1.327 . S
C852 H877 0.950 . S
C853 C852 1.349 . S
C853 C869 1.349 . S
C854 C852 1.327 . S
C854 C873 1.429 . S
C854 H878 0.950 . S
C855 C872 1.574 . S
C855 C874 1.368 . S
C855 H879 0.949 . S
H856 C860 0.949 . S
C857 C858 1.349 . S
C857 C859 1.327 . S
C857 H880 0.950 . S
C858 C857 1.349 . S
C858 C870 1.349 . S
C859 C857 1.327 . S
C859 C875 1.429 . S
C859 H881 0.950 . S
C860 H856 0.949 . S
C860 C868 1.574 . S
C860 C876 1.368 . S
H861 C869 0.950 . S
H862 C867 0.950 . S
H863 C868 0.949 . S
H864 C870 0.950 . S
H865 C871 0.950 . S
H866 C872 0.949 . S
C867 H862 0.950 . S
C867 C869 1.327 . S
C867 C873 1.429 . S
C868 C860 1.574 . S
C868 H863 0.949 . S
C868 C874 1.368 . S
C869 C853 1.349 . S
C869 H861 0.950 . S
C869 C867 1.327 . S
C870 C858 1.349 . S
C870 H864 0.950 . S
C870 C871 1.327 . S
C871 H865 0.950 . S
C871 C870 1.327 . S
C871 C875 1.429 . S
C872 C855 1.574 . S
C872 H866 0.949 . S
C872 C876 1.368 . S
C873 C854 1.429 . S
C873 C867 1.429 . S
C873 C874 1.523 . S
C874 C855 1.368 . S
C874 C868 1.368 . S
C874 C873 1.523 . S
C875 C859 1.429 . S
C875 C871 1.429 . S
C875 C876 1.523 . S
C876 C860 1.368 . S
C876 C872 1.368 . S
C876 C875 1.523 . S
H877 C852 0.950 . S
H878 C854 0.950 . S
H879 C855 0.949 . S
H880 C857 0.950 . S
H881 C859 0.950 . S
C882 C883 1.349 . S
C882 C884 1.327 . S
C882 H907 0.950 . S
C883 C882 1.349 . S
C883 C899 1.349 . S
C884 C882 1.327 . S
C884 C903 1.429 . S
C884 H908 0.950 . S
C885 C902 1.574 . S
C885 C904 1.368 . S
C885 H909 0.949 . S
H886 C890 0.949 . S
C887 C888 1.349 . S
C887 C889 1.327 . S
C887 H910 0.950 . S
C888 C887 1.349 . S
C888 C900 1.349 . S
C889 C887 1.327 . S
C889 C905 1.429 . S
C889 H911 0.950 . S
C890 H886 0.949 . S
C890 C898 1.574 . S
C890 C906 1.368 . S
H891 C899 0.950 . S
H892 C897 0.950 . S
H893 C898 0.949 . S
H894 C900 0.950 . S
H895 C901 0.950 . S
H896 C902 0.949 . S
C897 H892 0.950 . S
C897 C899 1.327 . S
C897 C903 1.429 . S
C898 C890 1.574 . S
C898 H893 0.949 . S
C898 C904 1.368 . S
C899 C883 1.349 . S
C899 H891 0.950 . S
C899 C897 1.327 . S
C900 C888 1.349 . S
C900 H894 0.950 . S
C900 C901 1.327 . S
C901 H895 0.950 . S
C901 C900 1.327 . S
C901 C905 1.429 . S
C902 C885 1.574 . S
C902 H896 0.949 . S
C902 C906 1.368 . S
C903 C884 1.429 . S
C903 C897 1.429 . S
C903 C904 1.523 . S
C904 C885 1.368 . S
C904 C898 1.368 . S
C904 C903 1.523 . S
C905 C889 1.429 . S
C905 C901 1.429 . S
C905 C906 1.523 . S
C906 C890 1.368 . S
C906 C902 1.368 . S
C906 C905 1.523 . S
H907 C882 0.950 . S
H908 C884 0.950 . S
H909 C885 0.949 . S
H910 C887 0.950 . S
H911 C889 0.950 . S
C912 C913 1.349 . S
C912 C914 1.327 . S
C912 H937 0.950 . S
C913 C912 1.349 . S
C913 C929 1.349 . S
C914 C912 1.327 . S
C914 C933 1.429 . S
C914 H938 0.950 . S
C915 C932 1.574 . S
C915 C934 1.368 . S
C915 H939 0.949 . S
H916 C920 0.949 . S
C917 C918 1.349 . S
C917 C919 1.327 . S
C917 H940 0.950 . S
C918 C917 1.349 . S
C918 C930 1.349 . S
C919 C917 1.327 . S
C919 C935 1.429 . S
C919 H941 0.950 . S
C920 H916 0.949 . S
C920 C928 1.574 . S
C920 C936 1.368 . S
H921 C929 0.950 . S
H922 C927 0.950 . S
H923 C928 0.949 . S
H924 C930 0.950 1_565 S
H925 C931 0.950 . S
H926 C932 0.949 . S
C927 H922 0.950 . S
C927 C929 1.327 . S
C927 C933 1.429 . S
C928 C920 1.574 . S
C928 H923 0.949 . S
C928 C934 1.368 . S
C929 C913 1.349 . S
C929 H921 0.950 . S
C929 C927 1.327 . S
C930 C918 1.349 . S
C930 H924 0.950 1_545 S
C930 C931 1.327 . S
C931 H925 0.950 . S
C931 C930 1.327 . S
C931 C935 1.429 . S
C932 C915 1.574 . S
C932 H926 0.949 . S
C932 C936 1.368 . S
C933 C914 1.429 . S
C933 C927 1.429 . S
C933 C934 1.523 . S
C934 C915 1.368 . S
C934 C928 1.368 . S
C934 C933 1.523 . S
C935 C919 1.429 . S
C935 C931 1.429 . S
C935 C936 1.523 . S
C936 C920 1.368 . S
C936 C932 1.368 . S
C936 C935 1.523 . S
H937 C912 0.950 . S
H938 C914 0.950 . S
H939 C915 0.949 . S
H940 C917 0.950 . S
H941 C919 0.950 . S
C942 C943 1.349 . S
C942 C944 1.327 . S
C942 H967 0.950 . S
C943 C942 1.349 . S
C943 C959 1.349 1_545 S
C944 C942 1.327 . S
C944 C963 1.429 . S
C944 H968 0.950 . S
C945 C962 1.574 . S
C945 C964 1.368 1_565 S
C945 H969 0.949 . S
H946 C950 0.949 . S
C947 C948 1.349 1_565 S
C947 C949 1.327 . S
C947 H970 0.950 . S
C948 C947 1.349 1_545 S
C948 C960 1.349 . S
C949 C947 1.327 . S
C949 C965 1.429 1_565 S
C949 H971 0.950 . S
C950 H946 0.949 . S
C950 C958 1.574 . S
C950 C966 1.368 . S
H951 C959 0.950 . S
H952 C957 0.950 . S
H953 C958 0.949 . S
H954 C960 0.950 . S
H955 C961 0.950 . S
H956 C962 0.949 . S
C957 H952 0.950 . S
C957 C959 1.327 . S
C957 C963 1.429 1_565 S
C958 C950 1.574 . S
C958 H953 0.949 . S
C958 C964 1.368 . S
C959 C943 1.349 1_565 S
C959 H951 0.950 . S
C959 C957 1.327 . S
C960 C948 1.349 . S
C960 H954 0.950 . S
C960 C961 1.327 . S
C961 H955 0.950 . S
C961 C960 1.327 . S
C961 C965 1.429 . S
C962 C945 1.574 . S
C962 H956 0.949 . S
C962 C966 1.368 1_565 S
C963 C944 1.429 . S
C963 C957 1.429 1_545 S
C963 C964 1.523 . S
C964 C945 1.368 1_545 S
C964 C958 1.368 . S
C964 C963 1.523 . S
C965 C949 1.429 1_545 S
C965 C961 1.429 . S
C965 C966 1.523 . S
C966 C950 1.368 . S
C966 C962 1.368 1_545 S
C966 C965 1.523 . S
H967 C942 0.950 . S
H968 C944 0.950 . S
H969 C945 0.949 . S
H970 C947 0.950 . S
H971 C949 0.950 . S
C972 C973 1.349 . S
C972 C974 1.327 . S
C972 H997 0.998 . S
C973 C972 1.349 . S
C973 C989 1.349 . S
C974 C972 1.327 . S
C974 C993 1.429 . S
C974 H998 0.950 . S
C975 C992 1.574 . S
C975 C994 1.368 . S
C975 H999 0.949 . S
H976 C980 0.949 . S
C977 C978 1.349 . S
C977 C979 1.327 . S
C977 H1000 0.950 . S
C978 C977 1.349 . S
C978 C990 1.349 . S
C979 C977 1.327 . S
C979 C995 1.429 . S
C979 H1001 0.950 . S
C980 H976 0.949 . S
C980 C988 1.574 . S
C980 C996 1.368 . S
H981 C989 0.950 . S
H982 C987 0.950 . S
H983 C988 0.949 . S
H984 C990 0.950 . S
H985 C991 0.950 . S
H986 C992 0.949 . S
C987 H982 0.950 . S
C987 C989 1.327 . S
C987 C993 1.429 . S
C988 C980 1.574 . S
C988 H983 0.949 . S
C988 C994 1.368 . S
C989 C973 1.349 . S
C989 H981 0.950 . S
C989 C987 1.327 . S
C990 C978 1.349 . S
C990 H984 0.950 . S
C990 C991 1.327 . S
C991 H985 0.950 . S
C991 C990 1.327 . S
C991 C995 1.429 . S
C992 C975 1.574 . S
C992 H986 0.949 . S
C992 C996 1.368 . S
C993 C974 1.429 . S
C993 C987 1.429 . S
C993 C994 1.523 . S
C994 C975 1.368 . S
C994 C988 1.368 . S
C994 C993 1.523 . S
C995 C979 1.429 . S
C995 C991 1.429 . S
C995 C996 1.523 . S
C996 C980 1.368 . S
C996 C992 1.368 . S
C996 C995 1.523 . S
H997 C972 0.998 . S
H998 C974 0.950 . S
H999 C975 0.949 . S
H1000 C977 0.950 . S
H1001 C979 0.950 . S
C1002 C1003 1.349 . S
C1002 C1004 1.327 . S
C1002 H1027 0.950 . S
C1003 C1002 1.349 . S
C1003 C1019 1.349 . S
C1004 C1002 1.327 . S
C1004 C1023 1.429 . S
C1004 H1028 0.950 . S
C1005 C1022 1.574 . S
C1005 C1024 1.368 . S
C1005 H1029 0.949 . S
H1006 C1010 0.949 . S
C1007 C1008 1.349 . S
C1007 C1009 1.327 . S
C1007 H1030 0.950 . S
C1008 C1007 1.349 . S
C1008 C1020 1.349 . S
C1009 C1007 1.327 . S
C1009 C1025 1.429 . S
C1009 H1031 0.950 . S
C1010 H1006 0.949 . S
C1010 C1018 1.574 . S
C1010 C1026 1.368 . S
H1011 C1019 0.950 . S
H1012 C1017 0.950 . S
H1013 C1018 0.949 . S
H1014 C1020 0.950 . S
H1015 C1021 0.950 . S
H1016 C1022 0.949 . S
C1017 H1012 0.950 . S
C1017 C1019 1.327 . S
C1017 C1023 1.429 . S
C1018 C1010 1.574 . S
C1018 H1013 0.949 . S
C1018 C1024 1.368 . S
C1019 C1003 1.349 . S
C1019 H1011 0.950 . S
C1019 C1017 1.327 . S
C1020 C1008 1.349 . S
C1020 H1014 0.950 . S
C1020 C1021 1.327 . S
C1021 H1015 0.950 . S
C1021 C1020 1.327 . S
C1021 C1025 1.429 . S
C1022 C1005 1.574 . S
C1022 H1016 0.949 . S
C1022 C1026 1.368 . S
C1023 C1004 1.429 . S
C1023 C1017 1.429 . S
C1023 C1024 1.523 . S
C1024 C1005 1.368 . S
C1024 C1018 1.368 . S
C1024 C1023 1.523 . S
C1025 C1009 1.429 . S
C1025 C1021 1.429 . S
C1025 C1026 1.523 . S
C1026 C1010 1.368 . S
C1026 C1022 1.368 . S
C1026 C1025 1.523 . S
H1027 C1002 0.950 . S
H1028 C1004 0.950 . S
H1029 C1005 0.949 . S
H1030 C1007 0.950 . S
H1031 C1009 0.950 . S
C1032 C1033 1.349 . S
C1032 C1034 1.327 . S
C1032 H1057 0.950 . S
C1033 C1032 1.349 . S
C1033 C1049 1.349 . S
C1034 C1032 1.327 . S
C1034 C1053 1.429 . S
C1034 H1058 0.950 . S
C1035 C1052 1.574 . S
C1035 C1054 1.368 . S
C1035 H1059 0.949 . S
H1036 C1040 0.949 . S
C1037 C1038 1.349 . S
C1037 C1039 1.327 . S
C1037 H1060 0.903 1_554 S
C1038 C1037 1.349 . S
C1038 C1050 1.349 . S
C1039 C1037 1.327 . S
C1039 C1055 1.429 . S
C1039 H1061 0.950 . S
C1040 H1036 0.949 . S
C1040 C1048 1.574 . S
C1040 C1056 1.368 . S
H1041 C1049 0.950 . S
H1042 C1047 0.950 . S
H1043 C1048 0.949 . S
H1044 C1050 0.950 . S
H1045 C1051 0.950 . S
H1046 C1052 0.949 . S
C1047 H1042 0.950 . S
C1047 C1049 1.327 . S
C1047 C1053 1.429 . S
C1048 C1040 1.574 . S
C1048 H1043 0.949 . S
C1048 C1054 1.368 . S
C1049 C1033 1.349 . S
C1049 H1041 0.950 . S
C1049 C1047 1.327 . S
C1050 C1038 1.349 . S
C1050 H1044 0.950 . S
C1050 C1051 1.327 . S
C1051 H1045 0.950 . S
C1051 C1050 1.327 . S
C1051 C1055 1.429 . S
C1052 C1035 1.574 . S
C1052 H1046 0.949 . S
C1052 C1056 1.368 . S
C1053 C1034 1.429 . S
C1053 C1047 1.429 . S
C1053 C1054 1.523 . S
C1054 C1035 1.368 . S
C1054 C1048 1.368 . S
C1054 C1053 1.523 . S
C1055 C1039 1.429 . S
C1055 C1051 1.429 . S
C1055 C1056 1.523 . S
C1056 C1040 1.368 . S
C1056 C1052 1.368 . S
C1056 C1055 1.523 . S
H1057 C1032 0.950 . S
H1058 C1034 0.950 . S
H1059 C1035 0.949 . S
H1060 C1037 0.903 1_556 S
H1061 C1039 0.950 . S
C1062 C1063 1.349 . S
C1062 C1064 1.327 . S
C1062 H1087 0.950 . S
C1063 C1062 1.349 . S
C1063 C1079 1.349 . S
C1064 C1062 1.327 . S
C1064 C1083 1.429 . S
C1064 H1088 0.950 . S
C1065 C1082 1.574 . S
C1065 C1084 1.368 . S
C1065 H1089 0.949 . S
H1066 C1070 0.949 . S
C1067 C1068 1.349 . S
C1067 C1069 1.327 . S
C1067 H1090 0.950 . S
C1068 C1067 1.349 . S
C1068 C1080 1.349 . S
C1069 C1067 1.327 . S
C1069 C1085 1.429 . S
C1069 H1091 0.950 . S
C1070 H1066 0.949 . S
C1070 C1078 1.574 . S
C1070 C1086 1.368 . S
H1071 C1079 0.950 . S
H1072 C1077 0.950 . S
H1073 C1078 0.949 . S
H1074 C1080 0.950 . S
H1075 C1081 0.950 . S
H1076 C1082 0.949 . S
C1077 H1072 0.950 . S
C1077 C1079 1.327 . S
C1077 C1083 1.429 . S
C1078 C1070 1.574 . S
C1078 H1073 0.949 . S
C1078 C1084 1.368 . S
C1079 C1063 1.349 . S
C1079 H1071 0.950 . S
C1079 C1077 1.327 . S
C1080 C1068 1.349 . S
C1080 H1074 0.950 . S
C1080 C1081 1.327 . S
C1081 H1075 0.950 . S
C1081 C1080 1.327 . S
C1081 C1085 1.429 . S
C1082 C1065 1.574 . S
C1082 H1076 0.949 . S
C1082 C1086 1.368 . S
C1083 C1064 1.429 . S
C1083 C1077 1.429 . S
C1083 C1084 1.523 . S
C1084 C1065 1.368 . S
C1084 C1078 1.368 . S
C1084 C1083 1.523 . S
C1085 C1069 1.429 . S
C1085 C1081 1.429 . S
C1085 C1086 1.523 . S
C1086 C1070 1.368 . S
C1086 C1082 1.368 . S
C1086 C1085 1.523 . S
H1087 C1062 0.950 . S
H1088 C1064 0.950 . S
H1089 C1065 0.949 . S
H1090 C1067 0.950 . S
H1091 C1069 0.950 . S
C1092 C1093 1.349 1_655 S
C1092 C1094 1.327 . S
C1092 H1117 0.950 . S
C1093 C1092 1.349 1_455 S
C1093 C1109 1.349 . S
C1094 C1092 1.327 . S
C1094 C1113 1.429 1_655 S
C1094 H1118 0.950 . S
C1095 C1112 1.574 . S
C1095 C1114 1.368 . S
C1095 H1119 0.949 . S
H1096 C1100 0.949 . S
C1097 C1098 1.349 . S
C1097 C1099 1.327 . S
C1097 H1120 0.950 . S
C1098 C1097 1.349 . S
C1098 C1110 1.349 1_455 S
C1099 C1097 1.327 . S
C1099 C1115 1.429 . S
C1099 H1121 0.950 . S
C1100 H1096 0.949 . S
C1100 C1108 1.574 . S
C1100 C1116 1.368 1_655 S
H1101 C1109 0.950 . S
H1102 C1107 0.950 . S
H1103 C1108 0.949 . S
H1104 C1110 0.950 . S
H1105 C1111 0.950 . S
H1106 C1112 0.949 . S
C1107 H1102 0.950 . S
C1107 C1109 1.327 . S
C1107 C1113 1.429 . S
C1108 C1100 1.574 . S
C1108 H1103 0.949 . S
C1108 C1114 1.368 1_655 S
C1109 C1093 1.349 . S
C1109 H1101 0.950 . S
C1109 C1107 1.327 . S
C1110 C1098 1.349 1_655 S
C1110 H1104 0.950 . S
C1110 C1111 1.327 . S
C1111 H1105 0.950 . S
C1111 C1110 1.327 . S
C1111 C1115 1.429 1_655 S
C1112 C1095 1.574 . S
C1112 H1106 0.949 . S
C1112 C1116 1.368 . S
C1113 C1094 1.429 1_455 S
C1113 C1107 1.429 . S
C1113 C1114 1.523 . S
C1114 C1095 1.368 . S
C1114 C1108 1.368 1_455 S
C1114 C1113 1.523 . S
C1115 C1099 1.429 . S
C1115 C1111 1.429 1_455 S
C1115 C1116 1.523 . S
C1116 C1100 1.368 1_455 S
C1116 C1112 1.368 . S
C1116 C1115 1.523 . S
H1117 C1092 0.950 . S
H1118 C1094 0.950 . S
H1119 C1095 0.949 . S
H1120 C1097 0.950 . S
H1121 C1099 0.950 . S
C1122 C1123 1.349 . S
C1122 C1124 1.327 . S
C1122 H1147 0.950 . S
C1123 C1122 1.349 . S
C1123 C1139 1.349 . S
C1124 C1122 1.327 . S
C1124 C1143 1.429 . S
C1124 H1148 0.950 . S
C1125 C1142 1.574 . S
C1125 C1144 1.368 . S
C1125 H1149 0.949 . S
H1126 C1130 0.949 . S
C1127 C1128 1.349 . S
C1127 C1129 1.327 . S
C1127 H1150 0.950 . S
C1128 C1127 1.349 . S
C1128 C1140 1.349 . S
C1129 C1127 1.327 . S
C1129 C1145 1.429 . S
C1129 H1151 0.950 . S
C1130 H1126 0.949 . S
C1130 C1138 1.574 . S
C1130 C1146 1.368 . S
H1131 C1139 0.950 . S
H1132 C1137 0.950 . S
H1133 C1138 0.949 . S
H1134 C1140 0.950 . S
H1135 C1141 0.950 . S
H1136 C1142 0.949 . S
C1137 H1132 0.950 . S
C1137 C1139 1.327 . S
C1137 C1143 1.429 . S
C1138 C1130 1.574 . S
C1138 H1133 0.949 . S
C1138 C1144 1.368 . S
C1139 C1123 1.349 . S
C1139 H1131 0.950 . S
C1139 C1137 1.327 . S
C1140 C1128 1.349 . S
C1140 H1134 0.950 . S
C1140 C1141 1.327 . S
C1141 H1135 0.950 . S
C1141 C1140 1.327 . S
C1141 C1145 1.429 . S
C1142 C1125 1.574 . S
C1142 H1136 0.949 . S
C1142 C1146 1.368 . S
C1143 C1124 1.429 . S
C1143 C1137 1.429 . S
C1143 C1144 1.523 . S
C1144 C1125 1.368 . S
C1144 C1138 1.368 . S
C1144 C1143 1.523 . S
C1145 C1129 1.429 . S
C1145 C1141 1.429 . S
C1145 C1146 1.523 . S
C1146 C1130 1.368 . S
C1146 C1142 1.368 . S
C1146 C1145 1.523 . S
H1147 C1122 0.950 . S
H1148 C1124 0.950 . S
H1149 C1125 0.949 . S
H1150 C1127 0.950 . S
H1151 C1129 0.950 . S
C1152 C1153 1.349 . S
C1152 C1154 1.327 . S
C1152 H1177 0.950 . S
C1153 C1152 1.349 . S
C1153 C1169 1.349 . S
C1154 C1152 1.327 . S
C1154 C1173 1.429 . S
C1154 H1178 0.950 . S
C1155 C1172 1.574 . S
C1155 C1174 1.368 . S
C1155 H1179 0.949 . S
H1156 C1160 0.949 . S
C1157 C1158 1.349 . S
C1157 C1159 1.327 . S
C1157 H1180 0.950 . S
C1158 C1157 1.349 . S
C1158 C1170 1.349 . S
C1159 C1157 1.327 . S
C1159 C1175 1.429 . S
C1159 H1181 0.950 . S
C1160 H1156 0.949 . S
C1160 C1168 1.574 . S
C1160 C1176 1.368 . S
H1161 C1169 0.950 . S
H1162 C1167 0.950 . S
H1163 C1168 0.949 . S
H1164 C1170 0.950 . S
H1165 C1171 0.950 . S
H1166 C1172 0.949 . S
C1167 H1162 0.950 . S
C1167 C1169 1.327 . S
C1167 C1173 1.429 . S
C1168 C1160 1.574 . S
C1168 H1163 0.949 . S
C1168 C1174 1.368 . S
C1169 C1153 1.349 . S
C1169 H1161 0.950 . S
C1169 C1167 1.327 . S
C1170 C1158 1.349 . S
C1170 H1164 0.950 . S
C1170 C1171 1.327 . S
C1171 H1165 0.950 . S
C1171 C1170 1.327 . S
C1171 C1175 1.429 . S
C1172 C1155 1.574 . S
C1172 H1166 0.949 . S
C1172 C1176 1.368 . S
C1173 C1154 1.429 . S
C1173 C1167 1.429 . S
C1173 C1174 1.523 . S
C1174 C1155 1.368 . S
C1174 C1168 1.368 . S
C1174 C1173 1.523 . S
C1175 C1159 1.429 . S
C1175 C1171 1.429 . S
C1175 C1176 1.523 . S
C1176 C1160 1.368 . S
C1176 C1172 1.368 . S
C1176 C1175 1.523 . S
H1177 C1152 0.950 . S
H1178 C1154 0.950 . S
H1179 C1155 0.949 . S
H1180 C1157 0.950 . S
H1181 C1159 0.950 . S
C1182 C1183 1.349 . S
C1182 C1184 1.327 . S
C1182 H1207 0.950 . S
C1183 C1182 1.349 . S
C1183 C1199 1.349 . S
C1184 C1182 1.327 . S
C1184 C1203 1.429 . S
C1184 H1208 0.950 . S
C1185 C1202 1.574 . S
C1185 C1204 1.368 . S
C1185 H1209 0.949 . S
H1186 C1190 0.949 . S
C1187 C1188 1.349 . S
C1187 C1189 1.327 . S
C1187 H1210 0.950 . S
C1188 C1187 1.349 . S
C1188 C1200 1.349 . S
C1189 C1187 1.327 . S
C1189 C1205 1.429 . S
C1189 H1211 0.950 . S
C1190 H1186 0.949 . S
C1190 C1198 1.574 . S
C1190 C1206 1.368 . S
H1191 C1199 0.950 . S
H1192 C1197 0.950 . S
H1193 C1198 0.949 . S
H1194 C1200 0.950 . S
H1195 C1201 0.950 . S
H1196 C1202 0.949 . S
C1197 H1192 0.950 . S
C1197 C1199 1.327 . S
C1197 C1203 1.429 . S
C1198 C1190 1.574 . S
C1198 H1193 0.949 . S
C1198 C1204 1.368 . S
C1199 C1183 1.349 . S
C1199 H1191 0.950 . S
C1199 C1197 1.327 . S
C1200 C1188 1.349 . S
C1200 H1194 0.950 . S
C1200 C1201 1.327 . S
C1201 H1195 0.950 . S
C1201 C1200 1.327 . S
C1201 C1205 1.429 . S
C1202 C1185 1.574 . S
C1202 H1196 0.949 . S
C1202 C1206 1.368 . S
C1203 C1184 1.429 . S
C1203 C1197 1.429 . S
C1203 C1204 1.523 . S
C1204 C1185 1.368 . S
C1204 C1198 1.368 . S
C1204 C1203 1.523 . S
C1205 C1189 1.429 . S
C1205 C1201 1.429 . S
C1205 C1206 1.523 . S
C1206 C1190 1.368 . S
C1206 C1202 1.368 . S
C1206 C1205 1.523 . S
H1207 C1182 0.950 . S
H1208 C1184 0.950 . S
H1209 C1185 0.949 . S
H1210 C1187 0.950 . S
H1211 C1189 0.950 . S
C1212 C1213 1.349 . S
C1212 C1214 1.327 . S
C1212 H1237 0.950 . S
C1213 C1212 1.349 . S
C1213 C1229 1.349 . S
C1214 C1212 1.327 . S
C1214 C1233 1.429 . S
C1214 H1238 0.950 . S
C1215 C1232 1.574 . S
C1215 C1234 1.368 . S
C1215 H1239 0.949 . S
H1216 C1220 0.949 . S
C1217 C1218 1.349 . S
C1217 C1219 1.327 . S
C1217 H1240 0.950 . S
C1218 C1217 1.349 . S
C1218 C1230 1.349 . S
C1219 C1217 1.327 . S
C1219 C1235 1.429 . S
C1219 H1241 0.950 . S
C1220 H1216 0.949 . S
C1220 C1228 1.574 . S
C1220 C1236 1.368 . S
H1221 C1229 0.950 . S
H1222 C1227 0.950 . S
H1223 C1228 0.949 . S
H1224 C1230 0.950 . S
H1225 C1231 0.950 . S
H1226 C1232 0.949 . S
C1227 H1222 0.950 . S
C1227 C1229 1.327 . S
C1227 C1233 1.429 . S
C1228 C1220 1.574 . S
C1228 H1223 0.949 . S
C1228 C1234 1.368 . S
C1229 C1213 1.349 . S
C1229 H1221 0.950 . S
C1229 C1227 1.327 . S
C1230 C1218 1.349 . S
C1230 H1224 0.950 . S
C1230 C1231 1.327 . S
C1231 H1225 0.950 . S
C1231 C1230 1.327 . S
C1231 C1235 1.429 . S
C1232 C1215 1.574 . S
C1232 H1226 0.949 . S
C1232 C1236 1.368 . S
C1233 C1214 1.429 . S
C1233 C1227 1.429 . S
C1233 C1234 1.523 . S
C1234 C1215 1.368 . S
C1234 C1228 1.368 . S
C1234 C1233 1.523 . S
C1235 C1219 1.429 . S
C1235 C1231 1.429 . S
C1235 C1236 1.523 . S
C1236 C1220 1.368 . S
C1236 C1232 1.368 . S
C1236 C1235 1.523 . S
H1237 C1212 0.950 . S
H1238 C1214 0.950 . S
H1239 C1215 0.949 . S
H1240 C1217 0.950 . S
H1241 C1219 0.950 . S
C1242 C1243 1.349 . S
C1242 C1244 1.327 . S
C1242 H1267 0.950 . S
C1243 C1242 1.349 . S
C1243 C1259 1.349 . S
C1244 C1242 1.327 . S
C1244 C1263 1.429 . S
C1244 H1268 0.950 . S
C1245 C1262 1.574 . S
C1245 C1264 1.368 . S
C1245 H1269 0.949 . S
H1246 C1250 0.949 . S
C1247 C1248 1.349 . S
C1247 C1249 1.327 . S
C1247 H1270 0.950 . S
C1248 C1247 1.349 . S
C1248 C1260 1.349 . S
C1249 C1247 1.327 . S
C1249 C1265 1.429 . S
C1249 H1271 0.950 . S
C1250 H1246 0.949 . S
C1250 C1258 1.574 . S
C1250 C1266 1.368 . S
H1251 C1259 0.950 . S
H1252 C1257 0.950 . S
H1253 C1258 0.949 . S
H1254 C1260 0.950 . S
H1255 C1261 0.950 . S
H1256 C1262 0.949 . S
C1257 H1252 0.950 . S
C1257 C1259 1.327 . S
C1257 C1263 1.429 . S
C1258 C1250 1.574 . S
C1258 H1253 0.949 . S
C1258 C1264 1.368 . S
C1259 C1243 1.349 . S
C1259 H1251 0.950 . S
C1259 C1257 1.327 . S
C1260 C1248 1.349 . S
C1260 H1254 0.950 . S
C1260 C1261 1.327 . S
C1261 H1255 0.950 . S
C1261 C1260 1.327 . S
C1261 C1265 1.429 . S
C1262 C1245 1.574 . S
C1262 H1256 0.949 . S
C1262 C1266 1.368 . S
C1263 C1244 1.429 . S
C1263 C1257 1.429 . S
C1263 C1264 1.523 . S
C1264 C1245 1.368 . S
C1264 C1258 1.368 . S
C1264 C1263 1.523 . S
C1265 C1249 1.429 . S
C1265 C1261 1.429 . S
C1265 C1266 1.523 . S
C1266 C1250 1.368 . S
C1266 C1262 1.368 . S
C1266 C1265 1.523 . S
H1267 C1242 0.950 . S
H1268 C1244 0.950 . S
H1269 C1245 0.949 . S
H1270 C1247 0.950 . S
H1271 C1249 0.950 . S
C1272 C1273 1.349 . S
C1272 C1274 1.327 . S
C1272 H1297 0.950 . S
C1273 C1272 1.349 . S
C1273 C1289 1.349 . S
C1274 C1272 1.327 . S
C1274 C1293 1.429 . S
C1274 H1298 0.950 . S
C1275 C1292 1.574 . S
C1275 C1294 1.368 . S
C1275 H1299 0.949 . S
H1276 C1280 0.949 . S
C1277 C1278 1.349 . S
C1277 C1279 1.327 . S
C1277 H1300 0.950 . S
C1278 C1277 1.349 . S
C1278 C1290 1.349 . S
C1279 C1277 1.327 . S
C1279 C1295 1.429 . S
C1279 H1301 0.950 . S
C1280 H1276 0.949 . S
C1280 C1288 1.574 . S
C1280 C1296 1.368 . S
H1281 C1289 0.950 . S
H1282 C1287 0.950 . S
H1283 C1288 0.949 . S
H1284 C1290 0.950 . S
H1285 C1291 0.950 . S
H1286 C1292 0.949 . S
C1287 H1282 0.950 . S
C1287 C1289 1.327 . S
C1287 C1293 1.429 . S
C1288 C1280 1.574 . S
C1288 H1283 0.949 . S
C1288 C1294 1.368 . S
C1289 C1273 1.349 . S
C1289 H1281 0.950 . S
C1289 C1287 1.327 . S
C1290 C1278 1.349 . S
C1290 H1284 0.950 . S
C1290 C1291 1.327 . S
C1291 H1285 0.950 . S
C1291 C1290 1.327 . S
C1291 C1295 1.429 . S
C1292 C1275 1.574 . S
C1292 H1286 0.949 . S
C1292 C1296 1.368 . S
C1293 C1274 1.429 . S
C1293 C1287 1.429 . S
C1293 C1294 1.523 . S
C1294 C1275 1.368 . S
C1294 C1288 1.368 . S
C1294 C1293 1.523 . S
C1295 C1279 1.429 . S
C1295 C1291 1.429 . S
C1295 C1296 1.523 . S
C1296 C1280 1.368 . S
C1296 C1292 1.368 . S
C1296 C1295 1.523 . S
H1297 C1272 0.950 . S
H1298 C1274 0.950 . S
H1299 C1275 0.949 . S
H1300 C1277 0.950 . S
H1301 C1279 0.950 . S
C1302 C1303 1.349 . S
C1302 C1304 1.327 . S
C1302 H1327 0.950 . S
C1303 C1302 1.349 . S
C1303 C1319 1.349 . S
C1304 C1302 1.327 . S
C1304 C1323 1.429 . S
C1304 H1328 0.950 . S
C1305 C1322 1.574 . S
C1305 C1324 1.368 . S
C1305 H1329 0.949 . S
H1306 C1310 0.949 . S
C1307 C1308 1.349 . S
C1307 C1309 1.327 . S
C1307 H1330 0.950 . S
C1308 C1307 1.349 . S
C1308 C1320 1.349 . S
C1309 C1307 1.327 . S
C1309 C1325 1.429 . S
C1309 H1331 0.950 . S
C1310 H1306 0.949 . S
C1310 C1318 1.574 . S
C1310 C1326 1.368 . S
H1311 C1319 0.950 . S
H1312 C1317 0.950 . S
H1313 C1318 0.949 . S
H1314 C1320 0.950 . S
H1315 C1321 0.950 . S
H1316 C1322 0.949 . S
C1317 H1312 0.950 . S
C1317 C1319 1.327 . S
C1317 C1323 1.429 . S
C1318 C1310 1.574 . S
C1318 H1313 0.949 . S
C1318 C1324 1.368 . S
C1319 C1303 1.349 . S
C1319 H1311 0.950 . S
C1319 C1317 1.327 . S
C1320 C1308 1.349 . S
C1320 H1314 0.950 . S
C1320 C1321 1.327 . S
C1321 H1315 0.950 . S
C1321 C1320 1.327 . S
C1321 C1325 1.429 . S
C1322 C1305 1.574 . S
C1322 H1316 0.949 . S
C1322 C1326 1.368 . S
C1323 C1304 1.429 . S
C1323 C1317 1.429 . S
C1323 C1324 1.523 . S
C1324 C1305 1.368 . S
C1324 C1318 1.368 . S
C1324 C1323 1.523 . S
C1325 C1309 1.429 . S
C1325 C1321 1.429 . S
C1325 C1326 1.523 . S
C1326 C1310 1.368 . S
C1326 C1322 1.368 . S
C1326 C1325 1.523 . S
H1327 C1302 0.950 . S
H1328 C1304 0.950 . S
H1329 C1305 0.949 . S
H1330 C1307 0.950 . S
H1331 C1309 0.950 . S
C1332 C1333 1.349 . S
C1332 C1334 1.327 . S
C1332 H1357 0.950 . S
C1333 C1332 1.349 . S
C1333 C1349 1.349 . S
C1334 C1332 1.327 . S
C1334 C1353 1.429 . S
C1334 H1358 0.950 . S
C1335 C1352 1.574 . S
C1335 C1354 1.368 . S
C1335 H1359 0.949 . S
H1336 C1340 0.949 . S
C1337 C1338 1.349 . S
C1337 C1339 1.327 . S
C1337 H1360 0.950 . S
C1338 C1337 1.349 . S
C1338 C1350 1.349 . S
C1339 C1337 1.327 . S
C1339 C1355 1.429 . S
C1339 H1361 0.950 . S
C1340 H1336 0.949 . S
C1340 C1348 1.574 . S
C1340 C1356 1.368 . S
H1341 C1349 0.950 . S
H1342 C1347 0.950 . S
H1343 C1348 0.949 . S
H1344 C1350 0.950 . S
H1345 C1351 0.950 . S
H1346 C1352 0.949 . S
C1347 H1342 0.950 . S
C1347 C1349 1.327 . S
C1347 C1353 1.429 . S
C1348 C1340 1.574 . S
C1348 H1343 0.949 . S
C1348 C1354 1.368 . S
C1349 C1333 1.349 . S
C1349 H1341 0.950 . S
C1349 C1347 1.327 . S
C1350 C1338 1.349 . S
C1350 H1344 0.950 . S
C1350 C1351 1.327 . S
C1351 H1345 0.950 . S
C1351 C1350 1.327 . S
C1351 C1355 1.429 . S
C1352 C1335 1.574 . S
C1352 H1346 0.949 . S
C1352 C1356 1.368 . S
C1353 C1334 1.429 . S
C1353 C1347 1.429 . S
C1353 C1354 1.523 . S
C1354 C1335 1.368 . S
C1354 C1348 1.368 . S
C1354 C1353 1.523 . S
C1355 C1339 1.429 . S
C1355 C1351 1.429 . S
C1355 C1356 1.523 . S
C1356 C1340 1.368 . S
C1356 C1352 1.368 . S
C1356 C1355 1.523 . S
H1357 C1332 0.950 . S
H1358 C1334 0.950 . S
H1359 C1335 0.949 . S
H1360 C1337 0.950 . S
H1361 C1339 0.950 . S
C1362 C1363 1.349 . S
C1362 C1364 1.327 . S
C1362 H1387 0.950 . S
C1363 C1362 1.349 . S
C1363 C1379 1.349 . S
C1364 C1362 1.327 . S
C1364 C1383 1.429 . S
C1364 H1388 0.950 . S
C1365 C1382 1.574 . S
C1365 C1384 1.368 . S
C1365 H1389 0.949 . S
H1366 C1370 0.949 . S
C1367 C1368 1.349 . S
C1367 C1369 1.327 . S
C1367 H1390 0.950 . S
C1368 C1367 1.349 . S
C1368 C1380 1.349 . S
C1369 C1367 1.327 . S
C1369 C1385 1.429 . S
C1369 H1391 0.950 . S
C1370 H1366 0.949 . S
C1370 C1378 1.574 . S
C1370 C1386 1.368 . S
H1371 C1379 0.950 . S
H1372 C1377 0.950 . S
H1373 C1378 0.949 . S
H1374 C1380 0.950 . S
H1375 C1381 0.950 . S
H1376 C1382 0.949 . S
C1377 H1372 0.950 . S
C1377 C1379 1.327 . S
C1377 C1383 1.429 . S
C1378 C1370 1.574 . S
C1378 H1373 0.949 . S
C1378 C1384 1.368 . S
C1379 C1363 1.349 . S
C1379 H1371 0.950 . S
C1379 C1377 1.327 . S
C1380 C1368 1.349 . S
C1380 H1374 0.950 . S
C1380 C1381 1.327 . S
C1381 H1375 0.950 . S
C1381 C1380 1.327 . S
C1381 C1385 1.429 . S
C1382 C1365 1.574 . S
C1382 H1376 0.949 . S
C1382 C1386 1.368 . S
C1383 C1364 1.429 . S
C1383 C1377 1.429 . S
C1383 C1384 1.523 . S
C1384 C1365 1.368 . S
C1384 C1378 1.368 . S
C1384 C1383 1.523 . S
C1385 C1369 1.429 . S
C1385 C1381 1.429 . S
C1385 C1386 1.523 . S
C1386 C1370 1.368 . S
C1386 C1382 1.368 . S
C1386 C1385 1.523 . S
H1387 C1362 0.950 . S
H1388 C1364 0.950 . S
H1389 C1365 0.949 . S
H1390 C1367 0.950 . S
H1391 C1369 0.950 . S
C1392 C1393 1.349 . S
C1392 C1394 1.327 . S
C1392 H1417 0.950 . S
C1393 C1392 1.349 . S
C1393 C1409 1.349 . S
C1394 C1392 1.327 . S
C1394 C1413 1.429 . S
C1394 H1418 0.950 . S
C1395 C1412 1.574 . S
C1395 C1414 1.368 . S
C1395 H1419 0.949 . S
H1396 C1400 0.948 . S
C1397 C1398 1.349 1_655 S
C1397 C1399 1.327 . S
C1397 H1420 0.950 . S
C1398 C1397 1.349 1_455 S
C1398 C1410 1.349 . S
C1399 C1397 1.327 . S
C1399 C1415 1.429 . S
C1399 H1421 0.950 . S
C1400 H1396 0.948 . S
C1400 C1408 1.574 . S
C1400 C1416 1.368 . S
H1401 C1409 0.950 . S
H1402 C1407 0.950 . S
H1403 C1408 0.949 . S
H1404 C1410 0.950 . S
H1405 C1411 0.950 . S
H1406 C1412 0.949 . S
C1407 H1402 0.950 . S
C1407 C1409 1.327 . S
C1407 C1413 1.429 . S
C1408 C1400 1.574 . S
C1408 H1403 0.949 . S
C1408 C1414 1.368 . S
C1409 C1393 1.349 . S
C1409 H1401 0.950 . S
C1409 C1407 1.327 . S
C1410 C1398 1.349 . S
C1410 H1404 0.950 . S
C1410 C1411 1.327 . S
C1411 H1405 0.950 . S
C1411 C1410 1.327 . S
C1411 C1415 1.429 1_455 S
C1412 C1395 1.574 . S
C1412 H1406 0.949 . S
C1412 C1416 1.368 . S
C1413 C1394 1.429 . S
C1413 C1407 1.429 . S
C1413 C1414 1.523 . S
C1414 C1395 1.368 . S
C1414 C1408 1.368 . S
C1414 C1413 1.523 . S
C1415 C1399 1.429 . S
C1415 C1411 1.429 1_655 S
C1415 C1416 1.523 . S
C1416 C1400 1.368 . S
C1416 C1412 1.368 . S
C1416 C1415 1.523 . S
H1417 C1392 0.950 . S
H1418 C1394 0.950 . S
H1419 C1395 0.949 . S
H1420 C1397 0.950 . S
H1421 C1399 0.950 . S
C1422 C1423 1.349 . S
C1422 C1424 1.327 . S
C1422 H1447 0.950 . S
C1423 C1422 1.349 . S
C1423 C1439 1.349 . S
C1424 C1422 1.327 . S
C1424 C1443 1.429 . S
C1424 H1448 0.950 . S
C1425 C1442 1.574 . S
C1425 C1444 1.368 . S
C1425 H1449 0.949 . S
H1426 C1430 0.949 1_455 S
C1427 C1428 1.349 1_655 S
C1427 C1429 1.327 . S
C1427 H1450 0.950 . S
C1428 C1427 1.349 1_455 S
C1428 C1440 1.349 . S
C1429 C1427 1.327 . S
C1429 C1445 1.429 . S
C1429 H1451 0.950 . S
C1430 H1426 0.949 1_655 S
C1430 C1438 1.574 . S
C1430 C1446 1.368 . S
H1431 C1439 0.950 . S
H1432 C1437 0.950 . S
H1433 C1438 0.949 . S
H1434 C1440 0.950 . S
H1435 C1441 0.950 . S
H1436 C1442 0.949 . S
C1437 H1432 0.950 . S
C1437 C1439 1.327 . S
C1437 C1443 1.429 . S
C1438 C1430 1.574 . S
C1438 H1433 0.949 . S
C1438 C1444 1.368 . S
C1439 C1423 1.349 . S
C1439 H1431 0.950 . S
C1439 C1437 1.327 . S
C1440 C1428 1.349 . S
C1440 H1434 0.950 . S
C1440 C1441 1.327 . S
C1441 H1435 0.950 . S
C1441 C1440 1.327 . S
C1441 C1445 1.429 1_455 S
C1442 C1425 1.574 . S
C1442 H1436 0.949 . S
C1442 C1446 1.368 . S
C1443 C1424 1.429 . S
C1443 C1437 1.429 . S
C1443 C1444 1.523 . S
C1444 C1425 1.368 . S
C1444 C1438 1.368 . S
C1444 C1443 1.523 . S
C1445 C1429 1.429 . S
C1445 C1441 1.429 1_655 S
C1445 C1446 1.523 . S
C1446 C1430 1.368 . S
C1446 C1442 1.368 . S
C1446 C1445 1.523 . S
H1447 C1422 0.950 . S
H1448 C1424 0.950 . S
H1449 C1425 0.949 . S
H1450 C1427 0.950 . S
H1451 C1429 0.950 . S
C1452 C1453 1.349 . S
C1452 C1454 1.327 . S
C1452 H1477 0.950 . S
C1453 C1452 1.349 . S
C1453 C1469 1.349 . S
C1454 C1452 1.327 . S
C1454 C1473 1.429 . S
C1454 H1478 0.950 . S
C1455 C1472 1.574 . S
C1455 C1474 1.368 . S
C1455 H1479 0.949 . S
H1456 C1460 0.949 . S
C1457 C1458 1.349 . S
C1457 C1459 1.327 . S
C1457 H1480 0.950 . S
C1458 C1457 1.349 . S
C1458 C1470 1.349 . S
C1459 C1457 1.327 . S
C1459 C1475 1.429 . S
C1459 H1481 0.950 . S
C1460 H1456 0.949 . S
C1460 C1468 1.574 . S
C1460 C1476 1.368 . S
H1461 C1469 0.950 . S
H1462 C1467 0.950 . S
H1463 C1468 0.949 . S
H1464 C1470 0.950 . S
H1465 C1471 0.950 . S
H1466 C1472 0.949 . S
C1467 H1462 0.950 . S
C1467 C1469 1.327 . S
C1467 C1473 1.429 . S
C1468 C1460 1.574 . S
C1468 H1463 0.949 . S
C1468 C1474 1.368 . S
C1469 C1453 1.349 . S
C1469 H1461 0.950 . S
C1469 C1467 1.327 . S
C1470 C1458 1.349 . S
C1470 H1464 0.950 . S
C1470 C1471 1.327 . S
C1471 H1465 0.950 . S
C1471 C1470 1.327 . S
C1471 C1475 1.429 . S
C1472 C1455 1.574 . S
C1472 H1466 0.949 . S
C1472 C1476 1.368 . S
C1473 C1454 1.429 . S
C1473 C1467 1.429 . S
C1473 C1474 1.523 . S
C1474 C1455 1.368 . S
C1474 C1468 1.368 . S
C1474 C1473 1.523 . S
C1475 C1459 1.429 . S
C1475 C1471 1.429 . S
C1475 C1476 1.523 . S
C1476 C1460 1.368 . S
C1476 C1472 1.368 . S
C1476 C1475 1.523 . S
H1477 C1452 0.950 . S
H1478 C1454 0.950 . S
H1479 C1455 0.949 . S
H1480 C1457 0.950 . S
H1481 C1459 0.950 . S
C1482 C1483 1.349 . S
C1482 C1484 1.327 . S
C1482 H1507 0.950 . S
C1483 C1482 1.349 . S
C1483 C1499 1.349 . S
C1484 C1482 1.327 . S
C1484 C1503 1.429 . S
C1484 H1508 0.950 . S
C1485 C1502 1.574 . S
C1485 C1504 1.368 . S
C1485 H1509 0.949 . S
H1486 C1490 0.949 . S
C1487 C1488 1.349 . S
C1487 C1489 1.327 . S
C1487 H1510 0.950 . S
C1488 C1487 1.349 . S
C1488 C1500 1.349 . S
C1489 C1487 1.327 . S
C1489 C1505 1.429 . S
C1489 H1511 0.950 . S
C1490 H1486 0.949 . S
C1490 C1498 1.574 . S
C1490 C1506 1.368 . S
H1491 C1499 0.950 . S
H1492 C1497 0.950 . S
H1493 C1498 0.949 . S
H1494 C1500 0.950 . S
H1495 C1501 0.950 . S
H1496 C1502 0.949 . S
C1497 H1492 0.950 . S
C1497 C1499 1.327 . S
C1497 C1503 1.429 . S
C1498 C1490 1.574 . S
C1498 H1493 0.949 . S
C1498 C1504 1.368 . S
C1499 C1483 1.349 . S
C1499 H1491 0.950 . S
C1499 C1497 1.327 . S
C1500 C1488 1.349 . S
C1500 H1494 0.950 . S
C1500 C1501 1.327 . S
C1501 H1495 0.950 . S
C1501 C1500 1.327 . S
C1501 C1505 1.429 . S
C1502 C1485 1.574 . S
C1502 H1496 0.949 . S
C1502 C1506 1.368 . S
C1503 C1484 1.429 . S
C1503 C1497 1.429 . S
C1503 C1504 1.523 . S
C1504 C1485 1.368 . S
C1504 C1498 1.368 . S
C1504 C1503 1.523 . S
C1505 C1489 1.429 . S
C1505 C1501 1.429 . S
C1505 C1506 1.523 . S
C1506 C1490 1.368 . S
C1506 C1502 1.368 . S
C1506 C1505 1.523 . S
H1507 C1482 0.950 . S
H1508 C1484 0.950 . S
H1509 C1485 0.949 . S
H1510 C1487 0.950 . S
H1511 C1489 0.950 . S
C1512 C1513 1.394 . S
C1512 C1514 1.327 . S
C1512 H1537 0.950 . S
C1513 C1512 1.394 . S
C1513 C1529 1.286 1_545 S
C1514 C1512 1.327 . S
C1514 C1533 1.429 1_545 S
C1514 H1538 0.950 . S
C1515 C1532 1.574 . S
C1515 C1534 1.368 . S
C1515 H1539 0.949 . S
H1516 C1520 0.949 . S
C1517 C1518 1.349 . S
C1517 C1519 1.327 . S
C1517 H1540 0.950 . S
C1518 C1517 1.349 . S
C1518 C1530 1.349 . S
C1519 C1517 1.327 . S
C1519 C1535 1.429 . S
C1519 H1541 0.950 . S
C1520 H1516 0.949 . S
C1520 C1528 1.574 . S
C1520 C1536 1.368 . S
H1521 C1529 0.950 . S
H1522 C1527 0.950 . S
H1523 C1528 0.949 1_545 S
H1524 C1530 0.950 . S
H1525 C1531 0.950 . S
H1526 C1532 0.949 . S
C1527 H1522 0.950 . S
C1527 C1529 1.327 . S
C1527 C1533 1.429 . S
C1528 C1520 1.574 . S
C1528 H1523 0.949 1_565 S
C1528 C1534 1.368 . S
C1529 C1513 1.286 1_565 S
C1529 H1521 0.950 . S
C1529 C1527 1.327 . S
C1530 C1518 1.349 . S
C1530 H1524 0.950 . S
C1530 C1531 1.327 . S
C1531 H1525 0.950 . S
C1531 C1530 1.327 . S
C1531 C1535 1.429 . S
C1532 C1515 1.574 . S
C1532 H1526 0.949 . S
C1532 C1536 1.368 . S
C1533 C1514 1.429 1_565 S
C1533 C1527 1.429 . S
C1533 C1534 1.523 . S
C1534 C1515 1.368 . S
C1534 C1528 1.368 . S
C1534 C1533 1.523 . S
C1535 C1519 1.429 . S
C1535 C1531 1.429 . S
C1535 C1536 1.523 . S
C1536 C1520 1.368 . S
C1536 C1532 1.368 . S
C1536 C1535 1.523 . S
H1537 C1512 0.950 . S
H1538 C1514 0.950 . S
H1539 C1515 0.949 . S
H1540 C1517 0.950 . S
H1541 C1519 0.950 . S
C1542 C1543 1.349 . S
C1542 C1544 1.327 . S
C1542 H1567 0.950 . S
C1543 C1542 1.349 . S
C1543 C1559 1.349 . S
C1544 C1542 1.327 . S
C1544 C1563 1.429 . S
C1544 H1568 0.950 . S
C1545 C1562 1.574 . S
C1545 C1564 1.368 . S
C1545 H1569 0.949 . S
H1546 C1550 0.949 . S
C1547 C1548 1.349 . S
C1547 C1549 1.327 . S
C1547 H1570 0.950 . S
C1548 C1547 1.349 . S
C1548 C1560 1.349 . S
C1549 C1547 1.327 . S
C1549 C1565 1.429 . S
C1549 H1571 0.950 . S
C1550 H1546 0.949 . S
C1550 C1558 1.574 . S
C1550 C1566 1.368 . S
H1551 C1559 0.950 . S
H1552 C1557 0.950 . S
H1553 C1558 0.949 . S
H1554 C1560 0.950 . S
H1555 C1561 0.950 . S
H1556 C1562 0.949 . S
C1557 H1552 0.950 . S
C1557 C1559 1.327 . S
C1557 C1563 1.429 . S
C1558 C1550 1.574 . S
C1558 H1553 0.949 . S
C1558 C1564 1.368 . S
C1559 C1543 1.349 . S
C1559 H1551 0.950 . S
C1559 C1557 1.327 . S
C1560 C1548 1.349 . S
C1560 H1554 0.950 . S
C1560 C1561 1.327 . S
C1561 H1555 0.950 . S
C1561 C1560 1.327 . S
C1561 C1565 1.429 . S
C1562 C1545 1.574 . S
C1562 H1556 0.949 . S
C1562 C1566 1.368 . S
C1563 C1544 1.429 . S
C1563 C1557 1.429 . S
C1563 C1564 1.523 . S
C1564 C1545 1.368 . S
C1564 C1558 1.368 . S
C1564 C1563 1.523 . S
C1565 C1549 1.429 . S
C1565 C1561 1.429 . S
C1565 C1566 1.523 . S
C1566 C1550 1.368 . S
C1566 C1562 1.368 . S
C1566 C1565 1.523 . S
H1567 C1542 0.950 . S
H1568 C1544 0.950 . S
H1569 C1545 0.949 . S
H1570 C1547 0.950 . S
H1571 C1549 0.950 . S
C1572 C1573 1.349 . S
C1572 C1574 1.327 . S
C1572 H1597 0.950 . S
C1573 C1572 1.349 . S
C1573 C1589 1.349 . S
C1574 C1572 1.327 . S
C1574 C1593 1.429 . S
C1574 H1598 0.950 . S
C1575 C1592 1.574 . S
C1575 C1594 1.368 . S
C1575 H1599 0.949 . S
H1576 C1580 0.949 . S
C1577 C1578 1.349 . S
C1577 C1579 1.327 . S
C1577 H1600 0.950 . S
C1578 C1577 1.349 . S
C1578 C1590 1.349 . S
C1579 C1577 1.327 . S
C1579 C1595 1.429 . S
C1579 H1601 0.950 . S
C1580 H1576 0.949 . S
C1580 C1588 1.574 . S
C1580 C1596 1.368 . S
H1581 C1589 0.950 . S
H1582 C1587 0.950 . S
H1583 C1588 0.949 . S
H1584 C1590 0.950 . S
H1585 C1591 0.950 . S
H1586 C1592 0.949 . S
C1587 H1582 0.950 . S
C1587 C1589 1.327 . S
C1587 C1593 1.429 . S
C1588 C1580 1.574 . S
C1588 H1583 0.949 . S
C1588 C1594 1.368 . S
C1589 C1573 1.349 . S
C1589 H1581 0.950 . S
C1589 C1587 1.327 . S
C1590 C1578 1.349 . S
C1590 H1584 0.950 . S
C1590 C1591 1.327 . S
C1591 H1585 0.950 . S
C1591 C1590 1.327 . S
C1591 C1595 1.429 . S
C1592 C1575 1.574 . S
C1592 H1586 0.949 . S
C1592 C1596 1.368 . S
C1593 C1574 1.429 . S
C1593 C1587 1.429 . S
C1593 C1594 1.523 . S
C1594 C1575 1.368 . S
C1594 C1588 1.368 . S
C1594 C1593 1.523 . S
C1595 C1579 1.429 . S
C1595 C1591 1.429 . S
C1595 C1596 1.523 . S
C1596 C1580 1.368 . S
C1596 C1592 1.368 . S
C1596 C1595 1.523 . S
H1597 C1572 0.950 . S
H1598 C1574 0.950 . S
H1599 C1575 0.949 . S
H1600 C1577 0.950 . S
H1601 C1579 0.950 . S
C1602 C1603 1.349 . S
C1602 C1604 1.327 . S
C1602 H1627 0.950 . S
C1603 C1602 1.349 . S
C1603 C1619 1.349 . S
C1604 C1602 1.327 . S
C1604 C1623 1.429 . S
C1604 H1628 0.950 . S
C1605 C1622 1.574 . S
C1605 C1624 1.368 . S
C1605 H1629 0.949 . S
H1606 C1610 0.949 . S
C1607 C1608 1.349 . S
C1607 C1609 1.327 . S
C1607 H1630 0.950 . S
C1608 C1607 1.349 . S
C1608 C1620 1.349 . S
C1609 C1607 1.327 . S
C1609 C1625 1.429 . S
C1609 H1631 0.950 . S
C1610 H1606 0.949 . S
C1610 C1618 1.574 . S
C1610 C1626 1.368 . S
H1611 C1619 0.950 . S
H1612 C1617 0.950 . S
H1613 C1618 0.949 . S
H1614 C1620 0.950 . S
H1615 C1621 0.950 . S
H1616 C1622 0.949 . S
C1617 H1612 0.950 . S
C1617 C1619 1.327 . S
C1617 C1623 1.429 . S
C1618 C1610 1.574 . S
C1618 H1613 0.949 . S
C1618 C1624 1.368 . S
C1619 C1603 1.349 . S
C1619 H1611 0.950 . S
C1619 C1617 1.327 . S
C1620 C1608 1.349 . S
C1620 H1614 0.950 . S
C1620 C1621 1.327 . S
C1621 H1615 0.950 . S
C1621 C1620 1.327 . S
C1621 C1625 1.429 . S
C1622 C1605 1.574 . S
C1622 H1616 0.949 . S
C1622 C1626 1.368 . S
C1623 C1604 1.429 . S
C1623 C1617 1.429 . S
C1623 C1624 1.523 . S
C1624 C1605 1.368 . S
C1624 C1618 1.368 . S
C1624 C1623 1.523 . S
C1625 C1609 1.429 . S
C1625 C1621 1.429 . S
C1625 C1626 1.523 . S
C1626 C1610 1.368 . S
C1626 C1622 1.368 . S
C1626 C1625 1.523 . S
H1627 C1602 0.950 . S
H1628 C1604 0.950 . S
H1629 C1605 0.949 . S
H1630 C1607 0.950 . S
H1631 C1609 0.950 . S
C1632 C1633 1.349 . S
C1632 C1634 1.327 . S
C1632 H1657 0.950 . S
C1633 C1632 1.349 . S
C1633 C1649 1.349 . S
C1634 C1632 1.327 . S
C1634 C1653 1.429 . S
C1634 H1658 0.950 . S
C1635 C1652 1.574 . S
C1635 C1654 1.368 . S
C1635 H1659 0.949 . S
H1636 C1640 0.949 . S
C1637 C1638 1.349 . S
C1637 C1639 1.327 . S
C1637 H1660 0.950 . S
C1638 C1637 1.349 . S
C1638 C1650 1.349 . S
C1639 C1637 1.327 . S
C1639 C1655 1.429 . S
C1639 H1661 0.950 . S
C1640 H1636 0.949 . S
C1640 C1648 1.574 . S
C1640 C1656 1.368 . S
H1641 C1649 0.950 . S
H1642 C1647 0.950 . S
H1643 C1648 0.949 . S
H1644 C1650 0.950 . S
H1645 C1651 0.950 . S
H1646 C1652 0.949 . S
C1647 H1642 0.950 . S
C1647 C1649 1.327 . S
C1647 C1653 1.429 . S
C1648 C1640 1.574 . S
C1648 H1643 0.949 . S
C1648 C1654 1.368 . S
C1649 C1633 1.349 . S
C1649 H1641 0.950 . S
C1649 C1647 1.327 . S
C1650 C1638 1.349 . S
C1650 H1644 0.950 . S
C1650 C1651 1.327 . S
C1651 H1645 0.950 . S
C1651 C1650 1.327 . S
C1651 C1655 1.429 . S
C1652 C1635 1.574 . S
C1652 H1646 0.949 . S
C1652 C1656 1.368 . S
C1653 C1634 1.429 . S
C1653 C1647 1.429 . S
C1653 C1654 1.523 . S
C1654 C1635 1.368 . S
C1654 C1648 1.368 . S
C1654 C1653 1.523 . S
C1655 C1639 1.429 . S
C1655 C1651 1.429 . S
C1655 C1656 1.523 . S
C1656 C1640 1.368 . S
C1656 C1652 1.368 . S
C1656 C1655 1.523 . S
H1657 C1632 0.950 . S
H1658 C1634 0.950 . S
H1659 C1635 0.949 . S
H1660 C1637 0.950 . S
H1661 C1639 0.950 . S
C1662 C1663 1.349 . S
C1662 C1664 1.327 . S
C1662 H1687 0.950 . S
C1663 C1662 1.349 . S
C1663 C1679 1.349 . S
C1664 C1662 1.327 . S
C1664 C1683 1.429 . S
C1664 H1688 0.950 . S
C1665 C1682 1.574 . S
C1665 C1684 1.368 . S
C1665 H1689 0.949 . S
H1666 C1670 0.949 . S
C1667 C1668 1.349 . S
C1667 C1669 1.327 . S
C1667 H1690 0.950 . S
C1668 C1667 1.349 . S
C1668 C1680 1.349 . S
C1669 C1667 1.327 . S
C1669 C1685 1.429 . S
C1669 H1691 0.950 . S
C1670 H1666 0.949 . S
C1670 C1678 1.574 . S
C1670 C1686 1.368 . S
H1671 C1679 0.950 . S
H1672 C1677 0.950 . S
H1673 C1678 0.949 . S
H1674 C1680 0.950 . S
H1675 C1681 0.950 . S
H1676 C1682 0.949 . S
C1677 H1672 0.950 . S
C1677 C1679 1.327 . S
C1677 C1683 1.429 . S
C1678 C1670 1.574 . S
C1678 H1673 0.949 . S
C1678 C1684 1.368 . S
C1679 C1663 1.349 . S
C1679 H1671 0.950 . S
C1679 C1677 1.327 . S
C1680 C1668 1.349 . S
C1680 H1674 0.950 . S
C1680 C1681 1.327 . S
C1681 H1675 0.950 . S
C1681 C1680 1.327 . S
C1681 C1685 1.429 . S
C1682 C1665 1.574 . S
C1682 H1676 0.949 . S
C1682 C1686 1.368 . S
C1683 C1664 1.429 . S
C1683 C1677 1.429 . S
C1683 C1684 1.523 . S
C1684 C1665 1.368 . S
C1684 C1678 1.368 . S
C1684 C1683 1.523 . S
C1685 C1669 1.429 . S
C1685 C1681 1.429 . S
C1685 C1686 1.523 . S
C1686 C1670 1.368 . S
C1686 C1682 1.368 . S
C1686 C1685 1.523 . S
H1687 C1662 0.950 . S
H1688 C1664 0.950 . S
H1689 C1665 0.949 . S
H1690 C1667 0.950 . S
H1691 C1669 0.950 . S
C1692 C1693 1.349 . S
C1692 C1694 1.327 . S
C1692 H1717 0.950 . S
C1693 C1692 1.349 . S
C1693 C1709 1.349 . S
C1694 C1692 1.327 . S
C1694 C1713 1.429 . S
C1694 H1718 0.950 . S
C1695 C1712 1.574 . S
C1695 C1714 1.368 . S
C1695 H1719 0.949 . S
H1696 C1700 0.949 . S
C1697 C1698 1.349 . S
C1697 C1699 1.327 . S
C1697 H1720 0.950 . S
C1698 C1697 1.349 . S
C1698 C1710 1.349 1_545 S
C1699 C1697 1.327 . S
C1699 C1715 1.429 1_545 S
C1699 H1721 0.950 . S
C1700 H1696 0.949 . S
C1700 C1708 1.574 . S
C1700 C1716 1.368 . S
H1701 C1709 0.950 . S
H1702 C1707 0.950 . S
H1703 C1708 0.949 . S
H1704 C1710 0.950 . S
H1705 C1711 0.950 . S
H1706 C1712 0.949 1_545 S
C1707 H1702 0.950 . S
C1707 C1709 1.327 . S
C1707 C1713 1.429 . S
C1708 C1700 1.574 . S
C1708 H1703 0.949 . S
C1708 C1714 1.368 . S
C1709 C1693 1.349 . S
C1709 H1701 0.950 . S
C1709 C1707 1.327 . S
C1710 C1698 1.349 1_565 S
C1710 H1704 0.950 . S
C1710 C1711 1.327 . S
C1711 H1705 0.950 . S
C1711 C1710 1.327 . S
C1711 C1715 1.429 . S
C1712 C1695 1.574 . S
C1712 H1706 0.949 1_565 S
C1712 C1716 1.368 . S
C1713 C1694 1.429 . S
C1713 C1707 1.429 . S
C1713 C1714 1.523 . S
C1714 C1695 1.368 . S
C1714 C1708 1.368 . S
C1714 C1713 1.523 . S
C1715 C1699 1.429 1_565 S
C1715 C1711 1.429 . S
C1715 C1716 1.523 . S
C1716 C1700 1.368 . S
C1716 C1712 1.368 . S
C1716 C1715 1.523 . S
H1717 C1692 0.950 . S
H1718 C1694 0.950 . S
H1719 C1695 0.949 . S
H1720 C1697 0.950 . S
H1721 C1699 0.950 . S
C1722 C1723 1.399 . S
C1722 C1724 1.327 . S
C1722 H1747 0.950 . S
C1723 C1722 1.399 . S
C1723 C1739 1.281 1_554 S
C1724 C1722 1.327 . S
C1724 C1743 1.429 1_554 S
C1724 H1748 0.950 . S
C1725 C1742 1.574 . S
C1725 C1744 1.368 . S
C1725 H1749 0.949 . S
H1726 C1730 0.949 . S
C1727 C1728 1.349 . S
C1727 C1729 1.327 . S
C1727 H1750 0.950 . S
C1728 C1727 1.349 . S
C1728 C1740 1.349 . S
C1729 C1727 1.327 . S
C1729 C1745 1.429 . S
C1729 H1751 0.950 . S
C1730 H1726 0.949 . S
C1730 C1738 1.574 . S
C1730 C1746 1.368 . S
H1731 C1739 0.950 . S
H1732 C1737 0.950 . S
H1733 C1738 0.949 1_554 S
H1734 C1740 0.950 . S
H1735 C1741 0.950 . S
H1736 C1742 0.949 . S
C1737 H1732 0.950 . S
C1737 C1739 1.327 . S
C1737 C1743 1.429 . S
C1738 C1730 1.574 . S
C1738 H1733 0.949 1_556 S
C1738 C1744 1.368 . S
C1739 C1723 1.281 1_556 S
C1739 H1731 0.950 . S
C1739 C1737 1.327 . S
C1740 C1728 1.349 . S
C1740 H1734 0.950 . S
C1740 C1741 1.327 . S
C1741 H1735 0.950 . S
C1741 C1740 1.327 . S
C1741 C1745 1.429 . S
C1742 C1725 1.574 . S
C1742 H1736 0.949 . S
C1742 C1746 1.368 . S
C1743 C1724 1.429 1_556 S
C1743 C1737 1.429 . S
C1743 C1744 1.523 . S
C1744 C1725 1.368 . S
C1744 C1738 1.368 . S
C1744 C1743 1.523 . S
C1745 C1729 1.429 . S
C1745 C1741 1.429 . S
C1745 C1746 1.523 . S
C1746 C1730 1.368 . S
C1746 C1742 1.368 . S
C1746 C1745 1.523 . S
H1747 C1722 0.950 . S
H1748 C1724 0.950 . S
H1749 C1725 0.949 . S
H1750 C1727 0.950 . S
H1751 C1729 0.950 . S
C1752 C1753 1.349 . S
C1752 C1754 1.327 . S
C1752 H1777 0.950 . S
C1753 C1752 1.349 . S
C1753 C1769 1.349 . S
C1754 C1752 1.327 . S
C1754 C1773 1.429 . S
C1754 H1778 0.950 . S
C1755 C1772 1.574 . S
C1755 C1774 1.368 . S
C1755 H1779 0.949 . S
H1756 C1760 0.949 . S
C1757 C1758 1.349 . S
C1757 C1759 1.327 . S
C1757 H1780 0.950 . S
C1758 C1757 1.349 . S
C1758 C1770 1.349 . S
C1759 C1757 1.327 . S
C1759 C1775 1.429 . S
C1759 H1781 0.950 . S
C1760 H1756 0.949 . S
C1760 C1768 1.574 . S
C1760 C1776 1.368 . S
H1761 C1769 0.950 . S
H1762 C1767 0.950 . S
H1763 C1768 0.949 . S
H1764 C1770 0.950 . S
H1765 C1771 0.950 . S
H1766 C1772 0.949 . S
C1767 H1762 0.950 . S
C1767 C1769 1.327 . S
C1767 C1773 1.429 . S
C1768 C1760 1.574 . S
C1768 H1763 0.949 . S
C1768 C1774 1.368 . S
C1769 C1753 1.349 . S
C1769 H1761 0.950 . S
C1769 C1767 1.327 . S
C1770 C1758 1.349 . S
C1770 H1764 0.950 . S
C1770 C1771 1.327 . S
C1771 H1765 0.950 . S
C1771 C1770 1.327 . S
C1771 C1775 1.429 . S
C1772 C1755 1.574 . S
C1772 H1766 0.949 . S
C1772 C1776 1.368 . S
C1773 C1754 1.429 . S
C1773 C1767 1.429 . S
C1773 C1774 1.523 . S
C1774 C1755 1.368 . S
C1774 C1768 1.368 . S
C1774 C1773 1.523 . S
C1775 C1759 1.429 . S
C1775 C1771 1.429 . S
C1775 C1776 1.523 . S
C1776 C1760 1.368 . S
C1776 C1772 1.368 . S
C1776 C1775 1.523 . S
H1777 C1752 0.950 . S
H1778 C1754 0.950 . S
H1779 C1755 0.949 . S
H1780 C1757 0.950 . S
H1781 C1759 0.950 . S
C1782 C1783 1.349 . S
C1782 C1784 1.327 . S
C1782 H1807 0.950 . S
C1783 C1782 1.349 . S
C1783 C1799 1.349 . S
C1784 C1782 1.327 . S
C1784 C1803 1.429 . S
C1784 H1808 0.950 . S
C1785 C1802 1.574 . S
C1785 C1804 1.368 . S
C1785 H1809 0.949 . S
H1786 C1790 0.949 . S
C1787 C1788 1.349 . S
C1787 C1789 1.327 . S
C1787 H1810 0.950 . S
C1788 C1787 1.349 . S
C1788 C1800 1.349 . S
C1789 C1787 1.327 . S
C1789 C1805 1.429 . S
C1789 H1811 0.950 . S
C1790 H1786 0.949 . S
C1790 C1798 1.574 . S
C1790 C1806 1.368 . S
H1791 C1799 0.950 . S
H1792 C1797 0.950 . S
H1793 C1798 0.949 . S
H1794 C1800 0.950 . S
H1795 C1801 0.950 . S
H1796 C1802 0.949 . S
C1797 H1792 0.950 . S
C1797 C1799 1.327 . S
C1797 C1803 1.429 . S
C1798 C1790 1.574 . S
C1798 H1793 0.949 . S
C1798 C1804 1.368 . S
C1799 C1783 1.349 . S
C1799 H1791 0.950 . S
C1799 C1797 1.327 . S
C1800 C1788 1.349 . S
C1800 H1794 0.950 . S
C1800 C1801 1.327 . S
C1801 H1795 0.950 . S
C1801 C1800 1.327 . S
C1801 C1805 1.429 . S
C1802 C1785 1.574 . S
C1802 H1796 0.949 . S
C1802 C1806 1.368 . S
C1803 C1784 1.429 . S
C1803 C1797 1.429 . S
C1803 C1804 1.523 . S
C1804 C1785 1.368 . S
C1804 C1798 1.368 . S
C1804 C1803 1.523 . S
C1805 C1789 1.429 . S
C1805 C1801 1.429 . S
C1805 C1806 1.523 . S
C1806 C1790 1.368 . S
C1806 C1802 1.368 . S
C1806 C1805 1.523 . S
H1807 C1782 0.950 . S
H1808 C1784 0.950 . S
H1809 C1785 0.949 . S
H1810 C1787 0.950 . S
H1811 C1789 0.950 . S
C1812 C1813 1.349 . S
C1812 C1814 1.327 . S
C1812 H1837 0.950 . S
C1813 C1812 1.349 . S
C1813 C1829 1.349 . S
C1814 C1812 1.327 . S
C1814 C1833 1.429 . S
C1814 H1838 0.950 . S
C1815 C1832 1.574 . S
C1815 C1834 1.368 . S
C1815 H1839 0.949 . S
H1816 C1820 0.949 . S
C1817 C1818 1.349 . S
C1817 C1819 1.327 . S
C1817 H1840 0.950 . S
C1818 C1817 1.349 . S
C1818 C1830 1.349 . S
C1819 C1817 1.327 . S
C1819 C1835 1.429 . S
C1819 H1841 0.950 . S
C1820 H1816 0.949 . S
C1820 C1828 1.574 . S
C1820 C1836 1.368 . S
H1821 C1829 0.950 . S
H1822 C1827 0.950 . S
H1823 C1828 0.949 . S
H1824 C1830 0.950 . S
H1825 C1831 0.950 . S
H1826 C1832 0.949 . S
C1827 H1822 0.950 . S
C1827 C1829 1.327 . S
C1827 C1833 1.429 . S
C1828 C1820 1.574 . S
C1828 H1823 0.949 . S
C1828 C1834 1.368 . S
C1829 C1813 1.349 . S
C1829 H1821 0.950 . S
C1829 C1827 1.327 . S
C1830 C1818 1.349 . S
C1830 H1824 0.950 . S
C1830 C1831 1.327 . S
C1831 H1825 0.950 . S
C1831 C1830 1.327 . S
C1831 C1835 1.429 . S
C1832 C1815 1.574 . S
C1832 H1826 0.949 . S
C1832 C1836 1.368 . S
C1833 C1814 1.429 . S
C1833 C1827 1.429 . S
C1833 C1834 1.523 . S
C1834 C1815 1.368 . S
C1834 C1828 1.368 . S
C1834 C1833 1.523 . S
C1835 C1819 1.429 . S
C1835 C1831 1.429 . S
C1835 C1836 1.523 . S
C1836 C1820 1.368 . S
C1836 C1832 1.368 . S
C1836 C1835 1.523 . S
H1837 C1812 0.950 . S
H1838 C1814 0.950 . S
H1839 C1815 0.949 . S
H1840 C1817 0.950 . S
H1841 C1819 0.950 . S
C1842 C1843 1.349 . S
C1842 C1844 1.327 . S
C1842 H1867 0.950 . S
C1843 C1842 1.349 . S
C1843 C1859 1.349 . S
C1844 C1842 1.327 . S
C1844 C1863 1.429 . S
C1844 H1868 0.950 . S
C1845 C1862 1.574 . S
C1845 C1864 1.368 . S
C1845 H1869 0.949 . S
H1846 C1850 0.949 . S
C1847 C1848 1.349 . S
C1847 C1849 1.327 . S
C1847 H1870 0.950 . S
C1848 C1847 1.349 . S
C1848 C1860 1.349 . S
C1849 C1847 1.327 . S
C1849 C1865 1.429 . S
C1849 H1871 0.950 . S
C1850 H1846 0.949 . S
C1850 C1858 1.574 . S
C1850 C1866 1.368 . S
H1851 C1859 0.950 . S
H1852 C1857 0.950 . S
H1853 C1858 0.949 . S
H1854 C1860 0.950 . S
H1855 C1861 0.950 . S
H1856 C1862 0.949 . S
C1857 H1852 0.950 . S
C1857 C1859 1.327 . S
C1857 C1863 1.429 . S
C1858 C1850 1.574 . S
C1858 H1853 0.949 . S
C1858 C1864 1.368 . S
C1859 C1843 1.349 . S
C1859 H1851 0.950 . S
C1859 C1857 1.327 . S
C1860 C1848 1.349 . S
C1860 H1854 0.950 . S
C1860 C1861 1.327 . S
C1861 H1855 0.950 . S
C1861 C1860 1.327 . S
C1861 C1865 1.429 . S
C1862 C1845 1.574 . S
C1862 H1856 0.949 . S
C1862 C1866 1.368 . S
C1863 C1844 1.429 . S
C1863 C1857 1.429 . S
C1863 C1864 1.523 . S
C1864 C1845 1.368 . S
C1864 C1858 1.368 . S
C1864 C1863 1.523 . S
C1865 C1849 1.429 . S
C1865 C1861 1.429 . S
C1865 C1866 1.523 . S
C1866 C1850 1.368 . S
C1866 C1862 1.368 . S
C1866 C1865 1.523 . S
H1867 C1842 0.950 . S
H1868 C1844 0.950 . S
H1869 C1845 0.949 . S
H1870 C1847 0.950 . S
H1871 C1849 0.950 . S
C1872 C1873 1.349 . S
C1872 C1874 1.327 . S
C1872 H1897 0.950 . S
C1873 C1872 1.349 . S
C1873 C1889 1.349 . S
C1874 C1872 1.327 . S
C1874 C1893 1.429 . S
C1874 H1898 0.950 . S
C1875 C1892 1.574 . S
C1875 C1894 1.368 . S
C1875 H1899 0.949 . S
H1876 C1880 0.949 . S
C1877 C1878 1.349 . S
C1877 C1879 1.327 . S
C1877 H1900 0.950 . S
C1878 C1877 1.349 . S
C1878 C1890 1.349 . S
C1879 C1877 1.327 . S
C1879 C1895 1.429 . S
C1879 H1901 0.950 . S
C1880 H1876 0.949 . S
C1880 C1888 1.574 . S
C1880 C1896 1.368 . S
H1881 C1889 0.950 . S
H1882 C1887 0.950 . S
H1883 C1888 0.949 . S
H1884 C1890 0.950 . S
H1885 C1891 0.950 . S
H1886 C1892 0.949 . S
C1887 H1882 0.950 . S
C1887 C1889 1.327 . S
C1887 C1893 1.429 . S
C1888 C1880 1.574 . S
C1888 H1883 0.949 . S
C1888 C1894 1.368 . S
C1889 C1873 1.349 . S
C1889 H1881 0.950 . S
C1889 C1887 1.327 . S
C1890 C1878 1.349 . S
C1890 H1884 0.950 . S
C1890 C1891 1.327 . S
C1891 H1885 0.950 . S
C1891 C1890 1.327 . S
C1891 C1895 1.429 . S
C1892 C1875 1.574 . S
C1892 H1886 0.949 . S
C1892 C1896 1.368 . S
C1893 C1874 1.429 . S
C1893 C1887 1.429 . S
C1893 C1894 1.523 . S
C1894 C1875 1.368 . S
C1894 C1888 1.368 . S
C1894 C1893 1.523 . S
C1895 C1879 1.429 . S
C1895 C1891 1.429 . S
C1895 C1896 1.523 . S
C1896 C1880 1.368 . S
C1896 C1892 1.368 . S
C1896 C1895 1.523 . S
H1897 C1872 0.950 . S
H1898 C1874 0.950 . S
H1899 C1875 0.949 . S
H1900 C1877 0.950 . S
H1901 C1879 0.950 . S
C1902 C1903 1.349 . S
C1902 C1904 1.327 . S
C1902 H1927 0.950 . S
C1903 C1902 1.349 . S
C1903 C1919 1.349 . S
C1904 C1902 1.327 . S
C1904 C1923 1.429 . S
C1904 H1928 0.950 . S
C1905 C1922 1.574 . S
C1905 C1924 1.368 . S
C1905 H1929 0.949 . S
H1906 C1910 0.949 . S
C1907 C1908 1.349 . S
C1907 C1909 1.327 . S
C1907 H1930 0.950 . S
C1908 C1907 1.349 . S
C1908 C1920 1.349 . S
C1909 C1907 1.327 . S
C1909 C1925 1.429 . S
C1909 H1931 0.950 . S
C1910 H1906 0.949 . S
C1910 C1918 1.574 . S
C1910 C1926 1.368 . S
H1911 C1919 0.950 . S
H1912 C1917 0.950 . S
H1913 C1918 0.949 . S
H1914 C1920 0.950 . S
H1915 C1921 0.950 . S
H1916 C1922 0.949 . S
C1917 H1912 0.950 . S
C1917 C1919 1.327 . S
C1917 C1923 1.429 . S
C1918 C1910 1.574 . S
C1918 H1913 0.949 . S
C1918 C1924 1.368 . S
C1919 C1903 1.349 . S
C1919 H1911 0.950 . S
C1919 C1917 1.327 . S
C1920 C1908 1.349 . S
C1920 H1914 0.950 . S
C1920 C1921 1.327 . S
C1921 H1915 0.950 . S
C1921 C1920 1.327 . S
C1921 C1925 1.429 . S
C1922 C1905 1.574 . S
C1922 H1916 0.949 . S
C1922 C1926 1.368 . S
C1923 C1904 1.429 . S
C1923 C1917 1.429 . S
C1923 C1924 1.523 . S
C1924 C1905 1.368 . S
C1924 C1918 1.368 . S
C1924 C1923 1.523 . S
C1925 C1909 1.429 . S
C1925 C1921 1.429 . S
C1925 C1926 1.523 . S
C1926 C1910 1.368 . S
C1926 C1922 1.368 . S
C1926 C1925 1.523 . S
H1927 C1902 0.950 . S
H1928 C1904 0.950 . S
H1929 C1905 0.949 . S
H1930 C1907 0.950 . S
H1931 C1909 0.950 . S
C1932 C1933 1.349 . S
C1932 C1934 1.327 . S
C1932 H1957 0.950 . S
C1933 C1932 1.349 . S
C1933 C1949 1.349 . S
C1934 C1932 1.327 . S
C1934 C1953 1.429 . S
C1934 H1958 0.950 . S
C1935 C1952 1.574 . S
C1935 C1954 1.368 . S
C1935 H1959 0.949 . S
H1936 C1940 0.949 . S
C1937 C1938 1.349 . S
C1937 C1939 1.327 . S
C1937 H1960 0.950 . S
C1938 C1937 1.349 . S
C1938 C1950 1.349 . S
C1939 C1937 1.327 . S
C1939 C1955 1.429 . S
C1939 H1961 0.950 . S
C1940 H1936 0.949 . S
C1940 C1948 1.574 . S
C1940 C1956 1.368 . S
H1941 C1949 0.950 . S
H1942 C1947 0.950 . S
H1943 C1948 0.949 . S
H1944 C1950 0.950 . S
H1945 C1951 0.950 . S
H1946 C1952 0.949 . S
C1947 H1942 0.950 . S
C1947 C1949 1.327 . S
C1947 C1953 1.429 . S
C1948 C1940 1.574 . S
C1948 H1943 0.949 . S
C1948 C1954 1.368 . S
C1949 C1933 1.349 . S
C1949 H1941 0.950 . S
C1949 C1947 1.327 . S
C1950 C1938 1.349 . S
C1950 H1944 0.950 . S
C1950 C1951 1.327 . S
C1951 H1945 0.950 . S
C1951 C1950 1.327 . S
C1951 C1955 1.429 . S
C1952 C1935 1.574 . S
C1952 H1946 0.949 . S
C1952 C1956 1.368 . S
C1953 C1934 1.429 . S
C1953 C1947 1.429 . S
C1953 C1954 1.523 . S
C1954 C1935 1.368 . S
C1954 C1948 1.368 . S
C1954 C1953 1.523 . S
C1955 C1939 1.429 . S
C1955 C1951 1.429 . S
C1955 C1956 1.523 . S
C1956 C1940 1.368 . S
C1956 C1952 1.368 . S
C1956 C1955 1.523 . S
H1957 C1932 0.950 . S
H1958 C1934 0.950 . S
H1959 C1935 0.949 . S
H1960 C1937 0.950 . S
H1961 C1939 0.950 . S
C1962 C1963 1.349 . S
C1962 C1964 1.327 . S
C1962 H1987 0.950 . S
C1963 C1962 1.349 . S
C1963 C1979 1.349 . S
C1964 C1962 1.327 . S
C1964 C1983 1.429 . S
C1964 H1988 0.950 . S
C1965 C1982 1.574 . S
C1965 C1984 1.368 . S
C1965 H1989 0.949 . S
H1966 C1970 0.949 . S
C1967 C1968 1.349 . S
C1967 C1969 1.327 . S
C1967 H1990 0.950 . S
C1968 C1967 1.349 . S
C1968 C1980 1.349 . S
C1969 C1967 1.327 . S
C1969 C1985 1.429 . S
C1969 H1991 0.950 . S
C1970 H1966 0.949 . S
C1970 C1978 1.574 . S
C1970 C1986 1.368 . S
H1971 C1979 0.950 . S
H1972 C1977 0.950 . S
H1973 C1978 0.949 . S
H1974 C1980 0.950 . S
H1975 C1981 0.950 . S
H1976 C1982 0.949 . S
C1977 H1972 0.950 . S
C1977 C1979 1.327 . S
C1977 C1983 1.429 . S
C1978 C1970 1.574 . S
C1978 H1973 0.949 . S
C1978 C1984 1.368 . S
C1979 C1963 1.349 . S
C1979 H1971 0.950 . S
C1979 C1977 1.327 . S
C1980 C1968 1.349 . S
C1980 H1974 0.950 . S
C1980 C1981 1.327 . S
C1981 H1975 0.950 . S
C1981 C1980 1.327 . S
C1981 C1985 1.429 . S
C1982 C1965 1.574 . S
C1982 H1976 0.949 . S
C1982 C1986 1.368 . S
C1983 C1964 1.429 . S
C1983 C1977 1.429 . S
C1983 C1984 1.523 . S
C1984 C1965 1.368 . S
C1984 C1978 1.368 . S
C1984 C1983 1.523 . S
C1985 C1969 1.429 . S
C1985 C1981 1.429 . S
C1985 C1986 1.523 . S
C1986 C1970 1.368 . S
C1986 C1982 1.368 . S
C1986 C1985 1.523 . S
H1987 C1962 0.950 . S
H1988 C1964 0.950 . S
H1989 C1965 0.949 . S
H1990 C1967 0.950 . S
H1991 C1969 0.950 . S
C1992 C1993 1.349 . S
C1992 C1994 1.327 . S
C1992 H2017 0.950 . S
C1993 C1992 1.349 . S
C1993 C2009 1.349 . S
C1994 C1992 1.327 . S
C1994 C2013 1.429 . S
C1994 H2018 0.950 . S
C1995 C2012 1.574 . S
C1995 C2014 1.368 . S
C1995 H2019 0.949 . S
H1996 C2000 0.949 . S
C1997 C1998 1.349 . S
C1997 C1999 1.327 . S
C1997 H2020 0.950 . S
C1998 C1997 1.349 . S
C1998 C2010 1.349 . S
C1999 C1997 1.327 . S
C1999 C2015 1.429 . S
C1999 H2021 0.950 . S
C2000 H1996 0.949 . S
C2000 C2008 1.574 . S
C2000 C2016 1.368 . S
H2001 C2009 0.950 . S
H2002 C2007 0.950 . S
H2003 C2008 0.949 . S
H2004 C2010 0.950 . S
H2005 C2011 0.950 . S
H2006 C2012 0.949 . S
C2007 H2002 0.950 . S
C2007 C2009 1.327 . S
C2007 C2013 1.429 . S
C2008 C2000 1.574 . S
C2008 H2003 0.949 . S
C2008 C2014 1.368 . S
C2009 C1993 1.349 . S
C2009 H2001 0.950 . S
C2009 C2007 1.327 . S
C2010 C1998 1.349 . S
C2010 H2004 0.950 . S
C2010 C2011 1.327 . S
C2011 H2005 0.950 . S
C2011 C2010 1.327 . S
C2011 C2015 1.429 . S
C2012 C1995 1.574 . S
C2012 H2006 0.949 . S
C2012 C2016 1.368 . S
C2013 C1994 1.429 . S
C2013 C2007 1.429 . S
C2013 C2014 1.523 . S
C2014 C1995 1.368 . S
C2014 C2008 1.368 . S
C2014 C2013 1.523 . S
C2015 C1999 1.429 . S
C2015 C2011 1.429 . S
C2015 C2016 1.523 . S
C2016 C2000 1.368 . S
C2016 C2012 1.368 . S
C2016 C2015 1.523 . S
H2017 C1992 0.950 . S
H2018 C1994 0.950 . S
H2019 C1995 0.949 . S
H2020 C1997 0.950 . S
H2021 C1999 0.950 . S
C2022 C2023 1.349 . S
C2022 C2024 1.327 . S
C2022 H2047 0.950 . S
C2023 C2022 1.349 . S
C2023 C2039 1.349 . S
C2024 C2022 1.327 . S
C2024 C2043 1.429 . S
C2024 H2048 0.950 . S
C2025 C2042 1.574 . S
C2025 C2044 1.368 . S
C2025 H2049 0.949 . S
H2026 C2030 0.949 . S
C2027 C2028 1.349 . S
C2027 C2029 1.327 . S
C2027 H2050 0.950 . S
C2028 C2027 1.349 . S
C2028 C2040 1.349 . S
C2029 C2027 1.327 . S
C2029 C2045 1.429 . S
C2029 H2051 0.950 . S
C2030 H2026 0.949 . S
C2030 C2038 1.574 . S
C2030 C2046 1.368 . S
H2031 C2039 0.950 . S
H2032 C2037 0.950 . S
H2033 C2038 0.949 . S
H2034 C2040 0.950 . S
H2035 C2041 0.950 . S
H2036 C2042 0.949 . S
C2037 H2032 0.950 . S
C2037 C2039 1.327 . S
C2037 C2043 1.429 . S
C2038 C2030 1.574 . S
C2038 H2033 0.949 . S
C2038 C2044 1.368 . S
C2039 C2023 1.349 . S
C2039 H2031 0.950 . S
C2039 C2037 1.327 . S
C2040 C2028 1.349 . S
C2040 H2034 0.950 . S
C2040 C2041 1.327 . S
C2041 H2035 0.950 . S
C2041 C2040 1.327 . S
C2041 C2045 1.429 . S
C2042 C2025 1.574 . S
C2042 H2036 0.949 . S
C2042 C2046 1.368 . S
C2043 C2024 1.429 . S
C2043 C2037 1.429 . S
C2043 C2044 1.523 . S
C2044 C2025 1.368 . S
C2044 C2038 1.368 . S
C2044 C2043 1.523 . S
C2045 C2029 1.429 . S
C2045 C2041 1.429 . S
C2045 C2046 1.523 . S
C2046 C2030 1.368 . S
C2046 C2042 1.368 . S
C2046 C2045 1.523 . S
H2047 C2022 0.950 . S
H2048 C2024 0.950 . S
H2049 C2025 0.949 . S
H2050 C2027 0.950 . S
H2051 C2029 0.950 . S
C2052 C2053 1.349 . S
C2052 C2054 1.327 . S
C2052 H2077 0.950 . S
C2053 C2052 1.349 . S
C2053 C2069 1.349 . S
C2054 C2052 1.327 . S
C2054 C2073 1.429 . S
C2054 H2078 0.950 . S
C2055 C2072 1.574 . S
C2055 C2074 1.368 . S
C2055 H2079 0.949 . S
H2056 C2060 1.025 . S
C2057 C2058 1.349 1_556 S
C2057 C2059 1.327 . S
C2057 H2080 0.950 . S
C2058 C2057 1.349 1_554 S
C2058 C2070 1.349 . S
C2059 C2057 1.327 . S
C2059 C2075 1.429 . S
C2059 H2081 0.950 . S
C2060 H2056 1.025 . S
C2060 C2068 1.555 1_554 S
C2060 C2076 1.308 1_554 S
H2061 C2069 0.950 . S
H2062 C2067 0.950 . S
H2063 C2068 0.949 1_554 S
H2064 C2070 0.950 . S
H2065 C2071 0.950 . S
H2066 C2072 0.949 . S
C2067 H2062 0.950 . S
C2067 C2069 1.327 . S
C2067 C2073 1.429 . S
C2068 C2060 1.555 1_556 S
C2068 H2063 0.949 1_556 S
C2068 C2074 1.368 . S
C2069 C2053 1.349 . S
C2069 H2061 0.950 . S
C2069 C2067 1.327 . S
C2070 C2058 1.349 . S
C2070 H2064 0.950 . S
C2070 C2071 1.327 . S
C2071 H2065 0.950 . S
C2071 C2070 1.327 . S
C2071 C2075 1.429 1_554 S
C2072 C2055 1.574 . S
C2072 H2066 0.949 . S
C2072 C2076 1.368 . S
C2073 C2054 1.429 . S
C2073 C2067 1.429 . S
C2073 C2074 1.523 . S
C2074 C2055 1.368 . S
C2074 C2068 1.368 . S
C2074 C2073 1.523 . S
C2075 C2059 1.429 . S
C2075 C2071 1.429 1_556 S
C2075 C2076 1.523 . S
C2076 C2060 1.308 1_556 S
C2076 C2072 1.368 . S
C2076 C2075 1.523 . S
H2077 C2052 0.950 . S
H2078 C2054 0.950 . S
H2079 C2055 0.949 . S
H2080 C2057 0.950 . S
H2081 C2059 0.950 . S
C2082 C2083 1.349 . S
C2082 C2084 1.327 . S
C2082 H2107 0.950 . S
C2083 C2082 1.349 . S
C2083 C2099 1.349 . S
C2084 C2082 1.327 . S
C2084 C2103 1.429 . S
C2084 H2108 0.950 . S
C2085 C2102 1.574 . S
C2085 C2104 1.368 . S
C2085 H2109 0.949 . S
H2086 C2090 0.949 . S
C2087 C2088 1.349 . S
C2087 C2089 1.327 . S
C2087 H2110 0.950 . S
C2088 C2087 1.349 . S
C2088 C2100 1.349 . S
C2089 C2087 1.327 . S
C2089 C2105 1.429 . S
C2089 H2111 0.950 . S
C2090 H2086 0.949 . S
C2090 C2098 1.574 . S
C2090 C2106 1.368 . S
H2091 C2099 0.950 . S
H2092 C2097 0.950 . S
H2093 C2098 0.949 . S
H2094 C2100 0.950 . S
H2095 C2101 0.950 . S
H2096 C2102 0.949 . S
C2097 H2092 0.950 . S
C2097 C2099 1.327 . S
C2097 C2103 1.429 . S
C2098 C2090 1.574 . S
C2098 H2093 0.949 . S
C2098 C2104 1.368 . S
C2099 C2083 1.349 . S
C2099 H2091 0.950 . S
C2099 C2097 1.327 . S
C2100 C2088 1.349 . S
C2100 H2094 0.950 . S
C2100 C2101 1.327 . S
C2101 H2095 0.950 . S
C2101 C2100 1.327 . S
C2101 C2105 1.429 . S
C2102 C2085 1.574 . S
C2102 H2096 0.949 . S
C2102 C2106 1.368 . S
C2103 C2084 1.429 . S
C2103 C2097 1.429 . S
C2103 C2104 1.523 . S
C2104 C2085 1.368 . S
C2104 C2098 1.368 . S
C2104 C2103 1.523 . S
C2105 C2089 1.429 . S
C2105 C2101 1.429 . S
C2105 C2106 1.523 . S
C2106 C2090 1.368 . S
C2106 C2102 1.368 . S
C2106 C2105 1.523 . S
H2107 C2082 0.950 . S
H2108 C2084 0.950 . S
H2109 C2085 0.949 . S
H2110 C2087 0.950 . S
H2111 C2089 0.950 . S
C2112 C2113 1.349 . S
C2112 C2114 1.327 . S
C2112 H2137 0.950 . S
C2113 C2112 1.349 . S
C2113 C2129 1.349 . S
C2114 C2112 1.327 . S
C2114 C2133 1.429 . S
C2114 H2138 0.950 . S
C2115 C2132 1.574 . S
C2115 C2134 1.368 . S
C2115 H2139 0.949 . S
H2116 C2120 0.949 . S
C2117 C2118 1.349 . S
C2117 C2119 1.327 . S
C2117 H2140 0.950 . S
C2118 C2117 1.349 . S
C2118 C2130 1.349 . S
C2119 C2117 1.327 . S
C2119 C2135 1.429 . S
C2119 H2141 0.950 . S
C2120 H2116 0.949 . S
C2120 C2128 1.574 . S
C2120 C2136 1.368 . S
H2121 C2129 0.950 . S
H2122 C2127 0.950 . S
H2123 C2128 0.949 . S
H2124 C2130 0.950 . S
H2125 C2131 0.950 . S
H2126 C2132 0.949 . S
C2127 H2122 0.950 . S
C2127 C2129 1.327 . S
C2127 C2133 1.429 . S
C2128 C2120 1.574 . S
C2128 H2123 0.949 . S
C2128 C2134 1.368 . S
C2129 C2113 1.349 . S
C2129 H2121 0.950 . S
C2129 C2127 1.327 . S
C2130 C2118 1.349 . S
C2130 H2124 0.950 . S
C2130 C2131 1.327 . S
C2131 H2125 0.950 . S
C2131 C2130 1.327 . S
C2131 C2135 1.429 . S
C2132 C2115 1.574 . S
C2132 H2126 0.949 . S
C2132 C2136 1.368 . S
C2133 C2114 1.429 . S
C2133 C2127 1.429 . S
C2133 C2134 1.523 . S
C2134 C2115 1.368 . S
C2134 C2128 1.368 . S
C2134 C2133 1.523 . S
C2135 C2119 1.429 . S
C2135 C2131 1.429 . S
C2135 C2136 1.523 . S
C2136 C2120 1.368 . S
C2136 C2132 1.368 . S
C2136 C2135 1.523 . S
H2137 C2112 0.950 . S
H2138 C2114 0.950 . S
H2139 C2115 0.949 . S
H2140 C2117 0.950 . S
H2141 C2119 0.950 . S
C2142 C2143 1.349 . S
C2142 C2144 1.327 . S
C2142 H2167 0.950 . S
C2143 C2142 1.349 . S
C2143 C2159 1.349 . S
C2144 C2142 1.327 . S
C2144 C2163 1.429 . S
C2144 H2168 0.950 . S
C2145 C2162 1.574 . S
C2145 C2164 1.368 . S
C2145 H2169 0.949 . S
H2146 C2150 0.949 . S
C2147 C2148 1.349 . S
C2147 C2149 1.327 . S
C2147 H2170 0.950 . S
C2148 C2147 1.349 . S
C2148 C2160 1.349 . S
C2149 C2147 1.327 . S
C2149 C2165 1.429 . S
C2149 H2171 0.950 . S
C2150 H2146 0.949 . S
C2150 C2158 1.574 . S
C2150 C2166 1.368 . S
H2151 C2159 0.950 . S
H2152 C2157 0.950 . S
H2153 C2158 0.949 . S
H2154 C2160 0.950 . S
H2155 C2161 0.950 . S
H2156 C2162 0.949 . S
C2157 H2152 0.950 . S
C2157 C2159 1.327 . S
C2157 C2163 1.429 . S
C2158 C2150 1.574 . S
C2158 H2153 0.949 . S
C2158 C2164 1.368 . S
C2159 C2143 1.349 . S
C2159 H2151 0.950 . S
C2159 C2157 1.327 . S
C2160 C2148 1.349 . S
C2160 H2154 0.950 . S
C2160 C2161 1.327 . S
C2161 H2155 0.950 . S
C2161 C2160 1.327 . S
C2161 C2165 1.429 . S
C2162 C2145 1.574 . S
C2162 H2156 0.949 . S
C2162 C2166 1.368 . S
C2163 C2144 1.429 . S
C2163 C2157 1.429 . S
C2163 C2164 1.523 . S
C2164 C2145 1.368 . S
C2164 C2158 1.368 . S
C2164 C2163 1.523 . S
C2165 C2149 1.429 . S
C2165 C2161 1.429 . S
C2165 C2166 1.523 . S
C2166 C2150 1.368 . S
C2166 C2162 1.368 . S
C2166 C2165 1.523 . S
H2167 C2142 0.950 . S
H2168 C2144 0.950 . S
H2169 C2145 0.949 . S
H2170 C2147 0.950 . S
H2171 C2149 0.950 . S
C2172 C2173 1.349 . S
C2172 C2174 1.327 . S
C2172 H2197 0.950 . S
C2173 C2172 1.349 . S
C2173 C2189 1.349 . S
C2174 C2172 1.327 . S
C2174 C2193 1.429 . S
C2174 H2198 0.950 . S
C2175 C2192 1.574 . S
C2175 C2194 1.368 . S
C2175 H2199 0.949 . S
H2176 C2180 0.949 . S
C2177 C2178 1.349 . S
C2177 C2179 1.327 . S
C2177 H2200 0.950 . S
C2178 C2177 1.349 . S
C2178 C2190 1.349 . S
C2179 C2177 1.327 . S
C2179 C2195 1.429 . S
C2179 H2201 0.950 . S
C2180 H2176 0.949 . S
C2180 C2188 1.574 . S
C2180 C2196 1.368 . S
H2181 C2189 0.950 . S
H2182 C2187 0.950 . S
H2183 C2188 0.949 . S
H2184 C2190 0.950 . S
H2185 C2191 0.950 . S
H2186 C2192 0.949 . S
C2187 H2182 0.950 . S
C2187 C2189 1.327 . S
C2187 C2193 1.429 . S
C2188 C2180 1.574 . S
C2188 H2183 0.949 . S
C2188 C2194 1.368 . S
C2189 C2173 1.349 . S
C2189 H2181 0.950 . S
C2189 C2187 1.327 . S
C2190 C2178 1.349 . S
C2190 H2184 0.950 . S
C2190 C2191 1.327 . S
C2191 H2185 0.950 . S
C2191 C2190 1.327 . S
C2191 C2195 1.429 . S
C2192 C2175 1.574 . S
C2192 H2186 0.949 . S
C2192 C2196 1.368 . S
C2193 C2174 1.429 . S
C2193 C2187 1.429 . S
C2193 C2194 1.523 . S
C2194 C2175 1.368 . S
C2194 C2188 1.368 . S
C2194 C2193 1.523 . S
C2195 C2179 1.429 . S
C2195 C2191 1.429 . S
C2195 C2196 1.523 . S
C2196 C2180 1.368 . S
C2196 C2192 1.368 . S
C2196 C2195 1.523 . S
H2197 C2172 0.950 . S
H2198 C2174 0.950 . S
H2199 C2175 0.949 . S
H2200 C2177 0.950 . S
H2201 C2179 0.950 . S
C2202 C2203 1.349 . S
C2202 C2204 1.327 . S
C2202 H2227 0.950 . S
C2203 C2202 1.349 . S
C2203 C2219 1.349 . S
C2204 C2202 1.327 . S
C2204 C2223 1.429 . S
C2204 H2228 0.950 . S
C2205 C2222 1.574 . S
C2205 C2224 1.368 . S
C2205 H2229 0.949 . S
H2206 C2210 0.949 . S
C2207 C2208 1.349 . S
C2207 C2209 1.327 . S
C2207 H2230 0.950 . S
C2208 C2207 1.349 . S
C2208 C2220 1.349 . S
C2209 C2207 1.327 . S
C2209 C2225 1.429 . S
C2209 H2231 0.950 . S
C2210 H2206 0.949 . S
C2210 C2218 1.574 . S
C2210 C2226 1.368 . S
H2211 C2219 0.950 . S
H2212 C2217 0.950 . S
H2213 C2218 0.949 . S
H2214 C2220 0.950 . S
H2215 C2221 0.950 . S
H2216 C2222 0.949 . S
C2217 H2212 0.950 . S
C2217 C2219 1.327 . S
C2217 C2223 1.429 . S
C2218 C2210 1.574 . S
C2218 H2213 0.949 . S
C2218 C2224 1.368 . S
C2219 C2203 1.349 . S
C2219 H2211 0.950 . S
C2219 C2217 1.327 . S
C2220 C2208 1.349 . S
C2220 H2214 0.950 . S
C2220 C2221 1.327 . S
C2221 H2215 0.950 . S
C2221 C2220 1.327 . S
C2221 C2225 1.429 . S
C2222 C2205 1.574 . S
C2222 H2216 0.949 . S
C2222 C2226 1.368 . S
C2223 C2204 1.429 . S
C2223 C2217 1.429 . S
C2223 C2224 1.523 . S
C2224 C2205 1.368 . S
C2224 C2218 1.368 . S
C2224 C2223 1.523 . S
C2225 C2209 1.429 . S
C2225 C2221 1.429 . S
C2225 C2226 1.523 . S
C2226 C2210 1.368 . S
C2226 C2222 1.368 . S
C2226 C2225 1.523 . S
H2227 C2202 0.950 . S
H2228 C2204 0.950 . S
H2229 C2205 0.949 . S
H2230 C2207 0.950 . S
H2231 C2209 0.950 . S
C2232 C2233 1.349 . S
C2232 C2234 1.327 . S
C2232 H2257 0.950 . S
C2233 C2232 1.349 . S
C2233 C2249 1.349 . S
C2234 C2232 1.327 . S
C2234 C2253 1.429 . S
C2234 H2258 0.950 . S
C2235 C2252 1.574 . S
C2235 C2254 1.368 . S
C2235 H2259 0.949 . S
H2236 C2240 0.949 . S
C2237 C2238 1.349 . S
C2237 C2239 1.327 . S
C2237 H2260 0.950 . S
C2238 C2237 1.349 . S
C2238 C2250 1.349 . S
C2239 C2237 1.327 . S
C2239 C2255 1.429 . S
C2239 H2261 0.950 . S
C2240 H2236 0.949 . S
C2240 C2248 1.574 . S
C2240 C2256 1.368 . S
H2241 C2249 0.950 . S
H2242 C2247 0.950 . S
H2243 C2248 0.949 . S
H2244 C2250 0.950 . S
H2245 C2251 0.950 . S
H2246 C2252 0.949 . S
C2247 H2242 0.950 . S
C2247 C2249 1.327 . S
C2247 C2253 1.429 . S
C2248 C2240 1.574 . S
C2248 H2243 0.949 . S
C2248 C2254 1.368 . S
C2249 C2233 1.349 . S
C2249 H2241 0.950 . S
C2249 C2247 1.327 . S
C2250 C2238 1.349 . S
C2250 H2244 0.950 . S
C2250 C2251 1.327 . S
C2251 H2245 0.950 . S
C2251 C2250 1.327 . S
C2251 C2255 1.429 . S
C2252 C2235 1.574 . S
C2252 H2246 0.949 . S
C2252 C2256 1.368 . S
C2253 C2234 1.429 . S
C2253 C2247 1.429 . S
C2253 C2254 1.523 . S
C2254 C2235 1.368 . S
C2254 C2248 1.368 . S
C2254 C2253 1.523 . S
C2255 C2239 1.429 . S
C2255 C2251 1.429 . S
C2255 C2256 1.523 . S
C2256 C2240 1.368 . S
C2256 C2252 1.368 . S
C2256 C2255 1.523 . S
H2257 C2232 0.950 . S
H2258 C2234 0.950 . S
H2259 C2235 0.949 . S
H2260 C2237 0.950 . S
H2261 C2239 0.950 . S
C2262 C2263 1.349 . S
C2262 C2264 1.327 . S
C2262 H2287 0.950 . S
C2263 C2262 1.349 . S
C2263 C2279 1.349 . S
C2264 C2262 1.327 . S
C2264 C2283 1.429 . S
C2264 H2288 0.950 . S
C2265 C2282 1.574 . S
C2265 C2284 1.368 . S
C2265 H2289 0.949 . S
H2266 C2270 0.949 . S
C2267 C2268 1.349 . S
C2267 C2269 1.327 . S
C2267 H2290 0.950 . S
C2268 C2267 1.349 . S
C2268 C2280 1.349 . S
C2269 C2267 1.327 . S
C2269 C2285 1.429 . S
C2269 H2291 0.950 . S
C2270 H2266 0.949 . S
C2270 C2278 1.574 . S
C2270 C2286 1.368 . S
H2271 C2279 0.950 . S
H2272 C2277 0.950 . S
H2273 C2278 0.949 . S
H2274 C2280 0.950 . S
H2275 C2281 0.950 . S
H2276 C2282 0.949 . S
C2277 H2272 0.950 . S
C2277 C2279 1.327 . S
C2277 C2283 1.429 . S
C2278 C2270 1.574 . S
C2278 H2273 0.949 . S
C2278 C2284 1.368 . S
C2279 C2263 1.349 . S
C2279 H2271 0.950 . S
C2279 C2277 1.327 . S
C2280 C2268 1.349 . S
C2280 H2274 0.950 . S
C2280 C2281 1.327 . S
C2281 H2275 0.950 . S
C2281 C2280 1.327 . S
C2281 C2285 1.429 . S
C2282 C2265 1.574 . S
C2282 H2276 0.949 . S
C2282 C2286 1.368 . S
C2283 C2264 1.429 . S
C2283 C2277 1.429 . S
C2283 C2284 1.523 . S
C2284 C2265 1.368 . S
C2284 C2278 1.368 . S
C2284 C2283 1.523 . S
C2285 C2269 1.429 . S
C2285 C2281 1.429 . S
C2285 C2286 1.523 . S
C2286 C2270 1.368 . S
C2286 C2282 1.368 . S
C2286 C2285 1.523 . S
H2287 C2262 0.950 . S
H2288 C2264 0.950 . S
H2289 C2265 0.949 . S
H2290 C2267 0.950 . S
H2291 C2269 0.950 . S
C2292 C2293 1.349 . S
C2292 C2294 1.327 . S
C2292 H2317 0.950 . S
C2293 C2292 1.349 . S
C2293 C2309 1.349 . S
C2294 C2292 1.327 . S
C2294 C2313 1.429 . S
C2294 H2318 0.950 . S
C2295 C2312 1.574 . S
C2295 C2314 1.368 . S
C2295 H2319 0.949 . S
H2296 C2300 0.949 . S
C2297 C2298 1.349 . S
C2297 C2299 1.327 . S
C2297 H2320 0.950 . S
C2298 C2297 1.349 . S
C2298 C2310 1.349 . S
C2299 C2297 1.327 . S
C2299 C2315 1.429 . S
C2299 H2321 0.950 . S
C2300 H2296 0.949 . S
C2300 C2308 1.574 . S
C2300 C2316 1.368 . S
H2301 C2309 0.950 . S
H2302 C2307 0.950 . S
H2303 C2308 0.949 . S
H2304 C2310 0.950 . S
H2305 C2311 0.950 . S
H2306 C2312 0.949 . S
C2307 H2302 0.950 . S
C2307 C2309 1.327 . S
C2307 C2313 1.429 . S
C2308 C2300 1.574 . S
C2308 H2303 0.949 . S
C2308 C2314 1.368 . S
C2309 C2293 1.349 . S
C2309 H2301 0.950 . S
C2309 C2307 1.327 . S
C2310 C2298 1.349 . S
C2310 H2304 0.950 . S
C2310 C2311 1.327 . S
C2311 H2305 0.950 . S
C2311 C2310 1.327 . S
C2311 C2315 1.429 . S
C2312 C2295 1.574 . S
C2312 H2306 0.949 . S
C2312 C2316 1.368 . S
C2313 C2294 1.429 . S
C2313 C2307 1.429 . S
C2313 C2314 1.523 . S
C2314 C2295 1.368 . S
C2314 C2308 1.368 . S
C2314 C2313 1.523 . S
C2315 C2299 1.429 . S
C2315 C2311 1.429 . S
C2315 C2316 1.523 . S
C2316 C2300 1.368 . S
C2316 C2312 1.368 . S
C2316 C2315 1.523 . S
H2317 C2292 0.950 . S
H2318 C2294 0.950 . S
H2319 C2295 0.949 . S
H2320 C2297 0.950 . S
H2321 C2299 0.950 . S
C2322 C2323 1.349 . S
C2322 C2324 1.327 . S
C2322 H2347 0.950 . S
C2323 C2322 1.349 . S
C2323 C2339 1.349 . S
C2324 C2322 1.327 . S
C2324 C2343 1.429 . S
C2324 H2348 0.950 . S
C2325 C2342 1.574 . S
C2325 C2344 1.368 . S
C2325 H2349 0.949 . S
H2326 C2330 0.949 . S
C2327 C2328 1.349 . S
C2327 C2329 1.327 . S
C2327 H2350 0.950 . S
C2328 C2327 1.349 . S
C2328 C2340 1.349 . S
C2329 C2327 1.327 . S
C2329 C2345 1.429 . S
C2329 H2351 0.950 . S
C2330 H2326 0.949 . S
C2330 C2338 1.574 . S
C2330 C2346 1.368 . S
H2331 C2339 0.950 . S
H2332 C2337 0.950 . S
H2333 C2338 0.949 . S
H2334 C2340 0.950 . S
H2335 C2341 0.950 . S
H2336 C2342 0.949 . S
C2337 H2332 0.950 . S
C2337 C2339 1.327 . S
C2337 C2343 1.429 . S
C2338 C2330 1.574 . S
C2338 H2333 0.949 . S
C2338 C2344 1.368 . S
C2339 C2323 1.349 . S
C2339 H2331 0.950 . S
C2339 C2337 1.327 . S
C2340 C2328 1.349 . S
C2340 H2334 0.950 . S
C2340 C2341 1.327 . S
C2341 H2335 0.950 . S
C2341 C2340 1.327 . S
C2341 C2345 1.429 . S
C2342 C2325 1.574 . S
C2342 H2336 0.949 . S
C2342 C2346 1.368 . S
C2343 C2324 1.429 . S
C2343 C2337 1.429 . S
C2343 C2344 1.523 . S
C2344 C2325 1.368 . S
C2344 C2338 1.368 . S
C2344 C2343 1.523 . S
C2345 C2329 1.429 . S
C2345 C2341 1.429 . S
C2345 C2346 1.523 . S
C2346 C2330 1.368 . S
C2346 C2342 1.368 . S
C2346 C2345 1.523 . S
H2347 C2322 0.950 . S
H2348 C2324 0.950 . S
H2349 C2325 0.949 . S
H2350 C2327 0.950 . S
H2351 C2329 0.950 . S
C2352 C2353 1.349 . S
C2352 C2354 1.327 . S
C2352 H2377 0.950 . S
C2353 C2352 1.349 . S
C2353 C2369 1.349 . S
C2354 C2352 1.327 . S
C2354 C2373 1.429 . S
C2354 H2378 0.950 . S
C2355 C2372 1.574 . S
C2355 C2374 1.368 . S
C2355 H2379 0.949 . S
H2356 C2360 0.949 . S
C2357 C2358 1.349 . S
C2357 C2359 1.327 . S
C2357 H2380 0.950 . S
C2358 C2357 1.349 . S
C2358 C2370 1.349 . S
C2359 C2357 1.327 . S
C2359 C2375 1.429 . S
C2359 H2381 0.950 . S
C2360 H2356 0.949 . S
C2360 C2368 1.574 . S
C2360 C2376 1.368 . S
H2361 C2369 0.950 . S
H2362 C2367 0.950 . S
H2363 C2368 0.949 . S
H2364 C2370 0.950 . S
H2365 C2371 0.950 . S
H2366 C2372 0.949 . S
C2367 H2362 0.950 . S
C2367 C2369 1.327 . S
C2367 C2373 1.429 . S
C2368 C2360 1.574 . S
C2368 H2363 0.949 . S
C2368 C2374 1.368 . S
C2369 C2353 1.349 . S
C2369 H2361 0.950 . S
C2369 C2367 1.327 . S
C2370 C2358 1.349 . S
C2370 H2364 0.950 . S
C2370 C2371 1.327 . S
C2371 H2365 0.950 . S
C2371 C2370 1.327 . S
C2371 C2375 1.429 . S
C2372 C2355 1.574 . S
C2372 H2366 0.949 . S
C2372 C2376 1.368 . S
C2373 C2354 1.429 . S
C2373 C2367 1.429 . S
C2373 C2374 1.523 . S
C2374 C2355 1.368 . S
C2374 C2368 1.368 . S
C2374 C2373 1.523 . S
C2375 C2359 1.429 . S
C2375 C2371 1.429 . S
C2375 C2376 1.523 . S
C2376 C2360 1.368 . S
C2376 C2372 1.368 . S
C2376 C2375 1.523 . S
H2377 C2352 0.950 . S
H2378 C2354 0.950 . S
H2379 C2355 0.949 . S
H2380 C2357 0.950 . S
H2381 C2359 0.950 . S
C2382 C2383 1.349 . S
C2382 C2384 1.327 . S
C2382 H2407 0.950 . S
C2383 C2382 1.349 . S
C2383 C2399 1.349 . S
C2384 C2382 1.327 . S
C2384 C2403 1.429 . S
C2384 H2408 0.950 . S
C2385 C2402 1.574 . S
C2385 C2404 1.368 . S
C2385 H2409 0.949 . S
H2386 C2390 0.949 . S
C2387 C2388 1.349 . S
C2387 C2389 1.327 . S
C2387 H2410 0.950 . S
C2388 C2387 1.349 . S
C2388 C2400 1.349 . S
C2389 C2387 1.327 . S
C2389 C2405 1.429 . S
C2389 H2411 0.950 . S
C2390 H2386 0.949 . S
C2390 C2398 1.574 . S
C2390 C2406 1.368 . S
H2391 C2399 0.950 . S
H2392 C2397 0.950 . S
H2393 C2398 0.949 . S
H2394 C2400 0.950 . S
H2395 C2401 0.950 . S
H2396 C2402 0.949 . S
C2397 H2392 0.950 . S
C2397 C2399 1.327 . S
C2397 C2403 1.429 . S
C2398 C2390 1.574 . S
C2398 H2393 0.949 . S
C2398 C2404 1.368 . S
C2399 C2383 1.349 . S
C2399 H2391 0.950 . S
C2399 C2397 1.327 . S
C2400 C2388 1.349 . S
C2400 H2394 0.950 . S
C2400 C2401 1.327 . S
C2401 H2395 0.950 . S
C2401 C2400 1.327 . S
C2401 C2405 1.429 . S
C2402 C2385 1.574 . S
C2402 H2396 0.949 . S
C2402 C2406 1.368 . S
C2403 C2384 1.429 . S
C2403 C2397 1.429 . S
C2403 C2404 1.523 . S
C2404 C2385 1.368 . S
C2404 C2398 1.368 . S
C2404 C2403 1.523 . S
C2405 C2389 1.429 . S
C2405 C2401 1.429 . S
C2405 C2406 1.523 . S
C2406 C2390 1.368 . S
C2406 C2402 1.368 . S
C2406 C2405 1.523 . S
H2407 C2382 0.950 . S
H2408 C2384 0.950 . S
H2409 C2385 0.949 . S
H2410 C2387 0.950 . S
H2411 C2389 0.950 . S
C2412 C2413 1.349 . S
C2412 C2414 1.327 . S
C2412 H2437 0.950 . S
C2413 C2412 1.349 . S
C2413 C2429 1.349 . S
C2414 C2412 1.327 . S
C2414 C2433 1.429 . S
C2414 H2438 0.950 . S
C2415 C2432 1.574 . S
C2415 C2434 1.368 . S
C2415 H2439 0.949 . S
H2416 C2420 0.949 . S
C2417 C2418 1.349 . S
C2417 C2419 1.327 . S
C2417 H2440 0.950 . S
C2418 C2417 1.349 . S
C2418 C2430 1.349 . S
C2419 C2417 1.327 . S
C2419 C2435 1.429 . S
C2419 H2441 0.950 . S
C2420 H2416 0.949 . S
C2420 C2428 1.574 . S
C2420 C2436 1.368 . S
H2421 C2429 0.950 . S
H2422 C2427 0.950 . S
H2423 C2428 0.949 . S
H2424 C2430 0.950 . S
H2425 C2431 0.950 . S
H2426 C2432 0.949 . S
C2427 H2422 0.950 . S
C2427 C2429 1.327 . S
C2427 C2433 1.429 . S
C2428 C2420 1.574 . S
C2428 H2423 0.949 . S
C2428 C2434 1.368 . S
C2429 C2413 1.349 . S
C2429 H2421 0.950 . S
C2429 C2427 1.327 . S
C2430 C2418 1.349 . S
C2430 H2424 0.950 . S
C2430 C2431 1.327 . S
C2431 H2425 0.950 . S
C2431 C2430 1.327 . S
C2431 C2435 1.429 . S
C2432 C2415 1.574 . S
C2432 H2426 0.949 . S
C2432 C2436 1.368 . S
C2433 C2414 1.429 . S
C2433 C2427 1.429 . S
C2433 C2434 1.523 . S
C2434 C2415 1.368 . S
C2434 C2428 1.368 . S
C2434 C2433 1.523 . S
C2435 C2419 1.429 . S
C2435 C2431 1.429 . S
C2435 C2436 1.523 . S
C2436 C2420 1.368 . S
C2436 C2432 1.368 . S
C2436 C2435 1.523 . S
H2437 C2412 0.950 . S
H2438 C2414 0.950 . S
H2439 C2415 0.949 . S
H2440 C2417 0.950 . S
H2441 C2419 0.950 . S
C2442 C2443 1.349 . S
C2442 C2444 1.327 . S
C2442 H2467 0.950 . S
C2443 C2442 1.349 . S
C2443 C2459 1.349 . S
C2444 C2442 1.327 . S
C2444 C2463 1.429 . S
C2444 H2468 0.950 . S
C2445 C2462 1.574 . S
C2445 C2464 1.368 . S
C2445 H2469 0.949 . S
H2446 C2450 0.949 . S
C2447 C2448 1.349 . S
C2447 C2449 1.327 . S
C2447 H2470 0.950 . S
C2448 C2447 1.349 . S
C2448 C2460 1.349 . S
C2449 C2447 1.327 . S
C2449 C2465 1.429 . S
C2449 H2471 0.950 . S
C2450 H2446 0.949 . S
C2450 C2458 1.574 . S
C2450 C2466 1.368 . S
H2451 C2459 0.950 . S
H2452 C2457 0.950 . S
H2453 C2458 0.949 . S
H2454 C2460 0.950 . S
H2455 C2461 0.950 . S
H2456 C2462 0.949 . S
C2457 H2452 0.950 . S
C2457 C2459 1.327 . S
C2457 C2463 1.429 . S
C2458 C2450 1.574 . S
C2458 H2453 0.949 . S
C2458 C2464 1.368 . S
C2459 C2443 1.349 . S
C2459 H2451 0.950 . S
C2459 C2457 1.327 . S
C2460 C2448 1.349 . S
C2460 H2454 0.950 . S
C2460 C2461 1.327 . S
C2461 H2455 0.950 . S
C2461 C2460 1.327 . S
C2461 C2465 1.429 . S
C2462 C2445 1.574 . S
C2462 H2456 0.949 . S
C2462 C2466 1.368 . S
C2463 C2444 1.429 . S
C2463 C2457 1.429 . S
C2463 C2464 1.523 . S
C2464 C2445 1.368 . S
C2464 C2458 1.368 . S
C2464 C2463 1.523 . S
C2465 C2449 1.429 . S
C2465 C2461 1.429 . S
C2465 C2466 1.523 . S
C2466 C2450 1.368 . S
C2466 C2462 1.368 . S
C2466 C2465 1.523 . S
H2467 C2442 0.950 . S
H2468 C2444 0.950 . S
H2469 C2445 0.949 . S
H2470 C2447 0.950 . S
H2471 C2449 0.950 . S
C2472 C2473 1.349 . S
C2472 C2474 1.327 . S
C2472 H2497 0.950 . S
C2473 C2472 1.349 . S
C2473 C2489 1.349 . S
C2474 C2472 1.327 . S
C2474 C2493 1.429 . S
C2474 H2498 0.950 . S
C2475 C2492 1.574 . S
C2475 C2494 1.368 . S
C2475 H2499 0.949 . S
H2476 C2480 0.949 . S
C2477 C2478 1.349 . S
C2477 C2479 1.327 . S
C2477 H2500 0.950 . S
C2478 C2477 1.349 . S
C2478 C2490 1.349 . S
C2479 C2477 1.327 . S
C2479 C2495 1.429 . S
C2479 H2501 0.950 . S
C2480 H2476 0.949 . S
C2480 C2488 1.574 . S
C2480 C2496 1.368 . S
H2481 C2489 0.950 . S
H2482 C2487 0.950 . S
H2483 C2488 0.949 . S
H2484 C2490 0.950 . S
H2485 C2491 0.950 . S
H2486 C2492 0.949 . S
C2487 H2482 0.950 . S
C2487 C2489 1.327 . S
C2487 C2493 1.429 . S
C2488 C2480 1.574 . S
C2488 H2483 0.949 . S
C2488 C2494 1.368 . S
C2489 C2473 1.349 . S
C2489 H2481 0.950 . S
C2489 C2487 1.327 . S
C2490 C2478 1.349 . S
C2490 H2484 0.950 . S
C2490 C2491 1.327 . S
C2491 H2485 0.950 . S
C2491 C2490 1.327 . S
C2491 C2495 1.429 . S
C2492 C2475 1.574 . S
C2492 H2486 0.949 . S
C2492 C2496 1.368 . S
C2493 C2474 1.429 . S
C2493 C2487 1.429 . S
C2493 C2494 1.523 . S
C2494 C2475 1.368 . S
C2494 C2488 1.368 . S
C2494 C2493 1.523 . S
C2495 C2479 1.429 . S
C2495 C2491 1.429 . S
C2495 C2496 1.523 . S
C2496 C2480 1.368 . S
C2496 C2492 1.368 . S
C2496 C2495 1.523 . S
H2497 C2472 0.950 . S
H2498 C2474 0.950 . S
H2499 C2475 0.949 . S
H2500 C2477 0.950 . S
H2501 C2479 0.950 . S
C2502 C2503 1.349 . S
C2502 C2504 1.327 . S
C2502 H2527 0.950 . S
C2503 C2502 1.349 . S
C2503 C2519 1.349 . S
C2504 C2502 1.327 . S
C2504 C2523 1.429 . S
C2504 H2528 0.950 . S
C2505 C2522 1.574 . S
C2505 C2524 1.368 . S
C2505 H2529 0.949 . S
H2506 C2510 0.949 . S
C2507 C2508 1.349 . S
C2507 C2509 1.327 . S
C2507 H2530 0.950 . S
C2508 C2507 1.349 . S
C2508 C2520 1.349 . S
C2509 C2507 1.327 . S
C2509 C2525 1.429 . S
C2509 H2531 0.950 . S
C2510 H2506 0.949 . S
C2510 C2518 1.574 . S
C2510 C2526 1.368 . S
H2511 C2519 0.950 . S
H2512 C2517 0.950 . S
H2513 C2518 0.949 . S
H2514 C2520 0.950 . S
H2515 C2521 0.950 . S
H2516 C2522 0.949 . S
C2517 H2512 0.950 . S
C2517 C2519 1.327 . S
C2517 C2523 1.429 . S
C2518 C2510 1.574 . S
C2518 H2513 0.949 . S
C2518 C2524 1.368 . S
C2519 C2503 1.349 . S
C2519 H2511 0.950 . S
C2519 C2517 1.327 . S
C2520 C2508 1.349 . S
C2520 H2514 0.950 . S
C2520 C2521 1.327 . S
C2521 H2515 0.950 . S
C2521 C2520 1.327 . S
C2521 C2525 1.429 . S
C2522 C2505 1.574 . S
C2522 H2516 0.949 . S
C2522 C2526 1.368 . S
C2523 C2504 1.429 . S
C2523 C2517 1.429 . S
C2523 C2524 1.523 . S
C2524 C2505 1.368 . S
C2524 C2518 1.368 . S
C2524 C2523 1.523 . S
C2525 C2509 1.429 . S
C2525 C2521 1.429 . S
C2525 C2526 1.523 . S
C2526 C2510 1.368 . S
C2526 C2522 1.368 . S
C2526 C2525 1.523 . S
H2527 C2502 0.950 . S
H2528 C2504 0.950 . S
H2529 C2505 0.949 . S
H2530 C2507 0.950 . S
H2531 C2509 0.950 . S
C2532 C2533 1.349 . S
C2532 C2534 1.327 . S
C2532 H2557 0.950 . S
C2533 C2532 1.349 . S
C2533 C2549 1.349 . S
C2534 C2532 1.327 . S
C2534 C2553 1.429 . S
C2534 H2558 0.950 . S
C2535 C2552 1.574 . S
C2535 C2554 1.368 . S
C2535 H2559 0.949 . S
H2536 C2540 0.949 . S
C2537 C2538 1.349 . S
C2537 C2539 1.327 . S
C2537 H2560 0.950 . S
C2538 C2537 1.349 . S
C2538 C2550 1.349 . S
C2539 C2537 1.327 . S
C2539 C2555 1.429 . S
C2539 H2561 0.950 . S
C2540 H2536 0.949 . S
C2540 C2548 1.574 . S
C2540 C2556 1.368 . S
H2541 C2549 0.950 . S
H2542 C2547 0.950 . S
H2543 C2548 0.949 . S
H2544 C2550 0.950 . S
H2545 C2551 0.950 . S
H2546 C2552 0.949 . S
C2547 H2542 0.950 . S
C2547 C2549 1.327 . S
C2547 C2553 1.429 . S
C2548 C2540 1.574 . S
C2548 H2543 0.949 . S
C2548 C2554 1.368 . S
C2549 C2533 1.349 . S
C2549 H2541 0.950 . S
C2549 C2547 1.327 . S
C2550 C2538 1.349 . S
C2550 H2544 0.950 . S
C2550 C2551 1.327 . S
C2551 H2545 0.950 . S
C2551 C2550 1.327 . S
C2551 C2555 1.429 . S
C2552 C2535 1.574 . S
C2552 H2546 0.949 . S
C2552 C2556 1.368 . S
C2553 C2534 1.429 . S
C2553 C2547 1.429 . S
C2553 C2554 1.523 . S
C2554 C2535 1.368 . S
C2554 C2548 1.368 . S
C2554 C2553 1.523 . S
C2555 C2539 1.429 . S
C2555 C2551 1.429 . S
C2555 C2556 1.523 . S
C2556 C2540 1.368 . S
C2556 C2552 1.368 . S
C2556 C2555 1.523 . S
H2557 C2532 0.950 . S
H2558 C2534 0.950 . S
H2559 C2535 0.949 . S
H2560 C2537 0.950 . S
H2561 C2539 0.950 . S
C2562 C2563 1.349 . S
C2562 C2564 1.327 . S
C2562 H2587 0.950 . S
C2563 C2562 1.349 . S
C2563 C2579 1.349 . S
C2564 C2562 1.327 . S
C2564 C2583 1.429 . S
C2564 H2588 0.950 . S
C2565 C2582 1.574 . S
C2565 C2584 1.368 . S
C2565 H2589 0.949 . S
H2566 C2570 0.949 . S
C2567 C2568 1.349 . S
C2567 C2569 1.327 . S
C2567 H2590 0.950 . S
C2568 C2567 1.349 . S
C2568 C2580 1.349 . S
C2569 C2567 1.327 . S
C2569 C2585 1.429 . S
C2569 H2591 0.950 . S
C2570 H2566 0.949 . S
C2570 C2578 1.574 . S
C2570 C2586 1.368 . S
H2571 C2579 0.950 . S
H2572 C2577 0.950 . S
H2573 C2578 0.949 . S
H2574 C2580 0.950 . S
H2575 C2581 0.950 . S
H2576 C2582 0.949 . S
C2577 H2572 0.950 . S
C2577 C2579 1.327 . S
C2577 C2583 1.429 . S
C2578 C2570 1.574 . S
C2578 H2573 0.949 . S
C2578 C2584 1.368 . S
C2579 C2563 1.349 . S
C2579 H2571 0.950 . S
C2579 C2577 1.327 . S
C2580 C2568 1.349 . S
C2580 H2574 0.950 . S
C2580 C2581 1.327 . S
C2581 H2575 0.950 . S
C2581 C2580 1.327 . S
C2581 C2585 1.429 . S
C2582 C2565 1.574 . S
C2582 H2576 0.949 . S
C2582 C2586 1.368 . S
C2583 C2564 1.429 . S
C2583 C2577 1.429 . S
C2583 C2584 1.523 . S
C2584 C2565 1.368 . S
C2584 C2578 1.368 . S
C2584 C2583 1.523 . S
C2585 C2569 1.429 . S
C2585 C2581 1.429 . S
C2585 C2586 1.523 . S
C2586 C2570 1.368 . S
C2586 C2582 1.368 . S
C2586 C2585 1.523 . S
H2587 C2562 0.950 . S
H2588 C2564 0.950 . S
H2589 C2565 0.949 . S
H2590 C2567 0.950 . S
H2591 C2569 0.950 . S
C2592 C2593 1.349 . S
C2592 C2594 1.327 . S
C2592 H2617 0.950 . S
C2593 C2592 1.349 . S
C2593 C2609 1.349 . S
C2594 C2592 1.327 . S
C2594 C2613 1.429 . S
C2594 H2618 0.950 . S
C2595 C2612 1.574 . S
C2595 C2614 1.368 . S
C2595 H2619 0.949 . S
H2596 C2600 0.949 . S
C2597 C2598 1.349 . S
C2597 C2599 1.327 . S
C2597 H2620 0.950 . S
C2598 C2597 1.349 . S
C2598 C2610 1.349 . S
C2599 C2597 1.327 . S
C2599 C2615 1.429 . S
C2599 H2621 0.950 . S
C2600 H2596 0.949 . S
C2600 C2608 1.574 . S
C2600 C2616 1.368 . S
H2601 C2609 0.950 . S
H2602 C2607 0.950 . S
H2603 C2608 0.949 . S
H2604 C2610 0.950 . S
H2605 C2611 0.950 . S
H2606 C2612 0.949 . S
C2607 H2602 0.950 . S
C2607 C2609 1.327 . S
C2607 C2613 1.429 . S
C2608 C2600 1.574 . S
C2608 H2603 0.949 . S
C2608 C2614 1.368 . S
C2609 C2593 1.349 . S
C2609 H2601 0.950 . S
C2609 C2607 1.327 . S
C2610 C2598 1.349 . S
C2610 H2604 0.950 . S
C2610 C2611 1.327 . S
C2611 H2605 0.950 . S
C2611 C2610 1.327 . S
C2611 C2615 1.429 . S
C2612 C2595 1.574 . S
C2612 H2606 0.949 . S
C2612 C2616 1.368 . S
C2613 C2594 1.429 . S
C2613 C2607 1.429 . S
C2613 C2614 1.523 . S
C2614 C2595 1.368 . S
C2614 C2608 1.368 . S
C2614 C2613 1.523 . S
C2615 C2599 1.429 . S
C2615 C2611 1.429 . S
C2615 C2616 1.523 . S
C2616 C2600 1.368 . S
C2616 C2612 1.368 . S
C2616 C2615 1.523 . S
H2617 C2592 0.950 . S
H2618 C2594 0.950 . S
H2619 C2595 0.949 . S
H2620 C2597 0.950 . S
H2621 C2599 0.950 . S
C2622 C2623 1.349 . S
C2622 C2624 1.327 . S
C2622 H2647 0.950 . S
C2623 C2622 1.349 . S
C2623 C2639 1.349 . S
C2624 C2622 1.327 . S
C2624 C2643 1.429 . S
C2624 H2648 0.950 . S
C2625 C2642 1.574 . S
C2625 C2644 1.368 . S
C2625 H2649 0.949 . S
H2626 C2630 0.949 . S
C2627 C2628 1.349 . S
C2627 C2629 1.327 . S
C2627 H2650 0.950 . S
C2628 C2627 1.349 . S
C2628 C2640 1.349 . S
C2629 C2627 1.327 . S
C2629 C2645 1.429 . S
C2629 H2651 0.950 . S
C2630 H2626 0.949 . S
C2630 C2638 1.574 . S
C2630 C2646 1.368 . S
H2631 C2639 0.950 . S
H2632 C2637 0.950 . S
H2633 C2638 0.949 . S
H2634 C2640 0.950 . S
H2635 C2641 0.950 . S
H2636 C2642 0.949 . S
C2637 H2632 0.950 . S
C2637 C2639 1.327 . S
C2637 C2643 1.429 . S
C2638 C2630 1.574 . S
C2638 H2633 0.949 . S
C2638 C2644 1.368 . S
C2639 C2623 1.349 . S
C2639 H2631 0.950 . S
C2639 C2637 1.327 . S
C2640 C2628 1.349 . S
C2640 H2634 0.950 . S
C2640 C2641 1.327 . S
C2641 H2635 0.950 . S
C2641 C2640 1.327 . S
C2641 C2645 1.429 . S
C2642 C2625 1.574 . S
C2642 H2636 0.949 . S
C2642 C2646 1.368 . S
C2643 C2624 1.429 . S
C2643 C2637 1.429 . S
C2643 C2644 1.523 . S
C2644 C2625 1.368 . S
C2644 C2638 1.368 . S
C2644 C2643 1.523 . S
C2645 C2629 1.429 . S
C2645 C2641 1.429 . S
C2645 C2646 1.523 . S
C2646 C2630 1.368 . S
C2646 C2642 1.368 . S
C2646 C2645 1.523 . S
H2647 C2622 0.950 . S
H2648 C2624 0.950 . S
H2649 C2625 0.949 . S
H2650 C2627 0.950 . S
H2651 C2629 0.950 . S
C2652 C2653 1.349 . S
C2652 C2654 1.327 . S
C2652 H2677 0.950 . S
C2653 C2652 1.349 . S
C2653 C2669 1.349 . S
C2654 C2652 1.327 . S
C2654 C2673 1.429 . S
C2654 H2678 0.950 . S
C2655 C2672 1.574 . S
C2655 C2674 1.368 . S
C2655 H2679 0.949 . S
H2656 C2660 0.949 . S
C2657 C2658 1.349 . S
C2657 C2659 1.327 . S
C2657 H2680 0.950 . S
C2658 C2657 1.349 . S
C2658 C2670 1.349 . S
C2659 C2657 1.327 . S
C2659 C2675 1.429 . S
C2659 H2681 0.950 . S
C2660 H2656 0.949 . S
C2660 C2668 1.574 . S
C2660 C2676 1.368 . S
H2661 C2669 0.950 . S
H2662 C2667 0.950 . S
H2663 C2668 0.949 . S
H2664 C2670 0.950 . S
H2665 C2671 0.950 . S
H2666 C2672 0.949 . S
C2667 H2662 0.950 . S
C2667 C2669 1.327 . S
C2667 C2673 1.429 . S
C2668 C2660 1.574 . S
C2668 H2663 0.949 . S
C2668 C2674 1.368 . S
C2669 C2653 1.349 . S
C2669 H2661 0.950 . S
C2669 C2667 1.327 . S
C2670 C2658 1.349 . S
C2670 H2664 0.950 . S
C2670 C2671 1.327 . S
C2671 H2665 0.950 . S
C2671 C2670 1.327 . S
C2671 C2675 1.429 . S
C2672 C2655 1.574 . S
C2672 H2666 0.949 . S
C2672 C2676 1.368 . S
C2673 C2654 1.429 . S
C2673 C2667 1.429 . S
C2673 C2674 1.523 . S
C2674 C2655 1.368 . S
C2674 C2668 1.368 . S
C2674 C2673 1.523 . S
C2675 C2659 1.429 . S
C2675 C2671 1.429 . S
C2675 C2676 1.523 . S
C2676 C2660 1.368 . S
C2676 C2672 1.368 . S
C2676 C2675 1.523 . S
H2677 C2652 0.950 . S
H2678 C2654 0.950 . S
H2679 C2655 0.949 . S
H2680 C2657 0.950 . S
H2681 C2659 0.950 . S
C2682 C2683 1.349 . S
C2682 C2684 1.327 . S
C2682 H2707 0.950 . S
C2683 C2682 1.349 . S
C2683 C2699 1.349 . S
C2684 C2682 1.327 . S
C2684 C2703 1.429 . S
C2684 H2708 0.950 . S
C2685 C2702 1.574 . S
C2685 C2704 1.368 . S
C2685 H2709 0.949 . S
H2686 C2690 0.949 . S
C2687 C2688 1.349 . S
C2687 C2689 1.327 . S
C2687 H2710 0.950 . S
C2688 C2687 1.349 . S
C2688 C2700 1.349 . S
C2689 C2687 1.327 . S
C2689 C2705 1.429 . S
C2689 H2711 0.950 . S
C2690 H2686 0.949 . S
C2690 C2698 1.574 . S
C2690 C2706 1.368 . S
H2691 C2699 0.950 . S
H2692 C2697 0.950 . S
H2693 C2698 0.949 . S
H2694 C2700 0.950 . S
H2695 C2701 0.950 . S
H2696 C2702 0.949 . S
C2697 H2692 0.950 . S
C2697 C2699 1.327 . S
C2697 C2703 1.429 . S
C2698 C2690 1.574 . S
C2698 H2693 0.949 . S
C2698 C2704 1.368 . S
C2699 C2683 1.349 . S
C2699 H2691 0.950 . S
C2699 C2697 1.327 . S
C2700 C2688 1.349 . S
C2700 H2694 0.950 . S
C2700 C2701 1.327 . S
C2701 H2695 0.950 . S
C2701 C2700 1.327 . S
C2701 C2705 1.429 . S
C2702 C2685 1.574 . S
C2702 H2696 0.949 . S
C2702 C2706 1.368 . S
C2703 C2684 1.429 . S
C2703 C2697 1.429 . S
C2703 C2704 1.523 . S
C2704 C2685 1.368 . S
C2704 C2698 1.368 . S
C2704 C2703 1.523 . S
C2705 C2689 1.429 . S
C2705 C2701 1.429 . S
C2705 C2706 1.523 . S
C2706 C2690 1.368 . S
C2706 C2702 1.368 . S
C2706 C2705 1.523 . S
H2707 C2682 0.950 . S
H2708 C2684 0.950 . S
H2709 C2685 0.949 . S
H2710 C2687 0.950 . S
H2711 C2689 0.950 . S
C2712 C2713 1.349 . S
C2712 C2714 1.327 . S
C2712 H2737 0.950 . S
C2713 C2712 1.349 . S
C2713 C2729 1.349 . S
C2714 C2712 1.327 . S
C2714 C2733 1.429 . S
C2714 H2738 0.950 . S
C2715 C2732 1.574 . S
C2715 C2734 1.368 . S
C2715 H2739 0.949 . S
H2716 C2720 0.949 . S
C2717 C2718 1.349 . S
C2717 C2719 1.327 . S
C2717 H2740 0.950 . S
C2718 C2717 1.349 . S
C2718 C2730 1.349 . S
C2719 C2717 1.327 . S
C2719 C2735 1.429 . S
C2719 H2741 0.950 . S
C2720 H2716 0.949 . S
C2720 C2728 1.574 . S
C2720 C2736 1.368 . S
H2721 C2729 0.950 . S
H2722 C2727 0.950 . S
H2723 C2728 0.949 . S
H2724 C2730 0.950 . S
H2725 C2731 0.950 . S
H2726 C2732 0.949 . S
C2727 H2722 0.950 . S
C2727 C2729 1.327 . S
C2727 C2733 1.429 . S
C2728 C2720 1.574 . S
C2728 H2723 0.949 . S
C2728 C2734 1.368 . S
C2729 C2713 1.349 . S
C2729 H2721 0.950 . S
C2729 C2727 1.327 . S
C2730 C2718 1.349 . S
C2730 H2724 0.950 . S
C2730 C2731 1.327 . S
C2731 H2725 0.950 . S
C2731 C2730 1.327 . S
C2731 C2735 1.429 . S
C2732 C2715 1.574 . S
C2732 H2726 0.949 . S
C2732 C2736 1.368 . S
C2733 C2714 1.429 . S
C2733 C2727 1.429 . S
C2733 C2734 1.523 . S
C2734 C2715 1.368 . S
C2734 C2728 1.368 . S
C2734 C2733 1.523 . S
C2735 C2719 1.429 . S
C2735 C2731 1.429 . S
C2735 C2736 1.523 . S
C2736 C2720 1.368 . S
C2736 C2732 1.368 . S
C2736 C2735 1.523 . S
H2737 C2712 0.950 . S
H2738 C2714 0.950 . S
H2739 C2715 0.949 . S
H2740 C2717 0.950 . S
H2741 C2719 0.950 . S
C2742 C2743 1.349 . S
C2742 C2744 1.327 . S
C2742 H2767 0.950 . S
C2743 C2742 1.349 . S
C2743 C2759 1.349 . S
C2744 C2742 1.327 . S
C2744 C2763 1.429 . S
C2744 H2768 0.950 . S
C2745 C2762 1.574 . S
C2745 C2764 1.368 . S
C2745 H2769 0.949 . S
H2746 C2750 0.949 . S
C2747 C2748 1.349 . S
C2747 C2749 1.327 . S
C2747 H2770 0.950 . S
C2748 C2747 1.349 . S
C2748 C2760 1.349 . S
C2749 C2747 1.327 . S
C2749 C2765 1.429 . S
C2749 H2771 0.950 . S
C2750 H2746 0.949 . S
C2750 C2758 1.574 . S
C2750 C2766 1.368 . S
H2751 C2759 0.950 . S
H2752 C2757 0.950 . S
H2753 C2758 0.949 . S
H2754 C2760 0.950 . S
H2755 C2761 0.950 . S
H2756 C2762 0.949 . S
C2757 H2752 0.950 . S
C2757 C2759 1.327 . S
C2757 C2763 1.429 . S
C2758 C2750 1.574 . S
C2758 H2753 0.949 . S
C2758 C2764 1.368 . S
C2759 C2743 1.349 . S
C2759 H2751 0.950 . S
C2759 C2757 1.327 . S
C2760 C2748 1.349 . S
C2760 H2754 0.950 . S
C2760 C2761 1.327 . S
C2761 H2755 0.950 . S
C2761 C2760 1.327 . S
C2761 C2765 1.429 . S
C2762 C2745 1.574 . S
C2762 H2756 0.949 . S
C2762 C2766 1.368 . S
C2763 C2744 1.429 . S
C2763 C2757 1.429 . S
C2763 C2764 1.523 . S
C2764 C2745 1.368 . S
C2764 C2758 1.368 . S
C2764 C2763 1.523 . S
C2765 C2749 1.429 . S
C2765 C2761 1.429 . S
C2765 C2766 1.523 . S
C2766 C2750 1.368 . S
C2766 C2762 1.368 . S
C2766 C2765 1.523 . S
H2767 C2742 0.950 . S
H2768 C2744 0.950 . S
H2769 C2745 0.949 . S
H2770 C2747 0.950 . S
H2771 C2749 0.950 . S
C2772 C2773 1.349 . S
C2772 C2774 1.327 . S
C2772 H2797 0.950 . S
C2773 C2772 1.349 . S
C2773 C2789 1.349 . S
C2774 C2772 1.327 . S
C2774 C2793 1.429 . S
C2774 H2798 0.950 . S
C2775 C2792 1.574 . S
C2775 C2794 1.368 . S
C2775 H2799 0.949 . S
H2776 C2780 0.949 . S
C2777 C2778 1.349 . S
C2777 C2779 1.327 . S
C2777 H2800 0.950 . S
C2778 C2777 1.349 . S
C2778 C2790 1.349 . S
C2779 C2777 1.327 . S
C2779 C2795 1.429 . S
C2779 H2801 0.950 . S
C2780 H2776 0.949 . S
C2780 C2788 1.574 . S
C2780 C2796 1.368 . S
H2781 C2789 0.950 . S
H2782 C2787 0.950 . S
H2783 C2788 0.949 . S
H2784 C2790 0.950 . S
H2785 C2791 0.950 . S
H2786 C2792 0.949 . S
C2787 H2782 0.950 . S
C2787 C2789 1.327 . S
C2787 C2793 1.429 . S
C2788 C2780 1.574 . S
C2788 H2783 0.949 . S
C2788 C2794 1.368 . S
C2789 C2773 1.349 . S
C2789 H2781 0.950 . S
C2789 C2787 1.327 . S
C2790 C2778 1.349 . S
C2790 H2784 0.950 . S
C2790 C2791 1.327 . S
C2791 H2785 0.950 . S
C2791 C2790 1.327 . S
C2791 C2795 1.429 . S
C2792 C2775 1.574 . S
C2792 H2786 0.949 . S
C2792 C2796 1.368 . S
C2793 C2774 1.429 . S
C2793 C2787 1.429 . S
C2793 C2794 1.523 . S
C2794 C2775 1.368 . S
C2794 C2788 1.368 . S
C2794 C2793 1.523 . S
C2795 C2779 1.429 . S
C2795 C2791 1.429 . S
C2795 C2796 1.523 . S
C2796 C2780 1.368 . S
C2796 C2792 1.368 . S
C2796 C2795 1.523 . S
H2797 C2772 0.950 . S
H2798 C2774 0.950 . S
H2799 C2775 0.949 . S
H2800 C2777 0.950 . S
H2801 C2779 0.950 . S
C2802 C2803 1.349 . S
C2802 C2804 1.327 . S
C2802 H2827 0.950 . S
C2803 C2802 1.349 . S
C2803 C2819 1.349 . S
C2804 C2802 1.327 . S
C2804 C2823 1.429 . S
C2804 H2828 0.950 . S
C2805 C2822 1.574 . S
C2805 C2824 1.368 . S
C2805 H2829 0.949 . S
H2806 C2810 0.949 . S
C2807 C2808 1.349 . S
C2807 C2809 1.327 . S
C2807 H2830 0.950 . S
C2808 C2807 1.349 . S
C2808 C2820 1.349 . S
C2809 C2807 1.327 . S
C2809 C2825 1.429 . S
C2809 H2831 0.950 . S
C2810 H2806 0.949 . S
C2810 C2818 1.574 . S
C2810 C2826 1.368 . S
H2811 C2819 0.950 . S
H2812 C2817 0.950 . S
H2813 C2818 0.949 . S
H2814 C2820 0.950 . S
H2815 C2821 0.950 . S
H2816 C2822 0.949 . S
C2817 H2812 0.950 . S
C2817 C2819 1.327 . S
C2817 C2823 1.429 . S
C2818 C2810 1.574 . S
C2818 H2813 0.949 . S
C2818 C2824 1.368 . S
C2819 C2803 1.349 . S
C2819 H2811 0.950 . S
C2819 C2817 1.327 . S
C2820 C2808 1.349 . S
C2820 H2814 0.950 . S
C2820 C2821 1.327 . S
C2821 H2815 0.950 . S
C2821 C2820 1.327 . S
C2821 C2825 1.429 . S
C2822 C2805 1.574 . S
C2822 H2816 0.949 . S
C2822 C2826 1.368 . S
C2823 C2804 1.429 . S
C2823 C2817 1.429 . S
C2823 C2824 1.523 . S
C2824 C2805 1.368 . S
C2824 C2818 1.368 . S
C2824 C2823 1.523 . S
C2825 C2809 1.429 . S
C2825 C2821 1.429 . S
C2825 C2826 1.523 . S
C2826 C2810 1.368 . S
C2826 C2822 1.368 . S
C2826 C2825 1.523 . S
H2827 C2802 0.950 . S
H2828 C2804 0.950 . S
H2829 C2805 0.949 . S
H2830 C2807 0.950 . S
H2831 C2809 0.950 . S
C2832 C2833 1.364 . S
C2832 C2834 1.326 . S
C2832 H2857 0.933 1_655 S
C2833 C2832 1.364 . S
C2833 C2849 1.349 . S
C2834 C2832 1.326 . S
C2834 C2853 1.483 . S
C2834 H2858 0.905 1_655 S
C2835 C2852 1.574 . S
C2835 C2854 1.368 . S
C2835 H2859 0.949 . S
H2836 C2840 0.929 1_455 S
C2837 C2838 1.349 . S
C2837 C2839 1.327 . S
C2837 H2860 0.950 . S
C2838 C2837 1.349 . S
C2838 C2850 1.349 . S
C2839 C2837 1.327 . S
C2839 C2855 1.429 . S
C2839 H2861 0.950 . S
C2840 H2836 0.929 1_655 S
C2840 C2848 1.574 . S
C2840 C2856 1.368 . S
H2841 C2849 0.950 . S
H2842 C2847 0.950 . S
H2843 C2848 0.949 1_455 S
H2844 C2850 0.950 . S
H2845 C2851 0.982 . S
H2846 C2852 0.949 . S
C2847 H2842 0.950 . S
C2847 C2849 1.327 . S
C2847 C2853 1.429 . S
C2848 C2840 1.574 . S
C2848 H2843 0.949 1_655 S
C2848 C2854 1.368 . S
C2849 C2833 1.349 . S
C2849 H2841 0.950 . S
C2849 C2847 1.327 . S
C2850 C2838 1.349 . S
C2850 H2844 0.950 . S
C2850 C2851 1.327 . S
C2851 H2845 0.982 . S
C2851 C2850 1.327 . S
C2851 C2855 1.429 . S
C2852 C2835 1.574 . S
C2852 H2846 0.949 . S
C2852 C2856 1.368 . S
C2853 C2834 1.483 . S
C2853 C2847 1.429 . S
C2853 C2854 1.523 . S
C2854 C2835 1.368 . S
C2854 C2848 1.368 . S
C2854 C2853 1.523 . S
C2855 C2839 1.429 . S
C2855 C2851 1.429 . S
C2855 C2856 1.523 . S
C2856 C2840 1.368 . S
C2856 C2852 1.368 . S
C2856 C2855 1.523 . S
H2857 C2832 0.933 1_455 S
H2858 C2834 0.905 1_455 S
H2859 C2835 0.949 . S
H2860 C2837 0.950 . S
H2861 C2839 0.950 . S
C2862 C2863 1.349 . S
C2862 C2864 1.327 . S
C2862 H2887 0.950 . S
C2863 C2862 1.349 . S
C2863 C2879 1.349 . S
C2864 C2862 1.327 . S
C2864 C2883 1.429 . S
C2864 H2888 0.950 . S
C2865 C2882 1.574 . S
C2865 C2884 1.368 . S
C2865 H2889 0.949 . S
H2866 C2870 0.949 . S
C2867 C2868 1.349 . S
C2867 C2869 1.327 . S
C2867 H2890 0.950 . S
C2868 C2867 1.349 . S
C2868 C2880 1.349 . S
C2869 C2867 1.327 . S
C2869 C2885 1.429 . S
C2869 H2891 0.950 . S
C2870 H2866 0.949 . S
C2870 C2878 1.574 . S
C2870 C2886 1.368 . S
H2871 C2879 0.950 . S
H2872 C2877 0.950 . S
H2873 C2878 0.949 . S
H2874 C2880 0.950 . S
H2875 C2881 0.950 . S
H2876 C2882 0.949 . S
C2877 H2872 0.950 . S
C2877 C2879 1.327 . S
C2877 C2883 1.429 . S
C2878 C2870 1.574 . S
C2878 H2873 0.949 . S
C2878 C2884 1.368 . S
C2879 C2863 1.349 . S
C2879 H2871 0.950 . S
C2879 C2877 1.327 . S
C2880 C2868 1.349 . S
C2880 H2874 0.950 . S
C2880 C2881 1.327 . S
C2881 H2875 0.950 . S
C2881 C2880 1.327 . S
C2881 C2885 1.429 . S
C2882 C2865 1.574 . S
C2882 H2876 0.949 . S
C2882 C2886 1.368 . S
C2883 C2864 1.429 . S
C2883 C2877 1.429 . S
C2883 C2884 1.523 . S
C2884 C2865 1.368 . S
C2884 C2878 1.368 . S
C2884 C2883 1.523 . S
C2885 C2869 1.429 . S
C2885 C2881 1.429 . S
C2885 C2886 1.523 . S
C2886 C2870 1.368 . S
C2886 C2882 1.368 . S
C2886 C2885 1.523 . S
H2887 C2862 0.950 . S
H2888 C2864 0.950 . S
H2889 C2865 0.949 . S
H2890 C2867 0.950 . S
H2891 C2869 0.950 . S
C2892 C2893 1.349 . S
C2892 C2894 1.327 . S
C2892 H2917 0.950 . S
C2893 C2892 1.349 . S
C2893 C2909 1.349 . S
C2894 C2892 1.327 . S
C2894 C2913 1.429 . S
C2894 H2918 0.950 . S
C2895 C2912 1.574 . S
C2895 C2914 1.368 . S
C2895 H2919 0.949 . S
H2896 C2900 0.949 . S
C2897 C2898 1.349 . S
C2897 C2899 1.327 . S
C2897 H2920 0.950 . S
C2898 C2897 1.349 . S
C2898 C2910 1.349 . S
C2899 C2897 1.327 . S
C2899 C2915 1.429 . S
C2899 H2921 0.950 . S
C2900 H2896 0.949 . S
C2900 C2908 1.574 . S
C2900 C2916 1.368 . S
H2901 C2909 0.950 . S
H2902 C2907 0.950 . S
H2903 C2908 0.949 . S
H2904 C2910 0.950 . S
H2905 C2911 0.950 . S
H2906 C2912 0.949 . S
C2907 H2902 0.950 . S
C2907 C2909 1.327 . S
C2907 C2913 1.429 . S
C2908 C2900 1.574 . S
C2908 H2903 0.949 . S
C2908 C2914 1.368 . S
C2909 C2893 1.349 . S
C2909 H2901 0.950 . S
C2909 C2907 1.327 . S
C2910 C2898 1.349 . S
C2910 H2904 0.950 . S
C2910 C2911 1.327 . S
C2911 H2905 0.950 . S
C2911 C2910 1.327 . S
C2911 C2915 1.429 . S
C2912 C2895 1.574 . S
C2912 H2906 0.949 . S
C2912 C2916 1.368 . S
C2913 C2894 1.429 . S
C2913 C2907 1.429 . S
C2913 C2914 1.523 . S
C2914 C2895 1.368 . S
C2914 C2908 1.368 . S
C2914 C2913 1.523 . S
C2915 C2899 1.429 . S
C2915 C2911 1.429 . S
C2915 C2916 1.523 . S
C2916 C2900 1.368 . S
C2916 C2912 1.368 . S
C2916 C2915 1.523 . S
H2917 C2892 0.950 . S
H2918 C2894 0.950 . S
H2919 C2895 0.949 . S
H2920 C2897 0.950 . S
H2921 C2899 0.950 . S
C2922 C2923 1.349 1_554 S
C2922 C2924 1.327 . S
C2922 H2947 0.950 . S
C2923 C2922 1.349 1_556 S
C2923 C2939 1.349 . S
C2924 C2922 1.327 . S
C2924 C2943 1.429 1_554 S
C2924 H2948 0.950 . S
C2925 C2942 1.574 . S
C2925 C2944 1.368 . S
C2925 H2949 0.949 . S
H2926 C2930 1.001 . S
C2927 C2928 1.349 . S
C2927 C2929 1.327 . S
C2927 H2950 0.950 . S
C2928 C2927 1.349 . S
C2928 C2940 1.349 . S
C2929 C2927 1.327 . S
C2929 C2945 1.429 . S
C2929 H2951 0.950 . S
C2930 H2926 1.001 . S
C2930 C2938 1.580 . S
C2930 C2946 1.307 1_554 S
H2931 C2939 0.950 . S
H2932 C2937 0.950 . S
H2933 C2938 0.949 . S
H2934 C2940 0.950 1_554 S
H2935 C2941 0.950 1_554 S
H2936 C2942 0.949 . S
C2937 H2932 0.950 . S
C2937 C2939 1.327 . S
C2937 C2943 1.429 . S
C2938 C2930 1.580 . S
C2938 H2933 0.949 . S
C2938 C2944 1.368 1_554 S
C2939 C2923 1.349 . S
C2939 H2931 0.950 . S
C2939 C2937 1.327 . S
C2940 C2928 1.349 . S
C2940 H2934 0.950 1_556 S
C2940 C2941 1.327 . S
C2941 H2935 0.950 1_556 S
C2941 C2940 1.327 . S
C2941 C2945 1.429 . S
C2942 C2925 1.574 . S
C2942 H2936 0.949 . S
C2942 C2946 1.368 . S
C2943 C2924 1.429 1_556 S
C2943 C2937 1.429 . S
C2943 C2944 1.523 . S
C2944 C2925 1.368 . S
C2944 C2938 1.368 1_556 S
C2944 C2943 1.523 . S
C2945 C2929 1.429 . S
C2945 C2941 1.429 . S
C2945 C2946 1.523 . S
C2946 C2930 1.307 1_556 S
C2946 C2942 1.368 . S
C2946 C2945 1.523 . S
H2947 C2922 0.950 . S
H2948 C2924 0.950 . S
H2949 C2925 0.949 . S
H2950 C2927 0.950 . S
H2951 C2929 0.950 . S
C2952 C2953 1.349 . S
C2952 C2954 1.327 . S
C2952 H2977 0.950 . S
C2953 C2952 1.349 . S
C2953 C2969 1.349 . S
C2954 C2952 1.327 . S
C2954 C2973 1.429 . S
C2954 H2978 0.950 . S
C2955 C2972 1.574 . S
C2955 C2974 1.368 . S
C2955 H2979 0.938 1_655 S
H2956 C2960 0.949 . S
C2957 C2958 1.374 . S
C2957 C2959 1.331 . S
C2957 H2980 0.922 1_655 S
C2958 C2957 1.374 . S
C2958 C2970 1.349 . S
C2959 C2957 1.331 . S
C2959 C2975 1.429 . S
C2959 H2981 0.950 1_655 S
C2960 H2956 0.949 . S
C2960 C2968 1.574 . S
C2960 C2976 1.368 . S
H2961 C2969 0.950 . S
H2962 C2967 0.995 . S
H2963 C2968 0.949 . S
H2964 C2970 0.950 . S
H2965 C2971 0.950 . S
H2966 C2972 0.949 1_455 S
C2967 H2962 0.995 . S
C2967 C2969 1.327 . S
C2967 C2973 1.429 . S
C2968 C2960 1.574 . S
C2968 H2963 0.949 . S
C2968 C2974 1.368 . S
C2969 C2953 1.349 . S
C2969 H2961 0.950 . S
C2969 C2967 1.327 . S
C2970 C2958 1.349 . S
C2970 H2964 0.950 . S
C2970 C2971 1.327 . S
C2971 H2965 0.950 . S
C2971 C2970 1.327 . S
C2971 C2975 1.429 . S
C2972 C2955 1.574 . S
C2972 H2966 0.949 1_655 S
C2972 C2976 1.368 . S
C2973 C2954 1.429 . S
C2973 C2967 1.429 . S
C2973 C2974 1.523 . S
C2974 C2955 1.368 . S
C2974 C2968 1.368 . S
C2974 C2973 1.523 . S
C2975 C2959 1.429 . S
C2975 C2971 1.429 . S
C2975 C2976 1.523 . S
C2976 C2960 1.368 . S
C2976 C2972 1.368 . S
C2976 C2975 1.523 . S
H2977 C2952 0.950 . S
H2978 C2954 0.950 . S
H2979 C2955 0.938 1_455 S
H2980 C2957 0.922 1_455 S
H2981 C2959 0.950 1_455 S
C2982 C2983 1.349 . S
C2982 C2984 1.327 . S
C2982 H3007 0.950 . S
C2983 C2982 1.349 . S
C2983 C2999 1.349 . S
C2984 C2982 1.327 . S
C2984 C3003 1.429 . S
C2984 H3008 0.950 . S
C2985 C3002 1.574 . S
C2985 C3004 1.368 . S
C2985 H3009 0.949 . S
H2986 C2990 0.949 . S
C2987 C2988 1.349 . S
C2987 C2989 1.327 . S
C2987 H3010 0.950 . S
C2988 C2987 1.349 . S
C2988 C3000 1.349 . S
C2989 C2987 1.327 . S
C2989 C3005 1.429 . S
C2989 H3011 0.950 . S
C2990 H2986 0.949 . S
C2990 C2998 1.574 . S
C2990 C3006 1.368 . S
H2991 C2999 0.950 . S
H2992 C2997 0.950 . S
H2993 C2998 0.949 . S
H2994 C3000 0.950 . S
H2995 C3001 0.950 . S
H2996 C3002 0.949 . S
C2997 H2992 0.950 . S
C2997 C2999 1.327 . S
C2997 C3003 1.429 . S
C2998 C2990 1.574 . S
C2998 H2993 0.949 . S
C2998 C3004 1.368 . S
C2999 C2983 1.349 . S
C2999 H2991 0.950 . S
C2999 C2997 1.327 . S
C3000 C2988 1.349 . S
C3000 H2994 0.950 . S
C3000 C3001 1.327 . S
C3001 H2995 0.950 . S
C3001 C3000 1.327 . S
C3001 C3005 1.429 . S
C3002 C2985 1.574 . S
C3002 H2996 0.949 . S
C3002 C3006 1.368 . S
C3003 C2984 1.429 . S
C3003 C2997 1.429 . S
C3003 C3004 1.523 . S
C3004 C2985 1.368 . S
C3004 C2998 1.368 . S
C3004 C3003 1.523 . S
C3005 C2989 1.429 . S
C3005 C3001 1.429 . S
C3005 C3006 1.523 . S
C3006 C2990 1.368 . S
C3006 C3002 1.368 . S
C3006 C3005 1.523 . S
H3007 C2982 0.950 . S
H3008 C2984 0.950 . S
H3009 C2985 0.949 . S
H3010 C2987 0.950 . S
H3011 C2989 0.950 . S
C3012 C3013 1.349 . S
C3012 C3014 1.327 . S
C3012 H3037 0.950 . S
C3013 C3012 1.349 . S
C3013 C3029 1.349 . S
C3014 C3012 1.327 . S
C3014 C3033 1.429 . S
C3014 H3038 0.950 . S
C3015 C3032 1.574 . S
C3015 C3034 1.368 . S
C3015 H3039 0.949 . S
H3016 C3020 0.949 . S
C3017 C3018 1.349 . S
C3017 C3019 1.327 . S
C3017 H3040 0.950 . S
C3018 C3017 1.349 . S
C3018 C3030 1.349 . S
C3019 C3017 1.327 . S
C3019 C3035 1.429 . S
C3019 H3041 0.950 . S
C3020 H3016 0.949 . S
C3020 C3028 1.574 . S
C3020 C3036 1.368 . S
H3021 C3029 0.950 . S
H3022 C3027 0.950 . S
H3023 C3028 0.949 . S
H3024 C3030 0.950 . S
H3025 C3031 0.950 . S
H3026 C3032 0.949 . S
C3027 H3022 0.950 . S
C3027 C3029 1.327 . S
C3027 C3033 1.429 . S
C3028 C3020 1.574 . S
C3028 H3023 0.949 . S
C3028 C3034 1.368 . S
C3029 C3013 1.349 . S
C3029 H3021 0.950 . S
C3029 C3027 1.327 . S
C3030 C3018 1.349 . S
C3030 H3024 0.950 . S
C3030 C3031 1.327 . S
C3031 H3025 0.950 . S
C3031 C3030 1.327 . S
C3031 C3035 1.429 . S
C3032 C3015 1.574 . S
C3032 H3026 0.949 . S
C3032 C3036 1.368 . S
C3033 C3014 1.429 . S
C3033 C3027 1.429 . S
C3033 C3034 1.523 . S
C3034 C3015 1.368 . S
C3034 C3028 1.368 . S
C3034 C3033 1.523 . S
C3035 C3019 1.429 . S
C3035 C3031 1.429 . S
C3035 C3036 1.523 . S
C3036 C3020 1.368 . S
C3036 C3032 1.368 . S
C3036 C3035 1.523 . S
H3037 C3012 0.950 . S
H3038 C3014 0.950 . S
H3039 C3015 0.949 . S
H3040 C3017 0.950 . S
H3041 C3019 0.950 . S
C3042 C3043 1.349 . S
C3042 C3044 1.327 . S
C3042 H3067 0.950 . S
C3043 C3042 1.349 . S
C3043 C3059 1.349 . S
C3044 C3042 1.327 . S
C3044 C3063 1.429 . S
C3044 H3068 0.950 . S
C3045 C3062 1.574 . S
C3045 C3064 1.368 . S
C3045 H3069 0.949 . S
H3046 C3050 0.949 . S
C3047 C3048 1.349 . S
C3047 C3049 1.327 . S
C3047 H3070 0.950 . S
C3048 C3047 1.349 . S
C3048 C3060 1.349 . S
C3049 C3047 1.327 . S
C3049 C3065 1.429 . S
C3049 H3071 0.950 . S
C3050 H3046 0.949 . S
C3050 C3058 1.574 . S
C3050 C3066 1.368 . S
H3051 C3059 0.950 . S
H3052 C3057 0.950 . S
H3053 C3058 0.949 . S
H3054 C3060 0.950 . S
H3055 C3061 0.950 . S
H3056 C3062 0.949 . S
C3057 H3052 0.950 . S
C3057 C3059 1.327 . S
C3057 C3063 1.429 . S
C3058 C3050 1.574 . S
C3058 H3053 0.949 . S
C3058 C3064 1.368 . S
C3059 C3043 1.349 . S
C3059 H3051 0.950 . S
C3059 C3057 1.327 . S
C3060 C3048 1.349 . S
C3060 H3054 0.950 . S
C3060 C3061 1.327 . S
C3061 H3055 0.950 . S
C3061 C3060 1.327 . S
C3061 C3065 1.429 . S
C3062 C3045 1.574 . S
C3062 H3056 0.949 . S
C3062 C3066 1.368 . S
C3063 C3044 1.429 . S
C3063 C3057 1.429 . S
C3063 C3064 1.523 . S
C3064 C3045 1.368 . S
C3064 C3058 1.368 . S
C3064 C3063 1.523 . S
C3065 C3049 1.429 . S
C3065 C3061 1.429 . S
C3065 C3066 1.523 . S
C3066 C3050 1.368 . S
C3066 C3062 1.368 . S
C3066 C3065 1.523 . S
H3067 C3042 0.950 . S
H3068 C3044 0.950 . S
H3069 C3045 0.949 . S
H3070 C3047 0.950 . S
H3071 C3049 0.950 . S
C3072 C3073 1.349 . S
C3072 C3074 1.327 . S
C3072 H3097 0.950 1_565 S
C3073 C3072 1.349 . S
C3073 C3089 1.349 . S
C3074 C3072 1.327 . S
C3074 C3093 1.429 . S
C3074 H3098 0.950 1_565 S
C3075 C3092 1.574 . S
C3075 C3094 1.368 . S
C3075 H3099 0.949 . S
H3076 C3080 0.976 . S
C3077 C3078 1.349 . S
C3077 C3079 1.327 . S
C3077 H3100 0.950 . S
C3078 C3077 1.349 . S
C3078 C3090 1.349 1_565 S
C3079 C3077 1.327 . S
C3079 C3095 1.429 . S
C3079 H3101 0.950 . S
C3080 H3076 0.976 . S
C3080 C3088 1.571 1_545 S
C3080 C3096 1.341 1_545 S
H3081 C3089 0.950 . S
H3082 C3087 0.950 . S
H3083 C3088 0.923 1_545 S
H3084 C3090 0.950 . S
H3085 C3091 0.950 . S
H3086 C3092 0.949 . S
C3087 H3082 0.950 . S
C3087 C3089 1.327 . S
C3087 C3093 1.429 . S
C3088 C3080 1.571 1_565 S
C3088 H3083 0.923 1_565 S
C3088 C3094 1.400 . S
C3089 C3073 1.349 . S
C3089 H3081 0.950 . S
C3089 C3087 1.327 . S
C3090 C3078 1.349 1_545 S
C3090 H3084 0.950 . S
C3090 C3091 1.327 . S
C3091 H3085 0.950 . S
C3091 C3090 1.327 . S
C3091 C3095 1.429 1_545 S
C3092 C3075 1.574 . S
C3092 H3086 0.949 . S
C3092 C3096 1.368 . S
C3093 C3074 1.429 . S
C3093 C3087 1.429 . S
C3093 C3094 1.523 . S
C3094 C3075 1.368 . S
C3094 C3088 1.400 . S
C3094 C3093 1.523 . S
C3095 C3079 1.429 . S
C3095 C3091 1.429 1_565 S
C3095 C3096 1.523 . S
C3096 C3080 1.341 1_565 S
C3096 C3092 1.368 . S
C3096 C3095 1.523 . S
H3097 C3072 0.950 1_545 S
H3098 C3074 0.950 1_545 S
H3099 C3075 0.949 . S
H3100 C3077 0.950 . S
H3101 C3079 0.950 . S
C3102 C3103 1.349 . S
C3102 C3104 1.327 . S
C3102 H3127 0.950 . S
C3103 C3102 1.349 . S
C3103 C3119 1.349 . S
C3104 C3102 1.327 . S
C3104 C3123 1.429 . S
C3104 H3128 0.950 . S
C3105 C3122 1.570 1_565 S
C3105 C3124 1.409 . S
C3105 H3129 0.917 1_565 S
H3106 C3110 0.949 . S
C3107 C3108 1.349 1_545 S
C3107 C3109 1.327 . S
C3107 H3130 0.950 . S
C3108 C3107 1.349 1_565 S
C3108 C3120 1.349 . S
C3109 C3107 1.327 . S
C3109 C3125 1.429 1_545 S
C3109 H3131 0.950 . S
C3110 H3106 0.949 . S
C3110 C3118 1.574 . S
C3110 C3126 1.368 . S
H3111 C3119 0.950 1_545 S
H3112 C3117 0.950 1_545 S
H3113 C3118 0.949 . S
H3114 C3120 0.950 . S
H3115 C3121 0.950 . S
H3116 C3122 0.970 . S
C3117 H3112 0.950 1_565 S
C3117 C3119 1.327 . S
C3117 C3123 1.429 . S
C3118 C3110 1.574 . S
C3118 H3113 0.949 . S
C3118 C3124 1.368 . S
C3119 C3103 1.349 . S
C3119 H3111 0.950 1_565 S
C3119 C3117 1.327 . S
C3120 C3108 1.349 . S
C3120 H3114 0.950 . S
C3120 C3121 1.327 . S
C3121 H3115 0.950 . S
C3121 C3120 1.327 . S
C3121 C3125 1.429 . S
C3122 C3105 1.570 1_545 S
C3122 H3116 0.970 . S
C3122 C3126 1.348 1_545 S
C3123 C3104 1.429 . S
C3123 C3117 1.429 . S
C3123 C3124 1.523 . S
C3124 C3105 1.409 . S
C3124 C3118 1.368 . S
C3124 C3123 1.523 . S
C3125 C3109 1.429 1_565 S
C3125 C3121 1.429 . S
C3125 C3126 1.523 . S
C3126 C3110 1.368 . S
C3126 C3122 1.348 1_565 S
C3126 C3125 1.523 . S
H3127 C3102 0.950 . S
H3128 C3104 0.950 . S
H3129 C3105 0.917 1_545 S
H3130 C3107 0.950 . S
H3131 C3109 0.950 . S
C3132 C3133 1.349 . S
C3132 C3134 1.327 . S
C3132 H3157 0.950 . S
C3133 C3132 1.349 . S
C3133 C3149 1.349 . S
C3134 C3132 1.327 . S
C3134 C3153 1.429 . S
C3134 H3158 0.950 . S
C3135 C3152 1.574 . S
C3135 C3154 1.368 . S
C3135 H3159 0.949 . S
H3136 C3140 0.949 . S
C3137 C3138 1.349 . S
C3137 C3139 1.327 . S
C3137 H3160 0.950 . S
C3138 C3137 1.349 . S
C3138 C3150 1.349 . S
C3139 C3137 1.327 . S
C3139 C3155 1.429 . S
C3139 H3161 0.950 . S
C3140 H3136 0.949 . S
C3140 C3148 1.574 . S
C3140 C3156 1.368 . S
H3141 C3149 0.950 . S
H3142 C3147 0.950 . S
H3143 C3148 0.949 . S
H3144 C3150 0.950 . S
H3145 C3151 0.950 . S
H3146 C3152 0.949 . S
C3147 H3142 0.950 . S
C3147 C3149 1.327 . S
C3147 C3153 1.429 . S
C3148 C3140 1.574 . S
C3148 H3143 0.949 . S
C3148 C3154 1.368 . S
C3149 C3133 1.349 . S
C3149 H3141 0.950 . S
C3149 C3147 1.327 . S
C3150 C3138 1.349 . S
C3150 H3144 0.950 . S
C3150 C3151 1.327 . S
C3151 H3145 0.950 . S
C3151 C3150 1.327 . S
C3151 C3155 1.429 . S
C3152 C3135 1.574 . S
C3152 H3146 0.949 . S
C3152 C3156 1.368 . S
C3153 C3134 1.429 . S
C3153 C3147 1.429 . S
C3153 C3154 1.523 . S
C3154 C3135 1.368 . S
C3154 C3148 1.368 . S
C3154 C3153 1.523 . S
C3155 C3139 1.429 . S
C3155 C3151 1.429 . S
C3155 C3156 1.523 . S
C3156 C3140 1.368 . S
C3156 C3152 1.368 . S
C3156 C3155 1.523 . S
H3157 C3132 0.950 . S
H3158 C3134 0.950 . S
H3159 C3135 0.949 . S
H3160 C3137 0.950 . S
H3161 C3139 0.950 . S
C3162 C3163 1.349 . S
C3162 C3164 1.327 . S
C3162 H3187 0.950 . S
C3163 C3162 1.349 . S
C3163 C3179 1.349 . S
C3164 C3162 1.327 . S
C3164 C3183 1.429 . S
C3164 H3188 0.950 . S
C3165 C3182 1.574 . S
C3165 C3184 1.368 . S
C3165 H3189 0.949 . S
H3166 C3170 0.949 . S
C3167 C3168 1.349 . S
C3167 C3169 1.327 . S
C3167 H3190 0.950 . S
C3168 C3167 1.349 . S
C3168 C3180 1.349 . S
C3169 C3167 1.327 . S
C3169 C3185 1.429 . S
C3169 H3191 0.950 . S
C3170 H3166 0.949 . S
C3170 C3178 1.574 . S
C3170 C3186 1.368 . S
H3171 C3179 0.950 . S
H3172 C3177 0.950 . S
H3173 C3178 0.949 . S
H3174 C3180 0.950 . S
H3175 C3181 0.950 . S
H3176 C3182 0.949 . S
C3177 H3172 0.950 . S
C3177 C3179 1.327 . S
C3177 C3183 1.429 . S
C3178 C3170 1.574 . S
C3178 H3173 0.949 . S
C3178 C3184 1.368 . S
C3179 C3163 1.349 . S
C3179 H3171 0.950 . S
C3179 C3177 1.327 . S
C3180 C3168 1.349 . S
C3180 H3174 0.950 . S
C3180 C3181 1.327 . S
C3181 H3175 0.950 . S
C3181 C3180 1.327 . S
C3181 C3185 1.429 . S
C3182 C3165 1.574 . S
C3182 H3176 0.949 . S
C3182 C3186 1.368 . S
C3183 C3164 1.429 . S
C3183 C3177 1.429 . S
C3183 C3184 1.523 . S
C3184 C3165 1.368 . S
C3184 C3178 1.368 . S
C3184 C3183 1.523 . S
C3185 C3169 1.429 . S
C3185 C3181 1.429 . S
C3185 C3186 1.523 . S
C3186 C3170 1.368 . S
C3186 C3182 1.368 . S
C3186 C3185 1.523 . S
H3187 C3162 0.950 . S
H3188 C3164 0.950 . S
H3189 C3165 0.949 . S
H3190 C3167 0.950 . S
H3191 C3169 0.950 . S
C3192 C3193 1.349 . S
C3192 C3194 1.327 . S
C3192 H3217 0.950 . S
C3193 C3192 1.349 . S
C3193 C3209 1.349 . S
C3194 C3192 1.327 . S
C3194 C3213 1.429 . S
C3194 H3218 0.950 . S
C3195 C3212 1.574 . S
C3195 C3214 1.368 . S
C3195 H3219 0.949 . S
H3196 C3200 0.949 . S
C3197 C3198 1.349 . S
C3197 C3199 1.327 . S
C3197 H3220 0.950 . S
C3198 C3197 1.349 . S
C3198 C3210 1.349 . S
C3199 C3197 1.327 . S
C3199 C3215 1.429 . S
C3199 H3221 0.950 . S
C3200 H3196 0.949 . S
C3200 C3208 1.574 . S
C3200 C3216 1.368 . S
H3201 C3209 0.950 . S
H3202 C3207 0.950 . S
H3203 C3208 0.949 . S
H3204 C3210 0.950 . S
H3205 C3211 0.950 . S
H3206 C3212 0.949 . S
C3207 H3202 0.950 . S
C3207 C3209 1.327 . S
C3207 C3213 1.429 . S
C3208 C3200 1.574 . S
C3208 H3203 0.949 . S
C3208 C3214 1.368 . S
C3209 C3193 1.349 . S
C3209 H3201 0.950 . S
C3209 C3207 1.327 . S
C3210 C3198 1.349 . S
C3210 H3204 0.950 . S
C3210 C3211 1.327 . S
C3211 H3205 0.950 . S
C3211 C3210 1.327 . S
C3211 C3215 1.429 . S
C3212 C3195 1.574 . S
C3212 H3206 0.949 . S
C3212 C3216 1.368 . S
C3213 C3194 1.429 . S
C3213 C3207 1.429 . S
C3213 C3214 1.523 . S
C3214 C3195 1.368 . S
C3214 C3208 1.368 . S
C3214 C3213 1.523 . S
C3215 C3199 1.429 . S
C3215 C3211 1.429 . S
C3215 C3216 1.523 . S
C3216 C3200 1.368 . S
C3216 C3212 1.368 . S
C3216 C3215 1.523 . S
H3217 C3192 0.950 . S
H3218 C3194 0.950 . S
H3219 C3195 0.949 . S
H3220 C3197 0.950 . S
H3221 C3199 0.950 . S
C3222 C3223 1.349 . S
C3222 C3224 1.327 . S
C3222 H3247 0.950 . S
C3223 C3222 1.349 . S
C3223 C3239 1.349 . S
C3224 C3222 1.327 . S
C3224 C3243 1.429 . S
C3224 H3248 0.950 . S
C3225 C3242 1.574 . S
C3225 C3244 1.368 . S
C3225 H3249 0.949 . S
H3226 C3230 0.949 . S
C3227 C3228 1.349 . S
C3227 C3229 1.327 . S
C3227 H3250 0.950 . S
C3228 C3227 1.349 . S
C3228 C3240 1.349 . S
C3229 C3227 1.327 . S
C3229 C3245 1.429 . S
C3229 H3251 0.950 . S
C3230 H3226 0.949 . S
C3230 C3238 1.574 . S
C3230 C3246 1.368 . S
H3231 C3239 0.950 . S
H3232 C3237 0.950 . S
H3233 C3238 0.949 . S
H3234 C3240 0.950 . S
H3235 C3241 0.950 . S
H3236 C3242 0.949 . S
C3237 H3232 0.950 . S
C3237 C3239 1.327 . S
C3237 C3243 1.429 . S
C3238 C3230 1.574 . S
C3238 H3233 0.949 . S
C3238 C3244 1.368 . S
C3239 C3223 1.349 . S
C3239 H3231 0.950 . S
C3239 C3237 1.327 . S
C3240 C3228 1.349 . S
C3240 H3234 0.950 . S
C3240 C3241 1.327 . S
C3241 H3235 0.950 . S
C3241 C3240 1.327 . S
C3241 C3245 1.429 . S
C3242 C3225 1.574 . S
C3242 H3236 0.949 . S
C3242 C3246 1.368 . S
C3243 C3224 1.429 . S
C3243 C3237 1.429 . S
C3243 C3244 1.523 . S
C3244 C3225 1.368 . S
C3244 C3238 1.368 . S
C3244 C3243 1.523 . S
C3245 C3229 1.429 . S
C3245 C3241 1.429 . S
C3245 C3246 1.523 . S
C3246 C3230 1.368 . S
C3246 C3242 1.368 . S
C3246 C3245 1.523 . S
H3247 C3222 0.950 . S
H3248 C3224 0.950 . S
H3249 C3225 0.949 . S
H3250 C3227 0.950 . S
H3251 C3229 0.950 . S
C3252 C3253 1.349 . S
C3252 C3254 1.327 . S
C3252 H3277 0.950 . S
C3253 C3252 1.349 . S
C3253 C3269 1.349 . S
C3254 C3252 1.327 . S
C3254 C3273 1.429 . S
C3254 H3278 0.950 . S
C3255 C3272 1.574 . S
C3255 C3274 1.368 . S
C3255 H3279 0.949 . S
H3256 C3260 0.949 . S
C3257 C3258 1.349 . S
C3257 C3259 1.327 . S
C3257 H3280 0.950 . S
C3258 C3257 1.349 . S
C3258 C3270 1.349 . S
C3259 C3257 1.327 . S
C3259 C3275 1.429 . S
C3259 H3281 0.950 . S
C3260 H3256 0.949 . S
C3260 C3268 1.574 . S
C3260 C3276 1.368 . S
H3261 C3269 0.950 . S
H3262 C3267 0.950 . S
H3263 C3268 0.949 . S
H3264 C3270 0.950 . S
H3265 C3271 0.950 . S
H3266 C3272 0.949 . S
C3267 H3262 0.950 . S
C3267 C3269 1.327 . S
C3267 C3273 1.429 . S
C3268 C3260 1.574 . S
C3268 H3263 0.949 . S
C3268 C3274 1.368 . S
C3269 C3253 1.349 . S
C3269 H3261 0.950 . S
C3269 C3267 1.327 . S
C3270 C3258 1.349 . S
C3270 H3264 0.950 . S
C3270 C3271 1.327 . S
C3271 H3265 0.950 . S
C3271 C3270 1.327 . S
C3271 C3275 1.429 . S
C3272 C3255 1.574 . S
C3272 H3266 0.949 . S
C3272 C3276 1.368 . S
C3273 C3254 1.429 . S
C3273 C3267 1.429 . S
C3273 C3274 1.523 . S
C3274 C3255 1.368 . S
C3274 C3268 1.368 . S
C3274 C3273 1.523 . S
C3275 C3259 1.429 . S
C3275 C3271 1.429 . S
C3275 C3276 1.523 . S
C3276 C3260 1.368 . S
C3276 C3272 1.368 . S
C3276 C3275 1.523 . S
H3277 C3252 0.950 . S
H3278 C3254 0.950 . S
H3279 C3255 0.949 . S
H3280 C3257 0.950 . S
H3281 C3259 0.950 . S
C3282 C3283 1.349 . S
C3282 C3284 1.327 . S
C3282 H3307 0.950 . S
C3283 C3282 1.349 . S
C3283 C3299 1.349 . S
C3284 C3282 1.327 . S
C3284 C3303 1.429 . S
C3284 H3308 0.950 . S
C3285 C3302 1.574 . S
C3285 C3304 1.368 . S
C3285 H3309 0.949 . S
H3286 C3290 0.949 . S
C3287 C3288 1.349 . S
C3287 C3289 1.327 . S
C3287 H3310 0.950 . S
C3288 C3287 1.349 . S
C3288 C3300 1.349 . S
C3289 C3287 1.327 . S
C3289 C3305 1.429 . S
C3289 H3311 0.950 . S
C3290 H3286 0.949 . S
C3290 C3298 1.574 . S
C3290 C3306 1.368 . S
H3291 C3299 0.950 . S
H3292 C3297 0.950 . S
H3293 C3298 0.949 . S
H3294 C3300 0.950 . S
H3295 C3301 0.950 . S
H3296 C3302 0.949 . S
C3297 H3292 0.950 . S
C3297 C3299 1.327 . S
C3297 C3303 1.429 . S
C3298 C3290 1.574 . S
C3298 H3293 0.949 . S
C3298 C3304 1.368 . S
C3299 C3283 1.349 . S
C3299 H3291 0.950 . S
C3299 C3297 1.327 . S
C3300 C3288 1.349 . S
C3300 H3294 0.950 . S
C3300 C3301 1.327 . S
C3301 H3295 0.950 . S
C3301 C3300 1.327 . S
C3301 C3305 1.429 . S
C3302 C3285 1.574 . S
C3302 H3296 0.949 . S
C3302 C3306 1.368 . S
C3303 C3284 1.429 . S
C3303 C3297 1.429 . S
C3303 C3304 1.523 . S
C3304 C3285 1.368 . S
C3304 C3298 1.368 . S
C3304 C3303 1.523 . S
C3305 C3289 1.429 . S
C3305 C3301 1.429 . S
C3305 C3306 1.523 . S
C3306 C3290 1.368 . S
C3306 C3302 1.368 . S
C3306 C3305 1.523 . S
H3307 C3282 0.950 . S
H3308 C3284 0.950 . S
H3309 C3285 0.949 . S
H3310 C3287 0.950 . S
H3311 C3289 0.950 . S
C3312 C3313 1.349 . S
C3312 C3314 1.327 . S
C3312 H3337 0.950 . S
C3313 C3312 1.349 . S
C3313 C3329 1.349 . S
C3314 C3312 1.327 . S
C3314 C3333 1.429 . S
C3314 H3338 0.950 . S
C3315 C3332 1.574 . S
C3315 C3334 1.368 . S
C3315 H3339 0.949 . S
H3316 C3320 0.949 . S
C3317 C3318 1.349 . S
C3317 C3319 1.327 . S
C3317 H3340 0.950 . S
C3318 C3317 1.349 . S
C3318 C3330 1.349 . S
C3319 C3317 1.327 . S
C3319 C3335 1.429 . S
C3319 H3341 0.950 . S
C3320 H3316 0.949 . S
C3320 C3328 1.574 . S
C3320 C3336 1.368 . S
H3321 C3329 0.950 . S
H3322 C3327 0.950 . S
H3323 C3328 0.949 . S
H3324 C3330 0.950 . S
H3325 C3331 0.950 . S
H3326 C3332 0.949 . S
C3327 H3322 0.950 . S
C3327 C3329 1.327 . S
C3327 C3333 1.429 . S
C3328 C3320 1.574 . S
C3328 H3323 0.949 . S
C3328 C3334 1.368 . S
C3329 C3313 1.349 . S
C3329 H3321 0.950 . S
C3329 C3327 1.327 . S
C3330 C3318 1.349 . S
C3330 H3324 0.950 . S
C3330 C3331 1.327 . S
C3331 H3325 0.950 . S
C3331 C3330 1.327 . S
C3331 C3335 1.429 . S
C3332 C3315 1.574 . S
C3332 H3326 0.949 . S
C3332 C3336 1.368 . S
C3333 C3314 1.429 . S
C3333 C3327 1.429 . S
C3333 C3334 1.523 . S
C3334 C3315 1.368 . S
C3334 C3328 1.368 . S
C3334 C3333 1.523 . S
C3335 C3319 1.429 . S
C3335 C3331 1.429 . S
C3335 C3336 1.523 . S
C3336 C3320 1.368 . S
C3336 C3332 1.368 . S
C3336 C3335 1.523 . S
H3337 C3312 0.950 . S
H3338 C3314 0.950 . S
H3339 C3315 0.949 . S
H3340 C3317 0.950 . S
H3341 C3319 0.950 . S
C3342 C3343 1.349 . S
C3342 C3344 1.327 . S
C3342 H3367 0.950 . S
C3343 C3342 1.349 . S
C3343 C3359 1.349 . S
C3344 C3342 1.327 . S
C3344 C3363 1.429 . S
C3344 H3368 0.950 . S
C3345 C3362 1.574 . S
C3345 C3364 1.368 . S
C3345 H3369 0.949 . S
H3346 C3350 0.949 . S
C3347 C3348 1.349 . S
C3347 C3349 1.327 . S
C3347 H3370 0.950 . S
C3348 C3347 1.349 . S
C3348 C3360 1.349 . S
C3349 C3347 1.327 . S
C3349 C3365 1.429 . S
C3349 H3371 0.950 . S
C3350 H3346 0.949 . S
C3350 C3358 1.574 . S
C3350 C3366 1.368 . S
H3351 C3359 0.950 . S
H3352 C3357 0.950 . S
H3353 C3358 0.949 . S
H3354 C3360 0.950 . S
H3355 C3361 0.950 . S
H3356 C3362 0.949 . S
C3357 H3352 0.950 . S
C3357 C3359 1.327 . S
C3357 C3363 1.429 . S
C3358 C3350 1.574 . S
C3358 H3353 0.949 . S
C3358 C3364 1.368 . S
C3359 C3343 1.349 . S
C3359 H3351 0.950 . S
C3359 C3357 1.327 . S
C3360 C3348 1.349 . S
C3360 H3354 0.950 . S
C3360 C3361 1.327 . S
C3361 H3355 0.950 . S
C3361 C3360 1.327 . S
C3361 C3365 1.429 . S
C3362 C3345 1.574 . S
C3362 H3356 0.949 . S
C3362 C3366 1.368 . S
C3363 C3344 1.429 . S
C3363 C3357 1.429 . S
C3363 C3364 1.523 . S
C3364 C3345 1.368 . S
C3364 C3358 1.368 . S
C3364 C3363 1.523 . S
C3365 C3349 1.429 . S
C3365 C3361 1.429 . S
C3365 C3366 1.523 . S
C3366 C3350 1.368 . S
C3366 C3362 1.368 . S
C3366 C3365 1.523 . S
H3367 C3342 0.950 . S
H3368 C3344 0.950 . S
H3369 C3345 0.949 . S
H3370 C3347 0.950 . S
H3371 C3349 0.950 . S
C3372 C3373 1.349 . S
C3372 C3374 1.327 . S
C3372 H3397 0.950 . S
C3373 C3372 1.349 . S
C3373 C3389 1.349 . S
C3374 C3372 1.327 . S
C3374 C3393 1.429 . S
C3374 H3398 0.950 . S
C3375 C3392 1.574 . S
C3375 C3394 1.368 . S
C3375 H3399 0.949 . S
H3376 C3380 0.949 . S
C3377 C3378 1.349 . S
C3377 C3379 1.327 . S
C3377 H3400 0.950 . S
C3378 C3377 1.349 . S
C3378 C3390 1.349 . S
C3379 C3377 1.327 . S
C3379 C3395 1.429 . S
C3379 H3401 0.950 . S
C3380 H3376 0.949 . S
C3380 C3388 1.574 . S
C3380 C3396 1.368 . S
H3381 C3389 0.950 . S
H3382 C3387 0.950 . S
H3383 C3388 0.949 . S
H3384 C3390 0.950 . S
H3385 C3391 0.950 . S
H3386 C3392 0.949 . S
C3387 H3382 0.950 . S
C3387 C3389 1.327 . S
C3387 C3393 1.429 . S
C3388 C3380 1.574 . S
C3388 H3383 0.949 . S
C3388 C3394 1.368 . S
C3389 C3373 1.349 . S
C3389 H3381 0.950 . S
C3389 C3387 1.327 . S
C3390 C3378 1.349 . S
C3390 H3384 0.950 . S
C3390 C3391 1.327 . S
C3391 H3385 0.950 . S
C3391 C3390 1.327 . S
C3391 C3395 1.429 . S
C3392 C3375 1.574 . S
C3392 H3386 0.949 . S
C3392 C3396 1.368 . S
C3393 C3374 1.429 . S
C3393 C3387 1.429 . S
C3393 C3394 1.523 . S
C3394 C3375 1.368 . S
C3394 C3388 1.368 . S
C3394 C3393 1.523 . S
C3395 C3379 1.429 . S
C3395 C3391 1.429 . S
C3395 C3396 1.523 . S
C3396 C3380 1.368 . S
C3396 C3392 1.368 . S
C3396 C3395 1.523 . S
H3397 C3372 0.950 . S
H3398 C3374 0.950 . S
H3399 C3375 0.949 . S
H3400 C3377 0.950 . S
H3401 C3379 0.950 . S
C3402 C3403 1.349 . S
C3402 C3404 1.327 . S
C3402 H3427 0.950 . S
C3403 C3402 1.349 . S
C3403 C3419 1.349 . S
C3404 C3402 1.327 . S
C3404 C3423 1.429 . S
C3404 H3428 0.950 . S
C3405 C3422 1.574 . S
C3405 C3424 1.368 . S
C3405 H3429 0.949 . S
H3406 C3410 0.949 . S
C3407 C3408 1.349 . S
C3407 C3409 1.327 . S
C3407 H3430 0.950 . S
C3408 C3407 1.349 . S
C3408 C3420 1.349 . S
C3409 C3407 1.327 . S
C3409 C3425 1.429 . S
C3409 H3431 0.950 . S
C3410 H3406 0.949 . S
C3410 C3418 1.574 . S
C3410 C3426 1.368 . S
H3411 C3419 0.950 . S
H3412 C3417 0.950 . S
H3413 C3418 0.949 . S
H3414 C3420 0.950 . S
H3415 C3421 0.950 . S
H3416 C3422 0.949 . S
C3417 H3412 0.950 . S
C3417 C3419 1.327 . S
C3417 C3423 1.429 . S
C3418 C3410 1.574 . S
C3418 H3413 0.949 . S
C3418 C3424 1.368 . S
C3419 C3403 1.349 . S
C3419 H3411 0.950 . S
C3419 C3417 1.327 . S
C3420 C3408 1.349 . S
C3420 H3414 0.950 . S
C3420 C3421 1.327 . S
C3421 H3415 0.950 . S
C3421 C3420 1.327 . S
C3421 C3425 1.429 . S
C3422 C3405 1.574 . S
C3422 H3416 0.949 . S
C3422 C3426 1.368 . S
C3423 C3404 1.429 . S
C3423 C3417 1.429 . S
C3423 C3424 1.523 . S
C3424 C3405 1.368 . S
C3424 C3418 1.368 . S
C3424 C3423 1.523 . S
C3425 C3409 1.429 . S
C3425 C3421 1.429 . S
C3425 C3426 1.523 . S
C3426 C3410 1.368 . S
C3426 C3422 1.368 . S
C3426 C3425 1.523 . S
H3427 C3402 0.950 . S
H3428 C3404 0.950 . S
H3429 C3405 0.949 . S
H3430 C3407 0.950 . S
H3431 C3409 0.950 . S
C3432 C3433 1.349 . S
C3432 C3434 1.327 . S
C3432 H3457 0.950 . S
C3433 C3432 1.349 . S
C3433 C3449 1.349 . S
C3434 C3432 1.327 . S
C3434 C3453 1.429 . S
C3434 H3458 0.950 . S
C3435 C3452 1.574 . S
C3435 C3454 1.368 . S
C3435 H3459 0.949 . S
H3436 C3440 0.949 . S
C3437 C3438 1.349 . S
C3437 C3439 1.327 . S
C3437 H3460 0.950 . S
C3438 C3437 1.349 . S
C3438 C3450 1.349 . S
C3439 C3437 1.327 . S
C3439 C3455 1.429 . S
C3439 H3461 0.950 . S
C3440 H3436 0.949 . S
C3440 C3448 1.574 . S
C3440 C3456 1.368 . S
H3441 C3449 0.950 . S
H3442 C3447 0.950 . S
H3443 C3448 0.949 . S
H3444 C3450 0.950 . S
H3445 C3451 0.950 . S
H3446 C3452 0.949 . S
C3447 H3442 0.950 . S
C3447 C3449 1.327 . S
C3447 C3453 1.429 . S
C3448 C3440 1.574 . S
C3448 H3443 0.949 . S
C3448 C3454 1.368 . S
C3449 C3433 1.349 . S
C3449 H3441 0.950 . S
C3449 C3447 1.327 . S
C3450 C3438 1.349 . S
C3450 H3444 0.950 . S
C3450 C3451 1.327 . S
C3451 H3445 0.950 . S
C3451 C3450 1.327 . S
C3451 C3455 1.429 . S
C3452 C3435 1.574 . S
C3452 H3446 0.949 . S
C3452 C3456 1.368 . S
C3453 C3434 1.429 . S
C3453 C3447 1.429 . S
C3453 C3454 1.523 . S
C3454 C3435 1.368 . S
C3454 C3448 1.368 . S
C3454 C3453 1.523 . S
C3455 C3439 1.429 . S
C3455 C3451 1.429 . S
C3455 C3456 1.523 . S
C3456 C3440 1.368 . S
C3456 C3452 1.368 . S
C3456 C3455 1.523 . S
H3457 C3432 0.950 . S
H3458 C3434 0.950 . S
H3459 C3435 0.949 . S
H3460 C3437 0.950 . S
H3461 C3439 0.950 . S
C3462 C3463 1.349 . S
C3462 C3464 1.327 . S
C3462 H3487 0.950 . S
C3463 C3462 1.349 . S
C3463 C3479 1.349 . S
C3464 C3462 1.327 . S
C3464 C3483 1.429 . S
C3464 H3488 0.950 . S
C3465 C3482 1.574 . S
C3465 C3484 1.368 . S
C3465 H3489 0.949 . S
H3466 C3470 0.949 . S
C3467 C3468 1.349 . S
C3467 C3469 1.327 . S
C3467 H3490 0.950 . S
C3468 C3467 1.349 . S
C3468 C3480 1.349 . S
C3469 C3467 1.327 . S
C3469 C3485 1.429 . S
C3469 H3491 0.950 . S
C3470 H3466 0.949 . S
C3470 C3478 1.574 . S
C3470 C3486 1.368 . S
H3471 C3479 0.950 . S
H3472 C3477 0.950 . S
H3473 C3478 0.949 . S
H3474 C3480 0.950 . S
H3475 C3481 0.950 . S
H3476 C3482 0.949 . S
C3477 H3472 0.950 . S
C3477 C3479 1.327 . S
C3477 C3483 1.429 . S
C3478 C3470 1.574 . S
C3478 H3473 0.949 . S
C3478 C3484 1.368 . S
C3479 C3463 1.349 . S
C3479 H3471 0.950 . S
C3479 C3477 1.327 . S
C3480 C3468 1.349 . S
C3480 H3474 0.950 . S
C3480 C3481 1.327 . S
C3481 H3475 0.950 . S
C3481 C3480 1.327 . S
C3481 C3485 1.429 . S
C3482 C3465 1.574 . S
C3482 H3476 0.949 . S
C3482 C3486 1.368 . S
C3483 C3464 1.429 . S
C3483 C3477 1.429 . S
C3483 C3484 1.523 . S
C3484 C3465 1.368 . S
C3484 C3478 1.368 . S
C3484 C3483 1.523 . S
C3485 C3469 1.429 . S
C3485 C3481 1.429 . S
C3485 C3486 1.523 . S
C3486 C3470 1.368 . S
C3486 C3482 1.368 . S
C3486 C3485 1.523 . S
H3487 C3462 0.950 . S
H3488 C3464 0.950 . S
H3489 C3465 0.949 . S
H3490 C3467 0.950 . S
H3491 C3469 0.950 . S
C3492 C3493 1.349 . S
C3492 C3494 1.327 . S
C3492 H3517 0.950 . S
C3493 C3492 1.349 . S
C3493 C3509 1.349 . S
C3494 C3492 1.327 . S
C3494 C3513 1.429 . S
C3494 H3518 0.950 . S
C3495 C3512 1.574 . S
C3495 C3514 1.368 . S
C3495 H3519 0.949 . S
H3496 C3500 0.949 . S
C3497 C3498 1.349 . S
C3497 C3499 1.327 . S
C3497 H3520 0.950 . S
C3498 C3497 1.349 . S
C3498 C3510 1.349 . S
C3499 C3497 1.327 . S
C3499 C3515 1.429 . S
C3499 H3521 0.950 . S
C3500 H3496 0.949 . S
C3500 C3508 1.574 . S
C3500 C3516 1.368 . S
H3501 C3509 0.950 . S
H3502 C3507 0.950 . S
H3503 C3508 0.949 . S
H3504 C3510 0.950 . S
H3505 C3511 0.950 . S
H3506 C3512 0.949 . S
C3507 H3502 0.950 . S
C3507 C3509 1.327 . S
C3507 C3513 1.429 . S
C3508 C3500 1.574 . S
C3508 H3503 0.949 . S
C3508 C3514 1.368 . S
C3509 C3493 1.349 . S
C3509 H3501 0.950 . S
C3509 C3507 1.327 . S
C3510 C3498 1.349 . S
C3510 H3504 0.950 . S
C3510 C3511 1.327 . S
C3511 H3505 0.950 . S
C3511 C3510 1.327 . S
C3511 C3515 1.429 . S
C3512 C3495 1.574 . S
C3512 H3506 0.949 . S
C3512 C3516 1.368 . S
C3513 C3494 1.429 . S
C3513 C3507 1.429 . S
C3513 C3514 1.523 . S
C3514 C3495 1.368 . S
C3514 C3508 1.368 . S
C3514 C3513 1.523 . S
C3515 C3499 1.429 . S
C3515 C3511 1.429 . S
C3515 C3516 1.523 . S
C3516 C3500 1.368 . S
C3516 C3512 1.368 . S
C3516 C3515 1.523 . S
H3517 C3492 0.950 . S
H3518 C3494 0.950 . S
H3519 C3495 0.949 . S
H3520 C3497 0.950 . S
H3521 C3499 0.950 . S
C3522 C3523 1.349 . S
C3522 C3524 1.327 . S
C3522 H3547 0.950 . S
C3523 C3522 1.349 . S
C3523 C3539 1.349 . S
C3524 C3522 1.327 . S
C3524 C3543 1.429 . S
C3524 H3548 0.950 . S
C3525 C3542 1.574 . S
C3525 C3544 1.368 . S
C3525 H3549 0.949 . S
H3526 C3530 0.949 . S
C3527 C3528 1.349 . S
C3527 C3529 1.327 . S
C3527 H3550 0.950 . S
C3528 C3527 1.349 . S
C3528 C3540 1.349 . S
C3529 C3527 1.327 . S
C3529 C3545 1.429 . S
C3529 H3551 0.950 . S
C3530 H3526 0.949 . S
C3530 C3538 1.574 . S
C3530 C3546 1.368 . S
H3531 C3539 0.950 . S
H3532 C3537 0.950 . S
H3533 C3538 0.949 . S
H3534 C3540 0.950 . S
H3535 C3541 0.950 . S
H3536 C3542 0.949 . S
C3537 H3532 0.950 . S
C3537 C3539 1.327 . S
C3537 C3543 1.429 . S
C3538 C3530 1.574 . S
C3538 H3533 0.949 . S
C3538 C3544 1.368 . S
C3539 C3523 1.349 . S
C3539 H3531 0.950 . S
C3539 C3537 1.327 . S
C3540 C3528 1.349 . S
C3540 H3534 0.950 . S
C3540 C3541 1.327 . S
C3541 H3535 0.950 . S
C3541 C3540 1.327 . S
C3541 C3545 1.429 . S
C3542 C3525 1.574 . S
C3542 H3536 0.949 . S
C3542 C3546 1.368 . S
C3543 C3524 1.429 . S
C3543 C3537 1.429 . S
C3543 C3544 1.523 . S
C3544 C3525 1.368 . S
C3544 C3538 1.368 . S
C3544 C3543 1.523 . S
C3545 C3529 1.429 . S
C3545 C3541 1.429 . S
C3545 C3546 1.523 . S
C3546 C3530 1.368 . S
C3546 C3542 1.368 . S
C3546 C3545 1.523 . S
H3547 C3522 0.950 . S
H3548 C3524 0.950 . S
H3549 C3525 0.949 . S
H3550 C3527 0.950 . S
H3551 C3529 0.950 . S
C673 C7 0.846 . S
C678 C371 0.845 . S
C703 C385 0.696 . S
C708 C21 0.687 . S
C733 C35 0.671 . S
C738 C343 0.668 . S
C763 C357 0.662 1_554 S
C768 C49 0.664 1_554 S
C793 C63 0.760 . S
C798 C427 0.756 . S
C823 C77 0.676 . S
C828 C441 0.679 . S
C853 C91 0.663 . S
C858 C399 0.667 . S
C883 C105 0.747 . S
C888 C413 0.756 . S
C913 C175 0.838 . S
C918 C119 0.853 . S
C943 C133 0.664 1_545 S
C948 C189 0.662 1_545 S
C973 C203 0.760 . S
C978 C147 0.756 . S
C1003 C161 0.756 . S
C1008 C217 0.746 . S
C1033 C609 0.838 . S
C1038 C231 0.853 . S
C1063 C637 0.760 . S
C1068 C245 0.756 . S
C1093 C315 0.662 1_455 S
C1098 C259 0.664 1_455 S
C1123 C567 0.668 . S
C1128 C273 0.671 . S
C1153 C665 0.756 . S
C1158 C287 0.746 . S
C1183 C581 0.663 . S
C1188 C301 0.667 . S
C1213 C329 0.676 . S
C1218 C623 0.679 . S
C1243 C455 0.668 . S
C1248 C511 0.671 . S
C1273 C525 0.687 . S
C1278 C469 0.697 . S
C1303 C483 0.663 . S
C1308 C539 0.667 . S
C1333 C553 0.679 . S
C1338 C497 0.676 . S
C1363 C595 0.696 . S
C1368 C651 0.687 . S
C1393 C8 0.928 . S
C1398 C106 0.950 1_455 S
C1423 C64 0.871 . S
C1428 C22 0.889 1_455 S
C1453 C36 0.855 . S
C1458 C78 0.863 . S
C1483 C50 0.815 . S
C1488 C92 0.816 . S
C1513 C288 0.898 1_545 S
C1518 C120 0.948 . S
C1543 C582 0.816 . S
C1548 C134 0.815 . S
C1573 C148 0.902 . S
C1578 C596 0.896 . S
C1603 C162 0.956 . S
C1608 C610 0.942 . S
C1633 C666 0.956 . S
C1638 C176 0.942 . S
C1663 C190 0.810 . S
C1668 C302 0.801 . S
C1693 C204 0.871 . S
C1698 C652 0.889 1_545 S
C1723 C218 0.898 1_554 S
C1728 C232 0.948 . S
C1753 C246 0.902 . S
C1758 C470 0.896 . S
C1783 C260 0.815 . S
C1788 C484 0.816 . S
C1813 C498 0.863 . S
C1818 C274 0.855 . S
C1843 C316 0.810 . S
C1848 C540 0.801 . S
C1873 C512 0.855 . S
C1878 C330 0.863 . S
C1903 C442 0.855 . S
C1908 C344 0.868 . S
C1933 C358 0.810 . S
C1938 C400 0.801 . S
C1963 C414 0.956 . S
C1968 C372 0.942 . S
C1993 C386 0.896 . S
C1998 C428 0.902 . S
C2023 C456 0.868 . S
C2028 C624 0.855 . S
C2053 C638 0.871 . S
C2058 C526 0.889 1_554 S
C2083 C568 0.868 . S
C2088 C554 0.855 . S
C2113 C9 1.614 . S
C2118 C415 1.620 . S
C2143 C429 1.669 . S
C2148 C23 1.660 . S
C2173 C37 1.640 . S
C2178 C443 1.641 . S
C2203 C51 1.651 . S
C2208 C401 1.645 . S
C2233 C387 1.641 . S
C2238 C65 1.630 . S
C2263 C79 1.667 . S
C2268 C345 1.669 . S
C2293 C359 1.646 . S
C2298 C93 1.643 . S
C2323 C107 1.632 . S
C2328 C373 1.644 . S
C2353 C667 1.623 . S
C2358 C121 1.608 . S
C2383 C135 1.651 . S
C2388 C303 1.645 . S
C2413 C149 1.669 . S
C2418 C653 1.660 . S
C2443 C233 1.614 . S
C2448 C163 1.620 . S
C2473 C177 1.637 . S
C2478 C289 1.636 . S
C2503 C191 1.646 . S
C2508 C583 1.643 . S
C2533 C597 1.641 . S
C2538 C205 1.630 . S
C2563 C611 1.637 . S
C2568 C219 1.636 . S
C2593 C527 1.655 . S
C2598 C247 1.677 . S
C2623 C541 1.645 . S
C2628 C261 1.651 . S
C2653 C555 1.641 . S
C2658 C275 1.640 . S
C2683 C317 1.646 . S
C2688 C485 1.643 . S
C2713 C457 1.669 . S
C2718 C331 1.667 . S
C2743 C471 1.641 . S
C2748 C639 1.630 . S
C2773 C499 1.667 . S
C2778 C569 1.669 . S
C2803 C625 1.641 . S
C2808 C513 1.640 . S
C2833 C6 1.605 . S
C2838 C314 1.616 . S
C2863 C20 1.655 . S
C2868 C566 1.634 . S
C2893 C328 1.680 . S
C2898 C34 1.678 . S
C2923 C636 1.595 . S
C2928 C48 1.598 . S
C2953 C258 1.594 . S
C2958 C62 1.597 . S
C2983 C272 1.678 . S
C2988 C76 1.680 . S
C3013 C90 1.660 . S
C3018 C622 1.656 . S
C3043 C104 1.581 . S
C3048 C244 1.564 . S
C3073 C188 1.612 . S
C3078 C118 1.607 . S
C3103 C132 1.594 . S
C3108 C202 1.597 . S
C3133 C216 1.581 . S
C3138 C146 1.564 . S
C3163 C174 1.638 . S
C3168 C160 1.630 . S
C3193 C230 1.605 . S
C3198 C356 1.616 . S
C3223 C426 1.575 . S
C3228 C286 1.570 . S
C3253 C384 1.660 . S
C3258 C300 1.676 . S
C3283 C342 1.645 . S
C3288 C650 1.644 . S
C3313 C664 1.630 . S
C3318 C370 1.638 . S
C3343 C594 1.660 . S
C3348 C398 1.676 . S
C3373 C608 1.638 . S
C3378 C412 1.630 . S
C3403 C580 1.660 . S
C3408 C440 1.656 . S
C3433 C524 1.655 . S
C3438 C454 1.634 . S
C3463 C538 1.676 . S
C3468 C468 1.660 . S
C3493 C482 1.660 . S
C3498 C552 1.656 . S
C3523 C496 1.680 . S
C3528 C510 1.678 . S
