# Generated by pormake.
# Topology whr, (6)-cn, num edge types: 1
# Building blocks:
#     Node 0, Type 0, BuildingBlock: OJICUG_clean_sbu_0, # of connection points: 6
#     Node 1, Type 0, BuildingBlock: OJICUG_clean_sbu_0, # of connection points: 6
#     Node 2, Type 0, BuildingBlock: OJICUG_clean_sbu_0, # of connection points: 6
#     Node 3, Type 0, BuildingBlock: OJICUG_clean_sbu_0, # of connection points: 6
#     Node 4, Type 0, BuildingBlock: OJICUG_clean_sbu_0, # of connection points: 6
#     Node 5, Type 0, BuildingBlock: OJICUG_clean_sbu_0, # of connection points: 6
#     Node 6, Type 0, BuildingBlock: OJICUG_clean_sbu_0, # of connection points: 6
#     Node 7, Type 0, BuildingBlock: OJICUG_clean_sbu_0, # of connection points: 6
#     Node 8, Type 0, BuildingBlock: OJICUG_clean_sbu_0, # of connection points: 6
#     Node 9, Type 0, BuildingBlock: OJICUG_clean_sbu_0, # of connection points: 6
#     Node 10, Type 0, BuildingBlock: OJICUG_clean_sbu_0, # of connection points: 6
#     Node 11, Type 0, BuildingBlock: OJICUG_clean_sbu_0, # of connection points: 6
#     Node 12, Type 0, BuildingBlock: OJICUG_clean_sbu_0, # of connection points: 6
#     Node 13, Type 0, BuildingBlock: OJICUG_clean_sbu_0, # of connection points: 6
#     Node 14, Type 0, BuildingBlock: OJICUG_clean_sbu_0, # of connection points: 6
#     Node 15, Type 0, BuildingBlock: OJICUG_clean_sbu_0, # of connection points: 6
#     Edge 16, Type (0, 0), BuildingBlock: CIFDUS_clean_linker_0, # of connection points: 2
#     Edge 17, Type (0, 0), BuildingBlock: CIFDUS_clean_linker_0, # of connection points: 2
#     Edge 18, Type (0, 0), BuildingBlock: CIFDUS_clean_linker_0, # of connection points: 2
#     Edge 19, Type (0, 0), BuildingBlock: CIFDUS_clean_linker_0, # of connection points: 2
#     Edge 20, Type (0, 0), BuildingBlock: CIFDUS_clean_linker_0, # of connection points: 2
#     Edge 21, Type (0, 0), BuildingBlock: CIFDUS_clean_linker_0, # of connection points: 2
#     Edge 22, Type (0, 0), BuildingBlock: CIFDUS_clean_linker_0, # of connection points: 2
#     Edge 23, Type (0, 0), BuildingBlock: CIFDUS_clean_linker_0, # of connection points: 2
#     Edge 24, Type (0, 0), BuildingBlock: CIFDUS_clean_linker_0, # of connection points: 2
#     Edge 25, Type (0, 0), BuildingBlock: CIFDUS_clean_linker_0, # of connection points: 2
#     Edge 26, Type (0, 0), BuildingBlock: CIFDUS_clean_linker_0, # of connection points: 2
#     Edge 27, Type (0, 0), BuildingBlock: CIFDUS_clean_linker_0, # of connection points: 2
#     Edge 28, Type (0, 0), BuildingBlock: CIFDUS_clean_linker_0, # of connection points: 2
#     Edge 29, Type (0, 0), BuildingBlock: CIFDUS_clean_linker_0, # of connection points: 2
#     Edge 30, Type (0, 0), BuildingBlock: CIFDUS_clean_linker_0, # of connection points: 2
#     Edge 31, Type (0, 0), BuildingBlock: CIFDUS_clean_linker_0, # of connection points: 2
#     Edge 32, Type (0, 0), BuildingBlock: CIFDUS_clean_linker_0, # of connection points: 2
#     Edge 33, Type (0, 0), BuildingBlock: CIFDUS_clean_linker_0, # of connection points: 2
#     Edge 34, Type (0, 0), BuildingBlock: CIFDUS_clean_linker_0, # of connection points: 2
#     Edge 35, Type (0, 0), BuildingBlock: CIFDUS_clean_linker_0, # of connection points: 2
#     Edge 36, Type (0, 0), BuildingBlock: CIFDUS_clean_linker_0, # of connection points: 2
#     Edge 37, Type (0, 0), BuildingBlock: CIFDUS_clean_linker_0, # of connection points: 2
#     Edge 38, Type (0, 0), BuildingBlock: CIFDUS_clean_linker_0, # of connection points: 2
#     Edge 39, Type (0, 0), BuildingBlock: CIFDUS_clean_linker_0, # of connection points: 2
#     Edge 40, Type (0, 0), BuildingBlock: CIFDUS_clean_linker_0, # of connection points: 2
#     Edge 41, Type (0, 0), BuildingBlock: CIFDUS_clean_linker_0, # of connection points: 2
#     Edge 42, Type (0, 0), BuildingBlock: CIFDUS_clean_linker_0, # of connection points: 2
#     Edge 43, Type (0, 0), BuildingBlock: CIFDUS_clean_linker_0, # of connection points: 2
#     Edge 44, Type (0, 0), BuildingBlock: CIFDUS_clean_linker_0, # of connection points: 2
#     Edge 45, Type (0, 0), BuildingBlock: CIFDUS_clean_linker_0, # of connection points: 2
#     Edge 46, Type (0, 0), BuildingBlock: CIFDUS_clean_linker_0, # of connection points: 2
#     Edge 47, Type (0, 0), BuildingBlock: CIFDUS_clean_linker_0, # of connection points: 2
#     Edge 48, Type (0, 0), BuildingBlock: CIFDUS_clean_linker_0, # of connection points: 2
#     Edge 49, Type (0, 0), BuildingBlock: CIFDUS_clean_linker_0, # of connection points: 2
#     Edge 50, Type (0, 0), BuildingBlock: CIFDUS_clean_linker_0, # of connection points: 2
#     Edge 51, Type (0, 0), BuildingBlock: CIFDUS_clean_linker_0, # of connection points: 2
#     Edge 52, Type (0, 0), BuildingBlock: CIFDUS_clean_linker_0, # of connection points: 2
#     Edge 53, Type (0, 0), BuildingBlock: CIFDUS_clean_linker_0, # of connection points: 2
#     Edge 54, Type (0, 0), BuildingBlock: CIFDUS_clean_linker_0, # of connection points: 2
#     Edge 55, Type (0, 0), BuildingBlock: CIFDUS_clean_linker_0, # of connection points: 2
#     Edge 56, Type (0, 0), BuildingBlock: CIFDUS_clean_linker_0, # of connection points: 2
#     Edge 57, Type (0, 0), BuildingBlock: CIFDUS_clean_linker_0, # of connection points: 2
#     Edge 58, Type (0, 0), BuildingBlock: CIFDUS_clean_linker_0, # of connection points: 2
#     Edge 59, Type (0, 0), BuildingBlock: CIFDUS_clean_linker_0, # of connection points: 2
#     Edge 60, Type (0, 0), BuildingBlock: CIFDUS_clean_linker_0, # of connection points: 2
#     Edge 61, Type (0, 0), BuildingBlock: CIFDUS_clean_linker_0, # of connection points: 2
#     Edge 62, Type (0, 0), BuildingBlock: CIFDUS_clean_linker_0, # of connection points: 2
#     Edge 63, Type (0, 0), BuildingBlock: CIFDUS_clean_linker_0, # of connection points: 2
# Relax obj value: 0.342
# Max RMSD: 0.271
# Mean RMSD: 0.271
data_MOF--net-whr--node1-OJICUG_clean_sbu_0--edge1-CIFDUS_clean_linker_0
_symmetry_space_group_name_H-M    P1
_symmetry_Int_Tables_number       1
_symmetry_cell_setting            triclinic
loop_
_symmetry_equiv_pos_as_xyz
'x, y, z'
_cell_length_a     43.30079
_cell_length_b     43.310395
_cell_length_c     26.387243
_cell_angle_alpha  90.049261
_cell_angle_beta   90.03531
_cell_angle_gamma 89.921534
loop_
_atom_site_label
_atom_site_type_symbol
_atom_site_fract_x
_atom_site_fract_y
_atom_site_fract_z
_atom_type_partial_charge
Sc0 Sc 0.18242 0.053 0.11422 0.0
Sc1 Sc 0.21872 0.09944 0.02396 0.0
Sc2 Sc 0.24781 0.02517 0.04855 0.0
O3 O 0.21651 0.05925 0.06266 0.0
C4 C 0.2391 0.02098 0.16846 0.0
C5 C 0.20248 0.12369 0.1331 0.0
C6 C 0.29057 0.0828 0.03747 0.0
C7 C 0.14557 0.09062 0.03228 0.0
C8 C 0.18541 0.98723 0.05939 0.0
C9 C 0.23284 0.05124 0.93779 0.0
O10 O 0.2147 0.03719 0.16972 0.0
O11 O 0.2176 0.12718 0.09211 0.0
O12 O 0.28723 0.05563 0.05483 0.0
O13 O 0.14616 0.06861 0.06407 0.0
O14 O 0.21157 0.99165 0.03877 0.0
O15 O 0.21875 0.07531 0.95292 0.0
O16 O 0.17302 0.00628 0.08997 0.0
O17 O 0.16982 0.10428 0.01752 0.0
O18 O 0.24647 0.03263 0.96768 0.0
O19 O 0.18791 0.09908 0.14412 0.0
O20 O 0.25275 0.01313 0.12777 0.0
O21 O 0.26814 0.09971 0.02366 0.0
Sc22 Sc 0.05512 0.80784 0.86356 0.0
Sc23 Sc 0.10149 0.76932 0.94899 0.0
Sc24 Sc 0.02526 0.74516 0.9279 0.0
O25 O 0.06072 0.77385 0.91403 0.0
C26 C 0.99469 0.81283 0.92371 0.0
C27 C 0.10101 0.84032 0.94169 0.0
C28 C 0.05209 0.75542 0.03722 0.0
C29 C 0.11898 0.78283 0.83237 0.0
C30 C 0.01489 0.7546 0.81377 0.0
C31 C 0.08349 0.6997 0.93419 0.0
O32 O 0.019 0.82661 0.90908 0.0
O33 O 0.10289 0.81712 0.97074 0.0
O34 O 0.02897 0.75258 0.00782 0.0
O35 O 0.09142 0.78873 0.81864 0.0
O36 O 0.01998 0.73492 0.84837 0.0
O37 O 0.10354 0.72102 0.93171 0.0
O38 O 0.02166 0.78295 0.81868 0.0
O39 O 0.12683 0.77923 0.87881 0.0
O40 O 0.05455 0.70474 0.93639 0.0
O41 O 0.08781 0.839 0.89876 0.0
O42 O 0.99197 0.78338 0.92396 0.0
O43 O 0.07965 0.75977 0.02154 0.0
Sc44 Sc 0.74582 0.97116 0.04619 0.0
Sc45 Sc 0.76684 0.89659 0.00818 0.0
Sc46 Sc 0.81282 0.93754 0.0915 0.0
O47 O 0.77509 0.93511 0.04798 0.0
C48 C 0.81325 0.00193 0.04263 0.0
C49 C 0.74554 0.95141 0.93292 0.0
C50 C 0.83752 0.89725 -0.00252 0.0
C51 C 0.70001 0.91349 0.04256 0.0
C52 C 0.76325 0.97317 0.15889 0.0
C53 C 0.7923 0.87117 0.11507 0.0
O54 O 0.78399 0.00448 0.04821 0.0
O55 O 0.74993 0.92284 0.94292 0.0
O56 O 0.84052 0.90867 0.04169 0.0
O57 O 0.70481 0.94245 0.0411 0.0
O58 O 0.79119 0.96672 0.14838 0.0
O59 O 0.78412 0.86665 0.06907 0.0
O60 O 0.74158 0.97093 0.12689 0.0
O61 O 0.72132 0.89346 0.03887 0.0
O62 O 0.7982 0.89781 0.13277 0.0
O63 O 0.74726 0.97269 0.96592 0.0
O64 O 0.8278 0.97693 0.05045 0.0
O65 O 0.81175 0.89648 0.97463 0.0
Sc66 Sc 0.96731 0.25494 0.93358 0.0
Sc67 Sc 0.89191 0.23271 0.96246 0.0
Sc68 Sc 0.93822 0.18661 0.8859 0.0
O69 O 0.9323 0.22475 0.92763 0.0
C70 C 0.97409 0.23788 0.82116 0.0
C71 C 0.90913 0.30004 0.93438 0.0
C72 C 0.87175 0.20553 0.85346 0.0
C73 C 0.94355 0.25201 0.04523 0.0
C74 C 0.00173 0.18956 0.93694 0.0
C75 C 0.89453 0.16157 0.97534 0.0
O76 O 0.96974 0.25984 0.85243 0.0
O77 O 0.8894 0.27848 0.93184 0.0
O78 O 0.89904 0.19824 0.84025 0.0
O79 O 0.96603 0.25106 0.01418 0.0
O80 O 0.97759 0.17347 0.93003 0.0
O81 O 0.89035 0.18776 -0.00426 0.0
O82 O 0.00201 0.21879 0.9314 0.0
O83 O 0.91534 0.24902 0.03133 0.0
O84 O 0.90934 0.15817 0.93402 0.0
O85 O 0.93785 0.29513 0.93979 0.0
O86 O 0.96772 0.20987 0.83158 0.0
O87 O 0.86505 0.21559 0.89774 0.0
Sc88 Sc 0.74526 0.02387 0.54321 0.0
Sc89 Sc 0.77223 0.0981 0.5161 0.0
Sc90 Sc 0.8132 0.05094 0.59759 0.0
O91 O 0.77655 0.05777 0.55251 0.0
C92 C 0.76014 0.01311 0.65504 0.0
C93 C 0.70311 0.08461 0.54192 0.0
C94 C 0.79557 0.11778 0.62773 0.0
C95 C 0.75323 0.04834 0.43209 0.0
C96 C 0.81024 0.98796 0.54376 0.0
C97 C 0.84306 0.09135 0.50975 0.0
O98 O 0.73863 0.01898 0.62369 0.0
O99 O 0.72561 0.1034 0.5418 0.0
O100 O 0.80059 0.0903 0.6428 0.0
O101 O 0.75057 0.02589 0.46274 0.0
O102 O 0.82671 0.01151 0.55368 0.0
O103 O 0.81797 0.09538 0.4861 0.0
O104 O 0.78077 0.98839 0.54518 0.0
O105 O 0.75753 0.07613 0.44634 0.0
O106 O 0.84424 0.07962 0.55381 0.0
O107 O 0.70635 0.05547 0.53832 0.0
O108 O 0.78809 0.02077 0.64762 0.0
O109 O 0.78834 0.12427 0.58195 0.0
Sc110 Sc 0.05203 0.18833 0.37247 0.0
Sc111 Sc 0.09962 0.22486 0.46097 0.0
Sc112 Sc 0.02581 0.25514 0.43653 0.0
O113 O 0.05926 0.22307 0.42261 0.0
C114 C 0.01966 0.24511 0.31689 0.0
C115 C 0.12212 0.20957 0.35038 0.0
C116 C 0.08315 0.29713 0.45139 0.0
C117 C 0.09215 0.15175 0.45165 0.0
C118 C 0.98787 0.19222 0.43074 0.0
C119 C 0.051 0.23789 0.54725 0.0
O120 O 0.03392 0.21951 0.31696 0.0
O121 O 0.12642 0.22438 0.39167 0.0
O122 O 0.05646 0.2943 0.43201 0.0
O123 O 0.06939 0.1523 0.42139 0.0
O124 O 0.992 0.21965 0.44625 0.0
O125 O 0.07509 0.22373 0.532 0.0
O126 O 0.00659 0.17821 0.40156 0.0
O127 O 0.10578 0.17605 0.46608 0.0
O128 O 0.03308 0.25271 0.51763 0.0
O129 O 0.09731 0.19499 0.34006 0.0
O130 O 0.01414 0.2607 0.35683 0.0
O131 O 0.09967 0.27423 0.46423 0.0
Sc132 Sc 0.18593 0.94464 0.60039 0.0
Sc133 Sc 0.22877 0.89437 0.52367 0.0
Sc134 Sc 0.25535 0.96975 0.54933 0.0
O135 O 0.22346 0.93598 0.55755 0.0
C136 C 0.19124 0.00722 0.54502 0.0
C137 C 0.15608 0.90013 0.51726 0.0
C138 C 0.247 0.94378 0.43779 0.0
C139 C 0.20735 0.87823 0.63685 0.0
C140 C 0.23928 0.97953 0.66205 0.0
C141 C 0.29879 0.91043 0.54558 0.0
O142 O 0.17415 0.98456 0.55677 0.0
O143 O 0.18158 0.89062 0.49963 0.0
O144 O 0.25183 0.96575 0.46892 0.0
O145 O 0.1962 0.90491 0.6458 0.0
O146 O 0.26075 0.97519 0.63002 0.0
O147 O 0.27679 0.89133 0.54188 0.0
O148 O 0.21128 0.97262 0.65334 0.0
O149 O 0.21815 0.86999 0.59382 0.0
O150 O 0.29485 0.93941 0.54716 0.0
O151 O 0.15433 0.91866 0.55433 0.0
O152 O 0.22062 0.00594 0.5472 0.0
O153 O 0.23951 0.91646 0.45155 0.0
Sc154 Sc 0.97103 0.7394 0.4268 0.0
Sc155 Sc 0.89759 0.77135 0.44965 0.0
Sc156 Sc 0.94872 0.80859 0.36842 0.0
O157 O 0.93902 0.77301 0.41501 0.0
C158 C 0.01168 0.80149 0.4243 0.0
C159 C 0.9452 0.75104 0.5371 0.0
C160 C 0.90838 0.84294 0.45286 0.0
C161 C 0.90835 0.70063 0.42844 0.0
C162 C 0.98114 0.75157 0.31192 0.0
C163 C 0.88013 0.79352 0.33713 0.0
O164 O 0.00904 0.77219 0.42658 0.0
O165 O 0.91847 0.75888 0.52137 0.0
O166 O 0.92476 0.84287 0.41298 0.0
O167 O 0.93762 0.7022 0.43086 0.0
O168 O 0.97467 0.77999 0.31724 0.0
O169 O 0.87286 0.78484 0.38171 0.0
O170 O 0.97664 0.73153 0.34636 0.0
O171 O 0.89091 0.72415 0.42903 0.0
O172 O 0.90767 0.80019 0.32418 0.0
O173 O 0.96767 0.74497 0.5076 0.0
O174 O 0.98987 0.81906 0.40987 0.0
O175 O 0.8992 0.81837 0.47407 0.0
Sc176 Sc 0.68535 0.55275 0.62541 0.0
Sc177 Sc 0.72133 0.59782 0.53366 0.0
Sc178 Sc 0.75297 0.52656 0.57089 0.0
O179 O 0.72017 0.5595 0.57668 0.0
C180 C 0.74303 0.52337 0.68431 0.0
C181 C 0.70234 0.62206 0.64514 0.0
C182 C 0.79247 0.58755 0.54986 0.0
C183 C 0.6496 0.58892 0.538 0.0
C184 C 0.69067 0.48748 0.57937 0.0
C185 C 0.73798 0.54261 0.45772 0.0
O186 O 0.71429 0.52778 0.67768 0.0
O187 O 0.70939 0.62687 0.59867 0.0
O188 O 0.79025 0.55853 0.55567 0.0
O189 O 0.65064 0.57588 0.58095 0.0
O190 O 0.72005 0.48905 0.58209 0.0
O191 O 0.73214 0.57111 0.46581 0.0
O192 O 0.67334 0.51061 0.58775 0.0
O193 O 0.67363 0.59517 0.51268 0.0
O194 O 0.74393 0.52316 0.49231 0.0
O195 O 0.69634 0.59537 0.66298 0.0
O196 O 0.763 0.52838 0.65021 0.0
O197 O 0.76929 0.60545 0.54799 0.0
Sc198 Sc 0.55302 0.31308 0.38276 0.0
Sc199 Sc 0.60207 0.2717 0.46326 0.0
Sc200 Sc 0.52563 0.24616 0.44161 0.0
O201 O 0.5604 0.27678 0.4293 0.0
C202 C 0.49156 0.3122 0.44398 0.0
C203 C 0.59792 0.34449 0.46444 0.0
C204 C 0.55387 0.25579 0.55175 0.0
C205 C 0.61883 0.28934 0.34862 0.0
C206 C 0.51486 0.25959 0.32652 0.0
C207 C 0.58426 0.20152 0.44389 0.0
O208 O 0.51406 0.32738 0.42604 0.0
O209 O 0.60647 0.31928 0.48428 0.0
O210 O 0.53139 0.24969 0.52227 0.0
O211 O 0.5923 0.3003 0.33808 0.0
O212 O 0.51751 0.23963 0.36151 0.0
O213 O 0.60367 0.22322 0.4485 0.0
O214 O 0.52396 0.28731 0.33132 0.0
O215 O 0.62666 0.28004 0.39271 0.0
O216 O 0.55527 0.20582 0.44162 0.0
O217 O 0.58003 0.34553 0.42638 0.0
O218 O 0.49106 0.28276 0.44603 0.0
O219 O 0.58062 0.26363 0.53616 0.0
Sc220 Sc 0.24694 0.47288 0.55277 0.0
Sc221 Sc 0.26123 0.39439 0.53528 0.0
Sc222 Sc 0.30864 0.43817 0.61319 0.0
O223 O 0.27251 0.43492 0.56653 0.0
C224 C 0.3151 0.50035 0.5599 0.0
C225 C 0.25384 0.44509 0.44536 0.0
C226 C 0.33301 0.38925 0.5307 0.0
C227 C 0.19576 0.42041 0.54599 0.0
C228 C 0.25667 0.47924 0.66723 0.0
C229 C 0.28079 0.37529 0.64886 0.0
O230 O 0.28594 0.50428 0.56169 0.0
O231 O 0.25214 0.41737 0.46234 0.0
O232 O 0.33668 0.40586 0.57013 0.0
O233 O 0.20465 0.44782 0.53766 0.0
O234 O 0.28475 0.47087 0.66193 0.0
O235 O 0.2713 0.36809 0.60449 0.0
O236 O 0.2366 0.47679 0.63219 0.0
O237 O 0.21428 0.3994 0.55991 0.0
O238 O 0.29154 0.40173 0.65986 0.0
O239 O 0.25635 0.46878 0.47374 0.0
O240 O 0.32768 0.47449 0.56878 0.0
O241 O 0.30703 0.38559 0.50931 0.0
Sc242 Sc 0.4689 0.74892 0.43139 0.0
Sc243 Sc 0.39416 0.72896 0.47016 0.0
Sc244 Sc 0.43823 0.6783 0.39797 0.0
O245 O 0.43356 0.7188 0.43343 0.0
C246 C 0.47424 0.72424 0.32361 0.0
C247 C 0.41086 0.79432 0.42994 0.0
C248 C 0.37114 0.69709 0.36736 0.0
C249 C 0.44803 0.7522 0.54461 0.0
C250 C 0.50328 0.68371 0.44279 0.0
C251 C 0.39697 0.65861 0.49331 0.0
O252 O 0.47008 0.74853 0.34989 0.0
O253 O 0.39108 0.7729 0.43349 0.0
O254 O 0.39778 0.68777 0.35379 0.0
O255 O 0.46944 0.74993 0.51184 0.0
O256 O 0.47884 0.66754 0.44091 0.0
O257 O 0.39266 0.68578 0.50993 0.0
O258 O 0.50344 0.71253 0.43305 0.0
O259 O 0.41946 0.74848 0.53404 0.0
O260 O 0.41088 0.65314 0.45191 0.0
O261 O 0.43976 0.78959 0.43269 0.0
O262 O 0.46662 0.69753 0.3391 0.0
O263 O 0.36561 0.70949 0.41029 0.0
Sc264 Sc 0.2408 0.52473 0.05403 0.0
Sc265 Sc 0.26865 0.59975 0.02985 0.0
Sc266 Sc 0.30978 0.5498 0.10936 0.0
O267 O 0.27297 0.55828 0.0644 0.0
C268 C 0.25475 0.51576 0.16897 0.0
C269 C 0.19828 0.58493 0.05046 0.0
C270 C 0.29049 0.61761 0.14185 0.0
C271 C 0.25149 0.55059 0.94311 0.0
C272 C 0.30445 0.48645 0.05476 0.0
C273 C 0.34122 0.59276 0.02519 0.0
O274 O 0.23425 0.5192 0.13482 0.0
O275 O 0.22062 0.6037 0.04784 0.0
O276 O 0.30041 0.59073 0.15292 0.0
O277 O 0.24553 0.52831 0.97306 0.0
O278 O 0.32145 0.50886 0.06821 0.0
O279 O 0.31592 0.60225 0.00679 0.0
O280 O 0.27509 0.48815 0.05359 0.0
O281 O 0.25866 0.57766 0.95815 0.0
O282 O 0.34258 0.57459 0.06287 0.0
O283 O 0.20172 0.55583 0.05062 0.0
O284 O 0.28291 0.52315 0.1627 0.0
O285 O 0.2797 0.62484 0.09847 0.0
Sc286 Sc 0.55075 0.68565 0.88283 0.0
Sc287 Sc 0.59482 0.72646 0.97119 0.0
Sc288 Sc 0.52272 0.75625 0.93185 0.0
O289 O 0.55613 0.72291 0.92838 0.0
C290 C 0.5231 0.74017 0.81506 0.0
C291 C 0.62145 0.7052 0.8651 0.0
C292 C 0.58115 0.79779 0.94687 0.0
C293 C 0.58684 0.65314 0.9717 0.0
C294 C 0.48327 0.69362 0.92873 0.0
C295 C 0.54232 0.74638 0.04757 0.0
O296 O 0.53527 0.71379 0.82122 0.0
O297 O 0.62475 0.7209 0.90573 0.0
O298 O 0.55466 0.7945 0.92701 0.0
O299 O 0.56618 0.65217 0.93769 0.0
O300 O 0.4864 0.72225 0.93844 0.0
O301 O 0.56719 0.7315 0.03873 0.0
O302 O 0.50445 0.67729 0.90884 0.0
O303 O 0.59938 0.6781 0.98579 0.0
O304 O 0.52532 0.75786 0.01304 0.0
O305 O 0.5968 0.6908 0.85363 0.0
O306 O 0.5166 0.75838 0.85117 0.0
O307 O 0.59673 0.77553 0.96474 0.0
Sc308 Sc 0.68551 0.44678 0.11486 0.0
Sc309 Sc 0.72826 0.39635 0.03865 0.0
Sc310 Sc 0.75464 0.47284 0.05972 0.0
O311 O 0.72299 0.43859 0.07116 0.0
C312 C 0.69027 0.51002 0.05651 0.0
C313 C 0.65484 0.40199 0.0345 0.0
C314 C 0.74467 0.44308 0.9501 0.0
C315 C 0.70872 0.38005 0.15106 0.0
C316 C 0.73905 0.48273 0.17469 0.0
C317 C 0.79889 0.41473 0.05768 0.0
O318 O 0.67407 0.48891 0.07656 0.0
O319 O 0.68021 0.38954 0.02205 0.0
O320 O 0.7533 0.46462 0.97974 0.0
O321 O 0.69404 0.40526 0.15721 0.0
O322 O 0.75868 0.48411 0.13902 0.0
O323 O 0.77717 0.39603 0.04836 0.0
O324 O 0.71243 0.47095 0.16949 0.0
O325 O 0.72279 0.3728 0.11035 0.0
O326 O 0.79469 0.44333 0.06535 0.0
O327 O 0.65316 0.42396 0.06605 0.0
O328 O 0.71933 0.50769 0.05041 0.0
O329 O 0.73381 0.41734 0.96524 0.0
Sc330 Sc 0.47087 0.23995 0.94123 0.0
Sc331 Sc 0.39586 0.27009 0.95945 0.0
Sc332 Sc 0.44881 0.30921 0.88289 0.0
O333 O 0.43834 0.27298 0.9279 0.0
C334 C 0.51062 0.30267 0.94228 0.0
C335 C 0.44257 0.25271 0.05036 0.0
C336 C 0.40433 0.34255 0.96245 0.0
C337 C 0.40988 0.19909 0.94052 0.0
C338 C 0.48313 0.25299 0.82702 0.0
C339 C 0.38167 0.29042 0.84473 0.0
O340 O 0.50804 0.27341 0.94461 0.0
O341 O 0.41617 0.26119 0.03359 0.0
O342 O 0.42385 0.34311 0.92666 0.0
O343 O 0.43904 0.20158 0.94143 0.0
O344 O 0.47591 0.28125 0.8323 0.0
O345 O 0.37277 0.28003 0.88764 0.0
O346 O 0.47877 0.2328 0.86123 0.0
O347 O 0.39168 0.22193 0.94332 0.0
O348 O 0.40889 0.30037 0.83652 0.0
O349 O 0.46498 0.24501 0.02171 0.0
O350 O 0.48909 0.32008 0.92635 0.0
O351 O 0.39346 0.31769 0.98016 0.0
H352 H 0.21731 0.13207 0.23209 0.0
H353 H 0.17097 0.17448 0.10554 0.0
H354 H 0.14451 0.21023 0.16275 0.0
H355 H 0.12689 0.22146 0.24988 0.0
H356 H 0.17507 0.181 0.37632 0.0
H357 H 0.20915 0.15302 0.31835 0.0
C358 C 0.20244 0.15006 0.21709 0.0
C359 C 0.19597 0.15079 0.16496 0.0
C360 C 0.1874 0.1706 0.25026 0.0
C361 C 0.17648 0.17386 0.14561 0.0
C362 C 0.16109 0.19405 0.17835 0.0
C363 C 0.14579 0.20761 0.26453 0.0
C364 C 0.14858 0.20319 0.31704 0.0
C365 C 0.16526 0.19159 0.23092 0.0
C366 C 0.17284 0.18499 0.33593 0.0
C367 C 0.19205 0.16866 0.30279 0.0
H368 H 0.17036 0.81729 0.84 0.0
H369 H 0.11939 0.75949 0.7368 0.0
H370 H 0.149 0.7798 0.66531 0.0
H371 H 0.18078 0.82202 0.63128 0.0
H372 H 0.22562 0.88482 0.73428 0.0
H373 H 0.20775 0.8545 0.80664 0.0
C374 C 0.16674 0.80824 0.80209 0.0
C375 C 0.14293 0.78693 0.79343 0.0
C376 C 0.18245 0.8215 0.76098 0.0
C377 C 0.13778 0.77585 0.74412 0.0
C378 C 0.15449 0.78767 0.70326 0.0
C379 C 0.18757 0.82824 0.66954 0.0
C380 C 0.20446 0.85541 0.67778 0.0
C381 C 0.17567 0.81171 0.71097 0.0
C382 C 0.21264 0.86385 0.72737 0.0
C383 C 0.20226 0.84665 0.76867 0.0
H384 H 0.87999 0.78527 0.23478 0.0
H385 H 0.82438 0.81862 0.35888 0.0
H386 H 0.78794 0.84168 0.29928 0.0
H387 H 0.77743 0.86014 0.21275 0.0
H388 H 0.83153 0.82534 0.08819 0.0
H389 H 0.86253 0.79435 0.14676 0.0
C390 C 0.85945 0.79692 0.24857 0.0
C391 C 0.85509 0.80071 0.30101 0.0
C392 C 0.8384 0.80992 0.21403 0.0
C393 C 0.82823 0.81546 0.31863 0.0
C394 C 0.80747 0.82882 0.28459 0.0
C395 C 0.7952 0.84475 0.1984 0.0
C396 C 0.80234 0.84498 0.14651 0.0
C397 C 0.81303 0.82726 0.23232 0.0
C398 C 0.82545 0.82518 0.12803 0.0
C399 C 0.84346 0.80783 0.16159 0.0
H400 H 0.78285 0.12251 0.7285 0.0
H401 H 0.82811 0.16926 0.60501 0.0
H402 H 0.85282 0.20466 0.66464 0.0
H403 H 0.86805 0.2164 0.75262 0.0
H404 H 0.82113 0.17155 0.87617 0.0
H405 H 0.78997 0.14186 0.81602 0.0
C406 C 0.79746 0.14102 0.71471 0.0
C407 C 0.80392 0.14315 0.6626 0.0
C408 C 0.81138 0.16151 0.74925 0.0
C409 C 0.82269 0.16729 0.64496 0.0
C410 C 0.83702 0.18739 0.67908 0.0
C411 C 0.85018 0.20094 0.76621 0.0
C412 C 0.84688 0.19603 0.81857 0.0
C413 C 0.83244 0.18394 0.7314 0.0
C414 C 0.8238 0.17592 0.83598 0.0
C415 C 0.80627 0.15865 0.80158 0.0
H416 H 0.62713 0.71902 0.76582 0.0
H417 H 0.67396 0.67543 0.89078 0.0
H418 H 0.7081 0.64823 0.83178 0.0
H419 H 0.71657 0.62903 0.74472 0.0
H420 H 0.67067 0.67378 0.61971 0.0
H421 H 0.6447 0.70895 0.67837 0.0
C422 C 0.64577 0.70464 0.77999 0.0
C423 C 0.6482 0.69914 0.8323 0.0
C424 C 0.66506 0.68892 0.74579 0.0
C425 C 0.67206 0.68024 0.8506 0.0
C426 C 0.69127 0.66438 0.81683 0.0
C427 C 0.70173 0.64723 0.73034 0.0
C428 C 0.6952 0.64864 0.67818 0.0
C429 C 0.68686 0.66734 0.76434 0.0
C430 C 0.67611 0.67235 0.65974 0.0
C431 C 0.66101 0.69226 0.69332 0.0
H432 H 0.67189 0.32088 0.35499 0.0
H433 H 0.61658 0.26631 0.25318 0.0
H434 H 0.64666 0.28484 0.18086 0.0
H435 H 0.6803 0.32521 0.14608 0.0
H436 H 0.72896 0.38597 0.24755 0.0
H437 H 0.71071 0.35632 0.32055 0.0
C438 C 0.66741 0.31214 0.31713 0.0
C439 C 0.6424 0.29221 0.30902 0.0
C440 C 0.68339 0.32456 0.27564 0.0
C441 C 0.636 0.28153 0.25992 0.0
C442 C 0.65299 0.29234 0.21866 0.0
C443 C 0.68784 0.33101 0.18414 0.0
C444 C 0.70606 0.35733 0.19189 0.0
C445 C 0.67557 0.31513 0.22584 0.0
C446 C 0.71515 0.36548 0.24114 0.0
C447 C 0.70449 0.34873 0.28275 0.0
H448 H 0.32424 0.31538 0.84962 0.0
H449 H 0.38975 0.27497 0.74609 0.0
H450 H 0.35848 0.29169 0.67396 0.0
H451 H 0.31835 0.3263 0.64075 0.0
H452 H 0.25737 0.37307 0.74427 0.0
H453 H 0.28009 0.34495 0.81569 0.0
C454 C 0.33101 0.30938 0.81127 0.0
C455 C 0.35915 0.29394 0.80301 0.0
C456 C 0.31369 0.32051 0.76989 0.0
C457 C 0.36814 0.28685 0.7532 0.0
C458 C 0.35032 0.29652 0.71198 0.0
C459 C 0.30915 0.32917 0.67872 0.0
C460 C 0.28588 0.35119 0.68734 0.0
C461 C 0.3238 0.31453 0.71981 0.0
C462 C 0.27487 0.35574 0.73683 0.0
C463 C 0.28817 0.33998 0.77768 0.0
H464 H 0.28085 0.61655 0.24316 0.0
H465 H 0.31589 0.67329 0.12209 0.0
H466 H 0.34108 0.70718 0.18356 0.0
H467 H 0.36122 0.71405 0.27032 0.0
H468 H 0.32456 0.65875 0.39172 0.0
H469 H 0.29135 0.63115 0.33185 0.0
C470 C 0.29314 0.63697 0.23054 0.0
C471 C 0.29694 0.64234 0.17848 0.0
C472 C 0.30751 0.65631 0.26607 0.0
C473 C 0.31266 0.66886 0.16215 0.0
C474 C 0.32731 0.68804 0.19722 0.0
C475 C 0.34506 0.69674 0.28365 0.0
C476 C 0.34523 0.68815 0.33486 0.0
C477 C 0.3261 0.68108 0.24907 0.0
C478 C 0.32446 0.66573 0.35228 0.0
C479 C 0.30575 0.64978 0.31805 0.0
H480 H 0.18 0.96148 0.9667 0.0
H481 H 0.15183 0.95046 0.12225 0.0
H482 H 0.12342 0.90343 0.09998 0.0
H483 H 0.10687 0.86528 0.03582 0.0
H484 H 0.13154 0.87933 0.87918 0.0
H485 H 0.16091 0.9254 0.90208 0.0
C486 C 0.16771 0.94865 -0.00435 0.0
C487 C 0.1682 0.95904 0.04605 0.0
C488 C 0.15071 0.92231 0.98228 0.0
C489 C 0.15174 0.94272 0.0832 0.0
C490 C 0.13556 0.91588 0.07048 0.0
C491 C 0.11863 0.87856 0.00684 0.0
C492 C 0.11714 0.869 0.95599 0.0
C493 C 0.1349 0.90545 0.02012 0.0
C494 C 0.13218 0.88645 0.91855 0.0
C495 C 0.1491 0.91267 0.93162 0.0
H496 H 0.89858 0.90652 0.01609 0.0
H497 H 0.83581 0.85041 0.92855 0.0
H498 H 0.87877 0.81865 0.89905 0.0
H499 H 0.93413 0.80539 0.90087 0.0
H500 H 0.99726 0.86358 0.98347 0.0
H501 H 0.95429 0.89578 0.01251 0.0
C502 C 0.89437 0.88752 0.99018 0.0
C503 C 0.86406 0.8808 0.97472 0.0
C504 C 0.91921 0.86949 0.97296 0.0
C505 C 0.85896 0.85625 0.94079 0.0
C506 C 0.88349 0.83789 0.92419 0.0
C507 C 0.93832 0.82509 0.92534 0.0
C508 C 0.96857 0.83199 0.94066 0.0
C509 C 0.91365 0.84402 0.94059 0.0
C510 C 0.97402 0.85788 0.97145 0.0
C511 C 0.94951 0.87627 0.988 0.0
H512 H 0.90482 0.10095 0.95461 0.0
H513 H 0.84766 0.16156 0.04468 0.0
H514 H 0.81676 0.1177 0.07244 0.0
H515 H 0.80455 0.06214 0.06844 0.0
H516 H 0.86327 0.00158 0.98136 0.0
H517 H 0.89469 0.04539 0.95472 0.0
C518 C 0.88578 0.10455 0.98067 0.0
C519 C 0.87854 0.13452 -0.00272 0.0
C520 C 0.86808 0.07926 -0.00346 0.0
C521 C 0.8539 0.13872 0.03139 0.0
C522 C 0.83601 0.11368 0.04704 0.0
C523 C 0.82415 0.05868 0.04346 0.0
C524 C 0.83147 0.02885 0.02644 0.0
C525 C 0.8426 0.08389 0.02925 0.0
C526 C 0.85723 0.02443 -0.00514 0.0
C527 C 0.87521 0.04943 0.97965 0.0
H528 H 0.00944 0.13214 0.97788 0.0
H529 H 0.05972 0.21205 0.92531 0.0
H530 H 0.10831 0.18743 0.94768 0.0
H531 H 0.13635 0.14458 0.98396 0.0
H532 H 0.08753 0.06495 0.04088 0.0
H533 H 0.03836 0.08814 0.01457 0.0
C534 C 0.03106 0.14404 0.97113 0.0
C535 C 0.03094 0.17392 0.95008 0.0
C536 C 0.05908 0.12989 0.98475 0.0
C537 C 0.05911 0.18917 0.94183 0.0
C538 C 0.08694 0.17508 0.95444 0.0
C539 C 0.11507 0.13198 0.99031 0.0
C540 C 0.11567 0.10296 0.01418 0.0
C541 C 0.08715 0.14561 0.97616 0.0
C542 C 0.08772 0.08731 0.02254 0.0
C543 C 0.05963 0.10058 0.00757 0.0
H544 H 0.8674 0.97935 0.50317 0.0
H545 H 0.78767 0.93032 0.55917 0.0
H546 H 0.81248 0.88113 0.54013 0.0
H547 H 0.85553 0.85215 0.5045 0.0
H548 H 0.934 0.90039 0.44257 0.0
H549 H 0.91113 0.94989 0.46757 0.0
C550 C 0.85558 0.95787 0.51139 0.0
C551 C 0.82572 0.95844 0.53232 0.0
C552 C 0.86976 0.9296 0.49947 0.0
C553 C 0.81053 0.93048 0.54251 0.0
C554 C 0.82474 0.90234 0.53189 0.0
C555 C 0.86789 0.87345 0.49714 0.0
C556 C 0.89649 0.87266 0.47209 0.0
C557 C 0.8542 0.90166 0.51002 0.0
C558 C 0.91195 0.90047 0.46192 0.0
C559 C 0.89885 0.92873 0.47606 0.0
H560 H 0.88239 0.12918 0.55702 0.0
H561 H 0.86493 0.08493 0.41362 0.0
H562 H 0.90949 0.11143 0.37616 0.0
H563 H 0.95231 0.14887 0.38408 0.0
H564 H 0.96544 0.19688 0.52582 0.0
H565 H 0.92357 0.16748 0.56416 0.0
C566 C 0.88874 0.12506 0.5178 0.0
C567 C 0.87108 0.10489 0.48816 0.0
C568 C 0.91329 0.14136 0.49619 0.0
C569 C 0.87866 0.10023 0.43702 0.0
C570 C 0.90395 0.11544 0.41567 0.0
C571 C 0.94588 0.1528 0.42329 0.0
C572 C 0.96171 0.17499 0.45208 0.0
C573 C 0.92123 0.13634 0.44479 0.0
C574 C 0.95322 0.18014 0.50278 0.0
C575 C 0.92946 0.16323 0.52484 0.0
H576 H 0.14954 0.1417 0.48737 0.0
H577 H 0.06429 0.09466 0.45266 0.0
H578 H 0.08735 0.04553 0.47942 0.0
H579 H 0.13213 0.0162 0.51203 0.0
H580 H 0.21753 0.0642 0.54292 0.0
H581 H 0.19382 0.11288 0.51812 0.0
C582 C 0.13579 0.12079 0.486 0.0
C583 C 0.10512 0.12188 0.46853 0.0
C584 C 0.14928 0.09283 0.50054 0.0
C585 C 0.08793 0.09443 0.4661 0.0
C586 C 0.1011 0.06639 0.48139 0.0
C587 C 0.1455 0.03734 0.51347 0.0
C588 C 0.17656 0.03654 0.52943 0.0
C589 C 0.13182 0.06533 0.49858 0.0
C590 C 0.19366 0.06409 0.5306 0.0
C591 C 0.18011 0.09197 0.51657 0.0
H592 H 0.14733 0.84283 0.4792 0.0
H593 H 0.09995 0.92835 0.51098 0.0
H594 H 0.05111 0.90556 0.48324 0.0
H595 H 0.0217 0.86077 0.45326 0.0
H596 H 0.06855 0.77418 0.42698 0.0
H597 H 0.11782 0.7979 0.44963 0.0
C598 C 0.12636 0.85657 0.47935 0.0
C599 C 0.12719 0.88726 0.49663 0.0
C600 C 0.09828 0.84303 0.46492 0.0
C601 C 0.09981 0.90467 0.49771 0.0
C602 C 0.07192 0.89165 0.48198 0.0
C603 C 0.04271 0.84711 0.45225 0.0
C604 C 0.04146 0.81577 0.4384 0.0
C605 C 0.07084 0.86075 0.46609 0.0
C606 C 0.06885 0.7983 0.43781 0.0
C607 C 0.09704 0.81188 0.45055 0.0
H608 H 0.6355 0.47914 0.53259 0.0
H609 H 0.71398 0.4294 0.59194 0.0
H610 H 0.69136 0.38062 0.56378 0.0
H611 H 0.65022 0.35234 0.51979 0.0
H612 H 0.57328 0.40238 0.45576 0.0
H613 H 0.59437 0.45083 0.48833 0.0
C614 C 0.64749 0.45758 0.53982 0.0
C615 C 0.67629 0.45785 0.56456 0.0
C616 C 0.63471 0.42972 0.52246 0.0
C617 C 0.69181 0.4298 0.5729 0.0
C618 C 0.67889 0.40191 0.55684 0.0
C619 C 0.63792 0.37382 0.5133 0.0
C620 C 0.61015 0.37372 0.48551 0.0
C621 C 0.65049 0.40163 0.53121 0.0
C622 C 0.59474 0.40182 0.47687 0.0
C623 C 0.60675 0.42952 0.49555 0.0
H624 H 0.39384 0.40416 0.53677 0.0
H625 H 0.33144 0.3346 0.48016 0.0
H626 H 0.37499 0.30383 0.45019 0.0
H627 H 0.43097 0.29655 0.44013 0.0
H628 H 0.49317 0.36774 0.49138 0.0
H629 H 0.44968 0.39791 0.52353 0.0
C630 C 0.38985 0.38229 0.51781 0.0
C631 C 0.35955 0.37167 0.51071 0.0
C632 C 0.41496 0.36494 0.49986 0.0
C633 C 0.3546 0.34341 0.4857 0.0
C634 C 0.37948 0.3257 0.46877 0.0
C635 C 0.4349 0.31859 0.45858 0.0
C636 C 0.46509 0.32987 0.46371 0.0
C637 C 0.40976 0.3362 0.47574 0.0
C638 C 0.47001 0.35867 0.48695 0.0
C639 C 0.4452 0.37591 0.50537 0.0
H640 H 0.30485 0.56073 0.58181 0.0
H641 H 0.37081 0.49883 0.51298 0.0
H642 H 0.40384 0.54244 0.49099 0.0
H643 H 0.41217 0.59818 0.48626 0.0
H644 H 0.34703 0.66037 0.55657 0.0
H645 H 0.31588 0.61653 0.58433 0.0
C646 C 0.32646 0.55689 0.56199 0.0
C647 C 0.33521 0.52678 0.54825 0.0
C648 C 0.34558 0.58201 0.5502 0.0
C649 C 0.36356 0.52189 0.52364 0.0
C650 C 0.38245 0.54677 0.51111 0.0
C651 C 0.39138 0.60213 0.5083 0.0
C652 C 0.38176 0.63244 0.51888 0.0
C653 C 0.37347 0.57692 0.5236 0.0
C654 C 0.355 0.63722 0.54803 0.0
C655 C 0.337 0.61219 0.56347 0.0
H656 H 0.51246 0.62971 0.49343 0.0
H657 H 0.56075 0.70358 0.4176 0.0
H658 H 0.6101 0.67908 0.43654 0.0
H659 H 0.63964 0.63806 0.47742 0.0
H660 H 0.59221 0.56583 0.55845 0.0
H661 H 0.54234 0.5881 0.53416 0.0
C662 C 0.5338 0.64032 0.48088 0.0
C663 C 0.53295 0.66845 0.45434 0.0
C664 C 0.5622 0.62638 0.49265 0.0
C665 C 0.56078 0.68208 0.43856 0.0
C666 C 0.58902 0.66803 0.44914 0.0
C667 C 0.61839 0.6269 0.48911 0.0
C668 C 0.61954 0.60025 0.51933 0.0
C669 C 0.59 0.64034 0.47646 0.0
C670 C 0.59184 0.58638 0.53506 0.0
C671 C 0.56338 0.59913 0.52132 0.0
H672 H 0.34793 0.35138 0.00315 0.0
H673 H 0.43135 0.39971 0.96233 0.0
H674 H 0.40802 0.44867 0.989 0.0
H675 H 0.36324 0.47768 0.02147 0.0
H676 H 0.27897 0.42906 0.05685 0.0
H677 H 0.30337 0.38012 0.03448 0.0
C678 C 0.36118 0.37257 0.00064 0.0
C679 C 0.3914 0.37195 0.98126 0.0
C680 C 0.34738 0.40054 0.01463 0.0
C681 C 0.40805 0.39965 0.97725 0.0
C682 C 0.39472 0.42759 0.99241 0.0
C683 C 0.35028 0.45634 0.02447 0.0
C684 C 0.31935 0.45697 0.04083 0.0
C685 C 0.36429 0.42832 0.01074 0.0
C686 C 0.30273 0.42921 0.04404 0.0
C687 C 0.31669 0.40121 0.03146 0.0
H688 H 0.34906 0.64964 0.98579 0.0
H689 H 0.39831 0.56566 0.02057 0.0
H690 H 0.44655 0.58903 0.99085 0.0
H691 H 0.47486 0.63413 0.95795 0.0
H692 H 0.42586 0.71931 0.93042 0.0
H693 H 0.37726 0.69468 0.95436 0.0
C694 C 0.3703 0.63631 0.98627 0.0
C695 C 0.37014 0.60587 0.00479 0.0
C696 C 0.39795 0.65021 0.97076 0.0
C697 C 0.39791 0.58911 0.00632 0.0
C698 C 0.42543 0.60247 0.9894 0.0
C699 C 0.45347 0.64719 0.95684 0.0
C700 C 0.45387 0.67844 0.94221 0.0
C701 C 0.42576 0.63311 0.97197 0.0
C702 C 0.42612 0.69526 0.9417 0.0
C703 C 0.39835 0.68118 0.95527 0.0
H704 H 0.64561 0.64385 0.00011 0.0
H705 H 0.55841 0.5969 0.98329 0.0
H706 H 0.58273 0.54815 0.00921 0.0
H707 H 0.62933 0.51898 0.03459 0.0
H708 H 0.7168 0.56642 0.04502 0.0
H709 H 0.69175 0.615 0.02316 0.0
C710 C 0.63176 0.62305 0.00283 0.0
C711 C 0.60017 0.62399 0.99066 0.0
C712 C 0.64604 0.59521 0.016 0.0
C713 C 0.58274 0.59671 0.99291 0.0
C714 C 0.59665 0.5689 0.00754 0.0
C715 C 0.64287 0.53998 0.03214 0.0
C716 C 0.67489 0.53908 0.0415 0.0
C717 C 0.62837 0.56786 0.01879 0.0
C718 C 0.69218 0.56641 0.03768 0.0
C719 C 0.67786 0.59424 0.02545 0.0
H720 H 0.52093 0.36276 0.96681 0.0
H721 H 0.56672 0.27455 0.95215 0.0
H722 H 0.61572 0.29809 0.97629 0.0
H723 H 0.64533 0.34334 0.00313 0.0
H724 H 0.59929 0.431 0.02235 0.0
H725 H 0.55058 0.40807 -0.0057 0.0
C726 C 0.54165 0.3487 0.96873 0.0
C727 C 0.54015 0.31695 0.95766 0.0
C728 C 0.56968 0.36228 0.98323 0.0
C729 C 0.56717 0.29901 0.96078 0.0
C730 C 0.59523 0.31246 0.97437 0.0
C731 C 0.62471 0.35752 0.0006 0.0
C732 C 0.6259 0.38884 0.0144 0.0
C733 C 0.59673 0.34403 0.98577 0.0
C734 C 0.5989 0.40681 0.01186 0.0
C735 C 0.57108 0.39371 -0.00408 0.0
H736 H 0.20441 0.02136 0.70982 0.0
H737 H 0.2891 0.96968 0.72402 0.0
H738 H 0.29548 0.98866 0.81117 0.0
H739 H 0.2743 0.01666 0.88502 0.0
H740 H 0.19006 0.06921 0.86838 0.0
H741 H 0.18619 0.05325 0.77999 0.0
C742 C 0.22442 0.0145 0.73193 0.0
C743 C 0.24607 0.99392 0.71123 0.0
C744 C 0.22783 0.02547 0.78142 0.0
C745 C 0.2722 0.98555 0.73951 0.0
C746 C 0.27569 0.99622 0.78927 0.0
C747 C 0.25521 0.02472 0.8619 0.0
C748 C 0.23226 0.04373 0.88331 0.0
C749 C 0.25324 0.01563 0.81094 0.0
C750 C 0.20796 0.05451 0.85279 0.0
C751 C 0.20567 0.04533 0.80233 0.0
H752 H 0.03105 0.77706 0.26981 0.0
H753 H 0.96201 0.70704 0.24578 0.0
H754 H 0.97944 0.70062 0.1578 0.0
H755 H 0.01061 0.71941 0.08586 0.0
H756 H 0.08076 0.78834 0.11142 0.0
H757 H 0.06683 0.79066 0.20121 0.0
C758 C 0.02033 0.75994 0.24544 0.0
C759 C 0.99528 0.74262 0.26357 0.0
C760 C 0.03042 0.75654 0.19536 0.0
C761 C 0.98148 0.7204 0.23232 0.0
C762 C 0.99126 0.71699 0.18207 0.0
C763 C 0.02299 0.73471 0.11131 0.0
C764 C 0.04628 0.7541 0.09217 0.0
C765 C 0.01507 0.73564 0.16284 0.0
C766 C 0.06267 0.77335 0.12542 0.0
C767 C 0.05465 0.77473 0.17661 0.0
H768 H 0.76966 0.92846 0.84587 0.0
H769 H 0.70636 0.99677 0.90386 0.0
H770 H 0.70116 0.01947 0.81963 0.0
H771 H 0.72032 0.02433 0.73212 0.0
H772 H 0.78745 0.95907 0.67671 0.0
H773 H 0.78522 0.93049 0.75646 0.0
C774 C 0.75422 0.94784 0.83962 0.0
C775 C 0.73864 0.96112 0.88073 0.0
C776 C 0.75227 0.96152 0.79151 0.0
C777 C 0.71886 0.98642 0.87257 0.0
C778 C 0.71588 -0.00057 0.82451 0.0
C779 C 0.73378 0.00343 0.73738 0.0
C780 C 0.75399 0.99367 0.69925 0.0
C781 C 0.73332 0.98787 0.78406 0.0
C782 C 0.77179 0.96687 0.70613 0.0
C783 C 0.7706 0.95062 0.75163 0.0
H784 H -0.00079 0.26653 0.08595 0.0
H785 H 0.90506 0.24601 0.12777 0.0
H786 H 0.91962 0.24681 0.21744 0.0
H787 H 0.96058 0.24754 0.28333 0.0
H788 H 0.05477 0.26468 0.23926 0.0
H789 H 0.03871 0.27149 0.1511 0.0
C790 C 0.98169 0.26245 0.11452 0.0
C791 C 0.95112 0.25575 0.09988 0.0
C792 C 0.99031 0.26246 0.16574 0.0
C793 C 0.92879 0.251 0.13777 0.0
C794 C 0.93713 0.25141 0.18911 0.0
C795 C 0.97729 0.25372 0.25446 0.0
C796 C 0.00869 0.25617 0.26744 0.0
C797 C 0.96798 0.2564 0.20349 0.0
C798 C 0.03044 0.26324 0.2299 0.0
C799 C 0.02129 0.26682 0.17955 0.0
H800 H 0.78835 0.02249 0.20501 0.0
H801 H 0.72142 0.95002 0.22487 0.0
H802 H 0.71086 0.968 0.31133 0.0
H803 H 0.72295 0.00279 0.38238 0.0
H804 H 0.78732 0.07751 0.36021 0.0
H805 H 0.79622 0.0607 0.27299 0.0
C806 C 0.77142 0.01081 0.22846 0.0
C807 C 0.75597 0.98482 0.20959 0.0
C808 C 0.76492 0.02181 0.27728 0.0
C809 C 0.73362 0.97002 0.23929 0.0
C810 C 0.72762 0.98028 0.28849 0.0
C811 C 0.7386 0.01558 0.35814 0.0
C812 C 0.7546 0.04118 0.37758 0.0
C813 C 0.7434 0.00594 0.30803 0.0
C814 C 0.77459 0.05783 0.34586 0.0
C815 C 0.7799 0.04808 0.29619 0.0
H816 H 0.01651 0.27836 0.60238 0.0
H817 H 0.06538 0.19165 0.61301 0.0
H818 H 0.04632 0.18451 0.69923 0.0
H819 H 0.0135 0.20136 0.76962 0.0
H820 H 0.96648 0.28904 0.76166 0.0
H821 H 0.98718 0.29748 0.67626 0.0
C822 C 0.02313 0.25801 0.62375 0.0
C823 C 0.0421 0.23543 0.60119 0.0
C824 C 0.0123 0.25417 0.67354 0.0
C825 C 0.05087 0.2094 0.62953 0.0
C826 C 0.03985 0.20521 0.67873 0.0
C827 C 0.00785 0.22236 0.74918 0.0
C828 C 0.98818 0.24438 0.77139 0.0
C829 C 0.02018 0.22719 0.70074 0.0
C830 C 0.98153 0.27177 0.74513 0.0
C831 C 0.99328 0.27652 0.69635 0.0
H832 H 0.26552 -0.00212 0.3966 0.0
H833 H 0.23428 0.90646 0.35581 0.0
H834 H 0.23393 0.92131 0.26633 0.0
H835 H 0.23693 0.96221 0.20106 0.0
H836 H 0.26389 0.0542 0.24455 0.0
H837 H 0.27203 0.03707 0.3319 0.0
C838 C 0.2588 0.98098 0.36832 0.0
C839 C 0.24946 0.9512 0.38313 0.0
C840 C 0.25805 0.98982 0.31741 0.0
C841 C 0.24129 0.92963 0.3456 0.0
C842 C 0.24109 0.9381 0.29443 0.0
C843 C 0.24546 0.97812 0.22961 0.0
C844 C 0.25035 0.0092 0.21694 0.0
C845 C 0.24871 0.96836 0.28006 0.0
C846 C 0.26051 0.03008 0.25388 0.0
C847 C 0.26487 0.02034 0.30368 0.0
H848 H 0.96709 0.78169 0.76685 0.0
H849 H 0.03205 0.70677 0.75275 0.0
H850 H 0.01495 0.69762 0.66527 0.0
H851 H 0.98505 0.71481 0.59046 0.0
H852 H 0.91843 0.78833 0.60711 0.0
H853 H 0.93238 0.79403 0.69623 0.0
C854 C 0.97703 0.763 0.74477 0.0
C855 C 0.00084 0.74502 0.76558 0.0
C856 C 0.96698 0.75787 0.69502 0.0
C857 C 0.01353 0.72071 0.73724 0.0
C858 C 0.00394 0.7157 0.68724 0.0
C859 C 0.9734 0.73182 0.61386 0.0
C860 C 0.95106 0.75141 0.5922 0.0
C861 C 0.98126 0.73472 0.66532 0.0
C862 C 0.93572 0.77301 0.62296 0.0
C863 C 0.94376 0.77638 0.67384 0.0
H864 H 0.76615 0.56178 0.37076 0.0
H865 H 0.70339 0.49423 0.43236 0.0
H866 H 0.70039 0.4683 0.35067 0.0
H867 H 0.71529 0.46466 0.26295 0.0
H868 H 0.77795 0.53099 0.19787 0.0
H869 H 0.78233 0.55711 0.28033 0.0
C870 C 0.7516 0.54164 0.36567 0.0
C871 C 0.73473 0.52994 0.40676 0.0
C872 C 0.75051 0.52637 0.31867 0.0
C873 C 0.71638 0.50354 0.40075 0.0
C874 C 0.71479 0.48865 0.35433 0.0
C875 C 0.73001 0.48481 0.26672 0.0
C876 C 0.74606 0.49611 0.22458 0.0
C877 C 0.73184 0.49977 0.31329 0.0
C878 C 0.7655 0.52183 0.23011 0.0
C879 C 0.76771 0.53692 0.27698 0.0
H880 H 0.51473 0.218 0.60255 0.0
H881 H 0.57997 0.29211 0.62405 0.0
H882 H 0.56568 0.29559 0.71344 0.0
H883 H 0.5309 0.28118 0.78277 0.0
H884 H 0.46686 0.20607 0.76325 0.0
H885 H 0.4847 0.19889 0.67565 0.0
C886 C 0.52599 0.23468 0.62703 0.0
C887 C 0.548 0.25511 0.60676 0.0
C888 C 0.51787 0.23633 0.67845 0.0
C889 C 0.56291 0.27622 0.63886 0.0
C890 C 0.55468 0.27829 0.68986 0.0
C891 C 0.52133 0.26287 0.75947 0.0
C892 C 0.49755 0.24429 0.77875 0.0
C893 C 0.53169 0.25898 0.70965 0.0
C894 C 0.48533 0.22047 0.74889 0.0
C895 C 0.49533 0.21659 0.69885 0.0
H896 H 0.28069 0.4664 0.21398 0.0
H897 H 0.21048 0.53585 0.23442 0.0
H898 H 0.20259 0.51873 0.32213 0.0
H899 H 0.21943 0.48707 0.39496 0.0
H900 H 0.28726 0.41542 0.37283 0.0
H901 H 0.29221 0.42994 0.28338 0.0
C902 C 0.26332 0.47737 0.23756 0.0
C903 C 0.24629 0.50243 0.21835 0.0
C904 C 0.25869 0.46709 0.28744 0.0
C905 C 0.22368 0.51644 0.24865 0.0
C906 C 0.21935 0.50677 0.29875 0.0
C907 C 0.23493 0.4744 0.3702 0.0
C908 C 0.25324 0.45047 0.39021 0.0
C909 C 0.23726 0.48261 0.31885 0.0
C910 C 0.27297 0.43388 0.358 0.0
C911 C 0.2759 0.4423 0.30706 0.0
H912 H 0.506 0.75031 0.58191 0.0
H913 H 0.41122 0.76514 0.62693 0.0
H914 H 0.42723 0.76745 0.71586 0.0
H915 H 0.46757 0.75933 0.78091 0.0
H916 H 0.56083 0.73926 0.73406 0.0
H917 H 0.5461 0.74544 0.64524 0.0
C918 C 0.48875 0.75446 0.61092 0.0
C919 C 0.45739 0.75721 0.5978 0.0
C920 C 0.49792 0.75479 0.6616 0.0
C921 C 0.43548 0.76262 0.63608 0.0
C922 C 0.44461 0.76395 0.68688 0.0
C923 C 0.48465 0.75707 0.75106 0.0
C924 C 0.51515 0.74904 0.7633 0.0
C925 C 0.47567 0.75924 0.70012 0.0
C926 C 0.53722 0.74551 0.72491 0.0
C927 C 0.52879 0.74891 0.67436 0.0
H928 H 0.21568 0.51066 0.8896 0.0
H929 H 0.29033 0.57587 0.87415 0.0
H930 H 0.2973 0.56071 0.78577 0.0
H931 H 0.28517 0.52572 0.71532 0.0
H932 H 0.20876 0.46264 0.72799 0.0
H933 H 0.19915 0.48026 0.81505 0.0
C934 C 0.23322 0.52172 0.8666 0.0
C935 C 0.2527 0.54406 0.88833 0.0
C936 C 0.23681 0.5132 0.81558 0.0
C937 C 0.27505 0.55864 0.85814 0.0
C938 C 0.27916 0.54988 0.80773 0.0
C939 C 0.26616 0.51623 0.73708 0.0
C940 C 0.24781 0.49286 0.71603 0.0
C941 C 0.26062 0.52675 0.78645 0.0
C942 C 0.22303 0.48078 0.74383 0.0
C943 C 0.2177 0.4907 0.79353 0.0
H944 H 0.55001 0.70533 0.12328 0.0
H945 H 0.50937 0.79375 0.08846 0.0
H946 H 0.48623 0.7961 0.17289 0.0
H947 H 0.47456 0.77107 0.25463 0.0
H948 H 0.51244 0.6808 0.28558 0.0
H949 H 0.53963 0.68113 0.20495 0.0
C950 C 0.5365 0.7253 0.13456 0.0
C951 C 0.53135 0.74928 0.10003 0.0
C952 C 0.52246 0.72601 0.1823 0.0
C953 C 0.51345 0.7749 0.11461 0.0
C954 C 0.5002 0.77626 0.16276 0.0
C955 C 0.48896 0.75166 0.24368 0.0
C956 C 0.49126 0.72588 0.27553 0.0
C957 C 0.50403 0.75164 0.19659 0.0
C958 C 0.50992 0.70074 0.26114 0.0
C959 C 0.52561 0.70093 0.2152 0.0
H960 H 0.78271 0.48274 0.90183 0.0
H961 H 0.70864 0.41786 0.8763 0.0
H962 H 0.704 0.43544 0.78875 0.0
H963 H 0.71647 0.47364 0.72383 0.0
H964 H 0.79027 0.53864 0.74823 0.0
H965 H 0.79985 0.51647 0.83251 0.0
C966 C 0.7658 0.47222 0.87686 0.0
C967 C 0.74558 0.44954 0.89553 0.0
C968 C 0.76308 0.48264 0.82694 0.0
C969 C 0.7243 0.43549 0.86272 0.0
C970 C 0.72152 0.44565 0.81286 0.0
C971 C 0.73485 0.48267 0.74758 0.0
C972 C 0.75229 0.50797 0.73108 0.0
C973 C 0.74004 0.4699 0.79531 0.0
C974 C 0.77654 0.51924 0.76092 0.0
C975 C 0.78187 0.50667 0.80889 0.0
H976 H 0.46916 0.28919 0.27709 0.0
H977 H 0.52971 0.21044 0.26684 0.0
H978 H 0.51129 0.20003 0.18052 0.0
H979 H 0.48097 0.2162 0.10576 0.0
H980 H 0.41808 0.29317 0.11842 0.0
H981 H 0.43394 0.30117 0.20639 0.0
C982 C 0.47795 0.26953 0.25604 0.0
C983 C 0.50089 0.25073 0.27771 0.0
C984 C 0.46687 0.26346 0.20701 0.0
C985 C 0.51198 0.22511 0.25069 0.0
C986 C 0.50156 0.21929 0.20137 0.0
C987 C 0.47046 0.23445 0.12806 0.0
C988 C 0.44863 0.25428 0.10551 0.0
C989 C 0.47946 0.2387 0.1788 0.0
C990 C 0.43488 0.27757 0.13494 0.0
C991 C 0.44409 0.28229 0.18513 0.0
H992 H 0.41059 0.16114 0.02087 0.0
H993 H 0.37531 0.17095 0.86906 0.0
H994 H 0.33801 0.12965 0.88434 0.0
H995 H 0.3091 0.09921 0.94578 0.0
H996 H 0.34021 0.09276 0.10043 0.0
H997 H 0.38593 0.12395 0.07955 0.0
C998 C 0.39555 0.15317 0.99067 0.0
C999 C 0.39567 0.16853 0.94375 0.0
C1000 C 0.37309 0.13063 0.00082 0.0
C1001 C 0.37569 0.15897 0.90509 0.0
C1002 C 0.35421 0.13567 0.91407 0.0
C1003 C 0.3264 0.10403 0.97452 0.0
C1004 C 0.32145 0.09425 0.02455 0.0
C1005 C 0.35171 0.1226 0.96251 0.0
C1006 C 0.34379 0.10019 0.0617 0.0
C1007 C 0.36969 0.11816 0.04976 0.0
H1008 H 0.16926 0.58605 0.96161 0.0
H1009 H 0.16098 0.61522 0.11702 0.0
H1010 H 0.11808 0.64957 0.09417 0.0
H1011 H 0.09056 0.67817 0.02764 0.0
H1012 H 0.10498 0.65477 0.87084 0.0
H1013 H 0.13746 0.61084 0.8959 0.0
C1014 C 0.15712 0.59909 0.99059 0.0
C1015 C 0.16758 0.59793 0.04096 0.0
C1016 C 0.13396 0.62008 0.97649 0.0
C1017 C 0.15271 0.61551 0.07825 0.0
C1018 C 0.1285 0.63531 0.06503 0.0
C1019 C 0.09996 0.66264 -0.00077 0.0
C1020 C 0.09522 0.66906 0.94765 0.0
C1021 C 0.11994 0.63878 0.01396 0.0
C1022 C 0.10806 0.64969 0.91072 0.0
C1023 C 0.12681 0.62486 0.92511 0.0
H1024 H 0.66461 0.91399 0.95955 0.0
H1025 H 0.66718 0.88435 0.11525 0.0
H1026 H 0.62398 0.84921 0.09975 0.0
H1027 H 0.59426 0.81948 0.0382 0.0
H1028 H 0.59556 0.84432 0.88024 0.0
H1029 H 0.62814 0.88928 0.89982 0.0
C1030 C 0.65465 0.90077 0.99039 0.0
C1031 C 0.66848 0.90177 0.03858 0.0
C1032 C 0.63112 0.87937 0.98027 0.0
C1033 C 0.65635 0.8841 0.07821 0.0
C1034 C 0.63199 0.86381 0.06912 0.0
C1035 C 0.60104 0.83534 0.00835 0.0
C1036 C 0.59309 0.82874 0.95791 0.0
C1037 C 0.62049 0.86009 0.01976 0.0
C1038 C 0.60157 0.84919 0.91929 0.0
C1039 C 0.62033 0.87464 0.93052 0.0
H1040 H 0.81965 0.40974 0.96426 0.0
H1041 H 0.84494 0.39309 0.11964 0.0
H1042 H 0.88812 0.36033 0.09172 0.0
H1043 H 0.91079 0.32838 0.02392 0.0
H1044 H 0.8785 0.33857 0.87042 0.0
H1045 H 0.84619 0.38242 0.89592 0.0
C1046 C 0.83546 0.3998 0.99177 0.0
C1047 C 0.8297 0.40383 0.0437 0.0
C1048 C 0.85858 0.37956 0.97544 0.0
C1049 C 0.8495 0.39051 0.0795 0.0
C1050 C 0.87384 0.37157 0.06345 0.0
C1051 C 0.89752 0.34111 -0.00407 0.0
C1052 C 0.8971 0.33089 0.94536 0.0
C1053 C 0.87756 0.36475 0.01166 0.0
C1054 C 0.87929 0.34655 0.90932 0.0
C1055 C 0.86071 0.37135 0.92405 0.0
H1056 H 0.66972 0.08662 0.45676 0.0
H1057 H 0.66978 0.115 0.6132 0.0
H1058 H 0.62634 0.14993 0.59691 0.0
H1059 H 0.59601 0.17921 0.53511 0.0
H1060 H 0.60115 0.15645 0.37653 0.0
H1061 H 0.63447 0.11201 0.39611 0.0
C1062 C 0.65929 0.09965 0.48748 0.0
C1063 C 0.67231 0.09815 0.53621 0.0
C1064 C 0.63564 0.12092 0.477 0.0
C1065 C 0.6596 0.11564 0.57569 0.0
C1066 C 0.63504 0.13574 0.5662 0.0
C1067 C 0.60361 0.16374 0.50518 0.0
C1068 C 0.59612 0.17054 0.45466 0.0
C1069 C 0.62392 0.13956 0.5166 0.0
C1070 C 0.60642 0.15112 0.41571 0.0
C1071 C 0.62566 0.12602 0.42694 0.0
H1072 H 0.10646 0.34913 0.40623 0.0
H1073 H 0.08053 0.30957 0.54978 0.0
H1074 H 0.10948 0.3492 0.5949 0.0
H1075 H 0.15102 0.38755 0.5923 0.0
H1076 H 0.17632 0.42877 0.44986 0.0
H1077 H 0.13844 0.39676 0.40553 0.0
C1078 C 0.10622 0.35012 0.4473 0.0
C1079 C 0.09187 0.32652 0.47487 0.0
C1080 C 0.12318 0.37296 0.47317 0.0
C1081 C 0.09168 0.32765 0.52808 0.0
C1082 C 0.10836 0.35013 0.55389 0.0
C1083 C 0.1472 0.39038 0.55191 0.0
C1084 C 0.16632 0.41014 0.52424 0.0
C1085 C 0.12554 0.37184 0.52676 0.0
C1086 C 0.1615 0.41373 0.47188 0.0
C1087 C 0.14013 0.39517 0.44642 0.0
H1088 H 0.4124 0.82495 0.51706 0.0
H1089 H 0.38057 0.83114 0.36277 0.0
H1090 H 0.34693 0.87457 0.38554 0.0
H1091 H 0.31924 0.9025 0.45226 0.0
H1092 H 0.34465 0.88985 0.60862 0.0
H1093 H 0.3886 0.85747 0.58282 0.0
C1094 C 0.399 0.8368 0.48821 0.0
C1095 C 0.39912 0.82557 0.43824 0.0
C1096 C 0.37824 0.86008 0.50248 0.0
C1097 C 0.38107 0.84002 0.40116 0.0
C1098 C 0.36165 0.86451 0.41438 0.0
C1099 C 0.33516 0.89344 0.48039 0.0
C1100 C 0.32929 0.89851 0.53203 0.0
C1101 C 0.35895 0.87358 0.46532 0.0
C1102 C 0.34926 0.88636 0.56868 0.0
C1103 C 0.3741 0.86772 0.55386 0.0
H1104 H 0.91326 0.66257 0.50835 0.0
H1105 H 0.86689 0.67443 0.36516 0.0
H1106 H 0.82859 0.63564 0.389 0.0
H1107 H 0.80329 0.60634 0.45623 0.0
H1108 H 0.8463 0.59754 0.60266 0.0
H1109 H 0.89117 0.62715 0.57242 0.0
C1110 C 0.89549 0.65556 0.48171 0.0
C1111 C 0.89291 0.67082 0.43486 0.0
C1112 C 0.87259 0.63457 0.497 0.0
C1113 C 0.86939 0.6625 0.40102 0.0
C1114 C 0.84734 0.64069 0.41495 0.0
C1115 C 0.82286 0.61048 0.48109 0.0
C1116 C 0.82171 0.60035 0.53152 0.0
C1117 C 0.84789 0.62785 0.46372 0.0
C1118 C 0.84693 0.60539 0.5637 0.0
C1119 C 0.87241 0.62231 0.5464 0.0
loop_
_geom_bond_atom_site_label_1
_geom_bond_atom_site_label_2
_geom_bond_distance
_geom_bond_site_symmetry_2
_ccdc_geom_bond_type
Sc0 O3 2.025 . S
Sc0 O10 2.105 . S
Sc0 O13 2.105 . S
Sc0 O16 2.105 . S
Sc0 O19 2.105 . S
Sc1 O3 2.025 . S
Sc1 O11 2.105 . S
Sc1 O15 2.105 1_554 S
Sc1 O17 2.105 . S
Sc1 O21 2.105 . S
Sc2 O3 2.025 . S
Sc2 O12 2.105 . S
Sc2 O14 2.105 1_545 S
Sc2 O18 2.105 1_554 S
Sc2 O20 2.105 . S
O3 Sc0 2.025 . S
O3 Sc1 2.025 . S
O3 Sc2 2.025 . S
C4 O10 1.268 . S
C4 O20 1.268 . S
C5 O11 1.268 . S
C5 O19 1.268 . S
C6 O12 1.268 . S
C6 O21 1.268 . S
C7 O13 1.268 . S
C7 O17 1.268 . S
C8 O14 1.268 . S
C8 O16 1.268 1_565 S
C9 O15 1.268 . S
C9 O18 1.268 . S
O10 Sc0 2.105 . S
O10 C4 1.268 . S
O11 Sc1 2.105 . S
O11 C5 1.268 . S
O12 Sc2 2.105 . S
O12 C6 1.268 . S
O13 Sc0 2.105 . S
O13 C7 1.268 . S
O14 Sc2 2.105 1_565 S
O14 C8 1.268 . S
O15 Sc1 2.105 1_556 S
O15 C9 1.268 . S
O16 Sc0 2.105 . S
O16 C8 1.268 1_545 S
O17 Sc1 2.105 . S
O17 C7 1.268 . S
O18 Sc2 2.105 1_556 S
O18 C9 1.268 . S
O19 Sc0 2.105 . S
O19 C5 1.268 . S
O20 Sc2 2.105 . S
O20 C4 1.268 . S
O21 Sc1 2.105 . S
O21 C6 1.268 . S
Sc22 O25 2.025 . S
Sc22 O32 2.105 . S
Sc22 O35 2.105 . S
Sc22 O38 2.105 . S
Sc22 O41 2.105 . S
Sc23 O25 2.025 . S
Sc23 O33 2.105 . S
Sc23 O37 2.105 . S
Sc23 O39 2.105 . S
Sc23 O43 2.105 1_556 S
Sc24 O25 2.025 . S
Sc24 O34 2.105 1_556 S
Sc24 O36 2.105 . S
Sc24 O40 2.105 . S
Sc24 O42 2.105 1_455 S
O25 Sc22 2.025 . S
O25 Sc23 2.025 . S
O25 Sc24 2.025 . S
C26 O32 1.268 1_655 S
C26 O42 1.268 . S
C27 O33 1.268 . S
C27 O41 1.268 . S
C28 O34 1.268 . S
C28 O43 1.268 . S
C29 O35 1.268 . S
C29 O39 1.268 . S
C30 O36 1.268 . S
C30 O38 1.268 . S
C31 O37 1.268 . S
C31 O40 1.268 . S
O32 Sc22 2.105 . S
O32 C26 1.268 1_455 S
O33 Sc23 2.105 . S
O33 C27 1.268 . S
O34 Sc24 2.105 1_554 S
O34 C28 1.268 . S
O35 Sc22 2.105 . S
O35 C29 1.268 . S
O36 Sc24 2.105 . S
O36 C30 1.268 . S
O37 Sc23 2.105 . S
O37 C31 1.268 . S
O38 Sc22 2.105 . S
O38 C30 1.268 . S
O39 Sc23 2.105 . S
O39 C29 1.268 . S
O40 Sc24 2.105 . S
O40 C31 1.268 . S
O41 Sc22 2.105 . S
O41 C27 1.268 . S
O42 Sc24 2.105 1_655 S
O42 C26 1.268 . S
O43 Sc23 2.105 1_554 S
O43 C28 1.268 . S
Sc44 O47 2.025 . S
Sc44 O54 2.105 1_565 S
Sc44 O57 2.105 . S
Sc44 O60 2.105 . S
Sc44 O63 2.105 1_554 S
Sc45 O47 2.025 . S
Sc45 O55 2.105 1_554 S
Sc45 O59 2.105 . S
Sc45 O61 2.105 . S
Sc45 O65 2.105 . S
Sc46 O47 2.025 . S
Sc46 O56 2.105 . S
Sc46 O58 2.105 . S
Sc46 O62 2.105 . S
Sc46 O64 2.105 . S
O47 Sc44 2.025 . S
O47 Sc45 2.025 . S
O47 Sc46 2.025 . S
C48 O54 1.268 . S
C48 O64 1.268 1_545 S
C49 O55 1.268 . S
C49 O63 1.268 . S
C50 O56 1.268 . S
C50 O65 1.268 . S
C51 O57 1.268 . S
C51 O61 1.268 . S
C52 O58 1.268 . S
C52 O60 1.268 . S
C53 O59 1.268 . S
C53 O62 1.268 . S
O54 Sc44 2.105 1_545 S
O54 C48 1.268 . S
O55 Sc45 2.105 1_556 S
O55 C49 1.268 . S
O56 Sc46 2.105 . S
O56 C50 1.268 . S
O57 Sc44 2.105 . S
O57 C51 1.268 . S
O58 Sc46 2.105 . S
O58 C52 1.268 . S
O59 Sc45 2.105 . S
O59 C53 1.268 . S
O60 Sc44 2.105 . S
O60 C52 1.268 . S
O61 Sc45 2.105 . S
O61 C51 1.268 . S
O62 Sc46 2.105 . S
O62 C53 1.268 . S
O63 Sc44 2.105 1_556 S
O63 C49 1.268 . S
O64 Sc46 2.105 . S
O64 C48 1.268 1_565 S
O65 Sc45 2.105 . S
O65 C50 1.268 . S
Sc66 O69 2.025 . S
Sc66 O76 2.105 . S
Sc66 O79 2.105 1_556 S
Sc66 O82 2.105 1_655 S
Sc66 O85 2.105 . S
Sc67 O69 2.025 . S
Sc67 O77 2.105 . S
Sc67 O81 2.105 . S
Sc67 O83 2.105 1_556 S
Sc67 O87 2.105 . S
Sc68 O69 2.025 . S
Sc68 O78 2.105 . S
Sc68 O80 2.105 . S
Sc68 O84 2.105 . S
Sc68 O86 2.105 . S
O69 Sc66 2.025 . S
O69 Sc67 2.025 . S
O69 Sc68 2.025 . S
C70 O76 1.268 . S
C70 O86 1.268 . S
C71 O77 1.268 . S
C71 O85 1.268 . S
C72 O78 1.268 . S
C72 O87 1.268 . S
C73 O79 1.268 . S
C73 O83 1.268 . S
C74 O80 1.268 1_455 S
C74 O82 1.268 . S
C75 O81 1.268 . S
C75 O84 1.268 . S
O76 Sc66 2.105 . S
O76 C70 1.268 . S
O77 Sc67 2.105 . S
O77 C71 1.268 . S
O78 Sc68 2.105 . S
O78 C72 1.268 . S
O79 Sc66 2.105 1_554 S
O79 C73 1.268 . S
O80 Sc68 2.105 . S
O80 C74 1.268 1_655 S
O81 Sc67 2.105 . S
O81 C75 1.268 . S
O82 Sc66 2.105 1_455 S
O82 C74 1.268 . S
O83 Sc67 2.105 1_554 S
O83 C73 1.268 . S
O84 Sc68 2.105 . S
O84 C75 1.268 . S
O85 Sc66 2.105 . S
O85 C71 1.268 . S
O86 Sc68 2.105 . S
O86 C70 1.268 . S
O87 Sc67 2.105 . S
O87 C72 1.268 . S
Sc88 O91 2.025 . S
Sc88 O98 2.105 . S
Sc88 O101 2.105 . S
Sc88 O104 2.105 1_545 S
Sc88 O107 2.105 . S
Sc89 O91 2.025 . S
Sc89 O99 2.105 . S
Sc89 O103 2.105 . S
Sc89 O105 2.105 . S
Sc89 O109 2.105 . S
Sc90 O91 2.025 . S
Sc90 O100 2.105 . S
Sc90 O102 2.105 . S
Sc90 O106 2.105 . S
Sc90 O108 2.105 . S
O91 Sc88 2.025 . S
O91 Sc89 2.025 . S
O91 Sc90 2.025 . S
C92 O98 1.268 . S
C92 O108 1.268 . S
C93 O99 1.268 . S
C93 O107 1.268 . S
C94 O100 1.268 . S
C94 O109 1.268 . S
C95 O101 1.268 . S
C95 O105 1.268 . S
C96 O102 1.268 1_565 S
C96 O104 1.268 . S
C97 O103 1.268 . S
C97 O106 1.268 . S
O98 Sc88 2.105 . S
O98 C92 1.268 . S
O99 Sc89 2.105 . S
O99 C93 1.268 . S
O100 Sc90 2.105 . S
O100 C94 1.268 . S
O101 Sc88 2.105 . S
O101 C95 1.268 . S
O102 Sc90 2.105 . S
O102 C96 1.268 1_545 S
O103 Sc89 2.105 . S
O103 C97 1.268 . S
O104 Sc88 2.105 1_565 S
O104 C96 1.268 . S
O105 Sc89 2.105 . S
O105 C95 1.268 . S
O106 Sc90 2.105 . S
O106 C97 1.268 . S
O107 Sc88 2.105 . S
O107 C93 1.268 . S
O108 Sc90 2.105 . S
O108 C92 1.268 . S
O109 Sc89 2.105 . S
O109 C94 1.268 . S
Sc110 O113 2.025 . S
Sc110 O120 2.105 . S
Sc110 O123 2.105 . S
Sc110 O126 2.105 . S
Sc110 O129 2.105 . S
Sc111 O113 2.025 . S
Sc111 O121 2.105 . S
Sc111 O125 2.105 . S
Sc111 O127 2.105 . S
Sc111 O131 2.105 . S
Sc112 O113 2.025 . S
Sc112 O122 2.105 . S
Sc112 O124 2.105 1_455 S
Sc112 O128 2.105 . S
Sc112 O130 2.105 . S
O113 Sc110 2.025 . S
O113 Sc111 2.025 . S
O113 Sc112 2.025 . S
C114 O120 1.268 . S
C114 O130 1.268 . S
C115 O121 1.268 . S
C115 O129 1.268 . S
C116 O122 1.268 . S
C116 O131 1.268 . S
C117 O123 1.268 . S
C117 O127 1.268 . S
C118 O124 1.268 . S
C118 O126 1.268 1_655 S
C119 O125 1.268 . S
C119 O128 1.268 . S
O120 Sc110 2.105 . S
O120 C114 1.268 . S
O121 Sc111 2.105 . S
O121 C115 1.268 . S
O122 Sc112 2.105 . S
O122 C116 1.268 . S
O123 Sc110 2.105 . S
O123 C117 1.268 . S
O124 Sc112 2.105 1_655 S
O124 C118 1.268 . S
O125 Sc111 2.105 . S
O125 C119 1.268 . S
O126 Sc110 2.105 . S
O126 C118 1.268 1_455 S
O127 Sc111 2.105 . S
O127 C117 1.268 . S
O128 Sc112 2.105 . S
O128 C119 1.268 . S
O129 Sc110 2.105 . S
O129 C115 1.268 . S
O130 Sc112 2.105 . S
O130 C114 1.268 . S
O131 Sc111 2.105 . S
O131 C116 1.268 . S
Sc132 O135 2.025 . S
Sc132 O142 2.105 . S
Sc132 O145 2.105 . S
Sc132 O148 2.105 . S
Sc132 O151 2.105 . S
Sc133 O135 2.025 . S
Sc133 O143 2.105 . S
Sc133 O147 2.105 . S
Sc133 O149 2.105 . S
Sc133 O153 2.105 . S
Sc134 O135 2.025 . S
Sc134 O144 2.105 . S
Sc134 O146 2.105 . S
Sc134 O150 2.105 . S
Sc134 O152 2.105 1_565 S
O135 Sc132 2.025 . S
O135 Sc133 2.025 . S
O135 Sc134 2.025 . S
C136 O142 1.268 1_545 S
C136 O152 1.268 . S
C137 O143 1.268 . S
C137 O151 1.268 . S
C138 O144 1.268 . S
C138 O153 1.268 . S
C139 O145 1.268 . S
C139 O149 1.268 . S
C140 O146 1.268 . S
C140 O148 1.268 . S
C141 O147 1.268 . S
C141 O150 1.268 . S
O142 Sc132 2.105 . S
O142 C136 1.268 1_565 S
O143 Sc133 2.105 . S
O143 C137 1.268 . S
O144 Sc134 2.105 . S
O144 C138 1.268 . S
O145 Sc132 2.105 . S
O145 C139 1.268 . S
O146 Sc134 2.105 . S
O146 C140 1.268 . S
O147 Sc133 2.105 . S
O147 C141 1.268 . S
O148 Sc132 2.105 . S
O148 C140 1.268 . S
O149 Sc133 2.105 . S
O149 C139 1.268 . S
O150 Sc134 2.105 . S
O150 C141 1.268 . S
O151 Sc132 2.105 . S
O151 C137 1.268 . S
O152 Sc134 2.105 1_545 S
O152 C136 1.268 . S
O153 Sc133 2.105 . S
O153 C138 1.268 . S
Sc154 O157 2.025 . S
Sc154 O164 2.105 1_655 S
Sc154 O167 2.105 . S
Sc154 O170 2.105 . S
Sc154 O173 2.105 . S
Sc155 O157 2.025 . S
Sc155 O165 2.105 . S
Sc155 O169 2.105 . S
Sc155 O171 2.105 . S
Sc155 O175 2.105 . S
Sc156 O157 2.025 . S
Sc156 O166 2.105 . S
Sc156 O168 2.105 . S
Sc156 O172 2.105 . S
Sc156 O174 2.105 . S
O157 Sc154 2.025 . S
O157 Sc155 2.025 . S
O157 Sc156 2.025 . S
C158 O164 1.268 . S
C158 O174 1.268 1_455 S
C159 O165 1.268 . S
C159 O173 1.268 . S
C160 O166 1.268 . S
C160 O175 1.268 . S
C161 O167 1.268 . S
C161 O171 1.268 . S
C162 O168 1.268 . S
C162 O170 1.268 . S
C163 O169 1.268 . S
C163 O172 1.268 . S
O164 Sc154 2.105 1_455 S
O164 C158 1.268 . S
O165 Sc155 2.105 . S
O165 C159 1.268 . S
O166 Sc156 2.105 . S
O166 C160 1.268 . S
O167 Sc154 2.105 . S
O167 C161 1.268 . S
O168 Sc156 2.105 . S
O168 C162 1.268 . S
O169 Sc155 2.105 . S
O169 C163 1.268 . S
O170 Sc154 2.105 . S
O170 C162 1.268 . S
O171 Sc155 2.105 . S
O171 C161 1.268 . S
O172 Sc156 2.105 . S
O172 C163 1.268 . S
O173 Sc154 2.105 . S
O173 C159 1.268 . S
O174 Sc156 2.105 . S
O174 C158 1.268 1_655 S
O175 Sc155 2.105 . S
O175 C160 1.268 . S
Sc176 O179 2.025 . S
Sc176 O186 2.105 . S
Sc176 O189 2.105 . S
Sc176 O192 2.105 . S
Sc176 O195 2.105 . S
Sc177 O179 2.025 . S
Sc177 O187 2.105 . S
Sc177 O191 2.105 . S
Sc177 O193 2.105 . S
Sc177 O197 2.105 . S
Sc178 O179 2.025 . S
Sc178 O188 2.105 . S
Sc178 O190 2.105 . S
Sc178 O194 2.105 . S
Sc178 O196 2.105 . S
O179 Sc176 2.025 . S
O179 Sc177 2.025 . S
O179 Sc178 2.025 . S
C180 O186 1.268 . S
C180 O196 1.268 . S
C181 O187 1.268 . S
C181 O195 1.268 . S
C182 O188 1.268 . S
C182 O197 1.268 . S
C183 O189 1.268 . S
C183 O193 1.268 . S
C184 O190 1.268 . S
C184 O192 1.268 . S
C185 O191 1.268 . S
C185 O194 1.268 . S
O186 Sc176 2.105 . S
O186 C180 1.268 . S
O187 Sc177 2.105 . S
O187 C181 1.268 . S
O188 Sc178 2.105 . S
O188 C182 1.268 . S
O189 Sc176 2.105 . S
O189 C183 1.268 . S
O190 Sc178 2.105 . S
O190 C184 1.268 . S
O191 Sc177 2.105 . S
O191 C185 1.268 . S
O192 Sc176 2.105 . S
O192 C184 1.268 . S
O193 Sc177 2.105 . S
O193 C183 1.268 . S
O194 Sc178 2.105 . S
O194 C185 1.268 . S
O195 Sc176 2.105 . S
O195 C181 1.268 . S
O196 Sc178 2.105 . S
O196 C180 1.268 . S
O197 Sc177 2.105 . S
O197 C182 1.268 . S
Sc198 O201 2.025 . S
Sc198 O208 2.105 . S
Sc198 O211 2.105 . S
Sc198 O214 2.105 . S
Sc198 O217 2.105 . S
Sc199 O201 2.025 . S
Sc199 O209 2.105 . S
Sc199 O213 2.105 . S
Sc199 O215 2.105 . S
Sc199 O219 2.105 . S
Sc200 O201 2.025 . S
Sc200 O210 2.105 . S
Sc200 O212 2.105 . S
Sc200 O216 2.105 . S
Sc200 O218 2.105 . S
O201 Sc198 2.025 . S
O201 Sc199 2.025 . S
O201 Sc200 2.025 . S
C202 O208 1.268 . S
C202 O218 1.268 . S
C203 O209 1.268 . S
C203 O217 1.268 . S
C204 O210 1.268 . S
C204 O219 1.268 . S
C205 O211 1.268 . S
C205 O215 1.268 . S
C206 O212 1.268 . S
C206 O214 1.268 . S
C207 O213 1.268 . S
C207 O216 1.268 . S
O208 Sc198 2.105 . S
O208 C202 1.268 . S
O209 Sc199 2.105 . S
O209 C203 1.268 . S
O210 Sc200 2.105 . S
O210 C204 1.268 . S
O211 Sc198 2.105 . S
O211 C205 1.268 . S
O212 Sc200 2.105 . S
O212 C206 1.268 . S
O213 Sc199 2.105 . S
O213 C207 1.268 . S
O214 Sc198 2.105 . S
O214 C206 1.268 . S
O215 Sc199 2.105 . S
O215 C205 1.268 . S
O216 Sc200 2.105 . S
O216 C207 1.268 . S
O217 Sc198 2.105 . S
O217 C203 1.268 . S
O218 Sc200 2.105 . S
O218 C202 1.268 . S
O219 Sc199 2.105 . S
O219 C204 1.268 . S
Sc220 O223 2.025 . S
Sc220 O230 2.105 . S
Sc220 O233 2.105 . S
Sc220 O236 2.105 . S
Sc220 O239 2.105 . S
Sc221 O223 2.025 . S
Sc221 O231 2.105 . S
Sc221 O235 2.105 . S
Sc221 O237 2.105 . S
Sc221 O241 2.105 . S
Sc222 O223 2.025 . S
Sc222 O232 2.105 . S
Sc222 O234 2.105 . S
Sc222 O238 2.105 . S
Sc222 O240 2.105 . S
O223 Sc220 2.025 . S
O223 Sc221 2.025 . S
O223 Sc222 2.025 . S
C224 O230 1.268 . S
C224 O240 1.268 . S
C225 O231 1.268 . S
C225 O239 1.268 . S
C226 O232 1.268 . S
C226 O241 1.268 . S
C227 O233 1.268 . S
C227 O237 1.268 . S
C228 O234 1.268 . S
C228 O236 1.268 . S
C229 O235 1.268 . S
C229 O238 1.268 . S
O230 Sc220 2.105 . S
O230 C224 1.268 . S
O231 Sc221 2.105 . S
O231 C225 1.268 . S
O232 Sc222 2.105 . S
O232 C226 1.268 . S
O233 Sc220 2.105 . S
O233 C227 1.268 . S
O234 Sc222 2.105 . S
O234 C228 1.268 . S
O235 Sc221 2.105 . S
O235 C229 1.268 . S
O236 Sc220 2.105 . S
O236 C228 1.268 . S
O237 Sc221 2.105 . S
O237 C227 1.268 . S
O238 Sc222 2.105 . S
O238 C229 1.268 . S
O239 Sc220 2.105 . S
O239 C225 1.268 . S
O240 Sc222 2.105 . S
O240 C224 1.268 . S
O241 Sc221 2.105 . S
O241 C226 1.268 . S
Sc242 O245 2.025 . S
Sc242 O252 2.105 . S
Sc242 O255 2.105 . S
Sc242 O258 2.105 . S
Sc242 O261 2.105 . S
Sc243 O245 2.025 . S
Sc243 O253 2.105 . S
Sc243 O257 2.105 . S
Sc243 O259 2.105 . S
Sc243 O263 2.105 . S
Sc244 O245 2.025 . S
Sc244 O254 2.105 . S
Sc244 O256 2.105 . S
Sc244 O260 2.105 . S
Sc244 O262 2.105 . S
O245 Sc242 2.025 . S
O245 Sc243 2.025 . S
O245 Sc244 2.025 . S
C246 O252 1.268 . S
C246 O262 1.268 . S
C247 O253 1.268 . S
C247 O261 1.268 . S
C248 O254 1.268 . S
C248 O263 1.268 . S
C249 O255 1.268 . S
C249 O259 1.268 . S
C250 O256 1.268 . S
C250 O258 1.268 . S
C251 O257 1.268 . S
C251 O260 1.268 . S
O252 Sc242 2.105 . S
O252 C246 1.268 . S
O253 Sc243 2.105 . S
O253 C247 1.268 . S
O254 Sc244 2.105 . S
O254 C248 1.268 . S
O255 Sc242 2.105 . S
O255 C249 1.268 . S
O256 Sc244 2.105 . S
O256 C250 1.268 . S
O257 Sc243 2.105 . S
O257 C251 1.268 . S
O258 Sc242 2.105 . S
O258 C250 1.268 . S
O259 Sc243 2.105 . S
O259 C249 1.268 . S
O260 Sc244 2.105 . S
O260 C251 1.268 . S
O261 Sc242 2.105 . S
O261 C247 1.268 . S
O262 Sc244 2.105 . S
O262 C246 1.268 . S
O263 Sc243 2.105 . S
O263 C248 1.268 . S
Sc264 O267 2.025 . S
Sc264 O274 2.105 . S
Sc264 O277 2.105 1_554 S
Sc264 O280 2.105 . S
Sc264 O283 2.105 . S
Sc265 O267 2.025 . S
Sc265 O275 2.105 . S
Sc265 O279 2.105 . S
Sc265 O281 2.105 1_554 S
Sc265 O285 2.105 . S
Sc266 O267 2.025 . S
Sc266 O276 2.105 . S
Sc266 O278 2.105 . S
Sc266 O282 2.105 . S
Sc266 O284 2.105 . S
O267 Sc264 2.025 . S
O267 Sc265 2.025 . S
O267 Sc266 2.025 . S
C268 O274 1.268 . S
C268 O284 1.268 . S
C269 O275 1.268 . S
C269 O283 1.268 . S
C270 O276 1.268 . S
C270 O285 1.268 . S
C271 O277 1.268 . S
C271 O281 1.268 . S
C272 O278 1.268 . S
C272 O280 1.268 . S
C273 O279 1.268 . S
C273 O282 1.268 . S
O274 Sc264 2.105 . S
O274 C268 1.268 . S
O275 Sc265 2.105 . S
O275 C269 1.268 . S
O276 Sc266 2.105 . S
O276 C270 1.268 . S
O277 Sc264 2.105 1_556 S
O277 C271 1.268 . S
O278 Sc266 2.105 . S
O278 C272 1.268 . S
O279 Sc265 2.105 . S
O279 C273 1.268 . S
O280 Sc264 2.105 . S
O280 C272 1.268 . S
O281 Sc265 2.105 1_556 S
O281 C271 1.268 . S
O282 Sc266 2.105 . S
O282 C273 1.268 . S
O283 Sc264 2.105 . S
O283 C269 1.268 . S
O284 Sc266 2.105 . S
O284 C268 1.268 . S
O285 Sc265 2.105 . S
O285 C270 1.268 . S
Sc286 O289 2.025 . S
Sc286 O296 2.105 . S
Sc286 O299 2.105 . S
Sc286 O302 2.105 . S
Sc286 O305 2.105 . S
Sc287 O289 2.025 . S
Sc287 O297 2.105 . S
Sc287 O301 2.105 1_556 S
Sc287 O303 2.105 . S
Sc287 O307 2.105 . S
Sc288 O289 2.025 . S
Sc288 O298 2.105 . S
Sc288 O300 2.105 . S
Sc288 O304 2.105 1_556 S
Sc288 O306 2.105 . S
O289 Sc286 2.025 . S
O289 Sc287 2.025 . S
O289 Sc288 2.025 . S
C290 O296 1.268 . S
C290 O306 1.268 . S
C291 O297 1.268 . S
C291 O305 1.268 . S
C292 O298 1.268 . S
C292 O307 1.268 . S
C293 O299 1.268 . S
C293 O303 1.268 . S
C294 O300 1.268 . S
C294 O302 1.268 . S
C295 O301 1.268 . S
C295 O304 1.268 . S
O296 Sc286 2.105 . S
O296 C290 1.268 . S
O297 Sc287 2.105 . S
O297 C291 1.268 . S
O298 Sc288 2.105 . S
O298 C292 1.268 . S
O299 Sc286 2.105 . S
O299 C293 1.268 . S
O300 Sc288 2.105 . S
O300 C294 1.268 . S
O301 Sc287 2.105 1_554 S
O301 C295 1.268 . S
O302 Sc286 2.105 . S
O302 C294 1.268 . S
O303 Sc287 2.105 . S
O303 C293 1.268 . S
O304 Sc288 2.105 1_554 S
O304 C295 1.268 . S
O305 Sc286 2.105 . S
O305 C291 1.268 . S
O306 Sc288 2.105 . S
O306 C290 1.268 . S
O307 Sc287 2.105 . S
O307 C292 1.268 . S
Sc308 O311 2.025 . S
Sc308 O318 2.105 . S
Sc308 O321 2.105 . S
Sc308 O324 2.105 . S
Sc308 O327 2.105 . S
Sc309 O311 2.025 . S
Sc309 O319 2.105 . S
Sc309 O323 2.105 . S
Sc309 O325 2.105 . S
Sc309 O329 2.105 1_554 S
Sc310 O311 2.025 . S
Sc310 O320 2.105 1_554 S
Sc310 O322 2.105 . S
Sc310 O326 2.105 . S
Sc310 O328 2.105 . S
O311 Sc308 2.025 . S
O311 Sc309 2.025 . S
O311 Sc310 2.025 . S
C312 O318 1.268 . S
C312 O328 1.268 . S
C313 O319 1.268 . S
C313 O327 1.268 . S
C314 O320 1.268 . S
C314 O329 1.268 . S
C315 O321 1.268 . S
C315 O325 1.268 . S
C316 O322 1.268 . S
C316 O324 1.268 . S
C317 O323 1.268 . S
C317 O326 1.268 . S
O318 Sc308 2.105 . S
O318 C312 1.268 . S
O319 Sc309 2.105 . S
O319 C313 1.268 . S
O320 Sc310 2.105 1_556 S
O320 C314 1.268 . S
O321 Sc308 2.105 . S
O321 C315 1.268 . S
O322 Sc310 2.105 . S
O322 C316 1.268 . S
O323 Sc309 2.105 . S
O323 C317 1.268 . S
O324 Sc308 2.105 . S
O324 C316 1.268 . S
O325 Sc309 2.105 . S
O325 C315 1.268 . S
O326 Sc310 2.105 . S
O326 C317 1.268 . S
O327 Sc308 2.105 . S
O327 C313 1.268 . S
O328 Sc310 2.105 . S
O328 C312 1.268 . S
O329 Sc309 2.105 1_556 S
O329 C314 1.268 . S
Sc330 O333 2.025 . S
Sc330 O340 2.105 . S
Sc330 O343 2.105 . S
Sc330 O346 2.105 . S
Sc330 O349 2.105 1_556 S
Sc331 O333 2.025 . S
Sc331 O341 2.105 1_556 S
Sc331 O345 2.105 . S
Sc331 O347 2.105 . S
Sc331 O351 2.105 . S
Sc332 O333 2.025 . S
Sc332 O342 2.105 . S
Sc332 O344 2.105 . S
Sc332 O348 2.105 . S
Sc332 O350 2.105 . S
O333 Sc330 2.025 . S
O333 Sc331 2.025 . S
O333 Sc332 2.025 . S
C334 O340 1.268 . S
C334 O350 1.268 . S
C335 O341 1.268 . S
C335 O349 1.268 . S
C336 O342 1.268 . S
C336 O351 1.268 . S
C337 O343 1.268 . S
C337 O347 1.268 . S
C338 O344 1.268 . S
C338 O346 1.268 . S
C339 O345 1.268 . S
C339 O348 1.268 . S
O340 Sc330 2.105 . S
O340 C334 1.268 . S
O341 Sc331 2.105 1_554 S
O341 C335 1.268 . S
O342 Sc332 2.105 . S
O342 C336 1.268 . S
O343 Sc330 2.105 . S
O343 C337 1.268 . S
O344 Sc332 2.105 . S
O344 C338 1.268 . S
O345 Sc331 2.105 . S
O345 C339 1.268 . S
O346 Sc330 2.105 . S
O346 C338 1.268 . S
O347 Sc331 2.105 . S
O347 C337 1.268 . S
O348 Sc332 2.105 . S
O348 C339 1.268 . S
O349 Sc330 2.105 1_554 S
O349 C335 1.268 . S
O350 Sc332 2.105 . S
O350 C334 1.268 . S
O351 Sc331 2.105 . S
O351 C336 1.268 . S
H352 C358 0.930 . S
H353 C361 0.930 . S
H354 C362 0.930 . S
H355 C363 0.930 . S
H356 C366 0.930 . S
H357 C367 0.930 . S
C358 H352 0.930 . S
C358 C359 1.355 . S
C358 C360 1.415 . S
C359 C358 1.355 . S
C359 C361 1.419 . S
C360 C358 1.415 . S
C360 C365 1.425 . S
C360 C367 1.409 . S
C361 H353 0.930 . S
C361 C359 1.419 . S
C361 C362 1.362 . S
C362 H354 0.930 . S
C362 C361 1.362 . S
C362 C365 1.409 . S
C363 H355 0.930 . S
C363 C364 1.355 . S
C363 C365 1.415 . S
C364 C363 1.355 . S
C364 C366 1.419 . S
C365 C360 1.425 . S
C365 C362 1.409 . S
C365 C363 1.415 . S
C366 H356 0.930 . S
C366 C364 1.419 . S
C366 C367 1.362 . S
C367 H357 0.930 . S
C367 C360 1.409 . S
C367 C366 1.362 . S
H368 C374 0.930 . S
H369 C377 0.930 . S
H370 C378 0.930 . S
H371 C379 0.930 . S
H372 C382 0.930 . S
H373 C383 0.930 . S
C374 H368 0.930 . S
C374 C375 1.355 . S
C374 C376 1.415 . S
C375 C374 1.355 . S
C375 C377 1.419 . S
C376 C374 1.415 . S
C376 C381 1.425 . S
C376 C383 1.409 . S
C377 H369 0.930 . S
C377 C375 1.419 . S
C377 C378 1.362 . S
C378 H370 0.930 . S
C378 C377 1.362 . S
C378 C381 1.409 . S
C379 H371 0.930 . S
C379 C380 1.355 . S
C379 C381 1.415 . S
C380 C379 1.355 . S
C380 C382 1.419 . S
C381 C376 1.425 . S
C381 C378 1.409 . S
C381 C379 1.415 . S
C382 H372 0.930 . S
C382 C380 1.419 . S
C382 C383 1.362 . S
C383 H373 0.930 . S
C383 C376 1.409 . S
C383 C382 1.362 . S
H384 C390 0.930 . S
H385 C393 0.930 . S
H386 C394 0.930 . S
H387 C395 0.930 . S
H388 C398 0.930 . S
H389 C399 0.930 . S
C390 H384 0.930 . S
C390 C391 1.355 . S
C390 C392 1.415 . S
C391 C390 1.355 . S
C391 C393 1.419 . S
C392 C390 1.415 . S
C392 C397 1.425 . S
C392 C399 1.409 . S
C393 H385 0.930 . S
C393 C391 1.419 . S
C393 C394 1.362 . S
C394 H386 0.930 . S
C394 C393 1.362 . S
C394 C397 1.409 . S
C395 H387 0.930 . S
C395 C396 1.355 . S
C395 C397 1.415 . S
C396 C395 1.355 . S
C396 C398 1.419 . S
C397 C392 1.425 . S
C397 C394 1.409 . S
C397 C395 1.415 . S
C398 H388 0.930 . S
C398 C396 1.419 . S
C398 C399 1.362 . S
C399 H389 0.930 . S
C399 C392 1.409 . S
C399 C398 1.362 . S
H400 C406 0.930 . S
H401 C409 0.930 . S
H402 C410 0.930 . S
H403 C411 0.930 . S
H404 C414 0.930 . S
H405 C415 0.930 . S
C406 H400 0.930 . S
C406 C407 1.355 . S
C406 C408 1.415 . S
C407 C406 1.355 . S
C407 C409 1.419 . S
C408 C406 1.415 . S
C408 C413 1.425 . S
C408 C415 1.409 . S
C409 H401 0.930 . S
C409 C407 1.419 . S
C409 C410 1.362 . S
C410 H402 0.930 . S
C410 C409 1.362 . S
C410 C413 1.409 . S
C411 H403 0.930 . S
C411 C412 1.355 . S
C411 C413 1.415 . S
C412 C411 1.355 . S
C412 C414 1.419 . S
C413 C408 1.425 . S
C413 C410 1.409 . S
C413 C411 1.415 . S
C414 H404 0.930 . S
C414 C412 1.419 . S
C414 C415 1.362 . S
C415 H405 0.930 . S
C415 C408 1.409 . S
C415 C414 1.362 . S
H416 C422 0.930 . S
H417 C425 0.930 . S
H418 C426 0.930 . S
H419 C427 0.930 . S
H420 C430 0.930 . S
H421 C431 0.930 . S
C422 H416 0.930 . S
C422 C423 1.355 . S
C422 C424 1.415 . S
C423 C422 1.355 . S
C423 C425 1.419 . S
C424 C422 1.415 . S
C424 C429 1.425 . S
C424 C431 1.409 . S
C425 H417 0.930 . S
C425 C423 1.419 . S
C425 C426 1.362 . S
C426 H418 0.930 . S
C426 C425 1.362 . S
C426 C429 1.409 . S
C427 H419 0.930 . S
C427 C428 1.355 . S
C427 C429 1.415 . S
C428 C427 1.355 . S
C428 C430 1.419 . S
C429 C424 1.425 . S
C429 C426 1.409 . S
C429 C427 1.415 . S
C430 H420 0.930 . S
C430 C428 1.419 . S
C430 C431 1.362 . S
C431 H421 0.930 . S
C431 C424 1.409 . S
C431 C430 1.362 . S
H432 C438 0.930 . S
H433 C441 0.930 . S
H434 C442 0.930 . S
H435 C443 0.930 . S
H436 C446 0.930 . S
H437 C447 0.930 . S
C438 H432 0.930 . S
C438 C439 1.355 . S
C438 C440 1.415 . S
C439 C438 1.355 . S
C439 C441 1.419 . S
C440 C438 1.415 . S
C440 C445 1.425 . S
C440 C447 1.409 . S
C441 H433 0.930 . S
C441 C439 1.419 . S
C441 C442 1.362 . S
C442 H434 0.930 . S
C442 C441 1.362 . S
C442 C445 1.409 . S
C443 H435 0.930 . S
C443 C444 1.355 . S
C443 C445 1.415 . S
C444 C443 1.355 . S
C444 C446 1.419 . S
C445 C440 1.425 . S
C445 C442 1.409 . S
C445 C443 1.415 . S
C446 H436 0.930 . S
C446 C444 1.419 . S
C446 C447 1.362 . S
C447 H437 0.930 . S
C447 C440 1.409 . S
C447 C446 1.362 . S
H448 C454 0.930 . S
H449 C457 0.930 . S
H450 C458 0.930 . S
H451 C459 0.930 . S
H452 C462 0.930 . S
H453 C463 0.930 . S
C454 H448 0.930 . S
C454 C455 1.355 . S
C454 C456 1.415 . S
C455 C454 1.355 . S
C455 C457 1.419 . S
C456 C454 1.415 . S
C456 C461 1.425 . S
C456 C463 1.409 . S
C457 H449 0.930 . S
C457 C455 1.419 . S
C457 C458 1.362 . S
C458 H450 0.930 . S
C458 C457 1.362 . S
C458 C461 1.409 . S
C459 H451 0.930 . S
C459 C460 1.355 . S
C459 C461 1.415 . S
C460 C459 1.355 . S
C460 C462 1.419 . S
C461 C456 1.425 . S
C461 C458 1.409 . S
C461 C459 1.415 . S
C462 H452 0.930 . S
C462 C460 1.419 . S
C462 C463 1.362 . S
C463 H453 0.930 . S
C463 C456 1.409 . S
C463 C462 1.362 . S
H464 C470 0.930 . S
H465 C473 0.930 . S
H466 C474 0.930 . S
H467 C475 0.930 . S
H468 C478 0.930 . S
H469 C479 0.930 . S
C470 H464 0.930 . S
C470 C471 1.355 . S
C470 C472 1.415 . S
C471 C470 1.355 . S
C471 C473 1.419 . S
C472 C470 1.415 . S
C472 C477 1.425 . S
C472 C479 1.409 . S
C473 H465 0.930 . S
C473 C471 1.419 . S
C473 C474 1.362 . S
C474 H466 0.930 . S
C474 C473 1.362 . S
C474 C477 1.409 . S
C475 H467 0.930 . S
C475 C476 1.355 . S
C475 C477 1.415 . S
C476 C475 1.355 . S
C476 C478 1.419 . S
C477 C472 1.425 . S
C477 C474 1.409 . S
C477 C475 1.415 . S
C478 H468 0.930 . S
C478 C476 1.419 . S
C478 C479 1.362 . S
C479 H469 0.930 . S
C479 C472 1.409 . S
C479 C478 1.362 . S
H480 C486 0.930 1_556 S
H481 C489 0.930 . S
H482 C490 0.930 . S
H483 C491 0.930 . S
H484 C494 0.930 . S
H485 C495 0.930 . S
C486 H480 0.930 1_554 S
C486 C487 1.355 . S
C486 C488 1.415 . S
C487 C486 1.355 . S
C487 C489 1.419 . S
C488 C486 1.415 . S
C488 C493 1.425 . S
C488 C495 1.409 1_554 S
C489 H481 0.930 . S
C489 C487 1.419 . S
C489 C490 1.362 . S
C490 H482 0.930 . S
C490 C489 1.362 . S
C490 C493 1.409 . S
C491 H483 0.930 . S
C491 C492 1.355 1_554 S
C491 C493 1.415 . S
C492 C491 1.355 1_556 S
C492 C494 1.419 . S
C493 C488 1.425 . S
C493 C490 1.409 . S
C493 C491 1.415 . S
C494 H484 0.930 . S
C494 C492 1.419 . S
C494 C495 1.362 . S
C495 H485 0.930 . S
C495 C488 1.409 1_556 S
C495 C494 1.362 . S
H496 C502 0.930 . S
H497 C505 0.930 . S
H498 C506 0.930 . S
H499 C507 0.930 . S
H500 C510 0.930 . S
H501 C511 0.930 . S
C502 H496 0.930 . S
C502 C503 1.355 1_556 S
C502 C504 1.415 . S
C503 C502 1.355 1_554 S
C503 C505 1.419 . S
C504 C502 1.415 . S
C504 C509 1.425 1_556 S
C504 C511 1.409 . S
C505 H497 0.930 . S
C505 C503 1.419 . S
C505 C506 1.362 . S
C506 H498 0.930 . S
C506 C505 1.362 . S
C506 C509 1.409 . S
C507 H499 0.930 . S
C507 C508 1.355 1_554 S
C507 C509 1.415 . S
C508 C507 1.355 1_556 S
C508 C510 1.419 . S
C509 C504 1.425 1_554 S
C509 C506 1.409 . S
C509 C507 1.415 . S
C510 H500 0.930 . S
C510 C508 1.419 . S
C510 C511 1.362 . S
C511 H501 0.930 . S
C511 C504 1.409 . S
C511 C510 1.362 . S
H512 C518 0.930 . S
H513 C521 0.930 . S
H514 C522 0.930 . S
H515 C523 0.930 . S
H516 C526 0.953 1_556 S
H517 C527 0.930 . S
C518 H512 0.930 . S
C518 C519 1.353 1_556 S
C518 C520 1.415 1_556 S
C519 C518 1.353 1_554 S
C519 C521 1.422 . S
C520 C518 1.415 1_554 S
C520 C525 1.425 . S
C520 C527 1.409 1_554 S
C521 H513 0.930 . S
C521 C519 1.422 . S
C521 C522 1.362 . S
C522 H514 0.930 . S
C522 C521 1.362 . S
C522 C525 1.409 . S
C523 H515 0.930 . S
C523 C524 1.355 . S
C523 C525 1.415 . S
C524 C523 1.355 . S
C524 C526 1.419 . S
C525 C520 1.425 . S
C525 C522 1.409 . S
C525 C523 1.415 . S
C526 H516 0.953 1_554 S
C526 C524 1.419 . S
C526 C527 1.362 1_554 S
C527 H517 0.930 . S
C527 C520 1.409 1_556 S
C527 C526 1.362 1_556 S
H528 C534 0.930 . S
H529 C537 0.930 . S
H530 C538 0.930 . S
H531 C539 0.930 . S
H532 C542 0.930 . S
H533 C543 0.930 . S
C534 H528 0.930 . S
C534 C535 1.355 1_554 S
C534 C536 1.415 . S
C535 C534 1.355 1_556 S
C535 C537 1.419 . S
C536 C534 1.415 . S
C536 C541 1.425 1_554 S
C536 C543 1.409 . S
C537 H529 0.930 . S
C537 C535 1.419 . S
C537 C538 1.362 . S
C538 H530 0.930 . S
C538 C537 1.362 . S
C538 C541 1.409 . S
C539 H531 0.930 . S
C539 C540 1.355 1_556 S
C539 C541 1.415 . S
C540 C539 1.355 1_554 S
C540 C542 1.419 . S
C541 C536 1.425 1_556 S
C541 C538 1.409 . S
C541 C539 1.415 . S
C542 H532 0.930 . S
C542 C540 1.419 . S
C542 C543 1.362 . S
C543 H533 0.930 . S
C543 C536 1.409 . S
C543 C542 1.362 . S
H544 C550 0.930 . S
H545 C553 0.930 . S
H546 C554 0.930 . S
H547 C555 0.930 . S
H548 C558 0.930 . S
H549 C559 0.930 . S
C550 H544 0.930 . S
C550 C551 1.355 . S
C550 C552 1.415 . S
C551 C550 1.355 . S
C551 C553 1.419 . S
C552 C550 1.415 . S
C552 C557 1.425 . S
C552 C559 1.409 . S
C553 H545 0.930 . S
C553 C551 1.419 . S
C553 C554 1.362 . S
C554 H546 0.930 . S
C554 C553 1.362 . S
C554 C557 1.409 . S
C555 H547 0.930 . S
C555 C556 1.355 . S
C555 C557 1.415 . S
C556 C555 1.355 . S
C556 C558 1.419 . S
C557 C552 1.425 . S
C557 C554 1.409 . S
C557 C555 1.415 . S
C558 H548 0.930 . S
C558 C556 1.419 . S
C558 C559 1.362 . S
C559 H549 0.930 . S
C559 C552 1.409 . S
C559 C558 1.362 . S
H560 C566 0.930 . S
H561 C569 0.930 . S
H562 C570 0.930 . S
H563 C571 0.930 . S
H564 C574 0.930 . S
H565 C575 0.930 . S
C566 H560 0.930 . S
C566 C567 1.355 . S
C566 C568 1.415 . S
C567 C566 1.355 . S
C567 C569 1.419 . S
C568 C566 1.415 . S
C568 C573 1.425 . S
C568 C575 1.409 . S
C569 H561 0.930 . S
C569 C567 1.419 . S
C569 C570 1.362 . S
C570 H562 0.930 . S
C570 C569 1.362 . S
C570 C573 1.409 . S
C571 H563 0.930 . S
C571 C572 1.355 . S
C571 C573 1.415 . S
C572 C571 1.355 . S
C572 C574 1.419 . S
C573 C568 1.425 . S
C573 C570 1.409 . S
C573 C571 1.415 . S
C574 H564 0.930 . S
C574 C572 1.419 . S
C574 C575 1.362 . S
C575 H565 0.930 . S
C575 C568 1.409 . S
C575 C574 1.362 . S
H576 C582 0.930 . S
H577 C585 0.930 . S
H578 C586 0.930 . S
H579 C587 0.930 . S
H580 C590 0.930 . S
H581 C591 0.930 . S
C582 H576 0.930 . S
C582 C583 1.355 . S
C582 C584 1.415 . S
C583 C582 1.355 . S
C583 C585 1.419 . S
C584 C582 1.415 . S
C584 C589 1.425 . S
C584 C591 1.409 . S
C585 H577 0.930 . S
C585 C583 1.419 . S
C585 C586 1.362 . S
C586 H578 0.930 . S
C586 C585 1.362 . S
C586 C589 1.409 . S
C587 H579 0.930 . S
C587 C588 1.355 . S
C587 C589 1.415 . S
C588 C587 1.355 . S
C588 C590 1.419 . S
C589 C584 1.425 . S
C589 C586 1.409 . S
C589 C587 1.415 . S
C590 H580 0.930 . S
C590 C588 1.419 . S
C590 C591 1.362 . S
C591 H581 0.930 . S
C591 C584 1.409 . S
C591 C590 1.362 . S
H592 C598 0.930 . S
H593 C601 0.930 . S
H594 C602 0.930 . S
H595 C603 0.930 . S
H596 C606 0.930 . S
H597 C607 0.930 . S
C598 H592 0.930 . S
C598 C599 1.355 . S
C598 C600 1.415 . S
C599 C598 1.355 . S
C599 C601 1.419 . S
C600 C598 1.415 . S
C600 C605 1.425 . S
C600 C607 1.409 . S
C601 H593 0.930 . S
C601 C599 1.419 . S
C601 C602 1.362 . S
C602 H594 0.930 . S
C602 C601 1.362 . S
C602 C605 1.409 . S
C603 H595 0.930 . S
C603 C604 1.355 . S
C603 C605 1.415 . S
C604 C603 1.355 . S
C604 C606 1.419 . S
C605 C600 1.425 . S
C605 C602 1.409 . S
C605 C603 1.415 . S
C606 H596 0.930 . S
C606 C604 1.419 . S
C606 C607 1.362 . S
C607 H597 0.930 . S
C607 C600 1.409 . S
C607 C606 1.362 . S
H608 C614 0.930 . S
H609 C617 0.930 . S
H610 C618 0.930 . S
H611 C619 0.930 . S
H612 C622 0.930 . S
H613 C623 0.930 . S
C614 H608 0.930 . S
C614 C615 1.355 . S
C614 C616 1.415 . S
C615 C614 1.355 . S
C615 C617 1.419 . S
C616 C614 1.415 . S
C616 C621 1.425 . S
C616 C623 1.409 . S
C617 H609 0.930 . S
C617 C615 1.419 . S
C617 C618 1.362 . S
C618 H610 0.930 . S
C618 C617 1.362 . S
C618 C621 1.409 . S
C619 H611 0.930 . S
C619 C620 1.355 . S
C619 C621 1.415 . S
C620 C619 1.355 . S
C620 C622 1.419 . S
C621 C616 1.425 . S
C621 C618 1.409 . S
C621 C619 1.415 . S
C622 H612 0.930 . S
C622 C620 1.419 . S
C622 C623 1.362 . S
C623 H613 0.930 . S
C623 C616 1.409 . S
C623 C622 1.362 . S
H624 C630 0.930 . S
H625 C633 0.930 . S
H626 C634 0.930 . S
H627 C635 0.930 . S
H628 C638 0.930 . S
H629 C639 0.930 . S
C630 H624 0.930 . S
C630 C631 1.355 . S
C630 C632 1.415 . S
C631 C630 1.355 . S
C631 C633 1.419 . S
C632 C630 1.415 . S
C632 C637 1.425 . S
C632 C639 1.409 . S
C633 H625 0.930 . S
C633 C631 1.419 . S
C633 C634 1.362 . S
C634 H626 0.930 . S
C634 C633 1.362 . S
C634 C637 1.409 . S
C635 H627 0.930 . S
C635 C636 1.355 . S
C635 C637 1.415 . S
C636 C635 1.355 . S
C636 C638 1.419 . S
C637 C632 1.425 . S
C637 C634 1.409 . S
C637 C635 1.415 . S
C638 H628 0.930 . S
C638 C636 1.419 . S
C638 C639 1.362 . S
C639 H629 0.930 . S
C639 C632 1.409 . S
C639 C638 1.362 . S
H640 C646 0.930 . S
H641 C649 0.930 . S
H642 C650 0.930 . S
H643 C651 0.930 . S
H644 C654 0.930 . S
H645 C655 0.930 . S
C646 H640 0.930 . S
C646 C647 1.355 . S
C646 C648 1.415 . S
C647 C646 1.355 . S
C647 C649 1.419 . S
C648 C646 1.415 . S
C648 C653 1.425 . S
C648 C655 1.409 . S
C649 H641 0.930 . S
C649 C647 1.419 . S
C649 C650 1.362 . S
C650 H642 0.930 . S
C650 C649 1.362 . S
C650 C653 1.409 . S
C651 H643 0.930 . S
C651 C652 1.355 . S
C651 C653 1.415 . S
C652 C651 1.355 . S
C652 C654 1.419 . S
C653 C648 1.425 . S
C653 C650 1.409 . S
C653 C651 1.415 . S
C654 H644 0.930 . S
C654 C652 1.419 . S
C654 C655 1.362 . S
C655 H645 0.930 . S
C655 C648 1.409 . S
C655 C654 1.362 . S
H656 C662 0.930 . S
H657 C665 0.930 . S
H658 C666 0.930 . S
H659 C667 0.930 . S
H660 C670 0.930 . S
H661 C671 0.930 . S
C662 H656 0.930 . S
C662 C663 1.355 . S
C662 C664 1.415 . S
C663 C662 1.355 . S
C663 C665 1.419 . S
C664 C662 1.415 . S
C664 C669 1.425 . S
C664 C671 1.409 . S
C665 H657 0.930 . S
C665 C663 1.419 . S
C665 C666 1.362 . S
C666 H658 0.930 . S
C666 C665 1.362 . S
C666 C669 1.409 . S
C667 H659 0.930 . S
C667 C668 1.355 . S
C667 C669 1.415 . S
C668 C667 1.355 . S
C668 C670 1.419 . S
C669 C664 1.425 . S
C669 C666 1.409 . S
C669 C667 1.415 . S
C670 H660 0.930 . S
C670 C668 1.419 . S
C670 C671 1.362 . S
C671 H661 0.930 . S
C671 C664 1.409 . S
C671 C670 1.362 . S
H672 C678 0.930 . S
H673 C681 0.930 . S
H674 C682 0.930 . S
H675 C683 0.930 . S
H676 C686 0.930 . S
H677 C687 0.930 . S
C678 H672 0.930 . S
C678 C679 1.355 1_554 S
C678 C680 1.415 . S
C679 C678 1.355 1_556 S
C679 C681 1.419 . S
C680 C678 1.415 . S
C680 C685 1.425 . S
C680 C687 1.409 . S
C681 H673 0.930 . S
C681 C679 1.419 . S
C681 C682 1.362 . S
C682 H674 0.930 . S
C682 C681 1.362 . S
C682 C685 1.409 1_556 S
C683 H675 0.930 . S
C683 C684 1.355 . S
C683 C685 1.415 . S
C684 C683 1.355 . S
C684 C686 1.419 . S
C685 C680 1.425 . S
C685 C682 1.409 1_554 S
C685 C683 1.415 . S
C686 H676 0.930 . S
C686 C684 1.419 . S
C686 C687 1.362 . S
C687 H677 0.930 . S
C687 C680 1.409 . S
C687 C686 1.362 . S
H688 C694 0.928 1_554 S
H689 C697 0.930 . S
H690 C698 0.930 . S
H691 C699 0.930 . S
H692 C702 0.930 . S
H693 C703 0.930 . S
C694 H688 0.928 1_556 S
C694 C695 1.355 . S
C694 C696 1.415 . S
C695 C694 1.355 . S
C695 C697 1.419 . S
C696 C694 1.415 . S
C696 C701 1.425 . S
C696 C703 1.409 . S
C697 H689 0.930 . S
C697 C695 1.419 . S
C697 C698 1.362 . S
C698 H690 0.930 . S
C698 C697 1.362 . S
C698 C701 1.409 . S
C699 H691 0.930 . S
C699 C700 1.355 . S
C699 C701 1.415 . S
C700 C699 1.355 . S
C700 C702 1.419 . S
C701 C696 1.425 . S
C701 C698 1.409 . S
C701 C699 1.415 . S
C702 H692 0.930 . S
C702 C700 1.419 . S
C702 C703 1.362 . S
C703 H693 0.930 . S
C703 C696 1.409 . S
C703 C702 1.362 . S
H704 C710 0.930 . S
H705 C713 0.930 . S
H706 C714 0.930 . S
H707 C715 0.930 1_556 S
H708 C718 0.930 . S
H709 C719 0.930 . S
C710 H704 0.930 . S
C710 C711 1.355 1_554 S
C710 C712 1.415 . S
C711 C710 1.355 1_556 S
C711 C713 1.419 . S
C712 C710 1.415 . S
C712 C717 1.425 . S
C712 C719 1.409 . S
C713 H705 0.930 . S
C713 C711 1.419 . S
C713 C714 1.362 . S
C714 H706 0.930 . S
C714 C713 1.362 . S
C714 C717 1.410 1_556 S
C715 H707 0.930 1_554 S
C715 C716 1.355 . S
C715 C717 1.415 . S
C716 C715 1.355 . S
C716 C718 1.419 . S
C717 C712 1.425 . S
C717 C714 1.410 1_554 S
C717 C715 1.415 . S
C718 H708 0.930 . S
C718 C716 1.419 . S
C718 C719 1.362 . S
C719 H709 0.930 . S
C719 C712 1.409 . S
C719 C718 1.362 . S
H720 C726 0.930 . S
H721 C729 0.930 . S
H722 C730 0.930 . S
H723 C731 0.930 . S
H724 C734 0.930 . S
H725 C735 0.930 . S
C726 H720 0.930 . S
C726 C727 1.355 1_554 S
C726 C728 1.415 . S
C727 C726 1.355 1_556 S
C727 C729 1.419 . S
C728 C726 1.415 . S
C728 C733 1.425 1_554 S
C728 C735 1.409 . S
C729 H721 0.930 . S
C729 C727 1.419 . S
C729 C730 1.362 . S
C730 H722 0.930 . S
C730 C729 1.362 . S
C730 C733 1.409 . S
C731 H723 0.930 . S
C731 C732 1.355 1_556 S
C731 C733 1.415 . S
C732 C731 1.355 1_554 S
C732 C734 1.419 . S
C733 C728 1.425 1_556 S
C733 C730 1.409 . S
C733 C731 1.415 . S
C734 H724 0.930 . S
C734 C732 1.419 . S
C734 C735 1.362 . S
C735 H725 0.930 . S
C735 C728 1.409 . S
C735 C734 1.362 . S
H736 C742 0.930 . S
H737 C745 0.930 . S
H738 C746 0.930 . S
H739 C747 0.930 . S
H740 C750 0.930 . S
H741 C751 0.930 . S
C742 H736 0.930 . S
C742 C743 1.355 1_545 S
C742 C744 1.415 . S
C743 C742 1.355 1_565 S
C743 C745 1.419 . S
C744 C742 1.415 . S
C744 C749 1.425 . S
C744 C751 1.409 . S
C745 H737 0.930 . S
C745 C743 1.419 . S
C745 C746 1.362 . S
C746 H738 0.930 . S
C746 C745 1.362 . S
C746 C749 1.409 1_565 S
C747 H739 0.930 . S
C747 C748 1.355 . S
C747 C749 1.415 . S
C748 C747 1.355 . S
C748 C750 1.419 . S
C749 C744 1.425 . S
C749 C746 1.409 1_545 S
C749 C747 1.415 . S
C750 H740 0.930 . S
C750 C748 1.419 . S
C750 C751 1.362 . S
C751 H741 0.930 . S
C751 C744 1.409 . S
C751 C750 1.362 . S
H752 C758 0.930 . S
H753 C761 0.930 . S
H754 C762 0.930 . S
H755 C763 0.930 . S
H756 C766 0.930 . S
H757 C767 0.930 . S
C758 H752 0.930 . S
C758 C759 1.355 1_455 S
C758 C760 1.415 . S
C759 C758 1.355 1_655 S
C759 C761 1.419 . S
C760 C758 1.415 . S
C760 C765 1.425 . S
C760 C767 1.409 . S
C761 H753 0.930 . S
C761 C759 1.419 . S
C761 C762 1.362 . S
C762 H754 0.930 . S
C762 C761 1.362 . S
C762 C765 1.409 1_655 S
C763 H755 0.930 . S
C763 C764 1.355 . S
C763 C765 1.415 . S
C764 C763 1.355 . S
C764 C766 1.419 . S
C765 C760 1.425 . S
C765 C762 1.409 1_455 S
C765 C763 1.415 . S
C766 H756 0.930 . S
C766 C764 1.419 . S
C766 C767 1.362 . S
C767 H757 0.930 . S
C767 C760 1.409 . S
C767 C766 1.362 . S
H768 C774 0.930 . S
H769 C777 0.930 . S
H770 C778 0.930 . S
H771 C779 0.930 . S
H772 C782 0.930 . S
H773 C783 0.930 . S
C774 H768 0.930 . S
C774 C775 1.355 . S
C774 C776 1.415 . S
C775 C774 1.355 . S
C775 C777 1.419 . S
C776 C774 1.415 . S
C776 C781 1.429 . S
C776 C783 1.409 . S
C777 H769 0.930 . S
C777 C775 1.419 . S
C777 C778 1.362 1_565 S
C778 H770 0.930 . S
C778 C777 1.362 1_545 S
C778 C781 1.408 1_545 S
C779 H771 0.930 . S
C779 C780 1.355 . S
C779 C781 1.412 1_545 S
C780 C779 1.355 . S
C780 C782 1.419 1_545 S
C781 C776 1.429 . S
C781 C778 1.408 1_565 S
C781 C779 1.412 1_565 S
C782 H772 0.930 . S
C782 C780 1.419 1_565 S
C782 C783 1.362 . S
C783 H773 0.930 . S
C783 C776 1.409 . S
C783 C782 1.362 . S
H784 C790 0.930 . S
H785 C793 0.930 . S
H786 C794 0.930 . S
H787 C795 0.930 . S
H788 C798 0.930 . S
H789 C799 0.930 . S
C790 H784 0.930 . S
C790 C791 1.355 . S
C790 C792 1.415 . S
C791 C790 1.355 . S
C791 C793 1.419 . S
C792 C790 1.415 . S
C792 C797 1.425 . S
C792 C799 1.409 1_655 S
C793 H785 0.930 . S
C793 C791 1.419 . S
C793 C794 1.362 . S
C794 H786 0.930 . S
C794 C793 1.362 . S
C794 C797 1.409 . S
C795 H787 0.930 . S
C795 C796 1.355 1_655 S
C795 C797 1.415 . S
C796 C795 1.355 1_455 S
C796 C798 1.419 . S
C797 C792 1.425 . S
C797 C794 1.409 . S
C797 C795 1.415 . S
C798 H788 0.930 . S
C798 C796 1.419 . S
C798 C799 1.362 . S
C799 H789 0.930 . S
C799 C792 1.409 1_455 S
C799 C798 1.362 . S
H800 C806 0.930 . S
H801 C809 0.930 . S
H802 C810 0.930 . S
H803 C811 0.930 . S
H804 C814 0.930 . S
H805 C815 0.930 . S
C806 H800 0.930 . S
C806 C807 1.355 . S
C806 C808 1.415 1_565 S
C807 C806 1.355 . S
C807 C809 1.419 1_565 S
C808 C806 1.415 1_545 S
C808 C813 1.425 . S
C808 C815 1.409 1_545 S
C809 H801 0.930 . S
C809 C807 1.419 1_545 S
C809 C810 1.362 . S
C810 H802 0.930 . S
C810 C809 1.362 . S
C810 C813 1.409 . S
C811 H803 0.930 . S
C811 C812 1.355 . S
C811 C813 1.415 . S
C812 C811 1.355 . S
C812 C814 1.419 . S
C813 C808 1.425 . S
C813 C810 1.409 . S
C813 C811 1.415 . S
C814 H804 0.930 . S
C814 C812 1.419 . S
C814 C815 1.362 1_545 S
C815 H805 0.930 . S
C815 C808 1.409 1_565 S
C815 C814 1.362 1_565 S
H816 C822 0.930 . S
H817 C825 0.930 . S
H818 C826 0.930 1_655 S
H819 C827 0.930 . S
H820 C830 0.930 . S
H821 C831 0.930 . S
C822 H816 0.930 . S
C822 C823 1.355 . S
C822 C824 1.415 . S
C823 C822 1.355 . S
C823 C825 1.419 . S
C824 C822 1.415 . S
C824 C829 1.425 . S
C824 C831 1.409 . S
C825 H817 0.930 . S
C825 C823 1.419 . S
C825 C826 1.362 . S
C826 H818 0.930 1_455 S
C826 C825 1.362 . S
C826 C829 1.409 . S
C827 H819 0.930 . S
C827 C828 1.355 . S
C827 C829 1.415 1_655 S
C828 C827 1.355 . S
C828 C830 1.419 1_655 S
C829 C824 1.425 . S
C829 C826 1.409 . S
C829 C827 1.415 1_455 S
C830 H820 0.930 . S
C830 C828 1.419 1_455 S
C830 C831 1.362 . S
C831 H821 0.930 . S
C831 C824 1.409 . S
C831 C830 1.362 . S
H832 C838 0.930 . S
H833 C841 0.930 . S
H834 C842 0.930 . S
H835 C843 0.930 . S
H836 C846 0.930 . S
H837 C847 0.930 . S
C838 H832 0.930 . S
C838 C839 1.355 . S
C838 C840 1.415 . S
C839 C838 1.355 . S
C839 C841 1.419 . S
C840 C838 1.415 . S
C840 C845 1.425 . S
C840 C847 1.409 1_565 S
C841 H833 0.930 . S
C841 C839 1.419 . S
C841 C842 1.362 . S
C842 H834 0.930 . S
C842 C841 1.362 . S
C842 C845 1.409 . S
C843 H835 0.930 . S
C843 C844 1.355 1_565 S
C843 C845 1.415 . S
C844 C843 1.355 1_545 S
C844 C846 1.419 . S
C845 C840 1.425 . S
C845 C842 1.409 . S
C845 C843 1.415 . S
C846 H836 0.930 . S
C846 C844 1.419 . S
C846 C847 1.362 . S
C847 H837 0.930 . S
C847 C840 1.409 1_545 S
C847 C846 1.362 . S
H848 C854 0.930 . S
H849 C857 0.930 . S
H850 C858 0.930 . S
H851 C859 0.930 . S
H852 C862 0.930 . S
H853 C863 0.930 . S
C854 H848 0.930 . S
C854 C855 1.355 1_655 S
C854 C856 1.415 . S
C855 C854 1.355 1_455 S
C855 C857 1.419 . S
C856 C854 1.415 . S
C856 C861 1.425 . S
C856 C863 1.409 . S
C857 H849 0.930 . S
C857 C855 1.419 . S
C857 C858 1.362 . S
C858 H850 0.930 . S
C858 C857 1.362 . S
C858 C861 1.409 1_455 S
C859 H851 0.930 . S
C859 C860 1.355 . S
C859 C861 1.415 . S
C860 C859 1.355 . S
C860 C862 1.419 . S
C861 C856 1.425 . S
C861 C858 1.409 1_655 S
C861 C859 1.415 . S
C862 H852 0.930 . S
C862 C860 1.419 . S
C862 C863 1.362 . S
C863 H853 0.930 . S
C863 C856 1.409 . S
C863 C862 1.362 . S
H864 C870 0.930 . S
H865 C873 0.930 . S
H866 C874 0.930 . S
H867 C875 0.930 . S
H868 C878 0.930 . S
H869 C879 0.930 . S
C870 H864 0.930 . S
C870 C871 1.355 . S
C870 C872 1.415 . S
C871 C870 1.355 . S
C871 C873 1.419 . S
C872 C870 1.415 . S
C872 C877 1.425 . S
C872 C879 1.409 . S
C873 H865 0.930 . S
C873 C871 1.419 . S
C873 C874 1.362 . S
C874 H866 0.930 . S
C874 C873 1.362 . S
C874 C877 1.409 . S
C875 H867 0.930 . S
C875 C876 1.355 . S
C875 C877 1.415 . S
C876 C875 1.355 . S
C876 C878 1.419 . S
C877 C872 1.425 . S
C877 C874 1.409 . S
C877 C875 1.415 . S
C878 H868 0.930 . S
C878 C876 1.419 . S
C878 C879 1.362 . S
C879 H869 0.930 . S
C879 C872 1.409 . S
C879 C878 1.362 . S
H880 C886 0.930 . S
H881 C889 0.930 . S
H882 C890 0.930 . S
H883 C891 0.930 . S
H884 C894 0.930 . S
H885 C895 0.930 . S
C886 H880 0.930 . S
C886 C887 1.355 . S
C886 C888 1.415 . S
C887 C886 1.355 . S
C887 C889 1.419 . S
C888 C886 1.415 . S
C888 C893 1.425 . S
C888 C895 1.409 . S
C889 H881 0.930 . S
C889 C887 1.419 . S
C889 C890 1.362 . S
C890 H882 0.930 . S
C890 C889 1.362 . S
C890 C893 1.409 . S
C891 H883 0.930 . S
C891 C892 1.355 . S
C891 C893 1.415 . S
C892 C891 1.355 . S
C892 C894 1.419 . S
C893 C888 1.425 . S
C893 C890 1.409 . S
C893 C891 1.415 . S
C894 H884 0.930 . S
C894 C892 1.419 . S
C894 C895 1.362 . S
C895 H885 0.930 . S
C895 C888 1.409 . S
C895 C894 1.362 . S
H896 C902 0.930 . S
H897 C905 0.930 . S
H898 C906 0.930 . S
H899 C907 0.930 . S
H900 C910 0.930 . S
H901 C911 0.930 . S
C902 H896 0.930 . S
C902 C903 1.355 . S
C902 C904 1.415 . S
C903 C902 1.355 . S
C903 C905 1.419 . S
C904 C902 1.415 . S
C904 C909 1.425 . S
C904 C911 1.409 . S
C905 H897 0.930 . S
C905 C903 1.419 . S
C905 C906 1.362 . S
C906 H898 0.930 . S
C906 C905 1.362 . S
C906 C909 1.409 . S
C907 H899 0.930 . S
C907 C908 1.355 . S
C907 C909 1.415 . S
C908 C907 1.355 . S
C908 C910 1.419 . S
C909 C904 1.425 . S
C909 C906 1.409 . S
C909 C907 1.415 . S
C910 H900 0.930 . S
C910 C908 1.419 . S
C910 C911 1.362 . S
C911 H901 0.930 . S
C911 C904 1.409 . S
C911 C910 1.362 . S
H912 C918 0.930 . S
H913 C921 0.930 . S
H914 C922 0.930 . S
H915 C923 0.930 . S
H916 C926 0.930 . S
H917 C927 0.930 . S
C918 H912 0.930 . S
C918 C919 1.355 . S
C918 C920 1.415 . S
C919 C918 1.355 . S
C919 C921 1.419 . S
C920 C918 1.415 . S
C920 C925 1.425 . S
C920 C927 1.409 . S
C921 H913 0.930 . S
C921 C919 1.419 . S
C921 C922 1.362 . S
C922 H914 0.930 . S
C922 C921 1.362 . S
C922 C925 1.409 . S
C923 H915 0.930 . S
C923 C924 1.355 . S
C923 C925 1.415 . S
C924 C923 1.355 . S
C924 C926 1.419 . S
C925 C920 1.425 . S
C925 C922 1.409 . S
C925 C923 1.415 . S
C926 H916 0.930 . S
C926 C924 1.419 . S
C926 C927 1.362 . S
C927 H917 0.930 . S
C927 C920 1.409 . S
C927 C926 1.362 . S
H928 C934 0.930 . S
H929 C937 0.930 . S
H930 C938 0.930 . S
H931 C939 0.930 . S
H932 C942 0.930 . S
H933 C943 0.930 . S
C934 H928 0.930 . S
C934 C935 1.355 . S
C934 C936 1.415 . S
C935 C934 1.355 . S
C935 C937 1.419 . S
C936 C934 1.415 . S
C936 C941 1.425 . S
C936 C943 1.409 . S
C937 H929 0.930 . S
C937 C935 1.419 . S
C937 C938 1.362 . S
C938 H930 0.930 . S
C938 C937 1.362 . S
C938 C941 1.409 . S
C939 H931 0.930 . S
C939 C940 1.355 . S
C939 C941 1.415 . S
C940 C939 1.355 . S
C940 C942 1.419 . S
C941 C936 1.425 . S
C941 C938 1.409 . S
C941 C939 1.415 . S
C942 H932 0.930 . S
C942 C940 1.419 . S
C942 C943 1.362 . S
C943 H933 0.930 . S
C943 C936 1.409 . S
C943 C942 1.362 . S
H944 C950 0.930 . S
H945 C953 0.930 . S
H946 C954 0.930 . S
H947 C955 0.930 . S
H948 C958 0.930 . S
H949 C959 0.930 . S
C950 H944 0.930 . S
C950 C951 1.355 . S
C950 C952 1.415 . S
C951 C950 1.355 . S
C951 C953 1.419 . S
C952 C950 1.415 . S
C952 C957 1.425 . S
C952 C959 1.409 . S
C953 H945 0.930 . S
C953 C951 1.419 . S
C953 C954 1.362 . S
C954 H946 0.930 . S
C954 C953 1.362 . S
C954 C957 1.409 . S
C955 H947 0.930 . S
C955 C956 1.355 . S
C955 C957 1.415 . S
C956 C955 1.355 . S
C956 C958 1.419 . S
C957 C952 1.425 . S
C957 C954 1.409 . S
C957 C955 1.415 . S
C958 H948 0.930 . S
C958 C956 1.419 . S
C958 C959 1.362 . S
C959 H949 0.930 . S
C959 C952 1.409 . S
C959 C958 1.362 . S
H960 C966 0.930 . S
H961 C969 0.930 . S
H962 C970 0.930 . S
H963 C971 0.930 . S
H964 C974 0.930 . S
H965 C975 0.930 . S
C966 H960 0.930 . S
C966 C967 1.355 . S
C966 C968 1.415 . S
C967 C966 1.355 . S
C967 C969 1.419 . S
C968 C966 1.415 . S
C968 C973 1.425 . S
C968 C975 1.409 . S
C969 H961 0.930 . S
C969 C967 1.419 . S
C969 C970 1.362 . S
C970 H962 0.930 . S
C970 C969 1.362 . S
C970 C973 1.409 . S
C971 H963 0.930 . S
C971 C972 1.355 . S
C971 C973 1.415 . S
C972 C971 1.355 . S
C972 C974 1.419 . S
C973 C968 1.425 . S
C973 C970 1.409 . S
C973 C971 1.415 . S
C974 H964 0.930 . S
C974 C972 1.419 . S
C974 C975 1.362 . S
C975 H965 0.930 . S
C975 C968 1.409 . S
C975 C974 1.362 . S
H976 C982 0.930 . S
H977 C985 0.930 . S
H978 C986 0.930 . S
H979 C987 0.930 . S
H980 C990 0.930 . S
H981 C991 0.930 . S
C982 H976 0.930 . S
C982 C983 1.355 . S
C982 C984 1.415 . S
C983 C982 1.355 . S
C983 C985 1.419 . S
C984 C982 1.415 . S
C984 C989 1.425 . S
C984 C991 1.409 . S
C985 H977 0.930 . S
C985 C983 1.419 . S
C985 C986 1.362 . S
C986 H978 0.930 . S
C986 C985 1.362 . S
C986 C989 1.409 . S
C987 H979 0.930 . S
C987 C988 1.355 . S
C987 C989 1.415 . S
C988 C987 1.355 . S
C988 C990 1.419 . S
C989 C984 1.425 . S
C989 C986 1.409 . S
C989 C987 1.415 . S
C990 H980 0.930 . S
C990 C988 1.419 . S
C990 C991 1.362 . S
C991 H981 0.930 . S
C991 C984 1.409 . S
C991 C990 1.362 . S
H992 C998 0.930 1_554 S
H993 C1001 0.930 . S
H994 C1002 0.930 . S
H995 C1003 0.930 1_556 S
H996 C1006 0.930 . S
H997 C1007 0.930 . S
C998 H992 0.930 1_556 S
C998 C999 1.355 . S
C998 C1000 1.415 1_556 S
C999 C998 1.355 . S
C999 C1001 1.419 . S
C1000 C998 1.415 1_554 S
C1000 C1005 1.425 1_554 S
C1000 C1007 1.409 . S
C1001 H993 0.930 . S
C1001 C999 1.419 . S
C1001 C1002 1.362 . S
C1002 H994 0.930 . S
C1002 C1001 1.362 . S
C1002 C1005 1.409 . S
C1003 H995 0.930 1_554 S
C1003 C1004 1.355 . S
C1003 C1005 1.415 1_554 S
C1004 C1003 1.355 . S
C1004 C1006 1.419 . S
C1005 C1000 1.425 1_556 S
C1005 C1002 1.409 . S
C1005 C1003 1.415 1_556 S
C1006 H996 0.930 . S
C1006 C1004 1.419 . S
C1006 C1007 1.362 . S
C1007 H997 0.930 . S
C1007 C1000 1.409 . S
C1007 C1006 1.362 . S
H1008 C1014 0.930 1_556 S
H1009 C1017 0.930 . S
H1010 C1018 0.930 . S
H1011 C1019 0.930 1_554 S
H1012 C1022 0.930 . S
H1013 C1023 0.930 . S
C1014 H1008 0.930 1_554 S
C1014 C1015 1.355 . S
C1014 C1016 1.415 1_554 S
C1015 C1014 1.355 . S
C1015 C1017 1.419 . S
C1016 C1014 1.415 1_556 S
C1016 C1021 1.425 1_556 S
C1016 C1023 1.409 . S
C1017 H1009 0.930 . S
C1017 C1015 1.419 . S
C1017 C1018 1.362 . S
C1018 H1010 0.930 . S
C1018 C1017 1.362 . S
C1018 C1021 1.409 . S
C1019 H1011 0.930 1_556 S
C1019 C1020 1.355 . S
C1019 C1021 1.415 1_556 S
C1020 C1019 1.355 . S
C1020 C1022 1.419 . S
C1021 C1016 1.425 1_554 S
C1021 C1018 1.409 . S
C1021 C1019 1.415 1_554 S
C1022 H1012 0.930 . S
C1022 C1020 1.419 . S
C1022 C1023 1.362 . S
C1023 H1013 0.930 . S
C1023 C1016 1.409 . S
C1023 C1022 1.362 . S
H1024 C1030 0.930 . S
H1025 C1033 0.930 . S
H1026 C1034 0.930 . S
H1027 C1035 0.930 . S
H1028 C1038 0.930 . S
H1029 C1039 0.930 . S
C1030 H1024 0.930 . S
C1030 C1031 1.355 . S
C1030 C1032 1.415 1_554 S
C1031 C1030 1.355 . S
C1031 C1033 1.419 . S
C1032 C1030 1.415 1_556 S
C1032 C1037 1.425 1_556 S
C1032 C1039 1.409 . S
C1033 H1025 0.930 . S
C1033 C1031 1.419 . S
C1033 C1034 1.362 . S
C1034 H1026 0.930 . S
C1034 C1033 1.362 . S
C1034 C1037 1.409 . S
C1035 H1027 0.930 . S
C1035 C1036 1.355 . S
C1035 C1037 1.415 1_556 S
C1036 C1035 1.355 . S
C1036 C1038 1.419 . S
C1037 C1032 1.425 1_554 S
C1037 C1034 1.409 . S
C1037 C1035 1.415 1_554 S
C1038 H1028 0.930 . S
C1038 C1036 1.419 . S
C1038 C1039 1.362 . S
C1039 H1029 0.930 . S
C1039 C1032 1.409 . S
C1039 C1038 1.362 . S
H1040 C1046 0.930 . S
H1041 C1049 0.930 . S
H1042 C1050 0.930 . S
H1043 C1051 0.930 . S
H1044 C1054 0.930 . S
H1045 C1055 0.930 . S
C1046 H1040 0.930 . S
C1046 C1047 1.355 . S
C1046 C1048 1.415 1_554 S
C1047 C1046 1.355 . S
C1047 C1049 1.419 . S
C1048 C1046 1.415 1_556 S
C1048 C1053 1.425 1_556 S
C1048 C1055 1.409 . S
C1049 H1041 0.930 . S
C1049 C1047 1.419 . S
C1049 C1050 1.362 . S
C1050 H1042 0.930 . S
C1050 C1049 1.362 . S
C1050 C1053 1.409 . S
C1051 H1043 0.930 . S
C1051 C1052 1.355 . S
C1051 C1053 1.415 1_556 S
C1052 C1051 1.355 . S
C1052 C1054 1.419 . S
C1053 C1048 1.425 1_554 S
C1053 C1050 1.409 . S
C1053 C1051 1.415 1_554 S
C1054 H1044 0.930 . S
C1054 C1052 1.419 . S
C1054 C1055 1.362 . S
C1055 H1045 0.930 . S
C1055 C1048 1.409 . S
C1055 C1054 1.362 . S
H1056 C1062 0.930 . S
H1057 C1065 0.930 . S
H1058 C1066 0.930 . S
H1059 C1067 0.930 . S
H1060 C1070 0.930 . S
H1061 C1071 0.930 . S
C1062 H1056 0.930 . S
C1062 C1063 1.355 . S
C1062 C1064 1.415 . S
C1063 C1062 1.355 . S
C1063 C1065 1.419 . S
C1064 C1062 1.415 . S
C1064 C1069 1.425 . S
C1064 C1071 1.409 . S
C1065 H1057 0.930 . S
C1065 C1063 1.419 . S
C1065 C1066 1.362 . S
C1066 H1058 0.930 . S
C1066 C1065 1.362 . S
C1066 C1069 1.409 . S
C1067 H1059 0.930 . S
C1067 C1068 1.355 . S
C1067 C1069 1.415 . S
C1068 C1067 1.355 . S
C1068 C1070 1.419 . S
C1069 C1064 1.425 . S
C1069 C1066 1.409 . S
C1069 C1067 1.415 . S
C1070 H1060 0.930 . S
C1070 C1068 1.419 . S
C1070 C1071 1.362 . S
C1071 H1061 0.930 . S
C1071 C1064 1.409 . S
C1071 C1070 1.362 . S
H1072 C1078 0.930 . S
H1073 C1081 0.930 . S
H1074 C1082 0.930 . S
H1075 C1083 0.930 . S
H1076 C1086 0.930 . S
H1077 C1087 0.930 . S
C1078 H1072 0.930 . S
C1078 C1079 1.355 . S
C1078 C1080 1.415 . S
C1079 C1078 1.355 . S
C1079 C1081 1.419 . S
C1080 C1078 1.415 . S
C1080 C1085 1.425 . S
C1080 C1087 1.409 . S
C1081 H1073 0.930 . S
C1081 C1079 1.419 . S
C1081 C1082 1.362 . S
C1082 H1074 0.930 . S
C1082 C1081 1.362 . S
C1082 C1085 1.409 . S
C1083 H1075 0.930 . S
C1083 C1084 1.355 . S
C1083 C1085 1.415 . S
C1084 C1083 1.355 . S
C1084 C1086 1.419 . S
C1085 C1080 1.425 . S
C1085 C1082 1.409 . S
C1085 C1083 1.415 . S
C1086 H1076 0.930 . S
C1086 C1084 1.419 . S
C1086 C1087 1.362 . S
C1087 H1077 0.930 . S
C1087 C1080 1.409 . S
C1087 C1086 1.362 . S
H1088 C1094 0.930 . S
H1089 C1097 0.930 . S
H1090 C1098 0.930 . S
H1091 C1099 0.930 . S
H1092 C1102 0.930 . S
H1093 C1103 0.930 . S
C1094 H1088 0.930 . S
C1094 C1095 1.355 . S
C1094 C1096 1.415 . S
C1095 C1094 1.355 . S
C1095 C1097 1.419 . S
C1096 C1094 1.415 . S
C1096 C1101 1.425 . S
C1096 C1103 1.409 . S
C1097 H1089 0.930 . S
C1097 C1095 1.419 . S
C1097 C1098 1.362 . S
C1098 H1090 0.930 . S
C1098 C1097 1.362 . S
C1098 C1101 1.409 . S
C1099 H1091 0.930 . S
C1099 C1100 1.355 . S
C1099 C1101 1.415 . S
C1100 C1099 1.355 . S
C1100 C1102 1.419 . S
C1101 C1096 1.425 . S
C1101 C1098 1.409 . S
C1101 C1099 1.415 . S
C1102 H1092 0.930 . S
C1102 C1100 1.419 . S
C1102 C1103 1.362 . S
C1103 H1093 0.930 . S
C1103 C1096 1.409 . S
C1103 C1102 1.362 . S
H1104 C1110 0.930 . S
H1105 C1113 0.930 . S
H1106 C1114 0.930 . S
H1107 C1115 0.930 . S
H1108 C1118 0.930 . S
H1109 C1119 0.930 . S
C1110 H1104 0.930 . S
C1110 C1111 1.355 . S
C1110 C1112 1.415 . S
C1111 C1110 1.355 . S
C1111 C1113 1.419 . S
C1112 C1110 1.415 . S
C1112 C1117 1.425 . S
C1112 C1119 1.409 . S
C1113 H1105 0.930 . S
C1113 C1111 1.419 . S
C1113 C1114 1.362 . S
C1114 H1106 0.930 . S
C1114 C1113 1.362 . S
C1114 C1117 1.409 . S
C1115 H1107 0.930 . S
C1115 C1116 1.355 . S
C1115 C1117 1.415 . S
C1116 C1115 1.355 . S
C1116 C1118 1.419 . S
C1117 C1112 1.425 . S
C1117 C1114 1.409 . S
C1117 C1115 1.415 . S
C1118 H1108 0.930 . S
C1118 C1116 1.419 . S
C1118 C1119 1.362 . S
C1119 H1109 0.930 . S
C1119 C1112 1.409 . S
C1119 C1118 1.362 . S
C359 C5 1.265 . S
C364 C115 1.348 . S
C375 C29 1.347 . S
C380 C139 1.287 . S
C391 C163 1.334 . S
C396 C53 1.262 . S
C407 C94 1.350 . S
C412 C72 1.270 . S
C423 C291 1.294 . S
C428 C181 1.289 . S
C439 C205 1.349 . S
C444 C315 1.281 . S
C455 C339 1.350 . S
C460 C229 1.279 . S
C471 C270 1.284 . S
C476 C248 1.299 . S
C487 C8 1.368 . S
C492 C27 1.243 . S
C503 C50 1.239 . S
C508 C26 1.362 . S
C519 C75 1.255 1_554 S
C524 C48 1.376 . S
C535 C74 1.384 . S
C540 C7 1.309 . S
C551 C96 1.389 . S
C556 C160 1.320 . S
C567 C97 1.291 . S
C572 C118 1.392 . S
C583 C117 1.350 . S
C588 C136 1.407 . S
C599 C137 1.346 . S
C604 C158 1.403 . S
C615 C184 1.397 . S
C620 C203 1.336 . S
C631 C226 1.297 . S
C636 C202 1.394 . S
C647 C224 1.379 . S
C652 C251 1.262 . S
C663 C250 1.390 . S
C668 C183 1.322 . S
C679 C336 1.309 . S
C684 C272 1.384 . S
C695 C273 1.349 1_556 S
C700 C294 1.406 . S
C711 C293 1.284 . S
C716 C312 1.374 . S
C727 C334 1.361 . S
C732 C313 1.243 . S
C743 C140 1.458 . S
C748 C9 1.523 . S
C759 C162 1.468 . S
C764 C28 1.527 . S
C775 C49 1.490 . S
C780 C92 1.428 . S
C791 C73 1.525 . S
C796 C114 1.488 . S
C807 C52 1.465 . S
C812 C95 1.507 . S
C823 C119 1.518 . S
C828 C70 1.481 . S
C839 C138 1.531 . S
C844 C4 1.484 . S
C855 C30 1.486 . S
C860 C159 1.531 . S
C871 C185 1.510 . S
C876 C316 1.470 . S
C887 C204 1.485 . S
C892 C338 1.411 . S
C903 C268 1.431 . S
C908 C225 1.491 . S
C919 C249 1.530 . S
C924 C290 1.488 . S
C935 C271 1.512 . S
C940 C228 1.434 . S
C951 C295 1.490 . S
C956 C246 1.427 . S
C967 C314 1.514 . S
C972 C180 1.439 . S
C983 C206 1.474 . S
C988 C335 1.529 . S
C999 C337 1.618 . S
C1004 C6 1.592 . S
C1015 C269 1.621 . S
C1020 C31 1.621 . S
C1031 C51 1.592 . S
C1036 C292 1.557 . S
C1047 C317 1.564 . S
C1052 C71 1.599 . S
C1063 C93 1.623 . S
C1068 C207 1.618 . S
C1079 C116 1.538 . S
C1084 C227 1.522 . S
C1095 C247 1.605 . S
C1100 C141 1.571 . S
C1111 C161 1.605 . S
C1116 C182 1.623 . S
