# Generated by pormake.
# Topology sml, (6)-cn, num edge types: 1
# Building blocks:
#     Node 0, Type 0, BuildingBlock: KUMBOL_clean_sbu_1, # of connection points: 6
#     Node 1, Type 0, BuildingBlock: KUMBOL_clean_sbu_1, # of connection points: 6
#     Node 2, Type 0, BuildingBlock: KUMBOL_clean_sbu_1, # of connection points: 6
#     Node 3, Type 0, BuildingBlock: KUMBOL_clean_sbu_1, # of connection points: 6
#     Node 4, Type 0, BuildingBlock: KUMBOL_clean_sbu_1, # of connection points: 6
#     Node 5, Type 0, BuildingBlock: KUMBOL_clean_sbu_1, # of connection points: 6
#     Edge 6, Type (0, 0), BuildingBlock: MIFKUJ_clean_linker_0, # of connection points: 2
#     Edge 7, Type (0, 0), BuildingBlock: MIFKUJ_clean_linker_0, # of connection points: 2
#     Edge 8, Type (0, 0), BuildingBlock: MIFKUJ_clean_linker_0, # of connection points: 2
#     Edge 9, Type (0, 0), BuildingBlock: MIFKUJ_clean_linker_0, # of connection points: 2
#     Edge 10, Type (0, 0), BuildingBlock: MIFKUJ_clean_linker_0, # of connection points: 2
#     Edge 11, Type (0, 0), BuildingBlock: MIFKUJ_clean_linker_0, # of connection points: 2
#     Edge 12, Type (0, 0), BuildingBlock: MIFKUJ_clean_linker_0, # of connection points: 2
#     Edge 13, Type (0, 0), BuildingBlock: MIFKUJ_clean_linker_0, # of connection points: 2
#     Edge 14, Type (0, 0), BuildingBlock: MIFKUJ_clean_linker_0, # of connection points: 2
#     Edge 15, Type (0, 0), BuildingBlock: MIFKUJ_clean_linker_0, # of connection points: 2
#     Edge 16, Type (0, 0), BuildingBlock: MIFKUJ_clean_linker_0, # of connection points: 2
#     Edge 17, Type (0, 0), BuildingBlock: MIFKUJ_clean_linker_0, # of connection points: 2
#     Edge 18, Type (0, 0), BuildingBlock: MIFKUJ_clean_linker_0, # of connection points: 2
#     Edge 19, Type (0, 0), BuildingBlock: MIFKUJ_clean_linker_0, # of connection points: 2
#     Edge 20, Type (0, 0), BuildingBlock: MIFKUJ_clean_linker_0, # of connection points: 2
#     Edge 21, Type (0, 0), BuildingBlock: MIFKUJ_clean_linker_0, # of connection points: 2
#     Edge 22, Type (0, 0), BuildingBlock: MIFKUJ_clean_linker_0, # of connection points: 2
#     Edge 23, Type (0, 0), BuildingBlock: MIFKUJ_clean_linker_0, # of connection points: 2
# Relax obj value: 0.052
# Max RMSD: 0.160
# Mean RMSD: 0.160
data_MOF--net-sml--node1-KUMBOL_clean_sbu_1--edge1-MIFKUJ_clean_linker_0
_symmetry_space_group_name_H-M    P1
_symmetry_Int_Tables_number       1
_symmetry_cell_setting            triclinic
loop_
_symmetry_equiv_pos_as_xyz
'x, y, z'
_cell_length_a     44.911304
_cell_length_b     44.922958
_cell_length_c     28.98292
_cell_angle_alpha  89.992376
_cell_angle_beta   89.9118
_cell_angle_gamma 119.99437
loop_
_atom_site_label
_atom_site_type_symbol
_atom_site_fract_x
_atom_site_fract_y
_atom_site_fract_z
_atom_type_partial_charge
C0 C 0.29733 0.4325 0.05131 0.0
C1 C 0.33536 0.49419 0.05788 0.0
C2 C 0.30201 0.46538 0.05592 0.0
C3 C 0.36398 0.48951 0.05494 0.0
C4 C 0.32598 0.42768 0.04865 0.0
C5 C 0.35931 0.45636 0.05031 0.0
N6 N 0.26479 0.40527 0.04956 0.0
C7 C 0.25899 0.37248 0.04691 0.0
C8 C 0.32024 0.39415 0.04448 0.0
C9 C 0.28659 0.36642 0.04385 0.0
Gd10 Gd 0.16897 0.42084 0.93893 0.0
Gd11 Gd 0.22052 0.41839 0.05229 0.0
N12 N 0.2738 0.4692 0.05707 0.0
C13 C 0.33891 0.52685 0.06253 0.0
C14 C 0.27698 0.50074 0.06362 0.0
C15 C 0.3096 0.5301 0.0657 0.0
H16 H 0.25441 0.50331 0.06639 0.0
H17 H 0.31213 0.55521 0.06971 0.0
H18 H 0.16473 0.34782 0.89714 0.0
H19 H 0.23301 0.35099 0.04746 0.0
H20 H 0.12142 0.28718 0.8876 0.0
H21 H 0.36412 0.54966 0.06402 0.0
H22 H 0.38985 0.51136 0.05623 0.0
H23 H 0.1264 0.46053 0.97087 0.0
H24 H 0.34158 0.38937 0.04219 0.0
H25 H 0.28191 0.3404 0.0412 0.0
H26 H 0.01556 0.28197 0.92736 0.0
H27 H 0.38164 0.45317 0.04818 0.0
H28 H 0.01893 0.38588 0.97437 0.0
H29 H 0.06615 0.44575 0.98495 0.0
N30 N 0.1131 0.40941 0.9536 0.0
C31 C 0.08761 0.3764 0.94705 0.0
C32 C 0.10588 0.4343 0.96659 0.0
C33 C 0.04527 0.3922 0.9683 0.0
C34 C 0.07186 0.42603 0.97438 0.0
C35 C 0.05294 0.36691 0.95437 0.0
H36 H 0.00031 0.32498 0.95261 0.0
N37 N 0.13022 0.36178 0.9277 0.0
C38 C 0.09642 0.3519 0.93421 0.0
C39 C 0.07972 0.29384 0.91146 0.0
C40 C 0.07037 0.31756 0.9268 0.0
C41 C 0.13899 0.33933 0.90887 0.0
C42 C 0.11413 0.30493 0.90177 0.0
O43 O 0.2528 0.45043 0.99155 0.0
O44 O 0.22085 0.46801 0.94843 0.0
O45 O 0.17219 0.41409 0.86514 0.0
O46 O 0.15615 0.4492 0.88967 0.0
O47 O 0.19287 0.44883 0.05636 0.0
O48 O 0.18679 0.46785 0.9839 0.0
O49 O 0.14126 0.39987 1.00696 0.0
O50 O 0.16838 0.37278 0.03693 0.0
O51 O 0.20826 0.4308 0.11968 0.0
O52 O 0.22713 0.39508 0.1142 0.0
O53 O 0.20698 0.40172 0.93313 0.0
O54 O 0.19995 0.37431 1.00238 0.0
C55 C 0.25016 0.4706 0.96086 0.0
C56 C 0.18779 0.46955 0.02943 0.0
C57 C 0.18641 0.46236 0.81864 0.0
C58 C 0.20292 0.47616 0.73749 0.0
C59 C 0.23338 0.51865 0.79751 0.0
C60 C 0.21244 0.49537 0.83123 0.0
C61 C 0.22871 0.50923 0.751 0.0
C62 C 0.18178 0.45285 0.77182 0.0
C63 C 0.1643 0.43729 0.85385 0.0
C64 C 0.0358 0.30813 0.93358 0.0
C65 C 0.02711 0.33266 0.94759 0.0
H66 H 0.06046 0.26725 0.90535 0.0
C67 C 0.14087 0.37568 0.03273 0.0
C68 C 0.21074 0.37997 0.95947 0.0
C69 C 0.19044 0.38797 0.17721 0.0
C70 C 0.16874 0.38072 0.25641 0.0
C71 C 0.14182 0.33364 0.20132 0.0
C72 C 0.16542 0.35395 0.16749 0.0
C73 C 0.14338 0.34684 0.24543 0.0
C74 C 0.19207 0.40127 0.22168 0.0
C75 C 0.21532 0.40976 0.14163 0.0
H76 H 0.25336 0.54412 0.80747 0.0
H77 H 0.21649 0.50315 0.86707 0.0
H78 H 0.24514 0.52796 0.72558 0.0
H79 H 0.16205 0.42711 0.76229 0.0
H80 H 0.12254 0.30737 0.19356 0.0
H81 H 0.16443 0.34308 0.13387 0.0
H82 H 0.12527 0.33015 0.27128 0.0
H83 H 0.2115 0.42759 0.22914 0.0
C84 C 0.69735 0.12833 0.31199 0.0
C85 C 0.66206 0.15384 0.29448 0.0
C86 C 0.69457 0.15711 0.30175 0.0
C87 C 0.63242 0.12126 0.2973 0.0
C88 C 0.66766 0.0956 0.31483 0.0
C89 C 0.63521 0.09223 0.30745 0.0
N90 N 0.72907 0.13236 0.31919 0.0
C91 C 0.73309 0.10477 0.32813 0.0
C92 C 0.6715 0.06722 0.32501 0.0
C93 C 0.70436 0.07182 0.33153 0.0
Gd94 Gd 0.82111 0.24794 0.42729 0.0
Gd95 Gd 0.77525 0.18855 0.31325 0.0
N96 N 0.72367 0.18852 0.30077 0.0
C97 C 0.66031 0.18351 0.28509 0.0
C98 C 0.72225 0.21736 0.29026 0.0
C99 C 0.69054 0.21536 0.28286 0.0
H100 H 0.74544 0.24193 0.28766 0.0
H101 H 0.68942 0.23838 0.27532 0.0
H102 H 0.83409 0.18485 0.47015 0.0
H103 H 0.75851 0.10819 0.3325 0.0
H104 H 0.8826 0.17597 0.48656 0.0
H105 H 0.63579 0.18209 0.27942 0.0
H106 H 0.60719 0.11824 0.29187 0.0
H107 H 0.85525 0.33043 0.39858 0.0
H108 H 0.6493 0.04164 0.32763 0.0
H109 H 0.70759 0.05001 0.33908 0.0
H110 H 0.98204 0.28591 0.45815 0.0
H111 H 0.61209 0.06728 0.30955 0.0
H112 H 0.96482 0.37799 0.40848 0.0
H113 H 0.91296 0.38188 0.39089 0.0
N114 N 0.87449 0.298 0.41988 0.0
C115 C 0.90256 0.29529 0.43016 0.0
C116 C 0.87779 0.32852 0.40606 0.0
C117 C 0.9396 0.35538 0.41194 0.0
C118 C 0.91039 0.35767 0.40188 0.0
C119 C 0.93595 0.32394 0.42622 0.0
H120 H 0.99039 0.34193 0.43324 0.0
N121 N 0.86521 0.23603 0.44566 0.0
C122 C 0.8978 0.26339 0.44319 0.0
C123 C 0.92085 0.22768 0.46834 0.0
C124 C 0.92648 0.25977 0.45375 0.0
C125 C 0.85962 0.20538 0.4629 0.0
C126 C 0.88726 0.20052 0.47355 0.0
O127 O 0.74017 0.18658 0.3716 0.0
O128 O 0.7706 0.24044 0.40236 0.0
O129 O 0.80815 0.23563 0.4999 0.0
O130 O 0.82421 0.28673 0.47478 0.0
O131 O 0.80411 0.2464 0.30382 0.0
O132 O 0.80426 0.27287 0.37307 0.0
O133 O 0.85467 0.25393 0.36574 0.0
O134 O 0.8276 0.19945 0.33671 0.0
O135 O 0.78663 0.20632 0.24199 0.0
O136 O 0.77626 0.15526 0.25976 0.0
O137 O 0.78714 0.19007 0.43544 0.0
O138 O 0.79576 0.16818 0.36812 0.0
C139 C 0.74233 0.21075 0.39931 0.0
C140 C 0.80807 0.27313 0.32773 0.0
C141 C 0.83853 0.2816 0.55208 0.0
C142 C 0.84478 0.28332 0.63609 0.0
C143 C 0.89224 0.32358 0.58764 0.0
C144 C 0.87242 0.30907 0.54821 0.0
C145 C 0.87851 0.311 0.6313 0.0
C146 C 0.825 0.26851 0.59612 0.0
C147 C 0.81665 0.26699 0.51085 0.0
C148 C 0.95978 0.28828 0.45005 0.0
C149 C 0.96452 0.32024 0.43614 0.0
H150 H 0.9422 0.22386 0.47681 0.0
C151 C 0.85437 0.23051 0.33846 0.0
C152 C 0.78468 0.1643 0.41085 0.0
C153 C 0.75789 0.16268 0.18607 0.0
C154 C 0.74803 0.16328 0.10306 0.0
C155 C 0.70327 0.12059 0.15257 0.0
C156 C 0.72467 0.13418 0.19083 0.0
C157 C 0.71485 0.13487 0.10897 0.0
C158 C 0.76936 0.1774 0.14204 0.0
C159 C 0.7809 0.17668 0.2265 0.0
H160 H 0.91831 0.34478 0.58438 0.0
H161 H 0.88355 0.31956 0.51482 0.0
H162 H 0.89444 0.32268 0.66138 0.0
H163 H 0.7989 0.2473 0.59925 0.0
H164 H 0.6777 0.09866 0.15668 0.0
H165 H 0.71526 0.12209 0.22396 0.0
H166 H 0.69776 0.12375 0.07976 0.0
H167 H 0.79509 0.19918 0.13796 0.0
C168 C 0.5693 0.86151 0.71427 0.0
C169 C 0.50892 0.83647 0.73441 0.0
C170 C 0.53776 0.83285 0.72497 0.0
C171 C 0.512 0.86912 0.73168 0.0
C172 C 0.57251 0.89433 0.71174 0.0
C173 C 0.54363 0.89792 0.72009 0.0
N174 N 0.59688 0.85733 0.70678 0.0
C175 C 0.62864 0.88493 0.69852 0.0
C176 C 0.60473 0.92261 0.70121 0.0
C177 C 0.63296 0.91791 0.69486 0.0
Gd178 Gd 0.5807 0.74451 0.59733 0.0
Gd179 Gd 0.58631 0.80087 0.71183 0.0
N180 N 0.53512 0.8013 0.72515 0.0
C181 C 0.47773 0.80704 0.74564 0.0
C182 C 0.50509 0.77267 0.73718 0.0
C183 C 0.47586 0.77504 0.74713 0.0
H184 H 0.50364 0.74803 0.73935 0.0
H185 H 0.45193 0.75222 0.75614 0.0
H186 H 0.64865 0.81353 0.54575 0.0
H187 H 0.6507 0.88151 0.69518 0.0
H188 H 0.70943 0.83389 0.53038 0.0
H189 H 0.45498 0.80874 0.75314 0.0
H190 H 0.49004 0.87235 0.73833 0.0
H191 H 0.54711 0.66385 0.6337 0.0
H192 H 0.60821 0.94823 0.69865 0.0
H193 H 0.65809 0.9397 0.68757 0.0
H194 H 0.72445 0.73949 0.57447 0.0
H195 H 0.54557 0.92291 0.71808 0.0
H196 H 0.62632 0.6371 0.63068 0.0
H197 H 0.56601 0.62127 0.6466 0.0
N198 N 0.59634 0.70301 0.61133 0.0
C199 C 0.62948 0.71222 0.60179 0.0
C200 C 0.57347 0.6708 0.62679 0.0
C201 C 0.61816 0.65578 0.62497 0.0
C202 C 0.58408 0.64674 0.63404 0.0
C203 C 0.6413 0.6888 0.60856 0.0
H204 H 0.68498 0.68107 0.60301 0.0
N205 N 0.6394 0.76736 0.57927 0.0
C206 C 0.65171 0.74541 0.58596 0.0
C207 C 0.70742 0.78815 0.55689 0.0
C208 C 0.68618 0.75544 0.57548 0.0
C209 C 0.65927 0.79801 0.55727 0.0
C210 C 0.69371 0.80927 0.547 0.0
O211 O 0.55027 0.79875 0.65508 0.0
O212 O 0.53442 0.7497 0.61154 0.0
O213 O 0.58051 0.75002 0.52184 0.0
O214 O 0.54846 0.70025 0.55492 0.0
O215 O 0.5565 0.74291 0.71841 0.0
O216 O 0.53597 0.7166 0.64677 0.0
O217 O 0.60398 0.73936 0.66404 0.0
O218 O 0.63093 0.79453 0.69004 0.0
O219 O 0.58192 0.77889 0.78035 0.0
O220 O 0.61197 0.83395 0.77019 0.0
O221 O 0.59815 0.8011 0.58949 0.0
O222 O 0.62742 0.82295 0.65721 0.0
C223 C 0.53207 0.7768 0.62231 0.0
C224 C 0.53515 0.71684 0.69238 0.0
C225 C 0.54389 0.70102 0.47154 0.0
C226 C 0.54219 0.70258 0.38718 0.0
C227 C 0.49969 0.65229 0.42898 0.0
C228 C 0.51492 0.66783 0.47071 0.0
C229 C 0.51304 0.66959 0.3875 0.0
C230 C 0.55778 0.71827 0.42937 0.0
C231 C 0.55797 0.71761 0.51666 0.0
C232 C 0.69808 0.73219 0.5824 0.0
C233 C 0.67566 0.69895 0.59869 0.0
H234 H 0.73401 0.79678 0.54833 0.0
C235 C 0.62801 0.76403 0.68891 0.0
C236 C 0.61967 0.82725 0.61502 0.0
C237 C 0.62706 0.81091 0.83366 0.0
C238 C 0.63992 0.80273 0.9134 0.0
C239 C 0.68601 0.83155 0.85688 0.0
C240 C 0.66223 0.82778 0.82321 0.0
C241 C 0.6751 0.81943 0.90163 0.0
C242 C 0.61599 0.79814 0.87857 0.0
C243 C 0.60175 0.80869 0.79943 0.0
H244 H 0.47727 0.62681 0.42882 0.0
H245 H 0.50361 0.65396 0.50243 0.0
H246 H 0.50076 0.65707 0.35545 0.0
H247 H 0.58007 0.74388 0.42932 0.0
H248 H 0.71315 0.84468 0.84855 0.0
H249 H 0.67136 0.83863 0.7893 0.0
H250 H 0.6945 0.82419 0.92722 0.0
H251 H 0.58873 0.78508 0.88631 0.0
C252 C 0.88088 0.58497 0.98179 0.0
C253 C 0.86512 0.52568 0.96693 0.0
C254 C 0.85601 0.5513 0.97209 0.0
C255 C 0.89954 0.53426 0.97295 0.0
C256 C 0.91558 0.59389 0.9867 0.0
C257 C 0.92469 0.56827 0.98288 0.0
N258 N 0.87128 0.60919 0.98491 0.0
C259 C 0.89521 0.64305 0.99012 0.0
C260 C 0.94013 0.6284 0.99452 0.0
C261 C 0.92993 0.65313 0.99574 0.0
Gd262 Gd 0.75241 0.57946 0.09203 0.0
Gd263 Gd 0.81234 0.58933 0.97847 0.0
N264 N 0.82279 0.54362 0.96768 0.0
C265 C 0.83936 0.49231 0.95544 0.0
C266 C 0.7979 0.51169 0.95383 0.0
C267 C 0.8057 0.4854 0.94831 0.0
H268 H 0.77191 0.50641 0.94834 0.0
H269 H 0.78579 0.45985 0.93857 0.0
H270 H 0.81867 0.6518 0.13949 0.0
H271 H 0.88741 0.66224 0.99006 0.0
H272 H 0.83387 0.71162 0.15241 0.0
H273 H 0.8453 0.47187 0.95123 0.0
H274 H 0.90703 0.51489 0.96948 0.0
H275 H 0.67245 0.53961 0.05143 0.0
H276 H 0.96705 0.63631 0.99867 0.0
H277 H 0.9488 0.67996 1.00081 0.0
H278 H 0.7336 0.71548 0.10644 0.0
H279 H 0.9512 0.57458 0.98683 0.0
H280 H 0.63726 0.61243 0.04871 0.0
H281 H 0.62667 0.55356 0.03483 0.0
N282 N 0.70839 0.59031 0.073 0.0
C283 C 0.71477 0.62274 0.08144 0.0
C284 C 0.67721 0.56541 0.05709 0.0
C285 C 0.6574 0.60648 0.0558 0.0
C286 C 0.65131 0.5732 0.04786 0.0
C287 C 0.68933 0.63167 0.07294 0.0
H288 H 0.67693 0.6723 0.07648 0.0
N289 N 0.77118 0.63779 0.1061 0.0
C290 C 0.74709 0.64718 0.09788 0.0
C291 C 0.78614 0.70457 0.12545 0.0
C292 C 0.75411 0.68093 0.10705 0.0
C293 C 0.80136 0.66008 0.12737 0.0
C294 C 0.80966 0.69396 0.13619 0.0
O295 O 0.80761 0.54975 0.03102 0.0
O296 O 0.7677 0.5391 0.08991 0.0
O297 O 0.75402 0.58478 0.16741 0.0
O298 O 0.7085 0.54394 0.13332 0.0
O299 O 0.75492 0.5535 0.97313 0.0
O300 O 0.7281 0.53335 0.04493 0.0
O301 O 0.74667 0.59924 0.02245 0.0
O302 O 0.80211 0.63184 0.99853 0.0
O303 O 0.78753 0.58115 0.91154 0.0
O304 O 0.84245 0.61462 0.91722 0.0
O305 O 0.80903 0.59915 0.10216 0.0
O306 O 0.83033 0.62893 0.03481 0.0
C307 C 0.78952 0.53288 0.06753 0.0
C308 C 0.72964 0.53112 0.99962 0.0
C309 C 0.70565 0.54609 0.21713 0.0
C310 C 0.70498 0.54836 0.30168 0.0
C311 C 0.65359 0.50802 0.25972 0.0
C312 C 0.67103 0.51988 0.21798 0.0
C313 C 0.67032 0.52216 0.30122 0.0
C314 C 0.72275 0.56011 0.25935 0.0
C315 C 0.72313 0.55859 0.172 0.0
C316 C 0.7287 0.6898 0.09894 0.0
C317 C 0.69644 0.66525 0.08196 0.0
H318 H 0.79248 0.73072 0.13297 0.0
C319 C 0.77059 0.62629 1.00071 0.0
C320 C 0.83504 0.62082 0.07657 0.0
C321 C 0.81429 0.62505 0.85554 0.0
C322 C 0.80427 0.63639 0.77608 0.0
C323 C 0.81728 0.679 0.83622 0.0
C324 C 0.82005 0.65751 0.86862 0.0
C325 C 0.80922 0.66849 0.79035 0.0
C326 C 0.80681 0.6147 0.8091 0.0
C327 C 0.81596 0.60171 0.88983 0.0
H328 H 0.62692 0.48781 0.2599 0.0
H329 H 0.65723 0.50858 0.18627 0.0
H330 H 0.65616 0.51238 0.33317 0.0
H331 H 0.74943 0.58038 0.25931 0.0
H332 H 0.82156 0.70398 0.84661 0.0
H333 H 0.82685 0.66618 0.90382 0.0
H334 H 0.80745 0.68574 0.76582 0.0
H335 H 0.80253 0.58965 0.79884 0.0
C336 C 0.15027 0.6971 0.39569 0.0
C337 C 0.1858 0.67721 0.43189 0.0
C338 C 0.18138 0.70429 0.41533 0.0
C339 C 0.15952 0.643 0.42569 0.0
C340 C 0.12357 0.66284 0.39019 0.0
C341 C 0.12855 0.63583 0.40469 0.0
N342 N 0.14628 0.72377 0.38159 0.0
C343 C 0.11565 0.71812 0.36443 0.0
C344 C 0.09255 0.65681 0.3706 0.0
C345 C 0.08848 0.6846 0.35806 0.0
Gd346 Gd 0.24984 0.82453 0.27171 0.0
Gd347 Gd 0.19368 0.77905 0.39149 0.0
N348 N 0.20659 0.73772 0.42029 0.0
C349 C 0.21595 0.68535 0.45578 0.0
C350 C 0.23469 0.74564 0.44674 0.0
C351 C 0.24007 0.71971 0.46421 0.0
H352 H 0.25232 0.77174 0.45636 0.0
H353 H 0.26248 0.72625 0.48503 0.0
H354 H 0.18352 0.83133 0.22488 0.0
H355 H 0.11208 0.73953 0.35632 0.0
H356 H 0.17027 0.87664 0.20739 0.0
H357 H 0.22017 0.66532 0.46951 0.0
H358 H 0.16265 0.62191 0.43781 0.0
H359 H 0.33249 0.86441 0.30005 0.0
H360 H 0.07142 0.63085 0.36574 0.0
H361 H 0.06434 0.68023 0.34385 0.0
H362 H 0.27526 0.98118 0.23817 0.0
H363 H 0.10839 0.60933 0.40059 0.0
H364 H 0.37259 0.97302 0.28823 0.0
H365 H 0.38119 0.92404 0.30666 0.0
N366 N 0.29722 0.8799 0.27799 0.0
C367 C 0.29194 0.90633 0.26714 0.0
C368 C 0.32872 0.88576 0.2918 0.0
C369 C 0.35128 0.94698 0.28502 0.0
C370 C 0.35623 0.9194 0.29553 0.0
C371 C 0.31884 0.94067 0.27072 0.0
H372 H 0.33282 0.99408 0.26313 0.0
N373 N 0.23351 0.86537 0.2517 0.0
C374 C 0.2591 0.89888 0.25416 0.0
C375 C 0.22024 0.91765 0.22725 0.0
C376 C 0.25292 0.92588 0.24283 0.0
C377 C 0.20248 0.85738 0.23295 0.0
C378 C 0.19513 0.88326 0.22152 0.0
O379 O 0.18796 0.74383 0.33135 0.0
O380 O 0.24133 0.77402 0.29912 0.0
O381 O 0.23923 0.81139 0.19812 0.0
O382 O 0.29032 0.82879 0.22657 0.0
O383 O 0.25233 0.80875 0.39734 0.0
O384 O 0.2747 0.80703 0.32509 0.0
O385 O 0.25959 0.85843 0.33365 0.0
O386 O 0.20637 0.83162 0.36612 0.0
O387 O 0.2013 0.79338 0.46531 0.0
O388 O 0.15119 0.77391 0.43256 0.0
O389 O 0.19219 0.79059 0.26679 0.0
O390 O 0.17121 0.79766 0.33633 0.0
C391 C 0.21152 0.7459 0.3025 0.0
C392 C 0.27754 0.8116 0.37041 0.0
C393 C 0.28373 0.81529 0.14471 0.0
C394 C 0.27812 0.80733 0.0607 0.0
C395 C 0.32826 0.81255 0.10035 0.0
C396 C 0.31535 0.81605 0.14245 0.0
C397 C 0.30989 0.80823 0.05984 0.0
C398 C 0.26513 0.81102 0.10353 0.0
C399 C 0.27069 0.8186 0.19036 0.0
C400 C 0.27965 0.96016 0.24648 0.0
C401 C 0.31248 0.96753 0.26047 0.0
H402 H 0.21449 0.93763 0.21807 0.0
C403 C 0.23772 0.85781 0.36405 0.0
C404 C 0.16676 0.78728 0.2931 0.0
C405 C 0.15345 0.78802 0.51369 0.0
C406 C 0.15214 0.79261 0.59817 0.0
C407 C 0.10585 0.78968 0.55116 0.0
C408 C 0.12207 0.78773 0.51126 0.0
C409 C 0.12058 0.79194 0.59417 0.0
C410 C 0.16856 0.79057 0.55742 0.0
C411 C 0.16914 0.7848 0.47018 0.0
H412 H 0.35269 0.81325 0.09908 0.0
H413 H 0.33016 0.81918 0.17338 0.0
H414 H 0.32086 0.80606 0.02757 0.0
H415 H 0.24064 0.81026 0.1048 0.0
H416 H 0.08157 0.78921 0.54874 0.0
H417 H 0.10987 0.7859 0.47835 0.0
H418 H 0.10687 0.79271 0.62451 0.0
H419 H 0.19286 0.79102 0.55968 0.0
C420 C 0.45123 0.30015 0.64001 0.0
C421 C 0.50758 0.31967 0.60657 0.0
C422 C 0.4759 0.29283 0.62313 0.0
C423 C 0.51451 0.3538 0.60871 0.0
C424 C 0.45797 0.33434 0.64182 0.0
C425 C 0.4898 0.36111 0.62631 0.0
N426 N 0.42098 0.27385 0.65596 0.0
C427 C 0.3958 0.27963 0.67212 0.0
C428 C 0.43258 0.3406 0.65954 0.0
C429 C 0.40129 0.31308 0.67451 0.0
Gd430 Gd 0.42619 0.17618 0.77308 0.0
Gd431 Gd 0.41417 0.21879 0.65109 0.0
N432 N 0.46866 0.25951 0.62204 0.0
C433 C 0.53112 0.31138 0.58744 0.0
C434 C 0.49032 0.25123 0.59968 0.0
C435 C 0.52218 0.27698 0.58328 0.0
H436 H 0.48287 0.22493 0.59267 0.0
H437 H 0.53956 0.27025 0.56658 0.0
H438 H 0.35554 0.17295 0.82322 0.0
H439 H 0.37131 0.25834 0.68247 0.0
H440 H 0.29721 0.1293 0.84509 0.0
H441 H 0.55572 0.33124 0.57433 0.0
H442 H 0.5388 0.37472 0.59638 0.0
H443 H 0.46615 0.13359 0.74397 0.0
H444 H 0.43679 0.36651 0.66153 0.0
H445 H 0.38132 0.31761 0.68767 0.0
H446 H 0.2937 0.02235 0.81822 0.0
H447 H 0.4955 0.38756 0.62758 0.0
H448 H 0.39609 0.0259 0.76306 0.0
H449 H 0.45351 0.07326 0.74013 0.0
N450 N 0.41652 0.12008 0.769 0.0
C451 C 0.38494 0.09457 0.78237 0.0
C452 C 0.44112 0.11295 0.75424 0.0
C453 C 0.40158 0.05225 0.7651 0.0
C454 C 0.43403 0.07892 0.75205 0.0
C455 C 0.37653 0.05987 0.78039 0.0
H456 H 0.3364 0.00712 0.79166 0.0
N457 N 0.36942 0.1371 0.79712 0.0
C458 C 0.36061 0.1033 0.79626 0.0
C459 C 0.30424 0.08684 0.82645 0.0
C460 C 0.32756 0.07727 0.81008 0.0
C461 C 0.34757 0.14648 0.81653 0.0
C462 C 0.31452 0.1216 0.83043 0.0
O463 O 0.44577 0.25647 0.708 0.0
O464 O 0.4672 0.22542 0.74162 0.0
O465 O 0.43106 0.19111 0.84635 0.0
O466 O 0.46368 0.17287 0.81634 0.0
O467 O 0.44072 0.18688 0.64663 0.0
O468 O 0.46732 0.19144 0.71775 0.0
O469 O 0.39961 0.14044 0.71357 0.0
O470 O 0.37398 0.16773 0.68051 0.0
O471 O 0.4081 0.20312 0.57795 0.0
O472 O 0.3759 0.22151 0.6091 0.0
O473 O 0.40323 0.21102 0.77699 0.0
O474 O 0.37436 0.20294 0.70787 0.0
C475 C 0.46596 0.25375 0.73835 0.0
C476 C 0.46394 0.18514 0.67279 0.0
C477 C 0.47363 0.18854 0.89723 0.0
C478 C 0.47803 0.19638 0.98127 0.0
C479 C 0.5244 0.19635 0.93767 0.0
C480 C 0.50617 0.19123 0.89683 0.0
C481 C 0.51052 0.19888 0.97952 0.0
C482 C 0.45954 0.19107 0.93971 0.0
C483 C 0.45549 0.18398 0.85285 0.0
C484 C 0.31903 0.04264 0.80802 0.0
C485 C 0.34341 0.03396 0.79312 0.0
H486 H 0.27866 0.06765 0.83752 0.0
C487 C 0.3781 0.14092 0.68358 0.0
C488 C 0.38109 0.2143 0.75068 0.0
C489 C 0.36482 0.20573 0.52845 0.0
C490 C 0.36057 0.20145 0.44395 0.0
C491 C 0.3145 0.20042 0.48963 0.0
C492 C 0.3325 0.20347 0.53004 0.0
C493 C 0.3284 0.19962 0.44699 0.0
C494 C 0.37878 0.20453 0.4852 0.0
C495 C 0.38374 0.21051 0.57218 0.0
H496 H 0.54944 0.19837 0.93689 0.0
H497 H 0.51776 0.18967 0.86478 0.0
H498 H 0.52515 0.20238 0.01074 0.0
H499 H 0.43457 0.18929 0.94037 0.0
H500 H 0.28972 0.19896 0.49134 0.0
H501 H 0.32109 0.20422 0.56267 0.0
H502 H 0.31402 0.19806 0.41625 0.0
H503 H 0.40361 0.20605 0.48373 0.0
H504 H 0.4029 0.26188 0.81904 0.0
H505 H 0.37203 0.28797 0.85429 0.0
H506 H 0.28512 0.22757 0.76574 0.0
H507 H 0.31648 0.20206 0.72935 0.0
H508 H 0.29552 0.28997 0.77095 0.0
H509 H 0.28656 0.20702 0.88109 0.0
H510 H 0.30811 0.1778 0.9316 0.0
H511 H 0.36686 0.27088 0.00877 0.0
H512 H 0.3462 0.30088 0.95813 0.0
H513 H 0.19652 0.31442 0.97726 0.0
H514 H 0.22335 0.28399 0.94184 0.0
H515 H 0.29029 0.37478 0.86278 0.0
H516 H 0.26281 0.40474 0.89707 0.0
H517 H 0.28466 0.29193 0.94118 0.0
H518 H 0.30856 0.35319 0.75846 0.0
H519 H 0.28336 0.37817 0.70653 0.0
H520 H 0.18559 0.31959 0.7739 0.0
H521 H 0.20994 0.29355 0.82542 0.0
C522 C 0.37714 0.25405 0.80722 0.0
C523 C 0.36197 0.22979 0.77166 0.0
C524 C 0.35947 0.26893 0.82747 0.0
C525 C 0.32596 0.25933 0.8133 0.0
C526 C 0.3109 0.23534 0.77737 0.0
C527 C 0.32877 0.22072 0.75668 0.0
C528 C 0.30682 0.27451 0.83588 0.0
C529 C 0.29309 0.29033 0.80816 0.0
C530 C 0.30302 0.27443 0.88445 0.0
C531 C 0.31501 0.25629 0.91555 0.0
C532 C 0.30423 0.22133 0.90866 0.0
C533 C 0.3163 0.20462 0.93731 0.0
C534 C 0.33889 0.22249 0.97332 0.0
C535 C 0.34939 0.25709 0.98082 0.0
C536 C 0.33749 0.27395 0.95216 0.0
C537 C 0.21703 0.32779 0.9524 0.0
C538 C 0.22752 0.36178 0.93967 0.0
C539 C 0.23238 0.31045 0.93221 0.0
C540 C 0.25852 0.32686 0.89904 0.0
C541 C 0.26964 0.36123 0.8874 0.0
C542 C 0.25399 0.37837 0.90707 0.0
C543 C 0.27392 0.30797 0.87627 0.0
C544 C 0.28697 0.29147 0.90396 0.0
C545 C 0.27638 0.30672 0.8276 0.0
C546 C 0.26121 0.32167 0.79613 0.0
C547 C 0.28162 0.34545 0.76199 0.0
C548 C 0.26747 0.35976 0.73258 0.0
C549 C 0.23294 0.35058 0.73702 0.0
C550 C 0.21238 0.32679 0.7706 0.0
C551 C 0.22633 0.31219 0.79988 0.0
H552 H 0.2221 0.36186 0.71439 0.0
H553 H 0.34823 0.20952 0.99546 0.0
H554 H 0.12325 0.31435 0.0748 0.0
H555 H 0.07437 0.28102 0.12683 0.0
H556 H 0.0383 0.35233 0.10268 0.0
H557 H 0.08789 0.38677 0.05314 0.0
H558 H 0.05877 0.31441 0.21021 0.0
H559 H 0.94802 0.29353 0.08965 0.0
H560 H 0.93018 0.28021 0.00826 0.0
H561 H 0.99173 0.23221 0.99334 0.0
H562 H 0.00989 0.2452 0.07459 0.0
H563 H 0.91236 0.29333 0.33003 0.0
H564 H 0.96134 0.30956 0.27933 0.0
H565 H 0.91477 0.20542 0.22911 0.0
H566 H 0.8652 0.18888 0.2798 0.0
H567 H 0.93703 0.25017 0.15952 0.0
H568 H 0.98625 0.23877 0.30093 0.0
H569 H 0.00069 0.249 0.38369 0.0
H570 H 0.06041 0.35756 0.3587 0.0
H571 H 0.04649 0.34804 0.27581 0.0
C572 C 0.1051 0.32311 0.08103 0.0
C573 C 0.10987 0.3536 0.06066 0.0
C574 C 0.0771 0.30391 0.11039 0.0
C575 C 0.05291 0.31436 0.11861 0.0
C576 C 0.05673 0.34387 0.09667 0.0
C577 C 0.08504 0.36343 0.06821 0.0
C578 C 0.02454 0.29576 0.15197 0.0
C579 C 0.03213 0.30004 0.19927 0.0
C580 C 0.98993 0.27697 0.13752 0.0
C581 C 0.98049 0.27057 0.08808 0.0
C582 C 0.95783 0.28024 0.06893 0.0
C583 C 0.94765 0.27273 0.02286 0.0
C584 C 0.95973 0.25528 0.99572 0.0
C585 C 0.98236 0.24569 0.01443 0.0
C586 C 0.99279 0.25333 0.0604 0.0
C587 C 0.91264 0.27365 0.30883 0.0
C588 C 0.88489 0.2397 0.30931 0.0
C589 C 0.94081 0.28301 0.27986 0.0
C590 C 0.94202 0.25862 0.25087 0.0
C591 C 0.91447 0.22462 0.2514 0.0
C592 C 0.88619 0.21521 0.28044 0.0
C593 C 0.97105 0.26927 0.21802 0.0
C594 C 0.96362 0.2639 0.17072 0.0
C595 C 0.00581 0.28699 0.23256 0.0
C596 C 0.01522 0.29267 0.28215 0.0
C597 C 0.0025 0.26482 0.31308 0.0
C598 C 0.01068 0.27049 0.35999 0.0
C599 C 0.0316 0.3039 0.37634 0.0
C600 C 0.04444 0.33169 0.34588 0.0
C601 C 0.03652 0.32616 0.29891 0.0
H602 H 0.03775 0.30831 0.41265 0.0
H603 H 0.95162 0.24929 0.96015 0.0
H604 H 0.71775 0.12613 0.43481 0.0
H605 H 0.68842 0.06818 0.46746 0.0
H606 H 0.78487 0.06854 0.46978 0.0
H607 H 0.81315 0.12505 0.4324 0.0
H608 H 0.74229 0.01022 0.44978 0.0
H609 H 0.73988 0.08064 0.57269 0.0
H610 H 0.72809 0.12197 0.61311 0.0
H611 H 0.62038 0.05904 0.58404 0.0
H612 H 0.63155 0.01727 0.54353 0.0
H613 H 0.68692 0.87714 0.62112 0.0
H614 H 0.71437 0.93469 0.58608 0.0
H615 H 0.6168 0.91286 0.52923 0.0
H616 H 0.58945 0.85507 0.56338 0.0
H617 H 0.65859 0.9802 0.57782 0.0
H618 H 0.666 0.90757 0.45942 0.0
H619 H 0.6818 0.86506 0.43321 0.0
H620 H 0.78749 0.93494 0.46654 0.0
H621 H 0.7722 0.97762 0.49383 0.0
C622 C 0.7325 0.11363 0.44238 0.0
C623 C 0.76761 0.12985 0.43163 0.0
C624 C 0.71586 0.08064 0.46154 0.0
C625 C 0.73444 0.064 0.47271 0.0
C626 C 0.76974 0.08053 0.46174 0.0
C627 C 0.78602 0.11292 0.44068 0.0
C628 C 0.71713 0.02924 0.49485 0.0
C629 C 0.72443 0.0041 0.47822 0.0
C630 C 0.69326 0.02045 0.53171 0.0
C631 C 0.68661 0.04603 0.55473 0.0
C632 C 0.71373 0.07579 0.57458 0.0
C633 C 0.70714 0.09923 0.59762 0.0
C634 C 0.6735 0.09317 0.60104 0.0
C635 C 0.64641 0.06369 0.58135 0.0
C636 C 0.65284 0.04009 0.55847 0.0
C637 C 0.67145 0.88476 0.60116 0.0
C638 C 0.63622 0.8619 0.59469 0.0
C639 C 0.68707 0.91748 0.58122 0.0
C640 C 0.66756 0.92786 0.55505 0.0
C641 C 0.63221 0.90523 0.54931 0.0
C642 C 0.61673 0.87229 0.56851 0.0
C643 C 0.68421 0.96212 0.53286 0.0
C644 C 0.67661 0.98683 0.54942 0.0
C645 C 0.70854 0.97084 0.49705 0.0
C646 C 0.7179 0.94568 0.47901 0.0
C647 C 0.69258 0.9138 0.46141 0.0
C648 C 0.70144 0.88967 0.44636 0.0
C649 C 0.73562 0.89727 0.4483 0.0
C650 C 0.76102 0.92908 0.46509 0.0
C651 C 0.75228 0.95326 0.48033 0.0
H652 H 0.74242 0.87852 0.43672 0.0
H653 H 0.66838 0.11119 0.61916 0.0
H654 H 0.68629 0.80921 0.73555 0.0
H655 H 0.71884 0.79537 0.79114 0.0
H656 H 0.65234 0.68742 0.76409 0.0
H657 H 0.61867 0.70084 0.71086 0.0
H658 H 0.68759 0.74784 0.87323 0.0
H659 H 0.70357 0.65665 0.75373 0.0
H660 H 0.71383 0.65122 0.6713 0.0
H661 H 0.77254 0.76108 0.65862 0.0
H662 H 0.76166 0.76713 0.74069 0.0
H663 H 0.70644 0.61027 0.97207 0.0
H664 H 0.69062 0.64462 0.92347 0.0
H665 H 0.79663 0.72522 0.91779 0.0
H666 H 0.81256 0.69165 0.96865 0.0
H667 H 0.75223 0.68979 0.82588 0.0
H668 H 0.76396 0.75877 0.96158 0.0
H669 H 0.75449 0.76838 0.04282 0.0
H670 H 0.6453 0.70725 0.02361 0.0
H671 H 0.65418 0.69784 0.94204 0.0
C672 C 0.67832 0.78254 0.74206 0.0
C673 C 0.64948 0.75614 0.71956 0.0
C674 C 0.6971 0.77472 0.77343 0.0
C675 C 0.68787 0.74041 0.78166 0.0
C676 C 0.65987 0.71408 0.75805 0.0
C677 C 0.64074 0.72183 0.72748 0.0
C678 C 0.70655 0.73153 0.81591 0.0
C679 C 0.70213 0.73558 0.86293 0.0
C680 C 0.72563 0.71578 0.80244 0.0
C681 C 0.73204 0.71229 0.75323 0.0
C682 C 0.71877 0.6796 0.73334 0.0
C683 C 0.72464 0.67644 0.6867 0.0
C684 C 0.74445 0.70576 0.65999 0.0
C685 C 0.75756 0.73838 0.6795 0.0
C686 C 0.75129 0.7417 0.72594 0.0
C687 C 0.72635 0.63557 0.96133 0.0
C688 C 0.76087 0.64805 0.97363 0.0
C689 C 0.71725 0.65511 0.93345 0.0
C690 C 0.74251 0.68728 0.91696 0.0
C691 C 0.77684 0.70034 0.93016 0.0
C692 C 0.78589 0.68105 0.95885 0.0
C693 C 0.73297 0.70576 0.88327 0.0
C694 C 0.73852 0.70288 0.83626 0.0
C695 C 0.71522 0.72288 0.89679 0.0
C696 C 0.70974 0.72752 0.94595 0.0
C697 C 0.73796 0.74729 0.97481 0.0
C698 C 0.73269 0.75294 0.02076 0.0
C699 C 0.69932 0.73869 0.03824 0.0
C700 C 0.67114 0.71851 0.00991 0.0
C701 C 0.67626 0.71318 0.96378 0.0
H702 H 0.69529 0.74302 0.07387 0.0
H703 H 0.74929 0.70321 0.62402 0.0
H704 H 0.1416 0.73944 0.22526 0.0
H705 H 0.08474 0.71276 0.18995 0.0
H706 H 0.05706 0.77263 0.27804 0.0
H707 H 0.11399 0.79894 0.31438 0.0
H708 H 0.00512 0.70835 0.27176 0.0
H709 H 0.08077 0.79473 0.16543 0.0
H710 H 0.13244 0.82522 0.11659 0.0
H711 H 0.09959 0.73418 0.03531 0.0
H712 H 0.04811 0.70284 0.08438 0.0
H713 H 0.88388 0.68834 0.06665 0.0
H714 H 0.94022 0.71876 0.10437 0.0
H715 H 0.91916 0.62477 0.17268 0.0
H716 H 0.86276 0.59451 0.13541 0.0
H717 H 0.99513 0.71099 0.10145 0.0
H718 H 0.95532 0.64345 0.27963 0.0
H719 H 0.90332 0.61436 0.32827 0.0
H720 H 0.86381 0.67417 0.26574 0.0
H721 H 0.91584 0.7041 0.21736 0.0
C722 C 0.12345 0.74707 0.23695 0.0
C723 C 0.13223 0.7715 0.27223 0.0
C724 C 0.09096 0.73177 0.21678 0.0
C725 C 0.06681 0.7411 0.23081 0.0
C726 C 0.07533 0.76512 0.2666 0.0
C727 C 0.10782 0.78022 0.28719 0.0
C728 C 0.03288 0.72603 0.20762 0.0
C729 C 0.00292 0.70901 0.23455 0.0
C730 C 0.03002 0.72733 0.15906 0.0
C731 C 0.06066 0.74634 0.12887 0.0
C732 C 0.08465 0.78112 0.13734 0.0
C733 C 0.11394 0.79856 0.10962 0.0
C734 C 0.11934 0.78162 0.07293 0.0
C735 C 0.09539 0.74725 0.06378 0.0
C736 C 0.06616 0.72963 0.09156 0.0
C737 C 0.8915 0.67424 0.08947 0.0
C738 C 0.86926 0.63916 0.09806 0.0
C739 C 0.92358 0.69158 0.11101 0.0
C740 C 0.93376 0.67413 0.1417 0.0
C741 C 0.91163 0.6389 0.14975 0.0
C742 C 0.8795 0.62164 0.12845 0.0
C743 C 0.96742 0.69282 0.16551 0.0
C744 C 0.99733 0.71048 0.13868 0.0
C745 C 0.97019 0.6926 0.21418 0.0
C746 C 0.93938 0.67576 0.24449 0.0
C747 C 0.93568 0.6506 0.27651 0.0
C748 C 0.90617 0.63394 0.304 0.0
C749 C 0.88018 0.64223 0.29983 0.0
C750 C 0.88386 0.66758 0.26867 0.0
C751 C 0.91337 0.68443 0.24123 0.0
H752 H 0.85724 0.6291 0.32089 0.0
H753 H 0.14204 0.79514 0.05154 0.0
H754 H 0.38333 0.08319 0.68061 0.0
H755 H 0.357 0.03584 0.62652 0.0
H756 H 0.30708 0.08439 0.55805 0.0
H757 H 0.33381 0.13256 0.61258 0.0
H758 H 0.2949 0.98965 0.60848 0.0
H759 H 0.30471 0.06309 0.43547 0.0
H760 H 0.34287 0.11854 0.39846 0.0
H761 H 0.42339 0.13697 0.49378 0.0
H762 H 0.38652 0.08045 0.52938 0.0
H763 H 0.20081 0.86748 0.43251 0.0
H764 H 0.22193 0.91558 0.48703 0.0
H765 H 0.32256 0.96112 0.4245 0.0
H766 H 0.3018 0.91381 0.37026 0.0
H767 H 0.30863 0.00883 0.43951 0.0
H768 H 0.3038 0.91758 0.52397 0.0
H769 H 0.28171 0.86096 0.56074 0.0
H770 H 0.21446 0.87983 0.64563 0.0
H771 H 0.23484 0.9357 0.60791 0.0
C772 C 0.3665 0.08383 0.65449 0.0
C773 C 0.36054 0.11166 0.65123 0.0
C774 C 0.35138 0.05658 0.62349 0.0
C775 C 0.33006 0.05647 0.58814 0.0
C776 C 0.32365 0.08402 0.5849 0.0
C777 C 0.33882 0.11145 0.61616 0.0
C778 C 0.3153 0.02767 0.55449 0.0
C779 C 0.2975 0.99386 0.57147 0.0
C780 C 0.32009 0.03313 0.50628 0.0
C781 C 0.34238 0.06774 0.48595 0.0
C782 C 0.33053 0.07895 0.44864 0.0
C783 C 0.35206 0.11061 0.42772 0.0
C784 C 0.38543 0.13162 0.44411 0.0
C785 C 0.39747 0.12081 0.48122 0.0
C786 C 0.37626 0.08884 0.50171 0.0
C787 C 0.22736 0.88788 0.43026 0.0
C788 C 0.24951 0.88689 0.39672 0.0
C789 C 0.23944 0.91528 0.46154 0.0
C790 C 0.27389 0.94199 0.45994 0.0
C791 C 0.29584 0.94105 0.42624 0.0
C792 C 0.28385 0.91383 0.39515 0.0
C793 C 0.28752 0.97087 0.49347 0.0
C794 C 0.30527 0.00468 0.47648 0.0
C795 C 0.28446 0.9654 0.54175 0.0
C796 C 0.27042 0.93067 0.56241 0.0
C797 C 0.28364 0.90929 0.54964 0.0
C798 C 0.27141 0.87727 0.57069 0.0
C799 C 0.24641 0.86657 0.60519 0.0
C800 C 0.23337 0.88775 0.61841 0.0
C801 C 0.24519 0.9196 0.5971 0.0
H802 H 0.23759 0.84212 0.62212 0.0
H803 H 0.40206 0.15607 0.42771 0.0
H804 H 0.25277 0.49063 0.67248 0.0
H805 H 0.24519 0.47596 0.59053 0.0
H806 H 0.13509 0.42398 0.6078 0.0
H807 H 0.14248 0.43885 0.68985 0.0
H808 H 0.15307 0.38664 0.55519 0.0
H809 H 0.17771 0.50275 0.55707 0.0
H810 H 0.20946 0.56446 0.57622 0.0
H811 H 0.29804 0.57599 0.50361 0.0
H812 H 0.26697 0.51419 0.48458 0.0
H813 H 0.11649 0.37068 0.31487 0.0
H814 H 0.12071 0.38795 0.39577 0.0
H815 H 0.23124 0.43802 0.38754 0.0
H816 H 0.22718 0.4205 0.30683 0.0
H817 H 0.21054 0.47665 0.43528 0.0
H818 H 0.1839 0.35842 0.435 0.0
H819 H 0.14971 0.29707 0.41448 0.0
H820 H 0.06187 0.28997 0.48395 0.0
H821 H 0.09532 0.35151 0.50397 0.0
C822 C 0.22692 0.47636 0.65881 0.0
C823 C 0.19823 0.46618 0.68779 0.0
C824 C 0.22262 0.46793 0.61189 0.0
C825 C 0.18956 0.44927 0.59272 0.0
C826 C 0.16086 0.43844 0.62171 0.0
C827 C 0.16513 0.44686 0.6687 0.0
C828 C 0.18503 0.44092 0.54254 0.0
C829 C 0.16524 0.4064 0.52898 0.0
C830 C 0.20123 0.46659 0.50819 0.0
C831 C 0.22012 0.50374 0.51981 0.0
C832 C 0.20407 0.51836 0.54555 0.0
C833 C 0.22193 0.55338 0.55631 0.0
C834 C 0.25578 0.57412 0.54125 0.0
C835 C 0.27183 0.55988 0.51532 0.0
C836 C 0.2541 0.52486 0.50451 0.0
C837 C 0.14168 0.38527 0.33033 0.0
C838 C 0.17144 0.39386 0.30441 0.0
C839 C 0.14406 0.39521 0.37655 0.0
C840 C 0.17627 0.41385 0.398 0.0
C841 C 0.20609 0.42361 0.37178 0.0
C842 C 0.20372 0.41367 0.32553 0.0
C843 C 0.17892 0.42239 0.44804 0.0
C844 C 0.19833 0.45694 0.46154 0.0
C845 C 0.16209 0.39677 0.48229 0.0
C846 C 0.14203 0.35968 0.47058 0.0
C847 C 0.15721 0.34386 0.44556 0.0
C848 C 0.13796 0.30905 0.43401 0.0
C849 C 0.1036 0.28967 0.44774 0.0
C850 C 0.08847 0.30504 0.47323 0.0
C851 C 0.10754 0.3399 0.48464 0.0
H852 H 0.08873 0.26273 0.43876 0.0
H853 H 0.26955 0.60123 0.54957 0.0
H854 H 0.744 0.12744 0.02531 0.0
H855 H 0.76054 0.14933 0.94664 0.0
H856 H 0.79524 0.25232 0.99502 0.0
H857 H 0.77897 0.23042 0.07432 0.0
H858 H 0.75206 0.23298 0.91475 0.0
H859 H 0.85192 0.23224 0.9694 0.0
H860 H 0.88356 0.20676 1.00567 0.0
H861 H 0.85274 0.13278 0.89633 0.0
H862 H 0.8196 0.15682 0.86035 0.0
H863 H 0.84578 0.32046 0.71112 0.0
H864 H 0.82716 0.29983 0.78999 0.0
H865 H 0.79413 0.19619 0.74615 0.0
H866 H 0.81242 0.21673 0.66686 0.0
H867 H 0.83709 0.21698 0.82471 0.0
H868 H 0.734 0.21286 0.77386 0.0
H869 H 0.69735 0.23344 0.73963 0.0
H870 H 0.73327 0.31441 0.8399 0.0
H871 H 0.77008 0.29421 0.87494 0.0
C872 C 0.75524 0.15477 0.01922 0.0
C873 C 0.76011 0.17724 0.05592 0.0
C874 C 0.76476 0.16725 0.97428 0.0
C875 C 0.77915 0.20245 0.96494 0.0
C876 C 0.78414 0.22505 1.00148 0.0
C877 C 0.77507 0.21259 0.04672 0.0
C878 C 0.7886 0.21528 0.91681 0.0
C879 C 0.7711 0.23006 0.89529 0.0
C880 C 0.81268 0.21047 0.89103 0.0
C881 C 0.83291 0.19614 0.91238 0.0
C882 C 0.85152 0.21029 0.95331 0.0
C883 C 0.86979 0.19613 0.9738 0.0
C884 C 0.87029 0.16827 0.95324 0.0
C885 C 0.85235 0.15438 0.91222 0.0
C886 C 0.83371 0.16819 0.89183 0.0
C887 C 0.83429 0.29323 0.71825 0.0
C888 C 0.8307 0.27021 0.68291 0.0
C889 C 0.82352 0.28147 0.76325 0.0
C890 C 0.80928 0.24648 0.77399 0.0
C891 C 0.80509 0.22331 0.73862 0.0
C892 C 0.81537 0.23501 0.69336 0.0
C893 C 0.80045 0.23457 0.82259 0.0
C894 C 0.81815 0.22003 0.84422 0.0
C895 C 0.77642 0.2394 0.84839 0.0
C896 C 0.75512 0.25228 0.82667 0.0
C897 C 0.73441 0.23531 0.78829 0.0
C898 C 0.71351 0.24683 0.76883 0.0
C899 C 0.71318 0.27538 0.78733 0.0
C900 C 0.73363 0.29237 0.82551 0.0
C901 C 0.75444 0.28083 0.84528 0.0
H902 H 0.69694 0.28423 0.77224 0.0
H903 H 0.88457 0.15745 0.96909 0.0
H904 H 0.5098 0.72203 0.32542 0.0
H905 H 0.52758 0.74223 0.24628 0.0
H906 H 0.62123 0.73926 0.26705 0.0
H907 H 0.604 0.7206 0.34715 0.0
H908 H 0.63516 0.79085 0.21458 0.0
H909 H 0.54783 0.67281 0.21172 0.0
H910 H 0.49155 0.62182 0.22851 0.0
H911 H 0.44067 0.66692 0.15557 0.0
H912 H 0.49665 0.71845 0.13895 0.0
H913 H 0.66843 0.77903 0.97748 0.0
H914 H 0.65294 0.76549 0.05859 0.0
H915 H 0.56976 0.78614 0.04167 0.0
H916 H 0.5859 0.80146 0.96099 0.0
H917 H 0.55086 0.72581 0.09124 0.0
H918 H 0.64235 0.84463 0.09434 0.0
H919 H 0.70041 0.89206 0.07527 0.0
H920 H 0.74531 0.83985 0.14544 0.0
H921 H 0.68748 0.79193 0.16448 0.0
C922 C 0.53449 0.72642 0.31324 0.0
C923 C 0.5556 0.71986 0.34219 0.0
C924 C 0.5445 0.73759 0.26788 0.0
C925 C 0.57535 0.74137 0.25001 0.0
C926 C 0.59723 0.73637 0.27975 0.0
C927 C 0.58748 0.72581 0.32553 0.0
C928 C 0.58408 0.74929 0.20007 0.0
C929 C 0.61677 0.77632 0.18773 0.0
C930 C 0.56015 0.73061 0.16461 0.0
C931 C 0.52642 0.69965 0.17452 0.0
C932 C 0.52462 0.67197 0.19957 0.0
C933 C 0.49278 0.64296 0.20902 0.0
C934 C 0.46255 0.64117 0.19323 0.0
C935 C 0.46411 0.66837 0.16786 0.0
C936 C 0.49589 0.69749 0.1584 0.0
C937 C 0.64702 0.78109 0.99083 0.0
C938 C 0.62867 0.79166 0.96219 0.0
C939 C 0.63809 0.77307 0.03727 0.0
C940 C 0.61039 0.77501 0.05629 0.0
C941 C 0.59126 0.78443 0.02773 0.0
C942 C 0.60043 0.79294 0.98134 0.0
C943 C 0.60166 0.76743 0.10608 0.0
C944 C 0.56905 0.74037 0.11828 0.0
C945 C 0.62586 0.78557 0.1413 0.0
C946 C 0.66061 0.81464 0.13061 0.0
C947 C 0.66461 0.84321 0.10552 0.0
C948 C 0.69747 0.87018 0.09474 0.0
C949 C 0.72653 0.86895 0.10909 0.0
C950 C 0.72278 0.84078 0.13436 0.0
C951 C 0.68998 0.81374 0.14523 0.0
H952 H 0.75195 0.88984 0.10066 0.0
H953 H 0.43792 0.61867 0.20055 0.0
H954 H 0.75646 0.63931 0.72182 0.0
H955 H 0.74461 0.62451 0.63993 0.0
H956 H 0.82211 0.59475 0.63705 0.0
H957 H 0.83424 0.60981 0.71921 0.0
H958 H 0.82519 0.63587 0.55994 0.0
H959 H 0.74219 0.53338 0.63734 0.0
H960 H 0.69676 0.4997 0.6943 0.0
H961 H 0.63196 0.53383 0.63314 0.0
H962 H 0.67721 0.5681 0.57617 0.0
H963 H 0.76553 0.55606 0.3359 0.0
H964 H 0.78733 0.57158 0.41515 0.0
H965 H 0.70345 0.58888 0.44827 0.0
H966 H 0.68138 0.57263 0.36993 0.0
H967 H 0.70705 0.55008 0.51097 0.0
H968 H 0.79027 0.65542 0.43713 0.0
H969 H 0.83589 0.69134 0.38151 0.0
H970 H 0.89998 0.65387 0.43553 0.0
H971 H 0.85457 0.61739 0.49118 0.0
C972 C 0.77106 0.62978 0.70364 0.0
C973 C 0.79629 0.62582 0.72686 0.0
C974 C 0.76418 0.62119 0.65699 0.0
C975 C 0.78239 0.60846 0.63236 0.0
C976 C 0.80777 0.60457 0.65532 0.0
C977 C 0.81446 0.61289 0.7023 0.0
C978 C 0.77422 0.59888 0.58286 0.0
C979 C 0.79953 0.61669 0.54913 0.0
C980 C 0.74061 0.57431 0.56872 0.0
C981 C 0.71319 0.55348 0.60267 0.0
C982 C 0.71834 0.53388 0.63622 0.0
C983 C 0.69261 0.51466 0.66848 0.0
C984 C 0.66151 0.51467 0.66739 0.0
C985 C 0.65606 0.53385 0.63395 0.0
C986 C 0.68173 0.55314 0.60162 0.0
C987 C 0.75222 0.56383 0.35997 0.0
C988 C 0.72164 0.56293 0.34686 0.0
C989 C 0.76465 0.57269 0.40529 0.0
C990 C 0.74701 0.58135 0.43803 0.0
C991 C 0.71739 0.58197 0.42404 0.0
C992 C 0.70483 0.5728 0.37916 0.0
C993 C 0.75773 0.58775 0.48753 0.0
C994 C 0.73284 0.56915 0.52147 0.0
C995 C 0.79167 0.61173 0.50166 0.0
C996 C 0.81888 0.63342 0.46802 0.0
C997 C 0.81398 0.65462 0.4369 0.0
C998 C 0.83983 0.67515 0.40546 0.0
C999 C 0.87082 0.67492 0.40505 0.0
C1000 C 0.87599 0.65406 0.43597 0.0
C1001 C 0.85021 0.63347 0.46748 0.0
H1002 H 0.89084 0.6909 0.38077 0.0
H1003 H 0.64162 0.49977 0.6924 0.0
H1004 H 0.15391 0.83284 0.67015 0.0
H1005 H 0.17451 0.83497 0.74847 0.0
H1006 H 0.20441 0.76051 0.71234 0.0
H1007 H 0.18359 0.75811 0.63324 0.0
H1008 H 0.16649 0.74518 0.79556 0.0
H1009 H 0.2655 0.84159 0.72709 0.0
H1010 H 0.29701 0.89608 0.68404 0.0
H1011 H 0.2648 0.9458 0.7824 0.0
H1012 H 0.23303 0.89156 0.82609 0.0
H1013 H 0.26708 0.76165 0.9917 0.0
H1014 H 0.24404 0.75935 0.91481 0.0
H1015 H 0.22398 0.84073 0.95157 0.0
H1016 H 0.24792 0.84367 0.02879 0.0
H1017 H 0.25568 0.85304 0.86854 0.0
H1018 H 0.1586 0.75899 0.93882 0.0
H1019 H 0.12758 0.70561 0.98422 0.0
H1020 H 0.15345 0.65194 0.88376 0.0
H1021 H 0.18525 0.70518 0.83816 0.0
C1022 C 0.16481 0.8168 0.67867 0.0
C1023 C 0.16701 0.79524 0.64516 0.0
C1024 C 0.17685 0.81829 0.72352 0.0
C1025 C 0.19116 0.79803 0.73638 0.0
C1026 C 0.19352 0.77645 0.70318 0.0
C1027 C 0.18184 0.77528 0.6579 0.0
C1028 C 0.20266 0.79887 0.78485 0.0
C1029 C 0.18637 0.76863 0.81132 0.0
C1030 C 0.22767 0.82978 0.80601 0.0
C1031 C 0.24659 0.86239 0.77964 0.0
C1032 C 0.2649 0.86406 0.73937 0.0
C1033 C 0.28289 0.89493 0.71493 0.0
C1034 C 0.28273 0.92432 0.73031 0.0
C1035 C 0.2648 0.92297 0.77043 0.0
C1036 C 0.24689 0.8922 0.79514 0.0
C1037 C 0.25756 0.77894 0.9836 0.0
C1038 C 0.25953 0.80299 0.01636 0.0
C1039 C 0.24419 0.77746 0.93961 0.0
C1040 C 0.23213 0.79979 0.92722 0.0
C1041 C 0.23317 0.82326 0.96023 0.0
C1042 C 0.24652 0.82469 1.00451 0.0
C1043 C 0.21975 0.79925 0.87925 0.0
C1044 C 0.23576 0.82957 0.85288 0.0
C1045 C 0.19422 0.76849 0.85833 0.0
C1046 C 0.17458 0.7362 0.88522 0.0
C1047 C 0.15789 0.73588 0.92653 0.0
C1048 C 0.14014 0.70563 0.95231 0.0
C1049 C 0.13859 0.67542 0.93692 0.0
C1050 C 0.1547 0.67537 0.89565 0.0
C1051 C 0.17258 0.70558 0.8698 0.0
H1052 H 0.12487 0.65204 0.95695 0.0
H1053 H 0.29658 0.94815 0.71123 0.0
H1054 H 0.32517 0.16167 0.36998 0.0
H1055 H 0.34645 0.16165 0.2927 0.0
H1056 H 0.44859 0.2385 0.33393 0.0
H1057 H 0.42738 0.23883 0.41206 0.0
H1058 H 0.42527 0.25287 0.24848 0.0
H1059 H 0.4353 0.1616 0.31913 0.0
H1060 H 0.41453 0.10841 0.3645 0.0
H1061 H 0.33411 0.05328 0.26588 0.0
H1062 H 0.35435 0.10621 0.21993 0.0
H1063 H 0.51198 0.24269 0.04999 0.0
H1064 H 0.49187 0.24344 0.12796 0.0
H1065 H 0.39242 0.15726 0.09452 0.0
H1066 H 0.41283 0.15587 0.01624 0.0
H1067 H 0.41481 0.14767 0.177 0.0
H1068 H 0.40339 0.2374 0.10652 0.0
H1069 H 0.42168 0.2903 0.0614 0.0
H1070 H 0.50138 0.3481 0.15983 0.0
H1071 H 0.48392 0.29542 0.20523 0.0
C1072 C 0.35218 0.17876 0.36282 0.0
C1073 C 0.3745 0.20035 0.39748 0.0
C1074 C 0.36435 0.17847 0.31857 0.0
C1075 C 0.3991 0.19999 0.3075 0.0
C1076 C 0.42164 0.22164 0.34178 0.0
C1077 C 0.40952 0.22161 0.38649 0.0
C1078 C 0.41134 0.20013 0.25971 0.0
C1079 C 0.42361 0.23008 0.23305 0.0
C1080 C 0.40801 0.17002 0.23917 0.0
C1081 C 0.39621 0.13795 0.26621 0.0
C1082 C 0.4131 0.13818 0.30718 0.0
C1083 C 0.40147 0.10805 0.33297 0.0
C1084 C 0.37295 0.07749 0.31816 0.0
C1085 C 0.35619 0.07696 0.27732 0.0
C1086 C 0.3678 0.10699 0.2513 0.0
C1087 C 0.48576 0.22392 0.05909 0.0
C1088 C 0.46406 0.19909 0.02687 0.0
C1089 C 0.47421 0.22453 0.1037 0.0
C1090 C 0.44055 0.20049 0.11727 0.0
C1091 C 0.41852 0.17606 0.08494 0.0
C1092 C 0.43008 0.17549 0.04006 0.0
C1093 C 0.42895 0.20054 0.16557 0.0
C1094 C 0.41667 0.17056 0.19235 0.0
C1095 C 0.43204 0.23059 0.18617 0.0
C1096 C 0.44254 0.26238 0.15907 0.0
C1097 C 0.425 0.26133 0.11837 0.0
C1098 C 0.43518 0.29129 0.09277 0.0
C1099 C 0.46272 0.32253 0.10768 0.0
C1100 C 0.48008 0.32388 0.1483 0.0
C1101 C 0.47003 0.29398 0.17401 0.0
H1102 H 0.47057 0.34569 0.08781 0.0
H1103 H 0.36388 0.05423 0.3383 0.0
H1104 H 0.20206 0.53282 0.99694 0.0
H1105 H 0.20035 0.57863 0.04123 0.0
H1106 H 0.15913 0.51064 0.15838 0.0
H1107 H 0.16154 0.46542 0.11506 0.0
H1108 H 0.15191 0.58802 0.08919 0.0
H1109 H 0.1986 0.5529 0.25377 0.0
H1110 H 0.22977 0.52294 0.27648 0.0
H1111 H 0.28485 0.55145 0.14805 0.0
H1112 H 0.25413 0.5817 0.1246 0.0
H1113 H 0.15027 0.68683 0.28553 0.0
H1114 H 0.14114 0.63831 0.23656 0.0
H1115 H 0.24987 0.68897 0.20763 0.0
H1116 H 0.25919 0.73721 0.25593 0.0
H1117 H 0.22252 0.62059 0.23167 0.0
H1118 H 0.19901 0.69087 0.12865 0.0
H1119 H 0.16909 0.72192 0.10528 0.0
H1120 H 0.07236 0.62754 0.10825 0.0
H1121 H 0.10168 0.59598 0.13219 0.0
C1122 C 0.19218 0.52759 0.0319 0.0
C1123 C 0.18257 0.49582 0.05285 0.0
C1124 C 0.19112 0.5537 0.05711 0.0
C1125 C 0.18022 0.54823 0.10339 0.0
C1126 C 0.16828 0.51566 0.12305 0.0
C1127 C 0.16976 0.48986 0.09824 0.0
C1128 C 0.18422 0.57714 0.13263 0.0
C1129 C 0.16727 0.59512 0.12037 0.0
C1130 C 0.20448 0.58658 0.17319 0.0
C1131 C 0.22387 0.56932 0.18734 0.0
C1132 C 0.21748 0.5529 0.23048 0.0
C1133 C 0.235 0.53579 0.2434 0.0
C1134 C 0.25916 0.53516 0.21359 0.0
C1135 C 0.26598 0.55178 0.17091 0.0
C1136 C 0.2485 0.56888 0.15777 0.0
C1137 C 0.1722 0.68746 0.26894 0.0
C1138 C 0.20544 0.71579 0.2747 0.0
C1139 C 0.16693 0.65987 0.24079 0.0
C1140 C 0.19485 0.66019 0.21836 0.0
C1141 C 0.22801 0.68823 0.22465 0.0
C1142 C 0.23324 0.71582 0.25226 0.0
C1143 C 0.19003 0.63134 0.18851 0.0
C1144 C 0.20692 0.61336 0.20067 0.0
C1145 C 0.17006 0.62226 0.14777 0.0
C1146 C 0.1525 0.64112 0.13264 0.0
C1147 C 0.17133 0.67677 0.12462 0.0
C1148 C 0.15449 0.69446 0.11121 0.0
C1149 C 0.11884 0.67671 0.10543 0.0
C1150 C 0.09998 0.64124 0.11281 0.0
C1151 C 0.11669 0.62344 0.12624 0.0
H1152 H 0.10583 0.69041 0.09515 0.0
H1153 H 0.27265 0.52185 0.22362 0.0
H1154 H 0.73756 0.25592 0.45745 0.0
H1155 H 0.68836 0.24659 0.50392 0.0
H1156 H 0.62875 0.14419 0.44866 0.0
H1157 H 0.67804 0.15321 0.40182 0.0
H1158 H 0.59374 0.18273 0.45188 0.0
H1159 H 0.66499 0.15676 0.55166 0.0
H1160 H 0.71962 0.17145 0.59004 0.0
H1161 H 0.71948 0.25576 0.65924 0.0
H1162 H 0.66551 0.24245 0.62022 0.0
H1163 H 0.4558 0.13935 0.60567 0.0
H1164 H 0.50113 0.13776 0.56046 0.0
H1165 H 0.5779 0.22456 0.6377 0.0
H1166 H 0.5327 0.22409 0.68511 0.0
H1167 H 0.60324 0.18866 0.62248 0.0
H1168 H 0.54655 0.22838 0.52254 0.0
H1169 H 0.49915 0.22868 0.48001 0.0
H1170 H 0.47896 0.1367 0.40862 0.0
H1171 H 0.5259 0.13558 0.45143 0.0
C1172 C 0.71399 0.23141 0.45487 0.0
C1173 C 0.71178 0.20531 0.42578 0.0
C1174 C 0.68592 0.22612 0.48163 0.0
C1175 C 0.65509 0.19458 0.48013 0.0
C1176 C 0.6524 0.1687 0.45037 0.0
C1177 C 0.68059 0.17392 0.42361 0.0
C1178 C 0.62587 0.1887 0.51011 0.0
C1179 C 0.59544 0.18338 0.48925 0.0
C1180 C 0.62891 0.19117 0.55874 0.0
C1181 C 0.66111 0.1986 0.58285 0.0
C1182 C 0.67665 0.17855 0.57485 0.0
C1183 C 0.7075 0.1866 0.59681 0.0
C1184 C 0.72272 0.21418 0.62754 0.0
C1185 C 0.70746 0.23416 0.63582 0.0
C1186 C 0.67678 0.22643 0.61371 0.0
C1187 C 0.48247 0.15756 0.61336 0.0
C1188 C 0.49096 0.18169 0.64887 0.0
C1189 C 0.50837 0.15699 0.58718 0.0
C1190 C 0.54313 0.18159 0.59468 0.0
C1191 C 0.55144 0.20517 0.63108 0.0
C1192 C 0.52563 0.20492 0.65829 0.0
C1193 C 0.57091 0.18333 0.56444 0.0
C1194 C 0.60112 0.18768 0.58517 0.0
C1195 C 0.56837 0.18177 0.51556 0.0
C1196 C 0.53947 0.1817 0.49062 0.0
C1197 C 0.53172 0.20802 0.49818 0.0
C1198 C 0.50502 0.20839 0.47393 0.0
C1199 C 0.48614 0.18278 0.44153 0.0
C1200 C 0.49368 0.15656 0.43366 0.0
C1201 C 0.52031 0.15603 0.45796 0.0
H1202 H 0.4657 0.18328 0.42246 0.0
H1203 H 0.74634 0.22008 0.64496 0.0
H1204 H 0.26276 0.53207 0.92528 0.0
H1205 H 0.31342 0.57341 0.8814 0.0
H1206 H 0.35956 0.51014 0.9011 0.0
H1207 H 0.30911 0.46879 0.94532 0.0
H1208 H 0.38821 0.60942 0.90618 0.0
H1209 H 0.38748 0.50663 0.78933 0.0
H1210 H 0.34627 0.44785 0.76282 0.0
H1211 H 0.2639 0.46995 0.77209 0.0
H1212 H 0.30468 0.52903 0.79776 0.0
H1213 H 0.53999 0.69174 0.77545 0.0
H1214 H 0.49334 0.64708 0.82128 0.0
H1215 H 0.42174 0.63062 0.71169 0.0
H1216 H 0.46886 0.67439 0.66479 0.0
H1217 H 0.40492 0.57117 0.75237 0.0
H1218 H 0.43497 0.68566 0.80633 0.0
H1219 H 0.47575 0.74364 0.8357 0.0
H1220 H 0.49776 0.69943 0.95278 0.0
H1221 H 0.4573 0.64119 0.92411 0.0
C1222 C 0.28379 0.52709 0.92044 0.0
C1223 C 0.28186 0.49705 0.93815 0.0
C1224 C 0.31278 0.55083 0.89577 0.0
C1225 C 0.34002 0.54464 0.88789 0.0
C1226 C 0.33868 0.51524 0.90679 0.0
C1227 C 0.30991 0.49173 0.93205 0.0
C1228 C 0.36885 0.56782 0.85743 0.0
C1229 C 0.39199 0.60115 0.8726 0.0
C1230 C 0.37344 0.55692 0.81357 0.0
C1231 C 0.34907 0.5221 0.79584 0.0
C1232 C 0.36062 0.49902 0.78532 0.0
C1233 C 0.33734 0.46567 0.77049 0.0
C1234 C 0.3025 0.45523 0.76586 0.0
C1235 C 0.29088 0.47814 0.77573 0.0
C1236 C 0.31405 0.51151 0.79043 0.0
C1237 C 0.51437 0.67818 0.76087 0.0
C1238 C 0.50788 0.68667 0.7168 0.0
C1239 C 0.4877 0.65279 0.78716 0.0
C1240 C 0.45383 0.63616 0.7705 0.0
C1241 C 0.44763 0.64326 0.7254 0.0
C1242 C 0.47452 0.66822 0.69861 0.0
C1243 C 0.42471 0.61306 0.80107 0.0
C1244 C 0.40137 0.57961 0.78596 0.0
C1245 C 0.41984 0.62398 0.84499 0.0
C1246 C 0.44325 0.65906 0.86292 0.0
C1247 C 0.44853 0.6883 0.83831 0.0
C1248 C 0.47162 0.7212 0.85478 0.0
C1249 C 0.48942 0.7252 0.89591 0.0
C1250 C 0.48398 0.69629 0.92089 0.0
C1251 C 0.46092 0.66334 0.90462 0.0
H1252 H 0.50737 0.75069 0.90848 0.0
H1253 H 0.28448 0.42943 0.7546 0.0
H1254 H 0.79502 0.32415 0.35414 0.0
H1255 H 0.79785 0.37019 0.30563 0.0
H1256 H 0.83729 0.33725 0.19288 0.0
H1257 H 0.83378 0.29085 0.24061 0.0
H1258 H 0.84723 0.42491 0.25791 0.0
H1259 H 0.80202 0.34492 0.09232 0.0
H1260 H 0.77164 0.28425 0.06771 0.0
H1261 H 0.71534 0.25492 0.19517 0.0
H1262 H 0.74502 0.3155 0.22037 0.0
H1263 H 0.8487 0.52967 0.07042 0.0
H1264 H 0.85719 0.48584 0.10917 0.0
H1265 H 0.74961 0.42991 0.14545 0.0
H1266 H 0.74104 0.47352 0.10706 0.0
H1267 H 0.77696 0.38759 0.11508 0.0
H1268 H 0.80163 0.48131 0.22152 0.0
H1269 H 0.83278 0.54288 0.24187 0.0
H1270 H 0.92897 0.54454 0.23153 0.0
H1271 H 0.89839 0.48307 0.2104 0.0
C1272 C 0.80467 0.327 0.3192 0.0
C1273 C 0.81361 0.30354 0.30096 0.0
C1274 C 0.80635 0.35334 0.29154 0.0
C1275 C 0.81716 0.35674 0.24535 0.0
C1276 C 0.82817 0.33467 0.22809 0.0
C1277 C 0.82613 0.30815 0.25546 0.0
C1278 C 0.81468 0.38178 0.21446 0.0
C1279 C 0.83199 0.41673 0.22661 0.0
C1280 C 0.79491 0.37119 0.1734 0.0
C1281 C 0.77603 0.33473 0.15838 0.0
C1282 C 0.78303 0.32554 0.11502 0.0
C1283 C 0.76598 0.29116 0.10102 0.0
C1284 C 0.74174 0.26571 0.13004 0.0
C1285 C 0.73429 0.27465 0.17294 0.0
C1286 C 0.75121 0.30901 0.18708 0.0
C1287 C 0.82679 0.50762 0.0858 0.0
C1288 C 0.79425 0.50494 0.08593 0.0
C1289 C 0.83169 0.48276 0.10808 0.0
C1290 C 0.80403 0.4548 0.13032 0.0
C1291 C 0.77123 0.45128 0.12844 0.0
C1292 C 0.76643 0.47629 0.10678 0.0
C1293 C 0.80939 0.43048 0.15866 0.0
C1294 C 0.79254 0.39572 0.1461 0.0
C1295 C 0.82954 0.4412 0.19923 0.0
C1296 C 0.84776 0.4777 0.214 0.0
C1297 C 0.82943 0.49484 0.22344 0.0
C1298 C 0.84698 0.52972 0.23509 0.0
C1299 C 0.88283 0.54762 0.23782 0.0
C1300 C 0.9012 0.53063 0.22931 0.0
C1301 C 0.88378 0.49578 0.21754 0.0
H1302 H 0.89639 0.57464 0.24655 0.0
H1303 H 0.72865 0.23909 0.11922 0.0
H1304 H 0.32801 0.80284 0.33105 0.0
H1305 H 0.37679 0.80382 0.36915 0.0
H1306 H 0.34757 0.83035 0.49787 0.0
H1307 H 0.29967 0.83135 0.45936 0.0
H1308 H 0.41631 0.86262 0.48953 0.0
H1309 H 0.32221 0.74416 0.46699 0.0
H1310 H 0.28117 0.6949 0.41946 0.0
H1311 H 0.36476 0.7 0.34128 0.0
H1312 H 0.4062 0.74927 0.38804 0.0
H1313 H 0.4927 0.80413 0.65064 0.0
H1314 H 0.45363 0.8146 0.60429 0.0
H1315 H 0.4801 0.77572 0.48413 0.0
H1316 H 0.51774 0.76356 0.53142 0.0
H1317 H 0.41624 0.75222 0.483 0.0
H1318 H 0.51116 0.86464 0.5043 0.0
H1319 H 0.5556 0.9128 0.54959 0.0
H1320 H 0.47738 0.92197 0.62279 0.0
H1321 H 0.4324 0.87347 0.57843 0.0
C1322 C 0.33214 0.80939 0.36734 0.0
C1323 C 0.30922 0.81596 0.39251 0.0
C1324 C 0.36 0.80973 0.38914 0.0
C1325 C 0.3652 0.81606 0.43669 0.0
C1326 C 0.34378 0.82492 0.46126 0.0
C1327 C 0.3162 0.82515 0.43928 0.0
C1328 C 0.39152 0.81138 0.46139 0.0
C1329 C 0.4162 0.83843 0.48841 0.0
C1330 C 0.3922 0.78024 0.45861 0.0
C1331 C 0.36719 0.75057 0.43068 0.0
C1332 C 0.33173 0.73486 0.43946 0.0
C1333 C 0.30844 0.70697 0.41272 0.0
C1334 C 0.32033 0.69449 0.3773 0.0
C1335 C 0.35556 0.70975 0.36865 0.0
C1336 C 0.37896 0.73761 0.39529 0.0
C1337 C 0.49021 0.79793 0.61452 0.0
C1338 C 0.50818 0.78307 0.59483 0.0
C1339 C 0.46803 0.80411 0.58779 0.0
C1340 C 0.46438 0.79664 0.54035 0.0
C1341 C 0.48242 0.78174 0.5206 0.0
C1342 C 0.50389 0.77478 0.54766 0.0
C1343 C 0.44095 0.80331 0.51162 0.0
C1344 C 0.41675 0.77662 0.48386 0.0
C1345 C 0.44138 0.83506 0.51282 0.0
C1346 C 0.46837 0.86525 0.5382 0.0
C1347 C 0.50341 0.87688 0.53011 0.0
C1348 C 0.52871 0.90421 0.55566 0.0
C1349 C 0.51932 0.92038 0.58912 0.0
C1350 C 0.48461 0.90939 0.59687 0.0
C1351 C 0.45919 0.88201 0.57148 0.0
H1352 H 0.53893 0.94145 0.60899 0.0
H1353 H 0.30224 0.67291 0.35666 0.0
H1354 H 0.70726 0.53221 0.91292 0.0
H1355 H 0.65937 0.48534 0.87168 0.0
H1356 H 0.63724 0.41942 0.99017 0.0
H1357 H 0.68502 0.46663 0.03225 0.0
H1358 H 0.64401 0.3926 0.89888 0.0
H1359 H 0.5854 0.44486 0.97398 0.0
H1360 H 0.57825 0.49413 0.9948 0.0
H1361 H 0.56944 0.51283 0.85154 0.0
H1362 H 0.57714 0.46399 0.82981 0.0
H1363 H 0.49342 0.2515 0.82028 0.0
H1364 H 0.53461 0.29916 0.86709 0.0
H1365 H 0.53522 0.37088 0.76739 0.0
H1366 H 0.49198 0.32275 0.72168 0.0
H1367 H 0.53994 0.39596 0.84943 0.0
H1368 H 0.6 0.34839 0.77136 0.0
H1369 H 0.61165 0.30302 0.74488 0.0
H1370 H 0.62279 0.27972 0.8853 0.0
H1371 H 0.61076 0.32468 0.91267 0.0
C1372 C 0.69217 0.50777 0.93031 0.0
C1373 C 0.69988 0.50298 0.97577 0.0
C1374 C 0.66476 0.48112 0.90675 0.0
C1375 C 0.64485 0.44907 0.92799 0.0
C1376 C 0.65239 0.44409 0.97336 0.0
C1377 C 0.6795 0.47103 0.99734 0.0
C1378 C 0.61676 0.42058 0.90203 0.0
C1379 C 0.62092 0.39292 0.8887 0.0
C1380 C 0.58753 0.42202 0.88719 0.0
C1381 C 0.58215 0.45094 0.90025 0.0
C1382 C 0.5822 0.45963 0.94689 0.0
C1383 C 0.57802 0.48747 0.95887 0.0
C1384 C 0.57349 0.50666 0.92451 0.0
C1385 C 0.57299 0.49796 0.87812 0.0
C1386 C 0.57723 0.47018 0.86595 0.0
C1387 C 0.50202 0.27737 0.80847 0.0
C1388 C 0.48969 0.28333 0.76703 0.0
C1389 C 0.52583 0.30468 0.83514 0.0
C1390 C 0.53889 0.33868 0.82017 0.0
C1391 C 0.52575 0.34486 0.77952 0.0
C1392 C 0.50111 0.31736 0.7533 0.0
C1393 C 0.56681 0.36743 0.84657 0.0
C1394 C 0.56284 0.39535 0.85972 0.0
C1395 C 0.59672 0.36667 0.8604 0.0
C1396 C 0.60422 0.33975 0.84408 0.0
C1397 C 0.60474 0.33346 0.79661 0.0
C1398 C 0.61144 0.30784 0.78144 0.0
C1399 C 0.61792 0.28848 0.81339 0.0
C1400 C 0.61776 0.29474 0.86059 0.0
C1401 C 0.61105 0.32032 0.87595 0.0
H1402 H 0.62313 0.26867 0.80157 0.0
H1403 H 0.57029 0.52822 0.93386 0.0
loop_
_geom_bond_atom_site_label_1
_geom_bond_atom_site_label_2
_geom_bond_distance
_geom_bond_site_symmetry_2
_ccdc_geom_bond_type
C0 C2 1.422 . S
C0 C4 1.415 . S
C0 N6 1.369 . S
C1 C2 1.421 . S
C1 C3 1.417 . S
C1 C13 1.422 . S
C2 C0 1.422 . S
C2 C1 1.421 . S
C2 N12 1.359 . S
C3 C1 1.417 . S
C3 C5 1.329 . S
C3 H22 0.930 . S
C4 C0 1.415 . S
C4 C5 1.437 . S
C4 C8 1.413 . S
C5 C3 1.329 . S
C5 C4 1.437 . S
C5 H27 0.929 . S
N6 C0 1.369 . S
N6 C7 1.338 . S
N6 Gd11 2.622 . S
C7 N6 1.338 . S
C7 C9 1.378 . S
C7 H19 0.929 . S
C8 C4 1.413 . S
C8 C9 1.348 . S
C8 H24 0.931 . S
C9 C7 1.378 . S
C9 C8 1.348 . S
C9 H25 0.930 . S
Gd10 N30 2.622 . S
Gd10 N37 2.570 . S
Gd10 O44 2.353 . S
Gd10 O45 2.468 . S
Gd10 O46 2.427 . S
Gd10 O48 2.388 . S
Gd10 O49 2.386 1_556 S
Gd10 O53 2.307 . S
Gd10 C63 2.805 . S
Gd11 N6 2.622 . S
Gd11 N12 2.570 . S
Gd11 O43 2.386 1_554 S
Gd11 O47 2.307 . S
Gd11 O50 2.353 . S
Gd11 O51 2.468 . S
Gd11 O52 2.427 . S
Gd11 O54 2.388 . S
Gd11 C75 2.805 . S
N12 C2 1.359 . S
N12 Gd11 2.570 . S
N12 C14 1.343 . S
C13 C1 1.422 . S
C13 C15 1.321 . S
C13 H21 0.931 . S
C14 N12 1.343 . S
C14 C15 1.390 . S
C14 H16 0.931 . S
C15 C13 1.321 . S
C15 C14 1.390 . S
C15 H17 0.930 . S
H16 C14 0.931 . S
H17 C15 0.930 . S
H18 C41 0.931 . S
H19 C7 0.929 . S
H20 C42 0.930 . S
H21 C13 0.931 . S
H22 C3 0.930 . S
H23 C32 0.929 . S
H24 C8 0.931 . S
H25 C9 0.930 . S
H26 C64 0.930 . S
H27 C5 0.929 . S
H28 C33 0.931 . S
H29 C34 0.930 . S
N30 Gd10 2.622 . S
N30 C31 1.369 . S
N30 C32 1.338 . S
C31 N30 1.369 . S
C31 C35 1.415 . S
C31 C38 1.422 . S
C32 H23 0.929 . S
C32 N30 1.338 . S
C32 C34 1.378 . S
C33 H28 0.931 . S
C33 C34 1.348 . S
C33 C35 1.413 . S
C34 H29 0.930 . S
C34 C32 1.378 . S
C34 C33 1.348 . S
C35 C31 1.415 . S
C35 C33 1.413 . S
C35 C65 1.437 . S
H36 C65 0.929 . S
N37 Gd10 2.570 . S
N37 C38 1.359 . S
N37 C41 1.343 . S
C38 C31 1.422 . S
C38 N37 1.359 . S
C38 C40 1.421 . S
C39 C40 1.422 . S
C39 C42 1.321 . S
C39 H66 0.931 . S
C40 C38 1.421 . S
C40 C39 1.422 . S
C40 C64 1.417 . S
C41 H18 0.931 . S
C41 N37 1.343 . S
C41 C42 1.390 . S
C42 H20 0.930 . S
C42 C39 1.321 . S
C42 C41 1.390 . S
O43 Gd11 2.386 1_556 S
O43 C55 1.265 . S
O44 Gd10 2.353 . S
O44 C55 1.242 . S
O45 Gd10 2.468 . S
O45 C63 1.263 . S
O46 Gd10 2.427 . S
O46 C63 1.252 . S
O47 Gd11 2.307 . S
O47 C56 1.261 . S
O48 Gd10 2.388 . S
O48 C56 1.252 1_556 S
O49 Gd10 2.386 1_554 S
O49 C67 1.265 . S
O50 Gd11 2.353 . S
O50 C67 1.242 . S
O51 Gd11 2.468 . S
O51 C75 1.263 . S
O52 Gd11 2.427 . S
O52 C75 1.252 . S
O53 Gd10 2.307 . S
O53 C68 1.261 . S
O54 Gd11 2.388 . S
O54 C68 1.252 1_554 S
C55 O43 1.265 . S
C55 O44 1.242 . S
C56 O47 1.261 . S
C56 O48 1.252 1_554 S
C57 C60 1.394 . S
C57 C62 1.370 . S
C57 C63 1.500 . S
C58 C61 1.383 . S
C58 C62 1.395 . S
C59 C60 1.396 . S
C59 C61 1.365 . S
C59 H76 0.929 . S
C60 C57 1.394 . S
C60 C59 1.396 . S
C60 H77 0.930 . S
C61 C58 1.383 . S
C61 C59 1.365 . S
C61 H78 0.931 . S
C62 C57 1.370 . S
C62 C58 1.395 . S
C62 H79 0.930 . S
C63 Gd10 2.805 . S
C63 O45 1.263 . S
C63 O46 1.252 . S
C63 C57 1.500 . S
C64 H26 0.930 . S
C64 C40 1.417 . S
C64 C65 1.329 . S
C65 C35 1.437 . S
C65 H36 0.929 . S
C65 C64 1.329 . S
H66 C39 0.931 . S
C67 O49 1.265 . S
C67 O50 1.242 . S
C68 O53 1.261 . S
C68 O54 1.252 1_556 S
C69 C72 1.394 . S
C69 C74 1.370 . S
C69 C75 1.500 . S
C70 C73 1.383 . S
C70 C74 1.395 . S
C71 C72 1.396 . S
C71 C73 1.365 . S
C71 H80 0.929 . S
C72 C69 1.394 . S
C72 C71 1.396 . S
C72 H81 0.930 . S
C73 C70 1.383 . S
C73 C71 1.365 . S
C73 H82 0.931 . S
C74 C69 1.370 . S
C74 C70 1.395 . S
C74 H83 0.930 . S
C75 Gd11 2.805 . S
C75 O51 1.263 . S
C75 O52 1.252 . S
C75 C69 1.500 . S
H76 C59 0.929 . S
H77 C60 0.930 . S
H78 C61 0.931 . S
H79 C62 0.930 . S
H80 C71 0.929 . S
H81 C72 0.930 . S
H82 C73 0.931 . S
H83 C74 0.930 . S
C84 C86 1.422 . S
C84 C88 1.415 . S
C84 N90 1.369 . S
C85 C86 1.421 . S
C85 C87 1.417 . S
C85 C97 1.422 . S
C86 C84 1.422 . S
C86 C85 1.421 . S
C86 N96 1.359 . S
C87 C85 1.417 . S
C87 C89 1.329 . S
C87 H106 0.930 . S
C88 C84 1.415 . S
C88 C89 1.437 . S
C88 C92 1.413 . S
C89 C87 1.329 . S
C89 C88 1.437 . S
C89 H111 0.929 . S
N90 C84 1.369 . S
N90 C91 1.338 . S
N90 Gd95 2.622 . S
C91 N90 1.338 . S
C91 C93 1.378 . S
C91 H103 0.929 . S
C92 C88 1.413 . S
C92 C93 1.348 . S
C92 H108 0.931 . S
C93 C91 1.378 . S
C93 C92 1.348 . S
C93 H109 0.930 . S
Gd94 N114 2.622 . S
Gd94 N121 2.570 . S
Gd94 O128 2.353 . S
Gd94 O129 2.468 . S
Gd94 O130 2.427 . S
Gd94 O132 2.388 . S
Gd94 O133 2.386 . S
Gd94 O137 2.307 . S
Gd94 C147 2.805 . S
Gd95 N90 2.622 . S
Gd95 N96 2.570 . S
Gd95 O127 2.386 . S
Gd95 O131 2.307 . S
Gd95 O134 2.353 . S
Gd95 O135 2.468 . S
Gd95 O136 2.427 . S
Gd95 O138 2.388 . S
Gd95 C159 2.805 . S
N96 C86 1.359 . S
N96 Gd95 2.570 . S
N96 C98 1.343 . S
C97 C85 1.422 . S
C97 C99 1.321 . S
C97 H105 0.931 . S
C98 N96 1.343 . S
C98 C99 1.390 . S
C98 H100 0.931 . S
C99 C97 1.321 . S
C99 C98 1.390 . S
C99 H101 0.930 . S
H100 C98 0.931 . S
H101 C99 0.930 . S
H102 C125 0.931 . S
H103 C91 0.929 . S
H104 C126 0.930 . S
H105 C97 0.931 . S
H106 C87 0.930 . S
H107 C116 0.929 . S
H108 C92 0.931 . S
H109 C93 0.930 . S
H110 C148 0.930 . S
H111 C89 0.929 . S
H112 C117 0.931 . S
H113 C118 0.930 . S
N114 Gd94 2.622 . S
N114 C115 1.369 . S
N114 C116 1.338 . S
C115 N114 1.369 . S
C115 C119 1.415 . S
C115 C122 1.422 . S
C116 H107 0.929 . S
C116 N114 1.338 . S
C116 C118 1.378 . S
C117 H112 0.931 . S
C117 C118 1.348 . S
C117 C119 1.413 . S
C118 H113 0.930 . S
C118 C116 1.378 . S
C118 C117 1.348 . S
C119 C115 1.415 . S
C119 C117 1.413 . S
C119 C149 1.437 . S
H120 C149 0.929 . S
N121 Gd94 2.570 . S
N121 C122 1.359 . S
N121 C125 1.343 . S
C122 C115 1.422 . S
C122 N121 1.359 . S
C122 C124 1.421 . S
C123 C124 1.422 . S
C123 C126 1.321 . S
C123 H150 0.931 . S
C124 C122 1.421 . S
C124 C123 1.422 . S
C124 C148 1.417 . S
C125 H102 0.931 . S
C125 N121 1.343 . S
C125 C126 1.390 . S
C126 H104 0.930 . S
C126 C123 1.321 . S
C126 C125 1.390 . S
O127 Gd95 2.386 . S
O127 C139 1.265 . S
O128 Gd94 2.353 . S
O128 C139 1.242 . S
O129 Gd94 2.468 . S
O129 C147 1.263 . S
O130 Gd94 2.427 . S
O130 C147 1.252 . S
O131 Gd95 2.307 . S
O131 C140 1.261 . S
O132 Gd94 2.388 . S
O132 C140 1.252 . S
O133 Gd94 2.386 . S
O133 C151 1.265 . S
O134 Gd95 2.353 . S
O134 C151 1.242 . S
O135 Gd95 2.468 . S
O135 C159 1.263 . S
O136 Gd95 2.427 . S
O136 C159 1.252 . S
O137 Gd94 2.307 . S
O137 C152 1.261 . S
O138 Gd95 2.388 . S
O138 C152 1.252 . S
C139 O127 1.265 . S
C139 O128 1.242 . S
C140 O131 1.261 . S
C140 O132 1.252 . S
C141 C144 1.394 . S
C141 C146 1.370 . S
C141 C147 1.500 . S
C142 C145 1.383 . S
C142 C146 1.395 . S
C143 C144 1.396 . S
C143 C145 1.365 . S
C143 H160 0.929 . S
C144 C141 1.394 . S
C144 C143 1.396 . S
C144 H161 0.930 . S
C145 C142 1.383 . S
C145 C143 1.365 . S
C145 H162 0.931 . S
C146 C141 1.370 . S
C146 C142 1.395 . S
C146 H163 0.930 . S
C147 Gd94 2.805 . S
C147 O129 1.263 . S
C147 O130 1.252 . S
C147 C141 1.500 . S
C148 H110 0.930 . S
C148 C124 1.417 . S
C148 C149 1.329 . S
C149 C119 1.437 . S
C149 H120 0.929 . S
C149 C148 1.329 . S
H150 C123 0.931 . S
C151 O133 1.265 . S
C151 O134 1.242 . S
C152 O137 1.261 . S
C152 O138 1.252 . S
C153 C156 1.394 . S
C153 C158 1.370 . S
C153 C159 1.500 . S
C154 C157 1.383 . S
C154 C158 1.395 . S
C155 C156 1.396 . S
C155 C157 1.365 . S
C155 H164 0.929 . S
C156 C153 1.394 . S
C156 C155 1.396 . S
C156 H165 0.930 . S
C157 C154 1.383 . S
C157 C155 1.365 . S
C157 H166 0.931 . S
C158 C153 1.370 . S
C158 C154 1.395 . S
C158 H167 0.930 . S
C159 Gd95 2.805 . S
C159 O135 1.263 . S
C159 O136 1.252 . S
C159 C153 1.500 . S
H160 C143 0.929 . S
H161 C144 0.930 . S
H162 C145 0.931 . S
H163 C146 0.930 . S
H164 C155 0.929 . S
H165 C156 0.930 . S
H166 C157 0.931 . S
H167 C158 0.930 . S
C168 C170 1.422 . S
C168 C172 1.415 . S
C168 N174 1.369 . S
C169 C170 1.421 . S
C169 C171 1.417 . S
C169 C181 1.422 . S
C170 C168 1.422 . S
C170 C169 1.421 . S
C170 N180 1.359 . S
C171 C169 1.417 . S
C171 C173 1.329 . S
C171 H190 0.930 . S
C172 C168 1.415 . S
C172 C173 1.437 . S
C172 C176 1.413 . S
C173 C171 1.329 . S
C173 C172 1.437 . S
C173 H195 0.929 . S
N174 C168 1.369 . S
N174 C175 1.338 . S
N174 Gd179 2.622 . S
C175 N174 1.338 . S
C175 C177 1.378 . S
C175 H187 0.929 . S
C176 C172 1.413 . S
C176 C177 1.348 . S
C176 H192 0.931 . S
C177 C175 1.378 . S
C177 C176 1.348 . S
C177 H193 0.930 . S
Gd178 N198 2.622 . S
Gd178 N205 2.570 . S
Gd178 O212 2.353 . S
Gd178 O213 2.468 . S
Gd178 O214 2.427 . S
Gd178 O216 2.388 . S
Gd178 O217 2.386 . S
Gd178 O221 2.307 . S
Gd178 C231 2.805 . S
Gd179 N174 2.622 . S
Gd179 N180 2.570 . S
Gd179 O211 2.386 . S
Gd179 O215 2.307 . S
Gd179 O218 2.353 . S
Gd179 O219 2.468 . S
Gd179 O220 2.427 . S
Gd179 O222 2.388 . S
Gd179 C243 2.805 . S
N180 C170 1.359 . S
N180 Gd179 2.570 . S
N180 C182 1.343 . S
C181 C169 1.422 . S
C181 C183 1.321 . S
C181 H189 0.931 . S
C182 N180 1.343 . S
C182 C183 1.390 . S
C182 H184 0.931 . S
C183 C181 1.321 . S
C183 C182 1.390 . S
C183 H185 0.930 . S
H184 C182 0.931 . S
H185 C183 0.930 . S
H186 C209 0.931 . S
H187 C175 0.929 . S
H188 C210 0.930 . S
H189 C181 0.931 . S
H190 C171 0.930 . S
H191 C200 0.929 . S
H192 C176 0.931 . S
H193 C177 0.930 . S
H194 C232 0.930 . S
H195 C173 0.929 . S
H196 C201 0.931 . S
H197 C202 0.930 . S
N198 Gd178 2.622 . S
N198 C199 1.369 . S
N198 C200 1.338 . S
C199 N198 1.369 . S
C199 C203 1.415 . S
C199 C206 1.422 . S
C200 H191 0.929 . S
C200 N198 1.338 . S
C200 C202 1.378 . S
C201 H196 0.931 . S
C201 C202 1.348 . S
C201 C203 1.413 . S
C202 H197 0.930 . S
C202 C200 1.378 . S
C202 C201 1.348 . S
C203 C199 1.415 . S
C203 C201 1.413 . S
C203 C233 1.437 . S
H204 C233 0.929 . S
N205 Gd178 2.570 . S
N205 C206 1.359 . S
N205 C209 1.343 . S
C206 C199 1.422 . S
C206 N205 1.359 . S
C206 C208 1.421 . S
C207 C208 1.422 . S
C207 C210 1.321 . S
C207 H234 0.931 . S
C208 C206 1.421 . S
C208 C207 1.422 . S
C208 C232 1.417 . S
C209 H186 0.931 . S
C209 N205 1.343 . S
C209 C210 1.390 . S
C210 H188 0.930 . S
C210 C207 1.321 . S
C210 C209 1.390 . S
O211 Gd179 2.386 . S
O211 C223 1.265 . S
O212 Gd178 2.353 . S
O212 C223 1.242 . S
O213 Gd178 2.468 . S
O213 C231 1.263 . S
O214 Gd178 2.427 . S
O214 C231 1.252 . S
O215 Gd179 2.307 . S
O215 C224 1.261 . S
O216 Gd178 2.388 . S
O216 C224 1.252 . S
O217 Gd178 2.386 . S
O217 C235 1.265 . S
O218 Gd179 2.353 . S
O218 C235 1.242 . S
O219 Gd179 2.468 . S
O219 C243 1.263 . S
O220 Gd179 2.427 . S
O220 C243 1.252 . S
O221 Gd178 2.307 . S
O221 C236 1.261 . S
O222 Gd179 2.388 . S
O222 C236 1.252 . S
C223 O211 1.265 . S
C223 O212 1.242 . S
C224 O215 1.261 . S
C224 O216 1.252 . S
C225 C228 1.394 . S
C225 C230 1.370 . S
C225 C231 1.500 . S
C226 C229 1.383 . S
C226 C230 1.395 . S
C227 C228 1.396 . S
C227 C229 1.365 . S
C227 H244 0.929 . S
C228 C225 1.394 . S
C228 C227 1.396 . S
C228 H245 0.930 . S
C229 C226 1.383 . S
C229 C227 1.365 . S
C229 H246 0.931 . S
C230 C225 1.370 . S
C230 C226 1.395 . S
C230 H247 0.930 . S
C231 Gd178 2.805 . S
C231 O213 1.263 . S
C231 O214 1.252 . S
C231 C225 1.500 . S
C232 H194 0.930 . S
C232 C208 1.417 . S
C232 C233 1.329 . S
C233 C203 1.437 . S
C233 H204 0.929 . S
C233 C232 1.329 . S
H234 C207 0.931 . S
C235 O217 1.265 . S
C235 O218 1.242 . S
C236 O221 1.261 . S
C236 O222 1.252 . S
C237 C240 1.394 . S
C237 C242 1.370 . S
C237 C243 1.500 . S
C238 C241 1.383 . S
C238 C242 1.395 . S
C239 C240 1.396 . S
C239 C241 1.365 . S
C239 H248 0.929 . S
C240 C237 1.394 . S
C240 C239 1.396 . S
C240 H249 0.930 . S
C241 C238 1.383 . S
C241 C239 1.365 . S
C241 H250 0.931 . S
C242 C237 1.370 . S
C242 C238 1.395 . S
C242 H251 0.930 . S
C243 Gd179 2.805 . S
C243 O219 1.263 . S
C243 O220 1.252 . S
C243 C237 1.500 . S
H244 C227 0.929 . S
H245 C228 0.930 . S
H246 C229 0.931 . S
H247 C230 0.930 . S
H248 C239 0.929 . S
H249 C240 0.930 . S
H250 C241 0.931 . S
H251 C242 0.930 . S
C252 C254 1.422 . S
C252 C256 1.415 . S
C252 N258 1.369 . S
C253 C254 1.421 . S
C253 C255 1.417 . S
C253 C265 1.422 . S
C254 C252 1.422 . S
C254 C253 1.421 . S
C254 N264 1.359 . S
C255 C253 1.417 . S
C255 C257 1.329 . S
C255 H274 0.930 . S
C256 C252 1.415 . S
C256 C257 1.437 . S
C256 C260 1.413 . S
C257 C255 1.329 . S
C257 C256 1.437 . S
C257 H279 0.929 . S
N258 C252 1.369 . S
N258 C259 1.338 . S
N258 Gd263 2.622 . S
C259 N258 1.338 . S
C259 C261 1.378 . S
C259 H271 0.929 . S
C260 C256 1.413 . S
C260 C261 1.348 . S
C260 H276 0.931 . S
C261 C259 1.378 . S
C261 C260 1.348 . S
C261 H277 0.930 . S
Gd262 N282 2.622 . S
Gd262 N289 2.570 . S
Gd262 O296 2.353 . S
Gd262 O297 2.468 . S
Gd262 O298 2.427 . S
Gd262 O300 2.388 . S
Gd262 O301 2.386 . S
Gd262 O305 2.307 . S
Gd262 C315 2.805 . S
Gd263 N258 2.622 . S
Gd263 N264 2.570 . S
Gd263 O295 2.386 1_556 S
Gd263 O299 2.307 . S
Gd263 O302 2.353 . S
Gd263 O303 2.468 . S
Gd263 O304 2.427 . S
Gd263 O306 2.388 1_556 S
Gd263 C327 2.805 . S
N264 C254 1.359 . S
N264 Gd263 2.570 . S
N264 C266 1.343 . S
C265 C253 1.422 . S
C265 C267 1.321 . S
C265 H273 0.931 . S
C266 N264 1.343 . S
C266 C267 1.390 . S
C266 H268 0.931 . S
C267 C265 1.321 . S
C267 C266 1.390 . S
C267 H269 0.930 . S
H268 C266 0.931 . S
H269 C267 0.930 . S
H270 C293 0.931 . S
H271 C259 0.929 . S
H272 C294 0.930 . S
H273 C265 0.931 . S
H274 C255 0.930 . S
H275 C284 0.929 . S
H276 C260 0.931 . S
H277 C261 0.930 . S
H278 C316 0.930 . S
H279 C257 0.929 . S
H280 C285 0.931 . S
H281 C286 0.930 . S
N282 Gd262 2.622 . S
N282 C283 1.369 . S
N282 C284 1.338 . S
C283 N282 1.369 . S
C283 C287 1.415 . S
C283 C290 1.422 . S
C284 H275 0.929 . S
C284 N282 1.338 . S
C284 C286 1.378 . S
C285 H280 0.931 . S
C285 C286 1.348 . S
C285 C287 1.413 . S
C286 H281 0.930 . S
C286 C284 1.378 . S
C286 C285 1.348 . S
C287 C283 1.415 . S
C287 C285 1.413 . S
C287 C317 1.437 . S
H288 C317 0.929 . S
N289 Gd262 2.570 . S
N289 C290 1.359 . S
N289 C293 1.343 . S
C290 C283 1.422 . S
C290 N289 1.359 . S
C290 C292 1.421 . S
C291 C292 1.422 . S
C291 C294 1.321 . S
C291 H318 0.931 . S
C292 C290 1.421 . S
C292 C291 1.422 . S
C292 C316 1.417 . S
C293 H270 0.931 . S
C293 N289 1.343 . S
C293 C294 1.390 . S
C294 H272 0.930 . S
C294 C291 1.321 . S
C294 C293 1.390 . S
O295 Gd263 2.386 1_554 S
O295 C307 1.265 . S
O296 Gd262 2.353 . S
O296 C307 1.242 . S
O297 Gd262 2.468 . S
O297 C315 1.263 . S
O298 Gd262 2.427 . S
O298 C315 1.252 . S
O299 Gd263 2.307 . S
O299 C308 1.261 . S
O300 Gd262 2.388 . S
O300 C308 1.252 1_554 S
O301 Gd262 2.386 . S
O301 C319 1.265 1_554 S
O302 Gd263 2.353 . S
O302 C319 1.242 . S
O303 Gd263 2.468 . S
O303 C327 1.263 . S
O304 Gd263 2.427 . S
O304 C327 1.252 . S
O305 Gd262 2.307 . S
O305 C320 1.261 . S
O306 Gd263 2.388 1_554 S
O306 C320 1.252 . S
C307 O295 1.265 . S
C307 O296 1.242 . S
C308 O299 1.261 . S
C308 O300 1.252 1_556 S
C309 C312 1.394 . S
C309 C314 1.370 . S
C309 C315 1.500 . S
C310 C313 1.383 . S
C310 C314 1.395 . S
C311 C312 1.396 . S
C311 C313 1.365 . S
C311 H328 0.929 . S
C312 C309 1.394 . S
C312 C311 1.396 . S
C312 H329 0.930 . S
C313 C310 1.383 . S
C313 C311 1.365 . S
C313 H330 0.931 . S
C314 C309 1.370 . S
C314 C310 1.395 . S
C314 H331 0.930 . S
C315 Gd262 2.805 . S
C315 O297 1.263 . S
C315 O298 1.252 . S
C315 C309 1.500 . S
C316 H278 0.930 . S
C316 C292 1.417 . S
C316 C317 1.329 . S
C317 C287 1.437 . S
C317 H288 0.929 . S
C317 C316 1.329 . S
H318 C291 0.931 . S
C319 O301 1.265 1_556 S
C319 O302 1.242 . S
C320 O305 1.261 . S
C320 O306 1.252 . S
C321 C324 1.394 . S
C321 C326 1.370 . S
C321 C327 1.500 . S
C322 C325 1.383 . S
C322 C326 1.395 . S
C323 C324 1.396 . S
C323 C325 1.365 . S
C323 H332 0.929 . S
C324 C321 1.394 . S
C324 C323 1.396 . S
C324 H333 0.930 . S
C325 C322 1.383 . S
C325 C323 1.365 . S
C325 H334 0.931 . S
C326 C321 1.370 . S
C326 C322 1.395 . S
C326 H335 0.930 . S
C327 Gd263 2.805 . S
C327 O303 1.263 . S
C327 O304 1.252 . S
C327 C321 1.500 . S
H328 C311 0.929 . S
H329 C312 0.930 . S
H330 C313 0.931 . S
H331 C314 0.930 . S
H332 C323 0.929 . S
H333 C324 0.930 . S
H334 C325 0.931 . S
H335 C326 0.930 . S
C336 C338 1.422 . S
C336 C340 1.415 . S
C336 N342 1.369 . S
C337 C338 1.421 . S
C337 C339 1.417 . S
C337 C349 1.422 . S
C338 C336 1.422 . S
C338 C337 1.421 . S
C338 N348 1.359 . S
C339 C337 1.417 . S
C339 C341 1.329 . S
C339 H358 0.930 . S
C340 C336 1.415 . S
C340 C341 1.437 . S
C340 C344 1.413 . S
C341 C339 1.329 . S
C341 C340 1.437 . S
C341 H363 0.929 . S
N342 C336 1.369 . S
N342 C343 1.338 . S
N342 Gd347 2.622 . S
C343 N342 1.338 . S
C343 C345 1.378 . S
C343 H355 0.929 . S
C344 C340 1.413 . S
C344 C345 1.348 . S
C344 H360 0.931 . S
C345 C343 1.378 . S
C345 C344 1.348 . S
C345 H361 0.930 . S
Gd346 N366 2.622 . S
Gd346 N373 2.570 . S
Gd346 O380 2.353 . S
Gd346 O381 2.468 . S
Gd346 O382 2.427 . S
Gd346 O384 2.388 . S
Gd346 O385 2.386 . S
Gd346 O389 2.307 . S
Gd346 C399 2.805 . S
Gd347 N342 2.622 . S
Gd347 N348 2.570 . S
Gd347 O379 2.386 . S
Gd347 O383 2.307 . S
Gd347 O386 2.353 . S
Gd347 O387 2.468 . S
Gd347 O388 2.427 . S
Gd347 O390 2.388 . S
Gd347 C411 2.805 . S
N348 C338 1.359 . S
N348 Gd347 2.570 . S
N348 C350 1.343 . S
C349 C337 1.422 . S
C349 C351 1.321 . S
C349 H357 0.931 . S
C350 N348 1.343 . S
C350 C351 1.390 . S
C350 H352 0.931 . S
C351 C349 1.321 . S
C351 C350 1.390 . S
C351 H353 0.930 . S
H352 C350 0.931 . S
H353 C351 0.930 . S
H354 C377 0.931 . S
H355 C343 0.929 . S
H356 C378 0.930 . S
H357 C349 0.931 . S
H358 C339 0.930 . S
H359 C368 0.929 . S
H360 C344 0.931 . S
H361 C345 0.930 . S
H362 C400 0.930 . S
H363 C341 0.929 . S
H364 C369 0.931 . S
H365 C370 0.930 . S
N366 Gd346 2.622 . S
N366 C367 1.369 . S
N366 C368 1.338 . S
C367 N366 1.369 . S
C367 C371 1.415 . S
C367 C374 1.422 . S
C368 H359 0.929 . S
C368 N366 1.338 . S
C368 C370 1.378 . S
C369 H364 0.931 . S
C369 C370 1.348 . S
C369 C371 1.413 . S
C370 H365 0.930 . S
C370 C368 1.378 . S
C370 C369 1.348 . S
C371 C367 1.415 . S
C371 C369 1.413 . S
C371 C401 1.437 . S
H372 C401 0.929 . S
N373 Gd346 2.570 . S
N373 C374 1.359 . S
N373 C377 1.343 . S
C374 C367 1.422 . S
C374 N373 1.359 . S
C374 C376 1.421 . S
C375 C376 1.422 . S
C375 C378 1.321 . S
C375 H402 0.931 . S
C376 C374 1.421 . S
C376 C375 1.422 . S
C376 C400 1.417 . S
C377 H354 0.931 . S
C377 N373 1.343 . S
C377 C378 1.390 . S
C378 H356 0.930 . S
C378 C375 1.321 . S
C378 C377 1.390 . S
O379 Gd347 2.386 . S
O379 C391 1.265 . S
O380 Gd346 2.353 . S
O380 C391 1.242 . S
O381 Gd346 2.468 . S
O381 C399 1.263 . S
O382 Gd346 2.427 . S
O382 C399 1.252 . S
O383 Gd347 2.307 . S
O383 C392 1.261 . S
O384 Gd346 2.388 . S
O384 C392 1.252 . S
O385 Gd346 2.386 . S
O385 C403 1.265 . S
O386 Gd347 2.353 . S
O386 C403 1.242 . S
O387 Gd347 2.468 . S
O387 C411 1.263 . S
O388 Gd347 2.427 . S
O388 C411 1.252 . S
O389 Gd346 2.307 . S
O389 C404 1.261 . S
O390 Gd347 2.388 . S
O390 C404 1.252 . S
C391 O379 1.265 . S
C391 O380 1.242 . S
C392 O383 1.261 . S
C392 O384 1.252 . S
C393 C396 1.394 . S
C393 C398 1.370 . S
C393 C399 1.500 . S
C394 C397 1.383 . S
C394 C398 1.395 . S
C395 C396 1.396 . S
C395 C397 1.365 . S
C395 H412 0.929 . S
C396 C393 1.394 . S
C396 C395 1.396 . S
C396 H413 0.930 . S
C397 C394 1.383 . S
C397 C395 1.365 . S
C397 H414 0.931 . S
C398 C393 1.370 . S
C398 C394 1.395 . S
C398 H415 0.930 . S
C399 Gd346 2.805 . S
C399 O381 1.263 . S
C399 O382 1.252 . S
C399 C393 1.500 . S
C400 H362 0.930 . S
C400 C376 1.417 . S
C400 C401 1.329 . S
C401 C371 1.437 . S
C401 H372 0.929 . S
C401 C400 1.329 . S
H402 C375 0.931 . S
C403 O385 1.265 . S
C403 O386 1.242 . S
C404 O389 1.261 . S
C404 O390 1.252 . S
C405 C408 1.394 . S
C405 C410 1.370 . S
C405 C411 1.500 . S
C406 C409 1.383 . S
C406 C410 1.395 . S
C407 C408 1.396 . S
C407 C409 1.365 . S
C407 H416 0.929 . S
C408 C405 1.394 . S
C408 C407 1.396 . S
C408 H417 0.930 . S
C409 C406 1.383 . S
C409 C407 1.365 . S
C409 H418 0.931 . S
C410 C405 1.370 . S
C410 C406 1.395 . S
C410 H419 0.930 . S
C411 Gd347 2.805 . S
C411 O387 1.263 . S
C411 O388 1.252 . S
C411 C405 1.500 . S
H412 C395 0.929 . S
H413 C396 0.930 . S
H414 C397 0.931 . S
H415 C398 0.930 . S
H416 C407 0.929 . S
H417 C408 0.930 . S
H418 C409 0.931 . S
H419 C410 0.930 . S
C420 C422 1.422 . S
C420 C424 1.415 . S
C420 N426 1.369 . S
C421 C422 1.421 . S
C421 C423 1.417 . S
C421 C433 1.422 . S
C422 C420 1.422 . S
C422 C421 1.421 . S
C422 N432 1.359 . S
C423 C421 1.417 . S
C423 C425 1.329 . S
C423 H442 0.930 . S
C424 C420 1.415 . S
C424 C425 1.437 . S
C424 C428 1.413 . S
C425 C423 1.329 . S
C425 C424 1.437 . S
C425 H447 0.929 . S
N426 C420 1.369 . S
N426 C427 1.338 . S
N426 Gd431 2.622 . S
C427 N426 1.338 . S
C427 C429 1.378 . S
C427 H439 0.929 . S
C428 C424 1.413 . S
C428 C429 1.348 . S
C428 H444 0.931 . S
C429 C427 1.378 . S
C429 C428 1.348 . S
C429 H445 0.930 . S
Gd430 N450 2.622 . S
Gd430 N457 2.570 . S
Gd430 O464 2.353 . S
Gd430 O465 2.468 . S
Gd430 O466 2.427 . S
Gd430 O468 2.388 . S
Gd430 O469 2.386 . S
Gd430 O473 2.307 . S
Gd430 C483 2.805 . S
Gd431 N426 2.622 . S
Gd431 N432 2.570 . S
Gd431 O463 2.386 . S
Gd431 O467 2.307 . S
Gd431 O470 2.353 . S
Gd431 O471 2.468 . S
Gd431 O472 2.427 . S
Gd431 O474 2.388 . S
Gd431 C495 2.805 . S
N432 C422 1.359 . S
N432 Gd431 2.570 . S
N432 C434 1.343 . S
C433 C421 1.422 . S
C433 C435 1.321 . S
C433 H441 0.931 . S
C434 N432 1.343 . S
C434 C435 1.390 . S
C434 H436 0.931 . S
C435 C433 1.321 . S
C435 C434 1.390 . S
C435 H437 0.930 . S
H436 C434 0.931 . S
H437 C435 0.930 . S
H438 C461 0.931 . S
H439 C427 0.929 . S
H440 C462 0.930 . S
H441 C433 0.931 . S
H442 C423 0.930 . S
H443 C452 0.929 . S
H444 C428 0.931 . S
H445 C429 0.930 . S
H446 C484 0.930 . S
H447 C425 0.929 . S
H448 C453 0.931 . S
H449 C454 0.930 . S
N450 Gd430 2.622 . S
N450 C451 1.369 . S
N450 C452 1.338 . S
C451 N450 1.369 . S
C451 C455 1.415 . S
C451 C458 1.422 . S
C452 H443 0.929 . S
C452 N450 1.338 . S
C452 C454 1.378 . S
C453 H448 0.931 . S
C453 C454 1.348 . S
C453 C455 1.413 . S
C454 H449 0.930 . S
C454 C452 1.378 . S
C454 C453 1.348 . S
C455 C451 1.415 . S
C455 C453 1.413 . S
C455 C485 1.437 . S
H456 C485 0.929 . S
N457 Gd430 2.570 . S
N457 C458 1.359 . S
N457 C461 1.343 . S
C458 C451 1.422 . S
C458 N457 1.359 . S
C458 C460 1.421 . S
C459 C460 1.422 . S
C459 C462 1.321 . S
C459 H486 0.931 . S
C460 C458 1.421 . S
C460 C459 1.422 . S
C460 C484 1.417 . S
C461 H438 0.931 . S
C461 N457 1.343 . S
C461 C462 1.390 . S
C462 H440 0.930 . S
C462 C459 1.321 . S
C462 C461 1.390 . S
O463 Gd431 2.386 . S
O463 C475 1.265 . S
O464 Gd430 2.353 . S
O464 C475 1.242 . S
O465 Gd430 2.468 . S
O465 C483 1.263 . S
O466 Gd430 2.427 . S
O466 C483 1.252 . S
O467 Gd431 2.307 . S
O467 C476 1.261 . S
O468 Gd430 2.388 . S
O468 C476 1.252 . S
O469 Gd430 2.386 . S
O469 C487 1.265 . S
O470 Gd431 2.353 . S
O470 C487 1.242 . S
O471 Gd431 2.468 . S
O471 C495 1.263 . S
O472 Gd431 2.427 . S
O472 C495 1.252 . S
O473 Gd430 2.307 . S
O473 C488 1.261 . S
O474 Gd431 2.388 . S
O474 C488 1.252 . S
C475 O463 1.265 . S
C475 O464 1.242 . S
C476 O467 1.261 . S
C476 O468 1.252 . S
C477 C480 1.394 . S
C477 C482 1.370 . S
C477 C483 1.500 . S
C478 C481 1.383 . S
C478 C482 1.395 . S
C479 C480 1.396 . S
C479 C481 1.365 . S
C479 H496 0.929 . S
C480 C477 1.394 . S
C480 C479 1.396 . S
C480 H497 0.930 . S
C481 C478 1.383 . S
C481 C479 1.365 . S
C481 H498 0.931 1_556 S
C482 C477 1.370 . S
C482 C478 1.395 . S
C482 H499 0.930 . S
C483 Gd430 2.805 . S
C483 O465 1.263 . S
C483 O466 1.252 . S
C483 C477 1.500 . S
C484 H446 0.930 . S
C484 C460 1.417 . S
C484 C485 1.329 . S
C485 C455 1.437 . S
C485 H456 0.929 . S
C485 C484 1.329 . S
H486 C459 0.931 . S
C487 O469 1.265 . S
C487 O470 1.242 . S
C488 O473 1.261 . S
C488 O474 1.252 . S
C489 C492 1.394 . S
C489 C494 1.370 . S
C489 C495 1.500 . S
C490 C493 1.383 . S
C490 C494 1.395 . S
C491 C492 1.396 . S
C491 C493 1.365 . S
C491 H500 0.929 . S
C492 C489 1.394 . S
C492 C491 1.396 . S
C492 H501 0.930 . S
C493 C490 1.383 . S
C493 C491 1.365 . S
C493 H502 0.931 . S
C494 C489 1.370 . S
C494 C490 1.395 . S
C494 H503 0.930 . S
C495 Gd431 2.805 . S
C495 O471 1.263 . S
C495 O472 1.252 . S
C495 C489 1.500 . S
H496 C479 0.929 . S
H497 C480 0.930 . S
H498 C481 0.931 1_554 S
H499 C482 0.930 . S
H500 C491 0.929 . S
H501 C492 0.930 . S
H502 C493 0.931 . S
H503 C494 0.930 . S
H504 C522 0.951 . S
H505 C524 0.951 . S
H506 C526 0.950 . S
H507 C527 0.950 . S
H508 C529 0.950 . S
H509 C532 0.950 . S
H510 C533 0.950 . S
H511 C535 0.950 . S
H512 C536 0.950 . S
H513 C537 0.951 . S
H514 C539 0.951 . S
H515 C541 0.950 . S
H516 C542 0.950 . S
H517 C544 0.950 . S
H518 C547 0.950 . S
H519 C548 0.950 . S
H520 C550 0.950 . S
H521 C551 0.950 . S
C522 H504 0.951 . S
C522 C523 1.366 . S
C522 C524 1.388 . S
C523 C522 1.366 . S
C523 C527 1.385 . S
C524 H505 0.951 . S
C524 C522 1.388 . S
C524 C525 1.366 . S
C525 C524 1.366 . S
C525 C526 1.414 . S
C525 C528 1.499 . S
C526 H506 0.950 . S
C526 C525 1.414 . S
C526 C527 1.374 . S
C527 H507 0.950 . S
C527 C523 1.385 . S
C527 C526 1.374 . S
C528 C525 1.499 . S
C528 C529 1.373 . S
C528 C530 1.389 . S
C529 H508 0.950 . S
C529 C528 1.373 . S
C529 C545 1.377 . S
C530 C528 1.389 . S
C530 C531 1.524 . S
C530 C544 1.377 . S
C531 C530 1.524 . S
C531 C532 1.397 . S
C531 C536 1.363 . S
C532 H509 0.950 . S
C532 C531 1.397 . S
C532 C533 1.334 . S
C533 H510 0.950 . S
C533 C532 1.334 . S
C533 C534 1.287 . S
C534 C533 1.287 . S
C534 C535 1.524 . S
C534 H553 0.913 . S
C535 H511 0.950 . S
C535 C534 1.524 . S
C535 C536 1.415 . S
C536 H512 0.950 . S
C536 C531 1.363 . S
C536 C535 1.415 . S
C537 H513 0.951 . S
C537 C538 1.366 . S
C537 C539 1.388 . S
C538 C537 1.366 . S
C538 C542 1.385 . S
C539 H514 0.951 . S
C539 C537 1.388 . S
C539 C540 1.366 . S
C540 C539 1.366 . S
C540 C541 1.414 . S
C540 C543 1.499 . S
C541 H515 0.950 . S
C541 C540 1.414 . S
C541 C542 1.374 . S
C542 H516 0.950 . S
C542 C538 1.385 . S
C542 C541 1.374 . S
C543 C540 1.499 . S
C543 C544 1.373 . S
C543 C545 1.389 . S
C544 H517 0.950 . S
C544 C530 1.377 . S
C544 C543 1.373 . S
C545 C529 1.377 . S
C545 C543 1.389 . S
C545 C546 1.524 . S
C546 C545 1.524 . S
C546 C547 1.397 . S
C546 C551 1.363 . S
C547 H518 0.950 . S
C547 C546 1.397 . S
C547 C548 1.334 . S
C548 H519 0.950 . S
C548 C547 1.334 . S
C548 C549 1.287 . S
C549 C548 1.287 . S
C549 C550 1.524 . S
C549 H552 0.999 . S
C550 H520 0.950 . S
C550 C549 1.524 . S
C550 C551 1.415 . S
C551 H521 0.950 . S
C551 C546 1.363 . S
C551 C550 1.415 . S
H552 C549 0.999 . S
H553 C534 0.913 . S
H554 C572 0.951 . S
H555 C574 0.951 . S
H556 C576 0.950 . S
H557 C577 0.950 . S
H558 C579 0.950 . S
H559 C582 0.950 . S
H560 C583 0.947 1_456 S
H561 C585 0.950 1_556 S
H562 C586 0.950 . S
H563 C587 0.951 . S
H564 C589 0.951 . S
H565 C591 0.950 . S
H566 C592 0.950 . S
H567 C594 0.950 . S
H568 C597 0.950 . S
H569 C598 0.950 1_655 S
H570 C600 0.950 . S
H571 C601 0.950 . S
C572 H554 0.951 . S
C572 C573 1.366 . S
C572 C574 1.388 . S
C573 C572 1.366 . S
C573 C577 1.385 . S
C574 H555 0.951 . S
C574 C572 1.388 . S
C574 C575 1.366 . S
C575 C574 1.366 . S
C575 C576 1.414 . S
C575 C578 1.499 . S
C576 H556 0.950 . S
C576 C575 1.414 . S
C576 C577 1.374 . S
C577 H557 0.950 . S
C577 C573 1.385 . S
C577 C576 1.374 . S
C578 C575 1.499 . S
C578 C579 1.373 . S
C578 C580 1.389 1_455 S
C579 H558 0.950 . S
C579 C578 1.373 . S
C579 C595 1.377 . S
C580 C578 1.389 1_655 S
C580 C581 1.524 . S
C580 C594 1.377 . S
C581 C580 1.524 . S
C581 C582 1.397 1_655 S
C581 C586 1.363 . S
C582 H559 0.950 . S
C582 C581 1.397 1_455 S
C582 C583 1.334 1_455 S
C583 H560 0.947 1_654 S
C583 C582 1.334 1_655 S
C583 C584 1.287 1_554 S
C584 C583 1.287 1_556 S
C584 C585 1.524 1_556 S
C584 H603 0.913 . S
C585 H561 0.950 1_554 S
C585 C584 1.524 1_554 S
C585 C586 1.415 . S
C586 H562 0.950 . S
C586 C581 1.363 . S
C586 C585 1.415 . S
C587 H563 0.951 . S
C587 C588 1.366 . S
C587 C589 1.388 . S
C588 C587 1.366 . S
C588 C592 1.385 . S
C589 H564 0.951 . S
C589 C587 1.388 . S
C589 C590 1.366 . S
C590 C589 1.366 . S
C590 C591 1.414 . S
C590 C593 1.499 . S
C591 H565 0.950 . S
C591 C590 1.414 . S
C591 C592 1.374 . S
C592 H566 0.950 . S
C592 C588 1.385 . S
C592 C591 1.374 . S
C593 C590 1.499 . S
C593 C594 1.373 . S
C593 C595 1.389 1_655 S
C594 H567 0.950 . S
C594 C580 1.377 . S
C594 C593 1.373 . S
C595 C579 1.377 . S
C595 C593 1.389 1_455 S
C595 C596 1.524 . S
C596 C595 1.524 . S
C596 C597 1.397 1_455 S
C596 C601 1.363 . S
C597 H568 0.950 . S
C597 C596 1.397 1_655 S
C597 C598 1.334 1_655 S
C598 H569 0.950 1_455 S
C598 C597 1.334 1_455 S
C598 C599 1.287 . S
C599 C598 1.287 . S
C599 C600 1.524 . S
C599 H602 0.999 . S
C600 H570 0.950 . S
C600 C599 1.524 . S
C600 C601 1.415 . S
C601 H571 0.950 . S
C601 C596 1.363 . S
C601 C600 1.415 . S
H602 C599 0.999 . S
H603 C584 0.913 . S
H604 C622 0.951 . S
H605 C624 0.951 . S
H606 C626 0.950 . S
H607 C627 0.950 . S
H608 C629 0.950 . S
H609 C632 0.950 . S
H610 C633 0.950 . S
H611 C635 0.950 . S
H612 C636 0.950 . S
H613 C637 0.951 . S
H614 C639 0.951 . S
H615 C641 0.950 . S
H616 C642 0.950 . S
H617 C644 0.950 . S
H618 C647 0.950 . S
H619 C648 0.950 . S
H620 C650 0.950 . S
H621 C651 0.950 . S
C622 H604 0.951 . S
C622 C623 1.366 . S
C622 C624 1.388 . S
C623 C622 1.366 . S
C623 C627 1.385 . S
C624 H605 0.951 . S
C624 C622 1.388 . S
C624 C625 1.366 . S
C625 C624 1.366 . S
C625 C626 1.414 . S
C625 C628 1.499 . S
C626 H606 0.950 . S
C626 C625 1.414 . S
C626 C627 1.374 . S
C627 H607 0.950 . S
C627 C623 1.385 . S
C627 C626 1.374 . S
C628 C625 1.499 . S
C628 C629 1.373 . S
C628 C630 1.389 . S
C629 H608 0.950 . S
C629 C628 1.373 . S
C629 C645 1.377 1_545 S
C630 C628 1.389 . S
C630 C631 1.524 . S
C630 C644 1.377 1_545 S
C631 C630 1.524 . S
C631 C632 1.397 . S
C631 C636 1.363 . S
C632 H609 0.950 . S
C632 C631 1.397 . S
C632 C633 1.334 . S
C633 H610 0.950 . S
C633 C632 1.334 . S
C633 C634 1.287 . S
C634 C633 1.287 . S
C634 C635 1.524 . S
C634 H653 0.913 . S
C635 H611 0.950 . S
C635 C634 1.524 . S
C635 C636 1.415 . S
C636 H612 0.950 . S
C636 C631 1.363 . S
C636 C635 1.415 . S
C637 H613 0.951 . S
C637 C638 1.366 . S
C637 C639 1.388 . S
C638 C637 1.366 . S
C638 C642 1.385 . S
C639 H614 0.951 . S
C639 C637 1.388 . S
C639 C640 1.366 . S
C640 C639 1.366 . S
C640 C641 1.414 . S
C640 C643 1.499 . S
C641 H615 0.950 . S
C641 C640 1.414 . S
C641 C642 1.374 . S
C642 H616 0.950 . S
C642 C638 1.385 . S
C642 C641 1.374 . S
C643 C640 1.499 . S
C643 C644 1.373 . S
C643 C645 1.389 . S
C644 H617 0.950 . S
C644 C630 1.377 1_565 S
C644 C643 1.373 . S
C645 C629 1.377 1_565 S
C645 C643 1.389 . S
C645 C646 1.524 . S
C646 C645 1.524 . S
C646 C647 1.397 . S
C646 C651 1.363 . S
C647 H618 0.950 . S
C647 C646 1.397 . S
C647 C648 1.334 . S
C648 H619 0.950 . S
C648 C647 1.334 . S
C648 C649 1.287 . S
C649 C648 1.287 . S
C649 C650 1.524 . S
C649 H652 0.999 . S
C650 H620 0.950 . S
C650 C649 1.524 . S
C650 C651 1.415 . S
C651 H621 0.950 . S
C651 C646 1.363 . S
C651 C650 1.415 . S
H652 C649 0.999 . S
H653 C634 0.913 . S
H654 C672 0.951 . S
H655 C674 0.951 . S
H656 C676 0.950 . S
H657 C677 0.950 . S
H658 C679 0.950 . S
H659 C682 0.950 . S
H660 C683 0.950 . S
H661 C685 0.950 . S
H662 C686 0.950 . S
H663 C687 0.951 . S
H664 C689 0.951 . S
H665 C691 0.950 . S
H666 C692 0.950 . S
H667 C694 0.950 . S
H668 C697 0.950 . S
H669 C698 0.948 1_554 S
H670 C700 0.950 . S
H671 C701 0.950 . S
C672 H654 0.951 . S
C672 C673 1.366 . S
C672 C674 1.388 . S
C673 C672 1.366 . S
C673 C677 1.385 . S
C674 H655 0.951 . S
C674 C672 1.388 . S
C674 C675 1.366 . S
C675 C674 1.366 . S
C675 C676 1.414 . S
C675 C678 1.499 . S
C676 H656 0.950 . S
C676 C675 1.414 . S
C676 C677 1.374 . S
C677 H657 0.950 . S
C677 C673 1.385 . S
C677 C676 1.374 . S
C678 C675 1.499 . S
C678 C679 1.373 . S
C678 C680 1.389 . S
C679 H658 0.950 . S
C679 C678 1.373 . S
C679 C695 1.377 . S
C680 C678 1.389 . S
C680 C681 1.524 . S
C680 C694 1.377 . S
C681 C680 1.524 . S
C681 C682 1.397 . S
C681 C686 1.363 . S
C682 H659 0.950 . S
C682 C681 1.397 . S
C682 C683 1.334 . S
C683 H660 0.950 . S
C683 C682 1.334 . S
C683 C684 1.287 . S
C684 C683 1.287 . S
C684 C685 1.524 . S
C684 H703 0.913 . S
C685 H661 0.950 . S
C685 C684 1.524 . S
C685 C686 1.415 . S
C686 H662 0.950 . S
C686 C681 1.363 . S
C686 C685 1.415 . S
C687 H663 0.951 . S
C687 C688 1.366 . S
C687 C689 1.388 . S
C688 C687 1.366 . S
C688 C692 1.385 . S
C689 H664 0.951 . S
C689 C687 1.388 . S
C689 C690 1.366 . S
C690 C689 1.366 . S
C690 C691 1.414 . S
C690 C693 1.499 . S
C691 H665 0.950 . S
C691 C690 1.414 . S
C691 C692 1.374 . S
C692 H666 0.950 . S
C692 C688 1.385 . S
C692 C691 1.374 . S
C693 C690 1.499 . S
C693 C694 1.373 . S
C693 C695 1.389 . S
C694 H667 0.950 . S
C694 C680 1.377 . S
C694 C693 1.373 . S
C695 C679 1.377 . S
C695 C693 1.389 . S
C695 C696 1.524 . S
C696 C695 1.524 . S
C696 C697 1.397 . S
C696 C701 1.363 . S
C697 H668 0.950 . S
C697 C696 1.397 . S
C697 C698 1.334 . S
C698 H669 0.948 1_556 S
C698 C697 1.334 . S
C698 C699 1.287 1_556 S
C699 C698 1.287 1_554 S
C699 C700 1.524 . S
C699 H702 0.999 . S
C700 H670 0.950 . S
C700 C699 1.524 . S
C700 C701 1.415 1_554 S
C701 H671 0.950 . S
C701 C696 1.363 . S
C701 C700 1.415 1_556 S
H702 C699 0.999 . S
H703 C684 0.913 . S
H704 C722 0.951 . S
H705 C724 0.951 . S
H706 C726 0.950 . S
H707 C727 0.950 . S
H708 C729 0.950 . S
H709 C732 0.950 . S
H710 C733 0.950 . S
H711 C735 0.950 . S
H712 C736 0.950 . S
H713 C737 0.951 . S
H714 C739 0.951 . S
H715 C741 0.950 . S
H716 C742 0.950 . S
H717 C744 0.950 . S
H718 C747 0.950 . S
H719 C748 0.950 . S
H720 C750 0.950 . S
H721 C751 0.950 . S
C722 H704 0.951 . S
C722 C723 1.366 . S
C722 C724 1.388 . S
C723 C722 1.366 . S
C723 C727 1.385 . S
C724 H705 0.951 . S
C724 C722 1.388 . S
C724 C725 1.366 . S
C725 C724 1.366 . S
C725 C726 1.414 . S
C725 C728 1.499 . S
C726 H706 0.950 . S
C726 C725 1.414 . S
C726 C727 1.374 . S
C727 H707 0.950 . S
C727 C723 1.385 . S
C727 C726 1.374 . S
C728 C725 1.499 . S
C728 C729 1.373 . S
C728 C730 1.389 . S
C729 H708 0.950 . S
C729 C728 1.373 . S
C729 C745 1.377 1_455 S
C730 C728 1.389 . S
C730 C731 1.524 . S
C730 C744 1.377 1_455 S
C731 C730 1.524 . S
C731 C732 1.397 . S
C731 C736 1.363 . S
C732 H709 0.950 . S
C732 C731 1.397 . S
C732 C733 1.334 . S
C733 H710 0.950 . S
C733 C732 1.334 . S
C733 C734 1.287 . S
C734 C733 1.287 . S
C734 C735 1.524 . S
C734 H753 0.913 . S
C735 H711 0.950 . S
C735 C734 1.524 . S
C735 C736 1.415 . S
C736 H712 0.950 . S
C736 C731 1.363 . S
C736 C735 1.415 . S
C737 H713 0.951 . S
C737 C738 1.366 . S
C737 C739 1.388 . S
C738 C737 1.366 . S
C738 C742 1.385 . S
C739 H714 0.951 . S
C739 C737 1.388 . S
C739 C740 1.366 . S
C740 C739 1.366 . S
C740 C741 1.414 . S
C740 C743 1.499 . S
C741 H715 0.950 . S
C741 C740 1.414 . S
C741 C742 1.374 . S
C742 H716 0.950 . S
C742 C738 1.385 . S
C742 C741 1.374 . S
C743 C740 1.499 . S
C743 C744 1.373 . S
C743 C745 1.389 . S
C744 H717 0.950 . S
C744 C730 1.377 1_655 S
C744 C743 1.373 . S
C745 C729 1.377 1_655 S
C745 C743 1.389 . S
C745 C746 1.524 . S
C746 C745 1.524 . S
C746 C747 1.397 . S
C746 C751 1.363 . S
C747 H718 0.950 . S
C747 C746 1.397 . S
C747 C748 1.334 . S
C748 H719 0.950 . S
C748 C747 1.334 . S
C748 C749 1.287 . S
C749 C748 1.287 . S
C749 C750 1.524 . S
C749 H752 0.999 . S
C750 H720 0.950 . S
C750 C749 1.524 . S
C750 C751 1.415 . S
C751 H721 0.950 . S
C751 C746 1.363 . S
C751 C750 1.415 . S
H752 C749 0.999 . S
H753 C734 0.913 . S
H754 C772 0.951 . S
H755 C774 0.951 . S
H756 C776 0.950 . S
H757 C777 0.950 . S
H758 C779 0.950 . S
H759 C782 0.950 . S
H760 C783 0.950 . S
H761 C785 0.950 . S
H762 C786 0.950 . S
H763 C787 0.951 . S
H764 C789 0.951 . S
H765 C791 0.950 . S
H766 C792 0.950 . S
H767 C794 0.950 . S
H768 C797 0.950 . S
H769 C798 0.950 . S
H770 C800 0.950 . S
H771 C801 0.950 . S
C772 H754 0.951 . S
C772 C773 1.366 . S
C772 C774 1.388 . S
C773 C772 1.366 . S
C773 C777 1.385 . S
C774 H755 0.951 . S
C774 C772 1.388 . S
C774 C775 1.366 . S
C775 C774 1.366 . S
C775 C776 1.414 . S
C775 C778 1.499 . S
C776 H756 0.950 . S
C776 C775 1.414 . S
C776 C777 1.374 . S
C777 H757 0.950 . S
C777 C773 1.385 . S
C777 C776 1.374 . S
C778 C775 1.499 . S
C778 C779 1.373 1_545 S
C778 C780 1.389 . S
C779 H758 0.950 . S
C779 C778 1.373 1_565 S
C779 C795 1.377 . S
C780 C778 1.389 . S
C780 C781 1.524 . S
C780 C794 1.377 . S
C781 C780 1.524 . S
C781 C782 1.397 . S
C781 C786 1.363 . S
C782 H759 0.950 . S
C782 C781 1.397 . S
C782 C783 1.334 . S
C783 H760 0.950 . S
C783 C782 1.334 . S
C783 C784 1.287 . S
C784 C783 1.287 . S
C784 C785 1.524 . S
C784 H803 0.913 . S
C785 H761 0.950 . S
C785 C784 1.524 . S
C785 C786 1.415 . S
C786 H762 0.950 . S
C786 C781 1.363 . S
C786 C785 1.415 . S
C787 H763 0.951 . S
C787 C788 1.366 . S
C787 C789 1.388 . S
C788 C787 1.366 . S
C788 C792 1.385 . S
C789 H764 0.951 . S
C789 C787 1.388 . S
C789 C790 1.366 . S
C790 C789 1.366 . S
C790 C791 1.414 . S
C790 C793 1.499 . S
C791 H765 0.950 . S
C791 C790 1.414 . S
C791 C792 1.374 . S
C792 H766 0.950 . S
C792 C788 1.385 . S
C792 C791 1.374 . S
C793 C790 1.499 . S
C793 C794 1.373 1_565 S
C793 C795 1.389 . S
C794 H767 0.950 . S
C794 C780 1.377 . S
C794 C793 1.373 1_545 S
C795 C779 1.377 . S
C795 C793 1.389 . S
C795 C796 1.524 . S
C796 C795 1.524 . S
C796 C797 1.397 . S
C796 C801 1.363 . S
C797 H768 0.950 . S
C797 C796 1.397 . S
C797 C798 1.334 . S
C798 H769 0.950 . S
C798 C797 1.334 . S
C798 C799 1.287 . S
C799 C798 1.287 . S
C799 C800 1.524 . S
C799 H802 0.999 . S
C800 H770 0.950 . S
C800 C799 1.524 . S
C800 C801 1.415 . S
C801 H771 0.950 . S
C801 C796 1.363 . S
C801 C800 1.415 . S
H802 C799 0.999 . S
H803 C784 0.913 . S
H804 C822 0.951 . S
H805 C824 0.951 . S
H806 C826 0.950 . S
H807 C827 0.950 . S
H808 C829 0.950 . S
H809 C832 0.950 . S
H810 C833 0.950 . S
H811 C835 0.950 . S
H812 C836 0.950 . S
H813 C837 0.951 . S
H814 C839 0.951 . S
H815 C841 0.950 . S
H816 C842 0.950 . S
H817 C844 0.950 . S
H818 C847 0.950 . S
H819 C848 0.950 . S
H820 C850 0.950 . S
H821 C851 0.950 . S
C822 H804 0.951 . S
C822 C823 1.366 . S
C822 C824 1.388 . S
C823 C822 1.366 . S
C823 C827 1.385 . S
C824 H805 0.951 . S
C824 C822 1.388 . S
C824 C825 1.366 . S
C825 C824 1.366 . S
C825 C826 1.414 . S
C825 C828 1.499 . S
C826 H806 0.950 . S
C826 C825 1.414 . S
C826 C827 1.374 . S
C827 H807 0.950 . S
C827 C823 1.385 . S
C827 C826 1.374 . S
C828 C825 1.499 . S
C828 C829 1.373 . S
C828 C830 1.389 . S
C829 H808 0.950 . S
C829 C828 1.373 . S
C829 C845 1.377 . S
C830 C828 1.389 . S
C830 C831 1.524 . S
C830 C844 1.377 . S
C831 C830 1.524 . S
C831 C832 1.397 . S
C831 C836 1.363 . S
C832 H809 0.950 . S
C832 C831 1.397 . S
C832 C833 1.334 . S
C833 H810 0.950 . S
C833 C832 1.334 . S
C833 C834 1.287 . S
C834 C833 1.287 . S
C834 C835 1.524 . S
C834 H853 0.913 . S
C835 H811 0.950 . S
C835 C834 1.524 . S
C835 C836 1.415 . S
C836 H812 0.950 . S
C836 C831 1.363 . S
C836 C835 1.415 . S
C837 H813 0.951 . S
C837 C838 1.366 . S
C837 C839 1.388 . S
C838 C837 1.366 . S
C838 C842 1.385 . S
C839 H814 0.951 . S
C839 C837 1.388 . S
C839 C840 1.366 . S
C840 C839 1.366 . S
C840 C841 1.414 . S
C840 C843 1.499 . S
C841 H815 0.950 . S
C841 C840 1.414 . S
C841 C842 1.374 . S
C842 H816 0.950 . S
C842 C838 1.385 . S
C842 C841 1.374 . S
C843 C840 1.499 . S
C843 C844 1.373 . S
C843 C845 1.389 . S
C844 H817 0.950 . S
C844 C830 1.377 . S
C844 C843 1.373 . S
C845 C829 1.377 . S
C845 C843 1.389 . S
C845 C846 1.524 . S
C846 C845 1.524 . S
C846 C847 1.397 . S
C846 C851 1.363 . S
C847 H818 0.950 . S
C847 C846 1.397 . S
C847 C848 1.334 . S
C848 H819 0.950 . S
C848 C847 1.334 . S
C848 C849 1.287 . S
C849 C848 1.287 . S
C849 C850 1.524 . S
C849 H852 0.999 . S
C850 H820 0.950 . S
C850 C849 1.524 . S
C850 C851 1.415 . S
C851 H821 0.950 . S
C851 C846 1.363 . S
C851 C850 1.415 . S
H852 C849 0.999 . S
H853 C834 0.913 . S
H854 C872 0.951 . S
H855 C874 0.951 . S
H856 C876 0.950 . S
H857 C877 0.950 . S
H858 C879 0.950 . S
H859 C882 0.950 . S
H860 C883 0.950 . S
H861 C885 0.950 . S
H862 C886 0.950 . S
H863 C887 0.951 . S
H864 C889 0.951 . S
H865 C891 0.950 . S
H866 C892 0.950 . S
H867 C894 0.950 . S
H868 C897 0.950 . S
H869 C898 0.950 . S
H870 C900 0.950 . S
H871 C901 0.950 . S
C872 H854 0.951 . S
C872 C873 1.366 . S
C872 C874 1.388 1_554 S
C873 C872 1.366 . S
C873 C877 1.385 . S
C874 H855 0.951 . S
C874 C872 1.388 1_556 S
C874 C875 1.366 . S
C875 C874 1.366 . S
C875 C876 1.414 . S
C875 C878 1.499 . S
C876 H856 0.950 . S
C876 C875 1.414 . S
C876 C877 1.374 1_556 S
C877 H857 0.950 . S
C877 C873 1.385 . S
C877 C876 1.374 1_554 S
C878 C875 1.499 . S
C878 C879 1.373 . S
C878 C880 1.389 . S
C879 H858 0.950 . S
C879 C878 1.373 . S
C879 C895 1.377 . S
C880 C878 1.389 . S
C880 C881 1.524 . S
C880 C894 1.377 . S
C881 C880 1.524 . S
C881 C882 1.397 . S
C881 C886 1.363 . S
C882 H859 0.950 . S
C882 C881 1.397 . S
C882 C883 1.334 . S
C883 H860 0.950 . S
C883 C882 1.334 . S
C883 C884 1.287 . S
C884 C883 1.287 . S
C884 C885 1.524 . S
C884 H903 0.913 . S
C885 H861 0.950 . S
C885 C884 1.524 . S
C885 C886 1.415 . S
C886 H862 0.950 . S
C886 C881 1.363 . S
C886 C885 1.415 . S
C887 H863 0.951 . S
C887 C888 1.366 . S
C887 C889 1.388 . S
C888 C887 1.366 . S
C888 C892 1.385 . S
C889 H864 0.951 . S
C889 C887 1.388 . S
C889 C890 1.366 . S
C890 C889 1.366 . S
C890 C891 1.414 . S
C890 C893 1.499 . S
C891 H865 0.950 . S
C891 C890 1.414 . S
C891 C892 1.374 . S
C892 H866 0.950 . S
C892 C888 1.385 . S
C892 C891 1.374 . S
C893 C890 1.499 . S
C893 C894 1.373 . S
C893 C895 1.389 . S
C894 H867 0.950 . S
C894 C880 1.377 . S
C894 C893 1.373 . S
C895 C879 1.377 . S
C895 C893 1.389 . S
C895 C896 1.524 . S
C896 C895 1.524 . S
C896 C897 1.397 . S
C896 C901 1.363 . S
C897 H868 0.950 . S
C897 C896 1.397 . S
C897 C898 1.334 . S
C898 H869 0.950 . S
C898 C897 1.334 . S
C898 C899 1.287 . S
C899 C898 1.287 . S
C899 C900 1.524 . S
C899 H902 0.999 . S
C900 H870 0.950 . S
C900 C899 1.524 . S
C900 C901 1.415 . S
C901 H871 0.950 . S
C901 C896 1.363 . S
C901 C900 1.415 . S
H902 C899 0.999 . S
H903 C884 0.913 . S
H904 C922 0.951 . S
H905 C924 0.951 . S
H906 C926 0.950 . S
H907 C927 0.950 . S
H908 C929 0.950 . S
H909 C932 0.950 . S
H910 C933 0.950 . S
H911 C935 0.950 . S
H912 C936 0.950 . S
H913 C937 0.948 1_556 S
H914 C939 0.951 . S
H915 C941 0.950 . S
H916 C942 0.950 . S
H917 C944 0.950 . S
H918 C947 0.950 . S
H919 C948 0.950 . S
H920 C950 0.950 . S
H921 C951 0.950 . S
C922 H904 0.951 . S
C922 C923 1.366 . S
C922 C924 1.388 . S
C923 C922 1.366 . S
C923 C927 1.385 . S
C924 H905 0.951 . S
C924 C922 1.388 . S
C924 C925 1.366 . S
C925 C924 1.366 . S
C925 C926 1.414 . S
C925 C928 1.499 . S
C926 H906 0.950 . S
C926 C925 1.414 . S
C926 C927 1.374 . S
C927 H907 0.950 . S
C927 C923 1.385 . S
C927 C926 1.374 . S
C928 C925 1.499 . S
C928 C929 1.373 . S
C928 C930 1.389 . S
C929 H908 0.950 . S
C929 C928 1.373 . S
C929 C945 1.377 . S
C930 C928 1.389 . S
C930 C931 1.524 . S
C930 C944 1.377 . S
C931 C930 1.524 . S
C931 C932 1.397 . S
C931 C936 1.363 . S
C932 H909 0.950 . S
C932 C931 1.397 . S
C932 C933 1.334 . S
C933 H910 0.950 . S
C933 C932 1.334 . S
C933 C934 1.287 . S
C934 C933 1.287 . S
C934 C935 1.524 . S
C934 H953 0.913 . S
C935 H911 0.950 . S
C935 C934 1.524 . S
C935 C936 1.415 . S
C936 H912 0.950 . S
C936 C931 1.363 . S
C936 C935 1.415 . S
C937 H913 0.948 1_554 S
C937 C938 1.363 1_554 S
C937 C939 1.393 . S
C938 C937 1.363 1_556 S
C938 C942 1.385 . S
C939 H914 0.951 . S
C939 C937 1.393 . S
C939 C940 1.366 . S
C940 C939 1.366 . S
C940 C941 1.414 . S
C940 C943 1.499 . S
C941 H915 0.950 . S
C941 C940 1.414 . S
C941 C942 1.374 1_554 S
C942 H916 0.950 . S
C942 C938 1.385 . S
C942 C941 1.374 1_556 S
C943 C940 1.499 . S
C943 C944 1.373 . S
C943 C945 1.389 . S
C944 H917 0.950 . S
C944 C930 1.377 . S
C944 C943 1.373 . S
C945 C929 1.377 . S
C945 C943 1.389 . S
C945 C946 1.524 . S
C946 C945 1.524 . S
C946 C947 1.397 . S
C946 C951 1.363 . S
C947 H918 0.950 . S
C947 C946 1.397 . S
C947 C948 1.334 . S
C948 H919 0.950 . S
C948 C947 1.334 . S
C948 C949 1.287 . S
C949 C948 1.287 . S
C949 C950 1.524 . S
C949 H952 0.999 . S
C950 H920 0.950 . S
C950 C949 1.524 . S
C950 C951 1.415 . S
C951 H921 0.950 . S
C951 C946 1.363 . S
C951 C950 1.415 . S
H952 C949 0.999 . S
H953 C934 0.913 . S
H954 C972 0.951 . S
H955 C974 0.951 . S
H956 C976 0.950 . S
H957 C977 0.950 . S
H958 C979 0.950 . S
H959 C982 0.950 . S
H960 C983 0.950 . S
H961 C985 0.950 . S
H962 C986 0.950 . S
H963 C987 0.951 . S
H964 C989 0.951 . S
H965 C991 0.950 . S
H966 C992 0.950 . S
H967 C994 0.950 . S
H968 C997 0.950 . S
H969 C998 0.950 . S
H970 C1000 0.950 . S
H971 C1001 0.950 . S
C972 H954 0.951 . S
C972 C973 1.366 . S
C972 C974 1.388 . S
C973 C972 1.366 . S
C973 C977 1.385 . S
C974 H955 0.951 . S
C974 C972 1.388 . S
C974 C975 1.366 . S
C975 C974 1.366 . S
C975 C976 1.414 . S
C975 C978 1.499 . S
C976 H956 0.950 . S
C976 C975 1.414 . S
C976 C977 1.374 . S
C977 H957 0.950 . S
C977 C973 1.385 . S
C977 C976 1.374 . S
C978 C975 1.499 . S
C978 C979 1.373 . S
C978 C980 1.389 . S
C979 H958 0.950 . S
C979 C978 1.373 . S
C979 C995 1.377 . S
C980 C978 1.389 . S
C980 C981 1.524 . S
C980 C994 1.377 . S
C981 C980 1.524 . S
C981 C982 1.397 . S
C981 C986 1.363 . S
C982 H959 0.950 . S
C982 C981 1.397 . S
C982 C983 1.334 . S
C983 H960 0.950 . S
C983 C982 1.334 . S
C983 C984 1.287 . S
C984 C983 1.287 . S
C984 C985 1.524 . S
C984 H1003 0.913 . S
C985 H961 0.950 . S
C985 C984 1.524 . S
C985 C986 1.415 . S
C986 H962 0.950 . S
C986 C981 1.363 . S
C986 C985 1.415 . S
C987 H963 0.951 . S
C987 C988 1.366 . S
C987 C989 1.388 . S
C988 C987 1.366 . S
C988 C992 1.385 . S
C989 H964 0.951 . S
C989 C987 1.388 . S
C989 C990 1.366 . S
C990 C989 1.366 . S
C990 C991 1.414 . S
C990 C993 1.499 . S
C991 H965 0.950 . S
C991 C990 1.414 . S
C991 C992 1.374 . S
C992 H966 0.950 . S
C992 C988 1.385 . S
C992 C991 1.374 . S
C993 C990 1.499 . S
C993 C994 1.373 . S
C993 C995 1.389 . S
C994 H967 0.950 . S
C994 C980 1.377 . S
C994 C993 1.373 . S
C995 C979 1.377 . S
C995 C993 1.389 . S
C995 C996 1.524 . S
C996 C995 1.524 . S
C996 C997 1.397 . S
C996 C1001 1.363 . S
C997 H968 0.950 . S
C997 C996 1.397 . S
C997 C998 1.334 . S
C998 H969 0.950 . S
C998 C997 1.334 . S
C998 C999 1.287 . S
C999 C998 1.287 . S
C999 C1000 1.524 . S
C999 H1002 0.999 . S
C1000 H970 0.950 . S
C1000 C999 1.524 . S
C1000 C1001 1.415 . S
C1001 H971 0.950 . S
C1001 C996 1.363 . S
C1001 C1000 1.415 . S
H1002 C999 0.999 . S
H1003 C984 0.913 . S
H1004 C1022 0.951 . S
H1005 C1024 0.951 . S
H1006 C1026 0.950 . S
H1007 C1027 0.950 . S
H1008 C1029 0.950 . S
H1009 C1032 0.950 . S
H1010 C1033 0.950 . S
H1011 C1035 0.950 . S
H1012 C1036 0.950 . S
H1013 C1037 0.951 . S
H1014 C1039 0.951 . S
H1015 C1041 0.950 . S
H1016 C1042 0.950 . S
H1017 C1044 0.950 . S
H1018 C1047 0.950 . S
H1019 C1048 0.950 . S
H1020 C1050 0.950 . S
H1021 C1051 0.950 . S
C1022 H1004 0.951 . S
C1022 C1023 1.366 . S
C1022 C1024 1.388 . S
C1023 C1022 1.366 . S
C1023 C1027 1.385 . S
C1024 H1005 0.951 . S
C1024 C1022 1.388 . S
C1024 C1025 1.366 . S
C1025 C1024 1.366 . S
C1025 C1026 1.414 . S
C1025 C1028 1.499 . S
C1026 H1006 0.950 . S
C1026 C1025 1.414 . S
C1026 C1027 1.374 . S
C1027 H1007 0.950 . S
C1027 C1023 1.385 . S
C1027 C1026 1.374 . S
C1028 C1025 1.499 . S
C1028 C1029 1.373 . S
C1028 C1030 1.389 . S
C1029 H1008 0.950 . S
C1029 C1028 1.373 . S
C1029 C1045 1.377 . S
C1030 C1028 1.389 . S
C1030 C1031 1.524 . S
C1030 C1044 1.377 . S
C1031 C1030 1.524 . S
C1031 C1032 1.397 . S
C1031 C1036 1.363 . S
C1032 H1009 0.950 . S
C1032 C1031 1.397 . S
C1032 C1033 1.334 . S
C1033 H1010 0.950 . S
C1033 C1032 1.334 . S
C1033 C1034 1.287 . S
C1034 C1033 1.287 . S
C1034 C1035 1.524 . S
C1034 H1053 0.913 . S
C1035 H1011 0.950 . S
C1035 C1034 1.524 . S
C1035 C1036 1.415 . S
C1036 H1012 0.950 . S
C1036 C1031 1.363 . S
C1036 C1035 1.415 . S
C1037 H1013 0.951 . S
C1037 C1038 1.366 . S
C1037 C1039 1.388 1_554 S
C1038 C1037 1.366 . S
C1038 C1042 1.385 . S
C1039 H1014 0.951 . S
C1039 C1037 1.388 1_556 S
C1039 C1040 1.366 . S
C1040 C1039 1.366 . S
C1040 C1041 1.414 . S
C1040 C1043 1.499 . S
C1041 H1015 0.950 . S
C1041 C1040 1.414 . S
C1041 C1042 1.374 1_556 S
C1042 H1016 0.950 . S
C1042 C1038 1.385 . S
C1042 C1041 1.374 1_554 S
C1043 C1040 1.499 . S
C1043 C1044 1.373 . S
C1043 C1045 1.389 . S
C1044 H1017 0.950 . S
C1044 C1030 1.377 . S
C1044 C1043 1.373 . S
C1045 C1029 1.377 . S
C1045 C1043 1.389 . S
C1045 C1046 1.524 . S
C1046 C1045 1.524 . S
C1046 C1047 1.397 . S
C1046 C1051 1.363 . S
C1047 H1018 0.950 . S
C1047 C1046 1.397 . S
C1047 C1048 1.334 . S
C1048 H1019 0.950 . S
C1048 C1047 1.334 . S
C1048 C1049 1.287 . S
C1049 C1048 1.287 . S
C1049 C1050 1.524 . S
C1049 H1052 0.999 . S
C1050 H1020 0.950 . S
C1050 C1049 1.524 . S
C1050 C1051 1.415 . S
C1051 H1021 0.950 . S
C1051 C1046 1.363 . S
C1051 C1050 1.415 . S
H1052 C1049 0.999 . S
H1053 C1034 0.913 . S
H1054 C1072 0.951 . S
H1055 C1074 0.951 . S
H1056 C1076 0.950 . S
H1057 C1077 0.950 . S
H1058 C1079 0.950 . S
H1059 C1082 0.950 . S
H1060 C1083 0.950 . S
H1061 C1085 0.950 . S
H1062 C1086 0.950 . S
H1063 C1087 0.951 1_556 S
H1064 C1089 0.951 . S
H1065 C1091 0.950 . S
H1066 C1092 0.950 1_556 S
H1067 C1094 0.950 . S
H1068 C1097 0.950 . S
H1069 C1098 0.950 . S
H1070 C1100 0.950 . S
H1071 C1101 0.950 . S
C1072 H1054 0.951 . S
C1072 C1073 1.366 . S
C1072 C1074 1.388 . S
C1073 C1072 1.366 . S
C1073 C1077 1.385 . S
C1074 H1055 0.951 . S
C1074 C1072 1.388 . S
C1074 C1075 1.366 . S
C1075 C1074 1.366 . S
C1075 C1076 1.414 . S
C1075 C1078 1.499 . S
C1076 H1056 0.950 . S
C1076 C1075 1.414 . S
C1076 C1077 1.374 . S
C1077 H1057 0.950 . S
C1077 C1073 1.385 . S
C1077 C1076 1.374 . S
C1078 C1075 1.499 . S
C1078 C1079 1.373 . S
C1078 C1080 1.389 . S
C1079 H1058 0.950 . S
C1079 C1078 1.373 . S
C1079 C1095 1.377 . S
C1080 C1078 1.389 . S
C1080 C1081 1.524 . S
C1080 C1094 1.377 . S
C1081 C1080 1.524 . S
C1081 C1082 1.397 . S
C1081 C1086 1.363 . S
C1082 H1059 0.950 . S
C1082 C1081 1.397 . S
C1082 C1083 1.334 . S
C1083 H1060 0.950 . S
C1083 C1082 1.334 . S
C1083 C1084 1.287 . S
C1084 C1083 1.287 . S
C1084 C1085 1.524 . S
C1084 H1103 0.913 . S
C1085 H1061 0.950 . S
C1085 C1084 1.524 . S
C1085 C1086 1.415 . S
C1086 H1062 0.950 . S
C1086 C1081 1.363 . S
C1086 C1085 1.415 . S
C1087 H1063 0.951 1_554 S
C1087 C1088 1.366 1_554 S
C1087 C1089 1.388 . S
C1088 C1087 1.366 1_556 S
C1088 C1092 1.385 1_556 S
C1089 H1064 0.951 . S
C1089 C1087 1.388 . S
C1089 C1090 1.366 . S
C1090 C1089 1.366 . S
C1090 C1091 1.414 . S
C1090 C1093 1.499 . S
C1091 H1065 0.950 . S
C1091 C1090 1.414 . S
C1091 C1092 1.374 . S
C1092 H1066 0.950 1_554 S
C1092 C1088 1.385 1_554 S
C1092 C1091 1.374 . S
C1093 C1090 1.499 . S
C1093 C1094 1.373 . S
C1093 C1095 1.389 . S
C1094 H1067 0.950 . S
C1094 C1080 1.377 . S
C1094 C1093 1.373 . S
C1095 C1079 1.377 . S
C1095 C1093 1.389 . S
C1095 C1096 1.524 . S
C1096 C1095 1.524 . S
C1096 C1097 1.397 . S
C1096 C1101 1.363 . S
C1097 H1068 0.950 . S
C1097 C1096 1.397 . S
C1097 C1098 1.334 . S
C1098 H1069 0.950 . S
C1098 C1097 1.334 . S
C1098 C1099 1.287 . S
C1099 C1098 1.287 . S
C1099 C1100 1.524 . S
C1099 H1102 0.999 . S
C1100 H1070 0.950 . S
C1100 C1099 1.524 . S
C1100 C1101 1.415 . S
C1101 H1071 0.950 . S
C1101 C1096 1.363 . S
C1101 C1100 1.415 . S
H1102 C1099 0.999 . S
H1103 C1084 0.913 . S
H1104 C1122 0.951 . S
H1105 C1124 0.951 . S
H1106 C1126 0.950 . S
H1107 C1127 0.950 . S
H1108 C1129 0.950 . S
H1109 C1132 0.950 . S
H1110 C1133 0.950 . S
H1111 C1135 0.950 . S
H1112 C1136 0.950 . S
H1113 C1137 0.951 . S
H1114 C1139 0.951 . S
H1115 C1141 0.950 . S
H1116 C1142 0.950 . S
H1117 C1144 0.950 . S
H1118 C1147 0.950 . S
H1119 C1148 0.950 . S
H1120 C1150 0.950 . S
H1121 C1151 0.950 . S
C1122 H1104 0.951 . S
C1122 C1123 1.366 . S
C1122 C1124 1.388 . S
C1123 C1122 1.366 . S
C1123 C1127 1.385 . S
C1124 H1105 0.951 . S
C1124 C1122 1.388 . S
C1124 C1125 1.366 . S
C1125 C1124 1.366 . S
C1125 C1126 1.414 . S
C1125 C1128 1.499 . S
C1126 H1106 0.950 . S
C1126 C1125 1.414 . S
C1126 C1127 1.374 . S
C1127 H1107 0.950 . S
C1127 C1123 1.385 . S
C1127 C1126 1.374 . S
C1128 C1125 1.499 . S
C1128 C1129 1.373 . S
C1128 C1130 1.389 . S
C1129 H1108 0.950 . S
C1129 C1128 1.373 . S
C1129 C1145 1.377 . S
C1130 C1128 1.389 . S
C1130 C1131 1.524 . S
C1130 C1144 1.377 . S
C1131 C1130 1.524 . S
C1131 C1132 1.397 . S
C1131 C1136 1.363 . S
C1132 H1109 0.950 . S
C1132 C1131 1.397 . S
C1132 C1133 1.334 . S
C1133 H1110 0.950 . S
C1133 C1132 1.334 . S
C1133 C1134 1.287 . S
C1134 C1133 1.287 . S
C1134 C1135 1.524 . S
C1134 H1153 0.913 . S
C1135 H1111 0.950 . S
C1135 C1134 1.524 . S
C1135 C1136 1.415 . S
C1136 H1112 0.950 . S
C1136 C1131 1.363 . S
C1136 C1135 1.415 . S
C1137 H1113 0.951 . S
C1137 C1138 1.366 . S
C1137 C1139 1.388 . S
C1138 C1137 1.366 . S
C1138 C1142 1.385 . S
C1139 H1114 0.951 . S
C1139 C1137 1.388 . S
C1139 C1140 1.366 . S
C1140 C1139 1.366 . S
C1140 C1141 1.414 . S
C1140 C1143 1.499 . S
C1141 H1115 0.950 . S
C1141 C1140 1.414 . S
C1141 C1142 1.374 . S
C1142 H1116 0.950 . S
C1142 C1138 1.385 . S
C1142 C1141 1.374 . S
C1143 C1140 1.499 . S
C1143 C1144 1.373 . S
C1143 C1145 1.389 . S
C1144 H1117 0.950 . S
C1144 C1130 1.377 . S
C1144 C1143 1.373 . S
C1145 C1129 1.377 . S
C1145 C1143 1.389 . S
C1145 C1146 1.524 . S
C1146 C1145 1.524 . S
C1146 C1147 1.397 . S
C1146 C1151 1.363 . S
C1147 H1118 0.950 . S
C1147 C1146 1.397 . S
C1147 C1148 1.334 . S
C1148 H1119 0.950 . S
C1148 C1147 1.334 . S
C1148 C1149 1.287 . S
C1149 C1148 1.287 . S
C1149 C1150 1.524 . S
C1149 H1152 0.999 . S
C1150 H1120 0.950 . S
C1150 C1149 1.524 . S
C1150 C1151 1.415 . S
C1151 H1121 0.950 . S
C1151 C1146 1.363 . S
C1151 C1150 1.415 . S
H1152 C1149 0.999 . S
H1153 C1134 0.913 . S
H1154 C1172 0.951 . S
H1155 C1174 0.951 . S
H1156 C1176 0.950 . S
H1157 C1177 0.950 . S
H1158 C1179 0.950 . S
H1159 C1182 0.950 . S
H1160 C1183 0.950 . S
H1161 C1185 0.950 . S
H1162 C1186 0.950 . S
H1163 C1187 0.951 . S
H1164 C1189 0.951 . S
H1165 C1191 0.950 . S
H1166 C1192 0.950 . S
H1167 C1194 0.950 . S
H1168 C1197 0.950 . S
H1169 C1198 0.950 . S
H1170 C1200 0.950 . S
H1171 C1201 0.950 . S
C1172 H1154 0.951 . S
C1172 C1173 1.366 . S
C1172 C1174 1.388 . S
C1173 C1172 1.366 . S
C1173 C1177 1.385 . S
C1174 H1155 0.951 . S
C1174 C1172 1.388 . S
C1174 C1175 1.366 . S
C1175 C1174 1.366 . S
C1175 C1176 1.414 . S
C1175 C1178 1.499 . S
C1176 H1156 0.950 . S
C1176 C1175 1.414 . S
C1176 C1177 1.374 . S
C1177 H1157 0.950 . S
C1177 C1173 1.385 . S
C1177 C1176 1.374 . S
C1178 C1175 1.499 . S
C1178 C1179 1.373 . S
C1178 C1180 1.389 . S
C1179 H1158 0.950 . S
C1179 C1178 1.373 . S
C1179 C1195 1.377 . S
C1180 C1178 1.389 . S
C1180 C1181 1.524 . S
C1180 C1194 1.377 . S
C1181 C1180 1.524 . S
C1181 C1182 1.397 . S
C1181 C1186 1.363 . S
C1182 H1159 0.950 . S
C1182 C1181 1.397 . S
C1182 C1183 1.334 . S
C1183 H1160 0.950 . S
C1183 C1182 1.334 . S
C1183 C1184 1.287 . S
C1184 C1183 1.287 . S
C1184 C1185 1.524 . S
C1184 H1203 0.913 . S
C1185 H1161 0.950 . S
C1185 C1184 1.524 . S
C1185 C1186 1.415 . S
C1186 H1162 0.950 . S
C1186 C1181 1.363 . S
C1186 C1185 1.415 . S
C1187 H1163 0.951 . S
C1187 C1188 1.366 . S
C1187 C1189 1.388 . S
C1188 C1187 1.366 . S
C1188 C1192 1.385 . S
C1189 H1164 0.951 . S
C1189 C1187 1.388 . S
C1189 C1190 1.366 . S
C1190 C1189 1.366 . S
C1190 C1191 1.414 . S
C1190 C1193 1.499 . S
C1191 H1165 0.950 . S
C1191 C1190 1.414 . S
C1191 C1192 1.374 . S
C1192 H1166 0.950 . S
C1192 C1188 1.385 . S
C1192 C1191 1.374 . S
C1193 C1190 1.499 . S
C1193 C1194 1.373 . S
C1193 C1195 1.389 . S
C1194 H1167 0.950 . S
C1194 C1180 1.377 . S
C1194 C1193 1.373 . S
C1195 C1179 1.377 . S
C1195 C1193 1.389 . S
C1195 C1196 1.524 . S
C1196 C1195 1.524 . S
C1196 C1197 1.397 . S
C1196 C1201 1.363 . S
C1197 H1168 0.950 . S
C1197 C1196 1.397 . S
C1197 C1198 1.334 . S
C1198 H1169 0.950 . S
C1198 C1197 1.334 . S
C1198 C1199 1.287 . S
C1199 C1198 1.287 . S
C1199 C1200 1.524 . S
C1199 H1202 0.999 . S
C1200 H1170 0.950 . S
C1200 C1199 1.524 . S
C1200 C1201 1.415 . S
C1201 H1171 0.950 . S
C1201 C1196 1.363 . S
C1201 C1200 1.415 . S
H1202 C1199 0.999 . S
H1203 C1184 0.913 . S
H1204 C1222 0.951 . S
H1205 C1224 0.951 . S
H1206 C1226 0.950 . S
H1207 C1227 0.950 . S
H1208 C1229 0.950 . S
H1209 C1232 0.950 . S
H1210 C1233 0.950 . S
H1211 C1235 0.950 . S
H1212 C1236 0.950 . S
H1213 C1237 0.951 . S
H1214 C1239 0.951 . S
H1215 C1241 0.950 . S
H1216 C1242 0.950 . S
H1217 C1244 0.950 . S
H1218 C1247 0.950 . S
H1219 C1248 0.950 . S
H1220 C1250 0.950 . S
H1221 C1251 0.950 . S
C1222 H1204 0.951 . S
C1222 C1223 1.366 . S
C1222 C1224 1.388 . S
C1223 C1222 1.366 . S
C1223 C1227 1.385 . S
C1224 H1205 0.951 . S
C1224 C1222 1.388 . S
C1224 C1225 1.366 . S
C1225 C1224 1.366 . S
C1225 C1226 1.414 . S
C1225 C1228 1.499 . S
C1226 H1206 0.950 . S
C1226 C1225 1.414 . S
C1226 C1227 1.374 . S
C1227 H1207 0.950 . S
C1227 C1223 1.385 . S
C1227 C1226 1.374 . S
C1228 C1225 1.499 . S
C1228 C1229 1.373 . S
C1228 C1230 1.389 . S
C1229 H1208 0.950 . S
C1229 C1228 1.373 . S
C1229 C1245 1.377 . S
C1230 C1228 1.389 . S
C1230 C1231 1.524 . S
C1230 C1244 1.377 . S
C1231 C1230 1.524 . S
C1231 C1232 1.397 . S
C1231 C1236 1.363 . S
C1232 H1209 0.950 . S
C1232 C1231 1.397 . S
C1232 C1233 1.334 . S
C1233 H1210 0.950 . S
C1233 C1232 1.334 . S
C1233 C1234 1.287 . S
C1234 C1233 1.287 . S
C1234 C1235 1.524 . S
C1234 H1253 0.913 . S
C1235 H1211 0.950 . S
C1235 C1234 1.524 . S
C1235 C1236 1.415 . S
C1236 H1212 0.950 . S
C1236 C1231 1.363 . S
C1236 C1235 1.415 . S
C1237 H1213 0.951 . S
C1237 C1238 1.366 . S
C1237 C1239 1.388 . S
C1238 C1237 1.366 . S
C1238 C1242 1.385 . S
C1239 H1214 0.951 . S
C1239 C1237 1.388 . S
C1239 C1240 1.366 . S
C1240 C1239 1.366 . S
C1240 C1241 1.414 . S
C1240 C1243 1.499 . S
C1241 H1215 0.950 . S
C1241 C1240 1.414 . S
C1241 C1242 1.374 . S
C1242 H1216 0.950 . S
C1242 C1238 1.385 . S
C1242 C1241 1.374 . S
C1243 C1240 1.499 . S
C1243 C1244 1.373 . S
C1243 C1245 1.389 . S
C1244 H1217 0.950 . S
C1244 C1230 1.377 . S
C1244 C1243 1.373 . S
C1245 C1229 1.377 . S
C1245 C1243 1.389 . S
C1245 C1246 1.524 . S
C1246 C1245 1.524 . S
C1246 C1247 1.397 . S
C1246 C1251 1.363 . S
C1247 H1218 0.950 . S
C1247 C1246 1.397 . S
C1247 C1248 1.334 . S
C1248 H1219 0.950 . S
C1248 C1247 1.334 . S
C1248 C1249 1.287 . S
C1249 C1248 1.287 . S
C1249 C1250 1.524 . S
C1249 H1252 0.999 . S
C1250 H1220 0.950 . S
C1250 C1249 1.524 . S
C1250 C1251 1.415 . S
C1251 H1221 0.950 . S
C1251 C1246 1.363 . S
C1251 C1250 1.415 . S
H1252 C1249 0.999 . S
H1253 C1234 0.913 . S
H1254 C1272 0.951 . S
H1255 C1274 0.951 . S
H1256 C1276 0.950 . S
H1257 C1277 0.950 . S
H1258 C1279 0.950 . S
H1259 C1282 0.950 . S
H1260 C1283 0.950 . S
H1261 C1285 0.950 . S
H1262 C1286 0.950 . S
H1263 C1287 0.951 . S
H1264 C1289 0.951 . S
H1265 C1291 0.950 . S
H1266 C1292 0.950 . S
H1267 C1294 0.950 . S
H1268 C1297 0.950 . S
H1269 C1298 0.950 . S
H1270 C1300 0.950 . S
H1271 C1301 0.950 . S
C1272 H1254 0.951 . S
C1272 C1273 1.366 . S
C1272 C1274 1.388 . S
C1273 C1272 1.366 . S
C1273 C1277 1.385 . S
C1274 H1255 0.951 . S
C1274 C1272 1.388 . S
C1274 C1275 1.366 . S
C1275 C1274 1.366 . S
C1275 C1276 1.414 . S
C1275 C1278 1.499 . S
C1276 H1256 0.950 . S
C1276 C1275 1.414 . S
C1276 C1277 1.374 . S
C1277 H1257 0.950 . S
C1277 C1273 1.385 . S
C1277 C1276 1.374 . S
C1278 C1275 1.499 . S
C1278 C1279 1.373 . S
C1278 C1280 1.389 . S
C1279 H1258 0.950 . S
C1279 C1278 1.373 . S
C1279 C1295 1.377 . S
C1280 C1278 1.389 . S
C1280 C1281 1.524 . S
C1280 C1294 1.377 . S
C1281 C1280 1.524 . S
C1281 C1282 1.397 . S
C1281 C1286 1.363 . S
C1282 H1259 0.950 . S
C1282 C1281 1.397 . S
C1282 C1283 1.334 . S
C1283 H1260 0.950 . S
C1283 C1282 1.334 . S
C1283 C1284 1.287 . S
C1284 C1283 1.287 . S
C1284 C1285 1.524 . S
C1284 H1303 0.913 . S
C1285 H1261 0.950 . S
C1285 C1284 1.524 . S
C1285 C1286 1.415 . S
C1286 H1262 0.950 . S
C1286 C1281 1.363 . S
C1286 C1285 1.415 . S
C1287 H1263 0.951 . S
C1287 C1288 1.366 . S
C1287 C1289 1.388 . S
C1288 C1287 1.366 . S
C1288 C1292 1.385 . S
C1289 H1264 0.951 . S
C1289 C1287 1.388 . S
C1289 C1290 1.366 . S
C1290 C1289 1.366 . S
C1290 C1291 1.414 . S
C1290 C1293 1.499 . S
C1291 H1265 0.950 . S
C1291 C1290 1.414 . S
C1291 C1292 1.374 . S
C1292 H1266 0.950 . S
C1292 C1288 1.385 . S
C1292 C1291 1.374 . S
C1293 C1290 1.499 . S
C1293 C1294 1.373 . S
C1293 C1295 1.389 . S
C1294 H1267 0.950 . S
C1294 C1280 1.377 . S
C1294 C1293 1.373 . S
C1295 C1279 1.377 . S
C1295 C1293 1.389 . S
C1295 C1296 1.524 . S
C1296 C1295 1.524 . S
C1296 C1297 1.397 . S
C1296 C1301 1.363 . S
C1297 H1268 0.950 . S
C1297 C1296 1.397 . S
C1297 C1298 1.334 . S
C1298 H1269 0.950 . S
C1298 C1297 1.334 . S
C1298 C1299 1.287 . S
C1299 C1298 1.287 . S
C1299 C1300 1.524 . S
C1299 H1302 0.999 . S
C1300 H1270 0.950 . S
C1300 C1299 1.524 . S
C1300 C1301 1.415 . S
C1301 H1271 0.950 . S
C1301 C1296 1.363 . S
C1301 C1300 1.415 . S
H1302 C1299 0.999 . S
H1303 C1284 0.913 . S
H1304 C1322 0.951 . S
H1305 C1324 0.951 . S
H1306 C1326 0.950 . S
H1307 C1327 0.950 . S
H1308 C1329 0.950 . S
H1309 C1332 0.950 . S
H1310 C1333 0.950 . S
H1311 C1335 0.950 . S
H1312 C1336 0.950 . S
H1313 C1337 0.951 . S
H1314 C1339 0.951 . S
H1315 C1341 0.950 . S
H1316 C1342 0.950 . S
H1317 C1344 0.950 . S
H1318 C1347 0.950 . S
H1319 C1348 0.950 . S
H1320 C1350 0.950 . S
H1321 C1351 0.950 . S
C1322 H1304 0.951 . S
C1322 C1323 1.366 . S
C1322 C1324 1.388 . S
C1323 C1322 1.366 . S
C1323 C1327 1.385 . S
C1324 H1305 0.951 . S
C1324 C1322 1.388 . S
C1324 C1325 1.366 . S
C1325 C1324 1.366 . S
C1325 C1326 1.414 . S
C1325 C1328 1.499 . S
C1326 H1306 0.950 . S
C1326 C1325 1.414 . S
C1326 C1327 1.374 . S
C1327 H1307 0.950 . S
C1327 C1323 1.385 . S
C1327 C1326 1.374 . S
C1328 C1325 1.499 . S
C1328 C1329 1.373 . S
C1328 C1330 1.389 . S
C1329 H1308 0.950 . S
C1329 C1328 1.373 . S
C1329 C1345 1.377 . S
C1330 C1328 1.389 . S
C1330 C1331 1.524 . S
C1330 C1344 1.377 . S
C1331 C1330 1.524 . S
C1331 C1332 1.397 . S
C1331 C1336 1.363 . S
C1332 H1309 0.950 . S
C1332 C1331 1.397 . S
C1332 C1333 1.334 . S
C1333 H1310 0.950 . S
C1333 C1332 1.334 . S
C1333 C1334 1.287 . S
C1334 C1333 1.287 . S
C1334 C1335 1.524 . S
C1334 H1353 0.913 . S
C1335 H1311 0.950 . S
C1335 C1334 1.524 . S
C1335 C1336 1.415 . S
C1336 H1312 0.950 . S
C1336 C1331 1.363 . S
C1336 C1335 1.415 . S
C1337 H1313 0.951 . S
C1337 C1338 1.366 . S
C1337 C1339 1.388 . S
C1338 C1337 1.366 . S
C1338 C1342 1.385 . S
C1339 H1314 0.951 . S
C1339 C1337 1.388 . S
C1339 C1340 1.366 . S
C1340 C1339 1.366 . S
C1340 C1341 1.414 . S
C1340 C1343 1.499 . S
C1341 H1315 0.950 . S
C1341 C1340 1.414 . S
C1341 C1342 1.374 . S
C1342 H1316 0.950 . S
C1342 C1338 1.385 . S
C1342 C1341 1.374 . S
C1343 C1340 1.499 . S
C1343 C1344 1.373 . S
C1343 C1345 1.389 . S
C1344 H1317 0.950 . S
C1344 C1330 1.377 . S
C1344 C1343 1.373 . S
C1345 C1329 1.377 . S
C1345 C1343 1.389 . S
C1345 C1346 1.524 . S
C1346 C1345 1.524 . S
C1346 C1347 1.397 . S
C1346 C1351 1.363 . S
C1347 H1318 0.950 . S
C1347 C1346 1.397 . S
C1347 C1348 1.334 . S
C1348 H1319 0.950 . S
C1348 C1347 1.334 . S
C1348 C1349 1.287 . S
C1349 C1348 1.287 . S
C1349 C1350 1.524 . S
C1349 H1352 0.999 . S
C1350 H1320 0.950 . S
C1350 C1349 1.524 . S
C1350 C1351 1.415 . S
C1351 H1321 0.950 . S
C1351 C1346 1.363 . S
C1351 C1350 1.415 . S
H1352 C1349 0.999 . S
H1353 C1334 0.913 . S
H1354 C1372 0.951 . S
H1355 C1374 0.951 . S
H1356 C1376 0.950 . S
H1357 C1377 0.950 . S
H1358 C1379 0.950 . S
H1359 C1382 0.950 . S
H1360 C1383 0.950 . S
H1361 C1385 0.950 . S
H1362 C1386 0.950 . S
H1363 C1387 0.951 . S
H1364 C1389 0.951 . S
H1365 C1391 0.950 . S
H1366 C1392 0.950 . S
H1367 C1394 0.950 . S
H1368 C1397 0.950 . S
H1369 C1398 0.950 . S
H1370 C1400 0.950 . S
H1371 C1401 0.950 . S
C1372 H1354 0.951 . S
C1372 C1373 1.366 . S
C1372 C1374 1.388 . S
C1373 C1372 1.366 . S
C1373 C1377 1.385 . S
C1374 H1355 0.951 . S
C1374 C1372 1.388 . S
C1374 C1375 1.366 . S
C1375 C1374 1.366 . S
C1375 C1376 1.414 . S
C1375 C1378 1.499 . S
C1376 H1356 0.950 . S
C1376 C1375 1.414 . S
C1376 C1377 1.374 . S
C1377 H1357 0.950 . S
C1377 C1373 1.385 . S
C1377 C1376 1.374 . S
C1378 C1375 1.499 . S
C1378 C1379 1.373 . S
C1378 C1380 1.389 . S
C1379 H1358 0.950 . S
C1379 C1378 1.373 . S
C1379 C1395 1.377 . S
C1380 C1378 1.389 . S
C1380 C1381 1.524 . S
C1380 C1394 1.377 . S
C1381 C1380 1.524 . S
C1381 C1382 1.397 . S
C1381 C1386 1.363 . S
C1382 H1359 0.950 . S
C1382 C1381 1.397 . S
C1382 C1383 1.334 . S
C1383 H1360 0.950 . S
C1383 C1382 1.334 . S
C1383 C1384 1.287 . S
C1384 C1383 1.287 . S
C1384 C1385 1.524 . S
C1384 H1403 0.913 . S
C1385 H1361 0.950 . S
C1385 C1384 1.524 . S
C1385 C1386 1.415 . S
C1386 H1362 0.950 . S
C1386 C1381 1.363 . S
C1386 C1385 1.415 . S
C1387 H1363 0.951 . S
C1387 C1388 1.366 . S
C1387 C1389 1.388 . S
C1388 C1387 1.366 . S
C1388 C1392 1.385 . S
C1389 H1364 0.951 . S
C1389 C1387 1.388 . S
C1389 C1390 1.366 . S
C1390 C1389 1.366 . S
C1390 C1391 1.414 . S
C1390 C1393 1.499 . S
C1391 H1365 0.950 . S
C1391 C1390 1.414 . S
C1391 C1392 1.374 . S
C1392 H1366 0.950 . S
C1392 C1388 1.385 . S
C1392 C1391 1.374 . S
C1393 C1390 1.499 . S
C1393 C1394 1.373 . S
C1393 C1395 1.389 . S
C1394 H1367 0.950 . S
C1394 C1380 1.377 . S
C1394 C1393 1.373 . S
C1395 C1379 1.377 . S
C1395 C1393 1.389 . S
C1395 C1396 1.524 . S
C1396 C1395 1.524 . S
C1396 C1397 1.397 . S
C1396 C1401 1.363 . S
C1397 H1368 0.950 . S
C1397 C1396 1.397 . S
C1397 C1398 1.334 . S
C1398 H1369 0.950 . S
C1398 C1397 1.334 . S
C1398 C1399 1.287 . S
C1399 C1398 1.287 . S
C1399 C1400 1.524 . S
C1399 H1402 0.999 . S
C1400 H1370 0.950 . S
C1400 C1399 1.524 . S
C1400 C1401 1.415 . S
C1401 H1371 0.950 . S
C1401 C1396 1.363 . S
C1401 C1400 1.415 . S
H1402 C1399 0.999 . S
H1403 C1384 0.913 . S
C523 C488 1.285 . S
C538 C68 1.285 . S
C573 C67 1.250 . S
C588 C151 1.250 . S
C623 C152 1.285 . S
C638 C236 1.285 . S
C673 C235 1.250 . S
C688 C319 1.250 . S
C723 C404 1.285 . S
C738 C320 1.285 . S
C773 C487 1.250 . S
C788 C403 1.251 . S
C823 C58 1.117 . S
C838 C70 1.117 . S
C873 C154 1.116 . S
C888 C142 1.116 . S
C923 C226 1.117 . S
C938 C238 1.117 . S
C973 C322 1.115 . S
C988 C310 1.115 . S
C1023 C406 1.115 . S
C1038 C394 1.115 . S
C1073 C490 1.116 . S
C1088 C478 1.116 . S
C1123 C56 1.582 . S
C1138 C391 1.597 . S
C1173 C139 1.597 . S
C1188 C476 1.581 . S
C1223 C55 1.597 . S
C1238 C224 1.581 . S
C1273 C140 1.582 . S
C1288 C307 1.597 . S
C1323 C392 1.582 . S
C1338 C223 1.597 . S
C1373 C308 1.581 . S
C1388 C475 1.597 . S
