# Generated by pormake.
# Topology lcv-a, (4)-cn, num edge types: 1
# Building blocks:
#     Node 0, Type 0, BuildingBlock: QUQFOY_clean_sbu_1, # of connection points: 4
#     Node 1, Type 0, BuildingBlock: QUQFOY_clean_sbu_1, # of connection points: 4
#     Node 2, Type 0, BuildingBlock: QUQFOY_clean_sbu_1, # of connection points: 4
#     Node 3, Type 0, BuildingBlock: QUQFOY_clean_sbu_1, # of connection points: 4
#     Node 4, Type 0, BuildingBlock: QUQFOY_clean_sbu_1, # of connection points: 4
#     Node 5, Type 0, BuildingBlock: QUQFOY_clean_sbu_1, # of connection points: 4
#     Node 6, Type 0, BuildingBlock: QUQFOY_clean_sbu_1, # of connection points: 4
#     Node 7, Type 0, BuildingBlock: QUQFOY_clean_sbu_1, # of connection points: 4
#     Node 8, Type 0, BuildingBlock: QUQFOY_clean_sbu_1, # of connection points: 4
#     Node 9, Type 0, BuildingBlock: QUQFOY_clean_sbu_1, # of connection points: 4
#     Node 10, Type 0, BuildingBlock: QUQFOY_clean_sbu_1, # of connection points: 4
#     Node 11, Type 0, BuildingBlock: QUQFOY_clean_sbu_1, # of connection points: 4
#     Node 12, Type 0, BuildingBlock: QUQFOY_clean_sbu_1, # of connection points: 4
#     Node 13, Type 0, BuildingBlock: QUQFOY_clean_sbu_1, # of connection points: 4
#     Node 14, Type 0, BuildingBlock: QUQFOY_clean_sbu_1, # of connection points: 4
#     Node 15, Type 0, BuildingBlock: QUQFOY_clean_sbu_1, # of connection points: 4
#     Node 16, Type 0, BuildingBlock: QUQFOY_clean_sbu_1, # of connection points: 4
#     Node 17, Type 0, BuildingBlock: QUQFOY_clean_sbu_1, # of connection points: 4
#     Node 18, Type 0, BuildingBlock: QUQFOY_clean_sbu_1, # of connection points: 4
#     Node 19, Type 0, BuildingBlock: QUQFOY_clean_sbu_1, # of connection points: 4
#     Node 20, Type 0, BuildingBlock: QUQFOY_clean_sbu_1, # of connection points: 4
#     Node 21, Type 0, BuildingBlock: QUQFOY_clean_sbu_1, # of connection points: 4
#     Node 22, Type 0, BuildingBlock: QUQFOY_clean_sbu_1, # of connection points: 4
#     Node 23, Type 0, BuildingBlock: QUQFOY_clean_sbu_1, # of connection points: 4
#     Node 24, Type 0, BuildingBlock: QUQFOY_clean_sbu_1, # of connection points: 4
#     Node 25, Type 0, BuildingBlock: QUQFOY_clean_sbu_1, # of connection points: 4
#     Node 26, Type 0, BuildingBlock: QUQFOY_clean_sbu_1, # of connection points: 4
#     Node 27, Type 0, BuildingBlock: QUQFOY_clean_sbu_1, # of connection points: 4
#     Node 28, Type 0, BuildingBlock: QUQFOY_clean_sbu_1, # of connection points: 4
#     Node 29, Type 0, BuildingBlock: QUQFOY_clean_sbu_1, # of connection points: 4
#     Node 30, Type 0, BuildingBlock: QUQFOY_clean_sbu_1, # of connection points: 4
#     Node 31, Type 0, BuildingBlock: QUQFOY_clean_sbu_1, # of connection points: 4
#     Node 32, Type 0, BuildingBlock: QUQFOY_clean_sbu_1, # of connection points: 4
#     Node 33, Type 0, BuildingBlock: QUQFOY_clean_sbu_1, # of connection points: 4
#     Node 34, Type 0, BuildingBlock: QUQFOY_clean_sbu_1, # of connection points: 4
#     Node 35, Type 0, BuildingBlock: QUQFOY_clean_sbu_1, # of connection points: 4
#     Node 36, Type 0, BuildingBlock: QUQFOY_clean_sbu_1, # of connection points: 4
#     Node 37, Type 0, BuildingBlock: QUQFOY_clean_sbu_1, # of connection points: 4
#     Node 38, Type 0, BuildingBlock: QUQFOY_clean_sbu_1, # of connection points: 4
#     Node 39, Type 0, BuildingBlock: QUQFOY_clean_sbu_1, # of connection points: 4
#     Node 40, Type 0, BuildingBlock: QUQFOY_clean_sbu_1, # of connection points: 4
#     Node 41, Type 0, BuildingBlock: QUQFOY_clean_sbu_1, # of connection points: 4
#     Node 42, Type 0, BuildingBlock: QUQFOY_clean_sbu_1, # of connection points: 4
#     Node 43, Type 0, BuildingBlock: QUQFOY_clean_sbu_1, # of connection points: 4
#     Node 44, Type 0, BuildingBlock: QUQFOY_clean_sbu_1, # of connection points: 4
#     Node 45, Type 0, BuildingBlock: QUQFOY_clean_sbu_1, # of connection points: 4
#     Node 46, Type 0, BuildingBlock: QUQFOY_clean_sbu_1, # of connection points: 4
#     Node 47, Type 0, BuildingBlock: QUQFOY_clean_sbu_1, # of connection points: 4
#     Edge 48, Type (0, 0), BuildingBlock: MIFKUJ_clean_linker_0, # of connection points: 2
#     Edge 49, Type (0, 0), BuildingBlock: MIFKUJ_clean_linker_0, # of connection points: 2
#     Edge 50, Type (0, 0), BuildingBlock: MIFKUJ_clean_linker_0, # of connection points: 2
#     Edge 51, Type (0, 0), BuildingBlock: MIFKUJ_clean_linker_0, # of connection points: 2
#     Edge 52, Type (0, 0), BuildingBlock: MIFKUJ_clean_linker_0, # of connection points: 2
#     Edge 53, Type (0, 0), BuildingBlock: MIFKUJ_clean_linker_0, # of connection points: 2
#     Edge 54, Type (0, 0), BuildingBlock: MIFKUJ_clean_linker_0, # of connection points: 2
#     Edge 55, Type (0, 0), BuildingBlock: MIFKUJ_clean_linker_0, # of connection points: 2
#     Edge 56, Type (0, 0), BuildingBlock: MIFKUJ_clean_linker_0, # of connection points: 2
#     Edge 57, Type (0, 0), BuildingBlock: MIFKUJ_clean_linker_0, # of connection points: 2
#     Edge 58, Type (0, 0), BuildingBlock: MIFKUJ_clean_linker_0, # of connection points: 2
#     Edge 59, Type (0, 0), BuildingBlock: MIFKUJ_clean_linker_0, # of connection points: 2
#     Edge 60, Type (0, 0), BuildingBlock: MIFKUJ_clean_linker_0, # of connection points: 2
#     Edge 61, Type (0, 0), BuildingBlock: MIFKUJ_clean_linker_0, # of connection points: 2
#     Edge 62, Type (0, 0), BuildingBlock: MIFKUJ_clean_linker_0, # of connection points: 2
#     Edge 63, Type (0, 0), BuildingBlock: MIFKUJ_clean_linker_0, # of connection points: 2
#     Edge 64, Type (0, 0), BuildingBlock: MIFKUJ_clean_linker_0, # of connection points: 2
#     Edge 65, Type (0, 0), BuildingBlock: MIFKUJ_clean_linker_0, # of connection points: 2
#     Edge 66, Type (0, 0), BuildingBlock: MIFKUJ_clean_linker_0, # of connection points: 2
#     Edge 67, Type (0, 0), BuildingBlock: MIFKUJ_clean_linker_0, # of connection points: 2
#     Edge 68, Type (0, 0), BuildingBlock: MIFKUJ_clean_linker_0, # of connection points: 2
#     Edge 69, Type (0, 0), BuildingBlock: MIFKUJ_clean_linker_0, # of connection points: 2
#     Edge 70, Type (0, 0), BuildingBlock: MIFKUJ_clean_linker_0, # of connection points: 2
#     Edge 71, Type (0, 0), BuildingBlock: MIFKUJ_clean_linker_0, # of connection points: 2
#     Edge 72, Type (0, 0), BuildingBlock: MIFKUJ_clean_linker_0, # of connection points: 2
#     Edge 73, Type (0, 0), BuildingBlock: MIFKUJ_clean_linker_0, # of connection points: 2
#     Edge 74, Type (0, 0), BuildingBlock: MIFKUJ_clean_linker_0, # of connection points: 2
#     Edge 75, Type (0, 0), BuildingBlock: MIFKUJ_clean_linker_0, # of connection points: 2
#     Edge 76, Type (0, 0), BuildingBlock: MIFKUJ_clean_linker_0, # of connection points: 2
#     Edge 77, Type (0, 0), BuildingBlock: MIFKUJ_clean_linker_0, # of connection points: 2
#     Edge 78, Type (0, 0), BuildingBlock: MIFKUJ_clean_linker_0, # of connection points: 2
#     Edge 79, Type (0, 0), BuildingBlock: MIFKUJ_clean_linker_0, # of connection points: 2
#     Edge 80, Type (0, 0), BuildingBlock: MIFKUJ_clean_linker_0, # of connection points: 2
#     Edge 81, Type (0, 0), BuildingBlock: MIFKUJ_clean_linker_0, # of connection points: 2
#     Edge 82, Type (0, 0), BuildingBlock: MIFKUJ_clean_linker_0, # of connection points: 2
#     Edge 83, Type (0, 0), BuildingBlock: MIFKUJ_clean_linker_0, # of connection points: 2
#     Edge 84, Type (0, 0), BuildingBlock: MIFKUJ_clean_linker_0, # of connection points: 2
#     Edge 85, Type (0, 0), BuildingBlock: MIFKUJ_clean_linker_0, # of connection points: 2
#     Edge 86, Type (0, 0), BuildingBlock: MIFKUJ_clean_linker_0, # of connection points: 2
#     Edge 87, Type (0, 0), BuildingBlock: MIFKUJ_clean_linker_0, # of connection points: 2
#     Edge 88, Type (0, 0), BuildingBlock: MIFKUJ_clean_linker_0, # of connection points: 2
#     Edge 89, Type (0, 0), BuildingBlock: MIFKUJ_clean_linker_0, # of connection points: 2
#     Edge 90, Type (0, 0), BuildingBlock: MIFKUJ_clean_linker_0, # of connection points: 2
#     Edge 91, Type (0, 0), BuildingBlock: MIFKUJ_clean_linker_0, # of connection points: 2
#     Edge 92, Type (0, 0), BuildingBlock: MIFKUJ_clean_linker_0, # of connection points: 2
#     Edge 93, Type (0, 0), BuildingBlock: MIFKUJ_clean_linker_0, # of connection points: 2
#     Edge 94, Type (0, 0), BuildingBlock: MIFKUJ_clean_linker_0, # of connection points: 2
#     Edge 95, Type (0, 0), BuildingBlock: MIFKUJ_clean_linker_0, # of connection points: 2
#     Edge 96, Type (0, 0), BuildingBlock: MIFKUJ_clean_linker_0, # of connection points: 2
#     Edge 97, Type (0, 0), BuildingBlock: MIFKUJ_clean_linker_0, # of connection points: 2
#     Edge 98, Type (0, 0), BuildingBlock: MIFKUJ_clean_linker_0, # of connection points: 2
#     Edge 99, Type (0, 0), BuildingBlock: MIFKUJ_clean_linker_0, # of connection points: 2
#     Edge 100, Type (0, 0), BuildingBlock: MIFKUJ_clean_linker_0, # of connection points: 2
#     Edge 101, Type (0, 0), BuildingBlock: MIFKUJ_clean_linker_0, # of connection points: 2
#     Edge 102, Type (0, 0), BuildingBlock: MIFKUJ_clean_linker_0, # of connection points: 2
#     Edge 103, Type (0, 0), BuildingBlock: MIFKUJ_clean_linker_0, # of connection points: 2
#     Edge 104, Type (0, 0), BuildingBlock: MIFKUJ_clean_linker_0, # of connection points: 2
#     Edge 105, Type (0, 0), BuildingBlock: MIFKUJ_clean_linker_0, # of connection points: 2
#     Edge 106, Type (0, 0), BuildingBlock: MIFKUJ_clean_linker_0, # of connection points: 2
#     Edge 107, Type (0, 0), BuildingBlock: MIFKUJ_clean_linker_0, # of connection points: 2
#     Edge 108, Type (0, 0), BuildingBlock: MIFKUJ_clean_linker_0, # of connection points: 2
#     Edge 109, Type (0, 0), BuildingBlock: MIFKUJ_clean_linker_0, # of connection points: 2
#     Edge 110, Type (0, 0), BuildingBlock: MIFKUJ_clean_linker_0, # of connection points: 2
#     Edge 111, Type (0, 0), BuildingBlock: MIFKUJ_clean_linker_0, # of connection points: 2
#     Edge 112, Type (0, 0), BuildingBlock: MIFKUJ_clean_linker_0, # of connection points: 2
#     Edge 113, Type (0, 0), BuildingBlock: MIFKUJ_clean_linker_0, # of connection points: 2
#     Edge 114, Type (0, 0), BuildingBlock: MIFKUJ_clean_linker_0, # of connection points: 2
#     Edge 115, Type (0, 0), BuildingBlock: MIFKUJ_clean_linker_0, # of connection points: 2
#     Edge 116, Type (0, 0), BuildingBlock: MIFKUJ_clean_linker_0, # of connection points: 2
#     Edge 117, Type (0, 0), BuildingBlock: MIFKUJ_clean_linker_0, # of connection points: 2
#     Edge 118, Type (0, 0), BuildingBlock: MIFKUJ_clean_linker_0, # of connection points: 2
#     Edge 119, Type (0, 0), BuildingBlock: MIFKUJ_clean_linker_0, # of connection points: 2
#     Edge 120, Type (0, 0), BuildingBlock: MIFKUJ_clean_linker_0, # of connection points: 2
#     Edge 121, Type (0, 0), BuildingBlock: MIFKUJ_clean_linker_0, # of connection points: 2
#     Edge 122, Type (0, 0), BuildingBlock: MIFKUJ_clean_linker_0, # of connection points: 2
#     Edge 123, Type (0, 0), BuildingBlock: MIFKUJ_clean_linker_0, # of connection points: 2
#     Edge 124, Type (0, 0), BuildingBlock: MIFKUJ_clean_linker_0, # of connection points: 2
#     Edge 125, Type (0, 0), BuildingBlock: MIFKUJ_clean_linker_0, # of connection points: 2
#     Edge 126, Type (0, 0), BuildingBlock: MIFKUJ_clean_linker_0, # of connection points: 2
#     Edge 127, Type (0, 0), BuildingBlock: MIFKUJ_clean_linker_0, # of connection points: 2
#     Edge 128, Type (0, 0), BuildingBlock: MIFKUJ_clean_linker_0, # of connection points: 2
#     Edge 129, Type (0, 0), BuildingBlock: MIFKUJ_clean_linker_0, # of connection points: 2
#     Edge 130, Type (0, 0), BuildingBlock: MIFKUJ_clean_linker_0, # of connection points: 2
#     Edge 131, Type (0, 0), BuildingBlock: MIFKUJ_clean_linker_0, # of connection points: 2
#     Edge 132, Type (0, 0), BuildingBlock: MIFKUJ_clean_linker_0, # of connection points: 2
#     Edge 133, Type (0, 0), BuildingBlock: MIFKUJ_clean_linker_0, # of connection points: 2
#     Edge 134, Type (0, 0), BuildingBlock: MIFKUJ_clean_linker_0, # of connection points: 2
#     Edge 135, Type (0, 0), BuildingBlock: MIFKUJ_clean_linker_0, # of connection points: 2
#     Edge 136, Type (0, 0), BuildingBlock: MIFKUJ_clean_linker_0, # of connection points: 2
#     Edge 137, Type (0, 0), BuildingBlock: MIFKUJ_clean_linker_0, # of connection points: 2
#     Edge 138, Type (0, 0), BuildingBlock: MIFKUJ_clean_linker_0, # of connection points: 2
#     Edge 139, Type (0, 0), BuildingBlock: MIFKUJ_clean_linker_0, # of connection points: 2
#     Edge 140, Type (0, 0), BuildingBlock: MIFKUJ_clean_linker_0, # of connection points: 2
#     Edge 141, Type (0, 0), BuildingBlock: MIFKUJ_clean_linker_0, # of connection points: 2
#     Edge 142, Type (0, 0), BuildingBlock: MIFKUJ_clean_linker_0, # of connection points: 2
#     Edge 143, Type (0, 0), BuildingBlock: MIFKUJ_clean_linker_0, # of connection points: 2
# Relax obj value: 0.765
# Max RMSD: 0.364
# Mean RMSD: 0.337
data_MOF--net-lcv-a--node1-QUQFOY_clean_sbu_1--edge1-MIFKUJ_clean_linker_0
_symmetry_space_group_name_H-M    P1
_symmetry_Int_Tables_number       1
_symmetry_cell_setting            triclinic
loop_
_symmetry_equiv_pos_as_xyz
'x, y, z'
_cell_length_a     118.42534
_cell_length_b     118.45045
_cell_length_c     118.57073
_cell_angle_alpha  89.486991
_cell_angle_beta   89.516943
_cell_angle_gamma 89.547864
loop_
_atom_site_label
_atom_site_type_symbol
_atom_site_fract_x
_atom_site_fract_y
_atom_site_fract_z
_atom_type_partial_charge
O0 O 0.98312 0.33983 0.23083 0.0
Cd1 Cd 0.99764 0.34567 0.22367 0.0
Cd2 Cd 0.98673 0.31929 0.23032 0.0
O3 O 0.97149 0.32696 0.22639 0.0
O4 O 0.99444 0.36113 0.21803 0.0
O5 O 0.00546 0.35785 0.23266 0.0
C6 C 1.00013 0.36502 0.22632 0.0
C7 C 0.99521 0.3143 0.24691 0.0
C8 C 0.97501 0.33687 0.22464 0.0
C9 C 0.00434 0.32376 0.21067 0.0
O10 O 0.99759 0.31792 0.21677 0.0
O11 O 0.00574 0.33441 0.21218 0.0
O12 O 0.98899 0.30713 0.24165 0.0
O13 O 0.9953 0.32468 0.24342 0.0
O14 O 0.99177 0.73151 0.46561 0.0
Cd15 Cd 0.99279 0.74655 0.47351 0.0
Cd16 Cd 0.01063 0.73416 0.47999 0.0
O17 O 0.00314 0.71971 0.47457 0.0
O18 O 0.97748 0.75321 0.46997 0.0
O19 O 0.98166 0.74674 0.48684 0.0
C20 C 0.97408 0.75038 0.47991 0.0
C21 C 0.01463 0.74106 0.49736 0.0
C22 C 0.99546 0.72157 0.46738 0.0
C23 C 0.01555 0.75288 0.46371 0.0
O24 O 0.01861 0.74332 0.4676 0.0
O25 O 0.0057 0.75681 0.46614 0.0
O26 O 0.02112 0.73346 0.49285 0.0
O27 O 0.00504 0.74336 0.49266 0.0
O28 O 0.60037 0.74132 0.70964 0.0
Cd29 Cd 0.58506 0.74154 0.71761 0.0
Cd30 Cd 0.59561 0.76189 0.72204 0.0
O31 O 0.61067 0.75541 0.71583 0.0
O32 O 0.57973 0.72561 0.71474 0.0
O33 O 0.58504 0.73134 0.7315 0.0
C34 C 0.58216 0.72314 0.72504 0.0
C35 C 0.58918 0.76526 0.74004 0.0
C36 C 0.60973 0.74648 0.71007 0.0
C37 C 0.57533 0.76293 0.70732 0.0
O38 O 0.5845 0.76764 0.71008 0.0
O39 O 0.57319 0.7528 0.71046 0.0
O40 O 0.59544 0.77261 0.73484 0.0
O41 O 0.5879 0.75548 0.73547 0.0
O42 O 0.58025 0.35498 0.97854 0.0
Cd43 Cd 0.58534 0.3396 0.97253 0.0
Cd44 Cd 0.55934 0.35071 0.97815 0.0
O45 O 0.56698 0.36543 0.97226 0.0
O46 O 0.60128 0.34125 0.96751 0.0
O47 O 0.59642 0.33196 0.9831 0.0
C48 C 0.60424 0.33631 0.97678 0.0
C49 C 0.55845 0.34111 0.9951 0.0
C50 C 0.57725 0.36249 0.97156 0.0
C51 C 0.56296 0.33181 0.96053 0.0
O52 O 0.55703 0.33927 0.96563 0.0
O53 O 0.57365 0.33058 0.96222 0.0
O54 O 0.54996 0.34732 0.99198 0.0
O55 O 0.56778 0.34192 0.98951 0.0
O56 O 0.9881 0.74319 0.36483 0.0
Cd57 Cd 0.00306 0.74349 0.35621 0.0
Cd58 Cd 0.99114 0.76119 0.34971 0.0
O59 O 0.97646 0.75377 0.35474 0.0
O60 O 0.00925 0.72777 0.3593 0.0
O61 O 0.00226 0.7327 0.34286 0.0
C62 C 0.00582 0.72475 0.3495 0.0
C63 C 0.99851 0.76668 0.33275 0.0
C64 C 0.97819 0.74675 0.36268 0.0
C65 C 0.00945 0.76567 0.36596 0.0
O66 O 0.9996 0.76837 0.36271 0.0
O67 O 0.01391 0.75632 0.36268 0.0
O68 O 0.99071 0.77271 0.33758 0.0
O69 O 1.00074 0.75673 0.3368 0.0
O70 O 0.57835 0.72276 0.60549 0.0
Cd71 Cd 0.58474 0.73646 0.61341 0.0
Cd72 Cd 0.55773 0.72659 0.60618 0.0
O73 O 0.56521 0.71111 0.6096 0.0
O74 O 0.60033 0.73333 0.619 0.0
O75 O 0.59676 0.74436 0.60424 0.0
C76 C 0.60408 0.73918 0.61053 0.0
C77 C 0.55298 0.73647 0.59035 0.0
C78 C 0.57525 0.71423 0.61122 0.0
C79 C 0.56247 0.74407 0.62552 0.0
O80 O 0.5566 0.73721 0.61978 0.0
O81 O 0.57317 0.74524 0.62396 0.0
O82 O 0.54564 0.72991 0.59516 0.0
O83 O 0.5634 0.73582 0.59349 0.0
O84 O 0.6097 0.33439 0.87287 0.0
Cd85 Cd 0.59473 0.33401 0.86445 0.0
Cd86 Cd 0.60548 0.31556 0.85867 0.0
O87 O 0.6204 0.32149 0.86477 0.0
O88 O 0.58921 0.3498 0.86701 0.0
O89 O 0.59449 0.34389 0.85023 0.0
C90 C 0.59148 0.35215 0.85665 0.0
C91 C 0.59959 0.30942 0.84151 0.0
C92 C 0.61916 0.32937 0.87186 0.0
C93 C 0.58642 0.31282 0.87519 0.0
O94 O 0.59552 0.30881 0.8711 0.0
O95 O 0.58329 0.32287 0.87256 0.0
O96 O 0.60668 0.30348 0.84738 0.0
O97 O 0.59738 0.31966 0.84462 0.0
O98 O 0.9944 0.35319 0.1191 0.0
Cd99 Cd 0.99445 0.33775 0.11168 0.0
Cd100 Cd 0.01241 0.34853 0.10309 0.0
O101 O 0.00547 0.36359 0.10823 0.0
O102 O 0.97912 0.33168 0.11609 0.0
O103 O 0.9832 0.33743 0.09883 0.0
C104 C 0.97567 0.33428 0.10611 0.0
C105 C 0.01392 0.33993 0.08571 0.0
C106 C 0.99843 0.36274 0.11633 0.0
C107 C 0.01743 0.33084 0.12011 0.0
O108 O 0.02065 0.34017 0.11589 0.0
O109 O 0.00757 0.32704 0.1179 0.0
O110 O 0.02131 0.34731 0.08872 0.0
O111 O 0.00515 0.33848 0.0921 0.0
O112 O 0.22177 0.98484 0.34477 0.0
Cd113 Cd 0.22789 1.00069 0.34331 0.0
Cd114 Cd 0.23401 0.98881 0.3248 0.0
O115 O 0.22947 0.9737 0.33209 0.0
O116 O 0.222 0.00536 0.35829 0.0
O117 O 0.2402 0.00418 0.35483 0.0
C118 C 0.2321 0.00528 0.36209 0.0
C119 C 0.2509 0.99716 0.32053 0.0
C120 C 0.22315 0.9751 0.34067 0.0
C121 C 0.21596 0.00656 0.32197 0.0
O122 O 0.22059 0.99759 0.31828 0.0
O123 O 0.21874 0.01046 0.33158 0.0
O124 O 0.24677 0.98964 0.31389 0.0
O125 O 0.24615 0.99864 0.33029 0.0
O126 O 0.35482 0.96883 0.59041 0.0
Cd127 Cd 0.33934 0.97661 0.59007 0.0
Cd128 Cd 0.34925 0.97984 0.56991 0.0
O129 O 0.36475 0.97566 0.57621 0.0
O130 O 0.33473 0.97322 0.60594 0.0
O131 O 0.33761 0.9906 0.59983 0.0
C132 C 0.33568 0.98377 0.60814 0.0
C133 C 0.34063 0.99654 0.56481 0.0
C134 C 0.36407 0.9694 0.58494 0.0
C135 C 0.33077 0.96332 0.57084 0.0
O136 O 0.34004 0.96588 0.56606 0.0
O137 O 0.32764 0.96823 0.57992 0.0
O138 O 0.34729 0.9914 0.55777 0.0
O139 O 0.34013 0.99285 0.57511 0.0
O140 O 0.3601 0.11267 0.82812 0.0
Cd141 Cd 0.36207 0.09649 0.83356 0.0
Cd142 Cd 0.3623 0.11052 0.80788 0.0
O143 O 0.36758 0.12468 0.81697 0.0
O144 O 0.36708 0.09738 0.84951 0.0
O145 O 0.35027 0.09097 0.8446 0.0
C146 C 0.35712 0.09402 0.85243 0.0
C147 C 0.34493 0.1043 0.80149 0.0
C148 C 0.36758 0.12019 0.82669 0.0
C149 C 0.37665 0.08881 0.81303 0.0
O150 O 0.37443 0.09788 0.80752 0.0
O151 O 0.37162 0.08612 0.82234 0.0
O152 O 0.35162 0.10998 0.79489 0.0
O153 O 0.3476 0.10335 0.812 0.0
O154 O 0.22648 0.10599 0.08613 0.0
Cd155 Cd 0.24028 0.11307 0.09347 0.0
Cd156 Cd 0.23176 0.1083 0.06553 0.0
O157 O 0.21581 0.11052 0.07233 0.0
O158 O 0.23759 0.11661 0.10995 0.0
O159 O 0.24785 0.10199 0.10433 0.0
C160 C 0.24314 0.10752 0.11249 0.0
C161 C 0.24103 0.09216 0.05986 0.0
C162 C 0.21851 0.11218 0.08247 0.0
C163 C 0.24775 0.1281 0.0724 0.0
O164 O 0.24156 0.12263 0.06562 0.0
O165 O 0.2488 0.12523 0.08288 0.0
O166 O 0.23514 0.09806 0.05273 0.0
O167 O 0.24072 0.09496 0.07038 0.0
O168 O 0.20707 0.10509 0.24751 0.0
Cd169 Cd 0.21376 0.08924 0.24839 0.0
Cd170 Cd 0.21999 0.0996 0.2683 0.0
O171 O 0.21353 0.11457 0.26203 0.0
O172 O 0.21051 0.08363 0.23263 0.0
O173 O 0.22771 0.08727 0.23838 0.0
C174 C 0.22107 0.0848 0.23019 0.0
C175 C 0.2383 0.09434 0.27217 0.0
C176 C 0.20785 0.11419 0.25301 0.0
C177 C 0.20321 0.08097 0.2706 0.0
O178 O 0.20817 0.08909 0.27537 0.0
O179 O 0.2049 0.07893 0.26012 0.0
O180 O 0.23266 0.10071 0.27906 0.0
O181 O 0.23385 0.09204 0.26253 0.0
O182 O 0.2248 0.96736 0.49976 0.0
Cd183 Cd 0.23974 0.97593 0.49952 0.0
Cd184 Cd 0.22928 0.97966 0.51933 0.0
O185 O 0.21422 0.97365 0.51373 0.0
O186 O 0.24418 0.97221 0.48367 0.0
O187 O 0.24127 0.98972 0.48925 0.0
C188 C 0.24324 0.98275 0.48116 0.0
C189 C 0.23655 0.99687 0.52392 0.0
C190 C 0.21555 0.96729 0.50525 0.0
C191 C 0.24895 0.96406 0.51943 0.0
O192 O 0.23959 0.96665 0.52402 0.0
O193 O 0.25189 0.96842 0.50997 0.0
O194 O 0.23008 0.99152 0.53101 0.0
O195 O 0.23743 0.99311 0.51373 0.0
O196 O 0.36516 0.9842 0.74524 0.0
Cd197 Cd 0.3606 1.00072 0.7448 0.0
Cd198 Cd 0.35269 0.99164 0.76525 0.0
O199 O 0.35813 0.97564 0.76025 0.0
O200 O 0.36647 0.00399 0.72918 0.0
O201 O 0.34835 0.00463 0.73345 0.0
C202 C 0.35618 0.00475 0.72581 0.0
C203 C 0.33543 1.00055 0.76598 0.0
C204 C 0.36376 0.9753 0.75107 0.0
C205 C 0.37065 0.00938 0.76649 0.0
O206 O 0.36491 0.0019 0.77167 0.0
O207 O 0.3697 0.01086 0.75584 0.0
O208 O 0.33861 0.99403 0.77422 0.0
O209 O 0.34135 1.00049 0.75675 0.0
O210 O 0.35625 0.11667 0.99355 0.0
Cd211 Cd 0.34051 0.11012 0.99139 0.0
Cd212 Cd 0.34765 0.10274 0.01241 0.0
O213 O 0.36319 0.10967 0.00932 0.0
O214 O 0.33814 0.11637 0.97578 0.0
O215 O 0.33839 0.09811 0.97926 0.0
C216 C 0.33806 0.10625 0.97196 0.0
C217 C 0.34197 0.08464 0.01618 0.0
C218 C 0.36416 0.116 1.00068 0.0
C219 C 0.32859 0.11952 0.01201 0.0
O220 O 0.33593 0.11427 0.01783 0.0
O221 O 0.32827 0.11839 0.0013 0.0
O222 O 0.34748 0.09027 0.02362 0.0
O223 O 0.34118 0.08882 0.00607 0.0
O224 O 0.34324 0.21531 0.98724 0.0
Cd225 Cd 0.34537 0.22292 0.00256 0.0
Cd226 Cd 0.32672 0.23191 0.99311 0.0
O227 O 0.33111 0.22573 0.97765 0.0
O228 O 0.36137 0.21787 0.00608 0.0
O229 O 0.35687 0.23569 0.00283 0.0
C230 C 0.36462 0.22813 0.00447 0.0
C231 C 0.3219 0.24978 0.99898 0.0
C232 C 0.33794 0.21746 0.97817 0.0
C233 C 0.32306 0.21567 0.01225 0.0
O234 O 0.31927 0.22001 0.00321 0.0
O235 O 0.33344 0.21708 0.01489 0.0
O236 O 0.31541 0.24428 0.99229 0.0
O237 O 0.33185 0.24567 0.00103 0.0
O238 O 0.83089 0.35936 0.11414 0.0
Cd239 Cd 0.83691 0.36365 0.09863 0.0
Cd240 Cd 0.81012 0.3603 0.11104 0.0
O241 O 0.81837 0.36681 0.12487 0.0
O242 O 0.85293 0.36861 0.09997 0.0
O243 O 0.8484 0.35235 0.09237 0.0
C244 C 0.85618 0.35914 0.09573 0.0
C245 C 0.804 0.34307 0.10535 0.0
C246 C 0.82834 0.36715 0.12097 0.0
C247 C 0.81486 0.37622 0.09025 0.0
O248 O 0.80887 0.3717 0.09803 0.0
O249 O 0.82551 0.37408 0.08904 0.0
O250 O 0.79726 0.34976 0.11087 0.0
O251 O 0.81463 0.34552 0.10477 0.0
O252 O 0.96511 0.5877 0.35199 0.0
Cd253 Cd 0.97213 0.58732 0.3362 0.0
Cd254 Cd 0.97442 0.56601 0.34774 0.0
O255 O 0.96877 0.57282 0.36269 0.0
O256 O 0.96848 0.60345 0.33153 0.0
O257 O 0.98586 0.59766 0.33462 0.0
C258 C 0.97896 0.60597 0.33277 0.0
C259 C 0.99182 0.56015 0.34155 0.0
C260 C 0.96448 0.5826 0.36145 0.0
C261 C 0.96006 0.56666 0.32715 0.0
O262 O 0.96208 0.56191 0.33657 0.0
O263 O 0.96417 0.57636 0.32468 0.0
O264 O 0.98561 0.5535 0.34767 0.0
O265 O 0.9887 0.57059 0.34031 0.0
O266 O 0.74673 0.72509 0.60471 0.0
Cd267 Cd 0.74165 0.71916 0.58945 0.0
Cd268 Cd 0.7674 0.72675 0.59895 0.0
O269 O 0.76108 0.72002 0.61412 0.0
O270 O 0.72638 0.71232 0.59121 0.0
O271 O 0.72935 0.7289 0.58291 0.0
C272 C 0.72229 0.7215 0.58678 0.0
C273 C 0.76758 0.7443 0.59051 0.0
C274 C 0.75072 0.71851 0.61215 0.0
C275 C 0.7647 0.70987 0.57932 0.0
O276 O 0.7706 0.71496 0.58666 0.0
O277 O 0.75386 0.71082 0.57898 0.0
O278 O 0.77625 0.74086 0.59623 0.0
O279 O 0.75836 0.73858 0.5913 0.0
O280 O 0.10699 0.99559 0.35657 0.0
Cd281 Cd 0.11446 0.9892 0.34251 0.0
Cd282 Cd 0.10621 0.01622 0.35151 0.0
O283 O 0.11103 0.00954 0.36699 0.0
O284 O 0.12039 0.97365 0.34593 0.0
O285 O 0.10495 0.97663 0.33598 0.0
C286 C 0.11159 0.96956 0.34111 0.0
C287 C 0.08914 0.01807 0.34258 0.0
C288 C 0.11306 0.9994 0.36436 0.0
C289 C 0.12542 0.01206 0.33354 0.0
O290 O 0.11934 0.0181 0.34012 0.0
O291 O 0.12457 1.00119 0.33305 0.0
O292 O 0.09306 0.0264 0.34834 0.0
O293 O 0.09417 0.00838 0.34335 0.0
O294 O 0.24124 0.87269 0.47999 0.0
Cd295 Cd 0.23989 0.86626 0.49596 0.0
Cd296 Cd 0.26004 0.85869 0.48817 0.0
O297 O 0.25541 0.86345 0.47215 0.0
O298 O 0.22349 0.8696 0.49972 0.0
O299 O 0.23002 0.85232 0.49708 0.0
C300 C 0.22147 0.85899 0.4986 0.0
C301 C 0.26378 0.84189 0.497 0.0
C302 C 0.24745 0.87067 0.47144 0.0
C303 C 0.26132 0.87635 0.50562 0.0
O304 O 0.2664 0.87149 0.49753 0.0
O305 O 0.25077 0.87458 0.50744 0.0
O306 O 0.27096 0.84604 0.48982 0.0
O307 O 0.25381 0.84642 0.49763 0.0
O308 O 0.96951 0.5007 0.22535 0.0
Cd309 Cd 0.97582 0.5021 0.24122 0.0
Cd310 Cd 0.98009 0.52191 0.22948 0.0
O311 O 0.97533 0.51471 0.21451 0.0
O312 O 0.9715 0.48661 0.24633 0.0
O313 O 0.98924 0.49166 0.24398 0.0
C314 C 0.98198 0.48373 0.24566 0.0
C315 C 0.99685 0.52889 0.23554 0.0
C316 C 0.97032 0.50534 0.2157 0.0
C317 C 0.9644 0.52324 0.24943 0.0
O318 O 0.96748 0.5276 0.24008 0.0
O319 O 0.96759 0.51329 0.25225 0.0
O320 O 0.99071 0.53462 0.22852 0.0
O321 O 0.99433 0.51844 0.23754 0.0
O322 O 0.61839 0.58566 0.72721 0.0
Cd323 Cd 0.60948 0.58484 0.74198 0.0
Cd324 Cd 0.60553 0.56611 0.73012 0.0
O325 O 0.61126 0.57332 0.7155 0.0
O326 O 0.61311 0.60038 0.74762 0.0
O327 O 0.59595 0.59575 0.74265 0.0
C328 C 0.60293 0.60354 0.74548 0.0
C329 C 0.58861 0.55901 0.73615 0.0
C330 C 0.61793 0.58139 0.71745 0.0
C331 C 0.62087 0.56354 0.74958 0.0
O332 O 0.6185 0.56016 0.73978 0.0
O333 O 0.61656 0.57276 0.7533 0.0
O334 O 0.59482 0.55348 0.72902 0.0
O335 O 0.5913 0.56931 0.73846 0.0
O336 O 0.47153 0.83213 0.71942 0.0
Cd337 Cd 0.48778 0.83278 0.72532 0.0
Cd338 Cd 0.47841 0.81287 0.73113 0.0
O339 O 0.46243 0.81807 0.72752 0.0
O340 O 0.49095 0.84854 0.72001 0.0
O341 O 0.49108 0.84375 0.73802 0.0
C342 C 0.49157 0.85155 0.73037 0.0
C343 C 0.48706 0.80811 0.74766 0.0
C344 C 0.46248 0.82663 0.72103 0.0
C345 C 0.4962 0.81258 0.7132 0.0
O346 O 0.48735 0.80796 0.71715 0.0
O347 O 0.49923 0.82227 0.71666 0.0
O348 O 0.48025 0.80113 0.7429 0.0
O349 O 0.48772 0.81831 0.74367 0.0
O350 O 0.50247 0.22533 0.96219 0.0
Cd351 Cd 0.50152 0.24131 0.96854 0.0
Cd352 Cd 0.52064 0.23149 0.97686 0.0
O353 O 0.51618 0.21608 0.9708 0.0
O354 O 0.48539 0.24525 0.9645 0.0
O355 O 0.491 0.24365 0.98209 0.0
C356 C 0.48277 0.24486 0.97508 0.0
C357 C 0.52555 0.23683 0.99473 0.0
C358 C 0.50817 0.21633 0.96377 0.0
C359 C 0.52353 0.24975 0.95903 0.0
O360 O 0.5277 0.24161 0.9647 0.0
O361 O 0.51301 0.25223 0.96004 0.0
O362 O 0.53222 0.23056 0.98874 0.0
O363 O 0.51547 0.23887 0.99103 0.0
O364 O 0.10979 0.25004 0.22483 0.0
Cd365 Cd 0.09351 0.24459 0.22295 0.0
Cd366 Cd 0.10645 0.27065 0.22488 0.0
O367 O 0.12059 0.26256 0.2177 0.0
O368 O 0.09419 0.22896 0.21649 0.0
O369 O 0.08841 0.23241 0.23392 0.0
C370 C 0.09106 0.22513 0.22624 0.0
C371 C 0.10006 0.27405 0.24287 0.0
C372 C 0.11695 0.25258 0.21718 0.0
C373 C 0.08398 0.26702 0.21175 0.0
O374 O 0.09287 0.27255 0.21418 0.0
O375 O 0.08242 0.25673 0.21507 0.0
O376 O 0.10567 0.28176 0.23744 0.0
O377 O 0.09992 0.26398 0.23878 0.0
O378 O 0.0807 0.85297 0.47178 0.0
Cd379 Cd 0.08675 0.839 0.46366 0.0
Cd380 Cd 0.06003 0.85001 0.47078 0.0
O381 O 0.06821 0.86523 0.46726 0.0
O382 O 0.10293 0.84014 0.45847 0.0
O383 O 0.0979 0.83143 0.47427 0.0
C384 C 0.10586 0.83552 0.46793 0.0
C385 C 0.05615 0.84173 0.48814 0.0
C386 C 0.07853 0.8624 0.46716 0.0
C387 C 0.06396 0.83214 0.45152 0.0
O388 O 0.05804 0.83913 0.45729 0.0
O389 O 0.07468 0.83078 0.45306 0.0
O390 O 0.04872 0.84814 0.48326 0.0
O391 O 0.06605 0.84089 0.48358 0.0
O392 O 0.47894 0.24449 0.87667 0.0
Cd393 Cd 0.49478 0.24415 0.86993 0.0
Cd394 Cd 0.48417 0.26359 0.86202 0.0
O395 O 0.46891 0.25715 0.86718 0.0
O396 O 0.50045 0.22819 0.87304 0.0
O397 O 0.49586 0.23432 0.85604 0.0
C398 C 0.49872 0.22602 0.86255 0.0
C399 C 0.49485 0.26568 0.84617 0.0
C400 C 0.46959 0.24944 0.87469 0.0
C401 C 0.50163 0.26668 0.87945 0.0
O402 O 0.49261 0.27044 0.87504 0.0
O403 O 0.50516 0.25664 0.87729 0.0
O404 O 0.48716 0.2732 0.84842 0.0
O405 O 0.49477 0.25625 0.85173 0.0
O406 O 0.08905 0.22787 0.11875 0.0
Cd407 Cd 0.08814 0.24367 0.11199 0.0
Cd408 Cd 0.06871 0.23213 0.10649 0.0
O409 O 0.07635 0.21698 0.11098 0.0
O410 O 0.10346 0.24856 0.11737 0.0
O411 O 0.0997 0.24651 0.09936 0.0
C412 C 0.10712 0.24798 0.10712 0.0
C413 C 0.06323 0.24082 0.0899 0.0
C414 C 0.08485 0.21819 0.11732 0.0
C415 C 0.06564 0.25053 0.1225 0.0
O416 O 0.06223 0.24079 0.11987 0.0
O417 O 0.07524 0.25412 0.11891 0.0
O418 O 0.05715 0.23289 0.0944 0.0
O419 O 0.07318 0.24253 0.09398 0.0
O420 O 0.11207 0.82675 0.36318 0.0
Cd421 Cd 0.09665 0.83126 0.36957 0.0
Cd422 Cd 0.10897 0.80556 0.36547 0.0
O423 O 0.12329 0.81445 0.37011 0.0
O424 O 0.09857 0.8471 0.37477 0.0
O425 O 0.08871 0.843 0.35963 0.0
C426 C 0.09334 0.85056 0.36587 0.0
C427 C 0.10058 0.80366 0.34787 0.0
C428 C 0.1202 0.82468 0.36973 0.0
C429 C 0.09018 0.80848 0.38325 0.0
O430 O 0.09809 0.80261 0.37875 0.0
O431 O 0.08826 0.81886 0.38031 0.0
O432 O 0.10723 0.79582 0.35172 0.0
O433 O 0.09948 0.81276 0.35363 0.0
O434 O 0.49053 0.85052 0.62645 0.0
Cd435 Cd 0.4908 0.83587 0.61744 0.0
Cd436 Cd 0.51006 0.84707 0.61293 0.0
O437 O 0.50346 0.86177 0.61908 0.0
O438 O 0.47492 0.8302 0.62009 0.0
O439 O 0.48079 0.83664 0.60358 0.0
C440 C 0.47254 0.83325 0.60992 0.0
C441 C 0.51583 0.84158 0.59526 0.0
C442 C 0.49528 0.86009 0.62586 0.0
C443 C 0.51177 0.82703 0.62813 0.0
O444 O 0.51569 0.83665 0.62555 0.0
O445 O 0.50231 0.82381 0.62414 0.0
O446 O 0.52224 0.84784 0.60135 0.0
O447 O 0.50563 0.83963 0.59875 0.0
O448 O 0.72901 0.47471 0.82848 0.0
Cd449 Cd 0.72675 0.49077 0.83399 0.0
Cd450 Cd 0.72936 0.47625 0.80814 0.0
O451 O 0.72357 0.4621 0.81701 0.0
O452 O 0.72061 0.49106 0.84988 0.0
O453 O 0.73831 0.49532 0.84547 0.0
C454 C 0.73067 0.49354 0.85315 0.0
C455 C 0.74672 0.48256 0.8023 0.0
C456 C 0.72197 0.46699 0.82634 0.0
C457 C 0.71475 0.4984 0.81197 0.0
O458 O 0.71756 0.48921 0.80705 0.0
O459 O 0.71855 0.50121 0.8217 0.0
O460 O 0.74045 0.47692 0.79547 0.0
O461 O 0.74377 0.48299 0.81282 0.0
O462 O 0.85572 0.46617 0.0888 0.0
Cd463 Cd 0.84021 0.47387 0.08855 0.0
Cd464 Cd 0.84999 0.47822 0.06872 0.0
O465 O 0.86548 0.47472 0.07541 0.0
O466 O 0.83457 0.47073 0.10436 0.0
O467 O 0.83966 0.48769 0.09873 0.0
C468 C 0.83674 0.48102 0.1069 0.0
C469 C 0.84234 0.49448 0.06089 0.0
C470 C 0.86503 0.46779 0.08363 0.0
C471 C 0.83242 0.4609 0.06851 0.0
O472 O 0.84176 0.46386 0.06415 0.0
O473 O 0.82888 0.46559 0.0776 0.0
O474 O 0.84974 0.48853 0.05541 0.0
O475 O 0.84027 0.4918 0.07132 0.0
O476 O 0.85874 0.61267 0.33132 0.0
Cd477 Cd 0.8659 0.59819 0.33748 0.0
Cd478 Cd 0.86021 0.6096 0.31056 0.0
O479 O 0.86324 0.62471 0.31857 0.0
O480 O 0.8714 0.59973 0.35338 0.0
O481 O 0.85565 0.59088 0.34902 0.0
C482 C 0.86223 0.59481 0.35668 0.0
C483 C 0.8449 0.59942 0.30539 0.0
C484 C 0.86476 0.62103 0.32849 0.0
C485 C 0.87905 0.59157 0.31549 0.0
O486 O 0.87413 0.59926 0.30969 0.0
O487 O 0.87643 0.58931 0.32583 0.0
O488 O 0.84949 0.60637 0.29822 0.0
O489 O 0.84784 0.59988 0.31585 0.0
O490 O 0.72342 0.6198 0.58386 0.0
Cd491 Cd 0.73954 0.61385 0.58294 0.0
Cd492 Cd 0.72879 0.60767 0.5635 0.0
O493 O 0.71339 0.61243 0.57024 0.0
O494 O 0.74421 0.61781 0.59857 0.0
O495 O 0.74309 0.60019 0.59279 0.0
C496 C 0.74445 0.60719 0.60093 0.0
C497 C 0.73824 0.59112 0.56003 0.0
C498 C 0.71403 0.61849 0.579 0.0
C499 C 0.74651 0.6255 0.56162 0.0
O500 O 0.73787 0.62095 0.55735 0.0
O501 O 0.74966 0.62295 0.57161 0.0
O502 O 0.73088 0.59488 0.55286 0.0
O503 O 0.73868 0.59584 0.56982 0.0
O504 O 0.72783 0.60301 0.74449 0.0
Cd505 Cd 0.72069 0.5887 0.73812 0.0
Cd506 Cd 0.72632 0.5985 0.76521 0.0
O507 O 0.72279 0.61408 0.7578 0.0
O508 O 0.71458 0.59013 0.72257 0.0
O509 O 0.73078 0.58154 0.72622 0.0
C510 C 0.7237 0.58542 0.71886 0.0
C511 C 0.74313 0.58938 0.76892 0.0
C512 C 0.72219 0.61165 0.74745 0.0
C513 C 0.70784 0.5806 0.75987 0.0
O514 O 0.71287 0.5875 0.7663 0.0
O515 O 0.71018 0.57958 0.74933 0.0
O516 O 0.73822 0.59534 0.77667 0.0
O517 O 0.73914 0.58983 0.75882 0.0
O518 O 0.72958 0.4764 0.99612 0.0
Cd519 Cd 0.74616 0.47349 0.99204 0.0
Cd520 Cd 0.73145 0.48012 0.01615 0.0
O521 O 0.71729 0.47262 0.00875 0.0
O522 O 0.74725 0.46587 0.97687 0.0
O523 O 0.75101 0.48397 0.97946 0.0
C524 C 0.74953 0.47568 0.97259 0.0
C525 C 0.73997 0.49754 0.01665 0.0
C526 C 0.72199 0.46968 0.99961 0.0
C527 C 0.75273 0.46449 0.01617 0.0
O528 O 0.74343 0.46821 0.02029 0.0
O529 O 0.75603 0.46687 0.00599 0.0
O530 O 0.73357 0.49426 0.02497 0.0
O531 O 0.73982 0.49179 0.00746 0.0
O532 O 0.86273 0.48221 0.24909 0.0
Cd533 Cd 0.86347 0.49862 0.24387 0.0
Cd534 Cd 0.86257 0.48338 0.26936 0.0
O535 O 0.86926 0.46968 0.26039 0.0
O536 O 0.86885 0.49957 0.22771 0.0
O537 O 0.85116 0.50298 0.23289 0.0
C538 C 0.85853 0.50165 0.22487 0.0
C539 C 0.84517 0.48975 0.27515 0.0
C540 C 0.87038 0.47489 0.25108 0.0
C541 C 0.87616 0.50592 0.2655 0.0
O542 O 0.87377 0.49657 0.27039 0.0
O543 O 0.872 0.50887 0.25588 0.0
O544 O 0.8515 0.48403 0.28205 0.0
O545 O 0.84797 0.49002 0.26459 0.0
O546 O 0.85209 0.62855 0.48965 0.0
Cd547 Cd 0.8374 0.62007 0.49155 0.0
Cd548 Cd 0.84892 0.61714 0.511 0.0
O549 O 0.86346 0.62257 0.50315 0.0
O550 O 0.83097 0.6217 0.476 0.0
O551 O 0.83756 0.60552 0.4825 0.0
C552 C 0.83391 0.61143 0.47406 0.0
C553 C 0.84197 0.59999 0.51678 0.0
C554 C 0.86175 0.62825 0.49418 0.0
C555 C 0.82938 0.63272 0.51193 0.0
O556 O 0.83882 0.63012 0.51623 0.0
O557 O 0.82617 0.62828 0.5027 0.0
O558 O 0.84882 0.60547 0.52317 0.0
O559 O 0.8404 0.6036 0.50658 0.0
O560 O 0.83695 0.71935 0.47013 0.0
Cd561 Cd 0.83622 0.72089 0.48722 0.0
Cd562 Cd 0.81469 0.72395 0.47562 0.0
O563 O 0.82214 0.72385 0.45992 0.0
O564 O 0.85213 0.7156 0.49031 0.0
O565 O 0.84672 0.7332 0.49281 0.0
C566 C 0.85486 0.72588 0.49231 0.0
C567 C 0.8063 0.73855 0.4854 0.0
C568 C 0.83238 0.72075 0.46057 0.0
C569 C 0.81709 0.7047 0.4919 0.0
O570 O 0.8126 0.70833 0.48286 0.0
O571 O 0.82559 0.70967 0.49617 0.0
O572 O 0.80063 0.73291 0.47809 0.0
O573 O 0.81701 0.73651 0.48635 0.0
O574 O 0.32909 0.85871 0.6139 0.0
Cd575 Cd 0.33473 0.86316 0.59831 0.0
Cd576 Cd 0.30833 0.85858 0.60945 0.0
O577 O 0.31554 0.86558 0.62366 0.0
O578 O 0.35069 0.86843 0.59928 0.0
O579 O 0.34615 0.85199 0.59198 0.0
C580 C 0.35391 0.85891 0.5951 0.0
C581 C 0.30481 0.84123 0.60217 0.0
C582 C 0.32567 0.86649 0.62035 0.0
C583 C 0.31224 0.87483 0.5894 0.0
O584 O 0.30608 0.8702 0.59695 0.0
O585 O 0.32298 0.87298 0.58858 0.0
O586 O 0.29717 0.84633 0.60821 0.0
O587 O 0.31499 0.84514 0.60212 0.0
O588 O 0.47008 0.09043 0.85372 0.0
Cd589 Cd 0.47785 0.08911 0.83858 0.0
Cd590 Cd 0.47985 0.06928 0.85123 0.0
O591 O 0.47512 0.07722 0.86588 0.0
O592 O 0.47356 0.10472 0.83338 0.0
O593 O 0.49113 0.10008 0.83704 0.0
C594 C 0.48376 0.10791 0.83498 0.0
C595 C 0.49627 0.06288 0.843 0.0
C596 C 0.46986 0.08634 0.86361 0.0
C597 C 0.46423 0.06905 0.83189 0.0
O598 O 0.46616 0.06539 0.84178 0.0
O599 O 0.46962 0.07757 0.82789 0.0
O600 O 0.49087 0.05655 0.85018 0.0
O601 O 0.49316 0.07334 0.84193 0.0
O602 O 0.24595 0.21813 0.10593 0.0
Cd603 Cd 0.24631 0.22348 0.0898 0.0
Cd604 Cd 0.26757 0.22629 0.10117 0.0
O605 O 0.26085 0.22095 0.11627 0.0
O606 O 0.23049 0.21798 0.08791 0.0
O607 O 0.23439 0.23584 0.08573 0.0
C608 C 0.22684 0.22809 0.08659 0.0
C609 C 0.27127 0.24414 0.09464 0.0
C610 C 0.25088 0.21728 0.1153 0.0
C611 C 0.26718 0.20958 0.08209 0.0
O612 O 0.27246 0.21358 0.09043 0.0
O613 O 0.2571 0.21293 0.07973 0.0
O614 O 0.2786 0.23878 0.10077 0.0
O615 O 0.26141 0.23972 0.09334 0.0
O616 O 0.60668 0.4944 0.85707 0.0
Cd617 Cd 0.61339 0.49015 0.84164 0.0
Cd618 Cd 0.60894 0.51592 0.8529 0.0
O619 O 0.61195 0.50748 0.86799 0.0
O620 O 0.62053 0.47484 0.84224 0.0
O621 O 0.60411 0.47812 0.83409 0.0
C622 C 0.61164 0.47092 0.8375 0.0
C623 C 0.59346 0.51788 0.84136 0.0
C624 C 0.61322 0.49737 0.86486 0.0
C625 C 0.62649 0.51261 0.83478 0.0
O626 O 0.6231 0.51833 0.84324 0.0
O627 O 0.62278 0.50268 0.83262 0.0
O628 O 0.59592 0.52589 0.84826 0.0
O629 O 0.59873 0.50837 0.84232 0.0
O630 O 0.74184 0.36635 0.98266 0.0
Cd631 Cd 0.73993 0.36127 0.99907 0.0
Cd632 Cd 0.76141 0.3536 0.99161 0.0
O633 O 0.7574 0.35891 0.97545 0.0
O634 O 0.72381 0.36603 0.00166 0.0
O635 O 0.72914 0.34818 0.00161 0.0
C636 C 0.72105 0.35554 0.00193 0.0
C637 C 0.77082 0.33798 0.99827 0.0
C638 C 0.74847 0.36482 0.97433 0.0
C639 C 0.75997 0.3719 0.00955 0.0
O640 O 0.76555 0.36623 0.00237 0.0
O641 O 0.74931 0.37071 0.01051 0.0
O642 O 0.77583 0.34514 0.9917 0.0
O643 O 0.75994 0.33859 0.99926 0.0
O644 O 0.47594 0.99729 0.72864 0.0
Cd645 Cd 0.47451 0.991 0.74465 0.0
Cd646 Cd 0.4787 0.01733 0.73195 0.0
O647 O 0.47082 0.01074 0.71769 0.0
O648 O 0.46737 0.97572 0.74403 0.0
O649 O 0.48509 0.9783 0.74913 0.0
C650 C 0.477 0.97142 0.74682 0.0
C651 C 0.49652 0.02069 0.73827 0.0
C652 C 0.46851 1.00117 0.7219 0.0
C653 C 0.4641 0.0132 0.75393 0.0
O654 O 0.46775 0.01884 0.74544 0.0
O655 O 0.46646 0.0027 0.75561 0.0
O656 O 0.49101 0.02855 0.73289 0.0
O657 O 0.49265 0.0105 0.73809 0.0
O658 O 0.12017 0.08764 0.2248 0.0
Cd659 Cd 0.11451 0.08679 0.24105 0.0
Cd660 Cd 0.11063 0.06638 0.22977 0.0
O661 O 0.11479 0.07342 0.21432 0.0
O662 O 0.11976 0.10229 0.24529 0.0
O663 O 0.10175 0.09801 0.24464 0.0
C664 C 0.1094 0.10565 0.24555 0.0
C665 C 0.09434 0.05969 0.23772 0.0
C666 C 0.11964 0.08287 0.21528 0.0
C667 C 0.12708 0.06574 0.24858 0.0
O668 O 0.12401 0.06139 0.23936 0.0
O669 O 0.12322 0.07538 0.2516 0.0
O670 O 0.09709 0.07017 0.23901 0.0
O671 O 0.09996 0.05367 0.2305 0.0
H672 H 0.00973 0.32705 0.25919 0.0
H673 H 0.02817 0.32072 0.26593 0.0
H674 H 0.01961 0.28632 0.25821 0.0
H675 H 1.00109 0.29251 0.25183 0.0
H676 H 0.0338 0.28609 0.27459 0.0
H677 H 0.03163 0.30396 0.23837 0.0
H678 H 0.02749 0.31905 0.22451 0.0
H679 H 0.05052 0.34106 0.24117 0.0
H680 H 0.05467 0.32614 0.25525 0.0
H681 H 0.08193 0.26177 0.24937 0.0
H682 H 0.06446 0.26926 0.25674 0.0
H683 H 0.08059 0.30109 0.26326 0.0
H684 H 0.09807 0.29385 0.25471 0.0
H685 H 0.06335 0.30464 0.25125 0.0
H686 H 0.0677 0.28092 0.28502 0.0
H687 H 0.07146 0.26259 0.2944 0.0
H688 H 0.04349 0.24791 0.27718 0.0
H689 H 0.03963 0.26607 0.26763 0.0
C690 C 0.01159 0.31808 0.25938 0.0
C691 C 0.00406 0.3103 0.25473 0.0
C692 C 0.02218 0.31449 0.26315 0.0
C693 C 0.02542 0.30311 0.26219 0.0
C694 C 0.01736 0.29517 0.25892 0.0
C695 C 0.00673 0.29873 0.25528 0.0
C696 C 0.03746 0.29965 0.26297 0.0
C697 C 0.04032 0.29019 0.26959 0.0
C698 C 0.04593 0.30494 0.25633 0.0
C699 C 0.04331 0.314 0.24799 0.0
C700 C 0.03571 0.31206 0.23916 0.0
C701 C 0.03337 0.32057 0.23125 0.0
C702 C 0.03869 0.33103 0.232 0.0
C703 C 0.04637 0.33298 0.24064 0.0
C704 C 0.0487 0.3245 0.2486 0.0
C705 C 0.08197 0.27023 0.25275 0.0
C706 C 0.09141 0.27725 0.25133 0.0
C707 C 0.07187 0.27452 0.25711 0.0
C708 C 0.07111 0.28575 0.26075 0.0
C709 C 0.08092 0.2924 0.2605 0.0
C710 C 0.09096 0.28823 0.25572 0.0
C711 C 0.05982 0.29099 0.2629 0.0
C712 C 0.05703 0.30078 0.2567 0.0
C713 C 0.0513 0.28563 0.26946 0.0
C714 C 0.05336 0.27488 0.27565 0.0
C715 C 0.06234 0.27379 0.28327 0.0
C716 C 0.06449 0.26342 0.2886 0.0
C717 C 0.05771 0.2541 0.2864 0.0
C718 C 0.04871 0.25514 0.27892 0.0
C719 C 0.04651 0.26547 0.27358 0.0
H720 H 0.05943 0.24607 0.29049 0.0
H721 H 0.03689 0.3376 0.22585 0.0
H722 H 0.03627 0.84129 0.50011 0.0
H723 H 0.02892 0.82507 0.51066 0.0
H724 H 0.06097 0.80795 0.50676 0.0
H725 H 0.06847 0.82417 0.49667 0.0
H726 H 0.0281 0.80648 0.49756 0.0
H727 H 0.06478 0.79 0.52049 0.0
H728 H 0.07929 0.79525 0.53431 0.0
H729 H 0.05478 0.8152 0.55233 0.0
H730 H 0.04022 0.81026 0.53843 0.0
H731 H 0.03669 0.74621 0.50023 0.0
H732 H 0.04341 0.76452 0.5064 0.0
H733 H 0.01006 0.77289 0.51869 0.0
H734 H 0.00306 0.75479 0.51189 0.0
H735 H 0.04152 0.77971 0.52703 0.0
H736 H 0.00385 0.7856 0.5043 0.0
H737 H 0.99237 0.78076 0.48778 0.0
H738 H 0.02178 0.78305 0.46647 0.0
H739 H 0.03351 0.78705 0.48295 0.0
C740 C 0.04191 0.83429 0.50198 0.0
C741 C 0.05288 0.83394 0.4974 0.0
C742 C 0.03771 0.82503 0.50805 0.0
C743 C 0.0444 0.81529 0.50957 0.0
C744 C 0.05572 0.81544 0.50601 0.0
C745 C 0.05997 0.82473 0.50008 0.0
C746 C 0.03892 0.80431 0.51195 0.0
C747 C 0.03072 0.80081 0.50431 0.0
C748 C 0.04278 0.79665 0.52028 0.0
C749 C 0.0515 0.79983 0.52845 0.0
C750 C 0.06253 0.79552 0.5274 0.0
C751 C 0.07076 0.79848 0.5352 0.0
C752 C 0.06796 0.80557 0.54418 0.0
C753 C 0.05695 0.80978 0.54533 0.0
C754 C 0.04874 0.80698 0.53745 0.0
C755 C 0.03086 0.75171 0.50468 0.0
C756 C 0.01929 0.74918 0.50538 0.0
C757 C 0.03472 0.76222 0.50815 0.0
C758 C 0.02711 0.77015 0.51261 0.0
C759 C 0.01595 0.76696 0.51492 0.0
C760 C 0.012 0.75657 0.51118 0.0
C761 C 0.03037 0.78214 0.51293 0.0
C762 C 0.03841 0.78566 0.52075 0.0
C763 C 0.02658 0.78981 0.50454 0.0
C764 C 0.0196 0.78627 0.49491 0.0
C765 C 0.00792 0.78465 0.49616 0.0
C766 C 1.00136 0.78207 0.48678 0.0
C767 C 0.00635 0.78145 0.47608 0.0
C768 C 0.01793 0.78326 0.47476 0.0
C769 C 0.02455 0.78557 0.48413 0.0
H770 H 1.00122 0.77969 0.46879 0.0
H771 H 0.07432 0.80778 0.55027 0.0
H772 H 0.58523 0.78664 0.74774 0.0
H773 H 0.56792 0.79291 0.75708 0.0
H774 H 0.55814 0.75826 0.76239 0.0
H775 H 0.57538 0.7519 0.75289 0.0
H776 H 0.54426 0.76987 0.74821 0.0
H777 H 0.56072 0.77681 0.7848 0.0
H778 H 0.57452 0.78517 0.79771 0.0
H779 H 0.56497 0.81843 0.78645 0.0
H780 H 0.55123 0.81028 0.77338 0.0
H781 H 0.48914 0.7868 0.75655 0.0
H782 H 0.50681 0.77821 0.76287 0.0
H783 H 0.52269 0.81087 0.76194 0.0
H784 H 0.50502 0.81954 0.75599 0.0
H785 H 0.53305 0.7984 0.77661 0.0
H786 H 0.52122 0.7944 0.73869 0.0
H787 H 0.50937 0.78905 0.72264 0.0
H788 H 0.51262 0.7541 0.73199 0.0
H789 H 0.52422 0.75925 0.74832 0.0
C790 C 0.57967 0.78032 0.75135 0.0
C791 C 0.58156 0.76877 0.74934 0.0
C792 C 0.56975 0.78394 0.75673 0.0
C793 C 0.56167 0.77605 0.76032 0.0
C794 C 0.56425 0.76449 0.75963 0.0
C795 C 0.57413 0.76087 0.75421 0.0
C796 C 0.54981 0.77972 0.76227 0.0
C797 C 0.54172 0.77583 0.75468 0.0
C798 C 0.5467 0.78805 0.77021 0.0
C799 C 0.55498 0.79292 0.77808 0.0
C800 C 0.56162 0.7859 0.78502 0.0
C801 C 0.56942 0.79061 0.79238 0.0
C802 C 0.57063 0.80232 0.79289 0.0
C803 C 0.56403 0.80936 0.78606 0.0
C804 C 0.55622 0.8047 0.77869 0.0
C805 C 0.49625 0.79223 0.75817 0.0
C806 C 0.49577 0.80381 0.75546 0.0
C807 C 0.50638 0.78729 0.76171 0.0
C808 C 0.51617 0.79384 0.76245 0.0
C809 C 0.51529 0.80561 0.76127 0.0
C810 C 0.50514 0.81057 0.75786 0.0
C811 C 0.52751 0.78842 0.76264 0.0
C812 C 0.53551 0.79211 0.77045 0.0
C813 C 0.53076 0.78033 0.75447 0.0
C814 C 0.52341 0.77723 0.74489 0.0
C815 C 0.51926 0.78558 0.73745 0.0
C816 C 0.51262 0.78259 0.72827 0.0
C817 C 0.51022 0.77125 0.72631 0.0
C818 C 0.51443 0.76288 0.73355 0.0
C819 C 0.52101 0.76584 0.7428 0.0
H820 H 0.50513 0.76895 0.71916 0.0
H821 H 0.57667 0.80594 0.79859 0.0
H822 H 0.5143 0.2471 0.01226 0.0
H823 H 0.52091 0.26393 0.022 0.0
H824 H 0.55353 0.26009 0.00585 0.0
H825 H 0.54735 0.24287 0.99715 0.0
H826 H 0.55683 0.27209 0.02218 0.0
H827 H 0.52874 0.27297 0.99306 0.0
H828 H 0.51031 0.26894 0.98446 0.0
H829 H 0.4934 0.28708 0.01096 0.0
H830 H 0.51174 0.29105 0.0198 0.0
H831 H 0.57032 0.32178 0.99402 0.0
H832 H 0.56499 0.30369 0.00146 0.0
H833 H 0.5378 0.31914 0.02045 0.0
H834 H 0.54242 0.33751 0.01178 0.0
H835 H 0.53049 0.30226 0.00944 0.0
H836 H 0.56433 0.30562 0.03264 0.0
H837 H 0.58453 0.3104 0.03392 0.0
H838 H 0.59289 0.28426 0.01036 0.0
H839 H 0.57278 0.2794 0.00885 0.0
C840 C 0.52305 0.24955 0.01131 0.0
C841 C 0.53023 0.24385 0.00374 0.0
C842 C 0.52681 0.25923 0.01678 0.0
C843 C 0.53753 0.26365 0.0142 0.0
C844 C 0.54515 0.25704 0.0079 0.0
C845 C 0.54158 0.24712 0.00286 0.0
C846 C 0.54014 0.27578 0.01599 0.0
C847 C 0.55101 0.27871 0.01954 0.0
C848 C 0.53261 0.2845 0.01247 0.0
C849 C 0.52158 0.28215 0.00717 0.0
C850 C 0.52108 0.27605 0.99707 0.0
C851 C 0.51066 0.27377 0.99216 0.0
C852 C 0.50069 0.27772 0.99718 0.0
C853 C 0.50113 0.28398 0.00711 0.0
C854 C 0.51153 0.28623 0.01208 0.0
C855 C 0.56342 0.3215 1.00008 0.0
C856 C 0.55685 0.33114 0.00242 0.0
C857 C 0.56044 0.31104 0.00447 0.0
C858 C 0.55125 0.30999 0.01193 0.0
C859 C 0.54504 0.31975 0.01485 0.0
C860 C 0.54772 0.33024 0.00999 0.0
C861 C 0.54731 0.29854 0.01523 0.0
C862 C 0.53614 0.29575 0.01263 0.0
C863 C 0.55484 0.28988 0.01885 0.0
C864 C 0.56703 0.29207 0.02074 0.0
C865 C 0.57049 0.3008 0.02785 0.0
C866 C 0.58192 0.30356 0.02857 0.0
C867 C 0.58998 0.29761 0.02227 0.0
C868 C 0.58665 0.28881 0.01531 0.0
C869 C 0.57524 0.28601 0.01456 0.0
H870 H 0.59881 0.29984 0.02274 0.0
H871 H 0.49263 0.27595 0.99337 0.0
H872 H 0.00327 0.789 0.33124 0.0
H873 H 0.02158 0.79651 0.32606 0.0
H874 H 0.03128 0.76429 0.31211 0.0
H875 H 0.01309 0.7565 0.31798 0.0
H876 H 0.04399 0.76988 0.32937 0.0
H877 H 0.02995 0.7915 0.2965 0.0
H878 H 0.01639 0.80524 0.28843 0.0
H879 H 0.02697 0.83019 0.31208 0.0
H880 H 0.04046 0.8166 0.32036 0.0
H881 H 0.09931 0.78503 0.33423 0.0
H882 H 0.08289 0.77977 0.32309 0.0
H883 H 0.06751 0.81219 0.32992 0.0
H884 H 0.08409 0.81774 0.34021 0.0
H885 H 0.05834 0.80557 0.31272 0.0
H886 H 0.06497 0.789 0.3483 0.0
H887 H 0.07503 0.77857 0.36328 0.0
H888 H 0.07443 0.74845 0.34341 0.0
H889 H 0.06455 0.75879 0.32818 0.0
C890 C 0.00905 0.78364 0.32656 0.0
C891 C 0.00681 0.7721 0.32516 0.0
C892 C 0.01959 0.78799 0.32355 0.0
C893 C 0.02787 0.78097 0.3187 0.0
C894 C 0.02503 0.76985 0.31588 0.0
C895 C 0.0146 0.76542 0.31917 0.0
C896 C 0.03993 0.78431 0.31892 0.0
C897 C 0.04723 0.77749 0.32537 0.0
C898 C 0.04391 0.79471 0.31453 0.0
C899 C 0.03626 0.80302 0.30901 0.0
C900 C 0.02941 0.79993 0.29994 0.0
C901 C 0.02172 0.80769 0.29535 0.0
C902 C 0.02084 0.81858 0.29972 0.0
C903 C 0.02769 0.82177 0.30866 0.0
C904 C 0.03538 0.81405 0.31328 0.0
C905 C 0.09263 0.79119 0.33294 0.0
C906 C 0.09283 0.80165 0.33841 0.0
C907 C 0.0832 0.78816 0.32663 0.0
C908 C 0.07372 0.79539 0.32609 0.0
C909 C 0.07459 0.80636 0.33031 0.0
C910 C 0.08411 0.80951 0.33631 0.0
C911 C 0.06241 0.79103 0.32302 0.0
C912 C 0.05524 0.7977 0.31625 0.0
C913 C 0.05815 0.78097 0.32796 0.0
C914 C 0.06421 0.77472 0.33701 0.0
C915 C 0.06709 0.78018 0.34707 0.0
C916 C 0.07275 0.77429 0.35561 0.0
C917 C 0.07541 0.76287 0.35427 0.0
C918 C 0.07241 0.75732 0.3444 0.0
C919 C 0.0668 0.7632 0.3358 0.0
H920 H 0.07976 0.75831 0.36091 0.0
H921 H 0.01483 0.82455 0.29621 0.0
H922 H 0.55194 0.7555 0.60171 0.0
H923 H 0.54502 0.77392 0.59544 0.0
H924 H 0.53821 0.76042 0.56253 0.0
H925 H 0.54508 0.74162 0.56896 0.0
H926 H 0.55167 0.78405 0.56605 0.0
H927 H 0.51642 0.76376 0.57475 0.0
H928 H 0.50505 0.75149 0.58728 0.0
H929 H 0.50895 0.7749 0.6144 0.0
H930 H 0.52043 0.78723 0.60207 0.0
H931 H 0.50483 0.83125 0.57805 0.0
H932 H 0.5116 0.81433 0.56838 0.0
H933 H 0.54437 0.81843 0.58337 0.0
H934 H 0.53786 0.83556 0.59247 0.0
H935 H 0.51597 0.79823 0.58307 0.0
H936 H 0.56217 0.8033 0.57603 0.0
H937 H 0.57624 0.81577 0.56697 0.0
H938 H 0.553 0.82331 0.54028 0.0
H939 H 0.53871 0.81103 0.54934 0.0
C940 C 0.54904 0.75648 0.5931 0.0
C941 C 0.54906 0.74728 0.58575 0.0
C942 C 0.5451 0.76697 0.58955 0.0
C943 C 0.54114 0.76847 0.57855 0.0
C944 C 0.54128 0.75934 0.57105 0.0
C945 C 0.54514 0.74868 0.57469 0.0
C946 C 0.53663 0.77966 0.57533 0.0
C947 C 0.54369 0.78713 0.56943 0.0
C948 C 0.52645 0.7837 0.58015 0.0
C949 C 0.51927 0.77641 0.58747 0.0
C950 C 0.51487 0.76627 0.58339 0.0
C951 C 0.50841 0.7593 0.59046 0.0
C952 C 0.50628 0.76241 0.60162 0.0
C953 C 0.51058 0.77251 0.60574 0.0
C954 C 0.51704 0.7795 0.5987 0.0
C955 C 0.51366 0.82888 0.57875 0.0
C956 C 0.52075 0.83461 0.58616 0.0
C957 C 0.51753 0.8192 0.57321 0.0
C958 C 0.52848 0.815 0.57519 0.0
C959 C 0.53597 0.82154 0.58147 0.0
C960 C 0.53218 0.83136 0.58678 0.0
C961 C 0.53091 0.80279 0.57357 0.0
C962 C 0.5236 0.79513 0.57897 0.0
C963 C 0.54107 0.79869 0.56868 0.0
C964 C 0.5494 0.80632 0.56335 0.0
C965 C 0.56008 0.80764 0.56823 0.0
C966 C 0.56806 0.8147 0.56313 0.0
C967 C 0.56551 0.82034 0.55306 0.0
C968 C 0.55493 0.81899 0.54812 0.0
C969 C 0.54685 0.81206 0.55327 0.0
H970 H 0.57173 0.82574 0.54907 0.0
H971 H 0.50129 0.757 0.60709 0.0
H972 H 0.58645 0.31873 0.82479 0.0
H973 H 0.56894 0.31051 0.81785 0.0
H974 H 0.5767 0.27948 0.83567 0.0
H975 H 0.5945 0.2872 0.84156 0.0
H976 H 0.56392 0.27404 0.82079 0.0
H977 H 0.56137 0.30413 0.84831 0.0
H978 H 0.56464 0.32352 0.85496 0.0
H979 H 0.54581 0.3369 0.82701 0.0
H980 H 0.54249 0.31757 0.82017 0.0
H981 H 0.5157 0.25763 0.85016 0.0
H982 H 0.53345 0.2652 0.84361 0.0
H983 H 0.51582 0.28871 0.82187 0.0
H984 H 0.49765 0.28168 0.8293 0.0
H985 H 0.53226 0.29879 0.83317 0.0
H986 H 0.53123 0.26359 0.81163 0.0
H987 H 0.5279 0.24305 0.81144 0.0
H988 H 0.55444 0.23789 0.83544 0.0
H989 H 0.55786 0.25837 0.83583 0.0
C990 C 0.58465 0.30997 0.82671 0.0
C991 C 0.59174 0.30368 0.83388 0.0
C992 C 0.57454 0.30532 0.82291 0.0
C993 C 0.57116 0.29456 0.82671 0.0
C994 C 0.57894 0.28784 0.83269 0.0
C995 C 0.58922 0.2923 0.83607 0.0
C996 C 0.55919 0.29082 0.82601 0.0
C997 C 0.557 0.27951 0.82339 0.0
C998 C 0.55005 0.29787 0.82945 0.0
C999 C 0.55179 0.30946 0.83368 0.0
C1000 C 0.55794 0.31122 0.84359 0.0
C1001 C 0.5598 0.32219 0.84739 0.0
C1002 C 0.55546 0.33144 0.84139 0.0
C1003 C 0.54918 0.32973 0.83163 0.0
C1004 C 0.54729 0.31878 0.8278 0.0
C1005 C 0.51551 0.26417 0.84372 0.0
C1006 C 0.50524 0.26885 0.84 0.0
C1007 C 0.52574 0.2685 0.83994 0.0
C1008 C 0.52604 0.27723 0.83189 0.0
C1009 C 0.5158 0.28182 0.82794 0.0
C1010 C 0.50544 0.27774 0.83208 0.0
C1011 C 0.53712 0.28195 0.82831 0.0
C1012 C 0.53911 0.29345 0.83013 0.0
C1013 C 0.54621 0.2749 0.82482 0.0
C1014 C 0.54487 0.26251 0.82366 0.0
C1015 C 0.53644 0.25806 0.81675 0.0
C1016 C 0.5345 0.24642 0.81666 0.0
C1017 C 0.54098 0.23917 0.82339 0.0
C1018 C 0.54948 0.24351 0.83016 0.0
C1019 C 0.55146 0.25512 0.83028 0.0
H1020 H 0.53939 0.23018 0.8234 0.0
H1021 H 0.55695 0.33992 0.84432 0.0
H1022 H 0.03367 0.3373 0.07374 0.0
H1023 H 0.04024 0.3195 0.06567 0.0
H1024 H 0.007 0.30554 0.07003 0.0
H1025 H 1.0003 0.3233 0.07794 0.0
H1026 H 0.02761 0.29993 0.08595 0.0
H1027 H 0.01236 0.29878 0.04925 0.0
H1028 H 0.0086 0.3058 0.03002 0.0
H1029 H 0.04403 0.30421 0.02214 0.0
H1030 H 0.04802 0.29728 0.04142 0.0
H1031 H 0.04176 0.24097 0.08136 0.0
H1032 H 0.0318 0.25728 0.07328 0.0
H1033 H 0.06261 0.27633 0.07337 0.0
H1034 H 0.07274 0.26004 0.08121 0.0
H1035 H 0.04148 0.27835 0.05287 0.0
H1036 H 0.04861 0.29321 0.09705 0.0
H1037 H 0.04712 0.28874 0.11728 0.0
H1038 H 0.02282 0.263 0.11039 0.0
H1039 H 0.02387 0.26771 0.0901 0.0
C1040 C 0.02759 0.33068 0.07241 0.0
C1041 C 0.01654 0.3316 0.07679 0.0
C1042 C 0.03136 0.3205 0.06771 0.0
C1043 C 0.02412 0.3112 0.06729 0.0
C1044 C 0.01269 0.31266 0.07016 0.0
C1045 C 0.0089 0.32282 0.07478 0.0
C1046 C 0.02906 0.2997 0.06788 0.0
C1047 C 0.03056 0.29519 0.07868 0.0
C1048 C 0.03277 0.29352 0.0584 0.0
C1049 C 0.03051 0.29765 0.04681 0.0
C1050 C 0.01937 0.30005 0.04346 0.0
C1051 C 0.01719 0.30397 0.03254 0.0
C1052 C 0.02607 0.30549 0.02487 0.0
C1053 C 0.03716 0.30304 0.0281 0.0
C1054 C 0.03938 0.29909 0.03902 0.0
C1055 C 0.04655 0.24846 0.07924 0.0
C1056 C 0.05805 0.2492 0.08204 0.0
C1057 C 0.04081 0.25779 0.07465 0.0
C1058 C 0.04645 0.26802 0.07283 0.0
C1059 C 0.05812 0.26849 0.07468 0.0
C1060 C 0.06389 0.25914 0.07918 0.0
C1061 C 0.03998 0.27864 0.07102 0.0
C1062 C 0.03842 0.28308 0.06008 0.0
C1063 C 0.0358 0.28473 0.08035 0.0
C1064 C 0.03659 0.28055 0.09207 0.0
C1065 C 0.04315 0.28642 0.09985 0.0
C1066 C 0.04228 0.28393 0.11134 0.0
C1067 C 0.03493 0.2755 0.11514 0.0
C1068 C 0.02858 0.26945 0.10742 0.0
C1069 C 0.02932 0.27202 0.09592 0.0
H1070 H 0.03399 0.27374 0.12405 0.0
H1071 H 0.02437 0.30854 0.01642 0.0
H1072 H 0.24581 0.09215 0.29377 0.0
H1073 H 0.25683 0.07633 0.30101 0.0
H1074 H 0.26429 0.06579 0.26701 0.0
H1075 H 0.2529 0.08144 0.25968 0.0
H1076 H 0.25161 0.05103 0.27832 0.0
H1077 H 0.28574 0.07157 0.28732 0.0
H1078 H 0.29597 0.08725 0.29609 0.0
H1079 H 0.2828 0.07768 0.32862 0.0
H1080 H 0.2724 0.06204 0.32005 0.0
H1081 H 0.261 0.99798 0.29965 0.0
H1082 H 0.26741 0.01521 0.29021 0.0
H1083 H 0.26423 0.03326 0.32153 0.0
H1084 H 0.25829 0.01605 0.33108 0.0
H1085 H 0.27852 0.04385 0.3094 0.0
H1086 H 0.24203 0.02999 0.30422 0.0
H1087 H 0.22642 0.01753 0.29937 0.0
H1088 H 0.23694 0.01797 0.26463 0.0
H1089 H 0.25295 0.03024 0.26937 0.0
C1090 C 0.2502 0.08678 0.2878 0.0
C1091 C 0.24826 0.08788 0.27615 0.0
C1092 C 0.25659 0.07773 0.29198 0.0
C1093 C 0.26134 0.06979 0.28456 0.0
C1094 C 0.26067 0.07179 0.27289 0.0
C1095 C 0.25414 0.08074 0.2687 0.0
C1096 C 0.26432 0.05833 0.28881 0.0
C1097 C 0.25781 0.04939 0.28483 0.0
C1098 C 0.27181 0.05636 0.29787 0.0
C1099 C 0.27829 0.06563 0.30302 0.0
C1100 C 0.285 0.07283 0.29634 0.0
C1101 C 0.29083 0.08171 0.30128 0.0
C1102 C 0.29004 0.08345 0.3129 0.0
C1103 C 0.28343 0.07631 0.31962 0.0
C1104 C 0.2776 0.06742 0.31473 0.0
C1105 C 0.26217 0.00549 0.30464 0.0
C1106 C 0.25882 0.00573 0.31605 0.0
C1107 C 0.26577 0.01537 0.29921 0.0
C1108 C 0.26587 0.02564 0.30506 0.0
C1109 C 0.26408 0.0255 0.31678 0.0
C1110 C 0.26065 0.0156 0.32225 0.0
C1111 C 0.26581 0.0366 0.29885 0.0
C1112 C 0.2727 0.04542 0.30254 0.0
C1113 C 0.25804 0.03876 0.29005 0.0
C1114 C 0.24888 0.0308 0.28721 0.0
C1115 C 0.24119 0.02723 0.29559 0.0
C1116 C 0.23222 0.02023 0.29284 0.0
C1117 C 0.23068 0.01688 0.2817 0.0
C1118 C 0.23818 0.0205 0.27328 0.0
C1119 C 0.24725 0.02745 0.276 0.0
H1120 H 0.22364 0.01155 0.27959 0.0
H1121 H 0.29454 0.09035 0.3167 0.0
H1122 H 0.33584 0.00253 0.54297 0.0
H1123 H 0.31771 0.01 0.53642 0.0
H1124 H 0.30731 0.0157 0.57083 0.0
H1125 H 0.3254 0.00839 0.57746 0.0
H1126 H 0.29526 0.99876 0.55843 0.0
H1127 H 0.30749 0.03715 0.55499 0.0
H1128 H 0.3198 0.05251 0.54824 0.0
H1129 H 0.31159 0.04485 0.51395 0.0
H1130 H 0.29938 0.0293 0.52049 0.0
H1131 H 0.23891 0.00488 0.54541 0.0
H1132 H 0.25646 0.012 0.55323 0.0
H1133 H 0.27095 0.0139 0.51978 0.0
H1134 H 0.25337 0.00717 0.51188 0.0
H1135 H 0.28085 0.02878 0.53282 0.0
H1136 H 0.26945 0.99013 0.53559 0.0
H1137 H 0.25767 0.97414 0.54166 0.0
H1138 H 0.26667 0.97961 0.5761 0.0
H1139 H 0.27751 0.99644 0.57045 0.0
C1140 C 0.32992 0.00586 0.54913 0.0
C1141 C 0.33198 0.00466 0.56076 0.0
C1142 C 0.31954 0.01012 0.54536 0.0
C1143 C 0.31115 0.01327 0.55316 0.0
C1144 C 0.31369 0.01329 0.56469 0.0
C1145 C 0.32406 0.0091 0.56846 0.0
C1146 C 0.29922 0.01416 0.54961 0.0
C1147 C 0.29198 0.00548 0.55307 0.0
C1148 C 0.29523 0.02265 0.54219 0.0
C1149 C 0.30259 0.03198 0.53823 0.0
C1150 C 0.3084 0.03865 0.546 0.0
C1151 C 0.31534 0.04741 0.54221 0.0
C1152 C 0.3165 0.04964 0.53067 0.0
C1153 C 0.3107 0.04311 0.52289 0.0
C1154 C 0.30375 0.03433 0.52664 0.0
C1155 C 0.24564 0.0073 0.53966 0.0
C1156 C 0.24485 0.00513 0.52805 0.0
C1157 C 0.25571 0.01132 0.54416 0.0
C1158 C 0.26516 0.01304 0.53713 0.0
C1159 C 0.26383 0.01245 0.5254 0.0
C1160 C 0.25374 0.00857 0.52088 0.0
C1161 C 0.27672 0.01349 0.54189 0.0
C1162 C 0.28399 0.02223 0.53845 0.0
C1163 C 0.28086 0.00486 0.54921 0.0
C1164 C 0.27412 0.99479 0.55259 0.0
C1165 C 0.26873 0.98813 0.54449 0.0
C1166 C 0.26223 0.97888 0.54785 0.0
C1167 C 0.26155 0.97576 0.55921 0.0
C1168 C 0.26718 0.98205 0.56729 0.0
C1169 C 0.27336 0.99157 0.56403 0.0
H1170 H 0.25665 0.96848 0.56175 0.0
H1171 H 0.32187 0.05643 0.52776 0.0
H1172 H 0.32478 0.00616 0.78582 0.0
H1173 H 0.31851 0.02523 0.79071 0.0
H1174 H 0.32234 0.03567 0.75601 0.0
H1175 H 0.32841 0.01666 0.75097 0.0
H1176 H 0.33871 0.04362 0.77523 0.0
H1177 H 0.30034 0.04176 0.76235 0.0
H1178 H 0.28127 0.03363 0.7617 0.0
H1179 H 0.27672 0.03995 0.79706 0.0
H1180 H 0.29586 0.048 0.79794 0.0
H1181 H 0.34016 0.10054 0.7793 0.0
H1182 H 0.33062 0.08399 0.77203 0.0
H1183 H 0.32011 0.07474 0.80572 0.0
H1184 H 0.32964 0.0913 0.8131 0.0
H1185 H 0.30524 0.06628 0.78702 0.0
H1186 H 0.34335 0.0667 0.80039 0.0
H1187 H 0.36173 0.07579 0.80161 0.0
H1188 H 0.36751 0.07062 0.76622 0.0
H1189 H 0.34859 0.06214 0.76464 0.0
C1190 C 0.32372 0.01233 0.77911 0.0
C1191 C 0.32735 0.00995 0.76803 0.0
C1192 C 0.32013 0.02325 0.78194 0.0
C1193 C 0.32006 0.03185 0.77373 0.0
C1194 C 0.3223 0.02912 0.76245 0.0
C1195 C 0.32578 0.01822 0.75959 0.0
C1196 C 0.32062 0.04379 0.77721 0.0
C1197 C 0.33136 0.04862 0.7776 0.0
C1198 C 0.31108 0.05014 0.7807 0.0
C1199 C 0.29957 0.04536 0.78023 0.0
C1200 C 0.29532 0.04131 0.77001 0.0
C1201 C 0.28449 0.03675 0.7696 0.0
C1202 C 0.27779 0.03624 0.77935 0.0
C1203 C 0.28192 0.04034 0.78952 0.0
C1204 C 0.29275 0.04491 0.78998 0.0
C1205 C 0.33538 0.09531 0.78513 0.0
C1206 C 0.33591 0.0971 0.79682 0.0
C1207 C 0.32988 0.08584 0.78094 0.0
C1208 C 0.32483 0.07802 0.78835 0.0
C1209 C 0.32395 0.08065 0.79984 0.0
C1210 C 0.3295 0.09011 0.80406 0.0
C1211 C 0.32331 0.06617 0.78466 0.0
C1212 C 0.31253 0.0613 0.78446 0.0
C1213 C 0.33284 0.05963 0.78141 0.0
C1214 C 0.34449 0.06398 0.78236 0.0
C1215 C 0.34848 0.06759 0.79283 0.0
C1216 C 0.35903 0.07264 0.79359 0.0
C1217 C 0.36593 0.0737 0.78403 0.0
C1218 C 0.36219 0.06977 0.77364 0.0
C1219 C 0.35149 0.06492 0.77278 0.0
H1220 H 0.37413 0.0776 0.78465 0.0
H1221 H 0.26941 0.03271 0.77901 0.0
H1222 H 0.24655 0.08686 0.03807 0.0
H1223 H 0.26389 0.0775 0.03178 0.0
H1224 H 0.27216 0.06942 0.06629 0.0
H1225 H 0.25489 0.07884 0.07267 0.0
H1226 H 0.28787 0.08242 0.056 0.0
H1227 H 0.26831 0.04832 0.0472 0.0
H1228 H 0.25327 0.03711 0.03854 0.0
H1229 H 0.2635 0.04879 0.00565 0.0
H1230 H 0.2785 0.06018 0.01411 0.0
H1231 H 0.34185 0.07307 0.03636 0.0
H1232 H 0.32477 0.06564 0.04534 0.0
H1233 H 0.30697 0.06963 0.01393 0.0
H1234 H 0.32407 0.07628 0.00481 0.0
H1235 H 0.29646 0.05509 0.02564 0.0
H1236 H 0.31388 0.09103 0.03372 0.0
H1237 H 0.3286 0.1032 0.04158 0.0
H1238 H 0.32039 0.09162 0.07499 0.0
H1239 H 0.30649 0.07844 0.06728 0.0
C1240 C 0.25184 0.08274 0.0443 0.0
C1241 C 0.24943 0.08375 0.05589 0.0
C1242 C 0.26176 0.07735 0.04068 0.0
C1243 C 0.26935 0.07281 0.04858 0.0
C1244 C 0.26643 0.07289 0.06007 0.0
C1245 C 0.25653 0.07827 0.06369 0.0
C1246 C 0.28105 0.06986 0.04506 0.0
C1247 C 0.28983 0.07621 0.04959 0.0
C1248 C 0.28347 0.06206 0.03641 0.0
C1249 C 0.27451 0.05513 0.0313 0.0
C1250 C 0.26731 0.04855 0.03813 0.0
C1251 C 0.2588 0.04215 0.03325 0.0
C1252 C 0.25743 0.04224 0.02156 0.0
C1253 C 0.26458 0.04871 0.01471 0.0
C1254 C 0.2731 0.05512 0.01954 0.0
C1255 C 0.33446 0.07176 0.03122 0.0
C1256 C 0.33418 0.07566 0.01998 0.0
C1257 C 0.32465 0.06761 0.0364 0.0
C1258 C 0.31442 0.06769 0.03047 0.0
C1259 C 0.31467 0.06975 0.01879 0.0
C1260 C 0.32452 0.07357 0.01354 0.0
C1261 C 0.30333 0.06778 0.03647 0.0
C1262 C 0.29461 0.06102 0.03234 0.0
C1263 C 0.30088 0.0755 0.0453 0.0
C1264 C 0.30932 0.08348 0.04987 0.0
C1265 C 0.31534 0.09089 0.04272 0.0
C1266 C 0.32355 0.09799 0.04715 0.0
C1267 C 0.32533 0.09829 0.05877 0.0
C1268 C 0.31905 0.09134 0.06598 0.0
C1269 C 0.31114 0.08391 0.06157 0.0
H1270 H 0.33158 0.10391 0.06218 0.0
H1271 H 0.25083 0.03729 0.0178 0.0
H1272 H 0.29244 0.25294 0.09217 0.0
H1273 H 0.29932 0.26285 0.07542 0.0
H1274 H 0.2652 0.2664 0.06341 0.0
H1275 H 0.25822 0.25645 0.08012 0.0
H1276 H 0.2787 0.25268 0.05048 0.0
H1277 H 0.28109 0.28953 0.06637 0.0
H1278 H 0.2865 0.30324 0.08085 0.0
H1279 H 0.32152 0.29527 0.07523 0.0
H1280 H 0.31632 0.28138 0.06085 0.0
H1281 H 0.30097 0.25965 0.99752 0.0
H1282 H 0.29048 0.26744 0.01348 0.0
H1283 H 0.32089 0.26713 0.03325 0.0
H1284 H 0.33148 0.25962 0.01728 0.0
H1285 H 0.30658 0.2825 0.04141 0.0
H1286 H 0.30555 0.24426 0.02949 0.0
H1287 H 0.30206 0.22844 0.01688 0.0
H1288 H 0.26645 0.23522 0.01818 0.0
H1289 H 0.2698 0.2518 0.03011 0.0
C1290 C 0.28633 0.25628 0.08624 0.0
C1291 C 0.27481 0.25366 0.08732 0.0
C1292 C 0.29029 0.262 0.07666 0.0
C1293 C 0.28277 0.26525 0.06812 0.0
C1294 C 0.27113 0.26393 0.0699 0.0
C1295 C 0.26716 0.25822 0.07947 0.0
C1296 C 0.28715 0.26741 0.05657 0.0
C1297 C 0.28448 0.25946 0.04834 0.0
C1298 C 0.29514 0.27588 0.05405 0.0
C1299 C 0.29831 0.28439 0.06254 0.0
C1300 C 0.28995 0.29066 0.06826 0.0
C1301 C 0.29297 0.29847 0.07645 0.0
C1302 C 0.30434 0.30012 0.07896 0.0
C1303 C 0.31271 0.29399 0.07327 0.0
C1304 C 0.30973 0.28617 0.06508 0.0
C1305 C 0.30556 0.26176 0.00507 0.0
C1306 C 0.31699 0.25867 0.00626 0.0
C1307 C 0.29952 0.26619 0.01422 0.0
C1308 C 0.30482 0.26745 0.02468 0.0
C1309 C 0.31658 0.26607 0.02531 0.0
C1310 C 0.32264 0.26175 0.01614 0.0
C1311 C 0.29804 0.26782 0.03528 0.0
C1312 C 0.30041 0.27605 0.04337 0.0
C1313 C 0.29001 0.25933 0.03788 0.0
C1314 C 0.28797 0.24951 0.03045 0.0
C1315 C 0.29699 0.24258 0.0269 0.0
C1316 C 0.29503 0.23341 0.01988 0.0
C1317 C 0.28404 0.23073 0.01676 0.0
C1318 C 0.27497 0.23733 0.02054 0.0
C1319 C 0.27691 0.24672 0.02732 0.0
H1320 H 0.28256 0.22352 0.01143 0.0
H1321 H 0.30667 0.30616 0.08532 0.0
H1322 H 0.78792 0.34718 0.0094 0.0
H1323 H 0.79471 0.34174 0.02775 0.0
H1324 H 0.77576 0.31077 0.02622 0.0
H1325 H 0.76769 0.31709 0.00819 0.0
H1326 H 0.77191 0.31838 0.04467 0.0
H1327 H 0.8083 0.31379 0.02682 0.0
H1328 H 0.82415 0.31931 0.01434 0.0
H1329 H 0.82928 0.3491 0.03397 0.0
H1330 H 0.81344 0.34382 0.04649 0.0
H1331 H 0.81464 0.32476 0.09601 0.0
H1332 H 0.80966 0.31617 0.07803 0.0
H1333 H 0.77892 0.336 0.07747 0.0
H1334 H 0.78343 0.34383 0.09562 0.0
H1335 H 0.80952 0.32746 0.06003 0.0
H1336 H 0.76128 0.33016 0.06139 0.0
H1337 H 0.74552 0.32492 0.0741 0.0
H1338 H 0.76499 0.297 0.08702 0.0
H1339 H 0.78092 0.3022 0.0745 0.0
C1340 C 0.7855 0.33899 0.01275 0.0
C1341 C 0.77739 0.33247 0.00729 0.0
C1342 C 0.78951 0.33581 0.02331 0.0
C1343 C 0.78607 0.32564 0.02843 0.0
C1344 C 0.7786 0.31865 0.02252 0.0
C1345 C 0.77409 0.32216 0.01215 0.0
C1346 C 0.789 0.32323 0.04045 0.0
C1347 C 0.78025 0.3201 0.04792 0.0
C1348 C 0.79986 0.32539 0.04491 0.0
C1349 C 0.80968 0.32837 0.03761 0.0
C1350 C 0.81282 0.3215 0.02848 0.0
C1351 C 0.8218 0.3246 0.0214 0.0
C1352 C 0.82773 0.33454 0.02337 0.0
C1353 C 0.82472 0.34138 0.03247 0.0
C1354 C 0.81577 0.33831 0.03959 0.0
C1355 C 0.80652 0.32677 0.09232 0.0
C1356 C 0.79942 0.33494 0.09724 0.0
C1357 C 0.80373 0.32195 0.08198 0.0
C1358 C 0.79388 0.32537 0.07631 0.0
C1359 C 0.78636 0.33285 0.08173 0.0
C1360 C 0.78899 0.3374 0.09218 0.0
C1361 C 0.79239 0.32285 0.06411 0.0
C1362 C 0.80137 0.3252 0.05665 0.0
C1363 C 0.78184 0.31981 0.05963 0.0
C1364 C 0.77225 0.31655 0.06702 0.0
C1365 C 0.76215 0.32285 0.06689 0.0
C1366 C 0.75322 0.31994 0.07411 0.0
C1367 C 0.75425 0.31063 0.08136 0.0
C1368 C 0.76422 0.30424 0.08144 0.0
C1369 C 0.77322 0.3072 0.07433 0.0
H1370 H 0.74732 0.30837 0.08692 0.0
H1371 H 0.83464 0.33695 0.01785 0.0
H1372 H 0.01818 0.52447 0.24385 0.0
H1373 H 0.02562 0.53181 0.26161 0.0
H1374 H 0.99547 0.5524 0.26532 0.0
H1375 H 0.98916 0.54646 0.24711 0.0
H1376 H 0.00821 0.56203 0.27605 0.0
H1377 H 1.00084 0.52169 0.27611 0.0
H1378 H 0.00381 0.50202 0.26995 0.0
H1379 H 0.03846 0.50343 0.28022 0.0
H1380 H 0.0357 0.52315 0.28633 0.0
H1381 H 0.99224 0.53918 0.33261 0.0
H1382 H 1.00105 0.53424 0.31471 0.0
H1383 H 0.01987 0.56528 0.31499 0.0
H1384 H 0.01033 0.57068 0.33255 0.0
H1385 H 0.0189 0.5312 0.30254 0.0
H1386 H 0.01664 0.57877 0.29606 0.0
H1387 H 0.00511 0.59482 0.303 0.0
H1388 H 0.97611 0.57337 0.30556 0.0
H1389 H 0.98755 0.55719 0.299 0.0
C1390 C 0.01353 0.53101 0.24827 0.0
C1391 C 0.00318 0.535 0.24411 0.0
C1392 C 0.01763 0.53503 0.25855 0.0
C1393 C 0.01095 0.54236 0.26521 0.0
C1394 C 1.00097 0.54684 0.26054 0.0
C1395 C 0.99729 0.5434 0.25003 0.0
C1396 C 0.01339 0.54452 0.27738 0.0
C1397 C 0.01071 0.55525 0.28172 0.0
C1398 C 0.01645 0.53576 0.28507 0.0
C1399 C 0.01811 0.5239 0.28153 0.0
C1400 C 0.00909 0.51779 0.27702 0.0
C1401 C 0.01074 0.50665 0.27353 0.0
C1402 C 0.02133 0.50149 0.27466 0.0
C1403 C 0.03028 0.50745 0.27932 0.0
C1404 C 0.02868 0.5186 0.28279 0.0
C1405 C 0.99859 0.54477 0.32911 0.0
C1406 C 1.00044 0.55543 0.33384 0.0
C1407 C 0.00364 0.54192 0.31882 0.0
C1408 C 0.01082 0.54958 0.31328 0.0
C1409 C 0.01404 0.55942 0.31893 0.0
C1410 C 0.00869 0.56246 0.32902 0.0
C1411 C 0.01301 0.54837 0.30097 0.0
C1412 C 0.01673 0.53797 0.2967 0.0
C1413 C 0.00971 0.55699 0.29333 0.0
C1414 C 0.00294 0.56682 0.29712 0.0
C1415 C 0.00781 0.57753 0.29812 0.0
C1416 C 1.0013 0.58661 0.30206 0.0
C1417 C 0.9899 0.5851 0.3048 0.0
C1418 C 0.98496 0.57451 0.30359 0.0
C1419 C 0.99146 0.56538 0.29982 0.0
H1420 H 0.98488 0.59215 0.30783 0.0
H1421 H 0.0226 0.49287 0.27195 0.0
H1422 H 0.78506 0.73595 0.4937 0.0
H1423 H 0.77722 0.74438 0.5107 0.0
H1424 H 0.80632 0.76595 0.51301 0.0
H1425 H 0.81457 0.75689 0.49635 0.0
H1426 H 0.80376 0.75518 0.53146 0.0
H1427 H 0.77639 0.77586 0.50833 0.0
H1428 H 0.76163 0.77711 0.49377 0.0
H1429 H 0.7414 0.75328 0.5123 0.0
H1430 H 0.75603 0.75182 0.52689 0.0
H1431 H 0.78431 0.76007 0.58674 0.0
H1432 H 0.78963 0.76789 0.56826 0.0
H1433 H 0.76044 0.7521 0.55369 0.0
H1434 H 0.75444 0.74579 0.57205 0.0
H1435 H 0.76447 0.76652 0.54076 0.0
H1436 H 0.79126 0.73941 0.55793 0.0
H1437 H 0.80551 0.73306 0.57176 0.0
H1438 H 0.82559 0.76225 0.56417 0.0
H1439 H 0.81141 0.76878 0.55036 0.0
C1440 C 0.78961 0.74276 0.4976 0.0
C1441 C 0.80043 0.74577 0.49372 0.0
C1442 C 0.78507 0.74766 0.50733 0.0
C1443 C 0.79107 0.75597 0.51314 0.0
C1444 C 0.8015 0.75959 0.50871 0.0
C1445 C 0.8062 0.75444 0.49917 0.0
C1446 C 0.78743 0.75942 0.52468 0.0
C1447 C 0.79521 0.7579 0.53345 0.0
C1448 C 0.7762 0.76261 0.52741 0.0
C1449 C 0.76731 0.76376 0.51871 0.0
C1450 C 0.7688 0.77089 0.50929 0.0
C1451 C 0.76045 0.77163 0.50103 0.0
C1452 C 0.75058 0.76529 0.50211 0.0
C1453 C 0.74902 0.75822 0.51148 0.0
C1454 C 0.75732 0.75746 0.51976 0.0
C1455 C 0.77879 0.75878 0.57964 0.0
C1456 C 0.76907 0.75213 0.58084 0.0
C1457 C 0.78195 0.76304 0.569 0.0
C1458 C 0.77584 0.76008 0.55932 0.0
C1459 C 0.76549 0.7545 0.56083 0.0
C1460 C 0.76204 0.75081 0.57147 0.0
C1461 C 0.78055 0.76138 0.54761 0.0
C1462 C 0.77307 0.76399 0.53877 0.0
C1463 C 0.79187 0.75844 0.54481 0.0
C1464 C 0.80022 0.75466 0.55329 0.0
C1465 C 0.79868 0.7445 0.55929 0.0
C1466 C 0.80674 0.74087 0.5671 0.0
C1467 C 0.81642 0.74728 0.56888 0.0
C1468 C 0.81807 0.75732 0.56283 0.0
C1469 C 0.81003 0.76099 0.55502 0.0
H1470 H 0.82266 0.74444 0.57491 0.0
H1471 H 0.74415 0.76584 0.4957 0.0
H1472 H 0.09635 0.03826 0.24539 0.0
H1473 H 0.0888 0.03071 0.2629 0.0
H1474 H 0.06839 0.06075 0.26718 0.0
H1475 H 0.07681 0.06882 0.24996 0.0
H1476 H 0.07947 0.05685 0.28519 0.0
H1477 H 0.05765 0.03106 0.26146 0.0
H1478 H 0.05655 0.01705 0.24621 0.0
H1479 H 0.08039 0.9957 0.26345 0.0
H1480 H 0.08169 0.00957 0.27873 0.0
H1481 H 0.07369 0.03542 0.33972 0.0
H1482 H 0.06601 0.04172 0.32156 0.0
H1483 H 0.08147 0.01272 0.30558 0.0
H1484 H 0.08769 0.00583 0.32362 0.0
H1485 H 0.06683 0.01779 0.29319 0.0
H1486 H 0.09473 0.04193 0.31113 0.0
H1487 H 0.10125 0.05458 0.32612 0.0
H1488 H 0.0735 0.07721 0.31956 0.0
H1489 H 0.06669 0.06454 0.30469 0.0
C1490 C 0.08993 0.04311 0.24981 0.0
C1491 C 0.08708 0.0541 0.24623 0.0
C1492 C 0.08554 0.03873 0.25986 0.0
C1493 C 0.07776 0.045 0.26632 0.0
C1494 C 0.07431 0.05569 0.26233 0.0
C1495 C 0.07903 0.06027 0.25245 0.0
C1496 C 0.0745 0.04107 0.27787 0.0
C1497 C 0.07645 0.04837 0.28691 0.0
C1498 C 0.071 0.02988 0.28023 0.0
C1499 C 0.06971 0.02134 0.27125 0.0
C1500 C 0.06261 0.02336 0.26201 0.0
C1501 C 0.06197 0.01544 0.25335 0.0
C1502 C 0.06838 0.00549 0.25387 0.0
C1503 C 0.07539 0.00338 0.26307 0.0
C1504 C 0.07605 0.01125 0.27175 0.0
C1505 C 0.07493 0.03017 0.33238 0.0
C1506 C 0.08146 0.02024 0.33306 0.0
C1507 C 0.07073 0.03387 0.32194 0.0
C1508 C 0.07365 0.02807 0.31199 0.0
C1509 C 0.07911 0.01753 0.31298 0.0
C1510 C 0.08274 0.01356 0.32341 0.0
C1511 C 0.07251 0.03332 0.30053 0.0
C1512 C 0.06959 0.02636 0.29148 0.0
C1513 C 0.07593 0.04456 0.29814 0.0
C1514 C 0.08012 0.05223 0.30694 0.0
C1515 C 0.09 0.04959 0.31293 0.0
C1516 C 0.09373 0.05674 0.32141 0.0
C1517 C 0.08778 0.06668 0.32381 0.0
C1518 C 0.07808 0.06949 0.31772 0.0
C1519 C 0.07427 0.06231 0.30929 0.0
H1520 H 0.09069 0.07222 0.33036 0.0
H1521 H 0.06792 0.99941 0.24713 0.0
H1522 H 0.3185 0.82957 0.58754 0.0
H1523 H 0.31297 0.82282 0.56899 0.0
H1524 H 0.27802 0.82949 0.57726 0.0
H1525 H 0.28342 0.83584 0.59588 0.0
H1526 H 0.27903 0.81261 0.56348 0.0
H1527 H 0.29591 0.85011 0.56412 0.0
H1528 H 0.31111 0.86376 0.56748 0.0
H1529 H 0.33342 0.84506 0.54577 0.0
H1530 H 0.31834 0.83128 0.54224 0.0
H1531 H 0.25261 0.83635 0.51635 0.0
H1532 H 0.26116 0.82986 0.53373 0.0
H1533 H 0.29268 0.82385 0.51616 0.0
H1534 H 0.28425 0.83102 0.4987 0.0
H1535 H 0.29628 0.83635 0.53339 0.0
H1536 H 0.27626 0.80161 0.52946 0.0
H1537 H 0.25941 0.79031 0.52531 0.0
H1538 H 0.24168 0.80553 0.55309 0.0
H1539 H 0.25837 0.81699 0.55734 0.0
C1540 C 0.30959 0.82915 0.58559 0.0
C1541 C 0.30141 0.83342 0.59315 0.0
C1542 C 0.30646 0.82542 0.57491 0.0
C1543 C 0.29511 0.82603 0.57157 0.0
C1544 C 0.28684 0.82904 0.57957 0.0
C1545 C 0.28995 0.83264 0.59029 0.0
C1546 C 0.29188 0.82481 0.55954 0.0
C1547 C 0.28284 0.81774 0.55688 0.0
C1548 C 0.29697 0.83136 0.55084 0.0
C1549 C 0.30607 0.83957 0.55306 0.0
C1550 C 0.30409 0.84886 0.56014 0.0
C1551 C 0.31267 0.85663 0.56206 0.0
C1552 C 0.32325 0.85524 0.55692 0.0
C1553 C 0.32524 0.8461 0.54978 0.0
C1554 C 0.31668 0.83832 0.5478 0.0
C1555 C 0.26124 0.83326 0.51604 0.0
C1556 C 0.26775 0.83428 0.50613 0.0
C1557 C 0.26614 0.82948 0.52604 0.0
C1558 C 0.27758 0.82625 0.52631 0.0
C1559 C 0.28384 0.8263 0.51619 0.0
C1560 C 0.27898 0.8303 0.50618 0.0
C1561 C 0.28323 0.82432 0.53735 0.0
C1562 C 0.29271 0.83087 0.53986 0.0
C1563 C 0.27843 0.81743 0.54593 0.0
C1564 C 0.26858 0.81013 0.54373 0.0
C1565 C 0.26878 0.80252 0.5347 0.0
C1566 C 0.25925 0.7961 0.53232 0.0
C1567 C 0.24949 0.79719 0.53894 0.0
C1568 C 0.24926 0.80466 0.548 0.0
C1569 C 0.25876 0.81109 0.55042 0.0
H1570 H 0.2421 0.79226 0.53705 0.0
H1571 H 0.32988 0.86126 0.55845 0.0
H1572 H 0.57101 0.56745 0.74882 0.0
H1573 H 0.56375 0.55874 0.7662 0.0
H1574 H 0.58293 0.52847 0.75893 0.0
H1575 H 0.58923 0.53668 0.74122 0.0
H1576 H 0.56799 0.52246 0.77204 0.0
H1577 H 0.59444 0.55319 0.77331 0.0
H1578 H 0.60104 0.57263 0.7698 0.0
H1579 H 0.57307 0.58574 0.78902 0.0
H1580 H 0.56627 0.56636 0.79259 0.0
H1581 H 0.59712 0.50832 0.82122 0.0
H1582 H 0.58999 0.51438 0.80314 0.0
H1583 H 0.56821 0.53877 0.81947 0.0
H1584 H 0.57625 0.53332 0.83783 0.0
H1585 H 0.57904 0.54807 0.80285 0.0
H1586 H 0.55859 0.51231 0.80525 0.0
H1587 H 0.55865 0.49178 0.80906 0.0
H1588 H 0.5828 0.48675 0.78232 0.0
H1589 H 0.58296 0.50721 0.77842 0.0
C1590 C 0.57317 0.55873 0.75068 0.0
C1591 C 0.58088 0.55284 0.74379 0.0
C1592 C 0.56916 0.5538 0.76069 0.0
C1593 C 0.57327 0.54316 0.76421 0.0
C1594 C 0.57973 0.53675 0.75657 0.0
C1595 C 0.58336 0.54149 0.74637 0.0
C1596 C 0.57258 0.53947 0.77626 0.0
C1597 C 0.57029 0.5281 0.77879 0.0
C1598 C 0.57568 0.54674 0.78515 0.0
C1599 C 0.57976 0.55837 0.78308 0.0
C1600 C 0.58968 0.56023 0.77674 0.0
C1601 C 0.59345 0.57123 0.77474 0.0
C1602 C 0.58745 0.58041 0.77913 0.0
C1603 C 0.57769 0.57862 0.78559 0.0
C1604 C 0.57387 0.56764 0.78761 0.0
C1605 C 0.59055 0.51474 0.82106 0.0
C1606 C 0.58707 0.52021 0.83098 0.0
C1607 C 0.5864 0.51816 0.81064 0.0
C1608 C 0.5782 0.52675 0.80988 0.0
C1609 C 0.5744 0.53199 0.81984 0.0
C1610 C 0.57891 0.52884 0.83032 0.0
C1611 C 0.5747 0.53102 0.79859 0.0
C1612 C 0.57624 0.54253 0.79621 0.0
C1613 C 0.57162 0.5237 0.78974 0.0
C1614 C 0.57071 0.5113 0.79149 0.0
C1615 C 0.56383 0.50681 0.80012 0.0
C1616 C 0.56386 0.49519 0.80232 0.0
C1617 C 0.5707 0.48797 0.79592 0.0
C1618 C 0.57745 0.49234 0.78723 0.0
C1619 C 0.57745 0.50394 0.78499 0.0
H1620 H 0.57079 0.47899 0.7977 0.0
H1621 H 0.59038 0.58892 0.77756 0.0
H1622 H 0.74991 0.48934 0.78043 0.0
H1623 H 0.75683 0.50786 0.77472 0.0
H1624 H 0.76862 0.51352 0.8085 0.0
H1625 H 0.7616 0.49505 0.81432 0.0
H1626 H 0.75162 0.52809 0.80178 0.0
H1627 H 0.78697 0.5141 0.78562 0.0
H1628 H 0.7978 0.50138 0.77312 0.0
H1629 H 0.77975 0.51425 0.74444 0.0
H1630 H 0.76872 0.52694 0.75678 0.0
H1631 H 0.75318 0.58523 0.78938 0.0
H1632 H 0.7614 0.56718 0.79541 0.0
H1633 H 0.75861 0.5547 0.76145 0.0
H1634 H 0.75123 0.57282 0.75528 0.0
H1635 H 0.77416 0.54382 0.77002 0.0
H1636 H 0.73662 0.55248 0.78241 0.0
H1637 H 0.7212 0.56284 0.79202 0.0
H1638 H 0.7375 0.55777 0.82386 0.0
H1639 H 0.75311 0.54749 0.81444 0.0
C1640 C 0.75448 0.49426 0.78652 0.0
C1641 C 0.75498 0.49082 0.79789 0.0
C1642 C 0.75843 0.50489 0.78323 0.0
C1643 C 0.76311 0.51213 0.79123 0.0
C1644 C 0.76496 0.50809 0.80222 0.0
C1645 C 0.76099 0.49749 0.80552 0.0
C1646 C 0.76389 0.5244 0.78879 0.0
C1647 C 0.75682 0.5316 0.79506 0.0
C1648 C 0.7701 0.52883 0.77957 0.0
C1649 C 0.77702 0.52146 0.77214 0.0
C1650 C 0.7853 0.5142 0.77666 0.0
C1651 C 0.79148 0.507 0.7696 0.0
C1652 C 0.78947 0.50701 0.758 0.0
C1653 C 0.78132 0.51426 0.75342 0.0
C1654 C 0.77513 0.52148 0.76044 0.0
C1655 C 0.75477 0.57879 0.78312 0.0
C1656 C 0.75131 0.58037 0.77191 0.0
C1657 C 0.75934 0.56841 0.7866 0.0
C1658 C 0.76017 0.55939 0.779 0.0
C1659 C 0.75795 0.56143 0.76755 0.0
C1660 C 0.75368 0.57186 0.76402 0.0
C1661 C 0.76188 0.54756 0.78302 0.0
C1662 C 0.76927 0.54041 0.77701 0.0
C1663 C 0.75538 0.54298 0.79204 0.0
C1664 C 0.74613 0.54938 0.7977 0.0
C1665 C 0.73698 0.55367 0.79144 0.0
C1666 C 0.72819 0.5595 0.79685 0.0
C1667 C 0.7284 0.56099 0.80852 0.0
C1668 C 0.73738 0.55664 0.81481 0.0
C1669 C 0.7462 0.55082 0.80945 0.0
H1670 H 0.72158 0.5655 0.81268 0.0
H1671 H 0.79423 0.5014 0.75255 0.0
H1672 H 0.7453 0.50881 0.03603 0.0
H1673 H 0.76426 0.51514 0.04093 0.0
H1674 H 0.77555 0.50924 0.00684 0.0
H1675 H 0.75665 0.50328 0.00175 0.0
H1676 H 0.78508 0.49492 0.02565 0.0
H1677 H 0.78018 0.53234 0.01254 0.0
H1678 H 0.77082 0.55087 0.0104 0.0
H1679 H 0.77487 0.55704 0.04577 0.0
H1680 H 0.78411 0.53843 0.04816 0.0
H1681 H 0.84162 0.49861 0.03818 0.0
H1682 H 0.82539 0.50613 0.02795 0.0
H1683 H 0.80966 0.51582 0.05935 0.0
H1684 H 0.82583 0.50822 0.0697 0.0
H1685 H 0.8031 0.52971 0.03974 0.0
H1686 H 0.80856 0.49097 0.05177 0.0
H1687 H 0.82007 0.47378 0.05202 0.0
H1688 H 0.81381 0.46879 0.01683 0.0
H1689 H 0.8036 0.48702 0.01597 0.0
C1690 C 0.75165 0.5094 0.02943 0.0
C1691 C 0.74948 0.50535 0.01854 0.0
C1692 C 0.7625 0.51298 0.03226 0.0
C1693 C 0.7713 0.51251 0.02426 0.0
C1694 C 0.76886 0.50965 0.01312 0.0
C1695 C 0.758 0.50627 0.01023 0.0
C1696 C 0.78319 0.51283 0.028 0.0
C1697 C 0.78912 0.50256 0.02851 0.0
C1698 C 0.78832 0.52278 0.03186 0.0
C1699 C 0.7827 0.53393 0.03056 0.0
C1700 C 0.77895 0.53758 0.0199 0.0
C1701 C 0.7737 0.54812 0.01863 0.0
C1702 C 0.77221 0.55512 0.02795 0.0
C1703 C 0.77601 0.5516 0.03856 0.0
C1704 C 0.78126 0.54106 0.03987 0.0
C1705 C 0.83495 0.50277 0.04292 0.0
C1706 C 0.83487 0.50253 0.05479 0.0
C1707 C 0.82567 0.50711 0.03702 0.0
C1708 C 0.81621 0.51128 0.04291 0.0
C1709 C 0.81684 0.51256 0.05465 0.0
C1710 C 0.82608 0.50815 0.06057 0.0
C1711 C 0.80502 0.51179 0.03737 0.0
C1712 C 0.79914 0.52212 0.03668 0.0
C1713 C 0.79994 0.50186 0.03316 0.0
C1714 C 0.80558 0.4906 0.03375 0.0
C1715 C 0.80985 0.48641 0.044 0.0
C1716 C 0.81616 0.47642 0.04425 0.0
C1717 C 0.81754 0.47002 0.0345 0.0
C1718 C 0.81278 0.47377 0.02439 0.0
C1719 C 0.80692 0.48407 0.02396 0.0
H1720 H 0.8223 0.46218 0.03479 0.0
H1721 H 0.76816 0.56328 0.02695 0.0
H1722 H 0.85569 0.57986 0.30685 0.0
H1723 H 0.85003 0.56155 0.29971 0.0
H1724 H 0.81895 0.5762 0.28746 0.0
H1725 H 0.82486 0.59492 0.2944 0.0
H1726 H 0.81903 0.55383 0.30267 0.0
H1727 H 0.83392 0.57039 0.26806 0.0
H1728 H 0.84813 0.58096 0.257 0.0
H1729 H 0.87349 0.55638 0.2658 0.0
H1730 H 0.85947 0.54574 0.27701 0.0
H1731 H 0.82881 0.50112 0.26347 0.0
H1732 H 0.82211 0.52016 0.26789 0.0
H1733 H 0.83804 0.51783 0.30038 0.0
H1734 H 0.84448 0.49878 0.29618 0.0
H1735 H 0.84086 0.53527 0.27201 0.0
H1736 H 0.82817 0.52983 0.3148 0.0
H1737 H 0.81597 0.51902 0.32792 0.0
H1738 H 0.78852 0.5217 0.30456 0.0
H1739 H 0.8007 0.53229 0.29121 0.0
C1740 C 0.8476 0.57916 0.3027 0.0
C1741 C 0.8406 0.58867 0.30129 0.0
C1742 C 0.84443 0.56874 0.29858 0.0
C1743 C 0.83411 0.56757 0.29308 0.0
C1744 C 0.82696 0.57702 0.2917 0.0
C1745 C 0.8303 0.58763 0.29565 0.0
C1746 C 0.83101 0.55625 0.2891 0.0
C1747 C 0.82354 0.54984 0.29574 0.0
C1748 C 0.83719 0.55099 0.28031 0.0
C1749 C 0.84563 0.55729 0.27341 0.0
C1750 C 0.84254 0.56728 0.26769 0.0
C1751 C 0.85056 0.57327 0.26138 0.0
C1752 C 0.8617 0.56935 0.26071 0.0
C1753 C 0.86485 0.55941 0.26631 0.0
C1754 C 0.85686 0.55337 0.27263 0.0
C1755 C 0.83034 0.50442 0.2718 0.0
C1756 C 0.83725 0.49846 0.27944 0.0
C1757 C 0.82655 0.51534 0.2743 0.0
C1758 C 0.82953 0.52041 0.28448 0.0
C1759 C 0.83536 0.514 0.2926 0.0
C1760 C 0.83906 0.50305 0.29016 0.0
C1761 C 0.82888 0.53284 0.28558 0.0
C1762 C 0.83589 0.53938 0.27855 0.0
C1763 C 0.82256 0.53817 0.29419 0.0
C1764 C 0.81533 0.53167 0.30201 0.0
C1765 C 0.81955 0.52801 0.31246 0.0
C1766 C 0.81266 0.52193 0.31992 0.0
C1767 C 0.80149 0.51964 0.31706 0.0
C1768 C 0.7972 0.5234 0.30672 0.0
C1769 C 0.80411 0.52938 0.29918 0.0
H1770 H 0.79614 0.51498 0.32287 0.0
H1771 H 0.8679 0.57402 0.25583 0.0
H1772 H 0.83569 0.59758 0.53879 0.0
H1773 H 0.81851 0.58864 0.54566 0.0
H1774 H 0.81298 0.57462 0.51271 0.0
H1775 H 0.82996 0.58404 0.50564 0.0
H1776 H 0.79574 0.58679 0.51895 0.0
H1777 H 0.81768 0.55783 0.538 0.0
H1778 H 0.83285 0.55107 0.55056 0.0
H1779 H 0.8181 0.56941 0.57813 0.0
H1780 H 0.80295 0.57641 0.56574 0.0
H1781 H 0.74076 0.57965 0.54 0.0
H1782 H 0.75873 0.57324 0.53182 0.0
H1783 H 0.77553 0.58149 0.56285 0.0
H1784 H 0.75767 0.58679 0.57126 0.0
H1785 H 0.78699 0.56683 0.55481 0.0
H1786 H 0.77033 0.60033 0.53744 0.0
H1787 H 0.75725 0.61191 0.52602 0.0
H1788 H 0.76329 0.59053 0.49752 0.0
H1789 H 0.77641 0.57881 0.50878 0.0
C1790 C 0.8311 0.5922 0.53311 0.0
C1791 C 0.83416 0.59155 0.52165 0.0
C1792 C 0.82123 0.58705 0.53707 0.0
C1793 C 0.81442 0.58088 0.52973 0.0
C1794 C 0.81808 0.57934 0.51854 0.0
C1795 C 0.82782 0.58467 0.51452 0.0
C1796 C 0.80271 0.57779 0.53316 0.0
C1797 C 0.79381 0.58215 0.52665 0.0
C1798 C 0.80018 0.57212 0.54341 0.0
C1799 C 0.80917 0.56764 0.55092 0.0
C1800 C 0.81768 0.56044 0.54673 0.0
C1801 C 0.82629 0.55657 0.55383 0.0
C1802 C 0.82644 0.5598 0.56513 0.0
C1803 C 0.81797 0.56689 0.56938 0.0
C1804 C 0.80936 0.57079 0.56233 0.0
C1805 C 0.74823 0.57962 0.5452 0.0
C1806 C 0.74779 0.58392 0.55622 0.0
C1807 C 0.75856 0.57613 0.54045 0.0
C1808 C 0.76866 0.57733 0.5465 0.0
C1809 C 0.76797 0.58053 0.55787 0.0
C1810 C 0.75766 0.58361 0.56272 0.0
C1811 C 0.78002 0.57647 0.54096 0.0
C1812 C 0.78887 0.57124 0.54696 0.0
C1813 C 0.78259 0.58192 0.53055 0.0
C1814 C 0.77418 0.58857 0.52402 0.0
C1815 C 0.76875 0.59801 0.52879 0.0
C1816 C 0.76137 0.60463 0.52233 0.0
C1817 C 0.75938 0.60192 0.51108 0.0
C1818 C 0.76478 0.59259 0.50625 0.0
C1819 C 0.77219 0.58596 0.51267 0.0
H1820 H 0.75369 0.60707 0.50608 0.0
H1821 H 0.83312 0.55682 0.5706 0.0
H1822 H 0.49959 0.04046 0.8384 0.0
H1823 H 0.50637 0.03287 0.82046 0.0
H1824 H 0.51635 0.06625 0.80978 0.0
H1825 H 0.5095 0.07391 0.82761 0.0
H1826 H 0.50074 0.05738 0.7962 0.0
H1827 H 0.53573 0.04506 0.81226 0.0
H1828 H 0.54796 0.03518 0.82593 0.0
H1829 H 0.53313 0.00351 0.81718 0.0
H1830 H 0.52068 0.01323 0.80357 0.0
H1831 H 0.50774 0.04075 0.74072 0.0
H1832 H 0.51484 0.04792 0.75859 0.0
H1833 H 0.50952 0.01525 0.77405 0.0
H1834 H 0.50332 0.00788 0.75615 0.0
H1835 H 0.52485 0.02487 0.78511 0.0
H1836 H 0.48894 0.03757 0.76971 0.0
H1837 H 0.47668 0.04777 0.75618 0.0
H1838 H 0.49185 0.07913 0.76507 0.0
H1839 H 0.50479 0.06915 0.77798 0.0
C1840 C 0.50366 0.04612 0.83244 0.0
C1841 C 0.50385 0.05783 0.83438 0.0
C1842 C 0.50753 0.04175 0.82215 0.0
C1843 C 0.51175 0.04901 0.81371 0.0
C1844 C 0.51305 0.0605 0.81614 0.0
C1845 C 0.50917 0.06487 0.82638 0.0
C1846 C 0.51295 0.0451 0.80187 0.0
C1847 C 0.50623 0.05044 0.7937 0.0
C1848 C 0.51976 0.03577 0.79874 0.0
C1849 C 0.5272 0.0299 0.80695 0.0
C1850 C 0.535 0.03601 0.81332 0.0
C1851 C 0.54199 0.03043 0.82105 0.0
C1852 C 0.54131 0.01873 0.82244 0.0
C1853 C 0.53364 0.01258 0.8161 0.0
C1854 C 0.52663 0.01812 0.80837 0.0
C1855 C 0.50862 0.03497 0.74778 0.0
C1856 C 0.50471 0.02382 0.74706 0.0
C1857 C 0.51254 0.0391 0.75806 0.0
C1858 C 0.51216 0.03229 0.76784 0.0
C1859 C 0.5097 0.02078 0.76672 0.0
C1860 C 0.50615 0.01655 0.7564 0.0
C1861 C 0.51272 0.03726 0.77933 0.0
C1862 C 0.51957 0.032 0.78751 0.0
C1863 C 0.50589 0.04664 0.78254 0.0
C1864 C 0.49802 0.05255 0.77469 0.0
C1865 C 0.48979 0.04662 0.76868 0.0
C1866 C 0.48272 0.05235 0.76112 0.0
C1867 C 0.48344 0.06405 0.75985 0.0
C1868 C 0.49133 0.07006 0.76603 0.0
C1869 C 0.49862 0.06435 0.77337 0.0
H1870 H 0.47789 0.06846 0.75406 0.0
H1871 H 0.54674 0.01442 0.82842 0.0
H1872 H 0.97987 0.3254 0.20527 0.0
H1873 H 0.98508 0.33386 0.18699 0.0
H1874 H 0.97561 0.36672 0.19938 0.0
H1875 H 0.97064 0.35832 0.21777 0.0
H1876 H 0.9687 0.35059 0.17369 0.0
H1877 H 0.99793 0.37392 0.19817 0.0
H1878 H 0.01535 0.37419 0.20957 0.0
H1879 H 0.0304 0.34903 0.18832 0.0
H1880 H 0.01313 0.3486 0.17684 0.0
H1881 H 0.98051 0.37596 0.12293 0.0
H1882 H 0.97608 0.3767 0.14308 0.0
H1883 H 0.01019 0.36573 0.15033 0.0
H1884 H 0.01494 0.36711 0.13062 0.0
H1885 H 0.00424 0.37164 0.16749 0.0
H1886 H 0.98163 0.34238 0.14698 0.0
H1887 H 0.96766 0.33535 0.13344 0.0
H1888 H 0.94494 0.36232 0.14215 0.0
H1889 H 0.95844 0.36902 0.15636 0.0
C1890 C 0.97879 0.33441 0.20404 0.0
C1891 C 0.97509 0.34128 0.21297 0.0
C1892 C 0.9819 0.33924 0.19367 0.0
C1893 C 0.98117 0.35097 0.19206 0.0
C1894 C 0.97657 0.3577 0.20063 0.0
C1895 C 0.97353 0.35288 0.21102 0.0
C1896 C 0.98418 0.35612 0.18107 0.0
C1897 C 0.97645 0.35527 0.17229 0.0
C1898 C 0.9945 0.36169 0.1791 0.0
C1899 C 0.00411 0.36095 0.18694 0.0
C1900 C 0.00485 0.36824 0.19613 0.0
C1901 C 0.01471 0.36846 0.20256 0.0
C1902 C 0.02385 0.36144 0.19984 0.0
C1903 C 0.02324 0.3543 0.19057 0.0
C1904 C 0.0134 0.35403 0.18414 0.0
C1905 C 0.98724 0.37465 0.12895 0.0
C1906 C 0.99797 0.3711 0.12528 0.0
C1907 C 0.98457 0.3745 0.14047 0.0
C1908 C 0.99243 0.37021 0.14828 0.0
C1909 C 0.00372 0.36879 0.14465 0.0
C1910 C 0.00654 0.36977 0.13326 0.0
C1911 C 0.98887 0.36602 0.15969 0.0
C1912 C 0.99643 0.36706 0.1687 0.0
C1913 C 0.97883 0.35972 0.16155 0.0
C1914 C 0.97116 0.35641 0.15242 0.0
C1915 C 0.97373 0.34691 0.14586 0.0
C1916 C 0.96587 0.34293 0.13813 0.0
C1917 C 0.95557 0.34856 0.13669 0.0
C1918 C 0.95298 0.35804 0.14317 0.0
C1919 C 0.96066 0.36185 0.15116 0.0
H1920 H 0.94953 0.34548 0.13066 0.0
H1921 H 0.03147 0.36164 0.20482 0.0
H1922 H 0.97225 0.76168 0.37849 0.0
H1923 H 0.9743 0.75518 0.39789 0.0
H1924 H 0.96857 0.72094 0.38733 0.0
H1925 H 0.96714 0.72745 0.36781 0.0
H1926 H 0.96665 0.74487 0.41445 0.0
H1927 H 0.98541 0.70748 0.39028 0.0
H1928 H 1.00085 0.70274 0.37683 0.0
H1929 H 0.01882 0.73234 0.3865 0.0
H1930 H 0.00332 0.73756 0.39952 0.0
H1931 H 0.97509 0.71304 0.46182 0.0
H1932 H 0.9697 0.71764 0.44251 0.0
H1933 H 0.0049 0.71814 0.43275 0.0
H1934 H 0.01017 0.71339 0.45202 0.0
H1935 H 0.99449 0.71339 0.41582 0.0
H1936 H 0.99299 0.74589 0.43568 0.0
H1937 H 0.99007 0.76261 0.44763 0.0
H1938 H 0.95426 0.75716 0.44756 0.0
H1939 H 0.95702 0.74063 0.43522 0.0
C1940 C 0.97063 0.75287 0.38042 0.0
C1941 C 0.96999 0.74497 0.37169 0.0
C1942 C 0.97212 0.74911 0.39149 0.0
C1943 C 0.97227 0.73748 0.39388 0.0
C1944 C 0.96907 0.72989 0.38551 0.0
C1945 C 0.9678 0.73366 0.37442 0.0
C1946 C 0.9766 0.73317 0.40473 0.0
C1947 C 0.97252 0.7378 0.41478 0.0
C1948 C 0.98531 0.72495 0.4052 0.0
C1949 C 0.99316 0.72296 0.3957 0.0
C1950 C 0.99252 0.7131 0.38929 0.0
C1951 C 1.00131 0.71028 0.38185 0.0
C1952 C 0.0109 0.71705 0.38109 0.0
C1953 C 0.01144 0.72704 0.3872 0.0
C1954 C 0.00258 0.73003 0.39446 0.0
C1955 C 0.98162 0.71331 0.45537 0.0
C1956 C 0.99303 0.71363 0.45845 0.0
C1957 C 0.97855 0.7164 0.44443 0.0
C1958 C 0.98693 0.71897 0.43641 0.0
C1959 C 0.99828 0.71658 0.43892 0.0
C1960 C 1.00128 0.71348 0.44989 0.0
C1961 C 0.9838 0.72444 0.42563 0.0
C1962 C 0.98823 0.72013 0.41557 0.0
C1963 C 0.97667 0.73408 0.4252 0.0
C1964 C 0.97519 0.74187 0.43479 0.0
C1965 C 0.98453 0.74805 0.43849 0.0
C1966 C 0.98289 0.75766 0.4451 0.0
C1967 C 0.97197 0.76105 0.44818 0.0
C1968 C 0.9627 0.7546 0.44504 0.0
C1969 C 0.96429 0.74512 0.43826 0.0
H1970 H 0.9707 0.76857 0.45318 0.0
H1971 H 0.01787 0.71462 0.37566 0.0
H1972 H 0.62236 0.7581 0.69402 0.0
H1973 H 0.62319 0.74993 0.67513 0.0
H1974 H 0.6147 0.71748 0.68981 0.0
H1975 H 0.61693 0.72504 0.70819 0.0
H1976 H 0.61599 0.7123 0.67228 0.0
H1977 H 0.59656 0.74805 0.683 0.0
H1978 H 0.59598 0.76858 0.68655 0.0
H1979 H 0.6076 0.77517 0.65279 0.0
H1980 H 0.60917 0.75472 0.64933 0.0
H1981 H 0.56493 0.71969 0.63106 0.0
H1982 H 0.5746 0.72391 0.64874 0.0
H1983 H 0.60569 0.71068 0.63478 0.0
H1984 H 0.59619 0.70712 0.6169 0.0
H1985 H 0.59275 0.73907 0.64986 0.0
H1986 H 0.61787 0.69686 0.65421 0.0
H1987 H 0.61348 0.67647 0.65416 0.0
H1988 H 0.57945 0.68373 0.66481 0.0
H1989 H 0.58363 0.70408 0.66483 0.0
C1990 C 0.62173 0.74903 0.69316 0.0
C1991 C 0.61863 0.74227 0.70244 0.0
C1992 C 0.62163 0.74441 0.68228 0.0
C1993 C 0.61741 0.73341 0.68076 0.0
C1994 C 0.61732 0.72618 0.69029 0.0
C1995 C 0.6187 0.73054 0.70104 0.0
C1996 C 0.61124 0.72996 0.67027 0.0
C1997 C 0.6109 0.71834 0.66763 0.0
C1998 C 0.60427 0.73753 0.66384 0.0
C1999 C 0.60323 0.74983 0.666 0.0
C2000 C 0.59911 0.75388 0.67637 0.0
C2001 C 0.59868 0.7655 0.67839 0.0
C2002 C 0.60167 0.77316 0.66989 0.0
C2003 C 0.60532 0.76923 0.65939 0.0
C2004 C 0.60616 0.75763 0.65746 0.0
C2005 C 0.57376 0.71747 0.63189 0.0
C2006 C 0.57989 0.71317 0.62264 0.0
C2007 C 0.57928 0.71993 0.64195 0.0
C2008 C 0.59088 0.71773 0.64299 0.0
C2009 C 0.59673 0.71243 0.63413 0.0
C2010 C 0.5913 0.7103 0.62396 0.0
C2011 C 0.59722 0.72172 0.65288 0.0
C2012 C 0.59773 0.7333 0.655 0.0
C2013 C 0.60344 0.71417 0.65961 0.0
C2014 C 0.60105 0.70194 0.65943 0.0
C2015 C 0.60947 0.69407 0.65653 0.0
C2016 C 0.607 0.68253 0.65649 0.0
C2017 C 0.59619 0.67881 0.65946 0.0
C2018 C 0.5878 0.68661 0.66245 0.0
C2019 C 0.5902 0.69813 0.66242 0.0
H2020 H 0.59432 0.66988 0.65946 0.0
H2021 H 0.60117 0.78215 0.67143 0.0
H2022 H 0.56798 0.35508 0.95195 0.0
H2023 H 0.57867 0.34805 0.93557 0.0
H2024 H 0.60948 0.3604 0.94992 0.0
H2025 H 0.59887 0.3673 0.96636 0.0
H2026 H 0.59602 0.36239 0.92144 0.0
H2027 H 0.62344 0.33168 0.94855 0.0
H2028 H 0.62113 0.31622 0.96249 0.0
H2029 H 0.58698 0.31147 0.95178 0.0
H2030 H 0.58917 0.32688 0.93772 0.0
H2031 H 0.63267 0.34642 0.87938 0.0
H2032 H 0.62977 0.35223 0.89897 0.0
H2033 H 0.61512 0.31985 0.90664 0.0
H2034 H 0.61992 0.31344 0.88785 0.0
H2035 H 0.62004 0.32804 0.92473 0.0
H2036 H 0.58834 0.34803 0.90136 0.0
H2037 H 0.58105 0.35941 0.88551 0.0
H2038 H 0.61224 0.37756 0.88367 0.0
H2039 H 0.61886 0.36769 0.90079 0.0
C2040 C 0.57698 0.35658 0.95144 0.0
C2041 C 0.58264 0.36175 0.96037 0.0
C2042 C 0.58309 0.35239 0.9422 0.0
C2043 C 0.59489 0.35337 0.94182 0.0
C2044 C 0.60041 0.35934 0.95026 0.0
C2045 C 0.59432 0.36347 0.9595 0.0
C2046 C 0.60148 0.34886 0.93225 0.0
C2047 C 0.60142 0.35496 0.92216 0.0
C2048 C 0.60798 0.33885 0.93306 0.0
C2049 C 0.60635 0.33063 0.94237 0.0
C2050 C 0.6154 0.32745 0.94931 0.0
C2051 C 0.61413 0.31866 0.95717 0.0
C2052 C 0.60385 0.31298 0.95812 0.0
C2053 C 0.59484 0.31604 0.95118 0.0
C2054 C 0.59607 0.32483 0.94333 0.0
C2055 C 0.62968 0.34029 0.88553 0.0
C2056 C 0.62601 0.32966 0.88203 0.0
C2057 C 0.62743 0.34382 0.89655 0.0
C2058 C 0.62107 0.33695 0.90388 0.0
C2059 C 0.61962 0.32555 0.90105 0.0
C2060 C 0.62261 0.3218 0.89029 0.0
C2061 C 0.61491 0.34175 0.91375 0.0
C2062 C 0.61501 0.33571 0.92402 0.0
C2063 C 0.60758 0.35128 0.91275 0.0
C2064 C 0.60444 0.35657 0.90188 0.0
C2065 C 0.59369 0.35438 0.89749 0.0
C2066 C 0.58951 0.36084 0.88854 0.0
C2067 C 0.59623 0.36912 0.88349 0.0
C2068 C 0.60703 0.37116 0.8876 0.0
C2069 C 0.61094 0.36526 0.89707 0.0
H2070 H 0.59299 0.37405 0.8765 0.0
H2071 H 0.6029 0.30615 0.96418 0.0
H2072 H 0.13197 0.01107 0.35865 0.0
H2073 H 0.15066 0.00314 0.35479 0.0
H2074 H 0.13939 0.97044 0.36645 0.0
H2075 H 0.12047 0.97838 0.36995 0.0
H2076 H 0.16588 0.99508 0.36626 0.0
H2077 H 0.15387 0.94932 0.3516 0.0
H2078 H 0.14152 0.93971 0.33813 0.0
H2079 H 0.13367 0.97151 0.32225 0.0
H2080 H 0.14611 0.98127 0.33551 0.0
H2081 H 0.21767 0.96784 0.3617 0.0
H2082 H 0.19789 0.96979 0.36735 0.0
H2083 H 0.18806 0.96776 0.33248 0.0
H2084 H 0.20781 0.96591 0.32687 0.0
H2085 H 0.17219 0.9599 0.34475 0.0
H2086 H 0.18952 0.99544 0.34273 0.0
H2087 H 0.20031 0.01294 0.34528 0.0
H2088 H 0.19696 0.00961 0.3812 0.0
H2089 H 0.18595 0.99218 0.37887 0.0
C2090 C 0.13355 0.00225 0.36061 0.0
C2091 C 0.12483 0.99532 0.36464 0.0
C2092 C 0.14421 0.99768 0.3583 0.0
C2093 C 0.14641 0.98611 0.36013 0.0
C2094 C 0.13785 0.97931 0.36472 0.0
C2095 C 0.12712 0.98388 0.36693 0.0
C2096 C 0.15784 0.98139 0.35773 0.0
C2097 C 0.1672 0.98729 0.36168 0.0
C2098 C 0.1597 0.97151 0.35129 0.0
C2099 C 0.15072 0.96605 0.34472 0.0
C2100 C 0.14935 0.95428 0.34535 0.0
C2101 C 0.14248 0.94879 0.33764 0.0
C2102 C 0.13683 0.955 0.32932 0.0
C2103 C 0.13803 0.96671 0.32871 0.0
C2104 C 0.14495 0.97224 0.33637 0.0
C2105 C 0.21123 0.96699 0.35532 0.0
C2106 C 0.21425 0.96715 0.34382 0.0
C2107 C 0.19995 0.96851 0.35854 0.0
C2108 C 0.19158 0.96951 0.35029 0.0
C2109 C 0.19442 0.96728 0.33898 0.0
C2110 C 0.20573 0.96588 0.33579 0.0
C2111 C 0.18009 0.97359 0.3533 0.0
C2112 C 0.17077 0.96749 0.34962 0.0
C2113 C 0.17824 0.98387 0.35904 0.0
C2114 C 0.18714 0.99238 0.36064 0.0
C2115 C 0.19139 0.99824 0.35118 0.0
C2116 C 0.19735 0.00827 0.35257 0.0
C2117 C 0.19922 0.01243 0.36338 0.0
C2118 C 0.19542 0.00642 0.37284 0.0
C2119 C 0.18935 0.99645 0.37149 0.0
H2120 H 0.20375 0.02025 0.36443 0.0
H2121 H 0.13146 0.95073 0.3234 0.0
H2122 H 0.31471 0.88518 0.61176 0.0
H2123 H 0.32368 0.90224 0.60389 0.0
H2124 H 0.35597 0.89047 0.61593 0.0
H2125 H 0.34713 0.87326 0.62338 0.0
H2126 H 0.34496 0.91587 0.62058 0.0
H2127 H 0.35572 0.88665 0.59105 0.0
H2128 H 0.35065 0.8738 0.57549 0.0
H2129 H 0.3332 0.90104 0.55884 0.0
H2130 H 0.33762 0.91368 0.5746 0.0
H2131 H 0.37692 0.961 0.60246 0.0
H2132 H 0.3735 0.94149 0.60827 0.0
H2133 H 0.35887 0.93533 0.57558 0.0
H2134 H 0.36476 0.95357 0.56928 0.0
H2135 H 0.36016 0.91793 0.58162 0.0
H2136 H 0.34092 0.94525 0.6074 0.0
H2137 H 0.33907 0.95999 0.62199 0.0
H2138 H 0.36441 0.94342 0.64187 0.0
H2139 H 0.36591 0.9282 0.6278 0.0
C2140 C 0.3237 0.88631 0.61282 0.0
C2141 C 0.33027 0.87787 0.61811 0.0
C2142 C 0.32882 0.89597 0.60821 0.0
C2143 C 0.34054 0.89741 0.60905 0.0
C2144 C 0.34695 0.88937 0.61498 0.0
C2145 C 0.34188 0.87964 0.61939 0.0
C2146 C 0.34615 0.90766 0.60454 0.0
C2147 C 0.34823 0.91646 0.61201 0.0
C2148 C 0.34989 0.90869 0.59324 0.0
C2149 C 0.34654 0.90083 0.58427 0.0
C2150 C 0.35037 0.88963 0.58431 0.0
C2151 C 0.34771 0.88246 0.57541 0.0
C2152 C 0.34146 0.88655 0.56627 0.0
C2153 C 0.33796 0.89784 0.56596 0.0
C2154 C 0.34044 0.90496 0.57494 0.0
C2155 C 0.37387 0.95508 0.5963 0.0
C2156 C 0.37063 0.95891 0.58556 0.0
C2157 C 0.37126 0.94407 0.59982 0.0
C2158 C 0.36479 0.93706 0.59287 0.0
C2159 C 0.36357 0.94034 0.58147 0.0
C2160 C 0.36715 0.95091 0.57771 0.0
C2161 C 0.35867 0.92688 0.59741 0.0
C2162 C 0.35664 0.91786 0.59007 0.0
C2163 C 0.35392 0.92625 0.60849 0.0
C2164 C 0.35375 0.93579 0.61644 0.0
C2165 C 0.34621 0.94486 0.61481 0.0
C2166 C 0.34517 0.95324 0.623 0.0
C2167 C 0.3518 0.95279 0.63268 0.0
C2168 C 0.35935 0.94382 0.63432 0.0
C2169 C 0.36022 0.93525 0.62631 0.0
H2170 H 0.35098 0.95931 0.63898 0.0
H2171 H 0.33945 0.88101 0.55938 0.0
H2172 H 0.38021 0.10148 0.83084 0.0
H2173 H 0.39709 0.09923 0.84162 0.0
H2174 H 0.39828 0.13524 0.84615 0.0
H2175 H 0.38039 0.13735 0.83556 0.0
H2176 H 0.41926 0.11909 0.8364 0.0
H2177 H 0.39418 0.12428 0.87112 0.0
H2178 H 0.37834 0.11929 0.88389 0.0
H2179 H 0.38549 0.08403 0.87919 0.0
H2180 H 0.40139 0.08882 0.86652 0.0
H2181 H 0.46693 0.10771 0.87084 0.0
H2182 H 0.44893 0.11668 0.86605 0.0
H2183 H 0.43309 0.08405 0.86583 0.0
H2184 H 0.45119 0.07504 0.87018 0.0
H2185 H 0.41963 0.10171 0.87459 0.0
H2186 H 0.43695 0.09045 0.84166 0.0
H2187 H 0.44864 0.08683 0.82481 0.0
H2188 H 0.45341 0.12239 0.81995 0.0
H2189 H 0.44153 0.12629 0.8367 0.0
C2190 C 0.38362 0.10886 0.83441 0.0
C2191 C 0.37846 0.11941 0.83282 0.0
C2192 C 0.39347 0.10761 0.84052 0.0
C2193 C 0.39872 0.11701 0.84503 0.0
C2194 C 0.39411 0.12782 0.843 0.0
C2195 C 0.38396 0.12901 0.83694 0.0
C2196 C 0.40939 0.11512 0.85115 0.0
C2197 C 0.4195 0.11585 0.84499 0.0
C2198 C 0.40944 0.10966 0.86179 0.0
C2199 C 0.39896 0.10691 0.868 0.0
C2200 C 0.39225 0.11548 0.87272 0.0
C2201 C 0.38335 0.11268 0.88001 0.0
C2202 C 0.38108 0.10135 0.88252 0.0
C2203 C 0.38738 0.09279 0.87738 0.0
C2204 C 0.39633 0.09554 0.87017 0.0
C2205 C 0.45945 0.10251 0.87052 0.0
C2206 C 0.46052 0.09066 0.87049 0.0
C2207 C 0.44927 0.10762 0.86736 0.0
C2208 C 0.43988 0.10096 0.86501 0.0
C2209 C 0.44037 0.0893 0.86729 0.0
C2210 C 0.45065 0.08418 0.87019 0.0
C2211 C 0.42964 0.1061 0.86005 0.0
C2212 C 0.41962 0.1057 0.86631 0.0
C2213 C 0.42951 0.11085 0.84903 0.0
C2214 C 0.43861 0.10866 0.84065 0.0
C2215 C 0.44082 0.0975 0.83726 0.0
C2216 C 0.44736 0.09539 0.82763 0.0
C2217 C 0.45186 0.10435 0.82137 0.0
C2218 C 0.44994 0.11546 0.82482 0.0
C2219 C 0.44332 0.11763 0.8344 0.0
H2220 H 0.45684 0.1027 0.81386 0.0
H2221 H 0.37446 0.09917 0.88846 0.0
H2222 H 0.221 0.13185 0.07043 0.0
H2223 H 0.22576 0.15021 0.07822 0.0
H2224 H 0.21984 0.13719 0.11187 0.0
H2225 H 0.21548 0.11868 0.10405 0.0
H2226 H 0.21793 0.16604 0.08886 0.0
H2227 H 0.23992 0.14668 0.13004 0.0
H2228 H 0.25601 0.13424 0.13454 0.0
H2229 H 0.26422 0.1315 0.09934 0.0
H2230 H 0.24856 0.14455 0.09468 0.0
H2231 H 0.22926 0.21328 0.12231 0.0
H2232 H 0.22175 0.19509 0.11652 0.0
H2233 H 0.25556 0.18118 0.11655 0.0
H2234 H 0.26292 0.19919 0.12244 0.0
H2235 H 0.2434 0.16616 0.12177 0.0
H2236 H 0.24371 0.18724 0.08868 0.0
H2237 H 0.24106 0.19969 0.07211 0.0
H2238 H 0.20522 0.19959 0.0776 0.0
H2239 H 0.20762 0.18684 0.094 0.0
C2240 C 0.22047 0.13299 0.07947 0.0
C2241 C 0.2181 0.12383 0.0867 0.0
C2242 C 0.22323 0.14349 0.08393 0.0
C2243 C 0.22344 0.14502 0.09568 0.0
C2244 C 0.22006 0.13612 0.10281 0.0
C2245 C 0.21743 0.12561 0.09835 0.0
C2246 C 0.22736 0.15578 0.10057 0.0
C2247 C 0.22342 0.16607 0.09614 0.0
C2248 C 0.23524 0.15595 0.10945 0.0
C2249 C 0.24285 0.14632 0.11199 0.0
C2250 C 0.245 0.14323 0.12324 0.0
C2251 C 0.25418 0.13625 0.12582 0.0
C2252 C 0.2611 0.13203 0.1172 0.0
C2253 C 0.25879 0.13472 0.10598 0.0
C2254 C 0.24977 0.14192 0.10336 0.0
C2255 C 0.23497 0.2061 0.12185 0.0
C2256 C 0.24675 0.20779 0.12215 0.0
C2257 C 0.23072 0.19585 0.11804 0.0
C2258 C 0.23814 0.18696 0.11542 0.0
C2259 C 0.24964 0.188 0.11817 0.0
C2260 C 0.25384 0.19826 0.12193 0.0
C2261 C 0.23401 0.17647 0.11013 0.0
C2262 C 0.23771 0.16617 0.11465 0.0
C2263 C 0.22724 0.17641 0.10031 0.0
C2264 C 0.22587 0.18633 0.09275 0.0
C2265 C 0.23529 0.19017 0.08658 0.0
C2266 C 0.23382 0.19706 0.07706 0.0
C2267 C 0.22297 0.20033 0.07374 0.0
C2268 C 0.2136 0.19696 0.08012 0.0
C2269 C 0.21501 0.18992 0.08954 0.0
H2270 H 0.22185 0.20561 0.06633 0.0
H2271 H 0.26826 0.12667 0.11923 0.0
H2272 H 0.1377 0.07404 0.20325 0.0
H2273 H 0.15491 0.08521 0.20445 0.0
H2274 H 0.13433 0.11473 0.21135 0.0
H2275 H 0.11775 0.10418 0.20734 0.0
H2276 H 0.1509 0.12291 0.21145 0.0
H2277 H 0.14484 0.08609 0.23105 0.0
H2278 H 0.14475 0.06531 0.23297 0.0
H2279 H 0.17942 0.06366 0.2225 0.0
H2280 H 0.17961 0.08434 0.21985 0.0
H2281 H 0.18899 0.11874 0.26479 0.0
H2282 H 0.17148 0.1176 0.2542 0.0
H2283 H 0.1894 0.12685 0.22375 0.0
H2284 H 0.20699 0.12746 0.23426 0.0
H2285 H 0.17577 0.09988 0.2361 0.0
H2286 H 0.16918 0.14035 0.21046 0.0
H2287 H 0.16797 0.16078 0.21456 0.0
H2288 H 0.1535 0.15343 0.24713 0.0
H2289 H 0.1547 0.13303 0.24321 0.0
C2290 C 0.13696 0.08313 0.20399 0.0
C2291 C 0.12642 0.08816 0.20627 0.0
C2292 C 0.14684 0.08946 0.20531 0.0
C2293 C 0.14609 0.10054 0.20956 0.0
C2294 C 0.13553 0.10608 0.20873 0.0
C2295 C 0.12585 0.09999 0.20623 0.0
C2296 C 0.15536 0.10572 0.21643 0.0
C2297 C 0.15613 0.11764 0.21683 0.0
C2298 C 0.16248 0.09924 0.22379 0.0
C2299 C 0.16215 0.08675 0.225 0.0
C2300 C 0.1524 0.08129 0.22903 0.0
C2301 C 0.15233 0.06953 0.23026 0.0
C2302 C 0.16205 0.06319 0.22794 0.0
C2303 C 0.17187 0.06857 0.22424 0.0
C2304 C 0.17193 0.0803 0.22276 0.0
C2305 C 0.18905 0.12142 0.25602 0.0
C2306 C 0.19936 0.12274 0.25021 0.0
C2307 C 0.17905 0.12051 0.24993 0.0
C2308 C 0.17928 0.12179 0.23816 0.0
C2309 C 0.18912 0.12572 0.23283 0.0
C2310 C 0.19915 0.12632 0.23889 0.0
C2311 C 0.17046 0.11656 0.23126 0.0
C2312 C 0.17013 0.10479 0.23075 0.0
C2313 C 0.16317 0.12302 0.22454 0.0
C2314 C 0.16198 0.13526 0.22651 0.0
C2315 C 0.16565 0.14314 0.21842 0.0
C2316 C 0.16501 0.15469 0.22075 0.0
C2317 C 0.16064 0.1584 0.23108 0.0
C2318 C 0.15688 0.15057 0.23912 0.0
C2319 C 0.15755 0.13903 0.23687 0.0
H2320 H 0.16018 0.16734 0.23287 0.0
H2321 H 0.16197 0.0541 0.22901 0.0
H2322 H 0.20354 0.95971 0.48743 0.0
H2323 H 0.2082 0.9408 0.48069 0.0
H2324 H 0.22087 0.93182 0.51355 0.0
H2325 H 0.21557 0.95047 0.52047 0.0
H2326 H 0.23758 0.93439 0.49386 0.0
H2327 H 0.20549 0.91439 0.50679 0.0
H2328 H 0.18515 0.91118 0.50985 0.0
H2329 H 0.18011 0.9101 0.47405 0.0
H2330 H 0.20043 0.91343 0.47078 0.0
H2331 H 0.26445 0.88506 0.47148 0.0
H2332 H 0.25724 0.9016 0.47959 0.0
H2333 H 0.22675 0.89853 0.45988 0.0
H2334 H 0.23294 0.87951 0.455 0.0
H2335 H 0.21887 0.90145 0.477 0.0
H2336 H 0.25285 0.92698 0.46572 0.0
H2337 H 0.27372 0.92747 0.46469 0.0
H2338 H 0.2756 0.91569 0.49898 0.0
H2339 H 0.25486 0.91604 0.5005 0.0
C2340 C 0.20638 0.9534 0.49347 0.0
C2341 C 0.20947 0.95663 0.50437 0.0
C2342 C 0.20932 0.94267 0.48953 0.0
C2343 C 0.21524 0.93511 0.49653 0.0
C2344 C 0.21644 0.93762 0.50799 0.0
C2345 C 0.21312 0.94822 0.512 0.0
C2346 C 0.22186 0.92583 0.49137 0.0
C2347 C 0.23355 0.92718 0.49005 0.0
C2348 C 0.21663 0.91641 0.48664 0.0
C2349 C 0.20445 0.91425 0.48854 0.0
C2350 C 0.20003 0.91355 0.49957 0.0
C2351 C 0.18851 0.91168 0.50134 0.0
C2352 C 0.18133 0.91046 0.49215 0.0
C2353 C 0.18568 0.91105 0.48116 0.0
C2354 C 0.1972 0.91291 0.47935 0.0
C2355 C 0.25634 0.88811 0.46847 0.0
C2356 C 0.24871 0.88047 0.46391 0.0
C2357 C 0.25207 0.898 0.47323 0.0
C2358 C 0.24093 0.90171 0.47099 0.0
C2359 C 0.23496 0.89568 0.46272 0.0
C2360 C 0.23873 0.88495 0.45937 0.0
C2361 C 0.23478 0.91039 0.47814 0.0
C2362 C 0.22308 0.90884 0.48018 0.0
C2363 C 0.24006 0.91964 0.48358 0.0
C2364 C 0.25236 0.92152 0.48319 0.0
C2365 C 0.25776 0.92485 0.47312 0.0
C2366 C 0.26956 0.92501 0.47248 0.0
C2367 C 0.27599 0.92168 0.48179 0.0
C2368 C 0.27064 0.91845 0.49185 0.0
C2369 C 0.25888 0.91874 0.4927 0.0
H2370 H 0.28512 0.92155 0.4812 0.0
H2371 H 0.17241 0.90903 0.49354 0.0
H2372 H 0.37893 0.96304 0.76399 0.0
H2373 H 0.39821 0.9632 0.75645 0.0
H2374 H 0.38493 0.96849 0.72301 0.0
H2375 H 0.36603 0.96606 0.73032 0.0
H2376 H 0.4045 0.96529 0.71973 0.0
H2377 H 0.38695 0.98818 0.75108 0.0
H2378 H 0.38179 0.98923 0.77128 0.0
H2379 H 0.41653 0.98573 0.78041 0.0
H2380 H 0.42173 0.98278 0.76052 0.0
H2381 H 0.45158 0.00249 0.70592 0.0
H2382 H 0.43167 0.99669 0.70828 0.0
H2383 H 0.43874 0.98666 0.74262 0.0
H2384 H 0.45713 0.99363 0.74063 0.0
H2385 H 0.4203 0.99577 0.74299 0.0
H2386 H 0.43733 0.96712 0.71665 0.0
H2387 H 0.44583 0.96324 0.69797 0.0
H2388 H 0.41704 0.97833 0.68178 0.0
H2389 H 0.40841 0.9823 0.70038 0.0
C2390 C 0.38015 0.96317 0.75493 0.0
C2391 C 0.37104 0.96569 0.74778 0.0
C2392 C 0.39123 0.96374 0.75062 0.0
C2393 C 0.39302 0.96732 0.73937 0.0
C2394 C 0.38392 0.96646 0.73189 0.0
C2395 C 0.37299 0.96488 0.7361 0.0
C2396 C 0.4033 0.9738 0.73577 0.0
C2397 C 0.40795 0.97187 0.72495 0.0
C2398 C 0.40793 0.98264 0.74236 0.0
C2399 C 0.40465 0.98496 0.75427 0.0
C2400 C 0.39345 0.98745 0.7574 0.0
C2401 C 0.39051 0.9883 0.76881 0.0
C2402 C 0.39882 0.98784 0.77709 0.0
C2403 C 0.41008 0.98611 0.77401 0.0
C2404 C 0.41298 0.98452 0.76269 0.0
C2405 C 0.44876 0.99906 0.71395 0.0
C2406 C 0.4564 0.99788 0.72296 0.0
C2407 C 0.43741 0.99568 0.71528 0.0
C2408 C 0.43365 0.99094 0.72559 0.0
C2409 C 0.44125 0.99017 0.73451 0.0
C2410 C 0.45221 0.99383 0.73326 0.0
C2411 C 0.4221 0.9864 0.72764 0.0
C2412 C 0.41684 0.98905 0.73793 0.0
C2413 C 0.41736 0.97791 0.72093 0.0
C2414 C 0.42225 0.97498 0.70984 0.0
C2415 C 0.4328 0.96952 0.70908 0.0
C2416 C 0.43765 0.96735 0.69853 0.0
C2417 C 0.43198 0.97053 0.68869 0.0
C2418 C 0.42141 0.97585 0.6894 0.0
C2419 C 0.41653 0.97804 0.69994 0.0
H2420 H 0.43577 0.9689 0.68053 0.0
H2421 H 0.39651 0.98877 0.78589 0.0
H2422 H 0.37833 0.12373 0.98416 0.0
H2423 H 0.3755 0.14336 0.97835 0.0
H2424 H 0.3614 0.15085 0.01107 0.0
H2425 H 0.36481 0.13143 0.01708 0.0
H2426 H 0.34647 0.1484 0.98808 0.0
H2427 H 0.37511 0.16817 0.00811 0.0
H2428 H 0.39456 0.17207 0.01409 0.0
H2429 H 0.40442 0.17807 0.97963 0.0
H2430 H 0.38502 0.17405 0.97343 0.0
H2431 H 0.32172 0.20229 0.97981 0.0
H2432 H 0.32813 0.18326 0.98241 0.0
H2433 H 0.35749 0.19027 0.96161 0.0
H2434 H 0.35202 0.21015 0.96121 0.0
H2435 H 0.36507 0.18475 0.97932 0.0
H2436 H 0.33403 0.16589 0.95973 0.0
H2437 H 0.31394 0.16243 0.95564 0.0
H2438 H 0.30763 0.15495 0.99063 0.0
H2439 H 0.32759 0.1585 0.99494 0.0
C2440 C 0.3756 0.12978 0.99044 0.0
C2441 C 0.37136 0.12599 1.0009 0.0
C2442 C 0.37374 0.14096 0.98702 0.0
C2443 C 0.36792 0.14839 0.99418 0.0
C2444 C 0.36584 0.14518 0.0054 0.0
C2445 C 0.36802 0.13409 0.0089 0.0
C2446 C 0.36172 0.15805 0.9892 0.0
C2447 C 0.35045 0.15642 0.98613 0.0
C2448 C 0.36701 0.16832 0.98664 0.0
C2449 C 0.37868 0.17063 0.9903 0.0
C2450 C 0.38146 0.17017 0.00179 0.0
C2451 C 0.39247 0.17245 0.00523 0.0
C2452 C 0.40074 0.17527 0.99724 0.0
C2453 C 0.39801 0.17586 0.98581 0.0
C2454 C 0.38701 0.17359 0.98233 0.0
C2455 C 0.32921 0.19963 0.9752 0.0
C2456 C 0.33666 0.20775 0.97081 0.0
C2457 C 0.33296 0.18854 0.97671 0.0
C2458 C 0.34359 0.18514 0.9725 0.0
C2459 C 0.34949 0.19271 0.9654 0.0
C2460 C 0.34621 0.20407 0.96481 0.0
C2461 C 0.34965 0.17517 0.97751 0.0
C2462 C 0.36097 0.17671 0.98081 0.0
C2463 C 0.34429 0.16482 0.98037 0.0
C2464 C 0.33233 0.16245 0.97764 0.0
C2465 C 0.32835 0.16351 0.96654 0.0
C2466 C 0.31698 0.16155 0.96419 0.0
C2467 C 0.30951 0.15848 0.97287 0.0
C2468 C 0.3134 0.15732 0.98391 0.0
C2469 C 0.32475 0.15927 0.9863 0.0
H2470 H 0.30071 0.157 0.97103 0.0
H2471 H 0.40925 0.17703 0.99992 0.0
H2472 H 0.81843 0.38631 0.11238 0.0
H2473 H 0.82832 0.40274 0.10432 0.0
H2474 H 0.85993 0.38941 0.11657 0.0
H2475 H 0.85014 0.37279 0.12426 0.0
H2476 H 0.8489 0.4162 0.1202 0.0
H2477 H 0.86116 0.38543 0.091 0.0
H2478 H 0.85584 0.37278 0.07529 0.0
H2479 H 0.83734 0.40018 0.06009 0.0
H2480 H 0.84202 0.41238 0.07589 0.0
H2481 H 0.87988 0.46085 0.10017 0.0
H2482 H 0.87859 0.44112 0.1063 0.0
H2483 H 0.86208 0.43327 0.07502 0.0
H2484 H 0.86602 0.4519 0.06806 0.0
H2485 H 0.86585 0.41594 0.08187 0.0
H2486 H 0.8405 0.44017 0.10725 0.0
H2487 H 0.83685 0.4564 0.11969 0.0
H2488 H 0.86891 0.45118 0.13554 0.0
H2489 H 0.87198 0.43393 0.12432 0.0
C2490 C 0.82747 0.38697 0.11345 0.0
C2491 C 0.83358 0.37825 0.11884 0.0
C2492 C 0.83311 0.39627 0.10874 0.0
C2493 C 0.84489 0.39706 0.10956 0.0
C2494 C 0.85086 0.38879 0.11564 0.0
C2495 C 0.84526 0.37942 0.12019 0.0
C2496 C 0.851 0.40691 0.10486 0.0
C2497 C 0.85267 0.41619 0.11183 0.0
C2498 C 0.85522 0.40728 0.0937 0.0
C2499 C 0.85151 0.39948 0.08487 0.0
C2500 C 0.85555 0.3884 0.08451 0.0
C2501 C 0.8527 0.38137 0.07555 0.0
C2502 C 0.84603 0.38555 0.06676 0.0
C2503 C 0.84232 0.39677 0.0669 0.0
C2504 C 0.84496 0.40369 0.07594 0.0
C2505 C 0.87687 0.4546 0.09432 0.0
C2506 C 0.87252 0.45796 0.08384 0.0
C2507 C 0.87546 0.44347 0.0981 0.0
C2508 C 0.86899 0.43594 0.09177 0.0
C2509 C 0.86677 0.43881 0.08043 0.0
C2510 C 0.86921 0.44957 0.07631 0.0
C2511 C 0.8636 0.42575 0.09701 0.0
C2512 C 0.86216 0.4162 0.09026 0.0
C2513 C 0.85832 0.42583 0.10785 0.0
C2514 C 0.85677 0.43619 0.11454 0.0
C2515 C 0.8468 0.44256 0.11334 0.0
C2516 C 0.84475 0.45184 0.12027 0.0
C2517 C 0.85283 0.45513 0.12805 0.0
C2518 C 0.86271 0.44873 0.12939 0.0
C2519 C 0.86449 0.43905 0.12294 0.0
H2520 H 0.85134 0.46251 0.13317 0.0
H2521 H 0.84389 0.38017 0.05978 0.0
H2522 H 0.94767 0.57285 0.37474 0.0
H2523 H 0.92928 0.58243 0.37537 0.0
H2524 H 0.94559 0.61317 0.3641 0.0
H2525 H 0.96351 0.60453 0.36685 0.0
H2526 H 0.92884 0.61992 0.36474 0.0
H2527 H 0.93503 0.58232 0.34809 0.0
H2528 H 0.93744 0.56157 0.34907 0.0
H2529 H 0.90468 0.55837 0.36439 0.0
H2530 H 0.90246 0.57909 0.36444 0.0
H2531 H 0.88482 0.61698 0.31758 0.0
H2532 H 0.9027 0.6117 0.32668 0.0
H2533 H 0.88831 0.6201 0.35908 0.0
H2534 H 0.87033 0.62491 0.35009 0.0
H2535 H 0.90205 0.59375 0.34698 0.0
H2536 H 0.90278 0.63673 0.36098 0.0
H2537 H 0.90392 0.65614 0.3532 0.0
H2538 H 0.92972 0.64549 0.32985 0.0
H2539 H 0.92864 0.62606 0.33745 0.0
C2540 C 0.94728 0.58191 0.37341 0.0
C2541 C 0.95688 0.58784 0.36981 0.0
C2542 C 0.93666 0.58729 0.37313 0.0
C2543 C 0.93563 0.59813 0.36814 0.0
C2544 C 0.94557 0.60463 0.36735 0.0
C2545 C 0.95608 0.59963 0.36901 0.0
C2546 C 0.92503 0.60215 0.36227 0.0
C2547 C 0.92332 0.61391 0.36082 0.0
C2548 C 0.91736 0.59475 0.35674 0.0
C2549 C 0.91868 0.58228 0.35647 0.0
C2550 C 0.92837 0.57719 0.35174 0.0
C2551 C 0.92973 0.56544 0.35216 0.0
C2552 C 0.92118 0.55867 0.35666 0.0
C2553 C 0.91131 0.56363 0.36093 0.0
C2554 C 0.91007 0.57537 0.36089 0.0
C2555 C 0.88559 0.61795 0.32661 0.0
C2556 C 0.87622 0.62128 0.33319 0.0
C2557 C 0.89575 0.61488 0.33178 0.0
C2558 C 0.89673 0.61544 0.34354 0.0
C2559 C 0.88768 0.61964 0.34999 0.0
C2560 C 0.87747 0.62248 0.34486 0.0
C2561 C 0.90682 0.61098 0.34934 0.0
C2562 C 0.90811 0.59933 0.35083 0.0
C2563 C 0.91483 0.61826 0.35385 0.0
C2564 C 0.91565 0.63003 0.34979 0.0
C2565 C 0.90869 0.63857 0.35422 0.0
C2566 C 0.90932 0.64956 0.34983 0.0
C2567 C 0.9169 0.65205 0.34105 0.0
C2568 C 0.92388 0.64357 0.33666 0.0
C2569 C 0.92326 0.63259 0.34101 0.0
H2570 H 0.91735 0.66054 0.33764 0.0
H2571 H 0.92221 0.54958 0.35686 0.0
H2572 H 0.70318 0.6221 0.59897 0.0
H2573 H 0.70619 0.64083 0.6067 0.0
H2574 H 0.7106 0.65418 0.57303 0.0
H2575 H 0.70735 0.63549 0.56533 0.0
H2576 H 0.73107 0.65169 0.5883 0.0
H2577 H 0.69187 0.66731 0.58851 0.0
H2578 H 0.67207 0.6645 0.59454 0.0
H2579 H 0.68259 0.66106 0.62899 0.0
H2580 H 0.70243 0.66384 0.62314 0.0
H2581 H 0.75769 0.70218 0.59835 0.0
H2582 H 0.74671 0.68642 0.59239 0.0
H2583 H 0.72557 0.69013 0.62215 0.0
H2584 H 0.73446 0.70842 0.62552 0.0
H2585 H 0.71299 0.68223 0.61049 0.0
H2586 H 0.74978 0.66642 0.61432 0.0
H2587 H 0.7705 0.66583 0.61201 0.0
H2588 H 0.76697 0.66382 0.5761 0.0
H2589 H 0.74622 0.66439 0.57815 0.0
C2590 C 0.7038 0.62919 0.59317 0.0
C2591 C 0.70566 0.62727 0.58161 0.0
C2592 C 0.7058 0.63989 0.59763 0.0
C2593 C 0.70905 0.64877 0.59043 0.0
C2594 C 0.7083 0.64735 0.57873 0.0
C2595 C 0.70614 0.63668 0.57432 0.0
C2596 C 0.7155 0.65837 0.59496 0.0
C2597 C 0.72718 0.65851 0.59303 0.0
C2598 C 0.71054 0.66665 0.60189 0.0
C2599 C 0.69857 0.66586 0.60541 0.0
C2600 C 0.68992 0.66604 0.59738 0.0
C2601 C 0.67871 0.66444 0.60076 0.0
C2602 C 0.67607 0.66264 0.61214 0.0
C2603 C 0.68463 0.66253 0.62018 0.0
C2604 C 0.69585 0.66417 0.61685 0.0
C2605 C 0.75046 0.69981 0.6033 0.0
C2606 C 0.74666 0.70677 0.61197 0.0
C2607 C 0.74441 0.69032 0.60028 0.0
C2608 C 0.73541 0.68636 0.60701 0.0
C2609 C 0.73231 0.69282 0.61656 0.0
C2610 C 0.73759 0.70317 0.61873 0.0
C2611 C 0.72891 0.67603 0.60364 0.0
C2612 C 0.71718 0.67555 0.60585 0.0
C2613 C 0.73401 0.66689 0.59764 0.0
C2614 C 0.74644 0.66551 0.59641 0.0
C2615 C 0.75342 0.66576 0.60594 0.0
C2616 C 0.76516 0.66544 0.60467 0.0
C2617 C 0.77001 0.6648 0.59392 0.0
C2618 C 0.76316 0.66428 0.58441 0.0
C2619 C 0.75141 0.66454 0.58562 0.0
H2620 H 0.77908 0.66474 0.59297 0.0
H2621 H 0.66739 0.6613 0.61473 0.0
H2622 H 0.97019 0.48369 0.2087 0.0
H2623 H 0.95211 0.47458 0.21079 0.0
H2624 H 0.93533 0.50655 0.2049 0.0
H2625 H 0.95358 0.5158 0.20387 0.0
H2626 H 0.93441 0.50059 0.22633 0.0
H2627 H 0.92813 0.47884 0.1914 0.0
H2628 H 0.93532 0.46529 0.1773 0.0
H2629 H 0.94151 0.44084 0.20354 0.0
H2630 H 0.93434 0.45423 0.21776 0.0
H2631 H 0.88114 0.49404 0.24395 0.0
H2632 H 0.89827 0.4959 0.23374 0.0
H2633 H 0.90544 0.46049 0.23929 0.0
H2634 H 0.88651 0.45827 0.24789 0.0
H2635 H 0.91331 0.46527 0.22005 0.0
H2636 H 0.92024 0.48391 0.25452 0.0
H2637 H 0.91785 0.49645 0.27093 0.0
H2638 H 0.91506 0.52516 0.24882 0.0
H2639 H 0.91732 0.51288 0.2323 0.0
C2640 C 0.96265 0.48865 0.20699 0.0
C2641 C 0.96319 0.50051 0.20694 0.0
C2642 C 0.95221 0.48338 0.20828 0.0
C2643 C 0.9423 0.48995 0.20851 0.0
C2644 C 0.9429 0.50136 0.2051 0.0
C2645 C 0.95339 0.50666 0.20427 0.0
C2646 C 0.93252 0.48621 0.21552 0.0
C2647 C 0.9296 0.49302 0.22473 0.0
C2648 C 0.92704 0.47573 0.21426 0.0
C2649 C 0.93069 0.46752 0.20562 0.0
C2650 C 0.93098 0.47055 0.19414 0.0
C2651 C 0.93506 0.4629 0.18613 0.0
C2652 C 0.93886 0.45221 0.18952 0.0
C2653 C 0.93852 0.4491 0.20091 0.0
C2654 C 0.9344 0.4567 0.20894 0.0
C2655 C 0.88577 0.48647 0.24244 0.0
C2656 C 0.88186 0.47592 0.24604 0.0
C2657 C 0.89609 0.48764 0.23705 0.0
C2658 C 0.90347 0.47843 0.23598 0.0
C2659 C 0.89993 0.46779 0.24 0.0
C2660 C 0.88915 0.46653 0.24496 0.0
C2661 C 0.91455 0.48023 0.23023 0.0
C2662 C 0.91798 0.47295 0.22152 0.0
C2663 C 0.92094 0.49008 0.23223 0.0
C2664 C 0.91897 0.49745 0.24217 0.0
C2665 C 0.919 0.49289 0.25316 0.0
C2666 C 0.91769 0.49997 0.26247 0.0
C2667 C 0.91633 0.5116 0.26089 0.0
C2668 C 0.91612 0.51617 0.25001 0.0
C2669 C 0.91747 0.50916 0.24068 0.0
H2670 H 0.91553 0.5171 0.26807 0.0
H2671 H 0.94209 0.44633 0.18332 0.0
H2672 H 0.71938 0.61143 0.72498 0.0
H2673 H 0.70186 0.6076 0.71567 0.0
H2674 H 0.68349 0.61614 0.74618 0.0
H2675 H 0.70136 0.61796 0.75598 0.0
H2676 H 0.67572 0.59902 0.74149 0.0
H2677 H 0.68322 0.62959 0.7136 0.0
H2678 H 0.6948 0.63945 0.6992 0.0
H2679 H 0.69809 0.60875 0.68041 0.0
H2680 H 0.68666 0.59872 0.69473 0.0
H2681 H 0.62364 0.60074 0.70666 0.0
H2682 H 0.64289 0.60765 0.70859 0.0
H2683 H 0.65434 0.57395 0.71682 0.0
H2684 H 0.63515 0.56698 0.71448 0.0
H2685 H 0.6651 0.60279 0.7013 0.0
H2686 H 0.66691 0.57549 0.74064 0.0
H2687 H 0.65574 0.56836 0.75685 0.0
H2688 H 0.63311 0.59663 0.75393 0.0
H2689 H 0.64381 0.60368 0.73738 0.0
C2690 C 0.71155 0.61262 0.72963 0.0
C2691 C 0.71173 0.61431 0.74128 0.0
C2692 C 0.70136 0.61067 0.72419 0.0
C2693 C 0.69105 0.61129 0.73013 0.0
C2694 C 0.69125 0.61506 0.7414 0.0
C2695 C 0.7015 0.61632 0.747 0.0
C2696 C 0.68043 0.60647 0.72537 0.0
C2697 C 0.67346 0.60013 0.7327 0.0
C2698 C 0.67736 0.60731 0.71381 0.0
C2699 C 0.68412 0.61344 0.70523 0.0
C2700 C 0.68644 0.62497 0.7064 0.0
C2701 C 0.69299 0.63057 0.69826 0.0
C2702 C 0.69719 0.62472 0.68891 0.0
C2703 C 0.69484 0.61327 0.68765 0.0
C2704 C 0.68831 0.60764 0.69575 0.0
C2705 C 0.63042 0.59468 0.70798 0.0
C2706 C 0.62794 0.58337 0.71051 0.0
C2707 C 0.64136 0.59868 0.70939 0.0
C2708 C 0.64988 0.59136 0.71327 0.0
C2709 C 0.64779 0.57975 0.71404 0.0
C2710 C 0.63688 0.57573 0.71237 0.0
C2711 C 0.66051 0.59608 0.71754 0.0
C2712 C 0.66748 0.60207 0.7101 0.0
C2713 C 0.66349 0.59516 0.72901 0.0
C2714 C 0.65602 0.58998 0.73766 0.0
C2715 C 0.65936 0.58001 0.74327 0.0
C2716 C 0.65312 0.576 0.75251 0.0
C2717 C 0.64364 0.58198 0.75633 0.0
C2718 C 0.64027 0.59187 0.75078 0.0
C2719 C 0.64636 0.59583 0.74141 0.0
H2720 H 0.63898 0.57901 0.76365 0.0
H2721 H 0.70227 0.62907 0.68263 0.0
H2722 H 0.47651 0.87221 0.63127 0.0
H2723 H 0.46842 0.86773 0.64971 0.0
H2724 H 0.50131 0.85722 0.66135 0.0
H2725 H 0.50942 0.86238 0.64317 0.0
H2726 H 0.47126 0.84386 0.65335 0.0
H2727 H 0.50117 0.85176 0.68441 0.0
H2728 H 0.51575 0.86506 0.69067 0.0
H2729 H 0.4928 0.89285 0.6855 0.0
H2730 H 0.47816 0.87967 0.67901 0.0
H2731 H 0.45937 0.81169 0.70455 0.0
H2732 H 0.46439 0.81962 0.68637 0.0
H2733 H 0.4523 0.85229 0.69725 0.0
H2734 H 0.4485 0.84442 0.71593 0.0
H2735 H 0.47451 0.85261 0.69396 0.0
H2736 H 0.44301 0.83516 0.67107 0.0
H2737 H 0.43345 0.81778 0.66501 0.0
H2738 H 0.4653 0.80362 0.65452 0.0
H2739 H 0.47498 0.82091 0.66052 0.0
C2740 C 0.48216 0.86995 0.63808 0.0
C2741 C 0.49346 0.86717 0.63572 0.0
C2742 C 0.47748 0.86708 0.64854 0.0
C2743 C 0.48419 0.86179 0.65678 0.0
C2744 C 0.49593 0.8613 0.65517 0.0
C2745 C 0.50062 0.86446 0.64477 0.0
C2746 C 0.47863 0.85488 0.66563 0.0
C2747 C 0.47178 0.84591 0.66223 0.0
C2748 C 0.48008 0.85685 0.6772 0.0
C2749 C 0.48863 0.8648 0.68127 0.0
C2750 C 0.49924 0.86071 0.68468 0.0
C2751 C 0.50753 0.86822 0.6882 0.0
C2752 C 0.5052 0.8798 0.68849 0.0
C2753 C 0.4946 0.88389 0.68524 0.0
C2754 C 0.48632 0.87642 0.68159 0.0
C2755 C 0.457 0.82039 0.70284 0.0
C2756 C 0.4544 0.82766 0.71182 0.0
C2757 C 0.46007 0.825 0.69237 0.0
C2758 C 0.45914 0.8367 0.69052 0.0
C2759 C 0.45345 0.84329 0.69861 0.0
C2760 C 0.45092 0.83872 0.70922 0.0
C2761 C 0.46596 0.84244 0.68163 0.0
C2762 C 0.47354 0.85084 0.68505 0.0
C2763 C 0.46568 0.83944 0.67012 0.0
C2764 C 0.45968 0.82933 0.66616 0.0
C2765 C 0.44794 0.82835 0.66742 0.0
C2766 C 0.44251 0.81851 0.66402 0.0
C2767 C 0.44875 0.80962 0.65935 0.0
C2768 C 0.46045 0.81054 0.65806 0.0
C2769 C 0.46589 0.82037 0.6614 0.0
H2770 H 0.44454 0.802 0.65677 0.0
H2771 H 0.51162 0.8856 0.69123 0.0
H2772 H 0.49131 0.20187 0.95809 0.0
H2773 H 0.48357 0.20682 0.93972 0.0
H2774 H 0.51595 0.21994 0.92942 0.0
H2775 H 0.52381 0.21409 0.9474 0.0
H2776 H 0.48819 0.23305 0.93877 0.0
H2777 H 0.51479 0.22227 0.90901 0.0
H2778 H 0.52772 0.20851 0.90006 0.0
H2779 H 0.50045 0.18508 0.89696 0.0
H2780 H 0.48741 0.19869 0.90609 0.0
H2781 H 0.46665 0.26512 0.89076 0.0
H2782 H 0.47487 0.25726 0.9077 0.0
H2783 H 0.46211 0.22443 0.89893 0.0
H2784 H 0.45522 0.2323 0.88121 0.0
H2785 H 0.48413 0.22372 0.89838 0.0
H2786 H 0.4574 0.24222 0.92642 0.0
H2787 H 0.44904 0.25961 0.93442 0.0
H2788 H 0.48218 0.27304 0.93943 0.0
H2789 H 0.49071 0.25578 0.93146 0.0
C2790 C 0.49704 0.20477 0.95153 0.0
C2791 C 0.50788 0.20845 0.95436 0.0
C2792 C 0.49253 0.20789 0.9411 0.0
C2793 C 0.49908 0.21413 0.93337 0.0
C2794 C 0.5107 0.21517 0.93522 0.0
C2795 C 0.51524 0.21162 0.94553 0.0
C2796 C 0.49318 0.22178 0.92542 0.0
C2797 C 0.48723 0.23103 0.92991 0.0
C2798 C 0.49256 0.2196 0.91384 0.0
C2799 C 0.50021 0.21136 0.90838 0.0
C2800 C 0.5116 0.21412 0.90653 0.0
C2801 C 0.51893 0.20638 0.9014 0.0
C2802 C 0.51491 0.1959 0.89798 0.0
C2803 C 0.50355 0.19318 0.89965 0.0
C2804 C 0.49619 0.20089 0.90482 0.0
C2805 C 0.46492 0.25635 0.89279 0.0
C2806 C 0.46163 0.24899 0.88419 0.0
C2807 C 0.46985 0.25179 0.90252 0.0
C2808 C 0.46966 0.24005 0.90442 0.0
C2809 C 0.46287 0.23343 0.89742 0.0
C2810 C 0.45855 0.23801 0.88742 0.0
C2811 C 0.478 0.23434 0.91194 0.0
C2812 C 0.48476 0.22565 0.90728 0.0
C2813 C 0.47989 0.23756 0.92324 0.0
C2814 C 0.47466 0.24774 0.92831 0.0
C2815 C 0.46288 0.24889 0.92924 0.0
C2816 C 0.45812 0.25872 0.93377 0.0
C2817 C 0.46507 0.26742 0.93742 0.0
C2818 C 0.4768 0.26629 0.93662 0.0
C2819 C 0.4816 0.25648 0.93213 0.0
H2820 H 0.46137 0.27504 0.94087 0.0
H2821 H 0.5206 0.18991 0.89401 0.0
H2822 H 0.07273 0.20675 0.13338 0.0
H2823 H 0.08042 0.20621 0.15241 0.0
H2824 H 0.11379 0.21169 0.13874 0.0
H2825 H 0.1063 0.2108 0.11982 0.0
H2826 H 0.11617 0.20549 0.15956 0.0
H2827 H 0.08858 0.24367 0.14847 0.0
H2828 H 0.06977 0.25243 0.14961 0.0
H2829 H 0.05782 0.22482 0.16999 0.0
H2830 H 0.07692 0.21644 0.16985 0.0
H2831 H 0.13401 0.24568 0.20243 0.0
H2832 H 0.13146 0.23622 0.18413 0.0
H2833 H 0.09528 0.23735 0.18973 0.0
H2834 H 0.09807 0.24905 0.20543 0.0
H2835 H 0.0969 0.24073 0.1711 0.0
H2836 H 0.11879 0.2113 0.19289 0.0
H2837 H 0.13669 0.20572 0.20201 0.0
H2838 H 0.15484 0.21279 0.17126 0.0
H2839 H 0.13704 0.21844 0.16201 0.0
C2840 C 0.08181 0.20692 0.13441 0.0
C2841 C 0.08888 0.20943 0.12518 0.0
C2842 C 0.08617 0.20713 0.14536 0.0
C2843 C 0.09752 0.21007 0.14707 0.0
C2844 C 0.10492 0.20982 0.13775 0.0
C2845 C 0.10062 0.20914 0.12684 0.0
C2846 C 0.10125 0.21588 0.1575 0.0
C2847 C 0.11166 0.21292 0.16248 0.0
C2848 C 0.09577 0.22587 0.16119 0.0
C2849 C 0.08401 0.22905 0.15854 0.0
C2850 C 0.08182 0.23922 0.15277 0.0
C2851 C 0.07114 0.24425 0.15345 0.0
C2852 C 0.06246 0.23902 0.15957 0.0
C2853 C 0.06447 0.22876 0.16507 0.0
C2854 C 0.07525 0.22391 0.16477 0.0
C2855 C 0.12557 0.24401 0.19947 0.0
C2856 C 0.1161 0.24737 0.20591 0.0
C2857 C 0.12409 0.23838 0.18914 0.0
C2858 C 0.11314 0.23558 0.18548 0.0
C2859 C 0.10389 0.23925 0.192 0.0
C2860 C 0.10542 0.24559 0.20153 0.0
C2861 C 0.11061 0.22931 0.17487 0.0
C2862 C 0.10101 0.23281 0.16894 0.0
C2863 C 0.11615 0.21926 0.17142 0.0
C2864 C 0.12665 0.21527 0.17679 0.0
C2865 C 0.1266 0.21157 0.18808 0.0
C2866 C 0.13673 0.20844 0.19327 0.0
C2867 C 0.1469 0.2089 0.18722 0.0
C2868 C 0.14696 0.21242 0.17593 0.0
C2869 C 0.13686 0.21556 0.17071 0.0
H2870 H 0.15473 0.20654 0.19127 0.0
H2871 H 0.05426 0.24302 0.16032 0.0
H2872 H 0.1012 0.86007 0.46628 0.0
H2873 H 0.11223 0.85945 0.4491 0.0
H2874 H 0.08531 0.87692 0.43148 0.0
H2875 H 0.07347 0.87532 0.44833 0.0
H2876 H 0.08807 0.86136 0.42047 0.0
H2877 H 0.1179 0.88409 0.43401 0.0
H2878 H 0.13185 0.89109 0.44754 0.0
H2879 H 0.14838 0.85871 0.44793 0.0
H2880 H 0.13438 0.8514 0.43466 0.0
H2881 H 0.12435 0.84709 0.37115 0.0
H2882 H 0.12061 0.85922 0.38753 0.0
H2883 H 0.11331 0.82974 0.40779 0.0
H2884 H 0.11682 0.81764 0.39145 0.0
H2885 H 0.12912 0.85539 0.41447 0.0
H2886 H 0.09192 0.83394 0.40753 0.0
H2887 H 0.07618 0.82851 0.39535 0.0
H2888 H 0.07402 0.8623 0.38216 0.0
H2889 H 0.08971 0.86797 0.39442 0.0
C2890 C 0.09766 0.86373 0.45867 0.0
C2891 C 0.08624 0.86682 0.45834 0.0
C2892 C 0.10416 0.86373 0.44881 0.0
C2893 C 0.09962 0.86779 0.4386 0.0
C2894 C 0.08892 0.87316 0.439 0.0
C2895 C 0.08215 0.8724 0.44871 0.0
C2896 C 0.10464 0.86424 0.4275 0.0
C2897 C 0.09712 0.86054 0.41921 0.0
C2898 C 0.11644 0.86277 0.42551 0.0
C2899 C 0.12507 0.86721 0.4333 0.0
C2900 C 0.12449 0.87845 0.437 0.0
C2901 C 0.13239 0.88246 0.44466 0.0
C2902 C 0.14098 0.87534 0.44862 0.0
C2903 C 0.14171 0.8642 0.44489 0.0
C2904 C 0.13381 0.86013 0.43727 0.0
C2905 C 0.12229 0.84322 0.37921 0.0
C2906 C 0.12087 0.83147 0.38007 0.0
C2907 C 0.12012 0.85013 0.38852 0.0
C2908 C 0.11654 0.84535 0.39879 0.0
C2909 C 0.11597 0.83356 0.39989 0.0
C2910 C 0.1181 0.82666 0.39059 0.0
C2911 C 0.11247 0.85259 0.40811 0.0
C2912 C 0.12016 0.85683 0.41588 0.0
C2913 C 0.10087 0.85489 0.40959 0.0
C2914 C 0.09226 0.85124 0.40151 0.0
C2915 C 0.0883 0.84012 0.40179 0.0
C2916 C 0.07936 0.83702 0.39491 0.0
C2917 C 0.07438 0.84492 0.38765 0.0
C2918 C 0.07804 0.85611 0.3876 0.0
C2919 C 0.08697 0.85927 0.3945 0.0
H2920 H 0.06749 0.84245 0.38229 0.0
H2921 H 0.14707 0.87845 0.45456 0.0
H2922 H 0.70914 0.4856 0.83119 0.0
H2923 H 0.69061 0.48665 0.83937 0.0
H2924 H 0.68837 0.45037 0.83872 0.0
H2925 H 0.70778 0.44929 0.83089 0.0
H2926 H 0.66856 0.4668 0.82942 0.0
H2927 H 0.69063 0.45683 0.86167 0.0
H2928 H 0.70702 0.45784 0.87427 0.0
H2929 H 0.69929 0.49258 0.88116 0.0
H2930 H 0.68312 0.49193 0.86824 0.0
H2931 H 0.61955 0.47549 0.86702 0.0
H2932 H 0.63767 0.46712 0.86104 0.0
H2933 H 0.65085 0.50039 0.85458 0.0
H2934 H 0.63288 0.50879 0.86075 0.0
H2935 H 0.66442 0.48111 0.86847 0.0
H2936 H 0.64832 0.49266 0.83165 0.0
H2937 H 0.63449 0.49336 0.81618 0.0
H2938 H 0.63163 0.45729 0.81738 0.0
H2939 H 0.64575 0.45634 0.83258 0.0
C2940 C 0.70512 0.47781 0.83317 0.0
C2941 C 0.71034 0.46738 0.831 0.0
C2942 C 0.6943 0.47843 0.83765 0.0
C2943 C 0.68826 0.46859 0.83988 0.0
C2944 C 0.69305 0.45806 0.8372 0.0
C2945 C 0.70409 0.45746 0.83278 0.0
C2946 C 0.67698 0.46978 0.8451 0.0
C2947 C 0.66755 0.46953 0.83809 0.0
C2948 C 0.67585 0.47383 0.85624 0.0
C2949 C 0.68566 0.47433 0.86394 0.0
C2950 C 0.69251 0.46473 0.86574 0.0
C2951 C 0.70177 0.46525 0.87294 0.0
C2952 C 0.70421 0.47527 0.8785 0.0
C2953 C 0.69741 0.48482 0.87683 0.0
C2954 C 0.68821 0.4844 0.86955 0.0
C2955 C 0.62644 0.481 0.86463 0.0
C2956 C 0.62479 0.49275 0.8642 0.0
C2957 C 0.63669 0.47622 0.86106 0.0
C2958 C 0.64538 0.48315 0.85704 0.0
C2959 C 0.64409 0.49492 0.85742 0.0
C2960 C 0.63387 0.4997 0.86104 0.0
C2961 C 0.65601 0.47814 0.85279 0.0
C2962 C 0.66533 0.4779 0.85997 0.0
C2963 C 0.65708 0.47381 0.84175 0.0
C2964 C 0.64782 0.47445 0.83346 0.0
C2965 C 0.64458 0.4849 0.82877 0.0
C2966 C 0.63677 0.48534 0.81997 0.0
C2967 C 0.63205 0.47541 0.81593 0.0
C2968 C 0.63525 0.46499 0.82056 0.0
C2969 C 0.64318 0.46449 0.82923 0.0
H2970 H 0.62599 0.47578 0.80916 0.0
H2971 H 0.71133 0.47561 0.88414 0.0
H2972 H 0.76387 0.37876 0.96379 0.0
H2973 H 0.75828 0.39866 0.96311 0.0
H2974 H 0.72329 0.38882 0.96436 0.0
H2975 H 0.7289 0.36922 0.96335 0.0
H2976 H 0.72316 0.4091 0.95979 0.0
H2977 H 0.75008 0.38778 0.98685 0.0
H2978 H 0.76997 0.38233 0.9904 0.0
H2979 H 0.7797 0.41701 0.98974 0.0
H2980 H 0.76046 0.42258 0.98418 0.0
H2981 H 0.70495 0.45417 0.99613 0.0
H2982 H 0.70742 0.43443 0.98989 0.0
H2983 H 0.74363 0.43885 0.99049 0.0
H2984 H 0.74096 0.45694 0.9982 0.0
H2985 H 0.74116 0.41998 0.99557 0.0
H2986 H 0.72332 0.4426 0.96549 0.0
H2987 H 0.70704 0.45391 0.95898 0.0
H2988 H 0.68537 0.42529 0.9635 0.0
H2989 H 0.70148 0.41395 0.97052 0.0
C2990 C 0.755 0.38085 0.96288 0.0
C2991 C 0.74674 0.37255 0.96467 0.0
C2992 C 0.75178 0.39229 0.9629 0.0
C2993 C 0.74041 0.3952 0.96501 0.0
C2994 C 0.73219 0.38687 0.96341 0.0
C2995 C 0.73544 0.37556 0.96266 0.0
C2996 C 0.73704 0.40574 0.97106 0.0
C2997 C 0.72727 0.41159 0.96751 0.0
C2998 C 0.74235 0.40921 0.9812 0.0
C2999 C 0.75383 0.40553 0.98476 0.0
C3000 C 0.75649 0.39421 0.98723 0.0
C3001 C 0.76767 0.3911 0.98955 0.0
C3002 C 0.77599 0.39928 0.99061 0.0
C3003 C 0.77327 0.41064 0.9889 0.0
C3004 C 0.76231 0.41374 0.98582 0.0
C3005 C 0.71338 0.45072 0.99509 0.0
C3006 C 0.72288 0.45749 0.99698 0.0
C3007 C 0.71481 0.4395 0.99141 0.0
C3008 C 0.72575 0.43513 0.98926 0.0
C3009 C 0.73504 0.44179 0.99189 0.0
C3010 C 0.73356 0.45255 0.99598 0.0
C3011 C 0.72809 0.4241 0.98369 0.0
C3012 C 0.73727 0.4177 0.98766 0.0
C3013 C 0.72302 0.42094 0.97345 0.0
C3014 C 0.71355 0.42747 0.96854 0.0
C3015 C 0.71508 0.43872 0.96504 0.0
C3016 C 0.70588 0.44515 0.96132 0.0
C3017 C 0.69518 0.4403 0.96073 0.0
C3018 C 0.69366 0.42902 0.96392 0.0
C3019 C 0.70281 0.42261 0.96782 0.0
H3020 H 0.68807 0.4453 0.95783 0.0
H3021 H 0.78455 0.39682 0.99269 0.0
H3022 H 0.85403 0.72516 0.45497 0.0
H3023 H 0.86485 0.70861 0.4585 0.0
H3024 H 0.83789 0.68836 0.44497 0.0
H3025 H 0.82594 0.70516 0.44473 0.0
H3026 H 0.83977 0.6803 0.46228 0.0
H3027 H 0.87423 0.68963 0.43923 0.0
H3028 H 0.88968 0.70223 0.43304 0.0
H3029 H 0.8984 0.70814 0.46758 0.0
H3030 H 0.88305 0.69561 0.47393 0.0
H3031 H 0.87253 0.62959 0.47408 0.0
H3032 H 0.87112 0.64737 0.46353 0.0
H3033 H 0.8646 0.66513 0.4945 0.0
H3034 H 0.86625 0.64739 0.50508 0.0
H3035 H 0.8804 0.67317 0.46908 0.0
H3036 H 0.83743 0.67135 0.48747 0.0
H3037 H 0.82036 0.65993 0.4911 0.0
H3038 H 0.82857 0.63913 0.46269 0.0
H3039 H 0.84573 0.65027 0.45907 0.0
C3040 C 0.85058 0.7172 0.45221 0.0
C3041 C 0.83885 0.7162 0.45098 0.0
C3042 C 0.85695 0.70745 0.45426 0.0
C3043 C 0.8522 0.69671 0.45265 0.0
C3044 C 0.84161 0.69634 0.44722 0.0
C3045 C 0.83483 0.70608 0.44655 0.0
C3046 C 0.8567 0.68636 0.45865 0.0
C3047 C 0.84874 0.6788 0.46333 0.0
C3048 C 0.86835 0.68426 0.46092 0.0
C3049 C 0.87754 0.69171 0.45701 0.0
C3050 C 0.87946 0.69363 0.44547 0.0
C3051 C 0.8882 0.70076 0.44194 0.0
C3052 C 0.89502 0.70598 0.44991 0.0
C3053 C 0.89315 0.70408 0.46141 0.0
C3054 C 0.88447 0.69694 0.46497 0.0
C3055 C 0.87168 0.6374 0.47872 0.0
C3056 C 0.86933 0.63714 0.49035 0.0
C3057 C 0.87056 0.6475 0.47265 0.0
C3058 C 0.86736 0.6574 0.47825 0.0
C3059 C 0.86689 0.65748 0.49006 0.0
C3060 C 0.86817 0.64739 0.49612 0.0
C3061 C 0.86352 0.6673 0.4717 0.0
C3062 C 0.87154 0.67478 0.4674 0.0
C3063 C 0.85199 0.6693 0.46962 0.0
C3064 C 0.84302 0.66139 0.47321 0.0
C3065 C 0.83578 0.66409 0.48226 0.0
C3066 C 0.82609 0.65767 0.48432 0.0
C3067 C 0.82356 0.64859 0.47736 0.0
C3068 C 0.8307 0.64593 0.46831 0.0
C3069 C 0.84045 0.65223 0.4663 0.0
H3070 H 0.81597 0.64374 0.47887 0.0
H3071 H 0.90176 0.7115 0.44716 0.0
H3072 H 0.01834 0.33216 0.19391 0.0
H3073 H 0.02768 0.32168 0.17869 0.0
H3074 H 0.01344 0.29075 0.19184 0.0
H3075 H 0.0039 0.30116 0.20648 0.0
H3076 H 0.04424 0.3102 0.17739 0.0
H3077 H 0.0114 0.26735 0.17531 0.0
H3078 H 0.9908 0.26468 0.17681 0.0
H3079 H 0.98524 0.29924 0.16697 0.0
H3080 H 0.00577 0.30207 0.1653 0.0
H3081 H 0.04922 0.24363 0.13756 0.0
H3082 H 0.0395 0.25526 0.15183 0.0
H3083 H 0.05348 0.285 0.13625 0.0
H3084 H 0.06472 0.27347 0.12343 0.0
H3085 H 0.02426 0.27076 0.15704 0.0
H3086 H 0.06715 0.29868 0.14359 0.0
H3087 H 0.08701 0.29363 0.14034 0.0
H3088 H 0.08359 0.26537 0.16293 0.0
H3089 H 0.06374 0.27045 0.16625 0.0
C3090 C 0.01716 0.32317 0.19343 0.0
C3091 C 0.01034 0.31762 0.20143 0.0
C3092 C 0.02252 0.31711 0.18474 0.0
C3093 C 0.02124 0.30532 0.18391 0.0
C3094 C 0.01442 0.29981 0.19192 0.0
C3095 C 0.00902 0.30584 0.20049 0.0
C3096 C 0.0278 0.29868 0.17541 0.0
C3097 C 0.04134 0.30285 0.17271 0.0
C3098 C 0.02241 0.28671 0.16937 0.0
C3099 C 0.01013 0.28496 0.1704 0.0
C3100 C 0.00579 0.27437 0.17348 0.0
C3101 C 0.99412 0.27283 0.17435 0.0
C3102 C 0.98672 0.2818 0.17206 0.0
C3103 C 0.99097 0.29232 0.16883 0.0
C3104 C 0.00263 0.2939 0.16795 0.0
C3105 C 0.05041 0.25269 0.13738 0.0
C3106 C 0.05833 0.2576 0.12986 0.0
C3107 C 0.04478 0.25931 0.14551 0.0
C3108 C 0.04662 0.27096 0.14581 0.0
C3109 C 0.05298 0.27593 0.13704 0.0
C3110 C 0.05923 0.26935 0.12953 0.0
C3111 C 0.04288 0.27812 0.15543 0.0
C3112 C 0.02934 0.27743 0.16048 0.0
C3113 C 0.05179 0.28887 0.15923 0.0
C3114 C 0.06419 0.2859 0.15639 0.0
C3115 C 0.07078 0.29194 0.1485 0.0
C3116 C 0.08201 0.28884 0.14635 0.0
C3117 C 0.08672 0.27943 0.15175 0.0
C3118 C 0.08009 0.27291 0.15902 0.0
C3119 C 0.06886 0.27597 0.1611 0.0
H3120 H 0.0954 0.27701 0.15007 0.0
H3121 H 0.97769 0.28058 0.17273 0.0
H3122 H 0.09701 0.79256 0.39863 0.0
H3123 H 0.08556 0.78218 0.41257 0.0
H3124 H 0.05594 0.79986 0.40117 0.0
H3125 H 0.06732 0.81071 0.38755 0.0
H3126 H 0.06651 0.79663 0.42948 0.0
H3127 H 0.05432 0.78015 0.39285 0.0
H3128 H 0.05814 0.76877 0.37592 0.0
H3129 H 0.0692 0.74113 0.39684 0.0
H3130 H 0.06546 0.75244 0.41386 0.0
H3131 H 0.01166 0.77083 0.44903 0.0
H3132 H 0.02548 0.78023 0.43667 0.0
H3133 H 0.05173 0.75804 0.44862 0.0
H3134 H 0.0382 0.74883 0.46129 0.0
H3135 H 0.04575 0.76156 0.42156 0.0
H3136 H 0.07133 0.78862 0.45026 0.0
H3137 H 0.07051 0.79867 0.46838 0.0
H3138 H 0.0349 0.80415 0.46439 0.0
H3139 H 0.03557 0.79456 0.44615 0.0
C3140 C 0.08804 0.79438 0.39919 0.0
C3141 C 0.08314 0.80269 0.3921 0.0
C3142 C 0.0815 0.78837 0.40714 0.0
C3143 C 0.06984 0.79032 0.40806 0.0
C3144 C 0.06492 0.79841 0.40082 0.0
C3145 C 0.07146 0.80463 0.39303 0.0
C3146 C 0.06281 0.78437 0.41685 0.0
C3147 C 0.06159 0.78926 0.42755 0.0
C3148 C 0.05738 0.77396 0.41488 0.0
C3149 C 0.05974 0.76725 0.4046 0.0
C3150 C 0.0577 0.77173 0.39381 0.0
C3151 C 0.05981 0.76526 0.3842 0.0
C3152 C 0.06399 0.75425 0.38529 0.0
C3153 C 0.06599 0.74967 0.396 0.0
C3154 C 0.06385 0.75611 0.40562 0.0
C3155 C 0.02038 0.768 0.44913 0.0
C3156 C 0.02376 0.7591 0.45628 0.0
C3157 C 0.02827 0.77333 0.44195 0.0
C3158 C 0.03967 0.76987 0.44164 0.0
C3159 C 0.04304 0.76098 0.44874 0.0
C3160 C 0.03522 0.75569 0.45597 0.0
C3161 C 0.04789 0.775 0.43342 0.0
C3162 C 0.04999 0.76946 0.42317 0.0
C3163 C 0.05414 0.78483 0.43581 0.0
C3164 C 0.05345 0.7905 0.44692 0.0
C3165 C 0.06331 0.79192 0.45327 0.0
C3166 C 0.06289 0.79761 0.46355 0.0
C3167 C 0.05264 0.80195 0.46759 0.0
C3168 C 0.04281 0.80066 0.46132 0.0
C3169 C 0.04321 0.79504 0.45101 0.0
H3170 H 0.05233 0.80637 0.47555 0.0
H3171 H 0.06563 0.74925 0.37785 0.0
H3172 H 0.55823 0.77875 0.70959 0.0
H3173 H 0.54785 0.78823 0.69413 0.0
H3174 H 0.56836 0.77005 0.66999 0.0
H3175 H 0.57746 0.75986 0.68519 0.0
H3176 H 0.5658 0.78954 0.66277 0.0
H3177 H 0.5303 0.75056 0.66589 0.0
H3178 H 0.51707 0.73724 0.66752 0.0
H3179 H 0.49155 0.76102 0.67522 0.0
H3180 H 0.50354 0.77549 0.6738 0.0
H3181 H 0.52081 0.80592 0.62509 0.0
H3182 H 0.53393 0.79588 0.63771 0.0
H3183 H 0.53064 0.82256 0.66205 0.0
H3184 H 0.51806 0.83292 0.64913 0.0
H3185 H 0.52891 0.80174 0.67203 0.0
H3186 H 0.55364 0.82109 0.65164 0.0
H3187 H 0.56514 0.83024 0.63686 0.0
H3188 H 0.57674 0.79784 0.62544 0.0
H3189 H 0.5651 0.78843 0.64003 0.0
C3190 C 0.56023 0.77666 0.70092 0.0
C3191 C 0.56851 0.76845 0.69848 0.0
C3192 C 0.55437 0.78211 0.6921 0.0
C3193 C 0.55688 0.77958 0.68075 0.0
C3194 C 0.56587 0.77205 0.67851 0.0
C3195 C 0.57124 0.76625 0.68724 0.0
C3196 C 0.5501 0.78451 0.67114 0.0
C3197 C 0.55669 0.79055 0.66307 0.0
C3198 C 0.53735 0.78473 0.67043 0.0
C3199 C 0.52076 0.76705 0.67044 0.0
C3200 C 0.52244 0.75456 0.66829 0.0
C3201 C 0.51452 0.7459 0.66909 0.0
C3202 C 0.50351 0.74813 0.67179 0.0
C3203 C 0.50034 0.75911 0.67338 0.0
C3204 C 0.50821 0.76783 0.67257 0.0
C3205 C 0.52281 0.80956 0.63317 0.0
C3206 C 0.51829 0.82007 0.63624 0.0
C3207 C 0.5304 0.80391 0.64033 0.0
C3208 C 0.53332 0.80849 0.65083 0.0
C3209 C 0.5286 0.8189 0.65398 0.0
C3210 C 0.52134 0.82474 0.64665 0.0
C3211 C 0.54061 0.80187 0.6587 0.0
C3212 C 0.53583 0.79702 0.66845 0.0
C3213 C 0.55157 0.79839 0.65584 0.0
C3214 C 0.5583 0.80402 0.64682 0.0
C3215 C 0.55845 0.81587 0.64585 0.0
C3216 C 0.56505 0.82112 0.63754 0.0
C3217 C 0.57162 0.81463 0.63018 0.0
C3218 C 0.57161 0.80286 0.63112 0.0
C3219 C 0.565 0.79756 0.63942 0.0
H3220 H 0.57676 0.81872 0.62378 0.0
H3221 H 0.4974 0.7414 0.67241 0.0
H3222 H 0.54064 0.32697 0.96128 0.0
H3223 H 0.52947 0.31685 0.94766 0.0
H3224 H 0.55954 0.30962 0.92819 0.0
H3225 H 0.57085 0.32016 0.9418 0.0
H3226 H 0.54226 0.31737 0.91486 0.0
H3227 H 0.5461 0.28978 0.94413 0.0
H3228 H 0.54523 0.28138 0.96323 0.0
H3229 H 0.50925 0.28615 0.96379 0.0
H3230 H 0.51008 0.29485 0.9448 0.0
H3231 H 0.51817 0.26128 0.89485 0.0
H3232 H 0.52664 0.27385 0.90858 0.0
H3233 H 0.50621 0.30148 0.89643 0.0
H3234 H 0.49801 0.28923 0.88249 0.0
H3235 H 0.5166 0.2861 0.9255 0.0
H3236 H 0.51406 0.31925 0.8994 0.0
H3237 H 0.51474 0.32841 0.88064 0.0
H3238 H 0.54769 0.31416 0.87468 0.0
H3239 H 0.54705 0.30495 0.89336 0.0
C3240 C 0.54496 0.32322 0.95413 0.0
C3241 C 0.55671 0.32445 0.95263 0.0
C3242 C 0.53852 0.31736 0.94636 0.0
C3243 C 0.54362 0.31243 0.93688 0.0
C3244 C 0.55539 0.31339 0.93543 0.0
C3245 C 0.5619 0.31931 0.94327 0.0
C3246 C 0.53653 0.30658 0.92841 0.0
C3247 C 0.53682 0.31037 0.91716 0.0
C3248 C 0.52887 0.29792 0.93151 0.0
C3249 C 0.52826 0.29322 0.94316 0.0
C3250 C 0.53811 0.28934 0.9485 0.0
C3251 C 0.53759 0.28446 0.95926 0.0
C3252 C 0.52719 0.28332 0.96476 0.0
C3253 C 0.51731 0.28709 0.95953 0.0
C3254 C 0.51782 0.29201 0.94876 0.0
C3255 C 0.51568 0.27009 0.89492 0.0
C3256 C 0.50756 0.27423 0.88739 0.0
C3257 C 0.52047 0.27729 0.90286 0.0
C3258 C 0.51756 0.28885 0.90327 0.0
C3259 C 0.50927 0.2929 0.8959 0.0
C3260 C 0.50441 0.28574 0.88801 0.0
C3261 C 0.52298 0.29625 0.9118 0.0
C3262 C 0.52218 0.29298 0.92318 0.0
C3263 C 0.52997 0.30555 0.90888 0.0
C3264 C 0.53019 0.31073 0.89745 0.0
C3265 C 0.52128 0.31778 0.89393 0.0
C3266 C 0.5217 0.3231 0.88335 0.0
C3267 C 0.53115 0.32168 0.87635 0.0
C3268 C 0.54026 0.31509 0.88 0.0
C3269 C 0.53985 0.30978 0.89056 0.0
H3270 H 0.53148 0.32583 0.86818 0.0
H3271 H 0.5268 0.27943 0.97302 0.0
H3272 H 0.07261 0.82284 0.43202 0.0
H3273 H 0.06229 0.81363 0.417 0.0
H3274 H 0.03116 0.81753 0.43559 0.0
H3275 H 0.04141 0.82702 0.45063 0.0
H3276 H 0.03494 0.795 0.42635 0.0
H3277 H 0.02121 0.82911 0.40314 0.0
H3278 H 0.02267 0.84989 0.40295 0.0
H3279 H 0.05874 0.84723 0.40419 0.0
H3280 H 0.05754 0.82644 0.40313 0.0
H3281 H 0.99918 0.77887 0.38155 0.0
H3282 H 0.00752 0.79229 0.39448 0.0
H3283 H 0.0405 0.78478 0.38085 0.0
H3284 H 0.03223 0.77074 0.36817 0.0
H3285 H 0.03273 0.81106 0.38771 0.0
H3286 H 0.03461 0.77041 0.40324 0.0
H3287 H 0.02341 0.7534 0.40749 0.0
H3288 H 0.99903 0.77358 0.42542 0.0
H3289 H 0.01017 0.79069 0.42128 0.0
C3290 C 0.06358 0.82174 0.43295 0.0
C3291 C 0.05791 0.82571 0.44259 0.0
C3292 C 0.0576 0.81656 0.42424 0.0
C3293 C 0.04583 0.81495 0.42495 0.0
C3294 C 0.04018 0.8187 0.43469 0.0
C3295 C 0.04611 0.82411 0.44332 0.0
C3296 C 0.03962 0.80902 0.41572 0.0
C3297 C 0.03482 0.79839 0.41788 0.0
C3298 C 0.03816 0.81389 0.40486 0.0
C3299 C 0.03929 0.82623 0.40326 0.0
C3300 C 0.02948 0.83297 0.40301 0.0
C3301 C 0.03026 0.84474 0.40301 0.0
C3302 C 0.04083 0.84986 0.40343 0.0
C3303 C 0.05061 0.84322 0.40358 0.0
C3304 C 0.04988 0.83145 0.4032 0.0
C3305 C 0.00825 0.77999 0.38131 0.0
C3306 C 0.01506 0.77352 0.37394 0.0
C3307 C 0.01299 0.78779 0.38865 0.0
C3308 C 0.02469 0.78951 0.3888 0.0
C3309 C 0.0315 0.78343 0.38112 0.0
C3310 C 0.02677 0.77536 0.37389 0.0
C3311 C 0.02976 0.7963 0.39806 0.0
C3312 C 0.03365 0.80735 0.39604 0.0
C3313 C 0.02969 0.79215 0.40928 0.0
C3314 C 0.02341 0.78175 0.41226 0.0
C3315 C 0.02697 0.77118 0.40825 0.0
C3316 C 0.0206 0.76153 0.41058 0.0
C3317 C 0.01056 0.76239 0.41681 0.0
C3318 C 0.00685 0.77291 0.42066 0.0
C3319 C 0.0132 0.78257 0.41835 0.0
H3320 H 0.00562 0.75492 0.41857 0.0
H3321 H 0.04143 0.85897 0.4037 0.0
H3322 H 0.57061 0.76055 0.63959 0.0
H3323 H 0.56001 0.771 0.65377 0.0
H3324 H 0.52966 0.75348 0.64516 0.0
H3325 H 0.53999 0.74314 0.63079 0.0
H3326 H 0.5259 0.77908 0.64646 0.0
H3327 H 0.55336 0.74941 0.66461 0.0
H3328 H 0.56383 0.73409 0.6731 0.0
H3329 H 0.55107 0.74305 0.70574 0.0
H3330 H 0.54065 0.75884 0.69763 0.0
H3331 H 0.48737 0.80168 0.69553 0.0
H3332 H 0.49701 0.79003 0.68182 0.0
H3333 H 0.52894 0.79729 0.69739 0.0
H3334 H 0.51913 0.80958 0.711 0.0
H3335 H 0.52533 0.77941 0.68405 0.0
H3336 H 0.51134 0.80745 0.67155 0.0
H3337 H 0.49743 0.81947 0.66224 0.0
H3338 H 0.49192 0.79403 0.63742 0.0
H3339 H 0.50558 0.78149 0.64682 0.0
C3340 C 0.56171 0.75882 0.6408 0.0
C3341 C 0.55629 0.75074 0.63421 0.0
C3342 C 0.55564 0.76477 0.64906 0.0
C3343 C 0.54416 0.76254 0.65116 0.0
C3344 C 0.53862 0.75498 0.64414 0.0
C3345 C 0.5446 0.74908 0.63586 0.0
C3346 C 0.53766 0.76836 0.66019 0.0
C3347 C 0.52707 0.77797 0.65543 0.0
C3348 C 0.53952 0.76579 0.67544 0.0
C3349 C 0.54616 0.75595 0.68024 0.0
C3350 C 0.55272 0.74855 0.67354 0.0
C3351 C 0.55875 0.73958 0.67838 0.0
C3352 C 0.55821 0.73762 0.68997 0.0
C3353 C 0.55155 0.7446 0.69674 0.0
C3354 C 0.54559 0.75366 0.69196 0.0
C3355 C 0.49648 0.8009 0.69593 0.0
C3356 C 0.50252 0.80655 0.70429 0.0
C3357 C 0.50206 0.79408 0.68808 0.0
C3358 C 0.51383 0.79258 0.68852 0.0
C3359 C 0.51987 0.79834 0.69684 0.0
C3360 C 0.51431 0.80543 0.70454 0.0
C3361 C 0.52048 0.78413 0.68046 0.0
C3362 C 0.53112 0.77366 0.68545 0.0
C3363 C 0.5184 0.78575 0.66507 0.0
C3364 C 0.50962 0.79332 0.66004 0.0
C3365 C 0.5071 0.80414 0.6643 0.0
C3366 C 0.4992 0.81114 0.65895 0.0
C3367 C 0.49377 0.80753 0.64925 0.0
C3368 C 0.49614 0.79684 0.64495 0.0
C3369 C 0.50398 0.78977 0.6503 0.0
H3370 H 0.48777 0.81302 0.64503 0.0
H3371 H 0.56289 0.73067 0.6937 0.0
H3372 H 0.54644 0.24758 0.95712 0.0
H3373 H 0.55885 0.25507 0.94273 0.0
H3374 H 0.53082 0.27234 0.92735 0.0
H3375 H 0.51802 0.26442 0.94158 0.0
H3376 H 0.54346 0.26448 0.91158 0.0
H3377 H 0.56452 0.29065 0.94628 0.0
H3378 H 0.57534 0.28735 0.96367 0.0
H3379 H 0.58913 0.25676 0.94987 0.0
H3380 H 0.57805 0.25973 0.93256 0.0
H3381 H 0.57179 0.31923 0.89236 0.0
H3382 H 0.56316 0.30685 0.90682 0.0
H3383 H 0.57867 0.27784 0.89125 0.0
H3384 H 0.58724 0.28997 0.87693 0.0
H3385 H 0.5756 0.28883 0.92175 0.0
H3386 H 0.56474 0.26186 0.88978 0.0
H3387 H 0.55925 0.26038 0.86977 0.0
H3388 H 0.53371 0.28586 0.87472 0.0
H3389 H 0.5393 0.28739 0.89467 0.0
C3390 C 0.54286 0.25319 0.95081 0.0
C3391 C 0.53115 0.25557 0.95074 0.0
C3392 C 0.55014 0.25771 0.94259 0.0
C3393 C 0.54607 0.26499 0.93412 0.0
C3394 C 0.53432 0.26707 0.93389 0.0
C3395 C 0.52697 0.26256 0.94211 0.0
C3396 C 0.55364 0.27036 0.92531 0.0
C3397 C 0.55036 0.26992 0.91393 0.0
C3398 C 0.56346 0.27668 0.92791 0.0
C3399 C 0.56981 0.27499 0.93848 0.0
C3400 C 0.56946 0.283 0.94714 0.0
C3401 C 0.57577 0.28125 0.95694 0.0
C3402 C 0.58274 0.27173 0.95799 0.0
C3403 C 0.58358 0.26404 0.94915 0.0
C3404 C 0.57727 0.26574 0.93937 0.0
C3405 C 0.57317 0.31019 0.89191 0.0
C3406 C 0.58005 0.3056 0.88336 0.0
C3407 C 0.56835 0.30314 0.90024 0.0
C3408 C 0.57001 0.29136 0.89995 0.0
C3409 C 0.57693 0.28682 0.89147 0.0
C3410 C 0.58186 0.29382 0.88329 0.0
C3411 C 0.56454 0.28379 0.90846 0.0
C3412 C 0.56837 0.28373 0.91962 0.0
C3413 C 0.55592 0.27622 0.90548 0.0
C3414 C 0.55245 0.27492 0.89361 0.0
C3415 C 0.55797 0.26714 0.88656 0.0
C3416 C 0.55488 0.26628 0.87523 0.0
C3417 C 0.54616 0.27306 0.87094 0.0
C3418 C 0.54051 0.28066 0.87798 0.0
C3419 C 0.54367 0.28156 0.88926 0.0
H3420 H 0.54378 0.2724 0.86218 0.0
H3421 H 0.58762 0.27039 0.96557 0.0
H3422 H 0.02893 0.33969 0.13776 0.0
H3423 H 0.04074 0.32964 0.15164 0.0
H3424 H 0.03612 0.29875 0.13332 0.0
H3425 H 0.02368 0.30857 0.12004 0.0
H3426 H 0.02722 0.29603 0.15225 0.0
H3427 H 0.06031 0.31587 0.13745 0.0
H3428 H 0.07268 0.33064 0.13012 0.0
H3429 H 0.08278 0.33867 0.16376 0.0
H3430 H 0.07009 0.32404 0.17142 0.0
H3431 H 0.06857 0.25745 0.19773 0.0
H3432 H 0.05721 0.2668 0.18363 0.0
H3433 H 0.06887 0.29928 0.19464 0.0
H3434 H 0.08094 0.28977 0.20841 0.0
H3435 H 0.05901 0.30542 0.16591 0.0
H3436 H 0.0364 0.2889 0.19607 0.0
H3437 H 0.02825 0.27618 0.21039 0.0
H3438 H 0.02983 0.24874 0.18703 0.0
H3439 H 0.03821 0.26121 0.17265 0.0
C3440 C 0.03052 0.33075 0.1367 0.0
C3441 C 0.02515 0.32483 0.12799 0.0
C3442 C 0.03746 0.32507 0.14453 0.0
C3443 C 0.0395 0.31344 0.14352 0.0
C3444 C 0.03475 0.30774 0.13431 0.0
C3445 C 0.02749 0.3133 0.12678 0.0
C3446 C 0.04407 0.30658 0.1531 0.0
C3447 C 0.03513 0.29631 0.15699 0.0
C3448 C 0.05655 0.309 0.1603 0.0
C3449 C 0.06379 0.31907 0.15514 0.0
C3450 C 0.06472 0.32102 0.14342 0.0
C3451 C 0.07195 0.32931 0.13914 0.0
C3452 C 0.07842 0.3357 0.14647 0.0
C3453 C 0.07767 0.33379 0.15809 0.0
C3454 C 0.07044 0.3255 0.1624 0.0
C3455 C 0.06853 0.26659 0.19734 0.0
C3456 C 0.07566 0.2728 0.20427 0.0
C3457 C 0.0618 0.27207 0.18928 0.0
C3458 C 0.06168 0.28394 0.18812 0.0
C3459 C 0.06862 0.29016 0.19528 0.0
C3460 C 0.07553 0.28468 0.20321 0.0
C3461 C 0.05521 0.28979 0.17889 0.0
C3462 C 0.06154 0.30112 0.17237 0.0
C3463 C 0.04228 0.28462 0.1744 0.0
C3464 C 0.03711 0.27634 0.18289 0.0
C3465 C 0.03474 0.28022 0.19385 0.0
C3466 C 0.0302 0.27301 0.20206 0.0
C3467 C 0.02826 0.26171 0.19953 0.0
C3468 C 0.03106 0.25757 0.18887 0.0
C3469 C 0.03561 0.26477 0.18062 0.0
H3470 H 0.02475 0.25612 0.20591 0.0
H3471 H 0.0841 0.34204 0.14313 0.0
H3472 H 0.13707 0.04512 0.24438 0.0
H3473 H 0.15157 0.03536 0.25554 0.0
H3474 H 0.15029 0.06226 0.27955 0.0
H3475 H 0.13622 0.07218 0.26859 0.0
H3476 H 0.16911 0.04541 0.27455 0.0
H3477 H 0.13779 0.04273 0.2851 0.0
H3478 H 0.11844 0.03566 0.2834 0.0
H3479 H 0.13122 0.00176 0.2807 0.0
H3480 H 0.15073 0.00875 0.28187 0.0
H3481 H 0.20095 0.02363 0.32767 0.0
H3482 H 0.18633 0.03202 0.31584 0.0
H3483 H 0.19699 0.01089 0.28821 0.0
H3484 H 0.21097 0.00203 0.30012 0.0
H3485 H 0.16419 0.01596 0.29786 0.0
H3486 H 0.19934 0.04204 0.266 0.0
H3487 H 0.21953 0.04691 0.26479 0.0
H3488 H 0.22152 0.04692 0.30091 0.0
H3489 H 0.20139 0.04235 0.30232 0.0
C3490 C 0.13996 0.04902 0.25205 0.0
C3491 C 0.13555 0.05956 0.25552 0.0
C3492 C 0.14829 0.04342 0.25838 0.0
C3493 C 0.1524 0.04826 0.26824 0.0
C3494 C 0.14776 0.05857 0.27179 0.0
C3495 C 0.13949 0.06419 0.26554 0.0
C3496 C 0.16199 0.04226 0.27533 0.0
C3497 C 0.17729 0.04634 0.2757 0.0
C3498 C 0.15746 0.03042 0.2838 0.0
C3499 C 0.14576 0.02633 0.28322 0.0
C3500 C 0.13654 0.03384 0.28372 0.0
C3501 C 0.12551 0.02982 0.28298 0.0
C3502 C 0.12359 0.01827 0.28185 0.0
C3503 C 0.13271 0.01072 0.28153 0.0
C3504 C 0.14376 0.01472 0.28225 0.0
C3505 C 0.19992 0.02054 0.31918 0.0
C3506 C 0.20709 0.01205 0.31494 0.0
C3507 C 0.19136 0.0252 0.31242 0.0
C3508 C 0.18994 0.02164 0.30121 0.0
C3509 C 0.19733 0.01342 0.29693 0.0
C3510 C 0.20556 0.00848 0.30376 0.0
C3511 C 0.18182 0.02745 0.29356 0.0
C3512 C 0.16711 0.023 0.29275 0.0
C3513 C 0.18671 0.03884 0.28489 0.0
C3514 C 0.19886 0.04151 0.28427 0.0
C3515 C 0.20408 0.04305 0.27369 0.0
C3516 C 0.21553 0.0458 0.27296 0.0
C3517 C 0.22182 0.04717 0.28276 0.0
C3518 C 0.21669 0.04573 0.29331 0.0
C3519 C 0.20527 0.04289 0.29408 0.0
H3520 H 0.23064 0.0494 0.28219 0.0
H3521 H 0.11504 0.01516 0.28129 0.0
H3522 H 0.30925 0.96556 0.5634 0.0
H3523 H 0.29838 0.95166 0.55296 0.0
H3524 H 0.3256 0.92749 0.55617 0.0
H3525 H 0.33694 0.94181 0.56577 0.0
H3526 H 0.31617 0.92516 0.53381 0.0
H3527 H 0.30096 0.92303 0.57585 0.0
H3528 H 0.29868 0.93337 0.59358 0.0
H3529 H 0.27588 0.95663 0.5775 0.0
H3530 H 0.2781 0.94656 0.55972 0.0
H3531 H 0.28366 0.87486 0.51116 0.0
H3532 H 0.29483 0.8881 0.52218 0.0
H3533 H 0.2654 0.90954 0.52581 0.0
H3534 H 0.25414 0.896 0.51544 0.0
H3535 H 0.27172 0.90791 0.5452 0.0
H3536 H 0.29391 0.9125 0.50737 0.0
H3537 H 0.30444 0.90425 0.49138 0.0
H3538 H 0.33164 0.8951 0.51348 0.0
H3539 H 0.32121 0.90324 0.52959 0.0
C3540 C 0.31285 0.95726 0.56196 0.0
C3541 C 0.32378 0.95463 0.56559 0.0
C3542 C 0.30665 0.9493 0.55603 0.0
C3543 C 0.31104 0.93842 0.5541 0.0
C3544 C 0.32204 0.93582 0.55758 0.0
C3545 C 0.32842 0.94393 0.56319 0.0
C3546 C 0.30376 0.92968 0.54914 0.0
C3547 C 0.30791 0.92292 0.53706 0.0
C3548 C 0.29092 0.92693 0.5555 0.0
C3549 C 0.28906 0.93334 0.56651 0.0
C3550 C 0.29522 0.93013 0.57612 0.0
C3551 C 0.29403 0.93606 0.5862 0.0
C3552 C 0.28693 0.9455 0.58675 0.0
C3553 C 0.28116 0.94914 0.57716 0.0
C3554 C 0.28232 0.94323 0.56707 0.0
C3555 C 0.27958 0.8824 0.51438 0.0
C3556 C 0.26794 0.88429 0.51261 0.0
C3557 C 0.28606 0.89008 0.52052 0.0
C3558 C 0.28111 0.9 0.52474 0.0
C3559 C 0.26952 0.90195 0.52274 0.0
C3560 C 0.263 0.89417 0.51686 0.0
C3561 C 0.28731 0.90784 0.53227 0.0
C3562 C 0.27994 0.91193 0.54386 0.0
C3563 C 0.30054 0.91309 0.5294 0.0
C3564 C 0.30676 0.90845 0.51966 0.0
C3565 C 0.30212 0.90873 0.50881 0.0
C3566 C 0.30808 0.90406 0.49972 0.0
C3567 C 0.3187 0.89914 0.50141 0.0
C3568 C 0.32341 0.89892 0.51217 0.0
C3569 C 0.31749 0.90359 0.52127 0.0
H3570 H 0.32329 0.8955 0.49437 0.0
H3571 H 0.28603 0.9501 0.59456 0.0
H3572 H 0.39647 0.09484 0.80295 0.0
H3573 H 0.41061 0.08244 0.79415 0.0
H3574 H 0.38955 0.05372 0.80194 0.0
H3575 H 0.3764 0.06587 0.81204 0.0
H3576 H 0.40684 0.04661 0.80805 0.0
H3577 H 0.39692 0.07113 0.77372 0.0
H3578 H 0.3941 0.08892 0.76327 0.0
H3579 H 0.42996 0.09389 0.76173 0.0
H3580 H 0.43301 0.07613 0.77228 0.0
H3581 H 0.44261 0.00726 0.7595 0.0
H3582 H 0.42839 0.01925 0.76878 0.0
H3583 H 0.45331 0.04502 0.77374 0.0
H3584 H 0.46754 0.03297 0.76442 0.0
H3585 H 0.43077 0.05558 0.766 0.0
H3586 H 0.44801 0.03126 0.79826 0.0
H3587 H 0.45843 0.01383 0.8029 0.0
H3588 H 0.42984 0.9941 0.79354 0.0
H3589 H 0.41934 0.01135 0.78858 0.0
C3590 C 0.395 0.08583 0.80286 0.0
C3591 C 0.38535 0.08127 0.80817 0.0
C3592 C 0.40297 0.07878 0.79761 0.0
C3593 C 0.40111 0.06712 0.79706 0.0
C3594 C 0.39135 0.06266 0.80226 0.0
C3595 C 0.38375 0.0696 0.80805 0.0
C3596 C 0.40965 0.0592 0.79234 0.0
C3597 C 0.41157 0.04721 0.80009 0.0
C3598 C 0.41715 0.06156 0.78003 0.0
C3599 C 0.4152 0.07226 0.77382 0.0
C3600 C 0.40423 0.07597 0.77118 0.0
C3601 C 0.40258 0.08609 0.76523 0.0
C3602 C 0.41184 0.09254 0.76183 0.0
C3603 C 0.42278 0.08888 0.76436 0.0
C3604 C 0.42447 0.07878 0.77031 0.0
C3605 C 0.44508 0.01538 0.76278 0.0
C3606 C 0.45617 0.01921 0.76141 0.0
C3607 C 0.43693 0.02231 0.76787 0.0
C3608 C 0.43978 0.03309 0.77178 0.0
C3609 C 0.45089 0.03686 0.77055 0.0
C3610 C 0.45901 0.02995 0.76539 0.0
C3611 C 0.43151 0.03967 0.77842 0.0
C3612 C 0.42702 0.05266 0.77384 0.0
C3613 C 0.42647 0.03376 0.79074 0.0
C3614 C 0.43254 0.02279 0.79386 0.0
C3615 C 0.44382 0.02324 0.79743 0.0
C3616 C 0.44981 0.01335 0.79998 0.0
C3617 C 0.44471 0.00286 0.79874 0.0
C3618 C 0.43369 0.00225 0.79471 0.0
C3619 C 0.42769 0.01212 0.79208 0.0
H3620 H 0.44934 0.99521 0.80075 0.0
H3621 H 0.41055 0.10037 0.75723 0.0
H3622 H 0.32486 0.20889 0.03462 0.0
H3623 H 0.31147 0.19736 0.04553 0.0
H3624 H 0.2895 0.19573 0.01683 0.0
H3625 H 0.30273 0.20719 0.00591 0.0
H3626 H 0.27522 0.19581 0.03954 0.0
H3627 H 0.30657 0.17465 0.01686 0.0
H3628 H 0.32563 0.17656 0.00873 0.0
H3629 H 0.33961 0.17769 0.04196 0.0
H3630 H 0.32068 0.17597 0.05027 0.0
H3631 H 0.24193 0.14081 0.0539 0.0
H3632 H 0.2528 0.15572 0.04446 0.0
H3633 H 0.27834 0.1526 0.07 0.0
H3634 H 0.2675 0.13778 0.07951 0.0
H3635 H 0.28823 0.14951 0.0499 0.0
H3636 H 0.25534 0.17342 0.06475 0.0
H3637 H 0.23492 0.17664 0.0648 0.0
H3638 H 0.23724 0.19301 0.03245 0.0
H3639 H 0.25758 0.18877 0.03157 0.0
C3640 C 0.31712 0.20622 0.03068 0.0
C3641 C 0.315 0.20892 0.01934 0.0
C3642 C 0.30932 0.1998 0.03699 0.0
C3643 C 0.29929 0.19584 0.03209 0.0
C3644 C 0.29697 0.1989 0.02093 0.0
C3645 C 0.30472 0.2053 0.01463 0.0
C3646 C 0.29297 0.18634 0.03742 0.0
C3647 C 0.279 0.18761 0.04115 0.0
C3648 C 0.30012 0.17375 0.03898 0.0
C3649 C 0.31213 0.1742 0.03421 0.0
C3650 C 0.31372 0.17494 0.02246 0.0
C3651 C 0.32452 0.17615 0.0178 0.0
C3652 C 0.33387 0.17696 0.02482 0.0
C3653 C 0.33239 0.17676 0.03652 0.0
C3654 C 0.32159 0.17558 0.04121 0.0
C3655 C 0.24979 0.14344 0.05764 0.0
C3656 C 0.25383 0.13806 0.06754 0.0
C3657 C 0.25594 0.15205 0.05223 0.0
C3658 C 0.26627 0.15557 0.05662 0.0
C3659 C 0.27024 0.15029 0.06656 0.0
C3660 C 0.26404 0.14178 0.07204 0.0
C3661 C 0.27376 0.16362 0.05041 0.0
C3662 C 0.28686 0.15844 0.04776 0.0
C3663 C 0.2702 0.17738 0.047 0.0
C3664 C 0.25814 0.18067 0.04806 0.0
C3665 C 0.25159 0.17756 0.05753 0.0
C3666 C 0.23994 0.1795 0.05768 0.0
C3667 C 0.23478 0.18515 0.04869 0.0
C3668 C 0.24125 0.18868 0.03944 0.0
C3669 C 0.25284 0.18637 0.03906 0.0
H3670 H 0.22578 0.18676 0.0489 0.0
H3671 H 0.34224 0.17792 0.02121 0.0
H3672 H 0.20493 0.06993 0.29101 0.0
H3673 H 0.18981 0.05981 0.30134 0.0
H3674 H 0.16611 0.07076 0.27607 0.0
H3675 H 0.1811 0.0799 0.26551 0.0
H3676 H 0.15741 0.0695 0.29806 0.0
H3677 H 0.17268 0.0371 0.25856 0.0
H3678 H 0.17906 0.02502 0.24541 0.0
H3679 H 0.18427 0.99892 0.26925 0.0
H3680 H 0.17825 0.00961 0.28365 0.0
H3681 H 0.12015 0.02509 0.31547 0.0
H3682 H 0.13204 0.03878 0.30576 0.0
H3683 H 0.16023 0.02858 0.32648 0.0
H3684 H 0.14823 0.01459 0.33595 0.0
H3685 H 0.16884 0.03278 0.30984 0.0
H3686 H 0.14301 0.05636 0.32696 0.0
H3687 H 0.12507 0.06535 0.33286 0.0
H3688 H 0.11726 0.07292 0.29832 0.0
H3689 H 0.13502 0.06391 0.29221 0.0
C3690 C 0.19648 0.06989 0.2876 0.0
C3691 C 0.19429 0.07498 0.27706 0.0
C3692 C 0.18784 0.06423 0.29356 0.0
C3693 C 0.17687 0.06377 0.2892 0.0
C3694 C 0.17447 0.07032 0.27948 0.0
C3695 C 0.18314 0.07547 0.27328 0.0
C3696 C 0.16833 0.05532 0.29375 0.0
C3697 C 0.15884 0.06048 0.29901 0.0
C3698 C 0.16935 0.04248 0.29336 0.0
C3699 C 0.17482 0.02701 0.27525 0.0
C3700 C 0.17515 0.02926 0.26265 0.0
C3701 C 0.17893 0.02209 0.25409 0.0
C3702 C 0.18245 0.01132 0.25645 0.0
C3703 C 0.18182 0.00756 0.26736 0.0
C3704 C 0.17809 0.01465 0.276 0.0
C3705 C 0.12899 0.02554 0.31768 0.0
C3706 C 0.13336 0.01843 0.32615 0.0
C3707 C 0.13581 0.03359 0.31226 0.0
C3708 C 0.14722 0.03498 0.31524 0.0
C3709 C 0.15158 0.02776 0.32374 0.0
C3710 C 0.14475 0.01962 0.32912 0.0
C3711 C 0.15467 0.04325 0.30886 0.0
C3712 C 0.16547 0.03983 0.30511 0.0
C3713 C 0.15114 0.05408 0.30536 0.0
C3714 C 0.1404 0.05943 0.30912 0.0
C3715 C 0.13745 0.05989 0.32062 0.0
C3716 C 0.1273 0.06501 0.324 0.0
C3717 C 0.12006 0.06975 0.31598 0.0
C3718 C 0.1229 0.0693 0.30454 0.0
C3719 C 0.13303 0.06421 0.30111 0.0
H3720 H 0.11226 0.07378 0.31861 0.0
H3721 H 0.18541 0.00581 0.2498 0.0
H3722 H 0.27094 0.96591 0.52568 0.0
H3723 H 0.28149 0.95268 0.53773 0.0
H3724 H 0.25347 0.92966 0.53763 0.0
H3725 H 0.24241 0.94348 0.52671 0.0
H3726 H 0.26255 0.92804 0.55912 0.0
H3727 H 0.27655 0.92555 0.51763 0.0
H3728 H 0.27838 0.93746 0.50052 0.0
H3729 H 0.30551 0.95549 0.51534 0.0
H3730 H 0.30325 0.94473 0.53275 0.0
H3731 H 0.29045 0.87417 0.58194 0.0
H3732 H 0.28057 0.88821 0.5702 0.0
H3733 H 0.31109 0.90785 0.56827 0.0
H3734 H 0.32065 0.89409 0.58042 0.0
H3735 H 0.30512 0.90604 0.54801 0.0
H3736 H 0.28389 0.91172 0.58563 0.0
H3737 H 0.27248 0.9052 0.60182 0.0
H3738 H 0.24368 0.90171 0.5804 0.0
H3739 H 0.25497 0.9081 0.56403 0.0
C3740 C 0.2671 0.95799 0.52819 0.0
C3741 C 0.25599 0.95557 0.52516 0.0
C3742 C 0.2731 0.95045 0.53506 0.0
C3743 C 0.26836 0.94006 0.5383 0.0
C3744 C 0.25726 0.93764 0.53526 0.0
C3745 C 0.25106 0.94542 0.52887 0.0
C3746 C 0.27535 0.93129 0.54381 0.0
C3747 C 0.27058 0.92495 0.55595 0.0
C3748 C 0.28787 0.92718 0.53746 0.0
C3749 C 0.2903 0.93348 0.52639 0.0
C3750 C 0.28316 0.93179 0.51715 0.0
C3751 C 0.28414 0.93849 0.50741 0.0
C3752 C 0.29236 0.94683 0.50665 0.0
C3753 C 0.29936 0.94878 0.51579 0.0
C3754 C 0.29818 0.94238 0.52566 0.0
C3755 C 0.29501 0.88154 0.57902 0.0
C3756 C 0.30649 0.88295 0.58177 0.0
C3757 C 0.2893 0.88961 0.57241 0.0
C3758 C 0.29496 0.89925 0.56853 0.0
C3759 C 0.30643 0.90056 0.57124 0.0
C3760 C 0.31206 0.89259 0.57792 0.0
C3761 C 0.28955 0.9076 0.56085 0.0
C3762 C 0.29731 0.91093 0.54924 0.0
C3763 C 0.27692 0.91427 0.5637 0.0
C3764 C 0.27031 0.91038 0.57358 0.0
C3765 C 0.27515 0.90954 0.58433 0.0
C3766 C 0.26869 0.90586 0.59356 0.0
C3767 C 0.25736 0.90304 0.59214 0.0
C3768 C 0.25246 0.90391 0.5815 0.0
C3769 C 0.25889 0.90758 0.57225 0.0
H3770 H 0.25238 0.90019 0.5993 0.0
H3771 H 0.2931 0.95196 0.49909 0.0
H3772 H 0.44402 0.06126 0.83953 0.0
H3773 H 0.42967 0.05102 0.82904 0.0
H3774 H 0.45099 0.05238 0.79933 0.0
H3775 H 0.46491 0.06331 0.80962 0.0
H3776 H 0.43326 0.05917 0.79197 0.0
H3777 H 0.44256 0.02764 0.82045 0.0
H3778 H 0.44543 0.01978 0.83949 0.0
H3779 H 0.40975 0.02162 0.84604 0.0
H3780 H 0.40666 0.02958 0.82704 0.0
H3781 H 0.39217 0.0127 0.75948 0.0
H3782 H 0.40789 0.01975 0.77047 0.0
H3783 H 0.38542 0.02642 0.79843 0.0
H3784 H 0.36979 0.01793 0.78789 0.0
H3785 H 0.4078 0.02024 0.80763 0.0
H3786 H 0.39057 0.04996 0.78084 0.0
H3787 H 0.37915 0.05281 0.76383 0.0
H3788 H 0.40647 0.04049 0.74328 0.0
H3789 H 0.41792 0.03725 0.76011 0.0
C3790 C 0.44559 0.05936 0.83073 0.0
C3791 C 0.45552 0.06317 0.82532 0.0
C3792 C 0.43746 0.05332 0.8248 0.0
C3793 C 0.43929 0.05061 0.81344 0.0
C3794 C 0.44931 0.0543 0.80811 0.0
C3795 C 0.45727 0.06063 0.81393 0.0
C3796 C 0.43036 0.04531 0.80654 0.0
C3797 C 0.42816 0.05168 0.79384 0.0
C3798 C 0.4224 0.03392 0.81089 0.0
C3799 C 0.42438 0.02921 0.82228 0.0
C3800 C 0.43531 0.02639 0.82591 0.0
C3801 C 0.43699 0.02192 0.83673 0.0
C3802 C 0.42778 0.02019 0.84397 0.0
C3803 C 0.41688 0.02293 0.84041 0.0
C3804 C 0.41517 0.0274 0.82961 0.0
C3805 C 0.39056 0.01565 0.76797 0.0
C3806 C 0.37971 0.01504 0.77273 0.0
C3807 C 0.39957 0.01959 0.77429 0.0
C3808 C 0.3978 0.02386 0.78517 0.0
C3809 C 0.38701 0.02312 0.79007 0.0
C3810 C 0.37806 0.01853 0.78396 0.0
C3811 C 0.40675 0.03066 0.79038 0.0
C3812 C 0.41177 0.02738 0.8035 0.0
C3813 C 0.41206 0.04184 0.78266 0.0
C3814 C 0.40549 0.04417 0.77184 0.0
C3815 C 0.39428 0.04813 0.77269 0.0
C3816 C 0.38772 0.04969 0.76305 0.0
C3817 C 0.39218 0.04711 0.75245 0.0
C3818 C 0.40312 0.04276 0.75148 0.0
C3819 C 0.40969 0.04112 0.7611 0.0
H3820 H 0.38708 0.04832 0.74499 0.0
H3821 H 0.4291 0.01674 0.85235 0.0
H3822 H 0.26426 0.18671 0.08278 0.0
H3823 H 0.27477 0.17229 0.07227 0.0
H3824 H 0.29499 0.19822 0.0567 0.0
H3825 H 0.28473 0.21255 0.06745 0.0
H3826 H 0.27625 0.17238 0.02824 0.0
H3827 H 0.30914 0.186 0.06846 0.0
H3828 H 0.31642 0.18697 0.08787 0.0
H3829 H 0.3112 0.15135 0.09222 0.0
H3830 H 0.30365 0.15026 0.07294 0.0
H3831 H 0.32091 0.13963 0.00376 0.0
H3832 H 0.3109 0.15433 0.01397 0.0
H3833 H 0.3098 0.13314 0.04378 0.0
H3834 H 0.32026 0.11852 0.03353 0.0
H3835 H 0.31404 0.15265 0.05239 0.0
H3836 H 0.28779 0.13727 0.02251 0.0
H3837 H 0.28252 0.13022 0.00377 0.0
H3838 H 0.28209 0.16413 0.99066 0.0
H3839 H 0.2875 0.17135 0.00926 0.0
C3840 C 0.27079 0.18931 0.07689 0.0
C3841 C 0.2731 0.20083 0.07527 0.0
C3842 C 0.27691 0.18102 0.07092 0.0
C3843 C 0.2851 0.18405 0.06277 0.0
C3844 C 0.28825 0.19552 0.06223 0.0
C3845 C 0.28228 0.20379 0.06832 0.0
C3846 C 0.28947 0.17542 0.05392 0.0
C3847 C 0.2832 0.16953 0.03366 0.0
C3848 C 0.30112 0.16733 0.0579 0.0
C3849 C 0.30565 0.16811 0.06937 0.0
C3850 C 0.30934 0.17844 0.07364 0.0
C3851 C 0.31358 0.17899 0.08459 0.0
C3852 C 0.31422 0.16924 0.0913 0.0
C3853 C 0.31068 0.15891 0.08704 0.0
C3854 C 0.30644 0.15832 0.0761 0.0
C3855 C 0.31844 0.13807 0.01245 0.0
C3856 C 0.32127 0.12787 0.0178 0.0
C3857 C 0.31279 0.14656 0.01841 0.0
C3858 C 0.30949 0.14494 0.02976 0.0
C3859 C 0.3123 0.13471 0.0351 0.0
C3860 C 0.31817 0.12629 0.02919 0.0
C3861 C 0.30258 0.1536 0.03574 0.0
C3862 C 0.30684 0.15726 0.04912 0.0
C3863 C 0.29153 0.15919 0.02833 0.0
C3864 C 0.28829 0.15481 0.01721 0.0
C3865 C 0.2867 0.1432 0.0156 0.0
C3866 C 0.28366 0.13918 0.005 0.0
C3867 C 0.28204 0.14671 0.99601 0.0
C3868 C 0.28339 0.15829 0.99761 0.0
C3869 C 0.28645 0.16235 0.00818 0.0
H3870 H 0.27969 0.14359 0.98782 0.0
H3871 H 0.31751 0.16969 0.09977 0.0
H3872 H 0.7444 0.45099 0.03286 0.0
H3873 H 0.75429 0.43767 0.04484 0.0
H3874 H 0.78587 0.44742 0.02916 0.0
H3875 H 0.77573 0.46036 0.01662 0.0
H3876 H 0.78886 0.42858 0.02774 0.0
H3877 H 0.77448 0.44971 0.06029 0.0
H3878 H 0.76159 0.46139 0.07179 0.0
H3879 H 0.74292 0.43187 0.08147 0.0
H3880 H 0.75565 0.42001 0.06991 0.0
H3881 H 0.82337 0.39481 0.07947 0.0
H3882 H 0.81321 0.40858 0.06765 0.0
H3883 H 0.78218 0.39064 0.07367 0.0
H3884 H 0.79239 0.37681 0.0852 0.0
H3885 H 0.77716 0.41501 0.07352 0.0
H3886 H 0.79251 0.38718 0.04561 0.0
H3887 H 0.80506 0.37104 0.04198 0.0
H3888 H 0.8337 0.39292 0.04216 0.0
H3889 H 0.8213 0.40906 0.04692 0.0
C3890 C 0.75348 0.45025 0.0319 0.0
C3891 C 0.75924 0.45658 0.02354 0.0
C3892 C 0.7592 0.44259 0.03889 0.0
C3893 C 0.77092 0.44106 0.03785 0.0
C3894 C 0.77677 0.44791 0.02993 0.0
C3895 C 0.771 0.45541 0.02273 0.0
C3896 C 0.777 0.43162 0.04387 0.0
C3897 C 0.78774 0.42561 0.03644 0.0
C3898 C 0.7737 0.42702 0.05734 0.0
C3899 C 0.76582 0.43402 0.064 0.0
C3900 C 0.7675 0.44573 0.06471 0.0
C3901 C 0.76026 0.45238 0.07129 0.0
C3902 C 0.75138 0.44739 0.07729 0.0
C3903 C 0.74976 0.43573 0.07676 0.0
C3904 C 0.75698 0.42904 0.07019 0.0
C3905 C 0.81451 0.39364 0.07793 0.0
C3906 C 0.80888 0.38444 0.0828 0.0
C3907 C 0.80862 0.40157 0.07133 0.0
C3908 C 0.79697 0.40041 0.06938 0.0
C3909 C 0.79119 0.3916 0.07475 0.0
C3910 C 0.79708 0.38366 0.08132 0.0
C3911 C 0.79131 0.4079 0.06098 0.0
C3912 C 0.78013 0.41623 0.06494 0.0
C3913 C 0.79764 0.40938 0.0479 0.0
C3914 C 0.8058 0.39965 0.04547 0.0
C3915 C 0.80146 0.38864 0.04475 0.0
C3916 C 0.80857 0.37941 0.04273 0.0
C3917 C 0.82017 0.38099 0.04161 0.0
C3918 C 0.82467 0.39175 0.04288 0.0
C3919 C 0.81757 0.40097 0.04524 0.0
H3920 H 0.82569 0.37386 0.03992 0.0
H3921 H 0.7458 0.45255 0.08241 0.0
H3922 H 0.89309 0.49919 0.27933 0.0
H3923 H 0.90606 0.51071 0.28997 0.0
H3924 H 0.88981 0.54085 0.27707 0.0
H3925 H 0.87712 0.52922 0.26582 0.0
H3926 H 0.91062 0.54067 0.27522 0.0
H3927 H 0.88839 0.53193 0.30671 0.0
H3928 H 0.87857 0.51848 0.31933 0.0
H3929 H 0.90992 0.50126 0.32581 0.0
H3930 H 0.9199 0.51452 0.31314 0.0
H3931 H 0.93767 0.56666 0.33022 0.0
H3932 H 0.9233 0.55721 0.31917 0.0
H3933 H 0.94918 0.54387 0.2972 0.0
H3934 H 0.96371 0.55332 0.30854 0.0
H3935 H 0.92295 0.53574 0.3135 0.0
H3936 H 0.94528 0.57066 0.26976 0.0
H3937 H 0.94835 0.58693 0.26033 0.0
H3938 H 0.91435 0.59739 0.26366 0.0
H3939 H 0.90952 0.58169 0.27333 0.0
C3940 C 0.89224 0.50829 0.27876 0.0
C3941 C 0.88414 0.51329 0.2716 0.0
C3942 C 0.89957 0.51489 0.28505 0.0
C3943 C 0.8989 0.52672 0.28456 0.0
C3944 C 0.89059 0.53174 0.2776 0.0
C3945 C 0.88339 0.52511 0.27108 0.0
C3946 C 0.90768 0.53388 0.29019 0.0
C3947 C 0.91346 0.54193 0.28368 0.0
C3948 C 0.91083 0.53222 0.30126 0.0
C3949 C 0.90488 0.52421 0.30894 0.0
C3950 C 0.89317 0.52524 0.31079 0.0
C3951 C 0.88758 0.51765 0.31796 0.0
C3952 C 0.89362 0.50902 0.32336 0.0
C3953 C 0.90526 0.50796 0.32163 0.0
C3954 C 0.91089 0.51553 0.31447 0.0
C3955 C 0.94028 0.56177 0.323 0.0
C3956 C 0.95167 0.56129 0.31983 0.0
C3957 C 0.93208 0.55645 0.31661 0.0
C3958 C 0.93499 0.55099 0.30649 0.0
C3959 C 0.94659 0.54902 0.30428 0.0
C3960 C 0.95487 0.55446 0.31069 0.0
C3961 C 0.92556 0.54681 0.29888 0.0
C3962 C 0.9201 0.53802 0.30507 0.0
C3963 C 0.92138 0.55126 0.28724 0.0
C3964 C 0.92638 0.57183 0.27456 0.0
C3965 C 0.93751 0.57546 0.26946 0.0
C3966 C 0.93988 0.58539 0.26349 0.0
C3967 C 0.93164 0.59328 0.26145 0.0
C3968 C 0.92095 0.59121 0.26533 0.0
C3969 C 0.91844 0.58132 0.27132 0.0
H3970 H 0.93352 0.60095 0.25679 0.0
H3971 H 0.88927 0.50315 0.32891 0.0
H3972 H 0.81725 0.62733 0.53043 0.0
H3973 H 0.80507 0.63973 0.54162 0.0
H3974 H 0.81401 0.66796 0.52041 0.0
H3975 H 0.82666 0.65552 0.50938 0.0
H3976 H 0.80949 0.65801 0.55122 0.0
H3977 H 0.77953 0.64537 0.50594 0.0
H3978 H 0.76657 0.64072 0.49317 0.0
H3979 H 0.74578 0.66854 0.50145 0.0
H3980 H 0.75757 0.67441 0.51487 0.0
H3981 H 0.78718 0.7096 0.574 0.0
H3982 H 0.79758 0.69584 0.56267 0.0
H3983 H 0.76667 0.67802 0.55656 0.0
H3984 H 0.75611 0.69191 0.56772 0.0
H3985 H 0.78178 0.68476 0.53845 0.0
H3986 H 0.79025 0.65857 0.57457 0.0
H3987 H 0.79901 0.65903 0.59346 0.0
H3988 H 0.82325 0.68314 0.5814 0.0
H3989 H 0.81485 0.68254 0.56243 0.0
C3990 C 0.8163 0.63611 0.52792 0.0
C3991 C 0.82191 0.64029 0.51837 0.0
C3992 C 0.80925 0.64317 0.53423 0.0
C3993 C 0.80724 0.65442 0.5308 0.0
C3994 C 0.81442 0.65904 0.52243 0.0
C3995 C 0.8215 0.65194 0.51605 0.0
C3996 C 0.79846 0.66155 0.53689 0.0
C3997 C 0.80216 0.66269 0.5482 0.0
C3998 C 0.7876 0.66727 0.53237 0.0
C3999 C 0.77201 0.6611 0.51448 0.0
C4000 C 0.77271 0.65132 0.50643 0.0
C4001 C 0.76494 0.64811 0.49827 0.0
C4002 C 0.75527 0.6542 0.49651 0.0
C4003 C 0.75339 0.6636 0.50286 0.0
C4004 C 0.76106 0.66685 0.5111 0.0
C4005 C 0.78258 0.70271 0.5703 0.0
C4006 C 0.77078 0.70186 0.57179 0.0
C4007 C 0.7886 0.69474 0.56395 0.0
C4008 C 0.78301 0.68562 0.55912 0.0
C4009 C 0.77121 0.68486 0.56042 0.0
C4010 C 0.76515 0.69288 0.56669 0.0
C4011 C 0.78911 0.6774 0.55173 0.0
C4012 C 0.78642 0.67715 0.54029 0.0
C4013 C 0.79715 0.66996 0.55576 0.0
C4014 C 0.80178 0.67072 0.56724 0.0
C4015 C 0.79738 0.66404 0.57602 0.0
C4016 C 0.80232 0.66427 0.5867 0.0
C4017 C 0.81158 0.67121 0.58866 0.0
C4018 C 0.81602 0.67784 0.57991 0.0
C4019 C 0.81121 0.67752 0.5692 0.0
H4020 H 0.81536 0.67139 0.59693 0.0
H4021 H 0.74929 0.65169 0.49016 0.0
H4022 H 0.94243 0.51956 0.25534 0.0
H4023 H 0.92967 0.53274 0.26508 0.0
H4024 H 0.95739 0.55551 0.27016 0.0
H4025 H 0.97003 0.54251 0.2601 0.0
H4026 H 0.93367 0.56551 0.29069 0.0
H4027 H 0.93424 0.5554 0.24904 0.0
H4028 H 0.92957 0.55005 0.22971 0.0
H4029 H 0.89548 0.54305 0.23999 0.0
H4030 H 0.90002 0.54787 0.2595 0.0
H4031 H 0.89578 0.60081 0.30318 0.0
H4032 H 0.90976 0.59129 0.29134 0.0
H4033 H 0.89649 0.55897 0.30167 0.0
H4034 H 0.88249 0.5686 0.31389 0.0
H4035 H 0.90099 0.56252 0.27285 0.0
H4036 H 0.91534 0.57528 0.3138 0.0
H4037 H 0.92027 0.5894 0.32777 0.0
H4038 H 0.9513 0.596 0.31007 0.0
H4039 H 0.94619 0.58228 0.2955 0.0
C4040 C 0.94577 0.52734 0.25864 0.0
C4041 C 0.95716 0.53008 0.25695 0.0
C4042 C 0.93846 0.53496 0.26406 0.0
C4043 C 0.9424 0.54542 0.26789 0.0
C4044 C 0.95398 0.54775 0.26694 0.0
C4045 C 0.96124 0.54025 0.26129 0.0
C4046 C 0.93438 0.55372 0.27293 0.0
C4047 C 0.9383 0.56079 0.28566 0.0
C4048 C 0.92037 0.55502 0.26763 0.0
C4049 C 0.91764 0.5516 0.25597 0.0
C4050 C 0.92584 0.55236 0.24734 0.0
C4051 C 0.92318 0.5495 0.23627 0.0
C4052 C 0.91226 0.54611 0.23363 0.0
C4053 C 0.90397 0.54561 0.24205 0.0
C4054 C 0.90662 0.54836 0.25316 0.0
C4055 C 0.89588 0.59166 0.30299 0.0
C4056 C 0.88821 0.58542 0.3096 0.0
C4057 C 0.90373 0.58624 0.29603 0.0
C4058 C 0.90399 0.57444 0.29542 0.0
C4059 C 0.8963 0.56811 0.30194 0.0
C4060 C 0.88849 0.57357 0.30908 0.0
C4061 C 0.91304 0.56875 0.28894 0.0
C4062 C 0.90956 0.56197 0.27591 0.0
C4063 C 0.9274 0.569 0.29375 0.0
C4064 C 0.93009 0.57804 0.30313 0.0
C4065 C 0.92289 0.58012 0.31242 0.0
C4066 C 0.92582 0.58797 0.32062 0.0
C4067 C 0.93603 0.59372 0.31975 0.0
C4068 C 0.94333 0.59162 0.31069 0.0
C4069 C 0.9404 0.58382 0.30244 0.0
H4070 H 0.93834 0.5997 0.32616 0.0
H4071 H 0.91021 0.54395 0.22504 0.0
H4072 H 0.71488 0.52132 0.80791 0.0
H4073 H 0.70102 0.53226 0.79698 0.0
H4074 H 0.68164 0.50216 0.79182 0.0
H4075 H 0.69583 0.49114 0.80187 0.0
H4076 H 0.67695 0.51299 0.77436 0.0
H4077 H 0.67409 0.52467 0.81634 0.0
H4078 H 0.685 0.52647 0.83371 0.0
H4079 H 0.70281 0.55461 0.81937 0.0
H4080 H 0.69196 0.55308 0.80207 0.0
H4081 H 0.62059 0.5585 0.77225 0.0
H4082 H 0.63421 0.5468 0.78267 0.0
H4083 H 0.65382 0.54221 0.75219 0.0
H4084 H 0.63968 0.55298 0.74164 0.0
H4085 H 0.65252 0.55325 0.78832 0.0
H4086 H 0.67636 0.51885 0.75496 0.0
H4087 H 0.67179 0.50897 0.73749 0.0
H4088 H 0.63644 0.51159 0.74529 0.0
H4089 H 0.64066 0.52136 0.76278 0.0
C4090 C 0.70751 0.51713 0.80465 0.0
C4091 C 0.70617 0.50546 0.80617 0.0
C4092 C 0.69949 0.52341 0.79853 0.0
C4093 C 0.68963 0.5183 0.79447 0.0
C4094 C 0.68876 0.50652 0.79535 0.0
C4095 C 0.6969 0.50019 0.80114 0.0
C4096 C 0.68 0.52514 0.78991 0.0
C4097 C 0.6734 0.52056 0.77805 0.0
C4098 C 0.67533 0.5371 0.79692 0.0
C4099 C 0.68159 0.53911 0.80793 0.0
C4100 C 0.68005 0.53147 0.81696 0.0
C4101 C 0.68635 0.53238 0.82682 0.0
C4102 C 0.69448 0.54077 0.82773 0.0
C4103 C 0.69638 0.5482 0.81875 0.0
C4104 C 0.69006 0.54735 0.80889 0.0
C4105 C 0.62773 0.55486 0.76779 0.0
C4106 C 0.62911 0.55673 0.75618 0.0
C4107 C 0.63551 0.54811 0.7737 0.0
C4108 C 0.64504 0.54338 0.76823 0.0
C4109 C 0.64639 0.54527 0.7566 0.0
C4110 C 0.63837 0.55164 0.75061 0.0
C4111 C 0.65427 0.53821 0.77508 0.0
C4112 C 0.65777 0.5458 0.78657 0.0
C4113 C 0.66187 0.5264 0.77124 0.0
C4114 C 0.65892 0.52072 0.76052 0.0
C4115 C 0.66759 0.51719 0.75311 0.0
C4116 C 0.66505 0.51164 0.7431 0.0
C4117 C 0.65383 0.50958 0.74031 0.0
C4118 C 0.64514 0.51312 0.7475 0.0
C4119 C 0.64763 0.51867 0.75752 0.0
H4120 H 0.65188 0.50528 0.73256 0.0
H4121 H 0.6994 0.54142 0.83534 0.0
H4122 H 0.83992 0.44202 0.05744 0.0
H4123 H 0.82862 0.42821 0.04715 0.0
H4124 H 0.79876 0.44831 0.05386 0.0
H4125 H 0.8097 0.461 0.06536 0.0
H4126 H 0.79314 0.43109 0.06152 0.0
H4127 H 0.80579 0.43953 0.02073 0.0
H4128 H 0.82011 0.44716 0.00759 0.0
H4129 H 0.84241 0.41953 0.01562 0.0
H4130 H 0.82809 0.41151 0.02835 0.0
H4131 H 0.75219 0.39243 0.01696 0.0
H4132 H 0.76338 0.4076 0.02505 0.0
H4133 H 0.79309 0.38651 0.02377 0.0
H4134 H 0.78218 0.37159 0.01514 0.0
H4135 H 0.80077 0.40748 0.01946 0.0
H4136 H 0.77614 0.39085 0.05495 0.0
H4137 H 0.75824 0.38202 0.06054 0.0
H4138 H 0.73993 0.41048 0.04722 0.0
H4139 H 0.75775 0.41927 0.04141 0.0
C4140 C 0.83088 0.44333 0.05681 0.0
C4141 C 0.82562 0.45245 0.06244 0.0
C4142 C 0.82447 0.43555 0.0507 0.0
C4143 C 0.81275 0.43703 0.04973 0.0
C4144 C 0.80772 0.44663 0.05472 0.0
C4145 C 0.81396 0.45393 0.06138 0.0
C4146 C 0.80521 0.42792 0.04567 0.0
C4147 C 0.79351 0.42624 0.05369 0.0
C4148 C 0.8071 0.42063 0.03338 0.0
C4149 C 0.81589 0.42502 0.02568 0.0
C4150 C 0.81376 0.43509 0.0197 0.0
C4151 C 0.82185 0.43945 0.01225 0.0
C4152 C 0.83219 0.43387 0.01081 0.0
C4153 C 0.83439 0.42385 0.01673 0.0
C4154 C 0.82622 0.41934 0.02403 0.0
C4155 C 0.76102 0.39089 0.0188 0.0
C4156 C 0.76616 0.38059 0.01591 0.0
C4157 C 0.7674 0.39954 0.02355 0.0
C4158 C 0.77889 0.39788 0.02605 0.0
C4159 C 0.78414 0.38784 0.02259 0.0
C4160 C 0.77785 0.37927 0.01766 0.0
C4161 C 0.78529 0.40636 0.03258 0.0
C4162 C 0.79816 0.41085 0.02753 0.0
C4163 C 0.77965 0.41162 0.04508 0.0
C4164 C 0.76846 0.40623 0.04857 0.0
C4165 C 0.76837 0.3954 0.05349 0.0
C4166 C 0.75818 0.39029 0.05659 0.0
C4167 C 0.74794 0.3958 0.0545 0.0
C4168 C 0.74787 0.40632 0.04913 0.0
C4169 C 0.75804 0.41144 0.04606 0.0
H4170 H 0.74006 0.39183 0.05687 0.0
H4171 H 0.83849 0.43729 0.00509 0.0
H4172 H 0.74793 0.62596 0.53885 0.0
H4173 H 0.75829 0.6392 0.52683 0.0
H4174 H 0.76921 0.65716 0.55619 0.0
H4175 H 0.759 0.64366 0.56844 0.0
H4176 H 0.76115 0.67411 0.53556 0.0
H4177 H 0.78178 0.63717 0.54556 0.0
H4178 H 0.78589 0.61722 0.54859 0.0
H4179 H 0.79724 0.61428 0.51433 0.0
H4180 H 0.79295 0.63418 0.51091 0.0
H4181 H 0.81141 0.70348 0.51412 0.0
H4182 H 0.7985 0.69002 0.52305 0.0
H4183 H 0.79671 0.67132 0.49209 0.0
H4184 H 0.80935 0.68512 0.48295 0.0
H4185 H 0.79758 0.65407 0.51039 0.0
H4186 H 0.77795 0.69002 0.50061 0.0
H4187 H 0.772 0.7094 0.49621 0.0
H4188 H 0.75911 0.71325 0.52989 0.0
H4189 H 0.76524 0.69399 0.53467 0.0
C4190 C 0.75249 0.63275 0.54278 0.0
C4191 C 0.75281 0.6337 0.55459 0.0
C4192 C 0.7583 0.64036 0.53588 0.0
C4193 C 0.76435 0.64917 0.54066 0.0
C4194 C 0.76438 0.65048 0.55241 0.0
C4195 C 0.75875 0.64268 0.55937 0.0
C4196 C 0.77172 0.65601 0.53339 0.0
C4197 C 0.76832 0.67044 0.53117 0.0
C4198 C 0.78313 0.64953 0.52581 0.0
C4199 C 0.7858 0.63726 0.52763 0.0
C4200 C 0.78429 0.63224 0.53836 0.0
C4201 C 0.78703 0.6209 0.54027 0.0
C4202 C 0.79158 0.61441 0.53159 0.0
C4203 C 0.79346 0.61927 0.52099 0.0
C4204 C 0.79076 0.63064 0.51905 0.0
C4205 C 0.80845 0.69638 0.50929 0.0
C4206 C 0.81137 0.69533 0.49788 0.0
C4207 C 0.80096 0.68876 0.51434 0.0
C4208 C 0.79645 0.67982 0.50814 0.0
C4209 C 0.79998 0.67825 0.49696 0.0
C4210 C 0.80723 0.68609 0.49179 0.0
C4211 C 0.78791 0.67248 0.51352 0.0
C4212 C 0.79118 0.65799 0.51563 0.0
C4213 C 0.77642 0.67884 0.52095 0.0
C4214 C 0.77276 0.69062 0.51823 0.0
C4215 C 0.7743 0.69507 0.50728 0.0
C4216 C 0.77072 0.70605 0.50464 0.0
C4217 C 0.76536 0.71264 0.51282 0.0
C4218 C 0.76342 0.70819 0.5236 0.0
C4219 C 0.76699 0.69721 0.52628 0.0
H4220 H 0.76258 0.72113 0.51076 0.0
H4221 H 0.79386 0.60568 0.53314 0.0
H4222 H 0.62381 0.51574 0.81229 0.0
H4223 H 0.63562 0.52705 0.79954 0.0
H4224 H 0.6585 0.53372 0.82668 0.0
H4225 H 0.64613 0.52324 0.83971 0.0
H4226 H 0.65819 0.55298 0.81364 0.0
H4227 H 0.66751 0.51079 0.80492 0.0
H4228 H 0.66064 0.49131 0.80587 0.0
H4229 H 0.63504 0.49953 0.78171 0.0
H4230 H 0.64161 0.51918 0.78109 0.0
H4231 H 0.71239 0.56296 0.77359 0.0
H4232 H 0.69897 0.5516 0.78453 0.0
H4233 H 0.67131 0.56988 0.76945 0.0
H4234 H 0.68479 0.58126 0.75834 0.0
H4235 H 0.67805 0.53899 0.77103 0.0
H4236 H 0.66469 0.57636 0.78628 0.0
H4237 H 0.66763 0.5959 0.79235 0.0
H4238 H 0.68005 0.58382 0.82418 0.0
H4239 H 0.67736 0.56421 0.81816 0.0
C4240 C 0.6315 0.51941 0.81546 0.0
C4241 C 0.63434 0.51824 0.82685 0.0
C4242 C 0.6383 0.52578 0.80815 0.0
C4243 C 0.64843 0.53051 0.81191 0.0
C4244 C 0.65101 0.52977 0.82342 0.0
C4245 C 0.64399 0.52372 0.83085 0.0
C4246 C 0.65645 0.53569 0.80369 0.0
C4247 C 0.66129 0.549 0.80604 0.0
C4248 C 0.66023 0.52835 0.79167 0.0
C4249 C 0.65598 0.51621 0.79184 0.0
C4250 C 0.66073 0.50837 0.79945 0.0
C4251 C 0.65675 0.49731 0.80013 0.0
C4252 C 0.64768 0.49403 0.79351 0.0
C4253 C 0.64237 0.50193 0.78648 0.0
C4254 C 0.64635 0.513 0.78584 0.0
C4255 C 0.70342 0.56464 0.77276 0.0
C4256 C 0.69959 0.57303 0.76529 0.0
C4257 C 0.69576 0.55835 0.77921 0.0
C4258 C 0.68413 0.56063 0.77865 0.0
C4259 C 0.68025 0.56858 0.77067 0.0
C4260 C 0.68793 0.57486 0.76413 0.0
C4261 C 0.67614 0.55333 0.78494 0.0
C4262 C 0.67366 0.54063 0.77903 0.0
C4263 C 0.67009 0.55704 0.7976 0.0
C4264 C 0.67164 0.56876 0.80139 0.0
C4265 C 0.66854 0.57784 0.79434 0.0
C4266 C 0.66997 0.58896 0.79786 0.0
C4267 C 0.67427 0.59111 0.80856 0.0
C4268 C 0.67693 0.58214 0.81581 0.0
C4269 C 0.67549 0.57101 0.81232 0.0
H4270 H 0.67536 0.59973 0.81128 0.0
H4271 H 0.64458 0.48548 0.79405 0.0
H4272 H 0.01528 0.37787 0.23818 0.0
H4273 H 0.01411 0.39824 0.24182 0.0
H4274 H 0.9823 0.39987 0.22431 0.0
H4275 H 0.98385 0.37989 0.22009 0.0
H4276 H 0.9926 0.41664 0.21817 0.0
H4277 H 0.98608 0.40119 0.25519 0.0
H4278 H 0.98966 0.3904 0.2727 0.0
H4279 H 0.01999 0.4092 0.27801 0.0
H4280 H 0.01663 0.42003 0.26046 0.0
H4281 H 0.96807 0.46605 0.24183 0.0
H4282 H 0.97323 0.44643 0.23829 0.0
H4283 H 0.00822 0.45406 0.244 0.0
H4284 H 0.00315 0.47397 0.24729 0.0
H4285 H 0.99875 0.4336 0.25566 0.0
H4286 H 0.00218 0.45048 0.21836 0.0
H4287 H 0.99571 0.46149 0.20184 0.0
H4288 H 0.96724 0.43959 0.19849 0.0
H4289 H 0.9735 0.42849 0.21502 0.0
C4290 C 0.00809 0.38264 0.23508 0.0
C4291 C 0.99973 0.3773 0.22875 0.0
C4292 C 0.00735 0.39428 0.23725 0.0
C4293 C 0.99805 0.40072 0.23344 0.0
C4294 C 0.98964 0.39525 0.22727 0.0
C4295 C 0.99053 0.38376 0.22486 0.0
C4296 C 0.99705 0.41317 0.23548 0.0
C4297 C 0.99385 0.42025 0.22644 0.0
C4298 C 0.9989 0.41813 0.24616 0.0
C4299 C 1.0012 0.41129 0.25642 0.0
C4300 C 0.99359 0.40291 0.26001 0.0
C4301 C 0.99556 0.39682 0.26996 0.0
C4302 C 0.00508 0.39907 0.27643 0.0
C4303 C 0.01264 0.40743 0.27297 0.0
C4304 C 0.01072 0.41354 0.26302 0.0
C4305 C 0.97687 0.46358 0.24251 0.0
C4306 C 0.98519 0.47159 0.245 0.0
C4307 C 0.9798 0.45235 0.24036 0.0
C4308 C 0.99111 0.4488 0.24079 0.0
C4309 C 0.99945 0.45665 0.24359 0.0
C4310 C 0.99653 0.468 0.24553 0.0
C4311 C 0.99405 0.4368 0.23847 0.0
C4312 C 0.99763 0.42989 0.24742 0.0
C4313 C 0.99215 0.43191 0.22782 0.0
C4314 C 0.98826 0.43872 0.218 0.0
C4315 C 0.99448 0.44808 0.21417 0.0
C4316 C 0.99087 0.45432 0.20478 0.0
C4317 C 0.98105 0.45126 0.19914 0.0
C4318 C 0.97483 0.44195 0.20287 0.0
C4319 C 0.97843 0.43568 0.21224 0.0
H4320 H 0.97828 0.45609 0.19186 0.0
H4321 H 0.00656 0.39438 0.28416 0.0
H4322 H 0.96323 0.73318 0.49073 0.0
H4323 H 0.94279 0.73004 0.49228 0.0
H4324 H 0.93649 0.76213 0.47606 0.0
H4325 H 0.95699 0.76502 0.47392 0.0
H4326 H 0.92359 0.75475 0.49931 0.0
H4327 H 0.93082 0.74655 0.4604 0.0
H4328 H 0.93949 0.7377 0.44375 0.0
H4329 H 0.93051 0.7049 0.45643 0.0
H4330 H 0.92175 0.71358 0.47323 0.0
H4331 H 0.86377 0.74729 0.49245 0.0
H4332 H 0.88362 0.75263 0.49031 0.0
H4333 H 0.89331 0.71744 0.49013 0.0
H4334 H 0.87351 0.7121 0.49195 0.0
H4335 H 0.90439 0.72777 0.47428 0.0
H4336 H 0.89724 0.73612 0.51349 0.0
H4337 H 0.88707 0.74531 0.5292 0.0
H4338 H 0.89528 0.77793 0.51548 0.0
H4339 H 0.90536 0.76893 0.49958 0.0
C4340 C 0.95749 0.73967 0.48768 0.0
C4341 C 0.96175 0.74947 0.48242 0.0
C4342 C 0.9458 0.7378 0.48846 0.0
C4343 C 0.93807 0.74582 0.48426 0.0
C4344 C 0.94228 0.7558 0.47933 0.0
C4345 C 0.95399 0.75749 0.47819 0.0
C4346 C 0.92563 0.74372 0.48512 0.0
C4347 C 0.91936 0.74895 0.49376 0.0
C4348 C 0.92009 0.73603 0.478 0.0
C4349 C 0.92591 0.73072 0.46825 0.0
C4350 C 0.93094 0.73744 0.4598 0.0
C4351 C 0.93583 0.73245 0.45029 0.0
C4352 C 0.93575 0.72073 0.44911 0.0
C4353 C 0.93068 0.71397 0.45741 0.0
C4354 C 0.92574 0.71893 0.46693 0.0
C4355 C 0.87014 0.74069 0.49217 0.0
C4356 C 0.86699 0.72925 0.49256 0.0
C4357 C 0.88154 0.74376 0.49093 0.0
C4358 C 0.89012 0.73547 0.4902 0.0
C4359 C 0.88696 0.72405 0.4907 0.0
C4360 C 0.87558 0.72099 0.49185 0.0
C4361 C 0.90234 0.73858 0.48866 0.0
C4362 C 0.90859 0.73354 0.47989 0.0
C4363 C 0.90785 0.74644 0.49566 0.0
C4364 C 0.90197 0.75185 0.50531 0.0
C4365 C 0.89683 0.74525 0.51379 0.0
C4366 C 0.89108 0.75043 0.52273 0.0
C4367 C 0.89051 0.76219 0.52332 0.0
C4368 C 0.89572 0.76881 0.515 0.0
C4369 C 0.90145 0.76368 0.50603 0.0
H4370 H 0.88605 0.76618 0.53025 0.0
H4371 H 0.93951 0.71689 0.44171 0.0
H4372 H 0.58235 0.61358 0.74064 0.0
H4373 H 0.57834 0.63375 0.73769 0.0
H4374 H 0.61304 0.64144 0.74504 0.0
H4375 H 0.61696 0.62147 0.74834 0.0
H4376 H 0.60091 0.65639 0.75441 0.0
H4377 H 0.60138 0.64121 0.71716 0.0
H4378 H 0.59591 0.62897 0.70144 0.0
H4379 H 0.56184 0.64147 0.70363 0.0
H4380 H 0.56707 0.65368 0.71947 0.0
H4381 H 0.60052 0.71332 0.73455 0.0
H4382 H 0.60406 0.69329 0.73806 0.0
H4383 H 0.57013 0.68577 0.72755 0.0
H4384 H 0.5671 0.70579 0.72289 0.0
H4385 H 0.58189 0.67054 0.71996 0.0
H4386 H 0.58252 0.68595 0.75819 0.0
H4387 H 0.58951 0.69847 0.7731 0.0
H4388 H 0.62317 0.68561 0.76811 0.0
H4389 H 0.6164 0.67311 0.75313 0.0
C4390 C 0.58908 0.61959 0.7418 0.0
C4391 C 0.59996 0.61584 0.74484 0.0
C4392 C 0.58682 0.63115 0.73996 0.0
C4393 C 0.59541 0.63924 0.74095 0.0
C4394 C 0.60621 0.63548 0.74421 0.0
C4395 C 0.60844 0.62399 0.74614 0.0
C4396 C 0.59324 0.65162 0.73879 0.0
C4397 C 0.5968 0.65946 0.74682 0.0
C4398 C 0.5878 0.65578 0.72896 0.0
C4399 C 0.58459 0.64825 0.71961 0.0
C4400 C 0.59269 0.64126 0.71438 0.0
C4401 C 0.58964 0.63434 0.70542 0.0
C4402 C 0.57852 0.63441 0.70157 0.0
C4403 C 0.57044 0.6414 0.70665 0.0
C4404 C 0.57344 0.64832 0.71561 0.0
C4405 C 0.59375 0.70739 0.73318 0.0
C4406 C 0.58343 0.71116 0.7287 0.0
C4407 C 0.59575 0.69587 0.73528 0.0
C4408 C 0.58726 0.6878 0.7335 0.0
C4409 C 0.57686 0.69167 0.72911 0.0
C4410 C 0.57505 0.70316 0.72655 0.0
C4411 C 0.58932 0.67537 0.73572 0.0
C4412 C 0.58583 0.66749 0.72764 0.0
C4413 C 0.59496 0.67117 0.74545 0.0
C4414 C 0.59896 0.67866 0.75451 0.0
C4415 C 0.59141 0.68583 0.76026 0.0
C4416 C 0.59534 0.69292 0.76872 0.0
C4417 C 0.60678 0.69285 0.77154 0.0
C4418 C 0.61431 0.68567 0.76592 0.0
C4419 C 0.61043 0.67857 0.75747 0.0
H4420 H 0.6098 0.69835 0.77808 0.0
H4421 H 0.57618 0.62908 0.69461 0.0
H4422 H 0.70251 0.36899 0.00522 0.0
H4423 H 0.68272 0.36436 0.00212 0.0
H4424 H 0.69227 0.33025 0.99372 0.0
H4425 H 0.71219 0.33483 0.99684 0.0
H4426 H 0.67698 0.34005 0.97818 0.0
H4427 H 0.67967 0.33454 0.0183 0.0
H4428 H 0.68537 0.34027 0.03735 0.0
H4429 H 0.6638 0.3695 0.03513 0.0
H4430 H 0.65806 0.364 0.01599 0.0
H4431 H 0.61837 0.31965 0.98508 0.0
H4432 H 0.63824 0.32183 0.99081 0.0
H4433 H 0.63596 0.35758 0.98402 0.0
H4434 H 0.6165 0.35531 0.97761 0.0
H4435 H 0.64755 0.34541 0.00778 0.0
H4436 H 0.6482 0.35317 0.96685 0.0
H4437 H 0.64214 0.34817 0.9477 0.0
H4438 H 0.6576 0.31545 0.9514 0.0
H4439 H 0.66344 0.32017 0.97075 0.0
C4440 C 0.70041 0.36045 0.00287 0.0
C4441 C 0.70896 0.35226 0.00138 0.0
C4442 C 0.68907 0.35782 0.00108 0.0
C4443 C 0.68597 0.34694 0.99771 0.0
C4444 C 0.69445 0.3387 0.9963 0.0
C4445 C 0.70583 0.3413 0.9982 0.0
C4446 C 0.67386 0.34431 0.99558 0.0
C4447 C 0.6706 0.34105 0.98472 0.0
C4448 C 0.66544 0.3458 0.00402 0.0
C4449 C 0.66846 0.34887 0.01571 0.0
C4450 C 0.67614 0.34219 0.02187 0.0
C4451 C 0.67939 0.3454 0.03268 0.0
C4452 C 0.67495 0.35525 0.03744 0.0
C4453 C 0.66721 0.36187 0.03143 0.0
C4454 C 0.66394 0.35869 0.02061 0.0
C4455 C 0.62217 0.32793 0.9848 0.0
C4456 C 0.61602 0.33727 0.98071 0.0
C4457 C 0.63346 0.32919 0.98812 0.0
C4458 C 0.63857 0.33987 0.9878 0.0
C4459 C 0.63222 0.34926 0.98425 0.0
C4460 C 0.62114 0.34794 0.98053 0.0
C4461 C 0.65076 0.3412 0.99042 0.0
C4462 C 0.65399 0.34426 0.00133 0.0
C4463 C 0.65916 0.33966 0.98202 0.0
C4464 C 0.65608 0.33695 0.97028 0.0
C4465 C 0.65019 0.34487 0.96362 0.0
C4466 C 0.64681 0.34209 0.95273 0.0
C4467 C 0.64945 0.33148 0.94835 0.0
C4468 C 0.65552 0.32365 0.95483 0.0
C4469 C 0.65885 0.32636 0.96577 0.0
H4470 H 0.64681 0.32934 0.93992 0.0
H4471 H 0.67751 0.35775 0.04579 0.0
H4472 H 0.96619 0.62505 0.32904 0.0
H4473 H 0.97139 0.64474 0.33192 0.0
H4474 H 0.00494 0.63424 0.3414 0.0
H4475 H 0.99976 0.61443 0.33858 0.0
H4476 H 0.99593 0.65079 0.3559 0.0
H4477 H 1.00053 0.64611 0.31552 0.0
H4478 H 0.99354 0.64004 0.29701 0.0
H4479 H 0.96566 0.66329 0.29973 0.0
H4480 H 0.97243 0.66941 0.31831 0.0
H4481 H 0.01848 0.70643 0.35662 0.0
H4482 H 0.01477 0.68638 0.35367 0.0
H4483 H 0.98522 0.69524 0.33434 0.0
H4484 H 0.98943 0.71523 0.33667 0.0
H4485 H 0.99267 0.67887 0.32482 0.0
H4486 H 0.98481 0.68186 0.36483 0.0
H4487 H 0.98815 0.68623 0.38484 0.0
H4488 H 0.0187 0.66648 0.38416 0.0
H4489 H 0.01533 0.66169 0.36424 0.0
C4490 C 0.97474 0.62689 0.33158 0.0
C4491 C 0.98259 0.61806 0.33339 0.0
C4492 C 0.9777 0.63822 0.33327 0.0
C4493 C 0.98861 0.64111 0.33681 0.0
C4494 C 0.99647 0.63231 0.33866 0.0
C4495 C 0.99352 0.62096 0.33692 0.0
C4496 C 0.99179 0.65328 0.33843 0.0
C4497 C 0.99539 0.65691 0.34906 0.0
C4498 C 0.99072 0.66144 0.32969 0.0
C4499 C 0.98698 0.6582 0.31829 0.0
C4500 C 0.99292 0.64994 0.31215 0.0
C4501 C 0.98899 0.64648 0.30166 0.0
C4502 C 0.97916 0.65128 0.29719 0.0
C4503 C 0.97328 0.6596 0.30318 0.0
C4504 C 0.97718 0.66308 0.31368 0.0
C4505 C 0.01127 0.70408 0.35163 0.0
C4506 C 0.00434 0.7125 0.34679 0.0
C4507 C 0.009 0.69253 0.35009 0.0
C4508 C 0.99949 0.689 0.34398 0.0
C4509 C 0.99265 0.69749 0.33905 0.0
C4510 C 0.99509 0.70902 0.34035 0.0
C4511 C 0.99679 0.67661 0.34241 0.0
C4512 C 0.99328 0.67286 0.33174 0.0
C4513 C 0.99764 0.6684 0.35122 0.0
C4514 C 0.99991 0.67156 0.36303 0.0
C4515 C 0.99226 0.6785 0.36894 0.0
C4516 C 0.99411 0.68096 0.38029 0.0
C4517 C 0.00368 0.67672 0.38574 0.0
C4518 C 0.01132 0.66982 0.37991 0.0
C4519 C 0.0094 0.66714 0.36863 0.0
H4520 H 0.00515 0.67875 0.39448 0.0
H4521 H 0.9761 0.64855 0.28909 0.0
H4522 H 0.71079 0.74005 0.57849 0.0
H4523 H 0.69066 0.74455 0.5808 0.0
H4524 H 0.68591 0.71322 0.59901 0.0
H4525 H 0.70581 0.70855 0.59642 0.0
H4526 H 0.66945 0.71585 0.58556 0.0
H4527 H 0.68774 0.741 0.6117 0.0
H4528 H 0.70007 0.75646 0.61778 0.0
H4529 H 0.68256 0.77961 0.59588 0.0
H4530 H 0.67021 0.76426 0.58957 0.0
H4531 H 0.62026 0.72478 0.61853 0.0
H4532 H 0.6399 0.72295 0.61229 0.0
H4533 H 0.63534 0.75097 0.58929 0.0
H4534 H 0.6155 0.75272 0.59534 0.0
H4535 H 0.65581 0.75164 0.60244 0.0
H4536 H 0.63643 0.72688 0.5779 0.0
H4537 H 0.6238 0.71154 0.57216 0.0
H4538 H 0.64335 0.68769 0.59144 0.0
H4539 H 0.656 0.70291 0.59742 0.0
C4540 C 0.70541 0.73406 0.58286 0.0
C4541 C 0.70994 0.72389 0.5872 0.0
C4542 C 0.69391 0.73671 0.5843 0.0
C4543 C 0.68671 0.72933 0.59024 0.0
C4544 C 0.69121 0.7191 0.59439 0.0
C4545 C 0.70264 0.71641 0.59288 0.0
C4546 C 0.67444 0.73197 0.59205 0.0
C4547 C 0.66653 0.72364 0.58938 0.0
C4548 C 0.67045 0.74233 0.59659 0.0
C4549 C 0.67817 0.75144 0.60004 0.0
C4550 C 0.68662 0.74935 0.60807 0.0
C4551 C 0.69359 0.7581 0.61158 0.0
C4552 C 0.69213 0.769 0.60718 0.0
C4553 C 0.68371 0.77116 0.59925 0.0
C4554 C 0.67673 0.76244 0.5957 0.0
C4555 C 0.62343 0.73065 0.61223 0.0
C4556 C 0.61629 0.73895 0.60749 0.0
C4557 C 0.63466 0.72953 0.6086 0.0
C4558 C 0.63908 0.73676 0.60025 0.0
C4559 C 0.6321 0.74528 0.59572 0.0
C4560 C 0.62077 0.74628 0.59921 0.0
C4561 C 0.65101 0.73533 0.59638 0.0
C4562 C 0.65879 0.74389 0.59857 0.0
C4563 C 0.65492 0.72517 0.59146 0.0
C4564 C 0.64708 0.71607 0.58822 0.0
C4565 C 0.63794 0.71839 0.58105 0.0
C4566 C 0.6308 0.70971 0.57772 0.0
C4567 C 0.63275 0.69865 0.58147 0.0
C4568 C 0.64183 0.69626 0.58856 0.0
C4569 C 0.64899 0.70491 0.59192 0.0
H4570 H 0.62724 0.69194 0.57884 0.0
H4571 H 0.69749 0.77577 0.60994 0.0
H4572 H 0.61047 0.3642 0.85874 0.0
H4573 H 0.61326 0.38438 0.85508 0.0
H4574 H 0.57889 0.38733 0.84357 0.0
H4575 H 0.5761 0.36702 0.84736 0.0
H4576 H 0.59256 0.39881 0.82975 0.0
H4577 H 0.58634 0.39906 0.86974 0.0
H4578 H 0.58835 0.39528 0.89013 0.0
H4579 H 0.62348 0.40383 0.88814 0.0
H4580 H 0.62165 0.40774 0.86775 0.0
H4581 H 0.59257 0.45964 0.83099 0.0
H4582 H 0.5887 0.43945 0.83317 0.0
H4583 H 0.62244 0.43394 0.84562 0.0
H4584 H 0.62617 0.45408 0.84391 0.0
H4585 H 0.60806 0.42394 0.85892 0.0
H4586 H 0.61314 0.42528 0.81855 0.0
H4587 H 0.60917 0.43248 0.7994 0.0
H4588 H 0.57462 0.42215 0.80277 0.0
H4589 H 0.57835 0.41504 0.82201 0.0
C4590 C 0.60356 0.36915 0.85529 0.0
C4591 C 0.59312 0.36406 0.85318 0.0
C4592 C 0.60511 0.38072 0.85334 0.0
C4593 C 0.59625 0.3875 0.84918 0.0
C4594 C 0.58585 0.38234 0.84682 0.0
C4595 C 0.58427 0.37074 0.84891 0.0
C4596 C 0.59802 0.39985 0.847 0.0
C4597 C 0.59581 0.40432 0.83619 0.0
C4598 C 0.60244 0.40711 0.85528 0.0
C4599 C 0.60388 0.40357 0.86721 0.0
C4600 C 0.59452 0.39998 0.87362 0.0
C4601 C 0.5956 0.39795 0.88521 0.0
C4602 C 0.60601 0.3994 0.89044 0.0
C4603 C 0.6154 0.40277 0.88409 0.0
C4604 C 0.61435 0.40491 0.87253 0.0
C4605 C 0.59924 0.45409 0.834 0.0
C4606 C 0.60973 0.45851 0.83716 0.0
C4607 C 0.59702 0.44251 0.83522 0.0
C4608 C 0.6053 0.43506 0.83947 0.0
C4609 C 0.61588 0.43944 0.84232 0.0
C4610 C 0.61805 0.451 0.84122 0.0
C4611 C 0.60281 0.42284 0.84165 0.0
C4612 C 0.60487 0.4184 0.85246 0.0
C4613 C 0.59817 0.41567 0.83341 0.0
C4614 C 0.59601 0.4197 0.82175 0.0
C4615 C 0.60469 0.42459 0.81522 0.0
C4616 C 0.60248 0.42865 0.80435 0.0
C4617 C 0.59165 0.42779 0.79988 0.0
C4618 C 0.58301 0.42282 0.80625 0.0
C4619 C 0.58516 0.41876 0.81713 0.0
H4620 H 0.58995 0.43096 0.79147 0.0
H4621 H 0.60683 0.39779 0.8994 0.0
H4622 H 0.95798 0.32269 0.11582 0.0
H4623 H 0.93764 0.32625 0.11326 0.0
H4624 H 0.94522 0.35284 0.08943 0.0
H4625 H 0.96546 0.34898 0.09153 0.0
H4626 H 0.92763 0.35388 0.11384 0.0
H4627 H 0.93609 0.34101 0.07489 0.0
H4628 H 0.94409 0.32714 0.06161 0.0
H4629 H 0.92382 0.30108 0.07673 0.0
H4630 H 0.91593 0.31479 0.09031 0.0
H4631 H 0.87429 0.37331 0.09677 0.0
H4632 H 0.8942 0.36853 0.09733 0.0
H4633 H 0.88606 0.33313 0.09599 0.0
H4634 H 0.86596 0.33802 0.09438 0.0
H4635 H 0.90415 0.33573 0.08477 0.0
H4636 H 0.89352 0.34855 0.12178 0.0
H4637 H 0.8851 0.36188 0.13539 0.0
H4638 H 0.90879 0.38728 0.12503 0.0
H4639 H 0.91728 0.37413 0.11127 0.0
C4640 C 0.9553 0.3291 0.10983 0.0
C4641 C 0.96336 0.33536 0.10369 0.0
C4642 C 0.94368 0.33118 0.10842 0.0
C4643 C 0.93989 0.33973 0.10105 0.0
C4644 C 0.94792 0.34605 0.09499 0.0
C4645 C 0.9595 0.34378 0.09616 0.0
C4646 C 0.92758 0.34233 0.09996 0.0
C4647 C 0.9225 0.35 0.10743 0.0
C4648 C 0.92081 0.33709 0.0918 0.0
C4649 C 0.92563 0.32885 0.08376 0.0
C4650 C 0.93351 0.33228 0.07552 0.0
C4651 C 0.93799 0.32446 0.06791 0.0
C4652 C 0.93452 0.31321 0.06837 0.0
C4653 C 0.92655 0.30978 0.07643 0.0
C4654 C 0.92209 0.31757 0.08409 0.0
C4655 C 0.87666 0.36451 0.09632 0.0
C4656 C 0.86843 0.35608 0.09538 0.0
C4657 C 0.88815 0.36175 0.09687 0.0
C4658 C 0.89178 0.35042 0.09709 0.0
C4659 C 0.88358 0.34195 0.09591 0.0
C4660 C 0.87206 0.34475 0.09498 0.0
C4661 C 0.90407 0.34747 0.09857 0.0
C4662 C 0.90919 0.33966 0.09123 0.0
C4663 C 0.91086 0.35257 0.10693 0.0
C4664 C 0.906 0.36037 0.11545 0.0
C4665 C 0.89693 0.35698 0.12239 0.0
C4666 C 0.89214 0.36451 0.13013 0.0
C4667 C 0.8964 0.37542 0.13106 0.0
C4668 C 0.9055 0.37881 0.1243 0.0
C4669 C 0.91032 0.37132 0.11655 0.0
H4670 H 0.89266 0.38125 0.13703 0.0
H4671 H 0.93797 0.30718 0.06244 0.0
H4672 H 0.256 0.99847 0.46965 0.0
H4673 H 0.25504 0.00311 0.44942 0.0
H4674 H 0.22709 0.98017 0.44604 0.0
H4675 H 0.22875 0.97494 0.46589 0.0
H4676 H 0.23883 0.97685 0.42962 0.0
H4677 H 0.22528 0.01131 0.44526 0.0
H4678 H 0.225 0.02846 0.4569 0.0
H4679 H 0.25519 0.04009 0.44037 0.0
H4680 H 0.25572 0.02295 0.42871 0.0
H4681 H 0.21717 0.99788 0.37782 0.0
H4682 H 0.22009 0.99464 0.39788 0.0
H4683 H 0.25421 0.00673 0.39459 0.0
H4684 H 0.25133 0.00995 0.37423 0.0
H4685 H 0.24065 0.01566 0.41375 0.0
H4686 H 0.25088 0.97969 0.39653 0.0
H4687 H 0.24752 0.96292 0.38488 0.0
H4688 H 0.21827 0.95483 0.40492 0.0
H4689 H 0.22137 0.97163 0.4166 0.0
C4690 C 0.2497 0.99447 0.46451 0.0
C4691 C 0.24253 0.98629 0.46922 0.0
C4692 C 0.24905 0.99718 0.45297 0.0
C4693 C 0.24092 0.99208 0.44607 0.0
C4694 C 0.23356 0.98415 0.451 0.0
C4695 C 0.23446 0.98118 0.46238 0.0
C4696 C 0.24029 0.99451 0.43365 0.0
C4697 C 0.23909 0.98539 0.42625 0.0
C4698 C 0.24076 0.0056 0.42904 0.0
C4699 C 0.24063 0.01577 0.43622 0.0
C4700 C 0.23193 0.01746 0.44419 0.0
C4701 C 0.23171 0.0272 0.45078 0.0
C4702 C 0.2401 0.03534 0.44941 0.0
C4703 C 0.24872 0.03377 0.44144 0.0
C4704 C 0.24898 0.02405 0.43484 0.0
C4705 C 0.22523 1.00012 0.38136 0.0
C4706 C 0.23394 0.00443 0.37444 0.0
C4707 C 0.22693 0.9981 0.39283 0.0
C4708 C 0.23737 1.00039 0.39773 0.0
C4709 C 0.24607 0.0049 0.39095 0.0
C4710 C 0.24442 0.00677 0.37935 0.0
C4711 C 0.23908 0.99804 0.40994 0.0
C4712 C 0.24047 0.00716 0.41725 0.0
C4713 C 0.23824 0.98701 0.41453 0.0
C4714 C 0.23631 0.97699 0.40737 0.0
C4715 C 0.24367 0.97441 0.39838 0.0
C4716 C 0.24182 0.96488 0.39179 0.0
C4717 C 0.23267 0.95783 0.39414 0.0
C4718 C 0.22534 0.9603 0.40309 0.0
C4719 C 0.22715 0.96982 0.4097 0.0
H4720 H 0.23127 0.95045 0.38904 0.0
H4721 H 0.2399 0.04288 0.45449 0.0
H4722 H 0.32121 0.9961 0.62166 0.0
H4723 H 0.32373 1.00031 0.64179 0.0
H4724 H 0.35627 0.9836 0.64096 0.0
H4725 H 0.35349 0.97904 0.62114 0.0
H4726 H 0.34638 0.97719 0.65871 0.0
H4727 H 0.35241 0.01375 0.64226 0.0
H4728 H 0.34801 0.03069 0.63082 0.0
H4729 H 0.31836 0.03685 0.65101 0.0
H4730 H 0.32253 0.01987 0.6625 0.0
H4731 H 0.37055 0.9992 0.7086 0.0
H4732 H 0.36596 0.99585 0.68888 0.0
H4733 H 0.33128 0.0051 0.69545 0.0
H4734 H 0.33576 0.00829 0.71537 0.0
H4735 H 0.34089 0.0151 0.67539 0.0
H4736 H 0.33707 0.97839 0.69288 0.0
H4737 H 0.34296 0.96162 0.70388 0.0
H4738 H 0.3708 0.95618 0.68108 0.0
H4739 H 0.36517 0.97301 0.67003 0.0
C4740 C 0.3289 0.99344 0.62583 0.0
C4741 C 0.33717 0.98728 0.61993 0.0
C4742 C 0.33038 0.99587 0.6373 0.0
C4743 C 0.34026 0.99237 0.64297 0.0
C4744 C 0.34856 0.98637 0.6369 0.0
C4745 C 0.347 0.98382 0.62555 0.0
C4746 C 0.34191 0.99456 0.65527 0.0
C4747 C 0.3453 0.98554 0.66229 0.0
C4748 C 0.3403 0.00536 0.66011 0.0
C4749 C 0.33771 0.01548 0.65314 0.0
C4750 C 0.34489 0.01866 0.64419 0.0
C4751 C 0.34246 0.02828 0.63771 0.0
C4752 C 0.33289 0.03482 0.64016 0.0
C4753 C 0.32575 0.03177 0.64911 0.0
C4754 C 0.32815 0.02216 0.65561 0.0
C4755 C 0.36196 1.00069 0.70586 0.0
C4756 C 0.35354 0.00413 0.71358 0.0
C4757 C 0.35934 0.99865 0.69457 0.0
C4758 C 0.34826 1.00012 0.69069 0.0
C4759 C 0.33988 0.00389 0.69827 0.0
C4760 C 0.34246 0.00576 0.70964 0.0
C4761 C 0.34551 0.9978 0.67869 0.0
C4762 C 0.34191 0.00677 0.67176 0.0
C4763 C 0.3472 0.98701 0.67387 0.0
C4764 C 0.35077 0.97706 0.6807 0.0
C4765 C 0.34454 0.97372 0.69029 0.0
C4766 C 0.34781 0.96417 0.69652 0.0
C4767 C 0.35728 0.95787 0.69321 0.0
C4768 C 0.36349 0.96109 0.68366 0.0
C4769 C 0.36025 0.97063 0.67741 0.0
H4770 H 0.35977 0.95046 0.69802 0.0
H4771 H 0.33102 0.04227 0.63514 0.0
H4772 H 0.33214 0.08727 0.96005 0.0
H4773 H 0.33372 0.08443 0.9396 0.0
H4774 H 0.34813 0.11764 0.9358 0.0
H4775 H 0.34588 0.12071 0.95593 0.0
H4776 H 0.33502 0.11579 0.92014 0.0
H4777 H 0.3636 0.09047 0.93408 0.0
H4778 H 0.37204 0.07457 0.9447 0.0
H4779 H 0.35006 0.05144 0.92813 0.0
H4780 H 0.3414 0.06723 0.9175 0.0
H4781 H 0.36176 0.11092 0.86667 0.0
H4782 H 0.35635 0.11274 0.88646 0.0
H4783 H 0.33827 0.08131 0.88483 0.0
H4784 H 0.34371 0.07953 0.86481 0.0
H4785 H 0.35142 0.08141 0.90279 0.0
H4786 H 0.3248 0.10877 0.88725 0.0
H4787 H 0.31937 0.12557 0.87602 0.0
H4788 H 0.34148 0.14607 0.89559 0.0
H4789 H 0.34711 0.12939 0.90686 0.0
C4790 C 0.33555 0.09397 0.9548 0.0
C4791 C 0.33873 0.10427 0.9596 0.0
C4792 C 0.33658 0.0923 0.9431 0.0
C4793 C 0.34115 0.10077 0.93602 0.0
C4794 C 0.34445 0.11098 0.94093 0.0
C4795 C 0.34315 0.11274 0.9525 0.0
C4796 C 0.34223 0.09933 0.92349 0.0
C4797 C 0.33873 0.10828 0.91642 0.0
C4798 C 0.34684 0.08948 0.91842 0.0
C4799 C 0.35172 0.08006 0.92514 0.0
C4800 C 0.36046 0.08202 0.93282 0.0
C4801 C 0.36531 0.07302 0.93881 0.0
C4802 C 0.36155 0.06201 0.93713 0.0
C4803 C 0.35293 0.05998 0.92946 0.0
C4804 C 0.34805 0.06895 0.92345 0.0
C4805 C 0.35661 0.1044 0.87054 0.0
C4806 C 0.35337 0.09496 0.86432 0.0
C4807 C 0.35336 0.10553 0.88183 0.0
C4808 C 0.34685 0.09719 0.88722 0.0
C4809 C 0.34335 0.08785 0.8809 0.0
C4810 C 0.34646 0.08681 0.86949 0.0
C4811 C 0.34437 0.09791 0.89958 0.0
C4812 C 0.34761 0.08884 0.90658 0.0
C4813 C 0.33987 0.10779 0.90462 0.0
C4814 C 0.3364 0.11782 0.89787 0.0
C4815 C 0.32853 0.11685 0.88912 0.0
C4816 C 0.32542 0.12636 0.88275 0.0
C4817 C 0.33009 0.13688 0.88508 0.0
C4818 C 0.33786 0.13792 0.8938 0.0
C4819 C 0.341 0.12845 0.90019 0.0
H4820 H 0.32767 0.14422 0.88014 0.0
H4821 H 0.36535 0.05505 0.94175 0.0
H4822 H 0.23849 0.0968 0.22087 0.0
H4823 H 0.24305 0.09937 0.20077 0.0
H4824 H 0.21715 0.07569 0.19216 0.0
H4825 H 0.21221 0.07346 0.21224 0.0
H4826 H 0.2407 0.07392 0.18004 0.0
H4827 H 0.20933 0.09875 0.18858 0.0
H4828 H 0.19913 0.1137 0.1989 0.0
H4829 H 0.22523 0.13731 0.19035 0.0
H4830 H 0.23574 0.12241 0.18022 0.0
H4831 H 0.23032 0.09043 0.1211 0.0
H4832 H 0.22801 0.08481 0.14105 0.0
H4833 H 0.25273 0.10941 0.15046 0.0
H4834 H 0.25566 0.11427 0.13055 0.0
H4835 H 0.22987 0.11041 0.16216 0.0
H4836 H 0.26127 0.08656 0.15384 0.0
H4837 H 0.27232 0.07211 0.14369 0.0
H4838 H 0.24726 0.04727 0.15184 0.0
H4839 H 0.23591 0.06166 0.16185 0.0
C4840 C 0.2339 0.09197 0.21472 0.0
C4841 C 0.22503 0.08485 0.21819 0.0
C4842 C 0.23647 0.0935 0.20322 0.0
C4843 C 0.23044 0.08774 0.19492 0.0
C4844 C 0.22194 0.08021 0.19838 0.0
C4845 C 0.21914 0.07893 0.20987 0.0
C4846 C 0.23262 0.09003 0.18265 0.0
C4847 C 0.23818 0.08183 0.1761 0.0
C4848 C 0.22963 0.10048 0.17753 0.0
C4849 C 0.22343 0.10939 0.18383 0.0
C4850 C 0.213 0.10707 0.18908 0.0
C4851 C 0.20714 0.11555 0.19485 0.0
C4852 C 0.21155 0.12644 0.19533 0.0
C4853 C 0.22184 0.12886 0.19002 0.0
C4854 C 0.22777 0.12039 0.18428 0.0
C4855 C 0.23542 0.09446 0.12742 0.0
C4856 C 0.24297 0.10307 0.12428 0.0
C4857 C 0.23405 0.09129 0.13882 0.0
C4858 C 0.24007 0.0968 0.14731 0.0
C4859 C 0.24786 0.10514 0.14411 0.0
C4860 C 0.24942 0.10807 0.13272 0.0
C4861 C 0.23789 0.09428 0.15952 0.0
C4862 C 0.23233 0.10247 0.16608 0.0
C4863 C 0.24098 0.08388 0.16465 0.0
C4864 C 0.24763 0.07524 0.15843 0.0
C4865 C 0.258 0.07807 0.15331 0.0
C4866 C 0.26435 0.06987 0.14762 0.0
C4867 C 0.26047 0.05879 0.14707 0.0
C4868 C 0.25023 0.05588 0.15223 0.0
C4869 C 0.24383 0.06405 0.15791 0.0
H4870 H 0.26541 0.05245 0.14269 0.0
H4871 H 0.20698 0.13301 0.19977 0.0
H4872 H 0.38003 0.23793 0.01868 0.0
H4873 H 0.40025 0.24114 0.01496 0.0
H4874 H 0.39658 0.22744 0.98159 0.0
H4875 H 0.37663 0.22379 0.98556 0.0
H4876 H 0.4148 0.21963 0.98913 0.0
H4877 H 0.39984 0.2577 0.98835 0.0
H4878 H 0.38992 0.2745 0.99576 0.0
H4879 H 0.41284 0.27557 0.0236 0.0
H4880 H 0.42283 0.25871 0.0164 0.0
H4881 H 0.46411 0.24138 0.96214 0.0
H4882 H 0.44456 0.23864 0.96836 0.0
H4883 H 0.45423 0.24451 0.00274 0.0
H4884 H 0.47396 0.24701 0.9966 0.0
H4885 H 0.4338 0.256 0.99624 0.0
H4886 H 0.44948 0.21873 0.99605 0.0
H4887 H 0.45945 0.20206 0.98846 0.0
H4888 H 0.43505 0.19968 0.96202 0.0
H4889 H 0.42501 0.21644 0.96937 0.0
C4890 C 0.38359 0.23565 0.01056 0.0
C4891 C 0.37677 0.23063 0.0024 0.0
C4892 C 0.39515 0.23756 0.00838 0.0
C4893 C 0.4001 0.2347 0.99789 0.0
C4894 C 0.39315 0.22973 0.98976 0.0
C4895 C 0.38169 0.22767 0.99201 0.0
C4896 C 0.41248 0.23654 0.99535 0.0
C4897 C 0.41884 0.22767 0.99056 0.0
C4898 C 0.41808 0.24687 0.9975 0.0
C4899 C 0.41199 0.25688 0.00191 0.0
C4900 C 0.40269 0.26146 0.99611 0.0
C4901 C 0.39708 0.271 1.00026 0.0
C4902 C 0.40072 0.27607 0.01017 0.0
C4903 C 0.41001 0.27162 0.01594 0.0
C4904 C 0.41566 0.26208 0.01182 0.0
C4905 C 0.4621 0.24222 0.97103 0.0
C4906 C 0.47067 0.24448 0.97885 0.0
C4907 C 0.45089 0.24056 0.97458 0.0
C4908 C 0.44786 0.24127 0.98605 0.0
C4909 C 0.45632 0.24389 0.99386 0.0
C4910 C 0.46761 0.24535 0.99033 0.0
C4911 C 0.4359 0.2392 0.98979 0.0
C4912 C 0.42968 0.24799 0.99483 0.0
C4913 C 0.43039 0.22884 0.9878 0.0
C4914 C 0.43657 0.21893 0.98318 0.0
C4915 C 0.44632 0.21475 0.98853 0.0
C4916 C 0.45196 0.20526 0.9843 0.0
C4917 C 0.44791 0.19984 0.97474 0.0
C4918 C 0.4382 0.2039 0.96941 0.0
C4919 C 0.43252 0.21339 0.97361 0.0
H4920 H 0.45227 0.19248 0.9715 0.0
H4921 H 0.39637 0.28347 0.01336 0.0
H4922 H 0.11173 0.86379 0.3664 0.0
H4923 H 0.11372 0.88339 0.36048 0.0
H4924 H 0.07843 0.88471 0.35179 0.0
H4925 H 0.0767 0.86452 0.35686 0.0
H4926 H 0.08972 0.89748 0.33738 0.0
H4927 H 0.09011 0.89528 0.37837 0.0
H4928 H 0.09728 0.88739 0.3963 0.0
H4929 H 0.13069 0.89864 0.38783 0.0
H4930 H 0.12373 0.90658 0.36986 0.0
H4931 H 0.09239 0.95828 0.33455 0.0
H4932 H 0.08755 0.93854 0.33823 0.0
H4933 H 0.12018 0.93314 0.35345 0.0
H4934 H 0.12419 0.9531 0.35129 0.0
H4935 H 0.10788 0.92248 0.36505 0.0
H4936 H 0.10891 0.92348 0.32394 0.0
H4937 H 0.10297 0.9303 0.30516 0.0
H4938 H 0.06878 0.92077 0.31259 0.0
H4939 H 0.0745 0.91401 0.33145 0.0
C4940 C 0.10437 0.86824 0.36326 0.0
C4941 C 0.094 0.86265 0.36234 0.0
C4942 C 0.10549 0.87953 0.35991 0.0
C4943 C 0.09613 0.88584 0.35609 0.0
C4944 C 0.08579 0.88017 0.35484 0.0
C4945 C 0.08477 0.86864 0.3578 0.0
C4946 C 0.09722 0.89834 0.35382 0.0
C4947 C 0.09359 0.90298 0.34347 0.0
C4948 C 0.10241 0.90563 0.36163 0.0
C4949 C 0.1064 0.90151 0.37277 0.0
C4950 C 0.09897 0.89612 0.38037 0.0
C4951 C 0.103 0.8916 0.39052 0.0
C4952 C 0.11443 0.89247 0.39318 0.0
C4953 C 0.12183 0.89798 0.38577 0.0
C4954 C 0.11784 0.90253 0.37562 0.0
C4955 C 0.09855 0.95284 0.33862 0.0
C4956 C 0.1089 0.95726 0.34224 0.0
C4957 C 0.09582 0.94143 0.34062 0.0
C4958 C 0.10357 0.93397 0.34587 0.0
C4959 C 0.11394 0.93847 0.34937 0.0
C4960 C 0.1164 0.94994 0.34788 0.0
C4961 C 0.1009 0.92169 0.34831 0.0
C4962 C 0.10408 0.91708 0.35883 0.0
C4963 C 0.09549 0.91443 0.34055 0.0
C4964 C 0.09212 0.91833 0.32914 0.0
C4965 C 0.10012 0.92287 0.32157 0.0
C4966 C 0.09679 0.92673 0.31092 0.0
C4967 C 0.0855 0.92599 0.30769 0.0
C4968 C 0.07752 0.92135 0.3151 0.0
C4969 C 0.0808 0.9175 0.32577 0.0
H4970 H 0.08294 0.929 0.29945 0.0
H4971 H 0.11755 0.88889 0.401 0.0
H4972 H 0.1139 0.83288 0.48955 0.0
H4973 H 0.13311 0.83636 0.49631 0.0
H4974 H 0.14389 0.844 0.46231 0.0
H4975 H 0.12476 0.84073 0.45554 0.0
H4976 H 0.15852 0.83 0.47247 0.0
H4977 H 0.13918 0.86468 0.48242 0.0
H4978 H 0.12548 0.87709 0.49213 0.0
H4979 H 0.13749 0.86535 0.52426 0.0
H4980 H 0.15114 0.85273 0.51475 0.0
H4981 H 0.21186 0.85496 0.47857 0.0
H4982 H 0.19228 0.85015 0.47465 0.0
H4983 H 0.18499 0.84925 0.51039 0.0
H4984 H 0.20459 0.85482 0.51422 0.0
H4985 H 0.16824 0.85845 0.50112 0.0
H4986 H 0.18769 0.82423 0.49193 0.0
H4987 H 0.20174 0.81176 0.48278 0.0
H4988 H 0.1895 0.82178 0.45018 0.0
H4989 H 0.17549 0.83442 0.45912 0.0
C4990 C 0.1204 0.83516 0.48348 0.0
C4991 C 0.11777 0.83634 0.47194 0.0
C4992 C 0.13137 0.83731 0.4874 0.0
C4993 C 0.14001 0.84058 0.47986 0.0
C4994 C 0.13741 0.84156 0.46833 0.0
C4995 C 0.12645 0.83959 0.46444 0.0
C4996 C 0.15187 0.84256 0.48373 0.0
C4997 C 0.16064 0.8363 0.47867 0.0
C4998 C 0.1547 0.85045 0.49218 0.0
C4999 C 0.14606 0.8576 0.49786 0.0
C5000 C 0.13877 0.86458 0.49155 0.0
C5001 C 0.13104 0.8717 0.49702 0.0
C5002 C 0.13058 0.87197 0.5088 0.0
C5003 C 0.13782 0.8651 0.51514 0.0
C5004 C 0.14555 0.85796 0.50971 0.0
C5005 C 0.20609 0.8536 0.48559 0.0
C5006 C 0.20977 0.85508 0.4967 0.0
C5007 C 0.19487 0.85076 0.48335 0.0
C5008 C 0.18704 0.84897 0.49219 0.0
C5009 C 0.19077 0.85047 0.50336 0.0
C5010 C 0.20199 0.85358 0.50558 0.0
C5011 C 0.17496 0.84601 0.48969 0.0
C5012 C 0.16615 0.85205 0.49502 0.0
C5013 C 0.17204 0.83779 0.48159 0.0
C5014 C 0.1806 0.83034 0.4762 0.0
C5015 C 0.18806 0.82385 0.48281 0.0
C5016 C 0.19601 0.81674 0.47766 0.0
C5017 C 0.19653 0.816 0.46591 0.0
C5018 C 0.1891 0.82237 0.45928 0.0
C5019 C 0.18115 0.8295 0.46438 0.0
H5020 H 0.20267 0.81047 0.46194 0.0
H5021 H 0.12464 0.87753 0.51302 0.0
H5022 H 0.50545 0.86405 0.74395 0.0
H5023 H 0.50404 0.88443 0.74758 0.0
H5024 H 0.47372 0.88618 0.72759 0.0
H5025 H 0.47577 0.86621 0.72323 0.0
H5026 H 0.48438 0.90271 0.72218 0.0
H5027 H 0.47567 0.8878 0.75921 0.0
H5028 H 0.47871 0.87698 0.77682 0.0
H5029 H 0.50886 0.89574 0.78309 0.0
H5030 H 0.50606 0.9066 0.76546 0.0
H5031 H 0.46215 0.95531 0.74015 0.0
H5032 H 0.46554 0.93508 0.73808 0.0
H5033 H 0.49942 0.93899 0.75038 0.0
H5034 H 0.49609 0.95934 0.7525 0.0
H5035 H 0.48854 0.92025 0.75969 0.0
H5036 H 0.49505 0.93612 0.72242 0.0
H5037 H 0.49016 0.94701 0.70529 0.0
H5038 H 0.46129 0.926 0.70024 0.0
H5039 H 0.46594 0.91506 0.7174 0.0
C5040 C 0.49854 0.86887 0.74035 0.0
C5041 C 0.49079 0.86365 0.73323 0.0
C5042 C 0.49764 0.8805 0.74251 0.0
C5043 C 0.48868 0.88699 0.73797 0.0
C5044 C 0.4808 0.88155 0.73112 0.0
C5045 C 0.48194 0.8701 0.72864 0.0
C5046 C 0.48763 0.89947 0.73981 0.0
C5047 C 0.48512 0.90644 0.73046 0.0
C5048 C 0.48891 0.90459 0.7505 0.0
C5049 C 0.49073 0.8979 0.76095 0.0
C5050 C 0.48301 0.88954 0.76429 0.0
C5051 C 0.48467 0.88342 0.77429 0.0
C5052 C 0.49399 0.88564 0.78105 0.0
C5053 C 0.50166 0.89401 0.77783 0.0
C5054 C 0.50003 0.90015 0.76785 0.0
C5055 C 0.4703 0.95189 0.74252 0.0
C5056 C 0.47885 0.95899 0.74651 0.0
C5057 C 0.47225 0.9403 0.74125 0.0
C5058 C 0.48279 0.93551 0.74393 0.0
C5059 C 0.49124 0.9425 0.74823 0.0
C5060 C 0.48932 0.95413 0.74944 0.0
C5061 C 0.48495 0.92324 0.74217 0.0
C5062 C 0.48777 0.9164 0.75147 0.0
C5063 C 0.48364 0.91816 0.73151 0.0
C5064 C 0.48079 0.92484 0.72125 0.0
C5065 C 0.4876 0.93389 0.71771 0.0
C5066 C 0.48489 0.94006 0.70798 0.0
C5067 C 0.4754 0.93722 0.7017 0.0
C5068 C 0.46862 0.9282 0.70512 0.0
C5069 C 0.4713 0.92201 0.71484 0.0
H5070 H 0.47332 0.942 0.69416 0.0
H5071 H 0.49525 0.88091 0.78879 0.0
H5072 H 0.08896 0.11632 0.24983 0.0
H5073 H 0.08455 0.13653 0.24788 0.0
H5074 H 0.119 0.14277 0.2375 0.0
H5075 H 0.12352 0.12289 0.24014 0.0
H5076 H 0.11388 0.15868 0.24942 0.0
H5077 H 0.09369 0.14177 0.21891 0.0
H5078 H 0.07996 0.12958 0.20944 0.0
H5079 H 0.05286 0.14492 0.22825 0.0
H5080 H 0.06644 0.15712 0.23792 0.0
H5081 H 0.10405 0.20921 0.21579 0.0
H5082 H 0.10616 0.18918 0.22072 0.0
H5083 H 0.08135 0.19294 0.24723 0.0
H5084 H 0.07951 0.21318 0.24263 0.0
H5085 H 0.08033 0.17268 0.22868 0.0
H5086 H 0.10223 0.19074 0.25788 0.0
H5087 H 0.11692 0.20336 0.26508 0.0
H5088 H 0.14216 0.18565 0.24579 0.0
H5089 H 0.12758 0.17307 0.23829 0.0
C5090 C 0.09561 0.12206 0.2473 0.0
C5091 C 0.10662 0.11796 0.24529 0.0
C5092 C 0.09305 0.13363 0.24602 0.0
C5093 C 0.10137 0.14133 0.24235 0.0
C5094 C 0.11237 0.13717 0.24042 0.0
C5095 C 0.11498 0.12572 0.24196 0.0
C5096 C 0.09885 0.15372 0.24063 0.0
C5097 C 0.10656 0.16164 0.24478 0.0
C5098 C 0.08921 0.15784 0.23477 0.0
C5099 C 0.0811 0.15023 0.22926 0.0
C5100 C 0.08482 0.14244 0.22113 0.0
C5101 C 0.07706 0.13556 0.2157 0.0
C5102 C 0.06555 0.13644 0.21828 0.0
C5103 C 0.06178 0.14421 0.22629 0.0
C5104 C 0.0695 0.15111 0.23175 0.0
C5105 C 0.09896 0.20578 0.22262 0.0
C5106 C 0.09155 0.2128 0.22878 0.0
C5107 C 0.10023 0.19433 0.22546 0.0
C5108 C 0.09395 0.18956 0.23436 0.0
C5109 C 0.08631 0.19645 0.24035 0.0
C5110 C 0.08525 0.208 0.2377 0.0
C5111 C 0.09543 0.17738 0.23732 0.0
C5112 C 0.08756 0.16958 0.23338 0.0
C5113 C 0.10506 0.17333 0.24309 0.0
C5114 C 0.11377 0.18108 0.24738 0.0
C5115 C 0.11088 0.18966 0.25502 0.0
C5116 C 0.11919 0.19678 0.25919 0.0
C5117 C 0.13045 0.19535 0.25585 0.0
C5118 C 0.13343 0.18679 0.24833 0.0
C5119 C 0.12514 0.17966 0.24411 0.0
H5120 H 0.13689 0.20084 0.25913 0.0
H5121 H 0.05955 0.13113 0.21404 0.0
H5122 H 0.50434 0.11813 0.83864 0.0
H5123 H 0.50776 0.13813 0.84266 0.0
H5124 H 0.47223 0.1453 0.83885 0.0
H5125 H 0.46886 0.12557 0.83468 0.0
H5126 H 0.48341 0.16129 0.82914 0.0
H5127 H 0.48557 0.14305 0.86537 0.0
H5128 H 0.49258 0.12972 0.87986 0.0
H5129 H 0.52589 0.14346 0.87644 0.0
H5130 H 0.51911 0.15678 0.86184 0.0
H5131 H 0.48079 0.21591 0.85319 0.0
H5132 H 0.47864 0.19614 0.84818 0.0
H5133 H 0.51338 0.18971 0.85725 0.0
H5134 H 0.51504 0.20936 0.86344 0.0
H5135 H 0.50317 0.17312 0.86368 0.0
H5136 H 0.5001 0.19191 0.82695 0.0
H5137 H 0.49199 0.20519 0.81297 0.0
H5138 H 0.45932 0.19034 0.81775 0.0
H5139 H 0.46721 0.17705 0.8318 0.0
C5140 C 0.4973 0.12401 0.83847 0.0
C5141 C 0.48634 0.1202 0.83612 0.0
C5142 C 0.49923 0.13545 0.84091 0.0
C5143 C 0.49024 0.14332 0.84119 0.0
C5144 C 0.47936 0.13951 0.83865 0.0
C5145 C 0.47744 0.12816 0.83617 0.0
C5146 C 0.49202 0.15552 0.84403 0.0
C5147 C 0.4877 0.16387 0.83673 0.0
C5148 C 0.49773 0.15901 0.85385 0.0
C5149 C 0.50187 0.1508 0.86241 0.0
C5150 C 0.49442 0.14314 0.86762 0.0
C5151 C 0.49834 0.13561 0.87587 0.0
C5152 C 0.50968 0.13571 0.87903 0.0
C5153 C 0.51712 0.14336 0.87396 0.0
C5154 C 0.51324 0.1509 0.8657 0.0
C5155 C 0.488 0.21027 0.854 0.0
C5156 C 0.49814 0.2142 0.85853 0.0
C5157 C 0.48682 0.19892 0.85099 0.0
C5158 C 0.49595 0.19127 0.85187 0.0
C5159 C 0.50616 0.1953 0.85636 0.0
C5160 C 0.50717 0.20658 0.85983 0.0
C5161 C 0.49473 0.17903 0.84868 0.0
C5162 C 0.49907 0.17062 0.85597 0.0
C5163 C 0.48896 0.17548 0.83886 0.0
C5164 C 0.48424 0.18355 0.83048 0.0
C5165 C 0.49118 0.19153 0.82506 0.0
C5166 C 0.48662 0.19904 0.81712 0.0
C5167 C 0.47515 0.19862 0.81449 0.0
C5168 C 0.4682 0.19066 0.81979 0.0
C5169 C 0.47272 0.18313 0.82772 0.0
H5170 H 0.47164 0.20444 0.80834 0.0
H5171 H 0.5127 0.12989 0.88544 0.0
H5172 H 0.21114 0.2154 0.09749 0.0
H5173 H 0.19118 0.21928 0.10044 0.0
H5174 H 0.19414 0.25008 0.08098 0.0
H5175 H 0.21453 0.24648 0.07858 0.0
H5176 H 0.18082 0.25431 0.09723 0.0
H5177 H 0.18083 0.22363 0.07101 0.0
H5178 H 0.18631 0.20484 0.0639 0.0
H5179 H 0.17175 0.18919 0.09335 0.0
H5180 H 0.16622 0.2079 0.10066 0.0
H5181 H 0.11895 0.25483 0.08808 0.0
H5182 H 0.13923 0.25196 0.084 0.0
H5183 H 0.14326 0.23525 0.11614 0.0
H5184 H 0.12325 0.23857 0.12048 0.0
H5185 H 0.15246 0.22415 0.09242 0.0
H5186 H 0.15387 0.25534 0.11889 0.0
H5187 H 0.148 0.27421 0.12542 0.0
H5188 H 0.15975 0.2889 0.09428 0.0
H5189 H 0.16547 0.27004 0.08747 0.0
C5190 C 0.20756 0.22294 0.09367 0.0
C5191 C 0.21445 0.23051 0.08757 0.0
C5192 C 0.19603 0.22514 0.09534 0.0
C5193 C 0.19086 0.23482 0.09065 0.0
C5194 C 0.19778 0.24248 0.08463 0.0
C5195 C 0.20945 0.2404 0.08319 0.0
C5196 C 0.17838 0.23701 0.09233 0.0
C5197 C 0.17467 0.24772 0.09596 0.0
C5198 C 0.17014 0.22845 0.09092 0.0
C5199 C 0.17316 0.21717 0.0864 0.0
C5200 C 0.1788 0.21618 0.07597 0.0
C5201 C 0.1819 0.20555 0.0719 0.0
C5202 C 0.17939 0.19583 0.07818 0.0
C5203 C 0.17368 0.19673 0.0885 0.0
C5204 C 0.17053 0.20734 0.09259 0.0
C5205 C 0.12421 0.25071 0.09434 0.0
C5206 C 0.1195 0.24713 0.10469 0.0
C5207 C 0.13578 0.24901 0.09197 0.0
C5208 C 0.1428 0.24337 0.09976 0.0
C5209 C 0.13807 0.23966 0.11002 0.0
C5210 C 0.12662 0.24167 0.11253 0.0
C5211 C 0.15508 0.24137 0.09727 0.0
C5212 C 0.15868 0.23071 0.09353 0.0
C5213 C 0.1632 0.24995 0.09848 0.0
C5214 C 0.15992 0.26128 0.10261 0.0
C5215 C 0.15507 0.26258 0.11338 0.0
C5216 C 0.15179 0.27327 0.11715 0.0
C5217 C 0.15346 0.28275 0.11025 0.0
C5218 C 0.15844 0.28155 0.09959 0.0
C5219 C 0.16169 0.27086 0.09578 0.0
H5220 H 0.15092 0.29102 0.11318 0.0
H5221 H 0.18187 0.18761 0.07505 0.0
H5222 H 0.37205 0.87309 0.59443 0.0
H5223 H 0.39215 0.86805 0.59567 0.0
H5224 H 0.38354 0.8328 0.59716 0.0
H5225 H 0.36342 0.83776 0.59554 0.0
H5226 H 0.39975 0.84378 0.61554 0.0
H5227 H 0.39368 0.83814 0.57503 0.0
H5228 H 0.38678 0.84537 0.55675 0.0
H5229 H 0.40947 0.87338 0.55862 0.0
H5230 H 0.41639 0.86638 0.577 0.0
H5231 H 0.45442 0.82053 0.61666 0.0
H5232 H 0.43445 0.82398 0.61268 0.0
H5233 H 0.44345 0.85283 0.59209 0.0
H5234 H 0.46344 0.84879 0.59536 0.0
H5235 H 0.42652 0.84555 0.58318 0.0
H5236 H 0.43285 0.85401 0.62147 0.0
H5237 H 0.43869 0.85173 0.64128 0.0
H5238 H 0.41567 0.82417 0.64556 0.0
H5239 H 0.40978 0.8262 0.62572 0.0
C5240 C 0.37444 0.86426 0.59485 0.0
C5241 C 0.36613 0.85582 0.59477 0.0
C5242 C 0.38593 0.86139 0.5956 0.0
C5243 C 0.38936 0.85005 0.59654 0.0
C5244 C 0.38109 0.8416 0.59644 0.0
C5245 C 0.36961 0.84445 0.59542 0.0
C5246 C 0.40155 0.84703 0.59778 0.0
C5247 C 0.4056 0.84393 0.60845 0.0
C5248 C 0.40927 0.84787 0.58867 0.0
C5249 C 0.40552 0.85176 0.57739 0.0
C5250 C 0.39718 0.84585 0.57155 0.0
C5251 C 0.39326 0.84991 0.56118 0.0
C5252 C 0.39768 0.85983 0.55653 0.0
C5253 C 0.40607 0.86569 0.56222 0.0
C5254 C 0.41 0.86166 0.57261 0.0
C5255 C 0.45213 0.82746 0.6111 0.0
C5256 C 0.46054 0.83434 0.60629 0.0
C5257 C 0.44066 0.82956 0.60894 0.0
C5258 C 0.43723 0.83893 0.60235 0.0
C5259 C 0.4457 0.84556 0.59722 0.0
C5260 C 0.45719 0.84323 0.59908 0.0
C5261 C 0.4249 0.84195 0.60103 0.0
C5262 C 0.42077 0.84519 0.59034 0.0
C5263 C 0.41716 0.84173 0.61027 0.0
C5264 C 0.42094 0.8402 0.62208 0.0
C5265 C 0.42912 0.84739 0.6266 0.0
C5266 C 0.43242 0.84616 0.63784 0.0
C5267 C 0.42753 0.83783 0.64466 0.0
C5268 C 0.41943 0.83063 0.64025 0.0
C5269 C 0.4161 0.83182 0.62902 0.0
H5270 H 0.42995 0.83703 0.6534 0.0
H5271 H 0.39461 0.86299 0.54852 0.0
H5272 H 0.73503 0.48987 0.96195 0.0
H5273 H 0.73224 0.49247 0.94159 0.0
H5274 H 0.75925 0.46881 0.9349 0.0
H5275 H 0.76167 0.46576 0.95537 0.0
H5276 H 0.75951 0.49135 0.92221 0.0
H5277 H 0.73648 0.45918 0.93036 0.0
H5278 H 0.72158 0.44763 0.93922 0.0
H5279 H 0.69648 0.47185 0.92888 0.0
H5280 H 0.71126 0.48368 0.92016 0.0
H5281 H 0.75059 0.48697 0.86277 0.0
H5282 H 0.75449 0.48396 0.88281 0.0
H5283 H 0.72118 0.4965 0.89123 0.0
H5284 H 0.71715 0.49902 0.87111 0.0
H5285 H 0.72471 0.47889 0.90316 0.0
H5286 H 0.74733 0.51157 0.8957 0.0
H5287 H 0.76179 0.52284 0.88574 0.0
H5288 H 0.78717 0.49827 0.89451 0.0
H5289 H 0.77282 0.48677 0.90438 0.0
C5290 C 0.74043 0.48529 0.95613 0.0
C5291 C 0.74867 0.47772 0.96023 0.0
C5292 C 0.73878 0.48672 0.94449 0.0
C5293 C 0.74552 0.48084 0.93668 0.0
C5294 C 0.75393 0.47343 0.94076 0.0
C5295 C 0.75534 0.47171 0.95243 0.0
C5296 C 0.7438 0.48257 0.92429 0.0
C5297 C 0.75197 0.4885 0.918 0.0
C5298 C 0.73382 0.47913 0.91882 0.0
C5299 C 0.72502 0.47241 0.92474 0.0
C5300 C 0.72782 0.46217 0.93017 0.0
C5301 C 0.71938 0.45553 0.93511 0.0
C5302 C 0.70809 0.459 0.93459 0.0
C5303 C 0.70523 0.46918 0.92927 0.0
C5304 C 0.71364 0.47586 0.92434 0.0
C5305 C 0.74417 0.48926 0.86891 0.0
C5306 C 0.73355 0.49325 0.86536 0.0
C5307 C 0.74641 0.48755 0.88042 0.0
C5308 C 0.7382 0.4901 0.8887 0.0
C5309 C 0.72769 0.4944 0.88511 0.0
C5310 C 0.72538 0.49588 0.87359 0.0
C5311 C 0.74034 0.48785 0.90102 0.0
C5312 C 0.73224 0.48181 0.90733 0.0
C5313 C 0.75033 0.4913 0.90652 0.0
C5314 C 0.75898 0.49826 0.90069 0.0
C5315 C 0.75598 0.50853 0.89544 0.0
C5316 C 0.76416 0.51497 0.88982 0.0
C5317 C 0.77538 0.51126 0.88947 0.0
C5318 C 0.77846 0.50113 0.89477 0.0
C5319 C 0.77032 0.49465 0.90039 0.0
H5320 H 0.7817 0.51625 0.88511 0.0
H5321 H 0.70154 0.45379 0.93826 0.0
H5322 H 0.87189 0.50496 0.2062 0.0
H5323 H 0.86687 0.50239 0.18635 0.0
H5324 H 0.8328 0.49424 0.19633 0.0
H5325 H 0.83768 0.49712 0.21618 0.0
H5326 H 0.84514 0.47805 0.18065 0.0
H5327 H 0.83457 0.51745 0.18455 0.0
H5328 H 0.83848 0.53701 0.1902 0.0
H5329 H 0.86671 0.53814 0.16726 0.0
H5330 H 0.86304 0.51852 0.16158 0.0
H5331 H 0.82359 0.47402 0.12474 0.0
H5332 H 0.82598 0.47826 0.14472 0.0
H5333 H 0.85479 0.4989 0.13644 0.0
H5334 H 0.85178 0.49539 0.11638 0.0
H5335 H 0.84437 0.50879 0.15198 0.0
H5336 H 0.86093 0.46889 0.15743 0.0
H5337 H 0.86103 0.44823 0.15471 0.0
H5338 H 0.82511 0.4475 0.15972 0.0
H5339 H 0.82494 0.46804 0.16322 0.0
C5340 C 0.86328 0.50281 0.20416 0.0
C5341 C 0.85517 0.50136 0.21279 0.0
C5342 C 0.86043 0.50131 0.19281 0.0
C5343 C 0.84946 0.4981 0.18983 0.0
C5344 C 0.84131 0.49672 0.19841 0.0
C5345 C 0.8441 0.49847 0.20975 0.0
C5346 C 0.84662 0.49592 0.1778 0.0
C5347 C 0.84475 0.48479 0.1744 0.0
C5348 C 0.84656 0.50462 0.16956 0.0
C5349 C 0.84856 0.51651 0.17269 0.0
C5350 C 0.84163 0.52186 0.18074 0.0
C5351 C 0.8438 0.53295 0.18395 0.0
C5352 C 0.85285 0.53881 0.1791 0.0
C5353 C 0.85971 0.53359 0.171 0.0
C5354 C 0.85757 0.52249 0.16777 0.0
C5355 C 0.83034 0.47957 0.12719 0.0
C5356 C 0.83742 0.48445 0.11894 0.0
C5357 C 0.8319 0.48178 0.1387 0.0
C5358 C 0.84088 0.48855 0.14233 0.0
C5359 C 0.84782 0.49359 0.13402 0.0
C5360 C 0.84606 0.49164 0.12249 0.0
C5361 C 0.84278 0.4908 0.15466 0.0
C5362 C 0.84458 0.50199 0.15816 0.0
C5363 C 0.84304 0.48211 0.163 0.0
C5364 C 0.84286 0.47001 0.16012 0.0
C5365 C 0.85305 0.46432 0.15781 0.0
C5366 C 0.85314 0.45263 0.15628 0.0
C5367 C 0.84305 0.4466 0.1568 0.0
C5368 C 0.83289 0.4522 0.15917 0.0
C5369 C 0.83281 0.46384 0.16105 0.0
H5370 H 0.84313 0.43757 0.15547 0.0
H5371 H 0.85453 0.54739 0.18161 0.0
H5372 H 0.87589 0.59606 0.37518 0.0
H5373 H 0.8701 0.59782 0.39505 0.0
H5374 H 0.83516 0.59632 0.3854 0.0
H5375 H 0.84088 0.59414 0.36559 0.0
H5376 H 0.84606 0.6165 0.40189 0.0
H5377 H 0.83805 0.57608 0.39628 0.0
H5378 H 0.84419 0.55736 0.38951 0.0
H5379 H 0.87288 0.55822 0.41139 0.0
H5380 H 0.86697 0.57703 0.41816 0.0
H5381 H 0.82111 0.6177 0.45592 0.0
H5382 H 0.82473 0.61351 0.43605 0.0
H5383 H 0.8535 0.59302 0.44548 0.0
H5384 H 0.84932 0.59651 0.46538 0.0
H5385 H 0.84576 0.58392 0.42851 0.0
H5386 H 0.85508 0.62258 0.43494 0.0
H5387 H 0.85192 0.64211 0.44133 0.0
H5388 H 0.82432 0.64586 0.4183 0.0
H5389 H 0.82737 0.62634 0.41173 0.0
C5390 C 0.86698 0.59594 0.37731 0.0
C5391 C 0.85885 0.59481 0.36881 0.0
C5392 C 0.86368 0.59701 0.38866 0.0
C5393 C 0.85219 0.59725 0.3917 0.0
C5394 C 0.84406 0.59615 0.38324 0.0
C5395 C 0.84736 0.59479 0.37193 0.0
C5396 C 0.8487 0.5986 0.40373 0.0
C5397 C 0.84581 0.60937 0.4077 0.0
C5398 C 0.8488 0.58941 0.41139 0.0
C5399 C 0.85212 0.57796 0.40766 0.0
C5400 C 0.84569 0.57229 0.3996 0.0
C5401 C 0.84912 0.56167 0.39577 0.0
C5402 C 0.85893 0.55661 0.40001 0.0
C5403 C 0.86529 0.56214 0.40812 0.0
C5404 C 0.86189 0.57278 0.41197 0.0
C5405 C 0.82803 0.61206 0.45375 0.0
C5406 C 0.83487 0.60737 0.46224 0.0
C5407 C 0.83024 0.60982 0.44234 0.0
C5408 C 0.83966 0.60323 0.43908 0.0
C5409 C 0.84621 0.59816 0.44763 0.0
C5410 C 0.84378 0.60012 0.45906 0.0
C5411 C 0.84288 0.60189 0.42685 0.0
C5412 C 0.84585 0.59112 0.42279 0.0
C5413 C 0.84314 0.61118 0.41916 0.0
C5414 C 0.84138 0.62297 0.42294 0.0
C5415 C 0.84831 0.62756 0.43128 0.0
C5416 C 0.84654 0.63863 0.43493 0.0
C5417 C 0.83787 0.6452 0.43029 0.0
C5418 C 0.83102 0.64075 0.42191 0.0
C5419 C 0.83279 0.6297 0.41819 0.0
H5420 H 0.83648 0.65375 0.43317 0.0
H5421 H 0.86159 0.54839 0.39702 0.0
H5422 H 0.72611 0.60966 0.61395 0.0
H5423 H 0.72366 0.6046 0.63382 0.0
H5424 H 0.75786 0.59173 0.63467 0.0
H5425 H 0.76008 0.59632 0.61442 0.0
H5426 H 0.74457 0.57868 0.64724 0.0
H5427 H 0.75021 0.61865 0.64464 0.0
H5428 H 0.74648 0.63782 0.63721 0.0
H5429 H 0.71256 0.63653 0.6502 0.0
H5430 H 0.71601 0.61728 0.65754 0.0
H5431 H 0.74361 0.57965 0.70814 0.0
H5432 H 0.74846 0.58252 0.68817 0.0
H5433 H 0.71478 0.59503 0.68193 0.0
H5434 H 0.70994 0.59236 0.70179 0.0
H5435 H 0.72992 0.60868 0.67252 0.0
H5436 H 0.72366 0.56858 0.67378 0.0
H5437 H 0.72684 0.54918 0.68083 0.0
H5438 H 0.76159 0.55077 0.67036 0.0
H5439 H 0.75867 0.57027 0.66342 0.0
C5440 C 0.73308 0.60568 0.61839 0.0
C5441 C 0.74332 0.60348 0.61277 0.0
C5442 C 0.73171 0.60285 0.62976 0.0
C5443 C 0.74068 0.59809 0.6359 0.0
C5444 C 0.75084 0.59551 0.63017 0.0
C5445 C 0.75214 0.59815 0.61864 0.0
C5446 C 0.73941 0.59612 0.64831 0.0
C5447 C 0.74157 0.58531 0.6528 0.0
C5448 C 0.73532 0.6047 0.6556 0.0
C5449 C 0.73336 0.61647 0.65158 0.0
C5450 C 0.74195 0.62244 0.64589 0.0
C5451 C 0.73988 0.63332 0.64169 0.0
C5452 C 0.72928 0.63838 0.64322 0.0
C5453 C 0.72076 0.6326 0.64902 0.0
C5454 C 0.72277 0.6217 0.65321 0.0
C5455 C 0.73719 0.58283 0.70247 0.0
C5456 C 0.72636 0.58569 0.70658 0.0
C5457 C 0.73998 0.5845 0.69105 0.0
C5458 C 0.73198 0.58898 0.68349 0.0
C5459 C 0.72112 0.59163 0.68757 0.0
C5460 C 0.71834 0.59 0.69894 0.0
C5461 C 0.73486 0.59119 0.67139 0.0
C5462 C 0.73304 0.60209 0.66698 0.0
C5463 C 0.73925 0.5827 0.6642 0.0
C5464 C 0.74098 0.57093 0.6682 0.0
C5465 C 0.732 0.56482 0.67306 0.0
C5466 C 0.73376 0.5538 0.67703 0.0
C5467 C 0.74442 0.54876 0.67608 0.0
C5468 C 0.75334 0.5547 0.67111 0.0
C5469 C 0.75164 0.56574 0.66716 0.0
H5470 H 0.74576 0.54023 0.67916 0.0
H5471 H 0.72769 0.64679 0.63992 0.0
loop_
_geom_bond_atom_site_label_1
_geom_bond_atom_site_label_2
_geom_bond_distance
_geom_bond_site_symmetry_2
_ccdc_geom_bond_type
O0 Cd1 2.223 1_655 S
O0 C8 1.315 . S
Cd1 O0 2.223 1_455 S
Cd1 O4 2.297 1_455 S
Cd1 O5 2.439 1_455 S
Cd1 O11 2.240 . S
Cd2 O3 2.240 . S
Cd2 O10 2.223 1_655 S
Cd2 O12 2.297 1_655 S
Cd2 O13 2.439 1_655 S
O3 Cd2 2.240 . S
O3 C8 1.279 . S
O4 Cd1 2.297 1_655 S
O4 C6 1.247 . S
O5 Cd1 2.439 1_655 S
O5 C6 1.208 . S
C6 O4 1.247 . S
C6 O5 1.208 . S
C7 O12 1.247 . S
C7 O13 1.208 . S
C8 O0 1.315 . S
C8 O3 1.279 . S
C9 O10 1.315 . S
C9 O11 1.279 . S
O10 Cd2 2.223 1_455 S
O10 C9 1.315 . S
O11 Cd1 2.240 . S
O11 C9 1.279 . S
O12 Cd2 2.297 1_455 S
O12 C7 1.247 . S
O13 Cd2 2.439 1_455 S
O13 C7 1.208 . S
O14 Cd15 2.223 . S
O14 C22 1.315 . S
Cd15 O14 2.223 . S
Cd15 O18 2.297 . S
Cd15 O19 2.439 . S
Cd15 O25 2.240 1_655 S
Cd16 O17 2.239 1_455 S
Cd16 O24 2.223 . S
Cd16 O26 2.297 . S
Cd16 O27 2.439 . S
O17 Cd16 2.239 1_655 S
O17 C22 1.279 . S
O18 Cd15 2.297 . S
O18 C20 1.247 . S
O19 Cd15 2.439 . S
O19 C20 1.208 . S
C20 O18 1.247 . S
C20 O19 1.208 . S
C21 O26 1.247 . S
C21 O27 1.208 . S
C22 O14 1.315 . S
C22 O17 1.279 . S
C23 O24 1.315 . S
C23 O25 1.279 . S
O24 Cd16 2.223 . S
O24 C23 1.315 . S
O25 Cd15 2.240 1_455 S
O25 C23 1.279 . S
O26 Cd16 2.297 . S
O26 C21 1.247 . S
O27 Cd16 2.439 . S
O27 C21 1.208 . S
O28 Cd29 2.223 . S
O28 C36 1.315 . S
Cd29 O28 2.223 . S
Cd29 O32 2.297 . S
Cd29 O33 2.439 . S
Cd29 O39 2.240 . S
Cd30 O31 2.240 . S
Cd30 O38 2.223 . S
Cd30 O40 2.297 . S
Cd30 O41 2.439 . S
O31 Cd30 2.240 . S
O31 C36 1.279 . S
O32 Cd29 2.297 . S
O32 C34 1.247 . S
O33 Cd29 2.439 . S
O33 C34 1.208 . S
C34 O32 1.247 . S
C34 O33 1.208 . S
C35 O40 1.247 . S
C35 O41 1.208 . S
C36 O28 1.315 . S
C36 O31 1.279 . S
C37 O38 1.315 . S
C37 O39 1.279 . S
O38 Cd30 2.223 . S
O38 C37 1.315 . S
O39 Cd29 2.240 . S
O39 C37 1.279 . S
O40 Cd30 2.297 . S
O40 C35 1.247 . S
O41 Cd30 2.439 . S
O41 C35 1.208 . S
O42 Cd43 2.223 . S
O42 C50 1.315 . S
Cd43 O42 2.223 . S
Cd43 O46 2.297 . S
Cd43 O47 2.439 . S
Cd43 O53 2.240 . S
Cd44 O45 2.240 . S
Cd44 O52 2.223 . S
Cd44 O54 2.297 . S
Cd44 O55 2.439 . S
O45 Cd44 2.240 . S
O45 C50 1.279 . S
O46 Cd43 2.297 . S
O46 C48 1.247 . S
O47 Cd43 2.439 . S
O47 C48 1.208 . S
C48 O46 1.247 . S
C48 O47 1.208 . S
C49 O54 1.247 . S
C49 O55 1.208 . S
C50 O42 1.315 . S
C50 O45 1.279 . S
C51 O52 1.315 . S
C51 O53 1.279 . S
O52 Cd44 2.223 . S
O52 C51 1.315 . S
O53 Cd43 2.240 . S
O53 C51 1.279 . S
O54 Cd44 2.297 . S
O54 C49 1.247 . S
O55 Cd44 2.439 . S
O55 C49 1.208 . S
O56 Cd57 2.223 1_655 S
O56 C64 1.315 . S
Cd57 O56 2.223 1_455 S
Cd57 O60 2.297 1_455 S
Cd57 O61 2.439 1_455 S
Cd57 O67 2.240 . S
Cd58 O59 2.240 . S
Cd58 O66 2.223 1_655 S
Cd58 O68 2.297 1_655 S
Cd58 O69 2.439 1_655 S
O59 Cd58 2.240 . S
O59 C64 1.279 . S
O60 Cd57 2.297 1_655 S
O60 C62 1.247 . S
O61 Cd57 2.439 1_655 S
O61 C62 1.208 . S
C62 O60 1.247 . S
C62 O61 1.208 . S
C63 O68 1.247 . S
C63 O69 1.208 . S
C64 O56 1.315 . S
C64 O59 1.279 . S
C65 O66 1.315 . S
C65 O67 1.279 . S
O66 Cd58 2.223 1_455 S
O66 C65 1.315 . S
O67 Cd57 2.240 . S
O67 C65 1.279 . S
O68 Cd58 2.297 1_455 S
O68 C63 1.247 . S
O69 Cd58 2.439 1_455 S
O69 C63 1.208 . S
O70 Cd71 2.223 . S
O70 C78 1.315 . S
Cd71 O70 2.223 . S
Cd71 O74 2.297 . S
Cd71 O75 2.439 . S
Cd71 O81 2.240 . S
Cd72 O73 2.240 . S
Cd72 O80 2.223 . S
Cd72 O82 2.297 . S
Cd72 O83 2.439 . S
O73 Cd72 2.240 . S
O73 C78 1.279 . S
O74 Cd71 2.297 . S
O74 C76 1.247 . S
O75 Cd71 2.439 . S
O75 C76 1.208 . S
C76 O74 1.247 . S
C76 O75 1.208 . S
C77 O82 1.247 . S
C77 O83 1.208 . S
C78 O70 1.315 . S
C78 O73 1.279 . S
C79 O80 1.315 . S
C79 O81 1.279 . S
O80 Cd72 2.223 . S
O80 C79 1.315 . S
O81 Cd71 2.240 . S
O81 C79 1.279 . S
O82 Cd72 2.297 . S
O82 C77 1.247 . S
O83 Cd72 2.439 . S
O83 C77 1.208 . S
O84 Cd85 2.223 . S
O84 C92 1.315 . S
Cd85 O84 2.223 . S
Cd85 O88 2.297 . S
Cd85 O89 2.439 . S
Cd85 O95 2.240 . S
Cd86 O87 2.240 . S
Cd86 O94 2.223 . S
Cd86 O96 2.297 . S
Cd86 O97 2.439 . S
O87 Cd86 2.240 . S
O87 C92 1.279 . S
O88 Cd85 2.297 . S
O88 C90 1.247 . S
O89 Cd85 2.439 . S
O89 C90 1.208 . S
C90 O88 1.247 . S
C90 O89 1.208 . S
C91 O96 1.247 . S
C91 O97 1.208 . S
C92 O84 1.315 . S
C92 O87 1.279 . S
C93 O94 1.315 . S
C93 O95 1.279 . S
O94 Cd86 2.223 . S
O94 C93 1.315 . S
O95 Cd85 2.240 . S
O95 C93 1.279 . S
O96 Cd86 2.297 . S
O96 C91 1.247 . S
O97 Cd86 2.439 . S
O97 C91 1.208 . S
O98 Cd99 2.223 . S
O98 C106 1.315 . S
Cd99 O98 2.223 . S
Cd99 O102 2.297 . S
Cd99 O103 2.439 . S
Cd99 O109 2.240 1_655 S
Cd100 O101 2.236 . S
Cd100 O108 2.223 . S
Cd100 O110 2.297 . S
Cd100 O111 2.439 . S
O101 Cd100 2.236 . S
O101 C106 1.280 1_455 S
O102 Cd99 2.297 . S
O102 C104 1.247 . S
O103 Cd99 2.439 . S
O103 C104 1.208 . S
C104 O102 1.247 . S
C104 O103 1.208 . S
C105 O110 1.247 . S
C105 O111 1.208 . S
C106 O98 1.315 . S
C106 O101 1.280 1_655 S
C107 O108 1.315 . S
C107 O109 1.279 . S
O108 Cd100 2.223 . S
O108 C107 1.315 . S
O109 Cd99 2.240 1_455 S
O109 C107 1.279 . S
O110 Cd100 2.297 . S
O110 C105 1.247 . S
O111 Cd100 2.439 . S
O111 C105 1.208 . S
O112 Cd113 2.223 1_565 S
O112 C120 1.315 . S
Cd113 O112 2.223 1_545 S
Cd113 O116 2.297 1_545 S
Cd113 O117 2.439 1_545 S
Cd113 O123 2.240 . S
Cd114 O115 2.240 . S
Cd114 O122 2.223 1_565 S
Cd114 O124 2.297 1_565 S
Cd114 O125 2.439 1_565 S
O115 Cd114 2.240 . S
O115 C120 1.279 . S
O116 Cd113 2.297 1_565 S
O116 C118 1.247 . S
O117 Cd113 2.439 1_565 S
O117 C118 1.208 . S
C118 O116 1.247 . S
C118 O117 1.208 . S
C119 O124 1.247 . S
C119 O125 1.208 . S
C120 O112 1.315 . S
C120 O115 1.279 . S
C121 O122 1.315 . S
C121 O123 1.279 . S
O122 Cd114 2.223 1_545 S
O122 C121 1.315 . S
O123 Cd113 2.240 . S
O123 C121 1.279 . S
O124 Cd114 2.297 1_545 S
O124 C119 1.247 . S
O125 Cd114 2.439 1_545 S
O125 C119 1.208 . S
O126 Cd127 2.223 . S
O126 C134 1.315 . S
Cd127 O126 2.223 . S
Cd127 O130 2.297 . S
Cd127 O131 2.439 . S
Cd127 O137 2.240 . S
Cd128 O129 2.240 . S
Cd128 O136 2.223 . S
Cd128 O138 2.297 . S
Cd128 O139 2.439 . S
O129 Cd128 2.240 . S
O129 C134 1.279 . S
O130 Cd127 2.297 . S
O130 C132 1.247 . S
O131 Cd127 2.439 . S
O131 C132 1.208 . S
C132 O130 1.247 . S
C132 O131 1.208 . S
C133 O138 1.247 . S
C133 O139 1.208 . S
C134 O126 1.315 . S
C134 O129 1.279 . S
C135 O136 1.315 . S
C135 O137 1.279 . S
O136 Cd128 2.223 . S
O136 C135 1.315 . S
O137 Cd127 2.240 . S
O137 C135 1.279 . S
O138 Cd128 2.297 . S
O138 C133 1.247 . S
O139 Cd128 2.439 . S
O139 C133 1.208 . S
O140 Cd141 2.223 . S
O140 C148 1.315 . S
Cd141 O140 2.223 . S
Cd141 O144 2.297 . S
Cd141 O145 2.439 . S
Cd141 O151 2.240 . S
Cd142 O143 2.240 . S
Cd142 O150 2.223 . S
Cd142 O152 2.297 . S
Cd142 O153 2.439 . S
O143 Cd142 2.240 . S
O143 C148 1.279 . S
O144 Cd141 2.297 . S
O144 C146 1.247 . S
O145 Cd141 2.439 . S
O145 C146 1.208 . S
C146 O144 1.247 . S
C146 O145 1.208 . S
C147 O152 1.247 . S
C147 O153 1.208 . S
C148 O140 1.315 . S
C148 O143 1.279 . S
C149 O150 1.315 . S
C149 O151 1.279 . S
O150 Cd142 2.223 . S
O150 C149 1.315 . S
O151 Cd141 2.240 . S
O151 C149 1.279 . S
O152 Cd142 2.297 . S
O152 C147 1.247 . S
O153 Cd142 2.439 . S
O153 C147 1.208 . S
O154 Cd155 2.223 . S
O154 C162 1.315 . S
Cd155 O154 2.223 . S
Cd155 O158 2.297 . S
Cd155 O159 2.439 . S
Cd155 O165 2.240 . S
Cd156 O157 2.240 . S
Cd156 O164 2.223 . S
Cd156 O166 2.297 . S
Cd156 O167 2.439 . S
O157 Cd156 2.240 . S
O157 C162 1.279 . S
O158 Cd155 2.297 . S
O158 C160 1.247 . S
O159 Cd155 2.439 . S
O159 C160 1.208 . S
C160 O158 1.247 . S
C160 O159 1.208 . S
C161 O166 1.247 . S
C161 O167 1.208 . S
C162 O154 1.315 . S
C162 O157 1.279 . S
C163 O164 1.315 . S
C163 O165 1.279 . S
O164 Cd156 2.223 . S
O164 C163 1.315 . S
O165 Cd155 2.240 . S
O165 C163 1.279 . S
O166 Cd156 2.297 . S
O166 C161 1.247 . S
O167 Cd156 2.439 . S
O167 C161 1.208 . S
O168 Cd169 2.223 . S
O168 C176 1.315 . S
Cd169 O168 2.223 . S
Cd169 O172 2.297 . S
Cd169 O173 2.439 . S
Cd169 O179 2.240 . S
Cd170 O171 2.240 . S
Cd170 O178 2.223 . S
Cd170 O180 2.297 . S
Cd170 O181 2.439 . S
O171 Cd170 2.240 . S
O171 C176 1.279 . S
O172 Cd169 2.297 . S
O172 C174 1.247 . S
O173 Cd169 2.439 . S
O173 C174 1.208 . S
C174 O172 1.247 . S
C174 O173 1.208 . S
C175 O180 1.247 . S
C175 O181 1.208 . S
C176 O168 1.315 . S
C176 O171 1.279 . S
C177 O178 1.315 . S
C177 O179 1.279 . S
O178 Cd170 2.223 . S
O178 C177 1.315 . S
O179 Cd169 2.240 . S
O179 C177 1.279 . S
O180 Cd170 2.297 . S
O180 C175 1.247 . S
O181 Cd170 2.439 . S
O181 C175 1.208 . S
O182 Cd183 2.223 . S
O182 C190 1.315 . S
Cd183 O182 2.223 . S
Cd183 O186 2.297 . S
Cd183 O187 2.439 . S
Cd183 O193 2.240 . S
Cd184 O185 2.240 . S
Cd184 O192 2.223 . S
Cd184 O194 2.297 . S
Cd184 O195 2.439 . S
O185 Cd184 2.240 . S
O185 C190 1.279 . S
O186 Cd183 2.297 . S
O186 C188 1.247 . S
O187 Cd183 2.439 . S
O187 C188 1.208 . S
C188 O186 1.247 . S
C188 O187 1.208 . S
C189 O194 1.247 . S
C189 O195 1.208 . S
C190 O182 1.315 . S
C190 O185 1.279 . S
C191 O192 1.315 . S
C191 O193 1.279 . S
O192 Cd184 2.223 . S
O192 C191 1.315 . S
O193 Cd183 2.240 . S
O193 C191 1.279 . S
O194 Cd184 2.297 . S
O194 C189 1.247 . S
O195 Cd184 2.439 . S
O195 C189 1.208 . S
O196 Cd197 2.223 1_565 S
O196 C204 1.315 . S
Cd197 O196 2.223 1_545 S
Cd197 O200 2.297 1_545 S
Cd197 O201 2.439 1_545 S
Cd197 O207 2.240 . S
Cd198 O199 2.240 . S
Cd198 O206 2.223 1_565 S
Cd198 O208 2.297 1_565 S
Cd198 O209 2.439 1_565 S
O199 Cd198 2.240 . S
O199 C204 1.279 . S
O200 Cd197 2.297 1_565 S
O200 C202 1.247 . S
O201 Cd197 2.439 1_565 S
O201 C202 1.208 . S
C202 O200 1.247 . S
C202 O201 1.208 . S
C203 O208 1.247 . S
C203 O209 1.208 . S
C204 O196 1.315 . S
C204 O199 1.279 . S
C205 O206 1.315 . S
C205 O207 1.279 . S
O206 Cd198 2.223 1_545 S
O206 C205 1.315 . S
O207 Cd197 2.240 . S
O207 C205 1.279 . S
O208 Cd198 2.297 1_545 S
O208 C203 1.247 . S
O209 Cd198 2.439 1_545 S
O209 C203 1.208 . S
O210 Cd211 2.223 . S
O210 C218 1.315 . S
Cd211 O210 2.223 . S
Cd211 O214 2.297 . S
Cd211 O215 2.439 . S
Cd211 O221 2.240 1_556 S
Cd212 O213 2.236 . S
Cd212 O220 2.223 . S
Cd212 O222 2.297 . S
Cd212 O223 2.439 . S
O213 Cd212 2.236 . S
O213 C218 1.280 1_554 S
O214 Cd211 2.297 . S
O214 C216 1.247 . S
O215 Cd211 2.439 . S
O215 C216 1.208 . S
C216 O214 1.247 . S
C216 O215 1.208 . S
C217 O222 1.247 . S
C217 O223 1.208 . S
C218 O210 1.315 . S
C218 O213 1.280 1_556 S
C219 O220 1.315 . S
C219 O221 1.279 . S
O220 Cd212 2.223 . S
O220 C219 1.315 . S
O221 Cd211 2.240 1_554 S
O221 C219 1.279 . S
O222 Cd212 2.297 . S
O222 C217 1.247 . S
O223 Cd212 2.439 . S
O223 C217 1.208 . S
O224 Cd225 2.223 1_556 S
O224 C232 1.315 . S
Cd225 O224 2.223 1_554 S
Cd225 O228 2.297 1_554 S
Cd225 O229 2.439 1_554 S
Cd225 O235 2.240 . S
Cd226 O227 2.240 . S
Cd226 O234 2.223 1_556 S
Cd226 O236 2.297 1_556 S
Cd226 O237 2.439 1_556 S
O227 Cd226 2.240 . S
O227 C232 1.279 . S
O228 Cd225 2.297 1_556 S
O228 C230 1.247 . S
O229 Cd225 2.439 1_556 S
O229 C230 1.208 . S
C230 O228 1.247 . S
C230 O229 1.208 . S
C231 O236 1.247 . S
C231 O237 1.208 . S
C232 O224 1.315 . S
C232 O227 1.279 . S
C233 O234 1.315 . S
C233 O235 1.279 . S
O234 Cd226 2.223 1_554 S
O234 C233 1.315 . S
O235 Cd225 2.240 . S
O235 C233 1.279 . S
O236 Cd226 2.297 1_554 S
O236 C231 1.247 . S
O237 Cd226 2.439 1_554 S
O237 C231 1.208 . S
O238 Cd239 2.223 . S
O238 C246 1.315 . S
Cd239 O238 2.223 . S
Cd239 O242 2.297 . S
Cd239 O243 2.439 . S
Cd239 O249 2.240 . S
Cd240 O241 2.240 . S
Cd240 O248 2.223 . S
Cd240 O250 2.297 . S
Cd240 O251 2.439 . S
O241 Cd240 2.240 . S
O241 C246 1.279 . S
O242 Cd239 2.297 . S
O242 C244 1.247 . S
O243 Cd239 2.439 . S
O243 C244 1.208 . S
C244 O242 1.247 . S
C244 O243 1.208 . S
C245 O250 1.247 . S
C245 O251 1.208 . S
C246 O238 1.315 . S
C246 O241 1.279 . S
C247 O248 1.315 . S
C247 O249 1.279 . S
O248 Cd240 2.223 . S
O248 C247 1.315 . S
O249 Cd239 2.240 . S
O249 C247 1.279 . S
O250 Cd240 2.297 . S
O250 C245 1.247 . S
O251 Cd240 2.439 . S
O251 C245 1.208 . S
O252 Cd253 2.223 . S
O252 C260 1.315 . S
Cd253 O252 2.223 . S
Cd253 O256 2.297 . S
Cd253 O257 2.439 . S
Cd253 O263 2.240 . S
Cd254 O255 2.240 . S
Cd254 O262 2.223 . S
Cd254 O264 2.297 . S
Cd254 O265 2.439 . S
O255 Cd254 2.240 . S
O255 C260 1.279 . S
O256 Cd253 2.297 . S
O256 C258 1.247 . S
O257 Cd253 2.439 . S
O257 C258 1.208 . S
C258 O256 1.247 . S
C258 O257 1.208 . S
C259 O264 1.247 . S
C259 O265 1.208 . S
C260 O252 1.315 . S
C260 O255 1.279 . S
C261 O262 1.315 . S
C261 O263 1.279 . S
O262 Cd254 2.223 . S
O262 C261 1.315 . S
O263 Cd253 2.240 . S
O263 C261 1.279 . S
O264 Cd254 2.297 . S
O264 C259 1.247 . S
O265 Cd254 2.439 . S
O265 C259 1.208 . S
O266 Cd267 2.223 . S
O266 C274 1.315 . S
Cd267 O266 2.223 . S
Cd267 O270 2.297 . S
Cd267 O271 2.439 . S
Cd267 O277 2.240 . S
Cd268 O269 2.240 . S
Cd268 O276 2.223 . S
Cd268 O278 2.297 . S
Cd268 O279 2.439 . S
O269 Cd268 2.240 . S
O269 C274 1.279 . S
O270 Cd267 2.297 . S
O270 C272 1.247 . S
O271 Cd267 2.439 . S
O271 C272 1.208 . S
C272 O270 1.247 . S
C272 O271 1.208 . S
C273 O278 1.247 . S
C273 O279 1.208 . S
C274 O266 1.315 . S
C274 O269 1.279 . S
C275 O276 1.315 . S
C275 O277 1.279 . S
O276 Cd268 2.223 . S
O276 C275 1.315 . S
O277 Cd267 2.240 . S
O277 C275 1.279 . S
O278 Cd268 2.297 . S
O278 C273 1.247 . S
O279 Cd268 2.439 . S
O279 C273 1.208 . S
O280 Cd281 2.223 . S
O280 C288 1.315 . S
Cd281 O280 2.223 . S
Cd281 O284 2.297 . S
Cd281 O285 2.439 . S
Cd281 O291 2.240 1_565 S
Cd282 O283 2.236 . S
Cd282 O290 2.223 . S
Cd282 O292 2.297 . S
Cd282 O293 2.439 . S
O283 Cd282 2.236 . S
O283 C288 1.280 1_545 S
O284 Cd281 2.297 . S
O284 C286 1.247 . S
O285 Cd281 2.439 . S
O285 C286 1.208 . S
C286 O284 1.247 . S
C286 O285 1.208 . S
C287 O292 1.247 . S
C287 O293 1.208 . S
C288 O280 1.315 . S
C288 O283 1.280 1_565 S
C289 O290 1.315 . S
C289 O291 1.279 . S
O290 Cd282 2.223 . S
O290 C289 1.315 . S
O291 Cd281 2.240 1_545 S
O291 C289 1.279 . S
O292 Cd282 2.297 . S
O292 C287 1.247 . S
O293 Cd282 2.439 . S
O293 C287 1.208 . S
O294 Cd295 2.223 . S
O294 C302 1.315 . S
Cd295 O294 2.223 . S
Cd295 O298 2.297 . S
Cd295 O299 2.439 . S
Cd295 O305 2.240 . S
Cd296 O297 2.240 . S
Cd296 O304 2.223 . S
Cd296 O306 2.297 . S
Cd296 O307 2.439 . S
O297 Cd296 2.240 . S
O297 C302 1.279 . S
O298 Cd295 2.297 . S
O298 C300 1.247 . S
O299 Cd295 2.439 . S
O299 C300 1.208 . S
C300 O298 1.247 . S
C300 O299 1.208 . S
C301 O306 1.247 . S
C301 O307 1.208 . S
C302 O294 1.315 . S
C302 O297 1.279 . S
C303 O304 1.315 . S
C303 O305 1.279 . S
O304 Cd296 2.223 . S
O304 C303 1.315 . S
O305 Cd295 2.240 . S
O305 C303 1.279 . S
O306 Cd296 2.297 . S
O306 C301 1.247 . S
O307 Cd296 2.439 . S
O307 C301 1.208 . S
O308 Cd309 2.223 . S
O308 C316 1.315 . S
Cd309 O308 2.223 . S
Cd309 O312 2.297 . S
Cd309 O313 2.439 . S
Cd309 O319 2.240 . S
Cd310 O311 2.240 . S
Cd310 O318 2.223 . S
Cd310 O320 2.297 . S
Cd310 O321 2.439 . S
O311 Cd310 2.240 . S
O311 C316 1.279 . S
O312 Cd309 2.297 . S
O312 C314 1.247 . S
O313 Cd309 2.439 . S
O313 C314 1.208 . S
C314 O312 1.247 . S
C314 O313 1.208 . S
C315 O320 1.247 . S
C315 O321 1.208 . S
C316 O308 1.315 . S
C316 O311 1.279 . S
C317 O318 1.315 . S
C317 O319 1.279 . S
O318 Cd310 2.223 . S
O318 C317 1.315 . S
O319 Cd309 2.240 . S
O319 C317 1.279 . S
O320 Cd310 2.297 . S
O320 C315 1.247 . S
O321 Cd310 2.439 . S
O321 C315 1.208 . S
O322 Cd323 2.223 . S
O322 C330 1.315 . S
Cd323 O322 2.223 . S
Cd323 O326 2.297 . S
Cd323 O327 2.439 . S
Cd323 O333 2.240 . S
Cd324 O325 2.240 . S
Cd324 O332 2.223 . S
Cd324 O334 2.297 . S
Cd324 O335 2.439 . S
O325 Cd324 2.240 . S
O325 C330 1.279 . S
O326 Cd323 2.297 . S
O326 C328 1.247 . S
O327 Cd323 2.439 . S
O327 C328 1.208 . S
C328 O326 1.247 . S
C328 O327 1.208 . S
C329 O334 1.247 . S
C329 O335 1.208 . S
C330 O322 1.315 . S
C330 O325 1.279 . S
C331 O332 1.315 . S
C331 O333 1.279 . S
O332 Cd324 2.223 . S
O332 C331 1.315 . S
O333 Cd323 2.240 . S
O333 C331 1.279 . S
O334 Cd324 2.297 . S
O334 C329 1.247 . S
O335 Cd324 2.439 . S
O335 C329 1.208 . S
O336 Cd337 2.223 . S
O336 C344 1.315 . S
Cd337 O336 2.223 . S
Cd337 O340 2.297 . S
Cd337 O341 2.439 . S
Cd337 O347 2.240 . S
Cd338 O339 2.240 . S
Cd338 O346 2.223 . S
Cd338 O348 2.297 . S
Cd338 O349 2.439 . S
O339 Cd338 2.240 . S
O339 C344 1.279 . S
O340 Cd337 2.297 . S
O340 C342 1.247 . S
O341 Cd337 2.439 . S
O341 C342 1.208 . S
C342 O340 1.247 . S
C342 O341 1.208 . S
C343 O348 1.247 . S
C343 O349 1.208 . S
C344 O336 1.315 . S
C344 O339 1.279 . S
C345 O346 1.315 . S
C345 O347 1.279 . S
O346 Cd338 2.223 . S
O346 C345 1.315 . S
O347 Cd337 2.240 . S
O347 C345 1.279 . S
O348 Cd338 2.297 . S
O348 C343 1.247 . S
O349 Cd338 2.439 . S
O349 C343 1.208 . S
O350 Cd351 2.223 . S
O350 C358 1.315 . S
Cd351 O350 2.223 . S
Cd351 O354 2.297 . S
Cd351 O355 2.439 . S
Cd351 O361 2.240 . S
Cd352 O353 2.240 . S
Cd352 O360 2.223 . S
Cd352 O362 2.297 . S
Cd352 O363 2.439 . S
O353 Cd352 2.240 . S
O353 C358 1.279 . S
O354 Cd351 2.297 . S
O354 C356 1.247 . S
O355 Cd351 2.439 . S
O355 C356 1.208 . S
C356 O354 1.247 . S
C356 O355 1.208 . S
C357 O362 1.247 . S
C357 O363 1.208 . S
C358 O350 1.315 . S
C358 O353 1.279 . S
C359 O360 1.315 . S
C359 O361 1.279 . S
O360 Cd352 2.223 . S
O360 C359 1.315 . S
O361 Cd351 2.240 . S
O361 C359 1.279 . S
O362 Cd352 2.297 . S
O362 C357 1.247 . S
O363 Cd352 2.439 . S
O363 C357 1.208 . S
O364 Cd365 2.223 . S
O364 C372 1.315 . S
Cd365 O364 2.223 . S
Cd365 O368 2.297 . S
Cd365 O369 2.439 . S
Cd365 O375 2.240 . S
Cd366 O367 2.240 . S
Cd366 O374 2.223 . S
Cd366 O376 2.297 . S
Cd366 O377 2.439 . S
O367 Cd366 2.240 . S
O367 C372 1.279 . S
O368 Cd365 2.297 . S
O368 C370 1.247 . S
O369 Cd365 2.439 . S
O369 C370 1.208 . S
C370 O368 1.247 . S
C370 O369 1.208 . S
C371 O376 1.247 . S
C371 O377 1.208 . S
C372 O364 1.315 . S
C372 O367 1.279 . S
C373 O374 1.315 . S
C373 O375 1.279 . S
O374 Cd366 2.223 . S
O374 C373 1.315 . S
O375 Cd365 2.240 . S
O375 C373 1.279 . S
O376 Cd366 2.297 . S
O376 C371 1.247 . S
O377 Cd366 2.439 . S
O377 C371 1.208 . S
O378 Cd379 2.223 . S
O378 C386 1.315 . S
Cd379 O378 2.223 . S
Cd379 O382 2.297 . S
Cd379 O383 2.439 . S
Cd379 O389 2.240 . S
Cd380 O381 2.240 . S
Cd380 O388 2.223 . S
Cd380 O390 2.297 . S
Cd380 O391 2.439 . S
O381 Cd380 2.240 . S
O381 C386 1.279 . S
O382 Cd379 2.297 . S
O382 C384 1.247 . S
O383 Cd379 2.439 . S
O383 C384 1.208 . S
C384 O382 1.247 . S
C384 O383 1.208 . S
C385 O390 1.247 . S
C385 O391 1.208 . S
C386 O378 1.315 . S
C386 O381 1.279 . S
C387 O388 1.315 . S
C387 O389 1.279 . S
O388 Cd380 2.223 . S
O388 C387 1.315 . S
O389 Cd379 2.240 . S
O389 C387 1.279 . S
O390 Cd380 2.297 . S
O390 C385 1.247 . S
O391 Cd380 2.439 . S
O391 C385 1.208 . S
O392 Cd393 2.223 . S
O392 C400 1.315 . S
Cd393 O392 2.223 . S
Cd393 O396 2.297 . S
Cd393 O397 2.439 . S
Cd393 O403 2.240 . S
Cd394 O395 2.240 . S
Cd394 O402 2.223 . S
Cd394 O404 2.297 . S
Cd394 O405 2.439 . S
O395 Cd394 2.240 . S
O395 C400 1.279 . S
O396 Cd393 2.297 . S
O396 C398 1.247 . S
O397 Cd393 2.439 . S
O397 C398 1.208 . S
C398 O396 1.247 . S
C398 O397 1.208 . S
C399 O404 1.247 . S
C399 O405 1.208 . S
C400 O392 1.315 . S
C400 O395 1.279 . S
C401 O402 1.315 . S
C401 O403 1.279 . S
O402 Cd394 2.223 . S
O402 C401 1.315 . S
O403 Cd393 2.240 . S
O403 C401 1.279 . S
O404 Cd394 2.297 . S
O404 C399 1.247 . S
O405 Cd394 2.439 . S
O405 C399 1.208 . S
O406 Cd407 2.223 . S
O406 C414 1.315 . S
Cd407 O406 2.223 . S
Cd407 O410 2.297 . S
Cd407 O411 2.439 . S
Cd407 O417 2.240 . S
Cd408 O409 2.240 . S
Cd408 O416 2.223 . S
Cd408 O418 2.297 . S
Cd408 O419 2.439 . S
O409 Cd408 2.240 . S
O409 C414 1.279 . S
O410 Cd407 2.297 . S
O410 C412 1.247 . S
O411 Cd407 2.439 . S
O411 C412 1.208 . S
C412 O410 1.247 . S
C412 O411 1.208 . S
C413 O418 1.247 . S
C413 O419 1.208 . S
C414 O406 1.315 . S
C414 O409 1.279 . S
C415 O416 1.315 . S
C415 O417 1.279 . S
O416 Cd408 2.223 . S
O416 C415 1.315 . S
O417 Cd407 2.240 . S
O417 C415 1.279 . S
O418 Cd408 2.297 . S
O418 C413 1.247 . S
O419 Cd408 2.439 . S
O419 C413 1.208 . S
O420 Cd421 2.223 . S
O420 C428 1.315 . S
Cd421 O420 2.223 . S
Cd421 O424 2.297 . S
Cd421 O425 2.439 . S
Cd421 O431 2.240 . S
Cd422 O423 2.240 . S
Cd422 O430 2.223 . S
Cd422 O432 2.297 . S
Cd422 O433 2.439 . S
O423 Cd422 2.240 . S
O423 C428 1.279 . S
O424 Cd421 2.297 . S
O424 C426 1.247 . S
O425 Cd421 2.439 . S
O425 C426 1.208 . S
C426 O424 1.247 . S
C426 O425 1.208 . S
C427 O432 1.247 . S
C427 O433 1.208 . S
C428 O420 1.315 . S
C428 O423 1.279 . S
C429 O430 1.315 . S
C429 O431 1.279 . S
O430 Cd422 2.223 . S
O430 C429 1.315 . S
O431 Cd421 2.240 . S
O431 C429 1.279 . S
O432 Cd422 2.297 . S
O432 C427 1.247 . S
O433 Cd422 2.439 . S
O433 C427 1.208 . S
O434 Cd435 2.223 . S
O434 C442 1.315 . S
Cd435 O434 2.223 . S
Cd435 O438 2.297 . S
Cd435 O439 2.439 . S
Cd435 O445 2.240 . S
Cd436 O437 2.240 . S
Cd436 O444 2.223 . S
Cd436 O446 2.297 . S
Cd436 O447 2.439 . S
O437 Cd436 2.240 . S
O437 C442 1.279 . S
O438 Cd435 2.297 . S
O438 C440 1.247 . S
O439 Cd435 2.439 . S
O439 C440 1.208 . S
C440 O438 1.247 . S
C440 O439 1.208 . S
C441 O446 1.247 . S
C441 O447 1.208 . S
C442 O434 1.315 . S
C442 O437 1.279 . S
C443 O444 1.315 . S
C443 O445 1.279 . S
O444 Cd436 2.223 . S
O444 C443 1.315 . S
O445 Cd435 2.240 . S
O445 C443 1.279 . S
O446 Cd436 2.297 . S
O446 C441 1.247 . S
O447 Cd436 2.439 . S
O447 C441 1.208 . S
O448 Cd449 2.223 . S
O448 C456 1.315 . S
Cd449 O448 2.223 . S
Cd449 O452 2.297 . S
Cd449 O453 2.439 . S
Cd449 O459 2.240 . S
Cd450 O451 2.240 . S
Cd450 O458 2.223 . S
Cd450 O460 2.297 . S
Cd450 O461 2.439 . S
O451 Cd450 2.240 . S
O451 C456 1.279 . S
O452 Cd449 2.297 . S
O452 C454 1.247 . S
O453 Cd449 2.439 . S
O453 C454 1.208 . S
C454 O452 1.247 . S
C454 O453 1.208 . S
C455 O460 1.247 . S
C455 O461 1.208 . S
C456 O448 1.315 . S
C456 O451 1.279 . S
C457 O458 1.315 . S
C457 O459 1.279 . S
O458 Cd450 2.223 . S
O458 C457 1.315 . S
O459 Cd449 2.240 . S
O459 C457 1.279 . S
O460 Cd450 2.297 . S
O460 C455 1.247 . S
O461 Cd450 2.439 . S
O461 C455 1.208 . S
O462 Cd463 2.223 . S
O462 C470 1.315 . S
Cd463 O462 2.223 . S
Cd463 O466 2.297 . S
Cd463 O467 2.439 . S
Cd463 O473 2.240 . S
Cd464 O465 2.240 . S
Cd464 O472 2.223 . S
Cd464 O474 2.297 . S
Cd464 O475 2.439 . S
O465 Cd464 2.240 . S
O465 C470 1.279 . S
O466 Cd463 2.297 . S
O466 C468 1.247 . S
O467 Cd463 2.439 . S
O467 C468 1.208 . S
C468 O466 1.247 . S
C468 O467 1.208 . S
C469 O474 1.247 . S
C469 O475 1.208 . S
C470 O462 1.315 . S
C470 O465 1.279 . S
C471 O472 1.315 . S
C471 O473 1.279 . S
O472 Cd464 2.223 . S
O472 C471 1.315 . S
O473 Cd463 2.240 . S
O473 C471 1.279 . S
O474 Cd464 2.297 . S
O474 C469 1.247 . S
O475 Cd464 2.439 . S
O475 C469 1.208 . S
O476 Cd477 2.223 . S
O476 C484 1.315 . S
Cd477 O476 2.223 . S
Cd477 O480 2.297 . S
Cd477 O481 2.439 . S
Cd477 O487 2.240 . S
Cd478 O479 2.240 . S
Cd478 O486 2.223 . S
Cd478 O488 2.297 . S
Cd478 O489 2.439 . S
O479 Cd478 2.240 . S
O479 C484 1.279 . S
O480 Cd477 2.297 . S
O480 C482 1.247 . S
O481 Cd477 2.439 . S
O481 C482 1.208 . S
C482 O480 1.247 . S
C482 O481 1.208 . S
C483 O488 1.247 . S
C483 O489 1.208 . S
C484 O476 1.315 . S
C484 O479 1.279 . S
C485 O486 1.315 . S
C485 O487 1.279 . S
O486 Cd478 2.223 . S
O486 C485 1.315 . S
O487 Cd477 2.240 . S
O487 C485 1.279 . S
O488 Cd478 2.297 . S
O488 C483 1.247 . S
O489 Cd478 2.439 . S
O489 C483 1.208 . S
O490 Cd491 2.223 . S
O490 C498 1.315 . S
Cd491 O490 2.223 . S
Cd491 O494 2.297 . S
Cd491 O495 2.439 . S
Cd491 O501 2.240 . S
Cd492 O493 2.240 . S
Cd492 O500 2.223 . S
Cd492 O502 2.297 . S
Cd492 O503 2.439 . S
O493 Cd492 2.240 . S
O493 C498 1.279 . S
O494 Cd491 2.297 . S
O494 C496 1.247 . S
O495 Cd491 2.439 . S
O495 C496 1.208 . S
C496 O494 1.247 . S
C496 O495 1.208 . S
C497 O502 1.247 . S
C497 O503 1.208 . S
C498 O490 1.315 . S
C498 O493 1.279 . S
C499 O500 1.315 . S
C499 O501 1.279 . S
O500 Cd492 2.223 . S
O500 C499 1.315 . S
O501 Cd491 2.240 . S
O501 C499 1.279 . S
O502 Cd492 2.297 . S
O502 C497 1.247 . S
O503 Cd492 2.439 . S
O503 C497 1.208 . S
O504 Cd505 2.223 . S
O504 C512 1.315 . S
Cd505 O504 2.223 . S
Cd505 O508 2.297 . S
Cd505 O509 2.439 . S
Cd505 O515 2.240 . S
Cd506 O507 2.240 . S
Cd506 O514 2.223 . S
Cd506 O516 2.297 . S
Cd506 O517 2.439 . S
O507 Cd506 2.240 . S
O507 C512 1.279 . S
O508 Cd505 2.297 . S
O508 C510 1.247 . S
O509 Cd505 2.439 . S
O509 C510 1.208 . S
C510 O508 1.247 . S
C510 O509 1.208 . S
C511 O516 1.247 . S
C511 O517 1.208 . S
C512 O504 1.315 . S
C512 O507 1.279 . S
C513 O514 1.315 . S
C513 O515 1.279 . S
O514 Cd506 2.223 . S
O514 C513 1.315 . S
O515 Cd505 2.240 . S
O515 C513 1.279 . S
O516 Cd506 2.297 . S
O516 C511 1.247 . S
O517 Cd506 2.439 . S
O517 C511 1.208 . S
O518 Cd519 2.223 . S
O518 C526 1.315 . S
Cd519 O518 2.223 . S
Cd519 O522 2.297 . S
Cd519 O523 2.439 . S
Cd519 O529 2.240 1_556 S
Cd520 O521 2.239 1_554 S
Cd520 O528 2.223 . S
Cd520 O530 2.297 . S
Cd520 O531 2.439 . S
O521 Cd520 2.239 1_556 S
O521 C526 1.279 . S
O522 Cd519 2.297 . S
O522 C524 1.247 . S
O523 Cd519 2.439 . S
O523 C524 1.208 . S
C524 O522 1.247 . S
C524 O523 1.208 . S
C525 O530 1.247 . S
C525 O531 1.208 . S
C526 O518 1.315 . S
C526 O521 1.279 . S
C527 O528 1.315 . S
C527 O529 1.279 . S
O528 Cd520 2.223 . S
O528 C527 1.315 . S
O529 Cd519 2.240 1_554 S
O529 C527 1.279 . S
O530 Cd520 2.297 . S
O530 C525 1.247 . S
O531 Cd520 2.439 . S
O531 C525 1.208 . S
O532 Cd533 2.223 . S
O532 C540 1.315 . S
Cd533 O532 2.223 . S
Cd533 O536 2.297 . S
Cd533 O537 2.439 . S
Cd533 O543 2.240 . S
Cd534 O535 2.240 . S
Cd534 O542 2.223 . S
Cd534 O544 2.297 . S
Cd534 O545 2.439 . S
O535 Cd534 2.240 . S
O535 C540 1.279 . S
O536 Cd533 2.297 . S
O536 C538 1.247 . S
O537 Cd533 2.439 . S
O537 C538 1.208 . S
C538 O536 1.247 . S
C538 O537 1.208 . S
C539 O544 1.247 . S
C539 O545 1.208 . S
C540 O532 1.315 . S
C540 O535 1.279 . S
C541 O542 1.315 . S
C541 O543 1.279 . S
O542 Cd534 2.223 . S
O542 C541 1.315 . S
O543 Cd533 2.240 . S
O543 C541 1.279 . S
O544 Cd534 2.297 . S
O544 C539 1.247 . S
O545 Cd534 2.439 . S
O545 C539 1.208 . S
O546 Cd547 2.223 . S
O546 C554 1.315 . S
Cd547 O546 2.223 . S
Cd547 O550 2.297 . S
Cd547 O551 2.439 . S
Cd547 O557 2.240 . S
Cd548 O549 2.240 . S
Cd548 O556 2.223 . S
Cd548 O558 2.297 . S
Cd548 O559 2.439 . S
O549 Cd548 2.240 . S
O549 C554 1.279 . S
O550 Cd547 2.297 . S
O550 C552 1.247 . S
O551 Cd547 2.439 . S
O551 C552 1.208 . S
C552 O550 1.247 . S
C552 O551 1.208 . S
C553 O558 1.247 . S
C553 O559 1.208 . S
C554 O546 1.315 . S
C554 O549 1.279 . S
C555 O556 1.315 . S
C555 O557 1.279 . S
O556 Cd548 2.223 . S
O556 C555 1.315 . S
O557 Cd547 2.240 . S
O557 C555 1.279 . S
O558 Cd548 2.297 . S
O558 C553 1.247 . S
O559 Cd548 2.439 . S
O559 C553 1.208 . S
O560 Cd561 2.223 . S
O560 C568 1.315 . S
Cd561 O560 2.223 . S
Cd561 O564 2.297 . S
Cd561 O565 2.439 . S
Cd561 O571 2.240 . S
Cd562 O563 2.240 . S
Cd562 O570 2.223 . S
Cd562 O572 2.297 . S
Cd562 O573 2.439 . S
O563 Cd562 2.240 . S
O563 C568 1.279 . S
O564 Cd561 2.297 . S
O564 C566 1.247 . S
O565 Cd561 2.439 . S
O565 C566 1.208 . S
C566 O564 1.247 . S
C566 O565 1.208 . S
C567 O572 1.247 . S
C567 O573 1.208 . S
C568 O560 1.315 . S
C568 O563 1.279 . S
C569 O570 1.315 . S
C569 O571 1.279 . S
O570 Cd562 2.223 . S
O570 C569 1.315 . S
O571 Cd561 2.240 . S
O571 C569 1.279 . S
O572 Cd562 2.297 . S
O572 C567 1.247 . S
O573 Cd562 2.439 . S
O573 C567 1.208 . S
O574 Cd575 2.223 . S
O574 C582 1.315 . S
Cd575 O574 2.223 . S
Cd575 O578 2.297 . S
Cd575 O579 2.439 . S
Cd575 O585 2.240 . S
Cd576 O577 2.240 . S
Cd576 O584 2.223 . S
Cd576 O586 2.297 . S
Cd576 O587 2.439 . S
O577 Cd576 2.240 . S
O577 C582 1.279 . S
O578 Cd575 2.297 . S
O578 C580 1.247 . S
O579 Cd575 2.439 . S
O579 C580 1.208 . S
C580 O578 1.247 . S
C580 O579 1.208 . S
C581 O586 1.247 . S
C581 O587 1.208 . S
C582 O574 1.315 . S
C582 O577 1.279 . S
C583 O584 1.315 . S
C583 O585 1.279 . S
O584 Cd576 2.223 . S
O584 C583 1.315 . S
O585 Cd575 2.240 . S
O585 C583 1.279 . S
O586 Cd576 2.297 . S
O586 C581 1.247 . S
O587 Cd576 2.439 . S
O587 C581 1.208 . S
O588 Cd589 2.223 . S
O588 C596 1.315 . S
Cd589 O588 2.223 . S
Cd589 O592 2.297 . S
Cd589 O593 2.439 . S
Cd589 O599 2.240 . S
Cd590 O591 2.240 . S
Cd590 O598 2.223 . S
Cd590 O600 2.297 . S
Cd590 O601 2.439 . S
O591 Cd590 2.240 . S
O591 C596 1.279 . S
O592 Cd589 2.297 . S
O592 C594 1.247 . S
O593 Cd589 2.439 . S
O593 C594 1.208 . S
C594 O592 1.247 . S
C594 O593 1.208 . S
C595 O600 1.247 . S
C595 O601 1.208 . S
C596 O588 1.315 . S
C596 O591 1.279 . S
C597 O598 1.315 . S
C597 O599 1.279 . S
O598 Cd590 2.223 . S
O598 C597 1.315 . S
O599 Cd589 2.240 . S
O599 C597 1.279 . S
O600 Cd590 2.297 . S
O600 C595 1.247 . S
O601 Cd590 2.439 . S
O601 C595 1.208 . S
O602 Cd603 2.223 . S
O602 C610 1.315 . S
Cd603 O602 2.223 . S
Cd603 O606 2.297 . S
Cd603 O607 2.439 . S
Cd603 O613 2.240 . S
Cd604 O605 2.240 . S
Cd604 O612 2.223 . S
Cd604 O614 2.297 . S
Cd604 O615 2.439 . S
O605 Cd604 2.240 . S
O605 C610 1.279 . S
O606 Cd603 2.297 . S
O606 C608 1.247 . S
O607 Cd603 2.439 . S
O607 C608 1.208 . S
C608 O606 1.247 . S
C608 O607 1.208 . S
C609 O614 1.247 . S
C609 O615 1.208 . S
C610 O602 1.315 . S
C610 O605 1.279 . S
C611 O612 1.315 . S
C611 O613 1.279 . S
O612 Cd604 2.223 . S
O612 C611 1.315 . S
O613 Cd603 2.240 . S
O613 C611 1.279 . S
O614 Cd604 2.297 . S
O614 C609 1.247 . S
O615 Cd604 2.439 . S
O615 C609 1.208 . S
O616 Cd617 2.223 . S
O616 C624 1.315 . S
Cd617 O616 2.223 . S
Cd617 O620 2.297 . S
Cd617 O621 2.439 . S
Cd617 O627 2.240 . S
Cd618 O619 2.240 . S
Cd618 O626 2.223 . S
Cd618 O628 2.297 . S
Cd618 O629 2.439 . S
O619 Cd618 2.240 . S
O619 C624 1.279 . S
O620 Cd617 2.297 . S
O620 C622 1.247 . S
O621 Cd617 2.439 . S
O621 C622 1.208 . S
C622 O620 1.247 . S
C622 O621 1.208 . S
C623 O628 1.247 . S
C623 O629 1.208 . S
C624 O616 1.315 . S
C624 O619 1.279 . S
C625 O626 1.315 . S
C625 O627 1.279 . S
O626 Cd618 2.223 . S
O626 C625 1.315 . S
O627 Cd617 2.240 . S
O627 C625 1.279 . S
O628 Cd618 2.297 . S
O628 C623 1.247 . S
O629 Cd618 2.439 . S
O629 C623 1.208 . S
O630 Cd631 2.223 1_556 S
O630 C638 1.315 . S
Cd631 O630 2.223 1_554 S
Cd631 O634 2.297 1_554 S
Cd631 O635 2.439 1_554 S
Cd631 O641 2.240 . S
Cd632 O633 2.240 . S
Cd632 O640 2.223 1_556 S
Cd632 O642 2.297 1_556 S
Cd632 O643 2.439 1_556 S
O633 Cd632 2.240 . S
O633 C638 1.279 . S
O634 Cd631 2.297 1_556 S
O634 C636 1.247 . S
O635 Cd631 2.439 1_556 S
O635 C636 1.208 . S
C636 O634 1.247 . S
C636 O635 1.208 . S
C637 O642 1.247 . S
C637 O643 1.208 . S
C638 O630 1.315 . S
C638 O633 1.279 . S
C639 O640 1.315 . S
C639 O641 1.279 . S
O640 Cd632 2.223 1_554 S
O640 C639 1.315 . S
O641 Cd631 2.240 . S
O641 C639 1.279 . S
O642 Cd632 2.297 1_554 S
O642 C637 1.247 . S
O643 Cd632 2.439 1_554 S
O643 C637 1.208 . S
O644 Cd645 2.223 . S
O644 C652 1.315 . S
Cd645 O644 2.223 . S
Cd645 O648 2.297 . S
Cd645 O649 2.439 . S
Cd645 O655 2.240 1_565 S
Cd646 O647 2.239 1_545 S
Cd646 O654 2.223 . S
Cd646 O656 2.297 . S
Cd646 O657 2.439 . S
O647 Cd646 2.239 1_565 S
O647 C652 1.279 . S
O648 Cd645 2.297 . S
O648 C650 1.247 . S
O649 Cd645 2.439 . S
O649 C650 1.208 . S
C650 O648 1.247 . S
C650 O649 1.208 . S
C651 O656 1.247 . S
C651 O657 1.208 . S
C652 O644 1.315 . S
C652 O647 1.279 . S
C653 O654 1.315 . S
C653 O655 1.279 . S
O654 Cd646 2.223 . S
O654 C653 1.315 . S
O655 Cd645 2.240 1_545 S
O655 C653 1.279 . S
O656 Cd646 2.297 . S
O656 C651 1.247 . S
O657 Cd646 2.439 . S
O657 C651 1.208 . S
O658 Cd659 2.223 . S
O658 C666 1.315 . S
Cd659 O658 2.223 . S
Cd659 O662 2.297 . S
Cd659 O663 2.439 . S
Cd659 O669 2.240 . S
Cd660 O661 2.240 . S
Cd660 O668 2.223 . S
Cd660 O670 2.297 . S
Cd660 O671 2.439 . S
O661 Cd660 2.240 . S
O661 C666 1.279 . S
O662 Cd659 2.297 . S
O662 C664 1.247 . S
O663 Cd659 2.439 . S
O663 C664 1.208 . S
C664 O662 1.247 . S
C664 O663 1.208 . S
C665 O670 1.247 . S
C665 O671 1.208 . S
C666 O658 1.315 . S
C666 O661 1.279 . S
C667 O668 1.315 . S
C667 O669 1.279 . S
O668 Cd660 2.223 . S
O668 C667 1.315 . S
O669 Cd659 2.240 . S
O669 C667 1.279 . S
O670 Cd660 2.297 . S
O670 C665 1.247 . S
O671 Cd660 2.439 . S
O671 C665 1.208 . S
H672 C690 0.951 . S
H673 C692 0.951 . S
H674 C694 0.950 . S
H675 C695 0.950 1_655 S
H676 C697 0.950 . S
H677 C700 0.950 . S
H678 C701 0.950 . S
H679 C703 0.950 . S
H680 C704 0.950 . S
H681 C705 0.951 . S
H682 C707 0.951 . S
H683 C709 0.950 . S
H684 C710 0.950 . S
H685 C712 0.950 . S
H686 C715 0.950 . S
H687 C716 0.950 . S
H688 C718 0.950 . S
H689 C719 0.950 . S
C690 H672 0.951 . S
C690 C691 1.366 . S
C690 C692 1.388 . S
C691 C690 1.366 . S
C691 C695 1.385 . S
C692 H673 0.951 . S
C692 C690 1.388 . S
C692 C693 1.366 . S
C693 C692 1.366 . S
C693 C694 1.414 . S
C693 C696 1.499 . S
C694 H674 0.950 . S
C694 C693 1.414 . S
C694 C695 1.374 . S
C695 H675 0.950 1_455 S
C695 C691 1.385 . S
C695 C694 1.374 . S
C696 C693 1.499 . S
C696 C697 1.373 . S
C696 C698 1.389 . S
C697 H676 0.950 . S
C697 C696 1.373 . S
C697 C713 1.377 . S
C698 C696 1.389 . S
C698 C699 1.524 . S
C698 C712 1.377 . S
C699 C698 1.524 . S
C699 C700 1.397 . S
C699 C704 1.363 . S
C700 H677 0.950 . S
C700 C699 1.397 . S
C700 C701 1.334 . S
C701 H678 0.950 . S
C701 C700 1.334 . S
C701 C702 1.287 . S
C702 C701 1.287 . S
C702 C703 1.524 . S
C702 H721 0.913 . S
C703 H679 0.950 . S
C703 C702 1.524 . S
C703 C704 1.415 . S
C704 H680 0.950 . S
C704 C699 1.363 . S
C704 C703 1.415 . S
C705 H681 0.951 . S
C705 C706 1.366 . S
C705 C707 1.388 . S
C706 C705 1.366 . S
C706 C710 1.385 . S
C707 H682 0.951 . S
C707 C705 1.388 . S
C707 C708 1.366 . S
C708 C707 1.366 . S
C708 C709 1.414 . S
C708 C711 1.499 . S
C709 H683 0.950 . S
C709 C708 1.414 . S
C709 C710 1.374 . S
C710 H684 0.950 . S
C710 C706 1.385 . S
C710 C709 1.374 . S
C711 C708 1.499 . S
C711 C712 1.373 . S
C711 C713 1.389 . S
C712 H685 0.950 . S
C712 C698 1.377 . S
C712 C711 1.373 . S
C713 C697 1.377 . S
C713 C711 1.389 . S
C713 C714 1.524 . S
C714 C713 1.524 . S
C714 C715 1.397 . S
C714 C719 1.363 . S
C715 H686 0.950 . S
C715 C714 1.397 . S
C715 C716 1.334 . S
C716 H687 0.950 . S
C716 C715 1.334 . S
C716 C717 1.287 . S
C717 C716 1.287 . S
C717 C718 1.524 . S
C717 H720 0.999 . S
C718 H688 0.950 . S
C718 C717 1.524 . S
C718 C719 1.415 . S
C719 H689 0.950 . S
C719 C714 1.363 . S
C719 C718 1.415 . S
H720 C717 0.999 . S
H721 C702 0.913 . S
H722 C740 0.951 . S
H723 C742 0.951 . S
H724 C744 0.950 . S
H725 C745 0.950 . S
H726 C747 0.950 . S
H727 C750 0.950 . S
H728 C751 0.950 . S
H729 C753 0.950 . S
H730 C754 0.950 . S
H731 C755 0.951 . S
H732 C757 0.951 . S
H733 C759 0.950 . S
H734 C760 0.950 . S
H735 C762 0.950 . S
H736 C765 0.950 . S
H737 C766 0.950 1_655 S
H738 C768 0.950 . S
H739 C769 0.950 . S
C740 H722 0.951 . S
C740 C741 1.366 . S
C740 C742 1.388 . S
C741 C740 1.366 . S
C741 C745 1.385 . S
C742 H723 0.951 . S
C742 C740 1.388 . S
C742 C743 1.366 . S
C743 C742 1.366 . S
C743 C744 1.414 . S
C743 C746 1.499 . S
C744 H724 0.950 . S
C744 C743 1.414 . S
C744 C745 1.374 . S
C745 H725 0.950 . S
C745 C741 1.385 . S
C745 C744 1.374 . S
C746 C743 1.499 . S
C746 C747 1.373 . S
C746 C748 1.389 . S
C747 H726 0.950 . S
C747 C746 1.373 . S
C747 C763 1.377 . S
C748 C746 1.389 . S
C748 C749 1.524 . S
C748 C762 1.377 . S
C749 C748 1.524 . S
C749 C750 1.397 . S
C749 C754 1.363 . S
C750 H727 0.950 . S
C750 C749 1.397 . S
C750 C751 1.334 . S
C751 H728 0.950 . S
C751 C750 1.334 . S
C751 C752 1.287 . S
C752 C751 1.287 . S
C752 C753 1.524 . S
C752 H771 0.913 . S
C753 H729 0.950 . S
C753 C752 1.524 . S
C753 C754 1.415 . S
C754 H730 0.950 . S
C754 C749 1.363 . S
C754 C753 1.415 . S
C755 H731 0.951 . S
C755 C756 1.366 . S
C755 C757 1.388 . S
C756 C755 1.366 . S
C756 C760 1.385 . S
C757 H732 0.951 . S
C757 C755 1.388 . S
C757 C758 1.366 . S
C758 C757 1.366 . S
C758 C759 1.414 . S
C758 C761 1.499 . S
C759 H733 0.950 . S
C759 C758 1.414 . S
C759 C760 1.374 . S
C760 H734 0.950 . S
C760 C756 1.385 . S
C760 C759 1.374 . S
C761 C758 1.499 . S
C761 C762 1.373 . S
C761 C763 1.389 . S
C762 H735 0.950 . S
C762 C748 1.377 . S
C762 C761 1.373 . S
C763 C747 1.377 . S
C763 C761 1.389 . S
C763 C764 1.524 . S
C764 C763 1.524 . S
C764 C765 1.397 . S
C764 C769 1.363 . S
C765 H736 0.950 . S
C765 C764 1.397 . S
C765 C766 1.334 . S
C766 H737 0.950 1_455 S
C766 C765 1.334 . S
C766 C767 1.287 . S
C767 C766 1.287 . S
C767 C768 1.524 . S
C767 H770 0.999 . S
C768 H738 0.950 . S
C768 C767 1.524 . S
C768 C769 1.415 . S
C769 H739 0.950 . S
C769 C764 1.363 . S
C769 C768 1.415 . S
H770 C767 0.999 . S
H771 C752 0.913 . S
H772 C790 0.951 . S
H773 C792 0.951 . S
H774 C794 0.950 . S
H775 C795 0.950 . S
H776 C797 0.950 . S
H777 C800 0.950 . S
H778 C801 0.950 . S
H779 C803 0.950 . S
H780 C804 0.950 . S
H781 C805 0.951 . S
H782 C807 0.951 . S
H783 C809 0.950 . S
H784 C810 0.950 . S
H785 C812 0.950 . S
H786 C815 0.950 . S
H787 C816 0.950 . S
H788 C818 0.950 . S
H789 C819 0.950 . S
C790 H772 0.951 . S
C790 C791 1.366 . S
C790 C792 1.388 . S
C791 C790 1.366 . S
C791 C795 1.385 . S
C792 H773 0.951 . S
C792 C790 1.388 . S
C792 C793 1.366 . S
C793 C792 1.366 . S
C793 C794 1.414 . S
C793 C796 1.499 . S
C794 H774 0.950 . S
C794 C793 1.414 . S
C794 C795 1.374 . S
C795 H775 0.950 . S
C795 C791 1.385 . S
C795 C794 1.374 . S
C796 C793 1.499 . S
C796 C797 1.373 . S
C796 C798 1.389 . S
C797 H776 0.950 . S
C797 C796 1.373 . S
C797 C813 1.377 . S
C798 C796 1.389 . S
C798 C799 1.524 . S
C798 C812 1.377 . S
C799 C798 1.524 . S
C799 C800 1.397 . S
C799 C804 1.363 . S
C800 H777 0.950 . S
C800 C799 1.397 . S
C800 C801 1.334 . S
C801 H778 0.950 . S
C801 C800 1.334 . S
C801 C802 1.287 . S
C802 C801 1.287 . S
C802 C803 1.524 . S
C802 H821 0.913 . S
C803 H779 0.950 . S
C803 C802 1.524 . S
C803 C804 1.415 . S
C804 H780 0.950 . S
C804 C799 1.363 . S
C804 C803 1.415 . S
C805 H781 0.951 . S
C805 C806 1.366 . S
C805 C807 1.388 . S
C806 C805 1.366 . S
C806 C810 1.385 . S
C807 H782 0.951 . S
C807 C805 1.388 . S
C807 C808 1.366 . S
C808 C807 1.366 . S
C808 C809 1.414 . S
C808 C811 1.499 . S
C809 H783 0.950 . S
C809 C808 1.414 . S
C809 C810 1.374 . S
C810 H784 0.950 . S
C810 C806 1.385 . S
C810 C809 1.374 . S
C811 C808 1.499 . S
C811 C812 1.373 . S
C811 C813 1.389 . S
C812 H785 0.950 . S
C812 C798 1.377 . S
C812 C811 1.373 . S
C813 C797 1.377 . S
C813 C811 1.389 . S
C813 C814 1.524 . S
C814 C813 1.524 . S
C814 C815 1.397 . S
C814 C819 1.363 . S
C815 H786 0.950 . S
C815 C814 1.397 . S
C815 C816 1.334 . S
C816 H787 0.950 . S
C816 C815 1.334 . S
C816 C817 1.287 . S
C817 C816 1.287 . S
C817 C818 1.524 . S
C817 H820 0.999 . S
C818 H788 0.950 . S
C818 C817 1.524 . S
C818 C819 1.415 . S
C819 H789 0.950 . S
C819 C814 1.363 . S
C819 C818 1.415 . S
H820 C817 0.999 . S
H821 C802 0.913 . S
H822 C840 0.951 . S
H823 C842 0.951 . S
H824 C844 0.950 . S
H825 C845 0.950 . S
H826 C847 0.950 . S
H827 C850 0.950 . S
H828 C851 0.950 . S
H829 C853 0.950 . S
H830 C854 0.950 . S
H831 C855 0.951 . S
H832 C857 0.951 . S
H833 C859 0.950 . S
H834 C860 0.950 . S
H835 C862 0.950 . S
H836 C865 0.950 . S
H837 C866 0.950 . S
H838 C868 1.012 . S
H839 C869 0.950 . S
C840 H822 0.951 . S
C840 C841 1.366 . S
C840 C842 1.388 . S
C841 C840 1.366 . S
C841 C845 1.385 1_554 S
C842 H823 0.951 . S
C842 C840 1.388 . S
C842 C843 1.366 . S
C843 C842 1.366 . S
C843 C844 1.414 1_554 S
C843 C846 1.504 . S
C844 H824 0.950 . S
C844 C843 1.414 1_556 S
C844 C845 1.374 . S
C845 H825 0.950 . S
C845 C841 1.385 1_556 S
C845 C844 1.374 . S
C846 C843 1.504 . S
C846 C847 1.384 . S
C846 C848 1.389 . S
C847 H826 0.950 . S
C847 C846 1.384 . S
C847 C863 1.377 . S
C848 C846 1.389 . S
C848 C849 1.510 1_554 S
C848 C862 1.385 . S
C849 C848 1.510 1_556 S
C849 C850 1.470 . S
C849 C854 1.312 1_556 S
C850 H827 0.950 . S
C850 C849 1.470 . S
C850 C851 1.334 . S
C851 H828 0.950 . S
C851 C850 1.334 . S
C851 C852 1.287 . S
C852 C851 1.287 . S
C852 C853 1.524 1_556 S
C852 H871 0.913 . S
C853 H829 0.950 . S
C853 C852 1.524 1_554 S
C853 C854 1.415 . S
C854 H830 0.950 . S
C854 C849 1.312 1_554 S
C854 C853 1.415 . S
C855 H831 0.951 . S
C855 C856 1.366 1_556 S
C855 C857 1.388 . S
C856 C855 1.366 1_554 S
C856 C860 1.385 . S
C857 H832 0.951 . S
C857 C855 1.388 . S
C857 C858 1.366 1_556 S
C858 C857 1.366 1_554 S
C858 C859 1.414 . S
C858 C861 1.499 . S
C859 H833 0.950 . S
C859 C858 1.414 . S
C859 C860 1.374 . S
C860 H834 0.950 . S
C860 C856 1.385 . S
C860 C859 1.374 . S
C861 C858 1.499 . S
C861 C862 1.373 . S
C861 C863 1.389 . S
C862 H835 0.950 . S
C862 C848 1.385 . S
C862 C861 1.373 . S
C863 C847 1.377 . S
C863 C861 1.389 . S
C863 C864 1.524 . S
C864 C863 1.524 . S
C864 C865 1.397 . S
C864 C869 1.363 1_554 S
C865 H836 0.950 . S
C865 C864 1.397 . S
C865 C866 1.334 . S
C866 H837 0.950 . S
C866 C865 1.334 . S
C866 C867 1.287 . S
C867 C866 1.287 . S
C867 C868 1.440 1_554 S
C867 H870 0.999 . S
C868 H838 1.012 . S
C868 C867 1.440 1_556 S
C868 C869 1.436 . S
C869 H839 0.950 . S
C869 C864 1.363 1_556 S
C869 C868 1.436 . S
H870 C867 0.999 . S
H871 C852 0.913 . S
H872 C890 1.011 . S
H873 C892 0.951 . S
H874 C894 0.950 . S
H875 C895 0.950 . S
H876 C897 0.950 . S
H877 C900 0.950 . S
H878 C901 0.950 . S
H879 C903 0.950 . S
H880 C904 0.950 . S
H881 C905 0.951 . S
H882 C907 0.951 . S
H883 C909 0.950 . S
H884 C910 0.950 . S
H885 C912 0.950 . S
H886 C915 0.950 . S
H887 C916 0.950 . S
H888 C918 0.950 . S
H889 C919 0.950 . S
C890 H872 1.011 . S
C890 C891 1.366 . S
C890 C892 1.388 . S
C891 C890 1.366 . S
C891 C895 1.385 . S
C892 H873 0.951 . S
C892 C890 1.388 . S
C892 C893 1.366 . S
C893 C892 1.366 . S
C893 C894 1.414 . S
C893 C896 1.499 . S
C894 H874 0.950 . S
C894 C893 1.414 . S
C894 C895 1.374 . S
C895 H875 0.950 . S
C895 C891 1.385 . S
C895 C894 1.374 . S
C896 C893 1.499 . S
C896 C897 1.373 . S
C896 C898 1.389 . S
C897 H876 0.950 . S
C897 C896 1.373 . S
C897 C913 1.377 . S
C898 C896 1.389 . S
C898 C899 1.524 . S
C898 C912 1.377 . S
C899 C898 1.524 . S
C899 C900 1.397 . S
C899 C904 1.363 . S
C900 H877 0.950 . S
C900 C899 1.397 . S
C900 C901 1.334 . S
C901 H878 0.950 . S
C901 C900 1.334 . S
C901 C902 1.287 . S
C902 C901 1.287 . S
C902 C903 1.524 . S
C902 H921 0.913 . S
C903 H879 0.950 . S
C903 C902 1.524 . S
C903 C904 1.415 . S
C904 H880 0.950 . S
C904 C899 1.363 . S
C904 C903 1.415 . S
C905 H881 0.951 . S
C905 C906 1.366 . S
C905 C907 1.388 . S
C906 C905 1.366 . S
C906 C910 1.385 . S
C907 H882 0.951 . S
C907 C905 1.388 . S
C907 C908 1.366 . S
C908 C907 1.366 . S
C908 C909 1.414 . S
C908 C911 1.499 . S
C909 H883 0.950 . S
C909 C908 1.414 . S
C909 C910 1.374 . S
C910 H884 0.950 . S
C910 C906 1.385 . S
C910 C909 1.374 . S
C911 C908 1.499 . S
C911 C912 1.373 . S
C911 C913 1.389 . S
C912 H885 0.950 . S
C912 C898 1.377 . S
C912 C911 1.373 . S
C913 C897 1.377 . S
C913 C911 1.389 . S
C913 C914 1.524 . S
C914 C913 1.524 . S
C914 C915 1.397 . S
C914 C919 1.363 . S
C915 H886 0.950 . S
C915 C914 1.397 . S
C915 C916 1.334 . S
C916 H887 0.950 . S
C916 C915 1.334 . S
C916 C917 1.287 . S
C917 C916 1.287 . S
C917 C918 1.524 . S
C917 H920 0.999 . S
C918 H888 0.950 . S
C918 C917 1.524 . S
C918 C919 1.415 . S
C919 H889 0.950 . S
C919 C914 1.363 . S
C919 C918 1.415 . S
H920 C917 0.999 . S
H921 C902 0.913 . S
H922 C940 0.951 . S
H923 C942 0.951 . S
H924 C944 0.950 . S
H925 C945 0.950 . S
H926 C947 0.950 . S
H927 C950 0.950 . S
H928 C951 0.950 . S
H929 C953 0.950 . S
H930 C954 0.950 . S
H931 C955 0.951 . S
H932 C957 0.951 . S
H933 C959 0.950 . S
H934 C960 0.950 . S
H935 C962 0.950 . S
H936 C965 0.950 . S
H937 C966 0.950 . S
H938 C968 0.950 . S
H939 C969 0.950 . S
C940 H922 0.951 . S
C940 C941 1.366 . S
C940 C942 1.388 . S
C941 C940 1.366 . S
C941 C945 1.385 . S
C942 H923 0.951 . S
C942 C940 1.388 . S
C942 C943 1.366 . S
C943 C942 1.366 . S
C943 C944 1.414 . S
C943 C946 1.499 . S
C944 H924 0.950 . S
C944 C943 1.414 . S
C944 C945 1.374 . S
C945 H925 0.950 . S
C945 C941 1.385 . S
C945 C944 1.374 . S
C946 C943 1.499 . S
C946 C947 1.373 . S
C946 C948 1.389 . S
C947 H926 0.950 . S
C947 C946 1.373 . S
C947 C963 1.377 . S
C948 C946 1.389 . S
C948 C949 1.524 . S
C948 C962 1.377 . S
C949 C948 1.524 . S
C949 C950 1.397 . S
C949 C954 1.363 . S
C950 H927 0.950 . S
C950 C949 1.397 . S
C950 C951 1.334 . S
C951 H928 0.950 . S
C951 C950 1.334 . S
C951 C952 1.287 . S
C952 C951 1.287 . S
C952 C953 1.524 . S
C952 H971 0.913 . S
C953 H929 0.950 . S
C953 C952 1.524 . S
C953 C954 1.415 . S
C954 H930 0.950 . S
C954 C949 1.363 . S
C954 C953 1.415 . S
C955 H931 0.951 . S
C955 C956 1.366 . S
C955 C957 1.388 . S
C956 C955 1.366 . S
C956 C960 1.385 . S
C957 H932 0.951 . S
C957 C955 1.388 . S
C957 C958 1.366 . S
C958 C957 1.366 . S
C958 C959 1.414 . S
C958 C961 1.499 . S
C959 H933 0.950 . S
C959 C958 1.414 . S
C959 C960 1.374 . S
C960 H934 0.950 . S
C960 C956 1.385 . S
C960 C959 1.374 . S
C961 C958 1.499 . S
C961 C962 1.373 . S
C961 C963 1.389 . S
C962 H935 0.950 . S
C962 C948 1.377 . S
C962 C961 1.373 . S
C963 C947 1.377 . S
C963 C961 1.389 . S
C963 C964 1.524 . S
C964 C963 1.524 . S
C964 C965 1.397 . S
C964 C969 1.363 . S
C965 H936 0.950 . S
C965 C964 1.397 . S
C965 C966 1.334 . S
C966 H937 0.950 . S
C966 C965 1.334 . S
C966 C967 1.287 . S
C967 C966 1.287 . S
C967 C968 1.524 . S
C967 H970 0.999 . S
C968 H938 0.950 . S
C968 C967 1.524 . S
C968 C969 1.415 . S
C969 H939 0.950 . S
C969 C964 1.363 . S
C969 C968 1.415 . S
H970 C967 0.999 . S
H971 C952 0.913 . S
H972 C990 0.951 . S
H973 C992 0.951 . S
H974 C994 0.950 . S
H975 C995 0.950 . S
H976 C997 0.950 . S
H977 C1000 0.950 . S
H978 C1001 0.950 . S
H979 C1003 0.950 . S
H980 C1004 0.950 . S
H981 C1005 0.951 . S
H982 C1007 0.951 . S
H983 C1009 0.950 . S
H984 C1010 0.950 . S
H985 C1012 0.950 . S
H986 C1015 0.950 . S
H987 C1016 0.950 . S
H988 C1018 0.950 . S
H989 C1019 0.950 . S
C990 H972 0.951 . S
C990 C991 1.366 . S
C990 C992 1.388 . S
C991 C990 1.366 . S
C991 C995 1.385 . S
C992 H973 0.951 . S
C992 C990 1.388 . S
C992 C993 1.366 . S
C993 C992 1.366 . S
C993 C994 1.414 . S
C993 C996 1.499 . S
C994 H974 0.950 . S
C994 C993 1.414 . S
C994 C995 1.374 . S
C995 H975 0.950 . S
C995 C991 1.385 . S
C995 C994 1.374 . S
C996 C993 1.499 . S
C996 C997 1.373 . S
C996 C998 1.389 . S
C997 H976 0.950 . S
C997 C996 1.373 . S
C997 C1013 1.377 . S
C998 C996 1.389 . S
C998 C999 1.524 . S
C998 C1012 1.377 . S
C999 C998 1.524 . S
C999 C1000 1.397 . S
C999 C1004 1.363 . S
C1000 H977 0.950 . S
C1000 C999 1.397 . S
C1000 C1001 1.334 . S
C1001 H978 0.950 . S
C1001 C1000 1.334 . S
C1001 C1002 1.287 . S
C1002 C1001 1.287 . S
C1002 C1003 1.524 . S
C1002 H1021 0.913 . S
C1003 H979 0.950 . S
C1003 C1002 1.524 . S
C1003 C1004 1.415 . S
C1004 H980 0.950 . S
C1004 C999 1.363 . S
C1004 C1003 1.415 . S
C1005 H981 0.951 . S
C1005 C1006 1.366 . S
C1005 C1007 1.388 . S
C1006 C1005 1.366 . S
C1006 C1010 1.385 . S
C1007 H982 0.951 . S
C1007 C1005 1.388 . S
C1007 C1008 1.366 . S
C1008 C1007 1.366 . S
C1008 C1009 1.414 . S
C1008 C1011 1.499 . S
C1009 H983 0.950 . S
C1009 C1008 1.414 . S
C1009 C1010 1.374 . S
C1010 H984 0.950 . S
C1010 C1006 1.385 . S
C1010 C1009 1.374 . S
C1011 C1008 1.499 . S
C1011 C1012 1.373 . S
C1011 C1013 1.389 . S
C1012 H985 0.950 . S
C1012 C998 1.377 . S
C1012 C1011 1.373 . S
C1013 C997 1.377 . S
C1013 C1011 1.389 . S
C1013 C1014 1.524 . S
C1014 C1013 1.524 . S
C1014 C1015 1.397 . S
C1014 C1019 1.363 . S
C1015 H986 0.950 . S
C1015 C1014 1.397 . S
C1015 C1016 1.334 . S
C1016 H987 0.950 . S
C1016 C1015 1.334 . S
C1016 C1017 1.287 . S
C1017 C1016 1.287 . S
C1017 C1018 1.524 . S
C1017 H1020 0.999 . S
C1018 H988 0.950 . S
C1018 C1017 1.524 . S
C1018 C1019 1.415 . S
C1019 H989 0.950 . S
C1019 C1014 1.363 . S
C1019 C1018 1.415 . S
H1020 C1017 0.999 . S
H1021 C1002 0.913 . S
H1022 C1040 0.951 . S
H1023 C1042 0.951 . S
H1024 C1044 0.950 . S
H1025 C1045 0.950 . S
H1026 C1047 0.950 . S
H1027 C1050 0.950 . S
H1028 C1051 0.950 . S
H1029 C1053 0.950 . S
H1030 C1054 0.950 . S
H1031 C1055 0.951 . S
H1032 C1057 0.951 . S
H1033 C1059 0.950 . S
H1034 C1060 0.950 . S
H1035 C1062 0.950 . S
H1036 C1065 0.950 . S
H1037 C1066 0.950 . S
H1038 C1068 0.950 . S
H1039 C1069 0.950 . S
C1040 H1022 0.951 . S
C1040 C1041 1.366 . S
C1040 C1042 1.388 . S
C1041 C1040 1.366 . S
C1041 C1045 1.385 . S
C1042 H1023 0.951 . S
C1042 C1040 1.388 . S
C1042 C1043 1.366 . S
C1043 C1042 1.366 . S
C1043 C1044 1.414 . S
C1043 C1046 1.499 . S
C1044 H1024 0.950 . S
C1044 C1043 1.414 . S
C1044 C1045 1.374 . S
C1045 H1025 0.950 . S
C1045 C1041 1.385 . S
C1045 C1044 1.374 . S
C1046 C1043 1.499 . S
C1046 C1047 1.373 . S
C1046 C1048 1.389 . S
C1047 H1026 0.950 . S
C1047 C1046 1.373 . S
C1047 C1063 1.377 . S
C1048 C1046 1.389 . S
C1048 C1049 1.524 . S
C1048 C1062 1.377 . S
C1049 C1048 1.524 . S
C1049 C1050 1.397 . S
C1049 C1054 1.363 . S
C1050 H1027 0.950 . S
C1050 C1049 1.397 . S
C1050 C1051 1.334 . S
C1051 H1028 0.950 . S
C1051 C1050 1.334 . S
C1051 C1052 1.287 . S
C1052 C1051 1.287 . S
C1052 C1053 1.524 . S
C1052 H1071 0.913 . S
C1053 H1029 0.950 . S
C1053 C1052 1.524 . S
C1053 C1054 1.415 . S
C1054 H1030 0.950 . S
C1054 C1049 1.363 . S
C1054 C1053 1.415 . S
C1055 H1031 0.951 . S
C1055 C1056 1.366 . S
C1055 C1057 1.388 . S
C1056 C1055 1.366 . S
C1056 C1060 1.385 . S
C1057 H1032 0.951 . S
C1057 C1055 1.388 . S
C1057 C1058 1.366 . S
C1058 C1057 1.366 . S
C1058 C1059 1.414 . S
C1058 C1061 1.499 . S
C1059 H1033 0.950 . S
C1059 C1058 1.414 . S
C1059 C1060 1.374 . S
C1060 H1034 0.950 . S
C1060 C1056 1.385 . S
C1060 C1059 1.374 . S
C1061 C1058 1.499 . S
C1061 C1062 1.373 . S
C1061 C1063 1.389 . S
C1062 H1035 0.950 . S
C1062 C1048 1.377 . S
C1062 C1061 1.373 . S
C1063 C1047 1.377 . S
C1063 C1061 1.389 . S
C1063 C1064 1.524 . S
C1064 C1063 1.524 . S
C1064 C1065 1.397 . S
C1064 C1069 1.363 . S
C1065 H1036 0.950 . S
C1065 C1064 1.397 . S
C1065 C1066 1.334 . S
C1066 H1037 0.950 . S
C1066 C1065 1.334 . S
C1066 C1067 1.287 . S
C1067 C1066 1.287 . S
C1067 C1068 1.524 . S
C1067 H1070 0.999 . S
C1068 H1038 0.950 . S
C1068 C1067 1.524 . S
C1068 C1069 1.415 . S
C1069 H1039 0.950 . S
C1069 C1064 1.363 . S
C1069 C1068 1.415 . S
H1070 C1067 0.999 . S
H1071 C1052 0.913 . S
H1072 C1090 0.951 . S
H1073 C1092 0.951 . S
H1074 C1094 0.950 . S
H1075 C1095 0.950 . S
H1076 C1097 0.950 . S
H1077 C1100 0.950 . S
H1078 C1101 0.950 . S
H1079 C1103 0.950 . S
H1080 C1104 0.950 . S
H1081 C1105 0.951 1_565 S
H1082 C1107 0.951 . S
H1083 C1109 0.950 . S
H1084 C1110 0.950 . S
H1085 C1112 0.950 . S
H1086 C1115 0.950 . S
H1087 C1116 0.950 . S
H1088 C1118 0.950 . S
H1089 C1119 0.950 . S
C1090 H1072 0.951 . S
C1090 C1091 1.366 . S
C1090 C1092 1.388 . S
C1091 C1090 1.366 . S
C1091 C1095 1.385 . S
C1092 H1073 0.951 . S
C1092 C1090 1.388 . S
C1092 C1093 1.366 . S
C1093 C1092 1.366 . S
C1093 C1094 1.414 . S
C1093 C1096 1.499 . S
C1094 H1074 0.950 . S
C1094 C1093 1.414 . S
C1094 C1095 1.374 . S
C1095 H1075 0.950 . S
C1095 C1091 1.385 . S
C1095 C1094 1.374 . S
C1096 C1093 1.499 . S
C1096 C1097 1.373 . S
C1096 C1098 1.389 . S
C1097 H1076 0.950 . S
C1097 C1096 1.373 . S
C1097 C1113 1.377 . S
C1098 C1096 1.389 . S
C1098 C1099 1.524 . S
C1098 C1112 1.377 . S
C1099 C1098 1.524 . S
C1099 C1100 1.397 . S
C1099 C1104 1.363 . S
C1100 H1077 0.950 . S
C1100 C1099 1.397 . S
C1100 C1101 1.334 . S
C1101 H1078 0.950 . S
C1101 C1100 1.334 . S
C1101 C1102 1.287 . S
C1102 C1101 1.287 . S
C1102 C1103 1.524 . S
C1102 H1121 0.913 . S
C1103 H1079 0.950 . S
C1103 C1102 1.524 . S
C1103 C1104 1.415 . S
C1104 H1080 0.950 . S
C1104 C1099 1.363 . S
C1104 C1103 1.415 . S
C1105 H1081 0.951 1_545 S
C1105 C1106 1.366 . S
C1105 C1107 1.388 . S
C1106 C1105 1.366 . S
C1106 C1110 1.385 . S
C1107 H1082 0.951 . S
C1107 C1105 1.388 . S
C1107 C1108 1.366 . S
C1108 C1107 1.366 . S
C1108 C1109 1.414 . S
C1108 C1111 1.499 . S
C1109 H1083 0.950 . S
C1109 C1108 1.414 . S
C1109 C1110 1.374 . S
C1110 H1084 0.950 . S
C1110 C1106 1.385 . S
C1110 C1109 1.374 . S
C1111 C1108 1.499 . S
C1111 C1112 1.373 . S
C1111 C1113 1.389 . S
C1112 H1085 0.950 . S
C1112 C1098 1.377 . S
C1112 C1111 1.373 . S
C1113 C1097 1.377 . S
C1113 C1111 1.389 . S
C1113 C1114 1.524 . S
C1114 C1113 1.524 . S
C1114 C1115 1.397 . S
C1114 C1119 1.363 . S
C1115 H1086 0.950 . S
C1115 C1114 1.397 . S
C1115 C1116 1.334 . S
C1116 H1087 0.950 . S
C1116 C1115 1.334 . S
C1116 C1117 1.287 . S
C1117 C1116 1.287 . S
C1117 C1118 1.524 . S
C1117 H1120 0.999 . S
C1118 H1088 0.950 . S
C1118 C1117 1.524 . S
C1118 C1119 1.415 . S
C1119 H1089 0.950 . S
C1119 C1114 1.363 . S
C1119 C1118 1.415 . S
H1120 C1117 0.999 . S
H1121 C1102 0.913 . S
H1122 C1140 0.951 . S
H1123 C1142 0.951 . S
H1124 C1144 0.970 . S
H1125 C1145 0.950 . S
H1126 C1147 0.950 . S
H1127 C1150 0.950 . S
H1128 C1151 0.950 . S
H1129 C1153 0.950 . S
H1130 C1154 0.950 . S
H1131 C1155 0.956 . S
H1132 C1157 0.967 . S
H1133 C1159 0.950 . S
H1134 C1160 0.950 . S
H1135 C1162 0.950 . S
H1136 C1165 0.950 . S
H1137 C1166 0.950 . S
H1138 C1168 0.950 . S
H1139 C1169 0.950 . S
C1140 H1122 0.951 . S
C1140 C1141 1.366 . S
C1140 C1142 1.388 . S
C1141 C1140 1.366 . S
C1141 C1145 1.385 1_545 S
C1142 H1123 0.951 . S
C1142 C1140 1.388 . S
C1142 C1143 1.366 . S
C1143 C1142 1.366 . S
C1143 C1144 1.399 1_545 S
C1143 C1146 1.499 . S
C1144 H1124 0.970 . S
C1144 C1143 1.399 1_565 S
C1144 C1145 1.377 . S
C1145 H1125 0.950 . S
C1145 C1141 1.385 1_565 S
C1145 C1144 1.377 . S
C1146 C1143 1.499 . S
C1146 C1147 1.373 1_545 S
C1146 C1148 1.389 . S
C1147 H1126 0.950 . S
C1147 C1146 1.373 1_565 S
C1147 C1163 1.377 . S
C1148 C1146 1.389 . S
C1148 C1149 1.524 . S
C1148 C1162 1.377 . S
C1149 C1148 1.524 . S
C1149 C1150 1.397 . S
C1149 C1154 1.363 . S
C1150 H1127 0.950 . S
C1150 C1149 1.397 . S
C1150 C1151 1.334 . S
C1151 H1128 0.950 . S
C1151 C1150 1.334 . S
C1151 C1152 1.287 . S
C1152 C1151 1.287 . S
C1152 C1153 1.524 . S
C1152 H1171 0.913 . S
C1153 H1129 0.950 . S
C1153 C1152 1.524 . S
C1153 C1154 1.415 . S
C1154 H1130 0.950 . S
C1154 C1149 1.363 . S
C1154 C1153 1.415 . S
C1155 H1131 0.956 . S
C1155 C1156 1.361 1_565 S
C1155 C1157 1.388 . S
C1156 C1155 1.361 1_545 S
C1156 C1160 1.385 . S
C1157 H1132 0.967 . S
C1157 C1155 1.388 . S
C1157 C1158 1.356 1_565 S
C1158 C1157 1.356 1_545 S
C1158 C1159 1.414 . S
C1158 C1161 1.499 . S
C1159 H1133 0.950 . S
C1159 C1158 1.414 . S
C1159 C1160 1.374 . S
C1160 H1134 0.950 . S
C1160 C1156 1.385 . S
C1160 C1159 1.374 . S
C1161 C1158 1.499 . S
C1161 C1162 1.373 . S
C1161 C1163 1.389 1_545 S
C1162 H1135 0.950 . S
C1162 C1148 1.377 . S
C1162 C1161 1.373 . S
C1163 C1147 1.377 . S
C1163 C1161 1.389 1_565 S
C1163 C1164 1.524 . S
C1164 C1163 1.524 . S
C1164 C1165 1.397 . S
C1164 C1169 1.363 . S
C1165 H1136 0.950 . S
C1165 C1164 1.397 . S
C1165 C1166 1.334 . S
C1166 H1137 0.950 . S
C1166 C1165 1.334 . S
C1166 C1167 1.287 . S
C1167 C1166 1.287 . S
C1167 C1168 1.524 . S
C1167 H1170 0.999 . S
C1168 H1138 0.950 . S
C1168 C1167 1.524 . S
C1168 C1169 1.415 . S
C1169 H1139 0.950 . S
C1169 C1164 1.363 . S
C1169 C1168 1.415 . S
H1170 C1167 0.999 . S
H1171 C1152 0.913 . S
H1172 C1190 0.951 . S
H1173 C1192 0.951 . S
H1174 C1194 0.950 . S
H1175 C1195 0.950 . S
H1176 C1197 0.950 . S
H1177 C1200 0.950 . S
H1178 C1201 0.950 . S
H1179 C1203 0.950 . S
H1180 C1204 0.950 . S
H1181 C1205 0.951 . S
H1182 C1207 0.951 . S
H1183 C1209 0.950 . S
H1184 C1210 0.950 . S
H1185 C1212 0.950 . S
H1186 C1215 0.950 . S
H1187 C1216 0.950 . S
H1188 C1218 0.950 . S
H1189 C1219 0.950 . S
C1190 H1172 0.951 . S
C1190 C1191 1.366 . S
C1190 C1192 1.388 . S
C1191 C1190 1.366 . S
C1191 C1195 1.385 . S
C1192 H1173 0.951 . S
C1192 C1190 1.388 . S
C1192 C1193 1.366 . S
C1193 C1192 1.366 . S
C1193 C1194 1.414 . S
C1193 C1196 1.499 . S
C1194 H1174 0.950 . S
C1194 C1193 1.414 . S
C1194 C1195 1.374 . S
C1195 H1175 0.950 . S
C1195 C1191 1.385 . S
C1195 C1194 1.374 . S
C1196 C1193 1.499 . S
C1196 C1197 1.373 . S
C1196 C1198 1.389 . S
C1197 H1176 0.950 . S
C1197 C1196 1.373 . S
C1197 C1213 1.377 . S
C1198 C1196 1.389 . S
C1198 C1199 1.524 . S
C1198 C1212 1.377 . S
C1199 C1198 1.524 . S
C1199 C1200 1.397 . S
C1199 C1204 1.363 . S
C1200 H1177 0.950 . S
C1200 C1199 1.397 . S
C1200 C1201 1.334 . S
C1201 H1178 0.950 . S
C1201 C1200 1.334 . S
C1201 C1202 1.287 . S
C1202 C1201 1.287 . S
C1202 C1203 1.524 . S
C1202 H1221 0.913 . S
C1203 H1179 0.950 . S
C1203 C1202 1.524 . S
C1203 C1204 1.415 . S
C1204 H1180 0.950 . S
C1204 C1199 1.363 . S
C1204 C1203 1.415 . S
C1205 H1181 0.951 . S
C1205 C1206 1.366 . S
C1205 C1207 1.388 . S
C1206 C1205 1.366 . S
C1206 C1210 1.385 . S
C1207 H1182 0.951 . S
C1207 C1205 1.388 . S
C1207 C1208 1.366 . S
C1208 C1207 1.366 . S
C1208 C1209 1.414 . S
C1208 C1211 1.499 . S
C1209 H1183 0.950 . S
C1209 C1208 1.414 . S
C1209 C1210 1.374 . S
C1210 H1184 0.950 . S
C1210 C1206 1.385 . S
C1210 C1209 1.374 . S
C1211 C1208 1.499 . S
C1211 C1212 1.373 . S
C1211 C1213 1.389 . S
C1212 H1185 0.950 . S
C1212 C1198 1.377 . S
C1212 C1211 1.373 . S
C1213 C1197 1.377 . S
C1213 C1211 1.389 . S
C1213 C1214 1.524 . S
C1214 C1213 1.524 . S
C1214 C1215 1.397 . S
C1214 C1219 1.363 . S
C1215 H1186 0.950 . S
C1215 C1214 1.397 . S
C1215 C1216 1.334 . S
C1216 H1187 0.950 . S
C1216 C1215 1.334 . S
C1216 C1217 1.287 . S
C1217 C1216 1.287 . S
C1217 C1218 1.524 . S
C1217 H1220 0.999 . S
C1218 H1188 0.950 . S
C1218 C1217 1.524 . S
C1218 C1219 1.415 . S
C1219 H1189 0.950 . S
C1219 C1214 1.363 . S
C1219 C1218 1.415 . S
H1220 C1217 0.999 . S
H1221 C1202 0.913 . S
H1222 C1240 0.951 . S
H1223 C1242 0.951 . S
H1224 C1244 0.950 . S
H1225 C1245 0.950 . S
H1226 C1247 0.950 . S
H1227 C1250 0.950 . S
H1228 C1251 0.950 . S
H1229 C1253 0.950 . S
H1230 C1254 0.950 . S
H1231 C1255 0.951 . S
H1232 C1257 0.951 . S
H1233 C1259 0.950 . S
H1234 C1260 0.950 . S
H1235 C1262 0.950 . S
H1236 C1265 0.950 . S
H1237 C1266 0.950 . S
H1238 C1268 0.950 . S
H1239 C1269 0.950 . S
C1240 H1222 0.951 . S
C1240 C1241 1.366 . S
C1240 C1242 1.388 . S
C1241 C1240 1.366 . S
C1241 C1245 1.385 . S
C1242 H1223 0.951 . S
C1242 C1240 1.388 . S
C1242 C1243 1.366 . S
C1243 C1242 1.366 . S
C1243 C1244 1.414 . S
C1243 C1246 1.499 . S
C1244 H1224 0.950 . S
C1244 C1243 1.414 . S
C1244 C1245 1.374 . S
C1245 H1225 0.950 . S
C1245 C1241 1.385 . S
C1245 C1244 1.374 . S
C1246 C1243 1.499 . S
C1246 C1247 1.373 . S
C1246 C1248 1.389 . S
C1247 H1226 0.950 . S
C1247 C1246 1.373 . S
C1247 C1263 1.377 . S
C1248 C1246 1.389 . S
C1248 C1249 1.524 . S
C1248 C1262 1.377 . S
C1249 C1248 1.524 . S
C1249 C1250 1.397 . S
C1249 C1254 1.363 . S
C1250 H1227 0.950 . S
C1250 C1249 1.397 . S
C1250 C1251 1.334 . S
C1251 H1228 0.950 . S
C1251 C1250 1.334 . S
C1251 C1252 1.287 . S
C1252 C1251 1.287 . S
C1252 C1253 1.524 . S
C1252 H1271 0.913 . S
C1253 H1229 0.950 . S
C1253 C1252 1.524 . S
C1253 C1254 1.415 . S
C1254 H1230 0.950 . S
C1254 C1249 1.363 . S
C1254 C1253 1.415 . S
C1255 H1231 0.951 . S
C1255 C1256 1.366 . S
C1255 C1257 1.388 . S
C1256 C1255 1.366 . S
C1256 C1260 1.385 . S
C1257 H1232 0.951 . S
C1257 C1255 1.388 . S
C1257 C1258 1.366 . S
C1258 C1257 1.366 . S
C1258 C1259 1.414 . S
C1258 C1261 1.499 . S
C1259 H1233 0.950 . S
C1259 C1258 1.414 . S
C1259 C1260 1.374 . S
C1260 H1234 0.950 . S
C1260 C1256 1.385 . S
C1260 C1259 1.374 . S
C1261 C1258 1.499 . S
C1261 C1262 1.373 . S
C1261 C1263 1.389 . S
C1262 H1235 0.950 . S
C1262 C1248 1.377 . S
C1262 C1261 1.373 . S
C1263 C1247 1.377 . S
C1263 C1261 1.389 . S
C1263 C1264 1.524 . S
C1264 C1263 1.524 . S
C1264 C1265 1.397 . S
C1264 C1269 1.363 . S
C1265 H1236 0.950 . S
C1265 C1264 1.397 . S
C1265 C1266 1.334 . S
C1266 H1237 0.950 . S
C1266 C1265 1.334 . S
C1266 C1267 1.287 . S
C1267 C1266 1.287 . S
C1267 C1268 1.524 . S
C1267 H1270 0.999 . S
C1268 H1238 0.950 . S
C1268 C1267 1.524 . S
C1268 C1269 1.415 . S
C1269 H1239 0.950 . S
C1269 C1264 1.363 . S
C1269 C1268 1.415 . S
H1270 C1267 0.999 . S
H1271 C1252 0.913 . S
H1272 C1290 0.951 . S
H1273 C1292 0.951 . S
H1274 C1294 0.950 . S
H1275 C1295 0.950 . S
H1276 C1297 0.950 . S
H1277 C1300 0.950 . S
H1278 C1301 0.950 . S
H1279 C1303 0.950 . S
H1280 C1304 0.950 . S
H1281 C1305 0.951 1_556 S
H1282 C1307 0.951 . S
H1283 C1309 0.950 . S
H1284 C1310 0.950 . S
H1285 C1312 0.950 . S
H1286 C1315 0.950 . S
H1287 C1316 0.950 . S
H1288 C1318 0.950 . S
H1289 C1319 0.950 . S
C1290 H1272 0.951 . S
C1290 C1291 1.366 . S
C1290 C1292 1.388 . S
C1291 C1290 1.366 . S
C1291 C1295 1.385 . S
C1292 H1273 0.951 . S
C1292 C1290 1.388 . S
C1292 C1293 1.366 . S
C1293 C1292 1.366 . S
C1293 C1294 1.414 . S
C1293 C1296 1.499 . S
C1294 H1274 0.950 . S
C1294 C1293 1.414 . S
C1294 C1295 1.374 . S
C1295 H1275 0.950 . S
C1295 C1291 1.385 . S
C1295 C1294 1.374 . S
C1296 C1293 1.499 . S
C1296 C1297 1.373 . S
C1296 C1298 1.389 . S
C1297 H1276 0.950 . S
C1297 C1296 1.373 . S
C1297 C1313 1.377 . S
C1298 C1296 1.389 . S
C1298 C1299 1.524 . S
C1298 C1312 1.377 . S
C1299 C1298 1.524 . S
C1299 C1300 1.397 . S
C1299 C1304 1.363 . S
C1300 H1277 0.950 . S
C1300 C1299 1.397 . S
C1300 C1301 1.334 . S
C1301 H1278 0.950 . S
C1301 C1300 1.334 . S
C1301 C1302 1.287 . S
C1302 C1301 1.287 . S
C1302 C1303 1.524 . S
C1302 H1321 0.913 . S
C1303 H1279 0.950 . S
C1303 C1302 1.524 . S
C1303 C1304 1.415 . S
C1304 H1280 0.950 . S
C1304 C1299 1.363 . S
C1304 C1303 1.415 . S
C1305 H1281 0.951 1_554 S
C1305 C1306 1.366 . S
C1305 C1307 1.388 . S
C1306 C1305 1.366 . S
C1306 C1310 1.385 . S
C1307 H1282 0.951 . S
C1307 C1305 1.388 . S
C1307 C1308 1.366 . S
C1308 C1307 1.366 . S
C1308 C1309 1.414 . S
C1308 C1311 1.499 . S
C1309 H1283 0.950 . S
C1309 C1308 1.414 . S
C1309 C1310 1.374 . S
C1310 H1284 0.950 . S
C1310 C1306 1.385 . S
C1310 C1309 1.374 . S
C1311 C1308 1.499 . S
C1311 C1312 1.373 . S
C1311 C1313 1.389 . S
C1312 H1285 0.950 . S
C1312 C1298 1.377 . S
C1312 C1311 1.373 . S
C1313 C1297 1.377 . S
C1313 C1311 1.389 . S
C1313 C1314 1.524 . S
C1314 C1313 1.524 . S
C1314 C1315 1.397 . S
C1314 C1319 1.363 . S
C1315 H1286 0.950 . S
C1315 C1314 1.397 . S
C1315 C1316 1.334 . S
C1316 H1287 0.950 . S
C1316 C1315 1.334 . S
C1316 C1317 1.287 . S
C1317 C1316 1.287 . S
C1317 C1318 1.524 . S
C1317 H1320 0.999 . S
C1318 H1288 0.950 . S
C1318 C1317 1.524 . S
C1318 C1319 1.415 . S
C1319 H1289 0.950 . S
C1319 C1314 1.363 . S
C1319 C1318 1.415 . S
H1320 C1317 0.999 . S
H1321 C1302 0.913 . S
H1322 C1340 0.951 . S
H1323 C1342 0.951 . S
H1324 C1344 0.950 . S
H1325 C1345 0.950 . S
H1326 C1347 0.950 . S
H1327 C1350 0.950 . S
H1328 C1351 0.950 . S
H1329 C1353 0.950 . S
H1330 C1354 0.950 . S
H1331 C1355 0.951 . S
H1332 C1357 0.951 . S
H1333 C1359 0.950 . S
H1334 C1360 0.950 . S
H1335 C1362 0.950 . S
H1336 C1365 0.950 . S
H1337 C1366 0.950 . S
H1338 C1368 0.950 . S
H1339 C1369 0.950 . S
C1340 H1322 0.951 . S
C1340 C1341 1.366 . S
C1340 C1342 1.388 . S
C1341 C1340 1.366 . S
C1341 C1345 1.385 . S
C1342 H1323 0.951 . S
C1342 C1340 1.388 . S
C1342 C1343 1.366 . S
C1343 C1342 1.366 . S
C1343 C1344 1.414 . S
C1343 C1346 1.499 . S
C1344 H1324 0.950 . S
C1344 C1343 1.414 . S
C1344 C1345 1.374 . S
C1345 H1325 0.950 . S
C1345 C1341 1.385 . S
C1345 C1344 1.374 . S
C1346 C1343 1.499 . S
C1346 C1347 1.373 . S
C1346 C1348 1.389 . S
C1347 H1326 0.950 . S
C1347 C1346 1.373 . S
C1347 C1363 1.377 . S
C1348 C1346 1.389 . S
C1348 C1349 1.524 . S
C1348 C1362 1.377 . S
C1349 C1348 1.524 . S
C1349 C1350 1.397 . S
C1349 C1354 1.363 . S
C1350 H1327 0.950 . S
C1350 C1349 1.397 . S
C1350 C1351 1.334 . S
C1351 H1328 0.950 . S
C1351 C1350 1.334 . S
C1351 C1352 1.287 . S
C1352 C1351 1.287 . S
C1352 C1353 1.524 . S
C1352 H1371 0.913 . S
C1353 H1329 0.950 . S
C1353 C1352 1.524 . S
C1353 C1354 1.415 . S
C1354 H1330 0.950 . S
C1354 C1349 1.363 . S
C1354 C1353 1.415 . S
C1355 H1331 0.951 . S
C1355 C1356 1.366 . S
C1355 C1357 1.388 . S
C1356 C1355 1.366 . S
C1356 C1360 1.385 . S
C1357 H1332 0.951 . S
C1357 C1355 1.388 . S
C1357 C1358 1.366 . S
C1358 C1357 1.366 . S
C1358 C1359 1.414 . S
C1358 C1361 1.499 . S
C1359 H1333 0.950 . S
C1359 C1358 1.414 . S
C1359 C1360 1.374 . S
C1360 H1334 0.950 . S
C1360 C1356 1.385 . S
C1360 C1359 1.374 . S
C1361 C1358 1.499 . S
C1361 C1362 1.373 . S
C1361 C1363 1.389 . S
C1362 H1335 0.950 . S
C1362 C1348 1.377 . S
C1362 C1361 1.373 . S
C1363 C1347 1.377 . S
C1363 C1361 1.389 . S
C1363 C1364 1.524 . S
C1364 C1363 1.524 . S
C1364 C1365 1.397 . S
C1364 C1369 1.363 . S
C1365 H1336 0.950 . S
C1365 C1364 1.397 . S
C1365 C1366 1.334 . S
C1366 H1337 0.950 . S
C1366 C1365 1.334 . S
C1366 C1367 1.287 . S
C1367 C1366 1.287 . S
C1367 C1368 1.524 . S
C1367 H1370 0.999 . S
C1368 H1338 0.950 . S
C1368 C1367 1.524 . S
C1368 C1369 1.415 . S
C1369 H1339 0.950 . S
C1369 C1364 1.363 . S
C1369 C1368 1.415 . S
H1370 C1367 0.999 . S
H1371 C1352 0.913 . S
H1372 C1390 0.951 . S
H1373 C1392 0.951 . S
H1374 C1394 0.950 . S
H1375 C1395 0.950 . S
H1376 C1397 0.950 . S
H1377 C1400 0.950 1_655 S
H1378 C1401 0.950 . S
H1379 C1403 0.950 . S
H1380 C1404 0.950 . S
H1381 C1405 0.951 . S
H1382 C1407 0.951 . S
H1383 C1409 0.950 . S
H1384 C1410 0.950 . S
H1385 C1412 0.950 . S
H1386 C1415 0.950 1_455 S
H1387 C1416 0.950 . S
H1388 C1418 0.950 . S
H1389 C1419 0.950 . S
C1390 H1372 0.951 . S
C1390 C1391 1.366 . S
C1390 C1392 1.388 . S
C1391 C1390 1.366 . S
C1391 C1395 1.385 1_455 S
C1392 H1373 0.951 . S
C1392 C1390 1.388 . S
C1392 C1393 1.366 . S
C1393 C1392 1.366 . S
C1393 C1394 1.414 1_455 S
C1393 C1396 1.499 . S
C1394 H1374 0.950 . S
C1394 C1393 1.414 1_655 S
C1394 C1395 1.374 . S
C1395 H1375 0.950 . S
C1395 C1391 1.385 1_655 S
C1395 C1394 1.374 . S
C1396 C1393 1.499 . S
C1396 C1397 1.373 1_455 S
C1396 C1398 1.389 . S
C1397 H1376 0.950 . S
C1397 C1396 1.373 1_655 S
C1397 C1413 1.377 . S
C1398 C1396 1.389 . S
C1398 C1399 1.524 . S
C1398 C1412 1.377 . S
C1399 C1398 1.524 . S
C1399 C1400 1.397 . S
C1399 C1404 1.363 . S
C1400 H1377 0.950 1_455 S
C1400 C1399 1.397 . S
C1400 C1401 1.334 . S
C1401 H1378 0.950 . S
C1401 C1400 1.334 . S
C1401 C1402 1.287 . S
C1402 C1401 1.287 . S
C1402 C1403 1.524 . S
C1402 H1421 0.913 . S
C1403 H1379 0.950 . S
C1403 C1402 1.524 . S
C1403 C1404 1.415 . S
C1404 H1380 0.950 . S
C1404 C1399 1.363 . S
C1404 C1403 1.415 . S
C1405 H1381 0.951 . S
C1405 C1406 1.366 1_655 S
C1405 C1407 1.388 . S
C1406 C1405 1.366 1_455 S
C1406 C1410 1.385 . S
C1407 H1382 0.951 . S
C1407 C1405 1.388 . S
C1407 C1408 1.366 1_655 S
C1408 C1407 1.366 1_455 S
C1408 C1409 1.414 . S
C1408 C1411 1.499 . S
C1409 H1383 0.950 . S
C1409 C1408 1.414 . S
C1409 C1410 1.374 . S
C1410 H1384 0.950 . S
C1410 C1406 1.385 . S
C1410 C1409 1.374 . S
C1411 C1408 1.499 . S
C1411 C1412 1.373 . S
C1411 C1413 1.389 1_455 S
C1412 H1385 0.950 . S
C1412 C1398 1.377 . S
C1412 C1411 1.373 . S
C1413 C1397 1.377 . S
C1413 C1411 1.389 1_655 S
C1413 C1414 1.524 . S
C1414 C1413 1.524 . S
C1414 C1415 1.397 . S
C1414 C1419 1.363 . S
C1415 H1386 0.950 1_655 S
C1415 C1414 1.397 . S
C1415 C1416 1.334 . S
C1416 H1387 0.950 . S
C1416 C1415 1.334 . S
C1416 C1417 1.287 . S
C1417 C1416 1.287 . S
C1417 C1418 1.524 . S
C1417 H1420 0.999 . S
C1418 H1388 0.950 . S
C1418 C1417 1.524 . S
C1418 C1419 1.415 . S
C1419 H1389 0.950 . S
C1419 C1414 1.363 . S
C1419 C1418 1.415 . S
H1420 C1417 0.999 . S
H1421 C1402 0.913 . S
H1422 C1440 0.951 . S
H1423 C1442 0.951 . S
H1424 C1444 0.950 . S
H1425 C1445 0.950 . S
H1426 C1447 0.950 . S
H1427 C1450 0.950 . S
H1428 C1451 0.950 . S
H1429 C1453 0.950 . S
H1430 C1454 0.950 . S
H1431 C1455 0.951 . S
H1432 C1457 0.951 . S
H1433 C1459 0.950 . S
H1434 C1460 0.950 . S
H1435 C1462 0.950 . S
H1436 C1465 0.950 . S
H1437 C1466 0.950 . S
H1438 C1468 0.950 . S
H1439 C1469 0.950 . S
C1440 H1422 0.951 . S
C1440 C1441 1.366 . S
C1440 C1442 1.388 . S
C1441 C1440 1.366 . S
C1441 C1445 1.385 . S
C1442 H1423 0.951 . S
C1442 C1440 1.388 . S
C1442 C1443 1.366 . S
C1443 C1442 1.366 . S
C1443 C1444 1.414 . S
C1443 C1446 1.499 . S
C1444 H1424 0.950 . S
C1444 C1443 1.414 . S
C1444 C1445 1.374 . S
C1445 H1425 0.950 . S
C1445 C1441 1.385 . S
C1445 C1444 1.374 . S
C1446 C1443 1.499 . S
C1446 C1447 1.373 . S
C1446 C1448 1.389 . S
C1447 H1426 0.950 . S
C1447 C1446 1.373 . S
C1447 C1463 1.377 . S
C1448 C1446 1.389 . S
C1448 C1449 1.524 . S
C1448 C1462 1.377 . S
C1449 C1448 1.524 . S
C1449 C1450 1.397 . S
C1449 C1454 1.363 . S
C1450 H1427 0.950 . S
C1450 C1449 1.397 . S
C1450 C1451 1.334 . S
C1451 H1428 0.950 . S
C1451 C1450 1.334 . S
C1451 C1452 1.287 . S
C1452 C1451 1.287 . S
C1452 C1453 1.524 . S
C1452 H1471 0.913 . S
C1453 H1429 0.950 . S
C1453 C1452 1.524 . S
C1453 C1454 1.415 . S
C1454 H1430 0.950 . S
C1454 C1449 1.363 . S
C1454 C1453 1.415 . S
C1455 H1431 0.951 . S
C1455 C1456 1.366 . S
C1455 C1457 1.388 . S
C1456 C1455 1.366 . S
C1456 C1460 1.385 . S
C1457 H1432 0.951 . S
C1457 C1455 1.388 . S
C1457 C1458 1.366 . S
C1458 C1457 1.366 . S
C1458 C1459 1.414 . S
C1458 C1461 1.499 . S
C1459 H1433 0.950 . S
C1459 C1458 1.414 . S
C1459 C1460 1.374 . S
C1460 H1434 0.950 . S
C1460 C1456 1.385 . S
C1460 C1459 1.374 . S
C1461 C1458 1.499 . S
C1461 C1462 1.373 . S
C1461 C1463 1.389 . S
C1462 H1435 0.950 . S
C1462 C1448 1.377 . S
C1462 C1461 1.373 . S
C1463 C1447 1.377 . S
C1463 C1461 1.389 . S
C1463 C1464 1.524 . S
C1464 C1463 1.524 . S
C1464 C1465 1.397 . S
C1464 C1469 1.363 . S
C1465 H1436 0.950 . S
C1465 C1464 1.397 . S
C1465 C1466 1.334 . S
C1466 H1437 0.950 . S
C1466 C1465 1.334 . S
C1466 C1467 1.287 . S
C1467 C1466 1.287 . S
C1467 C1468 1.524 . S
C1467 H1470 0.999 . S
C1468 H1438 0.950 . S
C1468 C1467 1.524 . S
C1468 C1469 1.415 . S
C1469 H1439 0.950 . S
C1469 C1464 1.363 . S
C1469 C1468 1.415 . S
H1470 C1467 0.999 . S
H1471 C1452 0.913 . S
H1472 C1490 0.951 . S
H1473 C1492 0.951 . S
H1474 C1494 0.950 . S
H1475 C1495 0.950 . S
H1476 C1497 0.950 . S
H1477 C1500 0.950 . S
H1478 C1501 0.950 . S
H1479 C1503 0.894 1_565 S
H1480 C1504 0.950 . S
H1481 C1505 0.951 . S
H1482 C1507 0.951 . S
H1483 C1509 0.950 . S
H1484 C1510 0.950 . S
H1485 C1512 0.950 . S
H1486 C1515 0.950 . S
H1487 C1516 0.950 . S
H1488 C1518 0.950 . S
H1489 C1519 0.950 . S
C1490 H1472 0.951 . S
C1490 C1491 1.366 . S
C1490 C1492 1.388 . S
C1491 C1490 1.366 . S
C1491 C1495 1.385 . S
C1492 H1473 0.951 . S
C1492 C1490 1.388 . S
C1492 C1493 1.366 . S
C1493 C1492 1.366 . S
C1493 C1494 1.414 . S
C1493 C1496 1.499 . S
C1494 H1474 0.950 . S
C1494 C1493 1.414 . S
C1494 C1495 1.374 . S
C1495 H1475 0.950 . S
C1495 C1491 1.385 . S
C1495 C1494 1.374 . S
C1496 C1493 1.499 . S
C1496 C1497 1.373 . S
C1496 C1498 1.389 . S
C1497 H1476 0.950 . S
C1497 C1496 1.373 . S
C1497 C1513 1.377 . S
C1498 C1496 1.389 . S
C1498 C1499 1.524 . S
C1498 C1512 1.377 . S
C1499 C1498 1.524 . S
C1499 C1500 1.397 . S
C1499 C1504 1.363 . S
C1500 H1477 0.950 . S
C1500 C1499 1.397 . S
C1500 C1501 1.334 . S
C1501 H1478 0.950 . S
C1501 C1500 1.334 . S
C1501 C1502 1.287 . S
C1502 C1501 1.287 . S
C1502 C1503 1.524 . S
C1502 H1521 0.913 . S
C1503 H1479 0.894 1_545 S
C1503 C1502 1.524 . S
C1503 C1504 1.415 . S
C1504 H1480 0.950 . S
C1504 C1499 1.363 . S
C1504 C1503 1.415 . S
C1505 H1481 0.951 . S
C1505 C1506 1.366 . S
C1505 C1507 1.388 . S
C1506 C1505 1.366 . S
C1506 C1510 1.385 . S
C1507 H1482 0.951 . S
C1507 C1505 1.388 . S
C1507 C1508 1.366 . S
C1508 C1507 1.366 . S
C1508 C1509 1.414 . S
C1508 C1511 1.499 . S
C1509 H1483 0.950 . S
C1509 C1508 1.414 . S
C1509 C1510 1.374 . S
C1510 H1484 0.950 . S
C1510 C1506 1.385 . S
C1510 C1509 1.374 . S
C1511 C1508 1.499 . S
C1511 C1512 1.373 . S
C1511 C1513 1.389 . S
C1512 H1485 0.950 . S
C1512 C1498 1.377 . S
C1512 C1511 1.373 . S
C1513 C1497 1.377 . S
C1513 C1511 1.389 . S
C1513 C1514 1.524 . S
C1514 C1513 1.524 . S
C1514 C1515 1.397 . S
C1514 C1519 1.363 . S
C1515 H1486 0.950 . S
C1515 C1514 1.397 . S
C1515 C1516 1.334 . S
C1516 H1487 0.950 . S
C1516 C1515 1.334 . S
C1516 C1517 1.287 . S
C1517 C1516 1.287 . S
C1517 C1518 1.524 . S
C1517 H1520 0.999 . S
C1518 H1488 0.950 . S
C1518 C1517 1.524 . S
C1518 C1519 1.415 . S
C1519 H1489 0.950 . S
C1519 C1514 1.363 . S
C1519 C1518 1.415 . S
H1520 C1517 0.999 . S
H1521 C1502 0.913 . S
H1522 C1540 0.951 . S
H1523 C1542 0.951 . S
H1524 C1544 0.950 . S
H1525 C1545 0.950 . S
H1526 C1547 0.950 . S
H1527 C1550 0.950 . S
H1528 C1551 0.950 . S
H1529 C1553 0.950 . S
H1530 C1554 0.950 . S
H1531 C1555 0.951 . S
H1532 C1557 0.951 . S
H1533 C1559 0.950 . S
H1534 C1560 0.950 . S
H1535 C1562 0.950 . S
H1536 C1565 0.950 . S
H1537 C1566 0.950 . S
H1538 C1568 0.950 . S
H1539 C1569 0.950 . S
C1540 H1522 0.951 . S
C1540 C1541 1.366 . S
C1540 C1542 1.388 . S
C1541 C1540 1.366 . S
C1541 C1545 1.385 . S
C1542 H1523 0.951 . S
C1542 C1540 1.388 . S
C1542 C1543 1.366 . S
C1543 C1542 1.366 . S
C1543 C1544 1.414 . S
C1543 C1546 1.499 . S
C1544 H1524 0.950 . S
C1544 C1543 1.414 . S
C1544 C1545 1.374 . S
C1545 H1525 0.950 . S
C1545 C1541 1.385 . S
C1545 C1544 1.374 . S
C1546 C1543 1.499 . S
C1546 C1547 1.373 . S
C1546 C1548 1.389 . S
C1547 H1526 0.950 . S
C1547 C1546 1.373 . S
C1547 C1563 1.377 . S
C1548 C1546 1.389 . S
C1548 C1549 1.524 . S
C1548 C1562 1.377 . S
C1549 C1548 1.524 . S
C1549 C1550 1.397 . S
C1549 C1554 1.363 . S
C1550 H1527 0.950 . S
C1550 C1549 1.397 . S
C1550 C1551 1.334 . S
C1551 H1528 0.950 . S
C1551 C1550 1.334 . S
C1551 C1552 1.287 . S
C1552 C1551 1.287 . S
C1552 C1553 1.524 . S
C1552 H1571 0.913 . S
C1553 H1529 0.950 . S
C1553 C1552 1.524 . S
C1553 C1554 1.415 . S
C1554 H1530 0.950 . S
C1554 C1549 1.363 . S
C1554 C1553 1.415 . S
C1555 H1531 0.951 . S
C1555 C1556 1.366 . S
C1555 C1557 1.388 . S
C1556 C1555 1.366 . S
C1556 C1560 1.385 . S
C1557 H1532 0.951 . S
C1557 C1555 1.388 . S
C1557 C1558 1.366 . S
C1558 C1557 1.366 . S
C1558 C1559 1.414 . S
C1558 C1561 1.499 . S
C1559 H1533 0.950 . S
C1559 C1558 1.414 . S
C1559 C1560 1.374 . S
C1560 H1534 0.950 . S
C1560 C1556 1.385 . S
C1560 C1559 1.374 . S
C1561 C1558 1.499 . S
C1561 C1562 1.373 . S
C1561 C1563 1.389 . S
C1562 H1535 0.950 . S
C1562 C1548 1.377 . S
C1562 C1561 1.373 . S
C1563 C1547 1.377 . S
C1563 C1561 1.389 . S
C1563 C1564 1.524 . S
C1564 C1563 1.524 . S
C1564 C1565 1.397 . S
C1564 C1569 1.363 . S
C1565 H1536 0.950 . S
C1565 C1564 1.397 . S
C1565 C1566 1.334 . S
C1566 H1537 0.950 . S
C1566 C1565 1.334 . S
C1566 C1567 1.287 . S
C1567 C1566 1.287 . S
C1567 C1568 1.524 . S
C1567 H1570 0.999 . S
C1568 H1538 0.950 . S
C1568 C1567 1.524 . S
C1568 C1569 1.415 . S
C1569 H1539 0.950 . S
C1569 C1564 1.363 . S
C1569 C1568 1.415 . S
H1570 C1567 0.999 . S
H1571 C1552 0.913 . S
H1572 C1590 0.951 . S
H1573 C1592 0.951 . S
H1574 C1594 0.950 . S
H1575 C1595 0.950 . S
H1576 C1597 0.950 . S
H1577 C1600 0.950 . S
H1578 C1601 0.950 . S
H1579 C1603 0.950 . S
H1580 C1604 0.950 . S
H1581 C1605 0.951 . S
H1582 C1607 0.951 . S
H1583 C1609 0.950 . S
H1584 C1610 0.950 . S
H1585 C1612 0.950 . S
H1586 C1615 0.950 . S
H1587 C1616 0.950 . S
H1588 C1618 0.950 . S
H1589 C1619 0.950 . S
C1590 H1572 0.951 . S
C1590 C1591 1.366 . S
C1590 C1592 1.388 . S
C1591 C1590 1.366 . S
C1591 C1595 1.385 . S
C1592 H1573 0.951 . S
C1592 C1590 1.388 . S
C1592 C1593 1.366 . S
C1593 C1592 1.366 . S
C1593 C1594 1.414 . S
C1593 C1596 1.499 . S
C1594 H1574 0.950 . S
C1594 C1593 1.414 . S
C1594 C1595 1.374 . S
C1595 H1575 0.950 . S
C1595 C1591 1.385 . S
C1595 C1594 1.374 . S
C1596 C1593 1.499 . S
C1596 C1597 1.373 . S
C1596 C1598 1.389 . S
C1597 H1576 0.950 . S
C1597 C1596 1.373 . S
C1597 C1613 1.377 . S
C1598 C1596 1.389 . S
C1598 C1599 1.524 . S
C1598 C1612 1.377 . S
C1599 C1598 1.524 . S
C1599 C1600 1.397 . S
C1599 C1604 1.363 . S
C1600 H1577 0.950 . S
C1600 C1599 1.397 . S
C1600 C1601 1.334 . S
C1601 H1578 0.950 . S
C1601 C1600 1.334 . S
C1601 C1602 1.287 . S
C1602 C1601 1.287 . S
C1602 C1603 1.524 . S
C1602 H1621 0.913 . S
C1603 H1579 0.950 . S
C1603 C1602 1.524 . S
C1603 C1604 1.415 . S
C1604 H1580 0.950 . S
C1604 C1599 1.363 . S
C1604 C1603 1.415 . S
C1605 H1581 0.951 . S
C1605 C1606 1.366 . S
C1605 C1607 1.388 . S
C1606 C1605 1.366 . S
C1606 C1610 1.385 . S
C1607 H1582 0.951 . S
C1607 C1605 1.388 . S
C1607 C1608 1.366 . S
C1608 C1607 1.366 . S
C1608 C1609 1.414 . S
C1608 C1611 1.499 . S
C1609 H1583 0.950 . S
C1609 C1608 1.414 . S
C1609 C1610 1.374 . S
C1610 H1584 0.950 . S
C1610 C1606 1.385 . S
C1610 C1609 1.374 . S
C1611 C1608 1.499 . S
C1611 C1612 1.373 . S
C1611 C1613 1.389 . S
C1612 H1585 0.950 . S
C1612 C1598 1.377 . S
C1612 C1611 1.373 . S
C1613 C1597 1.377 . S
C1613 C1611 1.389 . S
C1613 C1614 1.524 . S
C1614 C1613 1.524 . S
C1614 C1615 1.397 . S
C1614 C1619 1.363 . S
C1615 H1586 0.950 . S
C1615 C1614 1.397 . S
C1615 C1616 1.334 . S
C1616 H1587 0.950 . S
C1616 C1615 1.334 . S
C1616 C1617 1.287 . S
C1617 C1616 1.287 . S
C1617 C1618 1.524 . S
C1617 H1620 0.999 . S
C1618 H1588 0.950 . S
C1618 C1617 1.524 . S
C1618 C1619 1.415 . S
C1619 H1589 0.950 . S
C1619 C1614 1.363 . S
C1619 C1618 1.415 . S
H1620 C1617 0.999 . S
H1621 C1602 0.913 . S
H1622 C1640 0.951 . S
H1623 C1642 0.951 . S
H1624 C1644 0.950 . S
H1625 C1645 0.950 . S
H1626 C1647 0.950 . S
H1627 C1650 0.950 . S
H1628 C1651 0.950 . S
H1629 C1653 0.950 . S
H1630 C1654 0.950 . S
H1631 C1655 0.951 . S
H1632 C1657 0.951 . S
H1633 C1659 0.950 . S
H1634 C1660 0.950 . S
H1635 C1662 0.950 . S
H1636 C1665 0.950 . S
H1637 C1666 0.950 . S
H1638 C1668 0.950 . S
H1639 C1669 0.950 . S
C1640 H1622 0.951 . S
C1640 C1641 1.366 . S
C1640 C1642 1.388 . S
C1641 C1640 1.366 . S
C1641 C1645 1.385 . S
C1642 H1623 0.951 . S
C1642 C1640 1.388 . S
C1642 C1643 1.366 . S
C1643 C1642 1.366 . S
C1643 C1644 1.414 . S
C1643 C1646 1.499 . S
C1644 H1624 0.950 . S
C1644 C1643 1.414 . S
C1644 C1645 1.374 . S
C1645 H1625 0.950 . S
C1645 C1641 1.385 . S
C1645 C1644 1.374 . S
C1646 C1643 1.499 . S
C1646 C1647 1.373 . S
C1646 C1648 1.389 . S
C1647 H1626 0.950 . S
C1647 C1646 1.373 . S
C1647 C1663 1.377 . S
C1648 C1646 1.389 . S
C1648 C1649 1.524 . S
C1648 C1662 1.377 . S
C1649 C1648 1.524 . S
C1649 C1650 1.397 . S
C1649 C1654 1.363 . S
C1650 H1627 0.950 . S
C1650 C1649 1.397 . S
C1650 C1651 1.334 . S
C1651 H1628 0.950 . S
C1651 C1650 1.334 . S
C1651 C1652 1.287 . S
C1652 C1651 1.287 . S
C1652 C1653 1.524 . S
C1652 H1671 0.913 . S
C1653 H1629 0.950 . S
C1653 C1652 1.524 . S
C1653 C1654 1.415 . S
C1654 H1630 0.950 . S
C1654 C1649 1.363 . S
C1654 C1653 1.415 . S
C1655 H1631 0.951 . S
C1655 C1656 1.366 . S
C1655 C1657 1.388 . S
C1656 C1655 1.366 . S
C1656 C1660 1.385 . S
C1657 H1632 0.951 . S
C1657 C1655 1.388 . S
C1657 C1658 1.366 . S
C1658 C1657 1.366 . S
C1658 C1659 1.414 . S
C1658 C1661 1.499 . S
C1659 H1633 0.950 . S
C1659 C1658 1.414 . S
C1659 C1660 1.374 . S
C1660 H1634 0.950 . S
C1660 C1656 1.385 . S
C1660 C1659 1.374 . S
C1661 C1658 1.499 . S
C1661 C1662 1.373 . S
C1661 C1663 1.389 . S
C1662 H1635 0.950 . S
C1662 C1648 1.377 . S
C1662 C1661 1.373 . S
C1663 C1647 1.377 . S
C1663 C1661 1.389 . S
C1663 C1664 1.524 . S
C1664 C1663 1.524 . S
C1664 C1665 1.397 . S
C1664 C1669 1.363 . S
C1665 H1636 0.950 . S
C1665 C1664 1.397 . S
C1665 C1666 1.334 . S
C1666 H1637 0.950 . S
C1666 C1665 1.334 . S
C1666 C1667 1.287 . S
C1667 C1666 1.287 . S
C1667 C1668 1.524 . S
C1667 H1670 0.999 . S
C1668 H1638 0.950 . S
C1668 C1667 1.524 . S
C1668 C1669 1.415 . S
C1669 H1639 0.950 . S
C1669 C1664 1.363 . S
C1669 C1668 1.415 . S
H1670 C1667 0.999 . S
H1671 C1652 0.913 . S
H1672 C1690 0.951 . S
H1673 C1692 0.951 . S
H1674 C1694 0.950 . S
H1675 C1695 0.950 . S
H1676 C1697 0.950 . S
H1677 C1700 0.950 . S
H1678 C1701 0.950 . S
H1679 C1703 0.950 . S
H1680 C1704 0.950 . S
H1681 C1705 0.951 . S
H1682 C1707 0.951 . S
H1683 C1709 0.950 . S
H1684 C1710 0.950 . S
H1685 C1712 0.950 . S
H1686 C1715 0.950 . S
H1687 C1716 0.950 . S
H1688 C1718 0.950 . S
H1689 C1719 0.950 . S
C1690 H1672 0.951 . S
C1690 C1691 1.366 . S
C1690 C1692 1.388 . S
C1691 C1690 1.366 . S
C1691 C1695 1.385 . S
C1692 H1673 0.951 . S
C1692 C1690 1.388 . S
C1692 C1693 1.366 . S
C1693 C1692 1.366 . S
C1693 C1694 1.414 . S
C1693 C1696 1.499 . S
C1694 H1674 0.950 . S
C1694 C1693 1.414 . S
C1694 C1695 1.374 . S
C1695 H1675 0.950 . S
C1695 C1691 1.385 . S
C1695 C1694 1.374 . S
C1696 C1693 1.499 . S
C1696 C1697 1.373 . S
C1696 C1698 1.389 . S
C1697 H1676 0.950 . S
C1697 C1696 1.373 . S
C1697 C1713 1.377 . S
C1698 C1696 1.389 . S
C1698 C1699 1.524 . S
C1698 C1712 1.377 . S
C1699 C1698 1.524 . S
C1699 C1700 1.397 . S
C1699 C1704 1.363 . S
C1700 H1677 0.950 . S
C1700 C1699 1.397 . S
C1700 C1701 1.334 . S
C1701 H1678 0.950 . S
C1701 C1700 1.334 . S
C1701 C1702 1.287 . S
C1702 C1701 1.287 . S
C1702 C1703 1.524 . S
C1702 H1721 0.913 . S
C1703 H1679 0.950 . S
C1703 C1702 1.524 . S
C1703 C1704 1.415 . S
C1704 H1680 0.950 . S
C1704 C1699 1.363 . S
C1704 C1703 1.415 . S
C1705 H1681 0.951 . S
C1705 C1706 1.366 . S
C1705 C1707 1.388 . S
C1706 C1705 1.366 . S
C1706 C1710 1.385 . S
C1707 H1682 0.951 . S
C1707 C1705 1.388 . S
C1707 C1708 1.366 . S
C1708 C1707 1.366 . S
C1708 C1709 1.414 . S
C1708 C1711 1.499 . S
C1709 H1683 0.950 . S
C1709 C1708 1.414 . S
C1709 C1710 1.374 . S
C1710 H1684 0.950 . S
C1710 C1706 1.385 . S
C1710 C1709 1.374 . S
C1711 C1708 1.499 . S
C1711 C1712 1.373 . S
C1711 C1713 1.389 . S
C1712 H1685 0.950 . S
C1712 C1698 1.377 . S
C1712 C1711 1.373 . S
C1713 C1697 1.377 . S
C1713 C1711 1.389 . S
C1713 C1714 1.524 . S
C1714 C1713 1.524 . S
C1714 C1715 1.397 . S
C1714 C1719 1.363 . S
C1715 H1686 0.950 . S
C1715 C1714 1.397 . S
C1715 C1716 1.334 . S
C1716 H1687 0.950 . S
C1716 C1715 1.334 . S
C1716 C1717 1.287 . S
C1717 C1716 1.287 . S
C1717 C1718 1.524 . S
C1717 H1720 0.999 . S
C1718 H1688 0.950 . S
C1718 C1717 1.524 . S
C1718 C1719 1.415 . S
C1719 H1689 0.950 . S
C1719 C1714 1.363 . S
C1719 C1718 1.415 . S
H1720 C1717 0.999 . S
H1721 C1702 0.913 . S
H1722 C1740 0.951 . S
H1723 C1742 0.951 . S
H1724 C1744 0.950 . S
H1725 C1745 0.950 . S
H1726 C1747 0.950 . S
H1727 C1750 0.950 . S
H1728 C1751 0.950 . S
H1729 C1753 0.950 . S
H1730 C1754 0.950 . S
H1731 C1755 0.951 . S
H1732 C1757 0.951 . S
H1733 C1759 0.950 . S
H1734 C1760 0.950 . S
H1735 C1762 0.950 . S
H1736 C1765 0.950 . S
H1737 C1766 0.950 . S
H1738 C1768 0.950 . S
H1739 C1769 0.950 . S
C1740 H1722 0.951 . S
C1740 C1741 1.366 . S
C1740 C1742 1.388 . S
C1741 C1740 1.366 . S
C1741 C1745 1.385 . S
C1742 H1723 0.951 . S
C1742 C1740 1.388 . S
C1742 C1743 1.366 . S
C1743 C1742 1.366 . S
C1743 C1744 1.414 . S
C1743 C1746 1.499 . S
C1744 H1724 0.950 . S
C1744 C1743 1.414 . S
C1744 C1745 1.374 . S
C1745 H1725 0.950 . S
C1745 C1741 1.385 . S
C1745 C1744 1.374 . S
C1746 C1743 1.499 . S
C1746 C1747 1.373 . S
C1746 C1748 1.389 . S
C1747 H1726 0.950 . S
C1747 C1746 1.373 . S
C1747 C1763 1.377 . S
C1748 C1746 1.389 . S
C1748 C1749 1.524 . S
C1748 C1762 1.377 . S
C1749 C1748 1.524 . S
C1749 C1750 1.397 . S
C1749 C1754 1.363 . S
C1750 H1727 0.950 . S
C1750 C1749 1.397 . S
C1750 C1751 1.334 . S
C1751 H1728 0.950 . S
C1751 C1750 1.334 . S
C1751 C1752 1.287 . S
C1752 C1751 1.287 . S
C1752 C1753 1.524 . S
C1752 H1771 0.913 . S
C1753 H1729 0.950 . S
C1753 C1752 1.524 . S
C1753 C1754 1.415 . S
C1754 H1730 0.950 . S
C1754 C1749 1.363 . S
C1754 C1753 1.415 . S
C1755 H1731 0.951 . S
C1755 C1756 1.366 . S
C1755 C1757 1.388 . S
C1756 C1755 1.366 . S
C1756 C1760 1.385 . S
C1757 H1732 0.951 . S
C1757 C1755 1.388 . S
C1757 C1758 1.366 . S
C1758 C1757 1.366 . S
C1758 C1759 1.414 . S
C1758 C1761 1.499 . S
C1759 H1733 0.950 . S
C1759 C1758 1.414 . S
C1759 C1760 1.374 . S
C1760 H1734 0.950 . S
C1760 C1756 1.385 . S
C1760 C1759 1.374 . S
C1761 C1758 1.499 . S
C1761 C1762 1.373 . S
C1761 C1763 1.389 . S
C1762 H1735 0.950 . S
C1762 C1748 1.377 . S
C1762 C1761 1.373 . S
C1763 C1747 1.377 . S
C1763 C1761 1.389 . S
C1763 C1764 1.524 . S
C1764 C1763 1.524 . S
C1764 C1765 1.397 . S
C1764 C1769 1.363 . S
C1765 H1736 0.950 . S
C1765 C1764 1.397 . S
C1765 C1766 1.334 . S
C1766 H1737 0.950 . S
C1766 C1765 1.334 . S
C1766 C1767 1.287 . S
C1767 C1766 1.287 . S
C1767 C1768 1.524 . S
C1767 H1770 0.999 . S
C1768 H1738 0.950 . S
C1768 C1767 1.524 . S
C1768 C1769 1.415 . S
C1769 H1739 0.950 . S
C1769 C1764 1.363 . S
C1769 C1768 1.415 . S
H1770 C1767 0.999 . S
H1771 C1752 0.913 . S
H1772 C1790 0.951 . S
H1773 C1792 0.951 . S
H1774 C1794 0.950 . S
H1775 C1795 0.950 . S
H1776 C1797 0.950 . S
H1777 C1800 0.950 . S
H1778 C1801 0.950 . S
H1779 C1803 0.950 . S
H1780 C1804 0.950 . S
H1781 C1805 0.951 . S
H1782 C1807 0.951 . S
H1783 C1809 0.950 . S
H1784 C1810 0.950 . S
H1785 C1812 0.950 . S
H1786 C1815 0.950 . S
H1787 C1816 0.950 . S
H1788 C1818 0.950 . S
H1789 C1819 0.950 . S
C1790 H1772 0.951 . S
C1790 C1791 1.366 . S
C1790 C1792 1.388 . S
C1791 C1790 1.366 . S
C1791 C1795 1.385 . S
C1792 H1773 0.951 . S
C1792 C1790 1.388 . S
C1792 C1793 1.366 . S
C1793 C1792 1.366 . S
C1793 C1794 1.414 . S
C1793 C1796 1.499 . S
C1794 H1774 0.950 . S
C1794 C1793 1.414 . S
C1794 C1795 1.374 . S
C1795 H1775 0.950 . S
C1795 C1791 1.385 . S
C1795 C1794 1.374 . S
C1796 C1793 1.499 . S
C1796 C1797 1.373 . S
C1796 C1798 1.389 . S
C1797 H1776 0.950 . S
C1797 C1796 1.373 . S
C1797 C1813 1.377 . S
C1798 C1796 1.389 . S
C1798 C1799 1.524 . S
C1798 C1812 1.377 . S
C1799 C1798 1.524 . S
C1799 C1800 1.397 . S
C1799 C1804 1.363 . S
C1800 H1777 0.950 . S
C1800 C1799 1.397 . S
C1800 C1801 1.334 . S
C1801 H1778 0.950 . S
C1801 C1800 1.334 . S
C1801 C1802 1.287 . S
C1802 C1801 1.287 . S
C1802 C1803 1.524 . S
C1802 H1821 0.913 . S
C1803 H1779 0.950 . S
C1803 C1802 1.524 . S
C1803 C1804 1.415 . S
C1804 H1780 0.950 . S
C1804 C1799 1.363 . S
C1804 C1803 1.415 . S
C1805 H1781 0.951 . S
C1805 C1806 1.366 . S
C1805 C1807 1.388 . S
C1806 C1805 1.366 . S
C1806 C1810 1.385 . S
C1807 H1782 0.951 . S
C1807 C1805 1.388 . S
C1807 C1808 1.366 . S
C1808 C1807 1.366 . S
C1808 C1809 1.414 . S
C1808 C1811 1.499 . S
C1809 H1783 0.950 . S
C1809 C1808 1.414 . S
C1809 C1810 1.374 . S
C1810 H1784 0.950 . S
C1810 C1806 1.385 . S
C1810 C1809 1.374 . S
C1811 C1808 1.499 . S
C1811 C1812 1.373 . S
C1811 C1813 1.389 . S
C1812 H1785 0.950 . S
C1812 C1798 1.377 . S
C1812 C1811 1.373 . S
C1813 C1797 1.377 . S
C1813 C1811 1.389 . S
C1813 C1814 1.524 . S
C1814 C1813 1.524 . S
C1814 C1815 1.397 . S
C1814 C1819 1.363 . S
C1815 H1786 0.950 . S
C1815 C1814 1.397 . S
C1815 C1816 1.334 . S
C1816 H1787 0.950 . S
C1816 C1815 1.334 . S
C1816 C1817 1.287 . S
C1817 C1816 1.287 . S
C1817 C1818 1.524 . S
C1817 H1820 0.999 . S
C1818 H1788 0.950 . S
C1818 C1817 1.524 . S
C1818 C1819 1.415 . S
C1819 H1789 0.950 . S
C1819 C1814 1.363 . S
C1819 C1818 1.415 . S
H1820 C1817 0.999 . S
H1821 C1802 0.913 . S
H1822 C1840 0.951 . S
H1823 C1842 0.951 . S
H1824 C1844 0.950 . S
H1825 C1845 0.950 . S
H1826 C1847 0.950 . S
H1827 C1850 0.950 . S
H1828 C1851 0.950 . S
H1829 C1853 0.950 . S
H1830 C1854 0.950 . S
H1831 C1855 0.951 . S
H1832 C1857 0.951 . S
H1833 C1859 0.950 . S
H1834 C1860 0.950 . S
H1835 C1862 0.950 . S
H1836 C1865 0.950 . S
H1837 C1866 0.950 . S
H1838 C1868 0.950 . S
H1839 C1869 0.950 . S
C1840 H1822 0.951 . S
C1840 C1841 1.366 . S
C1840 C1842 1.388 . S
C1841 C1840 1.366 . S
C1841 C1845 1.385 . S
C1842 H1823 0.951 . S
C1842 C1840 1.388 . S
C1842 C1843 1.366 . S
C1843 C1842 1.366 . S
C1843 C1844 1.414 . S
C1843 C1846 1.499 . S
C1844 H1824 0.950 . S
C1844 C1843 1.414 . S
C1844 C1845 1.374 . S
C1845 H1825 0.950 . S
C1845 C1841 1.385 . S
C1845 C1844 1.374 . S
C1846 C1843 1.499 . S
C1846 C1847 1.373 . S
C1846 C1848 1.389 . S
C1847 H1826 0.950 . S
C1847 C1846 1.373 . S
C1847 C1863 1.377 . S
C1848 C1846 1.389 . S
C1848 C1849 1.524 . S
C1848 C1862 1.377 . S
C1849 C1848 1.524 . S
C1849 C1850 1.397 . S
C1849 C1854 1.363 . S
C1850 H1827 0.950 . S
C1850 C1849 1.397 . S
C1850 C1851 1.334 . S
C1851 H1828 0.950 . S
C1851 C1850 1.334 . S
C1851 C1852 1.287 . S
C1852 C1851 1.287 . S
C1852 C1853 1.524 . S
C1852 H1871 0.913 . S
C1853 H1829 0.950 . S
C1853 C1852 1.524 . S
C1853 C1854 1.415 . S
C1854 H1830 0.950 . S
C1854 C1849 1.363 . S
C1854 C1853 1.415 . S
C1855 H1831 0.951 . S
C1855 C1856 1.366 . S
C1855 C1857 1.388 . S
C1856 C1855 1.366 . S
C1856 C1860 1.385 . S
C1857 H1832 0.951 . S
C1857 C1855 1.388 . S
C1857 C1858 1.366 . S
C1858 C1857 1.366 . S
C1858 C1859 1.414 . S
C1858 C1861 1.499 . S
C1859 H1833 0.950 . S
C1859 C1858 1.414 . S
C1859 C1860 1.374 . S
C1860 H1834 0.950 . S
C1860 C1856 1.385 . S
C1860 C1859 1.374 . S
C1861 C1858 1.499 . S
C1861 C1862 1.373 . S
C1861 C1863 1.389 . S
C1862 H1835 0.950 . S
C1862 C1848 1.377 . S
C1862 C1861 1.373 . S
C1863 C1847 1.377 . S
C1863 C1861 1.389 . S
C1863 C1864 1.524 . S
C1864 C1863 1.524 . S
C1864 C1865 1.397 . S
C1864 C1869 1.363 . S
C1865 H1836 0.950 . S
C1865 C1864 1.397 . S
C1865 C1866 1.334 . S
C1866 H1837 0.950 . S
C1866 C1865 1.334 . S
C1866 C1867 1.287 . S
C1867 C1866 1.287 . S
C1867 C1868 1.524 . S
C1867 H1870 0.999 . S
C1868 H1838 0.950 . S
C1868 C1867 1.524 . S
C1868 C1869 1.415 . S
C1869 H1839 0.950 . S
C1869 C1864 1.363 . S
C1869 C1868 1.415 . S
H1870 C1867 0.999 . S
H1871 C1852 0.913 . S
H1872 C1890 0.951 . S
H1873 C1892 0.951 . S
H1874 C1894 0.950 . S
H1875 C1895 0.950 . S
H1876 C1897 0.950 . S
H1877 C1900 0.950 . S
H1878 C1901 0.950 . S
H1879 C1903 0.950 . S
H1880 C1904 0.950 . S
H1881 C1905 0.951 . S
H1882 C1907 0.951 . S
H1883 C1909 0.950 . S
H1884 C1910 0.950 . S
H1885 C1912 0.950 . S
H1886 C1915 0.950 . S
H1887 C1916 0.950 . S
H1888 C1918 0.950 . S
H1889 C1919 0.950 . S
C1890 H1872 0.951 . S
C1890 C1891 1.366 . S
C1890 C1892 1.388 . S
C1891 C1890 1.366 . S
C1891 C1895 1.385 . S
C1892 H1873 0.951 . S
C1892 C1890 1.388 . S
C1892 C1893 1.366 . S
C1893 C1892 1.366 . S
C1893 C1894 1.414 . S
C1893 C1896 1.499 . S
C1894 H1874 0.950 . S
C1894 C1893 1.414 . S
C1894 C1895 1.374 . S
C1895 H1875 0.950 . S
C1895 C1891 1.385 . S
C1895 C1894 1.374 . S
C1896 C1893 1.499 . S
C1896 C1897 1.373 . S
C1896 C1898 1.389 . S
C1897 H1876 0.950 . S
C1897 C1896 1.373 . S
C1897 C1913 1.377 . S
C1898 C1896 1.389 . S
C1898 C1899 1.524 1_655 S
C1898 C1912 1.377 1_655 S
C1899 C1898 1.524 1_455 S
C1899 C1900 1.397 . S
C1899 C1904 1.363 . S
C1900 H1877 0.950 . S
C1900 C1899 1.397 . S
C1900 C1901 1.334 . S
C1901 H1878 0.950 . S
C1901 C1900 1.334 . S
C1901 C1902 1.287 . S
C1902 C1901 1.287 . S
C1902 C1903 1.524 . S
C1902 H1921 0.913 . S
C1903 H1879 0.950 . S
C1903 C1902 1.524 . S
C1903 C1904 1.415 . S
C1904 H1880 0.950 . S
C1904 C1899 1.363 . S
C1904 C1903 1.415 . S
C1905 H1881 0.951 . S
C1905 C1906 1.366 1_655 S
C1905 C1907 1.388 . S
C1906 C1905 1.366 1_455 S
C1906 C1910 1.385 . S
C1907 H1882 0.951 . S
C1907 C1905 1.388 . S
C1907 C1908 1.366 . S
C1908 C1907 1.366 . S
C1908 C1909 1.414 1_655 S
C1908 C1911 1.499 . S
C1909 H1883 0.950 . S
C1909 C1908 1.414 1_455 S
C1909 C1910 1.374 . S
C1910 H1884 0.950 . S
C1910 C1906 1.385 . S
C1910 C1909 1.374 . S
C1911 C1908 1.499 . S
C1911 C1912 1.373 1_655 S
C1911 C1913 1.389 . S
C1912 H1885 0.950 . S
C1912 C1898 1.377 1_455 S
C1912 C1911 1.373 1_455 S
C1913 C1897 1.377 . S
C1913 C1911 1.389 . S
C1913 C1914 1.524 . S
C1914 C1913 1.524 . S
C1914 C1915 1.397 . S
C1914 C1919 1.363 . S
C1915 H1886 0.950 . S
C1915 C1914 1.397 . S
C1915 C1916 1.334 . S
C1916 H1887 0.950 . S
C1916 C1915 1.334 . S
C1916 C1917 1.287 . S
C1917 C1916 1.287 . S
C1917 C1918 1.524 . S
C1917 H1920 0.999 . S
C1918 H1888 0.950 . S
C1918 C1917 1.524 . S
C1918 C1919 1.415 . S
C1919 H1889 0.950 . S
C1919 C1914 1.363 . S
C1919 C1918 1.415 . S
H1920 C1917 0.999 . S
H1921 C1902 0.913 . S
H1922 C1940 0.951 . S
H1923 C1942 0.919 1_455 S
H1924 C1944 0.950 . S
H1925 C1945 0.950 . S
H1926 C1947 0.950 . S
H1927 C1950 0.950 . S
H1928 C1951 0.957 . S
H1929 C1953 0.950 . S
H1930 C1954 0.950 . S
H1931 C1955 0.951 . S
H1932 C1957 0.951 . S
H1933 C1959 0.950 . S
H1934 C1960 0.950 . S
H1935 C1962 0.950 1_455 S
H1936 C1965 0.950 . S
H1937 C1966 0.950 . S
H1938 C1968 0.950 . S
H1939 C1969 0.950 . S
C1940 H1922 0.951 . S
C1940 C1941 1.366 . S
C1940 C1942 1.388 . S
C1941 C1940 1.366 . S
C1941 C1945 1.385 . S
C1942 H1923 0.919 1_655 S
C1942 C1940 1.388 . S
C1942 C1943 1.366 . S
C1943 C1942 1.366 . S
C1943 C1944 1.414 . S
C1943 C1946 1.499 . S
C1944 H1924 0.950 . S
C1944 C1943 1.414 . S
C1944 C1945 1.374 . S
C1945 H1925 0.950 . S
C1945 C1941 1.385 . S
C1945 C1944 1.374 . S
C1946 C1943 1.499 . S
C1946 C1947 1.373 . S
C1946 C1948 1.389 . S
C1947 H1926 0.950 . S
C1947 C1946 1.373 . S
C1947 C1963 1.377 . S
C1948 C1946 1.389 . S
C1948 C1949 1.524 1_655 S
C1948 C1962 1.377 . S
C1949 C1948 1.524 1_455 S
C1949 C1950 1.397 1_455 S
C1949 C1954 1.363 . S
C1950 H1927 0.950 . S
C1950 C1949 1.397 1_655 S
C1950 C1951 1.338 . S
C1951 H1928 0.957 . S
C1951 C1950 1.338 . S
C1951 C1952 1.276 1_655 S
C1952 C1951 1.276 1_455 S
C1952 C1953 1.524 . S
C1952 H1971 0.913 . S
C1953 H1929 0.950 . S
C1953 C1952 1.524 . S
C1953 C1954 1.415 . S
C1954 H1930 0.950 . S
C1954 C1949 1.363 . S
C1954 C1953 1.415 . S
C1955 H1931 0.951 . S
C1955 C1956 1.366 1_655 S
C1955 C1957 1.388 . S
C1956 C1955 1.366 1_455 S
C1956 C1960 1.385 . S
C1957 H1932 0.951 . S
C1957 C1955 1.388 . S
C1957 C1958 1.366 . S
C1958 C1957 1.366 . S
C1958 C1959 1.414 1_655 S
C1958 C1961 1.499 . S
C1959 H1933 0.950 . S
C1959 C1958 1.414 1_455 S
C1959 C1960 1.374 . S
C1960 H1934 0.950 . S
C1960 C1956 1.385 . S
C1960 C1959 1.374 . S
C1961 C1958 1.499 . S
C1961 C1962 1.373 . S
C1961 C1963 1.389 . S
C1962 H1935 0.950 1_655 S
C1962 C1948 1.377 . S
C1962 C1961 1.373 . S
C1963 C1947 1.377 . S
C1963 C1961 1.389 . S
C1963 C1964 1.524 . S
C1964 C1963 1.524 . S
C1964 C1965 1.397 . S
C1964 C1969 1.363 . S
C1965 H1936 0.950 . S
C1965 C1964 1.397 . S
C1965 C1966 1.334 . S
C1966 H1937 0.950 . S
C1966 C1965 1.334 . S
C1966 C1967 1.287 . S
C1967 C1966 1.287 . S
C1967 C1968 1.524 . S
C1967 H1970 0.999 . S
C1968 H1938 0.950 . S
C1968 C1967 1.524 . S
C1968 C1969 1.415 . S
C1969 H1939 0.950 . S
C1969 C1964 1.363 . S
C1969 C1968 1.415 . S
H1970 C1967 0.999 . S
H1971 C1952 0.913 . S
H1972 C1990 0.951 . S
H1973 C1992 0.951 . S
H1974 C1994 0.950 . S
H1975 C1995 0.950 . S
H1976 C1997 0.950 . S
H1977 C2000 0.950 . S
H1978 C2001 0.950 . S
H1979 C2003 0.950 . S
H1980 C2004 0.950 . S
H1981 C2005 0.951 . S
H1982 C2007 0.951 . S
H1983 C2009 0.950 . S
H1984 C2010 0.950 . S
H1985 C2012 0.950 . S
H1986 C2015 0.950 . S
H1987 C2016 0.950 . S
H1988 C2018 0.950 . S
H1989 C2019 0.950 . S
C1990 H1972 0.951 . S
C1990 C1991 1.366 . S
C1990 C1992 1.388 . S
C1991 C1990 1.366 . S
C1991 C1995 1.385 . S
C1992 H1973 0.951 . S
C1992 C1990 1.388 . S
C1992 C1993 1.366 . S
C1993 C1992 1.366 . S
C1993 C1994 1.414 . S
C1993 C1996 1.499 . S
C1994 H1974 0.950 . S
C1994 C1993 1.414 . S
C1994 C1995 1.374 . S
C1995 H1975 0.950 . S
C1995 C1991 1.385 . S
C1995 C1994 1.374 . S
C1996 C1993 1.499 . S
C1996 C1997 1.373 . S
C1996 C1998 1.389 . S
C1997 H1976 0.950 . S
C1997 C1996 1.373 . S
C1997 C2013 1.377 . S
C1998 C1996 1.389 . S
C1998 C1999 1.524 . S
C1998 C2012 1.377 . S
C1999 C1998 1.524 . S
C1999 C2000 1.397 . S
C1999 C2004 1.363 . S
C2000 H1977 0.950 . S
C2000 C1999 1.397 . S
C2000 C2001 1.334 . S
C2001 H1978 0.950 . S
C2001 C2000 1.334 . S
C2001 C2002 1.287 . S
C2002 C2001 1.287 . S
C2002 C2003 1.524 . S
C2002 H2021 0.913 . S
C2003 H1979 0.950 . S
C2003 C2002 1.524 . S
C2003 C2004 1.415 . S
C2004 H1980 0.950 . S
C2004 C1999 1.363 . S
C2004 C2003 1.415 . S
C2005 H1981 0.951 . S
C2005 C2006 1.366 . S
C2005 C2007 1.388 . S
C2006 C2005 1.366 . S
C2006 C2010 1.385 . S
C2007 H1982 0.951 . S
C2007 C2005 1.388 . S
C2007 C2008 1.366 . S
C2008 C2007 1.366 . S
C2008 C2009 1.414 . S
C2008 C2011 1.499 . S
C2009 H1983 0.950 . S
C2009 C2008 1.414 . S
C2009 C2010 1.374 . S
C2010 H1984 0.950 . S
C2010 C2006 1.385 . S
C2010 C2009 1.374 . S
C2011 C2008 1.499 . S
C2011 C2012 1.373 . S
C2011 C2013 1.389 . S
C2012 H1985 0.950 . S
C2012 C1998 1.377 . S
C2012 C2011 1.373 . S
C2013 C1997 1.377 . S
C2013 C2011 1.389 . S
C2013 C2014 1.524 . S
C2014 C2013 1.524 . S
C2014 C2015 1.397 . S
C2014 C2019 1.363 . S
C2015 H1986 0.950 . S
C2015 C2014 1.397 . S
C2015 C2016 1.334 . S
C2016 H1987 0.950 . S
C2016 C2015 1.334 . S
C2016 C2017 1.287 . S
C2017 C2016 1.287 . S
C2017 C2018 1.524 . S
C2017 H2020 0.999 . S
C2018 H1988 0.950 . S
C2018 C2017 1.524 . S
C2018 C2019 1.415 . S
C2019 H1989 0.950 . S
C2019 C2014 1.363 . S
C2019 C2018 1.415 . S
H2020 C2017 0.999 . S
H2021 C2002 0.913 . S
H2022 C2040 0.951 . S
H2023 C2042 0.951 . S
H2024 C2044 0.950 . S
H2025 C2045 0.950 . S
H2026 C2047 0.950 . S
H2027 C2050 0.950 . S
H2028 C2051 0.950 . S
H2029 C2053 0.950 . S
H2030 C2054 0.950 . S
H2031 C2055 0.951 . S
H2032 C2057 0.951 . S
H2033 C2059 0.950 . S
H2034 C2060 0.950 . S
H2035 C2062 0.950 . S
H2036 C2065 0.950 . S
H2037 C2066 0.950 . S
H2038 C2068 0.950 . S
H2039 C2069 0.950 . S
C2040 H2022 0.951 . S
C2040 C2041 1.366 . S
C2040 C2042 1.388 . S
C2041 C2040 1.366 . S
C2041 C2045 1.385 . S
C2042 H2023 0.951 . S
C2042 C2040 1.388 . S
C2042 C2043 1.366 . S
C2043 C2042 1.366 . S
C2043 C2044 1.414 . S
C2043 C2046 1.499 . S
C2044 H2024 0.950 . S
C2044 C2043 1.414 . S
C2044 C2045 1.374 . S
C2045 H2025 0.950 . S
C2045 C2041 1.385 . S
C2045 C2044 1.374 . S
C2046 C2043 1.499 . S
C2046 C2047 1.373 . S
C2046 C2048 1.389 . S
C2047 H2026 0.950 . S
C2047 C2046 1.373 . S
C2047 C2063 1.377 . S
C2048 C2046 1.389 . S
C2048 C2049 1.524 . S
C2048 C2062 1.377 . S
C2049 C2048 1.524 . S
C2049 C2050 1.397 . S
C2049 C2054 1.363 . S
C2050 H2027 0.950 . S
C2050 C2049 1.397 . S
C2050 C2051 1.334 . S
C2051 H2028 0.950 . S
C2051 C2050 1.334 . S
C2051 C2052 1.287 . S
C2052 C2051 1.287 . S
C2052 C2053 1.524 . S
C2052 H2071 0.913 . S
C2053 H2029 0.950 . S
C2053 C2052 1.524 . S
C2053 C2054 1.415 . S
C2054 H2030 0.950 . S
C2054 C2049 1.363 . S
C2054 C2053 1.415 . S
C2055 H2031 0.951 . S
C2055 C2056 1.366 . S
C2055 C2057 1.388 . S
C2056 C2055 1.366 . S
C2056 C2060 1.385 . S
C2057 H2032 0.951 . S
C2057 C2055 1.388 . S
C2057 C2058 1.366 . S
C2058 C2057 1.366 . S
C2058 C2059 1.414 . S
C2058 C2061 1.499 . S
C2059 H2033 0.950 . S
C2059 C2058 1.414 . S
C2059 C2060 1.374 . S
C2060 H2034 0.950 . S
C2060 C2056 1.385 . S
C2060 C2059 1.374 . S
C2061 C2058 1.499 . S
C2061 C2062 1.373 . S
C2061 C2063 1.389 . S
C2062 H2035 0.950 . S
C2062 C2048 1.377 . S
C2062 C2061 1.373 . S
C2063 C2047 1.377 . S
C2063 C2061 1.389 . S
C2063 C2064 1.524 . S
C2064 C2063 1.524 . S
C2064 C2065 1.397 . S
C2064 C2069 1.363 . S
C2065 H2036 0.950 . S
C2065 C2064 1.397 . S
C2065 C2066 1.334 . S
C2066 H2037 0.950 . S
C2066 C2065 1.334 . S
C2066 C2067 1.287 . S
C2067 C2066 1.287 . S
C2067 C2068 1.524 . S
C2067 H2070 0.999 . S
C2068 H2038 0.950 . S
C2068 C2067 1.524 . S
C2068 C2069 1.415 . S
C2069 H2039 0.950 . S
C2069 C2064 1.363 . S
C2069 C2068 1.415 . S
H2070 C2067 0.999 . S
H2071 C2052 0.913 . S
H2072 C2090 0.949 . S
H2073 C2092 0.951 . S
H2074 C2094 0.950 . S
H2075 C2095 0.949 . S
H2076 C2097 0.950 1_545 S
H2077 C2100 0.950 . S
H2078 C2101 0.950 . S
H2079 C2103 0.950 . S
H2080 C2104 0.950 . S
H2081 C2105 0.951 . S
H2082 C2107 0.951 . S
H2083 C2109 0.950 . S
H2084 C2110 0.950 . S
H2085 C2112 0.950 . S
H2086 C2115 0.950 . S
H2087 C2116 0.950 . S
H2088 C2118 0.950 . S
H2089 C2119 0.950 . S
C2090 H2072 0.949 . S
C2090 C2091 1.353 1_565 S
C2090 C2092 1.414 . S
C2091 C2090 1.353 1_545 S
C2091 C2095 1.384 . S
C2092 H2073 0.951 . S
C2092 C2090 1.414 . S
C2092 C2093 1.366 . S
C2093 C2092 1.366 . S
C2093 C2094 1.414 . S
C2093 C2096 1.499 . S
C2094 H2074 0.950 . S
C2094 C2093 1.414 . S
C2094 C2095 1.375 1_565 S
C2095 H2075 0.949 . S
C2095 C2091 1.384 . S
C2095 C2094 1.375 1_545 S
C2096 C2093 1.499 . S
C2096 C2097 1.373 . S
C2096 C2098 1.389 . S
C2097 H2076 0.950 1_565 S
C2097 C2096 1.373 . S
C2097 C2113 1.377 . S
C2098 C2096 1.389 . S
C2098 C2099 1.524 . S
C2098 C2112 1.377 . S
C2099 C2098 1.524 . S
C2099 C2100 1.397 . S
C2099 C2104 1.363 . S
C2100 H2077 0.950 . S
C2100 C2099 1.397 . S
C2100 C2101 1.334 . S
C2101 H2078 0.950 . S
C2101 C2100 1.334 . S
C2101 C2102 1.287 . S
C2102 C2101 1.287 . S
C2102 C2103 1.524 . S
C2102 H2121 0.913 . S
C2103 H2079 0.950 . S
C2103 C2102 1.524 . S
C2103 C2104 1.415 . S
C2104 H2080 0.950 . S
C2104 C2099 1.363 . S
C2104 C2103 1.415 . S
C2105 H2081 0.951 . S
C2105 C2106 1.366 . S
C2105 C2107 1.388 . S
C2106 C2105 1.366 . S
C2106 C2110 1.385 . S
C2107 H2082 0.951 . S
C2107 C2105 1.388 . S
C2107 C2108 1.366 . S
C2108 C2107 1.366 . S
C2108 C2109 1.414 . S
C2108 C2111 1.499 . S
C2109 H2083 0.950 . S
C2109 C2108 1.414 . S
C2109 C2110 1.374 . S
C2110 H2084 0.950 . S
C2110 C2106 1.385 . S
C2110 C2109 1.374 . S
C2111 C2108 1.499 . S
C2111 C2112 1.373 . S
C2111 C2113 1.389 . S
C2112 H2085 0.950 . S
C2112 C2098 1.377 . S
C2112 C2111 1.373 . S
C2113 C2097 1.377 . S
C2113 C2111 1.389 . S
C2113 C2114 1.524 1_565 S
C2114 C2113 1.524 1_545 S
C2114 C2115 1.397 . S
C2114 C2119 1.363 . S
C2115 H2086 0.950 . S
C2115 C2114 1.397 . S
C2115 C2116 1.334 . S
C2116 H2087 0.950 . S
C2116 C2115 1.334 . S
C2116 C2117 1.287 . S
C2117 C2116 1.287 . S
C2117 C2118 1.524 . S
C2117 H2120 0.999 . S
C2118 H2088 0.950 . S
C2118 C2117 1.524 . S
C2118 C2119 1.415 . S
C2119 H2089 0.950 . S
C2119 C2114 1.363 . S
C2119 C2118 1.415 . S
H2120 C2117 0.999 . S
H2121 C2102 0.913 . S
H2122 C2140 0.951 . S
H2123 C2142 0.951 . S
H2124 C2144 0.950 . S
H2125 C2145 0.950 . S
H2126 C2147 0.950 . S
H2127 C2150 0.950 . S
H2128 C2151 0.950 . S
H2129 C2153 0.950 . S
H2130 C2154 0.950 . S
H2131 C2155 0.951 . S
H2132 C2157 0.951 . S
H2133 C2159 0.950 . S
H2134 C2160 0.950 . S
H2135 C2162 0.950 . S
H2136 C2165 0.950 . S
H2137 C2166 0.950 . S
H2138 C2168 0.950 . S
H2139 C2169 0.950 . S
C2140 H2122 0.951 . S
C2140 C2141 1.366 . S
C2140 C2142 1.388 . S
C2141 C2140 1.366 . S
C2141 C2145 1.385 . S
C2142 H2123 0.951 . S
C2142 C2140 1.388 . S
C2142 C2143 1.366 . S
C2143 C2142 1.366 . S
C2143 C2144 1.414 . S
C2143 C2146 1.499 . S
C2144 H2124 0.950 . S
C2144 C2143 1.414 . S
C2144 C2145 1.374 . S
C2145 H2125 0.950 . S
C2145 C2141 1.385 . S
C2145 C2144 1.374 . S
C2146 C2143 1.499 . S
C2146 C2147 1.373 . S
C2146 C2148 1.389 . S
C2147 H2126 0.950 . S
C2147 C2146 1.373 . S
C2147 C2163 1.377 . S
C2148 C2146 1.389 . S
C2148 C2149 1.524 . S
C2148 C2162 1.377 . S
C2149 C2148 1.524 . S
C2149 C2150 1.397 . S
C2149 C2154 1.363 . S
C2150 H2127 0.950 . S
C2150 C2149 1.397 . S
C2150 C2151 1.334 . S
C2151 H2128 0.950 . S
C2151 C2150 1.334 . S
C2151 C2152 1.287 . S
C2152 C2151 1.287 . S
C2152 C2153 1.524 . S
C2152 H2171 0.913 . S
C2153 H2129 0.950 . S
C2153 C2152 1.524 . S
C2153 C2154 1.415 . S
C2154 H2130 0.950 . S
C2154 C2149 1.363 . S
C2154 C2153 1.415 . S
C2155 H2131 0.951 . S
C2155 C2156 1.366 . S
C2155 C2157 1.388 . S
C2156 C2155 1.366 . S
C2156 C2160 1.385 . S
C2157 H2132 0.951 . S
C2157 C2155 1.388 . S
C2157 C2158 1.366 . S
C2158 C2157 1.366 . S
C2158 C2159 1.414 . S
C2158 C2161 1.499 . S
C2159 H2133 0.950 . S
C2159 C2158 1.414 . S
C2159 C2160 1.374 . S
C2160 H2134 0.950 . S
C2160 C2156 1.385 . S
C2160 C2159 1.374 . S
C2161 C2158 1.499 . S
C2161 C2162 1.373 . S
C2161 C2163 1.389 . S
C2162 H2135 0.950 . S
C2162 C2148 1.377 . S
C2162 C2161 1.373 . S
C2163 C2147 1.377 . S
C2163 C2161 1.389 . S
C2163 C2164 1.524 . S
C2164 C2163 1.524 . S
C2164 C2165 1.397 . S
C2164 C2169 1.363 . S
C2165 H2136 0.950 . S
C2165 C2164 1.397 . S
C2165 C2166 1.334 . S
C2166 H2137 0.950 . S
C2166 C2165 1.334 . S
C2166 C2167 1.287 . S
C2167 C2166 1.287 . S
C2167 C2168 1.524 . S
C2167 H2170 0.999 . S
C2168 H2138 0.950 . S
C2168 C2167 1.524 . S
C2168 C2169 1.415 . S
C2169 H2139 0.950 . S
C2169 C2164 1.363 . S
C2169 C2168 1.415 . S
H2170 C2167 0.999 . S
H2171 C2152 0.913 . S
H2172 C2190 0.951 . S
H2173 C2192 0.951 . S
H2174 C2194 0.950 . S
H2175 C2195 0.950 . S
H2176 C2197 0.950 . S
H2177 C2200 0.950 . S
H2178 C2201 0.950 . S
H2179 C2203 0.950 . S
H2180 C2204 0.950 . S
H2181 C2205 0.951 . S
H2182 C2207 0.951 . S
H2183 C2209 0.950 . S
H2184 C2210 0.950 . S
H2185 C2212 0.950 . S
H2186 C2215 0.950 . S
H2187 C2216 0.950 . S
H2188 C2218 0.950 . S
H2189 C2219 0.950 . S
C2190 H2172 0.951 . S
C2190 C2191 1.366 . S
C2190 C2192 1.388 . S
C2191 C2190 1.366 . S
C2191 C2195 1.385 . S
C2192 H2173 0.951 . S
C2192 C2190 1.388 . S
C2192 C2193 1.366 . S
C2193 C2192 1.366 . S
C2193 C2194 1.414 . S
C2193 C2196 1.499 . S
C2194 H2174 0.950 . S
C2194 C2193 1.414 . S
C2194 C2195 1.374 . S
C2195 H2175 0.950 . S
C2195 C2191 1.385 . S
C2195 C2194 1.374 . S
C2196 C2193 1.499 . S
C2196 C2197 1.373 . S
C2196 C2198 1.389 . S
C2197 H2176 0.950 . S
C2197 C2196 1.373 . S
C2197 C2213 1.377 . S
C2198 C2196 1.389 . S
C2198 C2199 1.524 . S
C2198 C2212 1.377 . S
C2199 C2198 1.524 . S
C2199 C2200 1.397 . S
C2199 C2204 1.363 . S
C2200 H2177 0.950 . S
C2200 C2199 1.397 . S
C2200 C2201 1.334 . S
C2201 H2178 0.950 . S
C2201 C2200 1.334 . S
C2201 C2202 1.287 . S
C2202 C2201 1.287 . S
C2202 C2203 1.524 . S
C2202 H2221 0.913 . S
C2203 H2179 0.950 . S
C2203 C2202 1.524 . S
C2203 C2204 1.415 . S
C2204 H2180 0.950 . S
C2204 C2199 1.363 . S
C2204 C2203 1.415 . S
C2205 H2181 0.951 . S
C2205 C2206 1.366 . S
C2205 C2207 1.388 . S
C2206 C2205 1.366 . S
C2206 C2210 1.385 . S
C2207 H2182 0.951 . S
C2207 C2205 1.388 . S
C2207 C2208 1.366 . S
C2208 C2207 1.366 . S
C2208 C2209 1.414 . S
C2208 C2211 1.499 . S
C2209 H2183 0.950 . S
C2209 C2208 1.414 . S
C2209 C2210 1.374 . S
C2210 H2184 0.950 . S
C2210 C2206 1.385 . S
C2210 C2209 1.374 . S
C2211 C2208 1.499 . S
C2211 C2212 1.373 . S
C2211 C2213 1.389 . S
C2212 H2185 0.950 . S
C2212 C2198 1.377 . S
C2212 C2211 1.373 . S
C2213 C2197 1.377 . S
C2213 C2211 1.389 . S
C2213 C2214 1.524 . S
C2214 C2213 1.524 . S
C2214 C2215 1.397 . S
C2214 C2219 1.363 . S
C2215 H2186 0.950 . S
C2215 C2214 1.397 . S
C2215 C2216 1.334 . S
C2216 H2187 0.950 . S
C2216 C2215 1.334 . S
C2216 C2217 1.287 . S
C2217 C2216 1.287 . S
C2217 C2218 1.524 . S
C2217 H2220 0.999 . S
C2218 H2188 0.950 . S
C2218 C2217 1.524 . S
C2218 C2219 1.415 . S
C2219 H2189 0.950 . S
C2219 C2214 1.363 . S
C2219 C2218 1.415 . S
H2220 C2217 0.999 . S
H2221 C2202 0.913 . S
H2222 C2240 0.951 . S
H2223 C2242 0.951 . S
H2224 C2244 0.950 . S
H2225 C2245 0.950 . S
H2226 C2247 0.950 . S
H2227 C2250 0.950 . S
H2228 C2251 0.950 . S
H2229 C2253 0.950 . S
H2230 C2254 0.950 . S
H2231 C2255 0.951 . S
H2232 C2257 0.951 . S
H2233 C2259 0.950 . S
H2234 C2260 0.950 . S
H2235 C2262 0.950 . S
H2236 C2265 0.950 . S
H2237 C2266 0.950 . S
H2238 C2268 0.950 . S
H2239 C2269 0.950 . S
C2240 H2222 0.951 . S
C2240 C2241 1.366 . S
C2240 C2242 1.388 . S
C2241 C2240 1.366 . S
C2241 C2245 1.385 . S
C2242 H2223 0.951 . S
C2242 C2240 1.388 . S
C2242 C2243 1.366 . S
C2243 C2242 1.366 . S
C2243 C2244 1.414 . S
C2243 C2246 1.499 . S
C2244 H2224 0.950 . S
C2244 C2243 1.414 . S
C2244 C2245 1.374 . S
C2245 H2225 0.950 . S
C2245 C2241 1.385 . S
C2245 C2244 1.374 . S
C2246 C2243 1.499 . S
C2246 C2247 1.373 . S
C2246 C2248 1.389 . S
C2247 H2226 0.950 . S
C2247 C2246 1.373 . S
C2247 C2263 1.377 . S
C2248 C2246 1.389 . S
C2248 C2249 1.524 . S
C2248 C2262 1.377 . S
C2249 C2248 1.524 . S
C2249 C2250 1.397 . S
C2249 C2254 1.363 . S
C2250 H2227 0.950 . S
C2250 C2249 1.397 . S
C2250 C2251 1.334 . S
C2251 H2228 0.950 . S
C2251 C2250 1.334 . S
C2251 C2252 1.287 . S
C2252 C2251 1.287 . S
C2252 C2253 1.524 . S
C2252 H2271 0.913 . S
C2253 H2229 0.950 . S
C2253 C2252 1.524 . S
C2253 C2254 1.415 . S
C2254 H2230 0.950 . S
C2254 C2249 1.363 . S
C2254 C2253 1.415 . S
C2255 H2231 0.951 . S
C2255 C2256 1.366 . S
C2255 C2257 1.388 . S
C2256 C2255 1.366 . S
C2256 C2260 1.385 . S
C2257 H2232 0.951 . S
C2257 C2255 1.388 . S
C2257 C2258 1.366 . S
C2258 C2257 1.366 . S
C2258 C2259 1.414 . S
C2258 C2261 1.499 . S
C2259 H2233 0.950 . S
C2259 C2258 1.414 . S
C2259 C2260 1.374 . S
C2260 H2234 0.950 . S
C2260 C2256 1.385 . S
C2260 C2259 1.374 . S
C2261 C2258 1.499 . S
C2261 C2262 1.373 . S
C2261 C2263 1.389 . S
C2262 H2235 0.950 . S
C2262 C2248 1.377 . S
C2262 C2261 1.373 . S
C2263 C2247 1.377 . S
C2263 C2261 1.389 . S
C2263 C2264 1.524 . S
C2264 C2263 1.524 . S
C2264 C2265 1.397 . S
C2264 C2269 1.363 . S
C2265 H2236 0.950 . S
C2265 C2264 1.397 . S
C2265 C2266 1.334 . S
C2266 H2237 0.950 . S
C2266 C2265 1.334 . S
C2266 C2267 1.287 . S
C2267 C2266 1.287 . S
C2267 C2268 1.524 . S
C2267 H2270 0.999 . S
C2268 H2238 0.950 . S
C2268 C2267 1.524 . S
C2268 C2269 1.415 . S
C2269 H2239 0.950 . S
C2269 C2264 1.363 . S
C2269 C2268 1.415 . S
H2270 C2267 0.999 . S
H2271 C2252 0.913 . S
H2272 C2290 0.951 . S
H2273 C2292 0.951 . S
H2274 C2294 0.950 . S
H2275 C2295 0.950 . S
H2276 C2297 0.950 . S
H2277 C2300 0.950 . S
H2278 C2301 0.950 . S
H2279 C2303 0.950 . S
H2280 C2304 0.950 . S
H2281 C2305 0.951 . S
H2282 C2307 0.951 . S
H2283 C2309 0.950 . S
H2284 C2310 0.950 . S
H2285 C2312 0.950 . S
H2286 C2315 0.950 . S
H2287 C2316 0.950 . S
H2288 C2318 0.950 . S
H2289 C2319 0.950 . S
C2290 H2272 0.951 . S
C2290 C2291 1.366 . S
C2290 C2292 1.388 . S
C2291 C2290 1.366 . S
C2291 C2295 1.385 . S
C2292 H2273 0.951 . S
C2292 C2290 1.388 . S
C2292 C2293 1.366 . S
C2293 C2292 1.366 . S
C2293 C2294 1.414 . S
C2293 C2296 1.499 . S
C2294 H2274 0.950 . S
C2294 C2293 1.414 . S
C2294 C2295 1.374 . S
C2295 H2275 0.950 . S
C2295 C2291 1.385 . S
C2295 C2294 1.374 . S
C2296 C2293 1.499 . S
C2296 C2297 1.373 . S
C2296 C2298 1.389 . S
C2297 H2276 0.950 . S
C2297 C2296 1.373 . S
C2297 C2313 1.377 . S
C2298 C2296 1.389 . S
C2298 C2299 1.524 . S
C2298 C2312 1.377 . S
C2299 C2298 1.524 . S
C2299 C2300 1.397 . S
C2299 C2304 1.363 . S
C2300 H2277 0.950 . S
C2300 C2299 1.397 . S
C2300 C2301 1.334 . S
C2301 H2278 0.950 . S
C2301 C2300 1.334 . S
C2301 C2302 1.287 . S
C2302 C2301 1.287 . S
C2302 C2303 1.524 . S
C2302 H2321 0.913 . S
C2303 H2279 0.950 . S
C2303 C2302 1.524 . S
C2303 C2304 1.415 . S
C2304 H2280 0.950 . S
C2304 C2299 1.363 . S
C2304 C2303 1.415 . S
C2305 H2281 0.951 . S
C2305 C2306 1.366 . S
C2305 C2307 1.388 . S
C2306 C2305 1.366 . S
C2306 C2310 1.385 . S
C2307 H2282 0.951 . S
C2307 C2305 1.388 . S
C2307 C2308 1.366 . S
C2308 C2307 1.366 . S
C2308 C2309 1.414 . S
C2308 C2311 1.499 . S
C2309 H2283 0.950 . S
C2309 C2308 1.414 . S
C2309 C2310 1.374 . S
C2310 H2284 0.950 . S
C2310 C2306 1.385 . S
C2310 C2309 1.374 . S
C2311 C2308 1.499 . S
C2311 C2312 1.373 . S
C2311 C2313 1.389 . S
C2312 H2285 0.950 . S
C2312 C2298 1.377 . S
C2312 C2311 1.373 . S
C2313 C2297 1.377 . S
C2313 C2311 1.389 . S
C2313 C2314 1.524 . S
C2314 C2313 1.524 . S
C2314 C2315 1.397 . S
C2314 C2319 1.363 . S
C2315 H2286 0.950 . S
C2315 C2314 1.397 . S
C2315 C2316 1.334 . S
C2316 H2287 0.950 . S
C2316 C2315 1.334 . S
C2316 C2317 1.287 . S
C2317 C2316 1.287 . S
C2317 C2318 1.524 . S
C2317 H2320 0.999 . S
C2318 H2288 0.950 . S
C2318 C2317 1.524 . S
C2318 C2319 1.415 . S
C2319 H2289 0.950 . S
C2319 C2314 1.363 . S
C2319 C2318 1.415 . S
H2320 C2317 0.999 . S
H2321 C2302 0.913 . S
H2322 C2340 0.951 . S
H2323 C2342 0.951 . S
H2324 C2344 0.950 . S
H2325 C2345 0.950 . S
H2326 C2347 0.950 . S
H2327 C2350 0.950 . S
H2328 C2351 0.950 . S
H2329 C2353 0.950 . S
H2330 C2354 0.950 . S
H2331 C2355 0.951 . S
H2332 C2357 0.951 . S
H2333 C2359 0.950 . S
H2334 C2360 0.950 . S
H2335 C2362 0.950 . S
H2336 C2365 0.950 . S
H2337 C2366 0.950 . S
H2338 C2368 0.950 . S
H2339 C2369 0.950 . S
C2340 H2322 0.951 . S
C2340 C2341 1.366 . S
C2340 C2342 1.388 . S
C2341 C2340 1.366 . S
C2341 C2345 1.385 . S
C2342 H2323 0.951 . S
C2342 C2340 1.388 . S
C2342 C2343 1.366 . S
C2343 C2342 1.366 . S
C2343 C2344 1.414 . S
C2343 C2346 1.499 . S
C2344 H2324 0.950 . S
C2344 C2343 1.414 . S
C2344 C2345 1.374 . S
C2345 H2325 0.950 . S
C2345 C2341 1.385 . S
C2345 C2344 1.374 . S
C2346 C2343 1.499 . S
C2346 C2347 1.373 . S
C2346 C2348 1.389 . S
C2347 H2326 0.950 . S
C2347 C2346 1.373 . S
C2347 C2363 1.377 . S
C2348 C2346 1.389 . S
C2348 C2349 1.524 . S
C2348 C2362 1.377 . S
C2349 C2348 1.524 . S
C2349 C2350 1.397 . S
C2349 C2354 1.363 . S
C2350 H2327 0.950 . S
C2350 C2349 1.397 . S
C2350 C2351 1.334 . S
C2351 H2328 0.950 . S
C2351 C2350 1.334 . S
C2351 C2352 1.287 . S
C2352 C2351 1.287 . S
C2352 C2353 1.524 . S
C2352 H2371 0.913 . S
C2353 H2329 0.950 . S
C2353 C2352 1.524 . S
C2353 C2354 1.415 . S
C2354 H2330 0.950 . S
C2354 C2349 1.363 . S
C2354 C2353 1.415 . S
C2355 H2331 0.951 . S
C2355 C2356 1.366 . S
C2355 C2357 1.388 . S
C2356 C2355 1.366 . S
C2356 C2360 1.385 . S
C2357 H2332 0.951 . S
C2357 C2355 1.388 . S
C2357 C2358 1.366 . S
C2358 C2357 1.366 . S
C2358 C2359 1.414 . S
C2358 C2361 1.499 . S
C2359 H2333 0.950 . S
C2359 C2358 1.414 . S
C2359 C2360 1.374 . S
C2360 H2334 0.950 . S
C2360 C2356 1.385 . S
C2360 C2359 1.374 . S
C2361 C2358 1.499 . S
C2361 C2362 1.373 . S
C2361 C2363 1.389 . S
C2362 H2335 0.950 . S
C2362 C2348 1.377 . S
C2362 C2361 1.373 . S
C2363 C2347 1.377 . S
C2363 C2361 1.389 . S
C2363 C2364 1.524 . S
C2364 C2363 1.524 . S
C2364 C2365 1.397 . S
C2364 C2369 1.363 . S
C2365 H2336 0.950 . S
C2365 C2364 1.397 . S
C2365 C2366 1.334 . S
C2366 H2337 0.950 . S
C2366 C2365 1.334 . S
C2366 C2367 1.287 . S
C2367 C2366 1.287 . S
C2367 C2368 1.524 . S
C2367 H2370 0.999 . S
C2368 H2338 0.950 . S
C2368 C2367 1.524 . S
C2368 C2369 1.415 . S
C2369 H2339 0.950 . S
C2369 C2364 1.363 . S
C2369 C2368 1.415 . S
H2370 C2367 0.999 . S
H2371 C2352 0.913 . S
H2372 C2390 0.951 . S
H2373 C2392 0.951 . S
H2374 C2394 0.950 . S
H2375 C2395 0.950 . S
H2376 C2397 0.950 . S
H2377 C2400 0.950 . S
H2378 C2401 0.950 . S
H2379 C2403 0.945 1_565 S
H2380 C2404 0.950 . S
H2381 C2405 0.951 . S
H2382 C2407 0.968 . S
H2383 C2409 0.950 . S
H2384 C2410 0.950 . S
H2385 C2412 0.950 . S
H2386 C2415 0.950 . S
H2387 C2416 0.950 . S
H2388 C2418 0.950 . S
H2389 C2419 0.950 . S
C2390 H2372 0.951 . S
C2390 C2391 1.366 . S
C2390 C2392 1.388 . S
C2391 C2390 1.366 . S
C2391 C2395 1.385 . S
C2392 H2373 0.951 . S
C2392 C2390 1.388 . S
C2392 C2393 1.366 . S
C2393 C2392 1.366 . S
C2393 C2394 1.414 . S
C2393 C2396 1.499 . S
C2394 H2374 0.950 . S
C2394 C2393 1.414 . S
C2394 C2395 1.374 . S
C2395 H2375 0.950 . S
C2395 C2391 1.385 . S
C2395 C2394 1.374 . S
C2396 C2393 1.499 . S
C2396 C2397 1.373 . S
C2396 C2398 1.389 . S
C2397 H2376 0.950 . S
C2397 C2396 1.373 . S
C2397 C2413 1.377 . S
C2398 C2396 1.389 . S
C2398 C2399 1.524 . S
C2398 C2412 1.377 . S
C2399 C2398 1.524 . S
C2399 C2400 1.397 1_565 S
C2399 C2404 1.363 . S
C2400 H2377 0.950 . S
C2400 C2399 1.397 1_545 S
C2400 C2401 1.334 . S
C2401 H2378 0.950 . S
C2401 C2400 1.334 . S
C2401 C2402 1.287 . S
C2402 C2401 1.287 . S
C2402 C2403 1.540 . S
C2402 H2421 0.913 . S
C2403 H2379 0.945 1_545 S
C2403 C2402 1.540 . S
C2403 C2404 1.405 1_545 S
C2404 H2380 0.950 . S
C2404 C2399 1.363 . S
C2404 C2403 1.405 1_565 S
C2405 H2381 0.951 . S
C2405 C2406 1.366 . S
C2405 C2407 1.407 . S
C2406 C2405 1.366 . S
C2406 C2410 1.385 1_545 S
C2407 H2382 0.968 . S
C2407 C2405 1.407 . S
C2407 C2408 1.335 1_545 S
C2408 C2407 1.335 1_565 S
C2408 C2409 1.414 . S
C2408 C2411 1.499 . S
C2409 H2383 0.950 . S
C2409 C2408 1.414 . S
C2409 C2410 1.374 . S
C2410 H2384 0.950 . S
C2410 C2406 1.385 1_565 S
C2410 C2409 1.374 . S
C2411 C2408 1.499 . S
C2411 C2412 1.373 . S
C2411 C2413 1.389 . S
C2412 H2385 0.950 . S
C2412 C2398 1.377 . S
C2412 C2411 1.373 . S
C2413 C2397 1.377 . S
C2413 C2411 1.389 . S
C2413 C2414 1.524 . S
C2414 C2413 1.524 . S
C2414 C2415 1.397 . S
C2414 C2419 1.363 . S
C2415 H2386 0.950 . S
C2415 C2414 1.397 . S
C2415 C2416 1.334 . S
C2416 H2387 0.950 . S
C2416 C2415 1.334 . S
C2416 C2417 1.287 . S
C2417 C2416 1.287 . S
C2417 C2418 1.524 . S
C2417 H2420 0.999 . S
C2418 H2388 0.950 . S
C2418 C2417 1.524 . S
C2418 C2419 1.415 . S
C2419 H2389 0.950 . S
C2419 C2414 1.363 . S
C2419 C2418 1.415 . S
H2420 C2417 0.999 . S
H2421 C2402 0.913 . S
H2422 C2440 0.951 . S
H2423 C2442 0.951 . S
H2424 C2444 0.950 . S
H2425 C2445 0.950 . S
H2426 C2447 0.950 . S
H2427 C2450 0.950 . S
H2428 C2451 0.950 . S
H2429 C2453 0.950 . S
H2430 C2454 0.950 . S
H2431 C2455 0.951 . S
H2432 C2457 0.951 . S
H2433 C2459 0.950 . S
H2434 C2460 0.950 . S
H2435 C2462 0.950 . S
H2436 C2465 0.950 . S
H2437 C2466 0.950 . S
H2438 C2468 0.950 1_554 S
H2439 C2469 0.950 1_554 S
C2440 H2422 0.951 . S
C2440 C2441 1.283 1_556 S
C2440 C2442 1.388 . S
C2441 C2440 1.283 1_554 S
C2441 C2445 1.449 . S
C2442 H2423 0.951 . S
C2442 C2440 1.388 . S
C2442 C2443 1.366 . S
C2443 C2442 1.366 . S
C2443 C2444 1.414 1_556 S
C2443 C2446 1.499 . S
C2444 H2424 0.950 . S
C2444 C2443 1.414 1_554 S
C2444 C2445 1.374 . S
C2445 H2425 0.950 . S
C2445 C2441 1.449 . S
C2445 C2444 1.374 . S
C2446 C2443 1.499 . S
C2446 C2447 1.373 . S
C2446 C2448 1.389 . S
C2447 H2426 0.950 . S
C2447 C2446 1.373 . S
C2447 C2463 1.377 . S
C2448 C2446 1.389 . S
C2448 C2449 1.524 . S
C2448 C2462 1.377 . S
C2449 C2448 1.524 . S
C2449 C2450 1.397 1_556 S
C2449 C2454 1.363 . S
C2450 H2427 0.950 . S
C2450 C2449 1.397 1_554 S
C2450 C2451 1.334 . S
C2451 H2428 0.950 . S
C2451 C2450 1.334 . S
C2451 C2452 1.287 1_554 S
C2452 C2451 1.287 1_556 S
C2452 C2453 1.524 . S
C2452 H2471 0.913 . S
C2453 H2429 0.950 . S
C2453 C2452 1.524 . S
C2453 C2454 1.415 . S
C2454 H2430 0.950 . S
C2454 C2449 1.363 . S
C2454 C2453 1.415 . S
C2455 H2431 0.951 . S
C2455 C2456 1.366 . S
C2455 C2457 1.388 . S
C2456 C2455 1.366 . S
C2456 C2460 1.385 . S
C2457 H2432 0.951 . S
C2457 C2455 1.388 . S
C2457 C2458 1.366 . S
C2458 C2457 1.366 . S
C2458 C2459 1.414 . S
C2458 C2461 1.499 . S
C2459 H2433 0.950 . S
C2459 C2458 1.414 . S
C2459 C2460 1.374 . S
C2460 H2434 0.950 . S
C2460 C2456 1.385 . S
C2460 C2459 1.374 . S
C2461 C2458 1.499 . S
C2461 C2462 1.373 . S
C2461 C2463 1.389 . S
C2462 H2435 0.950 . S
C2462 C2448 1.377 . S
C2462 C2461 1.373 . S
C2463 C2447 1.377 . S
C2463 C2461 1.389 . S
C2463 C2464 1.524 . S
C2464 C2463 1.524 . S
C2464 C2465 1.397 . S
C2464 C2469 1.363 . S
C2465 H2436 0.950 . S
C2465 C2464 1.397 . S
C2465 C2466 1.334 . S
C2466 H2437 0.950 . S
C2466 C2465 1.334 . S
C2466 C2467 1.287 . S
C2467 C2466 1.287 . S
C2467 C2468 1.524 . S
C2467 H2470 0.999 . S
C2468 H2438 0.950 1_556 S
C2468 C2467 1.524 . S
C2468 C2469 1.415 . S
C2469 H2439 0.950 1_556 S
C2469 C2464 1.363 . S
C2469 C2468 1.415 . S
H2470 C2467 0.999 . S
H2471 C2452 0.913 . S
H2472 C2490 0.951 . S
H2473 C2492 0.951 . S
H2474 C2494 0.950 . S
H2475 C2495 0.950 . S
H2476 C2497 0.950 . S
H2477 C2500 0.950 . S
H2478 C2501 0.950 . S
H2479 C2503 0.950 . S
H2480 C2504 0.950 . S
H2481 C2505 0.951 . S
H2482 C2507 0.951 . S
H2483 C2509 0.950 . S
H2484 C2510 0.950 . S
H2485 C2512 0.950 . S
H2486 C2515 0.950 . S
H2487 C2516 0.950 . S
H2488 C2518 0.950 . S
H2489 C2519 0.950 . S
C2490 H2472 0.951 . S
C2490 C2491 1.366 . S
C2490 C2492 1.388 . S
C2491 C2490 1.366 . S
C2491 C2495 1.385 . S
C2492 H2473 0.951 . S
C2492 C2490 1.388 . S
C2492 C2493 1.366 . S
C2493 C2492 1.366 . S
C2493 C2494 1.414 . S
C2493 C2496 1.499 . S
C2494 H2474 0.950 . S
C2494 C2493 1.414 . S
C2494 C2495 1.374 . S
C2495 H2475 0.950 . S
C2495 C2491 1.385 . S
C2495 C2494 1.374 . S
C2496 C2493 1.499 . S
C2496 C2497 1.373 . S
C2496 C2498 1.389 . S
C2497 H2476 0.950 . S
C2497 C2496 1.373 . S
C2497 C2513 1.377 . S
C2498 C2496 1.389 . S
C2498 C2499 1.524 . S
C2498 C2512 1.377 . S
C2499 C2498 1.524 . S
C2499 C2500 1.397 . S
C2499 C2504 1.363 . S
C2500 H2477 0.950 . S
C2500 C2499 1.397 . S
C2500 C2501 1.334 . S
C2501 H2478 0.950 . S
C2501 C2500 1.334 . S
C2501 C2502 1.287 . S
C2502 C2501 1.287 . S
C2502 C2503 1.524 . S
C2502 H2521 0.913 . S
C2503 H2479 0.950 . S
C2503 C2502 1.524 . S
C2503 C2504 1.415 . S
C2504 H2480 0.950 . S
C2504 C2499 1.363 . S
C2504 C2503 1.415 . S
C2505 H2481 0.951 . S
C2505 C2506 1.366 . S
C2505 C2507 1.388 . S
C2506 C2505 1.366 . S
C2506 C2510 1.385 . S
C2507 H2482 0.951 . S
C2507 C2505 1.388 . S
C2507 C2508 1.366 . S
C2508 C2507 1.366 . S
C2508 C2509 1.414 . S
C2508 C2511 1.499 . S
C2509 H2483 0.950 . S
C2509 C2508 1.414 . S
C2509 C2510 1.374 . S
C2510 H2484 0.950 . S
C2510 C2506 1.385 . S
C2510 C2509 1.374 . S
C2511 C2508 1.499 . S
C2511 C2512 1.373 . S
C2511 C2513 1.389 . S
C2512 H2485 0.950 . S
C2512 C2498 1.377 . S
C2512 C2511 1.373 . S
C2513 C2497 1.377 . S
C2513 C2511 1.389 . S
C2513 C2514 1.524 . S
C2514 C2513 1.524 . S
C2514 C2515 1.397 . S
C2514 C2519 1.363 . S
C2515 H2486 0.950 . S
C2515 C2514 1.397 . S
C2515 C2516 1.334 . S
C2516 H2487 0.950 . S
C2516 C2515 1.334 . S
C2516 C2517 1.287 . S
C2517 C2516 1.287 . S
C2517 C2518 1.524 . S
C2517 H2520 0.999 . S
C2518 H2488 0.950 . S
C2518 C2517 1.524 . S
C2518 C2519 1.415 . S
C2519 H2489 0.950 . S
C2519 C2514 1.363 . S
C2519 C2518 1.415 . S
H2520 C2517 0.999 . S
H2521 C2502 0.913 . S
H2522 C2540 0.951 . S
H2523 C2542 0.951 . S
H2524 C2544 0.950 . S
H2525 C2545 0.950 . S
H2526 C2547 0.950 . S
H2527 C2550 0.950 . S
H2528 C2551 0.950 . S
H2529 C2553 0.950 . S
H2530 C2554 0.950 . S
H2531 C2555 0.951 . S
H2532 C2557 0.951 . S
H2533 C2559 0.950 . S
H2534 C2560 0.950 . S
H2535 C2562 0.950 . S
H2536 C2565 0.950 . S
H2537 C2566 0.950 . S
H2538 C2568 0.950 . S
H2539 C2569 0.950 . S
C2540 H2522 0.951 . S
C2540 C2541 1.366 . S
C2540 C2542 1.388 . S
C2541 C2540 1.366 . S
C2541 C2545 1.385 . S
C2542 H2523 0.951 . S
C2542 C2540 1.388 . S
C2542 C2543 1.366 . S
C2543 C2542 1.366 . S
C2543 C2544 1.414 . S
C2543 C2546 1.499 . S
C2544 H2524 0.950 . S
C2544 C2543 1.414 . S
C2544 C2545 1.374 . S
C2545 H2525 0.950 . S
C2545 C2541 1.385 . S
C2545 C2544 1.374 . S
C2546 C2543 1.499 . S
C2546 C2547 1.373 . S
C2546 C2548 1.389 . S
C2547 H2526 0.950 . S
C2547 C2546 1.373 . S
C2547 C2563 1.377 . S
C2548 C2546 1.389 . S
C2548 C2549 1.524 . S
C2548 C2562 1.377 . S
C2549 C2548 1.524 . S
C2549 C2550 1.397 . S
C2549 C2554 1.363 . S
C2550 H2527 0.950 . S
C2550 C2549 1.397 . S
C2550 C2551 1.334 . S
C2551 H2528 0.950 . S
C2551 C2550 1.334 . S
C2551 C2552 1.287 . S
C2552 C2551 1.287 . S
C2552 C2553 1.524 . S
C2552 H2571 0.913 . S
C2553 H2529 0.950 . S
C2553 C2552 1.524 . S
C2553 C2554 1.415 . S
C2554 H2530 0.950 . S
C2554 C2549 1.363 . S
C2554 C2553 1.415 . S
C2555 H2531 0.951 . S
C2555 C2556 1.366 . S
C2555 C2557 1.388 . S
C2556 C2555 1.366 . S
C2556 C2560 1.385 . S
C2557 H2532 0.951 . S
C2557 C2555 1.388 . S
C2557 C2558 1.366 . S
C2558 C2557 1.366 . S
C2558 C2559 1.414 . S
C2558 C2561 1.499 . S
C2559 H2533 0.950 . S
C2559 C2558 1.414 . S
C2559 C2560 1.374 . S
C2560 H2534 0.950 . S
C2560 C2556 1.385 . S
C2560 C2559 1.374 . S
C2561 C2558 1.499 . S
C2561 C2562 1.373 . S
C2561 C2563 1.389 . S
C2562 H2535 0.950 . S
C2562 C2548 1.377 . S
C2562 C2561 1.373 . S
C2563 C2547 1.377 . S
C2563 C2561 1.389 . S
C2563 C2564 1.524 . S
C2564 C2563 1.524 . S
C2564 C2565 1.397 . S
C2564 C2569 1.363 . S
C2565 H2536 0.950 . S
C2565 C2564 1.397 . S
C2565 C2566 1.334 . S
C2566 H2537 0.950 . S
C2566 C2565 1.334 . S
C2566 C2567 1.287 . S
C2567 C2566 1.287 . S
C2567 C2568 1.524 . S
C2567 H2570 0.999 . S
C2568 H2538 0.950 . S
C2568 C2567 1.524 . S
C2568 C2569 1.415 . S
C2569 H2539 0.950 . S
C2569 C2564 1.363 . S
C2569 C2568 1.415 . S
H2570 C2567 0.999 . S
H2571 C2552 0.913 . S
H2572 C2590 0.951 . S
H2573 C2592 0.951 . S
H2574 C2594 0.950 . S
H2575 C2595 0.950 . S
H2576 C2597 0.950 . S
H2577 C2600 0.950 . S
H2578 C2601 0.950 . S
H2579 C2603 0.950 . S
H2580 C2604 0.950 . S
H2581 C2605 0.951 . S
H2582 C2607 0.951 . S
H2583 C2609 0.950 . S
H2584 C2610 0.950 . S
H2585 C2612 0.950 . S
H2586 C2615 0.950 . S
H2587 C2616 0.950 . S
H2588 C2618 0.950 . S
H2589 C2619 0.950 . S
C2590 H2572 0.951 . S
C2590 C2591 1.366 . S
C2590 C2592 1.388 . S
C2591 C2590 1.366 . S
C2591 C2595 1.385 . S
C2592 H2573 0.951 . S
C2592 C2590 1.388 . S
C2592 C2593 1.366 . S
C2593 C2592 1.366 . S
C2593 C2594 1.414 . S
C2593 C2596 1.499 . S
C2594 H2574 0.950 . S
C2594 C2593 1.414 . S
C2594 C2595 1.374 . S
C2595 H2575 0.950 . S
C2595 C2591 1.385 . S
C2595 C2594 1.374 . S
C2596 C2593 1.499 . S
C2596 C2597 1.373 . S
C2596 C2598 1.389 . S
C2597 H2576 0.950 . S
C2597 C2596 1.373 . S
C2597 C2613 1.377 . S
C2598 C2596 1.389 . S
C2598 C2599 1.524 . S
C2598 C2612 1.377 . S
C2599 C2598 1.524 . S
C2599 C2600 1.397 . S
C2599 C2604 1.363 . S
C2600 H2577 0.950 . S
C2600 C2599 1.397 . S
C2600 C2601 1.334 . S
C2601 H2578 0.950 . S
C2601 C2600 1.334 . S
C2601 C2602 1.287 . S
C2602 C2601 1.287 . S
C2602 C2603 1.524 . S
C2602 H2621 0.913 . S
C2603 H2579 0.950 . S
C2603 C2602 1.524 . S
C2603 C2604 1.415 . S
C2604 H2580 0.950 . S
C2604 C2599 1.363 . S
C2604 C2603 1.415 . S
C2605 H2581 0.951 . S
C2605 C2606 1.366 . S
C2605 C2607 1.388 . S
C2606 C2605 1.366 . S
C2606 C2610 1.385 . S
C2607 H2582 0.951 . S
C2607 C2605 1.388 . S
C2607 C2608 1.366 . S
C2608 C2607 1.366 . S
C2608 C2609 1.414 . S
C2608 C2611 1.499 . S
C2609 H2583 0.950 . S
C2609 C2608 1.414 . S
C2609 C2610 1.374 . S
C2610 H2584 0.950 . S
C2610 C2606 1.385 . S
C2610 C2609 1.374 . S
C2611 C2608 1.499 . S
C2611 C2612 1.373 . S
C2611 C2613 1.389 . S
C2612 H2585 0.950 . S
C2612 C2598 1.377 . S
C2612 C2611 1.373 . S
C2613 C2597 1.377 . S
C2613 C2611 1.389 . S
C2613 C2614 1.524 . S
C2614 C2613 1.524 . S
C2614 C2615 1.397 . S
C2614 C2619 1.363 . S
C2615 H2586 0.950 . S
C2615 C2614 1.397 . S
C2615 C2616 1.334 . S
C2616 H2587 0.950 . S
C2616 C2615 1.334 . S
C2616 C2617 1.287 . S
C2617 C2616 1.287 . S
C2617 C2618 1.524 . S
C2617 H2620 0.999 . S
C2618 H2588 0.950 . S
C2618 C2617 1.524 . S
C2618 C2619 1.415 . S
C2619 H2589 0.950 . S
C2619 C2614 1.363 . S
C2619 C2618 1.415 . S
H2620 C2617 0.999 . S
H2621 C2602 0.913 . S
H2622 C2640 0.951 . S
H2623 C2642 0.951 . S
H2624 C2644 0.950 . S
H2625 C2645 0.950 . S
H2626 C2647 0.950 . S
H2627 C2650 0.950 . S
H2628 C2651 0.950 . S
H2629 C2653 0.950 . S
H2630 C2654 0.950 . S
H2631 C2655 0.951 . S
H2632 C2657 0.951 . S
H2633 C2659 0.950 . S
H2634 C2660 0.950 . S
H2635 C2662 0.950 . S
H2636 C2665 0.950 . S
H2637 C2666 0.950 . S
H2638 C2668 0.950 . S
H2639 C2669 0.950 . S
C2640 H2622 0.951 . S
C2640 C2641 1.366 . S
C2640 C2642 1.388 . S
C2641 C2640 1.366 . S
C2641 C2645 1.385 . S
C2642 H2623 0.951 . S
C2642 C2640 1.388 . S
C2642 C2643 1.366 . S
C2643 C2642 1.366 . S
C2643 C2644 1.414 . S
C2643 C2646 1.499 . S
C2644 H2624 0.950 . S
C2644 C2643 1.414 . S
C2644 C2645 1.374 . S
C2645 H2625 0.950 . S
C2645 C2641 1.385 . S
C2645 C2644 1.374 . S
C2646 C2643 1.499 . S
C2646 C2647 1.373 . S
C2646 C2648 1.389 . S
C2647 H2626 0.950 . S
C2647 C2646 1.373 . S
C2647 C2663 1.377 . S
C2648 C2646 1.389 . S
C2648 C2649 1.524 . S
C2648 C2662 1.377 . S
C2649 C2648 1.524 . S
C2649 C2650 1.397 . S
C2649 C2654 1.363 . S
C2650 H2627 0.950 . S
C2650 C2649 1.397 . S
C2650 C2651 1.334 . S
C2651 H2628 0.950 . S
C2651 C2650 1.334 . S
C2651 C2652 1.287 . S
C2652 C2651 1.287 . S
C2652 C2653 1.524 . S
C2652 H2671 0.913 . S
C2653 H2629 0.950 . S
C2653 C2652 1.524 . S
C2653 C2654 1.415 . S
C2654 H2630 0.950 . S
C2654 C2649 1.363 . S
C2654 C2653 1.415 . S
C2655 H2631 0.951 . S
C2655 C2656 1.366 . S
C2655 C2657 1.388 . S
C2656 C2655 1.366 . S
C2656 C2660 1.385 . S
C2657 H2632 0.951 . S
C2657 C2655 1.388 . S
C2657 C2658 1.366 . S
C2658 C2657 1.366 . S
C2658 C2659 1.414 . S
C2658 C2661 1.499 . S
C2659 H2633 0.950 . S
C2659 C2658 1.414 . S
C2659 C2660 1.374 . S
C2660 H2634 0.950 . S
C2660 C2656 1.385 . S
C2660 C2659 1.374 . S
C2661 C2658 1.499 . S
C2661 C2662 1.373 . S
C2661 C2663 1.389 . S
C2662 H2635 0.950 . S
C2662 C2648 1.377 . S
C2662 C2661 1.373 . S
C2663 C2647 1.377 . S
C2663 C2661 1.389 . S
C2663 C2664 1.524 . S
C2664 C2663 1.524 . S
C2664 C2665 1.397 . S
C2664 C2669 1.363 . S
C2665 H2636 0.950 . S
C2665 C2664 1.397 . S
C2665 C2666 1.334 . S
C2666 H2637 0.950 . S
C2666 C2665 1.334 . S
C2666 C2667 1.287 . S
C2667 C2666 1.287 . S
C2667 C2668 1.524 . S
C2667 H2670 0.999 . S
C2668 H2638 0.950 . S
C2668 C2667 1.524 . S
C2668 C2669 1.415 . S
C2669 H2639 0.950 . S
C2669 C2664 1.363 . S
C2669 C2668 1.415 . S
H2670 C2667 0.999 . S
H2671 C2652 0.913 . S
H2672 C2690 0.951 . S
H2673 C2692 0.951 . S
H2674 C2694 0.950 . S
H2675 C2695 0.950 . S
H2676 C2697 0.950 . S
H2677 C2700 0.950 . S
H2678 C2701 0.950 . S
H2679 C2703 0.950 . S
H2680 C2704 0.950 . S
H2681 C2705 0.951 . S
H2682 C2707 0.951 . S
H2683 C2709 0.950 . S
H2684 C2710 0.950 . S
H2685 C2712 0.950 . S
H2686 C2715 0.950 . S
H2687 C2716 0.950 . S
H2688 C2718 0.950 . S
H2689 C2719 0.950 . S
C2690 H2672 0.951 . S
C2690 C2691 1.366 . S
C2690 C2692 1.388 . S
C2691 C2690 1.366 . S
C2691 C2695 1.385 . S
C2692 H2673 0.951 . S
C2692 C2690 1.388 . S
C2692 C2693 1.366 . S
C2693 C2692 1.366 . S
C2693 C2694 1.414 . S
C2693 C2696 1.499 . S
C2694 H2674 0.950 . S
C2694 C2693 1.414 . S
C2694 C2695 1.374 . S
C2695 H2675 0.950 . S
C2695 C2691 1.385 . S
C2695 C2694 1.374 . S
C2696 C2693 1.499 . S
C2696 C2697 1.373 . S
C2696 C2698 1.389 . S
C2697 H2676 0.950 . S
C2697 C2696 1.373 . S
C2697 C2713 1.377 . S
C2698 C2696 1.389 . S
C2698 C2699 1.524 . S
C2698 C2712 1.377 . S
C2699 C2698 1.524 . S
C2699 C2700 1.397 . S
C2699 C2704 1.363 . S
C2700 H2677 0.950 . S
C2700 C2699 1.397 . S
C2700 C2701 1.334 . S
C2701 H2678 0.950 . S
C2701 C2700 1.334 . S
C2701 C2702 1.287 . S
C2702 C2701 1.287 . S
C2702 C2703 1.524 . S
C2702 H2721 0.913 . S
C2703 H2679 0.950 . S
C2703 C2702 1.524 . S
C2703 C2704 1.415 . S
C2704 H2680 0.950 . S
C2704 C2699 1.363 . S
C2704 C2703 1.415 . S
C2705 H2681 0.951 . S
C2705 C2706 1.366 . S
C2705 C2707 1.388 . S
C2706 C2705 1.366 . S
C2706 C2710 1.385 . S
C2707 H2682 0.951 . S
C2707 C2705 1.388 . S
C2707 C2708 1.366 . S
C2708 C2707 1.366 . S
C2708 C2709 1.414 . S
C2708 C2711 1.499 . S
C2709 H2683 0.950 . S
C2709 C2708 1.414 . S
C2709 C2710 1.374 . S
C2710 H2684 0.950 . S
C2710 C2706 1.385 . S
C2710 C2709 1.374 . S
C2711 C2708 1.499 . S
C2711 C2712 1.373 . S
C2711 C2713 1.389 . S
C2712 H2685 0.950 . S
C2712 C2698 1.377 . S
C2712 C2711 1.373 . S
C2713 C2697 1.377 . S
C2713 C2711 1.389 . S
C2713 C2714 1.524 . S
C2714 C2713 1.524 . S
C2714 C2715 1.397 . S
C2714 C2719 1.363 . S
C2715 H2686 0.950 . S
C2715 C2714 1.397 . S
C2715 C2716 1.334 . S
C2716 H2687 0.950 . S
C2716 C2715 1.334 . S
C2716 C2717 1.287 . S
C2717 C2716 1.287 . S
C2717 C2718 1.524 . S
C2717 H2720 0.999 . S
C2718 H2688 0.950 . S
C2718 C2717 1.524 . S
C2718 C2719 1.415 . S
C2719 H2689 0.950 . S
C2719 C2714 1.363 . S
C2719 C2718 1.415 . S
H2720 C2717 0.999 . S
H2721 C2702 0.913 . S
H2722 C2740 0.951 . S
H2723 C2742 0.951 . S
H2724 C2744 0.950 . S
H2725 C2745 0.950 . S
H2726 C2747 0.950 . S
H2727 C2750 0.950 . S
H2728 C2751 0.950 . S
H2729 C2753 0.950 . S
H2730 C2754 0.950 . S
H2731 C2755 0.951 . S
H2732 C2757 0.951 . S
H2733 C2759 0.950 . S
H2734 C2760 0.950 . S
H2735 C2762 0.950 . S
H2736 C2765 0.950 . S
H2737 C2766 0.950 . S
H2738 C2768 0.950 . S
H2739 C2769 0.950 . S
C2740 H2722 0.951 . S
C2740 C2741 1.366 . S
C2740 C2742 1.388 . S
C2741 C2740 1.366 . S
C2741 C2745 1.385 . S
C2742 H2723 0.951 . S
C2742 C2740 1.388 . S
C2742 C2743 1.366 . S
C2743 C2742 1.366 . S
C2743 C2744 1.414 . S
C2743 C2746 1.499 . S
C2744 H2724 0.950 . S
C2744 C2743 1.414 . S
C2744 C2745 1.374 . S
C2745 H2725 0.950 . S
C2745 C2741 1.385 . S
C2745 C2744 1.374 . S
C2746 C2743 1.499 . S
C2746 C2747 1.373 . S
C2746 C2748 1.389 . S
C2747 H2726 0.950 . S
C2747 C2746 1.373 . S
C2747 C2763 1.377 . S
C2748 C2746 1.389 . S
C2748 C2749 1.524 . S
C2748 C2762 1.377 . S
C2749 C2748 1.524 . S
C2749 C2750 1.397 . S
C2749 C2754 1.363 . S
C2750 H2727 0.950 . S
C2750 C2749 1.397 . S
C2750 C2751 1.334 . S
C2751 H2728 0.950 . S
C2751 C2750 1.334 . S
C2751 C2752 1.287 . S
C2752 C2751 1.287 . S
C2752 C2753 1.524 . S
C2752 H2771 0.913 . S
C2753 H2729 0.950 . S
C2753 C2752 1.524 . S
C2753 C2754 1.415 . S
C2754 H2730 0.950 . S
C2754 C2749 1.363 . S
C2754 C2753 1.415 . S
C2755 H2731 0.951 . S
C2755 C2756 1.366 . S
C2755 C2757 1.388 . S
C2756 C2755 1.366 . S
C2756 C2760 1.385 . S
C2757 H2732 0.951 . S
C2757 C2755 1.388 . S
C2757 C2758 1.366 . S
C2758 C2757 1.366 . S
C2758 C2759 1.414 . S
C2758 C2761 1.499 . S
C2759 H2733 0.950 . S
C2759 C2758 1.414 . S
C2759 C2760 1.374 . S
C2760 H2734 0.950 . S
C2760 C2756 1.385 . S
C2760 C2759 1.374 . S
C2761 C2758 1.499 . S
C2761 C2762 1.373 . S
C2761 C2763 1.389 . S
C2762 H2735 0.950 . S
C2762 C2748 1.377 . S
C2762 C2761 1.373 . S
C2763 C2747 1.377 . S
C2763 C2761 1.389 . S
C2763 C2764 1.524 . S
C2764 C2763 1.524 . S
C2764 C2765 1.397 . S
C2764 C2769 1.363 . S
C2765 H2736 0.950 . S
C2765 C2764 1.397 . S
C2765 C2766 1.334 . S
C2766 H2737 0.950 . S
C2766 C2765 1.334 . S
C2766 C2767 1.287 . S
C2767 C2766 1.287 . S
C2767 C2768 1.524 . S
C2767 H2770 0.999 . S
C2768 H2738 0.950 . S
C2768 C2767 1.524 . S
C2768 C2769 1.415 . S
C2769 H2739 0.950 . S
C2769 C2764 1.363 . S
C2769 C2768 1.415 . S
H2770 C2767 0.999 . S
H2771 C2752 0.913 . S
H2772 C2790 0.951 . S
H2773 C2792 0.951 . S
H2774 C2794 0.950 . S
H2775 C2795 0.950 . S
H2776 C2797 0.950 . S
H2777 C2800 0.950 . S
H2778 C2801 0.950 . S
H2779 C2803 0.950 . S
H2780 C2804 0.950 . S
H2781 C2805 0.951 . S
H2782 C2807 0.951 . S
H2783 C2809 0.950 . S
H2784 C2810 0.950 . S
H2785 C2812 0.950 . S
H2786 C2815 0.950 . S
H2787 C2816 0.950 . S
H2788 C2818 0.950 . S
H2789 C2819 0.950 . S
C2790 H2772 0.951 . S
C2790 C2791 1.366 . S
C2790 C2792 1.388 . S
C2791 C2790 1.366 . S
C2791 C2795 1.385 . S
C2792 H2773 0.951 . S
C2792 C2790 1.388 . S
C2792 C2793 1.366 . S
C2793 C2792 1.366 . S
C2793 C2794 1.414 . S
C2793 C2796 1.499 . S
C2794 H2774 0.950 . S
C2794 C2793 1.414 . S
C2794 C2795 1.374 . S
C2795 H2775 0.950 . S
C2795 C2791 1.385 . S
C2795 C2794 1.374 . S
C2796 C2793 1.499 . S
C2796 C2797 1.373 . S
C2796 C2798 1.389 . S
C2797 H2776 0.950 . S
C2797 C2796 1.373 . S
C2797 C2813 1.377 . S
C2798 C2796 1.389 . S
C2798 C2799 1.524 . S
C2798 C2812 1.377 . S
C2799 C2798 1.524 . S
C2799 C2800 1.397 . S
C2799 C2804 1.363 . S
C2800 H2777 0.950 . S
C2800 C2799 1.397 . S
C2800 C2801 1.334 . S
C2801 H2778 0.950 . S
C2801 C2800 1.334 . S
C2801 C2802 1.287 . S
C2802 C2801 1.287 . S
C2802 C2803 1.524 . S
C2802 H2821 0.913 . S
C2803 H2779 0.950 . S
C2803 C2802 1.524 . S
C2803 C2804 1.415 . S
C2804 H2780 0.950 . S
C2804 C2799 1.363 . S
C2804 C2803 1.415 . S
C2805 H2781 0.951 . S
C2805 C2806 1.366 . S
C2805 C2807 1.388 . S
C2806 C2805 1.366 . S
C2806 C2810 1.385 . S
C2807 H2782 0.951 . S
C2807 C2805 1.388 . S
C2807 C2808 1.366 . S
C2808 C2807 1.366 . S
C2808 C2809 1.414 . S
C2808 C2811 1.499 . S
C2809 H2783 0.950 . S
C2809 C2808 1.414 . S
C2809 C2810 1.374 . S
C2810 H2784 0.950 . S
C2810 C2806 1.385 . S
C2810 C2809 1.374 . S
C2811 C2808 1.499 . S
C2811 C2812 1.373 . S
C2811 C2813 1.389 . S
C2812 H2785 0.950 . S
C2812 C2798 1.377 . S
C2812 C2811 1.373 . S
C2813 C2797 1.377 . S
C2813 C2811 1.389 . S
C2813 C2814 1.524 . S
C2814 C2813 1.524 . S
C2814 C2815 1.397 . S
C2814 C2819 1.363 . S
C2815 H2786 0.950 . S
C2815 C2814 1.397 . S
C2815 C2816 1.334 . S
C2816 H2787 0.950 . S
C2816 C2815 1.334 . S
C2816 C2817 1.287 . S
C2817 C2816 1.287 . S
C2817 C2818 1.524 . S
C2817 H2820 0.999 . S
C2818 H2788 0.950 . S
C2818 C2817 1.524 . S
C2818 C2819 1.415 . S
C2819 H2789 0.950 . S
C2819 C2814 1.363 . S
C2819 C2818 1.415 . S
H2820 C2817 0.999 . S
H2821 C2802 0.913 . S
H2822 C2840 0.951 . S
H2823 C2842 0.951 . S
H2824 C2844 0.950 . S
H2825 C2845 0.950 . S
H2826 C2847 0.950 . S
H2827 C2850 0.950 . S
H2828 C2851 0.950 . S
H2829 C2853 0.950 . S
H2830 C2854 0.950 . S
H2831 C2855 0.951 . S
H2832 C2857 0.951 . S
H2833 C2859 0.950 . S
H2834 C2860 0.950 . S
H2835 C2862 0.950 . S
H2836 C2865 0.950 . S
H2837 C2866 0.950 . S
H2838 C2868 0.950 . S
H2839 C2869 0.950 . S
C2840 H2822 0.951 . S
C2840 C2841 1.366 . S
C2840 C2842 1.388 . S
C2841 C2840 1.366 . S
C2841 C2845 1.385 . S
C2842 H2823 0.951 . S
C2842 C2840 1.388 . S
C2842 C2843 1.366 . S
C2843 C2842 1.366 . S
C2843 C2844 1.414 . S
C2843 C2846 1.499 . S
C2844 H2824 0.950 . S
C2844 C2843 1.414 . S
C2844 C2845 1.374 . S
C2845 H2825 0.950 . S
C2845 C2841 1.385 . S
C2845 C2844 1.374 . S
C2846 C2843 1.499 . S
C2846 C2847 1.373 . S
C2846 C2848 1.389 . S
C2847 H2826 0.950 . S
C2847 C2846 1.373 . S
C2847 C2863 1.377 . S
C2848 C2846 1.389 . S
C2848 C2849 1.524 . S
C2848 C2862 1.377 . S
C2849 C2848 1.524 . S
C2849 C2850 1.397 . S
C2849 C2854 1.363 . S
C2850 H2827 0.950 . S
C2850 C2849 1.397 . S
C2850 C2851 1.334 . S
C2851 H2828 0.950 . S
C2851 C2850 1.334 . S
C2851 C2852 1.287 . S
C2852 C2851 1.287 . S
C2852 C2853 1.524 . S
C2852 H2871 0.913 . S
C2853 H2829 0.950 . S
C2853 C2852 1.524 . S
C2853 C2854 1.415 . S
C2854 H2830 0.950 . S
C2854 C2849 1.363 . S
C2854 C2853 1.415 . S
C2855 H2831 0.951 . S
C2855 C2856 1.366 . S
C2855 C2857 1.388 . S
C2856 C2855 1.366 . S
C2856 C2860 1.385 . S
C2857 H2832 0.951 . S
C2857 C2855 1.388 . S
C2857 C2858 1.366 . S
C2858 C2857 1.366 . S
C2858 C2859 1.414 . S
C2858 C2861 1.499 . S
C2859 H2833 0.950 . S
C2859 C2858 1.414 . S
C2859 C2860 1.374 . S
C2860 H2834 0.950 . S
C2860 C2856 1.385 . S
C2860 C2859 1.374 . S
C2861 C2858 1.499 . S
C2861 C2862 1.373 . S
C2861 C2863 1.389 . S
C2862 H2835 0.950 . S
C2862 C2848 1.377 . S
C2862 C2861 1.373 . S
C2863 C2847 1.377 . S
C2863 C2861 1.389 . S
C2863 C2864 1.524 . S
C2864 C2863 1.524 . S
C2864 C2865 1.397 . S
C2864 C2869 1.363 . S
C2865 H2836 0.950 . S
C2865 C2864 1.397 . S
C2865 C2866 1.334 . S
C2866 H2837 0.950 . S
C2866 C2865 1.334 . S
C2866 C2867 1.287 . S
C2867 C2866 1.287 . S
C2867 C2868 1.524 . S
C2867 H2870 0.999 . S
C2868 H2838 0.950 . S
C2868 C2867 1.524 . S
C2868 C2869 1.415 . S
C2869 H2839 0.950 . S
C2869 C2864 1.363 . S
C2869 C2868 1.415 . S
H2870 C2867 0.999 . S
H2871 C2852 0.913 . S
H2872 C2890 0.951 . S
H2873 C2892 0.951 . S
H2874 C2894 0.950 . S
H2875 C2895 0.950 . S
H2876 C2897 0.950 . S
H2877 C2900 0.950 . S
H2878 C2901 0.950 . S
H2879 C2903 0.950 . S
H2880 C2904 0.950 . S
H2881 C2905 0.951 . S
H2882 C2907 0.951 . S
H2883 C2909 0.950 . S
H2884 C2910 0.950 . S
H2885 C2912 0.950 . S
H2886 C2915 0.950 . S
H2887 C2916 0.950 . S
H2888 C2918 0.950 . S
H2889 C2919 0.950 . S
C2890 H2872 0.951 . S
C2890 C2891 1.366 . S
C2890 C2892 1.388 . S
C2891 C2890 1.366 . S
C2891 C2895 1.385 . S
C2892 H2873 0.951 . S
C2892 C2890 1.388 . S
C2892 C2893 1.366 . S
C2893 C2892 1.366 . S
C2893 C2894 1.414 . S
C2893 C2896 1.499 . S
C2894 H2874 0.950 . S
C2894 C2893 1.414 . S
C2894 C2895 1.374 . S
C2895 H2875 0.950 . S
C2895 C2891 1.385 . S
C2895 C2894 1.374 . S
C2896 C2893 1.499 . S
C2896 C2897 1.373 . S
C2896 C2898 1.389 . S
C2897 H2876 0.950 . S
C2897 C2896 1.373 . S
C2897 C2913 1.377 . S
C2898 C2896 1.389 . S
C2898 C2899 1.524 . S
C2898 C2912 1.377 . S
C2899 C2898 1.524 . S
C2899 C2900 1.397 . S
C2899 C2904 1.363 . S
C2900 H2877 0.950 . S
C2900 C2899 1.397 . S
C2900 C2901 1.334 . S
C2901 H2878 0.950 . S
C2901 C2900 1.334 . S
C2901 C2902 1.287 . S
C2902 C2901 1.287 . S
C2902 C2903 1.524 . S
C2902 H2921 0.913 . S
C2903 H2879 0.950 . S
C2903 C2902 1.524 . S
C2903 C2904 1.415 . S
C2904 H2880 0.950 . S
C2904 C2899 1.363 . S
C2904 C2903 1.415 . S
C2905 H2881 0.951 . S
C2905 C2906 1.366 . S
C2905 C2907 1.388 . S
C2906 C2905 1.366 . S
C2906 C2910 1.385 . S
C2907 H2882 0.951 . S
C2907 C2905 1.388 . S
C2907 C2908 1.366 . S
C2908 C2907 1.366 . S
C2908 C2909 1.414 . S
C2908 C2911 1.499 . S
C2909 H2883 0.950 . S
C2909 C2908 1.414 . S
C2909 C2910 1.374 . S
C2910 H2884 0.950 . S
C2910 C2906 1.385 . S
C2910 C2909 1.374 . S
C2911 C2908 1.499 . S
C2911 C2912 1.373 . S
C2911 C2913 1.389 . S
C2912 H2885 0.950 . S
C2912 C2898 1.377 . S
C2912 C2911 1.373 . S
C2913 C2897 1.377 . S
C2913 C2911 1.389 . S
C2913 C2914 1.524 . S
C2914 C2913 1.524 . S
C2914 C2915 1.397 . S
C2914 C2919 1.363 . S
C2915 H2886 0.950 . S
C2915 C2914 1.397 . S
C2915 C2916 1.334 . S
C2916 H2887 0.950 . S
C2916 C2915 1.334 . S
C2916 C2917 1.287 . S
C2917 C2916 1.287 . S
C2917 C2918 1.524 . S
C2917 H2920 0.999 . S
C2918 H2888 0.950 . S
C2918 C2917 1.524 . S
C2918 C2919 1.415 . S
C2919 H2889 0.950 . S
C2919 C2914 1.363 . S
C2919 C2918 1.415 . S
H2920 C2917 0.999 . S
H2921 C2902 0.913 . S
H2922 C2940 0.951 . S
H2923 C2942 0.951 . S
H2924 C2944 0.950 . S
H2925 C2945 0.950 . S
H2926 C2947 0.950 . S
H2927 C2950 0.950 . S
H2928 C2951 0.950 . S
H2929 C2953 0.950 . S
H2930 C2954 0.950 . S
H2931 C2955 0.951 . S
H2932 C2957 0.951 . S
H2933 C2959 0.950 . S
H2934 C2960 0.950 . S
H2935 C2962 0.950 . S
H2936 C2965 0.950 . S
H2937 C2966 0.950 . S
H2938 C2968 0.950 . S
H2939 C2969 0.950 . S
C2940 H2922 0.951 . S
C2940 C2941 1.366 . S
C2940 C2942 1.388 . S
C2941 C2940 1.366 . S
C2941 C2945 1.385 . S
C2942 H2923 0.951 . S
C2942 C2940 1.388 . S
C2942 C2943 1.366 . S
C2943 C2942 1.366 . S
C2943 C2944 1.414 . S
C2943 C2946 1.499 . S
C2944 H2924 0.950 . S
C2944 C2943 1.414 . S
C2944 C2945 1.374 . S
C2945 H2925 0.950 . S
C2945 C2941 1.385 . S
C2945 C2944 1.374 . S
C2946 C2943 1.499 . S
C2946 C2947 1.373 . S
C2946 C2948 1.389 . S
C2947 H2926 0.950 . S
C2947 C2946 1.373 . S
C2947 C2963 1.377 . S
C2948 C2946 1.389 . S
C2948 C2949 1.524 . S
C2948 C2962 1.377 . S
C2949 C2948 1.524 . S
C2949 C2950 1.397 . S
C2949 C2954 1.363 . S
C2950 H2927 0.950 . S
C2950 C2949 1.397 . S
C2950 C2951 1.334 . S
C2951 H2928 0.950 . S
C2951 C2950 1.334 . S
C2951 C2952 1.287 . S
C2952 C2951 1.287 . S
C2952 C2953 1.524 . S
C2952 H2971 0.913 . S
C2953 H2929 0.950 . S
C2953 C2952 1.524 . S
C2953 C2954 1.415 . S
C2954 H2930 0.950 . S
C2954 C2949 1.363 . S
C2954 C2953 1.415 . S
C2955 H2931 0.951 . S
C2955 C2956 1.366 . S
C2955 C2957 1.388 . S
C2956 C2955 1.366 . S
C2956 C2960 1.385 . S
C2957 H2932 0.951 . S
C2957 C2955 1.388 . S
C2957 C2958 1.366 . S
C2958 C2957 1.366 . S
C2958 C2959 1.414 . S
C2958 C2961 1.499 . S
C2959 H2933 0.950 . S
C2959 C2958 1.414 . S
C2959 C2960 1.374 . S
C2960 H2934 0.950 . S
C2960 C2956 1.385 . S
C2960 C2959 1.374 . S
C2961 C2958 1.499 . S
C2961 C2962 1.373 . S
C2961 C2963 1.389 . S
C2962 H2935 0.950 . S
C2962 C2948 1.377 . S
C2962 C2961 1.373 . S
C2963 C2947 1.377 . S
C2963 C2961 1.389 . S
C2963 C2964 1.524 . S
C2964 C2963 1.524 . S
C2964 C2965 1.397 . S
C2964 C2969 1.363 . S
C2965 H2936 0.950 . S
C2965 C2964 1.397 . S
C2965 C2966 1.334 . S
C2966 H2937 0.950 . S
C2966 C2965 1.334 . S
C2966 C2967 1.287 . S
C2967 C2966 1.287 . S
C2967 C2968 1.524 . S
C2967 H2970 0.999 . S
C2968 H2938 0.950 . S
C2968 C2967 1.524 . S
C2968 C2969 1.415 . S
C2969 H2939 0.950 . S
C2969 C2964 1.363 . S
C2969 C2968 1.415 . S
H2970 C2967 0.999 . S
H2971 C2952 0.913 . S
H2972 C2990 0.951 . S
H2973 C2992 0.951 . S
H2974 C2994 0.950 . S
H2975 C2995 0.950 . S
H2976 C2997 0.950 . S
H2977 C3000 0.950 . S
H2978 C3001 0.950 . S
H2979 C3003 0.950 . S
H2980 C3004 0.950 1_556 S
H2981 C3005 0.951 . S
H2982 C3007 0.951 . S
H2983 C3009 0.950 . S
H2984 C3010 0.950 . S
H2985 C3012 0.950 1_554 S
H2986 C3015 0.950 . S
H2987 C3016 0.950 . S
H2988 C3018 0.950 . S
H2989 C3019 0.950 . S
C2990 H2972 0.951 . S
C2990 C2991 1.366 . S
C2990 C2992 1.388 . S
C2991 C2990 1.366 . S
C2991 C2995 1.385 . S
C2992 H2973 0.951 . S
C2992 C2990 1.388 . S
C2992 C2993 1.366 . S
C2993 C2992 1.366 . S
C2993 C2994 1.414 . S
C2993 C2996 1.499 . S
C2994 H2974 0.950 . S
C2994 C2993 1.414 . S
C2994 C2995 1.374 . S
C2995 H2975 0.950 . S
C2995 C2991 1.385 . S
C2995 C2994 1.374 . S
C2996 C2993 1.499 . S
C2996 C2997 1.373 . S
C2996 C2998 1.389 . S
C2997 H2976 0.950 . S
C2997 C2996 1.373 . S
C2997 C3013 1.377 . S
C2998 C2996 1.389 . S
C2998 C2999 1.524 1_556 S
C2998 C3012 1.377 . S
C2999 C2998 1.524 1_554 S
C2999 C3000 1.397 . S
C2999 C3004 1.363 . S
C3000 H2977 0.950 . S
C3000 C2999 1.397 . S
C3000 C3001 1.334 . S
C3001 H2978 0.950 . S
C3001 C3000 1.334 . S
C3001 C3002 1.287 . S
C3002 C3001 1.287 . S
C3002 C3003 1.524 . S
C3002 H3021 0.913 . S
C3003 H2979 0.950 . S
C3003 C3002 1.524 . S
C3003 C3004 1.415 . S
C3004 H2980 0.950 1_554 S
C3004 C2999 1.363 . S
C3004 C3003 1.415 . S
C3005 H2981 0.951 . S
C3005 C3006 1.366 . S
C3005 C3007 1.388 1_554 S
C3006 C3005 1.366 . S
C3006 C3010 1.385 1_554 S
C3007 H2982 0.951 . S
C3007 C3005 1.388 1_556 S
C3007 C3008 1.366 . S
C3008 C3007 1.366 . S
C3008 C3009 1.414 . S
C3008 C3011 1.499 . S
C3009 H2983 0.950 . S
C3009 C3008 1.414 . S
C3009 C3010 1.374 . S
C3010 H2984 0.950 . S
C3010 C3006 1.385 1_556 S
C3010 C3009 1.374 . S
C3011 C3008 1.499 . S
C3011 C3012 1.373 . S
C3011 C3013 1.389 . S
C3012 H2985 0.950 1_556 S
C3012 C2998 1.377 . S
C3012 C3011 1.373 . S
C3013 C2997 1.377 . S
C3013 C3011 1.389 . S
C3013 C3014 1.524 . S
C3014 C3013 1.524 . S
C3014 C3015 1.397 . S
C3014 C3019 1.363 . S
C3015 H2986 0.950 . S
C3015 C3014 1.397 . S
C3015 C3016 1.334 . S
C3016 H2987 0.950 . S
C3016 C3015 1.334 . S
C3016 C3017 1.287 . S
C3017 C3016 1.287 . S
C3017 C3018 1.524 . S
C3017 H3020 0.999 . S
C3018 H2988 0.950 . S
C3018 C3017 1.524 . S
C3018 C3019 1.415 . S
C3019 H2989 0.950 . S
C3019 C3014 1.363 . S
C3019 C3018 1.415 . S
H3020 C3017 0.999 . S
H3021 C3002 0.913 . S
H3022 C3040 0.951 . S
H3023 C3042 0.951 . S
H3024 C3044 0.950 . S
H3025 C3045 0.950 . S
H3026 C3047 0.950 . S
H3027 C3050 0.950 . S
H3028 C3051 0.950 . S
H3029 C3053 0.950 . S
H3030 C3054 0.950 . S
H3031 C3055 0.951 . S
H3032 C3057 0.951 . S
H3033 C3059 0.950 . S
H3034 C3060 0.950 . S
H3035 C3062 0.950 . S
H3036 C3065 0.950 . S
H3037 C3066 0.950 . S
H3038 C3068 0.950 . S
H3039 C3069 0.950 . S
C3040 H3022 0.951 . S
C3040 C3041 1.366 . S
C3040 C3042 1.388 . S
C3041 C3040 1.366 . S
C3041 C3045 1.385 . S
C3042 H3023 0.951 . S
C3042 C3040 1.388 . S
C3042 C3043 1.366 . S
C3043 C3042 1.366 . S
C3043 C3044 1.414 . S
C3043 C3046 1.499 . S
C3044 H3024 0.950 . S
C3044 C3043 1.414 . S
C3044 C3045 1.374 . S
C3045 H3025 0.950 . S
C3045 C3041 1.385 . S
C3045 C3044 1.374 . S
C3046 C3043 1.499 . S
C3046 C3047 1.373 . S
C3046 C3048 1.389 . S
C3047 H3026 0.950 . S
C3047 C3046 1.373 . S
C3047 C3063 1.377 . S
C3048 C3046 1.389 . S
C3048 C3049 1.524 . S
C3048 C3062 1.377 . S
C3049 C3048 1.524 . S
C3049 C3050 1.397 . S
C3049 C3054 1.363 . S
C3050 H3027 0.950 . S
C3050 C3049 1.397 . S
C3050 C3051 1.334 . S
C3051 H3028 0.950 . S
C3051 C3050 1.334 . S
C3051 C3052 1.287 . S
C3052 C3051 1.287 . S
C3052 C3053 1.524 . S
C3052 H3071 0.913 . S
C3053 H3029 0.950 . S
C3053 C3052 1.524 . S
C3053 C3054 1.415 . S
C3054 H3030 0.950 . S
C3054 C3049 1.363 . S
C3054 C3053 1.415 . S
C3055 H3031 0.951 . S
C3055 C3056 1.366 . S
C3055 C3057 1.388 . S
C3056 C3055 1.366 . S
C3056 C3060 1.385 . S
C3057 H3032 0.951 . S
C3057 C3055 1.388 . S
C3057 C3058 1.366 . S
C3058 C3057 1.366 . S
C3058 C3059 1.414 . S
C3058 C3061 1.499 . S
C3059 H3033 0.950 . S
C3059 C3058 1.414 . S
C3059 C3060 1.374 . S
C3060 H3034 0.950 . S
C3060 C3056 1.385 . S
C3060 C3059 1.374 . S
C3061 C3058 1.499 . S
C3061 C3062 1.373 . S
C3061 C3063 1.389 . S
C3062 H3035 0.950 . S
C3062 C3048 1.377 . S
C3062 C3061 1.373 . S
C3063 C3047 1.377 . S
C3063 C3061 1.389 . S
C3063 C3064 1.524 . S
C3064 C3063 1.524 . S
C3064 C3065 1.397 . S
C3064 C3069 1.363 . S
C3065 H3036 0.950 . S
C3065 C3064 1.397 . S
C3065 C3066 1.334 . S
C3066 H3037 0.950 . S
C3066 C3065 1.334 . S
C3066 C3067 1.287 . S
C3067 C3066 1.287 . S
C3067 C3068 1.524 . S
C3067 H3070 0.999 . S
C3068 H3038 0.950 . S
C3068 C3067 1.524 . S
C3068 C3069 1.415 . S
C3069 H3039 0.950 . S
C3069 C3064 1.363 . S
C3069 C3068 1.415 . S
H3070 C3067 0.999 . S
H3071 C3052 0.913 . S
H3072 C3090 0.951 . S
H3073 C3092 0.951 . S
H3074 C3094 0.950 . S
H3075 C3095 0.950 . S
H3076 C3097 0.950 . S
H3077 C3100 0.950 . S
H3078 C3101 0.950 . S
H3079 C3103 0.950 . S
H3080 C3104 0.950 . S
H3081 C3105 0.951 . S
H3082 C3107 0.951 . S
H3083 C3109 0.950 . S
H3084 C3110 0.950 . S
H3085 C3112 0.950 . S
H3086 C3115 0.950 . S
H3087 C3116 0.950 . S
H3088 C3118 0.950 . S
H3089 C3119 0.950 . S
C3090 H3072 0.951 . S
C3090 C3091 1.366 . S
C3090 C3092 1.388 . S
C3091 C3090 1.366 . S
C3091 C3095 1.385 . S
C3092 H3073 0.951 . S
C3092 C3090 1.388 . S
C3092 C3093 1.366 . S
C3093 C3092 1.366 . S
C3093 C3094 1.414 . S
C3093 C3096 1.499 . S
C3094 H3074 0.950 . S
C3094 C3093 1.414 . S
C3094 C3095 1.374 . S
C3095 H3075 0.950 . S
C3095 C3091 1.385 . S
C3095 C3094 1.374 . S
C3096 C3093 1.499 . S
C3096 C3097 1.373 . S
C3096 C3098 1.389 . S
C3097 H3076 0.950 . S
C3097 C3096 1.373 . S
C3097 C3113 1.377 . S
C3098 C3096 1.389 . S
C3098 C3099 1.524 . S
C3098 C3112 1.377 . S
C3099 C3098 1.524 . S
C3099 C3100 1.397 . S
C3099 C3104 1.363 . S
C3100 H3077 0.950 . S
C3100 C3099 1.397 . S
C3100 C3101 1.334 1_455 S
C3101 H3078 0.950 . S
C3101 C3100 1.334 1_655 S
C3101 C3102 1.287 . S
C3102 C3101 1.287 . S
C3102 C3103 1.524 1_655 S
C3102 H3121 0.913 . S
C3103 H3079 0.950 . S
C3103 C3102 1.524 1_455 S
C3103 C3104 1.415 . S
C3104 H3080 0.950 . S
C3104 C3099 1.363 . S
C3104 C3103 1.415 . S
C3105 H3081 0.951 . S
C3105 C3106 1.366 . S
C3105 C3107 1.388 . S
C3106 C3105 1.366 . S
C3106 C3110 1.385 . S
C3107 H3082 0.951 . S
C3107 C3105 1.388 . S
C3107 C3108 1.366 . S
C3108 C3107 1.366 . S
C3108 C3109 1.414 . S
C3108 C3111 1.499 . S
C3109 H3083 0.950 . S
C3109 C3108 1.414 . S
C3109 C3110 1.374 . S
C3110 H3084 0.950 . S
C3110 C3106 1.385 . S
C3110 C3109 1.374 . S
C3111 C3108 1.499 . S
C3111 C3112 1.373 . S
C3111 C3113 1.389 . S
C3112 H3085 0.950 . S
C3112 C3098 1.377 . S
C3112 C3111 1.373 . S
C3113 C3097 1.377 . S
C3113 C3111 1.389 . S
C3113 C3114 1.524 . S
C3114 C3113 1.524 . S
C3114 C3115 1.397 . S
C3114 C3119 1.363 . S
C3115 H3086 0.950 . S
C3115 C3114 1.397 . S
C3115 C3116 1.334 . S
C3116 H3087 0.950 . S
C3116 C3115 1.334 . S
C3116 C3117 1.287 . S
C3117 C3116 1.287 . S
C3117 C3118 1.524 . S
C3117 H3120 0.999 . S
C3118 H3088 0.950 . S
C3118 C3117 1.524 . S
C3118 C3119 1.415 . S
C3119 H3089 0.950 . S
C3119 C3114 1.363 . S
C3119 C3118 1.415 . S
H3120 C3117 0.999 . S
H3121 C3102 0.913 . S
H3122 C3140 0.951 . S
H3123 C3142 0.951 . S
H3124 C3144 0.950 . S
H3125 C3145 0.950 . S
H3126 C3147 0.950 . S
H3127 C3150 0.950 . S
H3128 C3151 0.950 . S
H3129 C3153 0.950 . S
H3130 C3154 0.950 . S
H3131 C3155 0.951 . S
H3132 C3157 0.951 . S
H3133 C3159 0.950 . S
H3134 C3160 0.950 . S
H3135 C3162 0.950 . S
H3136 C3165 0.950 . S
H3137 C3166 0.950 . S
H3138 C3168 0.950 . S
H3139 C3169 0.950 . S
C3140 H3122 0.951 . S
C3140 C3141 1.366 . S
C3140 C3142 1.388 . S
C3141 C3140 1.366 . S
C3141 C3145 1.385 . S
C3142 H3123 0.951 . S
C3142 C3140 1.388 . S
C3142 C3143 1.366 . S
C3143 C3142 1.366 . S
C3143 C3144 1.414 . S
C3143 C3146 1.499 . S
C3144 H3124 0.950 . S
C3144 C3143 1.414 . S
C3144 C3145 1.374 . S
C3145 H3125 0.950 . S
C3145 C3141 1.385 . S
C3145 C3144 1.374 . S
C3146 C3143 1.499 . S
C3146 C3147 1.373 . S
C3146 C3148 1.389 . S
C3147 H3126 0.950 . S
C3147 C3146 1.373 . S
C3147 C3163 1.377 . S
C3148 C3146 1.389 . S
C3148 C3149 1.524 . S
C3148 C3162 1.377 . S
C3149 C3148 1.524 . S
C3149 C3150 1.397 . S
C3149 C3154 1.363 . S
C3150 H3127 0.950 . S
C3150 C3149 1.397 . S
C3150 C3151 1.334 . S
C3151 H3128 0.950 . S
C3151 C3150 1.334 . S
C3151 C3152 1.287 . S
C3152 C3151 1.287 . S
C3152 C3153 1.524 . S
C3152 H3171 0.913 . S
C3153 H3129 0.950 . S
C3153 C3152 1.524 . S
C3153 C3154 1.415 . S
C3154 H3130 0.950 . S
C3154 C3149 1.363 . S
C3154 C3153 1.415 . S
C3155 H3131 0.951 . S
C3155 C3156 1.366 . S
C3155 C3157 1.388 . S
C3156 C3155 1.366 . S
C3156 C3160 1.385 . S
C3157 H3132 0.951 . S
C3157 C3155 1.388 . S
C3157 C3158 1.366 . S
C3158 C3157 1.366 . S
C3158 C3159 1.414 . S
C3158 C3161 1.499 . S
C3159 H3133 0.950 . S
C3159 C3158 1.414 . S
C3159 C3160 1.374 . S
C3160 H3134 0.950 . S
C3160 C3156 1.385 . S
C3160 C3159 1.374 . S
C3161 C3158 1.499 . S
C3161 C3162 1.373 . S
C3161 C3163 1.389 . S
C3162 H3135 0.950 . S
C3162 C3148 1.377 . S
C3162 C3161 1.373 . S
C3163 C3147 1.377 . S
C3163 C3161 1.389 . S
C3163 C3164 1.524 . S
C3164 C3163 1.524 . S
C3164 C3165 1.397 . S
C3164 C3169 1.363 . S
C3165 H3136 0.950 . S
C3165 C3164 1.397 . S
C3165 C3166 1.334 . S
C3166 H3137 0.950 . S
C3166 C3165 1.334 . S
C3166 C3167 1.287 . S
C3167 C3166 1.287 . S
C3167 C3168 1.524 . S
C3167 H3170 0.999 . S
C3168 H3138 0.950 . S
C3168 C3167 1.524 . S
C3168 C3169 1.415 . S
C3169 H3139 0.950 . S
C3169 C3164 1.363 . S
C3169 C3168 1.415 . S
H3170 C3167 0.999 . S
H3171 C3152 0.913 . S
H3172 C3190 0.951 . S
H3173 C3192 0.951 . S
H3174 C3194 0.950 . S
H3175 C3195 0.950 . S
H3176 C3197 0.950 . S
H3177 C3200 0.950 . S
H3178 C3201 0.950 . S
H3179 C3203 0.950 . S
H3180 C3204 0.950 . S
H3181 C3205 0.951 . S
H3182 C3207 0.951 . S
H3183 C3209 0.950 . S
H3184 C3210 0.950 . S
H3185 C3212 0.950 . S
H3186 C3215 0.950 . S
H3187 C3216 0.950 . S
H3188 C3218 0.950 . S
H3189 C3219 0.950 . S
C3190 H3172 0.951 . S
C3190 C3191 1.366 . S
C3190 C3192 1.388 . S
C3191 C3190 1.366 . S
C3191 C3195 1.385 . S
C3192 H3173 0.951 . S
C3192 C3190 1.388 . S
C3192 C3193 1.366 . S
C3193 C3192 1.366 . S
C3193 C3194 1.414 . S
C3193 C3196 1.499 . S
C3194 H3174 0.950 . S
C3194 C3193 1.414 . S
C3194 C3195 1.374 . S
C3195 H3175 0.950 . S
C3195 C3191 1.385 . S
C3195 C3194 1.374 . S
C3196 C3193 1.499 . S
C3196 C3197 1.373 . S
C3196 C3198 1.389 . S
C3197 H3176 0.950 . S
C3197 C3196 1.373 . S
C3197 C3213 1.377 . S
C3198 C3196 1.389 . S
C3198 C3199 1.524 . S
C3198 C3212 1.377 . S
C3199 C3198 1.524 . S
C3199 C3200 1.397 . S
C3199 C3204 1.363 . S
C3200 H3177 0.950 . S
C3200 C3199 1.397 . S
C3200 C3201 1.334 . S
C3201 H3178 0.950 . S
C3201 C3200 1.334 . S
C3201 C3202 1.287 . S
C3202 C3201 1.287 . S
C3202 C3203 1.524 . S
C3202 H3221 0.913 . S
C3203 H3179 0.950 . S
C3203 C3202 1.524 . S
C3203 C3204 1.415 . S
C3204 H3180 0.950 . S
C3204 C3199 1.363 . S
C3204 C3203 1.415 . S
C3205 H3181 0.951 . S
C3205 C3206 1.366 . S
C3205 C3207 1.388 . S
C3206 C3205 1.366 . S
C3206 C3210 1.385 . S
C3207 H3182 0.951 . S
C3207 C3205 1.388 . S
C3207 C3208 1.366 . S
C3208 C3207 1.366 . S
C3208 C3209 1.414 . S
C3208 C3211 1.499 . S
C3209 H3183 0.950 . S
C3209 C3208 1.414 . S
C3209 C3210 1.374 . S
C3210 H3184 0.950 . S
C3210 C3206 1.385 . S
C3210 C3209 1.374 . S
C3211 C3208 1.499 . S
C3211 C3212 1.373 . S
C3211 C3213 1.389 . S
C3212 H3185 0.950 . S
C3212 C3198 1.377 . S
C3212 C3211 1.373 . S
C3213 C3197 1.377 . S
C3213 C3211 1.389 . S
C3213 C3214 1.524 . S
C3214 C3213 1.524 . S
C3214 C3215 1.397 . S
C3214 C3219 1.363 . S
C3215 H3186 0.950 . S
C3215 C3214 1.397 . S
C3215 C3216 1.334 . S
C3216 H3187 0.950 . S
C3216 C3215 1.334 . S
C3216 C3217 1.287 . S
C3217 C3216 1.287 . S
C3217 C3218 1.524 . S
C3217 H3220 0.999 . S
C3218 H3188 0.950 . S
C3218 C3217 1.524 . S
C3218 C3219 1.415 . S
C3219 H3189 0.950 . S
C3219 C3214 1.363 . S
C3219 C3218 1.415 . S
H3220 C3217 0.999 . S
H3221 C3202 0.913 . S
H3222 C3240 0.951 . S
H3223 C3242 0.951 . S
H3224 C3244 0.950 . S
H3225 C3245 0.950 . S
H3226 C3247 0.950 . S
H3227 C3250 0.950 . S
H3228 C3251 0.950 . S
H3229 C3253 0.950 . S
H3230 C3254 0.950 . S
H3231 C3255 0.951 . S
H3232 C3257 0.951 . S
H3233 C3259 0.950 . S
H3234 C3260 0.950 . S
H3235 C3262 0.950 . S
H3236 C3265 0.950 . S
H3237 C3266 0.950 . S
H3238 C3268 0.950 . S
H3239 C3269 0.950 . S
C3240 H3222 0.951 . S
C3240 C3241 1.366 . S
C3240 C3242 1.388 . S
C3241 C3240 1.366 . S
C3241 C3245 1.385 . S
C3242 H3223 0.951 . S
C3242 C3240 1.388 . S
C3242 C3243 1.366 . S
C3243 C3242 1.366 . S
C3243 C3244 1.414 . S
C3243 C3246 1.499 . S
C3244 H3224 0.950 . S
C3244 C3243 1.414 . S
C3244 C3245 1.374 . S
C3245 H3225 0.950 . S
C3245 C3241 1.385 . S
C3245 C3244 1.374 . S
C3246 C3243 1.499 . S
C3246 C3247 1.373 . S
C3246 C3248 1.389 . S
C3247 H3226 0.950 . S
C3247 C3246 1.373 . S
C3247 C3263 1.377 . S
C3248 C3246 1.389 . S
C3248 C3249 1.524 . S
C3248 C3262 1.377 . S
C3249 C3248 1.524 . S
C3249 C3250 1.397 . S
C3249 C3254 1.363 . S
C3250 H3227 0.950 . S
C3250 C3249 1.397 . S
C3250 C3251 1.334 . S
C3251 H3228 0.950 . S
C3251 C3250 1.334 . S
C3251 C3252 1.287 . S
C3252 C3251 1.287 . S
C3252 C3253 1.524 . S
C3252 H3271 0.913 . S
C3253 H3229 0.950 . S
C3253 C3252 1.524 . S
C3253 C3254 1.415 . S
C3254 H3230 0.950 . S
C3254 C3249 1.363 . S
C3254 C3253 1.415 . S
C3255 H3231 0.951 . S
C3255 C3256 1.366 . S
C3255 C3257 1.388 . S
C3256 C3255 1.366 . S
C3256 C3260 1.385 . S
C3257 H3232 0.951 . S
C3257 C3255 1.388 . S
C3257 C3258 1.366 . S
C3258 C3257 1.366 . S
C3258 C3259 1.414 . S
C3258 C3261 1.499 . S
C3259 H3233 0.950 . S
C3259 C3258 1.414 . S
C3259 C3260 1.374 . S
C3260 H3234 0.950 . S
C3260 C3256 1.385 . S
C3260 C3259 1.374 . S
C3261 C3258 1.499 . S
C3261 C3262 1.373 . S
C3261 C3263 1.389 . S
C3262 H3235 0.950 . S
C3262 C3248 1.377 . S
C3262 C3261 1.373 . S
C3263 C3247 1.377 . S
C3263 C3261 1.389 . S
C3263 C3264 1.524 . S
C3264 C3263 1.524 . S
C3264 C3265 1.397 . S
C3264 C3269 1.363 . S
C3265 H3236 0.950 . S
C3265 C3264 1.397 . S
C3265 C3266 1.334 . S
C3266 H3237 0.950 . S
C3266 C3265 1.334 . S
C3266 C3267 1.287 . S
C3267 C3266 1.287 . S
C3267 C3268 1.524 . S
C3267 H3270 0.999 . S
C3268 H3238 0.950 . S
C3268 C3267 1.524 . S
C3268 C3269 1.415 . S
C3269 H3239 0.950 . S
C3269 C3264 1.363 . S
C3269 C3268 1.415 . S
H3270 C3267 0.999 . S
H3271 C3252 0.913 . S
H3272 C3290 0.951 . S
H3273 C3292 0.951 . S
H3274 C3294 0.950 . S
H3275 C3295 0.950 . S
H3276 C3297 0.950 . S
H3277 C3300 0.950 . S
H3278 C3301 0.950 . S
H3279 C3303 0.950 . S
H3280 C3304 0.950 . S
H3281 C3305 0.951 . S
H3282 C3307 0.951 . S
H3283 C3309 0.950 . S
H3284 C3310 0.950 . S
H3285 C3312 0.950 . S
H3286 C3315 0.950 . S
H3287 C3316 0.950 . S
H3288 C3318 0.950 . S
H3289 C3319 0.950 . S
C3290 H3272 0.951 . S
C3290 C3291 1.366 . S
C3290 C3292 1.388 . S
C3291 C3290 1.366 . S
C3291 C3295 1.385 . S
C3292 H3273 0.951 . S
C3292 C3290 1.388 . S
C3292 C3293 1.366 . S
C3293 C3292 1.366 . S
C3293 C3294 1.414 . S
C3293 C3296 1.499 . S
C3294 H3274 0.950 . S
C3294 C3293 1.414 . S
C3294 C3295 1.374 . S
C3295 H3275 0.950 . S
C3295 C3291 1.385 . S
C3295 C3294 1.374 . S
C3296 C3293 1.499 . S
C3296 C3297 1.373 . S
C3296 C3298 1.389 . S
C3297 H3276 0.950 . S
C3297 C3296 1.373 . S
C3297 C3313 1.377 . S
C3298 C3296 1.389 . S
C3298 C3299 1.524 . S
C3298 C3312 1.377 . S
C3299 C3298 1.524 . S
C3299 C3300 1.397 . S
C3299 C3304 1.363 . S
C3300 H3277 0.950 . S
C3300 C3299 1.397 . S
C3300 C3301 1.334 . S
C3301 H3278 0.950 . S
C3301 C3300 1.334 . S
C3301 C3302 1.287 . S
C3302 C3301 1.287 . S
C3302 C3303 1.524 . S
C3302 H3321 0.913 . S
C3303 H3279 0.950 . S
C3303 C3302 1.524 . S
C3303 C3304 1.415 . S
C3304 H3280 0.950 . S
C3304 C3299 1.363 . S
C3304 C3303 1.415 . S
C3305 H3281 0.951 . S
C3305 C3306 1.366 . S
C3305 C3307 1.388 . S
C3306 C3305 1.366 . S
C3306 C3310 1.385 . S
C3307 H3282 0.951 . S
C3307 C3305 1.388 . S
C3307 C3308 1.366 . S
C3308 C3307 1.366 . S
C3308 C3309 1.414 . S
C3308 C3311 1.499 . S
C3309 H3283 0.950 . S
C3309 C3308 1.414 . S
C3309 C3310 1.374 . S
C3310 H3284 0.950 . S
C3310 C3306 1.385 . S
C3310 C3309 1.374 . S
C3311 C3308 1.499 . S
C3311 C3312 1.373 . S
C3311 C3313 1.389 . S
C3312 H3285 0.950 . S
C3312 C3298 1.377 . S
C3312 C3311 1.373 . S
C3313 C3297 1.377 . S
C3313 C3311 1.389 . S
C3313 C3314 1.524 . S
C3314 C3313 1.524 . S
C3314 C3315 1.397 . S
C3314 C3319 1.363 . S
C3315 H3286 0.950 . S
C3315 C3314 1.397 . S
C3315 C3316 1.334 . S
C3316 H3287 0.950 . S
C3316 C3315 1.334 . S
C3316 C3317 1.287 . S
C3317 C3316 1.287 . S
C3317 C3318 1.524 . S
C3317 H3320 0.999 . S
C3318 H3288 0.950 . S
C3318 C3317 1.524 . S
C3318 C3319 1.415 . S
C3319 H3289 0.950 . S
C3319 C3314 1.363 . S
C3319 C3318 1.415 . S
H3320 C3317 0.999 . S
H3321 C3302 0.913 . S
H3322 C3340 0.951 . S
H3323 C3342 0.951 . S
H3324 C3344 0.950 . S
H3325 C3345 0.950 . S
H3326 C3347 0.950 . S
H3327 C3350 0.950 . S
H3328 C3351 0.950 . S
H3329 C3353 0.950 . S
H3330 C3354 0.950 . S
H3331 C3355 0.951 . S
H3332 C3357 0.951 . S
H3333 C3359 0.950 . S
H3334 C3360 0.950 . S
H3335 C3362 0.950 . S
H3336 C3365 0.950 . S
H3337 C3366 0.950 . S
H3338 C3368 0.950 . S
H3339 C3369 0.950 . S
C3340 H3322 0.951 . S
C3340 C3341 1.366 . S
C3340 C3342 1.388 . S
C3341 C3340 1.366 . S
C3341 C3345 1.385 . S
C3342 H3323 0.951 . S
C3342 C3340 1.388 . S
C3342 C3343 1.366 . S
C3343 C3342 1.366 . S
C3343 C3344 1.414 . S
C3343 C3346 1.499 . S
C3344 H3324 0.950 . S
C3344 C3343 1.414 . S
C3344 C3345 1.374 . S
C3345 H3325 0.950 . S
C3345 C3341 1.385 . S
C3345 C3344 1.374 . S
C3346 C3343 1.499 . S
C3346 C3347 1.373 . S
C3346 C3348 1.389 . S
C3347 H3326 0.950 . S
C3347 C3346 1.373 . S
C3347 C3363 1.377 . S
C3348 C3346 1.389 . S
C3348 C3349 1.524 . S
C3348 C3362 1.377 . S
C3349 C3348 1.524 . S
C3349 C3350 1.397 . S
C3349 C3354 1.363 . S
C3350 H3327 0.950 . S
C3350 C3349 1.397 . S
C3350 C3351 1.334 . S
C3351 H3328 0.950 . S
C3351 C3350 1.334 . S
C3351 C3352 1.287 . S
C3352 C3351 1.287 . S
C3352 C3353 1.524 . S
C3352 H3371 0.913 . S
C3353 H3329 0.950 . S
C3353 C3352 1.524 . S
C3353 C3354 1.415 . S
C3354 H3330 0.950 . S
C3354 C3349 1.363 . S
C3354 C3353 1.415 . S
C3355 H3331 0.951 . S
C3355 C3356 1.366 . S
C3355 C3357 1.388 . S
C3356 C3355 1.366 . S
C3356 C3360 1.385 . S
C3357 H3332 0.951 . S
C3357 C3355 1.388 . S
C3357 C3358 1.366 . S
C3358 C3357 1.366 . S
C3358 C3359 1.414 . S
C3358 C3361 1.499 . S
C3359 H3333 0.950 . S
C3359 C3358 1.414 . S
C3359 C3360 1.374 . S
C3360 H3334 0.950 . S
C3360 C3356 1.385 . S
C3360 C3359 1.374 . S
C3361 C3358 1.499 . S
C3361 C3362 1.373 . S
C3361 C3363 1.389 . S
C3362 H3335 0.950 . S
C3362 C3348 1.377 . S
C3362 C3361 1.373 . S
C3363 C3347 1.377 . S
C3363 C3361 1.389 . S
C3363 C3364 1.524 . S
C3364 C3363 1.524 . S
C3364 C3365 1.397 . S
C3364 C3369 1.363 . S
C3365 H3336 0.950 . S
C3365 C3364 1.397 . S
C3365 C3366 1.334 . S
C3366 H3337 0.950 . S
C3366 C3365 1.334 . S
C3366 C3367 1.287 . S
C3367 C3366 1.287 . S
C3367 C3368 1.524 . S
C3367 H3370 0.999 . S
C3368 H3338 0.950 . S
C3368 C3367 1.524 . S
C3368 C3369 1.415 . S
C3369 H3339 0.950 . S
C3369 C3364 1.363 . S
C3369 C3368 1.415 . S
H3370 C3367 0.999 . S
H3371 C3352 0.913 . S
H3372 C3390 0.951 . S
H3373 C3392 0.951 . S
H3374 C3394 0.950 . S
H3375 C3395 0.950 . S
H3376 C3397 0.950 . S
H3377 C3400 0.950 . S
H3378 C3401 0.950 . S
H3379 C3403 0.950 . S
H3380 C3404 0.950 . S
H3381 C3405 0.951 . S
H3382 C3407 0.951 . S
H3383 C3409 0.950 . S
H3384 C3410 0.950 . S
H3385 C3412 0.950 . S
H3386 C3415 0.950 . S
H3387 C3416 0.950 . S
H3388 C3418 0.950 . S
H3389 C3419 0.950 . S
C3390 H3372 0.951 . S
C3390 C3391 1.366 . S
C3390 C3392 1.388 . S
C3391 C3390 1.366 . S
C3391 C3395 1.385 . S
C3392 H3373 0.951 . S
C3392 C3390 1.388 . S
C3392 C3393 1.366 . S
C3393 C3392 1.366 . S
C3393 C3394 1.414 . S
C3393 C3396 1.499 . S
C3394 H3374 0.950 . S
C3394 C3393 1.414 . S
C3394 C3395 1.374 . S
C3395 H3375 0.950 . S
C3395 C3391 1.385 . S
C3395 C3394 1.374 . S
C3396 C3393 1.499 . S
C3396 C3397 1.373 . S
C3396 C3398 1.389 . S
C3397 H3376 0.950 . S
C3397 C3396 1.373 . S
C3397 C3413 1.377 . S
C3398 C3396 1.389 . S
C3398 C3399 1.524 . S
C3398 C3412 1.377 . S
C3399 C3398 1.524 . S
C3399 C3400 1.397 . S
C3399 C3404 1.363 . S
C3400 H3377 0.950 . S
C3400 C3399 1.397 . S
C3400 C3401 1.334 . S
C3401 H3378 0.950 . S
C3401 C3400 1.334 . S
C3401 C3402 1.287 . S
C3402 C3401 1.287 . S
C3402 C3403 1.524 . S
C3402 H3421 0.913 . S
C3403 H3379 0.950 . S
C3403 C3402 1.524 . S
C3403 C3404 1.415 . S
C3404 H3380 0.950 . S
C3404 C3399 1.363 . S
C3404 C3403 1.415 . S
C3405 H3381 0.951 . S
C3405 C3406 1.366 . S
C3405 C3407 1.388 . S
C3406 C3405 1.366 . S
C3406 C3410 1.385 . S
C3407 H3382 0.951 . S
C3407 C3405 1.388 . S
C3407 C3408 1.366 . S
C3408 C3407 1.366 . S
C3408 C3409 1.414 . S
C3408 C3411 1.499 . S
C3409 H3383 0.950 . S
C3409 C3408 1.414 . S
C3409 C3410 1.374 . S
C3410 H3384 0.950 . S
C3410 C3406 1.385 . S
C3410 C3409 1.374 . S
C3411 C3408 1.499 . S
C3411 C3412 1.373 . S
C3411 C3413 1.389 . S
C3412 H3385 0.950 . S
C3412 C3398 1.377 . S
C3412 C3411 1.373 . S
C3413 C3397 1.377 . S
C3413 C3411 1.389 . S
C3413 C3414 1.524 . S
C3414 C3413 1.524 . S
C3414 C3415 1.397 . S
C3414 C3419 1.363 . S
C3415 H3386 0.950 . S
C3415 C3414 1.397 . S
C3415 C3416 1.334 . S
C3416 H3387 0.950 . S
C3416 C3415 1.334 . S
C3416 C3417 1.287 . S
C3417 C3416 1.287 . S
C3417 C3418 1.524 . S
C3417 H3420 0.999 . S
C3418 H3388 0.950 . S
C3418 C3417 1.524 . S
C3418 C3419 1.415 . S
C3419 H3389 0.950 . S
C3419 C3414 1.363 . S
C3419 C3418 1.415 . S
H3420 C3417 0.999 . S
H3421 C3402 0.913 . S
H3422 C3440 0.951 . S
H3423 C3442 0.951 . S
H3424 C3444 0.950 . S
H3425 C3445 0.950 . S
H3426 C3447 0.950 . S
H3427 C3450 0.950 . S
H3428 C3451 0.950 . S
H3429 C3453 0.950 . S
H3430 C3454 0.950 . S
H3431 C3455 0.951 . S
H3432 C3457 0.951 . S
H3433 C3459 0.950 . S
H3434 C3460 0.950 . S
H3435 C3462 0.950 . S
H3436 C3465 0.950 . S
H3437 C3466 0.950 . S
H3438 C3468 0.950 . S
H3439 C3469 0.950 . S
C3440 H3422 0.951 . S
C3440 C3441 1.366 . S
C3440 C3442 1.388 . S
C3441 C3440 1.366 . S
C3441 C3445 1.385 . S
C3442 H3423 0.951 . S
C3442 C3440 1.388 . S
C3442 C3443 1.366 . S
C3443 C3442 1.366 . S
C3443 C3444 1.414 . S
C3443 C3446 1.499 . S
C3444 H3424 0.950 . S
C3444 C3443 1.414 . S
C3444 C3445 1.374 . S
C3445 H3425 0.950 . S
C3445 C3441 1.385 . S
C3445 C3444 1.374 . S
C3446 C3443 1.499 . S
C3446 C3447 1.373 . S
C3446 C3448 1.389 . S
C3447 H3426 0.950 . S
C3447 C3446 1.373 . S
C3447 C3463 1.377 . S
C3448 C3446 1.389 . S
C3448 C3449 1.524 . S
C3448 C3462 1.377 . S
C3449 C3448 1.524 . S
C3449 C3450 1.397 . S
C3449 C3454 1.363 . S
C3450 H3427 0.950 . S
C3450 C3449 1.397 . S
C3450 C3451 1.334 . S
C3451 H3428 0.950 . S
C3451 C3450 1.334 . S
C3451 C3452 1.287 . S
C3452 C3451 1.287 . S
C3452 C3453 1.524 . S
C3452 H3471 0.913 . S
C3453 H3429 0.950 . S
C3453 C3452 1.524 . S
C3453 C3454 1.415 . S
C3454 H3430 0.950 . S
C3454 C3449 1.363 . S
C3454 C3453 1.415 . S
C3455 H3431 0.951 . S
C3455 C3456 1.366 . S
C3455 C3457 1.388 . S
C3456 C3455 1.366 . S
C3456 C3460 1.385 . S
C3457 H3432 0.951 . S
C3457 C3455 1.388 . S
C3457 C3458 1.366 . S
C3458 C3457 1.366 . S
C3458 C3459 1.414 . S
C3458 C3461 1.499 . S
C3459 H3433 0.950 . S
C3459 C3458 1.414 . S
C3459 C3460 1.374 . S
C3460 H3434 0.950 . S
C3460 C3456 1.385 . S
C3460 C3459 1.374 . S
C3461 C3458 1.499 . S
C3461 C3462 1.373 . S
C3461 C3463 1.389 . S
C3462 H3435 0.950 . S
C3462 C3448 1.377 . S
C3462 C3461 1.373 . S
C3463 C3447 1.377 . S
C3463 C3461 1.389 . S
C3463 C3464 1.524 . S
C3464 C3463 1.524 . S
C3464 C3465 1.397 . S
C3464 C3469 1.363 . S
C3465 H3436 0.950 . S
C3465 C3464 1.397 . S
C3465 C3466 1.334 . S
C3466 H3437 0.950 . S
C3466 C3465 1.334 . S
C3466 C3467 1.287 . S
C3467 C3466 1.287 . S
C3467 C3468 1.524 . S
C3467 H3470 0.999 . S
C3468 H3438 0.950 . S
C3468 C3467 1.524 . S
C3468 C3469 1.415 . S
C3469 H3439 0.950 . S
C3469 C3464 1.363 . S
C3469 C3468 1.415 . S
H3470 C3467 0.999 . S
H3471 C3452 0.913 . S
H3472 C3490 0.951 . S
H3473 C3492 0.951 . S
H3474 C3494 0.950 . S
H3475 C3495 0.950 . S
H3476 C3497 0.950 . S
H3477 C3500 0.950 . S
H3478 C3501 0.950 . S
H3479 C3503 0.950 . S
H3480 C3504 0.950 . S
H3481 C3505 0.951 . S
H3482 C3507 0.951 . S
H3483 C3509 0.950 . S
H3484 C3510 0.950 . S
H3485 C3512 0.950 . S
H3486 C3515 0.950 . S
H3487 C3516 0.950 . S
H3488 C3518 0.950 . S
H3489 C3519 0.950 . S
C3490 H3472 0.951 . S
C3490 C3491 1.366 . S
C3490 C3492 1.388 . S
C3491 C3490 1.366 . S
C3491 C3495 1.385 . S
C3492 H3473 0.951 . S
C3492 C3490 1.388 . S
C3492 C3493 1.366 . S
C3493 C3492 1.366 . S
C3493 C3494 1.414 . S
C3493 C3496 1.499 . S
C3494 H3474 0.950 . S
C3494 C3493 1.414 . S
C3494 C3495 1.374 . S
C3495 H3475 0.950 . S
C3495 C3491 1.385 . S
C3495 C3494 1.374 . S
C3496 C3493 1.499 . S
C3496 C3497 1.373 . S
C3496 C3498 1.389 . S
C3497 H3476 0.950 . S
C3497 C3496 1.373 . S
C3497 C3513 1.377 . S
C3498 C3496 1.389 . S
C3498 C3499 1.524 . S
C3498 C3512 1.377 . S
C3499 C3498 1.524 . S
C3499 C3500 1.397 . S
C3499 C3504 1.363 . S
C3500 H3477 0.950 . S
C3500 C3499 1.397 . S
C3500 C3501 1.334 . S
C3501 H3478 0.950 . S
C3501 C3500 1.334 . S
C3501 C3502 1.287 . S
C3502 C3501 1.287 . S
C3502 C3503 1.524 . S
C3502 H3521 0.913 . S
C3503 H3479 0.950 . S
C3503 C3502 1.524 . S
C3503 C3504 1.415 . S
C3504 H3480 0.950 . S
C3504 C3499 1.363 . S
C3504 C3503 1.415 . S
C3505 H3481 0.951 . S
C3505 C3506 1.366 . S
C3505 C3507 1.388 . S
C3506 C3505 1.366 . S
C3506 C3510 1.385 . S
C3507 H3482 0.951 . S
C3507 C3505 1.388 . S
C3507 C3508 1.366 . S
C3508 C3507 1.366 . S
C3508 C3509 1.414 . S
C3508 C3511 1.499 . S
C3509 H3483 0.950 . S
C3509 C3508 1.414 . S
C3509 C3510 1.374 . S
C3510 H3484 0.950 . S
C3510 C3506 1.385 . S
C3510 C3509 1.374 . S
C3511 C3508 1.499 . S
C3511 C3512 1.373 . S
C3511 C3513 1.389 . S
C3512 H3485 0.950 . S
C3512 C3498 1.377 . S
C3512 C3511 1.373 . S
C3513 C3497 1.377 . S
C3513 C3511 1.389 . S
C3513 C3514 1.524 . S
C3514 C3513 1.524 . S
C3514 C3515 1.397 . S
C3514 C3519 1.363 . S
C3515 H3486 0.950 . S
C3515 C3514 1.397 . S
C3515 C3516 1.334 . S
C3516 H3487 0.950 . S
C3516 C3515 1.334 . S
C3516 C3517 1.287 . S
C3517 C3516 1.287 . S
C3517 C3518 1.524 . S
C3517 H3520 0.999 . S
C3518 H3488 0.950 . S
C3518 C3517 1.524 . S
C3518 C3519 1.415 . S
C3519 H3489 0.950 . S
C3519 C3514 1.363 . S
C3519 C3518 1.415 . S
H3520 C3517 0.999 . S
H3521 C3502 0.913 . S
H3522 C3540 0.951 . S
H3523 C3542 0.951 . S
H3524 C3544 0.950 . S
H3525 C3545 0.950 . S
H3526 C3547 0.950 . S
H3527 C3550 0.950 . S
H3528 C3551 0.950 . S
H3529 C3553 0.950 . S
H3530 C3554 0.950 . S
H3531 C3555 0.951 . S
H3532 C3557 0.951 . S
H3533 C3559 0.950 . S
H3534 C3560 0.950 . S
H3535 C3562 0.950 . S
H3536 C3565 0.950 . S
H3537 C3566 0.950 . S
H3538 C3568 0.950 . S
H3539 C3569 0.950 . S
C3540 H3522 0.951 . S
C3540 C3541 1.366 . S
C3540 C3542 1.388 . S
C3541 C3540 1.366 . S
C3541 C3545 1.385 . S
C3542 H3523 0.951 . S
C3542 C3540 1.388 . S
C3542 C3543 1.366 . S
C3543 C3542 1.366 . S
C3543 C3544 1.414 . S
C3543 C3546 1.499 . S
C3544 H3524 0.950 . S
C3544 C3543 1.414 . S
C3544 C3545 1.374 . S
C3545 H3525 0.950 . S
C3545 C3541 1.385 . S
C3545 C3544 1.374 . S
C3546 C3543 1.499 . S
C3546 C3547 1.373 . S
C3546 C3548 1.389 . S
C3547 H3526 0.950 . S
C3547 C3546 1.373 . S
C3547 C3563 1.377 . S
C3548 C3546 1.389 . S
C3548 C3549 1.524 . S
C3548 C3562 1.377 . S
C3549 C3548 1.524 . S
C3549 C3550 1.397 . S
C3549 C3554 1.363 . S
C3550 H3527 0.950 . S
C3550 C3549 1.397 . S
C3550 C3551 1.334 . S
C3551 H3528 0.950 . S
C3551 C3550 1.334 . S
C3551 C3552 1.287 . S
C3552 C3551 1.287 . S
C3552 C3553 1.524 . S
C3552 H3571 0.913 . S
C3553 H3529 0.950 . S
C3553 C3552 1.524 . S
C3553 C3554 1.415 . S
C3554 H3530 0.950 . S
C3554 C3549 1.363 . S
C3554 C3553 1.415 . S
C3555 H3531 0.951 . S
C3555 C3556 1.366 . S
C3555 C3557 1.388 . S
C3556 C3555 1.366 . S
C3556 C3560 1.385 . S
C3557 H3532 0.951 . S
C3557 C3555 1.388 . S
C3557 C3558 1.366 . S
C3558 C3557 1.366 . S
C3558 C3559 1.414 . S
C3558 C3561 1.499 . S
C3559 H3533 0.950 . S
C3559 C3558 1.414 . S
C3559 C3560 1.374 . S
C3560 H3534 0.950 . S
C3560 C3556 1.385 . S
C3560 C3559 1.374 . S
C3561 C3558 1.499 . S
C3561 C3562 1.373 . S
C3561 C3563 1.389 . S
C3562 H3535 0.950 . S
C3562 C3548 1.377 . S
C3562 C3561 1.373 . S
C3563 C3547 1.377 . S
C3563 C3561 1.389 . S
C3563 C3564 1.524 . S
C3564 C3563 1.524 . S
C3564 C3565 1.397 . S
C3564 C3569 1.363 . S
C3565 H3536 0.950 . S
C3565 C3564 1.397 . S
C3565 C3566 1.334 . S
C3566 H3537 0.950 . S
C3566 C3565 1.334 . S
C3566 C3567 1.287 . S
C3567 C3566 1.287 . S
C3567 C3568 1.524 . S
C3567 H3570 0.999 . S
C3568 H3538 0.950 . S
C3568 C3567 1.524 . S
C3568 C3569 1.415 . S
C3569 H3539 0.950 . S
C3569 C3564 1.363 . S
C3569 C3568 1.415 . S
H3570 C3567 0.999 . S
H3571 C3552 0.913 . S
H3572 C3590 0.951 . S
H3573 C3592 0.951 . S
H3574 C3594 0.950 . S
H3575 C3595 0.950 . S
H3576 C3597 0.950 . S
H3577 C3600 0.950 . S
H3578 C3601 0.950 . S
H3579 C3603 0.950 . S
H3580 C3604 0.950 . S
H3581 C3605 0.951 . S
H3582 C3607 0.951 . S
H3583 C3609 0.950 . S
H3584 C3610 0.950 . S
H3585 C3612 0.950 . S
H3586 C3615 0.950 . S
H3587 C3616 0.950 . S
H3588 C3618 0.950 . S
H3589 C3619 0.950 . S
C3590 H3572 0.951 . S
C3590 C3591 1.366 . S
C3590 C3592 1.388 . S
C3591 C3590 1.366 . S
C3591 C3595 1.385 . S
C3592 H3573 0.951 . S
C3592 C3590 1.388 . S
C3592 C3593 1.366 . S
C3593 C3592 1.366 . S
C3593 C3594 1.414 . S
C3593 C3596 1.499 . S
C3594 H3574 0.950 . S
C3594 C3593 1.414 . S
C3594 C3595 1.374 . S
C3595 H3575 0.950 . S
C3595 C3591 1.385 . S
C3595 C3594 1.374 . S
C3596 C3593 1.499 . S
C3596 C3597 1.373 . S
C3596 C3598 1.389 . S
C3597 H3576 0.950 . S
C3597 C3596 1.373 . S
C3597 C3613 1.377 . S
C3598 C3596 1.389 . S
C3598 C3599 1.524 . S
C3598 C3612 1.377 . S
C3599 C3598 1.524 . S
C3599 C3600 1.397 . S
C3599 C3604 1.363 . S
C3600 H3577 0.950 . S
C3600 C3599 1.397 . S
C3600 C3601 1.334 . S
C3601 H3578 0.950 . S
C3601 C3600 1.334 . S
C3601 C3602 1.287 . S
C3602 C3601 1.287 . S
C3602 C3603 1.524 . S
C3602 H3621 0.913 . S
C3603 H3579 0.950 . S
C3603 C3602 1.524 . S
C3603 C3604 1.415 . S
C3604 H3580 0.950 . S
C3604 C3599 1.363 . S
C3604 C3603 1.415 . S
C3605 H3581 0.951 . S
C3605 C3606 1.366 . S
C3605 C3607 1.388 . S
C3606 C3605 1.366 . S
C3606 C3610 1.385 . S
C3607 H3582 0.951 . S
C3607 C3605 1.388 . S
C3607 C3608 1.366 . S
C3608 C3607 1.366 . S
C3608 C3609 1.414 . S
C3608 C3611 1.499 . S
C3609 H3583 0.950 . S
C3609 C3608 1.414 . S
C3609 C3610 1.374 . S
C3610 H3584 0.950 . S
C3610 C3606 1.385 . S
C3610 C3609 1.374 . S
C3611 C3608 1.499 . S
C3611 C3612 1.373 . S
C3611 C3613 1.389 . S
C3612 H3585 0.950 . S
C3612 C3598 1.377 . S
C3612 C3611 1.373 . S
C3613 C3597 1.377 . S
C3613 C3611 1.389 . S
C3613 C3614 1.524 . S
C3614 C3613 1.524 . S
C3614 C3615 1.397 . S
C3614 C3619 1.363 . S
C3615 H3586 0.950 . S
C3615 C3614 1.397 . S
C3615 C3616 1.334 . S
C3616 H3587 0.950 . S
C3616 C3615 1.334 . S
C3616 C3617 1.287 . S
C3617 C3616 1.287 . S
C3617 C3618 1.524 . S
C3617 H3620 1.003 1_545 S
C3618 H3588 0.950 . S
C3618 C3617 1.524 . S
C3618 C3619 1.415 . S
C3619 H3589 0.950 . S
C3619 C3614 1.363 . S
C3619 C3618 1.415 . S
H3620 C3617 1.003 1_565 S
H3621 C3602 0.913 . S
H3622 C3640 0.951 . S
H3623 C3642 0.951 . S
H3624 C3644 0.950 . S
H3625 C3645 0.950 . S
H3626 C3647 0.950 . S
H3627 C3650 0.950 . S
H3628 C3651 0.950 . S
H3629 C3653 0.950 . S
H3630 C3654 0.950 . S
H3631 C3655 0.951 . S
H3632 C3657 0.951 . S
H3633 C3659 0.950 . S
H3634 C3660 0.950 . S
H3635 C3662 0.950 . S
H3636 C3665 0.950 . S
H3637 C3666 0.950 . S
H3638 C3668 0.950 . S
H3639 C3669 0.950 . S
C3640 H3622 0.951 . S
C3640 C3641 1.366 . S
C3640 C3642 1.388 . S
C3641 C3640 1.366 . S
C3641 C3645 1.385 . S
C3642 H3623 0.951 . S
C3642 C3640 1.388 . S
C3642 C3643 1.366 . S
C3643 C3642 1.366 . S
C3643 C3644 1.414 . S
C3643 C3646 1.499 . S
C3644 H3624 0.950 . S
C3644 C3643 1.414 . S
C3644 C3645 1.374 . S
C3645 H3625 0.950 . S
C3645 C3641 1.385 . S
C3645 C3644 1.374 . S
C3646 C3643 1.499 . S
C3646 C3647 1.373 . S
C3646 C3648 1.389 . S
C3647 H3626 0.950 . S
C3647 C3646 1.373 . S
C3647 C3663 1.377 . S
C3648 C3646 1.389 . S
C3648 C3649 1.524 . S
C3648 C3662 1.377 . S
C3649 C3648 1.524 . S
C3649 C3650 1.397 . S
C3649 C3654 1.363 . S
C3650 H3627 0.950 . S
C3650 C3649 1.397 . S
C3650 C3651 1.334 . S
C3651 H3628 0.950 . S
C3651 C3650 1.334 . S
C3651 C3652 1.287 . S
C3652 C3651 1.287 . S
C3652 C3653 1.524 . S
C3652 H3671 0.913 . S
C3653 H3629 0.950 . S
C3653 C3652 1.524 . S
C3653 C3654 1.415 . S
C3654 H3630 0.950 . S
C3654 C3649 1.363 . S
C3654 C3653 1.415 . S
C3655 H3631 0.951 . S
C3655 C3656 1.366 . S
C3655 C3657 1.388 . S
C3656 C3655 1.366 . S
C3656 C3660 1.385 . S
C3657 H3632 0.951 . S
C3657 C3655 1.388 . S
C3657 C3658 1.366 . S
C3658 C3657 1.366 . S
C3658 C3659 1.414 . S
C3658 C3661 1.499 . S
C3659 H3633 0.950 . S
C3659 C3658 1.414 . S
C3659 C3660 1.374 . S
C3660 H3634 0.950 . S
C3660 C3656 1.385 . S
C3660 C3659 1.374 . S
C3661 C3658 1.499 . S
C3661 C3662 1.373 . S
C3661 C3663 1.389 . S
C3662 H3635 0.950 . S
C3662 C3648 1.377 . S
C3662 C3661 1.373 . S
C3663 C3647 1.377 . S
C3663 C3661 1.389 . S
C3663 C3664 1.524 . S
C3664 C3663 1.524 . S
C3664 C3665 1.397 . S
C3664 C3669 1.363 . S
C3665 H3636 0.950 . S
C3665 C3664 1.397 . S
C3665 C3666 1.334 . S
C3666 H3637 0.950 . S
C3666 C3665 1.334 . S
C3666 C3667 1.287 . S
C3667 C3666 1.287 . S
C3667 C3668 1.524 . S
C3667 H3670 0.999 . S
C3668 H3638 0.950 . S
C3668 C3667 1.524 . S
C3668 C3669 1.415 . S
C3669 H3639 0.950 . S
C3669 C3664 1.363 . S
C3669 C3668 1.415 . S
H3670 C3667 0.999 . S
H3671 C3652 0.913 . S
H3672 C3690 0.951 . S
H3673 C3692 0.951 . S
H3674 C3694 0.950 . S
H3675 C3695 0.950 . S
H3676 C3697 0.950 . S
H3677 C3700 0.950 . S
H3678 C3701 0.950 . S
H3679 C3703 0.950 . S
H3680 C3704 0.950 . S
H3681 C3705 0.951 . S
H3682 C3707 0.951 . S
H3683 C3709 0.950 . S
H3684 C3710 0.950 . S
H3685 C3712 0.950 . S
H3686 C3715 0.950 . S
H3687 C3716 0.950 . S
H3688 C3718 0.950 . S
H3689 C3719 0.950 . S
C3690 H3672 0.951 . S
C3690 C3691 1.366 . S
C3690 C3692 1.388 . S
C3691 C3690 1.366 . S
C3691 C3695 1.385 . S
C3692 H3673 0.951 . S
C3692 C3690 1.388 . S
C3692 C3693 1.366 . S
C3693 C3692 1.366 . S
C3693 C3694 1.414 . S
C3693 C3696 1.499 . S
C3694 H3674 0.950 . S
C3694 C3693 1.414 . S
C3694 C3695 1.374 . S
C3695 H3675 0.950 . S
C3695 C3691 1.385 . S
C3695 C3694 1.374 . S
C3696 C3693 1.499 . S
C3696 C3697 1.373 . S
C3696 C3698 1.389 . S
C3697 H3676 0.950 . S
C3697 C3696 1.373 . S
C3697 C3713 1.377 . S
C3698 C3696 1.389 . S
C3698 C3699 1.524 . S
C3698 C3712 1.377 . S
C3699 C3698 1.524 . S
C3699 C3700 1.397 . S
C3699 C3704 1.363 . S
C3700 H3677 0.950 . S
C3700 C3699 1.397 . S
C3700 C3701 1.334 . S
C3701 H3678 0.950 . S
C3701 C3700 1.334 . S
C3701 C3702 1.287 . S
C3702 C3701 1.287 . S
C3702 C3703 1.524 . S
C3702 H3721 0.913 . S
C3703 H3679 0.950 . S
C3703 C3702 1.524 . S
C3703 C3704 1.415 . S
C3704 H3680 0.950 . S
C3704 C3699 1.363 . S
C3704 C3703 1.415 . S
C3705 H3681 0.951 . S
C3705 C3706 1.366 . S
C3705 C3707 1.388 . S
C3706 C3705 1.366 . S
C3706 C3710 1.385 . S
C3707 H3682 0.951 . S
C3707 C3705 1.388 . S
C3707 C3708 1.366 . S
C3708 C3707 1.366 . S
C3708 C3709 1.414 . S
C3708 C3711 1.499 . S
C3709 H3683 0.950 . S
C3709 C3708 1.414 . S
C3709 C3710 1.374 . S
C3710 H3684 0.950 . S
C3710 C3706 1.385 . S
C3710 C3709 1.374 . S
C3711 C3708 1.499 . S
C3711 C3712 1.373 . S
C3711 C3713 1.389 . S
C3712 H3685 0.950 . S
C3712 C3698 1.377 . S
C3712 C3711 1.373 . S
C3713 C3697 1.377 . S
C3713 C3711 1.389 . S
C3713 C3714 1.524 . S
C3714 C3713 1.524 . S
C3714 C3715 1.397 . S
C3714 C3719 1.363 . S
C3715 H3686 0.950 . S
C3715 C3714 1.397 . S
C3715 C3716 1.334 . S
C3716 H3687 0.950 . S
C3716 C3715 1.334 . S
C3716 C3717 1.287 . S
C3717 C3716 1.287 . S
C3717 C3718 1.524 . S
C3717 H3720 0.999 . S
C3718 H3688 0.950 . S
C3718 C3717 1.524 . S
C3718 C3719 1.415 . S
C3719 H3689 0.950 . S
C3719 C3714 1.363 . S
C3719 C3718 1.415 . S
H3720 C3717 0.999 . S
H3721 C3702 0.913 . S
H3722 C3740 0.951 . S
H3723 C3742 0.951 . S
H3724 C3744 0.950 . S
H3725 C3745 0.950 . S
H3726 C3747 0.950 . S
H3727 C3750 0.950 . S
H3728 C3751 0.950 . S
H3729 C3753 0.950 . S
H3730 C3754 0.950 . S
H3731 C3755 0.951 . S
H3732 C3757 0.951 . S
H3733 C3759 0.950 . S
H3734 C3760 0.950 . S
H3735 C3762 0.950 . S
H3736 C3765 0.950 . S
H3737 C3766 0.950 . S
H3738 C3768 0.950 . S
H3739 C3769 0.950 . S
C3740 H3722 0.951 . S
C3740 C3741 1.366 . S
C3740 C3742 1.388 . S
C3741 C3740 1.366 . S
C3741 C3745 1.385 . S
C3742 H3723 0.951 . S
C3742 C3740 1.388 . S
C3742 C3743 1.366 . S
C3743 C3742 1.366 . S
C3743 C3744 1.414 . S
C3743 C3746 1.499 . S
C3744 H3724 0.950 . S
C3744 C3743 1.414 . S
C3744 C3745 1.374 . S
C3745 H3725 0.950 . S
C3745 C3741 1.385 . S
C3745 C3744 1.374 . S
C3746 C3743 1.499 . S
C3746 C3747 1.373 . S
C3746 C3748 1.389 . S
C3747 H3726 0.950 . S
C3747 C3746 1.373 . S
C3747 C3763 1.377 . S
C3748 C3746 1.389 . S
C3748 C3749 1.524 . S
C3748 C3762 1.377 . S
C3749 C3748 1.524 . S
C3749 C3750 1.397 . S
C3749 C3754 1.363 . S
C3750 H3727 0.950 . S
C3750 C3749 1.397 . S
C3750 C3751 1.334 . S
C3751 H3728 0.950 . S
C3751 C3750 1.334 . S
C3751 C3752 1.287 . S
C3752 C3751 1.287 . S
C3752 C3753 1.524 . S
C3752 H3771 0.913 . S
C3753 H3729 0.950 . S
C3753 C3752 1.524 . S
C3753 C3754 1.415 . S
C3754 H3730 0.950 . S
C3754 C3749 1.363 . S
C3754 C3753 1.415 . S
C3755 H3731 0.951 . S
C3755 C3756 1.366 . S
C3755 C3757 1.388 . S
C3756 C3755 1.366 . S
C3756 C3760 1.385 . S
C3757 H3732 0.951 . S
C3757 C3755 1.388 . S
C3757 C3758 1.366 . S
C3758 C3757 1.366 . S
C3758 C3759 1.414 . S
C3758 C3761 1.499 . S
C3759 H3733 0.950 . S
C3759 C3758 1.414 . S
C3759 C3760 1.374 . S
C3760 H3734 0.950 . S
C3760 C3756 1.385 . S
C3760 C3759 1.374 . S
C3761 C3758 1.499 . S
C3761 C3762 1.373 . S
C3761 C3763 1.389 . S
C3762 H3735 0.950 . S
C3762 C3748 1.377 . S
C3762 C3761 1.373 . S
C3763 C3747 1.377 . S
C3763 C3761 1.389 . S
C3763 C3764 1.524 . S
C3764 C3763 1.524 . S
C3764 C3765 1.397 . S
C3764 C3769 1.363 . S
C3765 H3736 0.950 . S
C3765 C3764 1.397 . S
C3765 C3766 1.334 . S
C3766 H3737 0.950 . S
C3766 C3765 1.334 . S
C3766 C3767 1.287 . S
C3767 C3766 1.287 . S
C3767 C3768 1.524 . S
C3767 H3770 0.999 . S
C3768 H3738 0.950 . S
C3768 C3767 1.524 . S
C3768 C3769 1.415 . S
C3769 H3739 0.950 . S
C3769 C3764 1.363 . S
C3769 C3768 1.415 . S
H3770 C3767 0.999 . S
H3771 C3752 0.913 . S
H3772 C3790 0.951 . S
H3773 C3792 0.951 . S
H3774 C3794 0.950 . S
H3775 C3795 0.950 . S
H3776 C3797 0.950 . S
H3777 C3800 0.950 . S
H3778 C3801 0.950 . S
H3779 C3803 0.950 . S
H3780 C3804 0.950 . S
H3781 C3805 0.951 . S
H3782 C3807 0.951 . S
H3783 C3809 0.950 . S
H3784 C3810 0.950 . S
H3785 C3812 0.950 . S
H3786 C3815 0.950 . S
H3787 C3816 0.950 . S
H3788 C3818 0.950 . S
H3789 C3819 0.950 . S
C3790 H3772 0.951 . S
C3790 C3791 1.366 . S
C3790 C3792 1.388 . S
C3791 C3790 1.366 . S
C3791 C3795 1.385 . S
C3792 H3773 0.951 . S
C3792 C3790 1.388 . S
C3792 C3793 1.366 . S
C3793 C3792 1.366 . S
C3793 C3794 1.414 . S
C3793 C3796 1.499 . S
C3794 H3774 0.950 . S
C3794 C3793 1.414 . S
C3794 C3795 1.374 . S
C3795 H3775 0.950 . S
C3795 C3791 1.385 . S
C3795 C3794 1.374 . S
C3796 C3793 1.499 . S
C3796 C3797 1.373 . S
C3796 C3798 1.389 . S
C3797 H3776 0.950 . S
C3797 C3796 1.373 . S
C3797 C3813 1.377 . S
C3798 C3796 1.389 . S
C3798 C3799 1.524 . S
C3798 C3812 1.377 . S
C3799 C3798 1.524 . S
C3799 C3800 1.397 . S
C3799 C3804 1.363 . S
C3800 H3777 0.950 . S
C3800 C3799 1.397 . S
C3800 C3801 1.334 . S
C3801 H3778 0.950 . S
C3801 C3800 1.334 . S
C3801 C3802 1.287 . S
C3802 C3801 1.287 . S
C3802 C3803 1.524 . S
C3802 H3821 0.913 . S
C3803 H3779 0.950 . S
C3803 C3802 1.524 . S
C3803 C3804 1.415 . S
C3804 H3780 0.950 . S
C3804 C3799 1.363 . S
C3804 C3803 1.415 . S
C3805 H3781 0.951 . S
C3805 C3806 1.366 . S
C3805 C3807 1.388 . S
C3806 C3805 1.366 . S
C3806 C3810 1.385 . S
C3807 H3782 0.951 . S
C3807 C3805 1.388 . S
C3807 C3808 1.366 . S
C3808 C3807 1.366 . S
C3808 C3809 1.414 . S
C3808 C3811 1.499 . S
C3809 H3783 0.950 . S
C3809 C3808 1.414 . S
C3809 C3810 1.374 . S
C3810 H3784 0.950 . S
C3810 C3806 1.385 . S
C3810 C3809 1.374 . S
C3811 C3808 1.499 . S
C3811 C3812 1.373 . S
C3811 C3813 1.389 . S
C3812 H3785 0.950 . S
C3812 C3798 1.377 . S
C3812 C3811 1.373 . S
C3813 C3797 1.377 . S
C3813 C3811 1.389 . S
C3813 C3814 1.524 . S
C3814 C3813 1.524 . S
C3814 C3815 1.397 . S
C3814 C3819 1.363 . S
C3815 H3786 0.950 . S
C3815 C3814 1.397 . S
C3815 C3816 1.334 . S
C3816 H3787 0.950 . S
C3816 C3815 1.334 . S
C3816 C3817 1.287 . S
C3817 C3816 1.287 . S
C3817 C3818 1.524 . S
C3817 H3820 0.999 . S
C3818 H3788 0.950 . S
C3818 C3817 1.524 . S
C3818 C3819 1.415 . S
C3819 H3789 0.950 . S
C3819 C3814 1.363 . S
C3819 C3818 1.415 . S
H3820 C3817 0.999 . S
H3821 C3802 0.913 . S
H3822 C3840 0.951 . S
H3823 C3842 0.951 . S
H3824 C3844 0.950 . S
H3825 C3845 0.950 . S
H3826 C3847 0.950 . S
H3827 C3850 0.950 . S
H3828 C3851 0.950 . S
H3829 C3853 0.950 . S
H3830 C3854 0.950 . S
H3831 C3855 0.951 . S
H3832 C3857 0.951 . S
H3833 C3859 0.950 . S
H3834 C3860 0.950 . S
H3835 C3862 0.950 . S
H3836 C3865 0.950 . S
H3837 C3866 0.969 . S
H3838 C3868 0.915 1_556 S
H3839 C3869 0.950 . S
C3840 H3822 0.951 . S
C3840 C3841 1.366 . S
C3840 C3842 1.388 . S
C3841 C3840 1.366 . S
C3841 C3845 1.385 . S
C3842 H3823 0.951 . S
C3842 C3840 1.388 . S
C3842 C3843 1.366 . S
C3843 C3842 1.366 . S
C3843 C3844 1.414 . S
C3843 C3846 1.499 . S
C3844 H3824 0.950 . S
C3844 C3843 1.414 . S
C3844 C3845 1.374 . S
C3845 H3825 0.950 . S
C3845 C3841 1.385 . S
C3845 C3844 1.374 . S
C3846 C3843 1.499 . S
C3846 C3847 1.373 . S
C3846 C3848 1.389 . S
C3847 H3826 0.950 . S
C3847 C3846 1.373 . S
C3847 C3863 1.377 . S
C3848 C3846 1.389 . S
C3848 C3849 1.524 . S
C3848 C3862 1.377 . S
C3849 C3848 1.524 . S
C3849 C3850 1.397 . S
C3849 C3854 1.363 . S
C3850 H3827 0.950 . S
C3850 C3849 1.397 . S
C3850 C3851 1.334 . S
C3851 H3828 0.950 . S
C3851 C3850 1.334 . S
C3851 C3852 1.287 . S
C3852 C3851 1.287 . S
C3852 C3853 1.524 . S
C3852 H3871 0.913 . S
C3853 H3829 0.950 . S
C3853 C3852 1.524 . S
C3853 C3854 1.415 . S
C3854 H3830 0.950 . S
C3854 C3849 1.363 . S
C3854 C3853 1.415 . S
C3855 H3831 0.951 . S
C3855 C3856 1.366 . S
C3855 C3857 1.388 . S
C3856 C3855 1.366 . S
C3856 C3860 1.385 . S
C3857 H3832 0.951 . S
C3857 C3855 1.388 . S
C3857 C3858 1.366 . S
C3858 C3857 1.366 . S
C3858 C3859 1.414 . S
C3858 C3861 1.499 . S
C3859 H3833 0.950 . S
C3859 C3858 1.414 . S
C3859 C3860 1.374 . S
C3860 H3834 0.950 . S
C3860 C3856 1.385 . S
C3860 C3859 1.374 . S
C3861 C3858 1.499 . S
C3861 C3862 1.373 . S
C3861 C3863 1.389 . S
C3862 H3835 0.950 . S
C3862 C3848 1.377 . S
C3862 C3861 1.373 . S
C3863 C3847 1.377 . S
C3863 C3861 1.389 . S
C3863 C3864 1.524 . S
C3864 C3863 1.524 . S
C3864 C3865 1.397 . S
C3864 C3869 1.363 . S
C3865 H3836 0.950 . S
C3865 C3864 1.397 . S
C3865 C3866 1.334 . S
C3866 H3837 0.969 . S
C3866 C3865 1.334 . S
C3866 C3867 1.287 1_554 S
C3867 C3866 1.287 1_556 S
C3867 C3868 1.510 1_556 S
C3867 H3870 0.999 . S
C3868 H3838 0.915 1_554 S
C3868 C3867 1.510 1_554 S
C3868 C3869 1.470 . S
C3869 H3839 0.950 . S
C3869 C3864 1.363 . S
C3869 C3868 1.470 . S
H3870 C3867 0.999 . S
H3871 C3852 0.913 . S
H3872 C3890 0.951 . S
H3873 C3892 0.951 . S
H3874 C3894 0.950 . S
H3875 C3895 0.950 . S
H3876 C3897 0.950 . S
H3877 C3900 0.950 . S
H3878 C3901 0.950 . S
H3879 C3903 0.950 . S
H3880 C3904 0.950 . S
H3881 C3905 0.951 . S
H3882 C3907 0.951 . S
H3883 C3909 0.950 . S
H3884 C3910 0.950 . S
H3885 C3912 0.950 . S
H3886 C3915 0.950 . S
H3887 C3916 0.950 . S
H3888 C3918 0.950 . S
H3889 C3919 0.950 . S
C3890 H3872 0.951 . S
C3890 C3891 1.366 . S
C3890 C3892 1.388 . S
C3891 C3890 1.366 . S
C3891 C3895 1.385 . S
C3892 H3873 0.951 . S
C3892 C3890 1.388 . S
C3892 C3893 1.366 . S
C3893 C3892 1.366 . S
C3893 C3894 1.414 . S
C3893 C3896 1.499 . S
C3894 H3874 0.950 . S
C3894 C3893 1.414 . S
C3894 C3895 1.374 . S
C3895 H3875 0.950 . S
C3895 C3891 1.385 . S
C3895 C3894 1.374 . S
C3896 C3893 1.499 . S
C3896 C3897 1.373 . S
C3896 C3898 1.389 . S
C3897 H3876 0.950 . S
C3897 C3896 1.373 . S
C3897 C3913 1.377 . S
C3898 C3896 1.389 . S
C3898 C3899 1.524 . S
C3898 C3912 1.377 . S
C3899 C3898 1.524 . S
C3899 C3900 1.397 . S
C3899 C3904 1.363 . S
C3900 H3877 0.950 . S
C3900 C3899 1.397 . S
C3900 C3901 1.334 . S
C3901 H3878 0.950 . S
C3901 C3900 1.334 . S
C3901 C3902 1.287 . S
C3902 C3901 1.287 . S
C3902 C3903 1.524 . S
C3902 H3921 0.913 . S
C3903 H3879 0.950 . S
C3903 C3902 1.524 . S
C3903 C3904 1.415 . S
C3904 H3880 0.950 . S
C3904 C3899 1.363 . S
C3904 C3903 1.415 . S
C3905 H3881 0.951 . S
C3905 C3906 1.366 . S
C3905 C3907 1.388 . S
C3906 C3905 1.366 . S
C3906 C3910 1.385 . S
C3907 H3882 0.951 . S
C3907 C3905 1.388 . S
C3907 C3908 1.366 . S
C3908 C3907 1.366 . S
C3908 C3909 1.414 . S
C3908 C3911 1.499 . S
C3909 H3883 0.950 . S
C3909 C3908 1.414 . S
C3909 C3910 1.374 . S
C3910 H3884 0.950 . S
C3910 C3906 1.385 . S
C3910 C3909 1.374 . S
C3911 C3908 1.499 . S
C3911 C3912 1.373 . S
C3911 C3913 1.389 . S
C3912 H3885 0.950 . S
C3912 C3898 1.377 . S
C3912 C3911 1.373 . S
C3913 C3897 1.377 . S
C3913 C3911 1.389 . S
C3913 C3914 1.524 . S
C3914 C3913 1.524 . S
C3914 C3915 1.397 . S
C3914 C3919 1.363 . S
C3915 H3886 0.950 . S
C3915 C3914 1.397 . S
C3915 C3916 1.334 . S
C3916 H3887 0.950 . S
C3916 C3915 1.334 . S
C3916 C3917 1.287 . S
C3917 C3916 1.287 . S
C3917 C3918 1.524 . S
C3917 H3920 0.999 . S
C3918 H3888 0.950 . S
C3918 C3917 1.524 . S
C3918 C3919 1.415 . S
C3919 H3889 0.950 . S
C3919 C3914 1.363 . S
C3919 C3918 1.415 . S
H3920 C3917 0.999 . S
H3921 C3902 0.913 . S
H3922 C3940 0.951 . S
H3923 C3942 0.951 . S
H3924 C3944 0.950 . S
H3925 C3945 0.950 . S
H3926 C3947 0.950 . S
H3927 C3950 0.950 . S
H3928 C3951 0.950 . S
H3929 C3953 0.950 . S
H3930 C3954 0.950 . S
H3931 C3955 0.951 . S
H3932 C3957 0.951 . S
H3933 C3959 0.950 . S
H3934 C3960 0.950 . S
H3935 C3962 0.950 . S
H3936 C3965 0.950 . S
H3937 C3966 0.950 . S
H3938 C3968 0.950 . S
H3939 C3969 0.950 . S
C3940 H3922 0.951 . S
C3940 C3941 1.366 . S
C3940 C3942 1.388 . S
C3941 C3940 1.366 . S
C3941 C3945 1.385 . S
C3942 H3923 0.951 . S
C3942 C3940 1.388 . S
C3942 C3943 1.366 . S
C3943 C3942 1.366 . S
C3943 C3944 1.414 . S
C3943 C3946 1.499 . S
C3944 H3924 0.950 . S
C3944 C3943 1.414 . S
C3944 C3945 1.374 . S
C3945 H3925 0.950 . S
C3945 C3941 1.385 . S
C3945 C3944 1.374 . S
C3946 C3943 1.499 . S
C3946 C3947 1.373 . S
C3946 C3948 1.389 . S
C3947 H3926 0.950 . S
C3947 C3946 1.373 . S
C3947 C3963 1.377 . S
C3948 C3946 1.389 . S
C3948 C3949 1.524 . S
C3948 C3962 1.377 . S
C3949 C3948 1.524 . S
C3949 C3950 1.397 . S
C3949 C3954 1.363 . S
C3950 H3927 0.950 . S
C3950 C3949 1.397 . S
C3950 C3951 1.334 . S
C3951 H3928 0.950 . S
C3951 C3950 1.334 . S
C3951 C3952 1.287 . S
C3952 C3951 1.287 . S
C3952 C3953 1.524 . S
C3952 H3971 0.913 . S
C3953 H3929 0.950 . S
C3953 C3952 1.524 . S
C3953 C3954 1.415 . S
C3954 H3930 0.950 . S
C3954 C3949 1.363 . S
C3954 C3953 1.415 . S
C3955 H3931 0.951 . S
C3955 C3956 1.366 . S
C3955 C3957 1.388 . S
C3956 C3955 1.366 . S
C3956 C3960 1.385 . S
C3957 H3932 0.951 . S
C3957 C3955 1.388 . S
C3957 C3958 1.366 . S
C3958 C3957 1.366 . S
C3958 C3959 1.414 . S
C3958 C3961 1.499 . S
C3959 H3933 0.950 . S
C3959 C3958 1.414 . S
C3959 C3960 1.374 . S
C3960 H3934 0.950 . S
C3960 C3956 1.385 . S
C3960 C3959 1.374 . S
C3961 C3958 1.499 . S
C3961 C3962 1.373 . S
C3961 C3963 1.389 . S
C3962 H3935 0.950 . S
C3962 C3948 1.377 . S
C3962 C3961 1.373 . S
C3963 C3947 1.377 . S
C3963 C3961 1.389 . S
C3963 C3964 1.524 . S
C3964 C3963 1.524 . S
C3964 C3965 1.397 . S
C3964 C3969 1.363 . S
C3965 H3936 0.950 . S
C3965 C3964 1.397 . S
C3965 C3966 1.334 . S
C3966 H3937 0.950 . S
C3966 C3965 1.334 . S
C3966 C3967 1.287 . S
C3967 C3966 1.287 . S
C3967 C3968 1.524 . S
C3967 H3970 0.999 . S
C3968 H3938 0.950 . S
C3968 C3967 1.524 . S
C3968 C3969 1.415 . S
C3969 H3939 0.950 . S
C3969 C3964 1.363 . S
C3969 C3968 1.415 . S
H3970 C3967 0.999 . S
H3971 C3952 0.913 . S
H3972 C3990 0.951 . S
H3973 C3992 0.951 . S
H3974 C3994 0.950 . S
H3975 C3995 0.950 . S
H3976 C3997 0.950 . S
H3977 C4000 0.950 . S
H3978 C4001 0.950 . S
H3979 C4003 0.950 . S
H3980 C4004 0.950 . S
H3981 C4005 0.951 . S
H3982 C4007 0.951 . S
H3983 C4009 0.950 . S
H3984 C4010 0.950 . S
H3985 C4012 0.950 . S
H3986 C4015 0.950 . S
H3987 C4016 0.950 . S
H3988 C4018 0.950 . S
H3989 C4019 0.950 . S
C3990 H3972 0.951 . S
C3990 C3991 1.366 . S
C3990 C3992 1.388 . S
C3991 C3990 1.366 . S
C3991 C3995 1.385 . S
C3992 H3973 0.951 . S
C3992 C3990 1.388 . S
C3992 C3993 1.366 . S
C3993 C3992 1.366 . S
C3993 C3994 1.414 . S
C3993 C3996 1.499 . S
C3994 H3974 0.950 . S
C3994 C3993 1.414 . S
C3994 C3995 1.374 . S
C3995 H3975 0.950 . S
C3995 C3991 1.385 . S
C3995 C3994 1.374 . S
C3996 C3993 1.499 . S
C3996 C3997 1.373 . S
C3996 C3998 1.389 . S
C3997 H3976 0.950 . S
C3997 C3996 1.373 . S
C3997 C4013 1.377 . S
C3998 C3996 1.389 . S
C3998 C3999 1.524 . S
C3998 C4012 1.377 . S
C3999 C3998 1.524 . S
C3999 C4000 1.397 . S
C3999 C4004 1.363 . S
C4000 H3977 0.950 . S
C4000 C3999 1.397 . S
C4000 C4001 1.334 . S
C4001 H3978 0.950 . S
C4001 C4000 1.334 . S
C4001 C4002 1.287 . S
C4002 C4001 1.287 . S
C4002 C4003 1.524 . S
C4002 H4021 0.913 . S
C4003 H3979 0.950 . S
C4003 C4002 1.524 . S
C4003 C4004 1.415 . S
C4004 H3980 0.950 . S
C4004 C3999 1.363 . S
C4004 C4003 1.415 . S
C4005 H3981 0.951 . S
C4005 C4006 1.366 . S
C4005 C4007 1.388 . S
C4006 C4005 1.366 . S
C4006 C4010 1.385 . S
C4007 H3982 0.951 . S
C4007 C4005 1.388 . S
C4007 C4008 1.366 . S
C4008 C4007 1.366 . S
C4008 C4009 1.414 . S
C4008 C4011 1.499 . S
C4009 H3983 0.950 . S
C4009 C4008 1.414 . S
C4009 C4010 1.374 . S
C4010 H3984 0.950 . S
C4010 C4006 1.385 . S
C4010 C4009 1.374 . S
C4011 C4008 1.499 . S
C4011 C4012 1.373 . S
C4011 C4013 1.389 . S
C4012 H3985 0.950 . S
C4012 C3998 1.377 . S
C4012 C4011 1.373 . S
C4013 C3997 1.377 . S
C4013 C4011 1.389 . S
C4013 C4014 1.524 . S
C4014 C4013 1.524 . S
C4014 C4015 1.397 . S
C4014 C4019 1.363 . S
C4015 H3986 0.950 . S
C4015 C4014 1.397 . S
C4015 C4016 1.334 . S
C4016 H3987 0.950 . S
C4016 C4015 1.334 . S
C4016 C4017 1.287 . S
C4017 C4016 1.287 . S
C4017 C4018 1.524 . S
C4017 H4020 0.999 . S
C4018 H3988 0.950 . S
C4018 C4017 1.524 . S
C4018 C4019 1.415 . S
C4019 H3989 0.950 . S
C4019 C4014 1.363 . S
C4019 C4018 1.415 . S
H4020 C4017 0.999 . S
H4021 C4002 0.913 . S
H4022 C4040 0.951 . S
H4023 C4042 0.951 . S
H4024 C4044 0.950 . S
H4025 C4045 0.950 . S
H4026 C4047 0.950 . S
H4027 C4050 0.950 . S
H4028 C4051 0.950 . S
H4029 C4053 0.950 . S
H4030 C4054 0.950 . S
H4031 C4055 0.951 . S
H4032 C4057 0.951 . S
H4033 C4059 0.950 . S
H4034 C4060 0.950 . S
H4035 C4062 0.950 . S
H4036 C4065 0.950 . S
H4037 C4066 0.950 . S
H4038 C4068 0.950 . S
H4039 C4069 0.950 . S
C4040 H4022 0.951 . S
C4040 C4041 1.366 . S
C4040 C4042 1.388 . S
C4041 C4040 1.366 . S
C4041 C4045 1.385 . S
C4042 H4023 0.951 . S
C4042 C4040 1.388 . S
C4042 C4043 1.366 . S
C4043 C4042 1.366 . S
C4043 C4044 1.414 . S
C4043 C4046 1.499 . S
C4044 H4024 0.950 . S
C4044 C4043 1.414 . S
C4044 C4045 1.374 . S
C4045 H4025 0.950 . S
C4045 C4041 1.385 . S
C4045 C4044 1.374 . S
C4046 C4043 1.499 . S
C4046 C4047 1.373 . S
C4046 C4048 1.389 . S
C4047 H4026 0.950 . S
C4047 C4046 1.373 . S
C4047 C4063 1.377 . S
C4048 C4046 1.389 . S
C4048 C4049 1.524 . S
C4048 C4062 1.377 . S
C4049 C4048 1.524 . S
C4049 C4050 1.397 . S
C4049 C4054 1.363 . S
C4050 H4027 0.950 . S
C4050 C4049 1.397 . S
C4050 C4051 1.334 . S
C4051 H4028 0.950 . S
C4051 C4050 1.334 . S
C4051 C4052 1.287 . S
C4052 C4051 1.287 . S
C4052 C4053 1.524 . S
C4052 H4071 0.913 . S
C4053 H4029 0.950 . S
C4053 C4052 1.524 . S
C4053 C4054 1.415 . S
C4054 H4030 0.950 . S
C4054 C4049 1.363 . S
C4054 C4053 1.415 . S
C4055 H4031 0.951 . S
C4055 C4056 1.366 . S
C4055 C4057 1.388 . S
C4056 C4055 1.366 . S
C4056 C4060 1.385 . S
C4057 H4032 0.951 . S
C4057 C4055 1.388 . S
C4057 C4058 1.366 . S
C4058 C4057 1.366 . S
C4058 C4059 1.414 . S
C4058 C4061 1.499 . S
C4059 H4033 0.950 . S
C4059 C4058 1.414 . S
C4059 C4060 1.374 . S
C4060 H4034 0.950 . S
C4060 C4056 1.385 . S
C4060 C4059 1.374 . S
C4061 C4058 1.499 . S
C4061 C4062 1.373 . S
C4061 C4063 1.389 . S
C4062 H4035 0.950 . S
C4062 C4048 1.377 . S
C4062 C4061 1.373 . S
C4063 C4047 1.377 . S
C4063 C4061 1.389 . S
C4063 C4064 1.524 . S
C4064 C4063 1.524 . S
C4064 C4065 1.397 . S
C4064 C4069 1.363 . S
C4065 H4036 0.950 . S
C4065 C4064 1.397 . S
C4065 C4066 1.334 . S
C4066 H4037 0.950 . S
C4066 C4065 1.334 . S
C4066 C4067 1.287 . S
C4067 C4066 1.287 . S
C4067 C4068 1.524 . S
C4067 H4070 0.999 . S
C4068 H4038 0.950 . S
C4068 C4067 1.524 . S
C4068 C4069 1.415 . S
C4069 H4039 0.950 . S
C4069 C4064 1.363 . S
C4069 C4068 1.415 . S
H4070 C4067 0.999 . S
H4071 C4052 0.913 . S
H4072 C4090 0.951 . S
H4073 C4092 0.951 . S
H4074 C4094 0.950 . S
H4075 C4095 0.950 . S
H4076 C4097 0.950 . S
H4077 C4100 0.950 . S
H4078 C4101 0.950 . S
H4079 C4103 0.950 . S
H4080 C4104 0.950 . S
H4081 C4105 0.951 . S
H4082 C4107 0.951 . S
H4083 C4109 0.950 . S
H4084 C4110 0.950 . S
H4085 C4112 0.950 . S
H4086 C4115 0.950 . S
H4087 C4116 0.950 . S
H4088 C4118 0.950 . S
H4089 C4119 0.950 . S
C4090 H4072 0.951 . S
C4090 C4091 1.366 . S
C4090 C4092 1.388 . S
C4091 C4090 1.366 . S
C4091 C4095 1.385 . S
C4092 H4073 0.951 . S
C4092 C4090 1.388 . S
C4092 C4093 1.366 . S
C4093 C4092 1.366 . S
C4093 C4094 1.414 . S
C4093 C4096 1.499 . S
C4094 H4074 0.950 . S
C4094 C4093 1.414 . S
C4094 C4095 1.374 . S
C4095 H4075 0.950 . S
C4095 C4091 1.385 . S
C4095 C4094 1.374 . S
C4096 C4093 1.499 . S
C4096 C4097 1.373 . S
C4096 C4098 1.389 . S
C4097 H4076 0.950 . S
C4097 C4096 1.373 . S
C4097 C4113 1.377 . S
C4098 C4096 1.389 . S
C4098 C4099 1.524 . S
C4098 C4112 1.377 . S
C4099 C4098 1.524 . S
C4099 C4100 1.397 . S
C4099 C4104 1.363 . S
C4100 H4077 0.950 . S
C4100 C4099 1.397 . S
C4100 C4101 1.334 . S
C4101 H4078 0.950 . S
C4101 C4100 1.334 . S
C4101 C4102 1.287 . S
C4102 C4101 1.287 . S
C4102 C4103 1.524 . S
C4102 H4121 0.913 . S
C4103 H4079 0.950 . S
C4103 C4102 1.524 . S
C4103 C4104 1.415 . S
C4104 H4080 0.950 . S
C4104 C4099 1.363 . S
C4104 C4103 1.415 . S
C4105 H4081 0.951 . S
C4105 C4106 1.366 . S
C4105 C4107 1.388 . S
C4106 C4105 1.366 . S
C4106 C4110 1.385 . S
C4107 H4082 0.951 . S
C4107 C4105 1.388 . S
C4107 C4108 1.366 . S
C4108 C4107 1.366 . S
C4108 C4109 1.414 . S
C4108 C4111 1.499 . S
C4109 H4083 0.950 . S
C4109 C4108 1.414 . S
C4109 C4110 1.374 . S
C4110 H4084 0.950 . S
C4110 C4106 1.385 . S
C4110 C4109 1.374 . S
C4111 C4108 1.499 . S
C4111 C4112 1.373 . S
C4111 C4113 1.389 . S
C4112 H4085 0.950 . S
C4112 C4098 1.377 . S
C4112 C4111 1.373 . S
C4113 C4097 1.377 . S
C4113 C4111 1.389 . S
C4113 C4114 1.524 . S
C4114 C4113 1.524 . S
C4114 C4115 1.397 . S
C4114 C4119 1.363 . S
C4115 H4086 0.950 . S
C4115 C4114 1.397 . S
C4115 C4116 1.334 . S
C4116 H4087 0.950 . S
C4116 C4115 1.334 . S
C4116 C4117 1.287 . S
C4117 C4116 1.287 . S
C4117 C4118 1.524 . S
C4117 H4120 0.999 . S
C4118 H4088 0.950 . S
C4118 C4117 1.524 . S
C4118 C4119 1.415 . S
C4119 H4089 0.950 . S
C4119 C4114 1.363 . S
C4119 C4118 1.415 . S
H4120 C4117 0.999 . S
H4121 C4102 0.913 . S
H4122 C4140 0.951 . S
H4123 C4142 0.951 . S
H4124 C4144 0.950 . S
H4125 C4145 0.950 . S
H4126 C4147 0.950 . S
H4127 C4150 0.950 . S
H4128 C4151 0.950 . S
H4129 C4153 0.950 . S
H4130 C4154 0.950 . S
H4131 C4155 0.951 . S
H4132 C4157 0.951 . S
H4133 C4159 0.950 . S
H4134 C4160 0.950 . S
H4135 C4162 0.950 . S
H4136 C4165 0.950 . S
H4137 C4166 0.950 . S
H4138 C4168 0.950 . S
H4139 C4169 0.950 . S
C4140 H4122 0.951 . S
C4140 C4141 1.366 . S
C4140 C4142 1.388 . S
C4141 C4140 1.366 . S
C4141 C4145 1.385 . S
C4142 H4123 0.951 . S
C4142 C4140 1.388 . S
C4142 C4143 1.366 . S
C4143 C4142 1.366 . S
C4143 C4144 1.414 . S
C4143 C4146 1.499 . S
C4144 H4124 0.950 . S
C4144 C4143 1.414 . S
C4144 C4145 1.374 . S
C4145 H4125 0.950 . S
C4145 C4141 1.385 . S
C4145 C4144 1.374 . S
C4146 C4143 1.499 . S
C4146 C4147 1.373 . S
C4146 C4148 1.389 . S
C4147 H4126 0.950 . S
C4147 C4146 1.373 . S
C4147 C4163 1.377 . S
C4148 C4146 1.389 . S
C4148 C4149 1.524 . S
C4148 C4162 1.377 . S
C4149 C4148 1.524 . S
C4149 C4150 1.397 . S
C4149 C4154 1.363 . S
C4150 H4127 0.950 . S
C4150 C4149 1.397 . S
C4150 C4151 1.334 . S
C4151 H4128 0.950 . S
C4151 C4150 1.334 . S
C4151 C4152 1.287 . S
C4152 C4151 1.287 . S
C4152 C4153 1.524 . S
C4152 H4171 0.913 . S
C4153 H4129 0.950 . S
C4153 C4152 1.524 . S
C4153 C4154 1.415 . S
C4154 H4130 0.950 . S
C4154 C4149 1.363 . S
C4154 C4153 1.415 . S
C4155 H4131 0.951 . S
C4155 C4156 1.366 . S
C4155 C4157 1.388 . S
C4156 C4155 1.366 . S
C4156 C4160 1.385 . S
C4157 H4132 0.951 . S
C4157 C4155 1.388 . S
C4157 C4158 1.366 . S
C4158 C4157 1.366 . S
C4158 C4159 1.414 . S
C4158 C4161 1.499 . S
C4159 H4133 0.950 . S
C4159 C4158 1.414 . S
C4159 C4160 1.374 . S
C4160 H4134 0.950 . S
C4160 C4156 1.385 . S
C4160 C4159 1.374 . S
C4161 C4158 1.499 . S
C4161 C4162 1.373 . S
C4161 C4163 1.389 . S
C4162 H4135 0.950 . S
C4162 C4148 1.377 . S
C4162 C4161 1.373 . S
C4163 C4147 1.377 . S
C4163 C4161 1.389 . S
C4163 C4164 1.524 . S
C4164 C4163 1.524 . S
C4164 C4165 1.397 . S
C4164 C4169 1.363 . S
C4165 H4136 0.950 . S
C4165 C4164 1.397 . S
C4165 C4166 1.334 . S
C4166 H4137 0.950 . S
C4166 C4165 1.334 . S
C4166 C4167 1.287 . S
C4167 C4166 1.287 . S
C4167 C4168 1.524 . S
C4167 H4170 0.999 . S
C4168 H4138 0.950 . S
C4168 C4167 1.524 . S
C4168 C4169 1.415 . S
C4169 H4139 0.950 . S
C4169 C4164 1.363 . S
C4169 C4168 1.415 . S
H4170 C4167 0.999 . S
H4171 C4152 0.913 . S
H4172 C4190 0.951 . S
H4173 C4192 0.951 . S
H4174 C4194 0.950 . S
H4175 C4195 0.950 . S
H4176 C4197 0.950 . S
H4177 C4200 0.950 . S
H4178 C4201 0.950 . S
H4179 C4203 0.950 . S
H4180 C4204 0.950 . S
H4181 C4205 0.951 . S
H4182 C4207 0.951 . S
H4183 C4209 0.950 . S
H4184 C4210 0.950 . S
H4185 C4212 0.950 . S
H4186 C4215 0.950 . S
H4187 C4216 0.950 . S
H4188 C4218 0.950 . S
H4189 C4219 0.950 . S
C4190 H4172 0.951 . S
C4190 C4191 1.366 . S
C4190 C4192 1.388 . S
C4191 C4190 1.366 . S
C4191 C4195 1.385 . S
C4192 H4173 0.951 . S
C4192 C4190 1.388 . S
C4192 C4193 1.366 . S
C4193 C4192 1.366 . S
C4193 C4194 1.414 . S
C4193 C4196 1.499 . S
C4194 H4174 0.950 . S
C4194 C4193 1.414 . S
C4194 C4195 1.374 . S
C4195 H4175 0.950 . S
C4195 C4191 1.385 . S
C4195 C4194 1.374 . S
C4196 C4193 1.499 . S
C4196 C4197 1.373 . S
C4196 C4198 1.389 . S
C4197 H4176 0.950 . S
C4197 C4196 1.373 . S
C4197 C4213 1.377 . S
C4198 C4196 1.389 . S
C4198 C4199 1.524 . S
C4198 C4212 1.377 . S
C4199 C4198 1.524 . S
C4199 C4200 1.397 . S
C4199 C4204 1.363 . S
C4200 H4177 0.950 . S
C4200 C4199 1.397 . S
C4200 C4201 1.334 . S
C4201 H4178 0.950 . S
C4201 C4200 1.334 . S
C4201 C4202 1.287 . S
C4202 C4201 1.287 . S
C4202 C4203 1.524 . S
C4202 H4221 0.913 . S
C4203 H4179 0.950 . S
C4203 C4202 1.524 . S
C4203 C4204 1.415 . S
C4204 H4180 0.950 . S
C4204 C4199 1.363 . S
C4204 C4203 1.415 . S
C4205 H4181 0.951 . S
C4205 C4206 1.366 . S
C4205 C4207 1.388 . S
C4206 C4205 1.366 . S
C4206 C4210 1.385 . S
C4207 H4182 0.951 . S
C4207 C4205 1.388 . S
C4207 C4208 1.366 . S
C4208 C4207 1.366 . S
C4208 C4209 1.414 . S
C4208 C4211 1.499 . S
C4209 H4183 0.950 . S
C4209 C4208 1.414 . S
C4209 C4210 1.374 . S
C4210 H4184 0.950 . S
C4210 C4206 1.385 . S
C4210 C4209 1.374 . S
C4211 C4208 1.499 . S
C4211 C4212 1.373 . S
C4211 C4213 1.389 . S
C4212 H4185 0.950 . S
C4212 C4198 1.377 . S
C4212 C4211 1.373 . S
C4213 C4197 1.377 . S
C4213 C4211 1.389 . S
C4213 C4214 1.524 . S
C4214 C4213 1.524 . S
C4214 C4215 1.397 . S
C4214 C4219 1.363 . S
C4215 H4186 0.950 . S
C4215 C4214 1.397 . S
C4215 C4216 1.334 . S
C4216 H4187 0.950 . S
C4216 C4215 1.334 . S
C4216 C4217 1.287 . S
C4217 C4216 1.287 . S
C4217 C4218 1.524 . S
C4217 H4220 0.999 . S
C4218 H4188 0.950 . S
C4218 C4217 1.524 . S
C4218 C4219 1.415 . S
C4219 H4189 0.950 . S
C4219 C4214 1.363 . S
C4219 C4218 1.415 . S
H4220 C4217 0.999 . S
H4221 C4202 0.913 . S
H4222 C4240 0.951 . S
H4223 C4242 0.951 . S
H4224 C4244 0.950 . S
H4225 C4245 0.950 . S
H4226 C4247 0.950 . S
H4227 C4250 0.950 . S
H4228 C4251 0.950 . S
H4229 C4253 0.950 . S
H4230 C4254 0.950 . S
H4231 C4255 0.951 . S
H4232 C4257 0.951 . S
H4233 C4259 0.950 . S
H4234 C4260 0.950 . S
H4235 C4262 0.950 . S
H4236 C4265 0.950 . S
H4237 C4266 0.950 . S
H4238 C4268 0.950 . S
H4239 C4269 0.950 . S
C4240 H4222 0.951 . S
C4240 C4241 1.366 . S
C4240 C4242 1.388 . S
C4241 C4240 1.366 . S
C4241 C4245 1.385 . S
C4242 H4223 0.951 . S
C4242 C4240 1.388 . S
C4242 C4243 1.366 . S
C4243 C4242 1.366 . S
C4243 C4244 1.414 . S
C4243 C4246 1.499 . S
C4244 H4224 0.950 . S
C4244 C4243 1.414 . S
C4244 C4245 1.374 . S
C4245 H4225 0.950 . S
C4245 C4241 1.385 . S
C4245 C4244 1.374 . S
C4246 C4243 1.499 . S
C4246 C4247 1.373 . S
C4246 C4248 1.389 . S
C4247 H4226 0.950 . S
C4247 C4246 1.373 . S
C4247 C4263 1.377 . S
C4248 C4246 1.389 . S
C4248 C4249 1.524 . S
C4248 C4262 1.377 . S
C4249 C4248 1.524 . S
C4249 C4250 1.397 . S
C4249 C4254 1.363 . S
C4250 H4227 0.950 . S
C4250 C4249 1.397 . S
C4250 C4251 1.334 . S
C4251 H4228 0.950 . S
C4251 C4250 1.334 . S
C4251 C4252 1.287 . S
C4252 C4251 1.287 . S
C4252 C4253 1.524 . S
C4252 H4271 0.913 . S
C4253 H4229 0.950 . S
C4253 C4252 1.524 . S
C4253 C4254 1.415 . S
C4254 H4230 0.950 . S
C4254 C4249 1.363 . S
C4254 C4253 1.415 . S
C4255 H4231 0.951 . S
C4255 C4256 1.366 . S
C4255 C4257 1.388 . S
C4256 C4255 1.366 . S
C4256 C4260 1.385 . S
C4257 H4232 0.951 . S
C4257 C4255 1.388 . S
C4257 C4258 1.366 . S
C4258 C4257 1.366 . S
C4258 C4259 1.414 . S
C4258 C4261 1.499 . S
C4259 H4233 0.950 . S
C4259 C4258 1.414 . S
C4259 C4260 1.374 . S
C4260 H4234 0.950 . S
C4260 C4256 1.385 . S
C4260 C4259 1.374 . S
C4261 C4258 1.499 . S
C4261 C4262 1.373 . S
C4261 C4263 1.389 . S
C4262 H4235 0.950 . S
C4262 C4248 1.377 . S
C4262 C4261 1.373 . S
C4263 C4247 1.377 . S
C4263 C4261 1.389 . S
C4263 C4264 1.524 . S
C4264 C4263 1.524 . S
C4264 C4265 1.397 . S
C4264 C4269 1.363 . S
C4265 H4236 0.950 . S
C4265 C4264 1.397 . S
C4265 C4266 1.334 . S
C4266 H4237 0.950 . S
C4266 C4265 1.334 . S
C4266 C4267 1.287 . S
C4267 C4266 1.287 . S
C4267 C4268 1.524 . S
C4267 H4270 0.999 . S
C4268 H4238 0.950 . S
C4268 C4267 1.524 . S
C4268 C4269 1.415 . S
C4269 H4239 0.950 . S
C4269 C4264 1.363 . S
C4269 C4268 1.415 . S
H4270 C4267 0.999 . S
H4271 C4252 0.913 . S
H4272 C4290 0.951 . S
H4273 C4292 0.951 . S
H4274 C4294 0.950 . S
H4275 C4295 0.950 . S
H4276 C4297 0.950 . S
H4277 C4300 0.950 . S
H4278 C4301 0.950 . S
H4279 C4303 0.950 . S
H4280 C4304 0.950 . S
H4281 C4305 0.951 . S
H4282 C4307 0.951 . S
H4283 C4309 0.950 1_455 S
H4284 C4310 0.950 1_455 S
H4285 C4312 0.950 . S
H4286 C4315 0.973 . S
H4287 C4316 0.950 . S
H4288 C4318 0.950 . S
H4289 C4319 0.950 . S
C4290 H4272 0.951 . S
C4290 C4291 1.366 1_455 S
C4290 C4292 1.388 . S
C4291 C4290 1.366 1_655 S
C4291 C4295 1.385 . S
C4292 H4273 0.951 . S
C4292 C4290 1.388 . S
C4292 C4293 1.366 1_455 S
C4293 C4292 1.366 1_655 S
C4293 C4294 1.414 . S
C4293 C4296 1.499 . S
C4294 H4274 0.950 . S
C4294 C4293 1.414 . S
C4294 C4295 1.374 . S
C4295 H4275 0.950 . S
C4295 C4291 1.385 . S
C4295 C4294 1.374 . S
C4296 C4293 1.499 . S
C4296 C4297 1.373 . S
C4296 C4298 1.389 . S
C4297 H4276 0.950 . S
C4297 C4296 1.373 . S
C4297 C4313 1.377 . S
C4298 C4296 1.389 . S
C4298 C4299 1.524 . S
C4298 C4312 1.377 . S
C4299 C4298 1.524 . S
C4299 C4300 1.397 . S
C4299 C4304 1.363 1_655 S
C4300 H4277 0.950 . S
C4300 C4299 1.397 . S
C4300 C4301 1.334 . S
C4301 H4278 0.950 . S
C4301 C4300 1.334 . S
C4301 C4302 1.288 . S
C4302 C4301 1.288 . S
C4302 C4303 1.522 1_655 S
C4302 H4321 0.913 1_655 S
C4303 H4279 0.950 . S
C4303 C4302 1.522 1_455 S
C4303 C4304 1.415 . S
C4304 H4280 0.950 . S
C4304 C4299 1.363 1_455 S
C4304 C4303 1.415 . S
C4305 H4281 0.951 . S
C4305 C4306 1.366 . S
C4305 C4307 1.388 . S
C4306 C4305 1.366 . S
C4306 C4310 1.385 . S
C4307 H4282 0.951 . S
C4307 C4305 1.388 . S
C4307 C4308 1.366 . S
C4308 C4307 1.366 . S
C4308 C4309 1.414 . S
C4308 C4311 1.499 . S
C4309 H4283 0.950 1_655 S
C4309 C4308 1.414 . S
C4309 C4310 1.374 . S
C4310 H4284 0.950 1_655 S
C4310 C4306 1.385 . S
C4310 C4309 1.374 . S
C4311 C4308 1.499 . S
C4311 C4312 1.373 . S
C4311 C4313 1.389 . S
C4312 H4285 0.950 . S
C4312 C4298 1.377 . S
C4312 C4311 1.373 . S
C4313 C4297 1.377 . S
C4313 C4311 1.389 . S
C4313 C4314 1.524 . S
C4314 C4313 1.524 . S
C4314 C4315 1.397 . S
C4314 C4319 1.363 . S
C4315 H4286 0.973 . S
C4315 C4314 1.397 . S
C4315 C4316 1.334 . S
C4316 H4287 0.950 . S
C4316 C4315 1.334 . S
C4316 C4317 1.287 . S
C4317 C4316 1.287 . S
C4317 C4318 1.524 . S
C4317 H4320 0.999 . S
C4318 H4288 0.950 . S
C4318 C4317 1.524 . S
C4318 C4319 1.415 . S
C4319 H4289 0.950 . S
C4319 C4314 1.363 . S
C4319 C4318 1.415 . S
H4320 C4317 0.999 . S
H4321 C4302 0.913 1_455 S
H4322 C4340 0.951 . S
H4323 C4342 0.951 . S
H4324 C4344 0.950 . S
H4325 C4345 0.950 . S
H4326 C4347 0.950 . S
H4327 C4350 0.950 . S
H4328 C4351 0.950 . S
H4329 C4353 0.950 . S
H4330 C4354 0.950 . S
H4331 C4355 0.951 . S
H4332 C4357 0.951 . S
H4333 C4359 0.950 . S
H4334 C4360 0.950 . S
H4335 C4362 0.950 . S
H4336 C4365 0.950 . S
H4337 C4366 0.950 . S
H4338 C4368 0.950 . S
H4339 C4369 0.950 . S
C4340 H4322 0.951 . S
C4340 C4341 1.366 . S
C4340 C4342 1.388 . S
C4341 C4340 1.366 . S
C4341 C4345 1.385 . S
C4342 H4323 0.951 . S
C4342 C4340 1.388 . S
C4342 C4343 1.366 . S
C4343 C4342 1.366 . S
C4343 C4344 1.414 . S
C4343 C4346 1.499 . S
C4344 H4324 0.950 . S
C4344 C4343 1.414 . S
C4344 C4345 1.374 . S
C4345 H4325 0.950 . S
C4345 C4341 1.385 . S
C4345 C4344 1.374 . S
C4346 C4343 1.499 . S
C4346 C4347 1.373 . S
C4346 C4348 1.389 . S
C4347 H4326 0.950 . S
C4347 C4346 1.373 . S
C4347 C4363 1.377 . S
C4348 C4346 1.389 . S
C4348 C4349 1.524 . S
C4348 C4362 1.377 . S
C4349 C4348 1.524 . S
C4349 C4350 1.397 . S
C4349 C4354 1.363 . S
C4350 H4327 0.950 . S
C4350 C4349 1.397 . S
C4350 C4351 1.334 . S
C4351 H4328 0.950 . S
C4351 C4350 1.334 . S
C4351 C4352 1.287 . S
C4352 C4351 1.287 . S
C4352 C4353 1.524 . S
C4352 H4371 0.913 . S
C4353 H4329 0.950 . S
C4353 C4352 1.524 . S
C4353 C4354 1.415 . S
C4354 H4330 0.950 . S
C4354 C4349 1.363 . S
C4354 C4353 1.415 . S
C4355 H4331 0.951 . S
C4355 C4356 1.366 . S
C4355 C4357 1.388 . S
C4356 C4355 1.366 . S
C4356 C4360 1.385 . S
C4357 H4332 0.951 . S
C4357 C4355 1.388 . S
C4357 C4358 1.366 . S
C4358 C4357 1.366 . S
C4358 C4359 1.414 . S
C4358 C4361 1.499 . S
C4359 H4333 0.950 . S
C4359 C4358 1.414 . S
C4359 C4360 1.374 . S
C4360 H4334 0.950 . S
C4360 C4356 1.385 . S
C4360 C4359 1.374 . S
C4361 C4358 1.499 . S
C4361 C4362 1.373 . S
C4361 C4363 1.389 . S
C4362 H4335 0.950 . S
C4362 C4348 1.377 . S
C4362 C4361 1.373 . S
C4363 C4347 1.377 . S
C4363 C4361 1.389 . S
C4363 C4364 1.524 . S
C4364 C4363 1.524 . S
C4364 C4365 1.397 . S
C4364 C4369 1.363 . S
C4365 H4336 0.950 . S
C4365 C4364 1.397 . S
C4365 C4366 1.334 . S
C4366 H4337 0.950 . S
C4366 C4365 1.334 . S
C4366 C4367 1.287 . S
C4367 C4366 1.287 . S
C4367 C4368 1.524 . S
C4367 H4370 0.999 . S
C4368 H4338 0.950 . S
C4368 C4367 1.524 . S
C4368 C4369 1.415 . S
C4369 H4339 0.950 . S
C4369 C4364 1.363 . S
C4369 C4368 1.415 . S
H4370 C4367 0.999 . S
H4371 C4352 0.913 . S
H4372 C4390 0.951 . S
H4373 C4392 0.951 . S
H4374 C4394 0.950 . S
H4375 C4395 0.950 . S
H4376 C4397 0.950 . S
H4377 C4400 0.950 . S
H4378 C4401 0.950 . S
H4379 C4403 0.950 . S
H4380 C4404 0.950 . S
H4381 C4405 0.951 . S
H4382 C4407 0.951 . S
H4383 C4409 0.950 . S
H4384 C4410 0.950 . S
H4385 C4412 0.950 . S
H4386 C4415 0.950 . S
H4387 C4416 0.950 . S
H4388 C4418 0.950 . S
H4389 C4419 0.950 . S
C4390 H4372 0.951 . S
C4390 C4391 1.366 . S
C4390 C4392 1.388 . S
C4391 C4390 1.366 . S
C4391 C4395 1.385 . S
C4392 H4373 0.951 . S
C4392 C4390 1.388 . S
C4392 C4393 1.366 . S
C4393 C4392 1.366 . S
C4393 C4394 1.414 . S
C4393 C4396 1.499 . S
C4394 H4374 0.950 . S
C4394 C4393 1.414 . S
C4394 C4395 1.374 . S
C4395 H4375 0.950 . S
C4395 C4391 1.385 . S
C4395 C4394 1.374 . S
C4396 C4393 1.499 . S
C4396 C4397 1.373 . S
C4396 C4398 1.389 . S
C4397 H4376 0.950 . S
C4397 C4396 1.373 . S
C4397 C4413 1.377 . S
C4398 C4396 1.389 . S
C4398 C4399 1.524 . S
C4398 C4412 1.377 . S
C4399 C4398 1.524 . S
C4399 C4400 1.397 . S
C4399 C4404 1.363 . S
C4400 H4377 0.950 . S
C4400 C4399 1.397 . S
C4400 C4401 1.334 . S
C4401 H4378 0.950 . S
C4401 C4400 1.334 . S
C4401 C4402 1.287 . S
C4402 C4401 1.287 . S
C4402 C4403 1.524 . S
C4402 H4421 0.913 . S
C4403 H4379 0.950 . S
C4403 C4402 1.524 . S
C4403 C4404 1.415 . S
C4404 H4380 0.950 . S
C4404 C4399 1.363 . S
C4404 C4403 1.415 . S
C4405 H4381 0.951 . S
C4405 C4406 1.366 . S
C4405 C4407 1.388 . S
C4406 C4405 1.366 . S
C4406 C4410 1.385 . S
C4407 H4382 0.951 . S
C4407 C4405 1.388 . S
C4407 C4408 1.366 . S
C4408 C4407 1.366 . S
C4408 C4409 1.414 . S
C4408 C4411 1.499 . S
C4409 H4383 0.950 . S
C4409 C4408 1.414 . S
C4409 C4410 1.374 . S
C4410 H4384 0.950 . S
C4410 C4406 1.385 . S
C4410 C4409 1.374 . S
C4411 C4408 1.499 . S
C4411 C4412 1.373 . S
C4411 C4413 1.389 . S
C4412 H4385 0.950 . S
C4412 C4398 1.377 . S
C4412 C4411 1.373 . S
C4413 C4397 1.377 . S
C4413 C4411 1.389 . S
C4413 C4414 1.524 . S
C4414 C4413 1.524 . S
C4414 C4415 1.397 . S
C4414 C4419 1.363 . S
C4415 H4386 0.950 . S
C4415 C4414 1.397 . S
C4415 C4416 1.334 . S
C4416 H4387 0.950 . S
C4416 C4415 1.334 . S
C4416 C4417 1.287 . S
C4417 C4416 1.287 . S
C4417 C4418 1.524 . S
C4417 H4420 0.999 . S
C4418 H4388 0.950 . S
C4418 C4417 1.524 . S
C4418 C4419 1.415 . S
C4419 H4389 0.950 . S
C4419 C4414 1.363 . S
C4419 C4418 1.415 . S
H4420 C4417 0.999 . S
H4421 C4402 0.913 . S
H4422 C4440 0.953 . S
H4423 C4442 0.951 . S
H4424 C4444 0.950 . S
H4425 C4445 0.950 . S
H4426 C4447 0.950 . S
H4427 C4450 0.950 . S
H4428 C4451 0.950 . S
H4429 C4453 0.950 . S
H4430 C4454 0.950 . S
H4431 C4455 0.951 . S
H4432 C4457 0.951 . S
H4433 C4459 0.950 . S
H4434 C4460 0.950 . S
H4435 C4462 0.940 1_554 S
H4436 C4465 0.950 . S
H4437 C4466 0.950 . S
H4438 C4468 0.950 . S
H4439 C4469 0.950 . S
C4440 H4422 0.953 . S
C4440 C4441 1.366 . S
C4440 C4442 1.388 . S
C4441 C4440 1.366 . S
C4441 C4445 1.385 . S
C4442 H4423 0.951 . S
C4442 C4440 1.388 . S
C4442 C4443 1.366 . S
C4443 C4442 1.366 . S
C4443 C4444 1.414 . S
C4443 C4446 1.499 . S
C4444 H4424 0.950 . S
C4444 C4443 1.414 . S
C4444 C4445 1.374 . S
C4445 H4425 0.950 . S
C4445 C4441 1.385 . S
C4445 C4444 1.374 . S
C4446 C4443 1.499 . S
C4446 C4447 1.373 . S
C4446 C4448 1.389 1_556 S
C4447 H4426 0.950 . S
C4447 C4446 1.373 . S
C4447 C4463 1.377 . S
C4448 C4446 1.389 1_554 S
C4448 C4449 1.524 . S
C4448 C4462 1.375 1_554 S
C4449 C4448 1.524 . S
C4449 C4450 1.397 . S
C4449 C4454 1.363 . S
C4450 H4427 0.950 . S
C4450 C4449 1.397 . S
C4450 C4451 1.334 . S
C4451 H4428 0.950 . S
C4451 C4450 1.334 . S
C4451 C4452 1.287 . S
C4452 C4451 1.287 . S
C4452 C4453 1.524 . S
C4452 H4471 0.913 . S
C4453 H4429 0.950 . S
C4453 C4452 1.524 . S
C4453 C4454 1.415 . S
C4454 H4430 0.950 . S
C4454 C4449 1.363 . S
C4454 C4453 1.415 . S
C4455 H4431 0.951 . S
C4455 C4456 1.366 . S
C4455 C4457 1.388 . S
C4456 C4455 1.366 . S
C4456 C4460 1.385 . S
C4457 H4432 0.951 . S
C4457 C4455 1.388 . S
C4457 C4458 1.366 . S
C4458 C4457 1.366 . S
C4458 C4459 1.414 . S
C4458 C4461 1.499 . S
C4459 H4433 0.950 . S
C4459 C4458 1.414 . S
C4459 C4460 1.374 . S
C4460 H4434 0.950 . S
C4460 C4456 1.385 . S
C4460 C4459 1.374 . S
C4461 C4458 1.499 . S
C4461 C4462 1.385 . S
C4461 C4463 1.389 . S
C4462 H4435 0.940 1_556 S
C4462 C4448 1.375 1_556 S
C4462 C4461 1.385 . S
C4463 C4447 1.377 . S
C4463 C4461 1.389 . S
C4463 C4464 1.524 . S
C4464 C4463 1.524 . S
C4464 C4465 1.397 . S
C4464 C4469 1.363 . S
C4465 H4436 0.950 . S
C4465 C4464 1.397 . S
C4465 C4466 1.334 . S
C4466 H4437 0.950 . S
C4466 C4465 1.334 . S
C4466 C4467 1.287 . S
C4467 C4466 1.287 . S
C4467 C4468 1.524 . S
C4467 H4470 0.999 . S
C4468 H4438 0.950 . S
C4468 C4467 1.524 . S
C4468 C4469 1.415 . S
C4469 H4439 0.950 . S
C4469 C4464 1.363 . S
C4469 C4468 1.415 . S
H4470 C4467 0.999 . S
H4471 C4452 0.913 . S
H4472 C4490 0.951 . S
H4473 C4492 0.951 . S
H4474 C4494 0.950 1_455 S
H4475 C4495 0.950 1_455 S
H4476 C4497 0.950 . S
H4477 C4500 0.950 . S
H4478 C4501 0.950 . S
H4479 C4503 0.950 . S
H4480 C4504 0.950 . S
H4481 C4505 0.951 . S
H4482 C4507 0.951 . S
H4483 C4509 0.950 . S
H4484 C4510 0.950 . S
H4485 C4512 0.950 . S
H4486 C4515 0.950 . S
H4487 C4516 0.950 . S
H4488 C4518 0.950 . S
H4489 C4519 0.950 . S
C4490 H4472 0.951 . S
C4490 C4491 1.366 . S
C4490 C4492 1.388 . S
C4491 C4490 1.366 . S
C4491 C4495 1.385 . S
C4492 H4473 0.951 . S
C4492 C4490 1.388 . S
C4492 C4493 1.366 . S
C4493 C4492 1.366 . S
C4493 C4494 1.414 . S
C4493 C4496 1.499 . S
C4494 H4474 0.950 1_655 S
C4494 C4493 1.414 . S
C4494 C4495 1.374 . S
C4495 H4475 0.950 1_655 S
C4495 C4491 1.385 . S
C4495 C4494 1.374 . S
C4496 C4493 1.499 . S
C4496 C4497 1.373 . S
C4496 C4498 1.389 . S
C4497 H4476 0.950 . S
C4497 C4496 1.373 . S
C4497 C4513 1.377 . S
C4498 C4496 1.389 . S
C4498 C4499 1.524 . S
C4498 C4512 1.377 . S
C4499 C4498 1.524 . S
C4499 C4500 1.397 . S
C4499 C4504 1.363 . S
C4500 H4477 0.950 . S
C4500 C4499 1.397 . S
C4500 C4501 1.334 . S
C4501 H4478 0.950 . S
C4501 C4500 1.334 . S
C4501 C4502 1.287 . S
C4502 C4501 1.287 . S
C4502 C4503 1.524 . S
C4502 H4521 0.913 . S
C4503 H4479 0.950 . S
C4503 C4502 1.524 . S
C4503 C4504 1.415 . S
C4504 H4480 0.950 . S
C4504 C4499 1.363 . S
C4504 C4503 1.415 . S
C4505 H4481 0.951 . S
C4505 C4506 1.366 1_455 S
C4505 C4507 1.388 . S
C4506 C4505 1.366 1_655 S
C4506 C4510 1.385 . S
C4507 H4482 0.951 . S
C4507 C4505 1.388 . S
C4507 C4508 1.366 1_455 S
C4508 C4507 1.366 1_655 S
C4508 C4509 1.414 . S
C4508 C4511 1.499 . S
C4509 H4483 0.950 . S
C4509 C4508 1.414 . S
C4509 C4510 1.374 . S
C4510 H4484 0.950 . S
C4510 C4506 1.385 . S
C4510 C4509 1.374 . S
C4511 C4508 1.499 . S
C4511 C4512 1.373 . S
C4511 C4513 1.389 . S
C4512 H4485 0.950 . S
C4512 C4498 1.377 . S
C4512 C4511 1.373 . S
C4513 C4497 1.377 . S
C4513 C4511 1.389 . S
C4513 C4514 1.524 . S
C4514 C4513 1.524 . S
C4514 C4515 1.397 . S
C4514 C4519 1.363 1_655 S
C4515 H4486 0.950 . S
C4515 C4514 1.397 . S
C4515 C4516 1.334 . S
C4516 H4487 0.950 . S
C4516 C4515 1.334 . S
C4516 C4517 1.287 1_655 S
C4517 C4516 1.287 1_455 S
C4517 C4518 1.524 . S
C4517 H4520 0.999 . S
C4518 H4488 0.950 . S
C4518 C4517 1.524 . S
C4518 C4519 1.415 . S
C4519 H4489 0.950 . S
C4519 C4514 1.363 1_455 S
C4519 C4518 1.415 . S
H4520 C4517 0.999 . S
H4521 C4502 0.913 . S
H4522 C4540 0.951 . S
H4523 C4542 0.951 . S
H4524 C4544 0.950 . S
H4525 C4545 0.950 . S
H4526 C4547 0.950 . S
H4527 C4550 0.950 . S
H4528 C4551 0.950 . S
H4529 C4553 0.950 . S
H4530 C4554 0.950 . S
H4531 C4555 0.951 . S
H4532 C4557 0.951 . S
H4533 C4559 0.950 . S
H4534 C4560 0.950 . S
H4535 C4562 0.950 . S
H4536 C4565 0.950 . S
H4537 C4566 0.950 . S
H4538 C4568 0.950 . S
H4539 C4569 0.950 . S
C4540 H4522 0.951 . S
C4540 C4541 1.366 . S
C4540 C4542 1.388 . S
C4541 C4540 1.366 . S
C4541 C4545 1.385 . S
C4542 H4523 0.951 . S
C4542 C4540 1.388 . S
C4542 C4543 1.366 . S
C4543 C4542 1.366 . S
C4543 C4544 1.414 . S
C4543 C4546 1.499 . S
C4544 H4524 0.950 . S
C4544 C4543 1.414 . S
C4544 C4545 1.374 . S
C4545 H4525 0.950 . S
C4545 C4541 1.385 . S
C4545 C4544 1.374 . S
C4546 C4543 1.499 . S
C4546 C4547 1.373 . S
C4546 C4548 1.389 . S
C4547 H4526 0.950 . S
C4547 C4546 1.373 . S
C4547 C4563 1.377 . S
C4548 C4546 1.389 . S
C4548 C4549 1.524 . S
C4548 C4562 1.377 . S
C4549 C4548 1.524 . S
C4549 C4550 1.397 . S
C4549 C4554 1.363 . S
C4550 H4527 0.950 . S
C4550 C4549 1.397 . S
C4550 C4551 1.334 . S
C4551 H4528 0.950 . S
C4551 C4550 1.334 . S
C4551 C4552 1.287 . S
C4552 C4551 1.287 . S
C4552 C4553 1.524 . S
C4552 H4571 0.913 . S
C4553 H4529 0.950 . S
C4553 C4552 1.524 . S
C4553 C4554 1.415 . S
C4554 H4530 0.950 . S
C4554 C4549 1.363 . S
C4554 C4553 1.415 . S
C4555 H4531 0.951 . S
C4555 C4556 1.366 . S
C4555 C4557 1.388 . S
C4556 C4555 1.366 . S
C4556 C4560 1.385 . S
C4557 H4532 0.951 . S
C4557 C4555 1.388 . S
C4557 C4558 1.366 . S
C4558 C4557 1.366 . S
C4558 C4559 1.414 . S
C4558 C4561 1.499 . S
C4559 H4533 0.950 . S
C4559 C4558 1.414 . S
C4559 C4560 1.374 . S
C4560 H4534 0.950 . S
C4560 C4556 1.385 . S
C4560 C4559 1.374 . S
C4561 C4558 1.499 . S
C4561 C4562 1.373 . S
C4561 C4563 1.389 . S
C4562 H4535 0.950 . S
C4562 C4548 1.377 . S
C4562 C4561 1.373 . S
C4563 C4547 1.377 . S
C4563 C4561 1.389 . S
C4563 C4564 1.524 . S
C4564 C4563 1.524 . S
C4564 C4565 1.397 . S
C4564 C4569 1.363 . S
C4565 H4536 0.950 . S
C4565 C4564 1.397 . S
C4565 C4566 1.334 . S
C4566 H4537 0.950 . S
C4566 C4565 1.334 . S
C4566 C4567 1.287 . S
C4567 C4566 1.287 . S
C4567 C4568 1.524 . S
C4567 H4570 0.999 . S
C4568 H4538 0.950 . S
C4568 C4567 1.524 . S
C4568 C4569 1.415 . S
C4569 H4539 0.950 . S
C4569 C4564 1.363 . S
C4569 C4568 1.415 . S
H4570 C4567 0.999 . S
H4571 C4552 0.913 . S
H4572 C4590 0.951 . S
H4573 C4592 0.951 . S
H4574 C4594 0.950 . S
H4575 C4595 0.950 . S
H4576 C4597 0.950 . S
H4577 C4600 0.950 . S
H4578 C4601 0.950 . S
H4579 C4603 0.950 . S
H4580 C4604 0.950 . S
H4581 C4605 0.951 . S
H4582 C4607 0.951 . S
H4583 C4609 0.950 . S
H4584 C4610 0.950 . S
H4585 C4612 0.950 . S
H4586 C4615 0.950 . S
H4587 C4616 0.950 . S
H4588 C4618 0.950 . S
H4589 C4619 0.950 . S
C4590 H4572 0.951 . S
C4590 C4591 1.366 . S
C4590 C4592 1.388 . S
C4591 C4590 1.366 . S
C4591 C4595 1.385 . S
C4592 H4573 0.951 . S
C4592 C4590 1.388 . S
C4592 C4593 1.366 . S
C4593 C4592 1.366 . S
C4593 C4594 1.414 . S
C4593 C4596 1.499 . S
C4594 H4574 0.950 . S
C4594 C4593 1.414 . S
C4594 C4595 1.374 . S
C4595 H4575 0.950 . S
C4595 C4591 1.385 . S
C4595 C4594 1.374 . S
C4596 C4593 1.499 . S
C4596 C4597 1.373 . S
C4596 C4598 1.389 . S
C4597 H4576 0.950 . S
C4597 C4596 1.373 . S
C4597 C4613 1.377 . S
C4598 C4596 1.389 . S
C4598 C4599 1.524 . S
C4598 C4612 1.377 . S
C4599 C4598 1.524 . S
C4599 C4600 1.397 . S
C4599 C4604 1.363 . S
C4600 H4577 0.950 . S
C4600 C4599 1.397 . S
C4600 C4601 1.334 . S
C4601 H4578 0.950 . S
C4601 C4600 1.334 . S
C4601 C4602 1.287 . S
C4602 C4601 1.287 . S
C4602 C4603 1.524 . S
C4602 H4621 0.913 . S
C4603 H4579 0.950 . S
C4603 C4602 1.524 . S
C4603 C4604 1.415 . S
C4604 H4580 0.950 . S
C4604 C4599 1.363 . S
C4604 C4603 1.415 . S
C4605 H4581 0.951 . S
C4605 C4606 1.366 . S
C4605 C4607 1.388 . S
C4606 C4605 1.366 . S
C4606 C4610 1.385 . S
C4607 H4582 0.951 . S
C4607 C4605 1.388 . S
C4607 C4608 1.366 . S
C4608 C4607 1.366 . S
C4608 C4609 1.414 . S
C4608 C4611 1.499 . S
C4609 H4583 0.950 . S
C4609 C4608 1.414 . S
C4609 C4610 1.374 . S
C4610 H4584 0.950 . S
C4610 C4606 1.385 . S
C4610 C4609 1.374 . S
C4611 C4608 1.499 . S
C4611 C4612 1.373 . S
C4611 C4613 1.389 . S
C4612 H4585 0.950 . S
C4612 C4598 1.377 . S
C4612 C4611 1.373 . S
C4613 C4597 1.377 . S
C4613 C4611 1.389 . S
C4613 C4614 1.524 . S
C4614 C4613 1.524 . S
C4614 C4615 1.397 . S
C4614 C4619 1.363 . S
C4615 H4586 0.950 . S
C4615 C4614 1.397 . S
C4615 C4616 1.334 . S
C4616 H4587 0.950 . S
C4616 C4615 1.334 . S
C4616 C4617 1.287 . S
C4617 C4616 1.287 . S
C4617 C4618 1.524 . S
C4617 H4620 0.999 . S
C4618 H4588 0.950 . S
C4618 C4617 1.524 . S
C4618 C4619 1.415 . S
C4619 H4589 0.950 . S
C4619 C4614 1.363 . S
C4619 C4618 1.415 . S
H4620 C4617 0.999 . S
H4621 C4602 0.913 . S
H4622 C4640 0.951 . S
H4623 C4642 0.951 . S
H4624 C4644 0.950 . S
H4625 C4645 0.950 . S
H4626 C4647 0.950 . S
H4627 C4650 0.950 . S
H4628 C4651 0.950 . S
H4629 C4653 0.950 . S
H4630 C4654 0.950 . S
H4631 C4655 0.951 . S
H4632 C4657 0.951 . S
H4633 C4659 0.950 . S
H4634 C4660 0.950 . S
H4635 C4662 0.950 . S
H4636 C4665 0.950 . S
H4637 C4666 0.950 . S
H4638 C4668 0.950 . S
H4639 C4669 0.950 . S
C4640 H4622 0.951 . S
C4640 C4641 1.366 . S
C4640 C4642 1.388 . S
C4641 C4640 1.366 . S
C4641 C4645 1.385 . S
C4642 H4623 0.951 . S
C4642 C4640 1.388 . S
C4642 C4643 1.366 . S
C4643 C4642 1.366 . S
C4643 C4644 1.414 . S
C4643 C4646 1.499 . S
C4644 H4624 0.950 . S
C4644 C4643 1.414 . S
C4644 C4645 1.374 . S
C4645 H4625 0.950 . S
C4645 C4641 1.385 . S
C4645 C4644 1.374 . S
C4646 C4643 1.499 . S
C4646 C4647 1.373 . S
C4646 C4648 1.389 . S
C4647 H4626 0.950 . S
C4647 C4646 1.373 . S
C4647 C4663 1.377 . S
C4648 C4646 1.389 . S
C4648 C4649 1.524 . S
C4648 C4662 1.377 . S
C4649 C4648 1.524 . S
C4649 C4650 1.397 . S
C4649 C4654 1.363 . S
C4650 H4627 0.950 . S
C4650 C4649 1.397 . S
C4650 C4651 1.334 . S
C4651 H4628 0.950 . S
C4651 C4650 1.334 . S
C4651 C4652 1.287 . S
C4652 C4651 1.287 . S
C4652 C4653 1.524 . S
C4652 H4671 0.913 . S
C4653 H4629 0.950 . S
C4653 C4652 1.524 . S
C4653 C4654 1.415 . S
C4654 H4630 0.950 . S
C4654 C4649 1.363 . S
C4654 C4653 1.415 . S
C4655 H4631 0.951 . S
C4655 C4656 1.366 . S
C4655 C4657 1.388 . S
C4656 C4655 1.366 . S
C4656 C4660 1.385 . S
C4657 H4632 0.951 . S
C4657 C4655 1.388 . S
C4657 C4658 1.366 . S
C4658 C4657 1.366 . S
C4658 C4659 1.414 . S
C4658 C4661 1.499 . S
C4659 H4633 0.950 . S
C4659 C4658 1.414 . S
C4659 C4660 1.374 . S
C4660 H4634 0.950 . S
C4660 C4656 1.385 . S
C4660 C4659 1.374 . S
C4661 C4658 1.499 . S
C4661 C4662 1.373 . S
C4661 C4663 1.389 . S
C4662 H4635 0.950 . S
C4662 C4648 1.377 . S
C4662 C4661 1.373 . S
C4663 C4647 1.377 . S
C4663 C4661 1.389 . S
C4663 C4664 1.524 . S
C4664 C4663 1.524 . S
C4664 C4665 1.397 . S
C4664 C4669 1.363 . S
C4665 H4636 0.950 . S
C4665 C4664 1.397 . S
C4665 C4666 1.334 . S
C4666 H4637 0.950 . S
C4666 C4665 1.334 . S
C4666 C4667 1.287 . S
C4667 C4666 1.287 . S
C4667 C4668 1.524 . S
C4667 H4670 0.999 . S
C4668 H4638 0.950 . S
C4668 C4667 1.524 . S
C4668 C4669 1.415 . S
C4669 H4639 0.950 . S
C4669 C4664 1.363 . S
C4669 C4668 1.415 . S
H4670 C4667 0.999 . S
H4671 C4652 0.913 . S
H4672 C4690 0.951 . S
H4673 C4692 0.951 . S
H4674 C4694 0.950 . S
H4675 C4695 0.950 . S
H4676 C4697 0.950 . S
H4677 C4700 0.950 . S
H4678 C4701 0.950 . S
H4679 C4703 0.950 . S
H4680 C4704 0.950 . S
H4681 C4705 0.951 . S
H4682 C4707 0.951 . S
H4683 C4709 0.924 1_545 S
H4684 C4710 0.950 1_545 S
H4685 C4712 0.950 . S
H4686 C4715 0.950 . S
H4687 C4716 0.950 . S
H4688 C4718 0.950 . S
H4689 C4719 0.950 . S
C4690 H4672 0.951 . S
C4690 C4691 1.366 . S
C4690 C4692 1.388 . S
C4691 C4690 1.366 . S
C4691 C4695 1.385 . S
C4692 H4673 0.951 . S
C4692 C4690 1.388 . S
C4692 C4693 1.366 . S
C4693 C4692 1.366 . S
C4693 C4694 1.414 . S
C4693 C4696 1.499 . S
C4694 H4674 0.950 . S
C4694 C4693 1.414 . S
C4694 C4695 1.374 . S
C4695 H4675 0.950 . S
C4695 C4691 1.385 . S
C4695 C4694 1.374 . S
C4696 C4693 1.499 . S
C4696 C4697 1.373 . S
C4696 C4698 1.325 1_565 S
C4697 H4676 0.950 . S
C4697 C4696 1.373 . S
C4697 C4713 1.377 . S
C4698 C4696 1.325 1_545 S
C4698 C4699 1.593 . S
C4698 C4712 1.380 . S
C4699 C4698 1.593 . S
C4699 C4700 1.397 . S
C4699 C4704 1.363 . S
C4700 H4677 0.950 . S
C4700 C4699 1.397 . S
C4700 C4701 1.334 . S
C4701 H4678 0.950 . S
C4701 C4700 1.334 . S
C4701 C4702 1.287 . S
C4702 C4701 1.287 . S
C4702 C4703 1.524 . S
C4702 H4721 0.913 . S
C4703 H4679 0.950 . S
C4703 C4702 1.524 . S
C4703 C4704 1.415 . S
C4704 H4680 0.950 . S
C4704 C4699 1.363 . S
C4704 C4703 1.415 . S
C4705 H4681 0.951 . S
C4705 C4706 1.366 . S
C4705 C4707 1.388 . S
C4706 C4705 1.366 . S
C4706 C4710 1.385 . S
C4707 H4682 0.951 . S
C4707 C4705 1.388 . S
C4707 C4708 1.366 . S
C4708 C4707 1.366 . S
C4708 C4709 1.414 . S
C4708 C4711 1.499 . S
C4709 H4683 0.924 1_565 S
C4709 C4708 1.414 . S
C4709 C4710 1.374 . S
C4710 H4684 0.950 1_565 S
C4710 C4706 1.385 . S
C4710 C4709 1.374 . S
C4711 C4708 1.499 . S
C4711 C4712 1.373 1_565 S
C4711 C4713 1.389 . S
C4712 H4685 0.950 . S
C4712 C4698 1.380 . S
C4712 C4711 1.373 1_545 S
C4713 C4697 1.377 . S
C4713 C4711 1.389 . S
C4713 C4714 1.524 . S
C4714 C4713 1.524 . S
C4714 C4715 1.397 . S
C4714 C4719 1.363 . S
C4715 H4686 0.950 . S
C4715 C4714 1.397 . S
C4715 C4716 1.334 . S
C4716 H4687 0.950 . S
C4716 C4715 1.334 . S
C4716 C4717 1.287 . S
C4717 C4716 1.287 . S
C4717 C4718 1.524 . S
C4717 H4720 0.999 . S
C4718 H4688 0.950 . S
C4718 C4717 1.524 . S
C4718 C4719 1.415 . S
C4719 H4689 0.950 . S
C4719 C4714 1.363 . S
C4719 C4718 1.415 . S
H4720 C4717 0.999 . S
H4721 C4702 0.913 . S
H4722 C4740 0.951 . S
H4723 C4742 0.951 . S
H4724 C4744 0.950 . S
H4725 C4745 0.950 . S
H4726 C4747 0.950 . S
H4727 C4750 0.950 . S
H4728 C4751 0.950 . S
H4729 C4753 0.950 . S
H4730 C4754 0.950 . S
H4731 C4755 0.951 . S
H4732 C4757 0.951 . S
H4733 C4759 0.950 . S
H4734 C4760 0.953 . S
H4735 C4762 0.990 . S
H4736 C4765 0.950 . S
H4737 C4766 0.950 . S
H4738 C4768 0.950 . S
H4739 C4769 0.950 . S
C4740 H4722 0.951 . S
C4740 C4741 1.366 . S
C4740 C4742 1.388 . S
C4741 C4740 1.366 . S
C4741 C4745 1.385 . S
C4742 H4723 0.951 . S
C4742 C4740 1.388 . S
C4742 C4743 1.366 . S
C4743 C4742 1.366 . S
C4743 C4744 1.414 . S
C4743 C4746 1.499 . S
C4744 H4724 0.950 . S
C4744 C4743 1.414 . S
C4744 C4745 1.374 . S
C4745 H4725 0.950 . S
C4745 C4741 1.385 . S
C4745 C4744 1.374 . S
C4746 C4743 1.499 . S
C4746 C4747 1.373 . S
C4746 C4748 1.375 1_565 S
C4747 H4726 0.950 . S
C4747 C4746 1.373 . S
C4747 C4763 1.377 . S
C4748 C4746 1.375 1_545 S
C4748 C4749 1.539 . S
C4748 C4762 1.376 . S
C4749 C4748 1.539 . S
C4749 C4750 1.397 . S
C4749 C4754 1.363 . S
C4750 H4727 0.950 . S
C4750 C4749 1.397 . S
C4750 C4751 1.334 . S
C4751 H4728 0.950 . S
C4751 C4750 1.334 . S
C4751 C4752 1.287 . S
C4752 C4751 1.287 . S
C4752 C4753 1.524 . S
C4752 H4771 0.913 . S
C4753 H4729 0.950 . S
C4753 C4752 1.524 . S
C4753 C4754 1.415 . S
C4754 H4730 0.950 . S
C4754 C4749 1.363 . S
C4754 C4753 1.415 . S
C4755 H4731 0.951 . S
C4755 C4756 1.366 . S
C4755 C4757 1.388 . S
C4756 C4755 1.366 . S
C4756 C4760 1.385 . S
C4757 H4732 0.951 . S
C4757 C4755 1.388 . S
C4757 C4758 1.366 . S
C4758 C4757 1.366 . S
C4758 C4759 1.414 . S
C4758 C4761 1.499 . S
C4759 H4733 0.950 . S
C4759 C4758 1.414 . S
C4759 C4760 1.374 . S
C4760 H4734 0.953 . S
C4760 C4756 1.385 . S
C4760 C4759 1.374 . S
C4761 C4758 1.499 . S
C4761 C4762 1.336 1_565 S
C4761 C4763 1.389 . S
C4762 H4735 0.990 . S
C4762 C4748 1.376 . S
C4762 C4761 1.336 1_545 S
C4763 C4747 1.377 . S
C4763 C4761 1.389 . S
C4763 C4764 1.524 . S
C4764 C4763 1.524 . S
C4764 C4765 1.397 . S
C4764 C4769 1.363 . S
C4765 H4736 0.950 . S
C4765 C4764 1.397 . S
C4765 C4766 1.334 . S
C4766 H4737 0.950 . S
C4766 C4765 1.334 . S
C4766 C4767 1.287 . S
C4767 C4766 1.287 . S
C4767 C4768 1.524 . S
C4767 H4770 0.999 . S
C4768 H4738 0.950 . S
C4768 C4767 1.524 . S
C4768 C4769 1.415 . S
C4769 H4739 0.950 . S
C4769 C4764 1.363 . S
C4769 C4768 1.415 . S
H4770 C4767 0.999 . S
H4771 C4752 0.913 . S
H4772 C4790 0.951 . S
H4773 C4792 0.951 . S
H4774 C4794 0.950 . S
H4775 C4795 0.950 . S
H4776 C4797 0.950 . S
H4777 C4800 0.950 . S
H4778 C4801 0.950 . S
H4779 C4803 0.950 . S
H4780 C4804 0.950 . S
H4781 C4805 0.951 . S
H4782 C4807 0.951 . S
H4783 C4809 0.950 . S
H4784 C4810 0.950 . S
H4785 C4812 0.950 . S
H4786 C4815 0.950 . S
H4787 C4816 0.950 . S
H4788 C4818 0.950 . S
H4789 C4819 0.950 . S
C4790 H4772 0.951 . S
C4790 C4791 1.366 . S
C4790 C4792 1.388 . S
C4791 C4790 1.366 . S
C4791 C4795 1.385 . S
C4792 H4773 0.951 . S
C4792 C4790 1.388 . S
C4792 C4793 1.366 . S
C4793 C4792 1.366 . S
C4793 C4794 1.414 . S
C4793 C4796 1.499 . S
C4794 H4774 0.950 . S
C4794 C4793 1.414 . S
C4794 C4795 1.374 . S
C4795 H4775 0.950 . S
C4795 C4791 1.385 . S
C4795 C4794 1.374 . S
C4796 C4793 1.499 . S
C4796 C4797 1.373 . S
C4796 C4798 1.389 . S
C4797 H4776 0.950 . S
C4797 C4796 1.373 . S
C4797 C4813 1.377 . S
C4798 C4796 1.389 . S
C4798 C4799 1.524 . S
C4798 C4812 1.377 . S
C4799 C4798 1.524 . S
C4799 C4800 1.397 . S
C4799 C4804 1.363 . S
C4800 H4777 0.950 . S
C4800 C4799 1.397 . S
C4800 C4801 1.334 . S
C4801 H4778 0.950 . S
C4801 C4800 1.334 . S
C4801 C4802 1.287 . S
C4802 C4801 1.287 . S
C4802 C4803 1.524 . S
C4802 H4821 0.913 . S
C4803 H4779 0.950 . S
C4803 C4802 1.524 . S
C4803 C4804 1.415 . S
C4804 H4780 0.950 . S
C4804 C4799 1.363 . S
C4804 C4803 1.415 . S
C4805 H4781 0.951 . S
C4805 C4806 1.366 . S
C4805 C4807 1.388 . S
C4806 C4805 1.366 . S
C4806 C4810 1.385 . S
C4807 H4782 0.951 . S
C4807 C4805 1.388 . S
C4807 C4808 1.366 . S
C4808 C4807 1.366 . S
C4808 C4809 1.414 . S
C4808 C4811 1.499 . S
C4809 H4783 0.950 . S
C4809 C4808 1.414 . S
C4809 C4810 1.374 . S
C4810 H4784 0.950 . S
C4810 C4806 1.385 . S
C4810 C4809 1.374 . S
C4811 C4808 1.499 . S
C4811 C4812 1.373 . S
C4811 C4813 1.389 . S
C4812 H4785 0.950 . S
C4812 C4798 1.377 . S
C4812 C4811 1.373 . S
C4813 C4797 1.377 . S
C4813 C4811 1.389 . S
C4813 C4814 1.524 . S
C4814 C4813 1.524 . S
C4814 C4815 1.397 . S
C4814 C4819 1.363 . S
C4815 H4786 0.950 . S
C4815 C4814 1.397 . S
C4815 C4816 1.334 . S
C4816 H4787 0.950 . S
C4816 C4815 1.334 . S
C4816 C4817 1.287 . S
C4817 C4816 1.287 . S
C4817 C4818 1.524 . S
C4817 H4820 0.999 . S
C4818 H4788 0.950 . S
C4818 C4817 1.524 . S
C4818 C4819 1.415 . S
C4819 H4789 0.950 . S
C4819 C4814 1.363 . S
C4819 C4818 1.415 . S
H4820 C4817 0.999 . S
H4821 C4802 0.913 . S
H4822 C4840 0.951 . S
H4823 C4842 0.951 . S
H4824 C4844 0.950 . S
H4825 C4845 0.950 . S
H4826 C4847 0.950 . S
H4827 C4850 0.950 . S
H4828 C4851 0.950 . S
H4829 C4853 0.950 . S
H4830 C4854 0.950 . S
H4831 C4855 0.951 . S
H4832 C4857 0.951 . S
H4833 C4859 0.950 . S
H4834 C4860 0.950 . S
H4835 C4862 0.950 . S
H4836 C4865 0.950 . S
H4837 C4866 0.950 . S
H4838 C4868 0.950 . S
H4839 C4869 0.950 . S
C4840 H4822 0.951 . S
C4840 C4841 1.366 . S
C4840 C4842 1.388 . S
C4841 C4840 1.366 . S
C4841 C4845 1.385 . S
C4842 H4823 0.951 . S
C4842 C4840 1.388 . S
C4842 C4843 1.366 . S
C4843 C4842 1.366 . S
C4843 C4844 1.414 . S
C4843 C4846 1.499 . S
C4844 H4824 0.950 . S
C4844 C4843 1.414 . S
C4844 C4845 1.374 . S
C4845 H4825 0.950 . S
C4845 C4841 1.385 . S
C4845 C4844 1.374 . S
C4846 C4843 1.499 . S
C4846 C4847 1.373 . S
C4846 C4848 1.389 . S
C4847 H4826 0.950 . S
C4847 C4846 1.373 . S
C4847 C4863 1.377 . S
C4848 C4846 1.389 . S
C4848 C4849 1.524 . S
C4848 C4862 1.377 . S
C4849 C4848 1.524 . S
C4849 C4850 1.397 . S
C4849 C4854 1.363 . S
C4850 H4827 0.950 . S
C4850 C4849 1.397 . S
C4850 C4851 1.334 . S
C4851 H4828 0.950 . S
C4851 C4850 1.334 . S
C4851 C4852 1.287 . S
C4852 C4851 1.287 . S
C4852 C4853 1.524 . S
C4852 H4871 0.913 . S
C4853 H4829 0.950 . S
C4853 C4852 1.524 . S
C4853 C4854 1.415 . S
C4854 H4830 0.950 . S
C4854 C4849 1.363 . S
C4854 C4853 1.415 . S
C4855 H4831 0.951 . S
C4855 C4856 1.366 . S
C4855 C4857 1.388 . S
C4856 C4855 1.366 . S
C4856 C4860 1.385 . S
C4857 H4832 0.951 . S
C4857 C4855 1.388 . S
C4857 C4858 1.366 . S
C4858 C4857 1.366 . S
C4858 C4859 1.414 . S
C4858 C4861 1.499 . S
C4859 H4833 0.950 . S
C4859 C4858 1.414 . S
C4859 C4860 1.374 . S
C4860 H4834 0.950 . S
C4860 C4856 1.385 . S
C4860 C4859 1.374 . S
C4861 C4858 1.499 . S
C4861 C4862 1.373 . S
C4861 C4863 1.389 . S
C4862 H4835 0.950 . S
C4862 C4848 1.377 . S
C4862 C4861 1.373 . S
C4863 C4847 1.377 . S
C4863 C4861 1.389 . S
C4863 C4864 1.524 . S
C4864 C4863 1.524 . S
C4864 C4865 1.397 . S
C4864 C4869 1.363 . S
C4865 H4836 0.950 . S
C4865 C4864 1.397 . S
C4865 C4866 1.334 . S
C4866 H4837 0.950 . S
C4866 C4865 1.334 . S
C4866 C4867 1.287 . S
C4867 C4866 1.287 . S
C4867 C4868 1.524 . S
C4867 H4870 0.999 . S
C4868 H4838 0.950 . S
C4868 C4867 1.524 . S
C4868 C4869 1.415 . S
C4869 H4839 0.950 . S
C4869 C4864 1.363 . S
C4869 C4868 1.415 . S
H4870 C4867 0.999 . S
H4871 C4852 0.913 . S
H4872 C4890 0.951 . S
H4873 C4892 0.951 . S
H4874 C4894 0.950 . S
H4875 C4895 0.950 . S
H4876 C4897 0.950 . S
H4877 C4900 0.950 . S
H4878 C4901 0.950 . S
H4879 C4903 0.950 . S
H4880 C4904 0.950 . S
H4881 C4905 0.951 . S
H4882 C4907 0.951 . S
H4883 C4909 0.892 1_554 S
H4884 C4910 0.950 1_554 S
H4885 C4912 0.950 . S
H4886 C4915 0.950 . S
H4887 C4916 0.950 . S
H4888 C4918 0.950 . S
H4889 C4919 0.950 . S
C4890 H4872 0.951 . S
C4890 C4891 1.366 1_554 S
C4890 C4892 1.388 . S
C4891 C4890 1.366 1_556 S
C4891 C4895 1.385 . S
C4892 H4873 0.951 . S
C4892 C4890 1.388 . S
C4892 C4893 1.366 1_554 S
C4893 C4892 1.366 1_556 S
C4893 C4894 1.414 . S
C4893 C4896 1.499 . S
C4894 H4874 0.950 . S
C4894 C4893 1.414 . S
C4894 C4895 1.374 . S
C4895 H4875 0.950 . S
C4895 C4891 1.385 . S
C4895 C4894 1.374 . S
C4896 C4893 1.499 . S
C4896 C4897 1.373 . S
C4896 C4898 1.389 . S
C4897 H4876 0.950 . S
C4897 C4896 1.373 . S
C4897 C4913 1.377 . S
C4898 C4896 1.389 . S
C4898 C4899 1.515 1_556 S
C4898 C4912 1.377 . S
C4899 C4898 1.515 1_554 S
C4899 C4900 1.380 1_554 S
C4899 C4904 1.387 . S
C4900 H4877 0.950 . S
C4900 C4899 1.380 1_556 S
C4900 C4901 1.334 . S
C4901 H4878 0.950 . S
C4901 C4900 1.334 . S
C4901 C4902 1.287 1_556 S
C4902 C4901 1.287 1_554 S
C4902 C4903 1.524 . S
C4902 H4921 0.913 . S
C4903 H4879 0.950 . S
C4903 C4902 1.524 . S
C4903 C4904 1.415 . S
C4904 H4880 0.950 . S
C4904 C4899 1.387 . S
C4904 C4903 1.415 . S
C4905 H4881 0.951 . S
C4905 C4906 1.366 . S
C4905 C4907 1.388 . S
C4906 C4905 1.366 . S
C4906 C4910 1.385 . S
C4907 H4882 0.951 . S
C4907 C4905 1.388 . S
C4907 C4908 1.366 . S
C4908 C4907 1.366 . S
C4908 C4909 1.469 . S
C4908 C4911 1.499 . S
C4909 H4883 0.892 1_556 S
C4909 C4908 1.469 . S
C4909 C4910 1.380 . S
C4910 H4884 0.950 1_556 S
C4910 C4906 1.385 . S
C4910 C4909 1.380 . S
C4911 C4908 1.499 . S
C4911 C4912 1.373 . S
C4911 C4913 1.389 . S
C4912 H4885 0.950 . S
C4912 C4898 1.377 . S
C4912 C4911 1.373 . S
C4913 C4897 1.377 . S
C4913 C4911 1.389 . S
C4913 C4914 1.524 . S
C4914 C4913 1.524 . S
C4914 C4915 1.397 . S
C4914 C4919 1.363 . S
C4915 H4886 0.950 . S
C4915 C4914 1.397 . S
C4915 C4916 1.334 . S
C4916 H4887 0.950 . S
C4916 C4915 1.334 . S
C4916 C4917 1.287 . S
C4917 C4916 1.287 . S
C4917 C4918 1.524 . S
C4917 H4920 0.999 . S
C4918 H4888 0.950 . S
C4918 C4917 1.524 . S
C4918 C4919 1.415 . S
C4919 H4889 0.950 . S
C4919 C4914 1.363 . S
C4919 C4918 1.415 . S
H4920 C4917 0.999 . S
H4921 C4902 0.913 . S
H4922 C4940 0.951 . S
H4923 C4942 0.951 . S
H4924 C4944 0.950 . S
H4925 C4945 0.950 . S
H4926 C4947 0.950 . S
H4927 C4950 0.950 . S
H4928 C4951 0.950 . S
H4929 C4953 0.950 . S
H4930 C4954 0.950 . S
H4931 C4955 0.951 . S
H4932 C4957 0.951 . S
H4933 C4959 0.950 . S
H4934 C4960 0.950 . S
H4935 C4962 0.950 . S
H4936 C4965 0.950 . S
H4937 C4966 0.950 . S
H4938 C4968 0.950 . S
H4939 C4969 0.950 . S
C4940 H4922 0.951 . S
C4940 C4941 1.366 . S
C4940 C4942 1.388 . S
C4941 C4940 1.366 . S
C4941 C4945 1.385 . S
C4942 H4923 0.951 . S
C4942 C4940 1.388 . S
C4942 C4943 1.366 . S
C4943 C4942 1.366 . S
C4943 C4944 1.414 . S
C4943 C4946 1.499 . S
C4944 H4924 0.950 . S
C4944 C4943 1.414 . S
C4944 C4945 1.374 . S
C4945 H4925 0.950 . S
C4945 C4941 1.385 . S
C4945 C4944 1.374 . S
C4946 C4943 1.499 . S
C4946 C4947 1.373 . S
C4946 C4948 1.389 . S
C4947 H4926 0.950 . S
C4947 C4946 1.373 . S
C4947 C4963 1.377 . S
C4948 C4946 1.389 . S
C4948 C4949 1.524 . S
C4948 C4962 1.377 . S
C4949 C4948 1.524 . S
C4949 C4950 1.397 . S
C4949 C4954 1.363 . S
C4950 H4927 0.950 . S
C4950 C4949 1.397 . S
C4950 C4951 1.334 . S
C4951 H4928 0.950 . S
C4951 C4950 1.334 . S
C4951 C4952 1.287 . S
C4952 C4951 1.287 . S
C4952 C4953 1.524 . S
C4952 H4971 0.913 . S
C4953 H4929 0.950 . S
C4953 C4952 1.524 . S
C4953 C4954 1.415 . S
C4954 H4930 0.950 . S
C4954 C4949 1.363 . S
C4954 C4953 1.415 . S
C4955 H4931 0.951 . S
C4955 C4956 1.366 . S
C4955 C4957 1.388 . S
C4956 C4955 1.366 . S
C4956 C4960 1.385 . S
C4957 H4932 0.951 . S
C4957 C4955 1.388 . S
C4957 C4958 1.366 . S
C4958 C4957 1.366 . S
C4958 C4959 1.414 . S
C4958 C4961 1.499 . S
C4959 H4933 0.950 . S
C4959 C4958 1.414 . S
C4959 C4960 1.374 . S
C4960 H4934 0.950 . S
C4960 C4956 1.385 . S
C4960 C4959 1.374 . S
C4961 C4958 1.499 . S
C4961 C4962 1.373 . S
C4961 C4963 1.389 . S
C4962 H4935 0.950 . S
C4962 C4948 1.377 . S
C4962 C4961 1.373 . S
C4963 C4947 1.377 . S
C4963 C4961 1.389 . S
C4963 C4964 1.524 . S
C4964 C4963 1.524 . S
C4964 C4965 1.397 . S
C4964 C4969 1.363 . S
C4965 H4936 0.950 . S
C4965 C4964 1.397 . S
C4965 C4966 1.334 . S
C4966 H4937 0.950 . S
C4966 C4965 1.334 . S
C4966 C4967 1.287 . S
C4967 C4966 1.287 . S
C4967 C4968 1.524 . S
C4967 H4970 0.999 . S
C4968 H4938 0.950 . S
C4968 C4967 1.524 . S
C4968 C4969 1.415 . S
C4969 H4939 0.950 . S
C4969 C4964 1.363 . S
C4969 C4968 1.415 . S
H4970 C4967 0.999 . S
H4971 C4952 0.913 . S
H4972 C4990 0.951 . S
H4973 C4992 0.951 . S
H4974 C4994 0.950 . S
H4975 C4995 0.950 . S
H4976 C4997 0.950 . S
H4977 C5000 0.950 . S
H4978 C5001 0.950 . S
H4979 C5003 0.950 . S
H4980 C5004 0.950 . S
H4981 C5005 0.951 . S
H4982 C5007 0.951 . S
H4983 C5009 0.950 . S
H4984 C5010 0.950 . S
H4985 C5012 0.950 . S
H4986 C5015 0.950 . S
H4987 C5016 0.950 . S
H4988 C5018 0.950 . S
H4989 C5019 0.950 . S
C4990 H4972 0.951 . S
C4990 C4991 1.366 . S
C4990 C4992 1.388 . S
C4991 C4990 1.366 . S
C4991 C4995 1.385 . S
C4992 H4973 0.951 . S
C4992 C4990 1.388 . S
C4992 C4993 1.366 . S
C4993 C4992 1.366 . S
C4993 C4994 1.414 . S
C4993 C4996 1.499 . S
C4994 H4974 0.950 . S
C4994 C4993 1.414 . S
C4994 C4995 1.374 . S
C4995 H4975 0.950 . S
C4995 C4991 1.385 . S
C4995 C4994 1.374 . S
C4996 C4993 1.499 . S
C4996 C4997 1.373 . S
C4996 C4998 1.389 . S
C4997 H4976 0.950 . S
C4997 C4996 1.373 . S
C4997 C5013 1.377 . S
C4998 C4996 1.389 . S
C4998 C4999 1.524 . S
C4998 C5012 1.377 . S
C4999 C4998 1.524 . S
C4999 C5000 1.397 . S
C4999 C5004 1.363 . S
C5000 H4977 0.950 . S
C5000 C4999 1.397 . S
C5000 C5001 1.334 . S
C5001 H4978 0.950 . S
C5001 C5000 1.334 . S
C5001 C5002 1.287 . S
C5002 C5001 1.287 . S
C5002 C5003 1.524 . S
C5002 H5021 0.913 . S
C5003 H4979 0.950 . S
C5003 C5002 1.524 . S
C5003 C5004 1.415 . S
C5004 H4980 0.950 . S
C5004 C4999 1.363 . S
C5004 C5003 1.415 . S
C5005 H4981 0.951 . S
C5005 C5006 1.366 . S
C5005 C5007 1.388 . S
C5006 C5005 1.366 . S
C5006 C5010 1.385 . S
C5007 H4982 0.951 . S
C5007 C5005 1.388 . S
C5007 C5008 1.366 . S
C5008 C5007 1.366 . S
C5008 C5009 1.414 . S
C5008 C5011 1.499 . S
C5009 H4983 0.950 . S
C5009 C5008 1.414 . S
C5009 C5010 1.374 . S
C5010 H4984 0.950 . S
C5010 C5006 1.385 . S
C5010 C5009 1.374 . S
C5011 C5008 1.499 . S
C5011 C5012 1.373 . S
C5011 C5013 1.389 . S
C5012 H4985 0.950 . S
C5012 C4998 1.377 . S
C5012 C5011 1.373 . S
C5013 C4997 1.377 . S
C5013 C5011 1.389 . S
C5013 C5014 1.524 . S
C5014 C5013 1.524 . S
C5014 C5015 1.397 . S
C5014 C5019 1.363 . S
C5015 H4986 0.950 . S
C5015 C5014 1.397 . S
C5015 C5016 1.334 . S
C5016 H4987 0.950 . S
C5016 C5015 1.334 . S
C5016 C5017 1.287 . S
C5017 C5016 1.287 . S
C5017 C5018 1.524 . S
C5017 H5020 0.999 . S
C5018 H4988 0.950 . S
C5018 C5017 1.524 . S
C5018 C5019 1.415 . S
C5019 H4989 0.950 . S
C5019 C5014 1.363 . S
C5019 C5018 1.415 . S
H5020 C5017 0.999 . S
H5021 C5002 0.913 . S
H5022 C5040 0.951 . S
H5023 C5042 0.951 . S
H5024 C5044 0.950 . S
H5025 C5045 0.950 . S
H5026 C5047 0.950 . S
H5027 C5050 0.950 . S
H5028 C5051 0.950 . S
H5029 C5053 0.950 . S
H5030 C5054 0.950 . S
H5031 C5055 0.951 . S
H5032 C5057 0.951 . S
H5033 C5059 0.950 . S
H5034 C5060 0.950 . S
H5035 C5062 0.950 . S
H5036 C5065 0.950 . S
H5037 C5066 0.950 . S
H5038 C5068 0.950 . S
H5039 C5069 0.950 . S
C5040 H5022 0.951 . S
C5040 C5041 1.366 . S
C5040 C5042 1.388 . S
C5041 C5040 1.366 . S
C5041 C5045 1.385 . S
C5042 H5023 0.951 . S
C5042 C5040 1.388 . S
C5042 C5043 1.366 . S
C5043 C5042 1.366 . S
C5043 C5044 1.414 . S
C5043 C5046 1.499 . S
C5044 H5024 0.950 . S
C5044 C5043 1.414 . S
C5044 C5045 1.374 . S
C5045 H5025 0.950 . S
C5045 C5041 1.385 . S
C5045 C5044 1.374 . S
C5046 C5043 1.499 . S
C5046 C5047 1.373 . S
C5046 C5048 1.389 . S
C5047 H5026 0.950 . S
C5047 C5046 1.373 . S
C5047 C5063 1.377 . S
C5048 C5046 1.389 . S
C5048 C5049 1.524 . S
C5048 C5062 1.377 . S
C5049 C5048 1.524 . S
C5049 C5050 1.397 . S
C5049 C5054 1.363 . S
C5050 H5027 0.950 . S
C5050 C5049 1.397 . S
C5050 C5051 1.334 . S
C5051 H5028 0.950 . S
C5051 C5050 1.334 . S
C5051 C5052 1.287 . S
C5052 C5051 1.287 . S
C5052 C5053 1.524 . S
C5052 H5071 0.913 . S
C5053 H5029 0.950 . S
C5053 C5052 1.524 . S
C5053 C5054 1.415 . S
C5054 H5030 0.950 . S
C5054 C5049 1.363 . S
C5054 C5053 1.415 . S
C5055 H5031 0.951 . S
C5055 C5056 1.366 . S
C5055 C5057 1.388 . S
C5056 C5055 1.366 . S
C5056 C5060 1.385 . S
C5057 H5032 0.951 . S
C5057 C5055 1.388 . S
C5057 C5058 1.366 . S
C5058 C5057 1.366 . S
C5058 C5059 1.414 . S
C5058 C5061 1.499 . S
C5059 H5033 0.950 . S
C5059 C5058 1.414 . S
C5059 C5060 1.374 . S
C5060 H5034 0.950 . S
C5060 C5056 1.385 . S
C5060 C5059 1.374 . S
C5061 C5058 1.499 . S
C5061 C5062 1.373 . S
C5061 C5063 1.389 . S
C5062 H5035 0.950 . S
C5062 C5048 1.377 . S
C5062 C5061 1.373 . S
C5063 C5047 1.377 . S
C5063 C5061 1.389 . S
C5063 C5064 1.524 . S
C5064 C5063 1.524 . S
C5064 C5065 1.397 . S
C5064 C5069 1.363 . S
C5065 H5036 0.950 . S
C5065 C5064 1.397 . S
C5065 C5066 1.334 . S
C5066 H5037 0.950 . S
C5066 C5065 1.334 . S
C5066 C5067 1.287 . S
C5067 C5066 1.287 . S
C5067 C5068 1.524 . S
C5067 H5070 0.999 . S
C5068 H5038 0.950 . S
C5068 C5067 1.524 . S
C5068 C5069 1.415 . S
C5069 H5039 0.950 . S
C5069 C5064 1.363 . S
C5069 C5068 1.415 . S
H5070 C5067 0.999 . S
H5071 C5052 0.913 . S
H5072 C5090 0.951 . S
H5073 C5092 0.951 . S
H5074 C5094 0.950 . S
H5075 C5095 0.950 . S
H5076 C5097 0.950 . S
H5077 C5100 0.950 . S
H5078 C5101 0.950 . S
H5079 C5103 0.950 . S
H5080 C5104 0.950 . S
H5081 C5105 0.951 . S
H5082 C5107 0.951 . S
H5083 C5109 0.950 . S
H5084 C5110 0.950 . S
H5085 C5112 0.950 . S
H5086 C5115 0.950 . S
H5087 C5116 0.950 . S
H5088 C5118 0.950 . S
H5089 C5119 0.950 . S
C5090 H5072 0.951 . S
C5090 C5091 1.366 . S
C5090 C5092 1.388 . S
C5091 C5090 1.366 . S
C5091 C5095 1.385 . S
C5092 H5073 0.951 . S
C5092 C5090 1.388 . S
C5092 C5093 1.366 . S
C5093 C5092 1.366 . S
C5093 C5094 1.414 . S
C5093 C5096 1.499 . S
C5094 H5074 0.950 . S
C5094 C5093 1.414 . S
C5094 C5095 1.374 . S
C5095 H5075 0.950 . S
C5095 C5091 1.385 . S
C5095 C5094 1.374 . S
C5096 C5093 1.499 . S
C5096 C5097 1.373 . S
C5096 C5098 1.389 . S
C5097 H5076 0.950 . S
C5097 C5096 1.373 . S
C5097 C5113 1.377 . S
C5098 C5096 1.389 . S
C5098 C5099 1.524 . S
C5098 C5112 1.377 . S
C5099 C5098 1.524 . S
C5099 C5100 1.397 . S
C5099 C5104 1.363 . S
C5100 H5077 0.950 . S
C5100 C5099 1.397 . S
C5100 C5101 1.334 . S
C5101 H5078 0.950 . S
C5101 C5100 1.334 . S
C5101 C5102 1.287 . S
C5102 C5101 1.287 . S
C5102 C5103 1.524 . S
C5102 H5121 0.913 . S
C5103 H5079 0.950 . S
C5103 C5102 1.524 . S
C5103 C5104 1.415 . S
C5104 H5080 0.950 . S
C5104 C5099 1.363 . S
C5104 C5103 1.415 . S
C5105 H5081 0.951 . S
C5105 C5106 1.366 . S
C5105 C5107 1.388 . S
C5106 C5105 1.366 . S
C5106 C5110 1.385 . S
C5107 H5082 0.951 . S
C5107 C5105 1.388 . S
C5107 C5108 1.366 . S
C5108 C5107 1.366 . S
C5108 C5109 1.414 . S
C5108 C5111 1.499 . S
C5109 H5083 0.950 . S
C5109 C5108 1.414 . S
C5109 C5110 1.374 . S
C5110 H5084 0.950 . S
C5110 C5106 1.385 . S
C5110 C5109 1.374 . S
C5111 C5108 1.499 . S
C5111 C5112 1.373 . S
C5111 C5113 1.389 . S
C5112 H5085 0.950 . S
C5112 C5098 1.377 . S
C5112 C5111 1.373 . S
C5113 C5097 1.377 . S
C5113 C5111 1.389 . S
C5113 C5114 1.524 . S
C5114 C5113 1.524 . S
C5114 C5115 1.397 . S
C5114 C5119 1.363 . S
C5115 H5086 0.950 . S
C5115 C5114 1.397 . S
C5115 C5116 1.334 . S
C5116 H5087 0.950 . S
C5116 C5115 1.334 . S
C5116 C5117 1.287 . S
C5117 C5116 1.287 . S
C5117 C5118 1.524 . S
C5117 H5120 0.999 . S
C5118 H5088 0.950 . S
C5118 C5117 1.524 . S
C5118 C5119 1.415 . S
C5119 H5089 0.950 . S
C5119 C5114 1.363 . S
C5119 C5118 1.415 . S
H5120 C5117 0.999 . S
H5121 C5102 0.913 . S
H5122 C5140 0.951 . S
H5123 C5142 0.951 . S
H5124 C5144 0.950 . S
H5125 C5145 0.950 . S
H5126 C5147 0.950 . S
H5127 C5150 0.950 . S
H5128 C5151 0.950 . S
H5129 C5153 0.950 . S
H5130 C5154 0.950 . S
H5131 C5155 0.951 . S
H5132 C5157 0.951 . S
H5133 C5159 0.950 . S
H5134 C5160 0.950 . S
H5135 C5162 0.950 . S
H5136 C5165 0.950 . S
H5137 C5166 0.950 . S
H5138 C5168 0.950 . S
H5139 C5169 0.950 . S
C5140 H5122 0.951 . S
C5140 C5141 1.366 . S
C5140 C5142 1.388 . S
C5141 C5140 1.366 . S
C5141 C5145 1.385 . S
C5142 H5123 0.951 . S
C5142 C5140 1.388 . S
C5142 C5143 1.366 . S
C5143 C5142 1.366 . S
C5143 C5144 1.414 . S
C5143 C5146 1.499 . S
C5144 H5124 0.950 . S
C5144 C5143 1.414 . S
C5144 C5145 1.374 . S
C5145 H5125 0.950 . S
C5145 C5141 1.385 . S
C5145 C5144 1.374 . S
C5146 C5143 1.499 . S
C5146 C5147 1.373 . S
C5146 C5148 1.389 . S
C5147 H5126 0.950 . S
C5147 C5146 1.373 . S
C5147 C5163 1.377 . S
C5148 C5146 1.389 . S
C5148 C5149 1.524 . S
C5148 C5162 1.377 . S
C5149 C5148 1.524 . S
C5149 C5150 1.397 . S
C5149 C5154 1.363 . S
C5150 H5127 0.950 . S
C5150 C5149 1.397 . S
C5150 C5151 1.334 . S
C5151 H5128 0.950 . S
C5151 C5150 1.334 . S
C5151 C5152 1.287 . S
C5152 C5151 1.287 . S
C5152 C5153 1.524 . S
C5152 H5171 0.913 . S
C5153 H5129 0.950 . S
C5153 C5152 1.524 . S
C5153 C5154 1.415 . S
C5154 H5130 0.950 . S
C5154 C5149 1.363 . S
C5154 C5153 1.415 . S
C5155 H5131 0.951 . S
C5155 C5156 1.366 . S
C5155 C5157 1.388 . S
C5156 C5155 1.366 . S
C5156 C5160 1.385 . S
C5157 H5132 0.951 . S
C5157 C5155 1.388 . S
C5157 C5158 1.366 . S
C5158 C5157 1.366 . S
C5158 C5159 1.414 . S
C5158 C5161 1.499 . S
C5159 H5133 0.950 . S
C5159 C5158 1.414 . S
C5159 C5160 1.374 . S
C5160 H5134 0.950 . S
C5160 C5156 1.385 . S
C5160 C5159 1.374 . S
C5161 C5158 1.499 . S
C5161 C5162 1.373 . S
C5161 C5163 1.389 . S
C5162 H5135 0.950 . S
C5162 C5148 1.377 . S
C5162 C5161 1.373 . S
C5163 C5147 1.377 . S
C5163 C5161 1.389 . S
C5163 C5164 1.524 . S
C5164 C5163 1.524 . S
C5164 C5165 1.397 . S
C5164 C5169 1.363 . S
C5165 H5136 0.950 . S
C5165 C5164 1.397 . S
C5165 C5166 1.334 . S
C5166 H5137 0.950 . S
C5166 C5165 1.334 . S
C5166 C5167 1.287 . S
C5167 C5166 1.287 . S
C5167 C5168 1.524 . S
C5167 H5170 0.999 . S
C5168 H5138 0.950 . S
C5168 C5167 1.524 . S
C5168 C5169 1.415 . S
C5169 H5139 0.950 . S
C5169 C5164 1.363 . S
C5169 C5168 1.415 . S
H5170 C5167 0.999 . S
H5171 C5152 0.913 . S
H5172 C5190 0.951 . S
H5173 C5192 0.951 . S
H5174 C5194 0.950 . S
H5175 C5195 0.950 . S
H5176 C5197 0.950 . S
H5177 C5200 0.950 . S
H5178 C5201 0.950 . S
H5179 C5203 0.950 . S
H5180 C5204 0.950 . S
H5181 C5205 0.951 . S
H5182 C5207 0.951 . S
H5183 C5209 0.950 . S
H5184 C5210 0.950 . S
H5185 C5212 0.950 . S
H5186 C5215 0.950 . S
H5187 C5216 0.950 . S
H5188 C5218 0.950 . S
H5189 C5219 0.950 . S
C5190 H5172 0.951 . S
C5190 C5191 1.366 . S
C5190 C5192 1.388 . S
C5191 C5190 1.366 . S
C5191 C5195 1.385 . S
C5192 H5173 0.951 . S
C5192 C5190 1.388 . S
C5192 C5193 1.366 . S
C5193 C5192 1.366 . S
C5193 C5194 1.414 . S
C5193 C5196 1.499 . S
C5194 H5174 0.950 . S
C5194 C5193 1.414 . S
C5194 C5195 1.374 . S
C5195 H5175 0.950 . S
C5195 C5191 1.385 . S
C5195 C5194 1.374 . S
C5196 C5193 1.499 . S
C5196 C5197 1.373 . S
C5196 C5198 1.389 . S
C5197 H5176 0.950 . S
C5197 C5196 1.373 . S
C5197 C5213 1.377 . S
C5198 C5196 1.389 . S
C5198 C5199 1.524 . S
C5198 C5212 1.377 . S
C5199 C5198 1.524 . S
C5199 C5200 1.397 . S
C5199 C5204 1.363 . S
C5200 H5177 0.950 . S
C5200 C5199 1.397 . S
C5200 C5201 1.334 . S
C5201 H5178 0.950 . S
C5201 C5200 1.334 . S
C5201 C5202 1.287 . S
C5202 C5201 1.287 . S
C5202 C5203 1.524 . S
C5202 H5221 0.913 . S
C5203 H5179 0.950 . S
C5203 C5202 1.524 . S
C5203 C5204 1.415 . S
C5204 H5180 0.950 . S
C5204 C5199 1.363 . S
C5204 C5203 1.415 . S
C5205 H5181 0.951 . S
C5205 C5206 1.366 . S
C5205 C5207 1.388 . S
C5206 C5205 1.366 . S
C5206 C5210 1.385 . S
C5207 H5182 0.951 . S
C5207 C5205 1.388 . S
C5207 C5208 1.366 . S
C5208 C5207 1.366 . S
C5208 C5209 1.414 . S
C5208 C5211 1.499 . S
C5209 H5183 0.950 . S
C5209 C5208 1.414 . S
C5209 C5210 1.374 . S
C5210 H5184 0.950 . S
C5210 C5206 1.385 . S
C5210 C5209 1.374 . S
C5211 C5208 1.499 . S
C5211 C5212 1.373 . S
C5211 C5213 1.389 . S
C5212 H5185 0.950 . S
C5212 C5198 1.377 . S
C5212 C5211 1.373 . S
C5213 C5197 1.377 . S
C5213 C5211 1.389 . S
C5213 C5214 1.524 . S
C5214 C5213 1.524 . S
C5214 C5215 1.397 . S
C5214 C5219 1.363 . S
C5215 H5186 0.950 . S
C5215 C5214 1.397 . S
C5215 C5216 1.334 . S
C5216 H5187 0.950 . S
C5216 C5215 1.334 . S
C5216 C5217 1.287 . S
C5217 C5216 1.287 . S
C5217 C5218 1.524 . S
C5217 H5220 0.999 . S
C5218 H5188 0.950 . S
C5218 C5217 1.524 . S
C5218 C5219 1.415 . S
C5219 H5189 0.950 . S
C5219 C5214 1.363 . S
C5219 C5218 1.415 . S
H5220 C5217 0.999 . S
H5221 C5202 0.913 . S
H5222 C5240 0.951 . S
H5223 C5242 0.951 . S
H5224 C5244 0.950 . S
H5225 C5245 0.950 . S
H5226 C5247 0.950 . S
H5227 C5250 0.950 . S
H5228 C5251 0.950 . S
H5229 C5253 0.950 . S
H5230 C5254 0.950 . S
H5231 C5255 0.951 . S
H5232 C5257 0.951 . S
H5233 C5259 0.950 . S
H5234 C5260 0.950 . S
H5235 C5262 0.950 . S
H5236 C5265 0.950 . S
H5237 C5266 0.950 . S
H5238 C5268 0.950 . S
H5239 C5269 0.950 . S
C5240 H5222 0.951 . S
C5240 C5241 1.366 . S
C5240 C5242 1.388 . S
C5241 C5240 1.366 . S
C5241 C5245 1.385 . S
C5242 H5223 0.951 . S
C5242 C5240 1.388 . S
C5242 C5243 1.366 . S
C5243 C5242 1.366 . S
C5243 C5244 1.414 . S
C5243 C5246 1.499 . S
C5244 H5224 0.950 . S
C5244 C5243 1.414 . S
C5244 C5245 1.374 . S
C5245 H5225 0.950 . S
C5245 C5241 1.385 . S
C5245 C5244 1.374 . S
C5246 C5243 1.499 . S
C5246 C5247 1.373 . S
C5246 C5248 1.389 . S
C5247 H5226 0.950 . S
C5247 C5246 1.373 . S
C5247 C5263 1.377 . S
C5248 C5246 1.389 . S
C5248 C5249 1.524 . S
C5248 C5262 1.377 . S
C5249 C5248 1.524 . S
C5249 C5250 1.397 . S
C5249 C5254 1.363 . S
C5250 H5227 0.950 . S
C5250 C5249 1.397 . S
C5250 C5251 1.334 . S
C5251 H5228 0.950 . S
C5251 C5250 1.334 . S
C5251 C5252 1.287 . S
C5252 C5251 1.287 . S
C5252 C5253 1.524 . S
C5252 H5271 0.913 . S
C5253 H5229 0.950 . S
C5253 C5252 1.524 . S
C5253 C5254 1.415 . S
C5254 H5230 0.950 . S
C5254 C5249 1.363 . S
C5254 C5253 1.415 . S
C5255 H5231 0.951 . S
C5255 C5256 1.366 . S
C5255 C5257 1.388 . S
C5256 C5255 1.366 . S
C5256 C5260 1.385 . S
C5257 H5232 0.951 . S
C5257 C5255 1.388 . S
C5257 C5258 1.366 . S
C5258 C5257 1.366 . S
C5258 C5259 1.414 . S
C5258 C5261 1.499 . S
C5259 H5233 0.950 . S
C5259 C5258 1.414 . S
C5259 C5260 1.374 . S
C5260 H5234 0.950 . S
C5260 C5256 1.385 . S
C5260 C5259 1.374 . S
C5261 C5258 1.499 . S
C5261 C5262 1.373 . S
C5261 C5263 1.389 . S
C5262 H5235 0.950 . S
C5262 C5248 1.377 . S
C5262 C5261 1.373 . S
C5263 C5247 1.377 . S
C5263 C5261 1.389 . S
C5263 C5264 1.524 . S
C5264 C5263 1.524 . S
C5264 C5265 1.397 . S
C5264 C5269 1.363 . S
C5265 H5236 0.950 . S
C5265 C5264 1.397 . S
C5265 C5266 1.334 . S
C5266 H5237 0.950 . S
C5266 C5265 1.334 . S
C5266 C5267 1.287 . S
C5267 C5266 1.287 . S
C5267 C5268 1.524 . S
C5267 H5270 0.999 . S
C5268 H5238 0.950 . S
C5268 C5267 1.524 . S
C5268 C5269 1.415 . S
C5269 H5239 0.950 . S
C5269 C5264 1.363 . S
C5269 C5268 1.415 . S
H5270 C5267 0.999 . S
H5271 C5252 0.913 . S
H5272 C5290 0.951 . S
H5273 C5292 0.951 . S
H5274 C5294 0.950 . S
H5275 C5295 0.950 . S
H5276 C5297 0.950 . S
H5277 C5300 0.950 . S
H5278 C5301 0.950 . S
H5279 C5303 0.950 . S
H5280 C5304 0.950 . S
H5281 C5305 0.951 . S
H5282 C5307 0.951 . S
H5283 C5309 0.950 . S
H5284 C5310 0.950 . S
H5285 C5312 0.950 . S
H5286 C5315 0.950 . S
H5287 C5316 0.950 . S
H5288 C5318 0.950 . S
H5289 C5319 0.950 . S
C5290 H5272 0.951 . S
C5290 C5291 1.366 . S
C5290 C5292 1.388 . S
C5291 C5290 1.366 . S
C5291 C5295 1.385 . S
C5292 H5273 0.951 . S
C5292 C5290 1.388 . S
C5292 C5293 1.366 . S
C5293 C5292 1.366 . S
C5293 C5294 1.414 . S
C5293 C5296 1.499 . S
C5294 H5274 0.950 . S
C5294 C5293 1.414 . S
C5294 C5295 1.374 . S
C5295 H5275 0.950 . S
C5295 C5291 1.385 . S
C5295 C5294 1.374 . S
C5296 C5293 1.499 . S
C5296 C5297 1.373 . S
C5296 C5298 1.389 . S
C5297 H5276 0.950 . S
C5297 C5296 1.373 . S
C5297 C5313 1.377 . S
C5298 C5296 1.389 . S
C5298 C5299 1.524 . S
C5298 C5312 1.377 . S
C5299 C5298 1.524 . S
C5299 C5300 1.397 . S
C5299 C5304 1.363 . S
C5300 H5277 0.950 . S
C5300 C5299 1.397 . S
C5300 C5301 1.334 . S
C5301 H5278 0.950 . S
C5301 C5300 1.334 . S
C5301 C5302 1.287 . S
C5302 C5301 1.287 . S
C5302 C5303 1.524 . S
C5302 H5321 0.913 . S
C5303 H5279 0.950 . S
C5303 C5302 1.524 . S
C5303 C5304 1.415 . S
C5304 H5280 0.950 . S
C5304 C5299 1.363 . S
C5304 C5303 1.415 . S
C5305 H5281 0.951 . S
C5305 C5306 1.366 . S
C5305 C5307 1.388 . S
C5306 C5305 1.366 . S
C5306 C5310 1.385 . S
C5307 H5282 0.951 . S
C5307 C5305 1.388 . S
C5307 C5308 1.366 . S
C5308 C5307 1.366 . S
C5308 C5309 1.414 . S
C5308 C5311 1.499 . S
C5309 H5283 0.950 . S
C5309 C5308 1.414 . S
C5309 C5310 1.374 . S
C5310 H5284 0.950 . S
C5310 C5306 1.385 . S
C5310 C5309 1.374 . S
C5311 C5308 1.499 . S
C5311 C5312 1.373 . S
C5311 C5313 1.389 . S
C5312 H5285 0.950 . S
C5312 C5298 1.377 . S
C5312 C5311 1.373 . S
C5313 C5297 1.377 . S
C5313 C5311 1.389 . S
C5313 C5314 1.524 . S
C5314 C5313 1.524 . S
C5314 C5315 1.397 . S
C5314 C5319 1.363 . S
C5315 H5286 0.950 . S
C5315 C5314 1.397 . S
C5315 C5316 1.334 . S
C5316 H5287 0.950 . S
C5316 C5315 1.334 . S
C5316 C5317 1.287 . S
C5317 C5316 1.287 . S
C5317 C5318 1.524 . S
C5317 H5320 0.999 . S
C5318 H5288 0.950 . S
C5318 C5317 1.524 . S
C5318 C5319 1.415 . S
C5319 H5289 0.950 . S
C5319 C5314 1.363 . S
C5319 C5318 1.415 . S
H5320 C5317 0.999 . S
H5321 C5302 0.913 . S
H5322 C5340 0.951 . S
H5323 C5342 0.951 . S
H5324 C5344 0.950 . S
H5325 C5345 0.950 . S
H5326 C5347 0.950 . S
H5327 C5350 0.950 . S
H5328 C5351 0.950 . S
H5329 C5353 0.950 . S
H5330 C5354 0.950 . S
H5331 C5355 0.951 . S
H5332 C5357 0.951 . S
H5333 C5359 0.950 . S
H5334 C5360 0.950 . S
H5335 C5362 0.950 . S
H5336 C5365 0.950 . S
H5337 C5366 0.950 . S
H5338 C5368 0.950 . S
H5339 C5369 0.950 . S
C5340 H5322 0.951 . S
C5340 C5341 1.366 . S
C5340 C5342 1.388 . S
C5341 C5340 1.366 . S
C5341 C5345 1.385 . S
C5342 H5323 0.951 . S
C5342 C5340 1.388 . S
C5342 C5343 1.366 . S
C5343 C5342 1.366 . S
C5343 C5344 1.414 . S
C5343 C5346 1.499 . S
C5344 H5324 0.950 . S
C5344 C5343 1.414 . S
C5344 C5345 1.374 . S
C5345 H5325 0.950 . S
C5345 C5341 1.385 . S
C5345 C5344 1.374 . S
C5346 C5343 1.499 . S
C5346 C5347 1.373 . S
C5346 C5348 1.389 . S
C5347 H5326 0.950 . S
C5347 C5346 1.373 . S
C5347 C5363 1.377 . S
C5348 C5346 1.389 . S
C5348 C5349 1.524 . S
C5348 C5362 1.377 . S
C5349 C5348 1.524 . S
C5349 C5350 1.397 . S
C5349 C5354 1.363 . S
C5350 H5327 0.950 . S
C5350 C5349 1.397 . S
C5350 C5351 1.334 . S
C5351 H5328 0.950 . S
C5351 C5350 1.334 . S
C5351 C5352 1.287 . S
C5352 C5351 1.287 . S
C5352 C5353 1.524 . S
C5352 H5371 0.913 . S
C5353 H5329 0.950 . S
C5353 C5352 1.524 . S
C5353 C5354 1.415 . S
C5354 H5330 0.950 . S
C5354 C5349 1.363 . S
C5354 C5353 1.415 . S
C5355 H5331 0.951 . S
C5355 C5356 1.366 . S
C5355 C5357 1.388 . S
C5356 C5355 1.366 . S
C5356 C5360 1.385 . S
C5357 H5332 0.951 . S
C5357 C5355 1.388 . S
C5357 C5358 1.366 . S
C5358 C5357 1.366 . S
C5358 C5359 1.414 . S
C5358 C5361 1.499 . S
C5359 H5333 0.950 . S
C5359 C5358 1.414 . S
C5359 C5360 1.374 . S
C5360 H5334 0.950 . S
C5360 C5356 1.385 . S
C5360 C5359 1.374 . S
C5361 C5358 1.499 . S
C5361 C5362 1.373 . S
C5361 C5363 1.389 . S
C5362 H5335 0.950 . S
C5362 C5348 1.377 . S
C5362 C5361 1.373 . S
C5363 C5347 1.377 . S
C5363 C5361 1.389 . S
C5363 C5364 1.524 . S
C5364 C5363 1.524 . S
C5364 C5365 1.397 . S
C5364 C5369 1.363 . S
C5365 H5336 0.950 . S
C5365 C5364 1.397 . S
C5365 C5366 1.334 . S
C5366 H5337 0.950 . S
C5366 C5365 1.334 . S
C5366 C5367 1.287 . S
C5367 C5366 1.287 . S
C5367 C5368 1.524 . S
C5367 H5370 0.999 . S
C5368 H5338 0.950 . S
C5368 C5367 1.524 . S
C5368 C5369 1.415 . S
C5369 H5339 0.950 . S
C5369 C5364 1.363 . S
C5369 C5368 1.415 . S
H5370 C5367 0.999 . S
H5371 C5352 0.913 . S
H5372 C5390 0.951 . S
H5373 C5392 0.951 . S
H5374 C5394 0.950 . S
H5375 C5395 0.950 . S
H5376 C5397 0.950 . S
H5377 C5400 0.950 . S
H5378 C5401 0.950 . S
H5379 C5403 0.950 . S
H5380 C5404 0.950 . S
H5381 C5405 0.951 . S
H5382 C5407 0.951 . S
H5383 C5409 0.950 . S
H5384 C5410 0.950 . S
H5385 C5412 0.950 . S
H5386 C5415 0.950 . S
H5387 C5416 0.950 . S
H5388 C5418 0.950 . S
H5389 C5419 0.950 . S
C5390 H5372 0.951 . S
C5390 C5391 1.366 . S
C5390 C5392 1.388 . S
C5391 C5390 1.366 . S
C5391 C5395 1.385 . S
C5392 H5373 0.951 . S
C5392 C5390 1.388 . S
C5392 C5393 1.366 . S
C5393 C5392 1.366 . S
C5393 C5394 1.414 . S
C5393 C5396 1.499 . S
C5394 H5374 0.950 . S
C5394 C5393 1.414 . S
C5394 C5395 1.374 . S
C5395 H5375 0.950 . S
C5395 C5391 1.385 . S
C5395 C5394 1.374 . S
C5396 C5393 1.499 . S
C5396 C5397 1.373 . S
C5396 C5398 1.389 . S
C5397 H5376 0.950 . S
C5397 C5396 1.373 . S
C5397 C5413 1.377 . S
C5398 C5396 1.389 . S
C5398 C5399 1.524 . S
C5398 C5412 1.377 . S
C5399 C5398 1.524 . S
C5399 C5400 1.397 . S
C5399 C5404 1.363 . S
C5400 H5377 0.950 . S
C5400 C5399 1.397 . S
C5400 C5401 1.334 . S
C5401 H5378 0.950 . S
C5401 C5400 1.334 . S
C5401 C5402 1.287 . S
C5402 C5401 1.287 . S
C5402 C5403 1.524 . S
C5402 H5421 0.913 . S
C5403 H5379 0.950 . S
C5403 C5402 1.524 . S
C5403 C5404 1.415 . S
C5404 H5380 0.950 . S
C5404 C5399 1.363 . S
C5404 C5403 1.415 . S
C5405 H5381 0.951 . S
C5405 C5406 1.366 . S
C5405 C5407 1.388 . S
C5406 C5405 1.366 . S
C5406 C5410 1.385 . S
C5407 H5382 0.951 . S
C5407 C5405 1.388 . S
C5407 C5408 1.366 . S
C5408 C5407 1.366 . S
C5408 C5409 1.414 . S
C5408 C5411 1.499 . S
C5409 H5383 0.950 . S
C5409 C5408 1.414 . S
C5409 C5410 1.374 . S
C5410 H5384 0.950 . S
C5410 C5406 1.385 . S
C5410 C5409 1.374 . S
C5411 C5408 1.499 . S
C5411 C5412 1.373 . S
C5411 C5413 1.389 . S
C5412 H5385 0.950 . S
C5412 C5398 1.377 . S
C5412 C5411 1.373 . S
C5413 C5397 1.377 . S
C5413 C5411 1.389 . S
C5413 C5414 1.524 . S
C5414 C5413 1.524 . S
C5414 C5415 1.397 . S
C5414 C5419 1.363 . S
C5415 H5386 0.950 . S
C5415 C5414 1.397 . S
C5415 C5416 1.334 . S
C5416 H5387 0.950 . S
C5416 C5415 1.334 . S
C5416 C5417 1.287 . S
C5417 C5416 1.287 . S
C5417 C5418 1.524 . S
C5417 H5420 0.999 . S
C5418 H5388 0.950 . S
C5418 C5417 1.524 . S
C5418 C5419 1.415 . S
C5419 H5389 0.950 . S
C5419 C5414 1.363 . S
C5419 C5418 1.415 . S
H5420 C5417 0.999 . S
H5421 C5402 0.913 . S
H5422 C5440 0.951 . S
H5423 C5442 0.951 . S
H5424 C5444 0.950 . S
H5425 C5445 0.950 . S
H5426 C5447 0.950 . S
H5427 C5450 0.950 . S
H5428 C5451 0.950 . S
H5429 C5453 0.950 . S
H5430 C5454 0.950 . S
H5431 C5455 0.951 . S
H5432 C5457 0.951 . S
H5433 C5459 0.950 . S
H5434 C5460 0.950 . S
H5435 C5462 0.950 . S
H5436 C5465 0.950 . S
H5437 C5466 0.950 . S
H5438 C5468 0.950 . S
H5439 C5469 0.950 . S
C5440 H5422 0.951 . S
C5440 C5441 1.366 . S
C5440 C5442 1.388 . S
C5441 C5440 1.366 . S
C5441 C5445 1.385 . S
C5442 H5423 0.951 . S
C5442 C5440 1.388 . S
C5442 C5443 1.366 . S
C5443 C5442 1.366 . S
C5443 C5444 1.414 . S
C5443 C5446 1.499 . S
C5444 H5424 0.950 . S
C5444 C5443 1.414 . S
C5444 C5445 1.374 . S
C5445 H5425 0.950 . S
C5445 C5441 1.385 . S
C5445 C5444 1.374 . S
C5446 C5443 1.499 . S
C5446 C5447 1.373 . S
C5446 C5448 1.389 . S
C5447 H5426 0.950 . S
C5447 C5446 1.373 . S
C5447 C5463 1.377 . S
C5448 C5446 1.389 . S
C5448 C5449 1.524 . S
C5448 C5462 1.377 . S
C5449 C5448 1.524 . S
C5449 C5450 1.397 . S
C5449 C5454 1.363 . S
C5450 H5427 0.950 . S
C5450 C5449 1.397 . S
C5450 C5451 1.334 . S
C5451 H5428 0.950 . S
C5451 C5450 1.334 . S
C5451 C5452 1.287 . S
C5452 C5451 1.287 . S
C5452 C5453 1.524 . S
C5452 H5471 0.913 . S
C5453 H5429 0.950 . S
C5453 C5452 1.524 . S
C5453 C5454 1.415 . S
C5454 H5430 0.950 . S
C5454 C5449 1.363 . S
C5454 C5453 1.415 . S
C5455 H5431 0.951 . S
C5455 C5456 1.366 . S
C5455 C5457 1.388 . S
C5456 C5455 1.366 . S
C5456 C5460 1.385 . S
C5457 H5432 0.951 . S
C5457 C5455 1.388 . S
C5457 C5458 1.366 . S
C5458 C5457 1.366 . S
C5458 C5459 1.414 . S
C5458 C5461 1.499 . S
C5459 H5433 0.950 . S
C5459 C5458 1.414 . S
C5459 C5460 1.374 . S
C5460 H5434 0.950 . S
C5460 C5456 1.385 . S
C5460 C5459 1.374 . S
C5461 C5458 1.499 . S
C5461 C5462 1.373 . S
C5461 C5463 1.389 . S
C5462 H5435 0.950 . S
C5462 C5448 1.377 . S
C5462 C5461 1.373 . S
C5463 C5447 1.377 . S
C5463 C5461 1.389 . S
C5463 C5464 1.524 . S
C5464 C5463 1.524 . S
C5464 C5465 1.397 . S
C5464 C5469 1.363 . S
C5465 H5436 0.950 . S
C5465 C5464 1.397 . S
C5465 C5466 1.334 . S
C5466 H5437 0.950 . S
C5466 C5465 1.334 . S
C5466 C5467 1.287 . S
C5467 C5466 1.287 . S
C5467 C5468 1.524 . S
C5467 H5470 0.999 . S
C5468 H5438 0.950 . S
C5468 C5467 1.524 . S
C5468 C5469 1.415 . S
C5469 H5439 0.950 . S
C5469 C5464 1.363 . S
C5469 C5468 1.415 . S
H5470 C5467 0.999 . S
H5471 C5452 0.913 . S
C691 C7 0.863 . S
C706 C371 0.859 . S
C741 C385 0.702 . S
C756 C21 0.696 . S
C791 C35 0.673 . S
C806 C343 0.675 . S
C841 C357 0.666 1_554 S
C856 C49 0.666 1_554 S
C891 C63 0.771 . S
C906 C427 0.770 . S
C941 C77 0.682 . S
C956 C441 0.684 . S
C991 C91 0.667 . S
C1006 C399 0.670 . S
C1041 C105 0.757 . S
C1056 C413 0.769 . S
C1091 C175 0.851 . S
C1106 C119 0.870 . S
C1141 C133 0.664 1_545 S
C1156 C189 0.667 1_545 S
C1191 C203 0.771 . S
C1206 C147 0.771 . S
C1241 C161 0.766 . S
C1256 C217 0.759 . S
C1291 C609 0.851 . S
C1306 C231 0.870 . S
C1341 C637 0.773 . S
C1356 C245 0.768 . S
C1391 C315 0.665 1_455 S
C1406 C259 0.668 1_455 S
C1441 C567 0.672 . S
C1456 C273 0.676 . S
C1491 C665 0.767 . S
C1506 C287 0.758 . S
C1541 C581 0.668 . S
C1556 C301 0.668 . S
C1591 C329 0.683 . S
C1606 C623 0.684 . S
C1641 C455 0.671 . S
C1656 C511 0.677 . S
C1691 C525 0.693 . S
C1706 C469 0.706 . S
C1741 C483 0.666 . S
C1756 C539 0.669 . S
C1791 C553 0.683 . S
C1806 C497 0.683 . S
C1841 C595 0.701 . S
C1856 C651 0.696 . S
C1891 C8 0.942 . S
C1906 C106 0.962 1_455 S
C1941 C64 0.883 . S
C1956 C22 0.901 1_455 S
C1991 C36 0.865 . S
C2006 C78 0.871 . S
C2041 C50 0.826 . S
C2056 C92 0.826 . S
C2091 C288 0.951 1_545 S
C2106 C120 0.961 . S
C2141 C582 0.827 . S
C2156 C134 0.825 . S
C2191 C148 0.915 . S
C2206 C596 0.909 . S
C2241 C162 0.970 . S
C2256 C610 0.955 . S
C2291 C666 0.968 . S
C2306 C176 0.952 . S
C2341 C190 0.817 . S
C2356 C302 0.808 . S
C2391 C204 0.882 . S
C2406 C652 0.899 1_545 S
C2441 C218 0.907 1_554 S
C2456 C232 0.958 . S
C2491 C246 0.916 . S
C2506 C470 0.909 . S
C2541 C260 0.824 . S
C2556 C484 0.823 . S
C2591 C498 0.871 . S
C2606 C274 0.864 . S
C2641 C316 0.818 . S
C2656 C540 0.810 . S
C2691 C512 0.865 . S
C2706 C330 0.874 . S
C2741 C442 0.863 . S
C2756 C344 0.876 . S
C2791 C358 0.817 . S
C2806 C400 0.807 . S
C2841 C414 0.969 . S
C2856 C372 0.953 . S
C2891 C386 0.907 . S
C2906 C428 0.915 . S
C2941 C456 0.878 . S
C2956 C624 0.867 . S
C2991 C638 0.883 . S
C3006 C526 0.899 1_554 S
C3041 C568 0.878 . S
C3056 C554 0.866 . S
C3091 C9 1.614 . S
C3106 C415 1.620 . S
C3141 C429 1.670 . S
C3156 C23 1.660 . S
C3191 C37 1.640 . S
C3206 C443 1.641 . S
C3241 C51 1.650 . S
C3256 C401 1.645 . S
C3291 C387 1.641 . S
C3306 C65 1.630 . S
C3341 C79 1.667 . S
C3356 C345 1.669 . S
C3391 C359 1.646 . S
C3406 C93 1.643 . S
C3441 C107 1.632 . S
C3456 C373 1.645 . S
C3491 C667 1.623 . S
C3506 C121 1.608 . S
C3541 C135 1.650 . S
C3556 C303 1.645 . S
C3591 C149 1.670 . S
C3606 C653 1.660 . S
C3641 C233 1.614 . S
C3656 C163 1.620 . S
C3691 C177 1.637 . S
C3706 C289 1.636 . S
C3741 C191 1.645 . S
C3756 C583 1.643 . S
C3791 C597 1.641 . S
C3806 C205 1.629 . S
C3841 C611 1.637 . S
C3856 C219 1.635 . S
C3891 C527 1.656 . S
C3906 C247 1.677 . S
C3941 C541 1.645 . S
C3956 C261 1.650 . S
C3991 C555 1.640 . S
C4006 C275 1.641 . S
C4041 C317 1.646 . S
C4056 C485 1.643 . S
C4091 C457 1.669 . S
C4106 C331 1.667 . S
C4141 C471 1.641 . S
C4156 C639 1.629 . S
C4191 C499 1.667 . S
C4206 C569 1.670 . S
C4241 C625 1.640 . S
C4256 C513 1.641 . S
C4291 C6 1.606 . S
C4306 C314 1.617 . S
C4341 C20 1.657 . S
C4356 C566 1.635 . S
C4391 C328 1.681 . S
C4406 C34 1.679 . S
C4441 C636 1.596 . S
C4456 C48 1.600 . S
C4491 C258 1.596 . S
C4506 C62 1.599 . S
C4541 C272 1.679 . S
C4556 C76 1.681 . S
C4591 C90 1.662 . S
C4606 C622 1.658 . S
C4641 C104 1.582 . S
C4656 C244 1.565 . S
C4691 C188 1.613 . S
C4706 C118 1.608 . S
C4741 C132 1.595 . S
C4756 C202 1.598 . S
C4791 C216 1.581 . S
C4806 C146 1.564 . S
C4841 C174 1.639 . S
C4856 C160 1.631 . S
C4891 C230 1.606 . S
C4906 C356 1.617 . S
C4941 C426 1.577 . S
C4956 C286 1.571 . S
C4991 C384 1.661 . S
C5006 C300 1.677 . S
C5041 C342 1.646 . S
C5056 C650 1.645 . S
C5091 C664 1.630 . S
C5106 C370 1.638 . S
C5141 C594 1.662 . S
C5156 C398 1.677 . S
C5191 C608 1.639 . S
C5206 C412 1.632 . S
C5241 C580 1.662 . S
C5256 C440 1.658 . S
C5291 C524 1.657 . S
C5306 C454 1.635 . S
C5341 C538 1.678 . S
C5356 C468 1.663 . S
C5391 C482 1.662 . S
C5406 C552 1.658 . S
C5441 C496 1.682 . S
C5456 C510 1.680 . S
