# Generated by pormake.
# Topology snp, (6)-cn, num edge types: 1
# Building blocks:
#     Node 0, Type 0, BuildingBlock: INOVEN_clean_sbu_0, # of connection points: 6
#     Node 1, Type 0, BuildingBlock: INOVEN_clean_sbu_0, # of connection points: 6
#     Node 2, Type 0, BuildingBlock: INOVEN_clean_sbu_0, # of connection points: 6
#     Node 3, Type 0, BuildingBlock: INOVEN_clean_sbu_0, # of connection points: 6
#     Edge 4, Type (0, 0), BuildingBlock: KIFKEQ_clean_linker_1, # of connection points: 2
#     Edge 5, Type (0, 0), BuildingBlock: KIFKEQ_clean_linker_1, # of connection points: 2
#     Edge 6, Type (0, 0), BuildingBlock: KIFKEQ_clean_linker_1, # of connection points: 2
#     Edge 7, Type (0, 0), BuildingBlock: KIFKEQ_clean_linker_1, # of connection points: 2
#     Edge 8, Type (0, 0), BuildingBlock: KIFKEQ_clean_linker_1, # of connection points: 2
#     Edge 9, Type (0, 0), BuildingBlock: KIFKEQ_clean_linker_1, # of connection points: 2
#     Edge 10, Type (0, 0), BuildingBlock: KIFKEQ_clean_linker_1, # of connection points: 2
#     Edge 11, Type (0, 0), BuildingBlock: KIFKEQ_clean_linker_1, # of connection points: 2
#     Edge 12, Type (0, 0), BuildingBlock: KIFKEQ_clean_linker_1, # of connection points: 2
#     Edge 13, Type (0, 0), BuildingBlock: KIFKEQ_clean_linker_1, # of connection points: 2
#     Edge 14, Type (0, 0), BuildingBlock: KIFKEQ_clean_linker_1, # of connection points: 2
#     Edge 15, Type (0, 0), BuildingBlock: KIFKEQ_clean_linker_1, # of connection points: 2
# Relax obj value: 0.200
# Max RMSD: 0.221
# Mean RMSD: 0.212
data_MOF--net-snp--node1-INOVEN_clean_sbu_0--edge1-KIFKEQ_clean_linker_1
_symmetry_space_group_name_H-M    P1
_symmetry_Int_Tables_number       1
_symmetry_cell_setting            triclinic
loop_
_symmetry_equiv_pos_as_xyz
'x, y, z'
_cell_length_a     25.844115
_cell_length_b     25.551061
_cell_length_c     36.409977
_cell_angle_alpha  85.330261
_cell_angle_beta   104.47567
_cell_angle_gamma 96.4935
loop_
_atom_site_label
_atom_site_type_symbol
_atom_site_fract_x
_atom_site_fract_y
_atom_site_fract_z
_atom_type_partial_charge
Gd0 Gd 0.25423 0.12605 0.13433 0.0
Gd1 Gd 0.27599 0.03846 0.08641 0.0
C2 C 0.23342 0.00331 0.16029 0.0
C3 C 0.21762 0.18275 0.17675 0.0
C4 C 0.2182 0.18881 0.21732 0.0
C5 C 0.25244 0.2288 0.23792 0.0
C6 C 0.18151 0.15786 0.23491 0.0
C7 C 0.21255 0.20766 0.29232 0.0
C8 C 0.17884 0.16705 0.27187 0.0
C9 C 0.24983 0.23793 0.27488 0.0
C10 C 0.35582 0.09746 0.15154 0.0
C11 C 0.28153 0.16315 0.05519 0.0
C12 C 0.31327 0.98105 0.0457 0.0
C13 C 0.29821 0.974 1.00435 0.0
C14 C 0.24569 0.98071 0.98329 0.0
C15 C 0.33551 0.95999 0.98566 0.0
C16 C 0.26708 0.95733 0.92548 0.0
C17 C 0.32018 0.95187 0.94658 0.0
C18 C 0.2302 0.97205 0.94453 0.0
C19 C 0.17369 0.06238 0.0682 0.0
O20 O 0.21732 0.05093 0.15744 0.0
O21 O 0.26698 -0.0087 0.14063 0.0
O22 O 0.26196 0.19671 0.16572 0.0
O23 O 0.19119 0.14043 0.16083 0.0
O24 O 0.34462 0.14456 0.15519 0.0
O25 O 0.31353 0.06767 0.14245 0.0
O26 O 0.29981 0.11626 0.05624 0.0
O27 O 0.2551 0.17392 0.08009 0.0
O28 O 0.27642 0.96304 0.06374 0.0
O29 O 0.33683 0.02737 0.05652 0.0
O30 O 0.18757 0.01676 0.06341 0.0
O31 O 0.21496 0.09367 0.07869 0.0
H32 H 0.28079 0.25378 0.22523 0.0
H33 H 0.15388 0.12717 0.21983 0.0
H34 H 0.1491 0.14326 0.28392 0.0
H35 H 0.2771 0.269 0.28973 0.0
H36 H 0.21617 -0.00815 0.99697 0.0
H37 H 0.37637 0.95504 1.00131 0.0
H38 H 0.35003 0.94144 0.93296 0.0
H39 H 0.18875 0.97573 0.92978 0.0
Gd40 Gd 1.00123 0.27608 0.74062 0.0
Gd41 Gd 0.10268 0.30095 0.70839 0.0
C42 C 0.12166 0.29983 0.79761 0.0
C43 C 0.93164 0.23495 0.77771 0.0
C44 C 0.91943 0.23306 0.81523 0.0
C45 C 0.95075 0.26344 0.84474 0.0
C46 C 0.87519 0.1998 0.82143 0.0
C47 C 0.89294 0.2272 0.88638 0.0
C48 C 0.86209 0.19681 0.85655 0.0
C49 C 0.93767 0.26046 0.8801 0.0
C50 C 0.02286 0.37749 0.7201 0.0
C51 C 0.98428 0.27179 0.65085 0.0
C52 C 0.16728 0.3327 0.66523 0.0
C53 C 0.17073 0.31893 0.62706 0.0
C54 C 0.15846 0.26681 0.61553 0.0
C55 C 0.1861 0.35827 0.60163 0.0
C56 C 0.17847 0.29348 0.55402 0.0
C57 C 0.18984 0.3458 0.56559 0.0
C58 C 0.1625 0.25422 0.57959 0.0
C59 C 0.07763 0.19898 0.72856 0.0
O60 O 0.07103 0.27921 0.79276 0.0
O61 O 0.14217 0.31904 0.76879 0.0
O62 O 0.92709 0.2797 0.75748 0.0
O63 O 0.97337 0.2117 0.77563 0.0
O64 O 0.97455 0.35522 0.71771 0.0
O65 O 0.05746 0.34663 0.73601 0.0
O66 O 0.03328 0.29641 0.6558 0.0
O67 O 0.96464 0.25339 0.68021 0.0
O68 O 0.17744 0.2961 0.6927 0.0
O69 O 0.12639 0.35798 0.66636 0.0
O70 O 0.12643 0.21964 0.73073 0.0
O71 O 0.04605 0.23223 0.71271 0.0
H72 H 0.98511 0.28941 0.84041 0.0
H73 H 0.85075 0.17583 0.79905 0.0
H74 H 0.82816 0.16989 0.86048 0.0
H75 H 0.96218 0.28456 0.90234 0.0
H76 H 0.14604 0.23561 0.6344 0.0
H77 H 0.19522 0.39882 0.60964 0.0
H78 H 0.20117 0.37744 0.54665 0.0
H79 H 0.15394 0.21343 0.57217 0.0
Gd80 Gd 0.8093 0.06775 0.21941 0.0
Gd81 Gd 0.82587 0.97702 0.17027 0.0
C82 C 0.82703 0.94711 0.25687 0.0
C83 C 0.77556 0.12433 0.26289 0.0
C84 C 0.79267 0.13837 0.3034 0.0
C85 C 0.8315 0.18106 0.31444 0.0
C86 C 0.76974 0.11036 0.3313 0.0
C87 C 0.82454 0.16719 0.38024 0.0
C88 C 0.78561 0.12447 0.36927 0.0
C89 C 0.84734 0.19507 0.35225 0.0
C90 C 0.91188 0.0594 0.22004 0.0
C91 C 0.81725 0.09697 0.13307 0.0
C92 C 0.85596 0.91797 0.1259 0.0
C93 C 0.86158 0.91434 0.08638 0.0
C94 C 0.81675 0.90643 0.05547 0.0
C95 C 0.91299 0.91399 0.08003 0.0
C96 C 0.87484 0.89579 1.01318 0.0
C97 C 0.91959 0.90519 0.044 0.0
C98 C 0.8233 0.89735 1.01939 0.0
C99 C 0.72431 -0.00814 0.17144 0.0
O100 O 0.80676 -0.00751 0.25766 0.0
O101 O 0.84435 0.93505 0.22764 0.0
O102 O 0.80728 0.14351 0.24106 0.0
O103 O 0.75547 0.07568 0.25566 0.0
O104 O 0.89507 0.10149 0.22885 0.0
O105 O 0.87523 0.02207 0.21809 0.0
O106 O 0.83414 0.05012 0.13274 0.0
O107 O 0.79797 0.11076 0.16114 0.0
O108 O 0.80769 0.91285 0.13194 0.0
O109 O 0.88856 0.95288 0.14697 0.0
O110 O 0.73962 0.94543 0.17023 0.0
O111 O 0.76191 0.02666 0.17013 0.0
H112 H 0.84992 0.20387 0.29384 0.0
H113 H 0.7393 0.07765 0.32378 0.0
H114 H 0.7667 0.10241 0.38989 0.0
H115 H 0.87804 0.2276 0.35958 0.0
H116 H 0.77646 0.90591 0.0593 0.0
H117 H 0.94829 0.91929 0.10331 0.0
H118 H 0.95998 0.90535 0.04047 0.0
H119 H 0.78773 0.88976 0.99668 0.0
Gd120 Gd 0.99084 0.79221 0.60265 0.0
Gd121 Gd 0.08609 0.83556 0.5698 0.0
C122 C 0.10304 0.84636 0.65808 0.0
C123 C 0.93338 0.74945 0.64816 0.0
C124 C 0.92848 0.7646 0.68562 0.0
C125 C 0.94411 0.81646 0.69704 0.0
C126 C 0.9077 0.72757 0.71013 0.0
C127 C 0.91786 0.79413 0.75697 0.0
C128 C 0.90237 0.74211 0.74533 0.0
C129 C 0.939 0.83102 0.73223 0.0
C130 C 0.99074 0.89502 0.57948 0.0
C131 C 0.97043 0.79287 0.5143 0.0
C132 C 0.14829 0.88188 0.52863 0.0
C133 C 0.15171 0.88653 0.48855 0.0
C134 C 0.13928 0.84286 0.46568 0.0
C135 C 0.16926 0.93546 0.47323 0.0
C136 C 0.16289 0.89714 0.41287 0.0
C137 C 0.17469 0.94078 0.4358 0.0
C138 C 0.1451 0.84807 0.42825 0.0
C139 C 0.08457 0.73415 0.59546 0.0
O140 O 0.05713 0.81594 0.65448 0.0
O141 O 0.12145 0.86435 0.62823 0.0
O142 O 0.91531 0.78182 0.61921 0.0
O143 O 0.97925 0.73298 0.64718 0.0
O144 O 0.94813 0.86188 0.57532 0.0
O145 O 0.0312 0.87128 0.59569 0.0
O146 O 0.01609 0.82363 0.51859 0.0
O147 O 0.95439 0.76789 0.54336 0.0
O148 O 0.15556 0.83592 0.54675 0.0
O149 O 0.10991 0.9047 0.53671 0.0
O150 O 0.12817 0.76604 0.60041 0.0
O151 O 0.04492 0.7567 0.57654 0.0
H152 H 0.96034 0.84585 0.67866 0.0
H153 H 0.89518 0.68739 0.70194 0.0
H154 H 0.88524 0.71264 0.76313 0.0
H155 H 0.95226 0.87116 0.74018 0.0
H156 H 0.12533 0.80468 0.47677 0.0
H157 H 0.17927 0.96959 0.49038 0.0
H158 H 0.18902 0.97899 0.42501 0.0
H159 H 0.1351 0.81387 0.41119 0.0
H160 H 0.97399 0.98516 0.21074 0.0
H161 H 0.93335 0.14377 0.17516 0.0
H162 H 0.02767 -0.01024 0.16384 0.0
H163 H 0.98295 0.14728 0.12649 0.0
H164 H 0.14062 0.15168 0.08626 0.0
H165 H 0.07123 0.15365 0.12029 0.0
H166 H 0.01801 -0.00969 0.09695 0.0
H167 H 0.08975 -0.01229 0.0651 0.0
C168 C 0.97674 0.02087 0.19281 0.0
C169 C 0.9497 0.06389 0.19609 0.0
C170 C 0.00639 0.02329 0.16554 0.0
C171 C 0.0084 0.06852 0.14086 0.0
C172 C 0.9823 0.11202 0.14507 0.0
C173 C 0.95401 0.11002 0.17296 0.0
C174 C 0.11319 0.11666 0.08776 0.0
C175 C 0.12175 0.06893 0.07505 0.0
C176 C 0.07321 0.11777 0.10701 0.0
C177 C 0.04071 0.07134 0.11263 0.0
C178 C 0.04412 0.02593 0.09445 0.0
C179 C 0.08469 0.02464 0.07584 0.0
H180 H 0.91559 0.92549 0.61122 0.0
H181 H 0.06394 0.9788 0.57945 0.0
H182 H 0.93583 -0.01009 0.65917 0.0
H183 H 0.08255 0.04639 0.62567 0.0
H184 H 0.14164 0.1202 0.73088 0.0
H185 H 0.11209 0.04262 0.69354 0.0
H186 H 0.94718 0.07774 0.67446 0.0
H187 H 0.97642 0.15207 0.71402 0.0
C188 C 0.95112 0.95306 0.61303 0.0
C189 C 0.98874 0.9471 0.59208 0.0
C190 C 0.96309 -0.01053 0.64096 0.0
C191 C 0.01194 0.02144 0.64731 0.0
C192 C 0.04584 0.02029 0.62265 0.0
C193 C 0.03448 0.98298 0.59534 0.0
C194 C 0.099 0.10955 0.7203 0.0
C195 C 0.0613 0.14303 0.72357 0.0
C196 C 0.08211 0.06596 0.69828 0.0
C197 C 0.02772 0.05638 0.67921 0.0
C198 C 0.98949 0.08477 0.68804 0.0
C199 C 0.00628 0.1274 0.71081 0.0
H200 H 0.63925 0.92443 0.18428 0.0
H201 H 0.6883 0.08801 0.15958 0.0
H202 H 0.55002 0.94822 0.18456 0.0
H203 H 0.59977 0.11139 0.15792 0.0
H204 H 0.45098 0.15112 0.18463 0.0
H205 H 0.54049 0.12219 0.19492 0.0
H206 H 0.47096 0.97602 0.14265 0.0
H207 H 0.38166 0.00388 0.13468 0.0
C208 C 0.63078 0.96528 0.17877 0.0
C209 C 0.6704 0.00435 0.17191 0.0
C210 C 0.5798 0.97898 0.17875 0.0
C211 C 0.56768 0.03185 0.17144 0.0
C212 C 0.60778 0.07057 0.16462 0.0
C213 C 0.65854 0.05704 0.16517 0.0
C214 C 0.45507 0.11273 0.17565 0.0
C215 C 0.40977 0.07997 0.15851 0.0
C216 C 0.50625 0.09615 0.18133 0.0
C217 C 0.51309 0.04693 0.16921 0.0
C218 C 0.46734 0.0138 0.15278 0.0
C219 C 0.41617 0.03001 0.14779 0.0
H220 H 0.12084 0.42682 0.71662 0.0
H221 H 0.95208 0.449 0.6909 0.0
H222 H 0.13883 0.51307 0.68572 0.0
H223 H 0.97015 0.53626 0.66246 0.0
H224 H 0.00404 0.65787 0.57454 0.0
H225 H 0.99221 0.57136 0.60594 0.0
H226 H 0.14143 0.60617 0.68961 0.0
H227 H 0.1544 0.69208 0.65659 0.0
C228 C 0.08777 0.45044 0.70461 0.0
C229 C 0.03499 0.43113 0.70523 0.0
C230 C 0.09807 0.49994 0.6873 0.0
C231 C 0.05576 0.53112 0.67107 0.0
C232 C 0.00339 0.51255 0.67361 0.0
C233 C 0.99305 0.46282 0.6902 0.0
C234 C 0.03447 0.64668 0.59945 0.0
C235 C 0.07999 0.68119 0.61336 0.0
C236 C 0.02753 0.59743 0.61767 0.0
C237 C 0.06544 0.58225 0.65067 0.0
C238 C 0.11172 0.61656 0.6641 0.0
C239 C 0.11912 0.66566 0.64535 0.0
H240 H 0.11615 0.21965 0.5061 0.0
H241 H 0.25278 0.33628 0.51454 0.0
H242 H 0.12493 0.19799 0.44405 0.0
H243 H 0.26075 0.31522 0.4523 0.0
H244 H 0.22211 0.30442 0.32278 0.0
H245 H 0.21436 0.32397 0.3854 0.0
H246 H 0.18324 0.15769 0.41273 0.0
H247 H 0.19171 0.13787 0.35012 0.0
C248 C 0.14836 0.24048 0.49502 0.0
C249 C 0.18361 0.27998 0.5157 0.0
C250 C 0.15333 0.22803 0.45925 0.0
C251 C 0.19346 0.25491 0.4429 0.0
C252 C 0.22877 0.29425 0.46358 0.0
C253 C 0.22404 0.30646 0.4994 0.0
C254 C 0.21438 0.2718 0.34221 0.0
C255 C 0.20787 0.21943 0.33109 0.0
C256 C 0.20978 0.28311 0.37825 0.0
C257 C 0.19827 0.24249 0.40437 0.0
C258 C 0.19145 0.19011 0.39328 0.0
C259 C 0.19629 0.17874 0.35724 0.0
H260 H 0.79268 0.21962 0.89996 0.0
H261 H 0.9607 0.22447 0.95796 0.0
H262 H 0.76841 0.2002 0.9605 0.0
H263 H 0.93618 0.20584 1.01869 0.0
H264 H 0.87324 0.19354 0.12611 0.0
H265 H 0.88989 0.23654 0.06663 0.0
H266 H 0.77793 0.11834 1.00315 0.0
H267 H 0.76265 0.07529 0.06222 0.0
C268 C 0.82452 0.21693 0.92563 0.0
C269 C 0.87869 0.22269 0.9239 0.0
C270 C 0.81054 0.20611 0.96036 0.0
C271 C 0.85033 0.20113 0.99436 0.0
C272 C 0.90457 0.20998 0.99302 0.0
C273 C 0.91861 0.22057 0.95817 0.0
C274 C 0.85112 0.17795 0.0993 0.0
C275 C 0.81628 0.13152 0.09855 0.0
C276 C 0.86099 0.20215 0.06533 0.0
C277 C 0.8353 0.18077 1.03017 0.0
C278 C 0.79788 0.13624 1.02961 0.0
C279 C 0.78894 0.11164 0.06341 0.0
H280 H 0.97455 0.7459 0.45075 0.0
H281 H 0.88647 0.85056 0.4932 0.0
H282 H 0.92808 0.77058 0.38569 0.0
H283 H 0.84352 0.87942 0.42883 0.0
H284 H 0.76765 0.92892 0.31001 0.0
H285 H 0.78919 0.87636 0.36986 0.0
H286 H 0.93449 0.83856 0.34319 0.0
H287 H 0.91007 0.88704 0.28255 0.0
C288 C 0.94409 0.77324 0.44596 0.0
C289 C 0.93317 0.79571 0.47668 0.0
C290 C 0.91816 0.78843 0.40868 0.0
C291 C 0.88263 0.82829 0.40137 0.0
C292 C 0.86972 0.84824 0.43263 0.0
C293 C 0.89439 0.83174 0.4698 0.0
C294 C 0.80361 0.90839 0.31689 0.0
C295 C 0.83719 0.91205 0.29172 0.0
C296 C 0.81639 0.87854 0.3514 0.0
C297 C 0.86413 0.85316 0.36216 0.0
C298 C 0.89679 0.85605 0.33615 0.0
C299 C 0.88308 0.88446 0.30125 0.0
H300 H 0.21053 0.87541 0.68617 0.0
H301 H 0.0578 0.85971 0.71601 0.0
H302 H 0.25497 0.90559 0.74992 0.0
H303 H 0.1017 0.89095 0.77877 0.0
H304 H 0.19337 0.00645 0.86909 0.0
H305 H 0.1566 0.98143 0.80383 0.0
H306 H 0.26478 0.86007 0.82156 0.0
H307 H 0.30003 0.88286 0.88766 0.0
C308 C 0.18651 0.87858 0.70624 0.0
C309 C 0.13076 0.86479 0.69621 0.0
C310 C 0.21189 0.89569 0.74263 0.0
C311 C 0.18168 0.90071 0.76914 0.0
C312 C 0.12591 0.88772 0.75882 0.0
C313 C 0.10085 0.86946 0.72296 0.0
C314 C 0.20923 0.97408 0.85942 0.0
C315 C 0.24924 0.94619 0.88421 0.0
C316 C 0.18835 0.96012 0.82186 0.0
C317 C 0.20768 0.91867 0.80779 0.0
C318 C 0.24944 0.89243 0.83169 0.0
C319 C 0.26974 0.90574 0.86956 0.0
H320 H 0.81612 0.92428 0.94124 0.0
H321 H 0.9495 0.83662 0.99866 0.0
H322 H 0.82592 0.8998 0.88014 0.0
H323 H 0.96089 0.81435 0.93767 0.0
H324 H 0.93287 0.73583 0.82531 0.0
H325 H 0.92169 0.76054 0.88583 0.0
H326 H 0.88051 0.9139 0.83546 0.0
H327 H 0.8892 0.88826 0.77442 0.0
C328 C 0.84762 0.89986 0.94097 0.0
C329 C 0.8819 0.88254 0.97528 0.0
C330 C 0.8537 0.88628 0.90573 0.0
C331 C 0.89422 0.85487 0.90359 0.0
C332 C 0.92872 0.83793 0.93789 0.0
C333 C 0.92263 0.85145 0.97308 0.0
C334 C 0.92081 0.77464 0.82688 0.0
C335 C 0.91188 0.80983 0.79456 0.0
C336 C 0.91508 0.78917 0.86193 0.0
C337 C 0.90028 0.83944 0.86595 0.0
C338 C 0.89137 0.87466 0.83364 0.0
C339 C 0.89709 0.86012 0.79856 0.0
H340 H 0.13542 -0.01246 0.17448 0.0
H341 H 0.29626 0.94134 0.21475 0.0
H342 H 0.11422 0.95236 0.23372 0.0
H343 H 0.27543 0.90664 0.27487 0.0
H344 H 0.20815 0.83179 0.37588 0.0
H345 H 0.22099 0.84449 0.31111 0.0
H346 H 0.14545 -0.01027 0.29596 0.0
H347 H 0.13182 0.97658 0.3599 0.0
C348 C 0.16574 0.96822 0.19566 0.0
C349 C 0.21748 0.96714 0.19012 0.0
C350 C 0.15381 0.94864 0.22979 0.0
C351 C 0.19352 0.92789 0.25942 0.0
C352 C 0.24394 0.92238 0.2526 0.0
C353 C 0.25584 0.94188 0.21811 0.0
C354 C 0.19371 0.86604 0.35845 0.0
C355 C 0.16904 0.90325 0.37308 0.0
C356 C 0.20143 0.87348 0.32149 0.0
C357 C 0.18395 0.9179 0.29823 0.0
C358 C 0.15863 0.95459 0.3128 0.0
C359 C 0.15136 0.9474 0.34968 0.0
H360 H 0.2305 0.29414 0.81983 0.0
H361 H 0.09053 0.29862 0.8636 0.0
H362 H 0.28353 0.27368 0.88435 0.0
H363 H 0.14299 0.27846 0.92748 0.0
H364 H 0.24599 0.26135 0.04197 0.0
H365 H 0.21829 0.30853 0.98049 0.0
H366 H 0.28019 0.19208 0.92778 0.0
H367 H 0.30837 0.14493 0.98929 0.0
C368 C 0.21146 0.29218 0.84331 0.0
C369 C 0.15632 0.29772 0.83667 0.0
C370 C 0.24169 0.28011 0.88016 0.0
C371 C 0.21748 0.27435 0.91103 0.0
C372 C 0.16313 0.28322 0.90449 0.0
C373 C 0.13289 0.29446 0.86777 0.0
C374 C 0.25509 0.24648 1.01751 0.0
C375 C 0.2785 0.19872 1.02053 0.0
C376 C 0.23899 0.27349 0.98222 0.0
C377 C 0.2461 0.25351 0.94917 0.0
C378 C 0.27422 0.20861 0.95271 0.0
C379 C 0.29029 0.18147 0.98806 0.0
H380 H 0.84093 0.10323 0.44606 0.0
H381 H 0.84679 0.26715 0.40604 0.0
H382 H 0.87415 0.12964 0.5115 0.0
H383 H 0.88038 0.29331 0.47118 0.0
H384 H 0.00629 0.3139 0.58452 0.0
H385 H 0.96381 0.28861 0.52022 0.0
H386 H 0.85287 0.17527 0.56295 0.0
H387 H 0.89603 0.20032 0.62786 0.0
C388 C 0.8486 0.14488 0.45115 0.0
C389 C 0.84166 0.18296 0.42054 0.0
C390 C 0.86767 0.16003 0.48874 0.0
C391 C 0.88042 0.21363 0.49666 0.0
C392 C 0.872 0.25166 0.46614 0.0
C393 C 0.85281 0.23658 0.42868 0.0
C394 C 0.97248 0.28394 0.58033 0.0
C395 C 0.95447 0.25937 0.61149 0.0
C396 C 0.94792 0.26956 0.54331 0.0
C397 C 0.90477 0.22995 0.53627 0.0
C398 C 0.88624 0.20568 0.56736 0.0
C399 C 0.91065 0.22041 0.60453 0.0
loop_
_geom_bond_atom_site_label_1
_geom_bond_atom_site_label_2
_geom_bond_distance
_geom_bond_site_symmetry_2
_ccdc_geom_bond_type
Gd0 C3 2.818 . S
Gd0 O20 2.377 . S
Gd0 O22 2.448 . S
Gd0 O23 2.506 . S
Gd0 O24 2.435 . S
Gd0 O25 2.717 . S
Gd0 O27 2.395 . S
Gd0 O31 2.327 . S
Gd1 C12 2.818 . S
Gd1 O21 2.395 . S
Gd1 O25 2.327 . S
Gd1 O26 2.377 . S
Gd1 O28 2.448 1_545 S
Gd1 O29 2.506 . S
Gd1 O30 2.435 . S
Gd1 O31 2.717 . S
C2 O20 1.240 . S
C2 O21 1.240 . S
C3 Gd0 2.818 . S
C3 C4 1.510 . S
C3 O22 1.249 . S
C3 O23 1.252 . S
C4 C3 1.510 . S
C4 C5 1.404 . S
C4 C6 1.352 . S
C5 C4 1.404 . S
C5 C9 1.389 . S
C5 H32 0.930 . S
C6 C4 1.352 . S
C6 C8 1.374 . S
C6 H33 0.931 . S
C7 C8 1.359 . S
C7 C9 1.364 . S
C8 C6 1.374 . S
C8 C7 1.359 . S
C8 H34 0.931 . S
C9 C5 1.389 . S
C9 C7 1.364 . S
C9 H35 0.931 . S
C10 O24 1.256 . S
C10 O25 1.257 . S
C11 O26 1.240 . S
C11 O27 1.240 . S
C12 Gd1 2.818 . S
C12 C13 1.510 1_544 S
C12 O28 1.249 1_545 S
C12 O29 1.252 . S
C13 C12 1.510 1_566 S
C13 C14 1.404 . S
C13 C15 1.352 1_565 S
C14 C13 1.404 . S
C14 C18 1.389 . S
C14 H36 0.930 . S
C15 C13 1.352 1_545 S
C15 C17 1.374 1_545 S
C15 H37 0.931 . S
C16 C17 1.359 . S
C16 C18 1.364 . S
C17 C15 1.374 1_565 S
C17 C16 1.359 . S
C17 H38 0.933 . S
C18 C14 1.389 . S
C18 C16 1.364 . S
C18 H39 0.931 . S
C19 O30 1.256 . S
C19 O31 1.257 . S
O20 Gd0 2.377 . S
O20 C2 1.240 . S
O21 Gd1 2.395 . S
O21 C2 1.240 . S
O22 Gd0 2.448 . S
O22 C3 1.249 . S
O23 Gd0 2.506 . S
O23 C3 1.252 . S
O24 Gd0 2.435 . S
O24 C10 1.256 . S
O25 Gd0 2.717 . S
O25 Gd1 2.327 . S
O25 C10 1.257 . S
O26 Gd1 2.377 . S
O26 C11 1.240 . S
O27 Gd0 2.395 . S
O27 C11 1.240 . S
O28 Gd1 2.448 1_565 S
O28 C12 1.249 1_565 S
O29 Gd1 2.506 . S
O29 C12 1.252 . S
O30 Gd1 2.435 . S
O30 C19 1.256 . S
O31 Gd0 2.327 . S
O31 Gd1 2.717 . S
O31 C19 1.257 . S
H32 C5 0.930 . S
H33 C6 0.931 . S
H34 C8 0.931 . S
H35 C9 0.931 . S
H36 C14 0.930 . S
H37 C15 0.931 . S
H38 C17 0.933 . S
H39 C18 0.931 . S
Gd40 C43 2.818 . S
Gd40 O60 2.377 1_655 S
Gd40 O62 2.448 . S
Gd40 O63 2.506 . S
Gd40 O64 2.435 . S
Gd40 O65 2.717 1_655 S
Gd40 O67 2.395 . S
Gd40 O71 2.327 1_655 S
Gd41 C52 2.818 . S
Gd41 O61 2.395 . S
Gd41 O65 2.327 . S
Gd41 O66 2.377 . S
Gd41 O68 2.448 . S
Gd41 O69 2.506 . S
Gd41 O70 2.435 . S
Gd41 O71 2.717 . S
C42 O60 1.240 . S
C42 O61 1.240 . S
C43 Gd40 2.818 . S
C43 C44 1.510 . S
C43 O62 1.249 . S
C43 O63 1.252 . S
C44 C43 1.510 . S
C44 C45 1.404 . S
C44 C46 1.352 . S
C45 C44 1.404 . S
C45 C49 1.389 . S
C45 H72 0.930 . S
C46 C44 1.352 . S
C46 C48 1.374 . S
C46 H73 0.931 . S
C47 C48 1.359 . S
C47 C49 1.364 . S
C48 C46 1.374 . S
C48 C47 1.359 . S
C48 H74 0.931 . S
C49 C45 1.389 . S
C49 C47 1.364 . S
C49 H75 0.931 . S
C50 O64 1.256 1_455 S
C50 O65 1.257 . S
C51 O66 1.240 1_655 S
C51 O67 1.240 . S
C52 Gd41 2.818 . S
C52 C53 1.510 . S
C52 O68 1.249 . S
C52 O69 1.252 . S
C53 C52 1.510 . S
C53 C54 1.404 . S
C53 C55 1.352 . S
C54 C53 1.404 . S
C54 C58 1.389 . S
C54 H76 0.930 . S
C55 C53 1.352 . S
C55 C57 1.374 . S
C55 H77 0.931 . S
C56 C57 1.359 . S
C56 C58 1.364 . S
C57 C55 1.374 . S
C57 C56 1.359 . S
C57 H78 0.931 . S
C58 C54 1.389 . S
C58 C56 1.364 . S
C58 H79 0.931 . S
C59 O70 1.256 . S
C59 O71 1.257 . S
O60 Gd40 2.377 1_455 S
O60 C42 1.240 . S
O61 Gd41 2.395 . S
O61 C42 1.240 . S
O62 Gd40 2.448 . S
O62 C43 1.249 . S
O63 Gd40 2.506 . S
O63 C43 1.252 . S
O64 Gd40 2.435 . S
O64 C50 1.256 1_655 S
O65 Gd40 2.717 1_455 S
O65 Gd41 2.327 . S
O65 C50 1.257 . S
O66 Gd41 2.377 . S
O66 C51 1.240 1_455 S
O67 Gd40 2.395 . S
O67 C51 1.240 . S
O68 Gd41 2.448 . S
O68 C52 1.249 . S
O69 Gd41 2.506 . S
O69 C52 1.252 . S
O70 Gd41 2.435 . S
O70 C59 1.256 . S
O71 Gd40 2.327 1_455 S
O71 Gd41 2.717 . S
O71 C59 1.257 . S
H72 C45 0.930 . S
H73 C46 0.931 . S
H74 C48 0.931 . S
H75 C49 0.931 . S
H76 C54 0.930 . S
H77 C55 0.931 . S
H78 C57 0.931 . S
H79 C58 0.931 . S
Gd80 C83 2.818 . S
Gd80 O100 2.377 . S
Gd80 O102 2.448 . S
Gd80 O103 2.506 . S
Gd80 O104 2.435 . S
Gd80 O105 2.717 . S
Gd80 O107 2.395 . S
Gd80 O111 2.327 . S
Gd81 C92 2.818 . S
Gd81 O101 2.395 . S
Gd81 O105 2.327 1_565 S
Gd81 O106 2.377 1_565 S
Gd81 O108 2.448 . S
Gd81 O109 2.506 . S
Gd81 O110 2.435 . S
Gd81 O111 2.717 1_565 S
C82 O100 1.240 1_565 S
C82 O101 1.240 . S
C83 Gd80 2.818 . S
C83 C84 1.510 . S
C83 O102 1.249 . S
C83 O103 1.252 . S
C84 C83 1.510 . S
C84 C85 1.404 . S
C84 C86 1.352 . S
C85 C84 1.404 . S
C85 C89 1.389 . S
C85 H112 0.930 . S
C86 C84 1.352 . S
C86 C88 1.374 . S
C86 H113 0.931 . S
C87 C88 1.359 . S
C87 C89 1.364 . S
C88 C86 1.374 . S
C88 C87 1.359 . S
C88 H114 0.931 . S
C89 C85 1.389 . S
C89 C87 1.364 . S
C89 H115 0.931 . S
C90 O104 1.256 . S
C90 O105 1.257 . S
C91 O106 1.240 . S
C91 O107 1.240 . S
C92 Gd81 2.818 . S
C92 C93 1.510 . S
C92 O108 1.249 . S
C92 O109 1.252 . S
C93 C92 1.510 . S
C93 C94 1.404 . S
C93 C95 1.352 . S
C94 C93 1.404 . S
C94 C98 1.389 1_554 S
C94 H116 0.930 . S
C95 C93 1.352 . S
C95 C97 1.374 1_554 S
C95 H117 0.931 . S
C96 C97 1.359 . S
C96 C98 1.364 . S
C97 C95 1.374 1_556 S
C97 C96 1.359 . S
C97 H118 0.931 . S
C98 C94 1.389 1_556 S
C98 C96 1.364 . S
C98 H119 0.931 . S
C99 O110 1.256 1_545 S
C99 O111 1.257 . S
O100 Gd80 2.377 . S
O100 C82 1.240 1_545 S
O101 Gd81 2.395 . S
O101 C82 1.240 . S
O102 Gd80 2.448 . S
O102 C83 1.249 . S
O103 Gd80 2.506 . S
O103 C83 1.252 . S
O104 Gd80 2.435 . S
O104 C90 1.256 . S
O105 Gd80 2.717 . S
O105 Gd81 2.327 1_545 S
O105 C90 1.257 . S
O106 Gd81 2.377 1_545 S
O106 C91 1.240 . S
O107 Gd80 2.395 . S
O107 C91 1.240 . S
O108 Gd81 2.448 . S
O108 C92 1.249 . S
O109 Gd81 2.506 . S
O109 C92 1.252 . S
O110 Gd81 2.435 . S
O110 C99 1.256 1_565 S
O111 Gd80 2.327 . S
O111 Gd81 2.717 1_545 S
O111 C99 1.257 . S
H112 C85 0.930 . S
H113 C86 0.931 . S
H114 C88 0.931 . S
H115 C89 0.931 . S
H116 C94 0.930 . S
H117 C95 0.931 . S
H118 C97 0.931 . S
H119 C98 0.931 . S
Gd120 C123 2.818 . S
Gd120 O140 2.377 1_655 S
Gd120 O142 2.448 . S
Gd120 O143 2.506 . S
Gd120 O144 2.435 . S
Gd120 O145 2.717 1_655 S
Gd120 O147 2.395 . S
Gd120 O151 2.327 1_655 S
Gd121 C132 2.818 . S
Gd121 O141 2.395 . S
Gd121 O145 2.327 . S
Gd121 O146 2.377 . S
Gd121 O148 2.448 . S
Gd121 O149 2.506 . S
Gd121 O150 2.435 . S
Gd121 O151 2.717 . S
C122 O140 1.240 . S
C122 O141 1.240 . S
C123 Gd120 2.818 . S
C123 C124 1.510 . S
C123 O142 1.249 . S
C123 O143 1.252 . S
C124 C123 1.510 . S
C124 C125 1.404 . S
C124 C126 1.352 . S
C125 C124 1.404 . S
C125 C129 1.389 . S
C125 H152 0.930 . S
C126 C124 1.352 . S
C126 C128 1.374 . S
C126 H153 0.931 . S
C127 C128 1.359 . S
C127 C129 1.364 . S
C128 C126 1.374 . S
C128 C127 1.359 . S
C128 H154 0.931 . S
C129 C125 1.389 . S
C129 C127 1.364 . S
C129 H155 0.931 . S
C130 O144 1.256 1_455 S
C130 O145 1.257 . S
C131 O146 1.240 1_655 S
C131 O147 1.240 . S
C132 Gd121 2.818 . S
C132 C133 1.510 . S
C132 O148 1.249 . S
C132 O149 1.252 . S
C133 C132 1.510 . S
C133 C134 1.404 . S
C133 C135 1.352 . S
C134 C133 1.404 . S
C134 C138 1.389 . S
C134 H156 0.930 . S
C135 C133 1.352 . S
C135 C137 1.374 . S
C135 H157 0.931 . S
C136 C137 1.359 . S
C136 C138 1.364 . S
C137 C135 1.374 . S
C137 C136 1.359 . S
C137 H158 0.931 . S
C138 C134 1.389 . S
C138 C136 1.364 . S
C138 H159 0.931 . S
C139 O150 1.256 . S
C139 O151 1.257 . S
O140 Gd120 2.377 1_455 S
O140 C122 1.240 . S
O141 Gd121 2.395 . S
O141 C122 1.240 . S
O142 Gd120 2.448 . S
O142 C123 1.249 . S
O143 Gd120 2.506 . S
O143 C123 1.252 . S
O144 Gd120 2.435 . S
O144 C130 1.256 1_655 S
O145 Gd120 2.717 1_455 S
O145 Gd121 2.327 . S
O145 C130 1.257 . S
O146 Gd121 2.377 . S
O146 C131 1.240 1_455 S
O147 Gd120 2.395 . S
O147 C131 1.240 . S
O148 Gd121 2.448 . S
O148 C132 1.249 . S
O149 Gd121 2.506 . S
O149 C132 1.252 . S
O150 Gd121 2.435 . S
O150 C139 1.256 . S
O151 Gd120 2.327 1_455 S
O151 Gd121 2.717 . S
O151 C139 1.257 . S
H152 C125 0.930 . S
H153 C126 0.931 . S
H154 C128 0.931 . S
H155 C129 0.931 . S
H156 C134 0.930 . S
H157 C135 0.931 . S
H158 C137 0.931 . S
H159 C138 0.931 . S
H160 C168 0.950 . S
H161 C173 0.950 . S
H162 C170 0.950 1_565 S
H163 C172 0.950 . S
H164 C174 0.950 . S
H165 C176 0.950 . S
H166 C178 0.950 . S
H167 C179 0.950 . S
C168 H160 0.950 . S
C168 C169 1.386 1_565 S
C168 C170 1.391 1_665 S
C169 C168 1.386 1_545 S
C169 C173 1.393 . S
C170 H162 0.950 1_545 S
C170 C168 1.391 1_445 S
C170 C171 1.400 . S
C171 C170 1.400 . S
C171 C172 1.398 1_455 S
C171 C177 1.491 . S
C172 H163 0.950 . S
C172 C171 1.398 1_655 S
C172 C173 1.391 . S
C173 H161 0.950 . S
C173 C169 1.393 . S
C173 C172 1.391 . S
C174 H164 0.950 . S
C174 C175 1.386 . S
C174 C176 1.391 . S
C175 C174 1.386 . S
C175 C179 1.393 . S
C176 H165 0.950 . S
C176 C174 1.391 . S
C176 C177 1.400 . S
C177 C171 1.491 . S
C177 C176 1.400 . S
C177 C178 1.398 . S
C178 H166 0.950 . S
C178 C177 1.398 . S
C178 C179 1.391 . S
C179 H167 0.950 . S
C179 C175 1.393 . S
C179 C178 1.391 . S
H180 C188 0.950 . S
H181 C193 0.950 . S
H182 C190 0.950 . S
H183 C192 0.950 . S
H184 C194 0.950 . S
H185 C196 0.950 . S
H186 C198 0.950 . S
H187 C199 0.950 . S
C188 H180 0.950 . S
C188 C189 1.386 1_655 S
C188 C190 1.391 1_565 S
C189 C188 1.386 1_455 S
C189 C193 1.393 . S
C190 H182 0.950 . S
C190 C188 1.391 1_545 S
C190 C191 1.400 1_655 S
C191 C190 1.400 1_455 S
C191 C192 1.398 . S
C191 C197 1.491 . S
C192 H183 0.950 . S
C192 C191 1.398 . S
C192 C193 1.391 1_545 S
C193 H181 0.950 . S
C193 C189 1.393 . S
C193 C192 1.391 1_565 S
C194 H184 0.950 . S
C194 C195 1.386 . S
C194 C196 1.391 . S
C195 C194 1.386 . S
C195 C199 1.393 1_455 S
C196 H185 0.950 . S
C196 C194 1.391 . S
C196 C197 1.400 . S
C197 C191 1.491 . S
C197 C196 1.400 . S
C197 C198 1.398 1_455 S
C198 H186 0.950 . S
C198 C197 1.398 1_655 S
C198 C199 1.391 . S
C199 H187 0.950 . S
C199 C195 1.393 1_655 S
C199 C198 1.391 . S
H200 C208 0.950 . S
H201 C213 0.950 . S
H202 C210 0.950 1_565 S
H203 C212 0.950 . S
H204 C214 0.950 . S
H205 C216 0.950 . S
H206 C218 0.950 . S
H207 C219 0.950 . S
C208 H200 0.950 . S
C208 C209 1.386 1_565 S
C208 C210 1.391 1_565 S
C209 C208 1.386 1_545 S
C209 C213 1.393 . S
C210 H202 0.950 1_545 S
C210 C208 1.391 1_545 S
C210 C211 1.400 . S
C211 C210 1.400 . S
C211 C212 1.398 . S
C211 C217 1.491 . S
C212 H203 0.950 . S
C212 C211 1.398 . S
C212 C213 1.391 . S
C213 H201 0.950 . S
C213 C209 1.393 . S
C213 C212 1.391 . S
C214 H204 0.950 . S
C214 C215 1.386 . S
C214 C216 1.391 . S
C215 C214 1.386 . S
C215 C219 1.393 . S
C216 H205 0.950 . S
C216 C214 1.391 . S
C216 C217 1.400 . S
C217 C211 1.491 . S
C217 C216 1.400 . S
C217 C218 1.398 . S
C218 H206 0.950 . S
C218 C217 1.398 . S
C218 C219 1.391 . S
C219 H207 0.950 . S
C219 C215 1.393 . S
C219 C218 1.391 . S
H220 C228 0.950 . S
H221 C233 0.950 . S
H222 C230 0.950 . S
H223 C232 0.950 . S
H224 C234 0.950 . S
H225 C236 0.950 . S
H226 C238 0.950 . S
H227 C239 0.950 . S
C228 H220 0.950 . S
C228 C229 1.386 . S
C228 C230 1.391 . S
C229 C228 1.386 . S
C229 C233 1.393 . S
C230 H222 0.950 . S
C230 C228 1.391 . S
C230 C231 1.400 . S
C231 C230 1.400 . S
C231 C232 1.398 . S
C231 C237 1.491 . S
C232 H223 0.950 . S
C232 C231 1.398 . S
C232 C233 1.391 . S
C233 H221 0.950 . S
C233 C229 1.393 . S
C233 C232 1.391 . S
C234 H224 0.950 . S
C234 C235 1.386 . S
C234 C236 1.391 . S
C235 C234 1.386 . S
C235 C239 1.393 . S
C236 H225 0.950 . S
C236 C234 1.391 . S
C236 C237 1.400 . S
C237 C231 1.491 . S
C237 C236 1.400 . S
C237 C238 1.398 . S
C238 H226 0.950 . S
C238 C237 1.398 . S
C238 C239 1.391 . S
C239 H227 0.950 . S
C239 C235 1.393 . S
C239 C238 1.391 . S
H240 C248 0.950 . S
H241 C253 0.950 . S
H242 C250 0.950 . S
H243 C252 0.950 . S
H244 C254 0.950 . S
H245 C256 0.950 . S
H246 C258 0.950 . S
H247 C259 0.950 . S
C248 H240 0.950 . S
C248 C249 1.386 . S
C248 C250 1.391 . S
C249 C248 1.386 . S
C249 C253 1.393 . S
C250 H242 0.950 . S
C250 C248 1.391 . S
C250 C251 1.400 . S
C251 C250 1.400 . S
C251 C252 1.398 . S
C251 C257 1.491 . S
C252 H243 0.950 . S
C252 C251 1.398 . S
C252 C253 1.391 . S
C253 H241 0.950 . S
C253 C249 1.393 . S
C253 C252 1.391 . S
C254 H244 0.950 . S
C254 C255 1.386 . S
C254 C256 1.391 . S
C255 C254 1.386 . S
C255 C259 1.393 . S
C256 H245 0.950 . S
C256 C254 1.391 . S
C256 C257 1.400 . S
C257 C251 1.491 . S
C257 C256 1.400 . S
C257 C258 1.398 . S
C258 H246 0.950 . S
C258 C257 1.398 . S
C258 C259 1.391 . S
C259 H247 0.950 . S
C259 C255 1.393 . S
C259 C258 1.391 . S
H260 C268 0.950 . S
H261 C273 0.950 . S
H262 C270 0.950 . S
H263 C272 0.950 . S
H264 C274 0.950 . S
H265 C276 0.950 . S
H266 C278 0.950 . S
H267 C279 0.950 . S
C268 H260 0.950 . S
C268 C269 1.386 . S
C268 C270 1.391 . S
C269 C268 1.386 . S
C269 C273 1.393 . S
C270 H262 0.950 . S
C270 C268 1.391 . S
C270 C271 1.400 . S
C271 C270 1.400 . S
C271 C272 1.398 . S
C271 C277 1.491 . S
C272 H263 0.950 . S
C272 C271 1.398 . S
C272 C273 1.391 . S
C273 H261 0.950 . S
C273 C269 1.393 . S
C273 C272 1.391 . S
C274 H264 0.950 . S
C274 C275 1.386 . S
C274 C276 1.391 . S
C275 C274 1.386 . S
C275 C279 1.393 . S
C276 H265 0.950 . S
C276 C274 1.391 . S
C276 C277 1.400 1_554 S
C277 C271 1.491 . S
C277 C276 1.400 1_556 S
C277 C278 1.398 . S
C278 H266 0.950 . S
C278 C277 1.398 . S
C278 C279 1.391 1_556 S
C279 H267 0.950 . S
C279 C275 1.393 . S
C279 C278 1.391 1_554 S
H280 C288 0.950 . S
H281 C293 0.950 . S
H282 C290 0.950 . S
H283 C292 0.950 . S
H284 C294 0.950 1_545 S
H285 C296 0.950 . S
H286 C298 0.950 . S
H287 C299 0.950 . S
C288 H280 0.950 . S
C288 C289 1.386 . S
C288 C290 1.391 . S
C289 C288 1.386 . S
C289 C293 1.393 . S
C290 H282 0.950 . S
C290 C288 1.391 . S
C290 C291 1.400 . S
C291 C290 1.400 . S
C291 C292 1.398 . S
C291 C297 1.491 . S
C292 H283 0.950 . S
C292 C291 1.398 . S
C292 C293 1.391 . S
C293 H281 0.950 . S
C293 C289 1.393 . S
C293 C292 1.391 . S
C294 H284 0.950 1_565 S
C294 C295 1.386 . S
C294 C296 1.391 . S
C295 C294 1.386 . S
C295 C299 1.393 . S
C296 H285 0.950 . S
C296 C294 1.391 . S
C296 C297 1.400 . S
C297 C291 1.491 . S
C297 C296 1.400 . S
C297 C298 1.398 . S
C298 H286 0.950 . S
C298 C297 1.398 . S
C298 C299 1.391 . S
C299 H287 0.950 . S
C299 C295 1.393 . S
C299 C298 1.391 . S
H300 C308 0.950 . S
H301 C313 0.950 . S
H302 C310 0.950 . S
H303 C312 0.950 . S
H304 C314 0.950 . S
H305 C316 0.950 . S
H306 C318 0.950 . S
H307 C319 0.950 . S
C308 H300 0.950 . S
C308 C309 1.386 . S
C308 C310 1.391 . S
C309 C308 1.386 . S
C309 C313 1.393 . S
C310 H302 0.950 . S
C310 C308 1.391 . S
C310 C311 1.400 . S
C311 C310 1.400 . S
C311 C312 1.398 . S
C311 C317 1.491 . S
C312 H303 0.950 . S
C312 C311 1.398 . S
C312 C313 1.391 . S
C313 H301 0.950 . S
C313 C309 1.393 . S
C313 C312 1.391 . S
C314 H304 0.950 . S
C314 C315 1.386 . S
C314 C316 1.391 . S
C315 C314 1.386 . S
C315 C319 1.393 . S
C316 H305 0.950 . S
C316 C314 1.391 . S
C316 C317 1.400 . S
C317 C311 1.491 . S
C317 C316 1.400 . S
C317 C318 1.398 . S
C318 H306 0.950 . S
C318 C317 1.398 . S
C318 C319 1.391 . S
C319 H307 0.950 . S
C319 C315 1.393 . S
C319 C318 1.391 . S
H320 C328 0.950 . S
H321 C333 0.950 . S
H322 C330 0.950 . S
H323 C332 0.950 . S
H324 C334 0.950 . S
H325 C336 0.950 . S
H326 C338 0.950 . S
H327 C339 0.950 . S
C328 H320 0.950 . S
C328 C329 1.386 . S
C328 C330 1.391 . S
C329 C328 1.386 . S
C329 C333 1.393 . S
C330 H322 0.950 . S
C330 C328 1.391 . S
C330 C331 1.400 . S
C331 C330 1.400 . S
C331 C332 1.398 . S
C331 C337 1.491 . S
C332 H323 0.950 . S
C332 C331 1.398 . S
C332 C333 1.391 . S
C333 H321 0.950 . S
C333 C329 1.393 . S
C333 C332 1.391 . S
C334 H324 0.950 . S
C334 C335 1.386 . S
C334 C336 1.391 . S
C335 C334 1.386 . S
C335 C339 1.393 . S
C336 H325 0.950 . S
C336 C334 1.391 . S
C336 C337 1.400 . S
C337 C331 1.491 . S
C337 C336 1.400 . S
C337 C338 1.398 . S
C338 H326 0.950 . S
C338 C337 1.398 . S
C338 C339 1.391 . S
C339 H327 0.950 . S
C339 C335 1.393 . S
C339 C338 1.391 . S
H340 C348 0.950 . S
H341 C353 0.950 . S
H342 C350 0.950 . S
H343 C352 0.950 . S
H344 C354 0.950 . S
H345 C356 0.950 . S
H346 C358 0.950 . S
H347 C359 0.950 . S
C348 H340 0.950 . S
C348 C349 1.386 . S
C348 C350 1.391 1_545 S
C349 C348 1.386 . S
C349 C353 1.393 . S
C350 H342 0.950 . S
C350 C348 1.391 1_565 S
C350 C351 1.400 . S
C351 C350 1.400 . S
C351 C352 1.398 . S
C351 C357 1.491 . S
C352 H343 0.950 . S
C352 C351 1.398 . S
C352 C353 1.391 1_565 S
C353 H341 0.950 . S
C353 C349 1.393 . S
C353 C352 1.391 1_545 S
C354 H344 0.950 . S
C354 C355 1.386 . S
C354 C356 1.391 . S
C355 C354 1.386 . S
C355 C359 1.393 . S
C356 H345 0.950 . S
C356 C354 1.391 . S
C356 C357 1.400 . S
C357 C351 1.491 . S
C357 C356 1.400 . S
C357 C358 1.398 . S
C358 H346 0.950 . S
C358 C357 1.398 . S
C358 C359 1.391 . S
C359 H347 0.950 . S
C359 C355 1.393 . S
C359 C358 1.391 . S
H360 C368 0.950 . S
H361 C373 0.950 . S
H362 C370 0.950 . S
H363 C372 0.950 . S
H364 C374 0.950 . S
H365 C376 0.950 . S
H366 C378 0.950 . S
H367 C379 0.950 . S
C368 H360 0.950 . S
C368 C369 1.386 . S
C368 C370 1.391 . S
C369 C368 1.386 . S
C369 C373 1.393 . S
C370 H362 0.950 . S
C370 C368 1.391 . S
C370 C371 1.400 . S
C371 C370 1.400 . S
C371 C372 1.398 . S
C371 C377 1.491 . S
C372 H363 0.950 . S
C372 C371 1.398 . S
C372 C373 1.391 . S
C373 H361 0.950 . S
C373 C369 1.393 . S
C373 C372 1.391 . S
C374 H364 0.950 . S
C374 C375 1.386 . S
C374 C376 1.391 . S
C375 C374 1.386 . S
C375 C379 1.393 . S
C376 H365 0.950 . S
C376 C374 1.391 . S
C376 C377 1.400 . S
C377 C371 1.491 . S
C377 C376 1.400 . S
C377 C378 1.398 . S
C378 H366 0.950 . S
C378 C377 1.398 . S
C378 C379 1.391 . S
C379 H367 0.950 . S
C379 C375 1.393 . S
C379 C378 1.391 . S
H380 C388 0.950 . S
H381 C393 0.950 . S
H382 C390 0.950 . S
H383 C392 0.950 . S
H384 C394 0.950 1_455 S
H385 C396 0.950 . S
H386 C398 0.950 . S
H387 C399 0.950 . S
C388 H380 0.950 . S
C388 C389 1.386 . S
C388 C390 1.391 . S
C389 C388 1.386 . S
C389 C393 1.393 . S
C390 H382 0.950 . S
C390 C388 1.391 . S
C390 C391 1.400 . S
C391 C390 1.400 . S
C391 C392 1.398 . S
C391 C397 1.491 . S
C392 H383 0.950 . S
C392 C391 1.398 . S
C392 C393 1.391 . S
C393 H381 0.950 . S
C393 C389 1.393 . S
C393 C392 1.391 . S
C394 H384 0.950 1_655 S
C394 C395 1.386 . S
C394 C396 1.391 . S
C395 C394 1.386 . S
C395 C399 1.393 . S
C396 H385 0.950 . S
C396 C394 1.391 . S
C396 C397 1.400 . S
C397 C391 1.491 . S
C397 C396 1.400 . S
C397 C398 1.398 . S
C398 H386 0.950 . S
C398 C397 1.398 . S
C398 C399 1.391 . S
C399 H387 0.950 . S
C399 C395 1.393 . S
C399 C398 1.391 . S
C169 C90 0.504 . S
C175 C19 0.504 . S
C189 C130 0.634 . S
C195 C59 0.634 . S
C209 C99 1.121 . S
C215 C10 1.121 . S
C229 C50 1.061 . S
C235 C139 1.061 . S
C249 C56 1.049 . S
C255 C7 1.055 . S
C269 C47 1.712 . S
C275 C91 1.745 . S
C289 C131 2.146 . S
C295 C82 2.088 . S
C309 C122 1.313 . S
C315 C16 1.347 . S
C329 C96 1.031 . S
C335 C127 1.059 . S
C349 C2 1.743 . S
C355 C136 1.713 . S
C369 C42 2.148 . S
C375 C11 2.095 1_556 S
C389 C87 1.338 . S
C395 C51 1.333 . S
