# Generated by pormake.
# Topology sog, (5)-cn, num edge types: 1
# Building blocks:
#     Node 0, Type 0, BuildingBlock: XOMCOT_clean_sbu_1, # of connection points: 5
#     Node 1, Type 0, BuildingBlock: XOMCOT_clean_sbu_1, # of connection points: 5
#     Node 2, Type 0, BuildingBlock: XOMCOT_clean_sbu_1, # of connection points: 5
#     Node 3, Type 0, BuildingBlock: XOMCOT_clean_sbu_1, # of connection points: 5
#     Node 4, Type 0, BuildingBlock: XOMCOT_clean_sbu_1, # of connection points: 5
#     Node 5, Type 0, BuildingBlock: XOMCOT_clean_sbu_1, # of connection points: 5
#     Node 6, Type 0, BuildingBlock: XOMCOT_clean_sbu_1, # of connection points: 5
#     Node 7, Type 0, BuildingBlock: XOMCOT_clean_sbu_1, # of connection points: 5
#     Node 8, Type 0, BuildingBlock: XOMCOT_clean_sbu_1, # of connection points: 5
#     Node 9, Type 0, BuildingBlock: XOMCOT_clean_sbu_1, # of connection points: 5
#     Node 10, Type 0, BuildingBlock: XOMCOT_clean_sbu_1, # of connection points: 5
#     Node 11, Type 0, BuildingBlock: XOMCOT_clean_sbu_1, # of connection points: 5
#     Node 12, Type 0, BuildingBlock: XOMCOT_clean_sbu_1, # of connection points: 5
#     Node 13, Type 0, BuildingBlock: XOMCOT_clean_sbu_1, # of connection points: 5
#     Node 14, Type 0, BuildingBlock: XOMCOT_clean_sbu_1, # of connection points: 5
#     Node 15, Type 0, BuildingBlock: XOMCOT_clean_sbu_1, # of connection points: 5
#     Node 16, Type 0, BuildingBlock: XOMCOT_clean_sbu_1, # of connection points: 5
#     Node 17, Type 0, BuildingBlock: XOMCOT_clean_sbu_1, # of connection points: 5
#     Node 18, Type 0, BuildingBlock: XOMCOT_clean_sbu_1, # of connection points: 5
#     Node 19, Type 0, BuildingBlock: XOMCOT_clean_sbu_1, # of connection points: 5
#     Node 20, Type 0, BuildingBlock: XOMCOT_clean_sbu_1, # of connection points: 5
#     Node 21, Type 0, BuildingBlock: XOMCOT_clean_sbu_1, # of connection points: 5
#     Node 22, Type 0, BuildingBlock: XOMCOT_clean_sbu_1, # of connection points: 5
#     Node 23, Type 0, BuildingBlock: XOMCOT_clean_sbu_1, # of connection points: 5
#     Node 24, Type 0, BuildingBlock: XOMCOT_clean_sbu_1, # of connection points: 5
#     Node 25, Type 0, BuildingBlock: XOMCOT_clean_sbu_1, # of connection points: 5
#     Node 26, Type 0, BuildingBlock: XOMCOT_clean_sbu_1, # of connection points: 5
#     Node 27, Type 0, BuildingBlock: XOMCOT_clean_sbu_1, # of connection points: 5
#     Node 28, Type 0, BuildingBlock: XOMCOT_clean_sbu_1, # of connection points: 5
#     Node 29, Type 0, BuildingBlock: XOMCOT_clean_sbu_1, # of connection points: 5
#     Node 30, Type 0, BuildingBlock: XOMCOT_clean_sbu_1, # of connection points: 5
#     Node 31, Type 0, BuildingBlock: XOMCOT_clean_sbu_1, # of connection points: 5
#     Edge 32, Type (0, 0), BuildingBlock: CIFDUS_clean_linker_0, # of connection points: 2
#     Edge 33, Type (0, 0), BuildingBlock: CIFDUS_clean_linker_0, # of connection points: 2
#     Edge 34, Type (0, 0), BuildingBlock: CIFDUS_clean_linker_0, # of connection points: 2
#     Edge 35, Type (0, 0), BuildingBlock: CIFDUS_clean_linker_0, # of connection points: 2
#     Edge 36, Type (0, 0), BuildingBlock: CIFDUS_clean_linker_0, # of connection points: 2
#     Edge 37, Type (0, 0), BuildingBlock: CIFDUS_clean_linker_0, # of connection points: 2
#     Edge 38, Type (0, 0), BuildingBlock: CIFDUS_clean_linker_0, # of connection points: 2
#     Edge 39, Type (0, 0), BuildingBlock: CIFDUS_clean_linker_0, # of connection points: 2
#     Edge 40, Type (0, 0), BuildingBlock: CIFDUS_clean_linker_0, # of connection points: 2
#     Edge 41, Type (0, 0), BuildingBlock: CIFDUS_clean_linker_0, # of connection points: 2
#     Edge 42, Type (0, 0), BuildingBlock: CIFDUS_clean_linker_0, # of connection points: 2
#     Edge 43, Type (0, 0), BuildingBlock: CIFDUS_clean_linker_0, # of connection points: 2
#     Edge 44, Type (0, 0), BuildingBlock: CIFDUS_clean_linker_0, # of connection points: 2
#     Edge 45, Type (0, 0), BuildingBlock: CIFDUS_clean_linker_0, # of connection points: 2
#     Edge 46, Type (0, 0), BuildingBlock: CIFDUS_clean_linker_0, # of connection points: 2
#     Edge 47, Type (0, 0), BuildingBlock: CIFDUS_clean_linker_0, # of connection points: 2
#     Edge 48, Type (0, 0), BuildingBlock: CIFDUS_clean_linker_0, # of connection points: 2
#     Edge 49, Type (0, 0), BuildingBlock: CIFDUS_clean_linker_0, # of connection points: 2
#     Edge 50, Type (0, 0), BuildingBlock: CIFDUS_clean_linker_0, # of connection points: 2
#     Edge 51, Type (0, 0), BuildingBlock: CIFDUS_clean_linker_0, # of connection points: 2
#     Edge 52, Type (0, 0), BuildingBlock: CIFDUS_clean_linker_0, # of connection points: 2
#     Edge 53, Type (0, 0), BuildingBlock: CIFDUS_clean_linker_0, # of connection points: 2
#     Edge 54, Type (0, 0), BuildingBlock: CIFDUS_clean_linker_0, # of connection points: 2
#     Edge 55, Type (0, 0), BuildingBlock: CIFDUS_clean_linker_0, # of connection points: 2
#     Edge 56, Type (0, 0), BuildingBlock: CIFDUS_clean_linker_0, # of connection points: 2
#     Edge 57, Type (0, 0), BuildingBlock: CIFDUS_clean_linker_0, # of connection points: 2
#     Edge 58, Type (0, 0), BuildingBlock: CIFDUS_clean_linker_0, # of connection points: 2
#     Edge 59, Type (0, 0), BuildingBlock: CIFDUS_clean_linker_0, # of connection points: 2
#     Edge 60, Type (0, 0), BuildingBlock: CIFDUS_clean_linker_0, # of connection points: 2
#     Edge 61, Type (0, 0), BuildingBlock: CIFDUS_clean_linker_0, # of connection points: 2
#     Edge 62, Type (0, 0), BuildingBlock: CIFDUS_clean_linker_0, # of connection points: 2
#     Edge 63, Type (0, 0), BuildingBlock: CIFDUS_clean_linker_0, # of connection points: 2
#     Edge 64, Type (0, 0), BuildingBlock: CIFDUS_clean_linker_0, # of connection points: 2
#     Edge 65, Type (0, 0), BuildingBlock: CIFDUS_clean_linker_0, # of connection points: 2
#     Edge 66, Type (0, 0), BuildingBlock: CIFDUS_clean_linker_0, # of connection points: 2
#     Edge 67, Type (0, 0), BuildingBlock: CIFDUS_clean_linker_0, # of connection points: 2
#     Edge 68, Type (0, 0), BuildingBlock: CIFDUS_clean_linker_0, # of connection points: 2
#     Edge 69, Type (0, 0), BuildingBlock: CIFDUS_clean_linker_0, # of connection points: 2
#     Edge 70, Type (0, 0), BuildingBlock: CIFDUS_clean_linker_0, # of connection points: 2
#     Edge 71, Type (0, 0), BuildingBlock: CIFDUS_clean_linker_0, # of connection points: 2
#     Edge 72, Type (0, 0), BuildingBlock: CIFDUS_clean_linker_0, # of connection points: 2
#     Edge 73, Type (0, 0), BuildingBlock: CIFDUS_clean_linker_0, # of connection points: 2
#     Edge 74, Type (0, 0), BuildingBlock: CIFDUS_clean_linker_0, # of connection points: 2
#     Edge 75, Type (0, 0), BuildingBlock: CIFDUS_clean_linker_0, # of connection points: 2
#     Edge 76, Type (0, 0), BuildingBlock: CIFDUS_clean_linker_0, # of connection points: 2
#     Edge 77, Type (0, 0), BuildingBlock: CIFDUS_clean_linker_0, # of connection points: 2
#     Edge 78, Type (0, 0), BuildingBlock: CIFDUS_clean_linker_0, # of connection points: 2
#     Edge 79, Type (0, 0), BuildingBlock: CIFDUS_clean_linker_0, # of connection points: 2
#     Edge 80, Type (0, 0), BuildingBlock: CIFDUS_clean_linker_0, # of connection points: 2
#     Edge 81, Type (0, 0), BuildingBlock: CIFDUS_clean_linker_0, # of connection points: 2
#     Edge 82, Type (0, 0), BuildingBlock: CIFDUS_clean_linker_0, # of connection points: 2
#     Edge 83, Type (0, 0), BuildingBlock: CIFDUS_clean_linker_0, # of connection points: 2
#     Edge 84, Type (0, 0), BuildingBlock: CIFDUS_clean_linker_0, # of connection points: 2
#     Edge 85, Type (0, 0), BuildingBlock: CIFDUS_clean_linker_0, # of connection points: 2
#     Edge 86, Type (0, 0), BuildingBlock: CIFDUS_clean_linker_0, # of connection points: 2
#     Edge 87, Type (0, 0), BuildingBlock: CIFDUS_clean_linker_0, # of connection points: 2
#     Edge 88, Type (0, 0), BuildingBlock: CIFDUS_clean_linker_0, # of connection points: 2
#     Edge 89, Type (0, 0), BuildingBlock: CIFDUS_clean_linker_0, # of connection points: 2
#     Edge 90, Type (0, 0), BuildingBlock: CIFDUS_clean_linker_0, # of connection points: 2
#     Edge 91, Type (0, 0), BuildingBlock: CIFDUS_clean_linker_0, # of connection points: 2
#     Edge 92, Type (0, 0), BuildingBlock: CIFDUS_clean_linker_0, # of connection points: 2
#     Edge 93, Type (0, 0), BuildingBlock: CIFDUS_clean_linker_0, # of connection points: 2
#     Edge 94, Type (0, 0), BuildingBlock: CIFDUS_clean_linker_0, # of connection points: 2
#     Edge 95, Type (0, 0), BuildingBlock: CIFDUS_clean_linker_0, # of connection points: 2
#     Edge 96, Type (0, 0), BuildingBlock: CIFDUS_clean_linker_0, # of connection points: 2
#     Edge 97, Type (0, 0), BuildingBlock: CIFDUS_clean_linker_0, # of connection points: 2
#     Edge 98, Type (0, 0), BuildingBlock: CIFDUS_clean_linker_0, # of connection points: 2
#     Edge 99, Type (0, 0), BuildingBlock: CIFDUS_clean_linker_0, # of connection points: 2
#     Edge 100, Type (0, 0), BuildingBlock: CIFDUS_clean_linker_0, # of connection points: 2
#     Edge 101, Type (0, 0), BuildingBlock: CIFDUS_clean_linker_0, # of connection points: 2
#     Edge 102, Type (0, 0), BuildingBlock: CIFDUS_clean_linker_0, # of connection points: 2
#     Edge 103, Type (0, 0), BuildingBlock: CIFDUS_clean_linker_0, # of connection points: 2
#     Edge 104, Type (0, 0), BuildingBlock: CIFDUS_clean_linker_0, # of connection points: 2
#     Edge 105, Type (0, 0), BuildingBlock: CIFDUS_clean_linker_0, # of connection points: 2
#     Edge 106, Type (0, 0), BuildingBlock: CIFDUS_clean_linker_0, # of connection points: 2
#     Edge 107, Type (0, 0), BuildingBlock: CIFDUS_clean_linker_0, # of connection points: 2
#     Edge 108, Type (0, 0), BuildingBlock: CIFDUS_clean_linker_0, # of connection points: 2
#     Edge 109, Type (0, 0), BuildingBlock: CIFDUS_clean_linker_0, # of connection points: 2
#     Edge 110, Type (0, 0), BuildingBlock: CIFDUS_clean_linker_0, # of connection points: 2
#     Edge 111, Type (0, 0), BuildingBlock: CIFDUS_clean_linker_0, # of connection points: 2
# Relax obj value: 0.191
# Max RMSD: 0.185
# Mean RMSD: 0.185
data_MOF--net-sog--node1-XOMCOT_clean_sbu_1--edge1-CIFDUS_clean_linker_0
_symmetry_space_group_name_H-M    P1
_symmetry_Int_Tables_number       1
_symmetry_cell_setting            triclinic
loop_
_symmetry_equiv_pos_as_xyz
'x, y, z'
_cell_length_a     79.297468
_cell_length_b     15.409792
_cell_length_c     102.64103
_cell_angle_alpha  89.99351
_cell_angle_beta   89.979289
_cell_angle_gamma 89.921571
loop_
_atom_site_label
_atom_site_type_symbol
_atom_site_fract_x
_atom_site_fract_y
_atom_site_fract_z
_atom_type_partial_charge
C0 C 0.45955 0.27717 0.05368 0.0
C1 C 0.46204 0.3651 0.05482 0.0
N2 N 0.4541 0.40532 0.04488 0.0
N3 N 0.44995 0.26132 0.04312 0.0
C4 C 0.44702 0.3404 0.03786 0.0
H5 H 0.46412 0.22799 0.06031 0.0
Co6 Co 0.44189 0.15241 0.03799 0.0
C7 C 0.40619 0.18861 0.02997 0.0
O8 O 0.40166 0.11254 0.03457 0.0
N9 N 0.43429 0.04202 0.03248 0.0
C10 C 0.42649 0.93872 0.01852 0.0
C11 C 0.42807 0.02649 0.02044 0.0
C12 C 0.43688 0.9617 0.0375 0.0
N13 N 0.43211 0.89777 0.02925 0.0
O14 O 0.45469 0.15848 0.02213 0.0
H15 H 0.42561 0.07597 0.01321 0.0
H16 H 0.4428 0.94938 0.04677 0.0
O17 O 0.42181 0.21039 0.03023 0.0
C18 C 0.46981 0.13491 0.02464 0.0
O19 O 0.47417 0.12376 0.03687 0.0
N20 N 0.43119 0.14226 0.05429 0.0
C21 C 0.42296 0.13569 0.08078 0.0
C22 C 0.41404 0.19017 0.07223 0.0
C23 C 0.41864 0.19417 0.05908 0.0
C24 C 0.44013 0.09041 0.06252 0.0
C25 C 0.43611 0.08508 0.07569 0.0
H26 H 0.41281 0.24329 0.05312 0.0
H27 H 0.45136 0.05811 0.05904 0.0
H28 H 0.43981 0.34992 0.02905 0.0
H29 H 0.46875 0.39668 0.06267 0.0
H30 H 0.42242 0.9075 0.00962 0.0
H31 H 0.40406 0.23209 0.07575 0.0
H32 H 0.44401 0.04574 0.08196 0.0
C33 C 0.78791 0.98513 0.04846 0.0
C34 C 0.78515 0.89708 0.04765 0.0
N35 N 0.79529 0.86485 0.03828 0.0
N36 N 0.7999 0.00743 0.03979 0.0
C37 C 0.8039 0.93323 0.03357 0.0
H38 H 0.78218 0.02937 0.05535 0.0
Co39 Co 0.81007 0.11452 0.03824 0.0
C40 C 0.84625 0.06808 0.03387 0.0
O41 O 0.8505 0.12995 0.04205 0.0
N42 N 0.81972 0.22473 0.03633 0.0
C43 C 0.83138 0.34087 0.02703 0.0
C44 C 0.83065 0.2517 0.02705 0.0
C45 C 0.81347 0.29905 0.04136 0.0
N46 N 0.82052 0.37021 0.03608 0.0
O47 O 0.80015 0.12942 0.02131 0.0
H48 H 0.83673 0.21004 0.02 0.0
H49 H 0.80259 0.30214 0.04764 0.0
O50 O 0.83064 0.05765 0.03098 0.0
C51 C 0.78585 0.16677 0.02265 0.0
O52 O 0.78034 0.18108 0.03454 0.0
N53 N 0.81813 0.1027 0.05557 0.0
C54 C 0.82542 0.08882 0.08217 0.0
C55 C 0.83216 0.02919 0.07324 0.0
C56 C 0.82808 0.03622 0.06 0.0
C57 C 0.8105 0.15637 0.06433 0.0
C58 C 0.8143 0.15231 0.07755 0.0
H59 H 0.83245 0.98621 0.05345 0.0
H60 H 0.80057 0.19914 0.06125 0.0
H61 H 0.81366 0.92814 0.02626 0.0
H62 H 0.7768 0.85933 0.05377 0.0
H63 H 0.83863 0.38087 0.02042 0.0
H64 H 0.84025 0.97677 0.07647 0.0
H65 H 0.80789 0.19592 0.0842 0.0
C66 C 0.46514 0.98062 0.19179 0.0
C67 C 0.46665 0.89166 0.19269 0.0
N68 N 0.45631 0.86429 0.20225 0.0
N69 N 0.45375 0.00768 0.20066 0.0
C70 C 0.44916 0.93603 0.20719 0.0
H71 H 0.47082 0.02178 0.18447 0.0
Co72 Co 0.44355 0.11433 0.20216 0.0
C73 C 0.40732 0.06567 0.20389 0.0
O74 O 0.40398 0.12936 0.19576 0.0
N75 N 0.43404 0.22335 0.20426 0.0
C76 C 0.42233 0.33838 0.21375 0.0
C77 C 0.42152 0.24991 0.21228 0.0
C78 C 0.44273 0.29613 0.20159 0.0
N79 N 0.43583 0.36687 0.20708 0.0
O80 O 0.45232 0.12555 0.21946 0.0
H81 H 0.41336 0.20783 0.21784 0.0
H82 H 0.45474 0.29623 0.19661 0.0
O83 O 0.42239 0.05655 0.20821 0.0
C84 C 0.46716 0.15745 0.2188 0.0
O85 O 0.47394 0.16772 0.20722 0.0
N86 N 0.43631 0.10568 0.18445 0.0
C87 C 0.42867 0.09031 0.15788 0.0
C88 C 0.42444 0.02412 0.16666 0.0
C89 C 0.42869 0.03225 0.1798 0.0
C90 C 0.44114 0.16875 0.17591 0.0
C91 C 0.43726 0.16303 0.16269 0.0
H92 H 0.42609 0.97832 0.18621 0.0
H93 H 0.44872 0.22235 0.17908 0.0
H94 H 0.43978 0.93526 0.21484 0.0
H95 H 0.47356 0.84993 0.18608 0.0
H96 H 0.41449 0.37747 0.22009 0.0
H97 H 0.41806 0.96593 0.16342 0.0
H98 H 0.44159 0.21381 0.15621 0.0
C99 C 0.78858 0.27266 0.18901 0.0
C100 C 0.78629 0.36126 0.18947 0.0
N101 N 0.79377 0.39149 0.20034 0.0
N102 N 0.79777 0.24766 0.19942 0.0
C103 C 0.80022 0.32105 0.20633 0.0
H104 H 0.7846 0.23022 0.18122 0.0
Co105 Co 0.80782 0.14048 0.20255 0.0
C106 C 0.84333 0.19388 0.2114 0.0
O107 O 0.8507 0.12124 0.20786 0.0
N108 N 0.81742 0.03158 0.20598 0.0
C109 C 0.82618 0.91707 0.2174 0.0
C110 C 0.82496 0.00621 0.21716 0.0
C111 C 0.81387 0.95648 0.19977 0.0
N112 N 0.81911 0.88603 0.20643 0.0
O113 O 0.79689 0.13443 0.21919 0.0
H114 H 0.82819 0.04919 0.2251 0.0
H115 H 0.80604 0.95219 0.19123 0.0
O116 O 0.82738 0.20278 0.20993 0.0
C117 C 0.7831 0.09212 0.21828 0.0
O118 O 0.77817 0.06701 0.20665 0.0
N119 N 0.81716 0.14268 0.18561 0.0
C120 C 0.82562 0.14101 0.15916 0.0
C121 C 0.83487 0.19121 0.16804 0.0
C122 C 0.83031 0.19202 0.18122 0.0
C123 C 0.80766 0.09671 0.17698 0.0
C124 C 0.81183 0.09357 0.1638 0.0
H125 H 0.83697 0.2354 0.1876 0.0
H126 H 0.79627 0.06514 0.18026 0.0
H127 H 0.8076 0.32381 0.21518 0.0
H128 H 0.78022 0.40072 0.18211 0.0
H129 H 0.83106 0.87818 0.22533 0.0
H130 H 0.84534 0.23077 0.1648 0.0
H131 H 0.80382 0.0573 0.15722 0.0
C132 C 0.53114 0.74676 0.94044 0.0
C133 C 0.52844 0.65871 0.93957 0.0
N134 N 0.53653 0.61925 0.9495 0.0
N135 N 0.54102 0.76347 0.95082 0.0
C136 C 0.54381 0.68466 0.95628 0.0
H137 H 0.52661 0.79521 0.93367 0.0
Co138 Co 0.55009 0.87225 0.95547 0.0
C139 C 0.58584 0.82102 0.96354 0.0
O140 O 0.59251 0.89494 0.95981 0.0
N141 N 0.55876 0.98204 0.96044 0.0
C142 C 0.56831 0.08655 0.97352 0.0
C143 C 0.56654 0.99848 0.97188 0.0
C144 C 0.55536 0.06215 0.95557 0.0
N145 N 0.56118 0.12684 0.96327 0.0
O146 O 0.538 0.87009 0.97167 0.0
H147 H 0.56986 0.94968 0.979 0.0
H148 H 0.54807 0.07374 0.94688 0.0
O149 O 0.56985 0.80976 0.9627 0.0
C150 C 0.52298 0.89583 0.96928 0.0
O151 O 0.51852 0.90724 0.95707 0.0
N152 N 0.56003 0.87952 0.93888 0.0
C153 C 0.56573 0.88137 0.91206 0.0
C154 C 0.57573 0.82977 0.92025 0.0
C155 C 0.57246 0.82848 0.93368 0.0
C156 C 0.55046 0.93064 0.93099 0.0
C157 C 0.55326 0.93383 0.91764 0.0
H158 H 0.57906 0.78156 0.93954 0.0
H159 H 0.53957 0.96363 0.93492 0.0
H160 H 0.55118 0.67537 0.96503 0.0
H161 H 0.5216 0.62624 0.93187 0.0
H162 H 0.57353 0.11846 0.982 0.0
H163 H 0.5851 0.78618 0.91622 0.0
H164 H 0.54506 0.97336 0.91163 0.0
C165 C 0.21456 0.00967 0.94393 0.0
C166 C 0.21648 0.09837 0.94446 0.0
N167 N 0.20869 0.12725 0.95529 0.0
N168 N 0.2053 0.98375 0.95425 0.0
C169 C 0.20227 0.05653 0.96112 0.0
H170 H 0.21901 0.9675 0.93624 0.0
Co171 Co 0.19657 0.87507 0.95781 0.0
C172 C 0.1604 0.91103 0.96379 0.0
O173 O 0.15641 0.83879 0.95772 0.0
N174 N 0.18802 0.76487 0.96185 0.0
C175 C 0.1787 0.65412 0.97382 0.0
C176 C 0.18085 0.74264 0.97333 0.0
C177 C 0.19037 0.68846 0.95568 0.0
N178 N 0.1847 0.62055 0.96265 0.0
O179 O 0.20805 0.87405 0.97433 0.0
H180 H 0.17807 0.78766 0.98112 0.0
H181 H 0.19733 0.68051 0.94676 0.0
O182 O 0.17598 0.93161 0.96495 0.0
C183 C 0.22318 0.8503 0.97183 0.0
O184 O 0.22752 0.83933 0.95958 0.0
N185 N 0.18758 0.87197 0.94083 0.0
C186 C 0.18278 0.86793 0.91384 0.0
C187 C 0.17273 0.92154 0.92176 0.0
C188 C 0.17551 0.92371 0.93528 0.0
C189 C 0.19773 0.82257 0.93315 0.0
C190 C 0.19511 0.81648 0.91984 0.0
H191 H 0.16875 0.97104 0.941 0.0
H192 H 0.20867 0.7913 0.93731 0.0
H193 H 0.1947 0.05847 0.96988 0.0
H194 H 0.22262 0.13878 0.93725 0.0
H195 H 0.17372 0.61722 0.98192 0.0
H196 H 0.1635 0.96496 0.91751 0.0
H197 H 0.2033 0.77433 0.91423 0.0
C198 C 0.54544 0.98842 0.80561 0.0
C199 C 0.54308 0.07647 0.80712 0.0
N200 N 0.5527 0.11843 0.79828 0.0
N201 N 0.55658 0.97437 0.79593 0.0
C202 C 0.56046 0.05456 0.79148 0.0
H203 H 0.53987 0.93787 0.81152 0.0
Co204 Co 0.56583 0.86644 0.79139 0.0
C205 C 0.60192 0.91347 0.78611 0.0
O206 O 0.60685 0.84382 0.79246 0.0
N207 N 0.57458 0.75566 0.78647 0.0
C208 C 0.58626 0.65108 0.77441 0.0
C209 C 0.58503 0.73909 0.77637 0.0
C210 C 0.56893 0.67572 0.78997 0.0
N211 N 0.57605 0.61077 0.78296 0.0
O212 O 0.55463 0.87098 0.7749 0.0
H213 H 0.59071 0.78777 0.7702 0.0
H214 H 0.55869 0.66514 0.79668 0.0
O215 O 0.5861 0.92747 0.78455 0.0
C216 C 0.5403 0.83417 0.77618 0.0
O217 O 0.53584 0.80786 0.78787 0.0
N218 N 0.57518 0.85891 0.80829 0.0
C219 C 0.58088 0.85599 0.83518 0.0
C220 C 0.58881 0.91807 0.82729 0.0
C221 C 0.58552 0.91953 0.81387 0.0
C222 C 0.56736 0.79895 0.81592 0.0
C223 C 0.57039 0.79464 0.82925 0.0
H224 H 0.59028 0.97339 0.80825 0.0
H225 H 0.55752 0.75908 0.81195 0.0
H226 H 0.56921 0.06589 0.78365 0.0
H227 H 0.53509 0.10685 0.81434 0.0
H228 H 0.59371 0.61981 0.76693 0.0
H229 H 0.59648 0.96875 0.83155 0.0
H230 H 0.56372 0.74665 0.83498 0.0
C231 C 0.22849 0.72372 0.80581 0.0
C232 C 0.2306 0.63511 0.80518 0.0
N233 N 0.22293 0.60607 0.79432 0.0
N234 N 0.21922 0.75 0.79551 0.0
C235 C 0.21658 0.67727 0.78848 0.0
H236 H 0.2327 0.7652 0.81363 0.0
Co237 Co 0.20925 0.85798 0.79243 0.0
C238 C 0.17316 0.80463 0.78546 0.0
O239 O 0.16619 0.8774 0.78941 0.0
N240 N 0.1996 0.96675 0.78902 0.0
C241 C 0.18997 0.07982 0.77767 0.0
C242 C 0.19146 0.99074 0.77802 0.0
C243 C 0.20317 0.04254 0.79502 0.0
N244 N 0.19739 0.11204 0.78842 0.0
O245 O 0.21938 0.86268 0.77551 0.0
H246 H 0.18787 0.94679 0.7703 0.0
H247 H 0.21124 0.0483 0.80341 0.0
O248 O 0.1892 0.79558 0.78601 0.0
C249 C 0.23471 0.88654 0.77682 0.0
O250 O 0.24101 0.89158 0.78864 0.0
N251 N 0.20113 0.85879 0.80963 0.0
C252 C 0.19692 0.86362 0.83664 0.0
C253 C 0.18581 0.81558 0.8288 0.0
C254 C 0.18826 0.81304 0.81525 0.0
C255 C 0.212 0.90474 0.81719 0.0
C256 C 0.20991 0.90997 0.83058 0.0
H257 H 0.18039 0.77067 0.80956 0.0
H258 H 0.22299 0.93423 0.81281 0.0
H259 H 0.20913 0.67567 0.77966 0.0
H260 H 0.23668 0.59481 0.81244 0.0
H261 H 0.18458 0.1179 0.76985 0.0
H262 H 0.1759 0.77685 0.83314 0.0
H263 H 0.21885 0.9477 0.83619 0.0
C264 C 0.47581 0.76908 0.55462 0.0
C265 C 0.47824 0.85741 0.554 0.0
N266 N 0.46898 0.88848 0.54404 0.0
N267 N 0.46482 0.74539 0.54525 0.0
C268 C 0.46119 0.81927 0.53881 0.0
H269 H 0.48116 0.7256 0.56178 0.0
Co270 Co 0.45511 0.63728 0.54281 0.0
C271 C 0.41898 0.68092 0.53694 0.0
O272 O 0.41393 0.615 0.54407 0.0
N273 N 0.44576 0.52759 0.54003 0.0
C274 C 0.43549 0.41361 0.52932 0.0
C275 C 0.43687 0.50253 0.52944 0.0
C276 C 0.44998 0.45253 0.54596 0.0
N277 N 0.44382 0.38251 0.53974 0.0
O278 O 0.46559 0.62785 0.52603 0.0
H279 H 0.43265 0.54556 0.52178 0.0
H280 H 0.45878 0.44769 0.55392 0.0
O281 O 0.4348 0.69457 0.5355 0.0
C282 C 0.48066 0.60096 0.52787 0.0
O283 O 0.48612 0.59364 0.53991 0.0
N284 N 0.44683 0.64218 0.56001 0.0
C285 C 0.44316 0.65036 0.58706 0.0
C286 C 0.43263 0.6995 0.5789 0.0
C287 C 0.43496 0.69617 0.56534 0.0
C288 C 0.45727 0.59586 0.56792 0.0
C289 C 0.45544 0.59735 0.58137 0.0
H290 H 0.42796 0.741 0.55936 0.0
H291 H 0.46798 0.56239 0.56382 0.0
H292 H 0.45229 0.82337 0.53086 0.0
H293 H 0.48576 0.89612 0.5606 0.0
H294 H 0.42959 0.37485 0.52181 0.0
H295 H 0.42346 0.74397 0.583 0.0
H296 H 0.46414 0.56021 0.58731 0.0
C297 C 0.78962 0.50464 0.55471 0.0
C298 C 0.78698 0.41658 0.55565 0.0
N299 N 0.79697 0.37583 0.54691 0.0
N300 N 0.80136 0.52012 0.54552 0.0
C301 C 0.80536 0.44065 0.54079 0.0
H302 H 0.7837 0.55405 0.56063 0.0
Co303 Co 0.81081 0.62846 0.54147 0.0
C304 C 0.84721 0.58258 0.53565 0.0
O305 O 0.85288 0.65676 0.54016 0.0
N306 N 0.81992 0.73849 0.53704 0.0
C307 C 0.83028 0.84294 0.52432 0.0
C308 C 0.82829 0.75498 0.52584 0.0
C309 C 0.81649 0.81855 0.5419 0.0
N310 N 0.82276 0.88322 0.5344 0.0
O311 O 0.80078 0.62462 0.52453 0.0
H312 H 0.83188 0.70623 0.51878 0.0
H313 H 0.80887 0.83011 0.55042 0.0
O314 O 0.83134 0.5674 0.53555 0.0
C315 C 0.78661 0.66375 0.52541 0.0
O316 O 0.78152 0.6884 0.53703 0.0
N317 N 0.81871 0.63645 0.55866 0.0
C318 C 0.82073 0.63744 0.5858 0.0
C319 C 0.83201 0.58731 0.57841 0.0
C320 C 0.83059 0.58646 0.56477 0.0
C321 C 0.80795 0.68638 0.56579 0.0
C322 C 0.80892 0.68906 0.57929 0.0
H323 H 0.83817 0.54082 0.55938 0.0
H324 H 0.79759 0.71892 0.56102 0.0
H325 H 0.81436 0.43066 0.53303 0.0
H326 H 0.77872 0.38533 0.56259 0.0
H327 H 0.8359 0.87481 0.51598 0.0
H328 H 0.84097 0.54462 0.58314 0.0
H329 H 0.79981 0.72757 0.58464 0.0
C330 C 0.46832 0.51721 0.69563 0.0
C331 C 0.471 0.42905 0.69467 0.0
N332 N 0.46048 0.38834 0.703 0.0
N333 N 0.45614 0.53235 0.70449 0.0
C334 C 0.45175 0.45275 0.7089 0.0
H335 H 0.47452 0.56706 0.68997 0.0
Co336 Co 0.44685 0.64078 0.70847 0.0
C337 C 0.41083 0.59502 0.71371 0.0
O338 O 0.40594 0.66299 0.70695 0.0
N339 N 0.43785 0.75174 0.71286 0.0
C340 C 0.42586 0.85683 0.72465 0.0
C341 C 0.42804 0.76873 0.72334 0.0
C342 C 0.4421 0.83174 0.70839 0.0
N343 N 0.43479 0.89657 0.71525 0.0
O344 O 0.45774 0.63909 0.72511 0.0
H345 H 0.42343 0.72044 0.73009 0.0
H346 H 0.45099 0.84341 0.70065 0.0
O347 O 0.42661 0.58134 0.71539 0.0
C348 C 0.47193 0.67748 0.72387 0.0
O349 O 0.47637 0.70396 0.71219 0.0
N350 N 0.438 0.64574 0.69143 0.0
C351 C 0.43232 0.65288 0.66452 0.0
C352 C 0.42378 0.5922 0.67232 0.0
C353 C 0.42705 0.58852 0.68575 0.0
C354 C 0.4468 0.70226 0.68386 0.0
C355 C 0.44374 0.70929 0.67058 0.0
H356 H 0.42156 0.53631 0.69132 0.0
H357 H 0.45717 0.73801 0.68796 0.0
H358 H 0.44227 0.44204 0.71629 0.0
H359 H 0.47965 0.39753 0.68803 0.0
H360 H 0.41901 0.88921 0.73238 0.0
H361 H 0.41542 0.54477 0.668 0.0
H362 H 0.45088 0.75634 0.66502 0.0
C363 C 0.78676 0.77309 0.69218 0.0
C364 C 0.78432 0.86109 0.69073 0.0
N365 N 0.7931 0.90303 0.70008 0.0
N366 N 0.79712 0.75882 0.70234 0.0
C367 C 0.80036 0.8389 0.70718 0.0
H368 H 0.78186 0.7228 0.68588 0.0
Co369 Co 0.80654 0.65114 0.70695 0.0
C370 C 0.84247 0.70514 0.7132 0.0
O371 O 0.8489 0.63477 0.70793 0.0
N372 N 0.81542 0.54081 0.71192 0.0
C373 C 0.82677 0.43569 0.72406 0.0
C374 C 0.8258 0.52384 0.72204 0.0
C375 C 0.80962 0.46112 0.70843 0.0
N376 N 0.81651 0.39583 0.7155 0.0
O377 O 0.79527 0.65534 0.72344 0.0
H378 H 0.8315 0.57234 0.72822 0.0
H379 H 0.79939 0.45109 0.70169 0.0
O380 O 0.82642 0.71451 0.71379 0.0
C381 C 0.78104 0.61705 0.72249 0.0
O382 O 0.77624 0.59029 0.71091 0.0
N383 N 0.81624 0.64355 0.69014 0.0
C384 C 0.82447 0.63399 0.66364 0.0
C385 C 0.83166 0.69784 0.67163 0.0
C386 C 0.82714 0.70254 0.68481 0.0
C387 C 0.80887 0.58284 0.68237 0.0
C388 C 0.81312 0.57526 0.66927 0.0
H389 H 0.83159 0.75706 0.69041 0.0
H390 H 0.79873 0.5437 0.68607 0.0
H391 H 0.8084 0.84996 0.71549 0.0
H392 H 0.77693 0.89145 0.68314 0.0
H393 H 0.83405 0.40402 0.7316 0.0
H394 H 0.83992 0.74687 0.66759 0.0
H395 H 0.80699 0.52577 0.66347 0.0
C396 C 0.53606 0.22618 0.43925 0.0
C397 C 0.53349 0.13802 0.43829 0.0
N398 N 0.54212 0.09839 0.44792 0.0
N399 N 0.54634 0.2425 0.44941 0.0
C400 C 0.54961 0.16349 0.4546 0.0
H401 H 0.53111 0.27511 0.43273 0.0
Co402 Co 0.55504 0.35122 0.45419 0.0
C403 C 0.59095 0.30548 0.46082 0.0
O404 O 0.59639 0.37705 0.45526 0.0
N405 N 0.56342 0.46162 0.45933 0.0
C406 C 0.57391 0.56557 0.47211 0.0
C407 C 0.57203 0.47754 0.47044 0.0
C408 C 0.55961 0.54201 0.45476 0.0
N409 N 0.56602 0.60625 0.46224 0.0
O410 O 0.54335 0.34634 0.47049 0.0
H411 H 0.57601 0.42838 0.4773 0.0
H412 H 0.55173 0.55433 0.44642 0.0
O413 O 0.57507 0.29092 0.46136 0.0
C414 C 0.52811 0.37042 0.46867 0.0
O415 O 0.52287 0.38215 0.45665 0.0
N416 N 0.56472 0.36072 0.43753 0.0
C417 C 0.57162 0.37723 0.41093 0.0
C418 C 0.58069 0.31803 0.41863 0.0
C419 C 0.57681 0.30948 0.43192 0.0
C420 C 0.5555 0.4159 0.43003 0.0
C421 C 0.55907 0.42745 0.4169 0.0
H422 H 0.58281 0.25816 0.43736 0.0
H423 H 0.54451 0.4472 0.43407 0.0
H424 H 0.55732 0.15382 0.46314 0.0
H425 H 0.52628 0.10562 0.43078 0.0
H426 H 0.57986 0.59716 0.48032 0.0
H427 H 0.58999 0.2753 0.41431 0.0
H428 H 0.55152 0.47299 0.41137 0.0
C429 C 0.21918 0.50704 0.4469 0.0
C430 C 0.222 0.59512 0.44602 0.0
N431 N 0.21152 0.63603 0.45437 0.0
N432 N 0.20697 0.49214 0.45575 0.0
C433 C 0.2027 0.57185 0.46023 0.0
H434 H 0.22522 0.45713 0.44113 0.0
Co435 Co 0.19727 0.38405 0.45941 0.0
C436 C 0.16161 0.43597 0.46508 0.0
O437 O 0.15619 0.371 0.45791 0.0
N438 N 0.18791 0.27329 0.46347 0.0
C439 C 0.17532 0.16763 0.47473 0.0
C440 C 0.17738 0.25578 0.4735 0.0
C441 C 0.19278 0.19342 0.45928 0.0
N442 N 0.18505 0.12819 0.46578 0.0
O443 O 0.20854 0.38027 0.47586 0.0
H444 H 0.17226 0.30352 0.48012 0.0
H445 H 0.20247 0.18235 0.45211 0.0
O446 O 0.17748 0.44519 0.46691 0.0
C447 C 0.2227 0.34192 0.4743 0.0
O448 O 0.22731 0.3215 0.46238 0.0
N449 N 0.18784 0.38401 0.44251 0.0
C450 C 0.18047 0.38232 0.41584 0.0
C451 C 0.1734 0.44558 0.42404 0.0
C452 C 0.17753 0.44644 0.43732 0.0
C453 C 0.19527 0.32478 0.43452 0.0
C454 C 0.19136 0.32076 0.42134 0.0
H455 H 0.17318 0.50005 0.4432 0.0
H456 H 0.20523 0.28404 0.43816 0.0
H457 H 0.19319 0.58297 0.46757 0.0
H458 H 0.23064 0.62656 0.43937 0.0
H459 H 0.16798 0.13507 0.48215 0.0
H460 H 0.16551 0.49672 0.42012 0.0
H461 H 0.19743 0.27167 0.41541 0.0
C462 C 0.53229 0.53023 0.30246 0.0
C463 C 0.53079 0.6195 0.30246 0.0
N464 N 0.53985 0.65021 0.29239 0.0
N465 N 0.54245 0.50628 0.29254 0.0
C466 C 0.54636 0.58047 0.28639 0.0
H467 H 0.52735 0.48634 0.30975 0.0
Co468 Co 0.55181 0.39905 0.28904 0.0
C469 C 0.58831 0.44998 0.28535 0.0
O470 O 0.59328 0.38743 0.29318 0.0
N471 N 0.56047 0.28956 0.28514 0.0
C472 C 0.57266 0.17396 0.27612 0.0
C473 C 0.57361 0.26245 0.27777 0.0
C474 C 0.55126 0.21728 0.28709 0.0
N475 N 0.55849 0.14621 0.28196 0.0
O476 O 0.54187 0.39969 0.27207 0.0
H477 H 0.58269 0.30383 0.27303 0.0
H478 H 0.53903 0.21714 0.29171 0.0
O479 O 0.5726 0.45777 0.28265 0.0
C480 C 0.52681 0.37079 0.27283 0.0
O481 O 0.52041 0.3572 0.28447 0.0
N482 N 0.56002 0.39456 0.30638 0.0
C483 C 0.5642 0.39301 0.3334 0.0
C484 C 0.57194 0.45728 0.32583 0.0
C485 C 0.56941 0.45793 0.3123 0.0
C486 C 0.55252 0.33208 0.31377 0.0
C487 C 0.5547 0.32907 0.32718 0.0
H488 H 0.57402 0.51263 0.30677 0.0
H489 H 0.54359 0.28818 0.30954 0.0
H490 H 0.55457 0.58421 0.27803 0.0
H491 H 0.52472 0.65889 0.30984 0.0
H492 H 0.58123 0.13394 0.27051 0.0
H493 H 0.57885 0.50966 0.3304 0.0
H494 H 0.5481 0.27997 0.33276 0.0
C495 C 0.21459 0.25023 0.30583 0.0
C496 C 0.21648 0.16146 0.30522 0.0
N497 N 0.20754 0.13227 0.29496 0.0
N498 N 0.20419 0.2761 0.29618 0.0
C499 C 0.20056 0.20313 0.28952 0.0
H500 H 0.21983 0.29228 0.31321 0.0
Co501 Co 0.19452 0.38417 0.29338 0.0
C502 C 0.15789 0.34168 0.28846 0.0
O503 O 0.15286 0.41424 0.29396 0.0
N504 N 0.1851 0.49373 0.29019 0.0
C505 C 0.17471 0.60628 0.27917 0.0
C506 C 0.1766 0.51752 0.27935 0.0
C507 C 0.1885 0.56938 0.29627 0.0
N508 N 0.18226 0.63858 0.28985 0.0
O509 O 0.20379 0.38597 0.27613 0.0
H510 H 0.17285 0.47354 0.27167 0.0
H511 H 0.19667 0.57536 0.3046 0.0
O512 O 0.17368 0.32538 0.28755 0.0
C513 C 0.21821 0.4225 0.27695 0.0
O514 O 0.22355 0.446 0.28854 0.0
N515 N 0.18745 0.38594 0.31089 0.0
C516 C 0.18571 0.38388 0.33806 0.0
C517 C 0.17398 0.33725 0.3306 0.0
C518 C 0.17528 0.33767 0.31696 0.0
C519 C 0.19887 0.43103 0.31811 0.0
C520 C 0.19806 0.43233 0.33161 0.0
H521 H 0.16722 0.29477 0.31151 0.0
H522 H 0.20944 0.46174 0.31335 0.0
H523 H 0.19215 0.20118 0.28123 0.0
H524 H 0.22338 0.12125 0.31203 0.0
H525 H 0.16891 0.64417 0.2715 0.0
H526 H 0.16463 0.29666 0.33528 0.0
H527 H 0.20754 0.46795 0.337 0.0
C528 C 0.96554 0.24796 0.55432 0.0
C529 C 0.96834 0.33592 0.55528 0.0
N530 N 0.95692 0.37741 0.54779 0.0
N531 N 0.95242 0.23377 0.54627 0.0
C532 C 0.94753 0.31377 0.54237 0.0
H533 H 0.97238 0.1975 0.5594 0.0
Co534 Co 0.94309 0.12519 0.54267 0.0
C535 C 0.90658 0.16438 0.53869 0.0
O536 O 0.90295 0.09322 0.54518 0.0
N537 N 0.93416 0.01394 0.5387 0.0
C538 C 0.92211 0.90747 0.52729 0.0
C539 C 0.92446 0.99561 0.52822 0.0
C540 C 0.93826 0.93471 0.54354 0.0
N541 N 0.93089 0.86929 0.5369 0.0
O542 O 0.95303 0.12619 0.52565 0.0
H543 H 0.91992 0.04313 0.52131 0.0
H544 H 0.94703 0.92378 0.55138 0.0
O545 O 0.92209 0.18321 0.53654 0.0
C546 C 0.96735 0.08848 0.52663 0.0
O547 O 0.97248 0.06555 0.53831 0.0
N548 N 0.93524 0.12067 0.55997 0.0
C549 C 0.93031 0.11328 0.58691 0.0
C550 C 0.92111 0.17202 0.57925 0.0
C551 C 0.92408 0.17625 0.5658 0.0
C552 C 0.94477 0.0665 0.56742 0.0
C553 C 0.94218 0.05969 0.58077 0.0
H554 H 0.91807 0.22741 0.56033 0.0
H555 H 0.95522 0.03207 0.5631 0.0
H556 H 0.93731 0.32535 0.53565 0.0
H557 H 0.97774 0.36684 0.56135 0.0
H558 H 0.91523 0.87376 0.51972 0.0
H559 H 0.91242 0.21753 0.58368 0.0
H560 H 0.9499 0.01486 0.5863 0.0
C561 C 0.2912 0.94893 0.55388 0.0
C562 C 0.28932 0.86056 0.55274 0.0
N563 N 0.29715 0.83425 0.54173 0.0
N564 N 0.30035 0.97781 0.54374 0.0
C565 C 0.30322 0.90748 0.5363 0.0
H566 H 0.28725 0.98833 0.56205 0.0
Co567 Co 0.31028 0.08494 0.5415 0.0
C568 C 0.34291 0.01927 0.5276 0.0
O569 O 0.34486 0.07656 0.51825 0.0
N570 N 0.31989 0.19223 0.53934 0.0
C571 C 0.33567 0.31105 0.5391 0.0
C572 C 0.33592 0.22147 0.53943 0.0
C573 C 0.31024 0.26382 0.53911 0.0
N574 N 0.31943 0.3368 0.53903 0.0
O575 O 0.30085 0.09319 0.52428 0.0
H576 H 0.347 0.18108 0.54041 0.0
H577 H 0.29663 0.26251 0.53958 0.0
O578 O 0.33057 0.02586 0.53551 0.0
C579 C 0.28548 0.11775 0.52527 0.0
O580 O 0.27877 0.12156 0.53697 0.0
N581 N 0.31803 0.08258 0.55866 0.0
C582 C 0.32547 0.09292 0.58512 0.0
C583 C 0.33432 0.03526 0.57703 0.0
C584 C 0.33041 0.03102 0.56375 0.0
C585 C 0.30922 0.1381 0.56641 0.0
C586 C 0.31279 0.14475 0.57964 0.0
H587 H 0.33714 0.98544 0.55773 0.0
H588 H 0.29914 0.17662 0.5623 0.0
H589 H 0.31057 0.90979 0.52745 0.0
H590 H 0.28382 0.81868 0.56005 0.0
H591 H 0.34647 0.35374 0.53965 0.0
H592 H 0.34413 0.99375 0.58092 0.0
H593 H 0.30531 0.18836 0.58558 0.0
C594 C 0.97474 0.97791 0.69505 0.0
C595 C 0.97713 0.88988 0.69351 0.0
N596 N 0.96664 0.84774 0.70169 0.0
N597 N 0.96271 0.99167 0.7041 0.0
C598 C 0.95826 0.91122 0.7081 0.0
H599 H 0.98097 0.02869 0.68961 0.0
Co600 Co 0.95327 0.09988 0.70836 0.0
C601 C 0.91699 0.05215 0.7134 0.0
O602 O 0.91183 0.12113 0.70699 0.0
N603 N 0.9443 0.21056 0.71292 0.0
C604 C 0.93263 0.31524 0.72494 0.0
C605 C 0.9339 0.22722 0.72305 0.0
C606 C 0.94976 0.29047 0.70925 0.0
N607 N 0.94272 0.35549 0.71629 0.0
O608 O 0.96376 0.09658 0.72508 0.0
H609 H 0.92837 0.17861 0.72931 0.0
H610 H 0.95979 0.30102 0.70235 0.0
O611 O 0.93284 0.03915 0.71486 0.0
C612 C 0.97806 0.13373 0.72383 0.0
O613 O 0.98292 0.15597 0.71205 0.0
N614 N 0.94479 0.10723 0.69131 0.0
C615 C 0.94106 0.11224 0.66428 0.0
C616 C 0.93148 0.05439 0.67179 0.0
C617 C 0.93382 0.05144 0.68533 0.0
C618 C 0.95419 0.16297 0.68404 0.0
C619 C 0.95228 0.16803 0.67062 0.0
H620 H 0.92777 1.00018 0.69073 0.0
H621 H 0.96435 0.19842 0.68849 0.0
H622 H 0.94862 0.89915 0.71525 0.0
H623 H 0.98577 0.85951 0.68674 0.0
H624 H 0.92528 0.34653 0.73247 0.0
H625 H 0.92318 0.00789 0.66716 0.0
H626 H 0.96024 0.21204 0.66515 0.0
C627 C 0.28179 0.31632 0.69168 0.0
C628 C 0.27856 0.40413 0.69155 0.0
N629 N 0.28752 0.44207 0.70116 0.0
N630 N 0.29278 0.29803 0.7013 0.0
C631 C 0.29583 0.37579 0.70704 0.0
H632 H 0.27704 0.26921 0.68479 0.0
Co633 Co 0.30306 0.18866 0.7039 0.0
C634 C 0.33491 0.25292 0.71882 0.0
O635 O 0.33686 0.19127 0.72753 0.0
N636 N 0.31318 0.07908 0.70633 0.0
C637 C 0.33152 0.96985 0.70642 0.0
C638 C 0.32963 0.05822 0.70512 0.0
C639 C 0.3053 1.00192 0.70814 0.0
N640 N 0.3162 0.93405 0.7083 0.0
O641 O 0.29277 0.17852 0.72072 0.0
H642 H 0.33956 0.10375 0.70285 0.0
H643 H 0.29177 0.9956 0.70904 0.0
O644 O 0.32278 0.24916 0.71067 0.0
C645 C 0.27734 0.15643 0.71938 0.0
O646 O 0.27092 0.15441 0.70758 0.0
N647 N 0.3118 0.19293 0.68705 0.0
C648 C 0.32134 0.18589 0.66097 0.0
C649 C 0.32827 0.2485 0.66933 0.0
C650 C 0.32328 0.2511 0.68239 0.0
C651 C 0.30481 0.13255 0.67904 0.0
C652 C 0.30948 0.12741 0.66599 0.0
H653 H 0.32844 0.30068 0.68861 0.0
H654 H 0.29537 0.08858 0.68282 0.0
H655 H 0.30427 0.38395 0.71521 0.0
H656 H 0.2709 0.43785 0.68444 0.0
H657 H 0.34324 0.93439 0.70544 0.0
H658 H 0.33738 0.29521 0.6658 0.0
H659 H 0.30346 0.0796 0.65982 0.0
C660 C 0.03659 0.73459 0.44353 0.0
C661 C 0.03502 0.64565 0.44282 0.0
N662 N 0.04302 0.61057 0.45312 0.0
N663 N 0.04599 0.75516 0.45403 0.0
C664 C 0.04932 0.6783 0.45984 0.0
H665 H 0.03252 0.78058 0.43621 0.0
Co666 Co 0.05598 0.8628 0.45741 0.0
C667 C 0.0886 0.79528 0.47119 0.0
O668 O 0.09125 0.85578 0.47996 0.0
N669 N 0.06572 0.97099 0.4607 0.0
C670 C 0.08246 0.08659 0.46021 0.0
C671 C 0.08179 0.99749 0.459 0.0
C672 C 0.05693 0.04468 0.46291 0.0
N673 N 0.06676 0.11602 0.46265 0.0
O674 O 0.04586 0.86492 0.4744 0.0
H675 H 0.09214 0.95562 0.45623 0.0
H676 H 0.04334 0.04685 0.46367 0.0
O677 O 0.076 0.80109 0.46349 0.0
C678 C 0.03064 0.89175 0.47345 0.0
O679 O 0.02438 0.90339 0.46172 0.0
N680 N 0.06457 0.8656 0.44045 0.0
C681 C 0.07303 0.87857 0.41415 0.0
C682 C 0.08 0.81279 0.42195 0.0
C683 C 0.07556 0.80723 0.43512 0.0
C684 C 0.0578 0.93014 0.43305 0.0
C685 C 0.06204 0.93863 0.41995 0.0
H686 H 0.08048 0.75433 0.44085 0.0
H687 H 0.04882 0.97468 0.43731 0.0
H688 H 0.05751 0.67119 0.4682 0.0
H689 H 0.02976 0.60928 0.43477 0.0
H690 H 0.09351 0.12677 0.45888 0.0
H691 H 0.08827 0.76403 0.41782 0.0
H692 H 0.0565 0.99108 0.41438 0.0
C693 C 0.72298 0.02554 0.44197 0.0
C694 C 0.72579 0.11362 0.44127 0.0
N695 N 0.71602 0.15363 0.45021 0.0
N696 N 0.71135 0.00938 0.45122 0.0
C697 C 0.70763 0.08847 0.45625 0.0
H698 H 0.72866 0.97668 0.43581 0.0
Co699 Co 0.70155 0.90105 0.45501 0.0
C700 C 0.66497 0.95256 0.46032 0.0
O701 O 0.65865 0.87917 0.45604 0.0
N702 N 0.69211 0.79113 0.45916 0.0
C703 C 0.68081 0.68622 0.47131 0.0
C704 C 0.68281 0.77434 0.46989 0.0
C705 C 0.69613 0.71113 0.45452 0.0
N706 N 0.6893 0.64619 0.46167 0.0
O707 O 0.71109 0.90367 0.47212 0.0
H708 H 0.67857 0.82289 0.47676 0.0
H709 H 0.70458 0.69983 0.44647 0.0
O710 O 0.68098 0.96357 0.46055 0.0
C711 C 0.72525 0.8643 0.47131 0.0
O712 O 0.73049 0.84049 0.45969 0.0
N713 N 0.69409 0.89388 0.43769 0.0
C714 C 0.69163 0.88789 0.41058 0.0
C715 C 0.68058 0.93991 0.41787 0.0
C716 C 0.6822 0.94325 0.43148 0.0
C717 C 0.70478 0.84299 0.43067 0.0
C718 C 0.7036 0.83771 0.4172 0.0
H719 H 0.67468 0.98973 0.43673 0.0
H720 H 0.71515 0.81082 0.43549 0.0
H721 H 0.69883 0.09811 0.46416 0.0
H722 H 0.73394 0.14565 0.43432 0.0
H723 H 0.67449 0.65408 0.47931 0.0
H724 H 0.67151 0.98165 0.41306 0.0
H725 H 0.71253 0.7975 0.41195 0.0
C726 C 0.04264 0.005 0.30278 0.0
C727 C 0.04063 0.09366 0.30209 0.0
N728 N 0.0504 0.12352 0.29233 0.0
N729 N 0.05392 0.97981 0.29369 0.0
C730 C 0.05798 0.05307 0.28724 0.0
H731 H 0.0369 0.96254 0.30989 0.0
Co732 Co 0.06403 0.87197 0.29167 0.0
C733 C 0.10073 0.91596 0.28774 0.0
O734 O 0.10548 0.84542 0.29394 0.0
N735 N 0.07387 0.76238 0.28926 0.0
C736 C 0.08493 0.649 0.27883 0.0
C737 C 0.08322 0.73781 0.27888 0.0
C738 C 0.06975 0.68703 0.29517 0.0
N739 N 0.07636 0.61728 0.28909 0.0
O740 O 0.05545 0.86487 0.27425 0.0
H741 H 0.0876 0.78119 0.27132 0.0
H742 H 0.06076 0.68176 0.303 0.0
O743 O 0.085 0.93103 0.28605 0.0
C744 C 0.04124 0.82627 0.27522 0.0
O745 O 0.0357 0.8074 0.28696 0.0
N746 N 0.07038 0.87498 0.30932 0.0
C747 C 0.07096 0.88425 0.33645 0.0
C748 C 0.08264 0.93131 0.32902 0.0
C749 C 0.08189 0.92739 0.31537 0.0
C750 C 0.05897 0.82964 0.31652 0.0
C751 C 0.0592 0.83211 0.33003 0.0
H752 H 0.08978 0.97088 0.30988 0.0
H753 H 0.04876 0.79622 0.31171 0.0
H754 H 0.06709 0.05563 0.27942 0.0
H755 H 0.03308 0.13339 0.30855 0.0
H756 H 0.09125 0.61068 0.27147 0.0
H757 H 0.09151 0.97474 0.33368 0.0
H758 H 0.04972 0.79637 0.33541 0.0
C759 C 0.71841 0.73662 0.30327 0.0
C760 C 0.72078 0.64853 0.3047 0.0
N761 N 0.7114 0.60677 0.29569 0.0
N762 N 0.70748 0.7511 0.29347 0.0
C763 C 0.70384 0.67098 0.28881 0.0
H764 H 0.72377 0.78681 0.30935 0.0
Co765 Co 0.69784 0.85888 0.28911 0.0
C766 C 0.66159 0.80392 0.28345 0.0
O767 O 0.65497 0.87546 0.28819 0.0
N768 N 0.68866 0.96896 0.28441 0.0
C769 C 0.67716 0.07358 0.27228 0.0
C770 C 0.67834 0.98546 0.27424 0.0
C771 C 0.69415 0.04896 0.28804 0.0
N772 N 0.68721 0.11398 0.28094 0.0
O773 O 0.70822 0.85455 0.27228 0.0
H774 H 0.67286 0.93662 0.268 0.0
H775 H 0.70417 0.05952 0.29494 0.0
O776 O 0.67765 0.79516 0.283 0.0
C777 C 0.72238 0.89373 0.27305 0.0
O778 O 0.7275 0.9193 0.2846 0.0
N779 N 0.68921 0.86734 0.30618 0.0
C780 C 0.68304 0.88007 0.33296 0.0
C781 C 0.67431 0.81942 0.32531 0.0
C782 C 0.6778 0.81302 0.31196 0.0
C783 C 0.69802 0.92484 0.31358 0.0
C784 C 0.69483 0.93405 0.32684 0.0
H785 H 0.6721 0.76074 0.30659 0.0
H786 H 0.70841 0.95997 0.30939 0.0
H787 H 0.69524 0.65986 0.28083 0.0
H788 H 0.72855 0.61795 0.31205 0.0
H789 H 0.66992 0.10485 0.26468 0.0
H790 H 0.6656 0.774 0.32972 0.0
H791 H 0.70208 0.98099 0.33233 0.0
C792 C 0.97808 0.78489 0.05298 0.0
C793 C 0.98113 0.8729 0.05315 0.0
N794 N 0.97053 0.91199 0.04469 0.0
N795 N 0.96558 0.76774 0.04449 0.0
C796 C 0.96143 0.84634 0.03945 0.0
H797 H 0.98411 0.73682 0.05909 0.0
Co798 Co 0.95507 0.65888 0.04221 0.0
C799 C 0.92275 0.72733 0.02879 0.0
O800 O 0.92185 0.67233 0.01904 0.0
N801 N 0.94461 0.54977 0.04012 0.0
C802 C 0.92598 0.44215 0.04086 0.0
C803 C 0.92817 0.5305 0.04182 0.0
C804 C 0.95218 0.47163 0.03835 0.0
N805 N 0.94111 0.40467 0.0387 0.0
O806 O 0.9636 0.65204 0.02476 0.0
H807 H 0.91846 0.57706 0.04424 0.0
H808 H 0.96564 0.46389 0.03716 0.0
O809 O 0.93465 0.72093 0.03711 0.0
C810 C 0.97857 0.62164 0.02577 0.0
O811 O 0.98472 0.60977 0.03753 0.0
N812 N 0.94858 0.65957 0.05959 0.0
C813 C 0.94554 0.65149 0.08654 0.0
C814 C 0.93505 0.70672 0.07927 0.0
C815 C 0.93685 0.71031 0.06568 0.0
C816 C 0.95839 0.60365 0.0665 0.0
C817 C 0.95705 0.59828 0.07995 0.0
H818 H 0.92923 0.75543 0.06021 0.0
H819 H 0.96771 0.56465 0.06149 0.0
H820 H 0.9517 0.85557 0.03221 0.0
H821 H 0.98991 0.90575 0.05952 0.0
H822 H 0.91421 0.40803 0.04229 0.0
H823 H 0.92611 0.74921 0.08408 0.0
H824 H 0.96527 0.55431 0.08521 0.0
C825 C 0.28852 0.493 0.05596 0.0
C826 C 0.28639 0.40446 0.05548 0.0
N827 N 0.29457 0.37458 0.0449 0.0
N828 N 0.29829 0.51781 0.04587 0.0
C829 C 0.30143 0.44454 0.03916 0.0
H830 H 0.28379 0.53585 0.06346 0.0
Co831 Co 0.30723 0.62631 0.04259 0.0
C832 C 0.34321 0.59086 0.03558 0.0
O833 O 0.3475 0.66179 0.04186 0.0
N834 N 0.31583 0.73637 0.03893 0.0
C835 C 0.32477 0.84872 0.02718 0.0
C836 C 0.32285 0.76019 0.02746 0.0
C837 C 0.31327 0.81184 0.04528 0.0
N838 N 0.31867 0.8809 0.03841 0.0
O839 O 0.29534 0.6311 0.02627 0.0
H840 H 0.32558 0.71631 0.01951 0.0
H841 H 0.30625 0.81785 0.05422 0.0
O842 O 0.32756 0.57034 0.03479 0.0
C843 C 0.28031 0.65574 0.02894 0.0
O844 O 0.27615 0.66572 0.04124 0.0
N845 N 0.31674 0.62517 0.05942 0.0
C846 C 0.32138 0.61082 0.08626 0.0
C847 C 0.33167 0.56399 0.07768 0.0
C848 C 0.32887 0.57044 0.06422 0.0
C849 C 0.3067 0.67051 0.06778 0.0
C850 C 0.30896 0.66547 0.08118 0.0
H851 H 0.33551 0.52613 0.05792 0.0
H852 H 0.2958 0.70463 0.06409 0.0
H853 H 0.30933 0.44162 0.03058 0.0
H854 H 0.27981 0.36484 0.06255 0.0
H855 H 0.32956 0.88659 0.01911 0.0
H856 H 0.34086 0.51809 0.08135 0.0
H857 H 0.30035 0.69984 0.08756 0.0
C858 C 0.97189 0.48184 0.19308 0.0
C859 C 0.97426 0.39379 0.19154 0.0
N860 N 0.96444 0.35168 0.20021 0.0
N861 N 0.96055 0.4957 0.20262 0.0
C862 C 0.95648 0.41532 0.20691 0.0
H863 H 0.97768 0.53257 0.18733 0.0
Co864 Co 0.95145 0.60381 0.20734 0.0
C865 C 0.91536 0.55454 0.21301 0.0
O866 O 0.90985 0.62348 0.20677 0.0
N867 N 0.94284 0.71454 0.21239 0.0
C868 C 0.93121 0.81954 0.22439 0.0
C869 C 0.93229 0.73143 0.22242 0.0
C870 C 0.94863 0.79425 0.20892 0.0
N871 N 0.94156 0.85942 0.21589 0.0
O872 O 0.96271 0.59839 0.22376 0.0
H873 H 0.92645 0.68295 0.22852 0.0
H874 H 0.95889 0.80457 0.20222 0.0
O875 O 0.93129 0.54275 0.21425 0.0
C876 C 0.97708 0.63478 0.22245 0.0
O877 O 0.98169 0.65934 0.21072 0.0
N878 N 0.94209 0.61309 0.19055 0.0
C879 C 0.93559 0.6271 0.16387 0.0
C880 C 0.92736 0.56401 0.17141 0.0
C881 C 0.93105 0.5569 0.18474 0.0
C882 C 0.95043 0.67265 0.1832 0.0
C883 C 0.947 0.68283 0.17004 0.0
H884 H 0.92585 0.50293 0.19009 0.0
H885 H 0.96079 0.70827 0.18731 0.0
H886 H 0.94746 0.4035 0.21453 0.0
H887 H 0.98244 0.36343 0.18443 0.0
H888 H 0.92375 0.8512 0.23183 0.0
H889 H 0.91898 0.51736 0.16692 0.0
H890 H 0.9539 0.73145 0.1646 0.0
C891 C 0.28837 0.72325 0.1952 0.0
C892 C 0.28557 0.81116 0.19396 0.0
N893 N 0.29663 0.85369 0.20163 0.0
N894 N 0.30118 0.70994 0.20358 0.0
C895 C 0.30579 0.79053 0.20747 0.0
H896 H 0.28182 0.67222 0.19004 0.0
Co897 Co 0.31084 0.60155 0.20744 0.0
C898 C 0.34673 0.65443 0.21105 0.0
O899 O 0.35143 0.59125 0.20325 0.0
N900 N 0.31993 0.49065 0.21182 0.0
C901 C 0.33328 0.38384 0.22229 0.0
C902 C 0.33243 0.47195 0.22033 0.0
C903 C 0.3128 0.41217 0.2094 0.0
N904 N 0.32089 0.34591 0.21539 0.0
O905 O 0.30012 0.60292 0.22414 0.0
H906 H 0.3399 0.51896 0.22555 0.0
H907 H 0.30115 0.40411 0.20407 0.0
O908 O 0.33114 0.66243 0.21415 0.0
C909 C 0.28553 0.56845 0.22313 0.0
O910 O 0.28042 0.54423 0.2115 0.0
N911 N 0.31991 0.59758 0.19026 0.0
C912 C 0.32803 0.59559 0.16368 0.0
C913 C 0.3323 0.66683 0.1715 0.0
C914 C 0.32788 0.66713 0.1847 0.0
C915 C 0.31548 0.52868 0.18268 0.0
C916 C 0.31976 0.52535 0.16952 0.0
H917 H 0.33024 0.7251 0.19029 0.0
H918 H 0.3077 0.4778 0.18648 0.0
H919 H 0.31619 0.80304 0.214 0.0
H920 H 0.27623 0.84119 0.18774 0.0
H921 H 0.3421 0.35076 0.22862 0.0
H922 H 0.33817 0.72385 0.16733 0.0
H923 H 0.31599 0.46932 0.16386 0.0
C924 C 0.03947 0.22763 0.9593 0.0
C925 C 0.03871 0.13878 0.95802 0.0
N926 N 0.05382 0.11066 0.95379 0.0
N927 N 0.05511 0.25513 0.95607 0.0
C928 C 0.06334 0.1822 0.9525 0.0
H929 H 0.02932 0.26802 0.96279 0.0
Co930 Co 0.06539 0.36426 0.95716 0.0
C931 C 0.09742 0.31444 0.97173 0.0
O932 O 0.09775 0.38325 0.97927 0.0
N933 N 0.07582 0.47229 0.95801 0.0
C934 C 0.09337 0.58411 0.9559 0.0
C935 C 0.09183 0.49514 0.95507 0.0
C936 C 0.06793 0.54796 0.96045 0.0
N937 N 0.07828 0.61657 0.95939 0.0
O938 O 0.05673 0.37996 0.97461 0.0
H939 H 0.10165 0.45045 0.95215 0.0
H940 H 0.0546 0.55403 0.9623 0.0
O941 O 0.08574 0.30555 0.96329 0.0
C942 C 0.04204 0.41404 0.97368 0.0
O943 O 0.0358 0.42605 0.96194 0.0
N944 N 0.07185 0.35513 0.93986 0.0
C945 C 0.07461 0.35306 0.91288 0.0
C946 C 0.08795 0.32266 0.92067 0.0
C947 C 0.08631 0.32419 0.9343 0.0
C948 C 0.05915 0.38742 0.93244 0.0
C949 C 0.06026 0.38726 0.91896 0.0
H950 H 0.09647 0.29967 0.94028 0.0
H951 H 0.04794 0.41278 0.93709 0.0
H952 H 0.07644 0.18081 0.94961 0.0
H953 H 0.02804 0.09793 0.96036 0.0
H954 H 0.10458 0.62192 0.95393 0.0
H955 H 0.09924 0.2959 0.91628 0.0
H956 H 0.04983 0.41292 0.91333 0.0
C957 C 0.71594 0.55361 0.94313 0.0
C958 C 0.71756 0.64274 0.94319 0.0
N959 N 0.70867 0.67351 0.95336 0.0
N960 N 0.70592 0.52983 0.95313 0.0
C961 C 0.70222 0.60383 0.9594 0.0
H962 H 0.72059 0.50981 0.93571 0.0
Co963 Co 0.69628 0.42325 0.95619 0.0
C964 C 0.66029 0.47247 0.96182 0.0
O965 O 0.65525 0.40996 0.95402 0.0
N966 N 0.68748 0.31408 0.95962 0.0
C967 C 0.67681 0.19815 0.96957 0.0
C968 C 0.67579 0.28682 0.9683 0.0
C969 C 0.69601 0.24159 0.95641 0.0
N970 N 0.68968 0.17044 0.96213 0.0
O971 O 0.70772 0.41603 0.97267 0.0
H972 H 0.66801 0.32829 0.97429 0.0
H973 H 0.70743 0.24157 0.95067 0.0
O974 O 0.67613 0.4816 0.96406 0.0
C975 C 0.72247 0.38377 0.97122 0.0
O976 O 0.72798 0.37055 0.95931 0.0
N977 N 0.68637 0.42741 0.93929 0.0
C978 C 0.67694 0.43799 0.913 0.0
C979 C 0.67208 0.50254 0.92189 0.0
C980 C 0.67716 0.49684 0.93492 0.0
C981 C 0.69151 0.36559 0.93065 0.0
C982 C 0.68674 0.36876 0.91759 0.0
H983 H 0.67428 0.5504 0.94133 0.0
H984 H 0.70026 0.31605 0.93354 0.0
H985 H 0.69403 0.6077 0.96778 0.0
H986 H 0.72347 0.68208 0.93574 0.0
H987 H 0.6695 0.15811 0.97614 0.0
H988 H 0.6648 0.55826 0.91875 0.0
H989 H 0.69155 0.31968 0.91101 0.0
C990 C 0.04621 0.51367 0.80443 0.0
C991 C 0.0433 0.60162 0.80351 0.0
N992 N 0.05109 0.63157 0.79271 0.0
N993 N 0.05597 0.48886 0.79436 0.0
C994 C 0.05824 0.56115 0.78721 0.0
H995 H 0.0422 0.47142 0.81225 0.0
Co996 Co 0.06602 0.38219 0.79142 0.0
C997 C 0.10189 0.4392 0.78678 0.0
O998 O 0.10766 0.37686 0.79431 0.0
N999 N 0.0754 0.27251 0.78803 0.0
C1000 C 0.08812 0.1555 0.77972 0.0
C1001 C 0.08812 0.24511 0.78023 0.0
C1002 C 0.06736 0.19873 0.79138 0.0
N1003 N 0.07509 0.12715 0.78691 0.0
O1004 O 0.05559 0.3763 0.77466 0.0
H1005 H 0.09636 0.28676 0.77467 0.0
H1006 H 0.05531 0.19693 0.79627 0.0
O1007 O 0.08604 0.44386 0.78443 0.0
C1008 C 0.04092 0.34325 0.77594 0.0
O1009 O 0.03526 0.32917 0.7878 0.0
N1010 N 0.07486 0.38412 0.80864 0.0
C1011 C 0.08214 0.38252 0.83537 0.0
C1012 C 0.08802 0.45011 0.82737 0.0
C1013 C 0.08409 0.45014 0.81402 0.0
C1014 C 0.06869 0.32037 0.81647 0.0
C1015 C 0.07279 0.31598 0.82957 0.0
H1016 H 0.08768 0.50558 0.80821 0.0
H1017 H 0.05958 0.2751 0.8129 0.0
H1018 H 0.06571 0.56258 0.77842 0.0
H1019 H 0.03651 0.64069 0.81053 0.0
H1020 H 0.09681 0.11464 0.77437 0.0
H1021 H 0.09482 0.50449 0.83147 0.0
H1022 H 0.06789 0.26223 0.83521 0.0
C1023 C 0.71128 0.25929 0.80592 0.0
C1024 C 0.71333 0.17055 0.80549 0.0
N1025 N 0.70564 0.14076 0.79468 0.0
N1026 N 0.70205 0.28464 0.79556 0.0
C1027 C 0.69929 0.2114 0.78871 0.0
H1028 H 0.71546 0.30168 0.81366 0.0
Co1029 Co 0.69234 0.39216 0.79243 0.0
C1030 C 0.65662 0.34603 0.78456 0.0
O1031 O 0.65045 0.41784 0.78957 0.0
N1032 N 0.68298 0.50155 0.78895 0.0
C1033 C 0.67378 0.61503 0.77751 0.0
C1034 C 0.67545 0.52617 0.77773 0.0
C1035 C 0.68612 0.57691 0.79521 0.0
N1036 N 0.68058 0.6467 0.78854 0.0
O1037 O 0.70338 0.39746 0.77581 0.0
H1038 H 0.67234 0.48278 0.76981 0.0
H1039 H 0.69378 0.58213 0.80383 0.0
O1040 O 0.67254 0.33223 0.78492 0.0
C1041 C 0.71731 0.43852 0.77678 0.0
O1042 O 0.72213 0.46413 0.78841 0.0
N1043 N 0.68298 0.39007 0.80937 0.0
C1044 C 0.67484 0.38977 0.8359 0.0
C1045 C 0.66581 0.33821 0.82705 0.0
C1046 C 0.67028 0.338 0.81385 0.0
C1047 C 0.69234 0.437 0.81796 0.0
C1048 C 0.68834 0.43915 0.83117 0.0
H1049 H 0.66401 0.29263 0.80754 0.0
H1050 H 0.70359 0.46966 0.81464 0.0
H1051 H 0.69183 0.20902 0.7799 0.0
H1052 H 0.71938 0.13073 0.81281 0.0
H1053 H 0.66874 0.65342 0.76959 0.0
H1054 H 0.65562 0.2969 0.83033 0.0
H1055 H 0.69629 0.47614 0.8377 0.0
H1056 H 0.42441 1.00109 0.098 0.0
H1057 H 0.41536 0.27719 0.09591 0.0
H1058 H 0.41448 0.28522 0.11959 0.0
H1059 H 0.41902 0.21689 0.14088 0.0
H1060 H 0.43087 0.94359 0.14287 0.0
H1061 H 0.42786 0.93169 0.11932 0.0
C1062 C 0.42222 0.06309 0.10271 0.0
C1063 C 0.42008 0.13839 0.09511 0.0
C1064 C 0.42235 0.06798 0.11636 0.0
C1065 C 0.41686 0.21779 0.10142 0.0
C1066 C 0.41654 0.22273 0.11501 0.0
C1067 C 0.42098 0.15469 0.13617 0.0
C1068 C 0.42529 0.08149 0.14368 0.0
C1069 C 0.41972 0.14869 0.12256 0.0
C1070 C 0.42737 1.00098 0.13741 0.0
C1071 C 0.42579 0.99417 0.1239 0.0
H1072 H 0.83244 0.21884 0.09915 0.0
H1073 H 0.82509 0.94188 0.09712 0.0
H1074 H 0.82615 0.93249 0.12088 0.0
H1075 H 0.82635 0.0051 0.14224 0.0
H1076 H 0.83275 0.28282 0.14419 0.0
H1077 H 0.83504 0.28974 0.12049 0.0
C1078 C 0.83121 0.15635 0.10392 0.0
C1079 C 0.82854 0.0813 0.09639 0.0
C1080 C 0.83157 0.15167 0.11757 0.0
C1081 C 0.82726 1.00054 0.10268 0.0
C1082 C 0.82772 0.99525 0.11627 0.0
C1083 C 0.82837 0.06702 0.13747 0.0
C1084 C 0.82924 0.14339 0.14496 0.0
C1085 C 0.82943 0.07068 0.12382 0.0
C1086 C 0.83214 0.223 0.13867 0.0
C1087 C 0.83332 0.2271 0.1251 0.0
H1088 H 0.59344 0.8894 0.89607 0.0
H1089 H 0.53952 0.85168 0.89591 0.0
H1090 H 0.53962 0.84085 0.87228 0.0
H1091 H 0.55461 0.84521 0.85171 0.0
H1092 H 0.60848 0.88229 0.851 0.0
H1093 H 0.60883 0.89162 0.8749 0.0
C1094 C 0.58179 0.8784 0.89081 0.0
C1095 C 0.56648 0.87234 0.8977 0.0
C1096 C 0.5819 0.87263 0.8771 0.0
C1097 C 0.55142 0.85813 0.89081 0.0
C1098 C 0.55146 0.85157 0.8773 0.0
C1099 C 0.5665 0.85396 0.85677 0.0
C1100 C 0.58153 0.86168 0.84961 0.0
C1101 C 0.56657 0.85918 0.87036 0.0
C1102 C 0.59674 0.87598 0.85631 0.0
C1103 C 0.59694 0.881 0.86995 0.0
H1104 H 0.16921 0.87343 0.85278 0.0
H1105 H 0.2234 0.84359 0.853 0.0
H1106 H 0.22364 0.84827 0.8766 0.0
H1107 H 0.20898 0.86404 0.89703 0.0
H1108 H 0.15469 0.88118 0.89797 0.0
H1109 H 0.15401 0.88091 0.87405 0.0
C1110 C 0.18101 0.86716 0.85803 0.0
C1111 C 0.1963 0.86001 0.85109 0.0
C1112 C 0.18109 0.86864 0.87177 0.0
C1113 C 0.2115 0.85167 0.85804 0.0
C1114 C 0.21167 0.85388 0.87156 0.0
C1115 C 0.1969 0.86576 0.89209 0.0
C1116 C 0.18189 0.87093 0.89935 0.0
C1117 C 0.19659 0.86294 0.8785 0.0
C1118 C 0.16646 0.87719 0.89265 0.0
C1119 C 0.16606 0.87636 0.87897 0.0
H1120 H 0.45757 0.67304 0.64703 0.0
H1121 H 0.40394 0.62885 0.64938 0.0
H1122 H 0.4022 0.62766 0.62551 0.0
H1123 H 0.41631 0.63756 0.60384 0.0
H1124 H 0.46986 0.68632 0.6024 0.0
H1125 H 0.4711 0.69032 0.62607 0.0
C1126 C 0.44538 0.665 0.6424 0.0
C1127 C 0.43087 0.6522 0.65004 0.0
C1128 C 0.44446 0.66562 0.62879 0.0
C1129 C 0.41534 0.63855 0.64376 0.0
C1130 C 0.41432 0.63842 0.6301 0.0
C1131 C 0.42816 0.65004 0.60877 0.0
C1132 C 0.44301 0.66066 0.60141 0.0
C1133 C 0.42883 0.65183 0.6225 0.0
C1134 C 0.45832 0.67661 0.60787 0.0
C1135 C 0.45905 0.67899 0.62139 0.0
H1136 H 0.80097 0.61016 0.6449 0.0
H1137 H 0.85405 0.65997 0.6501 0.0
H1138 H 0.85795 0.66231 0.62639 0.0
H1139 H 0.84588 0.65246 0.60403 0.0
H1140 H 0.7927 0.60133 0.59964 0.0
H1141 H 0.78932 0.59507 0.62319 0.0
C1142 C 0.81348 0.6199 0.6409 0.0
C1143 C 0.82722 0.6339 0.64929 0.0
C1144 C 0.81561 0.62084 0.62737 0.0
C1145 C 0.84323 0.64928 0.64386 0.0
C1146 C 0.84548 0.65023 0.63031 0.0
C1147 C 0.83363 0.63924 0.60829 0.0
C1148 C 0.81952 0.62835 0.60014 0.0
C1149 C 0.83172 0.63635 0.62194 0.0
C1150 C 0.80368 0.61134 0.60573 0.0
C1151 C 0.80174 0.60754 0.61919 0.0
H1152 H 0.54689 0.38723 0.39293 0.0
H1153 H 0.60101 0.37332 0.39655 0.0
H1154 H 0.60381 0.38114 0.37275 0.0
H1155 H 0.59049 0.39078 0.35076 0.0
H1156 H 0.53629 0.40655 0.34807 0.0
H1157 H 0.53392 0.40225 0.37172 0.0
C1158 C 0.55936 0.38758 0.38858 0.0
C1159 C 0.57372 0.38094 0.39654 0.0
C1160 C 0.56084 0.39306 0.37504 0.0
C1161 C 0.58973 0.37821 0.39064 0.0
C1162 C 0.59134 0.38324 0.37705 0.0
C1163 C 0.57824 0.39426 0.35543 0.0
C1164 C 0.56357 0.39855 0.34776 0.0
C1165 C 0.57695 0.39075 0.36913 0.0
C1166 C 0.54772 0.40255 0.35383 0.0
C1167 C 0.54635 0.39997 0.36733 0.0
H1168 H 0.16037 0.40486 0.356 0.0
H1169 H 0.21324 0.34293 0.35223 0.0
H1170 H 0.21617 0.33833 0.37581 0.0
H1171 H 0.20426 0.35706 0.39736 0.0
H1172 H 0.15139 0.41552 0.40198 0.0
H1173 H 0.14797 0.4184 0.37822 0.0
C1174 C 0.17245 0.38958 0.3604 0.0
C1175 C 0.18661 0.37517 0.35241 0.0
C1176 C 0.1741 0.38746 0.37408 0.0
C1177 C 0.20223 0.35562 0.35819 0.0
C1178 C 0.20392 0.35282 0.37167 0.0
C1179 C 0.19188 0.36886 0.39323 0.0
C1180 C 0.17806 0.38491 0.40147 0.0
C1181 C 0.19001 0.36945 0.37968 0.0
C1182 C 0.16226 0.40317 0.39587 0.0
C1183 C 0.16029 0.4043 0.38229 0.0
H1184 H 0.91421 0.11526 0.64749 0.0
H1185 H 0.96851 0.0982 0.64886 0.0
H1186 H 0.96984 0.09815 0.62518 0.0
H1187 H 0.95592 0.10688 0.6042 0.0
H1188 H 0.90169 0.12188 0.60202 0.0
H1189 H 0.89997 0.12055 0.6259 0.0
C1190 C 0.92627 0.11094 0.64254 0.0
C1191 C 0.94125 0.10771 0.64988 0.0
C1192 C 0.92698 0.11136 0.62883 0.0
C1193 C 0.95683 0.10224 0.64341 0.0
C1194 C 0.95762 0.10195 0.62988 0.0
C1195 C 0.94367 0.10847 0.60891 0.0
C1196 C 0.92895 0.11335 0.60134 0.0
C1197 C 0.94281 0.10711 0.62251 0.0
C1198 C 0.91322 0.11826 0.60764 0.0
C1199 C 0.91224 0.11704 0.62128 0.0
H1200 H 0.32777 0.23633 0.60037 0.0
H1201 H 0.32983 0.9567 0.60182 0.0
H1202 H 0.33066 0.96145 0.62561 0.0
H1203 H 0.32771 0.04443 0.64593 0.0
H1204 H 0.32416 0.3237 0.64439 0.0
H1205 H 0.32718 0.31985 0.62072 0.0
C1206 C 0.32851 0.17647 0.60591 0.0
C1207 C 0.32853 0.09627 0.59936 0.0
C1208 C 0.32863 0.17965 0.61956 0.0
C1209 C 0.32987 0.01927 0.60663 0.0
C1210 C 0.3302 0.02193 0.62023 0.0
C1211 C 0.3277 0.10444 0.6404 0.0
C1212 C 0.32552 0.18413 0.64688 0.0
C1213 C 0.3291 0.10162 0.62679 0.0
C1214 C 0.32589 0.26154 0.63965 0.0
C1215 C 0.32749 0.25935 0.6261 0.0
H1216 H 0.05021 0.9128 0.39525 0.0
H1217 H 0.10269 0.84899 0.4009 0.0
H1218 H 0.10709 0.84964 0.37726 0.0
H1219 H 0.09557 0.86425 0.35485 0.0
H1220 H 0.04303 0.92896 0.34989 0.0
H1221 H 0.03922 0.93455 0.37343 0.0
C1222 C 0.06272 0.90067 0.39137 0.0
C1223 C 0.07611 0.8814 0.39986 0.0
C1224 C 0.06515 0.90156 0.37787 0.0
C1225 C 0.09212 0.86335 0.39458 0.0
C1226 C 0.09466 0.8642 0.38108 0.0
C1227 C 0.08339 0.88059 0.35899 0.0
C1228 C 0.06956 0.89545 0.35071 0.0
C1229 C 0.08122 0.88269 0.37261 0.0
C1230 C 0.05379 0.91624 0.35612 0.0
C1231 C 0.0516 0.91947 0.36955 0.0
H1232 H 0.70806 0.89498 0.35069 0.0
H1233 H 0.6541 0.86648 0.34767 0.0
H1234 H 0.65173 0.8684 0.3715 0.0
H1235 H 0.66532 0.87733 0.3933 0.0
H1236 H 0.71932 0.9092 0.39552 0.0
H1237 H 0.72128 0.90875 0.37188 0.0
C1238 C 0.69571 0.89075 0.35519 0.0
C1239 C 0.68126 0.88166 0.34738 0.0
C1240 C 0.69446 0.89255 0.36878 0.0
C1241 C 0.66544 0.8733 0.35345 0.0
C1242 C 0.66408 0.87484 0.36707 0.0
C1243 C 0.67746 0.88483 0.38856 0.0
C1244 C 0.69217 0.89213 0.39615 0.0
C1245 C 0.67853 0.88441 0.37486 0.0
C1246 C 0.70784 0.90172 0.38991 0.0
C1247 C 0.70899 0.90184 0.37639 0.0
H1248 H 0.96084 0.64379 0.14648 0.0
H1249 H 0.90687 0.61354 0.14887 0.0
H1250 H 0.90489 0.62122 0.12501 0.0
H1251 H 0.91886 0.63703 0.10339 0.0
H1252 H 0.97287 0.66967 0.10191 0.0
H1253 H 0.97442 0.66301 0.12556 0.0
C1254 C 0.94857 0.64028 0.14184 0.0
C1255 C 0.934 0.62947 0.14945 0.0
C1256 C 0.94755 0.64565 0.12827 0.0
C1257 C 0.91829 0.62188 0.14322 0.0
C1258 C 0.91715 0.62679 0.1296 0.0
C1259 C 0.93089 0.64346 0.10831 0.0
C1260 C 0.94575 0.65316 0.10095 0.0
C1261 C 0.93173 0.63898 0.12201 0.0
C1262 C 0.96131 0.66101 0.10738 0.0
C1263 C 0.96221 0.65731 0.12089 0.0
H1264 H 0.34616 0.64674 0.10394 0.0
H1265 H 0.29645 0.53708 0.10004 0.0
H1266 H 0.29445 0.51935 0.12362 0.0
H1267 H 0.30589 0.54374 0.14524 0.0
H1268 H 0.35539 0.65526 0.14984 0.0
H1269 H 0.35837 0.66506 0.12611 0.0
C1270 C 0.33505 0.61797 0.10832 0.0
C1271 C 0.32145 0.59319 0.10038 0.0
C1272 C 0.33387 0.60943 0.12196 0.0
C1273 C 0.30701 0.55667 0.10605 0.0
C1274 C 0.30585 0.54674 0.1195 0.0
C1275 C 0.3175 0.56854 0.1411 0.0
C1276 C 0.33045 0.59806 0.14932 0.0
C1277 C 0.31908 0.57408 0.12754 0.0
C1278 C 0.34519 0.63247 0.14373 0.0
C1279 C 0.34692 0.63776 0.13016 0.0
H1280 H 0.05897 0.3337 0.85325 0.0
H1281 H 0.10939 0.43673 0.85013 0.0
H1282 H 0.11201 0.43403 0.87397 0.0
H1283 H 0.09959 0.40181 0.8958 0.0
H1284 H 0.04986 0.28876 0.89772 0.0
H1285 H 0.04771 0.29219 0.87412 0.0
C1286 C 0.07077 0.35359 0.85765 0.0
C1287 C 0.08407 0.38387 0.84982 0.0
C1288 C 0.07236 0.34926 0.87118 0.0
C1289 C 0.09891 0.41324 0.85589 0.0
C1290 C 0.10047 0.411 0.86952 0.0
C1291 C 0.08844 0.37682 0.89099 0.0
C1292 C 0.0748 0.34617 0.89849 0.0
C1293 C 0.08726 0.37875 0.87728 0.0
C1294 C 0.06039 0.31408 0.89217 0.0
C1295 C 0.05913 0.31601 0.87868 0.0
H1296 H 0.67493 0.5247 0.85303 0.0
H1297 H 0.6672 0.24788 0.85085 0.0
H1298 H 0.66512 0.24031 0.87455 0.0
H1299 H 0.66834 0.30985 0.89593 0.0
H1300 H 0.67806 0.58507 0.89806 0.0
H1301 H 0.67629 0.59574 0.8744 0.0
C1302 C 0.67272 0.46273 0.85773 0.0
C1303 C 0.67138 0.38692 0.85015 0.0
C1304 C 0.67195 0.45847 0.87139 0.0
C1305 C 0.66816 0.30742 0.8564 0.0
C1306 C 0.66711 0.30289 0.86998 0.0
C1307 C 0.67 0.37227 0.89123 0.0
C1308 C 0.67347 0.44634 0.8988 0.0
C1309 C 0.66942 0.37762 0.87757 0.0
C1310 C 0.67522 0.52704 0.89254 0.0
C1311 C 0.67438 0.53311 0.87897 0.0
H1312 H 0.53032 0.98576 0.99146 0.0
H1313 H 0.4891 0.87889 0.96935 0.0
H1314 H 0.46877 0.94988 0.98373 0.0
H1315 H 0.46259 0.04493 0.00248 0.0
H1316 H 0.50375 0.15161 0.02466 0.0
H1317 H 0.52412 0.08065 0.01028 0.0
C1318 C 0.51689 0.97654 0.99001 0.0
C1319 C 0.51121 0.92592 0.97951 0.0
C1320 C 0.50522 0.01975 0.99812 0.0
C1321 C 0.49377 0.91667 0.97748 0.0
C1322 C 0.48212 0.95798 0.98562 0.0
C1323 C 0.47601 0.05412 0.00395 0.0
C1324 C 0.48167 0.10473 0.01446 0.0
C1325 C 0.48768 0.01085 0.99586 0.0
C1326 C 0.49911 0.11388 0.01651 0.0
C1327 C 0.51077 0.07258 0.00838 0.0
H1328 H 0.75619 0.25481 0.0236 0.0
H1329 H 0.79316 0.15577 0.9965 0.0
H1330 H 0.77696 0.21658 0.97833 0.0
H1331 H 0.75239 0.29767 0.97022 0.0
H1332 H 0.7154 0.39603 0.99736 0.0
H1333 H 0.73171 0.33605 0.01552 0.0
C1334 C 0.76075 0.24609 0.01372 0.0
C1335 C 0.77591 0.20033 0.01144 0.0
C1336 C 0.75142 0.28163 0.00336 0.0
C1337 C 0.78155 0.19025 0.99855 0.0
C1338 C 0.7723 0.22527 0.98817 0.0
C1339 C 0.74789 0.30661 0.98011 0.0
C1340 C 0.73266 0.35187 0.98241 0.0
C1341 C 0.75725 0.27125 0.99047 0.0
C1342 C 0.72706 0.36201 0.9953 0.0
C1343 C 0.73637 0.32743 0.00567 0.0
H1344 H 0.49713 0.24188 0.21914 0.0
H1345 H 0.45745 0.1507 0.24448 0.0
H1346 H 0.47221 0.21216 0.2633 0.0
H1347 H 0.49634 0.29083 0.27245 0.0
H1348 H 0.53608 0.38119 0.2471 0.0
H1349 H 0.52112 0.32159 0.22826 0.0
C1350 C 0.49168 0.23495 0.22878 0.0
C1351 C 0.4762 0.19114 0.2304 0.0
C1352 C 0.50017 0.27092 0.2395 0.0
C1353 C 0.46935 0.18358 0.24296 0.0
C1354 C 0.47777 0.21899 0.25371 0.0
C1355 C 0.50173 0.29819 0.26281 0.0
C1356 C 0.51734 0.34086 0.2612 0.0
C1357 C 0.49316 0.26288 0.25207 0.0
C1358 C 0.52409 0.34913 0.24862 0.0
C1359 C 0.51557 0.31471 0.23786 0.0
H1360 H 0.75466 0.99384 0.21873 0.0
H1361 H 0.78986 0.12515 0.24402 0.0
H1362 H 0.77439 0.07259 0.26308 0.0
H1363 H 0.75102 0.98963 0.2725 0.0
H1364 H 0.71565 0.85893 0.24729 0.0
H1365 H 0.73124 0.91047 0.22818 0.0
C1366 C 0.75896 0.0114 0.2284 0.0
C1367 C 0.77342 0.06382 0.22992 0.0
C1368 C 0.75006 0.98051 0.23931 0.0
C1369 C 0.77877 0.08537 0.24255 0.0
C1370 C 0.76995 0.05505 0.25345 0.0
C1371 C 0.74671 0.97182 0.26284 0.0
C1372 C 0.73217 0.92002 0.26135 0.0
C1373 C 0.75562 1.00243 0.25194 0.0
C1374 C 0.7268 0.89825 0.24873 0.0
C1375 C 0.73569 0.92802 0.23781 0.0
H1376 H 0.21745 0.77801 0.99578 0.0
H1377 H 0.25703 0.86568 0.97019 0.0
H1378 H 0.27837 0.80782 0.98496 0.0
H1379 H 0.28597 0.72954 0.0051 0.0
H1380 H 0.24643 0.64217 0.03074 0.0
H1381 H 0.22507 0.70052 0.01601 0.0
C1382 C 0.23075 0.78581 0.9936 0.0
C1383 C 0.23564 0.82684 0.98199 0.0
C1384 C 0.24303 0.7505 0.00203 0.0
C1385 C 0.25294 0.83473 0.97913 0.0
C1386 C 0.26517 0.80109 0.98752 0.0
C1387 C 0.27268 0.72203 0.00731 0.0
C1388 C 0.2678 0.68072 0.0189 0.0
C1389 C 0.2604 0.75767 -0.00108 0.0
C1390 C 0.25051 0.67327 0.02181 0.0
C1391 C 0.23827 0.70717 0.01344 0.0
H1392 H 0.50166 0.76436 0.72338 0.0
H1393 H 0.46696 0.63858 0.74972 0.0
H1394 H 0.485 0.67798 0.76816 0.0
H1395 H 0.51046 0.74818 0.77671 0.0
H1396 H 0.54518 0.87366 0.75035 0.0
H1397 H 0.5271 0.83466 0.73192 0.0
C1398 C 0.498 0.74518 0.73314 0.0
C1399 C 0.48294 0.69823 0.73515 0.0
C1400 C 0.50838 0.76844 0.74367 0.0
C1401 C 0.47847 0.67438 0.74789 0.0
C1402 C 0.48877 0.69712 0.75843 0.0
C1403 C 0.5141 0.76744 0.76694 0.0
C1404 C 0.52919 0.81414 0.76493 0.0
C1405 C 0.50372 0.74429 0.75642 0.0
C1406 C 0.53366 0.83805 0.75219 0.0
C1407 C 0.52333 0.81554 0.74166 0.0
H1408 H 0.28854 0.05933 0.73982 0.0
H1409 H 0.24349 0.16433 0.72238 0.0
H1410 H 0.22602 0.08392 0.73783 0.0
H1411 H 0.22347 0.98194 0.75624 0.0
H1412 H 0.26852 0.87732 0.77373 0.0
H1413 H 0.28599 0.95706 0.7582 0.0
C1414 C 0.27492 0.06585 0.7396 0.0
C1415 C 0.26732 0.11867 0.73012 0.0
C1416 C 0.26491 0.01753 0.74831 0.0
C1417 C 0.24963 0.12469 0.7297 0.0
C1418 C 0.23962 0.07813 0.73845 0.0
C1419 C 0.23709 0.97525 0.75643 0.0
C1420 C 0.2447 0.92281 0.76596 0.0
C1421 C 0.2471 0.02335 0.74769 0.0
C1422 C 0.26238 0.91662 0.76637 0.0
C1423 C 0.27239 0.96283 0.75757 0.0
H1424 H 0.47117 0.52201 0.50519 0.0
H1425 H 0.51471 0.60285 0.52718 0.0
H1426 H 0.53336 0.53218 0.51151 0.0
H1427 H 0.53743 0.44622 0.49153 0.0
H1428 H 0.49398 0.36583 0.46941 0.0
H1429 H 0.47526 0.43521 0.4852 0.0
C1430 C 0.48474 0.52534 0.50639 0.0
C1431 C 0.49156 0.56843 0.51723 0.0
C1432 C 0.49544 0.48274 0.49746 0.0
C1433 C 0.50917 0.5705 0.51885 0.0
C1434 C 0.51985 0.52956 0.50994 0.0
C1435 C 0.52386 0.44242 0.49034 0.0
C1436 C 0.51709 0.39998 0.47943 0.0
C1437 C 0.51315 0.48455 0.49929 0.0
C1438 C 0.49948 0.39753 0.47781 0.0
C1439 C 0.48876 0.43782 0.48678 0.0
H1440 H 0.75421 0.77066 0.47153 0.0
H1441 H 0.71812 0.8929 0.49718 0.0
H1442 H 0.73378 0.83884 0.51609 0.0
H1443 H 0.75752 0.75658 0.52523 0.0
H1444 H 0.7936 0.63448 0.49956 0.0
H1445 H 0.77789 0.68819 0.48065 0.0
C1446 C 0.74975 0.78602 0.48125 0.0
C1447 C 0.735 0.83626 0.48292 0.0
C1448 C 0.75871 0.75408 0.49203 0.0
C1449 C 0.72944 0.8549 0.4956 0.0
C1450 C 0.73837 0.82367 0.50641 0.0
C1451 C 0.76196 0.74116 0.51551 0.0
C1452 C 0.77674 0.69112 0.51383 0.0
C1453 C 0.75297 0.77296 0.50472 0.0
C1454 C 0.78226 0.67233 0.50114 0.0
C1455 C 0.77331 0.70338 0.49034 0.0
H1456 H 0.74621 0.53306 0.77647 0.0
H1457 H 0.71117 0.40178 0.75105 0.0
H1458 H 0.72762 0.44795 0.73209 0.0
H1459 H 0.75186 0.52514 0.72281 0.0
H1460 H 0.787 0.65585 0.74821 0.0
H1461 H 0.77042 0.61079 0.76717 0.0
C1462 C 0.74215 0.51417 0.76679 0.0
C1463 C 0.72745 0.46361 0.76521 0.0
C1464 C 0.75162 0.54132 0.75596 0.0
C1465 C 0.72242 0.44026 0.75257 0.0
C1466 C 0.73181 0.46688 0.74173 0.0
C1467 C 0.75591 0.54431 0.73248 0.0
C1468 C 0.77068 0.5942 0.73406 0.0
C1469 C 0.7464 0.51752 0.74331 0.0
C1470 C 0.77569 0.61787 0.74669 0.0
C1471 C 0.76623 0.59185 0.75753 0.0
H1472 H 0.25572 0.20388 0.52628 0.0
H1473 H 0.29366 0.11483 0.49921 0.0
H1474 H 0.27779 0.17976 0.48116 0.0
H1475 H 0.25309 0.26057 0.47318 0.0
H1476 H 0.2154 0.3506 0.5004 0.0
H1477 H 0.23147 0.28723 0.5184 0.0
C1478 C 0.26054 0.19804 0.51643 0.0
C1479 C 0.27584 0.15366 0.51409 0.0
C1480 C 0.25148 0.2364 0.50618 0.0
C1481 C 0.28191 0.14801 0.50127 0.0
C1482 C 0.27286 0.1854 0.49097 0.0
C1483 C 0.24839 0.26691 0.48305 0.0
C1484 C 0.233 0.31045 0.48542 0.0
C1485 C 0.25764 0.22975 0.49333 0.0
C1486 C 0.22719 0.31792 0.49829 0.0
C1487 C 0.23634 0.28126 0.50858 0.0
H1488 H 0.25497 0.48917 0.2232 0.0
H1489 H 0.29175 0.60495 0.24886 0.0
H1490 H 0.27409 0.56905 0.26766 0.0
H1491 H 0.24848 0.50389 0.27674 0.0
H1492 H 0.21167 0.38762 0.25116 0.0
H1493 H 0.22923 0.42448 0.2323 0.0
C1494 C 0.25915 0.50694 0.23289 0.0
C1495 C 0.27471 0.54995 0.2346 0.0
C1496 C 0.24898 0.48565 0.24364 0.0
C1497 C 0.27987 0.57211 0.24725 0.0
C1498 C 0.26978 0.5514 0.258 0.0
C1499 C 0.24424 0.48631 0.26705 0.0
C1500 C 0.22875 0.44271 0.26538 0.0
C1501 C 0.25436 0.50793 0.2563 0.0
C1502 C 0.22352 0.42088 0.25273 0.0
C1503 C 0.23355 0.4421 0.24196 0.0
H1504 H 1.00045 0.97497 0.47324 0.0
H1505 H 0.03865 0.87731 0.49941 0.0
H1506 H 0.02258 0.9326 0.51803 0.0
H1507 H 0.9978 0.00813 0.52679 0.0
H1508 H 0.95965 0.10655 0.50065 0.0
H1509 H 0.97582 0.05221 0.482 0.0
C1510 C 0.00528 0.96519 0.48302 0.0
C1511 C 0.02074 0.92132 0.48491 0.0
C1512 C 0.99607 0.99797 0.49364 0.0
C1513 C 0.02679 0.91026 0.49766 0.0
C1514 C 0.01762 0.94216 0.5083 0.0
C1515 C 0.99299 0.01822 0.51702 0.0
C1516 C 0.97748 0.06159 0.51514 0.0
C1517 C 1.00228 0.98622 0.50639 0.0
C1518 C 0.97154 0.07386 0.50239 0.0
C1519 C 0.98076 0.0424 0.49173 0.0
H1520 H 0.00785 0.21956 0.72318 0.0
H1521 H 0.97112 0.11424 0.7499 0.0
H1522 H 0.98727 0.17194 0.7683 0.0
H1523 H 0.01146 0.25404 0.77666 0.0
H1524 H 0.04813 0.35945 0.7499 0.0
H1525 H 0.03212 0.30051 0.73153 0.0
C1526 C 1.00336 0.20862 0.73303 0.0
C1527 C 0.98827 0.1623 0.73515 0.0
C1528 C 0.0126 0.24273 0.7435 0.0
C1529 C 0.9827 0.14915 0.74799 0.0
C1530 C 0.9919 0.18253 0.7585 0.0
C1531 C 0.01596 0.26465 0.76682 0.0
C1532 C 0.03098 0.31164 0.76467 0.0
C1533 C 0.00678 0.22992 0.75635 0.0
C1534 C 0.03661 0.324 0.75183 0.0
C1535 C 0.02749 0.29002 0.74134 0.0
H1536 H 0.01222 0.73398 0.27554 0.0
H1537 H 0.04806 0.85089 0.24918 0.0
H1538 H 0.03158 0.79844 0.23057 0.0
H1539 H 0.00691 0.72104 0.22193 0.0
H1540 H 0.97109 0.60512 0.24841 0.0
H1541 H 0.98789 0.65505 0.26694 0.0
C1542 C 0.01648 0.74837 0.26573 0.0
C1543 C 0.03136 0.79686 0.26377 0.0
C1544 C 0.00702 0.71771 0.25515 0.0
C1545 C 0.03665 0.81417 0.25098 0.0
C1546 C 0.02725 0.78398 0.24035 0.0
C1547 C 1.00278 0.70609 0.23175 0.0
C1548 C 0.98772 0.65914 0.23377 0.0
C1549 C 0.01241 0.73577 0.24234 0.0
C1550 C 0.98261 0.64075 0.24657 0.0
C1551 C 0.99219 0.6696 0.25716 0.0
H1552 H 0.01141 0.4919 0.97317 0.0
H1553 H 0.05074 0.41141 -0.00034 0.0
H1554 H 0.03461 0.47136 0.01796 0.0
H1555 H 0.00948 0.54619 0.02629 0.0
H1556 H 0.97012 0.62592 -0.00022 0.0
H1557 H 0.98637 0.56709 0.98147 0.0
C1558 C 0.01652 0.48705 0.98295 0.0
C1559 C 0.03231 0.44678 0.98503 0.0
C1560 C 0.00724 0.52202 0.99335 0.0
C1561 C 0.03864 0.44158 0.99777 0.0
C1562 C 0.02943 0.47612 0.00822 0.0
C1563 C 0.00442 0.55124 0.01651 0.0
C1564 C 0.98855 0.59081 0.01442 0.0
C1565 C 0.01375 0.51659 0.0061 0.0
C1566 C 0.98227 0.59626 0.00167 0.0
C1567 C 0.99154 0.56233 0.99122 0.0
H1568 H 0.45556 0.81376 0.04371 0.0
H1569 H 0.41308 0.77215 0.01825 0.0
H1570 H 0.41668 0.61564 0.02021 0.0
H1571 H 0.43109 0.49019 0.02993 0.0
H1572 H 0.474 0.53212 0.05505 0.0
H1573 H 0.47063 0.68816 0.05278 0.0
C1574 C 0.44691 0.77056 0.03876 0.0
C1575 C 0.43399 0.8051 0.0309 0.0
C1576 C 0.44897 0.6802 0.04002 0.0
C1577 C 0.42318 0.74764 0.02431 0.0
C1578 C 0.42515 0.65787 0.02551 0.0
C1579 C 0.43983 0.53293 0.03484 0.0
C1580 C 0.45266 0.49814 0.0428 0.0
C1581 C 0.43794 0.6233 0.0334 0.0
C1582 C 0.46377 0.55594 0.04907 0.0
C1583 C 0.46192 0.64571 0.04773 0.0
H1584 H 0.79478 0.73245 0.05526 0.0
H1585 H 0.80433 0.79717 0.01508 0.0
H1586 H 0.81346 0.64824 0.01078 0.0
H1587 H 0.81925 0.50056 0.01863 0.0
H1588 H 0.81001 0.43691 0.05891 0.0
H1589 H 0.80008 0.58454 0.06301 0.0
C1590 C 0.79855 0.71345 0.04552 0.0
C1591 C 0.79883 0.77535 0.03548 0.0
C1592 C 0.80397 0.62829 0.04318 0.0
C1593 C 0.8041 0.75045 0.02295 0.0
C1594 C 0.80933 0.66552 0.0205 0.0
C1595 C 0.81524 0.51939 0.02832 0.0
C1596 C 0.81542 0.45826 0.03847 0.0
C1597 C 0.80952 0.6042 0.03059 0.0
C1598 C 0.80987 0.48294 0.05094 0.0
C1599 C 0.80422 0.5672 0.05329 0.0
H1600 H 0.47475 0.71872 0.20211 0.0
H1601 H 0.42409 0.81679 0.20647 0.0
H1602 H 0.41333 0.6701 0.20898 0.0
H1603 H 0.41811 0.51372 0.2089 0.0
H1604 H 0.46868 0.41383 0.20488 0.0
H1605 H 0.47969 0.56094 0.20309 0.0
C1606 C 0.46141 0.70736 0.20366 0.0
C1607 C 0.45029 0.77784 0.20425 0.0
C1608 C 0.45527 0.62271 0.20503 0.0
C1609 C 0.43297 0.76333 0.20627 0.0
C1610 C 0.42676 0.67952 0.2076 0.0
C1611 C 0.43155 0.52431 0.20781 0.0
C1612 C 0.44249 0.45327 0.20685 0.0
C1613 C 0.43779 0.60878 0.20691 0.0
C1614 C 0.45991 0.46755 0.20532 0.0
C1615 C 0.46624 0.55163 0.2044 0.0
H1616 H 0.79945 0.5225 0.18361 0.0
H1617 H 0.79678 0.45949 0.22447 0.0
H1618 H 0.8051 0.6077 0.2301 0.0
H1619 H 0.81304 0.75528 0.22333 0.0
H1620 H 0.81615 0.81685 0.18241 0.0
H1621 H 0.80763 0.66922 0.17685 0.0
C1622 C 0.80042 0.54165 0.19374 0.0
C1623 C 0.79734 0.48044 0.20362 0.0
C1624 C 0.80539 0.62648 0.19688 0.0
C1625 C 0.79908 0.50557 0.21671 0.0
C1626 C 0.80386 0.59017 0.21992 0.0
C1627 C 0.81208 0.73608 0.21321 0.0
C1628 C 0.81523 0.79709 0.2033 0.0
C1629 C 0.80715 0.65105 0.21008 0.0
C1630 C 0.81364 0.77138 0.19022 0.0
C1631 C 0.80879 0.68698 0.18703 0.0
H1632 H 0.53551 0.21023 0.95106 0.0
H1633 H 0.58187 0.25336 0.97203 0.0
H1634 H 0.578 0.41008 0.97013 0.0
H1635 H 0.5616 0.53495 0.96238 0.0
H1636 H 0.51531 0.49237 0.94127 0.0
H1637 H 0.51904 0.33589 0.94335 0.0
C1638 C 0.54486 0.25378 0.9551 0.0
C1639 C 0.55899 0.21957 0.96167 0.0
C1640 C 0.54254 0.34425 0.95399 0.0
C1641 C 0.5708 0.27756 0.96703 0.0
C1642 C 0.56862 0.36736 0.96592 0.0
C1643 C 0.55225 0.49193 0.95828 0.0
C1644 C 0.53827 0.52648 0.95155 0.0
C1645 C 0.55451 0.40153 0.95945 0.0
C1646 C 0.52635 0.46842 0.94632 0.0
C1647 C 0.52844 0.37856 0.94753 0.0
H1648 H 0.20116 0.25665 0.93895 0.0
H1649 H 0.20741 0.19354 0.97953 0.0
H1650 H 0.19937 0.3416 0.98566 0.0
H1651 H 0.19118 0.48962 0.97928 0.0
H1652 H 0.18426 0.55059 0.93863 0.0
H1653 H 0.19193 0.40243 0.93264 0.0
C1654 C 0.20099 0.27595 0.9491 0.0
C1655 C 0.20509 0.21535 0.95879 0.0
C1656 C 0.19611 0.36025 0.95251 0.0
C1657 C 0.20436 0.23983 0.97195 0.0
C1658 C 0.19974 0.3241 0.97543 0.0
C1659 C 0.19107 0.46995 0.96915 0.0
C1660 C 0.18727 0.53086 0.9594 0.0
C1661 C 0.19556 0.38482 0.96578 0.0
C1662 C 0.18737 0.5049 0.94628 0.0
C1663 C 0.19175 0.42037 0.94285 0.0
H1664 H 0.5629 0.52254 0.80346 0.0
H1665 H 0.58107 0.48883 0.76412 0.0
H1666 H 0.57549 0.33397 0.76541 0.0
H1667 H 0.56514 0.20735 0.77752 0.0
H1668 H 0.54692 0.24096 0.81686 0.0
H1669 H 0.55232 0.39599 0.81551 0.0
C1670 C 0.56548 0.48178 0.79509 0.0
C1671 C 0.57246 0.51853 0.78372 0.0
C1672 C 0.56207 0.39213 0.79582 0.0
C1673 C 0.57594 0.46337 0.77309 0.0
C1674 C 0.57263 0.37432 0.77377 0.0
C1675 C 0.5624 0.24812 0.78585 0.0
C1676 C 0.55551 0.21128 0.79726 0.0
C1677 C 0.56571 0.33786 0.78509 0.0
C1678 C 0.55193 0.26654 0.80785 0.0
C1679 C 0.55515 0.35566 0.80714 0.0
H1680 H 0.20293 0.24277 0.77141 0.0
H1681 H 0.20015 0.18186 0.81236 0.0
H1682 H 0.20861 0.32965 0.81785 0.0
H1683 H 0.21695 0.47566 0.81103 0.0
H1684 H 0.2194 0.53867 0.77018 0.0
H1685 H 0.2108 0.39071 0.76457 0.0
C1686 C 0.20394 0.26228 0.78152 0.0
C1687 C 0.20096 0.20137 0.79147 0.0
C1688 C 0.20888 0.3474 0.7846 0.0
C1689 C 0.20256 0.22733 0.80454 0.0
C1690 C 0.20738 0.31177 0.80768 0.0
C1691 C 0.21587 0.45659 0.80091 0.0
C1692 C 0.21902 0.51756 0.79103 0.0
C1693 C 0.21074 0.37203 0.7978 0.0
C1694 C 0.21708 0.49265 0.77794 0.0
C1695 C 0.21214 0.40823 0.77475 0.0
H1696 H 0.44801 0.25263 0.52248 0.0
H1697 H 0.44923 0.31338 0.56348 0.0
H1698 H 0.45833 0.16555 0.56844 0.0
H1699 H 0.46565 0.01885 0.5611 0.0
H1700 H 0.46368 0.95645 0.52022 0.0
H1701 H 0.45508 0.10533 0.51515 0.0
C1702 C 0.45002 0.23313 0.5325 0.0
C1703 C 0.44794 0.29371 0.54261 0.0
C1704 C 0.45525 0.14816 0.53526 0.0
C1705 C 0.4509 0.26795 0.55554 0.0
C1706 C 0.45609 0.18356 0.55837 0.0
C1707 C 0.46361 0.03846 0.55108 0.0
C1708 C 0.46543 0.97752 0.54102 0.0
C1709 C 0.4584 0.12335 0.54831 0.0
C1710 C 0.46234 1.00273 0.52809 0.0
C1711 C 0.4574 0.08754 0.52521 0.0
H1712 H 0.79681 0.96652 0.54628 0.0
H1713 H 0.84344 0.00998 0.52565 0.0
H1714 H 0.83918 0.16635 0.52707 0.0
H1715 H 0.82274 0.29118 0.53478 0.0
H1716 H 0.77583 0.24778 0.55516 0.0
H1717 H 0.77998 0.09184 0.55354 0.0
C1718 C 0.80619 0.01007 0.54228 0.0
C1719 C 0.82047 0.97593 0.5359 0.0
C1720 C 0.80372 0.10049 0.54322 0.0
C1721 C 0.83227 0.03399 0.53053 0.0
C1722 C 0.8299 0.12372 0.53142 0.0
C1723 C 0.81331 0.24824 0.53881 0.0
C1724 C 0.79906 0.28278 0.54524 0.0
C1725 C 0.8157 0.15785 0.53778 0.0
C1726 C 0.7871 0.22442 0.55038 0.0
C1727 C 0.78942 0.13462 0.54941 0.0
H1728 H 0.46241 0.98018 0.7062 0.0
H1729 H 0.412 0.02201 0.72066 0.0
H1730 H 0.41552 0.17876 0.71832 0.0
H1731 H 0.43279 0.30384 0.71191 0.0
H1732 H 0.48347 0.26221 0.69785 0.0
H1733 H 0.47984 0.1058 0.70004 0.0
C1734 C 0.45214 0.02347 0.70871 0.0
C1735 C 0.43693 0.98909 0.71358 0.0
C1736 C 0.45428 0.11377 0.70738 0.0
C1737 C 0.42388 0.0466 0.71701 0.0
C1738 C 0.42586 0.1363 0.71562 0.0
C1739 C 0.44314 0.26095 0.70946 0.0
C1740 C 0.4584 0.29561 0.70469 0.0
C1741 C 0.44103 0.1707 0.71085 0.0
C1742 C 0.47151 0.23799 0.70138 0.0
C1743 C 0.46948 0.14824 0.70269 0.0
H1744 H 0.80448 0.99285 0.72117 0.0
H1745 H 0.78834 0.02549 0.68129 0.0
H1746 H 0.7938 0.18021 0.68265 0.0
H1747 H 0.80398 0.30714 0.69484 0.0
H1748 H 0.82022 0.27501 0.73468 0.0
H1749 H 0.81433 0.12022 0.73347 0.0
C1750 C 0.80219 0.03336 0.71274 0.0
C1751 C 0.79587 0.99605 0.70116 0.0
C1752 C 0.80556 0.12319 0.7135 0.0
C1753 C 0.79289 0.05113 0.69043 0.0
C1754 C 0.79615 0.14023 0.69115 0.0
C1755 C 0.80608 0.26669 0.70332 0.0
C1756 C 0.81264 0.3038 0.71481 0.0
C1757 C 0.80254 0.17707 0.70261 0.0
C1758 C 0.81546 0.24912 0.72561 0.0
C1759 C 0.81197 0.16015 0.72496 0.0
H1760 H 0.5397 0.6905 0.45114 0.0
H1761 H 0.58777 0.7317 0.46975 0.0
H1762 H 0.58447 0.88849 0.46728 0.0
H1763 H 0.56818 0.01409 0.45946 0.0
H1764 H 0.51994 0.97277 0.44105 0.0
H1765 H 0.5232 0.81627 0.44363 0.0
C1766 C 0.54953 0.73363 0.45455 0.0
C1767 C 0.564 0.69896 0.46059 0.0
C1768 C 0.54753 0.824 0.45312 0.0
C1769 C 0.57644 0.75638 0.46517 0.0
C1770 C 0.57459 0.84618 0.46372 0.0
C1771 C 0.55826 0.97115 0.45616 0.0
C1772 C 0.54383 0.00584 0.45004 0.0
C1773 C 0.56018 0.88082 0.45771 0.0
C1774 C 0.53128 0.94836 0.44564 0.0
C1775 C 0.5331 0.85862 0.44716 0.0
H1776 H 0.21319 0.04438 0.45749 0.0
H1777 H 0.16215 1.0025 0.47058 0.0
H1778 H 0.1659 0.84589 0.46845 0.0
H1779 H 0.1835 0.72073 0.46261 0.0
H1780 H 0.23467 0.76181 0.4497 0.0
H1781 H 0.23092 0.91845 0.45179 0.0
C1782 C 0.20283 1.00115 0.45975 0.0
C1783 C 0.18739 0.03561 0.4642 0.0
C1784 C 0.20508 0.91075 0.45851 0.0
C1785 C 0.17422 0.97803 0.46729 0.0
C1786 C 0.17633 0.88832 0.46602 0.0
C1787 C 0.19393 0.76359 0.4604 0.0
C1788 C 0.20938 0.72879 0.456 0.0
C1789 C 0.19172 0.85387 0.46167 0.0
C1790 C 0.22259 0.78627 0.45296 0.0
C1791 C 0.22048 0.8761 0.4542 0.0
H1792 H 0.57703 1.00182 0.28358 0.0
H1793 H 0.52582 0.09563 0.28248 0.0
H1794 H 0.51525 0.94869 0.28605 0.0
H1795 H 0.52074 0.79268 0.28992 0.0
H1796 H 0.57198 0.70093 0.29102 0.0
H1797 H 0.58249 0.84729 0.28693 0.0
C1798 C 0.56357 0.9897 0.28393 0.0
C1799 C 0.55224 0.0591 0.28285 0.0
C1800 C 0.55763 0.90547 0.28604 0.0
C1801 C 0.5348 0.04311 0.28349 0.0
C1802 C 0.52875 0.95921 0.2855 0.0
C1803 C 0.53415 0.80561 0.28928 0.0
C1804 C 0.54563 0.73712 0.29055 0.0
C1805 C 0.54005 0.88998 0.28694 0.0
C1806 C 0.56302 0.75324 0.28975 0.0
C1807 C 0.569 0.83666 0.28749 0.0
H1808 H 0.18631 0.76995 0.27278 0.0
H1809 H 0.18617 0.70802 0.31376 0.0
H1810 H 0.1948 0.85596 0.31899 0.0
H1811 H 0.20277 1.00216 0.31189 0.0
H1812 H 0.20239 0.06561 0.27102 0.0
H1813 H 0.19344 0.91778 0.26571 0.0
C1814 C 0.1879 0.78921 0.28286 0.0
C1815 C 0.18569 0.72801 0.29287 0.0
C1816 C 0.19292 0.87427 0.28578 0.0
C1817 C 0.18802 0.75373 0.30588 0.0
C1818 C 0.19294 0.83822 0.30888 0.0
C1819 C 0.20098 0.98307 0.30182 0.0
C1820 C 0.20344 0.04396 0.29183 0.0
C1821 C 0.19564 0.89865 0.2989 0.0
C1822 C 0.20061 0.01941 0.27884 0.0
C1823 C 0.19547 0.93515 0.27582 0.0
H1824 H 0.92815 0.46363 0.54189 0.0
H1825 H 0.98088 0.50135 0.55056 0.0
H1826 H 0.97736 0.65811 0.5485 0.0
H1827 H 0.95938 0.78515 0.54377 0.0
H1828 H 0.90694 0.74687 0.53451 0.0
H1829 H 0.91022 0.59035 0.53741 0.0
C1830 C 0.93893 0.50587 0.54321 0.0
C1831 C 0.95479 0.47019 0.54636 0.0
C1832 C 0.93685 0.59618 0.54193 0.0
C1833 C 0.9685 0.52666 0.54826 0.0
C1834 C 0.96652 0.61649 0.54703 0.0
C1835 C 0.94868 0.74233 0.54246 0.0
C1836 C 0.93293 0.77734 0.53894 0.0
C1837 C 0.95076 0.65204 0.54385 0.0
C1838 C 0.91921 0.72119 0.53709 0.0
C1839 C 0.92109 0.63169 0.53871 0.0
H1840 H 0.33172 0.48024 0.52777 0.0
H1841 H 0.29234 0.38621 0.55303 0.0
H1842 H 0.2808 0.53224 0.55503 0.0
H1843 H 0.28254 0.68688 0.55027 0.0
H1844 H 0.32228 0.78159 0.52521 0.0
H1845 H 0.33269 0.63552 0.52224 0.0
C1846 C 0.32067 0.49227 0.53373 0.0
C1847 C 0.3129 0.42315 0.54023 0.0
C1848 C 0.31407 0.57637 0.53482 0.0
C1849 C 0.29843 0.4386 0.54781 0.0
C1850 C 0.29185 0.522 0.549 0.0
C1851 C 0.29349 0.676 0.54419 0.0
C1852 C 0.30176 0.74647 0.53833 0.0
C1853 C 0.29964 0.59146 0.54261 0.0
C1854 C 0.31562 0.72986 0.53006 0.0
C1855 C 0.32173 0.6458 0.52837 0.0
H1856 H 0.956 0.44443 0.69588 0.0
H1857 H 0.93801 0.47647 0.7353 0.0
H1858 H 0.94377 0.63105 0.73421 0.0
H1859 H 0.95413 0.75819 0.72225 0.0
H1860 H 0.97248 0.72685 0.68294 0.0
H1861 H 0.96687 0.57152 0.68402 0.0
C1862 C 0.95348 0.48477 0.70429 0.0
C1863 C 0.94645 0.44762 0.71562 0.0
C1864 C 0.95704 0.57435 0.70369 0.0
C1865 C 0.94311 0.50224 0.72634 0.0
C1866 C 0.94654 0.59115 0.72578 0.0
C1867 C 0.95683 0.7177 0.71387 0.0
C1868 C 0.96377 0.75501 0.70254 0.0
C1869 C 0.95347 0.62804 0.71451 0.0
C1870 C 0.96738 0.70049 0.69188 0.0
C1871 C 0.96405 0.61137 0.69244 0.0
H1872 H 0.28738 0.85122 0.70119 0.0
H1873 H 0.3368 0.80789 0.71751 0.0
H1874 H 0.33193 0.65167 0.7175 0.0
H1875 H 0.31426 0.52641 0.71183 0.0
H1876 H 0.26492 0.56873 0.69534 0.0
H1877 H 0.26903 0.72539 0.69665 0.0
C1878 C 0.29699 0.80784 0.70493 0.0
C1879 C 0.31252 0.84199 0.70924 0.0
C1880 C 0.29415 0.71733 0.70483 0.0
C1881 C 0.32485 0.78395 0.71392 0.0
C1882 C 0.32205 0.6943 0.71398 0.0
C1883 C 0.30431 0.56948 0.70864 0.0
C1884 C 0.28937 0.53477 0.70331 0.0
C1885 C 0.30684 0.66003 0.70928 0.0
C1886 C 0.27668 0.59285 0.69926 0.0
C1887 C 0.279 0.68282 0.70004 0.0
H1888 H 0.07938 0.2506 0.44904 0.0
H1889 H 0.04102 0.1811 0.47688 0.0
H1890 H 0.03019 0.33002 0.47663 0.0
H1891 H 0.03133 0.48069 0.46804 0.0
H1892 H 0.06901 0.54713 0.43963 0.0
H1893 H 0.08059 0.39957 0.44057 0.0
C1894 C 0.06881 0.26837 0.45518 0.0
C1895 C 0.06107 0.20499 0.46301 0.0
C1896 C 0.0625 0.35366 0.45481 0.0
C1897 C 0.04713 0.22868 0.47072 0.0
C1898 C 0.04096 0.3138 0.47059 0.0
C1899 C 0.04205 0.46208 0.4621 0.0
C1900 C 0.04937 0.52349 0.45375 0.0
C1901 C 0.04844 0.37677 0.46259 0.0
C1902 C 0.06324 0.49989 0.44604 0.0
C1903 C 0.06983 0.41591 0.44661 0.0
H1904 H 0.71651 0.56304 0.45154 0.0
H1905 H 0.66762 0.51936 0.46874 0.0
H1906 H 0.67184 0.36275 0.46724 0.0
H1907 H 0.68923 0.2381 0.46088 0.0
H1908 H 0.73813 0.281 0.4436 0.0
H1909 H 0.73402 0.4374 0.44524 0.0
C1910 C 0.7067 0.51939 0.45482 0.0
C1911 C 0.69174 0.55347 0.46024 0.0
C1912 C 0.70921 0.4289 0.45394 0.0
C1913 C 0.67931 0.49532 0.46465 0.0
C1914 C 0.68169 0.40554 0.46376 0.0
C1915 C 0.69907 0.2811 0.45751 0.0
C1916 C 0.71392 0.24655 0.45198 0.0
C1917 C 0.69661 0.3715 0.45845 0.0
C1918 C 0.72644 0.30477 0.4477 0.0
C1919 C 0.72413 0.39466 0.44868 0.0
H1920 H 0.05324 0.25348 0.30957 0.0
H1921 H 0.05785 0.19118 0.26881 0.0
H1922 H 0.06724 0.33923 0.26416 0.0
H1923 H 0.07372 0.48656 0.27174 0.0
H1924 H 0.06967 0.54753 0.31263 0.0
H1925 H 0.06037 0.39967 0.31722 0.0
C1926 C 0.05604 0.27285 0.29966 0.0
C1927 C 0.05466 0.21213 0.28951 0.0
C1928 C 0.06163 0.35744 0.29712 0.0
C1929 C 0.05879 0.23717 0.27675 0.0
C1930 C 0.06418 0.32157 0.2741 0.0
C1931 C 0.07107 0.46718 0.28167 0.0
C1932 C 0.07234 0.52806 0.29183 0.0
C1933 C 0.0657 0.38215 0.28423 0.0
C1934 C 0.06859 0.50211 0.30463 0.0
C1935 C 0.06329 0.41763 0.30726 0.0
H1936 H 0.70001 0.20339 0.30148 0.0
H1937 H 0.68313 0.23463 0.26177 0.0
H1938 H 0.68911 0.38922 0.26282 0.0
H1939 H 0.69936 0.51672 0.27487 0.0
H1940 H 0.71632 0.48518 0.31457 0.0
H1941 H 0.71057 0.33051 0.31344 0.0
C1942 C 0.69778 0.24356 0.29299 0.0
C1943 C 0.69101 0.20615 0.28158 0.0
C1944 C 0.70142 0.33313 0.29358 0.0
C1945 C 0.68804 0.26061 0.27078 0.0
C1946 C 0.69159 0.34953 0.27132 0.0
C1947 C 0.70176 0.47642 0.28332 0.0
C1948 C 0.70841 0.5139 0.29476 0.0
C1949 C 0.69826 0.38669 0.28268 0.0
C1950 C 0.71153 0.45922 0.30552 0.0
C1951 C 0.7081 0.37023 0.30493 0.0
H1952 H 0.94234 0.99628 0.03646 0.0
H1953 H 0.99362 0.03899 0.04891 0.0
H1954 H 0.98928 0.19556 0.04776 0.0
H1955 H 0.97052 0.32122 0.04425 0.0
H1956 H 0.91938 0.27763 0.03149 0.0
H1957 H 0.92411 0.1214 0.03176 0.0
C1958 C 0.95267 0.03941 0.03877 0.0
C1959 C 0.96826 0.00481 0.0429 0.0
C1960 C 0.95008 0.12994 0.03813 0.0
C1961 C 0.98139 0.06296 0.04592 0.0
C1962 C 0.97894 0.1529 0.04522 0.0
C1963 C 0.96047 0.27788 0.04134 0.0
C1964 C 0.94454 0.31215 0.03798 0.0
C1965 C 0.96327 0.18731 0.0415 0.0
C1966 C 0.93167 0.25389 0.03437 0.0
C1967 C 0.93439 0.16413 0.03445 0.0
H1968 H 0.3125 0.01134 0.02164 0.0
H1969 H 0.31763 0.9508 0.06248 0.0
H1970 H 0.30965 0.09907 0.0682 0.0
H1971 H 0.30097 0.24528 0.06154 0.0
H1972 H 0.29668 0.30733 0.02076 0.0
H1973 H 0.3047 0.15875 0.01497 0.0
C1974 C 0.31216 0.03096 0.03177 0.0
C1975 C 0.31559 0.97023 0.04163 0.0
C1976 C 0.30755 0.11608 0.03497 0.0
C1977 C 0.31483 0.99629 0.05473 0.0
C1978 C 0.31029 0.08091 0.058 0.0
C1979 C 0.30155 0.2256 0.05141 0.0
C1980 C 0.29805 0.2861 0.04157 0.0
C1981 C 0.30643 0.14096 0.0482 0.0
C1982 C 0.29928 0.26114 0.02846 0.0
C1983 C 0.30389 0.17658 0.02516 0.0
H1984 H 0.95434 0.94736 0.19524 0.0
H1985 H 0.93721 0.98101 0.23485 0.0
H1986 H 0.9428 0.13596 0.23348 0.0
H1987 H 0.95269 0.26278 0.22116 0.0
H1988 H 0.96991 0.22939 0.18158 0.0
H1989 H 0.96464 0.07404 0.18302 0.0
C1990 C 0.95199 0.98817 0.20364 0.0
C1991 C 0.94527 0.95151 0.21511 0.0
C1992 C 0.95539 0.07784 0.20285 0.0
C1993 C 0.94211 0.00659 0.2258 0.0
C1994 C 0.94542 0.09562 0.22507 0.0
C1995 C 0.95522 0.22191 0.21281 0.0
C1996 C 0.96175 0.2588 0.20128 0.0
C1997 C 0.95202 0.13211 0.21364 0.0
C1998 C 0.96514 0.20359 0.19065 0.0
C1999 C 0.962 0.11437 0.19143 0.0
H2000 H 0.30488 0.25888 0.19612 0.0
H2001 H 0.3276 0.22527 0.23398 0.0
H2002 H 0.32197 0.07006 0.2331 0.0
H2003 H 0.31083 0.94284 0.22156 0.0
H2004 H 0.28826 0.97573 0.18363 0.0
H2005 H 0.29319 0.13158 0.18474 0.0
C2006 C 0.30843 0.21785 0.20424 0.0
C2007 C 0.31677 0.25435 0.21506 0.0
C2008 C 0.30511 0.12804 0.20371 0.0
C2009 C 0.32144 0.19944 0.22542 0.0
C2010 C 0.31813 0.11038 0.22497 0.0
C2011 C 0.30706 0.98379 0.21349 0.0
C2012 C 0.29915 0.94668 0.20253 0.0
C2013 C 0.31008 0.07377 0.21412 0.0
C2014 C 0.29415 1.00181 0.19228 0.0
C2015 C 0.29707 0.09127 0.19286 0.0
H2016 H 0.04412 0.97668 0.96864 0.0
H2017 H 0.07737 0.04837 0.93722 0.0
H2018 H 0.08905 0.90142 0.93677 0.0
H2019 H 0.08925 0.75131 0.94508 0.0
H2020 H 0.05578 0.68089 0.97643 0.0
H2021 H 0.04469 0.82862 0.97718 0.0
C2022 C 0.05373 0.9597 0.96157 0.0
C2023 C 0.05976 0.02278 0.9529 0.0
C2024 C 0.06042 0.8756 0.96143 0.0
C2025 C 0.07254 1.00064 0.94399 0.0
C2026 C 0.07922 0.9168 0.94374 0.0
C2027 C 0.07973 0.76897 0.95218 0.0
C2028 C 0.07327 0.70568 0.96064 0.0
C2029 C 0.07327 0.85376 0.95244 0.0
C2030 C 0.06078 0.72868 0.96973 0.0
C2031 C 0.05444 0.81292 0.97016 0.0
H2032 H 0.72754 0.81753 0.95366 0.0
H2033 H 0.67663 0.72314 0.95669 0.0
H2034 H 0.6662 0.86976 0.96052 0.0
H2035 H 0.67152 0.0252 0.96249 0.0
H2036 H 0.72229 0.12217 0.9592 0.0
H2037 H 0.73291 0.97488 0.95588 0.0
C2038 C 0.71421 0.82988 0.95515 0.0
C2039 C 0.70287 0.76047 0.9552 0.0
C2040 C 0.70832 0.91455 0.95724 0.0
C2041 C 0.68557 0.776 0.95705 0.0
C2042 C 0.67961 0.85964 0.95912 0.0
C2043 C 0.68491 0.01368 0.96121 0.0
C2044 C 0.69608 0.08383 0.96101 0.0
C2045 C 0.69087 0.92933 0.95927 0.0
C2046 C 0.71342 0.06886 0.95916 0.0
C2047 C 0.71951 0.9848 0.95732 0.0
H2048 H 0.05032 0.77088 0.80858 0.0
H2049 H 0.05956 0.6936 0.7688 0.0
H2050 H 0.06866 0.84055 0.76349 0.0
H2051 H 0.07462 0.99149 0.77034 0.0
H2052 H 0.0642 0.06767 0.80992 0.0
H2053 H 0.05479 0.92095 0.8151 0.0
C2054 C 0.05397 0.78613 0.79868 0.0
C2055 C 0.05432 0.72063 0.78916 0.0
C2056 C 0.05913 0.87074 0.79567 0.0
C2057 C 0.05939 0.74214 0.77641 0.0
C2058 C 0.06459 0.82633 0.77334 0.0
C2059 C 0.07038 0.9753 0.78008 0.0
C2060 C 0.07013 0.03964 0.78976 0.0
C2061 C 0.06473 0.89094 0.78294 0.0
C2062 C 0.06439 0.01887 0.80232 0.0
C2063 C 0.05902 0.93518 0.80529 0.0
H2064 H 0.69951 0.01063 0.81141 0.0
H2065 H 0.70258 0.0731 0.77056 0.0
H2066 H 0.69412 0.92517 0.76491 0.0
H2067 H 0.68631 0.77766 0.77167 0.0
H2068 H 0.68287 0.71621 0.81258 0.0
H2069 H 0.69111 0.86425 0.81817 0.0
C2070 C 0.69859 0.99136 0.80128 0.0
C2071 C 0.70186 0.05216 0.79141 0.0
C2072 C 0.69355 0.90673 0.79814 0.0
C2073 C 0.70015 0.02715 0.77831 0.0
C2074 C 0.69529 0.94277 0.77509 0.0
C2075 C 0.68711 0.797 0.7818 0.0
C2076 C 0.68402 0.73595 0.7917 0.0
C2077 C 0.69192 0.88208 0.78493 0.0
C2078 C 0.68537 0.7618 0.80479 0.0
C2079 C 0.69006 0.84637 0.80799 0.0
H2080 H 0.34012 0.41851 0.02888 0.0
H2081 H 0.37698 0.62095 0.03455 0.0
H2082 H 0.39967 0.51573 0.0322 0.0
H2083 H 0.40928 0.36529 0.03014 0.0
H2084 H 0.37271 0.16112 0.02528 0.0
H2085 H 0.3499 0.26795 0.0253 0.0
C2086 C 0.35311 0.44009 0.02929 0.0
C2087 C 0.35672 0.52793 0.03195 0.0
C2088 C 0.36628 0.37884 0.02798 0.0
C2089 C 0.37372 0.55402 0.03256 0.0
C2090 C 0.38679 0.49385 0.03116 0.0
C2091 C 0.39639 0.34418 0.02877 0.0
C2092 C 0.39281 0.25502 0.02768 0.0
C2093 C 0.38326 0.40589 0.0291 0.0
C2094 C 0.3759 0.22921 0.02613 0.0
C2095 C 0.3628 0.29035 0.02619 0.0
H2096 H 0.87816 0.05379 0.04307 0.0
H2097 H 0.84328 0.93141 0.0166 0.0
H2098 H 0.86396 0.81645 0.01226 0.0
H2099 H 0.89183 0.74743 0.01673 0.0
H2100 H 0.92528 0.86944 0.04439 0.0
H2101 H 0.9054 0.98722 0.04739 0.0
C2102 C 0.87505 1.00261 0.03623 0.0
C2103 C 0.85912 1.00179 0.03016 0.0
C2104 C 0.88681 0.93593 0.03402 0.0
C2105 C 0.85541 0.93405 0.02143 0.0
C2106 C 0.86724 0.86805 0.01896 0.0
C2107 C 0.89477 0.79995 0.02337 0.0
C2108 C 0.91019 0.79899 0.03027 0.0
C2109 C 0.88296 0.86769 0.02532 0.0
C2110 C 0.91365 0.86764 0.03891 0.0
C2111 C 0.90223 0.93551 0.04066 0.0
H2112 H 0.36036 0.74739 0.19187 0.0
H2113 H 0.35862 0.72888 0.23368 0.0
H2114 H 0.3782 0.85264 0.23546 0.0
H2115 H 0.3958 0.96773 0.22468 0.0
H2116 H 0.39278 0.99491 0.1829 0.0
H2117 H 0.37506 0.86697 0.1815 0.0
C2118 C 0.36416 0.7708 0.20139 0.0
C2119 C 0.35819 0.72921 0.21262 0.0
C2120 C 0.3746 0.84377 0.20229 0.0
C2121 C 0.36314 0.76018 0.2249 0.0
C2122 C 0.37431 0.83078 0.22589 0.0
C2123 C 0.39116 0.94547 0.21533 0.0
C2124 C 0.39577 0.99021 0.20389 0.0
C2125 C 0.38013 0.87342 0.21461 0.0
C2126 C 0.38951 0.96153 0.19183 0.0
C2127 C 0.37936 0.88822 0.191 0.0
H2128 H 0.87575 0.20191 0.22047 0.0
H2129 H 0.83485 0.36307 0.20686 0.0
H2130 H 0.85301 0.48983 0.20738 0.0
H2131 H 0.88126 0.55291 0.20948 0.0
H2132 H 0.92208 0.39497 0.224 0.0
H2133 H 0.90335 0.26998 0.22529 0.0
C2134 C 0.87076 0.26503 0.21781 0.0
C2135 C 0.85387 0.27239 0.21367 0.0
C2136 C 0.88138 0.33844 0.21807 0.0
C2137 C 0.84763 0.355 0.21031 0.0
C2138 C 0.85811 0.42783 0.21046 0.0
C2139 C 0.88607 0.49157 0.2131 0.0
C2140 C 0.90332 0.48313 0.21617 0.0
C2141 C 0.87511 0.42001 0.21403 0.0
C2142 C 0.9091 0.40317 0.22109 0.0
C2143 C 0.89831 0.33144 0.22191 0.0
H2144 H 0.6263 0.47066 0.95837 0.0
H2145 H 0.66616 0.62795 0.97437 0.0
H2146 H 0.64655 0.74935 0.97691 0.0
H2147 H 0.61838 0.81514 0.97271 0.0
H2148 H 0.57893 0.65437 0.95697 0.0
H2149 H 0.59781 0.5302 0.95654 0.0
C2150 C 0.63072 0.53099 0.96259 0.0
C2151 C 0.6479 0.54057 0.96579 0.0
C2152 C 0.61931 0.60026 0.96415 0.0
C2153 C 0.65318 0.61901 0.97149 0.0
C2154 C 0.64191 0.68866 0.97298 0.0
C2155 C 0.61387 0.75248 0.96942 0.0
C2156 C 0.59705 0.74401 0.96512 0.0
C2157 C 0.62502 0.68083 0.96902 0.0
C2158 C 0.5915 0.66236 0.96079 0.0
C2159 C 0.60244 0.59136 0.96033 0.0
H2160 H 0.16332 0.08079 0.97204 0.0
H2161 H 0.12652 0.88538 0.96204 0.0
H2162 H 0.10398 0.99165 0.96405 0.0
H2163 H 0.09464 0.14155 0.96736 0.0
H2164 H 0.13078 0.3383 0.97772 0.0
H2165 H 0.15354 0.23033 0.97696 0.0
C2166 C 0.15037 0.06113 0.97046 0.0
C2167 C 0.14676 0.97482 0.96679 0.0
C2168 C 0.13729 0.12314 0.97159 0.0
C2169 C 0.12981 0.95105 0.9648 0.0
C2170 C 0.11683 0.01198 0.96591 0.0
C2171 C 0.1075 0.16093 0.96942 0.0
C2172 C 0.11103 0.24815 0.9724 0.0
C2173 C 0.12045 0.09847 0.96905 0.0
C2174 C 0.12771 0.27159 0.97541 0.0
C2175 C 0.14074 0.20986 0.97493 0.0
H2176 H 0.66338 0.17214 0.78467 0.0
H2177 H 0.62322 0.35641 0.77826 0.0
H2178 H 0.60294 0.2376 0.77656 0.0
H2179 H 0.59631 0.08274 0.77889 0.0
H2180 H 0.63626 0.89994 0.78681 0.0
H2181 H 0.65699 0.01644 0.78552 0.0
C2182 C 0.6503 0.18648 0.78256 0.0
C2183 C 0.64491 0.27342 0.78153 0.0
C2184 C 0.63862 0.11787 0.78194 0.0
C2185 C 0.62776 0.29029 0.7791 0.0
C2186 C 0.61613 0.22229 0.77815 0.0
C2187 C 0.6095 0.06793 0.78024 0.0
C2188 C 0.61455 0.98239 0.78315 0.0
C2189 C 0.62135 0.13593 0.77988 0.0
C2190 C 0.63188 0.96502 0.78467 0.0
C2191 C 0.64379 0.0318 0.78397 0.0
H2192 H 0.13623 0.44191 0.78714 0.0
H2193 H 0.09313 0.60428 0.77914 0.0
H2194 H 0.11137 0.73051 0.77713 0.0
H2195 H 0.13948 0.79795 0.77962 0.0
H2196 H 0.18242 0.63419 0.7876 0.0
H2197 H 0.16453 0.5066 0.78744 0.0
C2198 C 0.13082 0.50463 0.78477 0.0
C2199 C 0.11322 0.51305 0.7834 0.0
C2200 C 0.14145 0.57747 0.78365 0.0
C2201 C 0.10654 0.59507 0.78023 0.0
C2202 C 0.11701 0.66784 0.77915 0.0
C2203 C 0.14496 0.73421 0.78113 0.0
C2204 C 0.16239 0.72638 0.78355 0.0
C2205 C 0.13446 0.66027 0.78114 0.0
C2206 C 0.1692 0.64291 0.78548 0.0
C2207 C 0.15889 0.56945 0.78553 0.0
H2208 H 0.38582 0.69006 0.54342 0.0
H2209 H 0.42387 0.82173 0.52083 0.0
H2210 H 0.40362 0.93623 0.51537 0.0
H2211 H 0.37519 1.00271 0.51788 0.0
H2212 H 0.33816 0.8713 0.54155 0.0
H2213 H 0.35777 0.75343 0.54554 0.0
C2214 C 0.38971 0.74321 0.53719 0.0
C2215 C 0.40642 0.74696 0.53258 0.0
C2216 C 0.37811 0.80951 0.53428 0.0
C2217 C 0.41114 0.81704 0.52458 0.0
C2218 C 0.39954 0.88272 0.52145 0.0
C2219 C 0.3714 0.94798 0.52383 0.0
C2220 C 0.35511 0.94642 0.52937 0.0
C2221 C 0.38301 0.8803 0.52638 0.0
C2222 C 0.35053 0.87499 0.53715 0.0
C2223 C 0.36178 0.80714 0.53947 0.0
H2224 H 0.84318 0.41171 0.54112 0.0
H2225 H 0.87879 0.59375 0.52513 0.0
H2226 H 0.89987 0.4777 0.52308 0.0
H2227 H 0.90901 0.3278 0.52794 0.0
H2228 H 0.87332 0.14893 0.54489 0.0
H2229 H 0.85172 0.26081 0.54474 0.0
C2230 C 0.85542 0.42567 0.53693 0.0
C2231 C 0.85934 0.51102 0.53314 0.0
C2232 C 0.86765 0.35953 0.53624 0.0
C2233 C 0.87546 0.52851 0.52809 0.0
C2234 C 0.88753 0.46232 0.52699 0.0
C2235 C 0.89646 0.3128 0.53141 0.0
C2236 C 0.89298 0.22978 0.53654 0.0
C2237 C 0.88392 0.37796 0.53134 0.0
C2238 C 0.87651 0.21192 0.54092 0.0
C2239 C 0.86405 0.276 0.54082 0.0
H2240 H 0.36671 0.26725 0.72957 0.0
H2241 H 0.3309 0.40382 0.70542 0.0
H2242 H 0.35039 0.52314 0.70284 0.0
H2243 H 0.37807 0.58684 0.7063 0.0
H2244 H 0.4153 0.44969 0.72902 0.0
H2245 H 0.39499 0.3332 0.73319 0.0
C2246 C 0.36314 0.32342 0.72384 0.0
C2247 C 0.34713 0.32626 0.71784 0.0
C2248 C 0.37479 0.39188 0.72202 0.0
C2249 C 0.34292 0.39943 0.7103 0.0
C2250 C 0.35415 0.46807 0.70875 0.0
C2251 C 0.38177 0.53208 0.7123 0.0
C2252 C 0.39824 0.52746 0.71733 0.0
C2253 C 0.37017 0.4647 0.71443 0.0
C2254 C 0.40273 0.45517 0.72498 0.0
C2255 C 0.3911 0.38837 0.72737 0.0
H2256 H 0.87519 0.70664 0.72154 0.0
H2257 H 0.83514 0.8753 0.70863 0.0
H2258 H 0.85414 0.99863 0.70882 0.0
H2259 H 0.88284 0.05645 0.71042 0.0
H2260 H 0.92299 0.89097 0.72413 0.0
H2261 H 0.90345 0.76952 0.72579 0.0
C2262 C 0.87059 0.77074 0.719 0.0
C2263 C 0.85362 0.78146 0.71525 0.0
C2264 C 0.88174 0.84206 0.71902 0.0
C2265 C 0.8479 0.86502 0.71194 0.0
C2266 C 0.85888 0.93579 0.71185 0.0
C2267 C 0.88734 0.99421 0.71393 0.0
C2268 C 0.9046 0.98262 0.71669 0.0
C2269 C 0.87592 0.92476 0.71509 0.0
C2270 C 0.90999 0.9016 0.72148 0.0
C2271 C 0.89874 0.83189 0.72252 0.0
H2272 H 0.63208 0.95615 0.46856 0.0
H2273 H 0.67209 0.12016 0.4545 0.0
H2274 H 0.65336 0.24535 0.45479 0.0
H2275 H 0.62502 0.30634 0.45724 0.0
H2276 H 0.58455 0.14377 0.47108 0.0
H2277 H 0.60389 0.02082 0.47266 0.0
C2278 C 0.63673 0.01962 0.46575 0.0
C2279 C 0.65366 0.02903 0.46182 0.0
C2280 C 0.62569 0.09167 0.46574 0.0
C2281 C 0.6594 0.1116 0.45808 0.0
C2282 C 0.64858 0.18317 0.45805 0.0
C2283 C 0.62041 0.24444 0.46077 0.0
C2284 C 0.60318 0.23442 0.46378 0.0
C2285 C 0.63163 0.1738 0.46167 0.0
C2286 C 0.59761 0.15344 0.46843 0.0
C2287 C 0.6087 0.08283 0.46937 0.0
H2288 H 0.12036 0.77245 0.48174 0.0
H2289 H 0.08341 0.64717 0.45728 0.0
H2290 H 0.10198 0.52436 0.45423 0.0
H2291 H 0.12903 0.45354 0.45756 0.0
H2292 H 0.16723 0.57776 0.48091 0.0
H2293 H 0.14799 0.69896 0.48528 0.0
C2294 C 0.11633 0.71803 0.47582 0.0
C2295 C 0.1003 0.71971 0.46983 0.0
C2296 C 0.12738 0.64702 0.47383 0.0
C2297 C 0.09548 0.64851 0.4621 0.0
C2298 C 0.10617 0.57769 0.4603 0.0
C2299 C 0.13317 0.50647 0.46374 0.0
C2300 C 0.14961 0.50608 0.46889 0.0
C2301 C 0.12217 0.57643 0.46602 0.0
C2302 C 0.15467 0.57611 0.47678 0.0
C2303 C 0.14366 0.64563 0.47927 0.0
H2304 H 0.6223 0.45091 0.28917 0.0
H2305 H 0.58213 0.60463 0.27272 0.0
H2306 H 0.60126 0.72737 0.27025 0.0
H2307 H 0.62911 0.79543 0.27452 0.0
H2308 H 0.66923 0.63742 0.29009 0.0
H2309 H 0.65068 0.5124 0.29081 0.0
C2310 C 0.61772 0.51078 0.28488 0.0
C2311 C 0.60056 0.51898 0.28156 0.0
C2312 C 0.62891 0.58078 0.28326 0.0
C2313 C 0.59508 0.59676 0.27575 0.0
C2314 C 0.60608 0.66722 0.27428 0.0
C2315 C 0.63383 0.73318 0.27785 0.0
C2316 C 0.65069 0.72597 0.28206 0.0
C2317 C 0.62295 0.66075 0.27831 0.0
C2318 C 0.65657 0.64479 0.2864 0.0
C2319 C 0.64584 0.57314 0.287 0.0
H2320 H 0.16342 0.16734 0.28568 0.0
H2321 H 0.12381 0.35963 0.28569 0.0
H2322 H 0.10262 0.24515 0.28416 0.0
H2323 H 0.09528 0.09027 0.2848 0.0
H2324 H 0.13486 0.89804 0.28572 0.0
H2325 H 0.15611 0.01255 0.28478 0.0
C2326 C 0.1502 0.18453 0.28507 0.0
C2327 C 0.14529 0.27235 0.28579 0.0
C2328 C 0.13804 0.11812 0.28445 0.0
C2329 C 0.128 0.29277 0.28519 0.0
C2330 C 0.11585 0.22723 0.28434 0.0
C2331 C 0.10851 0.07313 0.28449 0.0
C2332 C 0.1134 0.98531 0.28529 0.0
C2333 C 0.1207 0.13957 0.28423 0.0
C2334 C 0.1307 0.96491 0.28513 0.0
C2335 C 0.14288 0.03047 0.28462 0.0
loop_
_geom_bond_atom_site_label_1
_geom_bond_atom_site_label_2
_geom_bond_distance
_geom_bond_site_symmetry_2
_ccdc_geom_bond_type
C0 C1 1.351 . S
C0 N3 1.368 . S
C0 H5 0.931 . S
C1 C0 1.351 . S
C1 N2 1.373 . S
C1 H29 0.930 . S
N2 C1 1.373 . S
N2 C4 1.340 . S
N3 C0 1.368 . S
N3 C4 1.321 . S
N3 Co6 2.135 . S
C4 N2 1.340 . S
C4 N3 1.321 . S
C4 H28 0.930 . S
H5 C0 0.931 . S
Co6 N3 2.135 . S
Co6 N9 2.121 . S
Co6 O14 2.055 . S
Co6 O17 2.039 . S
Co6 N20 2.140 . S
C7 O8 1.227 . S
C7 O17 1.265 . S
O8 C7 1.227 . S
N9 Co6 2.121 . S
N9 C11 1.375 . S
N9 C12 1.313 1_545 S
C10 C11 1.338 1_565 S
C10 N13 1.377 . S
C10 H30 0.930 . S
C11 N9 1.375 . S
C11 C10 1.338 1_545 S
C11 H15 0.931 . S
C12 N9 1.313 1_565 S
C12 N13 1.344 . S
C12 H16 0.930 . S
N13 C10 1.377 . S
N13 C12 1.344 . S
O14 Co6 2.055 . S
O14 C18 1.253 . S
H15 C11 0.931 . S
H16 C12 0.930 . S
O17 Co6 2.039 . S
O17 C7 1.265 . S
C18 O14 1.253 . S
C18 O19 1.227 . S
O19 C18 1.227 . S
N20 Co6 2.140 . S
N20 C23 1.346 . S
N20 C24 1.345 . S
C21 C22 1.387 . S
C21 C25 1.391 . S
C22 C21 1.387 . S
C22 C23 1.369 . S
C22 H31 0.929 . S
C23 N20 1.346 . S
C23 C22 1.369 . S
C23 H26 0.928 . S
C24 N20 1.345 . S
C24 C25 1.371 . S
C24 H27 0.931 . S
C25 C21 1.391 . S
C25 C24 1.371 . S
C25 H32 0.930 . S
H26 C23 0.928 . S
H27 C24 0.931 . S
H28 C4 0.930 . S
H29 C1 0.930 . S
H30 C10 0.930 . S
H31 C22 0.929 . S
H32 C25 0.930 . S
C33 C34 1.351 . S
C33 N36 1.368 . S
C33 H38 0.931 . S
C34 C33 1.351 . S
C34 N35 1.373 . S
C34 H62 0.930 . S
N35 C34 1.373 . S
N35 C37 1.340 . S
N36 C33 1.368 . S
N36 C37 1.321 . S
N36 Co39 2.135 1_565 S
C37 N35 1.340 . S
C37 N36 1.321 . S
C37 H61 0.930 . S
H38 C33 0.931 . S
Co39 N36 2.135 1_545 S
Co39 N42 2.121 . S
Co39 O47 2.055 . S
Co39 O50 2.039 . S
Co39 N53 2.140 . S
C40 O41 1.227 1_545 S
C40 O50 1.265 . S
O41 C40 1.227 1_565 S
N42 Co39 2.121 . S
N42 C44 1.375 . S
N42 C45 1.313 . S
C43 C44 1.338 . S
C43 N46 1.377 . S
C43 H63 0.930 . S
C44 N42 1.375 . S
C44 C43 1.338 . S
C44 H48 0.931 . S
C45 N42 1.313 . S
C45 N46 1.344 . S
C45 H49 0.930 . S
N46 C43 1.377 . S
N46 C45 1.344 . S
O47 Co39 2.055 . S
O47 C51 1.253 . S
H48 C44 0.931 . S
H49 C45 0.930 . S
O50 Co39 2.039 . S
O50 C40 1.265 . S
C51 O47 1.253 . S
C51 O52 1.227 . S
O52 C51 1.227 . S
N53 Co39 2.140 . S
N53 C56 1.346 . S
N53 C57 1.345 . S
C54 C55 1.387 . S
C54 C58 1.391 . S
C55 C54 1.387 . S
C55 C56 1.369 . S
C55 H64 0.929 1_545 S
C56 N53 1.346 . S
C56 C55 1.369 . S
C56 H59 0.928 1_545 S
C57 N53 1.345 . S
C57 C58 1.371 . S
C57 H60 0.931 . S
C58 C54 1.391 . S
C58 C57 1.371 . S
C58 H65 0.930 . S
H59 C56 0.928 1_565 S
H60 C57 0.931 . S
H61 C37 0.930 . S
H62 C34 0.930 . S
H63 C43 0.930 . S
H64 C55 0.929 1_565 S
H65 C58 0.930 . S
C66 C67 1.351 . S
C66 N69 1.368 . S
C66 H71 0.931 . S
C67 C66 1.351 . S
C67 N68 1.373 . S
C67 H95 0.930 . S
N68 C67 1.373 . S
N68 C70 1.340 . S
N69 C66 1.368 . S
N69 C70 1.321 . S
N69 Co72 2.135 1_565 S
C70 N68 1.340 . S
C70 N69 1.321 . S
C70 H94 0.930 . S
H71 C66 0.931 . S
Co72 N69 2.135 1_545 S
Co72 N75 2.121 . S
Co72 O80 2.055 . S
Co72 O83 2.039 . S
Co72 N86 2.140 . S
C73 O74 1.227 1_545 S
C73 O83 1.265 . S
O74 C73 1.227 1_565 S
N75 Co72 2.121 . S
N75 C77 1.375 . S
N75 C78 1.313 . S
C76 C77 1.338 . S
C76 N79 1.377 . S
C76 H96 0.930 . S
C77 N75 1.375 . S
C77 C76 1.338 . S
C77 H81 0.931 . S
C78 N75 1.313 . S
C78 N79 1.344 . S
C78 H82 0.930 . S
N79 C76 1.377 . S
N79 C78 1.344 . S
O80 Co72 2.055 . S
O80 C84 1.253 . S
H81 C77 0.931 . S
H82 C78 0.930 . S
O83 Co72 2.039 . S
O83 C73 1.265 . S
C84 O80 1.253 . S
C84 O85 1.227 . S
O85 C84 1.227 . S
N86 Co72 2.140 . S
N86 C89 1.346 . S
N86 C90 1.345 . S
C87 C88 1.387 . S
C87 C91 1.391 . S
C88 C87 1.387 . S
C88 C89 1.369 . S
C88 H97 0.929 1_545 S
C89 N86 1.346 . S
C89 C88 1.369 . S
C89 H92 0.928 1_545 S
C90 N86 1.345 . S
C90 C91 1.371 . S
C90 H93 0.931 . S
C91 C87 1.391 . S
C91 C90 1.371 . S
C91 H98 0.930 . S
H92 C89 0.928 1_565 S
H93 C90 0.931 . S
H94 C70 0.930 . S
H95 C67 0.930 . S
H96 C76 0.930 . S
H97 C88 0.929 1_565 S
H98 C91 0.930 . S
C99 C100 1.351 . S
C99 N102 1.368 . S
C99 H104 0.931 . S
C100 C99 1.351 . S
C100 N101 1.373 . S
C100 H128 0.930 . S
N101 C100 1.373 . S
N101 C103 1.340 . S
N102 C99 1.368 . S
N102 C103 1.321 . S
N102 Co105 2.135 . S
C103 N101 1.340 . S
C103 N102 1.321 . S
C103 H127 0.930 . S
H104 C99 0.931 . S
Co105 N102 2.135 . S
Co105 N108 2.121 . S
Co105 O113 2.055 . S
Co105 O116 2.039 . S
Co105 N119 2.140 . S
C106 O107 1.227 . S
C106 O116 1.265 . S
O107 C106 1.227 . S
N108 Co105 2.121 . S
N108 C110 1.375 . S
N108 C111 1.313 1_545 S
C109 C110 1.338 1_565 S
C109 N112 1.377 . S
C109 H129 0.930 . S
C110 N108 1.375 . S
C110 C109 1.338 1_545 S
C110 H114 0.931 . S
C111 N108 1.313 1_565 S
C111 N112 1.344 . S
C111 H115 0.930 . S
N112 C109 1.377 . S
N112 C111 1.344 . S
O113 Co105 2.055 . S
O113 C117 1.253 . S
H114 C110 0.931 . S
H115 C111 0.930 . S
O116 Co105 2.039 . S
O116 C106 1.265 . S
C117 O113 1.253 . S
C117 O118 1.227 . S
O118 C117 1.227 . S
N119 Co105 2.140 . S
N119 C122 1.346 . S
N119 C123 1.345 . S
C120 C121 1.387 . S
C120 C124 1.391 . S
C121 C120 1.387 . S
C121 C122 1.369 . S
C121 H130 0.929 . S
C122 N119 1.346 . S
C122 C121 1.369 . S
C122 H125 0.928 . S
C123 N119 1.345 . S
C123 C124 1.371 . S
C123 H126 0.931 . S
C124 C120 1.391 . S
C124 C123 1.371 . S
C124 H131 0.930 . S
H125 C122 0.928 . S
H126 C123 0.931 . S
H127 C103 0.930 . S
H128 C100 0.930 . S
H129 C109 0.930 . S
H130 C121 0.929 . S
H131 C124 0.930 . S
C132 C133 1.351 . S
C132 N135 1.368 . S
C132 H137 0.931 . S
C133 C132 1.351 . S
C133 N134 1.373 . S
C133 H161 0.930 . S
N134 C133 1.373 . S
N134 C136 1.340 . S
N135 C132 1.368 . S
N135 C136 1.321 . S
N135 Co138 2.135 . S
C136 N134 1.340 . S
C136 N135 1.321 . S
C136 H160 0.930 . S
H137 C132 0.931 . S
Co138 N135 2.135 . S
Co138 N141 2.121 . S
Co138 O146 2.055 . S
Co138 O149 2.039 . S
Co138 N152 2.140 . S
C139 O140 1.227 . S
C139 O149 1.265 . S
O140 C139 1.227 . S
N141 Co138 2.121 . S
N141 C143 1.375 . S
N141 C144 1.313 1_565 S
C142 C143 1.338 1_545 S
C142 N145 1.377 . S
C142 H162 0.930 . S
C143 N141 1.375 . S
C143 C142 1.338 1_565 S
C143 H147 0.931 . S
C144 N141 1.313 1_545 S
C144 N145 1.344 . S
C144 H148 0.930 . S
N145 C142 1.377 . S
N145 C144 1.344 . S
O146 Co138 2.055 . S
O146 C150 1.253 . S
H147 C143 0.931 . S
H148 C144 0.930 . S
O149 Co138 2.039 . S
O149 C139 1.265 . S
C150 O146 1.253 . S
C150 O151 1.227 . S
O151 C150 1.227 . S
N152 Co138 2.140 . S
N152 C155 1.346 . S
N152 C156 1.345 . S
C153 C154 1.387 . S
C153 C157 1.391 . S
C154 C153 1.387 . S
C154 C155 1.369 . S
C154 H163 0.929 . S
C155 N152 1.346 . S
C155 C154 1.369 . S
C155 H158 0.928 . S
C156 N152 1.345 . S
C156 C157 1.371 . S
C156 H159 0.931 . S
C157 C153 1.391 . S
C157 C156 1.371 . S
C157 H164 0.930 . S
H158 C155 0.928 . S
H159 C156 0.931 . S
H160 C136 0.930 . S
H161 C133 0.930 . S
H162 C142 0.930 . S
H163 C154 0.929 . S
H164 C157 0.930 . S
C165 C166 1.351 . S
C165 N168 1.368 . S
C165 H170 0.931 . S
C166 C165 1.351 . S
C166 N167 1.373 . S
C166 H194 0.930 . S
N167 C166 1.373 . S
N167 C169 1.340 . S
N168 C165 1.368 . S
N168 C169 1.321 . S
N168 Co171 2.135 1_545 S
C169 N167 1.340 . S
C169 N168 1.321 . S
C169 H193 0.930 . S
H170 C165 0.931 . S
Co171 N168 2.135 1_565 S
Co171 N174 2.121 . S
Co171 O179 2.055 . S
Co171 O182 2.039 . S
Co171 N185 2.140 . S
C172 O173 1.227 1_565 S
C172 O182 1.265 . S
O173 C172 1.227 1_545 S
N174 Co171 2.121 . S
N174 C176 1.375 . S
N174 C177 1.313 . S
C175 C176 1.338 . S
C175 N178 1.377 . S
C175 H195 0.930 . S
C176 N174 1.375 . S
C176 C175 1.338 . S
C176 H180 0.931 . S
C177 N174 1.313 . S
C177 N178 1.344 . S
C177 H181 0.930 . S
N178 C175 1.377 . S
N178 C177 1.344 . S
O179 Co171 2.055 . S
O179 C183 1.253 . S
H180 C176 0.931 . S
H181 C177 0.930 . S
O182 Co171 2.039 . S
O182 C172 1.265 . S
C183 O179 1.253 . S
C183 O184 1.227 . S
O184 C183 1.227 . S
N185 Co171 2.140 . S
N185 C188 1.346 . S
N185 C189 1.345 . S
C186 C187 1.387 . S
C186 C190 1.391 . S
C187 C186 1.387 . S
C187 C188 1.369 . S
C187 H196 0.929 1_565 S
C188 N185 1.346 . S
C188 C187 1.369 . S
C188 H191 0.928 1_565 S
C189 N185 1.345 . S
C189 C190 1.371 . S
C189 H192 0.931 . S
C190 C186 1.391 . S
C190 C189 1.371 . S
C190 H197 0.930 . S
H191 C188 0.928 1_545 S
H192 C189 0.931 . S
H193 C169 0.930 . S
H194 C166 0.930 . S
H195 C175 0.930 . S
H196 C187 0.929 1_545 S
H197 C190 0.930 . S
C198 C199 1.351 . S
C198 N201 1.368 . S
C198 H203 0.931 . S
C199 C198 1.351 . S
C199 N200 1.373 . S
C199 H227 0.930 . S
N200 C199 1.373 . S
N200 C202 1.340 . S
N201 C198 1.368 . S
N201 C202 1.321 . S
N201 Co204 2.135 1_545 S
C202 N200 1.340 . S
C202 N201 1.321 . S
C202 H226 0.930 . S
H203 C198 0.931 . S
Co204 N201 2.135 1_565 S
Co204 N207 2.121 . S
Co204 O212 2.055 . S
Co204 O215 2.039 . S
Co204 N218 2.140 . S
C205 O206 1.227 1_565 S
C205 O215 1.265 . S
O206 C205 1.227 1_545 S
N207 Co204 2.121 . S
N207 C209 1.375 . S
N207 C210 1.313 . S
C208 C209 1.338 . S
C208 N211 1.377 . S
C208 H228 0.930 . S
C209 N207 1.375 . S
C209 C208 1.338 . S
C209 H213 0.931 . S
C210 N207 1.313 . S
C210 N211 1.344 . S
C210 H214 0.930 . S
N211 C208 1.377 . S
N211 C210 1.344 . S
O212 Co204 2.055 . S
O212 C216 1.253 . S
H213 C209 0.931 . S
H214 C210 0.930 . S
O215 Co204 2.039 . S
O215 C205 1.265 . S
C216 O212 1.253 . S
C216 O217 1.227 . S
O217 C216 1.227 . S
N218 Co204 2.140 . S
N218 C221 1.346 . S
N218 C222 1.345 . S
C219 C220 1.387 . S
C219 C223 1.391 . S
C220 C219 1.387 . S
C220 C221 1.369 . S
C220 H229 0.929 1_565 S
C221 N218 1.346 . S
C221 C220 1.369 . S
C221 H224 0.928 1_565 S
C222 N218 1.345 . S
C222 C223 1.371 . S
C222 H225 0.931 . S
C223 C219 1.391 . S
C223 C222 1.371 . S
C223 H230 0.930 . S
H224 C221 0.928 1_545 S
H225 C222 0.931 . S
H226 C202 0.930 . S
H227 C199 0.930 . S
H228 C208 0.930 . S
H229 C220 0.929 1_545 S
H230 C223 0.930 . S
C231 C232 1.351 . S
C231 N234 1.368 . S
C231 H236 0.931 . S
C232 C231 1.351 . S
C232 N233 1.373 . S
C232 H260 0.930 . S
N233 C232 1.373 . S
N233 C235 1.340 . S
N234 C231 1.368 . S
N234 C235 1.321 . S
N234 Co237 2.135 . S
C235 N233 1.340 . S
C235 N234 1.321 . S
C235 H259 0.930 . S
H236 C231 0.931 . S
Co237 N234 2.135 . S
Co237 N240 2.121 . S
Co237 O245 2.055 . S
Co237 O248 2.039 . S
Co237 N251 2.140 . S
C238 O239 1.227 . S
C238 O248 1.265 . S
O239 C238 1.227 . S
N240 Co237 2.121 . S
N240 C242 1.375 . S
N240 C243 1.313 1_565 S
C241 C242 1.338 1_545 S
C241 N244 1.377 . S
C241 H261 0.930 . S
C242 N240 1.375 . S
C242 C241 1.338 1_565 S
C242 H246 0.931 . S
C243 N240 1.313 1_545 S
C243 N244 1.344 . S
C243 H247 0.930 . S
N244 C241 1.377 . S
N244 C243 1.344 . S
O245 Co237 2.055 . S
O245 C249 1.253 . S
H246 C242 0.931 . S
H247 C243 0.930 . S
O248 Co237 2.039 . S
O248 C238 1.265 . S
C249 O245 1.253 . S
C249 O250 1.227 . S
O250 C249 1.227 . S
N251 Co237 2.140 . S
N251 C254 1.346 . S
N251 C255 1.345 . S
C252 C253 1.387 . S
C252 C256 1.391 . S
C253 C252 1.387 . S
C253 C254 1.369 . S
C253 H262 0.929 . S
C254 N251 1.346 . S
C254 C253 1.369 . S
C254 H257 0.928 . S
C255 N251 1.345 . S
C255 C256 1.371 . S
C255 H258 0.931 . S
C256 C252 1.391 . S
C256 C255 1.371 . S
C256 H263 0.930 . S
H257 C254 0.928 . S
H258 C255 0.931 . S
H259 C235 0.930 . S
H260 C232 0.930 . S
H261 C241 0.930 . S
H262 C253 0.929 . S
H263 C256 0.930 . S
C264 C265 1.351 . S
C264 N267 1.368 . S
C264 H269 0.931 . S
C265 C264 1.351 . S
C265 N266 1.373 . S
C265 H293 0.930 . S
N266 C265 1.373 . S
N266 C268 1.340 . S
N267 C264 1.368 . S
N267 C268 1.321 . S
N267 Co270 2.135 . S
C268 N266 1.340 . S
C268 N267 1.321 . S
C268 H292 0.930 . S
H269 C264 0.931 . S
Co270 N267 2.135 . S
Co270 N273 2.121 . S
Co270 O278 2.055 . S
Co270 O281 2.039 . S
Co270 N284 2.140 . S
C271 O272 1.227 . S
C271 O281 1.265 . S
O272 C271 1.227 . S
N273 Co270 2.121 . S
N273 C275 1.375 . S
N273 C276 1.313 . S
C274 C275 1.338 . S
C274 N277 1.377 . S
C274 H294 0.930 . S
C275 N273 1.375 . S
C275 C274 1.338 . S
C275 H279 0.931 . S
C276 N273 1.313 . S
C276 N277 1.344 . S
C276 H280 0.930 . S
N277 C274 1.377 . S
N277 C276 1.344 . S
O278 Co270 2.055 . S
O278 C282 1.253 . S
H279 C275 0.931 . S
H280 C276 0.930 . S
O281 Co270 2.039 . S
O281 C271 1.265 . S
C282 O278 1.253 . S
C282 O283 1.227 . S
O283 C282 1.227 . S
N284 Co270 2.140 . S
N284 C287 1.346 . S
N284 C288 1.345 . S
C285 C286 1.387 . S
C285 C289 1.391 . S
C286 C285 1.387 . S
C286 C287 1.369 . S
C286 H295 0.929 . S
C287 N284 1.346 . S
C287 C286 1.369 . S
C287 H290 0.928 . S
C288 N284 1.345 . S
C288 C289 1.371 . S
C288 H291 0.931 . S
C289 C285 1.391 . S
C289 C288 1.371 . S
C289 H296 0.930 . S
H290 C287 0.928 . S
H291 C288 0.931 . S
H292 C268 0.930 . S
H293 C265 0.930 . S
H294 C274 0.930 . S
H295 C286 0.929 . S
H296 C289 0.930 . S
C297 C298 1.351 . S
C297 N300 1.368 . S
C297 H302 0.931 . S
C298 C297 1.351 . S
C298 N299 1.373 . S
C298 H326 0.930 . S
N299 C298 1.373 . S
N299 C301 1.340 . S
N300 C297 1.368 . S
N300 C301 1.321 . S
N300 Co303 2.135 . S
C301 N299 1.340 . S
C301 N300 1.321 . S
C301 H325 0.930 . S
H302 C297 0.931 . S
Co303 N300 2.135 . S
Co303 N306 2.121 . S
Co303 O311 2.055 . S
Co303 O314 2.039 . S
Co303 N317 2.140 . S
C304 O305 1.227 . S
C304 O314 1.265 . S
O305 C304 1.227 . S
N306 Co303 2.121 . S
N306 C308 1.375 . S
N306 C309 1.313 . S
C307 C308 1.338 . S
C307 N310 1.377 . S
C307 H327 0.930 . S
C308 N306 1.375 . S
C308 C307 1.338 . S
C308 H312 0.931 . S
C309 N306 1.313 . S
C309 N310 1.344 . S
C309 H313 0.930 . S
N310 C307 1.377 . S
N310 C309 1.344 . S
O311 Co303 2.055 . S
O311 C315 1.253 . S
H312 C308 0.931 . S
H313 C309 0.930 . S
O314 Co303 2.039 . S
O314 C304 1.265 . S
C315 O311 1.253 . S
C315 O316 1.227 . S
O316 C315 1.227 . S
N317 Co303 2.140 . S
N317 C320 1.346 . S
N317 C321 1.345 . S
C318 C319 1.387 . S
C318 C322 1.391 . S
C319 C318 1.387 . S
C319 C320 1.369 . S
C319 H328 0.929 . S
C320 N317 1.346 . S
C320 C319 1.369 . S
C320 H323 0.928 . S
C321 N317 1.345 . S
C321 C322 1.371 . S
C321 H324 0.931 . S
C322 C318 1.391 . S
C322 C321 1.371 . S
C322 H329 0.930 . S
H323 C320 0.928 . S
H324 C321 0.931 . S
H325 C301 0.930 . S
H326 C298 0.930 . S
H327 C307 0.930 . S
H328 C319 0.929 . S
H329 C322 0.930 . S
C330 C331 1.351 . S
C330 N333 1.368 . S
C330 H335 0.931 . S
C331 C330 1.351 . S
C331 N332 1.373 . S
C331 H359 0.930 . S
N332 C331 1.373 . S
N332 C334 1.340 . S
N333 C330 1.368 . S
N333 C334 1.321 . S
N333 Co336 2.135 . S
C334 N332 1.340 . S
C334 N333 1.321 . S
C334 H358 0.930 . S
H335 C330 0.931 . S
Co336 N333 2.135 . S
Co336 N339 2.121 . S
Co336 O344 2.055 . S
Co336 O347 2.039 . S
Co336 N350 2.140 . S
C337 O338 1.227 . S
C337 O347 1.265 . S
O338 C337 1.227 . S
N339 Co336 2.121 . S
N339 C341 1.375 . S
N339 C342 1.313 . S
C340 C341 1.338 . S
C340 N343 1.377 . S
C340 H360 0.930 . S
C341 N339 1.375 . S
C341 C340 1.338 . S
C341 H345 0.931 . S
C342 N339 1.313 . S
C342 N343 1.344 . S
C342 H346 0.930 . S
N343 C340 1.377 . S
N343 C342 1.344 . S
O344 Co336 2.055 . S
O344 C348 1.253 . S
H345 C341 0.931 . S
H346 C342 0.930 . S
O347 Co336 2.039 . S
O347 C337 1.265 . S
C348 O344 1.253 . S
C348 O349 1.227 . S
O349 C348 1.227 . S
N350 Co336 2.140 . S
N350 C353 1.346 . S
N350 C354 1.345 . S
C351 C352 1.387 . S
C351 C355 1.391 . S
C352 C351 1.387 . S
C352 C353 1.369 . S
C352 H361 0.929 . S
C353 N350 1.346 . S
C353 C352 1.369 . S
C353 H356 0.928 . S
C354 N350 1.345 . S
C354 C355 1.371 . S
C354 H357 0.931 . S
C355 C351 1.391 . S
C355 C354 1.371 . S
C355 H362 0.930 . S
H356 C353 0.928 . S
H357 C354 0.931 . S
H358 C334 0.930 . S
H359 C331 0.930 . S
H360 C340 0.930 . S
H361 C352 0.929 . S
H362 C355 0.930 . S
C363 C364 1.351 . S
C363 N366 1.368 . S
C363 H368 0.931 . S
C364 C363 1.351 . S
C364 N365 1.373 . S
C364 H392 0.930 . S
N365 C364 1.373 . S
N365 C367 1.340 . S
N366 C363 1.368 . S
N366 C367 1.321 . S
N366 Co369 2.135 . S
C367 N365 1.340 . S
C367 N366 1.321 . S
C367 H391 0.930 . S
H368 C363 0.931 . S
Co369 N366 2.135 . S
Co369 N372 2.121 . S
Co369 O377 2.055 . S
Co369 O380 2.039 . S
Co369 N383 2.140 . S
C370 O371 1.227 . S
C370 O380 1.265 . S
O371 C370 1.227 . S
N372 Co369 2.121 . S
N372 C374 1.375 . S
N372 C375 1.313 . S
C373 C374 1.338 . S
C373 N376 1.377 . S
C373 H393 0.930 . S
C374 N372 1.375 . S
C374 C373 1.338 . S
C374 H378 0.931 . S
C375 N372 1.313 . S
C375 N376 1.344 . S
C375 H379 0.930 . S
N376 C373 1.377 . S
N376 C375 1.344 . S
O377 Co369 2.055 . S
O377 C381 1.253 . S
H378 C374 0.931 . S
H379 C375 0.930 . S
O380 Co369 2.039 . S
O380 C370 1.265 . S
C381 O377 1.253 . S
C381 O382 1.227 . S
O382 C381 1.227 . S
N383 Co369 2.140 . S
N383 C386 1.346 . S
N383 C387 1.345 . S
C384 C385 1.387 . S
C384 C388 1.391 . S
C385 C384 1.387 . S
C385 C386 1.369 . S
C385 H394 0.929 . S
C386 N383 1.346 . S
C386 C385 1.369 . S
C386 H389 0.928 . S
C387 N383 1.345 . S
C387 C388 1.371 . S
C387 H390 0.931 . S
C388 C384 1.391 . S
C388 C387 1.371 . S
C388 H395 0.930 . S
H389 C386 0.928 . S
H390 C387 0.931 . S
H391 C367 0.930 . S
H392 C364 0.930 . S
H393 C373 0.930 . S
H394 C385 0.929 . S
H395 C388 0.930 . S
C396 C397 1.351 . S
C396 N399 1.368 . S
C396 H401 0.931 . S
C397 C396 1.351 . S
C397 N398 1.373 . S
C397 H425 0.930 . S
N398 C397 1.373 . S
N398 C400 1.340 . S
N399 C396 1.368 . S
N399 C400 1.321 . S
N399 Co402 2.135 . S
C400 N398 1.340 . S
C400 N399 1.321 . S
C400 H424 0.930 . S
H401 C396 0.931 . S
Co402 N399 2.135 . S
Co402 N405 2.121 . S
Co402 O410 2.055 . S
Co402 O413 2.039 . S
Co402 N416 2.140 . S
C403 O404 1.227 . S
C403 O413 1.265 . S
O404 C403 1.227 . S
N405 Co402 2.121 . S
N405 C407 1.375 . S
N405 C408 1.313 . S
C406 C407 1.338 . S
C406 N409 1.377 . S
C406 H426 0.930 . S
C407 N405 1.375 . S
C407 C406 1.338 . S
C407 H411 0.931 . S
C408 N405 1.313 . S
C408 N409 1.344 . S
C408 H412 0.930 . S
N409 C406 1.377 . S
N409 C408 1.344 . S
O410 Co402 2.055 . S
O410 C414 1.253 . S
H411 C407 0.931 . S
H412 C408 0.930 . S
O413 Co402 2.039 . S
O413 C403 1.265 . S
C414 O410 1.253 . S
C414 O415 1.227 . S
O415 C414 1.227 . S
N416 Co402 2.140 . S
N416 C419 1.346 . S
N416 C420 1.345 . S
C417 C418 1.387 . S
C417 C421 1.391 . S
C418 C417 1.387 . S
C418 C419 1.369 . S
C418 H427 0.929 . S
C419 N416 1.346 . S
C419 C418 1.369 . S
C419 H422 0.928 . S
C420 N416 1.345 . S
C420 C421 1.371 . S
C420 H423 0.931 . S
C421 C417 1.391 . S
C421 C420 1.371 . S
C421 H428 0.930 . S
H422 C419 0.928 . S
H423 C420 0.931 . S
H424 C400 0.930 . S
H425 C397 0.930 . S
H426 C406 0.930 . S
H427 C418 0.929 . S
H428 C421 0.930 . S
C429 C430 1.351 . S
C429 N432 1.368 . S
C429 H434 0.931 . S
C430 C429 1.351 . S
C430 N431 1.373 . S
C430 H458 0.930 . S
N431 C430 1.373 . S
N431 C433 1.340 . S
N432 C429 1.368 . S
N432 C433 1.321 . S
N432 Co435 2.135 . S
C433 N431 1.340 . S
C433 N432 1.321 . S
C433 H457 0.930 . S
H434 C429 0.931 . S
Co435 N432 2.135 . S
Co435 N438 2.121 . S
Co435 O443 2.055 . S
Co435 O446 2.039 . S
Co435 N449 2.140 . S
C436 O437 1.227 . S
C436 O446 1.265 . S
O437 C436 1.227 . S
N438 Co435 2.121 . S
N438 C440 1.375 . S
N438 C441 1.313 . S
C439 C440 1.338 . S
C439 N442 1.377 . S
C439 H459 0.930 . S
C440 N438 1.375 . S
C440 C439 1.338 . S
C440 H444 0.931 . S
C441 N438 1.313 . S
C441 N442 1.344 . S
C441 H445 0.930 . S
N442 C439 1.377 . S
N442 C441 1.344 . S
O443 Co435 2.055 . S
O443 C447 1.253 . S
H444 C440 0.931 . S
H445 C441 0.930 . S
O446 Co435 2.039 . S
O446 C436 1.265 . S
C447 O443 1.253 . S
C447 O448 1.227 . S
O448 C447 1.227 . S
N449 Co435 2.140 . S
N449 C452 1.346 . S
N449 C453 1.345 . S
C450 C451 1.387 . S
C450 C454 1.391 . S
C451 C450 1.387 . S
C451 C452 1.369 . S
C451 H460 0.929 . S
C452 N449 1.346 . S
C452 C451 1.369 . S
C452 H455 0.928 . S
C453 N449 1.345 . S
C453 C454 1.371 . S
C453 H456 0.931 . S
C454 C450 1.391 . S
C454 C453 1.371 . S
C454 H461 0.930 . S
H455 C452 0.928 . S
H456 C453 0.931 . S
H457 C433 0.930 . S
H458 C430 0.930 . S
H459 C439 0.930 . S
H460 C451 0.929 . S
H461 C454 0.930 . S
C462 C463 1.351 . S
C462 N465 1.368 . S
C462 H467 0.931 . S
C463 C462 1.351 . S
C463 N464 1.373 . S
C463 H491 0.930 . S
N464 C463 1.373 . S
N464 C466 1.340 . S
N465 C462 1.368 . S
N465 C466 1.321 . S
N465 Co468 2.135 . S
C466 N464 1.340 . S
C466 N465 1.321 . S
C466 H490 0.930 . S
H467 C462 0.931 . S
Co468 N465 2.135 . S
Co468 N471 2.121 . S
Co468 O476 2.055 . S
Co468 O479 2.039 . S
Co468 N482 2.140 . S
C469 O470 1.227 . S
C469 O479 1.265 . S
O470 C469 1.227 . S
N471 Co468 2.121 . S
N471 C473 1.375 . S
N471 C474 1.313 . S
C472 C473 1.338 . S
C472 N475 1.377 . S
C472 H492 0.930 . S
C473 N471 1.375 . S
C473 C472 1.338 . S
C473 H477 0.931 . S
C474 N471 1.313 . S
C474 N475 1.344 . S
C474 H478 0.930 . S
N475 C472 1.377 . S
N475 C474 1.344 . S
O476 Co468 2.055 . S
O476 C480 1.253 . S
H477 C473 0.931 . S
H478 C474 0.930 . S
O479 Co468 2.039 . S
O479 C469 1.265 . S
C480 O476 1.253 . S
C480 O481 1.227 . S
O481 C480 1.227 . S
N482 Co468 2.140 . S
N482 C485 1.346 . S
N482 C486 1.345 . S
C483 C484 1.387 . S
C483 C487 1.391 . S
C484 C483 1.387 . S
C484 C485 1.369 . S
C484 H493 0.929 . S
C485 N482 1.346 . S
C485 C484 1.369 . S
C485 H488 0.928 . S
C486 N482 1.345 . S
C486 C487 1.371 . S
C486 H489 0.931 . S
C487 C483 1.391 . S
C487 C486 1.371 . S
C487 H494 0.930 . S
H488 C485 0.928 . S
H489 C486 0.931 . S
H490 C466 0.930 . S
H491 C463 0.930 . S
H492 C472 0.930 . S
H493 C484 0.929 . S
H494 C487 0.930 . S
C495 C496 1.351 . S
C495 N498 1.368 . S
C495 H500 0.931 . S
C496 C495 1.351 . S
C496 N497 1.373 . S
C496 H524 0.930 . S
N497 C496 1.373 . S
N497 C499 1.340 . S
N498 C495 1.368 . S
N498 C499 1.321 . S
N498 Co501 2.135 . S
C499 N497 1.340 . S
C499 N498 1.321 . S
C499 H523 0.930 . S
H500 C495 0.931 . S
Co501 N498 2.135 . S
Co501 N504 2.121 . S
Co501 O509 2.055 . S
Co501 O512 2.039 . S
Co501 N515 2.140 . S
C502 O503 1.227 . S
C502 O512 1.265 . S
O503 C502 1.227 . S
N504 Co501 2.121 . S
N504 C506 1.375 . S
N504 C507 1.313 . S
C505 C506 1.338 . S
C505 N508 1.377 . S
C505 H525 0.930 . S
C506 N504 1.375 . S
C506 C505 1.338 . S
C506 H510 0.931 . S
C507 N504 1.313 . S
C507 N508 1.344 . S
C507 H511 0.930 . S
N508 C505 1.377 . S
N508 C507 1.344 . S
O509 Co501 2.055 . S
O509 C513 1.253 . S
H510 C506 0.931 . S
H511 C507 0.930 . S
O512 Co501 2.039 . S
O512 C502 1.265 . S
C513 O509 1.253 . S
C513 O514 1.227 . S
O514 C513 1.227 . S
N515 Co501 2.140 . S
N515 C518 1.346 . S
N515 C519 1.345 . S
C516 C517 1.387 . S
C516 C520 1.391 . S
C517 C516 1.387 . S
C517 C518 1.369 . S
C517 H526 0.929 . S
C518 N515 1.346 . S
C518 C517 1.369 . S
C518 H521 0.928 . S
C519 N515 1.345 . S
C519 C520 1.371 . S
C519 H522 0.931 . S
C520 C516 1.391 . S
C520 C519 1.371 . S
C520 H527 0.930 . S
H521 C518 0.928 . S
H522 C519 0.931 . S
H523 C499 0.930 . S
H524 C496 0.930 . S
H525 C505 0.930 . S
H526 C517 0.929 . S
H527 C520 0.930 . S
C528 C529 1.351 . S
C528 N531 1.368 . S
C528 H533 0.931 . S
C529 C528 1.351 . S
C529 N530 1.373 . S
C529 H557 0.930 . S
N530 C529 1.373 . S
N530 C532 1.340 . S
N531 C528 1.368 . S
N531 C532 1.321 . S
N531 Co534 2.135 . S
C532 N530 1.340 . S
C532 N531 1.321 . S
C532 H556 0.930 . S
H533 C528 0.931 . S
Co534 N531 2.135 . S
Co534 N537 2.121 . S
Co534 O542 2.055 . S
Co534 O545 2.039 . S
Co534 N548 2.140 . S
C535 O536 1.227 . S
C535 O545 1.265 . S
O536 C535 1.227 . S
N537 Co534 2.121 . S
N537 C539 1.375 . S
N537 C540 1.313 1_545 S
C538 C539 1.338 1_565 S
C538 N541 1.377 . S
C538 H558 0.930 . S
C539 N537 1.375 . S
C539 C538 1.338 1_545 S
C539 H543 0.931 . S
C540 N537 1.313 1_565 S
C540 N541 1.344 . S
C540 H544 0.930 . S
N541 C538 1.377 . S
N541 C540 1.344 . S
O542 Co534 2.055 . S
O542 C546 1.253 . S
H543 C539 0.931 . S
H544 C540 0.930 . S
O545 Co534 2.039 . S
O545 C535 1.265 . S
C546 O542 1.253 . S
C546 O547 1.227 . S
O547 C546 1.227 . S
N548 Co534 2.140 . S
N548 C551 1.346 . S
N548 C552 1.345 . S
C549 C550 1.387 . S
C549 C553 1.391 . S
C550 C549 1.387 . S
C550 C551 1.369 . S
C550 H559 0.929 . S
C551 N548 1.346 . S
C551 C550 1.369 . S
C551 H554 0.928 . S
C552 N548 1.345 . S
C552 C553 1.371 . S
C552 H555 0.931 . S
C553 C549 1.391 . S
C553 C552 1.371 . S
C553 H560 0.930 . S
H554 C551 0.928 . S
H555 C552 0.931 . S
H556 C532 0.930 . S
H557 C529 0.930 . S
H558 C538 0.930 . S
H559 C550 0.929 . S
H560 C553 0.930 . S
C561 C562 1.351 . S
C561 N564 1.368 . S
C561 H566 0.931 . S
C562 C561 1.351 . S
C562 N563 1.373 . S
C562 H590 0.930 . S
N563 C562 1.373 . S
N563 C565 1.340 . S
N564 C561 1.368 . S
N564 C565 1.321 . S
N564 Co567 2.135 1_565 S
C565 N563 1.340 . S
C565 N564 1.321 . S
C565 H589 0.930 . S
H566 C561 0.931 . S
Co567 N564 2.135 1_545 S
Co567 N570 2.121 . S
Co567 O575 2.055 . S
Co567 O578 2.039 . S
Co567 N581 2.140 . S
C568 O569 1.227 1_545 S
C568 O578 1.265 . S
O569 C568 1.227 1_565 S
N570 Co567 2.121 . S
N570 C572 1.375 . S
N570 C573 1.313 . S
C571 C572 1.338 . S
C571 N574 1.377 . S
C571 H591 0.930 . S
C572 N570 1.375 . S
C572 C571 1.338 . S
C572 H576 0.931 . S
C573 N570 1.313 . S
C573 N574 1.344 . S
C573 H577 0.930 . S
N574 C571 1.377 . S
N574 C573 1.344 . S
O575 Co567 2.055 . S
O575 C579 1.253 . S
H576 C572 0.931 . S
H577 C573 0.930 . S
O578 Co567 2.039 . S
O578 C568 1.265 . S
C579 O575 1.253 . S
C579 O580 1.227 . S
O580 C579 1.227 . S
N581 Co567 2.140 . S
N581 C584 1.346 . S
N581 C585 1.345 . S
C582 C583 1.387 . S
C582 C586 1.391 . S
C583 C582 1.387 . S
C583 C584 1.369 . S
C583 H592 0.929 1_545 S
C584 N581 1.346 . S
C584 C583 1.369 . S
C584 H587 0.928 1_545 S
C585 N581 1.345 . S
C585 C586 1.371 . S
C585 H588 0.931 . S
C586 C582 1.391 . S
C586 C585 1.371 . S
C586 H593 0.930 . S
H587 C584 0.928 1_565 S
H588 C585 0.931 . S
H589 C565 0.930 . S
H590 C562 0.930 . S
H591 C571 0.930 . S
H592 C583 0.929 1_565 S
H593 C586 0.930 . S
C594 C595 1.351 . S
C594 N597 1.368 . S
C594 H599 0.931 . S
C595 C594 1.351 . S
C595 N596 1.373 . S
C595 H623 0.930 . S
N596 C595 1.373 . S
N596 C598 1.340 . S
N597 C594 1.368 . S
N597 C598 1.321 . S
N597 Co600 2.135 1_565 S
C598 N596 1.340 . S
C598 N597 1.321 . S
C598 H622 0.930 . S
H599 C594 0.931 . S
Co600 N597 2.135 1_545 S
Co600 N603 2.121 . S
Co600 O608 2.055 . S
Co600 O611 2.039 . S
Co600 N614 2.140 . S
C601 O602 1.227 1_545 S
C601 O611 1.265 . S
O602 C601 1.227 1_565 S
N603 Co600 2.121 . S
N603 C605 1.375 . S
N603 C606 1.313 . S
C604 C605 1.338 . S
C604 N607 1.377 . S
C604 H624 0.930 . S
C605 N603 1.375 . S
C605 C604 1.338 . S
C605 H609 0.931 . S
C606 N603 1.313 . S
C606 N607 1.344 . S
C606 H610 0.930 . S
N607 C604 1.377 . S
N607 C606 1.344 . S
O608 Co600 2.055 . S
O608 C612 1.253 . S
H609 C605 0.931 . S
H610 C606 0.930 . S
O611 Co600 2.039 . S
O611 C601 1.265 . S
C612 O608 1.253 . S
C612 O613 1.227 . S
O613 C612 1.227 . S
N614 Co600 2.140 . S
N614 C617 1.346 . S
N614 C618 1.345 . S
C615 C616 1.387 . S
C615 C619 1.391 . S
C616 C615 1.387 . S
C616 C617 1.369 . S
C616 H625 0.929 1_545 S
C617 N614 1.346 . S
C617 C616 1.369 . S
C617 H620 0.928 1_545 S
C618 N614 1.345 . S
C618 C619 1.371 . S
C618 H621 0.931 . S
C619 C615 1.391 . S
C619 C618 1.371 . S
C619 H626 0.930 . S
H620 C617 0.928 1_565 S
H621 C618 0.931 . S
H622 C598 0.930 . S
H623 C595 0.930 . S
H624 C604 0.930 . S
H625 C616 0.929 1_565 S
H626 C619 0.930 . S
C627 C628 1.351 . S
C627 N630 1.368 . S
C627 H632 0.931 . S
C628 C627 1.351 . S
C628 N629 1.373 . S
C628 H656 0.930 . S
N629 C628 1.373 . S
N629 C631 1.340 . S
N630 C627 1.368 . S
N630 C631 1.321 . S
N630 Co633 2.135 . S
C631 N629 1.340 . S
C631 N630 1.321 . S
C631 H655 0.930 . S
H632 C627 0.931 . S
Co633 N630 2.135 . S
Co633 N636 2.121 . S
Co633 O641 2.055 . S
Co633 O644 2.039 . S
Co633 N647 2.140 . S
C634 O635 1.227 . S
C634 O644 1.265 . S
O635 C634 1.227 . S
N636 Co633 2.121 . S
N636 C638 1.375 . S
N636 C639 1.313 1_545 S
C637 C638 1.338 1_565 S
C637 N640 1.377 . S
C637 H657 0.930 . S
C638 N636 1.375 . S
C638 C637 1.338 1_545 S
C638 H642 0.931 . S
C639 N636 1.313 1_565 S
C639 N640 1.344 . S
C639 H643 0.930 . S
N640 C637 1.377 . S
N640 C639 1.344 . S
O641 Co633 2.055 . S
O641 C645 1.253 . S
H642 C638 0.931 . S
H643 C639 0.930 . S
O644 Co633 2.039 . S
O644 C634 1.265 . S
C645 O641 1.253 . S
C645 O646 1.227 . S
O646 C645 1.227 . S
N647 Co633 2.140 . S
N647 C650 1.346 . S
N647 C651 1.345 . S
C648 C649 1.387 . S
C648 C652 1.391 . S
C649 C648 1.387 . S
C649 C650 1.369 . S
C649 H658 0.929 . S
C650 N647 1.346 . S
C650 C649 1.369 . S
C650 H653 0.928 . S
C651 N647 1.345 . S
C651 C652 1.371 . S
C651 H654 0.931 . S
C652 C648 1.391 . S
C652 C651 1.371 . S
C652 H659 0.930 . S
H653 C650 0.928 . S
H654 C651 0.931 . S
H655 C631 0.930 . S
H656 C628 0.930 . S
H657 C637 0.930 . S
H658 C649 0.929 . S
H659 C652 0.930 . S
C660 C661 1.351 . S
C660 N663 1.368 . S
C660 H665 0.931 . S
C661 C660 1.351 . S
C661 N662 1.373 . S
C661 H689 0.930 . S
N662 C661 1.373 . S
N662 C664 1.340 . S
N663 C660 1.368 . S
N663 C664 1.321 . S
N663 Co666 2.135 . S
C664 N662 1.340 . S
C664 N663 1.321 . S
C664 H688 0.930 . S
H665 C660 0.931 . S
Co666 N663 2.135 . S
Co666 N669 2.121 . S
Co666 O674 2.055 . S
Co666 O677 2.039 . S
Co666 N680 2.140 . S
C667 O668 1.227 . S
C667 O677 1.265 . S
O668 C667 1.227 . S
N669 Co666 2.121 . S
N669 C671 1.375 . S
N669 C672 1.313 1_565 S
C670 C671 1.338 1_545 S
C670 N673 1.377 . S
C670 H690 0.930 . S
C671 N669 1.375 . S
C671 C670 1.338 1_565 S
C671 H675 0.931 . S
C672 N669 1.313 1_545 S
C672 N673 1.344 . S
C672 H676 0.930 . S
N673 C670 1.377 . S
N673 C672 1.344 . S
O674 Co666 2.055 . S
O674 C678 1.253 . S
H675 C671 0.931 . S
H676 C672 0.930 . S
O677 Co666 2.039 . S
O677 C667 1.265 . S
C678 O674 1.253 . S
C678 O679 1.227 . S
O679 C678 1.227 . S
N680 Co666 2.140 . S
N680 C683 1.346 . S
N680 C684 1.345 . S
C681 C682 1.387 . S
C681 C685 1.391 . S
C682 C681 1.387 . S
C682 C683 1.369 . S
C682 H691 0.929 . S
C683 N680 1.346 . S
C683 C682 1.369 . S
C683 H686 0.928 . S
C684 N680 1.345 . S
C684 C685 1.371 . S
C684 H687 0.931 . S
C685 C681 1.391 . S
C685 C684 1.371 . S
C685 H692 0.930 . S
H686 C683 0.928 . S
H687 C684 0.931 . S
H688 C664 0.930 . S
H689 C661 0.930 . S
H690 C670 0.930 . S
H691 C682 0.929 . S
H692 C685 0.930 . S
C693 C694 1.351 . S
C693 N696 1.368 . S
C693 H698 0.931 . S
C694 C693 1.351 . S
C694 N695 1.373 . S
C694 H722 0.930 . S
N695 C694 1.373 . S
N695 C697 1.340 . S
N696 C693 1.368 . S
N696 C697 1.321 . S
N696 Co699 2.135 1_545 S
C697 N695 1.340 . S
C697 N696 1.321 . S
C697 H721 0.930 . S
H698 C693 0.931 . S
Co699 N696 2.135 1_565 S
Co699 N702 2.121 . S
Co699 O707 2.055 . S
Co699 O710 2.039 . S
Co699 N713 2.140 . S
C700 O701 1.227 1_565 S
C700 O710 1.265 . S
O701 C700 1.227 1_545 S
N702 Co699 2.121 . S
N702 C704 1.375 . S
N702 C705 1.313 . S
C703 C704 1.338 . S
C703 N706 1.377 . S
C703 H723 0.930 . S
C704 N702 1.375 . S
C704 C703 1.338 . S
C704 H708 0.931 . S
C705 N702 1.313 . S
C705 N706 1.344 . S
C705 H709 0.930 . S
N706 C703 1.377 . S
N706 C705 1.344 . S
O707 Co699 2.055 . S
O707 C711 1.253 . S
H708 C704 0.931 . S
H709 C705 0.930 . S
O710 Co699 2.039 . S
O710 C700 1.265 . S
C711 O707 1.253 . S
C711 O712 1.227 . S
O712 C711 1.227 . S
N713 Co699 2.140 . S
N713 C716 1.346 . S
N713 C717 1.345 . S
C714 C715 1.387 . S
C714 C718 1.391 . S
C715 C714 1.387 . S
C715 C716 1.369 . S
C715 H724 0.929 1_565 S
C716 N713 1.346 . S
C716 C715 1.369 . S
C716 H719 0.928 1_565 S
C717 N713 1.345 . S
C717 C718 1.371 . S
C717 H720 0.931 . S
C718 C714 1.391 . S
C718 C717 1.371 . S
C718 H725 0.930 . S
H719 C716 0.928 1_545 S
H720 C717 0.931 . S
H721 C697 0.930 . S
H722 C694 0.930 . S
H723 C703 0.930 . S
H724 C715 0.929 1_545 S
H725 C718 0.930 . S
C726 C727 1.351 . S
C726 N729 1.368 . S
C726 H731 0.931 . S
C727 C726 1.351 . S
C727 N728 1.373 . S
C727 H755 0.930 . S
N728 C727 1.373 . S
N728 C730 1.340 . S
N729 C726 1.368 . S
N729 C730 1.321 . S
N729 Co732 2.135 1_545 S
C730 N728 1.340 . S
C730 N729 1.321 . S
C730 H754 0.930 . S
H731 C726 0.931 . S
Co732 N729 2.135 1_565 S
Co732 N735 2.121 . S
Co732 O740 2.055 . S
Co732 O743 2.039 . S
Co732 N746 2.140 . S
C733 O734 1.227 1_565 S
C733 O743 1.265 . S
O734 C733 1.227 1_545 S
N735 Co732 2.121 . S
N735 C737 1.375 . S
N735 C738 1.313 . S
C736 C737 1.338 . S
C736 N739 1.377 . S
C736 H756 0.930 . S
C737 N735 1.375 . S
C737 C736 1.338 . S
C737 H741 0.931 . S
C738 N735 1.313 . S
C738 N739 1.344 . S
C738 H742 0.930 . S
N739 C736 1.377 . S
N739 C738 1.344 . S
O740 Co732 2.055 . S
O740 C744 1.253 . S
H741 C737 0.931 . S
H742 C738 0.930 . S
O743 Co732 2.039 . S
O743 C733 1.265 . S
C744 O740 1.253 . S
C744 O745 1.227 . S
O745 C744 1.227 . S
N746 Co732 2.140 . S
N746 C749 1.346 . S
N746 C750 1.345 . S
C747 C748 1.387 . S
C747 C751 1.391 . S
C748 C747 1.387 . S
C748 C749 1.369 . S
C748 H757 0.929 1_565 S
C749 N746 1.346 . S
C749 C748 1.369 . S
C749 H752 0.928 1_565 S
C750 N746 1.345 . S
C750 C751 1.371 . S
C750 H753 0.931 . S
C751 C747 1.391 . S
C751 C750 1.371 . S
C751 H758 0.930 . S
H752 C749 0.928 1_545 S
H753 C750 0.931 . S
H754 C730 0.930 . S
H755 C727 0.930 . S
H756 C736 0.930 . S
H757 C748 0.929 1_545 S
H758 C751 0.930 . S
C759 C760 1.351 . S
C759 N762 1.368 . S
C759 H764 0.931 . S
C760 C759 1.351 . S
C760 N761 1.373 . S
C760 H788 0.930 . S
N761 C760 1.373 . S
N761 C763 1.340 . S
N762 C759 1.368 . S
N762 C763 1.321 . S
N762 Co765 2.135 . S
C763 N761 1.340 . S
C763 N762 1.321 . S
C763 H787 0.930 . S
H764 C759 0.931 . S
Co765 N762 2.135 . S
Co765 N768 2.121 . S
Co765 O773 2.055 . S
Co765 O776 2.039 . S
Co765 N779 2.140 . S
C766 O767 1.227 . S
C766 O776 1.265 . S
O767 C766 1.227 . S
N768 Co765 2.121 . S
N768 C770 1.375 . S
N768 C771 1.313 1_565 S
C769 C770 1.338 1_545 S
C769 N772 1.377 . S
C769 H789 0.930 . S
C770 N768 1.375 . S
C770 C769 1.338 1_565 S
C770 H774 0.931 . S
C771 N768 1.313 1_545 S
C771 N772 1.344 . S
C771 H775 0.930 . S
N772 C769 1.377 . S
N772 C771 1.344 . S
O773 Co765 2.055 . S
O773 C777 1.253 . S
H774 C770 0.931 . S
H775 C771 0.930 . S
O776 Co765 2.039 . S
O776 C766 1.265 . S
C777 O773 1.253 . S
C777 O778 1.227 . S
O778 C777 1.227 . S
N779 Co765 2.140 . S
N779 C782 1.346 . S
N779 C783 1.345 . S
C780 C781 1.387 . S
C780 C784 1.391 . S
C781 C780 1.387 . S
C781 C782 1.369 . S
C781 H790 0.929 . S
C782 N779 1.346 . S
C782 C781 1.369 . S
C782 H785 0.928 . S
C783 N779 1.345 . S
C783 C784 1.371 . S
C783 H786 0.931 . S
C784 C780 1.391 . S
C784 C783 1.371 . S
C784 H791 0.930 . S
H785 C782 0.928 . S
H786 C783 0.931 . S
H787 C763 0.930 . S
H788 C760 0.930 . S
H789 C769 0.930 . S
H790 C781 0.929 . S
H791 C784 0.930 . S
C792 C793 1.351 . S
C792 N795 1.368 . S
C792 H797 0.931 . S
C793 C792 1.351 . S
C793 N794 1.373 . S
C793 H821 0.930 . S
N794 C793 1.373 . S
N794 C796 1.340 . S
N795 C792 1.368 . S
N795 C796 1.321 . S
N795 Co798 2.135 . S
C796 N794 1.340 . S
C796 N795 1.321 . S
C796 H820 0.930 . S
H797 C792 0.931 . S
Co798 N795 2.135 . S
Co798 N801 2.121 . S
Co798 O806 2.055 . S
Co798 O809 2.039 . S
Co798 N812 2.140 . S
C799 O800 1.227 . S
C799 O809 1.265 . S
O800 C799 1.227 . S
N801 Co798 2.121 . S
N801 C803 1.375 . S
N801 C804 1.313 . S
C802 C803 1.338 . S
C802 N805 1.377 . S
C802 H822 0.930 . S
C803 N801 1.375 . S
C803 C802 1.338 . S
C803 H807 0.931 . S
C804 N801 1.313 . S
C804 N805 1.344 . S
C804 H808 0.930 . S
N805 C802 1.377 . S
N805 C804 1.344 . S
O806 Co798 2.055 . S
O806 C810 1.253 . S
H807 C803 0.931 . S
H808 C804 0.930 . S
O809 Co798 2.039 . S
O809 C799 1.265 . S
C810 O806 1.253 . S
C810 O811 1.227 . S
O811 C810 1.227 . S
N812 Co798 2.140 . S
N812 C815 1.346 . S
N812 C816 1.345 . S
C813 C814 1.387 . S
C813 C817 1.391 . S
C814 C813 1.387 . S
C814 C815 1.369 . S
C814 H823 0.929 . S
C815 N812 1.346 . S
C815 C814 1.369 . S
C815 H818 0.928 . S
C816 N812 1.345 . S
C816 C817 1.371 . S
C816 H819 0.931 . S
C817 C813 1.391 . S
C817 C816 1.371 . S
C817 H824 0.930 . S
H818 C815 0.928 . S
H819 C816 0.931 . S
H820 C796 0.930 . S
H821 C793 0.930 . S
H822 C802 0.930 . S
H823 C814 0.929 . S
H824 C817 0.930 . S
C825 C826 1.351 . S
C825 N828 1.368 . S
C825 H830 0.931 . S
C826 C825 1.351 . S
C826 N827 1.373 . S
C826 H854 0.930 . S
N827 C826 1.373 . S
N827 C829 1.340 . S
N828 C825 1.368 . S
N828 C829 1.321 . S
N828 Co831 2.135 . S
C829 N827 1.340 . S
C829 N828 1.321 . S
C829 H853 0.930 . S
H830 C825 0.931 . S
Co831 N828 2.135 . S
Co831 N834 2.121 . S
Co831 O839 2.055 . S
Co831 O842 2.039 . S
Co831 N845 2.140 . S
C832 O833 1.227 . S
C832 O842 1.265 . S
O833 C832 1.227 . S
N834 Co831 2.121 . S
N834 C836 1.375 . S
N834 C837 1.313 . S
C835 C836 1.338 . S
C835 N838 1.377 . S
C835 H855 0.930 . S
C836 N834 1.375 . S
C836 C835 1.338 . S
C836 H840 0.931 . S
C837 N834 1.313 . S
C837 N838 1.344 . S
C837 H841 0.930 . S
N838 C835 1.377 . S
N838 C837 1.344 . S
O839 Co831 2.055 . S
O839 C843 1.253 . S
H840 C836 0.931 . S
H841 C837 0.930 . S
O842 Co831 2.039 . S
O842 C832 1.265 . S
C843 O839 1.253 . S
C843 O844 1.227 . S
O844 C843 1.227 . S
N845 Co831 2.140 . S
N845 C848 1.346 . S
N845 C849 1.345 . S
C846 C847 1.387 . S
C846 C850 1.391 . S
C847 C846 1.387 . S
C847 C848 1.369 . S
C847 H856 0.929 . S
C848 N845 1.346 . S
C848 C847 1.369 . S
C848 H851 0.928 . S
C849 N845 1.345 . S
C849 C850 1.371 . S
C849 H852 0.931 . S
C850 C846 1.391 . S
C850 C849 1.371 . S
C850 H857 0.930 . S
H851 C848 0.928 . S
H852 C849 0.931 . S
H853 C829 0.930 . S
H854 C826 0.930 . S
H855 C835 0.930 . S
H856 C847 0.929 . S
H857 C850 0.930 . S
C858 C859 1.351 . S
C858 N861 1.368 . S
C858 H863 0.931 . S
C859 C858 1.351 . S
C859 N860 1.373 . S
C859 H887 0.930 . S
N860 C859 1.373 . S
N860 C862 1.340 . S
N861 C858 1.368 . S
N861 C862 1.321 . S
N861 Co864 2.135 . S
C862 N860 1.340 . S
C862 N861 1.321 . S
C862 H886 0.930 . S
H863 C858 0.931 . S
Co864 N861 2.135 . S
Co864 N867 2.121 . S
Co864 O872 2.055 . S
Co864 O875 2.039 . S
Co864 N878 2.140 . S
C865 O866 1.227 . S
C865 O875 1.265 . S
O866 C865 1.227 . S
N867 Co864 2.121 . S
N867 C869 1.375 . S
N867 C870 1.313 . S
C868 C869 1.338 . S
C868 N871 1.377 . S
C868 H888 0.930 . S
C869 N867 1.375 . S
C869 C868 1.338 . S
C869 H873 0.931 . S
C870 N867 1.313 . S
C870 N871 1.344 . S
C870 H874 0.930 . S
N871 C868 1.377 . S
N871 C870 1.344 . S
O872 Co864 2.055 . S
O872 C876 1.253 . S
H873 C869 0.931 . S
H874 C870 0.930 . S
O875 Co864 2.039 . S
O875 C865 1.265 . S
C876 O872 1.253 . S
C876 O877 1.227 . S
O877 C876 1.227 . S
N878 Co864 2.140 . S
N878 C881 1.346 . S
N878 C882 1.345 . S
C879 C880 1.387 . S
C879 C883 1.391 . S
C880 C879 1.387 . S
C880 C881 1.369 . S
C880 H889 0.929 . S
C881 N878 1.346 . S
C881 C880 1.369 . S
C881 H884 0.928 . S
C882 N878 1.345 . S
C882 C883 1.371 . S
C882 H885 0.931 . S
C883 C879 1.391 . S
C883 C882 1.371 . S
C883 H890 0.930 . S
H884 C881 0.928 . S
H885 C882 0.931 . S
H886 C862 0.930 . S
H887 C859 0.930 . S
H888 C868 0.930 . S
H889 C880 0.929 . S
H890 C883 0.930 . S
C891 C892 1.351 . S
C891 N894 1.368 . S
C891 H896 0.931 . S
C892 C891 1.351 . S
C892 N893 1.373 . S
C892 H920 0.930 . S
N893 C892 1.373 . S
N893 C895 1.340 . S
N894 C891 1.368 . S
N894 C895 1.321 . S
N894 Co897 2.135 . S
C895 N893 1.340 . S
C895 N894 1.321 . S
C895 H919 0.930 . S
H896 C891 0.931 . S
Co897 N894 2.135 . S
Co897 N900 2.121 . S
Co897 O905 2.055 . S
Co897 O908 2.039 . S
Co897 N911 2.140 . S
C898 O899 1.227 . S
C898 O908 1.265 . S
O899 C898 1.227 . S
N900 Co897 2.121 . S
N900 C902 1.375 . S
N900 C903 1.313 . S
C901 C902 1.338 . S
C901 N904 1.377 . S
C901 H921 0.930 . S
C902 N900 1.375 . S
C902 C901 1.338 . S
C902 H906 0.931 . S
C903 N900 1.313 . S
C903 N904 1.344 . S
C903 H907 0.930 . S
N904 C901 1.377 . S
N904 C903 1.344 . S
O905 Co897 2.055 . S
O905 C909 1.253 . S
H906 C902 0.931 . S
H907 C903 0.930 . S
O908 Co897 2.039 . S
O908 C898 1.265 . S
C909 O905 1.253 . S
C909 O910 1.227 . S
O910 C909 1.227 . S
N911 Co897 2.140 . S
N911 C914 1.346 . S
N911 C915 1.345 . S
C912 C913 1.387 . S
C912 C916 1.391 . S
C913 C912 1.387 . S
C913 C914 1.369 . S
C913 H922 0.929 . S
C914 N911 1.346 . S
C914 C913 1.369 . S
C914 H917 0.928 . S
C915 N911 1.345 . S
C915 C916 1.371 . S
C915 H918 0.931 . S
C916 C912 1.391 . S
C916 C915 1.371 . S
C916 H923 0.930 . S
H917 C914 0.928 . S
H918 C915 0.931 . S
H919 C895 0.930 . S
H920 C892 0.930 . S
H921 C901 0.930 . S
H922 C913 0.929 . S
H923 C916 0.930 . S
C924 C925 1.351 . S
C924 N927 1.368 . S
C924 H929 0.931 . S
C925 C924 1.351 . S
C925 N926 1.373 . S
C925 H953 0.930 . S
N926 C925 1.373 . S
N926 C928 1.340 . S
N927 C924 1.368 . S
N927 C928 1.321 . S
N927 Co930 2.135 . S
C928 N926 1.340 . S
C928 N927 1.321 . S
C928 H952 0.930 . S
H929 C924 0.931 . S
Co930 N927 2.135 . S
Co930 N933 2.121 . S
Co930 O938 2.055 . S
Co930 O941 2.039 . S
Co930 N944 2.140 . S
C931 O932 1.227 . S
C931 O941 1.265 . S
O932 C931 1.227 . S
N933 Co930 2.121 . S
N933 C935 1.375 . S
N933 C936 1.313 . S
C934 C935 1.338 . S
C934 N937 1.377 . S
C934 H954 0.930 . S
C935 N933 1.375 . S
C935 C934 1.338 . S
C935 H939 0.931 . S
C936 N933 1.313 . S
C936 N937 1.344 . S
C936 H940 0.930 . S
N937 C934 1.377 . S
N937 C936 1.344 . S
O938 Co930 2.055 . S
O938 C942 1.253 . S
H939 C935 0.931 . S
H940 C936 0.930 . S
O941 Co930 2.039 . S
O941 C931 1.265 . S
C942 O938 1.253 . S
C942 O943 1.227 . S
O943 C942 1.227 . S
N944 Co930 2.140 . S
N944 C947 1.346 . S
N944 C948 1.345 . S
C945 C946 1.387 . S
C945 C949 1.391 . S
C946 C945 1.387 . S
C946 C947 1.369 . S
C946 H955 0.929 . S
C947 N944 1.346 . S
C947 C946 1.369 . S
C947 H950 0.928 . S
C948 N944 1.345 . S
C948 C949 1.371 . S
C948 H951 0.931 . S
C949 C945 1.391 . S
C949 C948 1.371 . S
C949 H956 0.930 . S
H950 C947 0.928 . S
H951 C948 0.931 . S
H952 C928 0.930 . S
H953 C925 0.930 . S
H954 C934 0.930 . S
H955 C946 0.929 . S
H956 C949 0.930 . S
C957 C958 1.351 . S
C957 N960 1.368 . S
C957 H962 0.931 . S
C958 C957 1.351 . S
C958 N959 1.373 . S
C958 H986 0.930 . S
N959 C958 1.373 . S
N959 C961 1.340 . S
N960 C957 1.368 . S
N960 C961 1.321 . S
N960 Co963 2.135 . S
C961 N959 1.340 . S
C961 N960 1.321 . S
C961 H985 0.930 . S
H962 C957 0.931 . S
Co963 N960 2.135 . S
Co963 N966 2.121 . S
Co963 O971 2.055 . S
Co963 O974 2.039 . S
Co963 N977 2.140 . S
C964 O965 1.227 . S
C964 O974 1.265 . S
O965 C964 1.227 . S
N966 Co963 2.121 . S
N966 C968 1.375 . S
N966 C969 1.313 . S
C967 C968 1.338 . S
C967 N970 1.377 . S
C967 H987 0.930 . S
C968 N966 1.375 . S
C968 C967 1.338 . S
C968 H972 0.931 . S
C969 N966 1.313 . S
C969 N970 1.344 . S
C969 H973 0.930 . S
N970 C967 1.377 . S
N970 C969 1.344 . S
O971 Co963 2.055 . S
O971 C975 1.253 . S
H972 C968 0.931 . S
H973 C969 0.930 . S
O974 Co963 2.039 . S
O974 C964 1.265 . S
C975 O971 1.253 . S
C975 O976 1.227 . S
O976 C975 1.227 . S
N977 Co963 2.140 . S
N977 C980 1.346 . S
N977 C981 1.345 . S
C978 C979 1.387 . S
C978 C982 1.391 . S
C979 C978 1.387 . S
C979 C980 1.369 . S
C979 H988 0.929 . S
C980 N977 1.346 . S
C980 C979 1.369 . S
C980 H983 0.928 . S
C981 N977 1.345 . S
C981 C982 1.371 . S
C981 H984 0.931 . S
C982 C978 1.391 . S
C982 C981 1.371 . S
C982 H989 0.930 . S
H983 C980 0.928 . S
H984 C981 0.931 . S
H985 C961 0.930 . S
H986 C958 0.930 . S
H987 C967 0.930 . S
H988 C979 0.929 . S
H989 C982 0.930 . S
C990 C991 1.351 . S
C990 N993 1.368 . S
C990 H995 0.931 . S
C991 C990 1.351 . S
C991 N992 1.373 . S
C991 H1019 0.930 . S
N992 C991 1.373 . S
N992 C994 1.340 . S
N993 C990 1.368 . S
N993 C994 1.321 . S
N993 Co996 2.135 . S
C994 N992 1.340 . S
C994 N993 1.321 . S
C994 H1018 0.930 . S
H995 C990 0.931 . S
Co996 N993 2.135 . S
Co996 N999 2.121 . S
Co996 O1004 2.055 . S
Co996 O1007 2.039 . S
Co996 N1010 2.140 . S
C997 O998 1.227 . S
C997 O1007 1.265 . S
O998 C997 1.227 . S
N999 Co996 2.121 . S
N999 C1001 1.375 . S
N999 C1002 1.313 . S
C1000 C1001 1.338 . S
C1000 N1003 1.377 . S
C1000 H1020 0.930 . S
C1001 N999 1.375 . S
C1001 C1000 1.338 . S
C1001 H1005 0.931 . S
C1002 N999 1.313 . S
C1002 N1003 1.344 . S
C1002 H1006 0.930 . S
N1003 C1000 1.377 . S
N1003 C1002 1.344 . S
O1004 Co996 2.055 . S
O1004 C1008 1.253 . S
H1005 C1001 0.931 . S
H1006 C1002 0.930 . S
O1007 Co996 2.039 . S
O1007 C997 1.265 . S
C1008 O1004 1.253 . S
C1008 O1009 1.227 . S
O1009 C1008 1.227 . S
N1010 Co996 2.140 . S
N1010 C1013 1.346 . S
N1010 C1014 1.345 . S
C1011 C1012 1.387 . S
C1011 C1015 1.391 . S
C1012 C1011 1.387 . S
C1012 C1013 1.369 . S
C1012 H1021 0.929 . S
C1013 N1010 1.346 . S
C1013 C1012 1.369 . S
C1013 H1016 0.928 . S
C1014 N1010 1.345 . S
C1014 C1015 1.371 . S
C1014 H1017 0.931 . S
C1015 C1011 1.391 . S
C1015 C1014 1.371 . S
C1015 H1022 0.930 . S
H1016 C1013 0.928 . S
H1017 C1014 0.931 . S
H1018 C994 0.930 . S
H1019 C991 0.930 . S
H1020 C1000 0.930 . S
H1021 C1012 0.929 . S
H1022 C1015 0.930 . S
C1023 C1024 1.351 . S
C1023 N1026 1.368 . S
C1023 H1028 0.931 . S
C1024 C1023 1.351 . S
C1024 N1025 1.373 . S
C1024 H1052 0.930 . S
N1025 C1024 1.373 . S
N1025 C1027 1.340 . S
N1026 C1023 1.368 . S
N1026 C1027 1.321 . S
N1026 Co1029 2.135 . S
C1027 N1025 1.340 . S
C1027 N1026 1.321 . S
C1027 H1051 0.930 . S
H1028 C1023 0.931 . S
Co1029 N1026 2.135 . S
Co1029 N1032 2.121 . S
Co1029 O1037 2.055 . S
Co1029 O1040 2.039 . S
Co1029 N1043 2.140 . S
C1030 O1031 1.227 . S
C1030 O1040 1.265 . S
O1031 C1030 1.227 . S
N1032 Co1029 2.121 . S
N1032 C1034 1.375 . S
N1032 C1035 1.313 . S
C1033 C1034 1.338 . S
C1033 N1036 1.377 . S
C1033 H1053 0.930 . S
C1034 N1032 1.375 . S
C1034 C1033 1.338 . S
C1034 H1038 0.931 . S
C1035 N1032 1.313 . S
C1035 N1036 1.344 . S
C1035 H1039 0.930 . S
N1036 C1033 1.377 . S
N1036 C1035 1.344 . S
O1037 Co1029 2.055 . S
O1037 C1041 1.253 . S
H1038 C1034 0.931 . S
H1039 C1035 0.930 . S
O1040 Co1029 2.039 . S
O1040 C1030 1.265 . S
C1041 O1037 1.253 . S
C1041 O1042 1.227 . S
O1042 C1041 1.227 . S
N1043 Co1029 2.140 . S
N1043 C1046 1.346 . S
N1043 C1047 1.345 . S
C1044 C1045 1.387 . S
C1044 C1048 1.391 . S
C1045 C1044 1.387 . S
C1045 C1046 1.369 . S
C1045 H1054 0.929 . S
C1046 N1043 1.346 . S
C1046 C1045 1.369 . S
C1046 H1049 0.928 . S
C1047 N1043 1.345 . S
C1047 C1048 1.371 . S
C1047 H1050 0.931 . S
C1048 C1044 1.391 . S
C1048 C1047 1.371 . S
C1048 H1055 0.930 . S
H1049 C1046 0.928 . S
H1050 C1047 0.931 . S
H1051 C1027 0.930 . S
H1052 C1024 0.930 . S
H1053 C1033 0.930 . S
H1054 C1045 0.929 . S
H1055 C1048 0.930 . S
H1056 C1062 0.930 . S
H1057 C1065 0.930 . S
H1058 C1066 0.930 . S
H1059 C1067 0.930 . S
H1060 C1070 0.930 1_565 S
H1061 C1071 0.930 1_565 S
C1062 H1056 0.930 . S
C1062 C1063 1.355 . S
C1062 C1064 1.415 . S
C1063 C1062 1.355 . S
C1063 C1065 1.419 . S
C1064 C1062 1.415 . S
C1064 C1069 1.425 . S
C1064 C1071 1.409 . S
C1065 H1057 0.930 . S
C1065 C1063 1.419 . S
C1065 C1066 1.362 . S
C1066 H1058 0.930 . S
C1066 C1065 1.362 . S
C1066 C1069 1.409 . S
C1067 H1059 0.930 . S
C1067 C1068 1.355 . S
C1067 C1069 1.415 . S
C1068 C1067 1.355 . S
C1068 C1070 1.419 . S
C1069 C1064 1.425 . S
C1069 C1066 1.409 . S
C1069 C1067 1.415 . S
C1070 H1060 0.930 1_545 S
C1070 C1068 1.419 . S
C1070 C1071 1.362 . S
C1071 H1061 0.930 1_545 S
C1071 C1064 1.409 . S
C1071 C1070 1.362 . S
H1072 C1078 0.930 . S
H1073 C1081 0.930 1_565 S
H1074 C1082 0.930 1_565 S
H1075 C1083 0.930 . S
H1076 C1086 0.930 . S
H1077 C1087 0.930 . S
C1078 H1072 0.930 . S
C1078 C1079 1.355 . S
C1078 C1080 1.415 . S
C1079 C1078 1.355 . S
C1079 C1081 1.419 . S
C1080 C1078 1.415 . S
C1080 C1085 1.425 . S
C1080 C1087 1.409 . S
C1081 H1073 0.930 1_545 S
C1081 C1079 1.419 . S
C1081 C1082 1.362 . S
C1082 H1074 0.930 1_545 S
C1082 C1081 1.362 . S
C1082 C1085 1.409 . S
C1083 H1075 0.930 . S
C1083 C1084 1.355 . S
C1083 C1085 1.415 . S
C1084 C1083 1.355 . S
C1084 C1086 1.419 . S
C1085 C1080 1.425 . S
C1085 C1082 1.409 . S
C1085 C1083 1.415 . S
C1086 H1076 0.930 . S
C1086 C1084 1.419 . S
C1086 C1087 1.362 . S
C1087 H1077 0.930 . S
C1087 C1080 1.409 . S
C1087 C1086 1.362 . S
H1088 C1094 0.930 . S
H1089 C1097 0.930 . S
H1090 C1098 0.930 . S
H1091 C1099 0.930 . S
H1092 C1102 0.930 1_545 S
H1093 C1103 0.930 . S
C1094 H1088 0.930 . S
C1094 C1095 1.355 . S
C1094 C1096 1.415 . S
C1095 C1094 1.355 . S
C1095 C1097 1.419 . S
C1096 C1094 1.415 . S
C1096 C1101 1.425 . S
C1096 C1103 1.409 . S
C1097 H1089 0.930 . S
C1097 C1095 1.419 . S
C1097 C1098 1.362 . S
C1098 H1090 0.930 . S
C1098 C1097 1.362 . S
C1098 C1101 1.409 . S
C1099 H1091 0.930 . S
C1099 C1100 1.355 . S
C1099 C1101 1.415 . S
C1100 C1099 1.355 . S
C1100 C1102 1.419 . S
C1101 C1096 1.425 . S
C1101 C1098 1.409 . S
C1101 C1099 1.415 . S
C1102 H1092 0.930 1_565 S
C1102 C1100 1.419 . S
C1102 C1103 1.362 . S
C1103 H1093 0.930 . S
C1103 C1096 1.409 . S
C1103 C1102 1.362 . S
H1104 C1110 0.930 . S
H1105 C1113 0.930 . S
H1106 C1114 0.930 . S
H1107 C1115 0.930 . S
H1108 C1118 0.930 1_545 S
H1109 C1119 0.930 1_545 S
C1110 H1104 0.930 . S
C1110 C1111 1.355 . S
C1110 C1112 1.415 . S
C1111 C1110 1.355 . S
C1111 C1113 1.419 . S
C1112 C1110 1.415 . S
C1112 C1117 1.425 . S
C1112 C1119 1.409 . S
C1113 H1105 0.930 . S
C1113 C1111 1.419 . S
C1113 C1114 1.362 . S
C1114 H1106 0.930 . S
C1114 C1113 1.362 . S
C1114 C1117 1.409 . S
C1115 H1107 0.930 . S
C1115 C1116 1.355 . S
C1115 C1117 1.415 . S
C1116 C1115 1.355 . S
C1116 C1118 1.419 . S
C1117 C1112 1.425 . S
C1117 C1114 1.409 . S
C1117 C1115 1.415 . S
C1118 H1108 0.930 1_565 S
C1118 C1116 1.419 . S
C1118 C1119 1.362 . S
C1119 H1109 0.930 1_565 S
C1119 C1112 1.409 . S
C1119 C1118 1.362 . S
H1120 C1126 0.930 . S
H1121 C1129 0.930 . S
H1122 C1130 0.930 . S
H1123 C1131 0.930 . S
H1124 C1134 0.930 . S
H1125 C1135 0.930 . S
C1126 H1120 0.930 . S
C1126 C1127 1.355 . S
C1126 C1128 1.415 . S
C1127 C1126 1.355 . S
C1127 C1129 1.419 . S
C1128 C1126 1.415 . S
C1128 C1133 1.425 . S
C1128 C1135 1.409 . S
C1129 H1121 0.930 . S
C1129 C1127 1.419 . S
C1129 C1130 1.362 . S
C1130 H1122 0.930 . S
C1130 C1129 1.362 . S
C1130 C1133 1.409 . S
C1131 H1123 0.930 . S
C1131 C1132 1.355 . S
C1131 C1133 1.415 . S
C1132 C1131 1.355 . S
C1132 C1134 1.419 . S
C1133 C1128 1.425 . S
C1133 C1130 1.409 . S
C1133 C1131 1.415 . S
C1134 H1124 0.930 . S
C1134 C1132 1.419 . S
C1134 C1135 1.362 . S
C1135 H1125 0.930 . S
C1135 C1128 1.409 . S
C1135 C1134 1.362 . S
H1136 C1142 0.930 . S
H1137 C1145 0.930 . S
H1138 C1146 0.930 . S
H1139 C1147 0.930 . S
H1140 C1150 0.930 . S
H1141 C1151 0.930 . S
C1142 H1136 0.930 . S
C1142 C1143 1.355 . S
C1142 C1144 1.415 . S
C1143 C1142 1.355 . S
C1143 C1145 1.419 . S
C1144 C1142 1.415 . S
C1144 C1149 1.425 . S
C1144 C1151 1.409 . S
C1145 H1137 0.930 . S
C1145 C1143 1.419 . S
C1145 C1146 1.362 . S
C1146 H1138 0.930 . S
C1146 C1145 1.362 . S
C1146 C1149 1.409 . S
C1147 H1139 0.930 . S
C1147 C1148 1.355 . S
C1147 C1149 1.415 . S
C1148 C1147 1.355 . S
C1148 C1150 1.419 . S
C1149 C1144 1.425 . S
C1149 C1146 1.409 . S
C1149 C1147 1.415 . S
C1150 H1140 0.930 . S
C1150 C1148 1.419 . S
C1150 C1151 1.362 . S
C1151 H1141 0.930 . S
C1151 C1144 1.409 . S
C1151 C1150 1.362 . S
H1152 C1158 0.930 . S
H1153 C1161 0.930 . S
H1154 C1162 0.930 . S
H1155 C1163 0.930 . S
H1156 C1166 0.930 . S
H1157 C1167 0.930 . S
C1158 H1152 0.930 . S
C1158 C1159 1.355 . S
C1158 C1160 1.415 . S
C1159 C1158 1.355 . S
C1159 C1161 1.419 . S
C1160 C1158 1.415 . S
C1160 C1165 1.425 . S
C1160 C1167 1.409 . S
C1161 H1153 0.930 . S
C1161 C1159 1.419 . S
C1161 C1162 1.362 . S
C1162 H1154 0.930 . S
C1162 C1161 1.362 . S
C1162 C1165 1.409 . S
C1163 H1155 0.930 . S
C1163 C1164 1.355 . S
C1163 C1165 1.415 . S
C1164 C1163 1.355 . S
C1164 C1166 1.419 . S
C1165 C1160 1.425 . S
C1165 C1162 1.409 . S
C1165 C1163 1.415 . S
C1166 H1156 0.930 . S
C1166 C1164 1.419 . S
C1166 C1167 1.362 . S
C1167 H1157 0.930 . S
C1167 C1160 1.409 . S
C1167 C1166 1.362 . S
H1168 C1174 0.930 . S
H1169 C1177 0.930 . S
H1170 C1178 0.930 . S
H1171 C1179 0.930 . S
H1172 C1182 0.930 . S
H1173 C1183 0.930 . S
C1174 H1168 0.930 . S
C1174 C1175 1.355 . S
C1174 C1176 1.415 . S
C1175 C1174 1.355 . S
C1175 C1177 1.419 . S
C1176 C1174 1.415 . S
C1176 C1181 1.425 . S
C1176 C1183 1.409 . S
C1177 H1169 0.930 . S
C1177 C1175 1.419 . S
C1177 C1178 1.362 . S
C1178 H1170 0.930 . S
C1178 C1177 1.362 . S
C1178 C1181 1.409 . S
C1179 H1171 0.930 . S
C1179 C1180 1.355 . S
C1179 C1181 1.415 . S
C1180 C1179 1.355 . S
C1180 C1182 1.419 . S
C1181 C1176 1.425 . S
C1181 C1178 1.409 . S
C1181 C1179 1.415 . S
C1182 H1172 0.930 . S
C1182 C1180 1.419 . S
C1182 C1183 1.362 . S
C1183 H1173 0.930 . S
C1183 C1176 1.409 . S
C1183 C1182 1.362 . S
H1184 C1190 0.930 . S
H1185 C1193 0.930 . S
H1186 C1194 0.930 . S
H1187 C1195 0.930 . S
H1188 C1198 0.930 . S
H1189 C1199 0.930 . S
C1190 H1184 0.930 . S
C1190 C1191 1.355 . S
C1190 C1192 1.415 . S
C1191 C1190 1.355 . S
C1191 C1193 1.419 . S
C1192 C1190 1.415 . S
C1192 C1197 1.425 . S
C1192 C1199 1.409 . S
C1193 H1185 0.930 . S
C1193 C1191 1.419 . S
C1193 C1194 1.362 . S
C1194 H1186 0.930 . S
C1194 C1193 1.362 . S
C1194 C1197 1.409 . S
C1195 H1187 0.930 . S
C1195 C1196 1.355 . S
C1195 C1197 1.415 . S
C1196 C1195 1.355 . S
C1196 C1198 1.419 . S
C1197 C1192 1.425 . S
C1197 C1194 1.409 . S
C1197 C1195 1.415 . S
C1198 H1188 0.930 . S
C1198 C1196 1.419 . S
C1198 C1199 1.362 . S
C1199 H1189 0.930 . S
C1199 C1192 1.409 . S
C1199 C1198 1.362 . S
H1200 C1206 0.930 . S
H1201 C1209 0.930 1_565 S
H1202 C1210 0.930 1_565 S
H1203 C1211 0.930 . S
H1204 C1214 0.930 . S
H1205 C1215 0.930 . S
C1206 H1200 0.930 . S
C1206 C1207 1.355 . S
C1206 C1208 1.415 . S
C1207 C1206 1.355 . S
C1207 C1209 1.419 . S
C1208 C1206 1.415 . S
C1208 C1213 1.425 . S
C1208 C1215 1.409 . S
C1209 H1201 0.930 1_545 S
C1209 C1207 1.419 . S
C1209 C1210 1.362 . S
C1210 H1202 0.930 1_545 S
C1210 C1209 1.362 . S
C1210 C1213 1.409 . S
C1211 H1203 0.930 . S
C1211 C1212 1.355 . S
C1211 C1213 1.415 . S
C1212 C1211 1.355 . S
C1212 C1214 1.419 . S
C1213 C1208 1.425 . S
C1213 C1210 1.409 . S
C1213 C1211 1.415 . S
C1214 H1204 0.930 . S
C1214 C1212 1.419 . S
C1214 C1215 1.362 . S
C1215 H1205 0.930 . S
C1215 C1208 1.409 . S
C1215 C1214 1.362 . S
H1216 C1222 0.930 . S
H1217 C1225 0.930 . S
H1218 C1226 0.930 . S
H1219 C1227 0.930 . S
H1220 C1230 0.930 . S
H1221 C1231 0.930 . S
C1222 H1216 0.930 . S
C1222 C1223 1.355 . S
C1222 C1224 1.415 . S
C1223 C1222 1.355 . S
C1223 C1225 1.419 . S
C1224 C1222 1.415 . S
C1224 C1229 1.425 . S
C1224 C1231 1.409 . S
C1225 H1217 0.930 . S
C1225 C1223 1.419 . S
C1225 C1226 1.362 . S
C1226 H1218 0.930 . S
C1226 C1225 1.362 . S
C1226 C1229 1.409 . S
C1227 H1219 0.930 . S
C1227 C1228 1.355 . S
C1227 C1229 1.415 . S
C1228 C1227 1.355 . S
C1228 C1230 1.419 . S
C1229 C1224 1.425 . S
C1229 C1226 1.409 . S
C1229 C1227 1.415 . S
C1230 H1220 0.930 . S
C1230 C1228 1.419 . S
C1230 C1231 1.362 . S
C1231 H1221 0.930 . S
C1231 C1224 1.409 . S
C1231 C1230 1.362 . S
H1232 C1238 0.930 . S
H1233 C1241 0.930 . S
H1234 C1242 0.930 . S
H1235 C1243 0.930 . S
H1236 C1246 0.930 . S
H1237 C1247 0.930 . S
C1238 H1232 0.930 . S
C1238 C1239 1.355 . S
C1238 C1240 1.415 . S
C1239 C1238 1.355 . S
C1239 C1241 1.419 . S
C1240 C1238 1.415 . S
C1240 C1245 1.425 . S
C1240 C1247 1.409 . S
C1241 H1233 0.930 . S
C1241 C1239 1.419 . S
C1241 C1242 1.362 . S
C1242 H1234 0.930 . S
C1242 C1241 1.362 . S
C1242 C1245 1.409 . S
C1243 H1235 0.930 . S
C1243 C1244 1.355 . S
C1243 C1245 1.415 . S
C1244 C1243 1.355 . S
C1244 C1246 1.419 . S
C1245 C1240 1.425 . S
C1245 C1242 1.409 . S
C1245 C1243 1.415 . S
C1246 H1236 0.930 . S
C1246 C1244 1.419 . S
C1246 C1247 1.362 . S
C1247 H1237 0.930 . S
C1247 C1240 1.409 . S
C1247 C1246 1.362 . S
H1248 C1254 0.930 . S
H1249 C1257 0.930 . S
H1250 C1258 0.930 . S
H1251 C1259 0.930 . S
H1252 C1262 0.930 . S
H1253 C1263 0.930 . S
C1254 H1248 0.930 . S
C1254 C1255 1.355 . S
C1254 C1256 1.415 . S
C1255 C1254 1.355 . S
C1255 C1257 1.419 . S
C1256 C1254 1.415 . S
C1256 C1261 1.425 . S
C1256 C1263 1.409 . S
C1257 H1249 0.930 . S
C1257 C1255 1.419 . S
C1257 C1258 1.362 . S
C1258 H1250 0.930 . S
C1258 C1257 1.362 . S
C1258 C1261 1.409 . S
C1259 H1251 0.930 . S
C1259 C1260 1.355 . S
C1259 C1261 1.415 . S
C1260 C1259 1.355 . S
C1260 C1262 1.419 . S
C1261 C1256 1.425 . S
C1261 C1258 1.409 . S
C1261 C1259 1.415 . S
C1262 H1252 0.930 . S
C1262 C1260 1.419 . S
C1262 C1263 1.362 . S
C1263 H1253 0.930 . S
C1263 C1256 1.409 . S
C1263 C1262 1.362 . S
H1264 C1270 0.930 . S
H1265 C1273 0.930 . S
H1266 C1274 0.930 . S
H1267 C1275 0.930 . S
H1268 C1278 0.930 . S
H1269 C1279 0.930 . S
C1270 H1264 0.930 . S
C1270 C1271 1.355 . S
C1270 C1272 1.415 . S
C1271 C1270 1.355 . S
C1271 C1273 1.419 . S
C1272 C1270 1.415 . S
C1272 C1277 1.425 . S
C1272 C1279 1.409 . S
C1273 H1265 0.930 . S
C1273 C1271 1.419 . S
C1273 C1274 1.362 . S
C1274 H1266 0.930 . S
C1274 C1273 1.362 . S
C1274 C1277 1.409 . S
C1275 H1267 0.930 . S
C1275 C1276 1.355 . S
C1275 C1277 1.415 . S
C1276 C1275 1.355 . S
C1276 C1278 1.419 . S
C1277 C1272 1.425 . S
C1277 C1274 1.409 . S
C1277 C1275 1.415 . S
C1278 H1268 0.930 . S
C1278 C1276 1.419 . S
C1278 C1279 1.362 . S
C1279 H1269 0.930 . S
C1279 C1272 1.409 . S
C1279 C1278 1.362 . S
H1280 C1286 0.930 . S
H1281 C1289 0.930 . S
H1282 C1290 0.930 . S
H1283 C1291 0.930 . S
H1284 C1294 0.930 . S
H1285 C1295 0.930 . S
C1286 H1280 0.930 . S
C1286 C1287 1.355 . S
C1286 C1288 1.415 . S
C1287 C1286 1.355 . S
C1287 C1289 1.419 . S
C1288 C1286 1.415 . S
C1288 C1293 1.425 . S
C1288 C1295 1.409 . S
C1289 H1281 0.930 . S
C1289 C1287 1.419 . S
C1289 C1290 1.362 . S
C1290 H1282 0.930 . S
C1290 C1289 1.362 . S
C1290 C1293 1.409 . S
C1291 H1283 0.930 . S
C1291 C1292 1.355 . S
C1291 C1293 1.415 . S
C1292 C1291 1.355 . S
C1292 C1294 1.419 . S
C1293 C1288 1.425 . S
C1293 C1290 1.409 . S
C1293 C1291 1.415 . S
C1294 H1284 0.930 . S
C1294 C1292 1.419 . S
C1294 C1295 1.362 . S
C1295 H1285 0.930 . S
C1295 C1288 1.409 . S
C1295 C1294 1.362 . S
H1296 C1302 0.930 . S
H1297 C1305 0.930 . S
H1298 C1306 0.930 . S
H1299 C1307 0.930 . S
H1300 C1310 0.930 . S
H1301 C1311 0.930 . S
C1302 H1296 0.930 . S
C1302 C1303 1.355 . S
C1302 C1304 1.415 . S
C1303 C1302 1.355 . S
C1303 C1305 1.419 . S
C1304 C1302 1.415 . S
C1304 C1309 1.425 . S
C1304 C1311 1.409 . S
C1305 H1297 0.930 . S
C1305 C1303 1.419 . S
C1305 C1306 1.362 . S
C1306 H1298 0.930 . S
C1306 C1305 1.362 . S
C1306 C1309 1.409 . S
C1307 H1299 0.930 . S
C1307 C1308 1.355 . S
C1307 C1309 1.415 . S
C1308 C1307 1.355 . S
C1308 C1310 1.419 . S
C1309 C1304 1.425 . S
C1309 C1306 1.409 . S
C1309 C1307 1.415 . S
C1310 H1300 0.930 . S
C1310 C1308 1.419 . S
C1310 C1311 1.362 . S
C1311 H1301 0.930 . S
C1311 C1304 1.409 . S
C1311 C1310 1.362 . S
H1312 C1318 0.931 . S
H1313 C1321 0.930 . S
H1314 C1322 0.930 . S
H1315 C1323 0.931 . S
H1316 C1326 0.930 . S
H1317 C1327 0.930 . S
C1318 H1312 0.931 . S
C1318 C1319 1.355 . S
C1318 C1320 1.415 1_556 S
C1319 C1318 1.355 . S
C1319 C1321 1.419 . S
C1320 C1318 1.415 1_554 S
C1320 C1325 1.425 1_564 S
C1320 C1327 1.409 . S
C1321 H1313 0.930 . S
C1321 C1319 1.419 . S
C1321 C1322 1.362 1_565 S
C1322 H1314 0.930 . S
C1322 C1321 1.362 1_545 S
C1322 C1325 1.409 . S
C1323 H1315 0.931 . S
C1323 C1324 1.355 . S
C1323 C1325 1.415 1_554 S
C1324 C1323 1.355 . S
C1324 C1326 1.419 . S
C1325 C1320 1.425 1_546 S
C1325 C1322 1.409 . S
C1325 C1323 1.415 1_556 S
C1326 H1316 0.930 . S
C1326 C1324 1.419 . S
C1326 C1327 1.362 1_545 S
C1327 H1317 0.930 . S
C1327 C1320 1.409 . S
C1327 C1326 1.362 1_565 S
H1328 C1334 0.930 . S
H1329 C1337 0.930 . S
H1330 C1338 0.903 1_556 S
H1331 C1339 0.930 . S
H1332 C1342 0.930 . S
H1333 C1343 0.903 1_554 S
C1334 H1328 0.930 . S
C1334 C1335 1.355 . S
C1334 C1336 1.415 . S
C1335 C1334 1.355 . S
C1335 C1337 1.419 . S
C1336 C1334 1.415 . S
C1336 C1341 1.425 1_554 S
C1336 C1343 1.409 1_554 S
C1337 H1329 0.930 . S
C1337 C1335 1.419 . S
C1337 C1338 1.362 . S
C1338 H1330 0.903 1_554 S
C1338 C1337 1.362 . S
C1338 C1341 1.409 1_554 S
C1339 H1331 0.930 . S
C1339 C1340 1.355 . S
C1339 C1341 1.415 . S
C1340 C1339 1.355 . S
C1340 C1342 1.419 . S
C1341 C1336 1.425 1_556 S
C1341 C1338 1.409 1_556 S
C1341 C1339 1.415 . S
C1342 H1332 0.930 . S
C1342 C1340 1.419 . S
C1342 C1343 1.362 . S
C1343 H1333 0.903 1_556 S
C1343 C1336 1.409 1_556 S
C1343 C1342 1.362 . S
H1344 C1350 0.930 . S
H1345 C1353 0.930 . S
H1346 C1354 0.930 . S
H1347 C1355 0.930 . S
H1348 C1358 0.930 . S
H1349 C1359 0.930 . S
C1350 H1344 0.930 . S
C1350 C1351 1.355 . S
C1350 C1352 1.415 . S
C1351 C1350 1.355 . S
C1351 C1353 1.419 . S
C1352 C1350 1.415 . S
C1352 C1357 1.425 . S
C1352 C1359 1.409 . S
C1353 H1345 0.930 . S
C1353 C1351 1.419 . S
C1353 C1354 1.362 . S
C1354 H1346 0.930 . S
C1354 C1353 1.362 . S
C1354 C1357 1.409 . S
C1355 H1347 0.930 . S
C1355 C1356 1.355 . S
C1355 C1357 1.415 . S
C1356 C1355 1.355 . S
C1356 C1358 1.419 . S
C1357 C1352 1.425 . S
C1357 C1354 1.409 . S
C1357 C1355 1.415 . S
C1358 H1348 0.930 . S
C1358 C1356 1.419 . S
C1358 C1359 1.362 . S
C1359 H1349 0.930 . S
C1359 C1352 1.409 . S
C1359 C1358 1.362 . S
H1360 C1366 0.930 . S
H1361 C1369 0.930 . S
H1362 C1370 0.930 . S
H1363 C1371 0.930 . S
H1364 C1374 0.930 . S
H1365 C1375 0.930 . S
C1366 H1360 0.930 . S
C1366 C1367 1.355 . S
C1366 C1368 1.415 . S
C1367 C1366 1.355 . S
C1367 C1369 1.419 . S
C1368 C1366 1.415 . S
C1368 C1373 1.425 1_545 S
C1368 C1375 1.409 . S
C1369 H1361 0.930 . S
C1369 C1367 1.419 . S
C1369 C1370 1.362 1_545 S
C1370 H1362 0.930 . S
C1370 C1369 1.362 1_565 S
C1370 C1373 1.409 . S
C1371 H1363 0.930 . S
C1371 C1372 1.355 . S
C1371 C1373 1.415 . S
C1372 C1371 1.355 . S
C1372 C1374 1.419 . S
C1373 C1368 1.425 1_565 S
C1373 C1370 1.409 . S
C1373 C1371 1.415 . S
C1374 H1364 0.930 . S
C1374 C1372 1.419 . S
C1374 C1375 1.362 1_565 S
C1375 H1365 0.930 . S
C1375 C1368 1.409 . S
C1375 C1374 1.362 1_545 S
H1376 C1382 0.930 . S
H1377 C1385 0.930 . S
H1378 C1386 0.930 . S
H1379 C1387 0.930 . S
H1380 C1390 0.930 . S
H1381 C1391 0.930 . S
C1382 H1376 0.930 . S
C1382 C1383 1.355 . S
C1382 C1384 1.415 1_556 S
C1383 C1382 1.355 . S
C1383 C1385 1.419 . S
C1384 C1382 1.415 1_554 S
C1384 C1389 1.425 1_554 S
C1384 C1391 1.409 . S
C1385 H1377 0.930 . S
C1385 C1383 1.419 . S
C1385 C1386 1.362 . S
C1386 H1378 0.930 . S
C1386 C1385 1.362 . S
C1386 C1389 1.409 . S
C1387 H1379 0.930 . S
C1387 C1388 1.355 . S
C1387 C1389 1.415 1_554 S
C1388 C1387 1.355 . S
C1388 C1390 1.419 . S
C1389 C1384 1.425 1_556 S
C1389 C1386 1.409 . S
C1389 C1387 1.415 1_556 S
C1390 H1380 0.930 . S
C1390 C1388 1.419 . S
C1390 C1391 1.362 . S
C1391 H1381 0.930 . S
C1391 C1384 1.409 . S
C1391 C1390 1.362 . S
H1392 C1398 0.930 . S
H1393 C1401 0.930 . S
H1394 C1402 0.930 . S
H1395 C1403 0.930 . S
H1396 C1406 0.930 . S
H1397 C1407 0.930 . S
C1398 H1392 0.930 . S
C1398 C1399 1.355 . S
C1398 C1400 1.415 . S
C1399 C1398 1.355 . S
C1399 C1401 1.419 . S
C1400 C1398 1.415 . S
C1400 C1405 1.425 . S
C1400 C1407 1.409 . S
C1401 H1393 0.930 . S
C1401 C1399 1.419 . S
C1401 C1402 1.362 . S
C1402 H1394 0.930 . S
C1402 C1401 1.362 . S
C1402 C1405 1.409 . S
C1403 H1395 0.930 . S
C1403 C1404 1.355 . S
C1403 C1405 1.415 . S
C1404 C1403 1.355 . S
C1404 C1406 1.419 . S
C1405 C1400 1.425 . S
C1405 C1402 1.409 . S
C1405 C1403 1.415 . S
C1406 H1396 0.930 . S
C1406 C1404 1.419 . S
C1406 C1407 1.362 . S
C1407 H1397 0.930 . S
C1407 C1400 1.409 . S
C1407 C1406 1.362 . S
H1408 C1414 0.930 . S
H1409 C1417 0.930 . S
H1410 C1418 0.930 . S
H1411 C1419 0.930 . S
H1412 C1422 0.930 . S
H1413 C1423 0.930 . S
C1414 H1408 0.930 . S
C1414 C1415 1.355 . S
C1414 C1416 1.415 . S
C1415 C1414 1.355 . S
C1415 C1417 1.419 . S
C1416 C1414 1.415 . S
C1416 C1421 1.425 1_545 S
C1416 C1423 1.409 . S
C1417 H1409 0.930 . S
C1417 C1415 1.419 . S
C1417 C1418 1.362 1_545 S
C1418 H1410 0.930 . S
C1418 C1417 1.362 1_565 S
C1418 C1421 1.409 . S
C1419 H1411 0.930 . S
C1419 C1420 1.355 . S
C1419 C1421 1.415 . S
C1420 C1419 1.355 . S
C1420 C1422 1.419 . S
C1421 C1416 1.425 1_565 S
C1421 C1418 1.409 . S
C1421 C1419 1.415 . S
C1422 H1412 0.930 . S
C1422 C1420 1.419 . S
C1422 C1423 1.362 1_565 S
C1423 H1413 0.930 . S
C1423 C1416 1.409 . S
C1423 C1422 1.362 1_545 S
H1424 C1430 0.930 . S
H1425 C1433 0.930 . S
H1426 C1434 0.930 . S
H1427 C1435 0.930 . S
H1428 C1438 0.930 . S
H1429 C1439 0.930 . S
C1430 H1424 0.930 . S
C1430 C1431 1.355 . S
C1430 C1432 1.415 . S
C1431 C1430 1.355 . S
C1431 C1433 1.419 . S
C1432 C1430 1.415 . S
C1432 C1437 1.425 . S
C1432 C1439 1.409 . S
C1433 H1425 0.930 . S
C1433 C1431 1.419 . S
C1433 C1434 1.362 . S
C1434 H1426 0.930 . S
C1434 C1433 1.362 . S
C1434 C1437 1.409 . S
C1435 H1427 0.930 . S
C1435 C1436 1.355 . S
C1435 C1437 1.415 . S
C1436 C1435 1.355 . S
C1436 C1438 1.419 . S
C1437 C1432 1.425 . S
C1437 C1434 1.409 . S
C1437 C1435 1.415 . S
C1438 H1428 0.930 . S
C1438 C1436 1.419 . S
C1438 C1439 1.362 . S
C1439 H1429 0.930 . S
C1439 C1432 1.409 . S
C1439 C1438 1.362 . S
H1440 C1446 0.930 . S
H1441 C1449 0.930 . S
H1442 C1450 0.930 . S
H1443 C1451 0.930 . S
H1444 C1454 0.930 . S
H1445 C1455 0.930 . S
C1446 H1440 0.930 . S
C1446 C1447 1.355 . S
C1446 C1448 1.415 . S
C1447 C1446 1.355 . S
C1447 C1449 1.419 . S
C1448 C1446 1.415 . S
C1448 C1453 1.425 . S
C1448 C1455 1.409 . S
C1449 H1441 0.930 . S
C1449 C1447 1.419 . S
C1449 C1450 1.362 . S
C1450 H1442 0.930 . S
C1450 C1449 1.362 . S
C1450 C1453 1.409 . S
C1451 H1443 0.930 . S
C1451 C1452 1.355 . S
C1451 C1453 1.415 . S
C1452 C1451 1.355 . S
C1452 C1454 1.419 . S
C1453 C1448 1.425 . S
C1453 C1450 1.409 . S
C1453 C1451 1.415 . S
C1454 H1444 0.930 . S
C1454 C1452 1.419 . S
C1454 C1455 1.362 . S
C1455 H1445 0.930 . S
C1455 C1448 1.409 . S
C1455 C1454 1.362 . S
H1456 C1462 0.930 . S
H1457 C1465 0.930 . S
H1458 C1466 0.930 . S
H1459 C1467 0.930 . S
H1460 C1470 0.930 . S
H1461 C1471 0.930 . S
C1462 H1456 0.930 . S
C1462 C1463 1.355 . S
C1462 C1464 1.415 . S
C1463 C1462 1.355 . S
C1463 C1465 1.419 . S
C1464 C1462 1.415 . S
C1464 C1469 1.425 . S
C1464 C1471 1.409 . S
C1465 H1457 0.930 . S
C1465 C1463 1.419 . S
C1465 C1466 1.362 . S
C1466 H1458 0.930 . S
C1466 C1465 1.362 . S
C1466 C1469 1.409 . S
C1467 H1459 0.930 . S
C1467 C1468 1.355 . S
C1467 C1469 1.415 . S
C1468 C1467 1.355 . S
C1468 C1470 1.419 . S
C1469 C1464 1.425 . S
C1469 C1466 1.409 . S
C1469 C1467 1.415 . S
C1470 H1460 0.930 . S
C1470 C1468 1.419 . S
C1470 C1471 1.362 . S
C1471 H1461 0.930 . S
C1471 C1464 1.409 . S
C1471 C1470 1.362 . S
H1472 C1478 0.930 . S
H1473 C1481 0.930 . S
H1474 C1482 0.930 . S
H1475 C1483 0.930 . S
H1476 C1486 0.930 . S
H1477 C1487 0.930 . S
C1478 H1472 0.930 . S
C1478 C1479 1.355 . S
C1478 C1480 1.415 . S
C1479 C1478 1.355 . S
C1479 C1481 1.419 . S
C1480 C1478 1.415 . S
C1480 C1485 1.425 . S
C1480 C1487 1.409 . S
C1481 H1473 0.930 . S
C1481 C1479 1.419 . S
C1481 C1482 1.362 . S
C1482 H1474 0.930 . S
C1482 C1481 1.362 . S
C1482 C1485 1.409 . S
C1483 H1475 0.930 . S
C1483 C1484 1.355 . S
C1483 C1485 1.415 . S
C1484 C1483 1.355 . S
C1484 C1486 1.419 . S
C1485 C1480 1.425 . S
C1485 C1482 1.409 . S
C1485 C1483 1.415 . S
C1486 H1476 0.930 . S
C1486 C1484 1.419 . S
C1486 C1487 1.362 . S
C1487 H1477 0.930 . S
C1487 C1480 1.409 . S
C1487 C1486 1.362 . S
H1488 C1494 0.930 . S
H1489 C1497 0.930 . S
H1490 C1498 0.930 . S
H1491 C1499 0.930 . S
H1492 C1502 0.930 . S
H1493 C1503 0.930 . S
C1494 H1488 0.930 . S
C1494 C1495 1.355 . S
C1494 C1496 1.415 . S
C1495 C1494 1.355 . S
C1495 C1497 1.419 . S
C1496 C1494 1.415 . S
C1496 C1501 1.425 . S
C1496 C1503 1.409 . S
C1497 H1489 0.930 . S
C1497 C1495 1.419 . S
C1497 C1498 1.362 . S
C1498 H1490 0.930 . S
C1498 C1497 1.362 . S
C1498 C1501 1.409 . S
C1499 H1491 0.930 . S
C1499 C1500 1.355 . S
C1499 C1501 1.415 . S
C1500 C1499 1.355 . S
C1500 C1502 1.419 . S
C1501 C1496 1.425 . S
C1501 C1498 1.409 . S
C1501 C1499 1.415 . S
C1502 H1492 0.930 . S
C1502 C1500 1.419 . S
C1502 C1503 1.362 . S
C1503 H1493 0.930 . S
C1503 C1496 1.409 . S
C1503 C1502 1.362 . S
H1504 C1510 0.930 . S
H1505 C1513 0.930 . S
H1506 C1514 0.930 . S
H1507 C1515 0.930 . S
H1508 C1518 0.930 . S
H1509 C1519 0.930 . S
C1510 H1504 0.930 . S
C1510 C1511 1.355 . S
C1510 C1512 1.415 1_565 S
C1511 C1510 1.355 . S
C1511 C1513 1.419 1_455 S
C1512 C1510 1.415 1_545 S
C1512 C1517 1.425 1_445 S
C1512 C1519 1.409 . S
C1513 H1505 0.930 . S
C1513 C1511 1.419 1_655 S
C1513 C1514 1.362 . S
C1514 H1506 0.930 . S
C1514 C1513 1.362 . S
C1514 C1517 1.409 . S
C1515 H1507 0.930 . S
C1515 C1516 1.355 . S
C1515 C1517 1.415 1_545 S
C1516 C1515 1.355 . S
C1516 C1518 1.419 1_655 S
C1517 C1512 1.425 1_665 S
C1517 C1514 1.409 . S
C1517 C1515 1.415 1_565 S
C1518 H1508 0.930 . S
C1518 C1516 1.419 1_455 S
C1518 C1519 1.362 . S
C1519 H1509 0.930 . S
C1519 C1512 1.409 . S
C1519 C1518 1.362 . S
H1520 C1526 0.930 . S
H1521 C1529 0.930 . S
H1522 C1530 0.930 . S
H1523 C1531 0.930 . S
H1524 C1534 0.930 . S
H1525 C1535 0.930 . S
C1526 H1520 0.930 . S
C1526 C1527 1.355 . S
C1526 C1528 1.415 . S
C1527 C1526 1.355 . S
C1527 C1529 1.419 1_655 S
C1528 C1526 1.415 . S
C1528 C1533 1.425 1_655 S
C1528 C1535 1.409 . S
C1529 H1521 0.930 . S
C1529 C1527 1.419 1_455 S
C1529 C1530 1.362 . S
C1530 H1522 0.930 . S
C1530 C1529 1.362 . S
C1530 C1533 1.409 . S
C1531 H1523 0.930 . S
C1531 C1532 1.355 . S
C1531 C1533 1.415 . S
C1532 C1531 1.355 . S
C1532 C1534 1.419 1_455 S
C1533 C1528 1.425 1_455 S
C1533 C1530 1.409 . S
C1533 C1531 1.415 . S
C1534 H1524 0.930 . S
C1534 C1532 1.419 1_655 S
C1534 C1535 1.362 . S
C1535 H1525 0.930 . S
C1535 C1528 1.409 . S
C1535 C1534 1.362 . S
H1536 C1542 0.930 . S
H1537 C1545 0.930 . S
H1538 C1546 0.930 . S
H1539 C1547 0.930 . S
H1540 C1550 0.930 . S
H1541 C1551 0.930 . S
C1542 H1536 0.930 . S
C1542 C1543 1.355 . S
C1542 C1544 1.415 . S
C1543 C1542 1.355 . S
C1543 C1545 1.419 1_455 S
C1544 C1542 1.415 . S
C1544 C1549 1.425 1_455 S
C1544 C1551 1.409 . S
C1545 H1537 0.930 . S
C1545 C1543 1.419 1_655 S
C1545 C1546 1.362 . S
C1546 H1538 0.930 . S
C1546 C1545 1.362 . S
C1546 C1549 1.409 . S
C1547 H1539 0.930 . S
C1547 C1548 1.355 . S
C1547 C1549 1.415 . S
C1548 C1547 1.355 . S
C1548 C1550 1.419 1_655 S
C1549 C1544 1.425 1_655 S
C1549 C1546 1.409 . S
C1549 C1547 1.415 . S
C1550 H1540 0.930 . S
C1550 C1548 1.419 1_455 S
C1550 C1551 1.362 . S
C1551 H1541 0.930 . S
C1551 C1544 1.409 . S
C1551 C1550 1.362 . S
H1552 C1558 0.930 . S
H1553 C1561 0.930 . S
H1554 C1562 0.930 . S
H1555 C1563 0.930 . S
H1556 C1566 0.930 . S
H1557 C1567 0.930 . S
C1558 H1552 0.930 . S
C1558 C1559 1.355 . S
C1558 C1560 1.415 1_456 S
C1559 C1558 1.355 . S
C1559 C1561 1.419 . S
C1560 C1558 1.415 1_654 S
C1560 C1565 1.425 1_654 S
C1560 C1567 1.409 . S
C1561 H1553 0.930 . S
C1561 C1559 1.419 . S
C1561 C1562 1.362 . S
C1562 H1554 0.930 . S
C1562 C1561 1.362 . S
C1562 C1565 1.409 . S
C1563 H1555 0.930 . S
C1563 C1564 1.355 . S
C1563 C1565 1.415 1_654 S
C1564 C1563 1.355 . S
C1564 C1566 1.419 . S
C1565 C1560 1.425 1_456 S
C1565 C1562 1.409 . S
C1565 C1563 1.415 1_456 S
C1566 H1556 0.930 . S
C1566 C1564 1.419 . S
C1566 C1567 1.362 . S
C1567 H1557 0.930 . S
C1567 C1560 1.409 . S
C1567 C1566 1.362 . S
H1568 C1574 0.930 . S
H1569 C1577 0.930 . S
H1570 C1578 0.930 . S
H1571 C1579 0.930 . S
H1572 C1582 0.930 . S
H1573 C1583 0.930 . S
C1574 H1568 0.930 . S
C1574 C1575 1.355 . S
C1574 C1576 1.415 . S
C1575 C1574 1.355 . S
C1575 C1577 1.419 . S
C1576 C1574 1.415 . S
C1576 C1581 1.425 . S
C1576 C1583 1.409 . S
C1577 H1569 0.930 . S
C1577 C1575 1.419 . S
C1577 C1578 1.362 . S
C1578 H1570 0.930 . S
C1578 C1577 1.362 . S
C1578 C1581 1.409 . S
C1579 H1571 0.930 . S
C1579 C1580 1.355 . S
C1579 C1581 1.415 . S
C1580 C1579 1.355 . S
C1580 C1582 1.419 . S
C1581 C1576 1.425 . S
C1581 C1578 1.409 . S
C1581 C1579 1.415 . S
C1582 H1572 0.930 . S
C1582 C1580 1.419 . S
C1582 C1583 1.362 . S
C1583 H1573 0.930 . S
C1583 C1576 1.409 . S
C1583 C1582 1.362 . S
H1584 C1590 0.930 . S
H1585 C1593 0.930 . S
H1586 C1594 0.930 . S
H1587 C1595 0.930 . S
H1588 C1598 0.930 . S
H1589 C1599 0.930 . S
C1590 H1584 0.930 . S
C1590 C1591 1.355 . S
C1590 C1592 1.415 . S
C1591 C1590 1.355 . S
C1591 C1593 1.419 . S
C1592 C1590 1.415 . S
C1592 C1597 1.425 . S
C1592 C1599 1.409 . S
C1593 H1585 0.930 . S
C1593 C1591 1.419 . S
C1593 C1594 1.362 . S
C1594 H1586 0.930 . S
C1594 C1593 1.362 . S
C1594 C1597 1.409 . S
C1595 H1587 0.930 . S
C1595 C1596 1.355 . S
C1595 C1597 1.415 . S
C1596 C1595 1.355 . S
C1596 C1598 1.419 . S
C1597 C1592 1.425 . S
C1597 C1594 1.409 . S
C1597 C1595 1.415 . S
C1598 H1588 0.930 . S
C1598 C1596 1.419 . S
C1598 C1599 1.362 . S
C1599 H1589 0.930 . S
C1599 C1592 1.409 . S
C1599 C1598 1.362 . S
H1600 C1606 0.930 . S
H1601 C1609 0.930 . S
H1602 C1610 0.930 . S
H1603 C1611 0.930 . S
H1604 C1614 0.930 . S
H1605 C1615 0.930 . S
C1606 H1600 0.930 . S
C1606 C1607 1.355 . S
C1606 C1608 1.415 . S
C1607 C1606 1.355 . S
C1607 C1609 1.419 . S
C1608 C1606 1.415 . S
C1608 C1613 1.425 . S
C1608 C1615 1.409 . S
C1609 H1601 0.930 . S
C1609 C1607 1.419 . S
C1609 C1610 1.362 . S
C1610 H1602 0.930 . S
C1610 C1609 1.362 . S
C1610 C1613 1.409 . S
C1611 H1603 0.930 . S
C1611 C1612 1.355 . S
C1611 C1613 1.415 . S
C1612 C1611 1.355 . S
C1612 C1614 1.419 . S
C1613 C1608 1.425 . S
C1613 C1610 1.409 . S
C1613 C1611 1.415 . S
C1614 H1604 0.930 . S
C1614 C1612 1.419 . S
C1614 C1615 1.362 . S
C1615 H1605 0.930 . S
C1615 C1608 1.409 . S
C1615 C1614 1.362 . S
H1616 C1622 0.930 . S
H1617 C1625 0.930 . S
H1618 C1626 0.930 . S
H1619 C1627 0.930 . S
H1620 C1630 0.930 . S
H1621 C1631 0.930 . S
C1622 H1616 0.930 . S
C1622 C1623 1.355 . S
C1622 C1624 1.415 . S
C1623 C1622 1.355 . S
C1623 C1625 1.419 . S
C1624 C1622 1.415 . S
C1624 C1629 1.425 . S
C1624 C1631 1.409 . S
C1625 H1617 0.930 . S
C1625 C1623 1.419 . S
C1625 C1626 1.362 . S
C1626 H1618 0.930 . S
C1626 C1625 1.362 . S
C1626 C1629 1.409 . S
C1627 H1619 0.930 . S
C1627 C1628 1.355 . S
C1627 C1629 1.415 . S
C1628 C1627 1.355 . S
C1628 C1630 1.419 . S
C1629 C1624 1.425 . S
C1629 C1626 1.409 . S
C1629 C1627 1.415 . S
C1630 H1620 0.930 . S
C1630 C1628 1.419 . S
C1630 C1631 1.362 . S
C1631 H1621 0.930 . S
C1631 C1624 1.409 . S
C1631 C1630 1.362 . S
H1632 C1638 0.930 . S
H1633 C1641 0.930 . S
H1634 C1642 0.930 . S
H1635 C1643 0.930 . S
H1636 C1646 0.930 . S
H1637 C1647 0.930 . S
C1638 H1632 0.930 . S
C1638 C1639 1.355 . S
C1638 C1640 1.415 . S
C1639 C1638 1.355 . S
C1639 C1641 1.419 . S
C1640 C1638 1.415 . S
C1640 C1645 1.425 . S
C1640 C1647 1.409 . S
C1641 H1633 0.930 . S
C1641 C1639 1.419 . S
C1641 C1642 1.362 . S
C1642 H1634 0.930 . S
C1642 C1641 1.362 . S
C1642 C1645 1.409 . S
C1643 H1635 0.930 . S
C1643 C1644 1.355 . S
C1643 C1645 1.415 . S
C1644 C1643 1.355 . S
C1644 C1646 1.419 . S
C1645 C1640 1.425 . S
C1645 C1642 1.409 . S
C1645 C1643 1.415 . S
C1646 H1636 0.930 . S
C1646 C1644 1.419 . S
C1646 C1647 1.362 . S
C1647 H1637 0.930 . S
C1647 C1640 1.409 . S
C1647 C1646 1.362 . S
H1648 C1654 0.930 . S
H1649 C1657 0.930 . S
H1650 C1658 0.930 . S
H1651 C1659 0.930 . S
H1652 C1662 0.930 . S
H1653 C1663 0.930 . S
C1654 H1648 0.930 . S
C1654 C1655 1.355 . S
C1654 C1656 1.415 . S
C1655 C1654 1.355 . S
C1655 C1657 1.419 . S
C1656 C1654 1.415 . S
C1656 C1661 1.425 . S
C1656 C1663 1.409 . S
C1657 H1649 0.930 . S
C1657 C1655 1.419 . S
C1657 C1658 1.362 . S
C1658 H1650 0.930 . S
C1658 C1657 1.362 . S
C1658 C1661 1.409 . S
C1659 H1651 0.930 . S
C1659 C1660 1.355 . S
C1659 C1661 1.415 . S
C1660 C1659 1.355 . S
C1660 C1662 1.419 . S
C1661 C1656 1.425 . S
C1661 C1658 1.409 . S
C1661 C1659 1.415 . S
C1662 H1652 0.930 . S
C1662 C1660 1.419 . S
C1662 C1663 1.362 . S
C1663 H1653 0.930 . S
C1663 C1656 1.409 . S
C1663 C1662 1.362 . S
H1664 C1670 0.930 . S
H1665 C1673 0.930 . S
H1666 C1674 0.930 . S
H1667 C1675 0.930 . S
H1668 C1678 0.930 . S
H1669 C1679 0.930 . S
C1670 H1664 0.930 . S
C1670 C1671 1.355 . S
C1670 C1672 1.415 . S
C1671 C1670 1.355 . S
C1671 C1673 1.419 . S
C1672 C1670 1.415 . S
C1672 C1677 1.425 . S
C1672 C1679 1.409 . S
C1673 H1665 0.930 . S
C1673 C1671 1.419 . S
C1673 C1674 1.362 . S
C1674 H1666 0.930 . S
C1674 C1673 1.362 . S
C1674 C1677 1.409 . S
C1675 H1667 0.930 . S
C1675 C1676 1.355 . S
C1675 C1677 1.415 . S
C1676 C1675 1.355 . S
C1676 C1678 1.419 . S
C1677 C1672 1.425 . S
C1677 C1674 1.409 . S
C1677 C1675 1.415 . S
C1678 H1668 0.930 . S
C1678 C1676 1.419 . S
C1678 C1679 1.362 . S
C1679 H1669 0.930 . S
C1679 C1672 1.409 . S
C1679 C1678 1.362 . S
H1680 C1686 0.930 . S
H1681 C1689 0.930 . S
H1682 C1690 0.930 . S
H1683 C1691 0.930 . S
H1684 C1694 0.930 . S
H1685 C1695 0.930 . S
C1686 H1680 0.930 . S
C1686 C1687 1.355 . S
C1686 C1688 1.415 . S
C1687 C1686 1.355 . S
C1687 C1689 1.419 . S
C1688 C1686 1.415 . S
C1688 C1693 1.425 . S
C1688 C1695 1.409 . S
C1689 H1681 0.930 . S
C1689 C1687 1.419 . S
C1689 C1690 1.362 . S
C1690 H1682 0.930 . S
C1690 C1689 1.362 . S
C1690 C1693 1.409 . S
C1691 H1683 0.930 . S
C1691 C1692 1.355 . S
C1691 C1693 1.415 . S
C1692 C1691 1.355 . S
C1692 C1694 1.419 . S
C1693 C1688 1.425 . S
C1693 C1690 1.409 . S
C1693 C1691 1.415 . S
C1694 H1684 0.930 . S
C1694 C1692 1.419 . S
C1694 C1695 1.362 . S
C1695 H1685 0.930 . S
C1695 C1688 1.409 . S
C1695 C1694 1.362 . S
H1696 C1702 0.930 . S
H1697 C1705 0.930 . S
H1698 C1706 0.930 . S
H1699 C1707 0.930 . S
H1700 C1710 0.930 1_565 S
H1701 C1711 0.930 . S
C1702 H1696 0.930 . S
C1702 C1703 1.355 . S
C1702 C1704 1.415 . S
C1703 C1702 1.355 . S
C1703 C1705 1.419 . S
C1704 C1702 1.415 . S
C1704 C1709 1.425 . S
C1704 C1711 1.409 . S
C1705 H1697 0.930 . S
C1705 C1703 1.419 . S
C1705 C1706 1.362 . S
C1706 H1698 0.930 . S
C1706 C1705 1.362 . S
C1706 C1709 1.409 . S
C1707 H1699 0.930 . S
C1707 C1708 1.355 . S
C1707 C1709 1.415 . S
C1708 C1707 1.355 . S
C1708 C1710 1.419 . S
C1709 C1704 1.425 . S
C1709 C1706 1.409 . S
C1709 C1707 1.415 . S
C1710 H1700 0.930 1_545 S
C1710 C1708 1.419 . S
C1710 C1711 1.362 . S
C1711 H1701 0.930 . S
C1711 C1704 1.409 . S
C1711 C1710 1.362 . S
H1712 C1718 0.930 . S
H1713 C1721 0.930 . S
H1714 C1722 0.930 . S
H1715 C1723 0.930 . S
H1716 C1726 0.930 . S
H1717 C1727 0.930 . S
C1718 H1712 0.930 . S
C1718 C1719 1.355 . S
C1718 C1720 1.415 1_565 S
C1719 C1718 1.355 . S
C1719 C1721 1.419 . S
C1720 C1718 1.415 1_545 S
C1720 C1725 1.425 . S
C1720 C1727 1.409 . S
C1721 H1713 0.930 . S
C1721 C1719 1.419 . S
C1721 C1722 1.362 1_565 S
C1722 H1714 0.930 . S
C1722 C1721 1.362 1_545 S
C1722 C1725 1.409 . S
C1723 H1715 0.930 . S
C1723 C1724 1.355 . S
C1723 C1725 1.415 . S
C1724 C1723 1.355 . S
C1724 C1726 1.419 . S
C1725 C1720 1.425 . S
C1725 C1722 1.409 . S
C1725 C1723 1.415 . S
C1726 H1716 0.930 . S
C1726 C1724 1.419 . S
C1726 C1727 1.362 . S
C1727 H1717 0.930 . S
C1727 C1720 1.409 . S
C1727 C1726 1.362 . S
H1728 C1734 0.930 . S
H1729 C1737 0.930 . S
H1730 C1738 0.930 . S
H1731 C1739 0.930 . S
H1732 C1742 0.930 . S
H1733 C1743 0.930 . S
C1734 H1728 0.930 . S
C1734 C1735 1.355 . S
C1734 C1736 1.415 1_565 S
C1735 C1734 1.355 . S
C1735 C1737 1.419 . S
C1736 C1734 1.415 1_545 S
C1736 C1741 1.425 . S
C1736 C1743 1.409 . S
C1737 H1729 0.930 . S
C1737 C1735 1.419 . S
C1737 C1738 1.362 1_565 S
C1738 H1730 0.930 . S
C1738 C1737 1.362 1_545 S
C1738 C1741 1.409 . S
C1739 H1731 0.930 . S
C1739 C1740 1.355 . S
C1739 C1741 1.415 . S
C1740 C1739 1.355 . S
C1740 C1742 1.419 . S
C1741 C1736 1.425 . S
C1741 C1738 1.409 . S
C1741 C1739 1.415 . S
C1742 H1732 0.930 . S
C1742 C1740 1.419 . S
C1742 C1743 1.362 . S
C1743 H1733 0.930 . S
C1743 C1736 1.409 . S
C1743 C1742 1.362 . S
H1744 C1750 0.930 . S
H1745 C1753 0.930 . S
H1746 C1754 0.930 . S
H1747 C1755 0.930 . S
H1748 C1758 0.930 . S
H1749 C1759 0.930 . S
C1750 H1744 0.930 . S
C1750 C1751 1.355 . S
C1750 C1752 1.415 . S
C1751 C1750 1.355 . S
C1751 C1753 1.419 . S
C1752 C1750 1.415 . S
C1752 C1757 1.425 . S
C1752 C1759 1.409 . S
C1753 H1745 0.930 . S
C1753 C1751 1.419 . S
C1753 C1754 1.362 . S
C1754 H1746 0.930 . S
C1754 C1753 1.362 . S
C1754 C1757 1.409 . S
C1755 H1747 0.930 . S
C1755 C1756 1.355 . S
C1755 C1757 1.415 . S
C1756 C1755 1.355 . S
C1756 C1758 1.419 . S
C1757 C1752 1.425 . S
C1757 C1754 1.409 . S
C1757 C1755 1.415 . S
C1758 H1748 0.930 . S
C1758 C1756 1.419 . S
C1758 C1759 1.362 . S
C1759 H1749 0.930 . S
C1759 C1752 1.409 . S
C1759 C1758 1.362 . S
H1760 C1766 0.930 . S
H1761 C1769 0.930 . S
H1762 C1770 0.930 . S
H1763 C1771 0.930 . S
H1764 C1774 0.930 . S
H1765 C1775 0.930 . S
C1766 H1760 0.930 . S
C1766 C1767 1.355 . S
C1766 C1768 1.415 . S
C1767 C1766 1.355 . S
C1767 C1769 1.419 . S
C1768 C1766 1.415 . S
C1768 C1773 1.425 . S
C1768 C1775 1.409 . S
C1769 H1761 0.930 . S
C1769 C1767 1.419 . S
C1769 C1770 1.362 . S
C1770 H1762 0.930 . S
C1770 C1769 1.362 . S
C1770 C1773 1.409 . S
C1771 H1763 0.930 . S
C1771 C1772 1.355 . S
C1771 C1773 1.415 . S
C1772 C1771 1.355 . S
C1772 C1774 1.419 . S
C1773 C1768 1.425 . S
C1773 C1770 1.409 . S
C1773 C1771 1.415 . S
C1774 H1764 0.930 . S
C1774 C1772 1.419 . S
C1774 C1775 1.362 . S
C1775 H1765 0.930 . S
C1775 C1768 1.409 . S
C1775 C1774 1.362 . S
H1776 C1782 0.930 . S
H1777 C1785 0.930 . S
H1778 C1786 0.930 . S
H1779 C1787 0.930 . S
H1780 C1790 0.930 . S
H1781 C1791 0.930 . S
C1782 H1776 0.930 . S
C1782 C1783 1.355 . S
C1782 C1784 1.415 1_545 S
C1783 C1782 1.355 . S
C1783 C1785 1.419 . S
C1784 C1782 1.415 1_565 S
C1784 C1789 1.425 . S
C1784 C1791 1.409 . S
C1785 H1777 0.930 . S
C1785 C1783 1.419 . S
C1785 C1786 1.362 1_545 S
C1786 H1778 0.930 . S
C1786 C1785 1.362 1_565 S
C1786 C1789 1.409 . S
C1787 H1779 0.930 . S
C1787 C1788 1.355 . S
C1787 C1789 1.415 . S
C1788 C1787 1.355 . S
C1788 C1790 1.419 . S
C1789 C1784 1.425 . S
C1789 C1786 1.409 . S
C1789 C1787 1.415 . S
C1790 H1780 0.930 . S
C1790 C1788 1.419 . S
C1790 C1791 1.362 . S
C1791 H1781 0.930 . S
C1791 C1784 1.409 . S
C1791 C1790 1.362 . S
H1792 C1798 0.930 . S
H1793 C1801 0.930 . S
H1794 C1802 0.930 . S
H1795 C1803 0.930 . S
H1796 C1806 0.930 . S
H1797 C1807 0.930 . S
C1798 H1792 0.930 . S
C1798 C1799 1.355 . S
C1798 C1800 1.415 1_545 S
C1799 C1798 1.355 . S
C1799 C1801 1.419 . S
C1800 C1798 1.415 1_565 S
C1800 C1805 1.425 . S
C1800 C1807 1.409 . S
C1801 H1793 0.930 . S
C1801 C1799 1.419 . S
C1801 C1802 1.362 1_545 S
C1802 H1794 0.930 . S
C1802 C1801 1.362 1_565 S
C1802 C1805 1.409 . S
C1803 H1795 0.930 . S
C1803 C1804 1.355 . S
C1803 C1805 1.415 . S
C1804 C1803 1.355 . S
C1804 C1806 1.419 . S
C1805 C1800 1.425 . S
C1805 C1802 1.409 . S
C1805 C1803 1.415 . S
C1806 H1796 0.930 . S
C1806 C1804 1.419 . S
C1806 C1807 1.362 . S
C1807 H1797 0.930 . S
C1807 C1800 1.409 . S
C1807 C1806 1.362 . S
H1808 C1814 0.930 . S
H1809 C1817 0.930 . S
H1810 C1818 0.930 . S
H1811 C1819 0.930 . S
H1812 C1822 0.930 . S
H1813 C1823 0.930 . S
C1814 H1808 0.930 . S
C1814 C1815 1.355 . S
C1814 C1816 1.415 . S
C1815 C1814 1.355 . S
C1815 C1817 1.419 . S
C1816 C1814 1.415 . S
C1816 C1821 1.425 . S
C1816 C1823 1.409 . S
C1817 H1809 0.930 . S
C1817 C1815 1.419 . S
C1817 C1818 1.362 . S
C1818 H1810 0.930 . S
C1818 C1817 1.362 . S
C1818 C1821 1.409 . S
C1819 H1811 0.930 . S
C1819 C1820 1.355 . S
C1819 C1821 1.415 . S
C1820 C1819 1.355 . S
C1820 C1822 1.419 . S
C1821 C1816 1.425 . S
C1821 C1818 1.409 . S
C1821 C1819 1.415 . S
C1822 H1812 0.930 . S
C1822 C1820 1.419 . S
C1822 C1823 1.362 . S
C1823 H1813 0.930 . S
C1823 C1816 1.409 . S
C1823 C1822 1.362 . S
H1824 C1830 0.930 . S
H1825 C1833 0.930 . S
H1826 C1834 0.930 . S
H1827 C1835 0.930 . S
H1828 C1838 0.930 . S
H1829 C1839 0.930 . S
C1830 H1824 0.930 . S
C1830 C1831 1.355 . S
C1830 C1832 1.415 . S
C1831 C1830 1.355 . S
C1831 C1833 1.419 . S
C1832 C1830 1.415 . S
C1832 C1837 1.425 . S
C1832 C1839 1.409 . S
C1833 H1825 0.930 . S
C1833 C1831 1.419 . S
C1833 C1834 1.362 . S
C1834 H1826 0.930 . S
C1834 C1833 1.362 . S
C1834 C1837 1.409 . S
C1835 H1827 0.930 . S
C1835 C1836 1.355 . S
C1835 C1837 1.415 . S
C1836 C1835 1.355 . S
C1836 C1838 1.419 . S
C1837 C1832 1.425 . S
C1837 C1834 1.409 . S
C1837 C1835 1.415 . S
C1838 H1828 0.930 . S
C1838 C1836 1.419 . S
C1838 C1839 1.362 . S
C1839 H1829 0.930 . S
C1839 C1832 1.409 . S
C1839 C1838 1.362 . S
H1840 C1846 0.930 . S
H1841 C1849 0.930 . S
H1842 C1850 0.930 . S
H1843 C1851 0.930 . S
H1844 C1854 0.930 . S
H1845 C1855 0.930 . S
C1846 H1840 0.930 . S
C1846 C1847 1.355 . S
C1846 C1848 1.415 . S
C1847 C1846 1.355 . S
C1847 C1849 1.419 . S
C1848 C1846 1.415 . S
C1848 C1853 1.425 . S
C1848 C1855 1.409 . S
C1849 H1841 0.930 . S
C1849 C1847 1.419 . S
C1849 C1850 1.362 . S
C1850 H1842 0.930 . S
C1850 C1849 1.362 . S
C1850 C1853 1.409 . S
C1851 H1843 0.930 . S
C1851 C1852 1.355 . S
C1851 C1853 1.415 . S
C1852 C1851 1.355 . S
C1852 C1854 1.419 . S
C1853 C1848 1.425 . S
C1853 C1850 1.409 . S
C1853 C1851 1.415 . S
C1854 H1844 0.930 . S
C1854 C1852 1.419 . S
C1854 C1855 1.362 . S
C1855 H1845 0.930 . S
C1855 C1848 1.409 . S
C1855 C1854 1.362 . S
H1856 C1862 0.930 . S
H1857 C1865 0.930 . S
H1858 C1866 0.930 . S
H1859 C1867 0.930 . S
H1860 C1870 0.930 . S
H1861 C1871 0.930 . S
C1862 H1856 0.930 . S
C1862 C1863 1.355 . S
C1862 C1864 1.415 . S
C1863 C1862 1.355 . S
C1863 C1865 1.419 . S
C1864 C1862 1.415 . S
C1864 C1869 1.425 . S
C1864 C1871 1.409 . S
C1865 H1857 0.930 . S
C1865 C1863 1.419 . S
C1865 C1866 1.362 . S
C1866 H1858 0.930 . S
C1866 C1865 1.362 . S
C1866 C1869 1.409 . S
C1867 H1859 0.930 . S
C1867 C1868 1.355 . S
C1867 C1869 1.415 . S
C1868 C1867 1.355 . S
C1868 C1870 1.419 . S
C1869 C1864 1.425 . S
C1869 C1866 1.409 . S
C1869 C1867 1.415 . S
C1870 H1860 0.930 . S
C1870 C1868 1.419 . S
C1870 C1871 1.362 . S
C1871 H1861 0.930 . S
C1871 C1864 1.409 . S
C1871 C1870 1.362 . S
H1872 C1878 0.930 . S
H1873 C1881 0.930 . S
H1874 C1882 0.930 . S
H1875 C1883 0.930 . S
H1876 C1886 0.930 . S
H1877 C1887 0.930 . S
C1878 H1872 0.930 . S
C1878 C1879 1.355 . S
C1878 C1880 1.415 . S
C1879 C1878 1.355 . S
C1879 C1881 1.419 . S
C1880 C1878 1.415 . S
C1880 C1885 1.425 . S
C1880 C1887 1.409 . S
C1881 H1873 0.930 . S
C1881 C1879 1.419 . S
C1881 C1882 1.362 . S
C1882 H1874 0.930 . S
C1882 C1881 1.362 . S
C1882 C1885 1.409 . S
C1883 H1875 0.930 . S
C1883 C1884 1.355 . S
C1883 C1885 1.415 . S
C1884 C1883 1.355 . S
C1884 C1886 1.419 . S
C1885 C1880 1.425 . S
C1885 C1882 1.409 . S
C1885 C1883 1.415 . S
C1886 H1876 0.930 . S
C1886 C1884 1.419 . S
C1886 C1887 1.362 . S
C1887 H1877 0.930 . S
C1887 C1880 1.409 . S
C1887 C1886 1.362 . S
H1888 C1894 0.930 . S
H1889 C1897 0.930 . S
H1890 C1898 0.930 . S
H1891 C1899 0.930 . S
H1892 C1902 0.930 . S
H1893 C1903 0.930 . S
C1894 H1888 0.930 . S
C1894 C1895 1.355 . S
C1894 C1896 1.415 . S
C1895 C1894 1.355 . S
C1895 C1897 1.419 . S
C1896 C1894 1.415 . S
C1896 C1901 1.425 . S
C1896 C1903 1.409 . S
C1897 H1889 0.930 . S
C1897 C1895 1.419 . S
C1897 C1898 1.362 . S
C1898 H1890 0.930 . S
C1898 C1897 1.362 . S
C1898 C1901 1.409 . S
C1899 H1891 0.930 . S
C1899 C1900 1.355 . S
C1899 C1901 1.415 . S
C1900 C1899 1.355 . S
C1900 C1902 1.419 . S
C1901 C1896 1.425 . S
C1901 C1898 1.409 . S
C1901 C1899 1.415 . S
C1902 H1892 0.930 . S
C1902 C1900 1.419 . S
C1902 C1903 1.362 . S
C1903 H1893 0.930 . S
C1903 C1896 1.409 . S
C1903 C1902 1.362 . S
H1904 C1910 0.930 . S
H1905 C1913 0.930 . S
H1906 C1914 0.930 . S
H1907 C1915 0.930 . S
H1908 C1918 0.930 . S
H1909 C1919 0.930 . S
C1910 H1904 0.930 . S
C1910 C1911 1.355 . S
C1910 C1912 1.415 . S
C1911 C1910 1.355 . S
C1911 C1913 1.419 . S
C1912 C1910 1.415 . S
C1912 C1917 1.425 . S
C1912 C1919 1.409 . S
C1913 H1905 0.930 . S
C1913 C1911 1.419 . S
C1913 C1914 1.362 . S
C1914 H1906 0.930 . S
C1914 C1913 1.362 . S
C1914 C1917 1.409 . S
C1915 H1907 0.930 . S
C1915 C1916 1.355 . S
C1915 C1917 1.415 . S
C1916 C1915 1.355 . S
C1916 C1918 1.419 . S
C1917 C1912 1.425 . S
C1917 C1914 1.409 . S
C1917 C1915 1.415 . S
C1918 H1908 0.930 . S
C1918 C1916 1.419 . S
C1918 C1919 1.362 . S
C1919 H1909 0.930 . S
C1919 C1912 1.409 . S
C1919 C1918 1.362 . S
H1920 C1926 0.930 . S
H1921 C1929 0.930 . S
H1922 C1930 0.930 . S
H1923 C1931 0.930 . S
H1924 C1934 0.930 . S
H1925 C1935 0.930 . S
C1926 H1920 0.930 . S
C1926 C1927 1.355 . S
C1926 C1928 1.415 . S
C1927 C1926 1.355 . S
C1927 C1929 1.419 . S
C1928 C1926 1.415 . S
C1928 C1933 1.425 . S
C1928 C1935 1.409 . S
C1929 H1921 0.930 . S
C1929 C1927 1.419 . S
C1929 C1930 1.362 . S
C1930 H1922 0.930 . S
C1930 C1929 1.362 . S
C1930 C1933 1.409 . S
C1931 H1923 0.930 . S
C1931 C1932 1.355 . S
C1931 C1933 1.415 . S
C1932 C1931 1.355 . S
C1932 C1934 1.419 . S
C1933 C1928 1.425 . S
C1933 C1930 1.409 . S
C1933 C1931 1.415 . S
C1934 H1924 0.930 . S
C1934 C1932 1.419 . S
C1934 C1935 1.362 . S
C1935 H1925 0.930 . S
C1935 C1928 1.409 . S
C1935 C1934 1.362 . S
H1936 C1942 0.930 . S
H1937 C1945 0.930 . S
H1938 C1946 0.930 . S
H1939 C1947 0.930 . S
H1940 C1950 0.930 . S
H1941 C1951 0.930 . S
C1942 H1936 0.930 . S
C1942 C1943 1.355 . S
C1942 C1944 1.415 . S
C1943 C1942 1.355 . S
C1943 C1945 1.419 . S
C1944 C1942 1.415 . S
C1944 C1949 1.425 . S
C1944 C1951 1.409 . S
C1945 H1937 0.930 . S
C1945 C1943 1.419 . S
C1945 C1946 1.362 . S
C1946 H1938 0.930 . S
C1946 C1945 1.362 . S
C1946 C1949 1.409 . S
C1947 H1939 0.930 . S
C1947 C1948 1.355 . S
C1947 C1949 1.415 . S
C1948 C1947 1.355 . S
C1948 C1950 1.419 . S
C1949 C1944 1.425 . S
C1949 C1946 1.409 . S
C1949 C1947 1.415 . S
C1950 H1940 0.930 . S
C1950 C1948 1.419 . S
C1950 C1951 1.362 . S
C1951 H1941 0.930 . S
C1951 C1944 1.409 . S
C1951 C1950 1.362 . S
H1952 C1958 0.930 . S
H1953 C1961 0.930 . S
H1954 C1962 0.930 . S
H1955 C1963 0.930 . S
H1956 C1966 0.930 . S
H1957 C1967 0.930 . S
C1958 H1952 0.930 . S
C1958 C1959 1.355 . S
C1958 C1960 1.415 . S
C1959 C1958 1.355 . S
C1959 C1961 1.419 . S
C1960 C1958 1.415 . S
C1960 C1965 1.425 . S
C1960 C1967 1.409 . S
C1961 H1953 0.930 . S
C1961 C1959 1.419 . S
C1961 C1962 1.362 . S
C1962 H1954 0.930 . S
C1962 C1961 1.362 . S
C1962 C1965 1.409 . S
C1963 H1955 0.930 . S
C1963 C1964 1.355 . S
C1963 C1965 1.415 . S
C1964 C1963 1.355 . S
C1964 C1966 1.419 . S
C1965 C1960 1.425 . S
C1965 C1962 1.409 . S
C1965 C1963 1.415 . S
C1966 H1956 0.930 . S
C1966 C1964 1.419 . S
C1966 C1967 1.362 . S
C1967 H1957 0.930 . S
C1967 C1960 1.409 . S
C1967 C1966 1.362 . S
H1968 C1974 0.930 . S
H1969 C1977 0.930 . S
H1970 C1978 0.930 1_545 S
H1971 C1979 0.930 . S
H1972 C1982 0.930 . S
H1973 C1983 0.930 . S
C1974 H1968 0.930 . S
C1974 C1975 1.355 . S
C1974 C1976 1.415 1_565 S
C1975 C1974 1.355 . S
C1975 C1977 1.419 . S
C1976 C1974 1.415 1_545 S
C1976 C1981 1.425 . S
C1976 C1983 1.409 . S
C1977 H1969 0.930 . S
C1977 C1975 1.419 . S
C1977 C1978 1.362 . S
C1978 H1970 0.930 1_565 S
C1978 C1977 1.362 . S
C1978 C1981 1.409 1_565 S
C1979 H1971 0.930 . S
C1979 C1980 1.355 . S
C1979 C1981 1.415 . S
C1980 C1979 1.355 . S
C1980 C1982 1.419 . S
C1981 C1976 1.425 . S
C1981 C1978 1.409 1_545 S
C1981 C1979 1.415 . S
C1982 H1972 0.930 . S
C1982 C1980 1.419 . S
C1982 C1983 1.362 . S
C1983 H1973 0.930 . S
C1983 C1976 1.409 . S
C1983 C1982 1.362 . S
H1984 C1990 0.930 . S
H1985 C1993 0.930 . S
H1986 C1994 0.930 . S
H1987 C1995 0.930 . S
H1988 C1998 0.930 . S
H1989 C1999 0.930 . S
C1990 H1984 0.930 . S
C1990 C1991 1.355 . S
C1990 C1992 1.415 1_565 S
C1991 C1990 1.355 . S
C1991 C1993 1.419 . S
C1992 C1990 1.415 1_545 S
C1992 C1997 1.425 . S
C1992 C1999 1.409 . S
C1993 H1985 0.930 . S
C1993 C1991 1.419 . S
C1993 C1994 1.362 1_565 S
C1994 H1986 0.930 . S
C1994 C1993 1.362 1_545 S
C1994 C1997 1.409 . S
C1995 H1987 0.930 . S
C1995 C1996 1.355 . S
C1995 C1997 1.415 . S
C1996 C1995 1.355 . S
C1996 C1998 1.419 . S
C1997 C1992 1.425 . S
C1997 C1994 1.409 . S
C1997 C1995 1.415 . S
C1998 H1988 0.930 . S
C1998 C1996 1.419 . S
C1998 C1999 1.362 . S
C1999 H1989 0.930 . S
C1999 C1992 1.409 . S
C1999 C1998 1.362 . S
H2000 C2006 0.930 . S
H2001 C2009 0.930 . S
H2002 C2010 0.930 . S
H2003 C2011 0.930 . S
H2004 C2014 0.930 . S
H2005 C2015 0.930 . S
C2006 H2000 0.930 . S
C2006 C2007 1.355 . S
C2006 C2008 1.415 . S
C2007 C2006 1.355 . S
C2007 C2009 1.419 . S
C2008 C2006 1.415 . S
C2008 C2013 1.425 . S
C2008 C2015 1.409 . S
C2009 H2001 0.930 . S
C2009 C2007 1.419 . S
C2009 C2010 1.362 . S
C2010 H2002 0.930 . S
C2010 C2009 1.362 . S
C2010 C2013 1.409 . S
C2011 H2003 0.930 . S
C2011 C2012 1.355 . S
C2011 C2013 1.415 . S
C2012 C2011 1.355 . S
C2012 C2014 1.419 . S
C2013 C2008 1.425 . S
C2013 C2010 1.409 . S
C2013 C2011 1.415 . S
C2014 H2004 0.930 . S
C2014 C2012 1.419 . S
C2014 C2015 1.362 . S
C2015 H2005 0.930 . S
C2015 C2008 1.409 . S
C2015 C2014 1.362 . S
H2016 C2022 0.930 . S
H2017 C2025 0.930 . S
H2018 C2026 0.930 . S
H2019 C2027 0.930 . S
H2020 C2030 0.930 . S
H2021 C2031 0.930 . S
C2022 H2016 0.930 . S
C2022 C2023 1.355 . S
C2022 C2024 1.415 . S
C2023 C2022 1.355 . S
C2023 C2025 1.419 . S
C2024 C2022 1.415 . S
C2024 C2029 1.425 . S
C2024 C2031 1.409 . S
C2025 H2017 0.930 . S
C2025 C2023 1.419 . S
C2025 C2026 1.362 . S
C2026 H2018 0.930 . S
C2026 C2025 1.362 . S
C2026 C2029 1.409 . S
C2027 H2019 0.930 . S
C2027 C2028 1.355 . S
C2027 C2029 1.415 . S
C2028 C2027 1.355 . S
C2028 C2030 1.419 . S
C2029 C2024 1.425 . S
C2029 C2026 1.409 . S
C2029 C2027 1.415 . S
C2030 H2020 0.930 . S
C2030 C2028 1.419 . S
C2030 C2031 1.362 . S
C2031 H2021 0.930 . S
C2031 C2024 1.409 . S
C2031 C2030 1.362 . S
H2032 C2038 0.930 . S
H2033 C2041 0.930 . S
H2034 C2042 0.930 . S
H2035 C2043 0.930 . S
H2036 C2046 0.930 . S
H2037 C2047 0.930 . S
C2038 H2032 0.930 . S
C2038 C2039 1.355 . S
C2038 C2040 1.415 . S
C2039 C2038 1.355 . S
C2039 C2041 1.419 . S
C2040 C2038 1.415 . S
C2040 C2045 1.425 . S
C2040 C2047 1.409 . S
C2041 H2033 0.930 . S
C2041 C2039 1.419 . S
C2041 C2042 1.362 . S
C2042 H2034 0.930 . S
C2042 C2041 1.362 . S
C2042 C2045 1.409 . S
C2043 H2035 0.930 . S
C2043 C2044 1.355 . S
C2043 C2045 1.415 1_545 S
C2044 C2043 1.355 . S
C2044 C2046 1.419 . S
C2045 C2040 1.425 . S
C2045 C2042 1.409 . S
C2045 C2043 1.415 1_565 S
C2046 H2036 0.930 . S
C2046 C2044 1.419 . S
C2046 C2047 1.362 1_545 S
C2047 H2037 0.930 . S
C2047 C2040 1.409 . S
C2047 C2046 1.362 1_565 S
H2048 C2054 0.930 . S
H2049 C2057 0.930 . S
H2050 C2058 0.930 . S
H2051 C2059 0.930 . S
H2052 C2062 0.930 . S
H2053 C2063 0.930 1_565 S
C2054 H2048 0.930 . S
C2054 C2055 1.355 . S
C2054 C2056 1.415 . S
C2055 C2054 1.355 . S
C2055 C2057 1.419 . S
C2056 C2054 1.415 . S
C2056 C2061 1.425 . S
C2056 C2063 1.409 1_565 S
C2057 H2049 0.930 . S
C2057 C2055 1.419 . S
C2057 C2058 1.362 . S
C2058 H2050 0.930 . S
C2058 C2057 1.362 . S
C2058 C2061 1.409 . S
C2059 H2051 0.930 . S
C2059 C2060 1.355 . S
C2059 C2061 1.415 1_545 S
C2060 C2059 1.355 . S
C2060 C2062 1.419 . S
C2061 C2056 1.425 . S
C2061 C2058 1.409 . S
C2061 C2059 1.415 1_565 S
C2062 H2052 0.930 . S
C2062 C2060 1.419 . S
C2062 C2063 1.362 . S
C2063 H2053 0.930 1_545 S
C2063 C2056 1.409 1_545 S
C2063 C2062 1.362 . S
H2064 C2070 0.930 . S
H2065 C2073 0.930 . S
H2066 C2074 0.930 . S
H2067 C2075 0.930 . S
H2068 C2078 0.930 . S
H2069 C2079 0.930 . S
C2070 H2064 0.930 . S
C2070 C2071 1.355 . S
C2070 C2072 1.415 . S
C2071 C2070 1.355 . S
C2071 C2073 1.419 . S
C2072 C2070 1.415 . S
C2072 C2077 1.425 . S
C2072 C2079 1.409 . S
C2073 H2065 0.930 . S
C2073 C2071 1.419 . S
C2073 C2074 1.362 . S
C2074 H2066 0.930 . S
C2074 C2073 1.362 . S
C2074 C2077 1.409 . S
C2075 H2067 0.930 . S
C2075 C2076 1.355 . S
C2075 C2077 1.415 . S
C2076 C2075 1.355 . S
C2076 C2078 1.419 . S
C2077 C2072 1.425 . S
C2077 C2074 1.409 . S
C2077 C2075 1.415 . S
C2078 H2068 0.930 . S
C2078 C2076 1.419 . S
C2078 C2079 1.362 . S
C2079 H2069 0.930 . S
C2079 C2072 1.409 . S
C2079 C2078 1.362 . S
H2080 C2086 0.930 . S
H2081 C2089 0.930 . S
H2082 C2090 0.930 . S
H2083 C2091 0.930 . S
H2084 C2094 0.930 . S
H2085 C2095 0.930 . S
C2086 H2080 0.930 . S
C2086 C2087 1.355 . S
C2086 C2088 1.415 . S
C2087 C2086 1.355 . S
C2087 C2089 1.419 . S
C2088 C2086 1.415 . S
C2088 C2093 1.425 . S
C2088 C2095 1.409 . S
C2089 H2081 0.930 . S
C2089 C2087 1.419 . S
C2089 C2090 1.362 . S
C2090 H2082 0.930 . S
C2090 C2089 1.362 . S
C2090 C2093 1.409 . S
C2091 H2083 0.930 . S
C2091 C2092 1.355 . S
C2091 C2093 1.415 . S
C2092 C2091 1.355 . S
C2092 C2094 1.419 . S
C2093 C2088 1.425 . S
C2093 C2090 1.409 . S
C2093 C2091 1.415 . S
C2094 H2084 0.930 . S
C2094 C2092 1.419 . S
C2094 C2095 1.362 . S
C2095 H2085 0.930 . S
C2095 C2088 1.409 . S
C2095 C2094 1.362 . S
H2096 C2102 0.930 . S
H2097 C2105 0.930 . S
H2098 C2106 0.930 . S
H2099 C2107 0.930 . S
H2100 C2110 0.930 . S
H2101 C2111 0.930 . S
C2102 H2096 0.930 . S
C2102 C2103 1.355 . S
C2102 C2104 1.415 . S
C2103 C2102 1.355 . S
C2103 C2105 1.419 . S
C2104 C2102 1.415 . S
C2104 C2109 1.425 . S
C2104 C2111 1.409 . S
C2105 H2097 0.930 . S
C2105 C2103 1.419 . S
C2105 C2106 1.362 . S
C2106 H2098 0.930 . S
C2106 C2105 1.362 . S
C2106 C2109 1.409 . S
C2107 H2099 0.930 . S
C2107 C2108 1.355 . S
C2107 C2109 1.415 . S
C2108 C2107 1.355 . S
C2108 C2110 1.419 . S
C2109 C2104 1.425 . S
C2109 C2106 1.409 . S
C2109 C2107 1.415 . S
C2110 H2100 0.930 . S
C2110 C2108 1.419 . S
C2110 C2111 1.362 . S
C2111 H2101 0.930 . S
C2111 C2104 1.409 . S
C2111 C2110 1.362 . S
H2112 C2118 0.930 . S
H2113 C2121 0.930 . S
H2114 C2122 0.930 . S
H2115 C2123 0.930 . S
H2116 C2126 0.930 . S
H2117 C2127 0.930 . S
C2118 H2112 0.930 . S
C2118 C2119 1.355 . S
C2118 C2120 1.415 . S
C2119 C2118 1.355 . S
C2119 C2121 1.419 . S
C2120 C2118 1.415 . S
C2120 C2125 1.425 . S
C2120 C2127 1.409 . S
C2121 H2113 0.930 . S
C2121 C2119 1.419 . S
C2121 C2122 1.362 . S
C2122 H2114 0.930 . S
C2122 C2121 1.362 . S
C2122 C2125 1.409 . S
C2123 H2115 0.930 . S
C2123 C2124 1.355 . S
C2123 C2125 1.415 . S
C2124 C2123 1.355 . S
C2124 C2126 1.419 . S
C2125 C2120 1.425 . S
C2125 C2122 1.409 . S
C2125 C2123 1.415 . S
C2126 H2116 0.930 . S
C2126 C2124 1.419 . S
C2126 C2127 1.362 . S
C2127 H2117 0.930 . S
C2127 C2120 1.409 . S
C2127 C2126 1.362 . S
H2128 C2134 0.930 . S
H2129 C2137 0.930 . S
H2130 C2138 0.930 . S
H2131 C2139 0.930 . S
H2132 C2142 0.930 . S
H2133 C2143 0.930 . S
C2134 H2128 0.930 . S
C2134 C2135 1.355 . S
C2134 C2136 1.415 . S
C2135 C2134 1.355 . S
C2135 C2137 1.419 . S
C2136 C2134 1.415 . S
C2136 C2141 1.425 . S
C2136 C2143 1.409 . S
C2137 H2129 0.930 . S
C2137 C2135 1.419 . S
C2137 C2138 1.362 . S
C2138 H2130 0.930 . S
C2138 C2137 1.362 . S
C2138 C2141 1.409 . S
C2139 H2131 0.930 . S
C2139 C2140 1.355 . S
C2139 C2141 1.415 . S
C2140 C2139 1.355 . S
C2140 C2142 1.419 . S
C2141 C2136 1.425 . S
C2141 C2138 1.409 . S
C2141 C2139 1.415 . S
C2142 H2132 0.930 . S
C2142 C2140 1.419 . S
C2142 C2143 1.362 . S
C2143 H2133 0.930 . S
C2143 C2136 1.409 . S
C2143 C2142 1.362 . S
H2144 C2150 0.930 . S
H2145 C2153 0.930 . S
H2146 C2154 0.930 . S
H2147 C2155 0.930 . S
H2148 C2158 0.930 . S
H2149 C2159 0.930 . S
C2150 H2144 0.930 . S
C2150 C2151 1.355 . S
C2150 C2152 1.415 . S
C2151 C2150 1.355 . S
C2151 C2153 1.419 . S
C2152 C2150 1.415 . S
C2152 C2157 1.425 . S
C2152 C2159 1.409 . S
C2153 H2145 0.930 . S
C2153 C2151 1.419 . S
C2153 C2154 1.362 . S
C2154 H2146 0.930 . S
C2154 C2153 1.362 . S
C2154 C2157 1.409 . S
C2155 H2147 0.930 . S
C2155 C2156 1.355 . S
C2155 C2157 1.415 . S
C2156 C2155 1.355 . S
C2156 C2158 1.419 . S
C2157 C2152 1.425 . S
C2157 C2154 1.409 . S
C2157 C2155 1.415 . S
C2158 H2148 0.930 . S
C2158 C2156 1.419 . S
C2158 C2159 1.362 . S
C2159 H2149 0.930 . S
C2159 C2152 1.409 . S
C2159 C2158 1.362 . S
H2160 C2166 0.930 . S
H2161 C2169 0.930 . S
H2162 C2170 0.930 1_565 S
H2163 C2171 0.930 . S
H2164 C2174 0.930 . S
H2165 C2175 0.930 . S
C2166 H2160 0.930 . S
C2166 C2167 1.355 . S
C2166 C2168 1.415 . S
C2167 C2166 1.355 . S
C2167 C2169 1.419 1_545 S
C2168 C2166 1.415 . S
C2168 C2173 1.425 . S
C2168 C2175 1.409 . S
C2169 H2161 0.930 . S
C2169 C2167 1.419 1_565 S
C2169 C2170 1.362 1_565 S
C2170 H2162 0.930 1_545 S
C2170 C2169 1.362 1_545 S
C2170 C2173 1.409 . S
C2171 H2163 0.930 . S
C2171 C2172 1.355 . S
C2171 C2173 1.415 . S
C2172 C2171 1.355 . S
C2172 C2174 1.419 . S
C2173 C2168 1.425 . S
C2173 C2170 1.409 . S
C2173 C2171 1.415 . S
C2174 H2164 0.930 . S
C2174 C2172 1.419 . S
C2174 C2175 1.362 . S
C2175 H2165 0.930 . S
C2175 C2168 1.409 . S
C2175 C2174 1.362 . S
H2176 C2182 0.930 . S
H2177 C2185 0.930 . S
H2178 C2186 0.930 . S
H2179 C2187 0.930 . S
H2180 C2190 0.930 . S
H2181 C2191 0.930 1_565 S
C2182 H2176 0.930 . S
C2182 C2183 1.355 . S
C2182 C2184 1.415 . S
C2183 C2182 1.355 . S
C2183 C2185 1.419 . S
C2184 C2182 1.415 . S
C2184 C2189 1.425 . S
C2184 C2191 1.409 . S
C2185 H2177 0.930 . S
C2185 C2183 1.419 . S
C2185 C2186 1.362 . S
C2186 H2178 0.930 . S
C2186 C2185 1.362 . S
C2186 C2189 1.409 . S
C2187 H2179 0.930 . S
C2187 C2188 1.355 . S
C2187 C2189 1.415 . S
C2188 C2187 1.355 . S
C2188 C2190 1.419 1_545 S
C2189 C2184 1.425 . S
C2189 C2186 1.409 . S
C2189 C2187 1.415 . S
C2190 H2180 0.930 . S
C2190 C2188 1.419 1_565 S
C2190 C2191 1.362 1_565 S
C2191 H2181 0.930 1_545 S
C2191 C2184 1.409 . S
C2191 C2190 1.362 1_545 S
H2192 C2198 0.930 . S
H2193 C2201 0.930 . S
H2194 C2202 0.930 . S
H2195 C2203 0.930 . S
H2196 C2206 0.930 . S
H2197 C2207 0.930 . S
C2198 H2192 0.930 . S
C2198 C2199 1.355 . S
C2198 C2200 1.415 . S
C2199 C2198 1.355 . S
C2199 C2201 1.419 . S
C2200 C2198 1.415 . S
C2200 C2205 1.425 . S
C2200 C2207 1.409 . S
C2201 H2193 0.930 . S
C2201 C2199 1.419 . S
C2201 C2202 1.362 . S
C2202 H2194 0.930 . S
C2202 C2201 1.362 . S
C2202 C2205 1.409 . S
C2203 H2195 0.930 . S
C2203 C2204 1.355 . S
C2203 C2205 1.415 . S
C2204 C2203 1.355 . S
C2204 C2206 1.419 . S
C2205 C2200 1.425 . S
C2205 C2202 1.409 . S
C2205 C2203 1.415 . S
C2206 H2196 0.930 . S
C2206 C2204 1.419 . S
C2206 C2207 1.362 . S
C2207 H2197 0.930 . S
C2207 C2200 1.409 . S
C2207 C2206 1.362 . S
H2208 C2214 0.930 . S
H2209 C2217 0.930 . S
H2210 C2218 0.930 . S
H2211 C2219 0.930 1_545 S
H2212 C2222 0.930 . S
H2213 C2223 0.930 . S
C2214 H2208 0.930 . S
C2214 C2215 1.355 . S
C2214 C2216 1.415 . S
C2215 C2214 1.355 . S
C2215 C2217 1.419 . S
C2216 C2214 1.415 . S
C2216 C2221 1.425 . S
C2216 C2223 1.409 . S
C2217 H2209 0.930 . S
C2217 C2215 1.419 . S
C2217 C2218 1.362 . S
C2218 H2210 0.930 . S
C2218 C2217 1.362 . S
C2218 C2221 1.409 . S
C2219 H2211 0.930 1_565 S
C2219 C2220 1.355 . S
C2219 C2221 1.415 . S
C2220 C2219 1.355 . S
C2220 C2222 1.419 . S
C2221 C2216 1.425 . S
C2221 C2218 1.409 . S
C2221 C2219 1.415 . S
C2222 H2212 0.930 . S
C2222 C2220 1.419 . S
C2222 C2223 1.362 . S
C2223 H2213 0.930 . S
C2223 C2216 1.409 . S
C2223 C2222 1.362 . S
H2224 C2230 0.930 . S
H2225 C2233 0.930 . S
H2226 C2234 0.930 . S
H2227 C2235 0.930 . S
H2228 C2238 0.930 . S
H2229 C2239 0.930 . S
C2230 H2224 0.930 . S
C2230 C2231 1.355 . S
C2230 C2232 1.415 . S
C2231 C2230 1.355 . S
C2231 C2233 1.419 . S
C2232 C2230 1.415 . S
C2232 C2237 1.425 . S
C2232 C2239 1.409 . S
C2233 H2225 0.930 . S
C2233 C2231 1.419 . S
C2233 C2234 1.362 . S
C2234 H2226 0.930 . S
C2234 C2233 1.362 . S
C2234 C2237 1.409 . S
C2235 H2227 0.930 . S
C2235 C2236 1.355 . S
C2235 C2237 1.415 . S
C2236 C2235 1.355 . S
C2236 C2238 1.419 . S
C2237 C2232 1.425 . S
C2237 C2234 1.409 . S
C2237 C2235 1.415 . S
C2238 H2228 0.930 . S
C2238 C2236 1.419 . S
C2238 C2239 1.362 . S
C2239 H2229 0.930 . S
C2239 C2232 1.409 . S
C2239 C2238 1.362 . S
H2240 C2246 0.930 . S
H2241 C2249 0.930 . S
H2242 C2250 0.930 . S
H2243 C2251 0.930 . S
H2244 C2254 0.930 . S
H2245 C2255 0.930 . S
C2246 H2240 0.930 . S
C2246 C2247 1.355 . S
C2246 C2248 1.415 . S
C2247 C2246 1.355 . S
C2247 C2249 1.419 . S
C2248 C2246 1.415 . S
C2248 C2253 1.425 . S
C2248 C2255 1.409 . S
C2249 H2241 0.930 . S
C2249 C2247 1.419 . S
C2249 C2250 1.362 . S
C2250 H2242 0.930 . S
C2250 C2249 1.362 . S
C2250 C2253 1.409 . S
C2251 H2243 0.930 . S
C2251 C2252 1.355 . S
C2251 C2253 1.415 . S
C2252 C2251 1.355 . S
C2252 C2254 1.419 . S
C2253 C2248 1.425 . S
C2253 C2250 1.409 . S
C2253 C2251 1.415 . S
C2254 H2244 0.930 . S
C2254 C2252 1.419 . S
C2254 C2255 1.362 . S
C2255 H2245 0.930 . S
C2255 C2248 1.409 . S
C2255 C2254 1.362 . S
H2256 C2262 0.930 . S
H2257 C2265 0.930 . S
H2258 C2266 0.930 . S
H2259 C2267 0.930 1_545 S
H2260 C2270 0.930 . S
H2261 C2271 0.930 . S
C2262 H2256 0.930 . S
C2262 C2263 1.355 . S
C2262 C2264 1.415 . S
C2263 C2262 1.355 . S
C2263 C2265 1.419 . S
C2264 C2262 1.415 . S
C2264 C2269 1.425 . S
C2264 C2271 1.409 . S
C2265 H2257 0.930 . S
C2265 C2263 1.419 . S
C2265 C2266 1.362 . S
C2266 H2258 0.930 . S
C2266 C2265 1.362 . S
C2266 C2269 1.409 . S
C2267 H2259 0.930 1_565 S
C2267 C2268 1.355 . S
C2267 C2269 1.415 . S
C2268 C2267 1.355 . S
C2268 C2270 1.419 . S
C2269 C2264 1.425 . S
C2269 C2266 1.409 . S
C2269 C2267 1.415 . S
C2270 H2260 0.930 . S
C2270 C2268 1.419 . S
C2270 C2271 1.362 . S
C2271 H2261 0.930 . S
C2271 C2264 1.409 . S
C2271 C2270 1.362 . S
H2272 C2278 0.930 1_565 S
H2273 C2281 0.930 . S
H2274 C2282 0.930 . S
H2275 C2283 0.930 . S
H2276 C2286 0.930 . S
H2277 C2287 0.930 . S
C2278 H2272 0.930 1_545 S
C2278 C2279 1.355 . S
C2278 C2280 1.415 . S
C2279 C2278 1.355 . S
C2279 C2281 1.419 . S
C2280 C2278 1.415 . S
C2280 C2285 1.425 . S
C2280 C2287 1.409 . S
C2281 H2273 0.930 . S
C2281 C2279 1.419 . S
C2281 C2282 1.362 . S
C2282 H2274 0.930 . S
C2282 C2281 1.362 . S
C2282 C2285 1.409 . S
C2283 H2275 0.930 . S
C2283 C2284 1.355 . S
C2283 C2285 1.415 . S
C2284 C2283 1.355 . S
C2284 C2286 1.419 . S
C2285 C2280 1.425 . S
C2285 C2282 1.409 . S
C2285 C2283 1.415 . S
C2286 H2276 0.930 . S
C2286 C2284 1.419 . S
C2286 C2287 1.362 . S
C2287 H2277 0.930 . S
C2287 C2280 1.409 . S
C2287 C2286 1.362 . S
H2288 C2294 0.930 . S
H2289 C2297 0.930 . S
H2290 C2298 0.930 . S
H2291 C2299 0.930 . S
H2292 C2302 0.930 . S
H2293 C2303 0.930 . S
C2294 H2288 0.930 . S
C2294 C2295 1.355 . S
C2294 C2296 1.415 . S
C2295 C2294 1.355 . S
C2295 C2297 1.419 . S
C2296 C2294 1.415 . S
C2296 C2301 1.425 . S
C2296 C2303 1.409 . S
C2297 H2289 0.930 . S
C2297 C2295 1.419 . S
C2297 C2298 1.362 . S
C2298 H2290 0.930 . S
C2298 C2297 1.362 . S
C2298 C2301 1.409 . S
C2299 H2291 0.930 . S
C2299 C2300 1.355 . S
C2299 C2301 1.415 . S
C2300 C2299 1.355 . S
C2300 C2302 1.419 . S
C2301 C2296 1.425 . S
C2301 C2298 1.409 . S
C2301 C2299 1.415 . S
C2302 H2292 0.930 . S
C2302 C2300 1.419 . S
C2302 C2303 1.362 . S
C2303 H2293 0.930 . S
C2303 C2296 1.409 . S
C2303 C2302 1.362 . S
H2304 C2310 0.930 . S
H2305 C2313 0.930 . S
H2306 C2314 0.930 . S
H2307 C2315 0.930 . S
H2308 C2318 0.930 . S
H2309 C2319 0.930 . S
C2310 H2304 0.930 . S
C2310 C2311 1.355 . S
C2310 C2312 1.415 . S
C2311 C2310 1.355 . S
C2311 C2313 1.419 . S
C2312 C2310 1.415 . S
C2312 C2317 1.425 . S
C2312 C2319 1.409 . S
C2313 H2305 0.930 . S
C2313 C2311 1.419 . S
C2313 C2314 1.362 . S
C2314 H2306 0.930 . S
C2314 C2313 1.362 . S
C2314 C2317 1.409 . S
C2315 H2307 0.930 . S
C2315 C2316 1.355 . S
C2315 C2317 1.415 . S
C2316 C2315 1.355 . S
C2316 C2318 1.419 . S
C2317 C2312 1.425 . S
C2317 C2314 1.409 . S
C2317 C2315 1.415 . S
C2318 H2308 0.930 . S
C2318 C2316 1.419 . S
C2318 C2319 1.362 . S
C2319 H2309 0.930 . S
C2319 C2312 1.409 . S
C2319 C2318 1.362 . S
H2320 C2326 0.930 . S
H2321 C2329 0.930 . S
H2322 C2330 0.930 . S
H2323 C2331 0.930 . S
H2324 C2334 0.930 . S
H2325 C2335 0.930 1_565 S
C2326 H2320 0.930 . S
C2326 C2327 1.355 . S
C2326 C2328 1.415 . S
C2327 C2326 1.355 . S
C2327 C2329 1.419 . S
C2328 C2326 1.415 . S
C2328 C2333 1.425 . S
C2328 C2335 1.409 . S
C2329 H2321 0.930 . S
C2329 C2327 1.419 . S
C2329 C2330 1.362 . S
C2330 H2322 0.930 . S
C2330 C2329 1.362 . S
C2330 C2333 1.409 . S
C2331 H2323 0.930 . S
C2331 C2332 1.355 . S
C2331 C2333 1.415 . S
C2332 C2331 1.355 . S
C2332 C2334 1.419 1_545 S
C2333 C2328 1.425 . S
C2333 C2330 1.409 . S
C2333 C2331 1.415 . S
C2334 H2324 0.930 . S
C2334 C2332 1.419 1_565 S
C2334 C2335 1.362 1_565 S
C2335 H2325 0.930 1_545 S
C2335 C2328 1.409 . S
C2335 C2334 1.362 1_545 S
C1063 C21 1.543 . S
C1068 C87 1.547 . S
C1079 C54 1.532 . S
C1084 C120 1.552 . S
C1095 C153 1.552 . S
C1100 C219 1.525 . S
C1111 C252 1.552 . S
C1116 C186 1.527 . S
C1127 C351 1.521 . S
C1132 C285 1.526 . S
C1143 C384 1.523 . S
C1148 C318 1.552 . S
C1159 C417 1.533 . S
C1164 C483 1.552 . S
C1175 C516 1.548 . S
C1180 C450 1.518 . S
C1191 C615 1.542 . S
C1196 C549 1.516 . S
C1207 C582 1.542 . S
C1212 C648 1.548 . S
C1223 C681 1.521 . S
C1228 C747 1.550 . S
C1239 C780 1.516 . S
C1244 C714 1.542 . S
C1255 C879 1.520 . S
C1260 C813 1.550 . S
C1271 C846 1.549 . S
C1276 C912 1.519 . S
C1287 C1011 1.526 . S
C1292 C945 1.552 . S
C1303 C1044 1.551 . S
C1308 C978 1.535 . S
C1319 C150 1.287 . S
C1324 C18 1.287 . S
C1335 C51 1.319 . S
C1340 C975 1.319 . S
C1351 C84 1.307 . S
C1356 C480 1.307 . S
C1367 C117 1.253 . S
C1372 C777 1.253 . S
C1383 C183 1.272 . S
C1388 C843 1.272 . S
C1399 C348 1.253 . S
C1404 C216 1.253 . S
C1415 C645 1.266 . S
C1420 C249 1.266 . S
C1431 C282 1.289 . S
C1436 C414 1.289 . S
C1447 C711 1.309 . S
C1452 C315 1.309 . S
C1463 C1041 1.252 . S
C1468 C381 1.252 . S
C1479 C579 1.321 . S
C1484 C447 1.321 . S
C1495 C909 1.321 . S
C1500 C513 1.321 . S
C1511 C678 1.320 . S
C1516 C546 1.320 . S
C1527 C612 1.297 . S
C1532 C1008 1.297 . S
C1543 C744 1.318 . S
C1548 C876 1.318 . S
C1559 C942 1.259 . S
C1564 C810 1.259 . S
C1575 N13 1.215 . S
C1580 N2 1.214 . S
C1591 N35 1.199 . S
C1596 N46 1.198 . S
C1607 N68 1.213 . S
C1612 N79 1.212 . S
C1623 N101 1.204 . S
C1628 N112 1.204 . S
C1639 N145 1.213 . S
C1644 N134 1.212 . S
C1655 N167 1.182 . S
C1660 N178 1.183 . S
C1671 N211 1.216 . S
C1676 N200 1.215 . S
C1687 N244 1.183 . S
C1692 N233 1.182 . S
C1703 N277 1.185 . S
C1708 N266 1.184 1_545 S
C1719 N310 1.224 . S
C1724 N299 1.224 . S
C1735 N343 1.221 . S
C1740 N332 1.220 . S
C1751 N365 1.224 1_545 S
C1756 N376 1.224 . S
C1767 N409 1.213 . S
C1772 N398 1.212 1_565 S
C1783 N442 1.199 . S
C1788 N431 1.197 . S
C1799 N475 1.225 . S
C1804 N464 1.225 . S
C1815 N508 1.183 . S
C1820 N497 1.183 1_565 S
C1831 N530 1.181 . S
C1836 N541 1.182 . S
C1847 N574 1.194 . S
C1852 N563 1.195 . S
C1863 N607 1.225 . S
C1868 N596 1.225 . S
C1879 N640 1.211 . S
C1884 N629 1.210 . S
C1895 N673 1.225 . S
C1900 N662 1.224 . S
C1911 N706 1.193 . S
C1916 N695 1.191 . S
C1927 N728 1.181 . S
C1932 N739 1.182 . S
C1943 N772 1.220 . S
C1948 N761 1.219 . S
C1959 N794 1.205 1_545 S
C1964 N805 1.207 . S
C1975 N838 1.184 . S
C1980 N827 1.184 . S
C1991 N871 1.225 . S
C1996 N860 1.224 . S
C2007 N904 1.224 . S
C2012 N893 1.224 1_545 S
C2023 N926 1.225 1_565 S
C2028 N937 1.225 . S
C2039 N959 1.207 . S
C2044 N970 1.206 . S
C2055 N992 1.197 . S
C2060 N1003 1.197 . S
C2071 N1025 1.181 1_565 S
C2076 N1036 1.182 . S
C2087 C832 1.504 . S
C2092 C7 1.521 . S
C2103 C40 1.510 1_565 S
C2108 C799 1.469 . S
C2119 C898 1.515 . S
C2124 C73 1.478 1_565 S
C2135 C106 1.483 . S
C2140 C865 1.450 . S
C2151 C964 1.449 . S
C2156 C139 1.471 . S
C2167 C172 1.521 1_545 S
C2172 C931 1.507 . S
C2183 C1030 1.516 . S
C2188 C205 1.515 1_545 S
C2199 C997 1.476 . S
C2204 C238 1.514 . S
C2215 C271 1.478 . S
C2220 C568 1.449 1_565 S
C2231 C304 1.497 . S
C2236 C535 1.522 . S
C2247 C634 1.469 . S
C2252 C337 1.449 . S
C2263 C370 1.453 . S
C2268 C601 1.458 1_565 S
C2279 C700 1.449 1_545 S
C2284 C403 1.478 . S
C2295 C667 1.449 . S
C2300 C436 1.472 . S
C2311 C469 1.456 . S
C2316 C766 1.495 . S
C2327 C502 1.508 . S
C2332 C733 1.520 1_545 S
