# Generated by pormake.
# Topology umj, (4)-cn, num edge types: 1
# Building blocks:
#     Node 0, Type 0, BuildingBlock: NAWXER_clean_sbu_0, # of connection points: 4
#     Node 1, Type 0, BuildingBlock: NAWXER_clean_sbu_0, # of connection points: 4
#     Node 2, Type 0, BuildingBlock: NAWXER_clean_sbu_0, # of connection points: 4
#     Node 3, Type 0, BuildingBlock: NAWXER_clean_sbu_0, # of connection points: 4
#     Node 4, Type 0, BuildingBlock: NAWXER_clean_sbu_0, # of connection points: 4
#     Node 5, Type 0, BuildingBlock: NAWXER_clean_sbu_0, # of connection points: 4
#     Node 6, Type 0, BuildingBlock: NAWXER_clean_sbu_0, # of connection points: 4
#     Node 7, Type 0, BuildingBlock: NAWXER_clean_sbu_0, # of connection points: 4
#     Node 8, Type 0, BuildingBlock: NAWXER_clean_sbu_0, # of connection points: 4
#     Node 9, Type 0, BuildingBlock: NAWXER_clean_sbu_0, # of connection points: 4
#     Node 10, Type 0, BuildingBlock: NAWXER_clean_sbu_0, # of connection points: 4
#     Node 11, Type 0, BuildingBlock: NAWXER_clean_sbu_0, # of connection points: 4
#     Edge 12, Type (0, 0), BuildingBlock: AJUNOK_clean_linker_0, # of connection points: 2
#     Edge 13, Type (0, 0), BuildingBlock: AJUNOK_clean_linker_0, # of connection points: 2
#     Edge 14, Type (0, 0), BuildingBlock: AJUNOK_clean_linker_0, # of connection points: 2
#     Edge 15, Type (0, 0), BuildingBlock: AJUNOK_clean_linker_0, # of connection points: 2
#     Edge 16, Type (0, 0), BuildingBlock: AJUNOK_clean_linker_0, # of connection points: 2
#     Edge 17, Type (0, 0), BuildingBlock: AJUNOK_clean_linker_0, # of connection points: 2
#     Edge 18, Type (0, 0), BuildingBlock: AJUNOK_clean_linker_0, # of connection points: 2
#     Edge 19, Type (0, 0), BuildingBlock: AJUNOK_clean_linker_0, # of connection points: 2
#     Edge 20, Type (0, 0), BuildingBlock: AJUNOK_clean_linker_0, # of connection points: 2
#     Edge 21, Type (0, 0), BuildingBlock: AJUNOK_clean_linker_0, # of connection points: 2
#     Edge 22, Type (0, 0), BuildingBlock: AJUNOK_clean_linker_0, # of connection points: 2
#     Edge 23, Type (0, 0), BuildingBlock: AJUNOK_clean_linker_0, # of connection points: 2
#     Edge 24, Type (0, 0), BuildingBlock: AJUNOK_clean_linker_0, # of connection points: 2
#     Edge 25, Type (0, 0), BuildingBlock: AJUNOK_clean_linker_0, # of connection points: 2
#     Edge 26, Type (0, 0), BuildingBlock: AJUNOK_clean_linker_0, # of connection points: 2
#     Edge 27, Type (0, 0), BuildingBlock: AJUNOK_clean_linker_0, # of connection points: 2
#     Edge 28, Type (0, 0), BuildingBlock: AJUNOK_clean_linker_0, # of connection points: 2
#     Edge 29, Type (0, 0), BuildingBlock: AJUNOK_clean_linker_0, # of connection points: 2
#     Edge 30, Type (0, 0), BuildingBlock: AJUNOK_clean_linker_0, # of connection points: 2
#     Edge 31, Type (0, 0), BuildingBlock: AJUNOK_clean_linker_0, # of connection points: 2
#     Edge 32, Type (0, 0), BuildingBlock: AJUNOK_clean_linker_0, # of connection points: 2
#     Edge 33, Type (0, 0), BuildingBlock: AJUNOK_clean_linker_0, # of connection points: 2
#     Edge 34, Type (0, 0), BuildingBlock: AJUNOK_clean_linker_0, # of connection points: 2
#     Edge 35, Type (0, 0), BuildingBlock: AJUNOK_clean_linker_0, # of connection points: 2
# Relax obj value: 0.019
# Max RMSD: 0.123
# Mean RMSD: 0.123
data_MOF--net-umj--node1-NAWXER_clean_sbu_0--edge1-AJUNOK_clean_linker_0
_symmetry_space_group_name_H-M    P1
_symmetry_Int_Tables_number       1
_symmetry_cell_setting            triclinic
loop_
_symmetry_equiv_pos_as_xyz
'x, y, z'
_cell_length_a     21.573063
_cell_length_b     21.573568
_cell_length_c     61.400656
_cell_angle_alpha  90.165706
_cell_angle_beta   89.912329
_cell_angle_gamma 119.99806
loop_
_atom_site_label
_atom_site_type_symbol
_atom_site_fract_x
_atom_site_fract_y
_atom_site_fract_z
_atom_type_partial_charge
C0 C 0.05349 0.26768 0.1416 0.0
C1 C 0.14826 0.33358 0.06664 0.0
O2 O 0.11982 0.3016 0.13664 0.0
Zn3 Zn 0.11 0.30115 0.10473 0.0
O4 O 1.00705 0.24637 0.12637 0.0
Zn5 Zn 1.00006 0.24756 0.09228 0.0
O6 O 0.95863 0.14575 0.08458 0.0
O7 O 0.06895 0.19214 0.09678 0.0
O8 O 0.08042 0.29663 0.0687 0.0
O9 O 0.18843 0.3472 0.08332 0.0
O10 O 0.06527 0.36799 0.10079 0.0
O11 O 0.95489 0.30636 0.08825 0.0
C12 C 0.01218 0.13839 0.08928 0.0
C13 C 1.00813 0.36605 0.09425 0.0
C14 C 0.81969 0.14212 0.3995 0.0
C15 C 0.7902 0.04912 0.47466 0.0
O16 O 0.84542 0.1827 0.41617 0.0
Zn17 Zn 0.81306 0.10509 0.43773 0.0
O18 O 0.78832 0.07428 0.40173 0.0
Zn19 Zn 0.75613 0.99418 0.42549 0.0
O20 O 0.65166 0.94956 0.42156 0.0
O21 O 0.70218 0.06101 0.43347 0.0
O22 O 0.7649 1.00245 0.45947 0.0
O23 O 0.82264 0.11537 0.46966 0.0
O24 O 0.88039 0.06388 0.42966 0.0
O25 O 0.81692 0.95249 0.4181 0.0
C26 C 0.64664 1.0041 0.427 0.0
C27 C 0.87771 1.00714 0.4223 0.0
C28 C 0.74442 0.79272 0.80831 0.0
C29 C 0.6838 0.81579 0.73227 0.0
O30 O 0.71027 0.82394 0.80239 0.0
Zn31 Zn 0.71309 0.81208 0.77076 0.0
O32 O 0.76776 0.76698 0.79379 0.0
Zn33 Zn 0.7693 0.7566 0.75977 0.0
O34 O 0.87168 0.81803 0.75272 0.0
O35 O 0.82189 0.88088 0.76316 0.0
O36 O 0.72131 0.78578 0.73514 0.0
O37 O 0.66736 0.84161 0.74859 0.0
O38 O 0.64818 0.70041 0.76724 0.0
O39 O 0.71185 0.65208 0.75615 0.0
C40 C 0.87676 0.87868 0.75637 0.0
C41 C 0.65141 0.64522 0.76142 0.0
C42 C 0.0152 0.63972 0.09377 0.0
C43 C 0.01178 0.86749 0.08908 0.0
O44 O 0.07036 0.69976 0.08917 0.0
Zn45 Zn 0.02465 0.75888 0.09258 0.0
O46 O 0.9573 0.63769 0.09945 0.0
Zn47 Zn 0.91241 0.70402 0.1031 0.0
O48 O 0.83779 0.65959 0.08066 0.0
O49 O 0.94799 0.7119 0.06758 0.0
O50 O 0.95411 0.81293 0.09562 0.0
O51 O 0.06708 0.86173 0.0857 0.0
O52 O 0.0116 0.75728 0.12656 0.0
O53 O 0.8969 0.70096 0.1347 0.0
C54 C 0.88049 0.67494 0.06453 0.0
C55 C 0.96205 0.73442 0.14089 0.0
C56 C 0.14831 1.00707 0.42297 0.0
C57 C 0.37982 0.01084 0.42794 0.0
O58 O 0.2096 0.06146 0.4192 0.0
Zn59 Zn 0.26938 0.01887 0.42622 0.0
O60 O 0.14477 0.94918 0.42952 0.0
Zn61 Zn 0.21232 0.90727 0.43678 0.0
O62 O 0.19972 0.89165 0.46837 0.0
O63 O 0.25815 1.00633 0.46027 0.0
O64 O 0.32413 0.95263 0.43355 0.0
O65 O 0.37373 0.06492 0.42283 0.0
O66 O 0.24015 0.94248 0.40123 0.0
O67 O 0.18218 0.83245 0.41427 0.0
C68 C 0.23148 0.95684 0.47459 0.0
C69 C 0.20962 0.87501 0.39815 0.0
C70 C 0.33956 0.204 0.73191 0.0
C71 C 0.27901 0.23366 0.8078 0.0
O72 O 0.35438 0.17771 0.74839 0.0
Zn73 Zn 0.31084 0.21082 0.77053 0.0
O74 O 0.30415 0.23633 0.73457 0.0
Zn75 Zn 0.25823 0.26933 0.75883 0.0
O76 O 0.31906 0.37359 0.75514 0.0
O77 O 0.37896 0.32165 0.76655 0.0
O78 O 0.25797 0.25976 0.79282 0.0
O79 O 0.31215 0.20071 0.80247 0.0
O80 O 0.20147 0.14499 0.76303 0.0
O81 O 0.15564 0.21033 0.7517 0.0
C82 C 0.37834 0.37777 0.76039 0.0
C83 C 0.14779 0.14898 0.75605 0.0
C84 C 0.64821 0.00864 0.61288 0.0
C85 C 0.87565 1.0047 0.61771 0.0
O86 O 0.70827 0.06362 0.61763 0.0
Zn87 Zn 0.76716 0.01776 0.6141 0.0
O88 O 0.64607 0.95081 0.60701 0.0
Zn89 Zn 0.71241 0.90585 0.60326 0.0
O90 O 0.66744 0.83049 0.62538 0.0
O91 O 0.71945 0.94039 0.63882 0.0
O92 O 0.82119 0.9472 0.61097 0.0
O93 O 0.86985 0.05992 0.6212 0.0
O94 O 0.76588 1.00547 0.58009 0.0
O95 O 0.70964 0.89089 0.57169 0.0
C96 C 0.68232 0.8728 0.64161 0.0
C97 C 0.74311 0.95614 0.56566 0.0
C98 C 0.82094 0.67942 0.97411 0.0
C99 C 0.7911 0.74414 0.89908 0.0
O100 O 0.84653 0.66467 0.95737 0.0
Zn101 Zn 0.8141 0.71023 0.9359 0.0
O102 O 0.7896 0.71596 0.97195 0.0
Zn103 Zn 0.75722 0.76411 0.94836 0.0
O104 O 0.65277 0.70409 0.95234 0.0
O105 O 0.70329 0.64344 0.94019 0.0
O106 O 0.76588 0.76521 0.91438 0.0
O107 O 0.82347 0.71013 0.90394 0.0
O108 O 0.88141 0.81863 0.94406 0.0
O109 O 0.81812 0.86649 0.95585 0.0
C110 C 0.64775 0.64463 0.94676 0.0
C111 C 0.87884 0.87262 0.95153 0.0
C112 C 0.14665 0.81364 0.30755 0.0
C113 C 0.0541 0.7819 0.2321 0.0
O114 O 0.18727 0.8398 0.29093 0.0
Zn115 Zn 0.10976 0.80587 0.26916 0.0
O116 O 0.07882 0.78108 0.30516 0.0
Zn117 Zn 0.99905 0.74742 0.28124 0.0
O118 O 0.9559 0.64335 0.28517 0.0
O119 O 0.06743 0.69508 0.27338 0.0
O120 O 1.00733 0.75606 0.24722 0.0
O121 O 0.12031 0.81524 0.23722 0.0
O122 O 0.0663 0.87176 0.27685 0.0
O123 O 0.95549 0.80634 0.28856 0.0
C124 C 0.01089 0.6391 0.27978 0.0
C125 C 1.00876 0.86769 0.28406 0.0
C126 C 0.3411 0.14067 0.64142 0.0
C127 C 0.27679 0.04886 0.5659 0.0
O128 O 0.35524 0.18147 0.6249 0.0
Zn129 Zn 0.30984 0.1041 0.60303 0.0
O130 O 0.30432 0.07293 0.63902 0.0
Zn131 Zn 0.25608 0.99365 0.61503 0.0
O132 O 0.31498 0.94846 0.61882 0.0
O133 O 0.37664 0.05932 0.60676 0.0
O134 O 0.25536 1.00199 0.58098 0.0
O135 O 0.31076 0.11505 0.5711 0.0
O136 O 0.20063 0.06252 0.61072 0.0
O137 O 0.15405 0.95175 0.62246 0.0
C138 C 0.3747 1.00195 0.61302 0.0
C139 C 0.14673 1.00543 0.61794 0.0
C140 C 0.23277 0.27781 0.89929 0.0
C141 C 0.20956 0.33479 0.97602 0.0
O142 O 0.20101 0.3111 0.90564 0.0
Zn143 Zn 0.21344 0.30727 0.93721 0.0
O144 O 0.25934 0.25459 0.91351 0.0
Zn145 Zn 0.27049 0.25245 0.94753 0.0
O146 O 0.21086 0.1499 0.95429 0.0
O147 O 0.14596 0.19757 0.94424 0.0
O148 O 0.24055 0.29836 0.97273 0.0
O149 O 0.18313 0.35117 0.95992 0.0
O150 O 0.32513 0.37368 0.9405 0.0
O151 O 0.37484 0.31084 0.95094 0.0
C152 C 0.14955 0.1431 0.95062 0.0
C153 C 0.38086 0.37109 0.94599 0.0
C154 C 0.96004 0.22248 0.23265 0.0
C155 C 0.87905 0.20326 0.30898 0.0
O156 O 0.89484 0.19167 0.23879 0.0
Zn157 Zn 0.91055 0.20451 0.27039 0.0
O158 O 1.00951 0.24855 0.24701 0.0
Zn159 Zn 0.02261 0.26011 0.28098 0.0
O160 O 0.06341 0.19853 0.28796 0.0
O161 O 0.95051 0.1357 0.27789 0.0
O162 O 0.94641 0.23248 0.30591 0.0
O163 O 0.83617 0.17623 0.29289 0.0
O164 O 0.95784 0.31633 0.27355 0.0
O165 O 0.07016 0.36482 0.28425 0.0
C166 C 1.00771 0.13788 0.28448 0.0
C167 C 0.01649 0.37163 0.27911 0.0
C168 C 0.0547 0.26801 0.20366 0.0
C169 C 0.98129 0.23086 0.20925 0.0
C170 C 0.07762 0.27905 0.18189 0.0
C171 C 0.02826 0.25343 0.16466 0.0
H172 H 0.09539 0.28954 0.21621 0.0
H173 H 0.13458 0.30847 0.17861 0.0
S174 S 0.82965 0.15086 0.17031 0.0
N175 N 0.85937 0.16725 0.19561 0.0
N176 N 0.90168 0.18741 0.15476 0.0
C177 C 0.95449 0.2153 0.16999 0.0
C178 C 0.93125 0.20419 0.19221 0.0
C179 C 0.80362 0.07362 0.51497 0.0
C180 C 0.77945 0.02414 0.49772 0.0
C181 C 0.79204 0.05081 0.53673 0.0
C182 C 0.75569 0.97742 0.54228 0.0
H183 H 0.83131 0.13056 0.51169 0.0
H184 H 0.81154 0.09153 0.5493 0.0
S185 S 0.68278 0.82553 0.5033 0.0
N186 N 0.71826 0.89749 0.48778 0.0
N187 N 0.69669 0.85541 0.5286 0.0
C188 C 0.73186 0.92729 0.52523 0.0
C189 C 0.74366 0.95039 0.50302 0.0
C190 C 0.79296 0.7459 0.83702 0.0
C191 C 0.75693 0.78341 0.83164 0.0
C192 C 0.80441 0.73399 0.85873 0.0
C193 C 0.78044 0.75905 0.87609 0.0
H194 H 0.81227 0.7248 0.82436 0.0
H195 H 0.83183 0.70438 0.86186 0.0
S196 S 0.68479 0.86214 0.87098 0.0
N197 N 0.69855 0.84667 0.84561 0.0
N198 N 0.71988 0.82489 0.88633 0.0
C199 C 0.74501 0.79751 0.87096 0.0
C200 C 0.73333 0.8095 0.84881 0.0
C201 C 0.05635 0.78414 0.17001 0.0
C202 C 0.98302 0.74698 0.16432 0.0
C203 C 0.07894 0.7958 0.19182 0.0
C204 C 0.0293 0.77088 0.20898 0.0
H205 H 0.09722 0.80428 0.15751 0.0
H206 H 0.13585 0.82416 0.19518 0.0
S207 S 0.83072 0.67178 0.20306 0.0
N208 N 0.86086 0.68633 0.1778 0.0
N209 N 0.90252 0.70799 0.2187 0.0
C210 C 0.95559 0.73422 0.20355 0.0
C211 C 0.93271 0.72237 0.1813 0.0
C212 C 0.2894 0.07379 0.52562 0.0
C213 C 0.26256 0.02418 0.54275 0.0
C214 C 0.27839 0.05121 0.5038 0.0
C215 C 0.24005 0.97791 0.49804 0.0
H216 H 0.31977 0.13065 0.52905 0.0
H217 H 0.30087 0.09204 0.49133 0.0
S218 S 0.15644 0.82579 0.53664 0.0
N219 N 0.19399 0.89754 0.55235 0.0
N220 N 0.17394 0.85588 0.51141 0.0
C221 C 0.21215 0.92767 0.51497 0.0
C222 C 0.22321 0.95055 0.53724 0.0
C223 C 0.28984 0.21884 0.84804 0.0
C224 C 0.26485 0.24382 0.83099 0.0
C225 C 0.27847 0.22967 0.86991 0.0
C226 C 0.24159 0.26602 0.87579 0.0
H227 H 0.31892 0.19109 0.84453 0.0
H228 H 0.29945 0.20955 0.88231 0.0
S229 S 0.16346 0.34088 0.83743 0.0
N230 N 0.19987 0.3058 0.8216 0.0
N231 N 0.1791 0.32591 0.86261 0.0
C232 C 0.21562 0.29066 0.85894 0.0
C233 C 0.22709 0.27965 0.83662 0.0
C234 C 0.23449 0.34873 0.0372 0.0
C235 C 0.17624 0.35503 0.04431 0.0
C236 C 0.24785 0.34774 1.01489 0.0
C237 C 0.20351 0.35313 0.99893 0.0
H238 H 0.26635 0.33877 0.04878 0.0
H239 H 0.29098 0.33854 1.01015 0.0
S240 S 0.05327 0.38587 1.00961 0.0
N241 N 0.08095 0.37855 0.03402 0.0
N242 N 0.10595 0.37607 0.99209 0.0
C243 C 0.1498 0.36699 1.00595 0.0
C244 C 0.13615 0.36797 0.02866 0.0
C245 C 0.77802 0.12361 0.36102 0.0
C246 C 0.82658 0.16936 0.37702 0.0
C247 C 0.79158 0.13795 0.33875 0.0
C248 C 0.85434 0.19851 0.33171 0.0
H249 H 0.73108 0.07384 0.36571 0.0
H250 H 0.75562 0.09866 0.32709 0.0
S251 S 0.99088 0.34273 0.36685 0.0
N252 N 0.93399 0.28291 0.38421 0.0
N253 N 0.9595 0.31087 0.34234 0.0
C254 C 0.8994 0.24851 0.34751 0.0
C255 C 0.88547 0.2338 0.3702 0.0
C256 C 0.66598 0.77453 0.6937 0.0
C257 C 0.66416 0.82126 0.70956 0.0
C258 C 0.66486 0.78725 0.67139 0.0
C259 C 0.66206 0.84728 0.66419 0.0
H260 H 0.67259 0.7299 0.69852 0.0
H261 H 0.67192 0.75319 0.65984 0.0
S262 S 0.6411 0.97728 0.69878 0.0
N263 N 0.64827 0.92337 0.71635 0.0
N264 N 0.64533 0.94718 0.67438 0.0
C265 C 0.65256 0.89005 0.67979 0.0
C266 C 0.65367 0.87701 0.70252 0.0
C267 C 0.7935 0.65548 0.0349 0.0
C268 C 0.85543 0.65577 0.04181 0.0
C269 C 0.77995 0.65699 1.01266 0.0
C270 C 0.82774 0.65872 0.99656 0.0
H271 H 0.75826 0.65971 0.04665 0.0
H272 H 0.73367 0.66119 1.00811 0.0
S273 S 0.98923 0.64423 1.00637 0.0
N274 N 0.95861 0.64538 0.03095 0.0
N275 N 0.93322 0.64927 0.98913 0.0
C276 C 0.88564 0.65124 1.00324 0.0
C277 C 0.89953 0.64967 0.0259 0.0
C278 C 0.1277 0.77362 0.3462 0.0
C279 C 0.17376 0.82126 0.33012 0.0
C280 C 0.14251 0.78758 0.36846 0.0
C281 C 0.20386 0.84985 0.37541 0.0
H282 H 0.07748 0.72702 0.34161 0.0
H283 H 0.1031 0.75229 0.38017 0.0
S284 S 0.34904 0.98372 0.34008 0.0
N285 N 0.28839 0.92712 0.3228 0.0
N286 N 0.31709 0.9534 0.36463 0.0
C287 C 0.254 0.89396 0.35954 0.0
C288 C 0.23885 0.87961 0.33687 0.0
C289 C 0.35813 0.22816 0.67077 0.0
C290 C 0.36136 0.16791 0.66393 0.0
C291 C 0.3568 0.24224 0.69302 0.0
C292 C 0.35875 0.19668 0.70921 0.0
H293 H 0.35098 0.26137 0.659 0.0
H294 H 0.35004 0.28711 0.69752 0.0
S295 S 0.38301 0.04069 0.69944 0.0
N296 N 0.37864 0.06908 0.67485 0.0
N297 N 0.37535 0.09547 0.71665 0.0
C298 C 0.3696 0.14071 0.70253 0.0
C299 C 0.37096 0.1263 0.67987 0.0
C300 C 0.07559 0.56639 0.09651 0.0
C301 C 0.01419 0.57065 0.09209 0.0
C302 C 0.07258 0.49992 0.09709 0.0
C303 C 1.00821 0.43501 0.09305 0.0
H304 H 0.12575 0.61438 0.1002 0.0
H305 H 0.12148 0.49973 0.10092 0.0
S306 S 0.8339 0.41836 0.07837 0.0
N307 N 0.88804 0.50504 0.08198 0.0
N308 N 0.88283 0.38054 0.08304 0.0
C309 C 0.94706 0.43898 0.08778 0.0
C310 C 0.94997 0.50661 0.08732 0.0
C311 C 0.51272 0.94334 0.42892 0.0
C312 C 0.57873 1.00547 0.42552 0.0
C313 C 0.44917 0.94616 0.42961 0.0
C314 C 0.44887 0.01111 0.42671 0.0
H315 H 0.51028 0.8926 0.4317 0.0
H316 H 0.39979 0.89662 0.43261 0.0
S317 S 0.60768 0.18793 0.41508 0.0
N318 N 0.64001 0.13329 0.41767 0.0
N319 N 0.52053 0.13813 0.41892 0.0
C320 C 0.51442 0.07317 0.42251 0.0
C321 C 0.57924 0.07044 0.42193 0.0
C322 C 0.4513 0.51174 0.76162 0.0
C323 C 0.44789 0.44556 0.75913 0.0
C324 C 0.51744 0.57549 0.76224 0.0
C325 C 0.583 0.57588 0.76016 0.0
H326 H 0.40273 0.51426 0.76368 0.0
H327 H 0.51682 0.62499 0.76448 0.0
S328 S 0.60277 0.41666 0.75129 0.0
N329 N 0.51556 0.38414 0.75315 0.0
N330 N 0.63947 0.50412 0.75428 0.0
C331 C 0.58016 0.51016 0.75692 0.0
C332 C 0.51279 0.44507 0.75643 0.0
C333 C 0.50852 0.06629 0.61004 0.0
C334 C 0.44363 1.00193 0.61406 0.0
C335 C 0.57495 0.06919 0.61045 0.0
C336 C 0.5792 0.00769 0.61467 0.0
H337 H 0.50833 0.11526 0.60636 0.0
H338 H 0.62292 0.11937 0.6068 0.0
S339 S 0.42704 0.82737 0.62826 0.0
N340 N 0.38922 0.87643 0.62384 0.0
N341 N 0.51366 0.88146 0.62459 0.0
C342 C 0.51521 0.94347 0.61942 0.0
C343 C 0.44761 0.94067 0.61912 0.0
C344 C 0.45014 0.50516 0.9447 0.0
C345 C 0.44994 0.43983 0.9472 0.0
C346 C 0.51374 0.5715 0.94532 0.0
C347 C 0.5799 0.57526 0.94823 0.0
H348 H 0.40062 0.50542 0.9421 0.0
H349 H 0.51118 0.61988 0.94289 0.0
S350 S 0.60923 0.42135 0.95739 0.0
N351 N 0.52191 0.38417 0.95401 0.0
N352 N 0.64148 0.5084 0.95514 0.0
C353 C 0.58054 0.51067 0.95139 0.0
C354 C 0.51567 0.44315 0.95089 0.0
C355 C 0.94994 0.50515 0.27882 0.0
C356 C 0.01273 0.57138 0.28113 0.0
C357 C 0.95231 0.4414 0.27828 0.0
C358 C 0.0175 0.44103 0.28027 0.0
H359 H 0.89882 0.50258 0.27682 0.0
H360 H 0.90215 0.39187 0.27617 0.0
S361 S 0.19655 0.60042 0.28877 0.0
N362 N 0.14186 0.63292 0.2869 0.0
N363 N 0.14578 0.5129 0.28595 0.0
C364 C 0.08041 0.50681 0.28336 0.0
C365 C 0.07814 0.57192 0.28377 0.0
C366 C 0.07505 0.06684 0.08936 0.0
C367 C 0.0109 0.06886 0.08686 0.0
C368 C 0.07579 1.00207 0.08904 0.0
C369 C 0.0123 0.93637 0.08641 0.0
H370 H 0.12537 0.11575 0.09204 0.0
H371 H 0.12606 1.00339 0.09172 0.0
S372 S 0.83104 0.9118 0.07693 0.0
N373 N 0.88304 0.99907 0.07997 0.0
N374 N 0.88408 0.87754 0.07942 0.0
C375 C 0.94821 0.93768 0.08293 0.0
C376 C 0.94758 1.00374 0.08312 0.0
C377 C 0.94834 0.94324 0.42192 0.0
C378 C 0.94619 1.00684 0.41968 0.0
C379 C 0.01389 0.94409 0.42241 0.0
C380 C 0.08016 0.00848 0.42048 0.0
H381 H 0.89927 0.89277 0.42419 0.0
H382 H 0.01236 0.89361 0.42477 0.0
S383 S 0.10316 0.18882 0.41163 0.0
N384 N 0.01575 0.1355 0.41361 0.0
N385 N 0.13843 0.13678 0.41447 0.0
C386 C 0.07846 0.07198 0.41712 0.0
C387 C 0.01172 0.07122 0.41675 0.0
C388 C 0.07597 0.01477 0.75535 0.0
C389 C 0.07792 0.08113 0.75377 0.0
C390 C 0.01117 0.94938 0.75522 0.0
C391 C 0.94531 0.9474 0.75371 0.0
H392 H 0.12504 0.01307 0.75712 0.0
H393 H 0.01271 0.90027 0.75712 0.0
S394 S 0.92027 0.10487 0.74698 0.0
N395 N 1.0078 0.13984 0.749 0.0
N396 N 0.88606 0.01742 0.74878 0.0
C397 C 0.94642 0.01307 0.75117 0.0
C398 C 0.01256 0.0797 0.75117 0.0
C399 C 1.01022 0.06879 0.6181 0.0
C400 C 0.9445 1.00519 0.62047 0.0
C401 C 0.07504 0.06814 0.61789 0.0
C402 C 0.07709 1.00397 0.62025 0.0
H403 H 0.01154 0.1191 0.61555 0.0
H404 H 0.12396 0.11857 0.61542 0.0
S405 S 0.91993 0.82378 0.62949 0.0
N406 N 0.88564 0.8768 0.62706 0.0
N407 N 1.00727 0.87594 0.62672 0.0
C408 C 0.01192 0.94051 0.62372 0.0
C409 C 0.94581 0.94106 0.6238 0.0
C410 C 0.94956 1.00712 0.95192 0.0
C411 C 0.94738 0.94134 0.95409 0.0
C412 C 0.01514 0.07177 0.95135 0.0
C413 C 0.08141 0.07356 0.95313 0.0
H414 H 0.90048 0.00859 0.94977 0.0
H415 H 0.01363 0.12076 0.94906 0.0
S416 S 0.10436 0.91609 0.96174 0.0
N417 N 0.01693 0.88211 0.95993 0.0
N418 N 0.13967 1.00341 0.95891 0.0
C419 C 0.07969 0.00831 0.95641 0.0
C420 C 0.01292 0.9424 0.95687 0.0
C421 C 0.07103 1.00189 0.285 0.0
C422 C 1.00667 0.93548 0.28651 0.0
C423 C 0.07153 0.06725 0.28534 0.0
C424 C 1.0076 0.06913 0.28698 0.0
H425 H 0.12184 1.00368 0.28314 0.0
H426 H 0.12217 0.11643 0.28348 0.0
S427 S 0.82514 0.91133 0.29353 0.0
N428 N 0.87781 0.87652 0.29132 0.0
N429 N 0.87831 0.99884 0.29191 0.0
C430 C 0.94307 1.00334 0.28943 0.0
C431 C 0.94269 0.93677 0.28923 0.0
loop_
_geom_bond_atom_site_label_1
_geom_bond_atom_site_label_2
_geom_bond_distance
_geom_bond_site_symmetry_2
_ccdc_geom_bond_type
C0 O2 1.247 . S
C0 O4 1.258 1_455 S
C1 O8 1.247 . S
C1 O9 1.258 . S
O2 C0 1.247 . S
O2 Zn3 2.028 . S
Zn3 O2 2.028 . S
Zn3 O7 2.035 . S
Zn3 O9 2.035 . S
Zn3 O10 2.028 . S
O4 C0 1.258 1_655 S
O4 Zn5 2.035 . S
Zn5 O4 2.035 . S
Zn5 O6 2.028 . S
Zn5 O8 2.028 1_655 S
Zn5 O11 2.035 . S
O6 Zn5 2.028 . S
O6 C12 1.247 1_655 S
O7 Zn3 2.035 . S
O7 C12 1.258 . S
O8 C1 1.247 . S
O8 Zn5 2.028 1_455 S
O9 C1 1.258 . S
O9 Zn3 2.035 . S
O10 Zn3 2.028 . S
O10 C13 1.247 . S
O11 Zn5 2.035 . S
O11 C13 1.258 1_655 S
C12 O6 1.247 1_455 S
C12 O7 1.258 . S
C13 O10 1.247 . S
C13 O11 1.258 1_455 S
C14 O16 1.247 . S
C14 O18 1.258 . S
C15 O22 1.247 1_545 S
C15 O23 1.258 . S
O16 C14 1.247 . S
O16 Zn17 2.028 . S
Zn17 O16 2.028 . S
Zn17 O21 2.035 . S
Zn17 O23 2.035 . S
Zn17 O24 2.028 . S
O18 C14 1.258 . S
O18 Zn19 2.035 1_545 S
Zn19 O18 2.035 1_565 S
Zn19 O20 2.028 . S
Zn19 O22 2.028 . S
Zn19 O25 2.035 . S
O20 Zn19 2.028 . S
O20 C26 1.247 1_565 S
O21 Zn17 2.035 . S
O21 C26 1.258 . S
O22 C15 1.247 1_565 S
O22 Zn19 2.028 . S
O23 C15 1.258 . S
O23 Zn17 2.035 . S
O24 Zn17 2.028 . S
O24 C27 1.247 . S
O25 Zn19 2.035 . S
O25 C27 1.258 1_565 S
C26 O20 1.247 1_545 S
C26 O21 1.258 . S
C27 O24 1.247 . S
C27 O25 1.258 1_545 S
C28 O30 1.247 . S
C28 O32 1.258 . S
C29 O36 1.247 . S
C29 O37 1.258 . S
O30 C28 1.247 . S
O30 Zn31 2.028 . S
Zn31 O30 2.028 . S
Zn31 O35 2.035 . S
Zn31 O37 2.035 . S
Zn31 O38 2.028 . S
O32 C28 1.258 . S
O32 Zn33 2.035 . S
Zn33 O32 2.035 . S
Zn33 O34 2.028 . S
Zn33 O36 2.028 . S
Zn33 O39 2.035 . S
O34 Zn33 2.028 . S
O34 C40 1.247 . S
O35 Zn31 2.035 . S
O35 C40 1.258 . S
O36 C29 1.247 . S
O36 Zn33 2.028 . S
O37 C29 1.258 . S
O37 Zn31 2.035 . S
O38 Zn31 2.028 . S
O38 C41 1.247 . S
O39 Zn33 2.035 . S
O39 C41 1.258 . S
C40 O34 1.247 . S
C40 O35 1.258 . S
C41 O38 1.247 . S
C41 O39 1.258 . S
C42 O44 1.247 1_655 S
C42 O46 1.258 . S
C43 O50 1.247 . S
C43 O51 1.258 1_655 S
O44 C42 1.247 1_455 S
O44 Zn45 2.028 . S
Zn45 O44 2.028 . S
Zn45 O49 2.035 1_455 S
Zn45 O51 2.035 . S
Zn45 O52 2.028 . S
O46 C42 1.258 . S
O46 Zn47 2.035 . S
Zn47 O46 2.035 . S
Zn47 O48 2.028 . S
Zn47 O50 2.028 . S
Zn47 O53 2.035 . S
O48 Zn47 2.028 . S
O48 C54 1.247 . S
O49 Zn45 2.035 1_655 S
O49 C54 1.258 . S
O50 C43 1.247 . S
O50 Zn47 2.028 . S
O51 C43 1.258 1_455 S
O51 Zn45 2.035 . S
O52 Zn45 2.028 . S
O52 C55 1.247 1_455 S
O53 Zn47 2.035 . S
O53 C55 1.258 . S
C54 O48 1.247 . S
C54 O49 1.258 . S
C55 O52 1.247 1_655 S
C55 O53 1.258 . S
C56 O58 1.247 1_565 S
C56 O60 1.258 . S
C57 O64 1.247 . S
C57 O65 1.258 1_565 S
O58 C56 1.247 1_545 S
O58 Zn59 2.028 . S
Zn59 O58 2.028 . S
Zn59 O63 2.035 . S
Zn59 O65 2.035 . S
Zn59 O66 2.028 1_545 S
O60 C56 1.258 . S
O60 Zn61 2.035 . S
Zn61 O60 2.035 . S
Zn61 O62 2.028 . S
Zn61 O64 2.028 . S
Zn61 O67 2.035 . S
O62 Zn61 2.028 . S
O62 C68 1.247 . S
O63 Zn59 2.035 . S
O63 C68 1.258 1_545 S
O64 C57 1.247 . S
O64 Zn61 2.028 . S
O65 C57 1.258 1_545 S
O65 Zn59 2.035 . S
O66 Zn59 2.028 1_565 S
O66 C69 1.247 . S
O67 Zn61 2.035 . S
O67 C69 1.258 . S
C68 O62 1.247 . S
C68 O63 1.258 1_565 S
C69 O66 1.247 . S
C69 O67 1.258 . S
C70 O72 1.247 . S
C70 O74 1.258 . S
C71 O78 1.247 . S
C71 O79 1.258 . S
O72 C70 1.247 . S
O72 Zn73 2.028 . S
Zn73 O72 2.028 . S
Zn73 O77 2.035 . S
Zn73 O79 2.035 . S
Zn73 O80 2.028 . S
O74 C70 1.258 . S
O74 Zn75 2.035 . S
Zn75 O74 2.035 . S
Zn75 O76 2.028 . S
Zn75 O78 2.028 . S
Zn75 O81 2.035 . S
O76 Zn75 2.028 . S
O76 C82 1.247 . S
O77 Zn73 2.035 . S
O77 C82 1.258 . S
O78 C71 1.247 . S
O78 Zn75 2.028 . S
O79 C71 1.258 . S
O79 Zn73 2.035 . S
O80 Zn73 2.028 . S
O80 C83 1.247 . S
O81 Zn75 2.035 . S
O81 C83 1.258 . S
C82 O76 1.247 . S
C82 O77 1.258 . S
C83 O80 1.247 . S
C83 O81 1.258 . S
C84 O86 1.247 1_565 S
C84 O88 1.258 . S
C85 O92 1.247 . S
C85 O93 1.258 1_565 S
O86 C84 1.247 1_545 S
O86 Zn87 2.028 . S
Zn87 O86 2.028 . S
Zn87 O91 2.035 1_545 S
Zn87 O93 2.035 . S
Zn87 O94 2.028 . S
O88 C84 1.258 . S
O88 Zn89 2.035 . S
Zn89 O88 2.035 . S
Zn89 O90 2.028 . S
Zn89 O92 2.028 . S
Zn89 O95 2.035 . S
O90 Zn89 2.028 . S
O90 C96 1.247 . S
O91 Zn87 2.035 1_565 S
O91 C96 1.258 . S
O92 C85 1.247 . S
O92 Zn89 2.028 . S
O93 C85 1.258 1_545 S
O93 Zn87 2.035 . S
O94 Zn87 2.028 . S
O94 C97 1.247 1_545 S
O95 Zn89 2.035 . S
O95 C97 1.258 . S
C96 O90 1.247 . S
C96 O91 1.258 . S
C97 O94 1.247 1_565 S
C97 O95 1.258 . S
C98 O100 1.247 . S
C98 O102 1.258 . S
C99 O106 1.247 . S
C99 O107 1.258 . S
O100 C98 1.247 . S
O100 Zn101 2.028 . S
Zn101 O100 2.028 . S
Zn101 O105 2.035 . S
Zn101 O107 2.035 . S
Zn101 O108 2.028 . S
O102 C98 1.258 . S
O102 Zn103 2.035 . S
Zn103 O102 2.035 . S
Zn103 O104 2.028 . S
Zn103 O106 2.028 . S
Zn103 O109 2.035 . S
O104 Zn103 2.028 . S
O104 C110 1.247 . S
O105 Zn101 2.035 . S
O105 C110 1.258 . S
O106 C99 1.247 . S
O106 Zn103 2.028 . S
O107 C99 1.258 . S
O107 Zn101 2.035 . S
O108 Zn101 2.028 . S
O108 C111 1.247 . S
O109 Zn103 2.035 . S
O109 C111 1.258 . S
C110 O104 1.247 . S
C110 O105 1.258 . S
C111 O108 1.247 . S
C111 O109 1.258 . S
C112 O114 1.247 . S
C112 O116 1.258 . S
C113 O120 1.247 1_455 S
C113 O121 1.258 . S
O114 C112 1.247 . S
O114 Zn115 2.028 . S
Zn115 O114 2.028 . S
Zn115 O119 2.035 . S
Zn115 O121 2.035 . S
Zn115 O122 2.028 . S
O116 C112 1.258 . S
O116 Zn117 2.035 1_455 S
Zn117 O116 2.035 1_655 S
Zn117 O118 2.028 . S
Zn117 O120 2.028 . S
Zn117 O123 2.035 . S
O118 Zn117 2.028 . S
O118 C124 1.247 1_655 S
O119 Zn115 2.035 . S
O119 C124 1.258 . S
O120 C113 1.247 1_655 S
O120 Zn117 2.028 . S
O121 C113 1.258 . S
O121 Zn115 2.035 . S
O122 Zn115 2.028 . S
O122 C125 1.247 . S
O123 Zn117 2.035 . S
O123 C125 1.258 1_655 S
C124 O118 1.247 1_455 S
C124 O119 1.258 . S
C125 O122 1.247 . S
C125 O123 1.258 1_455 S
C126 O128 1.247 . S
C126 O130 1.258 . S
C127 O134 1.247 1_545 S
C127 O135 1.258 . S
O128 C126 1.247 . S
O128 Zn129 2.028 . S
Zn129 O128 2.028 . S
Zn129 O133 2.035 . S
Zn129 O135 2.035 . S
Zn129 O136 2.028 . S
O130 C126 1.258 . S
O130 Zn131 2.035 1_545 S
Zn131 O130 2.035 1_565 S
Zn131 O132 2.028 . S
Zn131 O134 2.028 . S
Zn131 O137 2.035 . S
O132 Zn131 2.028 . S
O132 C138 1.247 1_565 S
O133 Zn129 2.035 . S
O133 C138 1.258 . S
O134 C127 1.247 1_565 S
O134 Zn131 2.028 . S
O135 C127 1.258 . S
O135 Zn129 2.035 . S
O136 Zn129 2.028 . S
O136 C139 1.247 . S
O137 Zn131 2.035 . S
O137 C139 1.258 1_565 S
C138 O132 1.247 1_545 S
C138 O133 1.258 . S
C139 O136 1.247 . S
C139 O137 1.258 1_545 S
C140 O142 1.247 . S
C140 O144 1.258 . S
C141 O148 1.247 . S
C141 O149 1.258 . S
O142 C140 1.247 . S
O142 Zn143 2.028 . S
Zn143 O142 2.028 . S
Zn143 O147 2.035 . S
Zn143 O149 2.035 . S
Zn143 O150 2.028 . S
O144 C140 1.258 . S
O144 Zn145 2.035 . S
Zn145 O144 2.035 . S
Zn145 O146 2.028 . S
Zn145 O148 2.028 . S
Zn145 O151 2.035 . S
O146 Zn145 2.028 . S
O146 C152 1.247 . S
O147 Zn143 2.035 . S
O147 C152 1.258 . S
O148 C141 1.247 . S
O148 Zn145 2.028 . S
O149 C141 1.258 . S
O149 Zn143 2.035 . S
O150 Zn143 2.028 . S
O150 C153 1.247 . S
O151 Zn145 2.035 . S
O151 C153 1.258 . S
C152 O146 1.247 . S
C152 O147 1.258 . S
C153 O150 1.247 . S
C153 O151 1.258 . S
C154 O156 1.247 . S
C154 O158 1.258 1_655 S
C155 O162 1.247 . S
C155 O163 1.258 . S
O156 C154 1.247 . S
O156 Zn157 2.028 . S
Zn157 O156 2.028 . S
Zn157 O161 2.035 . S
Zn157 O163 2.035 . S
Zn157 O164 2.028 . S
O158 C154 1.258 1_455 S
O158 Zn159 2.035 . S
Zn159 O158 2.035 . S
Zn159 O160 2.028 . S
Zn159 O162 2.028 1_455 S
Zn159 O165 2.035 . S
O160 Zn159 2.028 . S
O160 C166 1.247 1_455 S
O161 Zn157 2.035 . S
O161 C166 1.258 . S
O162 C155 1.247 . S
O162 Zn159 2.028 1_655 S
O163 C155 1.258 . S
O163 Zn157 2.035 . S
O164 Zn157 2.028 . S
O164 C167 1.247 . S
O165 Zn159 2.035 . S
O165 C167 1.258 1_455 S
C166 O160 1.247 1_655 S
C166 O161 1.258 . S
C167 O164 1.247 . S
C167 O165 1.258 1_655 S
C168 C169 1.369 1_455 S
C168 C170 1.419 . S
C168 H172 0.930 . S
C169 C168 1.369 1_655 S
C169 C178 1.429 . S
C170 C168 1.419 . S
C170 C171 1.363 . S
C170 H173 0.929 . S
C171 C170 1.363 . S
C171 C177 1.428 1_455 S
H172 C168 0.930 . S
H173 C170 0.929 . S
S174 N175 1.613 . S
S174 N176 1.610 . S
N175 S174 1.613 . S
N175 C178 1.350 . S
N176 S174 1.610 . S
N176 C177 1.351 . S
C177 C171 1.428 1_655 S
C177 N176 1.351 . S
C177 C178 1.434 . S
C178 C169 1.429 . S
C178 N175 1.350 . S
C178 C177 1.434 . S
C179 C180 1.369 . S
C179 C181 1.419 . S
C179 H183 0.930 . S
C180 C179 1.369 . S
C180 C189 1.429 1_545 S
C181 C179 1.419 . S
C181 C182 1.363 1_545 S
C181 H184 0.929 . S
C182 C181 1.363 1_565 S
C182 C188 1.428 . S
H183 C179 0.930 . S
H184 C181 0.929 . S
S185 N186 1.613 . S
S185 N187 1.610 . S
N186 S185 1.613 . S
N186 C189 1.350 . S
N187 S185 1.610 . S
N187 C188 1.351 . S
C188 C182 1.428 . S
C188 N187 1.351 . S
C188 C189 1.434 . S
C189 C180 1.429 1_565 S
C189 N186 1.350 . S
C189 C188 1.434 . S
C190 C191 1.369 . S
C190 C192 1.419 . S
C190 H194 0.930 . S
C191 C190 1.369 . S
C191 C200 1.429 . S
C192 C190 1.419 . S
C192 C193 1.363 . S
C192 H195 0.929 . S
C193 C192 1.363 . S
C193 C199 1.428 . S
H194 C190 0.930 . S
H195 C192 0.929 . S
S196 N197 1.613 . S
S196 N198 1.610 . S
N197 S196 1.613 . S
N197 C200 1.350 . S
N198 S196 1.610 . S
N198 C199 1.351 . S
C199 C193 1.428 . S
C199 N198 1.351 . S
C199 C200 1.434 . S
C200 C191 1.429 . S
C200 N197 1.350 . S
C200 C199 1.434 . S
C201 C202 1.369 1_455 S
C201 C203 1.419 . S
C201 H205 0.930 . S
C202 C201 1.369 1_655 S
C202 C211 1.429 . S
C203 C201 1.419 . S
C203 C204 1.363 . S
C203 H206 0.929 . S
C204 C203 1.363 . S
C204 C210 1.428 1_455 S
H205 C201 0.930 . S
H206 C203 0.929 . S
S207 N208 1.613 . S
S207 N209 1.610 . S
N208 S207 1.613 . S
N208 C211 1.350 . S
N209 S207 1.610 . S
N209 C210 1.351 . S
C210 C204 1.428 1_655 S
C210 N209 1.351 . S
C210 C211 1.434 . S
C211 C202 1.429 . S
C211 N208 1.350 . S
C211 C210 1.434 . S
C212 C213 1.369 . S
C212 C214 1.419 . S
C212 H216 0.930 . S
C213 C212 1.369 . S
C213 C222 1.429 1_545 S
C214 C212 1.419 . S
C214 C215 1.363 1_545 S
C214 H217 0.929 . S
C215 C214 1.363 1_565 S
C215 C221 1.428 . S
H216 C212 0.930 . S
H217 C214 0.929 . S
S218 N219 1.613 . S
S218 N220 1.610 . S
N219 S218 1.613 . S
N219 C222 1.350 . S
N220 S218 1.610 . S
N220 C221 1.351 . S
C221 C215 1.428 . S
C221 N220 1.351 . S
C221 C222 1.434 . S
C222 C213 1.429 1_565 S
C222 N219 1.350 . S
C222 C221 1.434 . S
C223 C224 1.369 . S
C223 C225 1.419 . S
C223 H227 0.930 . S
C224 C223 1.369 . S
C224 C233 1.429 . S
C225 C223 1.419 . S
C225 C226 1.363 . S
C225 H228 0.929 . S
C226 C225 1.363 . S
C226 C232 1.428 . S
H227 C223 0.930 . S
H228 C225 0.929 . S
S229 N230 1.613 . S
S229 N231 1.610 . S
N230 S229 1.613 . S
N230 C233 1.350 . S
N231 S229 1.610 . S
N231 C232 1.351 . S
C232 C226 1.428 . S
C232 N231 1.351 . S
C232 C233 1.434 . S
C233 C224 1.429 . S
C233 N230 1.350 . S
C233 C232 1.434 . S
C234 C235 1.369 . S
C234 C236 1.389 1_554 S
C234 H238 0.930 . S
C235 C234 1.369 . S
C235 C244 1.424 1_554 S
C236 C234 1.389 1_556 S
C236 C237 1.393 . S
C236 H239 0.929 . S
C237 C236 1.393 . S
C237 C243 1.428 . S
H238 C234 0.930 . S
H239 C236 0.929 . S
S240 N241 1.613 1_655 S
S240 N242 1.610 1_655 S
N241 S240 1.613 1_455 S
N241 C244 1.350 . S
N242 S240 1.610 1_455 S
N242 C243 1.351 . S
C243 C237 1.428 . S
C243 N242 1.351 . S
C243 C244 1.438 . S
C244 C235 1.424 1_556 S
C244 N241 1.350 . S
C244 C243 1.438 . S
C245 C246 1.369 . S
C245 C247 1.419 . S
C245 H249 0.930 . S
C246 C245 1.369 . S
C246 C255 1.429 . S
C247 C245 1.419 . S
C247 C248 1.363 . S
C247 H250 0.929 . S
C248 C247 1.363 . S
C248 C254 1.428 . S
H249 C245 0.930 . S
H250 C247 0.929 . S
S251 N252 1.613 . S
S251 N253 1.610 . S
N252 S251 1.613 . S
N252 C255 1.350 . S
N253 S251 1.610 . S
N253 C254 1.351 . S
C254 C248 1.428 . S
C254 N253 1.351 . S
C254 C255 1.434 . S
C255 C246 1.429 . S
C255 N252 1.350 . S
C255 C254 1.434 . S
C256 C257 1.369 . S
C256 C258 1.419 . S
C256 H260 0.930 . S
C257 C256 1.369 . S
C257 C266 1.429 . S
C258 C256 1.419 . S
C258 C259 1.363 . S
C258 H261 0.929 . S
C259 C258 1.363 . S
C259 C265 1.428 . S
H260 C256 0.930 . S
H261 C258 0.929 . S
S262 N263 1.613 . S
S262 N264 1.610 . S
N263 S262 1.613 . S
N263 C266 1.350 . S
N264 S262 1.610 . S
N264 C265 1.351 . S
C265 C259 1.428 . S
C265 N264 1.351 . S
C265 C266 1.434 . S
C266 C257 1.429 . S
C266 N263 1.350 . S
C266 C265 1.434 . S
C267 C268 1.369 . S
C267 C269 1.419 1_554 S
C267 H271 0.930 . S
C268 C267 1.369 . S
C268 C277 1.429 . S
C269 C267 1.419 1_556 S
C269 C270 1.363 . S
C269 H272 0.929 . S
C270 C269 1.363 . S
C270 C276 1.428 . S
H271 C267 0.930 . S
H272 C269 0.929 . S
S273 N274 1.609 . S
S273 N275 1.610 . S
N274 S273 1.609 . S
N274 C277 1.350 1_556 S
N275 S273 1.610 . S
N275 C276 1.351 . S
C276 C270 1.428 . S
C276 N275 1.351 . S
C276 C277 1.434 1_556 S
C277 C268 1.429 . S
C277 N274 1.350 1_554 S
C277 C276 1.434 1_554 S
C278 C279 1.369 . S
C278 C280 1.419 . S
C278 H282 0.930 . S
C279 C278 1.369 . S
C279 C288 1.429 . S
C280 C278 1.419 . S
C280 C281 1.363 . S
C280 H283 0.929 . S
C281 C280 1.363 . S
C281 C287 1.428 . S
H282 C278 0.930 . S
H283 C280 0.929 . S
S284 N285 1.613 . S
S284 N286 1.610 . S
N285 S284 1.613 . S
N285 C288 1.350 . S
N286 S284 1.610 . S
N286 C287 1.351 . S
C287 C281 1.428 . S
C287 N286 1.351 . S
C287 C288 1.434 . S
C288 C279 1.429 . S
C288 N285 1.350 . S
C288 C287 1.434 . S
C289 C290 1.369 . S
C289 C291 1.419 . S
C289 H293 0.930 . S
C290 C289 1.369 . S
C290 C299 1.429 . S
C291 C289 1.419 . S
C291 C292 1.363 . S
C291 H294 0.929 . S
C292 C291 1.363 . S
C292 C298 1.428 . S
H293 C289 0.930 . S
H294 C291 0.929 . S
S295 N296 1.613 1_565 S
S295 N297 1.610 1_565 S
N296 S295 1.613 1_545 S
N296 C299 1.350 . S
N297 S295 1.610 1_545 S
N297 C298 1.351 . S
C298 C292 1.428 . S
C298 N297 1.351 . S
C298 C299 1.434 . S
C299 C290 1.429 . S
C299 N296 1.350 . S
C299 C298 1.434 . S
C300 C301 1.369 1_455 S
C300 C302 1.419 . S
C300 H304 0.930 . S
C301 C300 1.369 1_655 S
C301 C310 1.429 . S
C302 C300 1.419 . S
C302 C303 1.363 . S
C302 H305 0.929 . S
C303 C302 1.363 . S
C303 C309 1.428 1_455 S
H304 C300 0.930 . S
H305 C302 0.929 . S
S306 N307 1.613 . S
S306 N308 1.610 . S
N307 S306 1.613 . S
N307 C310 1.350 . S
N308 S306 1.610 . S
N308 C309 1.351 . S
C309 C303 1.428 1_655 S
C309 N308 1.351 . S
C309 C310 1.434 . S
C310 C301 1.429 . S
C310 N307 1.350 . S
C310 C309 1.434 . S
C311 C312 1.369 1_565 S
C311 C313 1.419 . S
C311 H315 0.930 . S
C312 C311 1.369 1_545 S
C312 C321 1.429 . S
C313 C311 1.419 . S
C313 C314 1.363 . S
C313 H316 0.929 . S
C314 C313 1.363 . S
C314 C320 1.428 1_565 S
H315 C311 0.930 . S
H316 C313 0.929 . S
S317 N318 1.613 . S
S317 N319 1.610 . S
N318 S317 1.613 . S
N318 C321 1.350 . S
N319 S317 1.610 . S
N319 C320 1.351 . S
C320 C314 1.428 1_545 S
C320 N319 1.351 . S
C320 C321 1.434 . S
C321 C312 1.429 . S
C321 N318 1.350 . S
C321 C320 1.434 . S
C322 C323 1.369 . S
C322 C324 1.419 . S
C322 H326 0.930 . S
C323 C322 1.369 . S
C323 C332 1.429 . S
C324 C322 1.419 . S
C324 C325 1.363 . S
C324 H327 0.929 . S
C325 C324 1.363 . S
C325 C331 1.428 . S
H326 C322 0.930 . S
H327 C324 0.929 . S
S328 N329 1.613 . S
S328 N330 1.610 . S
N329 S328 1.613 . S
N329 C332 1.350 . S
N330 S328 1.610 . S
N330 C331 1.351 . S
C331 C325 1.428 . S
C331 N330 1.351 . S
C331 C332 1.434 . S
C332 C323 1.429 . S
C332 N329 1.350 . S
C332 C331 1.434 . S
C333 C334 1.369 . S
C333 C335 1.419 . S
C333 H337 0.930 . S
C334 C333 1.369 . S
C334 C343 1.429 1_545 S
C335 C333 1.419 . S
C335 C336 1.363 1_545 S
C335 H338 0.929 . S
C336 C335 1.363 1_565 S
C336 C342 1.428 . S
H337 C333 0.930 . S
H338 C335 0.929 . S
S339 N340 1.613 . S
S339 N341 1.610 . S
N340 S339 1.613 . S
N340 C343 1.350 . S
N341 S339 1.610 . S
N341 C342 1.351 . S
C342 C336 1.428 . S
C342 N341 1.351 . S
C342 C343 1.434 . S
C343 C334 1.429 1_565 S
C343 N340 1.350 . S
C343 C342 1.434 . S
C344 C345 1.369 . S
C344 C346 1.419 . S
C344 H348 0.930 . S
C345 C344 1.369 . S
C345 C354 1.429 . S
C346 C344 1.419 . S
C346 C347 1.363 . S
C346 H349 0.929 . S
C347 C346 1.363 . S
C347 C353 1.428 . S
H348 C344 0.930 . S
H349 C346 0.929 . S
S350 N351 1.613 . S
S350 N352 1.610 . S
N351 S350 1.613 . S
N351 C354 1.350 . S
N352 S350 1.610 . S
N352 C353 1.351 . S
C353 C347 1.428 . S
C353 N352 1.351 . S
C353 C354 1.434 . S
C354 C345 1.429 . S
C354 N351 1.350 . S
C354 C353 1.434 . S
C355 C356 1.369 1_655 S
C355 C357 1.419 . S
C355 H359 0.930 . S
C356 C355 1.369 1_455 S
C356 C365 1.429 . S
C357 C355 1.419 . S
C357 C358 1.363 . S
C357 H360 0.929 . S
C358 C357 1.363 . S
C358 C364 1.428 1_655 S
H359 C355 0.930 . S
H360 C357 0.929 . S
S361 N362 1.613 . S
S361 N363 1.610 . S
N362 S361 1.613 . S
N362 C365 1.350 . S
N363 S361 1.610 . S
N363 C364 1.351 . S
C364 C358 1.428 1_455 S
C364 N363 1.351 . S
C364 C365 1.434 . S
C365 C356 1.429 . S
C365 N362 1.350 . S
C365 C364 1.434 . S
C366 C367 1.369 . S
C366 C368 1.419 1_545 S
C366 H370 0.930 . S
C367 C366 1.369 . S
C367 C376 1.429 1_455 S
C368 C366 1.419 1_565 S
C368 C369 1.363 1_455 S
C368 H371 0.929 . S
C369 C368 1.363 1_655 S
C369 C375 1.428 . S
H370 C366 0.930 . S
H371 C368 0.929 . S
S372 N373 1.613 1_565 S
S372 N374 1.610 . S
N373 S372 1.613 1_545 S
N373 C376 1.350 . S
N374 S372 1.610 . S
N374 C375 1.351 . S
C375 C369 1.428 . S
C375 N374 1.351 . S
C375 C376 1.434 1_565 S
C376 C367 1.429 1_655 S
C376 N373 1.350 . S
C376 C375 1.434 1_545 S
C377 C378 1.369 1_565 S
C377 C379 1.419 1_655 S
C377 H381 0.930 . S
C378 C377 1.369 1_545 S
C378 C387 1.429 . S
C379 C377 1.419 1_455 S
C379 C380 1.363 . S
C379 H382 0.929 . S
C380 C379 1.363 . S
C380 C386 1.428 1_565 S
H381 C377 0.930 . S
H382 C379 0.929 . S
S383 N384 1.613 1_455 S
S383 N385 1.610 . S
N384 S383 1.613 1_655 S
N384 C387 1.350 . S
N385 S383 1.610 . S
N385 C386 1.351 . S
C386 C380 1.428 1_545 S
C386 N385 1.351 . S
C386 C387 1.434 1_455 S
C387 C378 1.429 . S
C387 N384 1.350 . S
C387 C386 1.434 1_655 S
C388 C389 1.369 1_565 S
C388 C390 1.419 1_455 S
C388 H392 0.930 . S
C389 C388 1.369 1_545 S
C389 C398 1.429 . S
C390 C388 1.419 1_655 S
C390 C391 1.363 . S
C390 H393 0.929 . S
C391 C390 1.363 . S
C391 C397 1.428 1_565 S
H392 C388 0.930 . S
H393 C390 0.929 . S
S394 N395 1.613 1_655 S
S394 N396 1.610 . S
N395 S394 1.613 1_455 S
N395 C398 1.350 . S
N396 S394 1.610 . S
N396 C397 1.351 . S
C397 C391 1.428 1_545 S
C397 N396 1.351 . S
C397 C398 1.434 1_655 S
C398 C389 1.429 . S
C398 N395 1.350 . S
C398 C397 1.434 1_455 S
C399 C400 1.369 1_545 S
C399 C401 1.419 1_655 S
C399 H403 0.930 . S
C400 C399 1.369 1_565 S
C400 C409 1.429 . S
C401 C399 1.419 1_455 S
C401 C402 1.363 . S
C401 H404 0.929 . S
C402 C401 1.363 . S
C402 C408 1.428 1_545 S
H403 C399 0.930 . S
H404 C401 0.929 . S
S405 N406 1.613 . S
S405 N407 1.610 1_655 S
N406 S405 1.613 . S
N406 C409 1.350 . S
N407 S405 1.610 1_455 S
N407 C408 1.351 . S
C408 C402 1.428 1_565 S
C408 N407 1.351 . S
C408 C409 1.434 1_455 S
C409 C400 1.429 . S
C409 N406 1.350 . S
C409 C408 1.434 1_655 S
C410 C411 1.369 . S
C410 C412 1.419 1_565 S
C410 H414 0.930 . S
C411 C410 1.369 . S
C411 C420 1.429 1_655 S
C412 C410 1.419 1_545 S
C412 C413 1.363 1_655 S
C412 H415 0.929 . S
C413 C412 1.363 1_455 S
C413 C419 1.428 . S
H414 C410 0.930 . S
H415 C412 0.929 . S
S416 N417 1.613 . S
S416 N418 1.610 1_565 S
N417 S416 1.613 . S
N417 C420 1.350 . S
N418 S416 1.610 1_545 S
N418 C419 1.351 . S
C419 C413 1.428 . S
C419 N418 1.351 . S
C419 C420 1.434 1_545 S
C420 C411 1.429 1_455 S
C420 N417 1.350 . S
C420 C419 1.434 1_565 S
C421 C422 1.369 1_545 S
C421 C423 1.419 . S
C421 H425 0.930 . S
C422 C421 1.369 1_565 S
C422 C431 1.429 1_455 S
C423 C421 1.419 . S
C423 C424 1.363 1_455 S
C423 H426 0.929 . S
C424 C423 1.363 1_655 S
C424 C430 1.428 1_545 S
H425 C421 0.930 . S
H426 C423 0.929 . S
S427 N428 1.613 . S
S427 N429 1.610 . S
N428 S427 1.613 . S
N428 C431 1.350 . S
N429 S427 1.610 . S
N429 C430 1.351 . S
C430 C424 1.428 1_565 S
C430 N429 1.351 . S
C430 C431 1.434 . S
C431 C422 1.429 1_655 S
C431 N428 1.350 . S
C431 C430 1.434 . S
C169 C154 1.558 . S
C171 C0 1.558 . S
C180 C15 1.563 . S
C182 C97 1.560 . S
C191 C28 1.558 . S
C193 C99 1.559 . S
C202 C55 1.561 . S
C204 C113 1.562 . S
C213 C127 1.560 . S
C215 C68 1.558 . S
C224 C71 1.563 . S
C226 C140 1.559 . S
C235 C1 1.573 . S
C237 C141 1.570 . S
C246 C14 1.568 . S
C248 C155 1.571 . S
C257 C29 1.570 . S
C259 C96 1.571 . S
C268 C54 1.571 . S
C270 C98 1.568 . S
C279 C112 1.569 . S
C281 C69 1.570 . S
C290 C126 1.572 . S
C292 C70 1.569 . S
C301 C42 1.596 . S
C303 C13 1.597 . S
C312 C26 1.596 . S
C314 C57 1.595 . S
C323 C82 1.595 . S
C325 C41 1.597 . S
C334 C138 1.593 . S
C336 C84 1.596 . S
C345 C153 1.595 . S
C347 C110 1.597 . S
C356 C124 1.598 . S
C358 C167 1.595 . S
C367 C12 1.565 . S
C369 C43 1.572 . S
C378 C27 1.571 . S
C380 C56 1.569 . S
C389 C83 1.567 . S
C391 C40 1.571 . S
C400 C85 1.573 . S
C402 C139 1.568 . S
C411 C111 1.572 . S
C413 C152 1.568 . S
C422 C125 1.567 . S
C424 C166 1.570 . S
