# Generated by pormake.
# Topology ana, (4)-cn, num edge types: 1
# Building blocks:
#     Node 0, Type 0, BuildingBlock: QUQFOY_clean_sbu_1, # of connection points: 4
#     Node 1, Type 0, BuildingBlock: QUQFOY_clean_sbu_1, # of connection points: 4
#     Node 2, Type 0, BuildingBlock: QUQFOY_clean_sbu_1, # of connection points: 4
#     Node 3, Type 0, BuildingBlock: QUQFOY_clean_sbu_1, # of connection points: 4
#     Node 4, Type 0, BuildingBlock: QUQFOY_clean_sbu_1, # of connection points: 4
#     Node 5, Type 0, BuildingBlock: QUQFOY_clean_sbu_1, # of connection points: 4
#     Node 6, Type 0, BuildingBlock: QUQFOY_clean_sbu_1, # of connection points: 4
#     Node 7, Type 0, BuildingBlock: QUQFOY_clean_sbu_1, # of connection points: 4
#     Node 8, Type 0, BuildingBlock: QUQFOY_clean_sbu_1, # of connection points: 4
#     Node 9, Type 0, BuildingBlock: QUQFOY_clean_sbu_1, # of connection points: 4
#     Node 10, Type 0, BuildingBlock: QUQFOY_clean_sbu_1, # of connection points: 4
#     Node 11, Type 0, BuildingBlock: QUQFOY_clean_sbu_1, # of connection points: 4
#     Node 12, Type 0, BuildingBlock: QUQFOY_clean_sbu_1, # of connection points: 4
#     Node 13, Type 0, BuildingBlock: QUQFOY_clean_sbu_1, # of connection points: 4
#     Node 14, Type 0, BuildingBlock: QUQFOY_clean_sbu_1, # of connection points: 4
#     Node 15, Type 0, BuildingBlock: QUQFOY_clean_sbu_1, # of connection points: 4
#     Node 16, Type 0, BuildingBlock: QUQFOY_clean_sbu_1, # of connection points: 4
#     Node 17, Type 0, BuildingBlock: QUQFOY_clean_sbu_1, # of connection points: 4
#     Node 18, Type 0, BuildingBlock: QUQFOY_clean_sbu_1, # of connection points: 4
#     Node 19, Type 0, BuildingBlock: QUQFOY_clean_sbu_1, # of connection points: 4
#     Node 20, Type 0, BuildingBlock: QUQFOY_clean_sbu_1, # of connection points: 4
#     Node 21, Type 0, BuildingBlock: QUQFOY_clean_sbu_1, # of connection points: 4
#     Node 22, Type 0, BuildingBlock: QUQFOY_clean_sbu_1, # of connection points: 4
#     Node 23, Type 0, BuildingBlock: QUQFOY_clean_sbu_1, # of connection points: 4
#     Node 24, Type 0, BuildingBlock: QUQFOY_clean_sbu_1, # of connection points: 4
#     Node 25, Type 0, BuildingBlock: QUQFOY_clean_sbu_1, # of connection points: 4
#     Node 26, Type 0, BuildingBlock: QUQFOY_clean_sbu_1, # of connection points: 4
#     Node 27, Type 0, BuildingBlock: QUQFOY_clean_sbu_1, # of connection points: 4
#     Node 28, Type 0, BuildingBlock: QUQFOY_clean_sbu_1, # of connection points: 4
#     Node 29, Type 0, BuildingBlock: QUQFOY_clean_sbu_1, # of connection points: 4
#     Node 30, Type 0, BuildingBlock: QUQFOY_clean_sbu_1, # of connection points: 4
#     Node 31, Type 0, BuildingBlock: QUQFOY_clean_sbu_1, # of connection points: 4
#     Node 32, Type 0, BuildingBlock: QUQFOY_clean_sbu_1, # of connection points: 4
#     Node 33, Type 0, BuildingBlock: QUQFOY_clean_sbu_1, # of connection points: 4
#     Node 34, Type 0, BuildingBlock: QUQFOY_clean_sbu_1, # of connection points: 4
#     Node 35, Type 0, BuildingBlock: QUQFOY_clean_sbu_1, # of connection points: 4
#     Node 36, Type 0, BuildingBlock: QUQFOY_clean_sbu_1, # of connection points: 4
#     Node 37, Type 0, BuildingBlock: QUQFOY_clean_sbu_1, # of connection points: 4
#     Node 38, Type 0, BuildingBlock: QUQFOY_clean_sbu_1, # of connection points: 4
#     Node 39, Type 0, BuildingBlock: QUQFOY_clean_sbu_1, # of connection points: 4
#     Node 40, Type 0, BuildingBlock: QUQFOY_clean_sbu_1, # of connection points: 4
#     Node 41, Type 0, BuildingBlock: QUQFOY_clean_sbu_1, # of connection points: 4
#     Node 42, Type 0, BuildingBlock: QUQFOY_clean_sbu_1, # of connection points: 4
#     Node 43, Type 0, BuildingBlock: QUQFOY_clean_sbu_1, # of connection points: 4
#     Node 44, Type 0, BuildingBlock: QUQFOY_clean_sbu_1, # of connection points: 4
#     Node 45, Type 0, BuildingBlock: QUQFOY_clean_sbu_1, # of connection points: 4
#     Node 46, Type 0, BuildingBlock: QUQFOY_clean_sbu_1, # of connection points: 4
#     Node 47, Type 0, BuildingBlock: QUQFOY_clean_sbu_1, # of connection points: 4
#     Edge 48, Type (0, 0), BuildingBlock: OJICUG_clean_linker_0, # of connection points: 2
#     Edge 49, Type (0, 0), BuildingBlock: OJICUG_clean_linker_0, # of connection points: 2
#     Edge 50, Type (0, 0), BuildingBlock: OJICUG_clean_linker_0, # of connection points: 2
#     Edge 51, Type (0, 0), BuildingBlock: OJICUG_clean_linker_0, # of connection points: 2
#     Edge 52, Type (0, 0), BuildingBlock: OJICUG_clean_linker_0, # of connection points: 2
#     Edge 53, Type (0, 0), BuildingBlock: OJICUG_clean_linker_0, # of connection points: 2
#     Edge 54, Type (0, 0), BuildingBlock: OJICUG_clean_linker_0, # of connection points: 2
#     Edge 55, Type (0, 0), BuildingBlock: OJICUG_clean_linker_0, # of connection points: 2
#     Edge 56, Type (0, 0), BuildingBlock: OJICUG_clean_linker_0, # of connection points: 2
#     Edge 57, Type (0, 0), BuildingBlock: OJICUG_clean_linker_0, # of connection points: 2
#     Edge 58, Type (0, 0), BuildingBlock: OJICUG_clean_linker_0, # of connection points: 2
#     Edge 59, Type (0, 0), BuildingBlock: OJICUG_clean_linker_0, # of connection points: 2
#     Edge 60, Type (0, 0), BuildingBlock: OJICUG_clean_linker_0, # of connection points: 2
#     Edge 61, Type (0, 0), BuildingBlock: OJICUG_clean_linker_0, # of connection points: 2
#     Edge 62, Type (0, 0), BuildingBlock: OJICUG_clean_linker_0, # of connection points: 2
#     Edge 63, Type (0, 0), BuildingBlock: OJICUG_clean_linker_0, # of connection points: 2
#     Edge 64, Type (0, 0), BuildingBlock: OJICUG_clean_linker_0, # of connection points: 2
#     Edge 65, Type (0, 0), BuildingBlock: OJICUG_clean_linker_0, # of connection points: 2
#     Edge 66, Type (0, 0), BuildingBlock: OJICUG_clean_linker_0, # of connection points: 2
#     Edge 67, Type (0, 0), BuildingBlock: OJICUG_clean_linker_0, # of connection points: 2
#     Edge 68, Type (0, 0), BuildingBlock: OJICUG_clean_linker_0, # of connection points: 2
#     Edge 69, Type (0, 0), BuildingBlock: OJICUG_clean_linker_0, # of connection points: 2
#     Edge 70, Type (0, 0), BuildingBlock: OJICUG_clean_linker_0, # of connection points: 2
#     Edge 71, Type (0, 0), BuildingBlock: OJICUG_clean_linker_0, # of connection points: 2
#     Edge 72, Type (0, 0), BuildingBlock: OJICUG_clean_linker_0, # of connection points: 2
#     Edge 73, Type (0, 0), BuildingBlock: OJICUG_clean_linker_0, # of connection points: 2
#     Edge 74, Type (0, 0), BuildingBlock: OJICUG_clean_linker_0, # of connection points: 2
#     Edge 75, Type (0, 0), BuildingBlock: OJICUG_clean_linker_0, # of connection points: 2
#     Edge 76, Type (0, 0), BuildingBlock: OJICUG_clean_linker_0, # of connection points: 2
#     Edge 77, Type (0, 0), BuildingBlock: OJICUG_clean_linker_0, # of connection points: 2
#     Edge 78, Type (0, 0), BuildingBlock: OJICUG_clean_linker_0, # of connection points: 2
#     Edge 79, Type (0, 0), BuildingBlock: OJICUG_clean_linker_0, # of connection points: 2
#     Edge 80, Type (0, 0), BuildingBlock: OJICUG_clean_linker_0, # of connection points: 2
#     Edge 81, Type (0, 0), BuildingBlock: OJICUG_clean_linker_0, # of connection points: 2
#     Edge 82, Type (0, 0), BuildingBlock: OJICUG_clean_linker_0, # of connection points: 2
#     Edge 83, Type (0, 0), BuildingBlock: OJICUG_clean_linker_0, # of connection points: 2
#     Edge 84, Type (0, 0), BuildingBlock: OJICUG_clean_linker_0, # of connection points: 2
#     Edge 85, Type (0, 0), BuildingBlock: OJICUG_clean_linker_0, # of connection points: 2
#     Edge 86, Type (0, 0), BuildingBlock: OJICUG_clean_linker_0, # of connection points: 2
#     Edge 87, Type (0, 0), BuildingBlock: OJICUG_clean_linker_0, # of connection points: 2
#     Edge 88, Type (0, 0), BuildingBlock: OJICUG_clean_linker_0, # of connection points: 2
#     Edge 89, Type (0, 0), BuildingBlock: OJICUG_clean_linker_0, # of connection points: 2
#     Edge 90, Type (0, 0), BuildingBlock: OJICUG_clean_linker_0, # of connection points: 2
#     Edge 91, Type (0, 0), BuildingBlock: OJICUG_clean_linker_0, # of connection points: 2
#     Edge 92, Type (0, 0), BuildingBlock: OJICUG_clean_linker_0, # of connection points: 2
#     Edge 93, Type (0, 0), BuildingBlock: OJICUG_clean_linker_0, # of connection points: 2
#     Edge 94, Type (0, 0), BuildingBlock: OJICUG_clean_linker_0, # of connection points: 2
#     Edge 95, Type (0, 0), BuildingBlock: OJICUG_clean_linker_0, # of connection points: 2
#     Edge 96, Type (0, 0), BuildingBlock: OJICUG_clean_linker_0, # of connection points: 2
#     Edge 97, Type (0, 0), BuildingBlock: OJICUG_clean_linker_0, # of connection points: 2
#     Edge 98, Type (0, 0), BuildingBlock: OJICUG_clean_linker_0, # of connection points: 2
#     Edge 99, Type (0, 0), BuildingBlock: OJICUG_clean_linker_0, # of connection points: 2
#     Edge 100, Type (0, 0), BuildingBlock: OJICUG_clean_linker_0, # of connection points: 2
#     Edge 101, Type (0, 0), BuildingBlock: OJICUG_clean_linker_0, # of connection points: 2
#     Edge 102, Type (0, 0), BuildingBlock: OJICUG_clean_linker_0, # of connection points: 2
#     Edge 103, Type (0, 0), BuildingBlock: OJICUG_clean_linker_0, # of connection points: 2
#     Edge 104, Type (0, 0), BuildingBlock: OJICUG_clean_linker_0, # of connection points: 2
#     Edge 105, Type (0, 0), BuildingBlock: OJICUG_clean_linker_0, # of connection points: 2
#     Edge 106, Type (0, 0), BuildingBlock: OJICUG_clean_linker_0, # of connection points: 2
#     Edge 107, Type (0, 0), BuildingBlock: OJICUG_clean_linker_0, # of connection points: 2
#     Edge 108, Type (0, 0), BuildingBlock: OJICUG_clean_linker_0, # of connection points: 2
#     Edge 109, Type (0, 0), BuildingBlock: OJICUG_clean_linker_0, # of connection points: 2
#     Edge 110, Type (0, 0), BuildingBlock: OJICUG_clean_linker_0, # of connection points: 2
#     Edge 111, Type (0, 0), BuildingBlock: OJICUG_clean_linker_0, # of connection points: 2
#     Edge 112, Type (0, 0), BuildingBlock: OJICUG_clean_linker_0, # of connection points: 2
#     Edge 113, Type (0, 0), BuildingBlock: OJICUG_clean_linker_0, # of connection points: 2
#     Edge 114, Type (0, 0), BuildingBlock: OJICUG_clean_linker_0, # of connection points: 2
#     Edge 115, Type (0, 0), BuildingBlock: OJICUG_clean_linker_0, # of connection points: 2
#     Edge 116, Type (0, 0), BuildingBlock: OJICUG_clean_linker_0, # of connection points: 2
#     Edge 117, Type (0, 0), BuildingBlock: OJICUG_clean_linker_0, # of connection points: 2
#     Edge 118, Type (0, 0), BuildingBlock: OJICUG_clean_linker_0, # of connection points: 2
#     Edge 119, Type (0, 0), BuildingBlock: OJICUG_clean_linker_0, # of connection points: 2
#     Edge 120, Type (0, 0), BuildingBlock: OJICUG_clean_linker_0, # of connection points: 2
#     Edge 121, Type (0, 0), BuildingBlock: OJICUG_clean_linker_0, # of connection points: 2
#     Edge 122, Type (0, 0), BuildingBlock: OJICUG_clean_linker_0, # of connection points: 2
#     Edge 123, Type (0, 0), BuildingBlock: OJICUG_clean_linker_0, # of connection points: 2
#     Edge 124, Type (0, 0), BuildingBlock: OJICUG_clean_linker_0, # of connection points: 2
#     Edge 125, Type (0, 0), BuildingBlock: OJICUG_clean_linker_0, # of connection points: 2
#     Edge 126, Type (0, 0), BuildingBlock: OJICUG_clean_linker_0, # of connection points: 2
#     Edge 127, Type (0, 0), BuildingBlock: OJICUG_clean_linker_0, # of connection points: 2
#     Edge 128, Type (0, 0), BuildingBlock: OJICUG_clean_linker_0, # of connection points: 2
#     Edge 129, Type (0, 0), BuildingBlock: OJICUG_clean_linker_0, # of connection points: 2
#     Edge 130, Type (0, 0), BuildingBlock: OJICUG_clean_linker_0, # of connection points: 2
#     Edge 131, Type (0, 0), BuildingBlock: OJICUG_clean_linker_0, # of connection points: 2
#     Edge 132, Type (0, 0), BuildingBlock: OJICUG_clean_linker_0, # of connection points: 2
#     Edge 133, Type (0, 0), BuildingBlock: OJICUG_clean_linker_0, # of connection points: 2
#     Edge 134, Type (0, 0), BuildingBlock: OJICUG_clean_linker_0, # of connection points: 2
#     Edge 135, Type (0, 0), BuildingBlock: OJICUG_clean_linker_0, # of connection points: 2
#     Edge 136, Type (0, 0), BuildingBlock: OJICUG_clean_linker_0, # of connection points: 2
#     Edge 137, Type (0, 0), BuildingBlock: OJICUG_clean_linker_0, # of connection points: 2
#     Edge 138, Type (0, 0), BuildingBlock: OJICUG_clean_linker_0, # of connection points: 2
#     Edge 139, Type (0, 0), BuildingBlock: OJICUG_clean_linker_0, # of connection points: 2
#     Edge 140, Type (0, 0), BuildingBlock: OJICUG_clean_linker_0, # of connection points: 2
#     Edge 141, Type (0, 0), BuildingBlock: OJICUG_clean_linker_0, # of connection points: 2
#     Edge 142, Type (0, 0), BuildingBlock: OJICUG_clean_linker_0, # of connection points: 2
#     Edge 143, Type (0, 0), BuildingBlock: OJICUG_clean_linker_0, # of connection points: 2
# Relax obj value: 0.115
# Max RMSD: 0.186
# Mean RMSD: 0.142
data_MOF--net-ana--node1-QUQFOY_clean_sbu_1--edge1-OJICUG_clean_linker_0
_symmetry_space_group_name_H-M    P1
_symmetry_Int_Tables_number       1
_symmetry_cell_setting            triclinic
loop_
_symmetry_equiv_pos_as_xyz
'x, y, z'
_cell_length_a     49.655111
_cell_length_b     51.012375
_cell_length_c     50.020498
_cell_angle_alpha  91.240231
_cell_angle_beta   91.824817
_cell_angle_gamma 94.915539
loop_
_atom_site_label
_atom_site_type_symbol
_atom_site_fract_x
_atom_site_fract_y
_atom_site_fract_z
_atom_type_partial_charge
O0 O 0.12336 0.11362 0.45391 0.0
Cd1 Cd 0.12362 0.11806 0.41283 0.0
Cd2 Cd 0.11851 0.16895 0.4273 0.0
O3 O 0.12916 0.15593 0.46454 0.0
O4 O 0.1431 0.0884 0.3987 0.0
O5 O 0.15895 0.13021 0.39656 0.0
C6 C 0.16241 0.10559 0.39262 0.0
C7 C 0.13104 0.21258 0.41597 0.0
C8 C 0.12735 0.13204 0.47149 0.0
C9 C 0.07106 0.13739 0.39885 0.0
O10 O 0.07996 0.15706 0.41351 0.0
O11 O 0.0864 0.11949 0.3931 0.0
O12 O 0.11526 0.20692 0.43528 0.0
O13 O 0.14107 0.19341 0.40359 0.0
O14 O 0.11221 0.91333 0.65084 0.0
Cd15 Cd 0.08636 0.88439 0.66643 0.0
Cd16 Cd 0.09526 0.86429 0.61456 0.0
O17 O 0.11857 0.8991 0.60968 0.0
O18 O 0.08446 0.89897 0.70334 0.0
O19 O 0.10183 0.86142 0.69453 0.0
C20 C 0.09676 0.87939 0.71179 0.0
C21 C 0.11168 0.82437 0.60271 0.0
C22 C 0.12291 0.91635 0.62829 0.0
C23 C 0.03761 0.87147 0.62992 0.0
O24 O 0.05387 0.86471 0.61243 0.0
O25 O 0.04631 0.87976 0.65302 0.0
O26 O 0.10366 0.84016 0.58491 0.0
O27 O 0.11127 0.83174 0.62757 0.0
O28 O 0.425 0.8361 0.91857 0.0
Cd29 Cd 0.38885 0.82203 0.93395 0.0
Cd30 Cd 0.37753 0.87146 0.92042 0.0
O31 O 0.41305 0.87211 0.89951 0.0
O32 O 0.3969 0.78586 0.94353 0.0
O33 O 0.36633 0.79344 0.91231 0.0
C34 C 0.37944 0.77679 0.9254 0.0
C35 C 0.33494 0.87485 0.90065 0.0
C36 C 0.43051 0.85572 0.90391 0.0
C37 C 0.37861 0.86021 0.9784 0.0
O38 O 0.38008 0.8784 0.9614 0.0
O39 O 0.37912 0.83635 0.9708 0.0
O40 O 0.35171 0.89541 0.90501 0.0
O41 O 0.34306 0.85209 0.90623 0.0
O42 O 0.4322 0.13269 0.12179 0.0
Cd43 Cd 0.3912 0.13048 0.12739 0.0
Cd44 Cd 0.41009 0.11483 0.17935 0.0
O45 O 0.44721 0.12253 0.162 0.0
O46 O 0.37672 0.14932 0.09638 0.0
O47 O 0.37388 0.16329 0.13825 0.0
C48 C 0.36959 0.16687 0.11302 0.0
C49 C 0.40672 0.12188 0.2255 0.0
C50 C 0.45164 0.12898 0.13802 0.0
C51 C 0.37131 0.0772 0.14484 0.0
O52 O 0.38557 0.08235 0.16613 0.0
O53 O 0.37046 0.09374 0.12631 0.0
O54 O 0.42107 0.10429 0.21594 0.0
O55 O 0.3951 0.13666 0.20884 0.0
O56 O 0.10113 0.79046 0.114 0.0
Cd57 Cd 0.10555 0.83016 0.10562 0.0
Cd58 Cd 0.12551 0.80871 0.05988 0.0
O59 O 0.11149 0.77327 0.07522 0.0
O60 O 0.08747 0.84598 0.1362 0.0
O61 O 0.07302 0.84917 0.09433 0.0
C62 C 0.07007 0.85416 0.11944 0.0
C63 C 0.11968 0.81733 0.01457 0.0
C64 C 0.10385 0.77043 0.09904 0.0
C65 C 0.1642 0.8425 0.09594 0.0
O66 O 0.16115 0.82566 0.07679 0.0
O67 O 0.14399 0.84882 0.1088 0.0
O68 O 0.13498 0.79977 0.02271 0.0
O69 O 0.10649 0.82942 0.0322 0.0
O70 O 0.37289 0.87224 0.30923 0.0
Cd71 Cd 0.38294 0.87807 0.34945 0.0
Cd72 Cd 0.43037 0.8698 0.33192 0.0
O73 O 0.41418 0.88547 0.29793 0.0
O74 O 0.35699 0.90164 0.36469 0.0
O75 O 0.40049 0.91379 0.35984 0.0
C76 C 0.37672 0.91991 0.36626 0.0
C77 C 0.47637 0.8766 0.34292 0.0
C78 C 0.38932 0.88019 0.2916 0.0
C79 C 0.40107 0.82738 0.3624 0.0
O80 O 0.41616 0.83247 0.34282 0.0
O81 O 0.38753 0.8452 0.37202 0.0
O82 O 0.46753 0.86373 0.32156 0.0
O83 O 0.45911 0.88755 0.3573 0.0
O84 O 0.31781 0.1786 0.58379 0.0
Cd85 Cd 0.35144 0.19338 0.56459 0.0
Cd86 Cd 0.3775 0.17708 0.60901 0.0
O87 O 0.33967 0.15901 0.6156 0.0
O88 O 0.34032 0.19161 0.52619 0.0
O89 O 0.37243 0.16871 0.54342 0.0
C90 C 0.35744 0.17422 0.52304 0.0
C91 C 0.4139 0.15401 0.62335 0.0
C92 C 0.31768 0.16376 0.6038 0.0
C93 C 0.37847 0.23614 0.59791 0.0
O94 O 0.38381 0.21771 0.61347 0.0
O95 O 0.36636 0.23089 0.57545 0.0
O96 O 0.39892 0.1651 0.63996 0.0
O97 O 0.40811 0.15575 0.59814 0.0
O98 O 0.11107 0.09672 0.80476 0.0
Cd99 Cd 0.10444 0.09825 0.84543 0.0
Cd100 Cd 0.05709 0.11372 0.82333 0.0
O101 O 0.06966 0.09839 0.78798 0.0
O102 O 0.13669 0.08179 0.85995 0.0
O103 O 0.09507 0.06344 0.86312 0.0
C104 C 0.12078 0.06193 0.86668 0.0
C105 C 0.01231 0.11077 0.83621 0.0
C106 C 0.09446 0.09527 0.78478 0.0
C107 C 0.0933 0.15382 0.85454 0.0
O108 O 0.07591 0.14936 0.83552 0.0
O109 O 0.10534 0.13502 0.86439 0.0
O110 O 0.0198 0.12305 0.81512 0.0
O111 O 0.02989 0.098 0.84892 0.0
O112 O 0.10967 0.44623 0.11518 0.0
Cd113 Cd 0.11249 0.40624 0.11666 0.0
Cd114 Cd 0.16682 0.42068 0.10527 0.0
O115 O 0.15333 0.4577 0.11218 0.0
O116 O 0.08423 0.39209 0.14106 0.0
O117 O 0.12821 0.39191 0.15019 0.0
C118 C 0.10357 0.38698 0.1575 0.0
C119 C 0.212 0.41345 0.11524 0.0
C120 C 0.12921 0.46396 0.11447 0.0
C121 C 0.13089 0.3845 0.06615 0.0
O122 O 0.15302 0.39802 0.07219 0.0
O123 O 0.11097 0.38439 0.08145 0.0
O124 O 0.20552 0.42917 0.09679 0.0
O125 O 0.1929 0.40291 0.12946 0.0
O126 O 0.66691 0.08163 0.81919 0.0
Cd127 Cd 0.68301 0.06786 0.85387 0.0
Cd128 Cd 0.65962 0.10788 0.87475 0.0
O129 O 0.63954 0.10789 0.83781 0.0
O130 O 0.68962 0.03123 0.84416 0.0
O131 O 0.66063 0.04148 0.87474 0.0
C132 C 0.67137 0.02372 0.8608 0.0
C133 C 0.63743 0.11159 0.91472 0.0
C134 C 0.64797 0.09673 0.8171 0.0
C135 C 0.7205 0.1105 0.87662 0.0
O136 O 0.69953 0.123 0.8783 0.0
O137 O 0.71847 0.08656 0.86883 0.0
O138 O 0.64114 0.13122 0.89906 0.0
O139 O 0.64481 0.08909 0.90677 0.0
O140 O 0.83056 0.92788 0.32149 0.0
Cd141 Cd 0.81348 0.93753 0.35688 0.0
Cd142 Cd 0.83769 0.89644 0.37243 0.0
O143 O 0.85918 0.90113 0.33776 0.0
O144 O 0.80391 0.97399 0.35181 0.0
O145 O 0.83433 0.96341 0.38215 0.0
C146 C 0.82188 0.98133 0.37024 0.0
C147 C 0.85604 0.89206 0.41516 0.0
C148 C 0.8503 0.91397 0.31833 0.0
C149 C 0.7774 0.89141 0.36976 0.0
O150 O 0.79866 0.87925 0.36952 0.0
O151 O 0.77883 0.91616 0.36718 0.0
O152 O 0.8559 0.87332 0.39738 0.0
O153 O 0.84803 0.91435 0.4078 0.0
O154 O 0.78573 0.12968 0.12695 0.0
Cd155 Cd 0.82727 0.13065 0.12841 0.0
Cd156 Cd 0.81646 0.07633 0.13765 0.0
O157 O 0.77743 0.0866 0.12911 0.0
O158 O 0.84013 0.16269 0.10908 0.0
O159 O 0.84616 0.12231 0.09472 0.0
C160 C 0.84883 0.1474 0.09101 0.0
C161 C 0.82664 0.03361 0.12535 0.0
C162 C 0.76905 0.10935 0.12656 0.0
C163 C 0.84793 0.11223 0.18024 0.0
O164 O 0.83672 0.08978 0.17282 0.0
O165 O 0.84701 0.1319 0.16522 0.0
O166 O 0.80981 0.03781 0.14367 0.0
O167 O 0.83731 0.05372 0.11305 0.0
O168 O 0.28824 0.63103 0.63056 0.0
Cd169 Cd 0.3297 0.63116 0.63305 0.0
Cd170 Cd 0.31876 0.57782 0.64082 0.0
O171 O 0.27978 0.58793 0.63186 0.0
O172 O 0.34452 0.66142 0.61223 0.0
O173 O 0.34879 0.61983 0.6006 0.0
C174 C 0.35287 0.64457 0.59546 0.0
C175 C 0.33063 0.5362 0.62704 0.0
C176 C 0.27149 0.61074 0.62948 0.0
C177 C 0.34938 0.61241 0.68473 0.0
O178 O 0.33819 0.59016 0.67669 0.0
O179 O 0.34875 0.6324 0.67014 0.0
O180 O 0.31302 0.53899 0.64499 0.0
O181 O 0.34093 0.55711 0.6158 0.0
O182 O 0.1759 0.573 0.31863 0.0
Cd183 Cd 0.19287 0.55679 0.35162 0.0
Cd184 Cd 0.16992 0.59608 0.37716 0.0
O185 O 0.1503 0.59892 0.3403 0.0
O186 O 0.19836 0.52045 0.33974 0.0
O187 O 0.17082 0.52979 0.37203 0.0
C188 C 0.18077 0.51245 0.35686 0.0
C189 C 0.14672 0.60258 0.41631 0.0
C190 C 0.15762 0.58891 0.3185 0.0
C191 C 0.23124 0.59695 0.37747 0.0
O192 O 0.21041 0.60908 0.38173 0.0
O193 O 0.22893 0.57416 0.36657 0.0
O194 O 0.15303 0.62156 0.4005 0.0
O195 O 0.15237 0.57923 0.40918 0.0
O196 O 0.33581 0.42066 0.81978 0.0
Cd197 Cd 0.31897 0.43006 0.85537 0.0
Cd198 Cd 0.3407 0.38732 0.8693 0.0
O199 O 0.36364 0.39297 0.83561 0.0
O200 O 0.3113 0.46722 0.85117 0.0
O201 O 0.3411 0.45467 0.88108 0.0
C202 C 0.32972 0.47346 0.8695 0.0
C203 C 0.35649 0.38102 0.91258 0.0
C204 C 0.35537 0.40657 0.81646 0.0
C205 C 0.2807 0.3847 0.86566 0.0
O206 O 0.30127 0.37161 0.8644 0.0
O207 O 0.28335 0.40964 0.86491 0.0
O208 O 0.35695 0.36286 0.89425 0.0
O209 O 0.34963 0.40384 0.90554 0.0
O210 O 0.87121 0.88641 0.54507 0.0
Cd211 Cd 0.87082 0.88125 0.58605 0.0
Cd212 Cd 0.87673 0.83094 0.57075 0.0
O213 O 0.86559 0.84425 0.53379 0.0
O214 O 0.85024 0.90996 0.60059 0.0
O215 O 0.83565 0.86775 0.60181 0.0
C216 C 0.83135 0.89211 0.60615 0.0
C217 C 0.86526 0.78698 0.5816 0.0
C218 C 0.86728 0.86825 0.52721 0.0
C219 C 0.92384 0.86281 0.59941 0.0
O220 O 0.91521 0.84335 0.58433 0.0
O221 O 0.90814 0.88021 0.60577 0.0
O222 O 0.88073 0.79322 0.5622 0.0
O223 O 0.85488 0.80575 0.59432 0.0
O224 O 0.88283 0.08755 0.34819 0.0
Cd225 Cd 0.90866 0.11582 0.33159 0.0
Cd226 Cd 0.89996 0.13763 0.38322 0.0
O227 O 0.87628 0.1032 0.3888 0.0
O228 O 0.91021 0.1002 0.29504 0.0
O229 O 0.89303 0.13803 0.30295 0.0
C230 C 0.89786 0.11957 0.28614 0.0
C231 C 0.88445 0.17788 0.39546 0.0
C232 C 0.87201 0.08536 0.37076 0.0
C233 C 0.95748 0.12949 0.36774 0.0
O234 O 0.9413 0.13675 0.38506 0.0
O235 O 0.94873 0.12069 0.34483 0.0
O236 O 0.89243 0.16191 0.41308 0.0
O237 O 0.88431 0.17052 0.37056 0.0
O238 O 0.56558 0.15763 0.08186 0.0
Cd239 Cd 0.60285 0.1711 0.06868 0.0
Cd240 Cd 0.61301 0.12268 0.08273 0.0
O241 O 0.57728 0.12286 0.10329 0.0
O242 O 0.59725 0.20827 0.06084 0.0
O243 O 0.62518 0.19734 0.09316 0.0
C244 C 0.61362 0.21541 0.08061 0.0
C245 C 0.65564 0.11991 0.10261 0.0
C246 C 0.55975 0.13879 0.09741 0.0
C247 C 0.61359 0.1332 0.0247 0.0
O248 O 0.61083 0.11519 0.04182 0.0
O249 O 0.61389 0.15721 0.03209 0.0
O250 O 0.63893 0.09921 0.09883 0.0
O251 O 0.64737 0.14248 0.09652 0.0
O252 O 0.55761 0.86363 0.87759 0.0
Cd253 Cd 0.59835 0.86558 0.87085 0.0
Cd254 Cd 0.57923 0.88292 0.82078 0.0
O255 O 0.54208 0.87528 0.83812 0.0
O256 O 0.61324 0.8449 0.90021 0.0
O257 O 0.61444 0.83296 0.85753 0.0
C258 C 0.61933 0.82799 0.88236 0.0
C259 C 0.58318 0.87473 0.77497 0.0
C260 C 0.53795 0.86803 0.86191 0.0
C261 C 0.61887 0.91929 0.85525 0.0
O262 O 0.60415 0.91516 0.83411 0.0
O263 O 0.6198 0.90199 0.87303 0.0
O264 O 0.56888 0.89272 0.78381 0.0
O265 O 0.59445 0.86026 0.7922 0.0
O266 O 0.88974 0.21513 0.88867 0.0
Cd267 Cd 0.88436 0.17519 0.89614 0.0
Cd268 Cd 0.8629 0.19684 0.94184 0.0
O269 O 0.87723 0.23227 0.92673 0.0
O270 O 0.90082 0.15964 0.86435 0.0
O271 O 0.91632 0.15452 0.90553 0.0
C272 C 0.9181 0.14996 0.88018 0.0
C273 C 0.86962 0.1867 0.98656 0.0
C274 C 0.88626 0.23513 0.90342 0.0
C275 C 0.82517 0.16257 0.906 0.0
O276 O 0.82738 0.17966 0.92493 0.0
O277 O 0.84579 0.1568 0.89348 0.0
O278 O 0.85419 0.20458 0.97948 0.0
O279 O 0.88253 0.17531 0.96821 0.0
O280 O 0.57907 0.16384 0.6588 0.0
Cd281 Cd 0.56213 0.12887 0.67266 0.0
Cd282 Cd 0.60717 0.11257 0.6518 0.0
O283 O 0.60692 0.1473 0.63089 0.0
O284 O 0.52557 0.13805 0.68201 0.0
O285 O 0.53256 0.11046 0.64871 0.0
C286 C 0.51602 0.12363 0.66188 0.0
C287 C 0.6133 0.07165 0.6324 0.0
C288 C 0.59514 0.16678 0.63967 0.0
C289 C 0.60298 0.11332 0.71154 0.0
O290 O 0.61862 0.11449 0.69189 0.0
O291 O 0.57788 0.11559 0.70784 0.0
O292 O 0.63312 0.08965 0.63549 0.0
O293 O 0.58943 0.07767 0.63849 0.0
O294 O 0.67565 0.82165 0.41569 0.0
Cd295 Cd 0.64205 0.80451 0.43309 0.0
Cd296 Cd 0.61649 0.8228 0.38994 0.0
O297 O 0.65377 0.84262 0.38496 0.0
O298 O 0.65251 0.80367 0.47153 0.0
O299 O 0.61994 0.82684 0.4557 0.0
C300 C 0.63486 0.82032 0.47573 0.0
C301 C 0.5793 0.84584 0.37808 0.0
C302 C 0.67573 0.83775 0.39673 0.0
C303 C 0.618 0.76336 0.39612 0.0
O304 O 0.61213 0.78256 0.38183 0.0
O305 O 0.62904 0.76748 0.41923 0.0
O306 O 0.5946 0.83678 0.36043 0.0
O307 O 0.58513 0.84191 0.40294 0.0
O308 O 0.87175 0.89675 0.19309 0.0
Cd309 Cd 0.87691 0.89329 0.15232 0.0
Cd310 Cd 0.92565 0.88082 0.17233 0.0
O311 O 0.91421 0.89743 0.20752 0.0
O312 O 0.84549 0.91093 0.13774 0.0
O313 O 0.88781 0.92712 0.1336 0.0
C314 C 0.86228 0.92995 0.13055 0.0
C315 C 0.97042 0.88521 0.15911 0.0
C316 C 0.88954 0.89994 0.212 0.0
C317 C 0.88831 0.83785 0.14544 0.0
O318 O 0.9074 0.84417 0.16247 0.0
O319 O 0.87471 0.85548 0.13538 0.0
O320 O 0.96349 0.87304 0.18043 0.0
O321 O 0.95209 0.89653 0.14589 0.0
O322 O 0.8865 0.56123 0.88133 0.0
Cd323 Cd 0.88345 0.60114 0.87941 0.0
Cd324 Cd 0.82925 0.5873 0.88876 0.0
O325 O 0.84272 0.55002 0.88324 0.0
O326 O 0.9122 0.61528 0.85552 0.0
O327 O 0.86837 0.61513 0.84541 0.0
C328 C 0.89317 0.62002 0.83855 0.0
C329 C 0.7846 0.59391 0.87526 0.0
C330 C 0.86687 0.54358 0.88184 0.0
C331 C 0.86386 0.62257 0.92964 0.0
O332 O 0.84164 0.60957 0.92271 0.0
O333 O 0.8842 0.62259 0.91486 0.0
O334 O 0.78992 0.57871 0.89457 0.0
O335 O 0.80468 0.60481 0.86258 0.0
O336 O 0.33285 0.91397 0.18322 0.0
Cd337 Cd 0.31321 0.92677 0.14972 0.0
Cd338 Cd 0.33208 0.88306 0.1283 0.0
O339 O 0.35066 0.87972 0.16537 0.0
O340 O 0.30667 0.96315 0.16043 0.0
O341 O 0.33297 0.95377 0.1272 0.0
C342 C 0.32301 0.97118 0.14224 0.0
C343 C 0.35476 0.87968 0.08867 0.0
C344 C 0.34739 0.89481 0.18529 0.0
C345 C 0.27191 0.88554 0.12772 0.0
O346 O 0.29156 0.87174 0.12373 0.0
O347 O 0.27605 0.90875 0.13753 0.0
O348 O 0.34904 0.85945 0.10312 0.0
O349 O 0.34908 0.90242 0.09769 0.0
O350 O 0.16067 0.07366 0.67806 0.0
Cd351 Cd 0.17944 0.06482 0.64337 0.0
Cd352 Cd 0.15531 0.10601 0.62728 0.0
O353 O 0.13258 0.10057 0.66115 0.0
O354 O 0.18943 0.02853 0.6488 0.0
O355 O 0.15988 0.03868 0.61742 0.0
C356 C 0.17214 0.02094 0.62985 0.0
C357 C 0.13801 0.10985 0.58403 0.0
C358 C 0.14063 0.08729 0.68063 0.0
C359 C 0.21559 0.11156 0.63172 0.0
O360 O 0.19421 0.12356 0.63123 0.0
O361 O 0.21423 0.08681 0.63438 0.0
O362 O 0.13742 0.12868 0.60161 0.0
O363 O 0.14625 0.08779 0.59181 0.0
O364 O 0.20538 0.8661 0.87282 0.0
Cd365 Cd 0.16388 0.8657 0.8706 0.0
Cd366 Cd 0.17501 0.9192 0.86231 0.0
O367 O 0.21385 0.90923 0.87229 0.0
O368 O 0.14982 0.83485 0.89107 0.0
O369 O 0.14499 0.87607 0.9036 0.0
C370 C 0.14153 0.85121 0.90838 0.0
C371 C 0.16274 0.96113 0.87465 0.0
C372 C 0.22212 0.88639 0.87439 0.0
C373 C 0.14491 0.88408 0.81842 0.0
O374 O 0.15647 0.90627 0.82621 0.0
O375 O 0.14476 0.86435 0.83346 0.0
O376 O 0.18086 0.95793 0.85733 0.0
O377 O 0.15219 0.94049 0.88619 0.0
O378 O 0.7138 0.36933 0.36826 0.0
Cd379 Cd 0.6723 0.36787 0.36737 0.0
Cd380 Cd 0.68291 0.42246 0.35492 0.0
O381 O 0.72189 0.41222 0.36381 0.0
O382 O 0.66016 0.33667 0.38825 0.0
O383 O 0.65393 0.37753 0.40093 0.0
C384 C 0.65148 0.35264 0.4057 0.0
C385 C 0.67347 0.46612 0.36324 0.0
C386 C 0.73037 0.38968 0.36757 0.0
C387 C 0.64923 0.38403 0.31583 0.0
O388 O 0.66059 0.40677 0.32186 0.0
O389 O 0.65131 0.36491 0.33132 0.0
O390 O 0.68976 0.46005 0.34507 0.0
O391 O 0.66326 0.44748 0.37786 0.0
O392 O 0.82867 0.42798 0.68015 0.0
Cd393 Cd 0.81199 0.44226 0.64598 0.0
Cd394 Cd 0.83684 0.40339 0.62352 0.0
O395 O 0.8566 0.40295 0.66058 0.0
O396 O 0.80462 0.47853 0.65643 0.0
O397 O 0.83363 0.46943 0.62542 0.0
C398 C 0.82257 0.4867 0.63975 0.0
C399 C 0.85981 0.39853 0.58402 0.0
C400 C 0.84795 0.41324 0.68166 0.0
C401 C 0.77569 0.39935 0.62202 0.0
O402 O 0.79713 0.38772 0.61956 0.0
O403 O 0.77692 0.42296 0.63079 0.0
O404 O 0.85561 0.37937 0.60016 0.0
O405 O 0.85239 0.42125 0.59115 0.0
O406 O 0.66521 0.57238 0.06582 0.0
Cd407 Cd 0.67912 0.55821 0.10116 0.0
Cd408 Cd 0.6353 0.5765 0.1181 0.0
O409 O 0.63779 0.59888 0.08388 0.0
O410 O 0.7182 0.5568 0.09577 0.0
O411 O 0.70169 0.58353 0.1255 0.0
C412 C 0.72224 0.57584 0.11323 0.0
C413 C 0.62912 0.59321 0.16089 0.0
C414 C 0.65012 0.59111 0.06366 0.0
C415 C 0.63758 0.51788 0.1149 0.0
O416 O 0.62262 0.5369 0.11467 0.0
O417 O 0.66291 0.52215 0.11241 0.0
O418 O 0.60954 0.59084 0.14316 0.0
O419 O 0.65286 0.58801 0.15358 0.0
O420 O 0.63784 0.62307 0.93983 0.0
Cd421 Cd 0.63661 0.63264 0.89997 0.0
Cd422 Cd 0.62628 0.67875 0.92286 0.0
O423 O 0.6397 0.66301 0.95785 0.0
O424 O 0.65617 0.60444 0.88302 0.0
O425 O 0.67191 0.64635 0.88435 0.0
C426 C 0.67564 0.62209 0.87873 0.0
C427 C 0.63595 0.72322 0.91379 0.0
C428 C 0.64061 0.63838 0.9603 0.0
C429 C 0.58095 0.64684 0.89189 0.0
O430 O 0.5882 0.66453 0.90955 0.0
O431 O 0.59833 0.63279 0.882 0.0
O432 O 0.62123 0.71573 0.9334 0.0
O433 O 0.64656 0.7054 0.89986 0.0
O434 O 0.57614 0.41244 0.15888 0.0
Cd435 Cd 0.56236 0.37895 0.17751 0.0
Cd436 Cd 0.57821 0.3567 0.13238 0.0
O437 O 0.59834 0.3934 0.12751 0.0
O438 O 0.56385 0.39018 0.21559 0.0
O439 O 0.58852 0.35963 0.19937 0.0
C440 C 0.58251 0.37439 0.21926 0.0
C441 C 0.59897 0.31953 0.11839 0.0
C442 C 0.59216 0.41405 0.13964 0.0
C443 C 0.51781 0.35603 0.14353 0.0
O444 O 0.53638 0.35273 0.12713 0.0
O445 O 0.5237 0.36479 0.1671 0.0
O446 O 0.58975 0.33561 0.1016 0.0
O447 O 0.59732 0.32504 0.14358 0.0
O448 O 0.93114 0.34189 0.41822 0.0
Cd449 Cd 0.89417 0.33101 0.43372 0.0
Cd450 Cd 0.88534 0.37933 0.41685 0.0
O451 O 0.92098 0.3771 0.39659 0.0
O452 O 0.89849 0.29417 0.444 0.0
O453 O 0.86965 0.3041 0.41205 0.0
C454 C 0.88085 0.2864 0.4255 0.0
C455 C 0.84313 0.38095 0.39578 0.0
C456 C 0.93757 0.36019 0.40222 0.0
C457 C 0.88504 0.37223 0.47556 0.0
O458 O 0.88721 0.3892 0.45733 0.0
O459 O 0.885 0.34788 0.46964 0.0
O460 O 0.85978 0.4018 0.39861 0.0
O461 O 0.85116 0.35886 0.40375 0.0
O462 O 0.93736 0.64408 0.62358 0.0
Cd463 Cd 0.89678 0.64441 0.63045 0.0
Cd464 Cd 0.91539 0.6261 0.68106 0.0
O465 O 0.95239 0.63168 0.66297 0.0
O466 O 0.88311 0.66481 0.60018 0.0
O467 O 0.88212 0.67835 0.64237 0.0
C468 C 0.87765 0.68266 0.61732 0.0
C469 C 0.9136 0.63355 0.72732 0.0
C470 C 0.95672 0.63852 0.63908 0.0
C471 C 0.87395 0.59146 0.64662 0.0
O472 O 0.88874 0.59509 0.66779 0.0
O473 O 0.87387 0.60874 0.62874 0.0
O474 O 0.92633 0.61488 0.71743 0.0
O475 O 0.90256 0.64899 0.71092 0.0
O476 O 0.60845 0.2902 0.60949 0.0
Cd477 Cd 0.61337 0.33011 0.60191 0.0
Cd478 Cd 0.63605 0.30865 0.55663 0.0
O479 O 0.62203 0.27321 0.57181 0.0
O480 O 0.59606 0.34532 0.63332 0.0
O481 O 0.58098 0.34987 0.59187 0.0
C482 C 0.57864 0.35437 0.61716 0.0
C483 C 0.63021 0.31735 0.51149 0.0
C484 C 0.61247 0.27027 0.59488 0.0
C485 C 0.67249 0.34408 0.59269 0.0
O486 O 0.67092 0.32689 0.57387 0.0
O487 O 0.65156 0.34934 0.60498 0.0
O488 O 0.64598 0.30015 0.51958 0.0
O489 O 0.61656 0.32897 0.52908 0.0
O490 O 0.87789 0.39142 0.80606 0.0
Cd491 Cd 0.89032 0.39289 0.84593 0.0
Cd492 Cd 0.93431 0.3759 0.82395 0.0
O493 O 0.91834 0.39036 0.78948 0.0
O494 O 0.8656 0.41656 0.86306 0.0
O495 O 0.90935 0.42741 0.85881 0.0
C496 C 0.88591 0.43409 0.86557 0.0
C497 C 0.98058 0.3796 0.83363 0.0
C498 C 0.89327 0.39294 0.78621 0.0
C499 C 0.90169 0.33833 0.85744 0.0
O500 O 0.91692 0.34103 0.83761 0.0
O501 O 0.8907 0.35806 0.86681 0.0
O502 O 0.97017 0.36583 0.81341 0.0
O503 O 0.96486 0.39307 0.84749 0.0
O504 O 0.82502 0.6545 0.09224 0.0
Cd505 Cd 0.85555 0.68066 0.07917 0.0
Cd506 Cd 0.87282 0.67012 0.13204 0.0
O507 O 0.83628 0.64858 0.13459 0.0
O508 O 0.84331 0.6838 0.04129 0.0
O509 O 0.88091 0.66609 0.05288 0.0
C510 C 0.86381 0.67172 0.03432 0.0
C511 C 0.91146 0.6499 0.14401 0.0
C512 C 0.82018 0.64402 0.11457 0.0
C513 C 0.86918 0.72699 0.11729 0.0
O514 O 0.87476 0.71049 0.13488 0.0
O515 O 0.86105 0.71923 0.09384 0.0
O516 O 0.89612 0.65881 0.1618 0.0
O517 O 0.90468 0.65237 0.11907 0.0
O518 O 0.62492 0.60862 0.29056 0.0
Cd519 Cd 0.62102 0.60668 0.33174 0.0
Cd520 Cd 0.57018 0.61762 0.31676 0.0
O521 O 0.58142 0.60539 0.27964 0.0
O522 O 0.6529 0.58847 0.34421 0.0
O523 O 0.61074 0.57122 0.34735 0.0
C524 C 0.63636 0.56886 0.3505 0.0
C525 C 0.52588 0.61038 0.33085 0.0
C526 C 0.60588 0.60587 0.27283 0.0
C527 C 0.6051 0.65912 0.34752 0.0
O528 O 0.58603 0.65405 0.33024 0.0
O529 O 0.62059 0.64148 0.35388 0.0
O530 O 0.53175 0.62435 0.3104 0.0
O531 O 0.54495 0.59853 0.34228 0.0
O532 O 0.61731 0.94504 0.62032 0.0
Cd533 Cd 0.6207 0.90536 0.62384 0.0
Cd534 Cd 0.67536 0.92063 0.60963 0.0
O535 O 0.66043 0.95737 0.61464 0.0
O536 O 0.59091 0.89246 0.64715 0.0
O537 O 0.63427 0.89205 0.65887 0.0
C538 C 0.60917 0.88769 0.6649 0.0
C539 C 0.7217 0.91695 0.61822 0.0
C540 C 0.63621 0.96309 0.61759 0.0
C541 C 0.63856 0.88159 0.57379 0.0
O542 O 0.66082 0.89538 0.57857 0.0
O543 O 0.61908 0.88227 0.58955 0.0
O544 O 0.7132 0.9305 0.59878 0.0
O545 O 0.70396 0.90628 0.63389 0.0
O546 O 0.35987 0.36991 0.04248 0.0
Cd547 Cd 0.35637 0.36377 0.08318 0.0
Cd548 Cd 0.36456 0.31356 0.06652 0.0
O549 O 0.35655 0.32818 0.02938 0.0
O550 O 0.33795 0.39437 0.09683 0.0
O551 O 0.31959 0.35332 0.09746 0.0
C552 C 0.31751 0.37811 0.10195 0.0
C553 C 0.35266 0.26936 0.07573 0.0
C554 C 0.35813 0.35245 0.02382 0.0
C555 C 0.40829 0.34418 0.10039 0.0
O556 O 0.4017 0.32549 0.08369 0.0
O557 O 0.39175 0.36112 0.10567 0.0
O558 O 0.3694 0.27613 0.05752 0.0
O559 O 0.34104 0.28772 0.08784 0.0
O560 O 0.39353 0.58029 0.84921 0.0
Cd561 Cd 0.41675 0.61097 0.83313 0.0
Cd562 Cd 0.40851 0.62994 0.88507 0.0
O563 O 0.38675 0.59428 0.89034 0.0
O564 O 0.41744 0.59775 0.79565 0.0
O565 O 0.3979 0.63353 0.80702 0.0
C566 C 0.40315 0.61655 0.78879 0.0
C567 C 0.39036 0.66901 0.89676 0.0
C568 C 0.38326 0.57678 0.87189 0.0
C569 C 0.4662 0.6271 0.86751 0.0
O570 O 0.45013 0.63193 0.88591 0.0
O571 O 0.45711 0.61874 0.84457 0.0
O572 O 0.39951 0.65388 0.91461 0.0
O573 O 0.39055 0.66138 0.87196 0.0
O574 O 0.0698 0.65969 0.57916 0.0
Cd575 Cd 0.10704 0.67137 0.56461 0.0
Cd576 Cd 0.11639 0.6234 0.58197 0.0
O577 O 0.08061 0.62551 0.6021 0.0
O578 O 0.10205 0.70798 0.55399 0.0
O579 O 0.13027 0.69886 0.58683 0.0
C580 C 0.11895 0.71621 0.57298 0.0
C581 C 0.15865 0.62125 0.6028 0.0
C582 C 0.0636 0.64175 0.59564 0.0
C583 C 0.11775 0.63028 0.52336 0.0
O584 O 0.11474 0.61337 0.54156 0.0
O585 O 0.11787 0.65466 0.52918 0.0
O586 O 0.14171 0.6006 0.60003 0.0
O587 O 0.15081 0.64351 0.59512 0.0
O588 O 0.0632 0.35676 0.37278 0.0
Cd589 Cd 0.10367 0.35574 0.36572 0.0
Cd590 Cd 0.08463 0.3752 0.31513 0.0
O591 O 0.04791 0.36968 0.33368 0.0
O592 O 0.11689 0.33529 0.39619 0.0
O593 O 0.11757 0.32131 0.35413 0.0
C594 C 0.12189 0.31712 0.37923 0.0
C595 C 0.08531 0.36955 0.26857 0.0
C596 C 0.04378 0.36266 0.35754 0.0
C597 C 0.12717 0.40857 0.3497 0.0
O598 O 0.11198 0.40546 0.32877 0.0
O599 O 0.12727 0.39104 0.36733 0.0
O600 O 0.07314 0.38804 0.27957 0.0
O601 O 0.09637 0.35327 0.28399 0.0
O602 O 0.3981 0.7033 0.38925 0.0
Cd603 Cd 0.39469 0.66311 0.39566 0.0
Cd604 Cd 0.37371 0.68269 0.44362 0.0
O605 O 0.38634 0.71854 0.42844 0.0
O606 O 0.41117 0.64918 0.3631 0.0
O607 O 0.42797 0.64389 0.40377 0.0
C608 C 0.42943 0.64012 0.37826 0.0
C609 C 0.37844 0.67563 0.48937 0.0
C610 C 0.39435 0.72254 0.40491 0.0
C611 C 0.33643 0.64782 0.40713 0.0
O612 O 0.33884 0.66406 0.42681 0.0
O613 O 0.3567 0.64338 0.39341 0.0
O614 O 0.36265 0.69223 0.48009 0.0
O615 O 0.39275 0.66361 0.47268 0.0
O616 O 0.07933 0.66477 0.16699 0.0
Cd617 Cd 0.06419 0.62962 0.18191 0.0
Cd618 Cd 0.10714 0.6134 0.15702 0.0
O619 O 0.1049 0.64837 0.13677 0.0
O620 O 0.02839 0.6381 0.19428 0.0
O621 O 0.0333 0.61078 0.16014 0.0
C622 C 0.0176 0.62355 0.17476 0.0
C623 C 0.11067 0.57274 0.13587 0.0
C624 C 0.09361 0.66774 0.1465 0.0
C625 C 0.10797 0.61296 0.21698 0.0
O626 O 0.12201 0.61427 0.19616 0.0
O627 O 0.08284 0.61582 0.21533 0.0
O628 O 0.13094 0.59037 0.13769 0.0
O629 O 0.08769 0.579 0.14439 0.0
O630 O 0.1757 0.31937 0.91045 0.0
Cd631 Cd 0.14095 0.3042 0.92756 0.0
Cd632 Cd 0.11747 0.3204 0.88246 0.0
O633 O 0.15554 0.33845 0.87716 0.0
O634 O 0.14981 0.3053 0.96641 0.0
O635 O 0.11856 0.32835 0.94781 0.0
C636 C 0.13233 0.32244 0.96888 0.0
C637 C 0.08158 0.34452 0.86934 0.0
C638 C 0.17689 0.33401 0.89028 0.0
C639 C 0.11573 0.26141 0.89303 0.0
O640 O 0.11102 0.27982 0.87719 0.0
O641 O 0.12683 0.26673 0.91593 0.0
O642 O 0.0962 0.33373 0.85215 0.0
O643 O 0.08738 0.34171 0.89441 0.0
O644 O 0.38151 0.39788 0.69111 0.0
Cd645 Cd 0.38792 0.39774 0.65039 0.0
Cd646 Cd 0.43615 0.38293 0.67107 0.0
O647 O 0.42322 0.39633 0.70709 0.0
O648 O 0.35574 0.41472 0.63658 0.0
O649 O 0.39744 0.43312 0.634 0.0
C650 C 0.37174 0.43481 0.63059 0.0
C651 C 0.48121 0.38797 0.65917 0.0
C652 C 0.39842 0.39895 0.71083 0.0
C653 C 0.40054 0.34304 0.63851 0.0
O654 O 0.41851 0.34736 0.65704 0.0
O655 O 0.38733 0.36169 0.63009 0.0
O656 O 0.47365 0.37432 0.67936 0.0
O657 O 0.46342 0.40068 0.64673 0.0
O658 O 0.374 0.04691 0.3787 0.0
Cd659 Cd 0.37095 0.08679 0.3762 0.0
Cd660 Cd 0.31652 0.07181 0.38988 0.0
O661 O 0.33079 0.0349 0.38418 0.0
O662 O 0.40045 0.1002 0.35277 0.0
O663 O 0.35696 0.10091 0.3417 0.0
C664 C 0.38198 0.10543 0.33543 0.0
C665 C 0.27062 0.07679 0.38055 0.0
C666 C 0.35491 0.02896 0.38103 0.0
C667 C 0.35321 0.10983 0.42673 0.0
O668 O 0.33091 0.0962 0.42167 0.0
O669 O 0.37271 0.10931 0.41096 0.0
O670 O 0.27831 0.06252 0.39977 0.0
O671 O 0.28893 0.08739 0.36545 0.0
C672 C 0.13483 0.27105 0.37067 0.0
C673 C 0.1296 0.29138 0.38873 0.0
H674 H 0.14012 0.22992 0.36531 0.0
C675 C 0.129 0.28612 0.41619 0.0
H676 H 0.13554 0.27453 0.34941 0.0
C677 C 0.13132 0.26069 0.42516 0.0
C678 C 0.13477 0.24001 0.40699 0.0
H679 H 0.12521 0.30132 0.43071 0.0
H680 H 0.12919 0.25698 0.44627 0.0
C681 C 0.13761 0.24557 0.37977 0.0
C682 C 0.99024 0.88378 0.63714 0.0
C683 C 0.00831 0.86926 0.62304 0.0
H684 H 0.94917 0.89352 0.64051 0.0
C685 C -0.00174 0.85265 0.60164 0.0
H686 H -0.00253 0.89682 0.65369 0.0
C687 C 0.97085 0.85052 0.59441 0.0
C688 C 0.95273 0.86525 0.60811 0.0
H689 H 0.01158 0.84109 0.59045 0.0
H690 H 0.96396 0.83751 0.57772 0.0
C691 C 0.96267 0.88198 0.62955 0.0
C692 C 0.38404 0.73061 0.93824 0.0
C693 C 0.37666 0.74834 0.91882 0.0
H694 H 0.39353 0.69157 0.94661 0.0
C695 C 0.37029 0.73897 0.89256 0.0
H696 H 0.38886 0.73727 0.95869 0.0
C697 C 0.37337 0.71268 0.88545 0.0
C698 C 0.38248 0.69537 0.90461 0.0
H699 H 0.36464 0.7523 0.87719 0.0
H700 H 0.3698 0.70626 0.86476 0.0
C701 C 0.38672 0.70439 0.93127 0.0
C702 C 0.48532 0.14607 0.10533 0.0
C703 C 0.47961 0.13174 0.12841 0.0
H704 H 0.51494 0.15954 0.07765 0.0
C705 C 0.50056 0.11949 0.14142 0.0
H706 H 0.46967 0.15577 0.09486 0.0
C707 C 0.52664 0.12131 0.13124 0.0
C708 C 0.53227 0.13581 0.1082 0.0
H709 H 0.4967 0.10817 0.15917 0.0
H710 H 0.5424 0.11164 0.14154 0.0
C711 C 0.51133 0.14825 0.09548 0.0
C712 C 0.0865 0.71565 0.14696 0.0
C713 C 0.0962 0.69382 0.13391 0.0
H714 H 0.0811 0.75673 0.14616 0.0
C715 C 0.10757 0.69717 0.10871 0.0
H716 H 0.07753 0.7138 0.16636 0.0
C717 C 0.10935 0.7219 0.09694 0.0
C718 C 0.10001 0.74379 0.11026 0.0
H719 H 0.11505 0.68071 0.09806 0.0
H720 H 0.11851 0.72395 0.07765 0.0
C721 C 0.08847 0.74032 0.13534 0.0
C722 C 0.52388 0.86895 0.33352 0.0
C723 C 0.50471 0.87518 0.35211 0.0
H724 H 0.56257 0.85517 0.32718 0.0
C725 C 0.51169 0.87518 0.37957 0.0
H726 H 0.51908 0.86891 0.31223 0.0
C727 C 0.53662 0.86686 0.38825 0.0
C728 C 0.55494 0.85869 0.36957 0.0
H729 H 0.49718 0.87973 0.39433 0.0
H730 H 0.54093 0.86558 0.40953 0.0
C731 C 0.54877 0.86093 0.34214 0.0
C732 C 0.37332 0.28456 0.5943 0.0
C733 C 0.38519 0.2638 0.60693 0.0
H734 H 0.36855 0.326 0.59452 0.0
C735 C 0.40251 0.26948 0.6294 0.0
H736 H 0.35977 0.28078 0.57699 0.0
C737 C 0.40756 0.29522 0.63932 0.0
C738 C 0.39526 0.31597 0.62717 0.0
H739 H 0.41205 0.25398 0.63957 0.0
H740 H 0.42089 0.29873 0.65683 0.0
C741 C 0.3782 0.31042 0.60442 0.0
C742 C 0.96532 0.12359 0.83049 0.0
C743 C 0.98574 0.11489 0.84727 0.0
H744 H 0.92788 0.14115 0.82771 0.0
C745 C 0.98219 0.1148 0.87505 0.0
H746 H 0.96748 0.12384 0.809 0.0
C747 C 0.95957 0.1252 0.88592 0.0
C748 C 0.94007 0.13555 0.86914 0.0
H749 H -0.00227 0.10839 0.88848 0.0
H750 H 0.95799 0.12616 0.90746 0.0
C751 C 0.94268 0.13365 0.84127 0.0
C752 C 0.37656 0.12825 0.26387 0.0
C753 C 0.40191 0.12285 0.25446 0.0
H754 H 0.3501 0.12663 0.29704 0.0
C755 C 0.42145 0.11458 0.27255 0.0
H756 H 0.36107 0.13444 0.25025 0.0
C757 C 0.41538 0.11052 0.29928 0.0
C758 C 0.38941 0.11405 0.30836 0.0
H759 H 0.44116 0.11028 0.2658 0.0
H760 H 0.43063 0.10322 0.31245 0.0
C761 C 0.37024 0.12361 0.29058 0.0
C762 C 0.13156 0.09997 0.50862 0.0
C763 C 0.1289 0.12581 0.50028 0.0
H764 H 0.13635 0.07452 0.5417 0.0
C765 C 0.1273 0.1458 0.5198 0.0
H766 H 0.1327 0.08409 0.49408 0.0
C767 C 0.12892 0.14025 0.54697 0.0
C768 C 0.13248 0.11462 0.55536 0.0
H769 H 0.12492 0.16587 0.51411 0.0
H770 H 0.12819 0.1563 0.5614 0.0
C771 C 0.13349 0.09445 0.5359 0.0
C772 C 0.12832 0.85791 0.77704 0.0
C773 C 0.13107 0.88181 0.7918 0.0
H774 H 0.11549 0.83833 0.73972 0.0
C775 C 0.12095 0.90415 0.78068 0.0
H776 H 0.13596 0.84038 0.7852 0.0
C777 C 0.1088 0.90285 0.75516 0.0
C778 C 0.10695 0.87929 0.73987 0.0
H779 H 0.12253 0.92278 0.7917 0.0
H780 H 0.10165 0.92063 0.7471 0.0
C781 C 0.11663 0.85673 0.75109 0.0
C782 C 0.37071 0.89182 0.01615 0.0
C783 C 0.37553 0.86638 0.00716 0.0
H784 H 0.36061 0.91616 0.04924 0.0
C785 C 0.37632 0.84628 0.02587 0.0
H786 H 0.37015 0.90778 0.00227 0.0
C787 C 0.37105 0.8511 0.05265 0.0
C788 C 0.36481 0.87613 0.06142 0.0
H789 H 0.38032 0.82652 0.01975 0.0
H790 H 0.37094 0.83487 0.06628 0.0
C791 C 0.36538 0.89666 0.04307 0.0
C792 C 0.39054 0.90399 0.24856 0.0
C793 C 0.37955 0.88319 0.26386 0.0
H794 H 0.38837 0.92421 0.21143 0.0
C795 C 0.35889 0.86545 0.25255 0.0
H796 H 0.40642 0.91796 0.25693 0.0
C797 C 0.34927 0.86855 0.22635 0.0
C798 C 0.35969 0.88981 0.21146 0.0
H799 H 0.35024 0.84918 0.26395 0.0
H800 H 0.33311 0.85487 0.21803 0.0
C801 C 0.38033 0.90754 0.22265 0.0
C802 C 0.33414 0.15631 0.48106 0.0
C803 C 0.35774 0.15933 0.49744 0.0
H804 H 0.31422 0.13783 0.44619 0.0
C805 C 0.3805 0.14669 0.48989 0.0
H806 H 0.31622 0.16563 0.48647 0.0
C807 C 0.37953 0.13117 0.46632 0.0
C808 C 0.3555 0.12743 0.45059 0.0
H809 H 0.39892 0.1487 0.50222 0.0
H810 H 0.39718 0.12143 0.46088 0.0
C811 C 0.33292 0.14025 0.4581 0.0
C812 C 0.12954 0.08054 0.75468 0.0
C813 C 0.10475 0.09138 0.75769 0.0
H814 H 0.16005 0.07056 0.72814 0.0
C815 C 0.09107 0.09999 0.73488 0.0
H816 H 0.14053 0.07364 0.77184 0.0
C817 C 0.10252 0.0986 0.70968 0.0
C818 C 0.1276 0.08815 0.70683 0.0
H819 H 0.07197 0.10858 0.73664 0.0
H820 H 0.09185 0.10585 0.69252 0.0
C821 C 0.14072 0.07876 0.72957 0.0
C822 C 0.11571 0.8507 0.97894 0.0
C823 C 0.11974 0.82484 0.98624 0.0
H824 H 0.11965 0.87954 0.94838 0.0
C825 C 0.12754 0.80705 0.96675 0.0
H826 H 0.1098 0.86484 0.99362 0.0
C827 C 0.13287 0.81532 0.94091 0.0
C828 C 0.13094 0.84169 0.93409 0.0
H829 H 0.13064 0.78696 0.9718 0.0
H830 H 0.13993 0.80131 0.92674 0.0
C831 C 0.12148 0.85913 0.95309 0.0
C832 C 0.27055 0.37084 0.1195 0.0
C833 C 0.2917 0.38798 0.11011 0.0
H834 H 0.22867 0.3658 0.12937 0.0
C835 C 0.28712 0.41445 0.1061 0.0
H836 H 0.27349 0.35036 0.12287 0.0
C837 C 0.26147 0.42312 0.1094 0.0
C838 C 0.23998 0.4057 0.11742 0.0
H839 H 0.30295 0.4282 0.0989 0.0
H840 H 0.25818 0.44324 0.10463 0.0
C841 C 0.24496 0.37972 0.12341 0.0
C842 C 0.7494 0.14736 0.89938 0.0
C843 C 0.74727 0.12386 0.884 0.0
H844 H 0.77576 0.17789 0.91866 0.0
C845 C 0.77094 0.11319 0.87588 0.0
H846 H 0.7315 0.15598 0.90602 0.0
C847 C 0.79627 0.12589 0.88287 0.0
C848 C 0.7984 0.14927 0.89844 0.0
H849 H 0.7699 0.09513 0.86395 0.0
H850 H 0.81417 0.11724 0.87628 0.0
C851 C 0.77474 0.15984 0.90671 0.0
C852 C 0.09774 0.49921 0.12246 0.0
C853 C 0.12389 0.4921 0.11733 0.0
H854 H 0.07294 0.53025 0.13206 0.0
C855 C 0.14507 0.51211 0.11597 0.0
H856 H 0.08089 0.48435 0.12352 0.0
C857 C 0.14044 0.53845 0.12068 0.0
C858 C 0.11454 0.54543 0.12696 0.0
H859 H 0.16542 0.50741 0.11187 0.0
H860 H 0.15742 0.55324 0.12028 0.0
C861 C 0.09312 0.52557 0.12726 0.0
C862 C 0.7022 0.8748 0.37501 0.0
C863 C 0.70155 0.85091 0.3885 0.0
H864 H 0.72694 0.90655 0.35863 0.0
C865 C 0.72588 0.83984 0.39454 0.0
H866 H 0.68371 0.88374 0.37012 0.0
C867 C 0.75049 0.85261 0.38757 0.0
C868 C 0.75124 0.87693 0.37487 0.0
H869 H 0.72592 0.82132 0.40474 0.0
H870 H 0.76896 0.84379 0.39284 0.0
C871 C 0.7269 0.88785 0.36848 0.0
C872 C 0.87029 0.97698 0.11612 0.0
C873 C 0.85234 0.95553 0.12308 0.0
H874 H 0.87599 0.01877 0.11073 0.0
C875 C 0.82504 0.9597 0.12669 0.0
H876 H 0.89143 0.97443 0.11319 0.0
C877 C 0.81641 0.98501 0.12577 0.0
C878 C 0.83469 0.00669 0.12061 0.0
H879 H 0.8106 0.94369 0.13198 0.0
H880 H 0.79563 0.98777 0.13027 0.0
C881 C 0.86145 0.00236 0.11465 0.0
C882 C 0.20573 0.64121 0.61395 0.0
C883 C 0.18692 0.61898 0.61237 0.0
H884 H 0.24708 0.65609 0.62062 0.0
C885 C 0.1959 0.59419 0.6179 0.0
H886 H 0.19951 0.66059 0.60979 0.0
C887 C 0.22323 0.59157 0.62396 0.0
C888 C 0.24223 0.61368 0.62471 0.0
H889 H 0.18196 0.57664 0.61683 0.0
H890 H 0.22952 0.5721 0.62756 0.0
C891 C 0.23306 0.6386 0.62009 0.0
C892 C 0.1583 0.44383 0.33164 0.0
C893 C 0.14426 0.43338 0.35339 0.0
H894 H 0.18157 0.47682 0.31608 0.0
C895 C 0.14439 0.44813 0.37742 0.0
H896 H 0.15841 0.43273 0.31293 0.0
C897 C 0.15703 0.47376 0.37905 0.0
C898 C 0.17034 0.48453 0.3569 0.0
H899 H 0.13345 0.44044 0.39435 0.0
H900 H 0.15584 0.48535 0.39731 0.0
C901 C 0.17158 0.46901 0.33351 0.0
C902 C 0.34487 0.5455 0.85704 0.0
C903 C 0.36612 0.55237 0.87562 0.0
H904 H 0.31602 0.51538 0.84119 0.0
C905 C 0.37297 0.53424 0.89484 0.0
H906 H 0.33934 0.55929 0.84204 0.0
C907 C 0.35997 0.50872 0.89406 0.0
C908 C 0.33975 0.50132 0.87432 0.0
H909 H 0.3895 0.53922 0.9092 0.0
H910 H 0.36666 0.49447 0.908 0.0
C911 C 0.33155 0.52035 0.8566 0.0
C912 C 0.86339 0.72815 0.62636 0.0
C913 C 0.86915 0.7082 0.60809 0.0
H914 H 0.85689 0.76896 0.63212 0.0
C915 C 0.86944 0.71371 0.58068 0.0
H916 H 0.86288 0.72447 0.64759 0.0
C917 C 0.8663 0.73908 0.57194 0.0
C918 C 0.86232 0.75944 0.59033 0.0
H919 H 0.87362 0.6988 0.566 0.0
H920 H 0.86821 0.74304 0.55086 0.0
C921 C 0.85979 0.75357 0.6175 0.0
C922 C 0.00465 0.11636 0.36119 0.0
C923 C 0.98677 0.13163 0.37464 0.0
H924 H 0.04551 0.10583 0.35853 0.0
C925 C 0.99697 0.14886 0.3955 0.0
H926 H 0.9973 0.10284 0.34507 0.0
C927 C 0.02433 0.1508 0.40288 0.0
C928 C 0.04224 0.13527 0.38989 0.0
H929 H 0.98378 0.16099 0.40617 0.0
H930 H 0.03133 0.16427 0.41917 0.0
C931 C 0.03217 0.11798 0.36894 0.0
C932 C 0.61053 0.2628 0.07189 0.0
C933 C 0.6163 0.24318 0.08991 0.0
H934 H 0.60118 0.30244 0.06674 0.0
C935 C 0.62031 0.24989 0.11723 0.0
H936 H 0.60753 0.2582 0.0507 0.0
C937 C 0.61624 0.27532 0.1266 0.0
C938 C 0.60845 0.2944 0.10869 0.0
H939 H 0.62466 0.23507 0.13155 0.0
H940 H 0.6178 0.27958 0.14792 0.0
C941 C 0.60684 0.28816 0.08114 0.0
C942 C 0.46305 0.87504 0.87041 0.0
C943 C 0.45777 0.85926 0.89266 0.0
H944 H 0.49259 0.88984 0.84278 0.0
C945 C 0.47891 0.84627 0.90427 0.0
H946 H 0.44712 0.88519 0.86098 0.0
C947 C 0.50478 0.84914 0.89415 0.0
C948 C 0.51015 0.86475 0.87185 0.0
H949 H 0.47558 0.83401 0.92148 0.0
H950 H 0.52058 0.83896 0.90377 0.0
C951 C 0.48899 0.87756 0.85991 0.0
C952 C 0.88177 0.28389 0.90555 0.0
C953 C 0.89117 0.26185 0.89254 0.0
H954 H 0.87736 0.32535 0.90456 0.0
C955 C 0.90403 0.26531 0.86812 0.0
H956 H 0.87162 0.28186 0.92433 0.0
C957 C 0.90731 0.29011 0.85687 0.0
C958 C 0.89763 0.31212 0.86963 0.0
H959 H 0.9115 0.2488 0.85753 0.0
H960 H 0.91731 0.29194 0.83799 0.0
C961 C 0.88487 0.30877 0.89414 0.0
C962 C 0.44443 0.1421 0.66084 0.0
C963 C 0.43795 0.14146 0.63326 0.0
H964 H 0.47417 0.13649 0.69153 0.0
C965 C 0.45576 0.13074 0.61554 0.0
H966 H 0.43104 0.14991 0.6751 0.0
C967 C 0.48047 0.12262 0.62512 0.0
C968 C 0.48778 0.12538 0.65249 0.0
H969 H 0.45121 0.12979 0.5942 0.0
H970 H 0.49458 0.11594 0.61092 0.0
C971 C 0.46912 0.13429 0.67031 0.0
C972 C 0.59731 0.73111 0.36156 0.0
C973 C 0.6137 0.73628 0.38478 0.0
H974 H 0.58184 0.70283 0.33168 0.0
C975 C 0.62723 0.71575 0.3959 0.0
H976 H 0.58663 0.74648 0.35249 0.0
C977 C 0.62479 0.69066 0.38372 0.0
C978 C 0.6085 0.68561 0.36039 0.0
H979 H 0.64018 0.71919 0.41369 0.0
H980 H 0.63554 0.67525 0.39261 0.0
C981 C 0.59463 0.70606 0.34961 0.0
C982 C 0.04281 0.86925 0.15692 0.0
C983 C 0.04645 0.86693 0.12924 0.0
H984 H 0.01592 0.87722 0.18802 0.0
C985 C 0.02627 0.87473 0.11149 0.0
H986 H 0.05805 0.86369 0.17119 0.0
C987 C 0.00212 0.88294 0.12128 0.0
C988 C -0.00225 0.88314 0.14891 0.0
H989 H 0.02857 0.87334 0.09006 0.0
H990 H 0.98624 0.88738 0.10717 0.0
C991 C 0.01868 0.87709 0.16662 0.0
C992 C 0.57535 0.88386 0.70073 0.0
C993 C 0.6014 0.87989 0.69211 0.0
H994 H 0.54924 0.88531 0.73386 0.0
C995 C 0.62032 0.87079 0.71045 0.0
H996 H 0.56028 0.89083 0.68713 0.0
C997 C 0.6137 0.86702 0.73722 0.0
C998 C 0.58829 0.87288 0.74612 0.0
H999 H 0.64051 0.86746 0.70435 0.0
H1000 H 0.62901 0.86117 0.75125 0.0
C1001 C 0.56899 0.88069 0.72751 0.0
C1002 C 0.86313 0.90089 0.49062 0.0
C1003 C 0.8657 0.8749 0.49854 0.0
H1004 H 0.85827 0.92684 0.45798 0.0
C1005 C 0.86718 0.85519 0.47871 0.0
H1006 H 0.8621 0.91658 0.50541 0.0
C1007 C 0.86546 0.86114 0.45164 0.0
C1008 C 0.86193 0.88691 0.44368 0.0
H1009 H 0.86951 0.83502 0.48407 0.0
H1010 H 0.86605 0.84528 0.43697 0.0
C1011 C 0.86111 0.90682 0.46345 0.0
C1012 C 0.86517 0.13931 0.22079 0.0
C1013 C 0.86234 0.11509 0.20657 0.0
H1014 H 0.87847 0.15979 0.25748 0.0
C1015 C 0.87285 0.0931 0.21802 0.0
H1016 H 0.85724 0.15659 0.21239 0.0
C1017 C 0.88543 0.09506 0.24337 0.0
C1018 C 0.88734 0.11894 0.25813 0.0
H1019 H 0.87121 0.07424 0.20744 0.0
H1020 H 0.89285 0.07753 0.25174 0.0
C1021 C 0.8773 0.14115 0.24654 0.0
C1022 C 0.62735 0.09564 0.96085 0.0
C1023 C 0.62772 0.11574 0.94202 0.0
H1024 H 0.62257 0.08533 0.00188 0.0
C1025 C 0.62142 0.14093 0.95029 0.0
H1026 H 0.63216 0.07603 0.9551 0.0
C1027 C 0.6162 0.14629 0.97698 0.0
C1028 C 0.617 0.12657 0.9961 0.0
H1029 H 0.62143 0.15686 0.93631 0.0
H1030 H 0.6121 0.16612 0.9827 0.0
C1031 C 0.62196 0.10099 0.98766 0.0
C1032 C 0.65039 0.09529 0.76739 0.0
C1033 C 0.6362 0.10132 0.79028 0.0
H1034 H 0.65113 0.09455 0.72471 0.0
C1035 C 0.61087 0.11142 0.78713 0.0
H1036 H 0.67001 0.08757 0.76913 0.0
C1037 C 0.59985 0.11511 0.76152 0.0
C1038 C 0.61419 0.1092 0.73868 0.0
H1039 H 0.59945 0.11617 0.80442 0.0
H1040 H 0.58023 0.12282 0.75963 0.0
C1041 C 0.63961 0.09937 0.74191 0.0
C1042 C 0.61143 0.84636 0.50983 0.0
C1043 C 0.63409 0.83364 0.50214 0.0
H1044 H 0.59481 0.87118 0.53926 0.0
C1045 C 0.65735 0.83556 0.51902 0.0
H1046 H 0.59326 0.8452 0.49713 0.0
C1047 C 0.65847 0.85089 0.54247 0.0
C1048 C 0.63611 0.86404 0.54994 0.0
H1049 H 0.6752 0.82614 0.51356 0.0
H1050 H 0.677 0.85269 0.55467 0.0
C1051 C 0.61229 0.86115 0.53385 0.0
C1052 C 0.84692 0.9197 0.26897 0.0
C1053 C 0.86166 0.91184 0.29145 0.0
H1054 H 0.84416 0.92201 0.22637 0.0
C1055 C 0.88657 0.90133 0.2877 0.0
H1056 H 0.82765 0.92786 0.27111 0.0
C1057 C 0.89627 0.89836 0.2619 0.0
C1058 C 0.88096 0.90538 0.23943 0.0
H1059 H 0.89842 0.89521 0.30463 0.0
H1060 H 0.91528 0.88978 0.25949 0.0
C1061 C 0.85634 0.9163 0.24328 0.0
C1062 C 0.86175 0.19456 0.03486 0.0
C1063 C 0.86986 0.1779 0.01449 0.0
H1064 H 0.84933 0.19811 0.07514 0.0
C1065 C 0.87442 0.15183 0.02048 0.0
H1066 H 0.85824 0.2148 0.03085 0.0
C1067 C 0.86889 0.14205 0.04588 0.0
C1068 C 0.8591 0.15834 0.06575 0.0
H1069 H 0.88057 0.13853 0.0051 0.0
H1070 H 0.87115 0.1215 0.04956 0.0
C1071 C 0.85664 0.18496 0.06026 0.0
C1072 C 0.73509 0.58104 0.87445 0.0
C1073 C 0.75642 0.60011 0.86992 0.0
H1074 H 0.69273 0.57288 0.87977 0.0
C1075 C 0.75047 0.62591 0.86429 0.0
H1076 H 0.73913 0.561 0.87879 0.0
C1077 C 0.72381 0.63296 0.86546 0.0
C1078 C 0.70265 0.61416 0.87167 0.0
H1079 H 0.76661 0.64102 0.86092 0.0
H1080 H 0.71998 0.65335 0.86282 0.0
C1081 C 0.70847 0.58789 0.87495 0.0
C1082 C 0.2216 0.88658 0.12892 0.0
C1083 C 0.24424 0.87468 0.11988 0.0
H1084 H 0.17837 0.88562 0.12854 0.0
C1085 C 0.24031 0.85242 0.10273 0.0
H1086 H 0.22403 0.90378 0.14214 0.0
C1087 C 0.21431 0.84229 0.09469 0.0
C1088 C 0.19163 0.85397 0.10389 0.0
H1089 H 0.25735 0.84291 0.09527 0.0
H1090 H 0.21202 0.82507 0.08148 0.0
C1091 C 0.19549 0.87619 0.12114 0.0
C1092 C 0.89853 0.50799 0.87659 0.0
C1093 C 0.87216 0.51536 0.8801 0.0
H1094 H 0.92365 0.47658 0.86957 0.0
C1095 C 0.85081 0.49548 0.88115 0.0
H1096 H 0.9155 0.52275 0.87583 0.0
C1097 C 0.85555 0.46899 0.87775 0.0
C1098 C 0.88173 0.46171 0.87315 0.0
H1099 H 0.83029 0.50037 0.88403 0.0
H1100 H 0.83847 0.45428 0.87787 0.0
C1101 C 0.90325 0.48148 0.87312 0.0
C1102 C 0.26612 0.11537 0.63405 0.0
C1103 C 0.24184 0.12611 0.62697 0.0
H1104 H 0.30932 0.11916 0.63259 0.0
C1105 C 0.24281 0.15006 0.61358 0.0
H1106 H 0.26593 0.09695 0.64446 0.0
C1107 C 0.26753 0.16249 0.60638 0.0
C1108 C 0.29177 0.15144 0.6129 0.0
H1109 H 0.2244 0.15875 0.60777 0.0
H1110 H 0.26765 0.1806 0.59546 0.0
C1111 C 0.29091 0.12808 0.62731 0.0
C1112 C 0.12552 0.99019 0.88357 0.0
C1113 C 0.15289 0.98743 0.87874 0.0
H1114 H 0.09363 0.01612 0.88341 0.0
C1115 C 0.17007 0.00999 0.87388 0.0
H1116 H 0.1118 0.97307 0.88722 0.0
C1117 C 0.15985 0.03457 0.87212 0.0
C1118 C 0.13205 0.0371 0.87463 0.0
H1119 H 0.19128 0.00846 0.87022 0.0
H1120 H 0.17354 0.05129 0.86712 0.0
C1121 C 0.11512 0.01482 0.88129 0.0
C1122 C 0.80578 0.40725 0.37931 0.0
C1123 C 0.81496 0.38274 0.3857 0.0
H1124 H 0.77199 0.42872 0.36856 0.0
C1125 C 0.7964 0.36032 0.38438 0.0
H1126 H 0.81954 0.42493 0.38012 0.0
C1127 C 0.76911 0.36249 0.37779 0.0
C1128 C 0.7597 0.38715 0.37238 0.0
H1129 H 0.80278 0.34114 0.38916 0.0
H1130 H 0.75528 0.34487 0.37757 0.0
C1131 C 0.77847 0.40944 0.37274 0.0
C1132 C 0.83012 0.53054 0.66255 0.0
C1133 C 0.83228 0.5148 0.63945 0.0
H1134 H 0.84213 0.56722 0.68292 0.0
C1135 C 0.84599 0.52553 0.61753 0.0
H1136 H 0.8198 0.52276 0.67981 0.0
C1137 C 0.85814 0.55134 0.61911 0.0
C1138 C 0.85738 0.56634 0.64289 0.0
H1139 H 0.84791 0.51376 0.59952 0.0
H1140 H 0.86941 0.55902 0.60237 0.0
C1141 C 0.84292 0.55593 0.6644 0.0
C1142 C 0.60024 0.48746 0.13135 0.0
C1143 C 0.6255 0.49105 0.11953 0.0
H1144 H 0.57009 0.46026 0.14714 0.0
C1145 C 0.63935 0.46893 0.11322 0.0
H1146 H 0.58912 0.50412 0.13651 0.0
C1147 C 0.6282 0.44365 0.11899 0.0
C1148 C 0.60335 0.44025 0.13164 0.0
H1149 H 0.65882 0.47117 0.10399 0.0
H1150 H 0.63935 0.4269 0.11425 0.0
C1151 C 0.5894 0.46235 0.13756 0.0
C1152 C 0.63321 0.77053 0.92539 0.0
C1153 C 0.63777 0.7511 0.90618 0.0
H1154 H 0.62444 0.81018 0.93297 0.0
C1155 C 0.63992 0.75809 0.87926 0.0
H1156 H 0.6316 0.76572 0.94631 0.0
C1157 C 0.63534 0.78361 0.87146 0.0
C1158 C 0.62896 0.80257 0.89055 0.0
H1159 H 0.64329 0.74342 0.86403 0.0
H1160 H 0.63556 0.7881 0.8504 0.0
C1161 C 0.62908 0.79603 0.9177 0.0
C1162 C 0.48239 0.33498 0.11176 0.0
C1163 C 0.48928 0.35139 0.13423 0.0
H1164 H 0.45145 0.3197 0.08371 0.0
C1165 C 0.46905 0.36476 0.14634 0.0
H1166 H 0.49753 0.3244 0.10206 0.0
C1167 C 0.44257 0.36243 0.13553 0.0
C1168 C 0.43585 0.34633 0.11274 0.0
H1169 H 0.47387 0.37769 0.1636 0.0
H1170 H 0.42747 0.37334 0.14487 0.0
C1171 C 0.45595 0.3323 0.10128 0.0
C1172 C 0.87053 0.22288 0.38477 0.0
C1173 C 0.8783 0.20471 0.40369 0.0
H1174 H 0.86463 0.26328 0.37704 0.0
C1175 C 0.88292 0.21317 0.43049 0.0
H1176 H 0.86669 0.21691 0.36399 0.0
C1177 C 0.88199 0.23958 0.43783 0.0
C1178 C 0.87602 0.25808 0.41864 0.0
H1179 H 0.88872 0.19969 0.44565 0.0
H1180 H 0.88712 0.24573 0.45837 0.0
C1181 C 0.86921 0.24937 0.39225 0.0
C1182 C 0.9903 0.65326 0.60528 0.0
C1183 C 0.98439 0.63954 0.6287 0.0
H1184 H 0.01973 0.66469 0.57666 0.0
C1185 C 0.00481 0.62624 0.6413 0.0
H1186 H 0.97508 0.66374 0.59507 0.0
C1187 C 0.03053 0.62647 0.63045 0.0
C1188 C 0.03637 0.64036 0.60707 0.0
H1189 H 0.0008 0.61534 0.65931 0.0
H1190 H 0.04589 0.61605 0.6405 0.0
C1191 C 0.01597 0.65381 0.59472 0.0
C1192 C 0.59329 0.23987 0.62932 0.0
C1193 C 0.60723 0.24352 0.60552 0.0
H1194 H 0.57861 0.21296 0.65863 0.0
C1195 C 0.61711 0.22158 0.59277 0.0
H1196 H 0.58541 0.25631 0.63965 0.0
C1197 C 0.61343 0.1966 0.60386 0.0
C1198 C 0.59958 0.19305 0.62775 0.0
H1199 H 0.62806 0.22376 0.57447 0.0
H1200 H 0.62137 0.1801 0.59368 0.0
C1201 C 0.58942 0.21496 0.64023 0.0
C1202 C 0.04095 0.36914 0.87854 0.0
C1203 C 0.05794 0.35812 0.8602 0.0
H1204 H 0.00304 0.38539 0.8843 0.0
C1205 C 0.05106 0.35838 0.83274 0.0
H1206 H 0.04585 0.36943 0.8998 0.0
C1207 C 0.02668 0.3674 0.82395 0.0
C1208 C 0.00878 0.37665 0.84237 0.0
H1209 H 0.06385 0.35036 0.81802 0.0
H1210 H 0.02123 0.36588 0.80279 0.0
C1211 C 0.01657 0.37849 0.86965 0.0
C1212 C 0.88764 0.76387 0.14791 0.0
C1213 C 0.87307 0.75547 0.1243 0.0
H1214 H 0.9038 0.79616 0.17288 0.0
C1215 C 0.8628 0.7745 0.10771 0.0
H1216 H 0.89589 0.74983 0.16116 0.0
C1217 C 0.86716 0.80138 0.11464 0.0
C1218 C 0.88221 0.80964 0.13806 0.0
H1219 H 0.85142 0.76863 0.08941 0.0
H1220 H 0.8592 0.81565 0.10149 0.0
C1221 C 0.89226 0.79054 0.1546 0.0
C1222 C 0.47314 0.61862 0.3823 0.0
C1223 C 0.45217 0.62757 0.3663 0.0
H1224 H 0.51302 0.60531 0.38341 0.0
C1225 C 0.45409 0.62644 0.33832 0.0
H1226 H 0.47214 0.61905 0.4039 0.0
C1227 C 0.47738 0.61869 0.32669 0.0
C1228 C 0.49916 0.61158 0.34271 0.0
H1229 H 0.43819 0.63287 0.32535 0.0
H1230 H 0.4789 0.6196 0.30516 0.0
C1231 C 0.49642 0.61052 0.37056 0.0
C1232 C 0.88008 0.63769 0.79386 0.0
C1233 C 0.89972 0.62812 0.8111 0.0
H1234 H 0.86948 0.64778 0.75362 0.0
C1235 C 0.92511 0.62376 0.80106 0.0
H1236 H 0.86036 0.6413 0.80106 0.0
C1237 C 0.93008 0.62697 0.77397 0.0
C1238 C 0.91004 0.63527 0.75646 0.0
H1239 H 0.94067 0.61637 0.81379 0.0
H1240 H 0.9493 0.62201 0.7665 0.0
C1241 C 0.88534 0.64155 0.76678 0.0
C1242 C 0.6545 0.59023 0.0142 0.0
C1243 C 0.6474 0.60361 0.03745 0.0
H1244 H 0.6579 0.59072 0.97176 0.0
C1245 C 0.63858 0.62895 0.03528 0.0
H1246 H 0.66137 0.57067 0.01518 0.0
C1247 C 0.63703 0.64068 0.01027 0.0
C1248 C 0.64381 0.62705 0.98702 0.0
H1249 H 0.63316 0.63978 0.05289 0.0
H1250 H 0.63004 0.66017 0.00907 0.0
C1251 C 0.65252 0.60172 0.98928 0.0
C1252 C 0.6005 0.39897 0.2602 0.0
C1253 C 0.59836 0.37555 0.24473 0.0
H1254 H 0.61875 0.42006 0.2944 0.0
C1255 C 0.61281 0.35447 0.253 0.0
H1256 H 0.5898 0.41565 0.2542 0.0
C1257 C 0.62909 0.35686 0.27649 0.0
C1258 C 0.63177 0.38065 0.29143 0.0
H1259 H 0.61155 0.33624 0.24133 0.0
H1260 H 0.64006 0.34041 0.28262 0.0
C1261 C 0.61728 0.40161 0.28309 0.0
C1262 C 0.86993 0.41256 0.53723 0.0
C1263 C 0.87016 0.39352 0.55713 0.0
H1264 H 0.87449 0.42083 0.49564 0.0
C1265 C 0.87763 0.36834 0.55035 0.0
H1266 H 0.86422 0.43213 0.54184 0.0
C1267 C 0.88327 0.36185 0.52403 0.0
C1268 C 0.88171 0.38038 0.50378 0.0
H1269 H 0.87818 0.35323 0.5652 0.0
H1270 H 0.8882 0.34199 0.51947 0.0
C1271 C 0.87571 0.40606 0.51076 0.0
C1272 C 0.89615 0.39291 0.73622 0.0
C1273 C 0.88187 0.39795 0.75935 0.0
H1274 H 0.89649 0.39349 0.69337 0.0
C1275 C 0.85647 0.40794 0.75665 0.0
H1276 H 0.91575 0.38513 0.73769 0.0
C1277 C 0.84565 0.41301 0.73141 0.0
C1278 C 0.8598 0.40785 0.70824 0.0
H1279 H 0.845 0.41212 0.77408 0.0
H1280 H 0.82604 0.42079 0.73007 0.0
C1281 C 0.88511 0.39761 0.71086 0.0
C1282 C 0.8423 0.64865 0.96418 0.0
C1283 C 0.86546 0.63774 0.95519 0.0
H1284 H 0.82396 0.66855 0.99582 0.0
C1285 C 0.88916 0.64012 0.9715 0.0
H1286 H 0.82382 0.64728 0.95191 0.0
C1287 C 0.88914 0.65196 0.99709 0.0
C1288 C 0.8656 0.66214 0.00636 0.0
H1289 H 0.90728 0.63181 0.96498 0.0
H1290 H 0.90726 0.65259 0.0098 0.0
C1291 C 0.84246 0.66097 0.98932 0.0
C1292 C 0.59143 0.60363 0.2243 0.0
C1293 C 0.61219 0.60384 0.2441 0.0
H1294 H 0.58056 0.60064 0.18258 0.0
C1295 C 0.63894 0.60232 0.23613 0.0
H1296 H 0.57063 0.60501 0.22968 0.0
C1297 C 0.64466 0.59988 0.209 0.0
C1298 C 0.62378 0.59903 0.18928 0.0
H1299 H 0.65545 0.60259 0.25085 0.0
H1300 H 0.66537 0.59806 0.20355 0.0
C1301 C 0.59716 0.60132 0.19723 0.0
C1302 C 0.62546 0.35081 0.47613 0.0
C1303 C 0.63025 0.32508 0.48325 0.0
H1304 H 0.62865 0.37994 0.44582 0.0
C1305 C 0.6388 0.30776 0.46372 0.0
H1306 H 0.61896 0.3646 0.49087 0.0
C1307 C 0.64407 0.3164 0.438 0.0
C1308 C 0.64131 0.34269 0.43137 0.0
H1309 H 0.6425 0.28777 0.46863 0.0
H1310 H 0.65167 0.30277 0.42377 0.0
C1311 C 0.63115 0.35962 0.45041 0.0
C1312 C 0.77029 0.93103 0.61161 0.0
C1313 C 0.75061 0.91207 0.62046 0.0
H1314 H 0.81137 0.9398 0.60097 0.0
C1315 C 0.75844 0.88729 0.62772 0.0
H1316 H 0.76479 0.95028 0.60587 0.0
C1317 C 0.7851 0.88099 0.62428 0.0
C1318 C 0.80448 0.89961 0.61416 0.0
H1319 H 0.74359 0.87224 0.63437 0.0
H1320 H 0.79027 0.86129 0.62859 0.0
C1321 C 0.79699 0.925 0.60884 0.0
C1322 C 0.28166 0.60004 0.37515 0.0
C1323 C 0.25823 0.6096 0.3853 0.0
H1324 H 0.32485 0.60479 0.37393 0.0
C1325 C 0.26075 0.63153 0.40295 0.0
H1326 H 0.28032 0.58319 0.36147 0.0
C1327 C 0.28619 0.6437 0.41029 0.0
C1328 C 0.30963 0.6344 0.39986 0.0
H1329 H 0.24306 0.63927 0.41121 0.0
H1330 H 0.28745 0.66062 0.42387 0.0
C1331 C 0.30713 0.61245 0.38222 0.0
C1332 C 0.59761 0.02384 0.62539 0.0
C1333 C 0.61846 0.04425 0.625 0.0
H1334 H 0.5868 0.98232 0.6234 0.0
C1335 C 0.64492 0.03784 0.62027 0.0
H1336 H 0.57702 0.02807 0.62903 0.0
C1337 C 0.6506 0.01156 0.61715 0.0
C1338 C 0.62995 0.99106 0.61871 0.0
H1339 H 0.66149 0.05307 0.61984 0.0
H1340 H 0.67132 0.00733 0.61422 0.0
C1341 C 0.60328 0.99757 0.62229 0.0
C1342 C 0.22701 0.33445 0.88899 0.0
C1343 C 0.20325 0.34627 0.88241 0.0
H1344 H 0.27017 0.33716 0.88827 0.0
C1345 C 0.20501 0.37022 0.86898 0.0
H1346 H 0.22617 0.31589 0.8992 0.0
C1347 C 0.23023 0.38264 0.86313 0.0
C1348 C 0.25399 0.37095 0.87003 0.0
H1349 H 0.18695 0.37975 0.86373 0.0
H1350 H 0.23114 0.40144 0.85338 0.0
C1351 C 0.25214 0.34653 0.88259 0.0
C1352 C 0.3776 0.48238 0.61759 0.0
C1353 C 0.36058 0.45997 0.62371 0.0
H1354 H 0.3812 0.52434 0.61315 0.0
C1355 C 0.33288 0.46261 0.62678 0.0
H1356 H 0.39902 0.481 0.61505 0.0
C1357 C 0.32287 0.48734 0.62613 0.0
C1358 C 0.34017 0.50996 0.62181 0.0
H1359 H 0.31913 0.4458 0.6314 0.0
H1360 H 0.30176 0.48891 0.63022 0.0
C1361 C 0.3674 0.50718 0.6164 0.0
C1362 C 0.72079 0.09 0.1214 0.0
C1363 C 0.73968 0.11221 0.12244 0.0
H1364 H 0.67947 0.07503 0.11466 0.0
C1365 C 0.73028 0.13719 0.11879 0.0
H1366 H 0.72726 0.07048 0.12425 0.0
C1367 C 0.70283 0.13981 0.11336 0.0
C1368 C 0.6841 0.11752 0.11147 0.0
H1369 H 0.74419 0.15476 0.11958 0.0
H1370 H 0.69642 0.15927 0.10996 0.0
C1371 C 0.69334 0.09263 0.11599 0.0
C1372 C 0.66301 0.97972 0.83855 0.0
C1373 C 0.661 0.99582 0.86141 0.0
H1374 H 0.6507 0.94286 0.8187 0.0
C1375 C 0.64693 0.98565 0.88337 0.0
H1376 H 0.67358 0.98708 0.82126 0.0
C1377 C 0.63441 0.95996 0.88211 0.0
C1378 C 0.63517 0.94458 0.85858 0.0
H1379 H 0.6451 0.99772 0.9012 0.0
H1380 H 0.62301 0.95263 0.8989 0.0
C1381 C 0.64986 0.95448 0.83701 0.0
C1382 C 0.86184 0.04393 0.39529 0.0
C1383 C 0.85475 0.06129 0.37541 0.0
H1384 H 0.85686 0.0044 0.40927 0.0
C1385 C 0.83395 0.05338 0.35665 0.0
H1386 H 0.87809 0.0497 0.40975 0.0
C1387 C 0.82155 0.02785 0.35658 0.0
C1388 C 0.83031 0.00956 0.37483 0.0
H1389 H 0.82831 0.06655 0.34111 0.0
H1390 H 0.80651 0.022 0.34095 0.0
C1391 C 0.84981 0.01807 0.39489 0.0
C1392 C 0.35576 0.22168 0.06647 0.0
C1393 C 0.35013 0.24183 0.08445 0.0
H1394 H 0.3657 0.18205 0.06134 0.0
C1395 C 0.347 0.23603 0.11157 0.0
H1396 H 0.3582 0.22561 0.04544 0.0
C1397 C 0.35183 0.21106 0.12088 0.0
C1398 C 0.35945 0.19148 0.1031 0.0
H1399 H 0.34286 0.25128 0.12588 0.0
H1400 H 0.35095 0.20756 0.14212 0.0
C1401 C 0.36013 0.19672 0.07564 0.0
C1402 C 0.54241 0.62583 0.86245 0.0
C1403 C 0.55178 0.64196 0.88454 0.0
H1404 H 0.50782 0.6086 0.83944 0.0
C1405 C 0.5328 0.65319 0.90054 0.0
H1406 H 0.55653 0.6169 0.84976 0.0
C1407 C 0.50519 0.64819 0.89493 0.0
C1408 C 0.49569 0.63208 0.87294 0.0
H1409 H 0.53921 0.66563 0.9178 0.0
H1410 H 0.49126 0.65712 0.90785 0.0
C1411 C 0.51456 0.62111 0.85655 0.0
C1412 C 0.12879 0.75343 0.60638 0.0
C1413 C 0.12275 0.74459 0.57989 0.0
H1414 H 0.12987 0.78585 0.63459 0.0
C1415 C 0.11657 0.76288 0.56056 0.0
H1416 H 0.13352 0.73969 0.62169 0.0
C1417 C 0.11472 0.78919 0.56782 0.0
C1418 C 0.11862 0.79774 0.59467 0.0
H1419 H 0.112 0.75664 0.53995 0.0
H1420 H 0.1088 0.80249 0.55254 0.0
C1421 C 0.12657 0.77981 0.61376 0.0
C1422 C 0.01035 0.34759 0.39133 0.0
C1423 C 0.01626 0.36181 0.36821 0.0
H1424 H 0.98105 0.33595 0.42 0.0
C1425 C 0.99601 0.37575 0.35619 0.0
H1426 H 0.02546 0.33662 0.40106 0.0
C1427 C 0.97044 0.37569 0.36735 0.0
C1428 C 0.96461 0.36132 0.39044 0.0
H1429 H 3e-05 0.38702 0.33844 0.0
H1430 H 0.95522 0.38663 0.35778 0.0
C1431 C 0.98483 0.34721 0.40218 0.0
C1432 C 0.41111 0.78018 0.36018 0.0
C1433 C 0.3997 0.80076 0.37376 0.0
H1434 H 0.41847 0.73948 0.35937 0.0
C1435 C 0.38747 0.79563 0.39826 0.0
H1436 H 0.42077 0.78346 0.34129 0.0
C1437 C 0.38647 0.7704 0.40882 0.0
C1438 C 0.39741 0.74972 0.39494 0.0
H1439 H 0.37867 0.8111 0.40929 0.0
H1440 H 0.3766 0.767 0.42758 0.0
C1441 C 0.40985 0.75494 0.37057 0.0
C1442 C 0.97131 0.63341 0.18683 0.0
C1443 C 0.98869 0.62465 0.16762 0.0
H1444 H 0.93317 0.64791 0.19446 0.0
C1445 C 0.97927 0.62121 0.14088 0.0
H1446 H 0.97803 0.63616 0.2076 0.0
C1447 C 0.9536 0.62839 0.1332 0.0
C1448 C 0.9369 0.63878 0.15221 0.0
H1449 H 0.99234 0.61464 0.12563 0.0
H1450 H 0.94731 0.6268 0.11225 0.0
C1451 C 0.94562 0.64024 0.17925 0.0
C1452 C 0.09351 0.22783 0.8606 0.0
C1453 C 0.1093 0.2337 0.88407 0.0
H1454 H 0.07617 0.19822 0.833 0.0
C1455 C 0.11973 0.21297 0.89811 0.0
H1456 H 0.08514 0.2433 0.84931 0.0
C1457 C 0.11477 0.18693 0.88856 0.0
C1458 C 0.09907 0.18116 0.86497 0.0
H1459 H 0.13208 0.21688 0.91621 0.0
H1460 H 0.12317 0.17137 0.89967 0.0
C1461 C 0.08838 0.20191 0.85122 0.0
C1462 C 0.55248 0.36918 0.65558 0.0
C1463 C 0.5558 0.36776 0.62779 0.0
H1464 H 0.52628 0.37716 0.68731 0.0
C1465 C 0.53607 0.37729 0.61066 0.0
H1466 H 0.56741 0.3623 0.6694 0.0
C1467 C 0.51257 0.38632 0.62109 0.0
C1468 C 0.50837 0.3856 0.64873 0.0
H1469 H 0.53817 0.37665 0.58918 0.0
H1470 H 0.4969 0.39203 0.60738 0.0
C1471 C 0.52895 0.37783 0.66591 0.0
C1472 C 0.06805 0.37828 0.22269 0.0
C1473 C 0.08826 0.36899 0.23932 0.0
H1474 H 0.05684 0.39057 0.18362 0.0
C1475 C 0.11261 0.36282 0.22816 0.0
H1476 H 0.0491 0.38319 0.23083 0.0
C1477 C 0.11737 0.36768 0.20117 0.0
C1478 C 0.09757 0.37816 0.18483 0.0
H1479 H 0.1286 0.35585 0.24066 0.0
H1480 H 0.13684 0.36407 0.19333 0.0
C1481 C 0.07252 0.38249 0.19565 0.0
C1482 C 0.35775 0.39374 0.96145 0.0
C1483 C 0.36014 0.37465 0.94115 0.0
H1484 H 0.35511 0.40174 0.0035 0.0
C1485 C 0.36283 0.34851 0.9484 0.0
H1486 H 0.35548 0.41402 0.95653 0.0
C1487 C 0.36218 0.34141 0.97518 0.0
C1488 C 0.35905 0.3603 0.99547 0.0
H1489 H 0.36457 0.33326 0.9333 0.0
H1490 H 0.36392 0.32099 0.97994 0.0
C1491 C 0.35733 0.38665 0.98835 0.0
C1492 C 0.37535 0.5922 0.72096 0.0
C1493 C 0.3641 0.61443 0.71088 0.0
H1494 H 0.39702 0.57574 0.75306 0.0
C1495 C 0.36697 0.6381 0.72604 0.0
H1496 H 0.3737 0.57377 0.7096 0.0
C1497 C 0.38007 0.63916 0.75135 0.0
C1498 C 0.39108 0.61675 0.76145 0.0
H1499 H 0.35848 0.65553 0.71867 0.0
H1500 H 0.38141 0.65737 0.76304 0.0
C1501 C 0.38892 0.59342 0.74579 0.0
C1502 C 0.12278 0.6407 0.47514 0.0
C1503 C 0.12216 0.62199 0.49537 0.0
H1504 H 0.1305 0.6491 0.43436 0.0
C1505 C 0.12706 0.59592 0.48869 0.0
H1506 H 0.1188 0.66088 0.47946 0.0
C1507 C 0.13379 0.58911 0.46258 0.0
C1508 C 0.13568 0.60823 0.44275 0.0
H1509 H 0.12661 0.58101 0.50379 0.0
H1510 H 0.13852 0.56915 0.45823 0.0
C1511 C 0.12942 0.6339 0.44919 0.0
C1512 C 0.10799 0.61245 0.26709 0.0
C1513 C 0.12085 0.60752 0.24307 0.0
H1514 H 0.10969 0.61075 0.30989 0.0
C1515 C 0.14601 0.59687 0.24414 0.0
H1516 H 0.08862 0.62073 0.26688 0.0
C1517 C 0.15786 0.59085 0.26867 0.0
C1518 C 0.14502 0.59573 0.2927 0.0
H1519 H 0.15639 0.59277 0.22599 0.0
H1520 H 0.17717 0.58245 0.26878 0.0
C1521 C 0.12008 0.60682 0.2917 0.0
C1522 C 0.10681 0.36446 0.02468 0.0
C1523 C 0.1297 0.36731 0.04207 0.0
H1524 H 0.0898 0.34821 0.9872 0.0
C1525 C 0.15248 0.35414 0.03595 0.0
H1526 H 0.08904 0.37449 0.02906 0.0
C1527 C 0.15265 0.33869 0.01271 0.0
C1528 C 0.13031 0.33662 0.99465 0.0
H1529 H 0.1703 0.35588 0.04918 0.0
H1530 H 0.17075 0.32914 0.00843 0.0
C1531 C 0.10728 0.34952 0.00084 0.0
C1532 C 0.39242 0.39508 0.78616 0.0
C1533 C 0.36744 0.40548 0.78981 0.0
H1534 H 0.42218 0.3853 0.75824 0.0
C1535 C 0.3535 0.41467 0.76747 0.0
H1536 H 0.40369 0.38796 0.80301 0.0
C1537 C 0.36385 0.41289 0.74198 0.0
C1538 C 0.38864 0.40226 0.73821 0.0
H1539 H 0.33419 0.42279 0.76952 0.0
H1540 H 0.35231 0.41974 0.72517 0.0
C1541 C 0.40306 0.39371 0.76059 0.0
C1542 C 0.38137 0.64331 0.52608 0.0
C1543 C 0.37762 0.66894 0.51788 0.0
H1544 H 0.37622 0.61526 0.55726 0.0
C1545 C 0.36909 0.68721 0.53649 0.0
H1546 H 0.3878 0.62881 0.51205 0.0
C1547 C 0.36278 0.67961 0.56231 0.0
C1548 C 0.3644 0.65342 0.56994 0.0
H1549 H 0.36616 0.70715 0.53071 0.0
H1550 H 0.35518 0.69395 0.57577 0.0
C1551 C 0.37459 0.63553 0.55188 0.0
C1552 C 0.19528 0.07131 0.38955 0.0
C1553 C 0.18884 0.09708 0.38445 0.0
H1554 H 0.22635 0.04476 0.39234 0.0
C1555 C 0.20887 0.11508 0.37442 0.0
H1556 H 0.18037 0.05695 0.39731 0.0
C1557 C 0.23519 0.10782 0.37097 0.0
C1558 C 0.24201 0.08266 0.3781 0.0
H1559 H 0.20451 0.13506 0.37025 0.0
H1560 H 0.25058 0.12243 0.36447 0.0
C1561 C 0.22164 0.0643 0.38673 0.0
C1562 C 0.74789 0.36197 0.59889 0.0
C1563 C 0.74927 0.38525 0.61457 0.0
H1564 H 0.72251 0.33081 0.57947 0.0
C1565 C 0.72521 0.39489 0.62306 0.0
H1566 H 0.7661 0.35412 0.59197 0.0
C1567 C 0.70025 0.38138 0.61613 0.0
C1568 C 0.69887 0.35819 0.60028 0.0
H1569 H 0.72566 0.41275 0.63524 0.0
H1570 H 0.68204 0.38925 0.623 0.0
C1571 C 0.72293 0.34867 0.59166 0.0
C1572 C 0.34536 0.9542 0.37783 0.0
C1573 C 0.37169 0.94752 0.37291 0.0
H1574 H 0.31936 0.98499 0.38423 0.0
C1575 C 0.39268 0.96778 0.37214 0.0
H1576 H 0.32869 0.93909 0.37851 0.0
C1577 C 0.3873 0.99413 0.37534 0.0
C1578 C 0.3608 0.00089 0.37936 0.0
H1579 H 0.41318 0.96336 0.36836 0.0
H1580 H 0.4039 0.00923 0.37409 0.0
C1581 C 0.33998 0.98056 0.38102 0.0
C1582 C 0.77958 0.62488 0.1382 0.0
C1583 C 0.79647 0.62494 0.11622 0.0
H1584 H 0.74217 0.60921 0.15443 0.0
C1585 C 0.79014 0.60703 0.09485 0.0
H1586 H 0.78421 0.63855 0.15491 0.0
C1587 C 0.76684 0.58985 0.09493 0.0
C1588 C 0.74897 0.59073 0.11606 0.0
H1589 H 0.80309 0.60656 0.07783 0.0
H1590 H 0.76217 0.5768 0.07772 0.0
C1591 C 0.75567 0.60812 0.13793 0.0
C1592 C 0.67377 0.53924 0.3538 0.0
C1593 C 0.64671 0.54363 0.35839 0.0
H1594 H 0.70337 0.5112 0.35176 0.0
C1595 C 0.62941 0.5229 0.36801 0.0
H1596 H 0.68767 0.55474 0.34641 0.0
C1597 C 0.63868 0.49795 0.37163 0.0
C1598 C 0.6652 0.49324 0.36514 0.0
H1599 H 0.60848 0.5257 0.37181 0.0
H1600 H 0.62463 0.48201 0.37788 0.0
C1601 C 0.68281 0.51427 0.35685 0.0
C1602 C 0.26055 0.85822 0.8826 0.0
C1603 C 0.25135 0.88334 0.87931 0.0
H1604 H 0.2941 0.8358 0.89166 0.0
C1605 C 0.27029 0.90548 0.88141 0.0
H1606 H 0.24658 0.84071 0.88102 0.0
C1607 C 0.2976 0.90262 0.88741 0.0
C1608 C 0.30662 0.87757 0.89148 0.0
H1609 H 0.26399 0.9251 0.87887 0.0
H1610 H 0.31151 0.92015 0.88948 0.0
C1611 C 0.28785 0.85538 0.88863 0.0
C1612 C 0.33001 0.01573 0.16351 0.0
C1613 C 0.33213 -0.00064 0.14087 0.0
H1614 H 0.34118 0.05324 0.18244 0.0
C1615 C 0.34506 0.0097 0.11832 0.0
H1616 H 0.32026 0.00831 0.18123 0.0
C1617 C 0.35648 0.03579 0.11884 0.0
C1618 C 0.35573 0.05147 0.14217 0.0
H1619 H 0.34692 0.99746 0.10061 0.0
H1620 H 0.36713 0.04323 0.10162 0.0
C1621 C 0.34203 0.0414 0.16428 0.0
C1622 C 0.13363 0.95786 0.60391 0.0
C1623 C 0.13998 0.94073 0.62429 0.0
H1624 H 0.13894 0.99729 0.58967 0.0
C1625 C 0.15993 0.94898 0.64382 0.0
H1626 H 0.11808 0.95184 0.5888 0.0
C1627 C 0.17215 0.97458 0.64409 0.0
C1628 C 0.16407 0.99264 0.62525 0.0
H1629 H 0.16505 0.93599 0.65972 0.0
H1630 H 0.1865 0.98067 0.66026 0.0
C1631 C 0.14546 0.98381 0.60451 0.0
loop_
_geom_bond_atom_site_label_1
_geom_bond_atom_site_label_2
_geom_bond_distance
_geom_bond_site_symmetry_2
_ccdc_geom_bond_type
O0 Cd1 2.223 . S
O0 C8 1.315 . S
Cd1 O0 2.223 . S
Cd1 O4 2.297 . S
Cd1 O5 2.439 . S
Cd1 O11 2.240 . S
Cd2 O3 2.240 . S
Cd2 O10 2.223 . S
Cd2 O12 2.297 . S
Cd2 O13 2.439 . S
O3 Cd2 2.240 . S
O3 C8 1.279 . S
O4 Cd1 2.297 . S
O4 C6 1.247 . S
O5 Cd1 2.439 . S
O5 C6 1.208 . S
C6 O4 1.247 . S
C6 O5 1.208 . S
C7 O12 1.247 . S
C7 O13 1.208 . S
C8 O0 1.315 . S
C8 O3 1.279 . S
C9 O10 1.315 . S
C9 O11 1.279 . S
O10 Cd2 2.223 . S
O10 C9 1.315 . S
O11 Cd1 2.240 . S
O11 C9 1.279 . S
O12 Cd2 2.297 . S
O12 C7 1.247 . S
O13 Cd2 2.439 . S
O13 C7 1.208 . S
O14 Cd15 2.223 . S
O14 C22 1.315 . S
Cd15 O14 2.223 . S
Cd15 O18 2.297 . S
Cd15 O19 2.439 . S
Cd15 O25 2.240 . S
Cd16 O17 2.240 . S
Cd16 O24 2.223 . S
Cd16 O26 2.297 . S
Cd16 O27 2.439 . S
O17 Cd16 2.240 . S
O17 C22 1.279 . S
O18 Cd15 2.297 . S
O18 C20 1.247 . S
O19 Cd15 2.439 . S
O19 C20 1.208 . S
C20 O18 1.247 . S
C20 O19 1.208 . S
C21 O26 1.247 . S
C21 O27 1.208 . S
C22 O14 1.315 . S
C22 O17 1.279 . S
C23 O24 1.315 . S
C23 O25 1.279 . S
O24 Cd16 2.223 . S
O24 C23 1.315 . S
O25 Cd15 2.240 . S
O25 C23 1.279 . S
O26 Cd16 2.297 . S
O26 C21 1.247 . S
O27 Cd16 2.439 . S
O27 C21 1.208 . S
O28 Cd29 2.223 . S
O28 C36 1.315 . S
Cd29 O28 2.223 . S
Cd29 O32 2.297 . S
Cd29 O33 2.439 . S
Cd29 O39 2.240 . S
Cd30 O31 2.240 . S
Cd30 O38 2.223 . S
Cd30 O40 2.297 . S
Cd30 O41 2.439 . S
O31 Cd30 2.240 . S
O31 C36 1.279 . S
O32 Cd29 2.297 . S
O32 C34 1.247 . S
O33 Cd29 2.439 . S
O33 C34 1.208 . S
C34 O32 1.247 . S
C34 O33 1.208 . S
C35 O40 1.247 . S
C35 O41 1.208 . S
C36 O28 1.315 . S
C36 O31 1.279 . S
C37 O38 1.315 . S
C37 O39 1.279 . S
O38 Cd30 2.223 . S
O38 C37 1.315 . S
O39 Cd29 2.240 . S
O39 C37 1.279 . S
O40 Cd30 2.297 . S
O40 C35 1.247 . S
O41 Cd30 2.439 . S
O41 C35 1.208 . S
O42 Cd43 2.223 . S
O42 C50 1.315 . S
Cd43 O42 2.223 . S
Cd43 O46 2.297 . S
Cd43 O47 2.439 . S
Cd43 O53 2.240 . S
Cd44 O45 2.240 . S
Cd44 O52 2.223 . S
Cd44 O54 2.297 . S
Cd44 O55 2.439 . S
O45 Cd44 2.240 . S
O45 C50 1.279 . S
O46 Cd43 2.297 . S
O46 C48 1.247 . S
O47 Cd43 2.439 . S
O47 C48 1.208 . S
C48 O46 1.247 . S
C48 O47 1.208 . S
C49 O54 1.247 . S
C49 O55 1.208 . S
C50 O42 1.315 . S
C50 O45 1.279 . S
C51 O52 1.315 . S
C51 O53 1.279 . S
O52 Cd44 2.223 . S
O52 C51 1.315 . S
O53 Cd43 2.240 . S
O53 C51 1.279 . S
O54 Cd44 2.297 . S
O54 C49 1.247 . S
O55 Cd44 2.439 . S
O55 C49 1.208 . S
O56 Cd57 2.223 . S
O56 C64 1.315 . S
Cd57 O56 2.223 . S
Cd57 O60 2.297 . S
Cd57 O61 2.439 . S
Cd57 O67 2.240 . S
Cd58 O59 2.240 . S
Cd58 O66 2.223 . S
Cd58 O68 2.297 . S
Cd58 O69 2.439 . S
O59 Cd58 2.240 . S
O59 C64 1.279 . S
O60 Cd57 2.297 . S
O60 C62 1.247 . S
O61 Cd57 2.439 . S
O61 C62 1.208 . S
C62 O60 1.247 . S
C62 O61 1.208 . S
C63 O68 1.247 . S
C63 O69 1.208 . S
C64 O56 1.315 . S
C64 O59 1.279 . S
C65 O66 1.315 . S
C65 O67 1.279 . S
O66 Cd58 2.223 . S
O66 C65 1.315 . S
O67 Cd57 2.240 . S
O67 C65 1.279 . S
O68 Cd58 2.297 . S
O68 C63 1.247 . S
O69 Cd58 2.439 . S
O69 C63 1.208 . S
O70 Cd71 2.223 . S
O70 C78 1.315 . S
Cd71 O70 2.223 . S
Cd71 O74 2.297 . S
Cd71 O75 2.439 . S
Cd71 O81 2.240 . S
Cd72 O73 2.240 . S
Cd72 O80 2.223 . S
Cd72 O82 2.297 . S
Cd72 O83 2.439 . S
O73 Cd72 2.240 . S
O73 C78 1.279 . S
O74 Cd71 2.297 . S
O74 C76 1.247 . S
O75 Cd71 2.439 . S
O75 C76 1.208 . S
C76 O74 1.247 . S
C76 O75 1.208 . S
C77 O82 1.247 . S
C77 O83 1.208 . S
C78 O70 1.315 . S
C78 O73 1.279 . S
C79 O80 1.315 . S
C79 O81 1.279 . S
O80 Cd72 2.223 . S
O80 C79 1.315 . S
O81 Cd71 2.240 . S
O81 C79 1.279 . S
O82 Cd72 2.297 . S
O82 C77 1.247 . S
O83 Cd72 2.439 . S
O83 C77 1.208 . S
O84 Cd85 2.223 . S
O84 C92 1.315 . S
Cd85 O84 2.223 . S
Cd85 O88 2.297 . S
Cd85 O89 2.439 . S
Cd85 O95 2.240 . S
Cd86 O87 2.240 . S
Cd86 O94 2.223 . S
Cd86 O96 2.297 . S
Cd86 O97 2.439 . S
O87 Cd86 2.240 . S
O87 C92 1.279 . S
O88 Cd85 2.297 . S
O88 C90 1.247 . S
O89 Cd85 2.439 . S
O89 C90 1.208 . S
C90 O88 1.247 . S
C90 O89 1.208 . S
C91 O96 1.247 . S
C91 O97 1.208 . S
C92 O84 1.315 . S
C92 O87 1.279 . S
C93 O94 1.315 . S
C93 O95 1.279 . S
O94 Cd86 2.223 . S
O94 C93 1.315 . S
O95 Cd85 2.240 . S
O95 C93 1.279 . S
O96 Cd86 2.297 . S
O96 C91 1.247 . S
O97 Cd86 2.439 . S
O97 C91 1.208 . S
O98 Cd99 2.223 . S
O98 C106 1.315 . S
Cd99 O98 2.223 . S
Cd99 O102 2.297 . S
Cd99 O103 2.439 . S
Cd99 O109 2.240 . S
Cd100 O101 2.240 . S
Cd100 O108 2.223 . S
Cd100 O110 2.297 . S
Cd100 O111 2.439 . S
O101 Cd100 2.240 . S
O101 C106 1.279 . S
O102 Cd99 2.297 . S
O102 C104 1.247 . S
O103 Cd99 2.439 . S
O103 C104 1.208 . S
C104 O102 1.247 . S
C104 O103 1.208 . S
C105 O110 1.247 . S
C105 O111 1.208 . S
C106 O98 1.315 . S
C106 O101 1.279 . S
C107 O108 1.315 . S
C107 O109 1.279 . S
O108 Cd100 2.223 . S
O108 C107 1.315 . S
O109 Cd99 2.240 . S
O109 C107 1.279 . S
O110 Cd100 2.297 . S
O110 C105 1.247 . S
O111 Cd100 2.439 . S
O111 C105 1.208 . S
O112 Cd113 2.223 . S
O112 C120 1.315 . S
Cd113 O112 2.223 . S
Cd113 O116 2.297 . S
Cd113 O117 2.439 . S
Cd113 O123 2.240 . S
Cd114 O115 2.240 . S
Cd114 O122 2.223 . S
Cd114 O124 2.297 . S
Cd114 O125 2.439 . S
O115 Cd114 2.240 . S
O115 C120 1.279 . S
O116 Cd113 2.297 . S
O116 C118 1.247 . S
O117 Cd113 2.439 . S
O117 C118 1.208 . S
C118 O116 1.247 . S
C118 O117 1.208 . S
C119 O124 1.247 . S
C119 O125 1.208 . S
C120 O112 1.315 . S
C120 O115 1.279 . S
C121 O122 1.315 . S
C121 O123 1.279 . S
O122 Cd114 2.223 . S
O122 C121 1.315 . S
O123 Cd113 2.240 . S
O123 C121 1.279 . S
O124 Cd114 2.297 . S
O124 C119 1.247 . S
O125 Cd114 2.439 . S
O125 C119 1.208 . S
O126 Cd127 2.223 . S
O126 C134 1.315 . S
Cd127 O126 2.223 . S
Cd127 O130 2.297 . S
Cd127 O131 2.439 . S
Cd127 O137 2.240 . S
Cd128 O129 2.240 . S
Cd128 O136 2.223 . S
Cd128 O138 2.297 . S
Cd128 O139 2.439 . S
O129 Cd128 2.240 . S
O129 C134 1.279 . S
O130 Cd127 2.297 . S
O130 C132 1.247 . S
O131 Cd127 2.439 . S
O131 C132 1.208 . S
C132 O130 1.247 . S
C132 O131 1.208 . S
C133 O138 1.247 . S
C133 O139 1.208 . S
C134 O126 1.315 . S
C134 O129 1.279 . S
C135 O136 1.315 . S
C135 O137 1.279 . S
O136 Cd128 2.223 . S
O136 C135 1.315 . S
O137 Cd127 2.240 . S
O137 C135 1.279 . S
O138 Cd128 2.297 . S
O138 C133 1.247 . S
O139 Cd128 2.439 . S
O139 C133 1.208 . S
O140 Cd141 2.223 . S
O140 C148 1.315 . S
Cd141 O140 2.223 . S
Cd141 O144 2.297 . S
Cd141 O145 2.439 . S
Cd141 O151 2.240 . S
Cd142 O143 2.240 . S
Cd142 O150 2.223 . S
Cd142 O152 2.297 . S
Cd142 O153 2.439 . S
O143 Cd142 2.240 . S
O143 C148 1.279 . S
O144 Cd141 2.297 . S
O144 C146 1.247 . S
O145 Cd141 2.439 . S
O145 C146 1.208 . S
C146 O144 1.247 . S
C146 O145 1.208 . S
C147 O152 1.247 . S
C147 O153 1.208 . S
C148 O140 1.315 . S
C148 O143 1.279 . S
C149 O150 1.315 . S
C149 O151 1.279 . S
O150 Cd142 2.223 . S
O150 C149 1.315 . S
O151 Cd141 2.240 . S
O151 C149 1.279 . S
O152 Cd142 2.297 . S
O152 C147 1.247 . S
O153 Cd142 2.439 . S
O153 C147 1.208 . S
O154 Cd155 2.223 . S
O154 C162 1.315 . S
Cd155 O154 2.223 . S
Cd155 O158 2.297 . S
Cd155 O159 2.439 . S
Cd155 O165 2.240 . S
Cd156 O157 2.240 . S
Cd156 O164 2.223 . S
Cd156 O166 2.297 . S
Cd156 O167 2.439 . S
O157 Cd156 2.240 . S
O157 C162 1.279 . S
O158 Cd155 2.297 . S
O158 C160 1.247 . S
O159 Cd155 2.439 . S
O159 C160 1.208 . S
C160 O158 1.247 . S
C160 O159 1.208 . S
C161 O166 1.247 . S
C161 O167 1.208 . S
C162 O154 1.315 . S
C162 O157 1.279 . S
C163 O164 1.315 . S
C163 O165 1.279 . S
O164 Cd156 2.223 . S
O164 C163 1.315 . S
O165 Cd155 2.240 . S
O165 C163 1.279 . S
O166 Cd156 2.297 . S
O166 C161 1.247 . S
O167 Cd156 2.439 . S
O167 C161 1.208 . S
O168 Cd169 2.223 . S
O168 C176 1.315 . S
Cd169 O168 2.223 . S
Cd169 O172 2.297 . S
Cd169 O173 2.439 . S
Cd169 O179 2.240 . S
Cd170 O171 2.240 . S
Cd170 O178 2.223 . S
Cd170 O180 2.297 . S
Cd170 O181 2.439 . S
O171 Cd170 2.240 . S
O171 C176 1.279 . S
O172 Cd169 2.297 . S
O172 C174 1.247 . S
O173 Cd169 2.439 . S
O173 C174 1.208 . S
C174 O172 1.247 . S
C174 O173 1.208 . S
C175 O180 1.247 . S
C175 O181 1.208 . S
C176 O168 1.315 . S
C176 O171 1.279 . S
C177 O178 1.315 . S
C177 O179 1.279 . S
O178 Cd170 2.223 . S
O178 C177 1.315 . S
O179 Cd169 2.240 . S
O179 C177 1.279 . S
O180 Cd170 2.297 . S
O180 C175 1.247 . S
O181 Cd170 2.439 . S
O181 C175 1.208 . S
O182 Cd183 2.223 . S
O182 C190 1.315 . S
Cd183 O182 2.223 . S
Cd183 O186 2.297 . S
Cd183 O187 2.439 . S
Cd183 O193 2.240 . S
Cd184 O185 2.240 . S
Cd184 O192 2.223 . S
Cd184 O194 2.297 . S
Cd184 O195 2.439 . S
O185 Cd184 2.240 . S
O185 C190 1.279 . S
O186 Cd183 2.297 . S
O186 C188 1.247 . S
O187 Cd183 2.439 . S
O187 C188 1.208 . S
C188 O186 1.247 . S
C188 O187 1.208 . S
C189 O194 1.247 . S
C189 O195 1.208 . S
C190 O182 1.315 . S
C190 O185 1.279 . S
C191 O192 1.315 . S
C191 O193 1.279 . S
O192 Cd184 2.223 . S
O192 C191 1.315 . S
O193 Cd183 2.240 . S
O193 C191 1.279 . S
O194 Cd184 2.297 . S
O194 C189 1.247 . S
O195 Cd184 2.439 . S
O195 C189 1.208 . S
O196 Cd197 2.223 . S
O196 C204 1.315 . S
Cd197 O196 2.223 . S
Cd197 O200 2.297 . S
Cd197 O201 2.439 . S
Cd197 O207 2.240 . S
Cd198 O199 2.240 . S
Cd198 O206 2.223 . S
Cd198 O208 2.297 . S
Cd198 O209 2.439 . S
O199 Cd198 2.240 . S
O199 C204 1.279 . S
O200 Cd197 2.297 . S
O200 C202 1.247 . S
O201 Cd197 2.439 . S
O201 C202 1.208 . S
C202 O200 1.247 . S
C202 O201 1.208 . S
C203 O208 1.247 . S
C203 O209 1.208 . S
C204 O196 1.315 . S
C204 O199 1.279 . S
C205 O206 1.315 . S
C205 O207 1.279 . S
O206 Cd198 2.223 . S
O206 C205 1.315 . S
O207 Cd197 2.240 . S
O207 C205 1.279 . S
O208 Cd198 2.297 . S
O208 C203 1.247 . S
O209 Cd198 2.439 . S
O209 C203 1.208 . S
O210 Cd211 2.223 . S
O210 C218 1.315 . S
Cd211 O210 2.223 . S
Cd211 O214 2.297 . S
Cd211 O215 2.439 . S
Cd211 O221 2.240 . S
Cd212 O213 2.240 . S
Cd212 O220 2.223 . S
Cd212 O222 2.297 . S
Cd212 O223 2.439 . S
O213 Cd212 2.240 . S
O213 C218 1.279 . S
O214 Cd211 2.297 . S
O214 C216 1.247 . S
O215 Cd211 2.439 . S
O215 C216 1.208 . S
C216 O214 1.247 . S
C216 O215 1.208 . S
C217 O222 1.247 . S
C217 O223 1.208 . S
C218 O210 1.315 . S
C218 O213 1.279 . S
C219 O220 1.315 . S
C219 O221 1.279 . S
O220 Cd212 2.223 . S
O220 C219 1.315 . S
O221 Cd211 2.240 . S
O221 C219 1.279 . S
O222 Cd212 2.297 . S
O222 C217 1.247 . S
O223 Cd212 2.439 . S
O223 C217 1.208 . S
O224 Cd225 2.223 . S
O224 C232 1.315 . S
Cd225 O224 2.223 . S
Cd225 O228 2.297 . S
Cd225 O229 2.439 . S
Cd225 O235 2.240 . S
Cd226 O227 2.240 . S
Cd226 O234 2.223 . S
Cd226 O236 2.297 . S
Cd226 O237 2.439 . S
O227 Cd226 2.240 . S
O227 C232 1.279 . S
O228 Cd225 2.297 . S
O228 C230 1.247 . S
O229 Cd225 2.439 . S
O229 C230 1.208 . S
C230 O228 1.247 . S
C230 O229 1.208 . S
C231 O236 1.247 . S
C231 O237 1.208 . S
C232 O224 1.315 . S
C232 O227 1.279 . S
C233 O234 1.315 . S
C233 O235 1.279 . S
O234 Cd226 2.223 . S
O234 C233 1.315 . S
O235 Cd225 2.240 . S
O235 C233 1.279 . S
O236 Cd226 2.297 . S
O236 C231 1.247 . S
O237 Cd226 2.439 . S
O237 C231 1.208 . S
O238 Cd239 2.223 . S
O238 C246 1.315 . S
Cd239 O238 2.223 . S
Cd239 O242 2.297 . S
Cd239 O243 2.439 . S
Cd239 O249 2.240 . S
Cd240 O241 2.240 . S
Cd240 O248 2.223 . S
Cd240 O250 2.297 . S
Cd240 O251 2.439 . S
O241 Cd240 2.240 . S
O241 C246 1.279 . S
O242 Cd239 2.297 . S
O242 C244 1.247 . S
O243 Cd239 2.439 . S
O243 C244 1.208 . S
C244 O242 1.247 . S
C244 O243 1.208 . S
C245 O250 1.247 . S
C245 O251 1.208 . S
C246 O238 1.315 . S
C246 O241 1.279 . S
C247 O248 1.315 . S
C247 O249 1.279 . S
O248 Cd240 2.223 . S
O248 C247 1.315 . S
O249 Cd239 2.240 . S
O249 C247 1.279 . S
O250 Cd240 2.297 . S
O250 C245 1.247 . S
O251 Cd240 2.439 . S
O251 C245 1.208 . S
O252 Cd253 2.223 . S
O252 C260 1.315 . S
Cd253 O252 2.223 . S
Cd253 O256 2.297 . S
Cd253 O257 2.439 . S
Cd253 O263 2.240 . S
Cd254 O255 2.240 . S
Cd254 O262 2.223 . S
Cd254 O264 2.297 . S
Cd254 O265 2.439 . S
O255 Cd254 2.240 . S
O255 C260 1.279 . S
O256 Cd253 2.297 . S
O256 C258 1.247 . S
O257 Cd253 2.439 . S
O257 C258 1.208 . S
C258 O256 1.247 . S
C258 O257 1.208 . S
C259 O264 1.247 . S
C259 O265 1.208 . S
C260 O252 1.315 . S
C260 O255 1.279 . S
C261 O262 1.315 . S
C261 O263 1.279 . S
O262 Cd254 2.223 . S
O262 C261 1.315 . S
O263 Cd253 2.240 . S
O263 C261 1.279 . S
O264 Cd254 2.297 . S
O264 C259 1.247 . S
O265 Cd254 2.439 . S
O265 C259 1.208 . S
O266 Cd267 2.223 . S
O266 C274 1.315 . S
Cd267 O266 2.223 . S
Cd267 O270 2.297 . S
Cd267 O271 2.439 . S
Cd267 O277 2.240 . S
Cd268 O269 2.240 . S
Cd268 O276 2.223 . S
Cd268 O278 2.297 . S
Cd268 O279 2.439 . S
O269 Cd268 2.240 . S
O269 C274 1.279 . S
O270 Cd267 2.297 . S
O270 C272 1.247 . S
O271 Cd267 2.439 . S
O271 C272 1.208 . S
C272 O270 1.247 . S
C272 O271 1.208 . S
C273 O278 1.247 . S
C273 O279 1.208 . S
C274 O266 1.315 . S
C274 O269 1.279 . S
C275 O276 1.315 . S
C275 O277 1.279 . S
O276 Cd268 2.223 . S
O276 C275 1.315 . S
O277 Cd267 2.240 . S
O277 C275 1.279 . S
O278 Cd268 2.297 . S
O278 C273 1.247 . S
O279 Cd268 2.439 . S
O279 C273 1.208 . S
O280 Cd281 2.223 . S
O280 C288 1.315 . S
Cd281 O280 2.223 . S
Cd281 O284 2.297 . S
Cd281 O285 2.439 . S
Cd281 O291 2.240 . S
Cd282 O283 2.240 . S
Cd282 O290 2.223 . S
Cd282 O292 2.297 . S
Cd282 O293 2.439 . S
O283 Cd282 2.240 . S
O283 C288 1.279 . S
O284 Cd281 2.297 . S
O284 C286 1.247 . S
O285 Cd281 2.439 . S
O285 C286 1.208 . S
C286 O284 1.247 . S
C286 O285 1.208 . S
C287 O292 1.247 . S
C287 O293 1.208 . S
C288 O280 1.315 . S
C288 O283 1.279 . S
C289 O290 1.315 . S
C289 O291 1.279 . S
O290 Cd282 2.223 . S
O290 C289 1.315 . S
O291 Cd281 2.240 . S
O291 C289 1.279 . S
O292 Cd282 2.297 . S
O292 C287 1.247 . S
O293 Cd282 2.439 . S
O293 C287 1.208 . S
O294 Cd295 2.223 . S
O294 C302 1.315 . S
Cd295 O294 2.223 . S
Cd295 O298 2.297 . S
Cd295 O299 2.439 . S
Cd295 O305 2.240 . S
Cd296 O297 2.240 . S
Cd296 O304 2.223 . S
Cd296 O306 2.297 . S
Cd296 O307 2.439 . S
O297 Cd296 2.240 . S
O297 C302 1.279 . S
O298 Cd295 2.297 . S
O298 C300 1.247 . S
O299 Cd295 2.439 . S
O299 C300 1.208 . S
C300 O298 1.247 . S
C300 O299 1.208 . S
C301 O306 1.247 . S
C301 O307 1.208 . S
C302 O294 1.315 . S
C302 O297 1.279 . S
C303 O304 1.315 . S
C303 O305 1.279 . S
O304 Cd296 2.223 . S
O304 C303 1.315 . S
O305 Cd295 2.240 . S
O305 C303 1.279 . S
O306 Cd296 2.297 . S
O306 C301 1.247 . S
O307 Cd296 2.439 . S
O307 C301 1.208 . S
O308 Cd309 2.223 . S
O308 C316 1.315 . S
Cd309 O308 2.223 . S
Cd309 O312 2.297 . S
Cd309 O313 2.439 . S
Cd309 O319 2.240 . S
Cd310 O311 2.240 . S
Cd310 O318 2.223 . S
Cd310 O320 2.297 . S
Cd310 O321 2.439 . S
O311 Cd310 2.240 . S
O311 C316 1.279 . S
O312 Cd309 2.297 . S
O312 C314 1.247 . S
O313 Cd309 2.439 . S
O313 C314 1.208 . S
C314 O312 1.247 . S
C314 O313 1.208 . S
C315 O320 1.247 . S
C315 O321 1.208 . S
C316 O308 1.315 . S
C316 O311 1.279 . S
C317 O318 1.315 . S
C317 O319 1.279 . S
O318 Cd310 2.223 . S
O318 C317 1.315 . S
O319 Cd309 2.240 . S
O319 C317 1.279 . S
O320 Cd310 2.297 . S
O320 C315 1.247 . S
O321 Cd310 2.439 . S
O321 C315 1.208 . S
O322 Cd323 2.223 . S
O322 C330 1.315 . S
Cd323 O322 2.223 . S
Cd323 O326 2.297 . S
Cd323 O327 2.439 . S
Cd323 O333 2.240 . S
Cd324 O325 2.240 . S
Cd324 O332 2.223 . S
Cd324 O334 2.297 . S
Cd324 O335 2.439 . S
O325 Cd324 2.240 . S
O325 C330 1.279 . S
O326 Cd323 2.297 . S
O326 C328 1.247 . S
O327 Cd323 2.439 . S
O327 C328 1.208 . S
C328 O326 1.247 . S
C328 O327 1.208 . S
C329 O334 1.247 . S
C329 O335 1.208 . S
C330 O322 1.315 . S
C330 O325 1.279 . S
C331 O332 1.315 . S
C331 O333 1.279 . S
O332 Cd324 2.223 . S
O332 C331 1.315 . S
O333 Cd323 2.240 . S
O333 C331 1.279 . S
O334 Cd324 2.297 . S
O334 C329 1.247 . S
O335 Cd324 2.439 . S
O335 C329 1.208 . S
O336 Cd337 2.223 . S
O336 C344 1.315 . S
Cd337 O336 2.223 . S
Cd337 O340 2.297 . S
Cd337 O341 2.439 . S
Cd337 O347 2.240 . S
Cd338 O339 2.240 . S
Cd338 O346 2.223 . S
Cd338 O348 2.297 . S
Cd338 O349 2.439 . S
O339 Cd338 2.240 . S
O339 C344 1.279 . S
O340 Cd337 2.297 . S
O340 C342 1.247 . S
O341 Cd337 2.439 . S
O341 C342 1.208 . S
C342 O340 1.247 . S
C342 O341 1.208 . S
C343 O348 1.247 . S
C343 O349 1.208 . S
C344 O336 1.315 . S
C344 O339 1.279 . S
C345 O346 1.315 . S
C345 O347 1.279 . S
O346 Cd338 2.223 . S
O346 C345 1.315 . S
O347 Cd337 2.240 . S
O347 C345 1.279 . S
O348 Cd338 2.297 . S
O348 C343 1.247 . S
O349 Cd338 2.439 . S
O349 C343 1.208 . S
O350 Cd351 2.223 . S
O350 C358 1.315 . S
Cd351 O350 2.223 . S
Cd351 O354 2.297 . S
Cd351 O355 2.439 . S
Cd351 O361 2.240 . S
Cd352 O353 2.240 . S
Cd352 O360 2.223 . S
Cd352 O362 2.297 . S
Cd352 O363 2.439 . S
O353 Cd352 2.240 . S
O353 C358 1.279 . S
O354 Cd351 2.297 . S
O354 C356 1.247 . S
O355 Cd351 2.439 . S
O355 C356 1.208 . S
C356 O354 1.247 . S
C356 O355 1.208 . S
C357 O362 1.247 . S
C357 O363 1.208 . S
C358 O350 1.315 . S
C358 O353 1.279 . S
C359 O360 1.315 . S
C359 O361 1.279 . S
O360 Cd352 2.223 . S
O360 C359 1.315 . S
O361 Cd351 2.240 . S
O361 C359 1.279 . S
O362 Cd352 2.297 . S
O362 C357 1.247 . S
O363 Cd352 2.439 . S
O363 C357 1.208 . S
O364 Cd365 2.223 . S
O364 C372 1.315 . S
Cd365 O364 2.223 . S
Cd365 O368 2.297 . S
Cd365 O369 2.439 . S
Cd365 O375 2.240 . S
Cd366 O367 2.240 . S
Cd366 O374 2.223 . S
Cd366 O376 2.297 . S
Cd366 O377 2.439 . S
O367 Cd366 2.240 . S
O367 C372 1.279 . S
O368 Cd365 2.297 . S
O368 C370 1.247 . S
O369 Cd365 2.439 . S
O369 C370 1.208 . S
C370 O368 1.247 . S
C370 O369 1.208 . S
C371 O376 1.247 . S
C371 O377 1.208 . S
C372 O364 1.315 . S
C372 O367 1.279 . S
C373 O374 1.315 . S
C373 O375 1.279 . S
O374 Cd366 2.223 . S
O374 C373 1.315 . S
O375 Cd365 2.240 . S
O375 C373 1.279 . S
O376 Cd366 2.297 . S
O376 C371 1.247 . S
O377 Cd366 2.439 . S
O377 C371 1.208 . S
O378 Cd379 2.223 . S
O378 C386 1.315 . S
Cd379 O378 2.223 . S
Cd379 O382 2.297 . S
Cd379 O383 2.439 . S
Cd379 O389 2.240 . S
Cd380 O381 2.240 . S
Cd380 O388 2.223 . S
Cd380 O390 2.297 . S
Cd380 O391 2.439 . S
O381 Cd380 2.240 . S
O381 C386 1.279 . S
O382 Cd379 2.297 . S
O382 C384 1.247 . S
O383 Cd379 2.439 . S
O383 C384 1.208 . S
C384 O382 1.247 . S
C384 O383 1.208 . S
C385 O390 1.247 . S
C385 O391 1.208 . S
C386 O378 1.315 . S
C386 O381 1.279 . S
C387 O388 1.315 . S
C387 O389 1.279 . S
O388 Cd380 2.223 . S
O388 C387 1.315 . S
O389 Cd379 2.240 . S
O389 C387 1.279 . S
O390 Cd380 2.297 . S
O390 C385 1.247 . S
O391 Cd380 2.439 . S
O391 C385 1.208 . S
O392 Cd393 2.223 . S
O392 C400 1.315 . S
Cd393 O392 2.223 . S
Cd393 O396 2.297 . S
Cd393 O397 2.439 . S
Cd393 O403 2.240 . S
Cd394 O395 2.240 . S
Cd394 O402 2.223 . S
Cd394 O404 2.297 . S
Cd394 O405 2.439 . S
O395 Cd394 2.240 . S
O395 C400 1.279 . S
O396 Cd393 2.297 . S
O396 C398 1.247 . S
O397 Cd393 2.439 . S
O397 C398 1.208 . S
C398 O396 1.247 . S
C398 O397 1.208 . S
C399 O404 1.247 . S
C399 O405 1.208 . S
C400 O392 1.315 . S
C400 O395 1.279 . S
C401 O402 1.315 . S
C401 O403 1.279 . S
O402 Cd394 2.223 . S
O402 C401 1.315 . S
O403 Cd393 2.240 . S
O403 C401 1.279 . S
O404 Cd394 2.297 . S
O404 C399 1.247 . S
O405 Cd394 2.439 . S
O405 C399 1.208 . S
O406 Cd407 2.223 . S
O406 C414 1.315 . S
Cd407 O406 2.223 . S
Cd407 O410 2.297 . S
Cd407 O411 2.439 . S
Cd407 O417 2.240 . S
Cd408 O409 2.240 . S
Cd408 O416 2.223 . S
Cd408 O418 2.297 . S
Cd408 O419 2.439 . S
O409 Cd408 2.240 . S
O409 C414 1.279 . S
O410 Cd407 2.297 . S
O410 C412 1.247 . S
O411 Cd407 2.439 . S
O411 C412 1.208 . S
C412 O410 1.247 . S
C412 O411 1.208 . S
C413 O418 1.247 . S
C413 O419 1.208 . S
C414 O406 1.315 . S
C414 O409 1.279 . S
C415 O416 1.315 . S
C415 O417 1.279 . S
O416 Cd408 2.223 . S
O416 C415 1.315 . S
O417 Cd407 2.240 . S
O417 C415 1.279 . S
O418 Cd408 2.297 . S
O418 C413 1.247 . S
O419 Cd408 2.439 . S
O419 C413 1.208 . S
O420 Cd421 2.223 . S
O420 C428 1.315 . S
Cd421 O420 2.223 . S
Cd421 O424 2.297 . S
Cd421 O425 2.439 . S
Cd421 O431 2.240 . S
Cd422 O423 2.240 . S
Cd422 O430 2.223 . S
Cd422 O432 2.297 . S
Cd422 O433 2.439 . S
O423 Cd422 2.240 . S
O423 C428 1.279 . S
O424 Cd421 2.297 . S
O424 C426 1.247 . S
O425 Cd421 2.439 . S
O425 C426 1.208 . S
C426 O424 1.247 . S
C426 O425 1.208 . S
C427 O432 1.247 . S
C427 O433 1.208 . S
C428 O420 1.315 . S
C428 O423 1.279 . S
C429 O430 1.315 . S
C429 O431 1.279 . S
O430 Cd422 2.223 . S
O430 C429 1.315 . S
O431 Cd421 2.240 . S
O431 C429 1.279 . S
O432 Cd422 2.297 . S
O432 C427 1.247 . S
O433 Cd422 2.439 . S
O433 C427 1.208 . S
O434 Cd435 2.223 . S
O434 C442 1.315 . S
Cd435 O434 2.223 . S
Cd435 O438 2.297 . S
Cd435 O439 2.439 . S
Cd435 O445 2.240 . S
Cd436 O437 2.240 . S
Cd436 O444 2.223 . S
Cd436 O446 2.297 . S
Cd436 O447 2.439 . S
O437 Cd436 2.240 . S
O437 C442 1.279 . S
O438 Cd435 2.297 . S
O438 C440 1.247 . S
O439 Cd435 2.439 . S
O439 C440 1.208 . S
C440 O438 1.247 . S
C440 O439 1.208 . S
C441 O446 1.247 . S
C441 O447 1.208 . S
C442 O434 1.315 . S
C442 O437 1.279 . S
C443 O444 1.315 . S
C443 O445 1.279 . S
O444 Cd436 2.223 . S
O444 C443 1.315 . S
O445 Cd435 2.240 . S
O445 C443 1.279 . S
O446 Cd436 2.297 . S
O446 C441 1.247 . S
O447 Cd436 2.439 . S
O447 C441 1.208 . S
O448 Cd449 2.223 . S
O448 C456 1.315 . S
Cd449 O448 2.223 . S
Cd449 O452 2.297 . S
Cd449 O453 2.439 . S
Cd449 O459 2.240 . S
Cd450 O451 2.240 . S
Cd450 O458 2.223 . S
Cd450 O460 2.297 . S
Cd450 O461 2.439 . S
O451 Cd450 2.240 . S
O451 C456 1.279 . S
O452 Cd449 2.297 . S
O452 C454 1.247 . S
O453 Cd449 2.439 . S
O453 C454 1.208 . S
C454 O452 1.247 . S
C454 O453 1.208 . S
C455 O460 1.247 . S
C455 O461 1.208 . S
C456 O448 1.315 . S
C456 O451 1.279 . S
C457 O458 1.315 . S
C457 O459 1.279 . S
O458 Cd450 2.223 . S
O458 C457 1.315 . S
O459 Cd449 2.240 . S
O459 C457 1.279 . S
O460 Cd450 2.297 . S
O460 C455 1.247 . S
O461 Cd450 2.439 . S
O461 C455 1.208 . S
O462 Cd463 2.223 . S
O462 C470 1.315 . S
Cd463 O462 2.223 . S
Cd463 O466 2.297 . S
Cd463 O467 2.439 . S
Cd463 O473 2.240 . S
Cd464 O465 2.240 . S
Cd464 O472 2.223 . S
Cd464 O474 2.297 . S
Cd464 O475 2.439 . S
O465 Cd464 2.240 . S
O465 C470 1.279 . S
O466 Cd463 2.297 . S
O466 C468 1.247 . S
O467 Cd463 2.439 . S
O467 C468 1.208 . S
C468 O466 1.247 . S
C468 O467 1.208 . S
C469 O474 1.247 . S
C469 O475 1.208 . S
C470 O462 1.315 . S
C470 O465 1.279 . S
C471 O472 1.315 . S
C471 O473 1.279 . S
O472 Cd464 2.223 . S
O472 C471 1.315 . S
O473 Cd463 2.240 . S
O473 C471 1.279 . S
O474 Cd464 2.297 . S
O474 C469 1.247 . S
O475 Cd464 2.439 . S
O475 C469 1.208 . S
O476 Cd477 2.223 . S
O476 C484 1.315 . S
Cd477 O476 2.223 . S
Cd477 O480 2.297 . S
Cd477 O481 2.439 . S
Cd477 O487 2.240 . S
Cd478 O479 2.240 . S
Cd478 O486 2.223 . S
Cd478 O488 2.297 . S
Cd478 O489 2.439 . S
O479 Cd478 2.240 . S
O479 C484 1.279 . S
O480 Cd477 2.297 . S
O480 C482 1.247 . S
O481 Cd477 2.439 . S
O481 C482 1.208 . S
C482 O480 1.247 . S
C482 O481 1.208 . S
C483 O488 1.247 . S
C483 O489 1.208 . S
C484 O476 1.315 . S
C484 O479 1.279 . S
C485 O486 1.315 . S
C485 O487 1.279 . S
O486 Cd478 2.223 . S
O486 C485 1.315 . S
O487 Cd477 2.240 . S
O487 C485 1.279 . S
O488 Cd478 2.297 . S
O488 C483 1.247 . S
O489 Cd478 2.439 . S
O489 C483 1.208 . S
O490 Cd491 2.223 . S
O490 C498 1.315 . S
Cd491 O490 2.223 . S
Cd491 O494 2.297 . S
Cd491 O495 2.439 . S
Cd491 O501 2.240 . S
Cd492 O493 2.240 . S
Cd492 O500 2.223 . S
Cd492 O502 2.297 . S
Cd492 O503 2.439 . S
O493 Cd492 2.240 . S
O493 C498 1.279 . S
O494 Cd491 2.297 . S
O494 C496 1.247 . S
O495 Cd491 2.439 . S
O495 C496 1.208 . S
C496 O494 1.247 . S
C496 O495 1.208 . S
C497 O502 1.247 . S
C497 O503 1.208 . S
C498 O490 1.315 . S
C498 O493 1.279 . S
C499 O500 1.315 . S
C499 O501 1.279 . S
O500 Cd492 2.223 . S
O500 C499 1.315 . S
O501 Cd491 2.240 . S
O501 C499 1.279 . S
O502 Cd492 2.297 . S
O502 C497 1.247 . S
O503 Cd492 2.439 . S
O503 C497 1.208 . S
O504 Cd505 2.223 . S
O504 C512 1.315 . S
Cd505 O504 2.223 . S
Cd505 O508 2.297 . S
Cd505 O509 2.439 . S
Cd505 O515 2.240 . S
Cd506 O507 2.240 . S
Cd506 O514 2.223 . S
Cd506 O516 2.297 . S
Cd506 O517 2.439 . S
O507 Cd506 2.240 . S
O507 C512 1.279 . S
O508 Cd505 2.297 . S
O508 C510 1.247 . S
O509 Cd505 2.439 . S
O509 C510 1.208 . S
C510 O508 1.247 . S
C510 O509 1.208 . S
C511 O516 1.247 . S
C511 O517 1.208 . S
C512 O504 1.315 . S
C512 O507 1.279 . S
C513 O514 1.315 . S
C513 O515 1.279 . S
O514 Cd506 2.223 . S
O514 C513 1.315 . S
O515 Cd505 2.240 . S
O515 C513 1.279 . S
O516 Cd506 2.297 . S
O516 C511 1.247 . S
O517 Cd506 2.439 . S
O517 C511 1.208 . S
O518 Cd519 2.223 . S
O518 C526 1.315 . S
Cd519 O518 2.223 . S
Cd519 O522 2.297 . S
Cd519 O523 2.439 . S
Cd519 O529 2.240 . S
Cd520 O521 2.240 . S
Cd520 O528 2.223 . S
Cd520 O530 2.297 . S
Cd520 O531 2.439 . S
O521 Cd520 2.240 . S
O521 C526 1.279 . S
O522 Cd519 2.297 . S
O522 C524 1.247 . S
O523 Cd519 2.439 . S
O523 C524 1.208 . S
C524 O522 1.247 . S
C524 O523 1.208 . S
C525 O530 1.247 . S
C525 O531 1.208 . S
C526 O518 1.315 . S
C526 O521 1.279 . S
C527 O528 1.315 . S
C527 O529 1.279 . S
O528 Cd520 2.223 . S
O528 C527 1.315 . S
O529 Cd519 2.240 . S
O529 C527 1.279 . S
O530 Cd520 2.297 . S
O530 C525 1.247 . S
O531 Cd520 2.439 . S
O531 C525 1.208 . S
O532 Cd533 2.223 . S
O532 C540 1.315 . S
Cd533 O532 2.223 . S
Cd533 O536 2.297 . S
Cd533 O537 2.439 . S
Cd533 O543 2.240 . S
Cd534 O535 2.240 . S
Cd534 O542 2.223 . S
Cd534 O544 2.297 . S
Cd534 O545 2.439 . S
O535 Cd534 2.240 . S
O535 C540 1.279 . S
O536 Cd533 2.297 . S
O536 C538 1.247 . S
O537 Cd533 2.439 . S
O537 C538 1.208 . S
C538 O536 1.247 . S
C538 O537 1.208 . S
C539 O544 1.247 . S
C539 O545 1.208 . S
C540 O532 1.315 . S
C540 O535 1.279 . S
C541 O542 1.315 . S
C541 O543 1.279 . S
O542 Cd534 2.223 . S
O542 C541 1.315 . S
O543 Cd533 2.240 . S
O543 C541 1.279 . S
O544 Cd534 2.297 . S
O544 C539 1.247 . S
O545 Cd534 2.439 . S
O545 C539 1.208 . S
O546 Cd547 2.223 . S
O546 C554 1.315 . S
Cd547 O546 2.223 . S
Cd547 O550 2.297 . S
Cd547 O551 2.439 . S
Cd547 O557 2.240 . S
Cd548 O549 2.240 . S
Cd548 O556 2.223 . S
Cd548 O558 2.297 . S
Cd548 O559 2.439 . S
O549 Cd548 2.240 . S
O549 C554 1.279 . S
O550 Cd547 2.297 . S
O550 C552 1.247 . S
O551 Cd547 2.439 . S
O551 C552 1.208 . S
C552 O550 1.247 . S
C552 O551 1.208 . S
C553 O558 1.247 . S
C553 O559 1.208 . S
C554 O546 1.315 . S
C554 O549 1.279 . S
C555 O556 1.315 . S
C555 O557 1.279 . S
O556 Cd548 2.223 . S
O556 C555 1.315 . S
O557 Cd547 2.240 . S
O557 C555 1.279 . S
O558 Cd548 2.297 . S
O558 C553 1.247 . S
O559 Cd548 2.439 . S
O559 C553 1.208 . S
O560 Cd561 2.223 . S
O560 C568 1.315 . S
Cd561 O560 2.223 . S
Cd561 O564 2.297 . S
Cd561 O565 2.439 . S
Cd561 O571 2.240 . S
Cd562 O563 2.240 . S
Cd562 O570 2.223 . S
Cd562 O572 2.297 . S
Cd562 O573 2.439 . S
O563 Cd562 2.240 . S
O563 C568 1.279 . S
O564 Cd561 2.297 . S
O564 C566 1.247 . S
O565 Cd561 2.439 . S
O565 C566 1.208 . S
C566 O564 1.247 . S
C566 O565 1.208 . S
C567 O572 1.247 . S
C567 O573 1.208 . S
C568 O560 1.315 . S
C568 O563 1.279 . S
C569 O570 1.315 . S
C569 O571 1.279 . S
O570 Cd562 2.223 . S
O570 C569 1.315 . S
O571 Cd561 2.240 . S
O571 C569 1.279 . S
O572 Cd562 2.297 . S
O572 C567 1.247 . S
O573 Cd562 2.439 . S
O573 C567 1.208 . S
O574 Cd575 2.223 . S
O574 C582 1.315 . S
Cd575 O574 2.223 . S
Cd575 O578 2.297 . S
Cd575 O579 2.439 . S
Cd575 O585 2.240 . S
Cd576 O577 2.240 . S
Cd576 O584 2.223 . S
Cd576 O586 2.297 . S
Cd576 O587 2.439 . S
O577 Cd576 2.240 . S
O577 C582 1.279 . S
O578 Cd575 2.297 . S
O578 C580 1.247 . S
O579 Cd575 2.439 . S
O579 C580 1.208 . S
C580 O578 1.247 . S
C580 O579 1.208 . S
C581 O586 1.247 . S
C581 O587 1.208 . S
C582 O574 1.315 . S
C582 O577 1.279 . S
C583 O584 1.315 . S
C583 O585 1.279 . S
O584 Cd576 2.223 . S
O584 C583 1.315 . S
O585 Cd575 2.240 . S
O585 C583 1.279 . S
O586 Cd576 2.297 . S
O586 C581 1.247 . S
O587 Cd576 2.439 . S
O587 C581 1.208 . S
O588 Cd589 2.223 . S
O588 C596 1.315 . S
Cd589 O588 2.223 . S
Cd589 O592 2.297 . S
Cd589 O593 2.439 . S
Cd589 O599 2.240 . S
Cd590 O591 2.240 . S
Cd590 O598 2.223 . S
Cd590 O600 2.297 . S
Cd590 O601 2.439 . S
O591 Cd590 2.240 . S
O591 C596 1.279 . S
O592 Cd589 2.297 . S
O592 C594 1.247 . S
O593 Cd589 2.439 . S
O593 C594 1.208 . S
C594 O592 1.247 . S
C594 O593 1.208 . S
C595 O600 1.247 . S
C595 O601 1.208 . S
C596 O588 1.315 . S
C596 O591 1.279 . S
C597 O598 1.315 . S
C597 O599 1.279 . S
O598 Cd590 2.223 . S
O598 C597 1.315 . S
O599 Cd589 2.240 . S
O599 C597 1.279 . S
O600 Cd590 2.297 . S
O600 C595 1.247 . S
O601 Cd590 2.439 . S
O601 C595 1.208 . S
O602 Cd603 2.223 . S
O602 C610 1.315 . S
Cd603 O602 2.223 . S
Cd603 O606 2.297 . S
Cd603 O607 2.439 . S
Cd603 O613 2.240 . S
Cd604 O605 2.240 . S
Cd604 O612 2.223 . S
Cd604 O614 2.297 . S
Cd604 O615 2.439 . S
O605 Cd604 2.240 . S
O605 C610 1.279 . S
O606 Cd603 2.297 . S
O606 C608 1.247 . S
O607 Cd603 2.439 . S
O607 C608 1.208 . S
C608 O606 1.247 . S
C608 O607 1.208 . S
C609 O614 1.247 . S
C609 O615 1.208 . S
C610 O602 1.315 . S
C610 O605 1.279 . S
C611 O612 1.315 . S
C611 O613 1.279 . S
O612 Cd604 2.223 . S
O612 C611 1.315 . S
O613 Cd603 2.240 . S
O613 C611 1.279 . S
O614 Cd604 2.297 . S
O614 C609 1.247 . S
O615 Cd604 2.439 . S
O615 C609 1.208 . S
O616 Cd617 2.223 . S
O616 C624 1.315 . S
Cd617 O616 2.223 . S
Cd617 O620 2.297 . S
Cd617 O621 2.439 . S
Cd617 O627 2.240 . S
Cd618 O619 2.240 . S
Cd618 O626 2.223 . S
Cd618 O628 2.297 . S
Cd618 O629 2.439 . S
O619 Cd618 2.240 . S
O619 C624 1.279 . S
O620 Cd617 2.297 . S
O620 C622 1.247 . S
O621 Cd617 2.439 . S
O621 C622 1.208 . S
C622 O620 1.247 . S
C622 O621 1.208 . S
C623 O628 1.247 . S
C623 O629 1.208 . S
C624 O616 1.315 . S
C624 O619 1.279 . S
C625 O626 1.315 . S
C625 O627 1.279 . S
O626 Cd618 2.223 . S
O626 C625 1.315 . S
O627 Cd617 2.240 . S
O627 C625 1.279 . S
O628 Cd618 2.297 . S
O628 C623 1.247 . S
O629 Cd618 2.439 . S
O629 C623 1.208 . S
O630 Cd631 2.223 . S
O630 C638 1.315 . S
Cd631 O630 2.223 . S
Cd631 O634 2.297 . S
Cd631 O635 2.439 . S
Cd631 O641 2.240 . S
Cd632 O633 2.240 . S
Cd632 O640 2.223 . S
Cd632 O642 2.297 . S
Cd632 O643 2.439 . S
O633 Cd632 2.240 . S
O633 C638 1.279 . S
O634 Cd631 2.297 . S
O634 C636 1.247 . S
O635 Cd631 2.439 . S
O635 C636 1.208 . S
C636 O634 1.247 . S
C636 O635 1.208 . S
C637 O642 1.247 . S
C637 O643 1.208 . S
C638 O630 1.315 . S
C638 O633 1.279 . S
C639 O640 1.315 . S
C639 O641 1.279 . S
O640 Cd632 2.223 . S
O640 C639 1.315 . S
O641 Cd631 2.240 . S
O641 C639 1.279 . S
O642 Cd632 2.297 . S
O642 C637 1.247 . S
O643 Cd632 2.439 . S
O643 C637 1.208 . S
O644 Cd645 2.223 . S
O644 C652 1.315 . S
Cd645 O644 2.223 . S
Cd645 O648 2.297 . S
Cd645 O649 2.439 . S
Cd645 O655 2.240 . S
Cd646 O647 2.240 . S
Cd646 O654 2.223 . S
Cd646 O656 2.297 . S
Cd646 O657 2.439 . S
O647 Cd646 2.240 . S
O647 C652 1.279 . S
O648 Cd645 2.297 . S
O648 C650 1.247 . S
O649 Cd645 2.439 . S
O649 C650 1.208 . S
C650 O648 1.247 . S
C650 O649 1.208 . S
C651 O656 1.247 . S
C651 O657 1.208 . S
C652 O644 1.315 . S
C652 O647 1.279 . S
C653 O654 1.315 . S
C653 O655 1.279 . S
O654 Cd646 2.223 . S
O654 C653 1.315 . S
O655 Cd645 2.240 . S
O655 C653 1.279 . S
O656 Cd646 2.297 . S
O656 C651 1.247 . S
O657 Cd646 2.439 . S
O657 C651 1.208 . S
O658 Cd659 2.223 . S
O658 C666 1.315 . S
Cd659 O658 2.223 . S
Cd659 O662 2.297 . S
Cd659 O663 2.439 . S
Cd659 O669 2.240 . S
Cd660 O661 2.240 . S
Cd660 O668 2.223 . S
Cd660 O670 2.297 . S
Cd660 O671 2.439 . S
O661 Cd660 2.240 . S
O661 C666 1.279 . S
O662 Cd659 2.297 . S
O662 C664 1.247 . S
O663 Cd659 2.439 . S
O663 C664 1.208 . S
C664 O662 1.247 . S
C664 O663 1.208 . S
C665 O670 1.247 . S
C665 O671 1.208 . S
C666 O658 1.315 . S
C666 O661 1.279 . S
C667 O668 1.315 . S
C667 O669 1.279 . S
O668 Cd660 2.223 . S
O668 C667 1.315 . S
O669 Cd659 2.240 . S
O669 C667 1.279 . S
O670 Cd660 2.297 . S
O670 C665 1.247 . S
O671 Cd660 2.439 . S
O671 C665 1.208 . S
C672 C673 1.387 . S
C672 H676 0.950 . S
C672 C681 1.390 . S
C673 C672 1.387 . S
C673 C675 1.387 . S
H674 C681 0.950 . S
C675 C673 1.387 . S
C675 C677 1.390 . S
C675 H679 0.950 . S
H676 C672 0.950 . S
C677 C675 1.390 . S
C677 C678 1.387 . S
C677 H680 0.950 . S
C678 C677 1.387 . S
C678 C681 1.387 . S
H679 C675 0.950 . S
H680 C677 0.950 . S
C681 C672 1.390 . S
C681 H674 0.950 . S
C681 C678 1.387 . S
C682 C683 1.387 . S
C682 H686 0.950 . S
C682 C691 1.390 1_455 S
C683 C682 1.387 . S
C683 C685 1.387 . S
H684 C691 0.950 . S
C685 C683 1.387 . S
C685 C687 1.390 1_455 S
C685 H689 0.950 . S
H686 C682 0.950 . S
C687 C685 1.390 1_655 S
C687 C688 1.387 . S
C687 H690 0.950 . S
C688 C687 1.387 . S
C688 C691 1.387 . S
H689 C685 0.950 . S
H690 C687 0.950 . S
C691 C682 1.390 1_655 S
C691 H684 0.950 . S
C691 C688 1.387 . S
C692 C693 1.387 . S
C692 H696 0.950 . S
C692 C701 1.390 . S
C693 C692 1.387 . S
C693 C695 1.387 . S
H694 C701 0.950 . S
C695 C693 1.387 . S
C695 C697 1.390 . S
C695 H699 0.950 . S
H696 C692 0.950 . S
C697 C695 1.390 . S
C697 C698 1.387 . S
C697 H700 0.950 . S
C698 C697 1.387 . S
C698 C701 1.387 . S
H699 C695 0.950 . S
H700 C697 0.950 . S
C701 C692 1.390 . S
C701 H694 0.950 . S
C701 C698 1.387 . S
C702 C703 1.387 . S
C702 H706 0.950 . S
C702 C711 1.390 . S
C703 C702 1.387 . S
C703 C705 1.387 . S
H704 C711 0.950 . S
C705 C703 1.387 . S
C705 C707 1.390 . S
C705 H709 0.950 . S
H706 C702 0.950 . S
C707 C705 1.390 . S
C707 C708 1.387 . S
C707 H710 0.950 . S
C708 C707 1.387 . S
C708 C711 1.387 . S
H709 C705 0.950 . S
H710 C707 0.950 . S
C711 C702 1.390 . S
C711 H704 0.950 . S
C711 C708 1.387 . S
C712 C713 1.387 . S
C712 H716 0.950 . S
C712 C721 1.390 . S
C713 C712 1.387 . S
C713 C715 1.387 . S
H714 C721 0.950 . S
C715 C713 1.387 . S
C715 C717 1.390 . S
C715 H719 0.950 . S
H716 C712 0.950 . S
C717 C715 1.390 . S
C717 C718 1.387 . S
C717 H720 0.950 . S
C718 C717 1.387 . S
C718 C721 1.387 . S
H719 C715 0.950 . S
H720 C717 0.950 . S
C721 C712 1.390 . S
C721 H714 0.950 . S
C721 C718 1.387 . S
C722 C723 1.387 . S
C722 H726 0.950 . S
C722 C731 1.390 . S
C723 C722 1.387 . S
C723 C725 1.387 . S
H724 C731 0.950 . S
C725 C723 1.387 . S
C725 C727 1.390 . S
C725 H729 0.950 . S
H726 C722 0.950 . S
C727 C725 1.390 . S
C727 C728 1.387 . S
C727 H730 0.950 . S
C728 C727 1.387 . S
C728 C731 1.387 . S
H729 C725 0.950 . S
H730 C727 0.950 . S
C731 C722 1.390 . S
C731 H724 0.950 . S
C731 C728 1.387 . S
C732 C733 1.387 . S
C732 H736 0.950 . S
C732 C741 1.390 . S
C733 C732 1.387 . S
C733 C735 1.387 . S
H734 C741 0.950 . S
C735 C733 1.387 . S
C735 C737 1.390 . S
C735 H739 0.950 . S
H736 C732 0.950 . S
C737 C735 1.390 . S
C737 C738 1.387 . S
C737 H740 0.950 . S
C738 C737 1.387 . S
C738 C741 1.387 . S
H739 C735 0.950 . S
H740 C737 0.950 . S
C741 C732 1.390 . S
C741 H734 0.950 . S
C741 C738 1.387 . S
C742 C743 1.387 1_655 S
C742 H746 0.950 1_655 S
C742 C751 1.390 . S
C743 C742 1.387 1_455 S
C743 C745 1.387 1_455 S
H744 C751 0.950 . S
C745 C743 1.387 1_655 S
C745 C747 1.390 . S
C745 H749 0.950 1_655 S
H746 C742 0.950 1_455 S
C747 C745 1.390 . S
C747 C748 1.387 . S
C747 H750 0.950 . S
C748 C747 1.387 . S
C748 C751 1.387 . S
H749 C745 0.950 1_455 S
H750 C747 0.950 . S
C751 C742 1.390 . S
C751 H744 0.950 . S
C751 C748 1.387 . S
C752 C753 1.387 . S
C752 H756 0.950 . S
C752 C761 1.390 . S
C753 C752 1.387 . S
C753 C755 1.387 . S
H754 C761 0.950 . S
C755 C753 1.387 . S
C755 C757 1.390 . S
C755 H759 0.950 . S
H756 C752 0.950 . S
C757 C755 1.390 . S
C757 C758 1.387 . S
C757 H760 0.950 . S
C758 C757 1.387 . S
C758 C761 1.387 . S
H759 C755 0.950 . S
H760 C757 0.950 . S
C761 C752 1.390 . S
C761 H754 0.950 . S
C761 C758 1.387 . S
C762 C763 1.387 . S
C762 H766 0.950 . S
C762 C771 1.390 . S
C763 C762 1.387 . S
C763 C765 1.387 . S
H764 C771 0.950 . S
C765 C763 1.387 . S
C765 C767 1.390 . S
C765 H769 0.950 . S
H766 C762 0.950 . S
C767 C765 1.390 . S
C767 C768 1.387 . S
C767 H770 0.950 . S
C768 C767 1.387 . S
C768 C771 1.387 . S
H769 C765 0.950 . S
H770 C767 0.950 . S
C771 C762 1.390 . S
C771 H764 0.950 . S
C771 C768 1.387 . S
C772 C773 1.387 . S
C772 H776 0.950 . S
C772 C781 1.390 . S
C773 C772 1.387 . S
C773 C775 1.387 . S
H774 C781 0.950 . S
C775 C773 1.387 . S
C775 C777 1.390 . S
C775 H779 0.950 . S
H776 C772 0.950 . S
C777 C775 1.390 . S
C777 C778 1.387 . S
C777 H780 0.950 . S
C778 C777 1.387 . S
C778 C781 1.387 . S
H779 C775 0.950 . S
H780 C777 0.950 . S
C781 C772 1.390 . S
C781 H774 0.950 . S
C781 C778 1.387 . S
C782 C783 1.387 . S
C782 H786 0.950 . S
C782 C791 1.390 1_556 S
C783 C782 1.387 . S
C783 C785 1.387 . S
H784 C791 0.950 . S
C785 C783 1.387 . S
C785 C787 1.390 1_556 S
C785 H789 0.950 . S
H786 C782 0.950 . S
C787 C785 1.390 1_554 S
C787 C788 1.387 . S
C787 H790 0.950 . S
C788 C787 1.387 . S
C788 C791 1.387 . S
H789 C785 0.950 . S
H790 C787 0.950 . S
C791 C782 1.390 1_554 S
C791 H784 0.950 . S
C791 C788 1.387 . S
C792 C793 1.387 . S
C792 H796 0.950 . S
C792 C801 1.390 . S
C793 C792 1.387 . S
C793 C795 1.387 . S
H794 C801 0.950 . S
C795 C793 1.387 . S
C795 C797 1.390 . S
C795 H799 0.950 . S
H796 C792 0.950 . S
C797 C795 1.390 . S
C797 C798 1.387 . S
C797 H800 0.950 . S
C798 C797 1.387 . S
C798 C801 1.387 . S
H799 C795 0.950 . S
H800 C797 0.950 . S
C801 C792 1.390 . S
C801 H794 0.950 . S
C801 C798 1.387 . S
C802 C803 1.387 . S
C802 H806 0.950 . S
C802 C811 1.390 . S
C803 C802 1.387 . S
C803 C805 1.387 . S
H804 C811 0.950 . S
C805 C803 1.387 . S
C805 C807 1.390 . S
C805 H809 0.950 . S
H806 C802 0.950 . S
C807 C805 1.390 . S
C807 C808 1.387 . S
C807 H810 0.950 . S
C808 C807 1.387 . S
C808 C811 1.387 . S
H809 C805 0.950 . S
H810 C807 0.950 . S
C811 C802 1.390 . S
C811 H804 0.950 . S
C811 C808 1.387 . S
C812 C813 1.387 . S
C812 H816 0.950 . S
C812 C821 1.390 . S
C813 C812 1.387 . S
C813 C815 1.387 . S
H814 C821 0.950 . S
C815 C813 1.387 . S
C815 C817 1.390 . S
C815 H819 0.950 . S
H816 C812 0.950 . S
C817 C815 1.390 . S
C817 C818 1.387 . S
C817 H820 0.950 . S
C818 C817 1.387 . S
C818 C821 1.387 . S
H819 C815 0.950 . S
H820 C817 0.950 . S
C821 C812 1.390 . S
C821 H814 0.950 . S
C821 C818 1.387 . S
C822 C823 1.387 . S
C822 H826 0.950 . S
C822 C831 1.390 1_554 S
C823 C822 1.387 . S
C823 C825 1.387 . S
H824 C831 0.950 . S
C825 C823 1.387 . S
C825 C827 1.390 1_554 S
C825 H829 0.950 . S
H826 C822 0.950 . S
C827 C825 1.390 1_556 S
C827 C828 1.387 . S
C827 H830 0.950 . S
C828 C827 1.387 . S
C828 C831 1.387 . S
H829 C825 0.950 . S
H830 C827 0.950 . S
C831 C822 1.390 1_556 S
C831 H824 0.950 . S
C831 C828 1.387 . S
C832 C833 1.387 . S
C832 H836 0.950 . S
C832 C841 1.390 . S
C833 C832 1.387 . S
C833 C835 1.387 . S
H834 C841 0.950 . S
C835 C833 1.387 . S
C835 C837 1.390 . S
C835 H839 0.950 . S
H836 C832 0.950 . S
C837 C835 1.390 . S
C837 C838 1.387 . S
C837 H840 0.950 . S
C838 C837 1.387 . S
C838 C841 1.387 . S
H839 C835 0.950 . S
H840 C837 0.950 . S
C841 C832 1.390 . S
C841 H834 0.950 . S
C841 C838 1.387 . S
C842 C843 1.387 . S
C842 H846 0.950 . S
C842 C851 1.390 . S
C843 C842 1.387 . S
C843 C845 1.387 . S
H844 C851 0.950 . S
C845 C843 1.387 . S
C845 C847 1.390 . S
C845 H849 0.950 . S
H846 C842 0.950 . S
C847 C845 1.390 . S
C847 C848 1.387 . S
C847 H850 0.950 . S
C848 C847 1.387 . S
C848 C851 1.387 . S
H849 C845 0.950 . S
H850 C847 0.950 . S
C851 C842 1.390 . S
C851 H844 0.950 . S
C851 C848 1.387 . S
C852 C853 1.387 . S
C852 H856 0.950 . S
C852 C861 1.390 . S
C853 C852 1.387 . S
C853 C855 1.387 . S
H854 C861 0.950 . S
C855 C853 1.387 . S
C855 C857 1.390 . S
C855 H859 0.950 . S
H856 C852 0.950 . S
C857 C855 1.390 . S
C857 C858 1.387 . S
C857 H860 0.950 . S
C858 C857 1.387 . S
C858 C861 1.387 . S
H859 C855 0.950 . S
H860 C857 0.950 . S
C861 C852 1.390 . S
C861 H854 0.950 . S
C861 C858 1.387 . S
C862 C863 1.387 . S
C862 H866 0.950 . S
C862 C871 1.390 . S
C863 C862 1.387 . S
C863 C865 1.387 . S
H864 C871 0.950 . S
C865 C863 1.387 . S
C865 C867 1.390 . S
C865 H869 0.950 . S
H866 C862 0.950 . S
C867 C865 1.390 . S
C867 C868 1.387 . S
C867 H870 0.950 . S
C868 C867 1.387 . S
C868 C871 1.387 . S
H869 C865 0.950 . S
H870 C867 0.950 . S
C871 C862 1.390 . S
C871 H864 0.950 . S
C871 C868 1.387 . S
C872 C873 1.387 . S
C872 H876 0.950 . S
C872 C881 1.390 . S
C873 C872 1.387 . S
C873 C875 1.387 . S
H874 C881 0.950 . S
C875 C873 1.387 . S
C875 C877 1.390 . S
C875 H879 0.950 . S
H876 C872 0.950 . S
C877 C875 1.390 . S
C877 C878 1.387 . S
C877 H880 0.950 . S
C878 C877 1.387 . S
C878 C881 1.387 . S
H879 C875 0.950 . S
H880 C877 0.950 . S
C881 C872 1.390 . S
C881 H874 0.950 . S
C881 C878 1.387 . S
C882 C883 1.387 . S
C882 H886 0.950 . S
C882 C891 1.390 . S
C883 C882 1.387 . S
C883 C885 1.387 . S
H884 C891 0.950 . S
C885 C883 1.387 . S
C885 C887 1.390 . S
C885 H889 0.950 . S
H886 C882 0.950 . S
C887 C885 1.390 . S
C887 C888 1.387 . S
C887 H890 0.950 . S
C888 C887 1.387 . S
C888 C891 1.387 . S
H889 C885 0.950 . S
H890 C887 0.950 . S
C891 C882 1.390 . S
C891 H884 0.950 . S
C891 C888 1.387 . S
C892 C893 1.387 . S
C892 H896 0.950 . S
C892 C901 1.390 . S
C893 C892 1.387 . S
C893 C895 1.387 . S
H894 C901 0.950 . S
C895 C893 1.387 . S
C895 C897 1.390 . S
C895 H899 0.950 . S
H896 C892 0.950 . S
C897 C895 1.390 . S
C897 C898 1.387 . S
C897 H900 0.950 . S
C898 C897 1.387 . S
C898 C901 1.387 . S
H899 C895 0.950 . S
H900 C897 0.950 . S
C901 C892 1.390 . S
C901 H894 0.950 . S
C901 C898 1.387 . S
C902 C903 1.387 . S
C902 H906 0.950 . S
C902 C911 1.390 . S
C903 C902 1.387 . S
C903 C905 1.387 . S
H904 C911 0.950 . S
C905 C903 1.387 . S
C905 C907 1.390 . S
C905 H909 0.950 . S
H906 C902 0.950 . S
C907 C905 1.390 . S
C907 C908 1.387 . S
C907 H910 0.950 . S
C908 C907 1.387 . S
C908 C911 1.387 . S
H909 C905 0.950 . S
H910 C907 0.950 . S
C911 C902 1.390 . S
C911 H904 0.950 . S
C911 C908 1.387 . S
C912 C913 1.387 . S
C912 H916 0.950 . S
C912 C921 1.390 . S
C913 C912 1.387 . S
C913 C915 1.387 . S
H914 C921 0.950 . S
C915 C913 1.387 . S
C915 C917 1.390 . S
C915 H919 0.950 . S
H916 C912 0.950 . S
C917 C915 1.390 . S
C917 C918 1.387 . S
C917 H920 0.950 . S
C918 C917 1.387 . S
C918 C921 1.387 . S
H919 C915 0.950 . S
H920 C917 0.950 . S
C921 C912 1.390 . S
C921 H914 0.950 . S
C921 C918 1.387 . S
C922 C923 1.387 . S
C922 H926 0.950 . S
C922 C931 1.390 1_655 S
C923 C922 1.387 . S
C923 C925 1.387 . S
H924 C931 0.950 . S
C925 C923 1.387 . S
C925 C927 1.390 1_655 S
C925 H929 0.950 . S
H926 C922 0.950 . S
C927 C925 1.390 1_455 S
C927 C928 1.387 . S
C927 H930 0.950 . S
C928 C927 1.387 . S
C928 C931 1.387 . S
H929 C925 0.950 . S
H930 C927 0.950 . S
C931 C922 1.390 1_455 S
C931 H924 0.950 . S
C931 C928 1.387 . S
C932 C933 1.387 . S
C932 H936 0.950 . S
C932 C941 1.390 . S
C933 C932 1.387 . S
C933 C935 1.387 . S
H934 C941 0.950 . S
C935 C933 1.387 . S
C935 C937 1.390 . S
C935 H939 0.950 . S
H936 C932 0.950 . S
C937 C935 1.390 . S
C937 C938 1.387 . S
C937 H940 0.950 . S
C938 C937 1.387 . S
C938 C941 1.387 . S
H939 C935 0.950 . S
H940 C937 0.950 . S
C941 C932 1.390 . S
C941 H934 0.950 . S
C941 C938 1.387 . S
C942 C943 1.387 . S
C942 H946 0.950 . S
C942 C951 1.390 . S
C943 C942 1.387 . S
C943 C945 1.387 . S
H944 C951 0.950 . S
C945 C943 1.387 . S
C945 C947 1.390 . S
C945 H949 0.950 . S
H946 C942 0.950 . S
C947 C945 1.390 . S
C947 C948 1.387 . S
C947 H950 0.950 . S
C948 C947 1.387 . S
C948 C951 1.387 . S
H949 C945 0.950 . S
H950 C947 0.950 . S
C951 C942 1.390 . S
C951 H944 0.950 . S
C951 C948 1.387 . S
C952 C953 1.387 . S
C952 H956 0.950 . S
C952 C961 1.390 . S
C953 C952 1.387 . S
C953 C955 1.387 . S
H954 C961 0.950 . S
C955 C953 1.387 . S
C955 C957 1.390 . S
C955 H959 0.950 . S
H956 C952 0.950 . S
C957 C955 1.390 . S
C957 C958 1.387 . S
C957 H960 0.950 . S
C958 C957 1.387 . S
C958 C961 1.387 . S
H959 C955 0.950 . S
H960 C957 0.950 . S
C961 C952 1.390 . S
C961 H954 0.950 . S
C961 C958 1.387 . S
C962 C963 1.387 . S
C962 H966 0.950 . S
C962 C971 1.390 . S
C963 C962 1.387 . S
C963 C965 1.387 . S
H964 C971 0.950 . S
C965 C963 1.387 . S
C965 C967 1.390 . S
C965 H969 0.950 . S
H966 C962 0.950 . S
C967 C965 1.390 . S
C967 C968 1.387 . S
C967 H970 0.950 . S
C968 C967 1.387 . S
C968 C971 1.387 . S
H969 C965 0.950 . S
H970 C967 0.950 . S
C971 C962 1.390 . S
C971 H964 0.950 . S
C971 C968 1.387 . S
C972 C973 1.387 . S
C972 H976 0.950 . S
C972 C981 1.390 . S
C973 C972 1.387 . S
C973 C975 1.387 . S
H974 C981 0.950 . S
C975 C973 1.387 . S
C975 C977 1.390 . S
C975 H979 0.950 . S
H976 C972 0.950 . S
C977 C975 1.390 . S
C977 C978 1.387 . S
C977 H980 0.950 . S
C978 C977 1.387 . S
C978 C981 1.387 . S
H979 C975 0.950 . S
H980 C977 0.950 . S
C981 C972 1.390 . S
C981 H974 0.950 . S
C981 C978 1.387 . S
C982 C983 1.387 . S
C982 H986 0.950 . S
C982 C991 1.390 . S
C983 C982 1.387 . S
C983 C985 1.387 . S
H984 C991 0.950 1_655 S
C985 C983 1.387 . S
C985 C987 1.390 . S
C985 H989 0.950 . S
H986 C982 0.950 . S
C987 C985 1.390 . S
C987 C988 1.387 1_455 S
C987 H990 0.950 . S
C988 C987 1.387 1_655 S
C988 C991 1.387 1_655 S
H989 C985 0.950 . S
H990 C987 0.950 . S
C991 C982 1.390 . S
C991 H984 0.950 1_455 S
C991 C988 1.387 1_455 S
C992 C993 1.387 . S
C992 H996 0.950 . S
C992 C1001 1.390 . S
C993 C992 1.387 . S
C993 C995 1.387 . S
H994 C1001 0.950 . S
C995 C993 1.387 . S
C995 C997 1.390 . S
C995 H999 0.950 . S
H996 C992 0.950 . S
C997 C995 1.390 . S
C997 C998 1.387 . S
C997 H1000 0.950 . S
C998 C997 1.387 . S
C998 C1001 1.387 . S
H999 C995 0.950 . S
H1000 C997 0.950 . S
C1001 C992 1.390 . S
C1001 H994 0.950 . S
C1001 C998 1.387 . S
C1002 C1003 1.387 . S
C1002 H1006 0.950 . S
C1002 C1011 1.390 . S
C1003 C1002 1.387 . S
C1003 C1005 1.387 . S
H1004 C1011 0.950 . S
C1005 C1003 1.387 . S
C1005 C1007 1.390 . S
C1005 H1009 0.950 . S
H1006 C1002 0.950 . S
C1007 C1005 1.390 . S
C1007 C1008 1.387 . S
C1007 H1010 0.950 . S
C1008 C1007 1.387 . S
C1008 C1011 1.387 . S
H1009 C1005 0.950 . S
H1010 C1007 0.950 . S
C1011 C1002 1.390 . S
C1011 H1004 0.950 . S
C1011 C1008 1.387 . S
C1012 C1013 1.387 . S
C1012 H1016 0.950 . S
C1012 C1021 1.390 . S
C1013 C1012 1.387 . S
C1013 C1015 1.387 . S
H1014 C1021 0.950 . S
C1015 C1013 1.387 . S
C1015 C1017 1.390 . S
C1015 H1019 0.950 . S
H1016 C1012 0.950 . S
C1017 C1015 1.390 . S
C1017 C1018 1.387 . S
C1017 H1020 0.950 . S
C1018 C1017 1.387 . S
C1018 C1021 1.387 . S
H1019 C1015 0.950 . S
H1020 C1017 0.950 . S
C1021 C1012 1.390 . S
C1021 H1014 0.950 . S
C1021 C1018 1.387 . S
C1022 C1023 1.387 . S
C1022 H1026 0.950 . S
C1022 C1031 1.390 1_556 S
C1023 C1022 1.387 . S
C1023 C1025 1.387 . S
H1024 C1031 0.950 . S
C1025 C1023 1.387 . S
C1025 C1027 1.390 1_556 S
C1025 H1029 0.950 . S
H1026 C1022 0.950 . S
C1027 C1025 1.390 1_554 S
C1027 C1028 1.387 . S
C1027 H1030 0.950 . S
C1028 C1027 1.387 . S
C1028 C1031 1.387 . S
H1029 C1025 0.950 . S
H1030 C1027 0.950 . S
C1031 C1022 1.390 1_554 S
C1031 H1024 0.950 . S
C1031 C1028 1.387 . S
C1032 C1033 1.387 . S
C1032 H1036 0.950 . S
C1032 C1041 1.390 . S
C1033 C1032 1.387 . S
C1033 C1035 1.387 . S
H1034 C1041 0.950 . S
C1035 C1033 1.387 . S
C1035 C1037 1.390 . S
C1035 H1039 0.950 . S
H1036 C1032 0.950 . S
C1037 C1035 1.390 . S
C1037 C1038 1.387 . S
C1037 H1040 0.950 . S
C1038 C1037 1.387 . S
C1038 C1041 1.387 . S
H1039 C1035 0.950 . S
H1040 C1037 0.950 . S
C1041 C1032 1.390 . S
C1041 H1034 0.950 . S
C1041 C1038 1.387 . S
C1042 C1043 1.387 . S
C1042 H1046 0.950 . S
C1042 C1051 1.390 . S
C1043 C1042 1.387 . S
C1043 C1045 1.387 . S
H1044 C1051 0.950 . S
C1045 C1043 1.387 . S
C1045 C1047 1.390 . S
C1045 H1049 0.950 . S
H1046 C1042 0.950 . S
C1047 C1045 1.390 . S
C1047 C1048 1.387 . S
C1047 H1050 0.950 . S
C1048 C1047 1.387 . S
C1048 C1051 1.387 . S
H1049 C1045 0.950 . S
H1050 C1047 0.950 . S
C1051 C1042 1.390 . S
C1051 H1044 0.950 . S
C1051 C1048 1.387 . S
C1052 C1053 1.387 . S
C1052 H1056 0.950 . S
C1052 C1061 1.390 . S
C1053 C1052 1.387 . S
C1053 C1055 1.387 . S
H1054 C1061 0.950 . S
C1055 C1053 1.387 . S
C1055 C1057 1.390 . S
C1055 H1059 0.950 . S
H1056 C1052 0.950 . S
C1057 C1055 1.390 . S
C1057 C1058 1.387 . S
C1057 H1060 0.950 . S
C1058 C1057 1.387 . S
C1058 C1061 1.387 . S
H1059 C1055 0.950 . S
H1060 C1057 0.950 . S
C1061 C1052 1.390 . S
C1061 H1054 0.950 . S
C1061 C1058 1.387 . S
C1062 C1063 1.387 . S
C1062 H1066 0.950 . S
C1062 C1071 1.390 1_556 S
C1063 C1062 1.387 . S
C1063 C1065 1.387 . S
H1064 C1071 0.950 . S
C1065 C1063 1.387 . S
C1065 C1067 1.390 1_556 S
C1065 H1069 0.950 . S
H1066 C1062 0.950 . S
C1067 C1065 1.390 1_554 S
C1067 C1068 1.387 . S
C1067 H1070 0.950 . S
C1068 C1067 1.387 . S
C1068 C1071 1.387 . S
H1069 C1065 0.950 . S
H1070 C1067 0.950 . S
C1071 C1062 1.390 1_554 S
C1071 H1064 0.950 . S
C1071 C1068 1.387 . S
C1072 C1073 1.387 . S
C1072 H1076 0.950 . S
C1072 C1081 1.390 . S
C1073 C1072 1.387 . S
C1073 C1075 1.387 . S
H1074 C1081 0.950 . S
C1075 C1073 1.387 . S
C1075 C1077 1.390 . S
C1075 H1079 0.950 . S
H1076 C1072 0.950 . S
C1077 C1075 1.390 . S
C1077 C1078 1.387 . S
C1077 H1080 0.950 . S
C1078 C1077 1.387 . S
C1078 C1081 1.387 . S
H1079 C1075 0.950 . S
H1080 C1077 0.950 . S
C1081 C1072 1.390 . S
C1081 H1074 0.950 . S
C1081 C1078 1.387 . S
C1082 C1083 1.387 . S
C1082 H1086 0.950 . S
C1082 C1091 1.390 . S
C1083 C1082 1.387 . S
C1083 C1085 1.387 . S
H1084 C1091 0.950 . S
C1085 C1083 1.387 . S
C1085 C1087 1.390 . S
C1085 H1089 0.950 . S
H1086 C1082 0.950 . S
C1087 C1085 1.390 . S
C1087 C1088 1.387 . S
C1087 H1090 0.950 . S
C1088 C1087 1.387 . S
C1088 C1091 1.387 . S
H1089 C1085 0.950 . S
H1090 C1087 0.950 . S
C1091 C1082 1.390 . S
C1091 H1084 0.950 . S
C1091 C1088 1.387 . S
C1092 C1093 1.387 . S
C1092 H1096 0.950 . S
C1092 C1101 1.390 . S
C1093 C1092 1.387 . S
C1093 C1095 1.387 . S
H1094 C1101 0.950 . S
C1095 C1093 1.387 . S
C1095 C1097 1.390 . S
C1095 H1099 0.950 . S
H1096 C1092 0.950 . S
C1097 C1095 1.390 . S
C1097 C1098 1.387 . S
C1097 H1100 0.950 . S
C1098 C1097 1.387 . S
C1098 C1101 1.387 . S
H1099 C1095 0.950 . S
H1100 C1097 0.950 . S
C1101 C1092 1.390 . S
C1101 H1094 0.950 . S
C1101 C1098 1.387 . S
C1102 C1103 1.387 . S
C1102 H1106 0.950 . S
C1102 C1111 1.390 . S
C1103 C1102 1.387 . S
C1103 C1105 1.387 . S
H1104 C1111 0.950 . S
C1105 C1103 1.387 . S
C1105 C1107 1.390 . S
C1105 H1109 0.950 . S
H1106 C1102 0.950 . S
C1107 C1105 1.390 . S
C1107 C1108 1.387 . S
C1107 H1110 0.950 . S
C1108 C1107 1.387 . S
C1108 C1111 1.387 . S
H1109 C1105 0.950 . S
H1110 C1107 0.950 . S
C1111 C1102 1.390 . S
C1111 H1104 0.950 . S
C1111 C1108 1.387 . S
C1112 C1113 1.387 . S
C1112 H1116 0.950 . S
C1112 C1121 1.390 . S
C1113 C1112 1.387 . S
C1113 C1115 1.387 . S
H1114 C1121 0.950 . S
C1115 C1113 1.387 . S
C1115 C1117 1.390 . S
C1115 H1119 0.950 . S
H1116 C1112 0.950 . S
C1117 C1115 1.390 . S
C1117 C1118 1.387 . S
C1117 H1120 0.950 . S
C1118 C1117 1.387 . S
C1118 C1121 1.387 . S
H1119 C1115 0.950 . S
H1120 C1117 0.950 . S
C1121 C1112 1.390 . S
C1121 H1114 0.950 . S
C1121 C1118 1.387 . S
C1122 C1123 1.387 . S
C1122 H1126 0.950 . S
C1122 C1131 1.390 . S
C1123 C1122 1.387 . S
C1123 C1125 1.387 . S
H1124 C1131 0.950 . S
C1125 C1123 1.387 . S
C1125 C1127 1.390 . S
C1125 H1129 0.950 . S
H1126 C1122 0.950 . S
C1127 C1125 1.390 . S
C1127 C1128 1.387 . S
C1127 H1130 0.950 . S
C1128 C1127 1.387 . S
C1128 C1131 1.387 . S
H1129 C1125 0.950 . S
H1130 C1127 0.950 . S
C1131 C1122 1.390 . S
C1131 H1124 0.950 . S
C1131 C1128 1.387 . S
C1132 C1133 1.387 . S
C1132 H1136 0.950 . S
C1132 C1141 1.390 . S
C1133 C1132 1.387 . S
C1133 C1135 1.387 . S
H1134 C1141 0.950 . S
C1135 C1133 1.387 . S
C1135 C1137 1.390 . S
C1135 H1139 0.950 . S
H1136 C1132 0.950 . S
C1137 C1135 1.390 . S
C1137 C1138 1.387 . S
C1137 H1140 0.950 . S
C1138 C1137 1.387 . S
C1138 C1141 1.387 . S
H1139 C1135 0.950 . S
H1140 C1137 0.950 . S
C1141 C1132 1.390 . S
C1141 H1134 0.950 . S
C1141 C1138 1.387 . S
C1142 C1143 1.387 . S
C1142 H1146 0.950 . S
C1142 C1151 1.390 . S
C1143 C1142 1.387 . S
C1143 C1145 1.387 . S
H1144 C1151 0.950 . S
C1145 C1143 1.387 . S
C1145 C1147 1.390 . S
C1145 H1149 0.950 . S
H1146 C1142 0.950 . S
C1147 C1145 1.390 . S
C1147 C1148 1.387 . S
C1147 H1150 0.950 . S
C1148 C1147 1.387 . S
C1148 C1151 1.387 . S
H1149 C1145 0.950 . S
H1150 C1147 0.950 . S
C1151 C1142 1.390 . S
C1151 H1144 0.950 . S
C1151 C1148 1.387 . S
C1152 C1153 1.387 . S
C1152 H1156 0.950 . S
C1152 C1161 1.390 . S
C1153 C1152 1.387 . S
C1153 C1155 1.387 . S
H1154 C1161 0.950 . S
C1155 C1153 1.387 . S
C1155 C1157 1.390 . S
C1155 H1159 0.950 . S
H1156 C1152 0.950 . S
C1157 C1155 1.390 . S
C1157 C1158 1.387 . S
C1157 H1160 0.950 . S
C1158 C1157 1.387 . S
C1158 C1161 1.387 . S
H1159 C1155 0.950 . S
H1160 C1157 0.950 . S
C1161 C1152 1.390 . S
C1161 H1154 0.950 . S
C1161 C1158 1.387 . S
C1162 C1163 1.387 . S
C1162 H1166 0.950 . S
C1162 C1171 1.390 . S
C1163 C1162 1.387 . S
C1163 C1165 1.387 . S
H1164 C1171 0.950 . S
C1165 C1163 1.387 . S
C1165 C1167 1.390 . S
C1165 H1169 0.950 . S
H1166 C1162 0.950 . S
C1167 C1165 1.390 . S
C1167 C1168 1.387 . S
C1167 H1170 0.950 . S
C1168 C1167 1.387 . S
C1168 C1171 1.387 . S
H1169 C1165 0.950 . S
H1170 C1167 0.950 . S
C1171 C1162 1.390 . S
C1171 H1164 0.950 . S
C1171 C1168 1.387 . S
C1172 C1173 1.387 . S
C1172 H1176 0.950 . S
C1172 C1181 1.390 . S
C1173 C1172 1.387 . S
C1173 C1175 1.387 . S
H1174 C1181 0.950 . S
C1175 C1173 1.387 . S
C1175 C1177 1.390 . S
C1175 H1179 0.950 . S
H1176 C1172 0.950 . S
C1177 C1175 1.390 . S
C1177 C1178 1.387 . S
C1177 H1180 0.950 . S
C1178 C1177 1.387 . S
C1178 C1181 1.387 . S
H1179 C1175 0.950 . S
H1180 C1177 0.950 . S
C1181 C1172 1.390 . S
C1181 H1174 0.950 . S
C1181 C1178 1.387 . S
C1182 C1183 1.387 1_455 S
C1182 H1186 0.955 . S
C1182 C1191 1.390 . S
C1183 C1182 1.387 1_655 S
C1183 C1185 1.387 1_655 S
H1184 C1191 0.950 . S
C1185 C1183 1.387 1_455 S
C1185 C1187 1.390 . S
C1185 H1189 0.950 1_455 S
H1186 C1182 0.955 . S
C1187 C1185 1.390 . S
C1187 C1188 1.387 . S
C1187 H1190 0.950 . S
C1188 C1187 1.387 . S
C1188 C1191 1.387 . S
H1189 C1185 0.950 1_655 S
H1190 C1187 0.950 . S
C1191 C1182 1.390 . S
C1191 H1184 0.950 . S
C1191 C1188 1.387 . S
C1192 C1193 1.387 . S
C1192 H1196 0.950 . S
C1192 C1201 1.390 . S
C1193 C1192 1.387 . S
C1193 C1195 1.387 . S
H1194 C1201 0.950 . S
C1195 C1193 1.387 . S
C1195 C1197 1.390 . S
C1195 H1199 0.950 . S
H1196 C1192 0.950 . S
C1197 C1195 1.390 . S
C1197 C1198 1.387 . S
C1197 H1200 0.950 . S
C1198 C1197 1.387 . S
C1198 C1201 1.387 . S
H1199 C1195 0.950 . S
H1200 C1197 0.950 . S
C1201 C1192 1.390 . S
C1201 H1194 0.950 . S
C1201 C1198 1.387 . S
C1202 C1203 1.387 . S
C1202 H1206 0.950 . S
C1202 C1211 1.390 . S
C1203 C1202 1.387 . S
C1203 C1205 1.387 . S
H1204 C1211 0.950 1_655 S
C1205 C1203 1.387 . S
C1205 C1207 1.390 . S
C1205 H1209 0.950 . S
H1206 C1202 0.950 . S
C1207 C1205 1.390 . S
C1207 C1208 1.387 1_455 S
C1207 H1210 0.950 1_455 S
C1208 C1207 1.387 1_655 S
C1208 C1211 1.387 1_655 S
H1209 C1205 0.950 . S
H1210 C1207 0.950 1_655 S
C1211 C1202 1.390 . S
C1211 H1204 0.950 1_455 S
C1211 C1208 1.387 1_455 S
C1212 C1213 1.387 . S
C1212 H1216 0.950 . S
C1212 C1221 1.390 . S
C1213 C1212 1.387 . S
C1213 C1215 1.387 . S
H1214 C1221 0.950 . S
C1215 C1213 1.387 . S
C1215 C1217 1.390 . S
C1215 H1219 0.950 . S
H1216 C1212 0.950 . S
C1217 C1215 1.390 . S
C1217 C1218 1.387 . S
C1217 H1220 0.950 . S
C1218 C1217 1.387 . S
C1218 C1221 1.387 . S
H1219 C1215 0.950 . S
H1220 C1217 0.950 . S
C1221 C1212 1.390 . S
C1221 H1214 0.950 . S
C1221 C1218 1.387 . S
C1222 C1223 1.387 . S
C1222 H1226 0.950 . S
C1222 C1231 1.390 . S
C1223 C1222 1.387 . S
C1223 C1225 1.387 . S
H1224 C1231 0.950 . S
C1225 C1223 1.387 . S
C1225 C1227 1.390 . S
C1225 H1229 0.950 . S
H1226 C1222 0.950 . S
C1227 C1225 1.390 . S
C1227 C1228 1.387 . S
C1227 H1230 0.950 . S
C1228 C1227 1.387 . S
C1228 C1231 1.387 . S
H1229 C1225 0.950 . S
H1230 C1227 0.950 . S
C1231 C1222 1.390 . S
C1231 H1224 0.950 . S
C1231 C1228 1.387 . S
C1232 C1233 1.387 . S
C1232 H1236 0.950 . S
C1232 C1241 1.390 . S
C1233 C1232 1.387 . S
C1233 C1235 1.387 . S
H1234 C1241 0.950 . S
C1235 C1233 1.387 . S
C1235 C1237 1.390 . S
C1235 H1239 0.950 . S
H1236 C1232 0.950 . S
C1237 C1235 1.390 . S
C1237 C1238 1.387 . S
C1237 H1240 0.950 . S
C1238 C1237 1.387 . S
C1238 C1241 1.387 . S
H1239 C1235 0.950 . S
H1240 C1237 0.950 . S
C1241 C1232 1.390 . S
C1241 H1234 0.950 . S
C1241 C1238 1.387 . S
C1242 C1243 1.387 . S
C1242 H1246 0.950 . S
C1242 C1251 1.390 . S
C1243 C1242 1.387 . S
C1243 C1245 1.387 . S
H1244 C1251 0.950 1_556 S
C1245 C1243 1.387 . S
C1245 C1247 1.390 . S
C1245 H1249 0.950 . S
H1246 C1242 0.950 . S
C1247 C1245 1.390 . S
C1247 C1248 1.387 1_554 S
C1247 H1250 0.950 . S
C1248 C1247 1.387 1_556 S
C1248 C1251 1.387 1_556 S
H1249 C1245 0.950 . S
H1250 C1247 0.950 . S
C1251 C1242 1.390 . S
C1251 H1244 0.950 1_554 S
C1251 C1248 1.387 1_554 S
C1252 C1253 1.387 . S
C1252 H1256 0.950 . S
C1252 C1261 1.390 . S
C1253 C1252 1.387 . S
C1253 C1255 1.387 . S
H1254 C1261 0.950 . S
C1255 C1253 1.387 . S
C1255 C1257 1.390 . S
C1255 H1259 0.950 . S
H1256 C1252 0.950 . S
C1257 C1255 1.390 . S
C1257 C1258 1.387 . S
C1257 H1260 0.950 . S
C1258 C1257 1.387 . S
C1258 C1261 1.387 . S
H1259 C1255 0.950 . S
H1260 C1257 0.950 . S
C1261 C1252 1.390 . S
C1261 H1254 0.950 . S
C1261 C1258 1.387 . S
C1262 C1263 1.387 . S
C1262 H1266 0.950 . S
C1262 C1271 1.390 . S
C1263 C1262 1.387 . S
C1263 C1265 1.387 . S
H1264 C1271 0.950 . S
C1265 C1263 1.387 . S
C1265 C1267 1.390 . S
C1265 H1269 0.950 . S
H1266 C1262 0.950 . S
C1267 C1265 1.390 . S
C1267 C1268 1.387 . S
C1267 H1270 0.950 . S
C1268 C1267 1.387 . S
C1268 C1271 1.387 . S
H1269 C1265 0.950 . S
H1270 C1267 0.950 . S
C1271 C1262 1.390 . S
C1271 H1264 0.950 . S
C1271 C1268 1.387 . S
C1272 C1273 1.387 . S
C1272 H1276 0.950 . S
C1272 C1281 1.390 . S
C1273 C1272 1.387 . S
C1273 C1275 1.387 . S
H1274 C1281 0.950 . S
C1275 C1273 1.387 . S
C1275 C1277 1.390 . S
C1275 H1279 0.950 . S
H1276 C1272 0.950 . S
C1277 C1275 1.390 . S
C1277 C1278 1.387 . S
C1277 H1280 0.950 . S
C1278 C1277 1.387 . S
C1278 C1281 1.387 . S
H1279 C1275 0.950 . S
H1280 C1277 0.950 . S
C1281 C1272 1.390 . S
C1281 H1274 0.950 . S
C1281 C1278 1.387 . S
C1282 C1283 1.387 . S
C1282 H1286 0.950 . S
C1282 C1291 1.390 . S
C1283 C1282 1.387 . S
C1283 C1285 1.387 . S
H1284 C1291 0.950 . S
C1285 C1283 1.387 . S
C1285 C1287 1.390 . S
C1285 H1289 0.950 . S
H1286 C1282 0.950 . S
C1287 C1285 1.390 . S
C1287 C1288 1.387 . S
C1287 H1290 0.950 . S
C1288 C1287 1.387 . S
C1288 C1291 1.387 . S
H1289 C1285 0.950 . S
H1290 C1287 0.950 . S
C1291 C1282 1.390 . S
C1291 H1284 0.950 . S
C1291 C1288 1.387 . S
C1292 C1293 1.387 . S
C1292 H1296 0.950 . S
C1292 C1301 1.390 . S
C1293 C1292 1.387 . S
C1293 C1295 1.387 . S
H1294 C1301 0.950 . S
C1295 C1293 1.387 . S
C1295 C1297 1.390 . S
C1295 H1299 0.950 . S
H1296 C1292 0.950 . S
C1297 C1295 1.390 . S
C1297 C1298 1.387 . S
C1297 H1300 0.950 . S
C1298 C1297 1.387 . S
C1298 C1301 1.387 . S
H1299 C1295 0.950 . S
H1300 C1297 0.950 . S
C1301 C1292 1.390 . S
C1301 H1294 0.950 . S
C1301 C1298 1.387 . S
C1302 C1303 1.387 . S
C1302 H1306 0.950 . S
C1302 C1311 1.390 . S
C1303 C1302 1.387 . S
C1303 C1305 1.387 . S
H1304 C1311 0.950 . S
C1305 C1303 1.387 . S
C1305 C1307 1.390 . S
C1305 H1309 0.950 . S
H1306 C1302 0.950 . S
C1307 C1305 1.390 . S
C1307 C1308 1.387 . S
C1307 H1310 0.950 . S
C1308 C1307 1.387 . S
C1308 C1311 1.387 . S
H1309 C1305 0.950 . S
H1310 C1307 0.950 . S
C1311 C1302 1.390 . S
C1311 H1304 0.950 . S
C1311 C1308 1.387 . S
C1312 C1313 1.387 . S
C1312 H1316 0.950 . S
C1312 C1321 1.390 . S
C1313 C1312 1.387 . S
C1313 C1315 1.387 . S
H1314 C1321 0.950 . S
C1315 C1313 1.387 . S
C1315 C1317 1.390 . S
C1315 H1319 0.950 . S
H1316 C1312 0.950 . S
C1317 C1315 1.390 . S
C1317 C1318 1.387 . S
C1317 H1320 0.950 . S
C1318 C1317 1.387 . S
C1318 C1321 1.387 . S
H1319 C1315 0.950 . S
H1320 C1317 0.950 . S
C1321 C1312 1.390 . S
C1321 H1314 0.950 . S
C1321 C1318 1.387 . S
C1322 C1323 1.387 . S
C1322 H1326 0.950 . S
C1322 C1331 1.390 . S
C1323 C1322 1.387 . S
C1323 C1325 1.387 . S
H1324 C1331 0.950 . S
C1325 C1323 1.387 . S
C1325 C1327 1.390 . S
C1325 H1329 0.950 . S
H1326 C1322 0.950 . S
C1327 C1325 1.390 . S
C1327 C1328 1.387 . S
C1327 H1330 0.950 . S
C1328 C1327 1.387 . S
C1328 C1331 1.387 . S
H1329 C1325 0.950 . S
H1330 C1327 0.950 . S
C1331 C1322 1.390 . S
C1331 H1324 0.950 . S
C1331 C1328 1.387 . S
C1332 C1333 1.387 . S
C1332 H1336 0.950 . S
C1332 C1341 1.390 1_545 S
C1333 C1332 1.387 . S
C1333 C1335 1.387 . S
H1334 C1341 0.950 . S
C1335 C1333 1.387 . S
C1335 C1337 1.390 . S
C1335 H1339 0.950 . S
H1336 C1332 0.950 . S
C1337 C1335 1.390 . S
C1337 C1338 1.387 1_545 S
C1337 H1340 0.956 . S
C1338 C1337 1.387 1_565 S
C1338 C1341 1.387 . S
H1339 C1335 0.950 . S
H1340 C1337 0.956 . S
C1341 C1332 1.390 1_565 S
C1341 H1334 0.950 . S
C1341 C1338 1.387 . S
C1342 C1343 1.387 . S
C1342 H1346 0.950 . S
C1342 C1351 1.390 . S
C1343 C1342 1.387 . S
C1343 C1345 1.387 . S
H1344 C1351 0.950 . S
C1345 C1343 1.387 . S
C1345 C1347 1.390 . S
C1345 H1349 0.950 . S
H1346 C1342 0.950 . S
C1347 C1345 1.390 . S
C1347 C1348 1.387 . S
C1347 H1350 0.950 . S
C1348 C1347 1.387 . S
C1348 C1351 1.387 . S
H1349 C1345 0.950 . S
H1350 C1347 0.950 . S
C1351 C1342 1.390 . S
C1351 H1344 0.950 . S
C1351 C1348 1.387 . S
C1352 C1353 1.387 . S
C1352 H1356 0.950 . S
C1352 C1361 1.390 . S
C1353 C1352 1.387 . S
C1353 C1355 1.387 . S
H1354 C1361 0.950 . S
C1355 C1353 1.387 . S
C1355 C1357 1.390 . S
C1355 H1359 0.950 . S
H1356 C1352 0.950 . S
C1357 C1355 1.390 . S
C1357 C1358 1.387 . S
C1357 H1360 0.950 . S
C1358 C1357 1.387 . S
C1358 C1361 1.387 . S
H1359 C1355 0.950 . S
H1360 C1357 0.950 . S
C1361 C1352 1.390 . S
C1361 H1354 0.950 . S
C1361 C1358 1.387 . S
C1362 C1363 1.387 . S
C1362 H1366 0.950 . S
C1362 C1371 1.390 . S
C1363 C1362 1.387 . S
C1363 C1365 1.387 . S
H1364 C1371 0.950 . S
C1365 C1363 1.387 . S
C1365 C1367 1.390 . S
C1365 H1369 0.950 . S
H1366 C1362 0.950 . S
C1367 C1365 1.390 . S
C1367 C1368 1.387 . S
C1367 H1370 0.950 . S
C1368 C1367 1.387 . S
C1368 C1371 1.387 . S
H1369 C1365 0.950 . S
H1370 C1367 0.950 . S
C1371 C1362 1.390 . S
C1371 H1364 0.950 . S
C1371 C1368 1.387 . S
C1372 C1373 1.387 1_565 S
C1372 H1376 0.962 . S
C1372 C1381 1.390 . S
C1373 C1372 1.387 1_545 S
C1373 C1375 1.387 1_545 S
H1374 C1381 0.950 . S
C1375 C1373 1.387 1_565 S
C1375 C1377 1.390 . S
C1375 H1379 0.950 1_565 S
H1376 C1372 0.962 . S
C1377 C1375 1.390 . S
C1377 C1378 1.387 . S
C1377 H1380 0.950 . S
C1378 C1377 1.387 . S
C1378 C1381 1.387 . S
H1379 C1375 0.950 1_545 S
H1380 C1377 0.950 . S
C1381 C1372 1.390 . S
C1381 H1374 0.950 . S
C1381 C1378 1.387 . S
C1382 C1383 1.387 . S
C1382 H1386 0.950 . S
C1382 C1391 1.390 . S
C1383 C1382 1.387 . S
C1383 C1385 1.387 . S
H1384 C1391 0.950 1_565 S
C1385 C1383 1.387 . S
C1385 C1387 1.390 . S
C1385 H1389 0.950 . S
H1386 C1382 0.950 . S
C1387 C1385 1.390 . S
C1387 C1388 1.387 1_545 S
C1387 H1390 0.950 1_545 S
C1388 C1387 1.387 1_565 S
C1388 C1391 1.387 1_565 S
H1389 C1385 0.950 . S
H1390 C1387 0.950 1_565 S
C1391 C1382 1.390 . S
C1391 H1384 0.950 1_545 S
C1391 C1388 1.387 1_545 S
C1392 C1393 1.387 . S
C1392 H1396 0.950 . S
C1392 C1401 1.390 . S
C1393 C1392 1.387 . S
C1393 C1395 1.387 . S
H1394 C1401 0.950 . S
C1395 C1393 1.387 . S
C1395 C1397 1.390 . S
C1395 H1399 0.950 . S
H1396 C1392 0.950 . S
C1397 C1395 1.390 . S
C1397 C1398 1.387 . S
C1397 H1400 0.950 . S
C1398 C1397 1.387 . S
C1398 C1401 1.387 . S
H1399 C1395 0.950 . S
H1400 C1397 0.950 . S
C1401 C1392 1.390 . S
C1401 H1394 0.950 . S
C1401 C1398 1.387 . S
C1402 C1403 1.387 . S
C1402 H1406 0.950 . S
C1402 C1411 1.390 . S
C1403 C1402 1.387 . S
C1403 C1405 1.387 . S
H1404 C1411 0.950 . S
C1405 C1403 1.387 . S
C1405 C1407 1.390 . S
C1405 H1409 0.950 . S
H1406 C1402 0.950 . S
C1407 C1405 1.390 . S
C1407 C1408 1.387 . S
C1407 H1410 0.950 . S
C1408 C1407 1.387 . S
C1408 C1411 1.387 . S
H1409 C1405 0.950 . S
H1410 C1407 0.950 . S
C1411 C1402 1.390 . S
C1411 H1404 0.950 . S
C1411 C1408 1.387 . S
C1412 C1413 1.387 . S
C1412 H1416 0.950 . S
C1412 C1421 1.390 . S
C1413 C1412 1.387 . S
C1413 C1415 1.387 . S
H1414 C1421 0.950 . S
C1415 C1413 1.387 . S
C1415 C1417 1.390 . S
C1415 H1419 0.950 . S
H1416 C1412 0.950 . S
C1417 C1415 1.390 . S
C1417 C1418 1.387 . S
C1417 H1420 0.950 . S
C1418 C1417 1.387 . S
C1418 C1421 1.387 . S
H1419 C1415 0.950 . S
H1420 C1417 0.950 . S
C1421 C1412 1.390 . S
C1421 H1414 0.950 . S
C1421 C1418 1.387 . S
C1422 C1423 1.375 1_655 S
C1422 H1426 0.950 . S
C1422 C1431 1.390 . S
C1423 C1422 1.375 1_455 S
C1423 C1425 1.376 1_455 S
H1424 C1431 0.950 . S
C1425 C1423 1.376 1_655 S
C1425 C1427 1.390 . S
C1425 H1429 0.950 1_655 S
H1426 C1422 0.950 . S
C1427 C1425 1.390 . S
C1427 C1428 1.387 . S
C1427 H1430 0.950 . S
C1428 C1427 1.387 . S
C1428 C1431 1.387 . S
H1429 C1425 0.950 1_455 S
H1430 C1427 0.950 . S
C1431 C1422 1.390 . S
C1431 H1424 0.950 . S
C1431 C1428 1.387 . S
C1432 C1433 1.387 . S
C1432 H1436 0.950 . S
C1432 C1441 1.390 . S
C1433 C1432 1.387 . S
C1433 C1435 1.387 . S
H1434 C1441 0.950 . S
C1435 C1433 1.387 . S
C1435 C1437 1.390 . S
C1435 H1439 0.950 . S
H1436 C1432 0.950 . S
C1437 C1435 1.390 . S
C1437 C1438 1.387 . S
C1437 H1440 0.950 . S
C1438 C1437 1.387 . S
C1438 C1441 1.387 . S
H1439 C1435 0.950 . S
H1440 C1437 0.950 . S
C1441 C1432 1.390 . S
C1441 H1434 0.950 . S
C1441 C1438 1.387 . S
C1442 C1443 1.387 . S
C1442 H1446 0.950 . S
C1442 C1451 1.390 1_455 S
C1443 C1442 1.387 . S
C1443 C1445 1.387 . S
H1444 C1451 0.950 . S
C1445 C1443 1.387 . S
C1445 C1447 1.390 1_455 S
C1445 H1449 0.950 . S
H1446 C1442 0.950 . S
C1447 C1445 1.390 1_655 S
C1447 C1448 1.387 . S
C1447 H1450 0.950 . S
C1448 C1447 1.387 . S
C1448 C1451 1.387 . S
H1449 C1445 0.950 . S
H1450 C1447 0.950 . S
C1451 C1442 1.390 1_655 S
C1451 H1444 0.950 . S
C1451 C1448 1.387 . S
C1452 C1453 1.387 . S
C1452 H1456 0.950 . S
C1452 C1461 1.390 . S
C1453 C1452 1.387 . S
C1453 C1455 1.387 . S
H1454 C1461 0.950 . S
C1455 C1453 1.387 . S
C1455 C1457 1.390 . S
C1455 H1459 0.950 . S
H1456 C1452 0.950 . S
C1457 C1455 1.390 . S
C1457 C1458 1.387 . S
C1457 H1460 0.950 . S
C1458 C1457 1.387 . S
C1458 C1461 1.387 . S
H1459 C1455 0.950 . S
H1460 C1457 0.950 . S
C1461 C1452 1.390 . S
C1461 H1454 0.950 . S
C1461 C1458 1.387 . S
C1462 C1463 1.387 . S
C1462 H1466 0.950 . S
C1462 C1471 1.390 . S
C1463 C1462 1.387 . S
C1463 C1465 1.387 . S
H1464 C1471 0.950 . S
C1465 C1463 1.387 . S
C1465 C1467 1.390 . S
C1465 H1469 0.950 . S
H1466 C1462 0.950 . S
C1467 C1465 1.390 . S
C1467 C1468 1.387 . S
C1467 H1470 0.950 . S
C1468 C1467 1.387 . S
C1468 C1471 1.387 . S
H1469 C1465 0.950 . S
H1470 C1467 0.950 . S
C1471 C1462 1.390 . S
C1471 H1464 0.950 . S
C1471 C1468 1.387 . S
C1472 C1473 1.387 . S
C1472 H1476 0.950 . S
C1472 C1481 1.390 . S
C1473 C1472 1.387 . S
C1473 C1475 1.387 . S
H1474 C1481 0.950 . S
C1475 C1473 1.387 . S
C1475 C1477 1.390 . S
C1475 H1479 0.950 . S
H1476 C1472 0.950 . S
C1477 C1475 1.390 . S
C1477 C1478 1.387 . S
C1477 H1480 0.950 . S
C1478 C1477 1.387 . S
C1478 C1481 1.387 . S
H1479 C1475 0.950 . S
H1480 C1477 0.950 . S
C1481 C1472 1.390 . S
C1481 H1474 0.950 . S
C1481 C1478 1.387 . S
C1482 C1483 1.387 . S
C1482 H1486 0.950 . S
C1482 C1491 1.390 1_556 S
C1483 C1482 1.387 . S
C1483 C1485 1.387 . S
H1484 C1491 0.950 . S
C1485 C1483 1.387 . S
C1485 C1487 1.390 1_556 S
C1485 H1489 0.950 . S
H1486 C1482 0.950 . S
C1487 C1485 1.390 1_554 S
C1487 C1488 1.387 . S
C1487 H1490 0.950 . S
C1488 C1487 1.387 . S
C1488 C1491 1.387 . S
H1489 C1485 0.950 . S
H1490 C1487 0.950 . S
C1491 C1482 1.390 1_554 S
C1491 H1484 0.950 . S
C1491 C1488 1.387 . S
C1492 C1493 1.387 . S
C1492 H1496 0.950 . S
C1492 C1501 1.390 . S
C1493 C1492 1.387 . S
C1493 C1495 1.387 . S
H1494 C1501 0.950 . S
C1495 C1493 1.387 . S
C1495 C1497 1.390 . S
C1495 H1499 0.950 . S
H1496 C1492 0.950 . S
C1497 C1495 1.390 . S
C1497 C1498 1.387 . S
C1497 H1500 0.950 . S
C1498 C1497 1.387 . S
C1498 C1501 1.387 . S
H1499 C1495 0.950 . S
H1500 C1497 0.950 . S
C1501 C1492 1.390 . S
C1501 H1494 0.950 . S
C1501 C1498 1.387 . S
C1502 C1503 1.387 . S
C1502 H1506 0.950 . S
C1502 C1511 1.390 . S
C1503 C1502 1.387 . S
C1503 C1505 1.387 . S
H1504 C1511 0.950 . S
C1505 C1503 1.387 . S
C1505 C1507 1.390 . S
C1505 H1509 0.950 . S
H1506 C1502 0.950 . S
C1507 C1505 1.390 . S
C1507 C1508 1.387 . S
C1507 H1510 0.950 . S
C1508 C1507 1.387 . S
C1508 C1511 1.387 . S
H1509 C1505 0.950 . S
H1510 C1507 0.950 . S
C1511 C1502 1.390 . S
C1511 H1504 0.950 . S
C1511 C1508 1.387 . S
C1512 C1513 1.387 . S
C1512 H1516 0.950 . S
C1512 C1521 1.390 . S
C1513 C1512 1.387 . S
C1513 C1515 1.387 . S
H1514 C1521 0.950 . S
C1515 C1513 1.387 . S
C1515 C1517 1.390 . S
C1515 H1519 0.950 . S
H1516 C1512 0.950 . S
C1517 C1515 1.390 . S
C1517 C1518 1.387 . S
C1517 H1520 0.950 . S
C1518 C1517 1.387 . S
C1518 C1521 1.387 . S
H1519 C1515 0.950 . S
H1520 C1517 0.950 . S
C1521 C1512 1.390 . S
C1521 H1514 0.950 . S
C1521 C1518 1.387 . S
C1522 C1523 1.387 . S
C1522 H1526 0.950 . S
C1522 C1531 1.390 . S
C1523 C1522 1.387 . S
C1523 C1525 1.387 . S
H1524 C1531 0.950 1_556 S
C1525 C1523 1.387 . S
C1525 C1527 1.390 . S
C1525 H1529 0.950 . S
H1526 C1522 0.950 . S
C1527 C1525 1.390 . S
C1527 C1528 1.387 1_554 S
C1527 H1530 0.950 . S
C1528 C1527 1.387 1_556 S
C1528 C1531 1.387 1_556 S
H1529 C1525 0.950 . S
H1530 C1527 0.950 . S
C1531 C1522 1.390 . S
C1531 H1524 0.950 1_554 S
C1531 C1528 1.387 1_554 S
C1532 C1533 1.387 . S
C1532 H1536 0.950 . S
C1532 C1541 1.390 . S
C1533 C1532 1.387 . S
C1533 C1535 1.387 . S
H1534 C1541 0.950 . S
C1535 C1533 1.387 . S
C1535 C1537 1.390 . S
C1535 H1539 0.950 . S
H1536 C1532 0.950 . S
C1537 C1535 1.390 . S
C1537 C1538 1.387 . S
C1537 H1540 0.950 . S
C1538 C1537 1.387 . S
C1538 C1541 1.387 . S
H1539 C1535 0.950 . S
H1540 C1537 0.950 . S
C1541 C1532 1.390 . S
C1541 H1534 0.950 . S
C1541 C1538 1.387 . S
C1542 C1543 1.387 . S
C1542 H1546 0.950 . S
C1542 C1551 1.390 . S
C1543 C1542 1.387 . S
C1543 C1545 1.387 . S
H1544 C1551 0.950 . S
C1545 C1543 1.387 . S
C1545 C1547 1.390 . S
C1545 H1549 0.950 . S
H1546 C1542 0.950 . S
C1547 C1545 1.390 . S
C1547 C1548 1.387 . S
C1547 H1550 0.950 . S
C1548 C1547 1.387 . S
C1548 C1551 1.387 . S
H1549 C1545 0.950 . S
H1550 C1547 0.950 . S
C1551 C1542 1.390 . S
C1551 H1544 0.950 . S
C1551 C1548 1.387 . S
C1552 C1553 1.387 . S
C1552 H1556 0.950 . S
C1552 C1561 1.390 . S
C1553 C1552 1.387 . S
C1553 C1555 1.387 . S
H1554 C1561 0.950 . S
C1555 C1553 1.387 . S
C1555 C1557 1.390 . S
C1555 H1559 0.950 . S
H1556 C1552 0.950 . S
C1557 C1555 1.390 . S
C1557 C1558 1.387 . S
C1557 H1560 0.950 . S
C1558 C1557 1.387 . S
C1558 C1561 1.387 . S
H1559 C1555 0.950 . S
H1560 C1557 0.950 . S
C1561 C1552 1.390 . S
C1561 H1554 0.950 . S
C1561 C1558 1.387 . S
C1562 C1563 1.387 . S
C1562 H1566 0.950 . S
C1562 C1571 1.390 . S
C1563 C1562 1.387 . S
C1563 C1565 1.387 . S
H1564 C1571 0.950 . S
C1565 C1563 1.387 . S
C1565 C1567 1.390 . S
C1565 H1569 0.950 . S
H1566 C1562 0.950 . S
C1567 C1565 1.390 . S
C1567 C1568 1.387 . S
C1567 H1570 0.950 . S
C1568 C1567 1.387 . S
C1568 C1571 1.387 . S
H1569 C1565 0.950 . S
H1570 C1567 0.950 . S
C1571 C1562 1.390 . S
C1571 H1564 0.950 . S
C1571 C1568 1.387 . S
C1572 C1573 1.387 . S
C1572 H1576 0.950 . S
C1572 C1581 1.390 1_565 S
C1573 C1572 1.387 . S
C1573 C1575 1.387 . S
H1574 C1581 0.950 . S
C1575 C1573 1.387 . S
C1575 C1577 1.390 . S
C1575 H1579 0.950 . S
H1576 C1572 0.950 . S
C1577 C1575 1.390 . S
C1577 C1578 1.387 1_565 S
C1577 H1580 0.950 1_565 S
C1578 C1577 1.387 1_545 S
C1578 C1581 1.387 . S
H1579 C1575 0.950 . S
H1580 C1577 0.950 1_545 S
C1581 C1572 1.390 1_545 S
C1581 H1574 0.950 . S
C1581 C1578 1.387 . S
C1582 C1583 1.387 . S
C1582 H1586 0.950 . S
C1582 C1591 1.390 . S
C1583 C1582 1.387 . S
C1583 C1585 1.387 . S
H1584 C1591 0.950 . S
C1585 C1583 1.387 . S
C1585 C1587 1.390 . S
C1585 H1589 0.950 . S
H1586 C1582 0.950 . S
C1587 C1585 1.390 . S
C1587 C1588 1.387 . S
C1587 H1590 0.950 . S
C1588 C1587 1.387 . S
C1588 C1591 1.387 . S
H1589 C1585 0.950 . S
H1590 C1587 0.950 . S
C1591 C1582 1.390 . S
C1591 H1584 0.950 . S
C1591 C1588 1.387 . S
C1592 C1593 1.387 . S
C1592 H1596 0.950 . S
C1592 C1601 1.390 . S
C1593 C1592 1.387 . S
C1593 C1595 1.387 . S
H1594 C1601 0.950 . S
C1595 C1593 1.387 . S
C1595 C1597 1.390 . S
C1595 H1599 0.950 . S
H1596 C1592 0.950 . S
C1597 C1595 1.390 . S
C1597 C1598 1.387 . S
C1597 H1600 0.950 . S
C1598 C1597 1.387 . S
C1598 C1601 1.387 . S
H1599 C1595 0.950 . S
H1600 C1597 0.950 . S
C1601 C1592 1.390 . S
C1601 H1594 0.950 . S
C1601 C1598 1.387 . S
C1602 C1603 1.387 . S
C1602 H1606 0.950 . S
C1602 C1611 1.390 . S
C1603 C1602 1.387 . S
C1603 C1605 1.387 . S
H1604 C1611 0.950 . S
C1605 C1603 1.387 . S
C1605 C1607 1.390 . S
C1605 H1609 0.950 . S
H1606 C1602 0.950 . S
C1607 C1605 1.390 . S
C1607 C1608 1.387 . S
C1607 H1610 0.950 . S
C1608 C1607 1.387 . S
C1608 C1611 1.387 . S
H1609 C1605 0.950 . S
H1610 C1607 0.950 . S
C1611 C1602 1.390 . S
C1611 H1604 0.950 . S
C1611 C1608 1.387 . S
C1612 C1613 1.387 1_545 S
C1612 H1616 0.950 1_545 S
C1612 C1621 1.390 . S
C1613 C1612 1.387 1_565 S
C1613 C1615 1.387 1_565 S
H1614 C1621 0.950 . S
C1615 C1613 1.387 1_545 S
C1615 C1617 1.390 . S
C1615 H1619 0.950 1_545 S
H1616 C1612 0.950 1_565 S
C1617 C1615 1.390 . S
C1617 C1618 1.387 . S
C1617 H1620 0.950 . S
C1618 C1617 1.387 . S
C1618 C1621 1.387 . S
H1619 C1615 0.950 1_565 S
H1620 C1617 0.950 . S
C1621 C1612 1.390 . S
C1621 H1614 0.950 . S
C1621 C1618 1.387 . S
C1622 C1623 1.387 . S
C1622 H1626 0.950 . S
C1622 C1631 1.390 . S
C1623 C1622 1.387 . S
C1623 C1625 1.387 . S
H1624 C1631 0.950 . S
C1625 C1623 1.387 . S
C1625 C1627 1.390 . S
C1625 H1629 0.950 . S
H1626 C1622 0.950 . S
C1627 C1625 1.390 . S
C1627 C1628 1.387 1_565 S
C1627 H1630 0.950 1_565 S
C1628 C1627 1.387 1_545 S
C1628 C1631 1.387 1_545 S
H1629 C1625 0.950 . S
H1630 C1627 0.950 1_545 S
C1631 C1622 1.390 . S
C1631 H1624 0.950 . S
C1631 C1628 1.387 1_565 S
C673 C594 1.342 . S
C678 C7 1.271 . S
C683 C23 1.542 . S
C688 C219 1.511 . S
C693 C34 1.288 . S
C698 C567 1.391 . S
C703 C50 1.516 . S
C708 C246 1.517 . S
C713 C624 1.596 . S
C718 C64 1.643 . S
C723 C77 1.437 . S
C728 C301 1.568 . S
C733 C93 1.665 . S
C738 C653 1.623 . S
C743 C105 1.454 . S
C748 C272 1.556 . S
C753 C49 1.247 . S
C758 C664 1.237 . S
C763 C8 1.486 . S
C768 C357 1.519 . S
C773 C373 1.360 . S
C778 C20 1.372 . S
C783 C37 1.612 . S
C788 C343 1.632 . S
C793 C78 1.757 . S
C798 C344 1.698 . S
C803 C90 1.548 . S
C808 C667 1.517 . S
C813 C106 1.659 . S
C818 C358 1.662 . S
C823 C63 1.396 . S
C828 C370 1.397 . S
C833 C552 1.215 . S
C838 C119 1.195 . S
C843 C135 1.706 . S
C848 C275 1.608 . S
C853 C120 1.491 . S
C858 C623 1.517 . S
C863 C302 1.747 . S
C868 C149 1.790 . S
C873 C314 1.401 . S
C878 C161 1.363 1_565 S
C883 C581 1.286 . S
C888 C176 1.284 . S
C893 C597 1.431 . S
C898 C188 1.457 . S
C903 C568 1.440 . S
C908 C202 1.420 . S
C913 C468 1.336 . S
C918 C217 1.261 . S
C923 C233 1.545 . S
C928 C9 1.512 . S
C933 C244 1.368 . S
C938 C441 1.488 . S
C943 C36 1.475 . S
C948 C260 1.501 . S
C953 C274 1.632 . S
C958 C499 1.604 . S
C963 C91 1.578 . S
C968 C286 1.449 . S
C973 C303 1.636 . S
C978 C527 1.615 . S
C983 C62 1.545 . S
C988 C315 1.450 . S
C993 C538 1.289 . S
C998 C259 1.273 . S
C1003 C218 1.505 . S
C1008 C147 1.542 . S
C1013 C163 1.329 . S
C1018 C230 1.342 . S
C1023 C133 1.610 . S
C1028 C247 1.584 . S
C1033 C134 1.706 . S
C1038 C289 1.752 . S
C1043 C300 1.554 . S
C1048 C541 1.524 . S
C1053 C148 1.713 . S
C1058 C316 1.705 . S
C1063 C273 1.378 . S
C1068 C160 1.379 . S
C1073 C329 1.260 . S
C1078 C426 1.296 . S
C1083 C345 1.680 . S
C1088 C65 1.583 . S
C1093 C330 1.459 . S
C1098 C496 1.484 . S
C1103 C359 1.742 . S
C1108 C92 1.680 . S
C1113 C371 1.332 1_545 S
C1118 C104 1.370 . S
C1123 C455 1.331 . S
C1128 C386 1.332 . S
C1133 C398 1.447 . S
C1138 C471 1.412 . S
C1143 C415 1.773 . S
C1148 C442 1.720 . S
C1153 C427 1.389 . S
C1158 C258 1.460 . S
C1163 C443 1.550 . S
C1168 C555 1.535 . S
C1173 C231 1.404 . S
C1178 C454 1.293 . S
C1183 C470 1.504 . S
C1188 C582 1.487 . S
C1193 C484 1.646 . S
C1198 C288 1.616 . S
C1203 C637 1.556 . S
C1208 C497 1.435 . S
C1213 C513 1.670 . S
C1218 C317 1.616 . S
C1223 C608 1.439 . S
C1228 C525 1.340 . S
C1233 C328 1.223 . S
C1238 C469 1.225 . S
C1243 C414 1.684 . S
C1248 C428 1.672 . S
C1253 C440 1.494 . S
C1258 C387 1.475 . S
C1263 C399 1.654 . S
C1268 C457 1.629 . S
C1273 C498 1.748 . S
C1278 C400 1.686 . S
C1283 C331 1.419 . S
C1288 C510 1.444 1_556 S
C1293 C526 1.471 . S
C1298 C413 1.505 . S
C1303 C483 1.417 . S
C1308 C384 1.417 . S
C1313 C539 1.212 . S
C1318 C216 1.228 . S
C1323 C191 1.651 . S
C1328 C611 1.567 . S
C1333 C287 1.517 . S
C1338 C540 1.500 . S
C1343 C638 1.662 . S
C1348 C205 1.720 . S
C1353 C650 1.378 . S
C1358 C175 1.339 . S
C1363 C162 1.320 . S
C1368 C245 1.314 . S
C1373 C132 1.504 . S
C1378 C261 1.465 . S
C1383 C232 1.506 . S
C1388 C146 1.475 . S
C1393 C553 1.271 . S
C1398 C48 1.349 . S
C1403 C429 1.535 . S
C1408 C569 1.586 . S
C1413 C580 1.279 . S
C1418 C21 1.382 . S
C1423 C596 1.544 . S
C1428 C456 1.497 . S
C1433 C79 1.631 . S
C1438 C610 1.648 . S
C1443 C622 1.358 . S
C1448 C511 1.471 . S
C1453 C639 1.663 . S
C1458 C107 1.626 . S
C1463 C482 1.555 . S
C1468 C651 1.459 . S
C1473 C595 1.258 . S
C1478 C118 1.256 . S
C1483 C203 1.483 . S
C1488 C554 1.447 . S
C1493 C177 1.356 . S
C1498 C566 1.368 . S
C1503 C583 1.632 . S
C1508 C189 1.651 . S
C1513 C625 1.789 . S
C1518 C190 1.716 . S
C1523 C121 1.550 . S
C1528 C636 1.582 . S
C1533 C204 1.643 . S
C1538 C652 1.637 . S
C1543 C609 1.379 . S
C1548 C174 1.357 . S
C1553 C6 1.241 . S
C1558 C665 1.221 . S
C1563 C401 1.709 . S
C1568 C485 1.622 . S
C1573 C76 1.506 . S
C1578 C666 1.487 . S
C1583 C512 1.459 . S
C1588 C412 1.431 . S
C1593 C524 1.314 . S
C1598 C385 1.291 . S
C1603 C372 1.302 . S
C1608 C35 1.303 . S
C1613 C342 1.482 . S
C1618 C51 1.455 . S
C1623 C22 1.493 . S
C1628 C356 1.457 . S
