# Generated by pormake.
# Topology why, (6)-cn, num edge types: 1
# Building blocks:
#     Node 0, Type 0, BuildingBlock: PAMTOO_clean_sbu_0, # of connection points: 6
#     Node 1, Type 0, BuildingBlock: PAMTOO_clean_sbu_0, # of connection points: 6
#     Node 2, Type 0, BuildingBlock: PAMTOO_clean_sbu_0, # of connection points: 6
#     Node 3, Type 0, BuildingBlock: PAMTOO_clean_sbu_0, # of connection points: 6
#     Node 4, Type 0, BuildingBlock: PAMTOO_clean_sbu_0, # of connection points: 6
#     Node 5, Type 0, BuildingBlock: PAMTOO_clean_sbu_0, # of connection points: 6
#     Node 6, Type 0, BuildingBlock: PAMTOO_clean_sbu_0, # of connection points: 6
#     Node 7, Type 0, BuildingBlock: PAMTOO_clean_sbu_0, # of connection points: 6
#     Node 8, Type 0, BuildingBlock: PAMTOO_clean_sbu_0, # of connection points: 6
#     Node 9, Type 0, BuildingBlock: PAMTOO_clean_sbu_0, # of connection points: 6
#     Node 10, Type 0, BuildingBlock: PAMTOO_clean_sbu_0, # of connection points: 6
#     Node 11, Type 0, BuildingBlock: PAMTOO_clean_sbu_0, # of connection points: 6
#     Node 12, Type 0, BuildingBlock: PAMTOO_clean_sbu_0, # of connection points: 6
#     Node 13, Type 0, BuildingBlock: PAMTOO_clean_sbu_0, # of connection points: 6
#     Node 14, Type 0, BuildingBlock: PAMTOO_clean_sbu_0, # of connection points: 6
#     Node 15, Type 0, BuildingBlock: PAMTOO_clean_sbu_0, # of connection points: 6
#     Edge 16, Type (0, 0), BuildingBlock: ZUJKAS_clean_linker_0, # of connection points: 2
#     Edge 17, Type (0, 0), BuildingBlock: ZUJKAS_clean_linker_0, # of connection points: 2
#     Edge 18, Type (0, 0), BuildingBlock: ZUJKAS_clean_linker_0, # of connection points: 2
#     Edge 19, Type (0, 0), BuildingBlock: ZUJKAS_clean_linker_0, # of connection points: 2
#     Edge 20, Type (0, 0), BuildingBlock: ZUJKAS_clean_linker_0, # of connection points: 2
#     Edge 21, Type (0, 0), BuildingBlock: ZUJKAS_clean_linker_0, # of connection points: 2
#     Edge 22, Type (0, 0), BuildingBlock: ZUJKAS_clean_linker_0, # of connection points: 2
#     Edge 23, Type (0, 0), BuildingBlock: ZUJKAS_clean_linker_0, # of connection points: 2
#     Edge 24, Type (0, 0), BuildingBlock: ZUJKAS_clean_linker_0, # of connection points: 2
#     Edge 25, Type (0, 0), BuildingBlock: ZUJKAS_clean_linker_0, # of connection points: 2
#     Edge 26, Type (0, 0), BuildingBlock: ZUJKAS_clean_linker_0, # of connection points: 2
#     Edge 27, Type (0, 0), BuildingBlock: ZUJKAS_clean_linker_0, # of connection points: 2
#     Edge 28, Type (0, 0), BuildingBlock: ZUJKAS_clean_linker_0, # of connection points: 2
#     Edge 29, Type (0, 0), BuildingBlock: ZUJKAS_clean_linker_0, # of connection points: 2
#     Edge 30, Type (0, 0), BuildingBlock: ZUJKAS_clean_linker_0, # of connection points: 2
#     Edge 31, Type (0, 0), BuildingBlock: ZUJKAS_clean_linker_0, # of connection points: 2
#     Edge 32, Type (0, 0), BuildingBlock: ZUJKAS_clean_linker_0, # of connection points: 2
#     Edge 33, Type (0, 0), BuildingBlock: ZUJKAS_clean_linker_0, # of connection points: 2
#     Edge 34, Type (0, 0), BuildingBlock: ZUJKAS_clean_linker_0, # of connection points: 2
#     Edge 35, Type (0, 0), BuildingBlock: ZUJKAS_clean_linker_0, # of connection points: 2
#     Edge 36, Type (0, 0), BuildingBlock: ZUJKAS_clean_linker_0, # of connection points: 2
#     Edge 37, Type (0, 0), BuildingBlock: ZUJKAS_clean_linker_0, # of connection points: 2
#     Edge 38, Type (0, 0), BuildingBlock: ZUJKAS_clean_linker_0, # of connection points: 2
#     Edge 39, Type (0, 0), BuildingBlock: ZUJKAS_clean_linker_0, # of connection points: 2
#     Edge 40, Type (0, 0), BuildingBlock: ZUJKAS_clean_linker_0, # of connection points: 2
#     Edge 41, Type (0, 0), BuildingBlock: ZUJKAS_clean_linker_0, # of connection points: 2
#     Edge 42, Type (0, 0), BuildingBlock: ZUJKAS_clean_linker_0, # of connection points: 2
#     Edge 43, Type (0, 0), BuildingBlock: ZUJKAS_clean_linker_0, # of connection points: 2
#     Edge 44, Type (0, 0), BuildingBlock: ZUJKAS_clean_linker_0, # of connection points: 2
#     Edge 45, Type (0, 0), BuildingBlock: ZUJKAS_clean_linker_0, # of connection points: 2
#     Edge 46, Type (0, 0), BuildingBlock: ZUJKAS_clean_linker_0, # of connection points: 2
#     Edge 47, Type (0, 0), BuildingBlock: ZUJKAS_clean_linker_0, # of connection points: 2
#     Edge 48, Type (0, 0), BuildingBlock: ZUJKAS_clean_linker_0, # of connection points: 2
#     Edge 49, Type (0, 0), BuildingBlock: ZUJKAS_clean_linker_0, # of connection points: 2
#     Edge 50, Type (0, 0), BuildingBlock: ZUJKAS_clean_linker_0, # of connection points: 2
#     Edge 51, Type (0, 0), BuildingBlock: ZUJKAS_clean_linker_0, # of connection points: 2
#     Edge 52, Type (0, 0), BuildingBlock: ZUJKAS_clean_linker_0, # of connection points: 2
#     Edge 53, Type (0, 0), BuildingBlock: ZUJKAS_clean_linker_0, # of connection points: 2
#     Edge 54, Type (0, 0), BuildingBlock: ZUJKAS_clean_linker_0, # of connection points: 2
#     Edge 55, Type (0, 0), BuildingBlock: ZUJKAS_clean_linker_0, # of connection points: 2
#     Edge 56, Type (0, 0), BuildingBlock: ZUJKAS_clean_linker_0, # of connection points: 2
#     Edge 57, Type (0, 0), BuildingBlock: ZUJKAS_clean_linker_0, # of connection points: 2
#     Edge 58, Type (0, 0), BuildingBlock: ZUJKAS_clean_linker_0, # of connection points: 2
#     Edge 59, Type (0, 0), BuildingBlock: ZUJKAS_clean_linker_0, # of connection points: 2
#     Edge 60, Type (0, 0), BuildingBlock: ZUJKAS_clean_linker_0, # of connection points: 2
#     Edge 61, Type (0, 0), BuildingBlock: ZUJKAS_clean_linker_0, # of connection points: 2
#     Edge 62, Type (0, 0), BuildingBlock: ZUJKAS_clean_linker_0, # of connection points: 2
#     Edge 63, Type (0, 0), BuildingBlock: ZUJKAS_clean_linker_0, # of connection points: 2
# Relax obj value: 0.291
# Max RMSD: 0.195
# Mean RMSD: 0.195
data_MOF--net-why--node1-PAMTOO_clean_sbu_0--edge1-ZUJKAS_clean_linker_0
_symmetry_space_group_name_H-M    P1
_symmetry_Int_Tables_number       1
_symmetry_cell_setting            triclinic
loop_
_symmetry_equiv_pos_as_xyz
'x, y, z'
_cell_length_a     63.024268
_cell_length_b     63.077787
_cell_length_c     47.481929
_cell_angle_alpha  90.178054
_cell_angle_beta   89.888107
_cell_angle_gamma 90.201094
loop_
_atom_site_label
_atom_site_type_symbol
_atom_site_fract_x
_atom_site_fract_y
_atom_site_fract_z
_atom_type_partial_charge
Dy0 Dy 0.43281 0.21827 0.10429 0.0
Dy1 Dy 0.45955 0.19222 0.05916 0.0
C2 C 0.44554 0.16921 0.1173 0.0
O3 O 0.4654 0.23472 0.1062 0.0
O4 O 0.48296 0.21902 0.06939 0.0
O5 O 0.40699 0.23723 0.12049 0.0
O6 O 0.43135 0.22529 0.14861 0.0
O7 O 0.45288 0.22181 0.03552 0.0
O8 O 0.43518 0.24164 0.06904 0.0
O9 O 0.42552 0.19039 0.04171 0.0
O10 O 0.40638 0.20962 0.0741 0.0
O11 O 0.45975 0.16804 0.02678 0.0
O12 O 0.4893 0.18106 0.04234 0.0
C13 C 0.48197 0.23399 0.08897 0.0
O14 O 0.43089 0.18394 0.11929 0.0
O15 O 0.46068 0.17171 0.09854 0.0
C16 C 0.41546 0.25804 0.1603 0.0
C17 C 0.41587 0.29605 0.19144 0.0
C18 C 0.39665 0.28548 0.1857 0.0
C19 C 0.39648 0.26667 0.1703 0.0
C20 C 0.4347 0.26877 0.16524 0.0
C21 C 0.43491 0.28762 0.18087 0.0
C22 C 0.41473 0.23743 0.14593 0.0
C23 C 0.44334 0.23929 0.04368 0.0
C24 C 0.40737 0.19903 0.0501 0.0
C25 C 0.48814 0.17079 0.9948 0.0
C26 C 0.50555 0.17449 0.94043 0.0
C27 C 0.49713 0.19235 0.95425 0.0
C28 C 0.48845 0.19051 0.98124 0.0
C29 C 0.49599 0.15286 0.98088 0.0
C30 C 0.50461 0.15467 0.95388 0.0
C31 C 0.48028 0.1688 0.02373 0.0
H32 H 0.38175 0.29133 0.19401 0.0
H33 H 0.38152 0.25856 0.16675 0.0
H34 H 0.44956 0.2624 0.1575 0.0
H35 H 0.44991 0.29547 0.18491 0.0
H36 H 0.49744 0.20778 0.9443 0.0
H37 H 0.48232 0.20449 0.99172 0.0
H38 H 0.49583 0.13753 0.99112 0.0
H39 H 0.5112 0.14068 0.94395 0.0
Dy40 Dy 0.66469 0.68908 0.35619 0.0
Dy41 Dy 0.69216 0.71509 0.31042 0.0
C42 C 0.71364 0.70366 0.37179 0.0
O43 O 0.64892 0.72164 0.35819 0.0
O44 O 0.66646 0.73927 0.32278 0.0
O45 O 0.66468 0.66884 0.39258 0.0
O46 O 0.63493 0.67969 0.37541 0.0
O47 O 0.66113 0.71145 0.28908 0.0
O48 O 0.64659 0.68479 0.31594 0.0
O49 O 0.6922 0.68145 0.29214 0.0
O50 O 0.677 0.6624 0.32812 0.0
O51 O 0.71229 0.71537 0.27372 0.0
O52 O 0.70696 0.74439 0.29716 0.0
C53 C 0.65076 0.73833 0.34146 0.0
O54 O 0.69499 0.69678 0.38052 0.0
O55 O 0.71586 0.71054 0.34584 0.0
C56 C 0.63618 0.64524 0.39424 0.0
C57 C 0.62506 0.60226 0.39951 0.0
C58 C 0.61959 0.61693 0.42068 0.0
C59 C 0.62518 0.63826 0.41808 0.0
C60 C 0.64107 0.63084 0.3726 0.0
C61 C 0.63563 0.60946 0.37526 0.0
C62 C 0.64411 0.66705 0.39321 0.0
C63 C 0.64656 0.69694 0.29346 0.0
C64 C 0.68571 0.66312 0.30275 0.0
C65 C 0.71276 0.747 0.24818 0.0
C66 C 0.70855 0.76677 0.19549 0.0
C67 C 0.69047 0.7598 0.21031 0.0
C68 C 0.69257 0.74991 0.23647 0.0
C69 C 0.73077 0.75403 0.23362 0.0
C70 C 0.7287 0.76384 0.20748 0.0
C71 C 0.71545 0.73576 0.27484 0.0
H72 H 0.61169 0.61179 0.43977 0.0
H73 H 0.62145 0.64917 0.43503 0.0
H74 H 0.64956 0.63605 0.35402 0.0
H75 H 0.63988 0.59853 0.35855 0.0
H76 H 0.67476 0.76168 0.20149 0.0
H77 H 0.67852 0.74437 0.24742 0.0
H78 H 0.74646 0.75179 0.2424 0.0
H79 H 0.74288 0.76933 0.19679 0.0
Dy80 Dy 0.19406 0.92266 0.60273 0.0
Dy81 Dy 0.16795 0.94912 0.55783 0.0
C82 C 0.18213 0.97183 0.61581 0.0
O83 O 0.16125 0.90676 0.60418 0.0
O84 O 0.14448 0.92213 0.56675 0.0
O85 O 0.21856 0.90273 0.61991 0.0
O86 O 0.19475 0.91672 0.64739 0.0
O87 O 0.17429 0.91948 0.53413 0.0
O88 O 0.19237 0.89952 0.56692 0.0
O89 O 0.20236 0.9513 0.5415 0.0
O90 O 0.22093 0.93097 0.5731 0.0
O91 O 0.16819 0.97228 0.52436 0.0
O92 O 0.13843 0.96159 0.54216 0.0
C93 C 0.14506 0.90731 0.58643 0.0
O94 O 0.19684 0.95714 0.61714 0.0
O95 O 0.16669 0.96926 0.5976 0.0
C96 C 0.2076 0.88311 0.66015 0.0
C97 C 0.20494 0.84507 0.69085 0.0
C98 C 0.20783 0.84459 0.66148 0.0
C99 C 0.20906 0.86348 0.6462 0.0
C100 C 0.20389 0.88354 0.68925 0.0
C101 C 0.20249 0.86473 0.70446 0.0
C102 C 0.21041 0.90333 0.64521 0.0
C103 C 0.18402 0.90203 0.54175 0.0
C104 C 0.22031 0.94214 0.54963 0.0
C105 C 0.13894 0.96975 0.49396 0.0
C106 C 0.12103 0.96457 0.44011 0.0
C107 C 0.12866 0.94694 0.45503 0.0
C108 C 0.13757 0.94952 0.48174 0.0
C109 C 0.13171 0.9874 0.47904 0.0
C110 C 0.12284 0.98485 0.4523 0.0
C111 C 0.14759 0.97257 0.52235 0.0
H112 H 0.20972 0.82964 0.65049 0.0
H113 H 0.21166 0.86269 0.62366 0.0
H114 H 0.20266 0.89852 0.70039 0.0
H115 H 0.20063 0.86564 0.72711 0.0
H116 H 0.12771 0.93115 0.44606 0.0
H117 H 0.14321 0.93573 0.49299 0.0
H118 H 0.13267 1.00312 0.48823 0.0
H119 H 0.11688 0.9987 0.44149 0.0
Dy120 Dy 0.96167 0.44948 0.85347 0.0
Dy121 Dy 0.93513 0.42351 0.80817 0.0
C122 C 0.91243 0.43755 0.8663 0.0
O123 O 0.97708 0.4166 0.85491 0.0
O124 O 0.96188 0.39993 0.81706 0.0
O125 O 0.98203 0.47368 0.87109 0.0
O126 O 0.96726 0.45011 0.8982 0.0
O127 O 0.96501 0.42974 0.78475 0.0
O128 O 0.98516 0.44716 0.81821 0.0
O129 O 0.9329 0.45798 0.79257 0.0
O130 O 0.95389 0.47638 0.82386 0.0
O131 O 0.91258 0.42397 0.77387 0.0
O132 O 0.92184 0.39419 0.79262 0.0
C133 C 0.97655 0.40046 0.83699 0.0
O134 O 0.92718 0.4523 0.86772 0.0
O135 O 0.91487 0.42219 0.84787 0.0
C136 C 1.00134 0.4619 0.91112 0.0
C137 C 1.03927 0.45776 0.94181 0.0
C138 C 1.01956 0.45448 0.95496 0.0
C139 C 1.00079 0.45663 0.93978 0.0
C140 C 1.02106 0.46412 0.89752 0.0
C141 C 1.03988 0.46215 0.9128 0.0
C142 C 0.98118 0.46541 0.89627 0.0
C143 C 0.98267 0.43906 0.79284 0.0
C144 C 0.94243 0.47584 0.8006 0.0
C145 C 0.91444 0.39424 0.74395 0.0
C146 C 0.91879 0.37552 0.69027 0.0
C147 C 0.93629 0.37697 0.70858 0.0
C148 C 0.93416 0.38634 0.73513 0.0
C149 C 0.89709 0.39328 0.72562 0.0
C150 C 0.89924 0.38406 0.69898 0.0
C151 C 0.91166 0.40339 0.77219 0.0
H152 H 1.01857 0.45146 0.97738 0.0
H153 H 0.98576 0.45478 0.95065 0.0
H154 H 1.02196 0.46791 0.87532 0.0
H155 H 1.05489 0.46472 0.90218 0.0
H156 H 0.95152 0.37036 0.70275 0.0
H157 H 0.94781 0.38712 0.74894 0.0
H158 H 0.88181 0.39951 0.732 0.0
H159 H 0.88554 0.38358 0.68525 0.0
Dy160 Dy 0.67028 0.94502 0.93967 0.0
Dy161 Dy 0.69544 0.91956 0.8931 0.0
C162 C 0.6869 0.89856 0.95408 0.0
O163 O 0.70289 0.94282 0.96005 0.0
O164 O 0.72197 0.93269 0.92127 0.0
O165 O 0.66892 0.96414 0.97719 0.0
O166 O 0.64095 0.96061 0.95111 0.0
O167 O 0.68057 0.94754 0.86999 0.0
O168 O 0.68057 0.96947 0.90729 0.0
O169 O 0.66429 0.90112 0.89196 0.0
O170 O 0.64542 0.92045 0.92451 0.0
O171 O 0.71554 0.92383 0.85695 0.0
O172 O 0.70711 0.89213 0.87035 0.0
C173 C 0.72133 0.9385 0.94811 0.0
O174 O 0.67323 0.9136 0.95987 0.0
O175 O 0.69887 0.89897 0.93131 0.0
C176 C 0.63622 0.96459 1.0002 0.0
C177 C 0.61596 0.95893 0.05246 0.0
C178 C 0.62281 0.94128 0.03672 0.0
C179 C 0.63294 0.94411 0.01078 0.0
C180 C 0.62899 0.98216 0.01544 0.0
C181 C 0.61892 0.97938 0.04137 0.0
C182 C 0.64874 0.968 0.97464 0.0
C183 C 0.68046 0.96704 0.87987 0.0
C184 C 0.64687 0.90388 0.90716 0.0
C185 C 0.7422 0.89796 0.85305 0.0
C186 C 0.78573 0.88802 0.8505 0.0
C187 C 0.77838 0.90754 0.84042 0.0
C188 C 0.75684 0.91239 0.84151 0.0
C189 C 0.74957 0.87847 0.8634 0.0
C190 C 0.77115 0.87354 0.86207 0.0
C191 C 0.71949 0.90365 0.85446 0.0
H192 H 0.62089 0.92536 0.04483 0.0
H193 H 0.63867 0.93038 0.99931 0.0
H194 H 0.63152 0.99808 0.00756 0.0
H195 H 0.61352 0.99324 0.0528 0.0
H196 H 0.7892 0.91879 0.83083 0.0
H197 H 0.75165 0.92746 0.83313 0.0
H198 H 0.73869 0.867 0.87239 0.0
H199 H 0.77644 0.85835 0.86993 0.0
Dy200 Dy 0.43772 0.42222 0.68911 0.0
Dy201 Dy 0.46442 0.44742 0.64356 0.0
C202 C 0.48514 0.43822 0.7043 0.0
O203 O 0.43425 0.45712 0.70309 0.0
O204 O 0.45785 0.47428 0.67398 0.0
O205 O 0.41492 0.42276 0.72319 0.0
O206 O 0.42498 0.39288 0.70531 0.0
O207 O 0.42973 0.45049 0.63025 0.0
O208 O 0.41796 0.41998 0.64917 0.0
O209 O 0.4795 0.41439 0.64193 0.0
O210 O 0.46484 0.39879 0.68085 0.0
O211 O 0.48448 0.47164 0.62551 0.0
O212 O 0.46978 0.44775 0.59872 0.0
C213 C 0.44511 0.47446 0.69609 0.0
O214 O 0.46708 0.42994 0.7128 0.0
O215 O 0.48816 0.44491 0.67835 0.0
C216 C 0.41755 0.39372 0.75382 0.0
C217 C 0.42327 0.37649 0.80791 0.0
C218 C 0.44084 0.38345 0.79204 0.0
C219 C 0.43799 0.39204 0.76522 0.0
C220 C 0.39999 0.3871 0.76964 0.0
C221 C 0.4028 0.37857 0.79649 0.0
C222 C 0.4144 0.4022 0.72541 0.0
C223 C 0.41524 0.43547 0.63116 0.0
C224 C 0.47923 0.39872 0.66046 0.0
C225 C 0.50332 0.4604 0.58466 0.0
C226 C 0.54082 0.45768 0.55255 0.0
C227 C 0.52088 0.45568 0.53959 0.0
C228 C 0.50233 0.4571 0.5555 0.0
C229 C 0.5232 0.46136 0.59796 0.0
C230 C 0.54182 0.4601 0.58197 0.0
C231 C 0.48338 0.46336 0.60031 0.0
H232 H 0.45677 0.38228 0.80038 0.0
H233 H 0.45172 0.39721 0.75329 0.0
H234 H 0.38411 0.38832 0.7611 0.0
H235 H 0.38899 0.37312 0.80802 0.0
H236 H 0.51955 0.45419 0.51693 0.0
H237 H 0.48715 0.45624 0.54486 0.0
H238 H 0.52438 0.46363 0.62052 0.0
H239 H 0.55699 0.46164 0.59248 0.0
Dy240 Dy 0.95996 0.18941 0.43856 0.0
Dy241 Dy 0.93419 0.21582 0.39319 0.0
C242 C 0.94466 0.23702 0.45365 0.0
O243 O 0.92523 0.18606 0.45337 0.0
O244 O 0.9078 0.20917 0.42423 0.0
O245 O 0.95946 0.16741 0.47338 0.0
O246 O 0.98926 0.17619 0.45395 0.0
O247 O 0.93174 0.18127 0.37878 0.0
O248 O 0.96168 0.16913 0.39895 0.0
O249 O 0.96702 0.23161 0.39155 0.0
O250 O 0.9836 0.21625 0.42922 0.0
O251 O 0.90828 0.23416 0.37631 0.0
O252 O 0.93366 0.2231 0.34895 0.0
C253 C 0.90784 0.19673 0.4465 0.0
O254 O 0.95382 0.2194 0.46181 0.0
O255 O 0.93664 0.23948 0.42828 0.0
C256 C 0.98938 0.16948 0.50265 0.0
C257 C 1.00814 0.1751 0.55592 0.0
C258 C 1.00258 0.19275 0.53951 0.0
C259 C 0.99321 0.18997 0.51309 0.0
C260 C 0.99457 0.15186 0.51908 0.0
C261 C 1.00385 0.15462 0.54553 0.0
C262 C 0.98005 0.16627 0.47469 0.0
C263 C 0.94649 0.16661 0.38035 0.0
C264 C 0.98321 0.23095 0.40933 0.0
C265 C 0.91683 0.25534 0.33696 0.0
C266 C 0.91605 0.29322 0.30585 0.0
C267 C 0.89709 0.28265 0.31289 0.0
C268 C 0.8975 0.2639 0.32826 0.0
C269 C 0.93585 0.26608 0.33074 0.0
C270 C 0.93546 0.28487 0.31513 0.0
C271 C 0.91661 0.2347 0.35117 0.0
H272 H 1.00549 0.20871 0.54709 0.0
H273 H 0.98911 0.20376 0.50072 0.0
H274 H 0.99165 0.13595 0.5113 0.0
H275 H 1.00819 0.14072 0.55752 0.0
H276 H 0.8819 0.28843 0.3056 0.0
H277 H 0.8827 0.25579 0.33278 0.0
H278 H 0.95099 0.25978 0.33743 0.0
H279 H 0.95028 0.29273 0.31007 0.0
Dy280 Dy 0.19115 0.71042 0.19062 0.0
Dy281 Dy 0.16543 0.68545 0.14383 0.0
C282 C 0.14446 0.69357 0.20509 0.0
O283 O 0.18952 0.67764 0.21027 0.0
O284 O 0.17794 0.65873 0.17197 0.0
O285 O 0.20955 0.71202 0.22867 0.0
O286 O 0.20774 0.73942 0.20133 0.0
O287 O 0.1936 0.70014 0.12059 0.0
O288 O 0.21557 0.70046 0.15778 0.0
O289 O 0.14753 0.71677 0.14304 0.0
O290 O 0.1664 0.73517 0.17653 0.0
O291 O 0.16889 0.66445 0.10838 0.0
O292 O 0.13766 0.67549 0.12047 0.0
C293 C 0.18453 0.6593 0.19847 0.0
O294 O 0.15967 0.70709 0.21118 0.0
O295 O 0.14477 0.68189 0.18206 0.0
C296 C 0.21147 0.74527 0.25023 0.0
C297 C 0.20648 0.7679 0.3009 0.0
C298 C 0.1886 0.76133 0.28541 0.0
C299 C 0.19108 0.75001 0.26026 0.0
C300 C 0.2293 0.75209 0.2653 0.0
C301 C 0.22685 0.76333 0.29044 0.0
C302 C 0.21444 0.73192 0.22531 0.0
C303 C 0.2131 0.70049 0.13036 0.0
C304 C 0.15009 0.73392 0.15882 0.0
C305 C 0.14072 0.64082 0.10245 0.0
C306 C 0.12938 0.59798 0.09587 0.0
C307 C 0.12593 0.61258 0.07399 0.0
C308 C 0.1316 0.63382 0.07727 0.0
C309 C 0.14376 0.6265 0.12464 0.0
C310 C 0.1382 0.60517 0.12133 0.0
C311 C 0.14851 0.66263 0.10452 0.0
H312 H 0.17272 0.76449 0.29307 0.0
H313 H 0.17715 0.74463 0.24893 0.0
H314 H 0.24513 0.74844 0.25784 0.0
H315 H 0.24091 0.76847 0.30168 0.0
H316 H 0.11946 0.60744 0.05398 0.0
H317 H 0.12934 0.64468 0.05989 0.0
H318 H 0.15081 0.63173 0.14425 0.0
H319 H 0.14088 0.5943 0.13858 0.0
Dy320 Dy 0.93481 0.71699 0.60541 0.0
Dy321 Dy 0.95929 0.69038 0.55892 0.0
C322 C 0.94614 0.66761 0.61713 0.0
O323 O 0.96806 0.73182 0.6065 0.0
O324 O 0.98308 0.71737 0.56699 0.0
O325 O 0.911 0.73717 0.62405 0.0
O326 O 0.93497 0.72233 0.65024 0.0
O327 O 0.95184 0.7199 0.53566 0.0
O328 O 0.9375 0.74085 0.57076 0.0
O329 O 0.92433 0.68755 0.54522 0.0
O330 O 0.90756 0.71054 0.57557 0.0
O331 O 0.95827 0.66764 0.5248 0.0
O332 O 0.98842 0.67763 0.54206 0.0
C333 C 0.9835 0.73164 0.58752 0.0
O334 O 0.93162 0.68245 0.61916 0.0
O335 O 0.96123 0.67004 0.5983 0.0
C336 C 0.92309 0.756 0.66451 0.0
C337 C 0.92669 0.79347 0.69649 0.0
C338 C 0.92312 0.79446 0.6673 0.0
C339 C 0.92142 0.77586 0.65138 0.0
C340 C 0.92765 0.75506 0.69336 0.0
C341 C 0.92952 0.77361 0.7092 0.0
C342 C 0.91957 0.73607 0.64902 0.0
C343 C 0.94394 0.73797 0.54462 0.0
C344 C 0.90713 0.69824 0.553 0.0
C345 C 0.9873 0.66946 0.49377 0.0
C346 C 1.00472 0.67401 0.43946 0.0
C347 C 0.99642 0.69168 0.45388 0.0
C348 C 0.98776 0.68941 0.48084 0.0
C349 C 0.99526 0.65178 0.47941 0.0
C350 C 1.00389 0.65401 0.45247 0.0
C351 C 0.97883 0.66689 0.52233 0.0
H352 H 0.92092 0.8096 0.65701 0.0
H353 H 0.9182 0.77704 0.62904 0.0
H354 H 0.92908 0.7399 0.70386 0.0
H355 H 0.93192 0.77232 0.73172 0.0
H356 H 0.99662 0.70725 0.44432 0.0
H357 H 0.98158 0.70321 0.49168 0.0
H358 H 0.99502 0.63627 0.48917 0.0
H359 H 1.01041 0.64015 0.44212 0.0
Dy360 Dy 0.16729 0.19059 0.85258 0.0
Dy361 Dy 0.19343 0.21666 0.80742 0.0
C362 C 0.21633 0.20286 0.86474 0.0
O363 O 0.15148 0.22331 0.85464 0.0
O364 O 0.16643 0.23987 0.8166 0.0
O365 O 0.14628 0.16727 0.87103 0.0
O366 O 0.16453 0.18874 0.89765 0.0
O367 O 0.16423 0.20868 0.78345 0.0
O368 O 0.14379 0.19205 0.81733 0.0
O369 O 0.1956 0.18227 0.79108 0.0
O370 O 0.17501 0.16373 0.82268 0.0
O371 O 0.21852 0.21677 0.77633 0.0
O372 O 0.20401 0.24624 0.78936 0.0
C373 C 0.1518 0.23933 0.83664 0.0
O374 O 0.20211 0.18759 0.8651 0.0
O375 O 0.21321 0.21868 0.84739 0.0
C376 C 0.13193 0.17679 0.91592 0.0
C377 C 0.09836 0.17833 0.9551 0.0
C378 C 0.11955 0.17916 0.96421 0.0
C379 C 0.13612 0.17835 0.94482 0.0
C380 C 0.11081 0.17699 0.90651 0.0
C381 C 0.09414 0.17772 0.92601 0.0
C382 C 0.14998 0.17399 0.89662 0.0
C383 C 0.14654 0.19942 0.79163 0.0
C384 C 0.18627 0.16434 0.79919 0.0
C385 C 0.21621 0.24402 0.74272 0.0
C386 C 0.21388 0.25935 0.68717 0.0
C387 C 0.19796 0.24585 0.69782 0.0
C388 C 0.19911 0.23824 0.72542 0.0
C389 C 0.23225 0.25716 0.73211 0.0
C390 C 0.23112 0.26477 0.70459 0.0
C391 C 0.21724 0.23712 0.77211 0.0
H392 H 0.1234 0.17922 0.98644 0.0
H393 H 0.1523 0.17821 0.9525 0.0
H394 H 0.10718 0.176 0.88426 0.0
H395 H 0.07796 0.17716 0.91838 0.0
H396 H 0.18458 0.24123 0.68488 0.0
H397 H 0.18659 0.22808 0.73338 0.0
H398 H 0.2455 0.26183 0.74529 0.0
H399 H 0.24345 0.27542 0.69727 0.0
Dy400 Dy 0.6949 0.42337 0.10514 0.0
Dy401 Dy 0.66914 0.44898 0.0593 0.0
C402 C 0.67954 0.47078 0.11936 0.0
O403 O 0.66383 0.40484 0.10652 0.0
O404 O 0.64463 0.42415 0.07454 0.0
O405 O 0.71591 0.42768 0.14033 0.0
O406 O 0.70632 0.396 0.12791 0.0
O407 O 0.67257 0.41775 0.03839 0.0
O408 O 0.69815 0.40288 0.06662 0.0
O409 O 0.70165 0.44737 0.03845 0.0
O410 O 0.72108 0.43643 0.0764 0.0
O411 O 0.6674 0.46859 0.02246 0.0
O412 O 0.63934 0.46376 0.04811 0.0
C413 C 0.6463 0.40755 0.09165 0.0
O414 O 0.68013 0.45124 0.12891 0.0
O415 O 0.67915 0.47342 0.09199 0.0
C416 C 0.74172 0.40112 0.14448 0.0
C417 C 0.78508 0.39047 0.14682 0.0
C418 C 0.77748 0.40849 0.16096 0.0
C419 C 0.75601 0.41367 0.15995 0.0
C420 C 0.74932 0.38316 0.13007 0.0
C421 C 0.77082 0.37784 0.13136 0.0
C422 C 0.71921 0.40742 0.14325 0.0
C423 C 0.68623 0.40267 0.04386 0.0
C424 C 0.72018 0.44277 0.04984 0.0
C425 C 0.63486 0.46769 0.99904 0.0
C426 C 0.61434 0.4621 0.947 0.0
C427 C 0.62688 0.44581 0.95829 0.0
C428 C 0.63702 0.44857 0.98417 0.0
C429 C 0.62207 0.4838 0.98819 0.0
C430 C 0.61182 0.48102 0.96238 0.0
C431 C 0.64704 0.47156 0.02479 0.0
H432 H 0.78803 0.41826 0.17351 0.0
H433 H 0.75056 0.42752 0.17136 0.0
H434 H 0.73871 0.3732 0.11788 0.0
H435 H 0.77631 0.36383 0.12033 0.0
H436 H 0.62886 0.43096 0.94708 0.0
H437 H 0.64688 0.43597 0.99232 0.0
H438 H 0.62037 0.4987 0.99938 0.0
H439 H 0.60242 0.4939 0.9541 0.0
Dy440 Dy 0.4619 0.95023 0.35312 0.0
Dy441 Dy 0.43549 0.92433 0.30755 0.0
C442 C 0.41246 0.93845 0.36551 0.0
O443 O 0.47734 0.91736 0.35477 0.0
O444 O 0.46218 0.90072 0.31688 0.0
O445 O 0.48236 0.97434 0.37081 0.0
O446 O 0.46711 0.95108 0.39791 0.0
O447 O 0.46538 0.93073 0.28426 0.0
O448 O 0.48548 0.94794 0.31798 0.0
O449 O 0.43327 0.95883 0.29195 0.0
O450 O 0.45432 0.97711 0.3233 0.0
O451 O 0.41286 0.92459 0.27341 0.0
O452 O 0.42267 0.89486 0.29172 0.0
C453 C 0.47681 0.90119 0.33689 0.0
O454 O 0.42741 0.95297 0.36741 0.0
O455 O 0.4148 0.92323 0.34683 0.0
C456 C 0.50108 0.96277 0.41149 0.0
C457 C 0.53847 0.9588 0.44338 0.0
C458 C 0.53957 0.96326 0.41441 0.0
C459 C 0.52102 0.96516 0.39854 0.0
C460 C 0.50004 0.95742 0.4401 0.0
C461 C 0.51854 0.95536 0.45588 0.0
C462 C 0.48115 0.96627 0.39607 0.0
C463 C 0.48304 0.93996 0.29254 0.0
C464 C 0.44288 0.97665 0.30001 0.0
C465 C 0.41466 0.89496 0.24341 0.0
C466 C 0.41929 0.87645 0.18973 0.0
C467 C 0.43707 0.8845 0.20418 0.0
C468 C 0.43477 0.89371 0.23082 0.0
C469 C 0.39688 0.88725 0.229 0.0
C470 C 0.39914 0.87808 0.20236 0.0
C471 C 0.41204 0.904 0.27166 0.0
H472 H 0.55475 0.96597 0.40428 0.0
H473 H 0.5223 0.96903 0.37639 0.0
H474 H 0.48484 0.95546 0.4505 0.0
H475 H 0.51716 0.95229 0.47824 0.0
H476 H 0.45276 0.88369 0.19488 0.0
H477 H 0.44866 0.89971 0.24169 0.0
H478 H 0.38125 0.8881 0.2385 0.0
H479 H 0.38519 0.87178 0.19197 0.0
Dy480 Dy 0.17132 0.44511 0.4408 0.0
Dy481 Dy 0.19658 0.41978 0.39384 0.0
C482 C 0.18935 0.39886 0.45532 0.0
O483 O 0.20413 0.4447 0.46052 0.0
O484 O 0.22305 0.43192 0.42288 0.0
O485 O 0.16921 0.46441 0.47809 0.0
O486 O 0.14144 0.45986 0.45189 0.0
O487 O 0.18117 0.44755 0.37099 0.0
O488 O 0.18092 0.46967 0.40813 0.0
O489 O 0.16562 0.4011 0.39269 0.0
O490 O 0.14706 0.41981 0.42621 0.0
O491 O 0.21726 0.42488 0.35843 0.0
O492 O 0.20808 0.3929 0.36985 0.0
C493 C 0.22244 0.4392 0.4491 0.0
O494 O 0.17641 0.41432 0.46227 0.0
O495 O 0.19988 0.39863 0.43134 0.0
C496 C 0.13631 0.46392 0.50089 0.0
C497 C 0.11499 0.45874 0.55252 0.0
C498 C 0.12691 0.44201 0.54096 0.0
C499 C 0.13747 0.44457 0.51528 0.0
C500 C 0.12413 0.48047 0.512 0.0
C501 C 0.11351 0.4779 0.5376 0.0
C502 C 0.14891 0.46758 0.47541 0.0
C503 C 0.18079 0.46707 0.38072 0.0
C504 C 0.14843 0.4035 0.40844 0.0
C505 C 0.24339 0.39883 0.35331 0.0
C506 C 0.28713 0.38983 0.3516 0.0
C507 C 0.27885 0.40683 0.33615 0.0
C508 C 0.25719 0.41118 0.33686 0.0
C509 C 0.25165 0.38184 0.36893 0.0
C510 C 0.27335 0.3773 0.3679 0.0
C511 C 0.22079 0.40472 0.35479 0.0
H512 H 0.12811 0.42698 0.5518 0.0
H513 H 0.14686 0.43164 0.50692 0.0
H514 H 0.12323 0.49555 0.5012 0.0
H515 H 0.10464 0.49114 0.5461 0.0
H516 H 0.28907 0.41645 0.32296 0.0
H517 H 0.25122 0.42432 0.3246 0.0
H518 H 0.24142 0.37212 0.38197 0.0
H519 H 0.27938 0.36405 0.37989 0.0
Dy520 Dy 0.93616 0.92166 0.1907 0.0
Dy521 Dy 0.96262 0.94653 0.14365 0.0
C522 C 0.98272 0.93903 0.20547 0.0
O523 O 0.9365 0.95495 0.20939 0.0
O524 O 0.95162 0.97337 0.17283 0.0
O525 O 0.91708 0.92053 0.22824 0.0
O526 O 0.92066 0.89229 0.20259 0.0
O527 O 0.93359 0.93418 0.11987 0.0
O528 O 0.91173 0.92991 0.15727 0.0
O529 O 0.9797 0.91474 0.1427 0.0
O530 O 0.96134 0.89707 0.1773 0.0
O531 O 0.96113 0.96975 0.1106 0.0
O532 O 0.99068 0.95355 0.11909 0.0
C533 C 0.94318 0.97303 0.19843 0.0
O534 O 0.9673 0.92583 0.21177 0.0
O535 O 0.98288 0.95016 0.18207 0.0
C536 C 0.91685 0.88807 0.25177 0.0
C537 C 0.92194 0.86786 0.30405 0.0
C538 C 0.93907 0.87864 0.29145 0.0
C539 C 0.93654 0.88865 0.26546 0.0
C540 C 0.89988 0.87699 0.26391 0.0
C541 C 0.9024 0.86692 0.28983 0.0
C542 C 0.91333 0.90029 0.22604 0.0
C543 C 0.91423 0.93197 0.12994 0.0
C544 C 0.97739 0.89796 0.15908 0.0
C545 C 0.99242 0.98934 0.10578 0.0
C546 C 1.01043 1.03012 0.10461 0.0
C547 C 1.011 1.01703 0.08056 0.0
C548 C 1.002 0.9968 0.08114 0.0
C549 C 0.99235 1.00203 0.13011 0.0
C550 C 1.00121 1.02235 0.1295 0.0
C551 C 0.98145 0.96887 0.10551 0.0
H552 H 0.95438 0.87939 0.30173 0.0
H553 H 0.9498 0.8972 0.25632 0.0
H554 H 0.88454 0.87657 0.25366 0.0
H555 H 0.88886 0.85893 0.29912 0.0
H556 H 1.01774 1.02271 0.06096 0.0
H557 H 1.00208 0.98719 0.06219 0.0
H558 H 0.98507 0.99637 0.14936 0.0
H559 H 1.0007 1.03205 0.14836 0.0
Dy560 Dy 0.4577 0.69045 0.93958 0.0
Dy561 Dy 0.43192 0.71676 0.89314 0.0
C562 C 0.44064 0.73675 0.95481 0.0
O563 O 0.42427 0.6909 0.95827 0.0
O564 O 0.40519 0.70445 0.9214 0.0
O565 O 0.45835 0.67182 0.97753 0.0
O566 O 0.48664 0.67463 0.95168 0.0
O567 O 0.44198 0.68715 0.86887 0.0
O568 O 0.4515 0.66596 0.90527 0.0
O569 O 0.46427 0.73323 0.8912 0.0
O570 O 0.48225 0.71565 0.92609 0.0
O571 O 0.41113 0.71536 0.85732 0.0
O572 O 0.42252 0.74575 0.87228 0.0
C573 C 0.4059 0.69666 0.94725 0.0
O574 O 0.45478 0.72203 0.95989 0.0
O575 O 0.42829 0.73614 0.93251 0.0
C576 C 0.49106 0.66912 1.00066 0.0
C577 C 0.51417 0.67174 0.05123 0.0
C578 C 0.51322 0.68924 0.0329 0.0
C579 C 0.50167 0.68795 0.0078 0.0
C580 C 0.49191 0.65173 0.01884 0.0
C581 C 0.50332 0.65301 0.04392 0.0
C582 C 0.4784 0.66727 0.97494 0.0
C583 C 0.44686 0.66822 0.87848 0.0
C584 C 0.48121 0.73133 0.90749 0.0
C585 C 0.38789 0.74394 0.85375 0.0
C586 C 0.34523 0.75567 0.8471 0.0
C587 C 0.35154 0.74401 0.87079 0.0
C588 C 0.37277 0.73826 0.87415 0.0
C589 C 0.38179 0.75605 0.83055 0.0
C590 C 0.36063 0.76193 0.82726 0.0
C591 C 0.4096 0.73587 0.85531 0.0
H592 H 0.52156 0.70382 0.03778 0.0
H593 H 0.50102 0.7016 0.99403 0.0
H594 H 0.48359 0.63716 0.01373 0.0
H595 H 0.50338 0.6394 0.05776 0.0
H596 H 0.34004 0.73914 0.88649 0.0
H597 H 0.37728 0.72892 0.89224 0.0
H598 H 0.39328 0.76043 0.81456 0.0
H599 H 0.35619 0.77069 0.8086 0.0
Dy600 Dy 0.69305 0.21137 0.6913 0.0
Dy601 Dy 0.66642 0.18577 0.64464 0.0
C602 C 0.64668 0.19413 0.70643 0.0
O603 O 0.69234 0.17793 0.7097 0.0
O604 O 0.67866 0.15903 0.67252 0.0
O605 O 0.71133 0.21227 0.72952 0.0
O606 O 0.70915 0.24033 0.70347 0.0
O607 O 0.69594 0.1963 0.62052 0.0
O608 O 0.71751 0.20468 0.65718 0.0
O609 O 0.64985 0.21788 0.64337 0.0
O610 O 0.66817 0.23602 0.6777 0.0
O611 O 0.66774 0.1647 0.60899 0.0
O612 O 0.63745 0.17675 0.62324 0.0
C613 C 0.68644 0.15963 0.69839 0.0
O614 O 0.66141 0.20839 0.71143 0.0
O615 O 0.64718 0.18179 0.68404 0.0
C616 C 0.71314 0.2451 0.75253 0.0
C617 C 0.70872 0.26759 0.80345 0.0
C618 C 0.69073 0.25947 0.7895 0.0
C619 C 0.69294 0.24825 0.76421 0.0
C620 C 0.73104 0.25336 0.76613 0.0
C621 C 0.72887 0.26452 0.79138 0.0
C622 C 0.71601 0.2323 0.72704 0.0
C623 C 0.71506 0.20054 0.63024 0.0
C624 C 0.65219 0.2349 0.65949 0.0
C625 C 0.63868 0.14197 0.60524 0.0
C626 C 0.62634 0.09932 0.59976 0.0
C627 C 0.63546 0.10664 0.62498 0.0
C628 C 0.64153 0.12787 0.62773 0.0
C629 C 0.62917 0.13487 0.58036 0.0
C630 C 0.62301 0.11372 0.57763 0.0
C631 C 0.6472 0.16352 0.60659 0.0
H632 H 0.67502 0.26143 0.7984 0.0
H633 H 0.67897 0.24179 0.75399 0.0
H634 H 0.74674 0.25099 0.75735 0.0
H635 H 0.74297 0.27087 0.80135 0.0
H636 H 0.63807 0.09593 0.64241 0.0
H637 H 0.64889 0.13318 0.6471 0.0
H638 H 0.62706 0.14555 0.56275 0.0
H639 H 0.61632 0.10849 0.55779 0.0
H640 H 0.48446 0.27012 0.12331 0.0
H641 H 0.51093 0.29878 0.1237 0.0
H642 H 0.54625 0.2666 0.05884 0.0
H643 H 0.51953 0.23829 0.05786 0.0
H644 H 0.55018 0.30499 0.13608 0.0
H645 H 0.54793 0.32234 0.02248 0.0
H646 H 0.52926 0.30444 0.03872 0.0
H647 H 0.55534 0.29538 0.02876 0.0
C648 C 0.49783 0.26898 0.10904 0.0
C649 C 0.49936 0.25137 0.09052 0.0
C650 C 0.51321 0.28566 0.10925 0.0
C651 C 0.53097 0.28582 0.09084 0.0
C652 C 0.53273 0.26793 0.0728 0.0
H653 H 0.60707 0.40556 0.06363 0.0
H654 H 0.57995 0.37743 0.06416 0.0
C655 C 0.51732 0.2513 0.07249 0.0
C656 C 0.54749 0.30426 0.09094 0.0
H657 H 0.57614 0.33838 0.0482 0.0
C658 C 0.5557 0.31217 0.11668 0.0
C659 C 0.555 0.31463 0.06608 0.0
C660 C 0.54628 0.30895 0.03748 0.0
C661 C 0.57088 0.32911 0.11824 0.0
C662 C 0.57912 0.33882 0.09331 0.0
C663 C 0.57057 0.33124 0.0676 0.0
C664 C 0.59615 0.3568 0.09342 0.0
C665 C 0.57735 0.33684 0.14706 0.0
C666 C 0.61512 0.35545 0.10931 0.0
C667 C 0.63075 0.37186 0.10922 0.0
C668 C 0.62852 0.39056 0.093 0.0
C669 C 0.60968 0.39184 0.07681 0.0
C670 C 0.59399 0.37542 0.07698 0.0
H671 H 0.56494 0.33331 0.16304 0.0
H672 H 0.59204 0.32856 0.15357 0.0
H673 H 0.58041 0.35418 0.14717 0.0
H674 H 0.61822 0.34139 0.12157 0.0
H675 H 0.64492 0.36961 0.12169 0.0
H676 H 0.64795 0.77648 0.31128 0.0
H677 H 0.61971 0.80327 0.31144 0.0
H678 H 0.585 0.76663 0.37254 0.0
H679 H 0.61343 0.74035 0.37312 0.0
H680 H 0.58081 0.80664 0.29689 0.0
H681 H 0.57674 0.82067 0.41126 0.0
H682 H 0.59747 0.80493 0.39565 0.0
H683 H 0.57189 0.79333 0.40323 0.0
C684 C 0.63452 0.77419 0.32521 0.0
C685 C 0.6337 0.75595 0.34259 0.0
C686 C 0.61803 0.78969 0.32516 0.0
C687 C 0.59973 0.7879 0.34249 0.0
C688 C 0.59882 0.76949 0.35955 0.0
H689 H 0.5128 0.89889 0.37107 0.0
H690 H 0.5414 0.87263 0.37155 0.0
C691 C 0.61534 0.75409 0.35974 0.0
C692 C 0.58164 0.80471 0.3421 0.0
H693 H 0.548 0.83425 0.38439 0.0
C694 C 0.57381 0.81258 0.31622 0.0
C695 C 0.57209 0.81344 0.36688 0.0
C696 C 0.58012 0.80785 0.3958 0.0
C697 C 0.55717 0.82797 0.31441 0.0
C698 C 0.54693 0.83595 0.33918 0.0
C699 C 0.55505 0.82838 0.36506 0.0
C700 C 0.52849 0.85237 0.33886 0.0
C701 C 0.55135 0.83604 0.2856 0.0
C702 C 0.51061 0.85046 0.32085 0.0
C703 C 0.49402 0.86583 0.32042 0.0
C704 C 0.49408 0.88383 0.33836 0.0
C705 C 0.51166 0.88548 0.35687 0.0
C706 C 0.52831 0.8702 0.35714 0.0
H707 H 0.5647 0.83421 0.27048 0.0
H708 H 0.53777 0.82667 0.27736 0.0
H709 H 0.5468 0.85302 0.28629 0.0
H710 H 0.50925 0.83688 0.30702 0.0
H711 H 0.48104 0.86354 0.30581 0.0
H712 H 0.1419 0.87186 0.62146 0.0
H713 H 0.11539 0.84324 0.62188 0.0
H714 H 0.08231 0.87321 0.55362 0.0
H715 H 0.10864 0.90196 0.55338 0.0
H716 H 0.10309 0.81275 0.58699 0.0
H717 H 1.03185 0.86219 0.60189 0.0
H718 H 1.0466 0.86949 0.57106 0.0
H719 H 1.05829 0.87287 0.60538 0.0
C720 C 0.12888 0.87266 0.60668 0.0
C721 C 0.12771 0.88991 0.58766 0.0
C722 C 0.11354 0.85596 0.60682 0.0
C723 C 0.09602 0.85561 0.58816 0.0
C724 C 0.09493 0.87279 0.56901 0.0
H725 H 0.98828 0.766 0.62431 0.0
H726 H 1.01486 0.79454 0.62433 0.0
C727 C 0.11031 0.88946 0.56878 0.0
C728 C 0.07947 0.83726 0.58839 0.0
H729 H 1.02571 0.82599 0.59042 0.0
C730 C 0.08619 0.81586 0.58774 0.0
C731 C 1.05706 0.84047 0.58981 0.0
C732 C 1.04797 0.86246 0.59237 0.0
C733 C 0.07174 0.79827 0.58793 0.0
C734 C 1.04931 0.80149 0.58846 0.0
C735 C 1.0426 0.82288 0.58965 0.0
C736 C 1.03274 0.78315 0.58843 0.0
C737 C 0.08089 0.77623 0.58841 0.0
C738 C 1.03298 0.76653 0.56823 0.0
C739 C 1.01755 0.7499 0.56821 0.0
C740 C 1.00097 0.74892 0.58839 0.0
C741 C 1.00066 0.76561 0.60848 0.0
C742 C 1.01603 0.78227 0.60841 0.0
H743 H 0.09738 0.77623 0.59663 0.0
H744 H 0.07112 0.76543 0.60158 0.0
H745 H 0.08133 0.76984 0.56662 0.0
H746 H 1.04494 0.76655 0.55186 0.0
H747 H 1.01853 0.73785 0.55198 0.0
H748 H 0.98077 0.36273 0.80601 0.0
H749 H 1.00926 0.33624 0.80701 0.0
H750 H 1.0418 0.37292 0.87028 0.0
H751 H 1.01304 0.39886 0.87008 0.0
H752 H 1.04826 0.33311 0.79424 0.0
H753 H 1.04966 0.319 0.90858 0.0
H754 H 1.02922 0.33464 0.89236 0.0
H755 H 1.05455 0.34637 0.90103 0.0
C756 C 0.99378 0.3651 0.82055 0.0
C757 C 0.9939 0.38319 0.83833 0.0
C758 C 1.0104 0.34977 0.82102 0.0
C759 C 1.02814 0.35165 0.83924 0.0
C760 C 1.02839 0.36997 0.85663 0.0
H761 H 0.11517 0.24127 0.86992 0.0
H762 H 0.08635 0.26733 0.86977 0.0
C763 C 1.0117 0.38518 0.85635 0.0
C764 C 1.04634 0.335 0.83941 0.0
H765 H 0.07914 0.30566 0.88267 0.0
C766 C 1.05482 0.32719 0.81376 0.0
C767 C 1.05534 0.32631 0.86447 0.0
C768 C 1.04658 0.33182 0.89313 0.0
C769 C 0.07157 0.31189 0.81244 0.0
C770 C 0.08126 0.30398 0.8375 0.0
C771 C 0.0725 0.31149 0.86314 0.0
C772 C 0.0998 0.28772 0.8377 0.0
C773 C 0.07806 0.30383 0.78377 0.0
C774 C 0.11802 0.28981 0.8203 0.0
C775 C 0.13471 0.27457 0.82021 0.0
C776 C 0.13439 0.25654 0.83794 0.0
C777 C 0.11649 0.25473 0.85591 0.0
C778 C 0.09972 0.26988 0.85581 0.0
H779 H 1.06502 0.30552 0.76825 0.0
H780 H 0.09173 0.31331 0.77602 0.0
H781 H 0.08274 0.28689 0.78451 0.0
H782 H 0.11958 0.30344 0.80668 0.0
H783 H 0.14797 0.27699 0.80604 0.0
H784 H 0.6449 0.86608 0.8764 0.0
H785 H 0.61797 0.83796 0.87673 0.0
H786 H 0.58049 0.87425 0.93528 0.0
H787 H 0.60774 0.90216 0.93559 0.0
H788 H 0.57949 0.83156 0.86172 0.0
H789 H 0.5758 0.82074 0.97677 0.0
H790 H 0.56916 0.8473 0.96697 0.0
H791 H 0.59554 0.83743 0.96047 0.0
C792 C 0.63096 0.86828 0.88942 0.0
C793 C 0.629 0.88694 0.90596 0.0
C794 C 0.61529 0.85188 0.88962 0.0
C795 C 0.59676 0.85303 0.90652 0.0
C796 C 0.59456 0.87194 0.92258 0.0
H797 H 0.51903 0.73504 0.93845 0.0
H798 H 0.54608 0.76322 0.93762 0.0
C799 C 0.61028 0.88833 0.92246 0.0
C800 C 0.57998 0.8348 0.90682 0.0
H801 H 0.54906 0.80316 0.95018 0.0
C802 C 0.57298 0.8255 0.88125 0.0
C803 C 0.57115 0.82586 0.93192 0.0
C804 C 0.57843 0.83316 0.96059 0.0
C805 C 0.55781 0.80853 0.88002 0.0
C806 C 0.54832 0.80019 0.90506 0.0
C807 C 0.55561 0.80921 0.93066 0.0
C808 C 0.53131 0.78218 0.9052 0.0
C809 C 0.55272 0.79924 0.85152 0.0
C810 C 0.51314 0.78257 0.88763 0.0
C811 C 0.49754 0.76612 0.88792 0.0
C812 C 0.49901 0.74833 0.90598 0.0
C813 C 0.51704 0.74801 0.92382 0.0
C814 C 0.53269 0.76447 0.92348 0.0
H815 H 0.56585 0.80196 0.8363 0.0
H816 H 0.54966 0.78193 0.85281 0.0
H817 H 0.53837 0.80708 0.84303 0.0
H818 H 0.51063 0.79594 0.87385 0.0
H819 H 0.48399 0.76763 0.8741 0.0
H820 H 0.48401 0.36199 0.69305 0.0
H821 H 0.51231 0.33528 0.69201 0.0
H822 H 0.54353 0.36966 0.62553 0.0
H823 H 0.51497 0.39582 0.62585 0.0
H824 H 0.55181 0.33232 0.703 0.0
H825 H 0.5498 0.31438 0.58946 0.0
H826 H 0.55508 0.34194 0.59544 0.0
H827 H 0.52994 0.3307 0.60601 0.0
C828 C 0.49668 0.3638 0.67782 0.0
C829 C 0.49648 0.38133 0.6592 0.0
C830 C 0.5132 0.34835 0.67732 0.0
C831 C 0.53051 0.3495 0.6582 0.0
C832 C 0.53045 0.36726 0.63995 0.0
H833 H 0.61458 0.23677 0.6286 0.0
H834 H 0.58645 0.26347 0.62913 0.0
C835 C 0.51387 0.38261 0.64028 0.0
C836 C 0.54857 0.33267 0.65792 0.0
H837 H 0.57975 0.30146 0.61444 0.0
C838 C 0.55773 0.32566 0.68345 0.0
C839 C 0.55675 0.32304 0.63286 0.0
C840 C 0.54724 0.32771 0.60444 0.0
C841 C 0.57437 0.31023 0.68464 0.0
C842 C 0.5832 0.30131 0.6595 0.0
C843 C 0.57377 0.30805 0.634 0.0
C844 C 0.60143 0.28467 0.65909 0.0
C845 C 0.5817 0.30313 0.7133 0.0
C846 C 0.62029 0.28694 0.67517 0.0
C847 C 0.63665 0.27132 0.675 0.0
C848 C 0.63531 0.25267 0.65835 0.0
C849 C 0.61673 0.25067 0.64173 0.0
C850 C 0.60034 0.26621 0.64204 0.0
H851 H 0.56925 0.30569 0.72955 0.0
H852 H 0.58602 0.28609 0.71325 0.0
H853 H 0.59581 0.31258 0.71956 0.0
H854 H 0.62259 0.30098 0.68793 0.0
H855 H 0.65043 0.27389 0.68818 0.0
H856 H 1.0203 0.23554 0.44135 0.0
H857 H 1.04726 0.26376 0.44026 0.0
H858 H 1.01261 0.29518 0.37456 0.0
H859 H 0.98611 0.26672 0.37497 0.0
H860 H 1.0503 0.3034 0.45168 0.0
H861 H 1.068 0.30109 0.33806 0.0
H862 H 1.04048 0.30637 0.34423 0.0
H863 H 1.0516 0.28127 0.35464 0.0
C864 C 1.01846 0.24824 0.42627 0.0
C865 C 1.00074 0.24815 0.40792 0.0
C866 C 1.03407 0.26471 0.42576 0.0
C867 C 1.0329 0.28205 0.40685 0.0
C868 C 1.01498 0.28207 0.38882 0.0
H869 H 0.14667 0.36555 0.37801 0.0
H870 H 0.11972 0.33744 0.37838 0.0
C871 C 0.99946 0.26557 0.38921 0.0
C872 C 1.04989 0.30004 0.40659 0.0
H873 H 0.08142 0.33094 0.36316 0.0
C874 C 1.05701 0.30925 0.43214 0.0
C875 C 1.05957 0.30811 0.38154 0.0
C876 C 1.05472 0.29856 0.35311 0.0
C877 C 0.0726 0.32583 0.43335 0.0
C878 C 0.0816 0.33453 0.40822 0.0
C879 C 0.07476 0.32506 0.3827 0.0
C880 C 0.0984 0.3527 0.40787 0.0
C881 C 0.07977 0.33328 0.46201 0.0
C882 C 0.09613 0.37168 0.42374 0.0
C883 C 0.11186 0.38803 0.42363 0.0
C884 C 0.13065 0.38653 0.40729 0.0
C885 C 0.13267 0.36781 0.3909 0.0
C886 C 0.117 0.35143 0.39112 0.0
H887 H 0.07706 0.32094 0.47829 0.0
H888 H 0.09687 0.33753 0.46199 0.0
H889 H 0.07046 0.34745 0.4682 0.0
H890 H 0.08199 0.37408 0.43627 0.0
H891 H 0.10926 0.40193 0.4366 0.0
H892 H 0.11407 0.73735 0.12495 0.0
H893 H 0.08611 0.76429 0.12492 0.0
H894 H 0.11818 0.79774 0.19162 0.0
H895 H 0.14642 0.77104 0.19125 0.0
H896 H 1.05651 0.77732 0.15848 0.0
H897 H 0.10703 0.84816 0.14529 0.0
H898 H 0.11747 0.82172 0.14179 0.0
H899 H 0.11401 0.83347 0.17614 0.0
C900 C 0.1155 0.75056 0.13944 0.0
C901 C 0.13321 0.7517 0.15778 0.0
C902 C 0.09916 0.76616 0.13953 0.0
C903 C 0.09955 0.78393 0.15787 0.0
C904 C 0.11718 0.78499 0.1764 0.0
H905 H 1.01289 0.89378 0.12418 0.0
H906 H 1.04084 0.86683 0.12408 0.0
C907 C 0.13357 0.76938 0.17629 0.0
C908 C 0.08144 0.80069 0.15793 0.0
H909 H 0.07095 0.85452 0.15705 0.0
C910 C 1.0599 0.79418 0.15815 0.0
C911 C 0.08496 0.82308 0.15703 0.0
C912 C 0.10709 0.83207 0.15475 0.0
C913 C 1.04249 0.80876 0.15793 0.0
C914 C 1.04602 0.83116 0.15803 0.0
C915 C 1.06756 0.83767 0.15735 0.0
C916 C 1.02791 0.84792 0.15803 0.0
C917 C 1.02034 0.79972 0.15664 0.0
C918 C 1.01056 0.84728 0.17714 0.0
C919 C 0.99418 0.86288 0.17708 0.0
C920 C 0.99425 0.88015 0.15804 0.0
C921 C 1.01168 0.88089 0.13911 0.0
C922 C 1.02802 0.86528 0.13915 0.0
H923 H 1.02026 0.78343 0.14768 0.0
H924 H 1.01375 0.79879 0.17829 0.0
H925 H 1.00975 0.80978 0.14371 0.0
H926 H 1.00979 0.83486 0.19276 0.0
H927 H 0.98155 0.86155 0.19248 0.0
H928 H 0.25107 0.23032 0.86699 0.0
H929 H 0.28272 0.22882 0.89696 0.0
H930 H 0.25818 0.17263 0.93689 0.0
H931 H 0.22688 0.17375 0.90641 0.0
H932 H 0.29167 0.23251 0.94969 0.0
H933 H 0.31582 0.15079 0.92387 0.0
H934 H 0.29502 0.16408 0.90493 0.0
H935 H 0.28951 0.15147 0.9382 0.0
C936 C 0.25237 0.21749 0.88199 0.0
C937 C 0.23605 0.20207 0.88368 0.0
C938 C 0.27069 0.21665 0.8994 0.0
C939 C 0.27372 0.20031 0.91936 0.0
C940 C 0.25719 0.18511 0.92139 0.0
H941 H 0.40264 0.18272 0.99557 0.0
H942 H 0.37134 0.18333 0.96475 0.0
C943 C 0.23892 0.18588 0.90389 0.0
C944 C 0.29367 0.19956 0.93821 0.0
H945 H 0.33321 0.16679 0.96309 0.0
C946 C 0.30065 0.21804 0.95242 0.0
C947 C 0.30626 0.18101 0.942 0.0
C948 C 0.30143 0.16079 0.92622 0.0
C949 C 0.31894 0.21842 0.97013 0.0
C950 C 0.33094 0.19964 0.97496 0.0
C951 C 0.32426 0.18127 0.96027 0.0
C952 C 0.35044 0.19881 0.99458 0.0
C953 C 0.32553 0.23939 0.98278 0.0
C954 C 0.34983 0.20677 0.02247 0.0
C955 C 0.36792 0.20648 0.04026 0.0
C956 C 0.38756 0.19793 0.03131 0.0
C957 C 0.38806 0.18943 0.00369 0.0
C958 C 0.36994 0.1898 0.98582 0.0
H959 H 0.31952 0.25292 0.9702 0.0
H960 H 0.31871 0.2408 0.00426 0.0
H961 H 0.34305 0.24077 0.98426 0.0
H962 H 0.33521 0.21322 0.03076 0.0
H963 H 0.36645 0.21314 0.06121 0.0
H964 H 0.6833 0.51344 0.10603 0.0
H965 H 0.68489 0.54444 0.13712 0.0
H966 H 0.67721 0.50384 0.20921 0.0
H967 H 0.67648 0.47269 0.17812 0.0
H968 H 0.66045 0.5645 0.17052 0.0
H969 H 0.72422 0.53677 0.2407 0.0
H970 H 0.71713 0.52258 0.2091 0.0
H971 H 0.70198 0.51903 0.24102 0.0
C972 C 0.68206 0.51094 0.12853 0.0
C973 C 0.67989 0.49009 0.13914 0.0
C974 C 0.68295 0.52894 0.14655 0.0
C975 C 0.68171 0.52712 0.1762 0.0
C976 C 0.67904 0.50628 0.1868 0.0
H977 H 0.67689 0.62122 0.3176 0.0
H978 H 0.67592 0.58936 0.28772 0.0
C979 C 0.67836 0.48821 0.16875 0.0
C980 C 0.68274 0.5469 0.19548 0.0
H981 H 0.70586 0.56774 0.25549 0.0
C982 C 0.67057 0.56505 0.18894 0.0
C983 C 0.69581 0.5484 0.21995 0.0
C984 C 0.71069 0.53076 0.22798 0.0
C985 C 0.67078 0.58383 0.20581 0.0
C986 C 0.68372 0.58522 0.23033 0.0
C987 C 0.69581 0.56711 0.237 0.0
C988 C 0.68491 0.60516 0.2491 0.0
C989 C 0.65658 0.60193 0.19746 0.0
C990 C 0.69072 0.62522 0.23824 0.0
C991 C 0.6915 0.64364 0.25555 0.0
C992 C 0.68648 0.64294 0.28461 0.0
C993 C 0.68095 0.62279 0.29554 0.0
C994 C 0.68037 0.60434 0.27826 0.0
H995 H 0.64353 0.59656 0.18341 0.0
H996 H 0.64953 0.60972 0.21626 0.0
H997 H 0.66608 0.61393 0.18588 0.0
H998 H 0.69479 0.62672 0.21619 0.0
H999 H 0.69578 0.65859 0.24591 0.0
H1000 H 0.3767 0.91233 0.36559 0.0
H1001 H 0.34496 0.91391 0.39551 0.0
H1002 H 0.37129 0.96759 0.43962 0.0
H1003 H 0.40276 0.96639 0.40925 0.0
H1004 H 0.33576 0.90863 0.44813 0.0
H1005 H 0.31445 0.99189 0.42767 0.0
H1006 H 0.33487 0.97852 0.40788 0.0
H1007 H 0.34064 0.98977 0.44198 0.0
C1008 C 0.3758 0.92462 0.38152 0.0
C1009 C 0.39268 0.93932 0.38443 0.0
C1010 C 0.35741 0.9255 0.39889 0.0
C1011 C 0.35488 0.94118 0.42002 0.0
C1012 C 0.37194 0.95566 0.42324 0.0
H1013 H 0.22587 0.95988 0.49614 0.0
H1014 H 0.25742 0.95942 0.46559 0.0
C1015 C 0.3903 0.95483 0.40579 0.0
C1016 C 0.33485 0.94196 0.4388 0.0
H1017 H 0.29613 0.97511 0.46549 0.0
C1018 C 0.3272 0.92327 0.45174 0.0
C1019 C 0.32282 0.96076 0.44372 0.0
C1020 C 0.32845 0.98132 0.42936 0.0
C1021 C 0.30878 0.92288 0.46929 0.0
C1022 C 0.29731 0.94185 0.4752 0.0
C1023 C 0.30467 0.96047 0.46179 0.0
C1024 C 0.27768 0.94263 0.4947 0.0
C1025 C 0.30148 0.90176 0.48058 0.0
C1026 C 0.27788 0.93389 0.5221 0.0
C1027 C 0.25966 0.93411 0.53973 0.0
C1028 C 0.2403 0.94335 0.53111 0.0
C1029 C 0.24022 0.95263 0.50399 0.0
C1030 C 0.25849 0.95234 0.48628 0.0
H1031 H 0.30722 0.88844 0.46725 0.0
H1032 H 0.30805 0.89952 0.50203 0.0
H1033 H 0.28391 0.90084 0.4818 0.0
H1034 H 0.29228 0.92686 0.53012 0.0
H1035 H 0.26079 0.92683 0.56029 0.0
H1036 H 0.91823 0.65753 0.66084 0.0
H1037 H 0.91741 0.62609 0.69122 0.0
H1038 H 0.97108 0.60051 0.64655 0.0
H1039 H 0.97228 0.6321 0.61671 0.0
H1040 H 0.91044 0.58554 0.68564 0.0
H1041 H 0.99308 0.5907 0.72313 0.0
H1042 H 0.98105 0.61166 0.70308 0.0
H1043 H 0.99187 0.58874 0.68551 0.0
C1044 C 0.93001 0.64533 0.65748 0.0
C1045 C 0.94546 0.6479 0.63606 0.0
C1046 C 0.9295 0.62709 0.67504 0.0
C1047 C 0.94446 0.61051 0.6722 0.0
C1048 C 0.95965 0.61293 0.65041 0.0
H1049 H 0.95845 0.51629 0.81088 0.0
H1050 H 0.95813 0.54774 0.78075 0.0
C1051 C 0.96022 0.63119 0.63293 0.0
C1052 C 0.94389 0.59082 0.69146 0.0
H1053 H 0.97474 0.55861 0.7333 0.0
C1054 C 0.92461 0.5798 0.69601 0.0
C1055 C 0.96203 0.58292 0.70594 0.0
C1056 C 0.98312 0.59423 0.70445 0.0
C1057 C 0.92304 0.56152 0.71361 0.0
C1058 C 0.94135 0.55313 0.72719 0.0
C1059 C 0.96055 0.56437 0.72302 0.0
C1060 C 0.94095 0.53329 0.74621 0.0
C1061 C 0.9014 0.55183 0.7181 0.0
C1062 C 0.93156 0.51386 0.73768 0.0
C1063 C 0.93155 0.49563 0.75528 0.0
C1064 C 0.94114 0.4958 0.78221 0.0
C1065 C 0.95068 0.51517 0.79062 0.0
C1066 C 0.9506 0.53339 0.77309 0.0
H1067 H 0.88858 0.56352 0.71424 0.0
H1068 H 0.89916 0.53854 0.70302 0.0
H1069 H 0.8996 0.54563 0.73983 0.0
H1070 H 0.92451 0.51254 0.71699 0.0
H1071 H 0.9243 0.4812 0.74743 0.0
H1072 H 0.72594 0.94377 0.00598 0.0
H1073 H 0.75816 0.94264 0.03487 0.0
H1074 H 0.79576 0.93215 0.96041 0.0
H1075 H 0.76355 0.93324 0.93139 0.0
H1076 H 0.78772 0.91165 0.04481 0.0
H1077 H 0.83033 0.97913 0.99627 0.0
H1078 H 0.80255 0.97407 0.98985 0.0
H1079 H 0.82248 0.95898 0.97159 0.0
C1080 C 0.74103 0.94145 0.99551 0.0
C1081 C 0.7417 0.93888 0.96587 0.0
C1082 C 0.75968 0.9407 0.01229 0.0
C1083 C 0.78 0.93764 1.00032 0.0
C1084 C 0.7807 0.93504 0.97069 0.0
H1085 H 0.9119 0.93254 0.071 0.0
H1086 H 0.88037 0.93319 0.04057 0.0
C1087 C 0.76202 0.93559 0.9539 0.0
C1088 C 0.80008 0.93664 0.0188 0.0
H1089 H 0.84969 0.95873 0.02909 0.0
C1090 C 0.80117 0.92208 0.04129 0.0
C1091 C 0.81817 0.94992 0.01472 0.0
C1092 C 0.81836 0.96655 0.99199 0.0
C1093 C 0.81939 0.92015 0.05894 0.0
C1094 C 0.8374 0.9337 0.05522 0.0
C1095 C 0.83631 0.94821 0.03259 0.0
C1096 C 0.85723 0.93314 0.07436 0.0
C1097 C 0.81928 0.90286 0.08079 0.0
C1098 C 0.85566 0.9332 0.10411 0.0
C1099 C 0.87386 0.93255 0.12168 0.0
C1100 C 0.89471 0.93222 0.11054 0.0
C1101 C 0.89638 0.93262 0.08081 0.0
C1102 C 0.8781 0.93308 0.06318 0.0
H1103 H 0.8085 0.88965 0.07468 0.0
H1104 H 0.83539 0.89628 0.08409 0.0
H1105 H 0.81338 0.9094 0.10105 0.0
H1106 H 0.84023 0.93406 0.11404 0.0
H1107 H 0.87151 0.93259 0.14428 0.0
H1108 H 0.46469 0.62842 0.88675 0.0
H1109 H 0.46425 0.59714 0.85604 0.0
H1110 H 0.42678 0.63132 0.79561 0.0
H1111 H 0.42831 0.66295 0.82559 0.0
H1112 H 0.43902 0.57011 0.838 0.0
H1113 H 0.46482 0.6082 0.73947 0.0
H1114 H 0.465 0.62225 0.77251 0.0
H1115 H 0.44089 0.62011 0.75217 0.0
C1116 C 0.45656 0.62948 0.86674 0.0
C1117 C 0.44681 0.64876 0.85891 0.0
C1118 C 0.45621 0.61129 0.84897 0.0
C1119 C 0.44591 0.61128 0.82247 0.0
C1120 C 0.43572 0.63046 0.81498 0.0
H1121 H 0.47164 0.50961 0.69576 0.0
H1122 H 0.47156 0.541 0.72607 0.0
C1123 C 0.43641 0.64879 0.83253 0.0
C1124 C 0.44544 0.59124 0.80349 0.0
H1125 H 0.45056 0.57342 0.73496 0.0
C1126 C 0.44168 0.57105 0.81548 0.0
C1127 C 0.44923 0.59151 0.77382 0.0
C1128 C 0.45544 0.61163 0.75878 0.0
C1129 C 0.44141 0.55188 0.79934 0.0
C1130 C 0.44412 0.55229 0.76947 0.0
C1131 C 0.4481 0.57246 0.75752 0.0
C1132 C 0.44381 0.53227 0.75046 0.0
C1133 C 0.43906 0.53126 0.81505 0.0
C1134 C 0.42817 0.51612 0.75281 0.0
C1135 C 0.42843 0.49763 0.73547 0.0
C1136 C 0.44398 0.49461 0.71432 0.0
C1137 C 0.45923 0.51101 0.71145 0.0
C1138 C 0.45918 0.52927 0.72905 0.0
H1139 H 0.44439 0.53285 0.83725 0.0
H1140 H 0.42208 0.52658 0.81545 0.0
H1141 H 0.44836 0.5184 0.80493 0.0
H1142 H 0.41547 0.51777 0.76798 0.0
H1143 H 0.41625 0.48571 0.73858 0.0
H1144 H 0.7553 0.21768 0.63866 0.0
H1145 H 0.7865 0.21689 0.60778 0.0
H1146 H 0.75121 0.18029 0.54697 0.0
H1147 H 0.7197 0.18222 0.57709 0.0
H1148 H 0.81288 0.19139 0.58924 0.0
H1149 H 0.77494 0.21818 0.4913 0.0
H1150 H 0.76101 0.21841 0.52442 0.0
H1151 H 0.76252 0.19441 0.50368 0.0
C1152 C 0.75399 0.20968 0.61853 0.0
C1153 C 0.73445 0.2003 0.61061 0.0
C1154 C 0.77212 0.20912 0.60066 0.0
C1155 C 0.77179 0.19896 0.57402 0.0
C1156 C 0.75234 0.18912 0.56646 0.0
H1157 H 0.89647 0.16797 0.48894 0.0
H1158 H 0.86456 0.16747 0.51865 0.0
C1159 C 0.73408 0.19004 0.58408 0.0
C1160 C 0.79174 0.19826 0.55493 0.0
H1161 H 0.80936 0.20331 0.48637 0.0
C1162 C 0.81191 0.19414 0.56676 0.0
C1163 C 0.79141 0.20216 0.52532 0.0
C1164 C 0.77136 0.20877 0.51049 0.0
C1165 C 0.83101 0.19365 0.5505 0.0
C1166 C 0.83051 0.19646 0.52067 0.0
C1167 C 0.81037 0.20077 0.50889 0.0
C1168 C 0.85043 0.19597 0.50152 0.0
C1169 C 0.85166 0.19096 0.56605 0.0
C1170 C 0.85356 0.21132 0.48024 0.0
C1171 C 0.8717 0.21119 0.46246 0.0
C1172 C 0.88785 0.19579 0.46503 0.0
C1173 C 0.88473 0.18026 0.48608 0.0
C1174 C 0.86634 0.18017 0.50359 0.0
H1175 H 0.85027 0.19623 0.58833 0.0
H1176 H 0.85598 0.17393 0.56621 0.0
H1177 H 0.86468 0.2001 0.55598 0.0
H1178 H 0.84203 0.22382 0.4775 0.0
H1179 H 0.8732 0.2236 0.44686 0.0
H1180 H 0.184 0.50986 0.39413 0.0
H1181 H 0.1847 0.54082 0.363 0.0
H1182 H 0.1786 0.49979 0.29085 0.0
H1183 H 0.17788 0.46872 0.32198 0.0
H1184 H 0.21173 0.55399 0.3215 0.0
H1185 H 0.13316 0.54241 0.27197 0.0
H1186 H 0.14122 0.52783 0.30276 0.0
H1187 H 0.15043 0.52 0.26841 0.0
C1188 C 0.18266 0.50727 0.37165 0.0
C1189 C 0.18072 0.48635 0.36102 0.0
C1190 C 0.18312 0.52521 0.35364 0.0
C1191 C 0.18137 0.52324 0.32407 0.0
C1192 C 0.1795 0.50233 0.31337 0.0
H1193 H 0.17738 0.61709 0.18253 0.0
H1194 H 0.17728 0.58501 0.21182 0.0
C1195 C 0.17922 0.48433 0.33139 0.0
C1196 C 0.18203 0.54286 0.30479 0.0
H1197 H 0.15481 0.56956 0.25286 0.0
C1198 C 0.19916 0.55731 0.30662 0.0
C1199 C 0.16592 0.54771 0.28482 0.0
C1200 C 0.14653 0.53382 0.28194 0.0
C1201 C 0.20083 0.57568 0.28924 0.0
C1202 C 0.18454 0.58076 0.26953 0.0
C1203 C 0.16745 0.56622 0.26763 0.0
C1204 C 0.18486 0.60089 0.25105 0.0
C1205 C 0.22065 0.58901 0.29167 0.0
C1206 C 0.18886 0.62125 0.2625 0.0
C1207 C 0.18917 0.63976 0.24554 0.0
C1208 C 0.18518 0.63899 0.21622 0.0
C1209 C 0.18079 0.61869 0.20477 0.0
C1210 C 0.18062 0.60012 0.22177 0.0
H1211 H 0.23423 0.57955 0.29956 0.0
H1212 H 0.2252 0.59602 0.2711 0.0
H1213 H 0.21785 0.60202 0.30699 0.0
H1214 H 0.19142 0.62305 0.2849 0.0
H1215 H 0.19223 0.65485 0.25568 0.0
H1216 H 0.75285 0.72358 0.36567 0.0
H1217 H 0.78405 0.72248 0.3963 0.0
H1218 H 0.75084 0.68032 0.45249 0.0
H1219 H 0.71927 0.68233 0.42262 0.0
H1220 H 0.81168 0.69673 0.41157 0.0
H1221 H 0.77272 0.71631 0.51224 0.0
H1222 H 0.76138 0.69281 0.49722 0.0
H1223 H 0.7588 0.71785 0.47924 0.0
C1224 C 0.75196 0.71426 0.38474 0.0
C1225 C 0.73298 0.7033 0.39144 0.0
C1226 C 0.77011 0.71353 0.40245 0.0
C1227 C 0.77036 0.70168 0.42774 0.0
C1228 C 0.75147 0.69037 0.4341 0.0
H1229 H 0.87163 0.72407 0.55572 0.0
H1230 H 0.84016 0.72464 0.5257 0.0
C1231 C 0.73318 0.69137 0.41662 0.0
C1232 C 0.79034 0.70082 0.4466 0.0
H1233 H 0.80789 0.70302 0.51541 0.0
C1234 C 0.81064 0.69822 0.43427 0.0
C1235 C 0.7899 0.70309 0.47654 0.0
C1236 C 0.76958 0.7079 0.49206 0.0
C1237 C 0.82977 0.69764 0.45035 0.0
C1238 C 0.82921 0.69886 0.48038 0.0
C1239 C 0.80895 0.7017 0.49268 0.0
C1240 C 0.84919 0.69811 0.49927 0.0
C1241 C 0.8505 0.69657 0.43449 0.0
C1242 C 0.86549 0.68287 0.49566 0.0
C1243 C 0.88398 0.68273 0.51287 0.0
C1244 C 0.88688 0.69747 0.53506 0.0
C1245 C 0.87033 0.71229 0.53918 0.0
C1246 C 0.85204 0.71262 0.52175 0.0
H1247 H 0.84888 0.70289 0.41279 0.0
H1248 H 0.86316 0.70568 0.44539 0.0
H1249 H 0.8555 0.67977 0.43267 0.0
H1250 H 0.86395 0.6708 0.47957 0.0
H1251 H 0.89602 0.67091 0.50877 0.0
H1252 H 0.16708 0.12508 0.80718 0.0
H1253 H 0.16684 0.09382 0.77652 0.0
H1254 H 0.20782 0.12609 0.71787 0.0
H1255 H 0.20762 0.15767 0.7482 0.0
H1256 H 0.19351 1.06587 0.75851 0.0
H1257 H 0.16596 0.10578 0.66207 0.0
H1258 H 0.19029 0.11698 0.67486 0.0
H1259 H 0.16646 0.11904 0.69573 0.0
C1260 C 0.17612 0.12569 0.78778 0.0
C1261 C 0.18736 0.14439 0.78061 0.0
C1262 C 0.17596 0.10754 0.77001 0.0
C1263 C 0.18692 0.10711 0.744 0.0
C1264 C 0.19856 0.12565 0.73708 0.0
H1265 H 0.15326 1.00499 0.62087 0.0
H1266 H 0.1546 1.03644 0.65138 0.0
C1267 C 0.19867 0.14388 0.75484 0.0
C1268 C 0.18632 0.08734 0.72477 0.0
H1269 H 0.17777 0.07026 0.65654 0.0
C1270 C 0.19004 1.06702 0.73622 0.0
C1271 C 0.18141 0.08803 0.69546 0.0
C1272 C 0.17558 0.10858 0.68132 0.0
C1273 C 0.18934 1.04805 0.71975 0.0
C1274 C 0.18527 1.04883 0.69022 0.0
C1275 C 0.18121 0.06911 0.67884 0.0
C1276 C 0.18461 1.029 0.67108 0.0
C1277 C 0.19228 1.02721 0.7347 0.0
C1278 C 0.20103 1.01372 0.67085 0.0
C1279 C 0.20019 0.99541 0.65334 0.0
C1280 C 0.18302 0.99155 0.63484 0.0
C1281 C 0.16679 1.007 0.63467 0.0
C1282 C 0.16758 1.02526 0.65228 0.0
H1283 H 0.1883 1.02853 0.75745 0.0
H1284 H 0.18225 1.01456 0.72528 0.0
H1285 H 0.20915 1.02239 0.73309 0.0
H1286 H 0.21482 1.01601 0.68406 0.0
H1287 H 0.21322 0.98428 0.6542 0.0
H1288 H 0.7247 0.45216 0.99289 0.0
H1289 H 0.75657 0.45119 0.96321 0.0
H1290 H 0.79405 0.43402 0.03528 0.0
H1291 H 0.76213 0.43448 0.06488 0.0
H1292 H 0.79257 0.47188 0.95925 0.0
H1293 H 0.8155 0.38955 0.98358 0.0
H1294 H 0.79041 0.40044 0.99464 0.0
H1295 H 0.81415 0.4058 0.01456 0.0
C1296 C 0.73968 0.44819 0.00262 0.0
C1297 C 0.74038 0.4434 0.03172 0.0
C1298 C 0.75815 0.44761 0.9854 0.0
C1299 C 0.77825 0.44207 0.99629 0.0
C1300 C 0.77903 0.43773 0.02552 0.0
H1301 H 0.90041 0.46841 0.90527 0.0
H1302 H 0.86902 0.46967 0.93586 0.0
C1303 C 0.76055 0.43825 0.04275 0.0
C1304 C 0.79811 0.44114 0.97725 0.0
H1305 H 0.84073 0.40996 0.95799 0.0
C1306 C 0.803 0.45825 0.95915 0.0
C1307 C 0.81207 0.42339 0.97607 0.0
C1308 C 0.8077 0.40366 0.99301 0.0
C1309 C 0.82103 0.4583 0.9409 0.0
C1310 C 0.83537 0.44086 0.94044 0.0
C1311 C 0.83028 0.42358 0.95813 0.0
C1312 C 0.85527 0.44005 0.92152 0.0
C1313 C 0.82413 0.47697 0.92156 0.0
C1314 C 0.85914 0.42276 0.90318 0.0
C1315 C 0.87736 0.42199 0.88548 0.0
C1316 C 0.89279 0.43835 0.88548 0.0
C1317 C 0.8891 0.45548 0.90417 0.0
C1318 C 0.87083 0.45629 0.92174 0.0
H1319 H 0.80905 0.48564 0.91811 0.0
H1320 H 0.83561 0.48819 0.93123 0.0
H1321 H 0.83048 0.47189 0.90079 0.0
H1322 H 0.84783 0.40981 0.90222 0.0
H1323 H 0.87933 0.40841 0.87173 0.0
H1324 H 0.46258 1.01579 0.30769 0.0
H1325 H 0.46265 1.04708 0.27727 0.0
H1326 H 0.42052 1.01519 0.21967 0.0
H1327 H 0.42087 0.98361 0.24973 0.0
H1328 H 0.43618 0.07541 0.26017 0.0
H1329 H 0.46148 1.03507 0.16253 0.0
H1330 H 0.43724 1.02418 0.17608 0.0
H1331 H 0.46138 1.02182 0.1961 0.0
C1332 C 0.45325 1.01527 0.28857 0.0
C1333 C 0.44174 0.99666 0.28162 0.0
C1334 C 0.45331 1.03345 0.27093 0.0
C1335 C 0.44198 1.03399 0.24524 0.0
C1336 C 0.43007 1.01555 0.23857 0.0
H1337 H 0.47419 0.13571 0.121 0.0
H1338 H 0.47321 0.10433 0.15144 0.0
C1339 C 0.43006 0.99731 0.2562 0.0
C1340 C 0.44248 1.05378 0.22608 0.0
H1341 H 0.44991 0.07069 0.1576 0.0
C1342 C 0.43921 0.07418 0.23775 0.0
C1343 C 0.44682 1.05301 0.19657 0.0
C1344 C 0.45215 1.0324 0.18209 0.0
C1345 C 0.43979 0.09312 0.22133 0.0
C1346 C 0.44328 0.09228 0.19163 0.0
C1347 C 0.44691 0.07192 0.18003 0.0
C1348 C 0.44374 0.1121 0.17252 0.0
C1349 C 0.43734 0.11401 0.23649 0.0
C1350 C 0.42749 0.12756 0.17306 0.0
C1351 C 0.42812 0.14583 0.15556 0.0
C1352 C 0.4449 0.14951 0.1363 0.0
C1353 C 0.46096 0.13387 0.13538 0.0
C1354 C 0.46037 0.11564 0.15297 0.0
H1355 H 0.44176 0.1127 0.25906 0.0
H1356 H 0.44728 0.12657 0.22673 0.0
H1357 H 0.42048 0.11899 0.23559 0.0
H1358 H 0.41397 0.12545 0.18685 0.0
H1359 H 0.41523 0.15708 0.15705 0.0
H1360 H 0.26291 0.42381 0.43685 0.0
H1361 H 0.2946 0.42303 0.46684 0.0
H1362 H 0.2604 0.45594 0.53217 0.0
H1363 H 0.22859 0.45609 0.50269 0.0
H1364 H 0.32127 0.44913 0.48904 0.0
H1365 H 0.28335 0.41137 0.58083 0.0
H1366 H 0.26982 0.41397 0.54765 0.0
H1367 H 0.27053 0.4358 0.57225 0.0
C1368 C 0.26202 0.43093 0.4576 0.0
C1369 C 0.24272 0.43998 0.46695 0.0
C1370 C 0.28038 0.43046 0.47498 0.0
C1371 C 0.28038 0.43894 0.50264 0.0
C1372 C 0.26123 0.4485 0.51164 0.0
H1373 H 0.3836 0.40505 0.62341 0.0
H1374 H 0.35245 0.40587 0.59256 0.0
C1375 C 0.24284 0.44884 0.49437 0.0
C1376 C 0.30025 0.43805 0.5216 0.0
H1377 H 0.31771 0.42608 0.58856 0.0
C1378 C 0.32031 0.44401 0.51078 0.0
C1379 C 0.29986 0.43098 0.55013 0.0
C1380 C 0.2798 0.42245 0.56333 0.0
C1381 C 0.33928 0.44354 0.5272 0.0
C1382 C 0.3387 0.43748 0.55614 0.0
C1383 C 0.3187 0.43111 0.56679 0.0
C1384 C 0.35846 0.43709 0.57539 0.0
C1385 C 0.35991 0.44889 0.51271 0.0
C1386 C 0.37287 0.45434 0.57718 0.0
C1387 C 0.39107 0.45377 0.59483 0.0
C1388 C 0.39563 0.43608 0.61201 0.0
C1389 C 0.38102 0.41902 0.61069 0.0
C1390 C 0.36292 0.41952 0.59286 0.0
H1391 H 0.35892 0.44608 0.48963 0.0
H1392 H 0.36352 0.46595 0.51596 0.0
H1393 H 0.37323 0.43938 0.52116 0.0
H1394 H 0.36997 0.46857 0.56516 0.0
H1395 H 0.40153 0.46742 0.59516 0.0
H1396 H 0.97603 0.13409 0.3747 0.0
H1397 H 0.97524 0.1028 0.34391 0.0
H1398 H 0.91434 0.12197 0.3121 0.0
H1399 H 0.91545 0.15362 0.34214 0.0
H1400 H 0.95362 0.06864 0.33873 0.0
H1401 H 0.93965 0.10979 0.23825 0.0
H1402 H 0.94565 0.12405 0.27021 0.0
H1403 H 0.91893 0.11523 0.26309 0.0
C1404 C 0.96247 0.13185 0.36102 0.0
C1405 C 0.9459 0.14695 0.36116 0.0
C1406 C 0.96199 0.11367 0.34323 0.0
C1407 C 0.94495 0.10961 0.32457 0.0
C1408 C 0.92818 0.12452 0.32512 0.0
H1409 H 0.96063 1.01294 0.18752 0.0
H1410 H 0.96126 1.0447 0.2175 0.0
C1411 C 0.92873 0.14279 0.34277 0.0
C1412 C 0.94458 0.08976 0.30539 0.0
H1413 H 0.93528 0.07228 0.23748 0.0
C1414 C 0.94962 0.06965 0.31659 0.0
C1415 C 0.93985 0.09033 0.276 0.0
C1416 C 0.93594 0.11102 0.26109 0.0
C1417 C 0.94971 1.05071 0.30002 0.0
C1418 C 0.944 1.05113 0.27094 0.0
C1419 C 0.93936 0.0713 0.2596 0.0
C1420 C 0.94322 1.03119 0.25196 0.0
C1421 C 0.95675 1.03047 0.31397 0.0
C1422 C 0.93254 1.0124 0.26016 0.0
C1423 C 0.93231 0.99394 0.2429 0.0
C1424 C 0.9424 0.99339 0.21625 0.0
C1425 C 0.95257 1.01235 0.20765 0.0
C1426 C 0.95294 1.03077 0.22504 0.0
H1427 H 0.96712 1.03375 0.33238 0.0
H1428 H 0.9426 1.02176 0.32176 0.0
H1429 H 0.96553 1.02011 0.29907 0.0
H1430 H 0.92415 1.01191 0.28003 0.0
H1431 H 0.92415 0.97998 0.25061 0.0
H1432 H 0.25581 0.69669 0.14382 0.0
H1433 H 0.28695 0.69583 0.11276 0.0
H1434 H 0.2464 0.70279 0.04059 0.0
H1435 H 0.21514 0.70363 0.07164 0.0
H1436 H 0.29989 0.6689 0.07064 0.0
H1437 H 0.28997 0.74808 0.02279 0.0
H1438 H 0.27516 0.73988 0.05346 0.0
H1439 H 0.26723 0.73112 0.01895 0.0
C1440 C 0.25336 0.69817 0.12135 0.0
C1441 C 0.23251 0.70039 0.11069 0.0
C1442 C 0.27141 0.69762 0.10338 0.0
C1443 C 0.26964 0.69957 0.07383 0.0
C1444 C 0.2488 0.70171 0.0631 0.0
H1445 H 0.36378 0.70457 0.93221 0.0
H1446 H 0.33179 0.70457 0.96181 0.0
C1447 C 0.23068 0.70207 0.08107 0.0
C1448 C 0.28938 0.69889 0.05458 0.0
H1449 H 0.31684 0.72637 0.00328 0.0
C1450 C 0.30351 0.68159 0.05603 0.0
C1451 C 0.29464 0.71516 0.03497 0.0
C1452 C 0.2811 0.73472 0.03251 0.0
C1453 C 0.32194 0.67989 0.0386 0.0
C1454 C 0.32742 0.69632 0.01925 0.0
C1455 C 0.31321 0.71361 0.01776 0.0
C1456 C 0.34756 0.69594 1.00058 0.0
C1457 C 0.33486 0.65988 0.04057 0.0
C1458 C 0.36789 0.69135 0.01162 0.0
C1459 C 0.38638 0.69108 0.99442 0.0
C1460 C 0.38564 0.69573 0.9653 0.0
C1461 C 0.36538 0.70067 0.95429 0.0
C1462 C 0.34685 0.70077 0.97148 0.0
H1463 H 0.3251 0.64636 0.0482 0.0
H1464 H 0.34182 0.65547 0.01988 0.0
H1465 H 0.34791 0.66234 0.0559 0.0
H1466 H 0.36968 0.68831 0.03389 0.0
H1467 H 0.40145 0.68758 0.00425 0.0
H1468 H 0.69564 0.15466 0.75534 0.0
H1469 H 0.69465 0.12247 0.78426 0.0
H1470 H 0.67684 0.08573 0.71148 0.0
H1471 H 0.67784 0.11785 0.68247 0.0
H1472 H 0.66274 0.09463 0.7981 0.0
H1473 H 0.72386 1.04862 0.74104 0.0
H1474 H 0.72007 0.07661 0.73526 0.0
H1475 H 0.70261 1.05757 0.71902 0.0
C1476 C 0.69175 0.13975 0.74523 0.0
C1477 C 0.68709 0.13929 0.71607 0.0
C1478 C 0.69108 0.12113 0.76203 0.0
C1479 C 0.686 0.10105 0.75049 0.0
C1480 C 0.68133 0.10056 0.72134 0.0
H1481 H 0.67706 0.96948 0.82111 0.0
H1482 H 0.67771 1.00103 0.79075 0.0
C1483 C 0.68183 0.11921 0.70457 0.0
C1484 C 0.68503 0.08102 0.76897 0.0
H1485 H 0.70447 1.03022 0.77613 0.0
C1486 C 0.67201 0.08064 0.79321 0.0
C1487 C 0.6968 1.06225 0.76312 0.0
C1488 C 0.71178 1.06123 0.73837 0.0
C1489 C 0.67012 1.06248 0.81093 0.0
C1490 C 0.68216 1.04377 0.80538 0.0
C1491 C 0.69513 1.04415 0.78103 0.0
C1492 C 0.68165 1.02394 0.82443 0.0
C1493 C 0.65442 1.06345 0.83491 0.0
C1494 C 0.68395 1.02538 0.85402 0.0
C1495 C 0.68331 1.0072 0.87156 0.0
C1496 C 0.68074 0.9865 0.86049 0.0
C1497 C 0.67892 0.98492 0.83085 0.0
C1498 C 0.67937 1.00319 0.81327 0.0
H1499 H 0.64157 0.07499 0.83057 0.0
H1500 H 0.64707 1.04774 0.83896 0.0
H1501 H 0.66271 0.06883 0.85427 0.0
H1502 H 0.68657 1.04067 0.8638 0.0
H1503 H 0.68512 1.00945 0.89405 0.0
H1504 H 0.5335 0.20534 0.92468 0.0
H1505 H 0.55421 0.20725 0.8812 0.0
H1506 H 0.52401 0.15013 0.85102 0.0
H1507 H 0.50286 0.14828 0.89436 0.0
H1508 H 0.58205 0.17256 0.86404 0.0
H1509 H 0.52149 0.19291 0.78326 0.0
H1510 H 0.51762 0.1984 0.82029 0.0
H1511 H 0.5153 0.17176 0.80734 0.0
C1512 C 0.53088 0.19346 0.90854 0.0
C1513 C 0.51654 0.17666 0.91293 0.0
C1514 C 0.54281 0.19451 0.8838 0.0
C1515 C 0.5405 0.17891 0.86292 0.0
C1516 C 0.5258 0.16244 0.8668 0.0
H1517 H 0.61543 0.16365 0.70801 0.0
H1518 H 0.5887 0.15841 0.74504 0.0
C1519 C 0.51389 0.16132 0.89163 0.0
C1520 C 0.5548 0.17907 0.83825 0.0
H1521 H 0.55663 0.18777 0.76734 0.0
C1522 C 0.5765 0.1758 0.84287 0.0
C1523 C 0.54739 0.18303 0.8107 0.0
C1524 C 0.5242 0.18686 0.8049 0.0
C1525 C 0.59113 0.17679 0.82069 0.0
C1526 C 0.58387 0.18158 0.79329 0.0
C1527 C 0.56208 0.18416 0.78844 0.0
C1528 C 0.59896 0.18529 0.76998 0.0
C1529 C 0.61427 0.17281 0.82676 0.0
C1530 C 0.61313 0.20241 0.77154 0.0
C1531 C 0.62833 0.20544 0.75059 0.0
C1532 C 0.62961 0.19144 0.72754 0.0
C1533 C 0.6149 0.17467 0.72553 0.0
C1534 C 0.59963 0.17165 0.74661 0.0
H1535 H 0.61643 0.16383 0.84664 0.0
H1536 H 0.62187 0.16387 0.80928 0.0
H1537 H 0.62264 0.18823 0.82901 0.0
H1538 H 0.61259 0.21331 0.78921 0.0
H1539 H 0.63924 0.21866 0.75272 0.0
H1540 H 0.67993 0.79708 0.18045 0.0
H1541 H 0.6778 0.81602 0.13567 0.0
H1542 H 0.7307 0.78002 0.10364 0.0
H1543 H 0.73266 0.76064 0.14819 0.0
H1544 H 0.71234 0.8404 0.11277 0.0
H1545 H 0.68531 0.77633 0.04012 0.0
H1546 H 0.68209 0.77465 0.07787 0.0
H1547 H 0.70769 0.7705 0.06223 0.0
C1548 C 0.69085 0.79291 0.16371 0.0
C1549 C 0.70648 0.7774 0.16784 0.0
C1550 C 0.68969 0.80381 0.13822 0.0
C1551 C 0.70398 0.79926 0.11636 0.0
C1552 C 0.71936 0.78354 0.12017 0.0
H1553 H 0.71792 0.86803 0.95623 0.0
H1554 H 0.72374 0.84231 0.99421 0.0
C1555 C 0.72059 0.77266 0.1457 0.0
C1556 C 0.70355 0.812 0.09033 0.0
H1557 H 0.69217 0.80992 0.02006 0.0
C1558 C 0.70805 0.83373 0.09247 0.0
C1559 C 0.69815 0.80313 0.06389 0.0
C1560 C 0.69288 0.7799 0.06072 0.0
C1561 C 0.70684 0.84697 0.06894 0.0
C1562 C 0.7007 0.83827 0.04273 0.0
C1563 C 0.69689 0.81643 0.04028 0.0
C1564 C 0.69638 0.85211 0.01846 0.0
C1565 C 0.7118 0.87026 0.0723 0.0
C1566 C 0.6788 0.86558 0.01937 0.0
C1567 C 0.67542 0.88016 0.99792 0.0
C1568 C 0.68959 0.88154 0.97507 0.0
C1569 C 0.70675 0.86737 0.97358 0.0
C1570 C 0.71011 0.8527 0.99519 0.0
H1571 H 0.72091 0.87353 0.09185 0.0
H1572 H 0.72101 0.87622 0.05398 0.0
H1573 H 0.69673 0.87929 0.07339 0.0
H1574 H 0.66793 0.86514 0.03708 0.0
H1575 H 0.66191 0.89065 0.99964 0.0
H1576 H 1.01476 0.96862 0.20493 0.0
H1577 H 1.04287 0.97338 0.24005 0.0
H1578 H 1.01801 0.92059 0.2874 0.0
H1579 H 0.99012 0.91556 0.25257 0.0
H1580 H 1.03656 0.98156 0.29812 0.0
H1581 H 0.08166 0.90732 0.28143 0.0
H1582 H 1.06324 0.91754 0.25576 0.0
H1583 H 1.05367 0.90305 0.28581 0.0
C1584 C 1.01542 0.95789 0.22267 0.0
C1585 C 1.0002 0.9417 0.22592 0.0
C1586 C 1.03147 0.96065 0.24268 0.0
C1587 C 1.03268 0.94712 0.26602 0.0
C1588 C 1.01761 0.93091 0.26921 0.0
H1589 H 0.09227 0.93412 0.42517 0.0
H1590 H 0.07309 0.93076 0.38069 0.0
C1591 C 1.00156 0.92819 0.24936 0.0
C1592 C 1.0488 0.95062 0.28816 0.0
H1593 H 0.08774 0.9256 0.32505 0.0
C1594 C 1.04803 0.96952 0.30376 0.0
C1595 C 1.06366 0.93482 0.2954 0.0
C1596 C 1.06579 0.91462 0.27855 0.0
C1597 C 1.061 0.97259 0.32742 0.0
C1598 C 0.07536 0.95646 0.33526 0.0
C1599 C 0.07667 0.93789 0.31901 0.0
C1600 C 0.08812 0.95796 0.36132 0.0
C1601 C 1.05848 0.99259 0.34462 0.0
C1602 C 0.10325 0.97411 0.3649 0.0
C1603 C 0.11425 0.97606 0.39031 0.0
C1604 C 0.11042 0.96179 0.41247 0.0
C1605 C 0.09573 0.94524 0.40843 0.0
C1606 C 0.08471 0.94334 0.38307 0.0
H1607 H 1.04375 1.00128 0.33915 0.0
H1608 H 1.05815 0.98893 0.36748 0.0
H1609 H 0.07217 1.00326 0.34059 0.0
H1610 H 0.10642 0.98528 0.34812 0.0
H1611 H 0.12573 0.98876 0.39265 0.0
H1612 H 0.91718 0.27064 0.45401 0.0
H1613 H 0.91298 0.29729 0.4913 0.0
H1614 H 0.96517 0.26962 0.53676 0.0
H1615 H 0.96912 0.24279 0.50013 0.0
H1616 H 0.93054 0.27403 0.56927 0.0
H1617 H 0.94724 0.34946 0.51345 0.0
H1618 H 0.92712 0.33338 0.49716 0.0
H1619 H 0.95395 0.32389 0.49881 0.0
C1620 C 0.92796 0.27048 0.47175 0.0
C1621 C 0.94337 0.25455 0.47425 0.0
C1622 C 0.92561 0.28577 0.49296 0.0
C1623 C 0.93888 0.28554 0.5167 0.0
C1624 C 0.95475 0.27008 0.51865 0.0
H1625 H 0.95223 0.37617 0.65305 0.0
H1626 H 0.95641 0.35499 0.61015 0.0
C1627 C 0.95695 0.25473 0.4977 0.0
C1628 C 0.93525 0.30012 0.54074 0.0
H1629 H 0.93345 0.35229 0.56002 0.0
C1630 C 0.93122 0.29114 0.56724 0.0
C1631 C 0.93633 0.32242 0.53808 0.0
C1632 C 0.94159 0.33291 0.51041 0.0
C1633 C 0.92824 0.30382 0.59117 0.0
C1634 C 0.92871 0.32614 0.58841 0.0
C1635 C 0.93286 0.33517 0.56197 0.0
C1636 C 0.92545 0.34023 0.61302 0.0
C1637 C 0.92515 0.29314 0.61931 0.0
C1638 C 0.90646 0.33931 0.62843 0.0
C1639 C 0.90416 0.35109 0.65317 0.0
C1640 C 0.9207 0.36427 0.6628 0.0
C1641 C 0.93934 0.36587 0.64656 0.0
C1642 C 0.94169 0.35395 0.62189 0.0
H1643 H 0.93083 0.27649 0.61899 0.0
H1644 H 0.93365 0.30184 0.63627 0.0
H1645 H 0.90799 0.29289 0.62459 0.0
H1646 H 0.89359 0.32909 0.62166 0.0
H1647 H 0.88965 0.34931 0.6652 0.0
H1648 H 0.6236 0.98177 0.10038 0.0
H1649 H 0.60626 0.97803 0.14626 0.0
H1650 H 0.56859 0.92625 0.11378 0.0
H1651 H 0.58587 0.92987 0.06788 0.0
H1652 H 0.56395 0.98254 0.15737 0.0
H1653 H 0.5903 0.90216 0.18758 0.0
H1654 H 0.60284 0.91706 0.15968 0.0
H1655 H 0.5786 0.9027 0.15318 0.0
C1656 C 0.61164 0.96956 0.10304 0.0
C1657 C 0.60605 0.95613 0.08053 0.0
C1658 C 0.60186 0.96737 0.12929 0.0
C1659 C 0.58642 0.95165 0.13353 0.0
C1660 C 0.58089 0.93812 0.11116 0.0
H1661 H 0.4862 0.91944 0.24217 0.0
H1662 H 0.51407 0.92291 0.20692 0.0
C1663 C 0.59071 0.94026 0.08493 0.0
C1664 C 0.57492 0.95034 0.16066 0.0
H1665 H 0.55978 0.91579 0.21214 0.0
C1666 C 0.56334 0.96809 0.16967 0.0
C1667 C 0.57426 0.93149 0.17668 0.0
C1668 C 0.58735 0.91234 0.16895 0.0
C1669 C 0.55012 0.96709 0.19342 0.0
C1670 C 0.5487 0.94792 0.20863 0.0
C1671 C 0.56095 0.93045 0.20034 0.0
C1672 C 0.53289 0.94503 0.23127 0.0
C1673 C 0.53692 0.98615 0.20123 0.0
C1674 C 0.53449 0.9561 0.25686 0.0
C1675 C 0.51851 0.95417 0.27721 0.0
C1676 C 0.50071 0.94121 0.27212 0.0
C1677 C 0.49957 0.92973 0.24672 0.0
C1678 C 0.51553 0.93159 0.22655 0.0
H1679 H 0.5378 0.99881 0.18506 0.0
H1680 H 0.52005 0.98147 0.20411 0.0
H1681 H 0.54265 0.99281 0.22151 0.0
H1682 H 0.54794 0.9664 0.26091 0.0
H1683 H 0.51989 0.96316 0.2966 0.0
H1684 H 0.40005 0.38251 0.85612 0.0
H1685 H 0.40387 0.36404 0.90114 0.0
H1686 H 0.45673 0.32884 0.86739 0.0
H1687 H 0.45307 0.34722 0.82251 0.0
H1688 H 0.40005 0.32163 0.91012 0.0
H1689 H 0.48008 0.34832 0.94251 0.0
H1690 H 0.46526 0.36132 0.91506 0.0
H1691 H 0.47998 0.33755 0.90752 0.0
C1692 C 0.41256 0.37092 0.85838 0.0
C1693 C 0.4263 0.36636 0.83579 0.0
C1694 C 0.41478 0.36046 0.88413 0.0
C1695 C 0.43081 0.34534 0.88778 0.0
C1696 C 0.44463 0.34089 0.86533 0.0
H1697 H 0.4635 0.24273 0.99299 0.0
H1698 H 0.45977 0.27071 0.95806 0.0
C1699 C 0.44249 0.35138 0.83965 0.0
C1700 C 0.43216 0.333 0.91422 0.0
H1701 H 0.46681 0.3167 0.96487 0.0
C1702 C 0.41451 0.32084 0.92242 0.0
C1703 C 0.45103 0.33205 0.93027 0.0
C1704 C 0.47008 0.34569 0.92357 0.0
C1705 C 0.41559 0.3069 0.94534 0.0
C1706 C 0.43476 0.30526 0.96054 0.0
C1707 C 0.45216 0.31798 0.95305 0.0
C1708 C 0.43759 0.28914 0.98273 0.0
C1709 C 0.39659 0.29325 0.95233 0.0
C1710 C 0.42656 0.29046 0.00837 0.0
C1711 C 0.42867 0.27446 0.02852 0.0
C1712 C 0.44179 0.25688 0.02323 0.0
C1713 C 0.45313 0.25593 0.99771 0.0
C1714 C 0.4511 0.27195 0.97773 0.0
H1715 H 0.38398 0.29434 0.93609 0.0
H1716 H 0.40138 0.27641 0.95445 0.0
H1717 H 0.3898 0.29841 0.97281 0.0
H1718 H 0.41621 0.30376 0.01266 0.0
H1719 H 0.41975 0.2757 0.04797 0.0
H1720 H 0.1097 0.17608 0.79578 0.0
H1721 H 0.08311 0.17023 0.75877 0.0
H1722 H 0.11816 0.21146 0.70319 0.0
H1723 H 0.14468 0.21729 0.73956 0.0
H1724 H 1.05772 0.20013 0.72695 0.0
H1725 H 0.1135 0.15483 0.65953 0.0
H1726 H 0.11836 0.15977 0.69645 0.0
H1727 H 0.12388 0.17999 0.67081 0.0
C1728 C 0.11165 0.184 0.77573 0.0
C1729 C 0.12946 0.19694 0.77053 0.0
C1730 C 0.09647 0.18063 0.75465 0.0
C1731 C 0.09895 0.1901 0.72814 0.0
C1732 C 0.11622 0.20366 0.72334 0.0
H1733 H 1.04087 0.20209 0.56765 0.0
H1734 H 1.06093 0.20509 0.61153 0.0
C1735 C 0.13135 0.207 0.74423 0.0
C1736 C 0.08389 0.18568 0.70501 0.0
H1737 H 0.08198 0.16746 0.63732 0.0
C1738 C 1.06286 0.1927 0.70748 0.0
C1739 C 0.0907 0.17588 0.67975 0.0
C1740 C 0.11278 0.16698 0.67649 0.0
C1741 C 1.04873 0.1911 0.6847 0.0
C1742 C 1.05589 0.18218 0.65907 0.0
C1743 C 0.07666 0.17447 0.65699 0.0
C1744 C 1.04245 0.18145 0.63365 0.0
C1745 C 1.02653 0.19967 0.68769 0.0
C1746 C 1.02536 0.16723 0.63174 0.0
C1747 C 1.01386 0.16546 0.60667 0.0
C1748 C 1.01928 0.17793 0.58318 0.0
C1749 C 1.03614 0.19248 0.58547 0.0
C1750 C 1.04768 0.19413 0.61044 0.0
H1751 H 1.02424 0.20838 0.70783 0.0
H1752 H 1.02287 0.21046 0.66992 0.0
H1753 H 1.015 0.18634 0.68691 0.0
H1754 H 1.02126 0.15716 0.64939 0.0
H1755 H 1.00085 0.15422 0.60558 0.0
H1756 H 0.16227 0.8986 0.49254 0.0
H1757 H 0.1671 0.87252 0.45529 0.0
H1758 H 0.21442 0.84066 0.50496 0.0
H1759 H 0.20961 0.86682 0.54284 0.0
H1760 H 0.20702 0.86624 0.42815 0.0
H1761 H 0.17475 0.79219 0.47575 0.0
H1762 H 0.16811 0.81819 0.48911 0.0
H1763 H 0.19372 0.8071 0.49612 0.0
C1764 C 0.1736 0.88597 0.4958 0.0
C1765 C 0.1857 0.88489 0.5206 0.0
C1766 C 0.17628 0.87105 0.47446 0.0
C1767 C 0.19104 0.85468 0.47745 0.0
C1768 C 0.20274 0.85306 0.50247 0.0
H1769 H 0.22821 0.76162 0.34994 0.0
H1770 H 0.22538 0.782 0.39379 0.0
C1771 C 0.20002 0.86804 0.52401 0.0
C1772 C 0.19508 0.84045 0.45329 0.0
H1773 H 0.18827 0.78978 0.42944 0.0
C1774 C 0.20302 0.84949 0.42845 0.0
C1775 C 0.18996 0.81863 0.45393 0.0
C1776 C 0.18103 0.80836 0.48005 0.0
C1777 C 0.20563 0.83737 0.40396 0.0
C1778 C 0.19983 0.81572 0.40427 0.0
C1779 C 0.19254 0.80645 0.42934 0.0
C1780 C 0.20074 0.8027 0.37841 0.0
C1781 C 0.21453 0.84782 0.37791 0.0
C1782 C 0.18752 0.80742 0.35555 0.0
C1783 C 0.18914 0.7959 0.33049 0.0
C1784 C 0.20401 0.77947 0.32792 0.0
C1785 C 0.21684 0.77443 0.35117 0.0
C1786 C 0.21515 0.78592 0.37626 0.0
H1787 H 0.22296 0.86284 0.38301 0.0
H1788 H 0.22567 0.83707 0.36675 0.0
H1789 H 0.20133 0.85158 0.36335 0.0
H1790 H 0.17612 0.8202 0.35701 0.0
H1791 H 0.17912 0.80021 0.31292 0.0
H1792 H 1.03176 0.70542 0.42246 0.0
H1793 H 1.05064 0.70816 0.37768 0.0
H1794 H 1.0203 0.65078 0.34856 0.0
H1795 H 1.00121 0.64796 0.39338 0.0
H1796 H 1.06369 0.65036 0.34183 0.0
H1797 H 1.03065 0.72489 0.29941 0.0
H1798 H 1.04027 0.72783 0.33475 0.0
H1799 H 1.01816 0.71047 0.32778 0.0
C1800 C 1.02873 0.69363 0.40632 0.0
C1801 C 1.01496 0.67648 0.41147 0.0
C1802 C 1.03952 0.69524 0.3807 0.0
C1803 C 1.03663 0.67985 0.35963 0.0
C1804 C 1.02267 0.66288 0.36451 0.0
H1805 H 0.11196 0.66443 0.20421 0.0
H1806 H 0.08362 0.6601 0.23921 0.0
C1807 C 1.01187 0.66124 0.39016 0.0
C1808 C 1.04946 0.68068 0.3335 0.0
H1809 H 1.06363 0.7132 0.27926 0.0
C1810 C 1.06344 0.66392 0.32783 0.0
C1811 C 1.04904 0.69837 0.31528 0.0
C1812 C 1.03356 0.71631 0.31942 0.0
C1813 C 0.07783 0.66488 0.30528 0.0
C1814 C 0.078 0.68298 0.28778 0.0
C1815 C 1.06347 0.69938 0.29279 0.0
C1816 C 0.0943 0.68598 0.26569 0.0
C1817 C 0.09346 0.64706 0.30118 0.0
C1818 C 0.10932 0.70224 0.26873 0.0
C1819 C 0.12544 0.70479 0.24886 0.0
C1820 C 0.1268 0.69115 0.22543 0.0
C1821 C 0.11141 0.67514 0.22207 0.0
C1822 C 0.09527 0.67258 0.24207 0.0
H1823 H 0.09361 0.636 0.31934 0.0
H1824 H 0.08912 0.63789 0.28204 0.0
H1825 H 0.10974 0.65344 0.29808 0.0
H1826 H 0.10879 0.71276 0.2868 0.0
H1827 H 0.13692 0.71738 0.25207 0.0
H1828 H 0.17832 0.27489 0.66165 0.0
H1829 H 0.17614 0.29376 0.61692 0.0
H1830 H 0.2432 0.28465 0.60369 0.0
H1831 H 0.2455 0.26543 0.64826 0.0
H1832 H 0.23015 0.32686 0.60014 0.0
H1833 H 0.17947 0.27481 0.53401 0.0
H1834 H 0.16863 0.27993 0.56837 0.0
H1835 H 0.19301 0.2654 0.56505 0.0
C1836 C 0.19251 0.27637 0.64889 0.0
C1837 C 0.2121 0.26871 0.65859 0.0
C1838 C 0.19123 0.28717 0.62331 0.0
C1839 C 0.20947 0.29041 0.60688 0.0
C1840 C 0.22893 0.28224 0.61604 0.0
H1841 H 0.21183 0.36202 0.44806 0.0
H1842 H 0.21814 0.33427 0.48315 0.0
C1843 C 0.23023 0.27139 0.64159 0.0
C1844 C 0.20858 0.30418 0.58174 0.0
H1845 H 0.18322 0.31094 0.51891 0.0
C1846 C 0.22015 0.32323 0.58218 0.0
C1847 C 0.19561 0.29933 0.55829 0.0
C1848 C 0.18362 0.27866 0.55618 0.0
C1849 C 0.21832 0.33802 0.56037 0.0
C1850 C 0.20453 0.33365 0.53768 0.0
C1851 C 0.19368 0.31422 0.53653 0.0
C1852 C 0.20015 0.34978 0.51605 0.0
C1853 C 0.23073 0.35849 0.56199 0.0
C1854 C 0.18774 0.36741 0.52299 0.0
C1855 C 0.18401 0.38317 0.5031 0.0
C1856 C 0.19272 0.38162 0.47587 0.0
C1857 C 0.20495 0.36373 0.46886 0.0
C1858 C 0.20855 0.34785 0.48881 0.0
H1859 H 0.24363 0.35774 0.57787 0.0
H1860 H 0.23776 0.3624 0.54116 0.0
H1861 H 0.21987 0.37158 0.56795 0.0
H1862 H 0.18106 0.36905 0.54393 0.0
H1863 H 0.17452 0.3967 0.50928 0.0
H1864 H 0.48517 0.42323 0.75799 0.0
H1865 H 0.51251 0.42749 0.79352 0.0
H1866 H 0.55199 0.46093 0.734 0.0
H1867 H 0.52435 0.457 0.69795 0.0
H1868 H 0.55519 0.41445 0.79338 0.0
H1869 H 0.54654 0.50214 0.80165 0.0
H1870 H 0.52714 0.48571 0.78405 0.0
H1871 H 0.55208 0.49135 0.76731 0.0
C1872 C 0.49963 0.43148 0.75225 0.0
C1873 C 0.50247 0.43996 0.72513 0.0
C1874 C 0.5153 0.43381 0.77263 0.0
C1875 C 0.53414 0.44468 0.76644 0.0
C1876 C 0.53739 0.45272 0.73923 0.0
H1877 H 0.63198 0.4461 0.8988 0.0
H1878 H 0.6152 0.44222 0.85256 0.0
C1879 C 0.52164 0.45039 0.71868 0.0
C1880 C 0.54982 0.44796 0.78916 0.0
H1881 H 0.5692 0.48567 0.83399 0.0
C1882 C 0.55857 0.43002 0.80205 0.0
C1883 C 0.55393 0.46831 0.80046 0.0
C1884 C 0.54438 0.48803 0.78787 0.0
C1885 C 0.57067 0.43181 0.82671 0.0
C1886 C 0.57437 0.45213 0.8384 0.0
C1887 C 0.56633 0.47013 0.82486 0.0
C1888 C 0.58495 0.45491 0.86594 0.0
C1889 C 0.57838 0.41187 0.84085 0.0
C1890 C 0.57361 0.46372 0.88856 0.0
C1891 C 0.58314 0.46601 0.91489 0.0
C1892 C 0.6042 0.45954 0.91907 0.0
C1893 C 0.6156 0.45088 0.8963 0.0
C1894 C 0.60607 0.44869 0.86989 0.0
H1895 H 0.57056 0.39743 0.83224 0.0
H1896 H 0.59573 0.41032 0.83746 0.0
H1897 H 0.57543 0.41256 0.8639 0.0
H1898 H 0.55726 0.46857 0.88591 0.0
H1899 H 0.57393 0.47258 0.93209 0.0
H1900 H 0.41019 0.76776 0.95637 0.0
H1901 H 0.40614 0.79588 0.99171 0.0
H1902 H 0.46149 0.77311 0.03526 0.0
H1903 H 0.46583 0.74523 1.00016 0.0
H1904 H 0.40031 0.78997 0.04988 0.0
H1905 H 0.47305 0.83687 0.02869 0.0
H1906 H 0.46244 0.81789 0.00381 0.0
H1907 H 0.47813 0.8091 0.03313 0.0
C1908 C 0.42163 0.76888 0.97331 0.0
C1909 C 0.43835 0.75425 0.97541 0.0
C1910 C 0.41927 0.78494 0.99346 0.0
C1911 C 0.43372 0.78677 0.01579 0.0
C1912 C 0.45045 0.77227 0.01784 0.0
H1913 H 0.44993 0.84821 0.17408 0.0
H1914 H 0.45263 0.82859 0.12975 0.0
C1915 C 0.45278 0.75621 0.99783 0.0
C1916 C 0.43069 0.80289 0.03812 0.0
H1917 H 0.45614 0.84277 0.07332 0.0
C1918 C 0.41232 0.80177 0.05477 0.0
C1919 C 0.44644 0.81821 0.04439 0.0
C1920 C 0.46604 0.82077 0.0264 0.0
C1921 C 0.40975 0.81488 0.07846 0.0
C1922 C 0.42584 0.82972 0.08528 0.0
C1923 C 0.44388 0.83132 0.06806 0.0
C1924 C 0.4248 0.8428 0.11117 0.0
C1925 C 0.39032 0.81204 0.09672 0.0
C1926 C 0.40853 0.85764 0.11509 0.0
C1927 C 0.40697 0.86892 0.14039 0.0
C1928 C 0.42174 0.86564 0.16211 0.0
C1929 C 0.43843 0.85126 0.15768 0.0
C1930 C 0.43994 0.83997 0.13242 0.0
H1931 H 0.38173 0.79707 0.09186 0.0
H1932 H 0.39469 0.81204 0.11937 0.0
H1933 H 0.37929 0.82543 0.09312 0.0
H1934 H 0.39694 0.86036 0.09869 0.0
H1935 H 0.39416 0.88016 0.14299 0.0
H1936 H 0.07512 0.47131 0.5675 0.0
H1937 H 1.05814 0.46829 0.61362 0.0
H1938 H 0.11408 0.43802 0.64653 0.0
H1939 H 0.13122 0.44098 0.60034 0.0
H1940 H 0.07759 0.41723 0.66111 0.0
H1941 H 0.06984 0.5028 0.68444 0.0
H1942 H 1.05883 0.49605 0.65076 0.0
H1943 H 0.08684 0.49283 0.65678 0.0
C1944 C 0.08389 0.46421 0.58463 0.0
C1945 C 0.10453 0.45647 0.58034 0.0
C1946 C 0.07421 0.46257 0.61099 0.0
C1947 C 0.08505 0.45336 0.63363 0.0
C1948 C 0.10554 0.44534 0.62936 0.0
H1949 H 1.02129 0.459 0.79869 0.0
H1950 H 1.0497 0.46146 0.76343 0.0
C1951 C 0.11523 0.44692 0.60294 0.0
C1952 C 0.07445 0.45124 0.66131 0.0
H1953 H 1.04682 0.47937 0.7106 0.0
C1954 C 0.07117 0.43084 0.6722 0.0
C1955 C 1.06651 0.46903 0.67611 0.0
C1956 C 0.07088 0.49142 0.66658 0.0
C1957 C 1.05891 0.42767 0.69651 0.0
C1958 C 1.04942 0.44533 0.70987 0.0
C1959 C 1.0539 0.46582 0.7001 0.0
C1960 C 1.03314 0.44276 0.73208 0.0
C1961 C 1.05586 0.40539 0.70729 0.0
C1962 C 1.01443 0.43161 0.72599 0.0
C1963 C 0.99826 0.43021 0.74591 0.0
C1964 C 1.00035 0.4401 0.77236 0.0
C1965 C 1.0192 0.45118 0.77855 0.0
C1966 C 1.03543 0.45259 0.75847 0.0
H1967 H 0.06939 0.39508 0.70124 0.0
H1968 H 1.05412 0.40516 0.73057 0.0
H1969 H 1.04128 0.3985 0.69785 0.0
H1970 H 1.01211 0.42436 0.7055 0.0
H1971 H 0.98399 0.42156 0.74033 0.0
H1972 H 0.90747 0.8291 0.32107 0.0
H1973 H 0.91087 0.81303 0.36757 0.0
H1974 H 0.945 0.86813 0.39715 0.0
H1975 H 0.94167 0.88435 0.35056 0.0
H1976 H 0.96447 0.83133 0.41156 0.0
H1977 H 0.87949 0.82702 0.44003 0.0
H1978 H 0.88452 0.81518 0.40629 0.0
H1979 H 0.88918 0.84312 0.41133 0.0
C1980 C 0.91548 0.83791 0.33756 0.0
C1981 C 0.92424 0.85801 0.33219 0.0
C1982 C 0.91733 0.82875 0.36415 0.0
C1983 C 0.92777 0.8396 0.38597 0.0
C1984 C 0.93672 0.85959 0.38064 0.0
H1985 H 0.92593 0.77729 0.55204 0.0
H1986 H 0.92311 0.80567 0.51699 0.0
C1987 C 0.93493 0.86874 0.35399 0.0
C1988 C 0.93036 0.8294 0.41378 0.0
H1989 H 0.9028 0.8033 0.46505 0.0
C1990 C 0.95098 0.82553 0.42353 0.0
C1991 C 0.91277 0.82227 0.42974 0.0
C1992 C 0.89025 0.82732 0.42147 0.0
C1993 C 0.95448 0.81342 0.44778 0.0
C1994 C 0.9369 0.80468 0.46226 0.0
C1995 C 0.91627 0.8098 0.45368 0.0
C1996 C 0.93959 0.78835 0.48424 0.0
C1997 C 0.97699 0.80965 0.45725 0.0
C1998 C 0.94957 0.76923 0.47727 0.0
C1999 C 0.95115 0.75307 0.49705 0.0
C2000 C 0.94264 0.75561 0.52425 0.0
C2001 C 0.9327 0.77485 0.53131 0.0
C2002 C 0.93108 0.79107 0.51135 0.0
H2003 H 0.98766 0.82273 0.45045 0.0
H2004 H 0.97795 0.80809 0.4805 0.0
H2005 H 0.9829 0.79476 0.44755 0.0
H2006 H 0.95578 0.7666 0.45626 0.0
H2007 H 0.95888 0.73849 0.49078 0.0
H2008 H 0.53921 0.64104 0.0743 0.0
H2009 H 0.55891 0.6426 0.11847 0.0
H2010 H 0.5376 0.70675 0.13191 0.0
H2011 H 0.51703 0.70501 0.08836 0.0
H2012 H 0.59114 0.66889 0.13181 0.0
H2013 H 0.52517 0.67982 0.20773 0.0
H2014 H 0.52088 0.67157 0.17173 0.0
H2015 H 0.52507 0.69912 0.18004 0.0
C2016 C 0.53838 0.65537 0.08689 0.0
C2017 C 0.52643 0.67287 0.07787 0.0
C2018 C 0.54975 0.65626 0.11205 0.0
C2019 C 0.54941 0.67464 0.12871 0.0
C2020 C 0.53767 0.69222 0.1197 0.0
H2021 H 0.64082 0.72022 0.24584 0.0
H2022 H 0.61646 0.7131 0.20722 0.0
C2023 C 0.5262 0.69132 0.09458 0.0
C2024 C 0.56238 0.67585 0.15462 0.0
H2025 H 0.56022 0.68706 0.22499 0.0
C2026 C 0.58433 0.67265 0.15223 0.0
C2027 C 0.55344 0.68042 0.18131 0.0
C2028 C 0.52982 0.68271 0.18548 0.0
C2029 C 0.5977 0.67471 0.17561 0.0
C2030 C 0.5889 0.68049 0.20192 0.0
C2031 C 0.56688 0.68286 0.20464 0.0
C2032 C 0.60257 0.68524 0.22634 0.0
C2033 C 0.62117 0.67087 0.17198 0.0
C2034 C 0.60229 0.67225 0.25026 0.0
C2035 C 0.61625 0.67627 0.27255 0.0
C2036 C 0.63056 0.69341 0.2712 0.0
C2037 C 0.63017 0.70677 0.24754 0.0
C2038 C 0.61629 0.70272 0.22536 0.0
H2039 H 0.6246 0.66144 0.1527 0.0
H2040 H 0.6295 0.68633 0.17008 0.0
H2041 H 0.62777 0.66243 0.19048 0.0
H2042 H 0.59167 0.65873 0.25135 0.0
H2043 H 0.61613 0.6657 0.29049 0.0
H2044 H 0.66135 0.39517 0.99811 0.0
H2045 H 0.66697 0.36942 0.96062 0.0
H2046 H 0.72248 0.34599 0.00316 0.0
H2047 H 0.71701 0.37189 0.0412 0.0
H2048 H 0.70584 0.36819 0.92784 0.0
H2049 H 0.68698 0.29177 0.98106 0.0
H2050 H 0.67752 0.31693 0.99427 0.0
H2051 H 0.70483 0.30982 0.99862 0.0
C2052 C 0.67469 0.38446 0.99977 0.0
C2053 C 0.68882 0.38568 0.02262 0.0
C2054 C 0.67783 0.36973 0.97829 0.0
C2055 C 0.69506 0.3558 0.97923 0.0
C2056 C 0.70894 0.35648 0.0023 0.0
H2057 H 0.73343 0.2642 0.85054 0.0
H2058 H 0.73116 0.28519 0.89392 0.0
C2059 C 0.70581 0.3713 0.02394 0.0
C2060 C 0.69905 0.3417 0.95492 0.0
H2061 H 0.6968 0.29013 0.93313 0.0
C2062 C 0.70398 0.35111 0.92899 0.0
C2063 C 0.69673 0.31946 0.95667 0.0
C2064 C 0.69111 0.30877 0.98406 0.0
C2065 C 0.70633 0.33887 0.90454 0.0
C2066 C 0.70325 0.3167 0.90601 0.0
C2067 C 0.69897 0.30718 0.93212 0.0
C2068 C 0.70395 0.30329 0.88045 0.0
C2069 C 0.7121 0.34978 0.87732 0.0
C2070 C 0.68912 0.30627 0.85883 0.0
C2071 C 0.69043 0.29443 0.834 0.0
C2072 C 0.70658 0.27935 0.83041 0.0
C2073 C 0.72103 0.27597 0.85249 0.0
C2074 C 0.71968 0.28781 0.87735 0.0
H2075 H 0.71929 0.36564 0.88112 0.0
H2076 H 0.7234 0.34008 0.86481 0.0
H2077 H 0.69754 0.35202 0.86458 0.0
H2078 H 0.67667 0.31796 0.86105 0.0
H2079 H 0.67913 0.29747 0.81735 0.0
H2080 H 0.38863 0.32936 0.19005 0.0
H2081 H 0.3822 0.35471 0.2275 0.0
H2082 H 0.43669 0.33131 0.27266 0.0
H2083 H 0.44244 0.30486 0.23558 0.0
H2084 H 0.40508 0.32935 0.30516 0.0
H2085 H 0.40064 0.40866 0.26053 0.0
H2086 H 0.38548 0.39228 0.23725 0.0
H2087 H 0.41354 0.38736 0.24167 0.0
C2088 C 0.39955 0.32994 0.20763 0.0
C2089 C 0.41576 0.31488 0.21016 0.0
C2090 C 0.39611 0.34476 0.2289 0.0
C2091 C 0.40909 0.34518 0.25294 0.0
C2092 C 0.42651 0.33138 0.25429 0.0
H2093 H 0.32151 0.41623 0.35595 0.0
H2094 H 0.35824 0.40811 0.34277 0.0
C2095 C 0.42984 0.31633 0.23303 0.0
C2096 C 0.40154 0.35673 0.27832 0.0
H2097 H 0.37041 0.39916 0.29365 0.0
C2098 C 0.3982 0.345 0.30307 0.0
C2099 C 0.39328 0.37749 0.27659 0.0
C2100 C 0.39873 0.39217 0.25262 0.0
C2101 C 0.38412 0.35213 0.3239 0.0
C2102 C 0.37259 0.37099 0.31926 0.0
C2103 C 0.37854 0.38424 0.29683 0.0
C2104 C 0.35199 0.37504 0.33346 0.0
C2105 C 0.3808 0.33868 0.34974 0.0
C2106 C 0.33634 0.35909 0.33332 0.0
C2107 C 0.31553 0.36363 0.34116 0.0
C2108 C 0.3098 0.38434 0.34866 0.0
C2109 C 0.32557 0.40014 0.35009 0.0
C2110 C 0.34653 0.3955 0.34265 0.0
H2111 H 0.39614 0.33197 0.35689 0.0
H2112 H 0.37365 0.34785 0.36733 0.0
H2113 H 0.37026 0.32511 0.34446 0.0
H2114 H 0.33981 0.34339 0.32533 0.0
H2115 H 0.30362 0.35126 0.33944 0.0
H2116 H 0.65187 0.56891 0.39028 0.0
H2117 H 0.64608 0.53176 0.40348 0.0
H2118 H 0.58316 0.54745 0.43266 0.0
H2119 H 0.58861 0.58419 0.41885 0.0
H2120 H 0.63991 0.51858 0.45624 0.0
H2121 H 0.57171 0.49213 0.39357 0.0
H2122 H 0.58741 0.515 0.3838 0.0
H2123 H 0.5656 0.51756 0.40827 0.0
C2124 C 0.63657 0.56423 0.3987 0.0
C2125 C 0.62068 0.57941 0.40366 0.0
C2126 C 0.63334 0.54305 0.4063 0.0
C2127 C 0.61408 0.53674 0.41862 0.0
C2128 C 0.59794 0.55178 0.42249 0.0
H2129 H 0.57129 0.48785 0.558 0.0
H2130 H 0.59644 0.49889 0.52229 0.0
C2131 C 0.60116 0.57286 0.41496 0.0
C2132 C 0.61151 0.51546 0.43123 0.0
H2133 H 0.57241 0.4793 0.44294 0.0
C2134 C 0.62552 0.50948 0.45272 0.0
C2135 C 0.59325 0.50302 0.42605 0.0
C2136 C 0.57882 0.50717 0.40139 0.0
C2137 C 0.62014 0.49327 0.47161 0.0
C2138 C 0.60007 0.48333 0.46928 0.0
C2139 C 0.58759 0.48724 0.44536 0.0
C2140 C 0.58968 0.47288 0.49365 0.0
C2141 C 0.63546 0.48792 0.49486 0.0
C2142 C 0.57771 0.45425 0.48998 0.0
C2143 C 0.56294 0.44807 0.5104 0.0
C2144 C 0.55997 0.46041 0.5348 0.0
C2145 C 0.57339 0.47785 0.53962 0.0
C2146 C 0.58796 0.48412 0.51915 0.0
H2147 H 0.65203 0.48836 0.48686 0.0
H2148 H 0.63424 0.5 0.51182 0.0
H2149 H 0.63224 0.47201 0.50391 0.0
H2150 H 0.57871 0.44534 0.47048 0.0
H2151 H 0.55291 0.43443 0.50631 0.0
H2152 H 0.23555 0.81524 0.68541 0.0
H2153 H 0.24584 0.7893 0.72027 0.0
H2154 H 0.19098 0.80516 0.77059 0.0
H2155 H 0.18084 0.83177 0.73567 0.0
H2156 H 0.22426 0.81061 0.80011 0.0
H2157 H 0.23412 0.7326 0.75143 0.0
H2158 H 0.24654 0.75124 0.72833 0.0
H2159 H 0.21834 0.75293 0.73493 0.0
C2160 C 0.22514 0.81259 0.70325 0.0
C2161 C 0.20751 0.82566 0.70795 0.0
C2162 C 0.23097 0.79757 0.7232 0.0
C2163 C 0.2191 0.79504 0.74806 0.0
C2164 C 0.20037 0.80677 0.75157 0.0
H2165 H 0.31126 0.72882 0.85232 0.0
H2166 H 0.27464 0.73537 0.83737 0.0
C2167 C 0.19463 0.822 0.73168 0.0
C2168 C 0.22888 0.78388 0.77221 0.0
H2169 H 0.26337 0.74354 0.78454 0.0
C2170 C 0.23215 0.79552 0.79713 0.0
C2171 C 0.23873 0.7639 0.76908 0.0
C2172 C 0.23397 0.74942 0.74456 0.0
C2173 C 0.24726 0.78914 0.81693 0.0
C2174 C 0.25969 0.77104 0.81126 0.0
C2175 C 0.25429 0.75783 0.7885 0.0
C2176 C 0.28049 0.76786 0.82502 0.0
C2177 C 0.25071 0.80267 0.84278 0.0
C2178 C 0.29582 0.78402 0.82334 0.0
C2179 C 0.31661 0.78037 0.83189 0.0
C2180 C 0.32257 0.7604 0.84203 0.0
C2181 C 0.30704 0.74445 0.84484 0.0
C2182 C 0.28616 0.74813 0.83623 0.0
H2183 H 0.23547 0.80954 0.85018 0.0
H2184 H 0.25789 0.79346 0.86021 0.0
H2185 H 0.26142 0.81607 0.83743 0.0
H2186 H 0.29201 0.7992 0.81405 0.0
H2187 H 0.32821 0.79298 0.82967 0.0
H2188 H 0.15366 0.56349 0.10953 0.0
H2189 H 0.14714 0.52639 0.09611 0.0
H2190 H 0.08793 0.54462 0.05783 0.0
H2191 H 0.09393 0.58127 0.07197 0.0
H2192 H 0.08564 0.50624 0.08675 0.0
H2193 H 0.155 0.50878 0.01364 0.0
H2194 H 0.15909 0.5134 0.05064 0.0
H2195 H 0.14511 0.53261 0.03002 0.0
C2196 C 0.13903 0.55942 0.09883 0.0
C2197 C 0.12442 0.57528 0.09138 0.0
C2198 C 0.13544 0.53829 0.09099 0.0
C2199 C 0.11724 0.53285 0.07558 0.0
C2200 C 0.10212 0.54849 0.06966 0.0
H2201 H 0.06839 0.48936 0.93963 0.0
H2202 H 0.09375 0.4988 0.97596 0.0
C2203 C 0.10564 0.56946 0.07751 0.0
C2204 C 0.11421 0.51156 0.06306 0.0
H2205 H 0.12816 0.48435 0.00376 0.0
C2206 C 0.09523 0.50087 0.06914 0.0
C2207 C 0.12701 0.50454 0.0404 0.0
C2208 C 0.14769 0.51536 0.03308 0.0
C2209 C 0.08714 0.48539 0.0508 0.0
C2210 C 0.09881 0.48009 0.02623 0.0
C2211 C 0.11922 0.48861 0.02247 0.0
C2212 C 0.08803 0.47083 1.00133 0.0
C2213 C 1.06508 0.47687 0.05622 0.0
C2214 C 0.07734 0.4513 0.00251 0.0
C2215 C 1.06246 0.446 0.98178 0.0
C2216 C 1.05854 0.45996 0.95934 0.0
C2217 C 0.07111 0.47824 0.95657 0.0
C2218 C 0.08565 0.48365 0.97742 0.0
H2219 H 1.05755 0.4842 0.07504 0.0
H2220 H 1.05471 0.47979 0.03777 0.0
H2221 H 1.06583 0.45951 0.05975 0.0
H2222 H 0.0794 0.44087 0.02036 0.0
H2223 H 1.05317 0.43163 0.98412 0.0
H2224 H 0.8212 0.9119 0.86172 0.0
H2225 H 0.85788 0.90377 0.84801 0.0
H2226 H 0.83714 0.84327 0.81522 0.0
H2227 H 0.80087 0.85106 0.82939 0.0
H2228 H 0.87555 0.84069 0.84122 0.0
H2229 H 0.87454 0.90846 0.76603 0.0
H2230 H 0.87143 0.91409 0.80292 0.0
H2231 H 0.85088 0.90012 0.78431 0.0
C2232 C 0.82463 0.89674 0.85196 0.0
C2233 C 0.80822 0.88215 0.84638 0.0
C2234 C 0.84553 0.89217 0.84409 0.0
C2235 C 0.85016 0.8731 0.83012 0.0
C2236 C 0.83395 0.85808 0.82604 0.0
H2237 H 0.89523 0.82247 0.69348 0.0
H2238 H 0.88497 0.84756 0.7298 0.0
C2239 C 0.8132 0.86251 0.83417 0.0
C2240 C 0.87112 0.86907 0.81709 0.0
H2241 H 0.8992 0.88179 0.758 0.0
C2242 C 0.88122 0.84992 0.82347 0.0
C2243 C 0.87856 0.88139 0.79421 0.0
C2244 C 0.86833 0.90213 0.78625 0.0
C2245 C 0.89659 0.8413 0.80544 0.0
C2246 C 0.90251 0.85264 0.78091 0.0
C2247 C 0.89449 0.87312 0.77671 0.0
C2248 C 0.91217 0.84163 0.75647 0.0
C2249 C 0.90446 0.81914 0.81121 0.0
C2250 C 0.93156 0.83086 0.7585 0.0
C2251 C 0.93733 0.81615 0.73776 0.0
C2252 C 0.92401 0.81247 0.71448 0.0
C2253 C 0.90588 0.82503 0.71106 0.0
C2254 C 0.89998 0.8394 0.73191 0.0
H2255 H 0.89645 0.8118 0.82965 0.0
H2256 H 0.90179 0.80877 0.79261 0.0
H2257 H 0.92173 0.81963 0.81558 0.0
H2258 H 0.94151 0.8328 0.77688 0.0
H2259 H 0.95157 0.80685 0.74064 0.0
H2260 H 0.82069 0.41522 0.14219 0.0
H2261 H 0.85692 0.40571 0.15587 0.0
H2262 H 0.8355 0.34226 0.17497 0.0
H2263 H 0.79975 0.3515 0.16059 0.0
H2264 H 0.86854 0.39662 0.20567 0.0
H2265 H 0.89108 0.32801 0.14189 0.0
H2266 H 0.86933 0.34493 0.13182 0.0
H2267 H 0.865 0.32261 0.15495 0.0
C2268 C 0.82395 0.3991 0.1486 0.0
C2269 C 0.80747 0.38407 0.15036 0.0
C2270 C 0.84463 0.39367 0.15632 0.0
C2271 C 0.84911 0.37316 0.16601 0.0
C2272 C 0.83275 0.35795 0.16659 0.0
H2273 H 0.88877 0.32648 0.30881 0.0
H2274 H 0.8811 0.35162 0.27172 0.0
C2275 C 0.8122 0.36329 0.15857 0.0
C2276 C 0.86958 0.36833 0.17994 0.0
H2277 H 0.90113 0.32585 0.1929 0.0
C2278 C 0.8762 0.38146 0.20224 0.0
C2279 C 0.8804 0.34908 0.17497 0.0
C2280 C 0.87618 0.33556 0.14932 0.0
C2281 C 0.89109 0.37439 0.22195 0.0
C2282 C 0.89888 0.35345 0.21981 0.0
C2283 C 0.89468 0.34168 0.19525 0.0
C2284 C 0.90714 0.34194 0.24468 0.0
C2285 C 0.8973 0.389 0.24577 0.0
C2286 C 0.9245 0.32813 0.24225 0.0
C2287 C 0.92855 0.31323 0.26332 0.0
C2288 C 0.91525 0.31191 0.28707 0.0
C2289 C 0.8991 0.32695 0.29056 0.0
C2290 C 0.89495 0.34164 0.26948 0.0
H2291 H 0.89914 0.40549 0.23797 0.0
H2292 H 0.88448 0.38917 0.26183 0.0
H2293 H 0.91235 0.38405 0.25589 0.0
H2294 H 0.93407 0.32797 0.22327 0.0
H2295 H 0.94107 0.30177 0.26 0.0
H2296 H 1.06564 0.15027 0.95191 0.0
H2297 H 1.04376 0.13783 0.99054 0.0
H2298 H 0.07086 0.18546 0.04524 0.0
H2299 H 0.09305 0.19807 0.00628 0.0
H2300 H 0.07724 0.14747 0.06564 0.0
H2301 H 0.99302 0.15144 0.03742 0.0
H2302 H 1.00715 0.14088 0.00783 0.0
H2303 H 1.01281 0.16749 0.01985 0.0
C2304 C 1.06629 0.15878 0.97174 0.0
C2305 C 0.08124 0.17501 0.97611 0.0
C2306 C 1.05365 0.15168 0.99391 0.0
C2307 C 1.0555 0.16081 0.02082 0.0
C2308 C 0.06911 0.17824 0.02464 0.0
H2309 H 0.99119 1.06614 0.12393 0.0
H2310 H 1.00179 0.10286 0.11437 0.0
C2311 C 0.08183 0.18534 0.00241 0.0
C2312 C 1.04667 0.14927 0.04532 0.0
H2313 H 1.00407 0.11851 0.0623 0.0
C2314 C 1.06099 0.14173 0.06557 0.0
C2315 C 1.02539 0.14213 0.04594 0.0
C2316 C 1.00872 0.15117 0.02672 0.0
C2317 C 1.05532 0.12525 0.08384 0.0
C2318 C 1.03502 0.11588 0.08131 0.0
C2319 C 1.01985 0.12532 0.06377 0.0
C2320 C 1.03055 0.09436 0.09217 0.0
C2321 C 0.0716 0.11714 0.10437 0.0
C2322 C 1.04339 0.07745 0.08328 0.0
C2323 C 1.03743 1.05658 0.08872 0.0
C2324 C 1.01839 1.05218 0.10294 0.0
C2325 C 1.00605 0.0691 0.11311 0.0
C2326 C 1.01203 0.09006 0.10761 0.0
H2327 H 0.08181 0.13031 0.11211 0.0
H2328 H 1.06402 0.10924 0.1227 0.0
H2329 H 0.08205 0.10557 0.09352 0.0
H2330 H 1.05746 0.08031 0.0707 0.0
H2331 H 1.04732 1.04385 0.08084 0.0
H2332 H 0.65024 1.06473 0.6141 0.0
H2333 H 0.64363 1.02765 0.60082 0.0
H2334 H 0.58469 1.04605 0.56192 0.0
H2335 H 0.59075 0.08268 0.57604 0.0
H2336 H 0.58199 1.00763 0.58989 0.0
H2337 H 0.65251 1.01036 0.51876 0.0
H2338 H 0.65617 1.01459 0.55591 0.0
H2339 H 0.64252 1.03407 0.53534 0.0
C2340 C 0.63563 1.06071 0.60335 0.0
C2341 C 0.62114 0.07662 0.59568 0.0
C2342 C 0.63199 1.03958 0.59556 0.0
C2343 C 0.61388 1.03419 0.57993 0.0
C2344 C 0.59882 1.04987 0.5739 0.0
H2345 H 0.56749 0.99053 0.4421 0.0
H2346 H 0.59207 1.00014 0.47929 0.0
C2347 C 0.60237 0.07084 0.58175 0.0
C2348 C 0.61099 1.01297 0.56714 0.0
H2349 H 0.626 0.98579 0.50825 0.0
C2350 C 0.59189 1.00229 0.57257 0.0
C2351 C 0.62418 1.00597 0.54485 0.0
C2352 C 0.64499 1.01678 0.53815 0.0
C2353 C 0.58412 0.98684 0.55394 0.0
C2354 C 0.59624 0.98153 0.52976 0.0
C2355 C 0.61672 0.99005 0.52667 0.0
C2356 C 0.58596 0.97221 0.50454 0.0
C2357 C 0.56195 0.97834 0.55861 0.0
C2358 C 0.57533 0.95263 0.50543 0.0
C2359 C 0.56091 0.94722 0.48418 0.0
C2360 C 0.55738 0.96112 0.46156 0.0
C2361 C 0.56992 0.97945 0.45917 0.0
C2362 C 0.58401 0.98497 0.48051 0.0
H2363 H 0.55406 0.98571 0.57713 0.0
H2364 H 0.55196 0.98123 0.53978 0.0
H2365 H 0.56263 0.96099 0.56222 0.0
H2366 H 0.57707 0.94225 0.52338 0.0
H2367 H 0.55165 0.93281 0.48624 0.0
loop_
_geom_bond_atom_site_label_1
_geom_bond_atom_site_label_2
_geom_bond_distance
_geom_bond_site_symmetry_2
_ccdc_geom_bond_type
Dy0 O3 2.307 . S
Dy0 O5 2.395 . S
Dy0 O6 2.379 . S
Dy0 O8 2.339 . S
Dy0 O10 2.298 . S
Dy0 O14 2.275 . S
Dy0 C22 2.738 . S
Dy1 O4 2.298 . S
Dy1 O7 2.275 . S
Dy1 O9 2.307 . S
Dy1 O11 2.395 1_554 S
Dy1 O12 2.379 1_554 S
Dy1 O15 2.339 . S
Dy1 C31 2.738 1_554 S
C2 O14 1.254 . S
C2 O15 1.257 . S
O3 Dy0 2.307 . S
O3 C13 1.266 . S
O4 Dy1 2.298 . S
O4 C13 1.236 . S
O5 Dy0 2.395 . S
O5 C22 1.255 . S
O6 Dy0 2.379 . S
O6 C22 1.249 . S
O7 Dy1 2.275 . S
O7 C23 1.254 . S
O8 Dy0 2.339 . S
O8 C23 1.257 . S
O9 Dy1 2.307 . S
O9 C24 1.266 . S
O10 Dy0 2.298 . S
O10 C24 1.236 . S
O11 Dy1 2.395 1_556 S
O11 C31 1.255 . S
O12 Dy1 2.379 1_556 S
O12 C31 1.249 . S
C13 O3 1.266 . S
C13 O4 1.236 . S
O14 Dy0 2.275 . S
O14 C2 1.254 . S
O15 Dy1 2.339 . S
O15 C2 1.257 . S
C16 C19 1.344 . S
C16 C20 1.328 . S
C16 C22 1.516 . S
C17 C18 1.304 . S
C17 C21 1.323 . S
C18 C17 1.304 . S
C18 C19 1.371 . S
C18 H32 0.930 . S
C19 C16 1.344 . S
C19 C18 1.371 . S
C19 H33 0.931 . S
C20 C16 1.328 . S
C20 C21 1.433 . S
C20 H34 0.931 . S
C21 C17 1.323 . S
C21 C20 1.433 . S
C21 H35 0.933 . S
C22 Dy0 2.738 . S
C22 O5 1.255 . S
C22 O6 1.249 . S
C22 C16 1.516 . S
C23 O7 1.254 . S
C23 O8 1.257 . S
C24 O9 1.266 . S
C24 O10 1.236 . S
C25 C28 1.344 . S
C25 C29 1.328 . S
C25 C31 1.516 . S
C26 C27 1.304 . S
C26 C30 1.323 . S
C27 C26 1.304 . S
C27 C28 1.371 . S
C27 H36 0.930 . S
C28 C25 1.344 . S
C28 C27 1.371 . S
C28 H37 0.931 . S
C29 C25 1.328 . S
C29 C30 1.433 . S
C29 H38 0.931 . S
C30 C26 1.323 . S
C30 C29 1.433 . S
C30 H39 0.933 . S
C31 Dy1 2.738 1_556 S
C31 O11 1.255 . S
C31 O12 1.249 . S
C31 C25 1.516 . S
H32 C18 0.930 . S
H33 C19 0.931 . S
H34 C20 0.931 . S
H35 C21 0.933 . S
H36 C27 0.930 . S
H37 C28 0.931 . S
H38 C29 0.931 . S
H39 C30 0.933 . S
Dy40 O43 2.307 . S
Dy40 O45 2.395 . S
Dy40 O46 2.379 . S
Dy40 O48 2.339 . S
Dy40 O50 2.298 . S
Dy40 O54 2.275 . S
Dy40 C62 2.738 . S
Dy41 O44 2.298 . S
Dy41 O47 2.275 . S
Dy41 O49 2.307 . S
Dy41 O51 2.395 . S
Dy41 O52 2.379 . S
Dy41 O55 2.339 . S
Dy41 C71 2.738 . S
C42 O54 1.254 . S
C42 O55 1.257 . S
O43 Dy40 2.307 . S
O43 C53 1.266 . S
O44 Dy41 2.298 . S
O44 C53 1.236 . S
O45 Dy40 2.395 . S
O45 C62 1.255 . S
O46 Dy40 2.379 . S
O46 C62 1.249 . S
O47 Dy41 2.275 . S
O47 C63 1.254 . S
O48 Dy40 2.339 . S
O48 C63 1.257 . S
O49 Dy41 2.307 . S
O49 C64 1.266 . S
O50 Dy40 2.298 . S
O50 C64 1.236 . S
O51 Dy41 2.395 . S
O51 C71 1.255 . S
O52 Dy41 2.379 . S
O52 C71 1.249 . S
C53 O43 1.266 . S
C53 O44 1.236 . S
O54 Dy40 2.275 . S
O54 C42 1.254 . S
O55 Dy41 2.339 . S
O55 C42 1.257 . S
C56 C59 1.344 . S
C56 C60 1.328 . S
C56 C62 1.516 . S
C57 C58 1.304 . S
C57 C61 1.323 . S
C58 C57 1.304 . S
C58 C59 1.371 . S
C58 H72 0.930 . S
C59 C56 1.344 . S
C59 C58 1.371 . S
C59 H73 0.931 . S
C60 C56 1.328 . S
C60 C61 1.433 . S
C60 H74 0.931 . S
C61 C57 1.323 . S
C61 C60 1.433 . S
C61 H75 0.933 . S
C62 Dy40 2.738 . S
C62 O45 1.255 . S
C62 O46 1.249 . S
C62 C56 1.516 . S
C63 O47 1.254 . S
C63 O48 1.257 . S
C64 O49 1.266 . S
C64 O50 1.236 . S
C65 C68 1.344 . S
C65 C69 1.328 . S
C65 C71 1.516 . S
C66 C67 1.304 . S
C66 C70 1.323 . S
C67 C66 1.304 . S
C67 C68 1.371 . S
C67 H76 0.930 . S
C68 C65 1.344 . S
C68 C67 1.371 . S
C68 H77 0.931 . S
C69 C65 1.328 . S
C69 C70 1.433 . S
C69 H78 0.931 . S
C70 C66 1.323 . S
C70 C69 1.433 . S
C70 H79 0.933 . S
C71 Dy41 2.738 . S
C71 O51 1.255 . S
C71 O52 1.249 . S
C71 C65 1.516 . S
H72 C58 0.930 . S
H73 C59 0.931 . S
H74 C60 0.931 . S
H75 C61 0.933 . S
H76 C67 0.930 . S
H77 C68 0.931 . S
H78 C69 0.931 . S
H79 C70 0.933 . S
Dy80 O83 2.307 . S
Dy80 O85 2.395 . S
Dy80 O86 2.379 . S
Dy80 O88 2.339 . S
Dy80 O90 2.298 . S
Dy80 O94 2.275 . S
Dy80 C102 2.738 . S
Dy81 O84 2.298 . S
Dy81 O87 2.275 . S
Dy81 O89 2.307 . S
Dy81 O91 2.395 . S
Dy81 O92 2.379 . S
Dy81 O95 2.339 . S
Dy81 C111 2.738 . S
C82 O94 1.254 . S
C82 O95 1.257 . S
O83 Dy80 2.307 . S
O83 C93 1.266 . S
O84 Dy81 2.298 . S
O84 C93 1.236 . S
O85 Dy80 2.395 . S
O85 C102 1.255 . S
O86 Dy80 2.379 . S
O86 C102 1.249 . S
O87 Dy81 2.275 . S
O87 C103 1.254 . S
O88 Dy80 2.339 . S
O88 C103 1.257 . S
O89 Dy81 2.307 . S
O89 C104 1.266 . S
O90 Dy80 2.298 . S
O90 C104 1.236 . S
O91 Dy81 2.395 . S
O91 C111 1.255 . S
O92 Dy81 2.379 . S
O92 C111 1.249 . S
C93 O83 1.266 . S
C93 O84 1.236 . S
O94 Dy80 2.275 . S
O94 C82 1.254 . S
O95 Dy81 2.339 . S
O95 C82 1.257 . S
C96 C99 1.344 . S
C96 C100 1.328 . S
C96 C102 1.516 . S
C97 C98 1.304 . S
C97 C101 1.323 . S
C98 C97 1.304 . S
C98 C99 1.371 . S
C98 H112 0.930 . S
C99 C96 1.344 . S
C99 C98 1.371 . S
C99 H113 0.931 . S
C100 C96 1.328 . S
C100 C101 1.433 . S
C100 H114 0.931 . S
C101 C97 1.323 . S
C101 C100 1.433 . S
C101 H115 0.933 . S
C102 Dy80 2.738 . S
C102 O85 1.255 . S
C102 O86 1.249 . S
C102 C96 1.516 . S
C103 O87 1.254 . S
C103 O88 1.257 . S
C104 O89 1.266 . S
C104 O90 1.236 . S
C105 C108 1.344 . S
C105 C109 1.328 . S
C105 C111 1.516 . S
C106 C107 1.304 . S
C106 C110 1.323 . S
C107 C106 1.304 . S
C107 C108 1.371 . S
C107 H116 0.930 . S
C108 C105 1.344 . S
C108 C107 1.371 . S
C108 H117 0.931 . S
C109 C105 1.328 . S
C109 C110 1.433 . S
C109 H118 0.931 . S
C110 C106 1.323 . S
C110 C109 1.433 . S
C110 H119 0.933 . S
C111 Dy81 2.738 . S
C111 O91 1.255 . S
C111 O92 1.249 . S
C111 C105 1.516 . S
H112 C98 0.930 . S
H113 C99 0.931 . S
H114 C100 0.931 . S
H115 C101 0.933 . S
H116 C107 0.930 . S
H117 C108 0.931 . S
H118 C109 0.931 . S
H119 C110 0.933 . S
Dy120 O123 2.307 . S
Dy120 O125 2.395 . S
Dy120 O126 2.379 . S
Dy120 O128 2.339 . S
Dy120 O130 2.298 . S
Dy120 O134 2.275 . S
Dy120 C142 2.738 . S
Dy121 O124 2.298 . S
Dy121 O127 2.275 . S
Dy121 O129 2.307 . S
Dy121 O131 2.395 . S
Dy121 O132 2.379 . S
Dy121 O135 2.339 . S
Dy121 C151 2.738 . S
C122 O134 1.254 . S
C122 O135 1.257 . S
O123 Dy120 2.307 . S
O123 C133 1.266 . S
O124 Dy121 2.298 . S
O124 C133 1.236 . S
O125 Dy120 2.395 . S
O125 C142 1.255 . S
O126 Dy120 2.379 . S
O126 C142 1.249 . S
O127 Dy121 2.275 . S
O127 C143 1.254 . S
O128 Dy120 2.339 . S
O128 C143 1.257 . S
O129 Dy121 2.307 . S
O129 C144 1.266 . S
O130 Dy120 2.298 . S
O130 C144 1.236 . S
O131 Dy121 2.395 . S
O131 C151 1.255 . S
O132 Dy121 2.379 . S
O132 C151 1.249 . S
C133 O123 1.266 . S
C133 O124 1.236 . S
O134 Dy120 2.275 . S
O134 C122 1.254 . S
O135 Dy121 2.339 . S
O135 C122 1.257 . S
C136 C139 1.344 . S
C136 C140 1.328 . S
C136 C142 1.516 . S
C137 C138 1.304 . S
C137 C141 1.323 . S
C138 C137 1.304 . S
C138 C139 1.371 . S
C138 H152 0.930 . S
C139 C136 1.344 . S
C139 C138 1.371 . S
C139 H153 0.931 . S
C140 C136 1.328 . S
C140 C141 1.433 . S
C140 H154 0.931 . S
C141 C137 1.323 . S
C141 C140 1.433 . S
C141 H155 0.933 . S
C142 Dy120 2.738 . S
C142 O125 1.255 . S
C142 O126 1.249 . S
C142 C136 1.516 . S
C143 O127 1.254 . S
C143 O128 1.257 . S
C144 O129 1.266 . S
C144 O130 1.236 . S
C145 C148 1.344 . S
C145 C149 1.328 . S
C145 C151 1.516 . S
C146 C147 1.304 . S
C146 C150 1.323 . S
C147 C146 1.304 . S
C147 C148 1.371 . S
C147 H156 0.930 . S
C148 C145 1.344 . S
C148 C147 1.371 . S
C148 H157 0.931 . S
C149 C145 1.328 . S
C149 C150 1.433 . S
C149 H158 0.931 . S
C150 C146 1.323 . S
C150 C149 1.433 . S
C150 H159 0.933 . S
C151 Dy121 2.738 . S
C151 O131 1.255 . S
C151 O132 1.249 . S
C151 C145 1.516 . S
H152 C138 0.930 . S
H153 C139 0.931 . S
H154 C140 0.931 . S
H155 C141 0.933 . S
H156 C147 0.930 . S
H157 C148 0.931 . S
H158 C149 0.931 . S
H159 C150 0.933 . S
Dy160 O163 2.307 . S
Dy160 O165 2.395 1_556 S
Dy160 O166 2.379 1_556 S
Dy160 O168 2.339 . S
Dy160 O170 2.298 . S
Dy160 O174 2.275 . S
Dy160 C182 2.738 1_556 S
Dy161 O164 2.298 . S
Dy161 O167 2.275 . S
Dy161 O169 2.307 . S
Dy161 O171 2.395 . S
Dy161 O172 2.379 . S
Dy161 O175 2.339 . S
Dy161 C191 2.738 . S
C162 O174 1.254 . S
C162 O175 1.257 . S
O163 Dy160 2.307 . S
O163 C173 1.266 . S
O164 Dy161 2.298 . S
O164 C173 1.236 . S
O165 Dy160 2.395 1_554 S
O165 C182 1.255 . S
O166 Dy160 2.379 1_554 S
O166 C182 1.249 . S
O167 Dy161 2.275 . S
O167 C183 1.254 . S
O168 Dy160 2.339 . S
O168 C183 1.257 . S
O169 Dy161 2.307 . S
O169 C184 1.266 . S
O170 Dy160 2.298 . S
O170 C184 1.236 . S
O171 Dy161 2.395 . S
O171 C191 1.255 . S
O172 Dy161 2.379 . S
O172 C191 1.249 . S
C173 O163 1.266 . S
C173 O164 1.236 . S
O174 Dy160 2.275 . S
O174 C162 1.254 . S
O175 Dy161 2.339 . S
O175 C162 1.257 . S
C176 C179 1.344 . S
C176 C180 1.328 . S
C176 C182 1.516 . S
C177 C178 1.304 . S
C177 C181 1.323 . S
C178 C177 1.304 . S
C178 C179 1.371 . S
C178 H192 0.930 . S
C179 C176 1.344 . S
C179 C178 1.371 . S
C179 H193 0.931 . S
C180 C176 1.328 . S
C180 C181 1.433 . S
C180 H194 0.931 . S
C181 C177 1.323 . S
C181 C180 1.433 . S
C181 H195 0.933 . S
C182 Dy160 2.738 1_554 S
C182 O165 1.255 . S
C182 O166 1.249 . S
C182 C176 1.516 . S
C183 O167 1.254 . S
C183 O168 1.257 . S
C184 O169 1.266 . S
C184 O170 1.236 . S
C185 C188 1.344 . S
C185 C189 1.328 . S
C185 C191 1.516 . S
C186 C187 1.304 . S
C186 C190 1.323 . S
C187 C186 1.304 . S
C187 C188 1.371 . S
C187 H196 0.930 . S
C188 C185 1.344 . S
C188 C187 1.371 . S
C188 H197 0.931 . S
C189 C185 1.328 . S
C189 C190 1.433 . S
C189 H198 0.931 . S
C190 C186 1.323 . S
C190 C189 1.433 . S
C190 H199 0.933 . S
C191 Dy161 2.738 . S
C191 O171 1.255 . S
C191 O172 1.249 . S
C191 C185 1.516 . S
H192 C178 0.930 . S
H193 C179 0.931 . S
H194 C180 0.931 . S
H195 C181 0.933 . S
H196 C187 0.930 . S
H197 C188 0.931 . S
H198 C189 0.931 . S
H199 C190 0.933 . S
Dy200 O203 2.307 . S
Dy200 O205 2.395 . S
Dy200 O206 2.379 . S
Dy200 O208 2.339 . S
Dy200 O210 2.298 . S
Dy200 O214 2.275 . S
Dy200 C222 2.738 . S
Dy201 O204 2.298 . S
Dy201 O207 2.275 . S
Dy201 O209 2.307 . S
Dy201 O211 2.395 . S
Dy201 O212 2.379 . S
Dy201 O215 2.339 . S
Dy201 C231 2.738 . S
C202 O214 1.254 . S
C202 O215 1.257 . S
O203 Dy200 2.307 . S
O203 C213 1.266 . S
O204 Dy201 2.298 . S
O204 C213 1.236 . S
O205 Dy200 2.395 . S
O205 C222 1.255 . S
O206 Dy200 2.379 . S
O206 C222 1.249 . S
O207 Dy201 2.275 . S
O207 C223 1.254 . S
O208 Dy200 2.339 . S
O208 C223 1.257 . S
O209 Dy201 2.307 . S
O209 C224 1.266 . S
O210 Dy200 2.298 . S
O210 C224 1.236 . S
O211 Dy201 2.395 . S
O211 C231 1.255 . S
O212 Dy201 2.379 . S
O212 C231 1.249 . S
C213 O203 1.266 . S
C213 O204 1.236 . S
O214 Dy200 2.275 . S
O214 C202 1.254 . S
O215 Dy201 2.339 . S
O215 C202 1.257 . S
C216 C219 1.344 . S
C216 C220 1.328 . S
C216 C222 1.516 . S
C217 C218 1.304 . S
C217 C221 1.323 . S
C218 C217 1.304 . S
C218 C219 1.371 . S
C218 H232 0.930 . S
C219 C216 1.344 . S
C219 C218 1.371 . S
C219 H233 0.931 . S
C220 C216 1.328 . S
C220 C221 1.433 . S
C220 H234 0.931 . S
C221 C217 1.323 . S
C221 C220 1.433 . S
C221 H235 0.933 . S
C222 Dy200 2.738 . S
C222 O205 1.255 . S
C222 O206 1.249 . S
C222 C216 1.516 . S
C223 O207 1.254 . S
C223 O208 1.257 . S
C224 O209 1.266 . S
C224 O210 1.236 . S
C225 C228 1.344 . S
C225 C229 1.328 . S
C225 C231 1.516 . S
C226 C227 1.304 . S
C226 C230 1.323 . S
C227 C226 1.304 . S
C227 C228 1.371 . S
C227 H236 0.930 . S
C228 C225 1.344 . S
C228 C227 1.371 . S
C228 H237 0.931 . S
C229 C225 1.328 . S
C229 C230 1.433 . S
C229 H238 0.931 . S
C230 C226 1.323 . S
C230 C229 1.433 . S
C230 H239 0.933 . S
C231 Dy201 2.738 . S
C231 O211 1.255 . S
C231 O212 1.249 . S
C231 C225 1.516 . S
H232 C218 0.930 . S
H233 C219 0.931 . S
H234 C220 0.931 . S
H235 C221 0.933 . S
H236 C227 0.930 . S
H237 C228 0.931 . S
H238 C229 0.931 . S
H239 C230 0.933 . S
Dy240 O243 2.307 . S
Dy240 O245 2.395 . S
Dy240 O246 2.379 . S
Dy240 O248 2.339 . S
Dy240 O250 2.298 . S
Dy240 O254 2.275 . S
Dy240 C262 2.738 . S
Dy241 O244 2.298 . S
Dy241 O247 2.275 . S
Dy241 O249 2.307 . S
Dy241 O251 2.395 . S
Dy241 O252 2.379 . S
Dy241 O255 2.339 . S
Dy241 C271 2.738 . S
C242 O254 1.254 . S
C242 O255 1.257 . S
O243 Dy240 2.307 . S
O243 C253 1.266 . S
O244 Dy241 2.298 . S
O244 C253 1.236 . S
O245 Dy240 2.395 . S
O245 C262 1.255 . S
O246 Dy240 2.379 . S
O246 C262 1.249 . S
O247 Dy241 2.275 . S
O247 C263 1.254 . S
O248 Dy240 2.339 . S
O248 C263 1.257 . S
O249 Dy241 2.307 . S
O249 C264 1.266 . S
O250 Dy240 2.298 . S
O250 C264 1.236 . S
O251 Dy241 2.395 . S
O251 C271 1.255 . S
O252 Dy241 2.379 . S
O252 C271 1.249 . S
C253 O243 1.266 . S
C253 O244 1.236 . S
O254 Dy240 2.275 . S
O254 C242 1.254 . S
O255 Dy241 2.339 . S
O255 C242 1.257 . S
C256 C259 1.344 . S
C256 C260 1.328 . S
C256 C262 1.516 . S
C257 C258 1.304 . S
C257 C261 1.323 . S
C258 C257 1.304 . S
C258 C259 1.371 . S
C258 H272 0.930 . S
C259 C256 1.344 . S
C259 C258 1.371 . S
C259 H273 0.931 . S
C260 C256 1.328 . S
C260 C261 1.433 . S
C260 H274 0.931 . S
C261 C257 1.323 . S
C261 C260 1.433 . S
C261 H275 0.933 . S
C262 Dy240 2.738 . S
C262 O245 1.255 . S
C262 O246 1.249 . S
C262 C256 1.516 . S
C263 O247 1.254 . S
C263 O248 1.257 . S
C264 O249 1.266 . S
C264 O250 1.236 . S
C265 C268 1.344 . S
C265 C269 1.328 . S
C265 C271 1.516 . S
C266 C267 1.304 . S
C266 C270 1.323 . S
C267 C266 1.304 . S
C267 C268 1.371 . S
C267 H276 0.930 . S
C268 C265 1.344 . S
C268 C267 1.371 . S
C268 H277 0.931 . S
C269 C265 1.328 . S
C269 C270 1.433 . S
C269 H278 0.931 . S
C270 C266 1.323 . S
C270 C269 1.433 . S
C270 H279 0.933 . S
C271 Dy241 2.738 . S
C271 O251 1.255 . S
C271 O252 1.249 . S
C271 C265 1.516 . S
H272 C258 0.930 . S
H273 C259 0.931 . S
H274 C260 0.931 . S
H275 C261 0.933 . S
H276 C267 0.930 . S
H277 C268 0.931 . S
H278 C269 0.931 . S
H279 C270 0.933 . S
Dy280 O283 2.307 . S
Dy280 O285 2.395 . S
Dy280 O286 2.379 . S
Dy280 O288 2.339 . S
Dy280 O290 2.298 . S
Dy280 O294 2.275 . S
Dy280 C302 2.738 . S
Dy281 O284 2.298 . S
Dy281 O287 2.275 . S
Dy281 O289 2.307 . S
Dy281 O291 2.395 . S
Dy281 O292 2.379 . S
Dy281 O295 2.339 . S
Dy281 C311 2.738 . S
C282 O294 1.254 . S
C282 O295 1.257 . S
O283 Dy280 2.307 . S
O283 C293 1.266 . S
O284 Dy281 2.298 . S
O284 C293 1.236 . S
O285 Dy280 2.395 . S
O285 C302 1.255 . S
O286 Dy280 2.379 . S
O286 C302 1.249 . S
O287 Dy281 2.275 . S
O287 C303 1.254 . S
O288 Dy280 2.339 . S
O288 C303 1.257 . S
O289 Dy281 2.307 . S
O289 C304 1.266 . S
O290 Dy280 2.298 . S
O290 C304 1.236 . S
O291 Dy281 2.395 . S
O291 C311 1.255 . S
O292 Dy281 2.379 . S
O292 C311 1.249 . S
C293 O283 1.266 . S
C293 O284 1.236 . S
O294 Dy280 2.275 . S
O294 C282 1.254 . S
O295 Dy281 2.339 . S
O295 C282 1.257 . S
C296 C299 1.344 . S
C296 C300 1.328 . S
C296 C302 1.516 . S
C297 C298 1.304 . S
C297 C301 1.323 . S
C298 C297 1.304 . S
C298 C299 1.371 . S
C298 H312 0.930 . S
C299 C296 1.344 . S
C299 C298 1.371 . S
C299 H313 0.931 . S
C300 C296 1.328 . S
C300 C301 1.433 . S
C300 H314 0.931 . S
C301 C297 1.323 . S
C301 C300 1.433 . S
C301 H315 0.933 . S
C302 Dy280 2.738 . S
C302 O285 1.255 . S
C302 O286 1.249 . S
C302 C296 1.516 . S
C303 O287 1.254 . S
C303 O288 1.257 . S
C304 O289 1.266 . S
C304 O290 1.236 . S
C305 C308 1.344 . S
C305 C309 1.328 . S
C305 C311 1.516 . S
C306 C307 1.304 . S
C306 C310 1.323 . S
C307 C306 1.304 . S
C307 C308 1.371 . S
C307 H316 0.930 . S
C308 C305 1.344 . S
C308 C307 1.371 . S
C308 H317 0.931 . S
C309 C305 1.328 . S
C309 C310 1.433 . S
C309 H318 0.931 . S
C310 C306 1.323 . S
C310 C309 1.433 . S
C310 H319 0.933 . S
C311 Dy281 2.738 . S
C311 O291 1.255 . S
C311 O292 1.249 . S
C311 C305 1.516 . S
H312 C298 0.930 . S
H313 C299 0.931 . S
H314 C300 0.931 . S
H315 C301 0.933 . S
H316 C307 0.930 . S
H317 C308 0.931 . S
H318 C309 0.931 . S
H319 C310 0.933 . S
Dy320 O323 2.307 . S
Dy320 O325 2.395 . S
Dy320 O326 2.379 . S
Dy320 O328 2.339 . S
Dy320 O330 2.298 . S
Dy320 O334 2.275 . S
Dy320 C342 2.738 . S
Dy321 O324 2.298 . S
Dy321 O327 2.275 . S
Dy321 O329 2.307 . S
Dy321 O331 2.395 . S
Dy321 O332 2.379 . S
Dy321 O335 2.339 . S
Dy321 C351 2.738 . S
C322 O334 1.254 . S
C322 O335 1.257 . S
O323 Dy320 2.307 . S
O323 C333 1.266 . S
O324 Dy321 2.298 . S
O324 C333 1.236 . S
O325 Dy320 2.395 . S
O325 C342 1.255 . S
O326 Dy320 2.379 . S
O326 C342 1.249 . S
O327 Dy321 2.275 . S
O327 C343 1.254 . S
O328 Dy320 2.339 . S
O328 C343 1.257 . S
O329 Dy321 2.307 . S
O329 C344 1.266 . S
O330 Dy320 2.298 . S
O330 C344 1.236 . S
O331 Dy321 2.395 . S
O331 C351 1.255 . S
O332 Dy321 2.379 . S
O332 C351 1.249 . S
C333 O323 1.266 . S
C333 O324 1.236 . S
O334 Dy320 2.275 . S
O334 C322 1.254 . S
O335 Dy321 2.339 . S
O335 C322 1.257 . S
C336 C339 1.344 . S
C336 C340 1.328 . S
C336 C342 1.516 . S
C337 C338 1.304 . S
C337 C341 1.323 . S
C338 C337 1.304 . S
C338 C339 1.371 . S
C338 H352 0.930 . S
C339 C336 1.344 . S
C339 C338 1.371 . S
C339 H353 0.931 . S
C340 C336 1.328 . S
C340 C341 1.433 . S
C340 H354 0.931 . S
C341 C337 1.323 . S
C341 C340 1.433 . S
C341 H355 0.933 . S
C342 Dy320 2.738 . S
C342 O325 1.255 . S
C342 O326 1.249 . S
C342 C336 1.516 . S
C343 O327 1.254 . S
C343 O328 1.257 . S
C344 O329 1.266 . S
C344 O330 1.236 . S
C345 C348 1.344 . S
C345 C349 1.328 . S
C345 C351 1.516 . S
C346 C347 1.304 . S
C346 C350 1.323 . S
C347 C346 1.304 . S
C347 C348 1.371 . S
C347 H356 0.930 . S
C348 C345 1.344 . S
C348 C347 1.371 . S
C348 H357 0.931 . S
C349 C345 1.328 . S
C349 C350 1.433 . S
C349 H358 0.931 . S
C350 C346 1.323 . S
C350 C349 1.433 . S
C350 H359 0.933 . S
C351 Dy321 2.738 . S
C351 O331 1.255 . S
C351 O332 1.249 . S
C351 C345 1.516 . S
H352 C338 0.930 . S
H353 C339 0.931 . S
H354 C340 0.931 . S
H355 C341 0.933 . S
H356 C347 0.930 . S
H357 C348 0.931 . S
H358 C349 0.931 . S
H359 C350 0.933 . S
Dy360 O363 2.307 . S
Dy360 O365 2.395 . S
Dy360 O366 2.379 . S
Dy360 O368 2.339 . S
Dy360 O370 2.298 . S
Dy360 O374 2.275 . S
Dy360 C382 2.738 . S
Dy361 O364 2.298 . S
Dy361 O367 2.275 . S
Dy361 O369 2.307 . S
Dy361 O371 2.395 . S
Dy361 O372 2.379 . S
Dy361 O375 2.339 . S
Dy361 C391 2.738 . S
C362 O374 1.254 . S
C362 O375 1.257 . S
O363 Dy360 2.307 . S
O363 C373 1.266 . S
O364 Dy361 2.298 . S
O364 C373 1.236 . S
O365 Dy360 2.395 . S
O365 C382 1.255 . S
O366 Dy360 2.379 . S
O366 C382 1.249 . S
O367 Dy361 2.275 . S
O367 C383 1.254 . S
O368 Dy360 2.339 . S
O368 C383 1.257 . S
O369 Dy361 2.307 . S
O369 C384 1.266 . S
O370 Dy360 2.298 . S
O370 C384 1.236 . S
O371 Dy361 2.395 . S
O371 C391 1.255 . S
O372 Dy361 2.379 . S
O372 C391 1.249 . S
C373 O363 1.266 . S
C373 O364 1.236 . S
O374 Dy360 2.275 . S
O374 C362 1.254 . S
O375 Dy361 2.339 . S
O375 C362 1.257 . S
C376 C379 1.344 . S
C376 C380 1.328 . S
C376 C382 1.516 . S
C377 C378 1.304 . S
C377 C381 1.323 . S
C378 C377 1.304 . S
C378 C379 1.371 . S
C378 H392 0.930 . S
C379 C376 1.344 . S
C379 C378 1.371 . S
C379 H393 0.931 . S
C380 C376 1.328 . S
C380 C381 1.433 . S
C380 H394 0.931 . S
C381 C377 1.323 . S
C381 C380 1.433 . S
C381 H395 0.933 . S
C382 Dy360 2.738 . S
C382 O365 1.255 . S
C382 O366 1.249 . S
C382 C376 1.516 . S
C383 O367 1.254 . S
C383 O368 1.257 . S
C384 O369 1.266 . S
C384 O370 1.236 . S
C385 C388 1.344 . S
C385 C389 1.328 . S
C385 C391 1.516 . S
C386 C387 1.304 . S
C386 C390 1.323 . S
C387 C386 1.304 . S
C387 C388 1.371 . S
C387 H396 0.930 . S
C388 C385 1.344 . S
C388 C387 1.371 . S
C388 H397 0.931 . S
C389 C385 1.328 . S
C389 C390 1.433 . S
C389 H398 0.931 . S
C390 C386 1.323 . S
C390 C389 1.433 . S
C390 H399 0.933 . S
C391 Dy361 2.738 . S
C391 O371 1.255 . S
C391 O372 1.249 . S
C391 C385 1.516 . S
H392 C378 0.930 . S
H393 C379 0.931 . S
H394 C380 0.931 . S
H395 C381 0.933 . S
H396 C387 0.930 . S
H397 C388 0.931 . S
H398 C389 0.931 . S
H399 C390 0.933 . S
Dy400 O403 2.307 . S
Dy400 O405 2.395 . S
Dy400 O406 2.379 . S
Dy400 O408 2.339 . S
Dy400 O410 2.298 . S
Dy400 O414 2.275 . S
Dy400 C422 2.738 . S
Dy401 O404 2.298 . S
Dy401 O407 2.275 . S
Dy401 O409 2.307 . S
Dy401 O411 2.395 1_554 S
Dy401 O412 2.379 1_554 S
Dy401 O415 2.339 . S
Dy401 C431 2.738 1_554 S
C402 O414 1.254 . S
C402 O415 1.257 . S
O403 Dy400 2.307 . S
O403 C413 1.266 . S
O404 Dy401 2.298 . S
O404 C413 1.236 . S
O405 Dy400 2.395 . S
O405 C422 1.255 . S
O406 Dy400 2.379 . S
O406 C422 1.249 . S
O407 Dy401 2.275 . S
O407 C423 1.254 . S
O408 Dy400 2.339 . S
O408 C423 1.257 . S
O409 Dy401 2.307 . S
O409 C424 1.266 . S
O410 Dy400 2.298 . S
O410 C424 1.236 . S
O411 Dy401 2.395 1_556 S
O411 C431 1.255 . S
O412 Dy401 2.379 1_556 S
O412 C431 1.249 . S
C413 O403 1.266 . S
C413 O404 1.236 . S
O414 Dy400 2.275 . S
O414 C402 1.254 . S
O415 Dy401 2.339 . S
O415 C402 1.257 . S
C416 C419 1.344 . S
C416 C420 1.328 . S
C416 C422 1.516 . S
C417 C418 1.304 . S
C417 C421 1.323 . S
C418 C417 1.304 . S
C418 C419 1.371 . S
C418 H432 0.930 . S
C419 C416 1.344 . S
C419 C418 1.371 . S
C419 H433 0.931 . S
C420 C416 1.328 . S
C420 C421 1.433 . S
C420 H434 0.931 . S
C421 C417 1.323 . S
C421 C420 1.433 . S
C421 H435 0.933 . S
C422 Dy400 2.738 . S
C422 O405 1.255 . S
C422 O406 1.249 . S
C422 C416 1.516 . S
C423 O407 1.254 . S
C423 O408 1.257 . S
C424 O409 1.266 . S
C424 O410 1.236 . S
C425 C428 1.344 . S
C425 C429 1.328 . S
C425 C431 1.516 . S
C426 C427 1.304 . S
C426 C430 1.323 . S
C427 C426 1.304 . S
C427 C428 1.371 . S
C427 H436 0.930 . S
C428 C425 1.344 . S
C428 C427 1.371 . S
C428 H437 0.931 . S
C429 C425 1.328 . S
C429 C430 1.433 . S
C429 H438 0.931 . S
C430 C426 1.323 . S
C430 C429 1.433 . S
C430 H439 0.933 . S
C431 Dy401 2.738 1_556 S
C431 O411 1.255 . S
C431 O412 1.249 . S
C431 C425 1.516 . S
H432 C418 0.930 . S
H433 C419 0.931 . S
H434 C420 0.931 . S
H435 C421 0.933 . S
H436 C427 0.930 . S
H437 C428 0.931 . S
H438 C429 0.931 . S
H439 C430 0.933 . S
Dy440 O443 2.307 . S
Dy440 O445 2.395 . S
Dy440 O446 2.379 . S
Dy440 O448 2.339 . S
Dy440 O450 2.298 . S
Dy440 O454 2.275 . S
Dy440 C462 2.738 . S
Dy441 O444 2.298 . S
Dy441 O447 2.275 . S
Dy441 O449 2.307 . S
Dy441 O451 2.395 . S
Dy441 O452 2.379 . S
Dy441 O455 2.339 . S
Dy441 C471 2.738 . S
C442 O454 1.254 . S
C442 O455 1.257 . S
O443 Dy440 2.307 . S
O443 C453 1.266 . S
O444 Dy441 2.298 . S
O444 C453 1.236 . S
O445 Dy440 2.395 . S
O445 C462 1.255 . S
O446 Dy440 2.379 . S
O446 C462 1.249 . S
O447 Dy441 2.275 . S
O447 C463 1.254 . S
O448 Dy440 2.339 . S
O448 C463 1.257 . S
O449 Dy441 2.307 . S
O449 C464 1.266 . S
O450 Dy440 2.298 . S
O450 C464 1.236 . S
O451 Dy441 2.395 . S
O451 C471 1.255 . S
O452 Dy441 2.379 . S
O452 C471 1.249 . S
C453 O443 1.266 . S
C453 O444 1.236 . S
O454 Dy440 2.275 . S
O454 C442 1.254 . S
O455 Dy441 2.339 . S
O455 C442 1.257 . S
C456 C459 1.344 . S
C456 C460 1.328 . S
C456 C462 1.516 . S
C457 C458 1.304 . S
C457 C461 1.323 . S
C458 C457 1.304 . S
C458 C459 1.371 . S
C458 H472 0.930 . S
C459 C456 1.344 . S
C459 C458 1.371 . S
C459 H473 0.931 . S
C460 C456 1.328 . S
C460 C461 1.433 . S
C460 H474 0.931 . S
C461 C457 1.323 . S
C461 C460 1.433 . S
C461 H475 0.933 . S
C462 Dy440 2.738 . S
C462 O445 1.255 . S
C462 O446 1.249 . S
C462 C456 1.516 . S
C463 O447 1.254 . S
C463 O448 1.257 . S
C464 O449 1.266 . S
C464 O450 1.236 . S
C465 C468 1.344 . S
C465 C469 1.328 . S
C465 C471 1.516 . S
C466 C467 1.304 . S
C466 C470 1.323 . S
C467 C466 1.304 . S
C467 C468 1.371 . S
C467 H476 0.930 . S
C468 C465 1.344 . S
C468 C467 1.371 . S
C468 H477 0.931 . S
C469 C465 1.328 . S
C469 C470 1.433 . S
C469 H478 0.931 . S
C470 C466 1.323 . S
C470 C469 1.433 . S
C470 H479 0.933 . S
C471 Dy441 2.738 . S
C471 O451 1.255 . S
C471 O452 1.249 . S
C471 C465 1.516 . S
H472 C458 0.930 . S
H473 C459 0.931 . S
H474 C460 0.931 . S
H475 C461 0.933 . S
H476 C467 0.930 . S
H477 C468 0.931 . S
H478 C469 0.931 . S
H479 C470 0.933 . S
Dy480 O483 2.307 . S
Dy480 O485 2.395 . S
Dy480 O486 2.379 . S
Dy480 O488 2.339 . S
Dy480 O490 2.298 . S
Dy480 O494 2.275 . S
Dy480 C502 2.738 . S
Dy481 O484 2.298 . S
Dy481 O487 2.275 . S
Dy481 O489 2.307 . S
Dy481 O491 2.395 . S
Dy481 O492 2.379 . S
Dy481 O495 2.339 . S
Dy481 C511 2.738 . S
C482 O494 1.254 . S
C482 O495 1.257 . S
O483 Dy480 2.307 . S
O483 C493 1.266 . S
O484 Dy481 2.298 . S
O484 C493 1.236 . S
O485 Dy480 2.395 . S
O485 C502 1.255 . S
O486 Dy480 2.379 . S
O486 C502 1.249 . S
O487 Dy481 2.275 . S
O487 C503 1.254 . S
O488 Dy480 2.339 . S
O488 C503 1.257 . S
O489 Dy481 2.307 . S
O489 C504 1.266 . S
O490 Dy480 2.298 . S
O490 C504 1.236 . S
O491 Dy481 2.395 . S
O491 C511 1.255 . S
O492 Dy481 2.379 . S
O492 C511 1.249 . S
C493 O483 1.266 . S
C493 O484 1.236 . S
O494 Dy480 2.275 . S
O494 C482 1.254 . S
O495 Dy481 2.339 . S
O495 C482 1.257 . S
C496 C499 1.344 . S
C496 C500 1.328 . S
C496 C502 1.516 . S
C497 C498 1.304 . S
C497 C501 1.323 . S
C498 C497 1.304 . S
C498 C499 1.371 . S
C498 H512 0.930 . S
C499 C496 1.344 . S
C499 C498 1.371 . S
C499 H513 0.931 . S
C500 C496 1.328 . S
C500 C501 1.433 . S
C500 H514 0.931 . S
C501 C497 1.323 . S
C501 C500 1.433 . S
C501 H515 0.933 . S
C502 Dy480 2.738 . S
C502 O485 1.255 . S
C502 O486 1.249 . S
C502 C496 1.516 . S
C503 O487 1.254 . S
C503 O488 1.257 . S
C504 O489 1.266 . S
C504 O490 1.236 . S
C505 C508 1.344 . S
C505 C509 1.328 . S
C505 C511 1.516 . S
C506 C507 1.304 . S
C506 C510 1.323 . S
C507 C506 1.304 . S
C507 C508 1.371 . S
C507 H516 0.930 . S
C508 C505 1.344 . S
C508 C507 1.371 . S
C508 H517 0.931 . S
C509 C505 1.328 . S
C509 C510 1.433 . S
C509 H518 0.931 . S
C510 C506 1.323 . S
C510 C509 1.433 . S
C510 H519 0.933 . S
C511 Dy481 2.738 . S
C511 O491 1.255 . S
C511 O492 1.249 . S
C511 C505 1.516 . S
H512 C498 0.930 . S
H513 C499 0.931 . S
H514 C500 0.931 . S
H515 C501 0.933 . S
H516 C507 0.930 . S
H517 C508 0.931 . S
H518 C509 0.931 . S
H519 C510 0.933 . S
Dy520 O523 2.307 . S
Dy520 O525 2.395 . S
Dy520 O526 2.379 . S
Dy520 O528 2.339 . S
Dy520 O530 2.298 . S
Dy520 O534 2.275 . S
Dy520 C542 2.738 . S
Dy521 O524 2.298 . S
Dy521 O527 2.275 . S
Dy521 O529 2.307 . S
Dy521 O531 2.395 . S
Dy521 O532 2.379 . S
Dy521 O535 2.339 . S
Dy521 C551 2.738 . S
C522 O534 1.254 . S
C522 O535 1.257 . S
O523 Dy520 2.307 . S
O523 C533 1.266 . S
O524 Dy521 2.298 . S
O524 C533 1.236 . S
O525 Dy520 2.395 . S
O525 C542 1.255 . S
O526 Dy520 2.379 . S
O526 C542 1.249 . S
O527 Dy521 2.275 . S
O527 C543 1.254 . S
O528 Dy520 2.339 . S
O528 C543 1.257 . S
O529 Dy521 2.307 . S
O529 C544 1.266 . S
O530 Dy520 2.298 . S
O530 C544 1.236 . S
O531 Dy521 2.395 . S
O531 C551 1.255 . S
O532 Dy521 2.379 . S
O532 C551 1.249 . S
C533 O523 1.266 . S
C533 O524 1.236 . S
O534 Dy520 2.275 . S
O534 C522 1.254 . S
O535 Dy521 2.339 . S
O535 C522 1.257 . S
C536 C539 1.344 . S
C536 C540 1.328 . S
C536 C542 1.516 . S
C537 C538 1.304 . S
C537 C541 1.323 . S
C538 C537 1.304 . S
C538 C539 1.371 . S
C538 H552 0.930 . S
C539 C536 1.344 . S
C539 C538 1.371 . S
C539 H553 0.931 . S
C540 C536 1.328 . S
C540 C541 1.433 . S
C540 H554 0.931 . S
C541 C537 1.323 . S
C541 C540 1.433 . S
C541 H555 0.933 . S
C542 Dy520 2.738 . S
C542 O525 1.255 . S
C542 O526 1.249 . S
C542 C536 1.516 . S
C543 O527 1.254 . S
C543 O528 1.257 . S
C544 O529 1.266 . S
C544 O530 1.236 . S
C545 C548 1.344 . S
C545 C549 1.328 . S
C545 C551 1.516 . S
C546 C547 1.304 . S
C546 C550 1.323 . S
C547 C546 1.304 . S
C547 C548 1.371 . S
C547 H556 0.930 . S
C548 C545 1.344 . S
C548 C547 1.371 . S
C548 H557 0.931 . S
C549 C545 1.328 . S
C549 C550 1.433 . S
C549 H558 0.931 . S
C550 C546 1.323 . S
C550 C549 1.433 . S
C550 H559 0.933 . S
C551 Dy521 2.738 . S
C551 O531 1.255 . S
C551 O532 1.249 . S
C551 C545 1.516 . S
H552 C538 0.930 . S
H553 C539 0.931 . S
H554 C540 0.931 . S
H555 C541 0.933 . S
H556 C547 0.930 . S
H557 C548 0.931 . S
H558 C549 0.931 . S
H559 C550 0.933 . S
Dy560 O563 2.307 . S
Dy560 O565 2.395 1_556 S
Dy560 O566 2.379 1_556 S
Dy560 O568 2.339 . S
Dy560 O570 2.298 . S
Dy560 O574 2.275 . S
Dy560 C582 2.738 1_556 S
Dy561 O564 2.298 . S
Dy561 O567 2.275 . S
Dy561 O569 2.307 . S
Dy561 O571 2.395 . S
Dy561 O572 2.379 . S
Dy561 O575 2.339 . S
Dy561 C591 2.738 . S
C562 O574 1.254 . S
C562 O575 1.257 . S
O563 Dy560 2.307 . S
O563 C573 1.266 . S
O564 Dy561 2.298 . S
O564 C573 1.236 . S
O565 Dy560 2.395 1_554 S
O565 C582 1.255 . S
O566 Dy560 2.379 1_554 S
O566 C582 1.249 . S
O567 Dy561 2.275 . S
O567 C583 1.254 . S
O568 Dy560 2.339 . S
O568 C583 1.257 . S
O569 Dy561 2.307 . S
O569 C584 1.266 . S
O570 Dy560 2.298 . S
O570 C584 1.236 . S
O571 Dy561 2.395 . S
O571 C591 1.255 . S
O572 Dy561 2.379 . S
O572 C591 1.249 . S
C573 O563 1.266 . S
C573 O564 1.236 . S
O574 Dy560 2.275 . S
O574 C562 1.254 . S
O575 Dy561 2.339 . S
O575 C562 1.257 . S
C576 C579 1.344 . S
C576 C580 1.328 . S
C576 C582 1.516 . S
C577 C578 1.304 . S
C577 C581 1.323 . S
C578 C577 1.304 . S
C578 C579 1.371 . S
C578 H592 0.930 . S
C579 C576 1.344 . S
C579 C578 1.371 . S
C579 H593 0.931 . S
C580 C576 1.328 . S
C580 C581 1.433 . S
C580 H594 0.931 . S
C581 C577 1.323 . S
C581 C580 1.433 . S
C581 H595 0.933 . S
C582 Dy560 2.738 1_554 S
C582 O565 1.255 . S
C582 O566 1.249 . S
C582 C576 1.516 . S
C583 O567 1.254 . S
C583 O568 1.257 . S
C584 O569 1.266 . S
C584 O570 1.236 . S
C585 C588 1.344 . S
C585 C589 1.328 . S
C585 C591 1.516 . S
C586 C587 1.304 . S
C586 C590 1.323 . S
C587 C586 1.304 . S
C587 C588 1.371 . S
C587 H596 0.930 . S
C588 C585 1.344 . S
C588 C587 1.371 . S
C588 H597 0.931 . S
C589 C585 1.328 . S
C589 C590 1.433 . S
C589 H598 0.931 . S
C590 C586 1.323 . S
C590 C589 1.433 . S
C590 H599 0.933 . S
C591 Dy561 2.738 . S
C591 O571 1.255 . S
C591 O572 1.249 . S
C591 C585 1.516 . S
H592 C578 0.930 . S
H593 C579 0.931 . S
H594 C580 0.931 . S
H595 C581 0.933 . S
H596 C587 0.930 . S
H597 C588 0.931 . S
H598 C589 0.931 . S
H599 C590 0.933 . S
Dy600 O603 2.307 . S
Dy600 O605 2.395 . S
Dy600 O606 2.379 . S
Dy600 O608 2.339 . S
Dy600 O610 2.298 . S
Dy600 O614 2.275 . S
Dy600 C622 2.738 . S
Dy601 O604 2.298 . S
Dy601 O607 2.275 . S
Dy601 O609 2.307 . S
Dy601 O611 2.395 . S
Dy601 O612 2.379 . S
Dy601 O615 2.339 . S
Dy601 C631 2.738 . S
C602 O614 1.254 . S
C602 O615 1.257 . S
O603 Dy600 2.307 . S
O603 C613 1.266 . S
O604 Dy601 2.298 . S
O604 C613 1.236 . S
O605 Dy600 2.395 . S
O605 C622 1.255 . S
O606 Dy600 2.379 . S
O606 C622 1.249 . S
O607 Dy601 2.275 . S
O607 C623 1.254 . S
O608 Dy600 2.339 . S
O608 C623 1.257 . S
O609 Dy601 2.307 . S
O609 C624 1.266 . S
O610 Dy600 2.298 . S
O610 C624 1.236 . S
O611 Dy601 2.395 . S
O611 C631 1.255 . S
O612 Dy601 2.379 . S
O612 C631 1.249 . S
C613 O603 1.266 . S
C613 O604 1.236 . S
O614 Dy600 2.275 . S
O614 C602 1.254 . S
O615 Dy601 2.339 . S
O615 C602 1.257 . S
C616 C619 1.344 . S
C616 C620 1.328 . S
C616 C622 1.516 . S
C617 C618 1.304 . S
C617 C621 1.323 . S
C618 C617 1.304 . S
C618 C619 1.371 . S
C618 H632 0.930 . S
C619 C616 1.344 . S
C619 C618 1.371 . S
C619 H633 0.931 . S
C620 C616 1.328 . S
C620 C621 1.433 . S
C620 H634 0.931 . S
C621 C617 1.323 . S
C621 C620 1.433 . S
C621 H635 0.933 . S
C622 Dy600 2.738 . S
C622 O605 1.255 . S
C622 O606 1.249 . S
C622 C616 1.516 . S
C623 O607 1.254 . S
C623 O608 1.257 . S
C624 O609 1.266 . S
C624 O610 1.236 . S
C625 C628 1.344 . S
C625 C629 1.328 . S
C625 C631 1.516 . S
C626 C627 1.304 . S
C626 C630 1.323 . S
C627 C626 1.304 . S
C627 C628 1.371 . S
C627 H636 0.930 . S
C628 C625 1.344 . S
C628 C627 1.371 . S
C628 H637 0.931 . S
C629 C625 1.328 . S
C629 C630 1.433 . S
C629 H638 0.931 . S
C630 C626 1.323 . S
C630 C629 1.433 . S
C630 H639 0.933 . S
C631 Dy601 2.738 . S
C631 O611 1.255 . S
C631 O612 1.249 . S
C631 C625 1.516 . S
H632 C618 0.930 . S
H633 C619 0.931 . S
H634 C620 0.931 . S
H635 C621 0.933 . S
H636 C627 0.930 . S
H637 C628 0.931 . S
H638 C629 0.931 . S
H639 C630 0.933 . S
H640 C648 0.929 . S
H641 C650 0.930 . S
H642 C652 0.930 . S
H643 C655 0.929 . S
H644 C658 0.930 . S
H645 C660 0.960 . S
H646 C660 0.960 . S
H647 C660 0.960 . S
C648 H640 0.929 . S
C648 C649 1.377 . S
C648 C650 1.384 . S
C649 C648 1.377 . S
C649 C655 1.390 . S
C650 H641 0.930 . S
C650 C648 1.384 . S
C650 C651 1.372 . S
C651 C650 1.372 . S
C651 C652 1.400 . S
C651 C656 1.490 . S
C652 H642 0.930 . S
C652 C651 1.400 . S
C652 C655 1.386 . S
H653 C669 0.930 . S
H654 C670 0.931 . S
C655 H643 0.929 . S
C655 C649 1.390 . S
C655 C652 1.386 . S
C656 C651 1.490 . S
C656 C658 1.395 . S
C656 C659 1.403 . S
H657 C663 0.930 . S
C658 H644 0.930 . S
C658 C656 1.395 . S
C658 C661 1.403 . S
C659 C656 1.403 . S
C659 C660 1.524 . S
C659 C663 1.400 . S
C660 H645 0.960 . S
C660 H646 0.960 . S
C660 H647 0.960 . S
C660 C659 1.524 . S
C661 C658 1.403 . S
C661 C662 1.392 . S
C661 C665 1.495 . S
C662 C661 1.392 . S
C662 C663 1.385 . S
C662 C664 1.478 . S
C663 H657 0.930 . S
C663 C659 1.400 . S
C663 C662 1.385 . S
C664 C662 1.478 . S
C664 C666 1.381 . S
C664 C670 1.383 . S
C665 C661 1.495 . S
C665 H671 0.959 . S
C665 H672 0.961 . S
C665 H673 0.960 . S
C666 C664 1.381 . S
C666 C667 1.394 . S
C666 H674 0.930 . S
C667 C666 1.394 . S
C667 C668 1.383 . S
C667 H675 0.929 . S
C668 C667 1.383 . S
C668 C669 1.377 . S
C669 H653 0.930 . S
C669 C668 1.377 . S
C669 C670 1.379 . S
C670 H654 0.931 . S
C670 C664 1.383 . S
C670 C669 1.379 . S
H671 C665 0.959 . S
H672 C665 0.961 . S
H673 C665 0.960 . S
H674 C666 0.930 . S
H675 C667 0.929 . S
H676 C684 0.929 . S
H677 C686 0.930 . S
H678 C688 0.930 . S
H679 C691 0.929 . S
H680 C694 0.930 . S
H681 C696 0.960 . S
H682 C696 0.960 . S
H683 C696 0.960 . S
C684 H676 0.929 . S
C684 C685 1.377 . S
C684 C686 1.384 . S
C685 C684 1.377 . S
C685 C691 1.390 . S
C686 H677 0.930 . S
C686 C684 1.384 . S
C686 C687 1.372 . S
C687 C686 1.372 . S
C687 C688 1.400 . S
C687 C692 1.490 . S
C688 H678 0.930 . S
C688 C687 1.400 . S
C688 C691 1.386 . S
H689 C705 0.930 . S
H690 C706 0.931 . S
C691 H679 0.929 . S
C691 C685 1.390 . S
C691 C688 1.386 . S
C692 C687 1.490 . S
C692 C694 1.395 . S
C692 C695 1.403 . S
H693 C699 0.930 . S
C694 H680 0.930 . S
C694 C692 1.395 . S
C694 C697 1.403 . S
C695 C692 1.403 . S
C695 C696 1.524 . S
C695 C699 1.400 . S
C696 H681 0.960 . S
C696 H682 0.960 . S
C696 H683 0.960 . S
C696 C695 1.524 . S
C697 C694 1.403 . S
C697 C698 1.392 . S
C697 C701 1.495 . S
C698 C697 1.392 . S
C698 C699 1.385 . S
C698 C700 1.478 . S
C699 H693 0.930 . S
C699 C695 1.400 . S
C699 C698 1.385 . S
C700 C698 1.478 . S
C700 C702 1.381 . S
C700 C706 1.383 . S
C701 C697 1.495 . S
C701 H707 0.959 . S
C701 H708 0.961 . S
C701 H709 0.960 . S
C702 C700 1.381 . S
C702 C703 1.394 . S
C702 H710 0.930 . S
C703 C702 1.394 . S
C703 C704 1.383 . S
C703 H711 0.929 . S
C704 C703 1.383 . S
C704 C705 1.377 . S
C705 H689 0.930 . S
C705 C704 1.377 . S
C705 C706 1.379 . S
C706 H690 0.931 . S
C706 C700 1.383 . S
C706 C705 1.379 . S
H707 C701 0.959 . S
H708 C701 0.961 . S
H709 C701 0.960 . S
H710 C702 0.930 . S
H711 C703 0.929 . S
H712 C720 0.929 . S
H713 C722 0.930 . S
H714 C724 0.930 . S
H715 C727 0.929 . S
H716 C730 0.930 . S
H717 C732 0.960 . S
H718 C732 0.960 . S
H719 C732 0.960 . S
C720 H712 0.929 . S
C720 C721 1.377 . S
C720 C722 1.384 . S
C721 C720 1.377 . S
C721 C727 1.390 . S
C722 H713 0.930 . S
C722 C720 1.384 . S
C722 C723 1.372 . S
C723 C722 1.372 . S
C723 C724 1.400 . S
C723 C728 1.490 . S
C724 H714 0.930 . S
C724 C723 1.400 . S
C724 C727 1.386 . S
H725 C741 0.930 . S
H726 C742 0.931 . S
C727 H715 0.929 . S
C727 C721 1.390 . S
C727 C724 1.386 . S
C728 C723 1.490 . S
C728 C730 1.395 . S
C728 C731 1.403 1_455 S
H729 C735 0.930 . S
C730 H716 0.930 . S
C730 C728 1.395 . S
C730 C733 1.403 . S
C731 C728 1.403 1_655 S
C731 C732 1.524 . S
C731 C735 1.400 . S
C732 H717 0.960 . S
C732 H718 0.960 . S
C732 H719 0.960 . S
C732 C731 1.524 . S
C733 C730 1.403 . S
C733 C734 1.392 1_455 S
C733 C737 1.495 . S
C734 C733 1.392 1_655 S
C734 C735 1.385 . S
C734 C736 1.478 . S
C735 H729 0.930 . S
C735 C731 1.400 . S
C735 C734 1.385 . S
C736 C734 1.478 . S
C736 C738 1.381 . S
C736 C742 1.383 . S
C737 C733 1.495 . S
C737 H743 0.959 . S
C737 H744 0.961 . S
C737 H745 0.960 . S
C738 C736 1.381 . S
C738 C739 1.394 . S
C738 H746 0.930 . S
C739 C738 1.394 . S
C739 C740 1.383 . S
C739 H747 0.929 . S
C740 C739 1.383 . S
C740 C741 1.377 . S
C741 H725 0.930 . S
C741 C740 1.377 . S
C741 C742 1.379 . S
C742 H726 0.931 . S
C742 C736 1.383 . S
C742 C741 1.379 . S
H743 C737 0.959 . S
H744 C737 0.961 . S
H745 C737 0.960 . S
H746 C738 0.930 . S
H747 C739 0.929 . S
H748 C756 0.929 . S
H749 C758 0.930 . S
H750 C760 0.930 . S
H751 C763 0.929 . S
H752 C766 0.930 . S
H753 C768 0.960 . S
H754 C768 0.960 . S
H755 C768 0.960 . S
C756 H748 0.929 . S
C756 C757 1.377 . S
C756 C758 1.384 . S
C757 C756 1.377 . S
C757 C763 1.390 . S
C758 H749 0.930 . S
C758 C756 1.384 . S
C758 C759 1.372 . S
C759 C758 1.372 . S
C759 C760 1.400 . S
C759 C764 1.490 . S
C760 H750 0.930 . S
C760 C759 1.400 . S
C760 C763 1.386 . S
H761 C777 0.930 . S
H762 C778 0.931 . S
C763 H751 0.929 . S
C763 C757 1.390 . S
C763 C760 1.386 . S
C764 C759 1.490 . S
C764 C766 1.395 1_655 S
C764 C767 1.403 . S
H765 C771 0.936 . S
C766 H752 0.930 . S
C766 C764 1.395 1_455 S
C766 C769 1.403 . S
C767 C764 1.403 . S
C767 C768 1.524 . S
C767 C771 1.436 . S
C768 H753 0.960 . S
C768 H754 0.960 . S
C768 H755 0.960 . S
C768 C767 1.524 . S
C769 C766 1.403 . S
C769 C770 1.392 . S
C769 C773 1.495 . S
C770 C769 1.392 . S
C770 C771 1.346 1_455 S
C770 C772 1.478 . S
C771 H765 0.936 . S
C771 C767 1.436 . S
C771 C770 1.346 1_655 S
C772 C770 1.478 . S
C772 C774 1.381 . S
C772 C778 1.383 . S
C773 C769 1.495 . S
C773 H779 0.959 . S
C773 H780 0.961 . S
C773 H781 0.960 . S
C774 C772 1.381 . S
C774 C775 1.394 . S
C774 H782 0.930 . S
C775 C774 1.394 . S
C775 C776 1.383 . S
C775 H783 0.929 . S
C776 C775 1.383 . S
C776 C777 1.377 . S
C777 H761 0.930 . S
C777 C776 1.377 . S
C777 C778 1.379 . S
C778 H762 0.931 . S
C778 C772 1.383 . S
C778 C777 1.379 . S
H779 C773 0.959 . S
H780 C773 0.961 . S
H781 C773 0.960 . S
H782 C774 0.930 . S
H783 C775 0.929 . S
H784 C792 0.929 . S
H785 C794 0.930 . S
H786 C796 0.930 . S
H787 C799 0.929 . S
H788 C802 0.930 . S
H789 C804 0.960 . S
H790 C804 0.960 . S
H791 C804 0.960 . S
C792 H784 0.929 . S
C792 C793 1.377 . S
C792 C794 1.384 . S
C793 C792 1.377 . S
C793 C799 1.390 . S
C794 H785 0.930 . S
C794 C792 1.384 . S
C794 C795 1.372 . S
C795 C794 1.372 . S
C795 C796 1.400 . S
C795 C800 1.490 . S
C796 H786 0.930 . S
C796 C795 1.400 . S
C796 C799 1.386 . S
H797 C813 0.930 . S
H798 C814 0.931 . S
C799 H787 0.929 . S
C799 C793 1.390 . S
C799 C796 1.386 . S
C800 C795 1.490 . S
C800 C802 1.395 . S
C800 C803 1.403 . S
H801 C807 0.930 . S
C802 H788 0.930 . S
C802 C800 1.395 . S
C802 C805 1.403 . S
C803 C800 1.403 . S
C803 C804 1.524 . S
C803 C807 1.400 . S
C804 H789 0.960 . S
C804 H790 0.960 . S
C804 H791 0.960 . S
C804 C803 1.524 . S
C805 C802 1.403 . S
C805 C806 1.392 . S
C805 C809 1.495 . S
C806 C805 1.392 . S
C806 C807 1.385 . S
C806 C808 1.478 . S
C807 H801 0.930 . S
C807 C803 1.400 . S
C807 C806 1.385 . S
C808 C806 1.478 . S
C808 C810 1.381 . S
C808 C814 1.383 . S
C809 C805 1.495 . S
C809 H815 0.959 . S
C809 H816 0.961 . S
C809 H817 0.960 . S
C810 C808 1.381 . S
C810 C811 1.394 . S
C810 H818 0.930 . S
C811 C810 1.394 . S
C811 C812 1.383 . S
C811 H819 0.929 . S
C812 C811 1.383 . S
C812 C813 1.377 . S
C813 H797 0.930 . S
C813 C812 1.377 . S
C813 C814 1.379 . S
C814 H798 0.931 . S
C814 C808 1.383 . S
C814 C813 1.379 . S
H815 C809 0.959 . S
H816 C809 0.961 . S
H817 C809 0.960 . S
H818 C810 0.930 . S
H819 C811 0.929 . S
H820 C828 0.929 . S
H821 C830 0.930 . S
H822 C832 0.930 . S
H823 C835 0.929 . S
H824 C838 0.930 . S
H825 C840 0.960 . S
H826 C840 0.960 . S
H827 C840 0.960 . S
C828 H820 0.929 . S
C828 C829 1.377 . S
C828 C830 1.384 . S
C829 C828 1.377 . S
C829 C835 1.390 . S
C830 H821 0.930 . S
C830 C828 1.384 . S
C830 C831 1.372 . S
C831 C830 1.372 . S
C831 C832 1.400 . S
C831 C836 1.490 . S
C832 H822 0.930 . S
C832 C831 1.400 . S
C832 C835 1.386 . S
H833 C849 0.930 . S
H834 C850 0.931 . S
C835 H823 0.929 . S
C835 C829 1.390 . S
C835 C832 1.386 . S
C836 C831 1.490 . S
C836 C838 1.395 . S
C836 C839 1.403 . S
H837 C843 0.930 . S
C838 H824 0.930 . S
C838 C836 1.395 . S
C838 C841 1.403 . S
C839 C836 1.403 . S
C839 C840 1.524 . S
C839 C843 1.400 . S
C840 H825 0.960 . S
C840 H826 0.960 . S
C840 H827 0.960 . S
C840 C839 1.524 . S
C841 C838 1.403 . S
C841 C842 1.392 . S
C841 C845 1.495 . S
C842 C841 1.392 . S
C842 C843 1.385 . S
C842 C844 1.478 . S
C843 H837 0.930 . S
C843 C839 1.400 . S
C843 C842 1.385 . S
C844 C842 1.478 . S
C844 C846 1.381 . S
C844 C850 1.383 . S
C845 C841 1.495 . S
C845 H851 0.959 . S
C845 H852 0.961 . S
C845 H853 0.960 . S
C846 C844 1.381 . S
C846 C847 1.394 . S
C846 H854 0.930 . S
C847 C846 1.394 . S
C847 C848 1.383 . S
C847 H855 0.929 . S
C848 C847 1.383 . S
C848 C849 1.377 . S
C849 H833 0.930 . S
C849 C848 1.377 . S
C849 C850 1.379 . S
C850 H834 0.931 . S
C850 C844 1.383 . S
C850 C849 1.379 . S
H851 C845 0.959 . S
H852 C845 0.961 . S
H853 C845 0.960 . S
H854 C846 0.930 . S
H855 C847 0.929 . S
H856 C864 0.929 . S
H857 C866 0.930 . S
H858 C868 0.930 . S
H859 C871 0.929 . S
H860 C874 0.930 . S
H861 C876 0.960 . S
H862 C876 0.960 . S
H863 C876 0.960 . S
C864 H856 0.929 . S
C864 C865 1.377 . S
C864 C866 1.384 . S
C865 C864 1.377 . S
C865 C871 1.390 . S
C866 H857 0.930 . S
C866 C864 1.384 . S
C866 C867 1.372 . S
C867 C866 1.372 . S
C867 C868 1.400 . S
C867 C872 1.490 . S
C868 H858 0.930 . S
C868 C867 1.400 . S
C868 C871 1.386 . S
H869 C885 0.930 . S
H870 C886 0.931 . S
C871 H859 0.929 . S
C871 C865 1.390 . S
C871 C868 1.386 . S
C872 C867 1.490 . S
C872 C874 1.395 1_655 S
C872 C875 1.403 . S
H873 C879 0.930 . S
C874 H860 0.930 . S
C874 C872 1.395 1_455 S
C874 C877 1.403 . S
C875 C872 1.403 . S
C875 C876 1.524 . S
C875 C879 1.400 . S
C876 H861 0.960 . S
C876 H862 0.960 . S
C876 H863 0.960 . S
C876 C875 1.524 . S
C877 C874 1.403 . S
C877 C878 1.392 . S
C877 C881 1.495 . S
C878 C877 1.392 . S
C878 C879 1.385 1_455 S
C878 C880 1.478 . S
C879 H873 0.930 . S
C879 C875 1.400 . S
C879 C878 1.385 1_655 S
C880 C878 1.478 . S
C880 C882 1.381 . S
C880 C886 1.383 . S
C881 C877 1.495 . S
C881 H887 0.959 . S
C881 H888 0.961 . S
C881 H889 0.960 . S
C882 C880 1.381 . S
C882 C883 1.394 . S
C882 H890 0.930 . S
C883 C882 1.394 . S
C883 C884 1.383 . S
C883 H891 0.929 . S
C884 C883 1.383 . S
C884 C885 1.377 . S
C885 H869 0.930 . S
C885 C884 1.377 . S
C885 C886 1.379 . S
C886 H870 0.931 . S
C886 C880 1.383 . S
C886 C885 1.379 . S
H887 C881 0.959 . S
H888 C881 0.961 . S
H889 C881 0.960 . S
H890 C882 0.930 . S
H891 C883 0.929 . S
H892 C900 0.929 . S
H893 C902 0.930 . S
H894 C904 0.930 . S
H895 C907 0.929 . S
H896 C910 0.930 . S
H897 C912 0.960 . S
H898 C912 0.960 . S
H899 C912 0.960 . S
C900 H892 0.929 . S
C900 C901 1.377 . S
C900 C902 1.384 . S
C901 C900 1.377 . S
C901 C907 1.390 . S
C902 H893 0.930 . S
C902 C900 1.384 . S
C902 C903 1.372 . S
C903 C902 1.372 . S
C903 C904 1.400 . S
C903 C908 1.490 . S
C904 H894 0.930 . S
C904 C903 1.400 . S
C904 C907 1.386 . S
H905 C921 0.930 . S
H906 C922 0.931 . S
C907 H895 0.929 . S
C907 C901 1.390 . S
C907 C904 1.386 . S
C908 C903 1.490 . S
C908 C910 1.395 1_455 S
C908 C911 1.403 . S
H909 C915 0.930 . S
C910 H896 0.930 . S
C910 C908 1.395 1_655 S
C910 C913 1.403 . S
C911 C908 1.403 . S
C911 C912 1.524 . S
C911 C915 1.400 . S
C912 H897 0.960 . S
C912 H898 0.960 . S
C912 H899 0.960 . S
C912 C911 1.524 . S
C913 C910 1.403 . S
C913 C914 1.392 . S
C913 C917 1.495 . S
C914 C913 1.392 . S
C914 C915 1.385 1_655 S
C914 C916 1.478 . S
C915 H909 0.930 . S
C915 C911 1.400 . S
C915 C914 1.385 1_455 S
C916 C914 1.478 . S
C916 C918 1.381 . S
C916 C922 1.383 . S
C917 C913 1.495 . S
C917 H923 0.959 . S
C917 H924 0.961 . S
C917 H925 0.960 . S
C918 C916 1.381 . S
C918 C919 1.394 . S
C918 H926 0.930 . S
C919 C918 1.394 . S
C919 C920 1.383 . S
C919 H927 0.929 . S
C920 C919 1.383 . S
C920 C921 1.377 . S
C921 H905 0.930 . S
C921 C920 1.377 . S
C921 C922 1.379 . S
C922 H906 0.931 . S
C922 C916 1.383 . S
C922 C921 1.379 . S
H923 C917 0.959 . S
H924 C917 0.961 . S
H925 C917 0.960 . S
H926 C918 0.930 . S
H927 C919 0.929 . S
H928 C936 0.929 . S
H929 C938 0.930 . S
H930 C940 0.930 . S
H931 C943 0.929 . S
H932 C946 0.930 . S
H933 C948 0.960 . S
H934 C948 0.960 . S
H935 C948 0.960 . S
C936 H928 0.929 . S
C936 C937 1.377 . S
C936 C938 1.384 . S
C937 C936 1.377 . S
C937 C943 1.390 . S
C938 H929 0.930 . S
C938 C936 1.384 . S
C938 C939 1.372 . S
C939 C938 1.372 . S
C939 C940 1.400 . S
C939 C944 1.490 . S
C940 H930 0.930 . S
C940 C939 1.400 . S
C940 C943 1.386 . S
H941 C957 0.930 . S
H942 C958 0.931 . S
C943 H931 0.929 . S
C943 C937 1.390 . S
C943 C940 1.386 . S
C944 C939 1.490 . S
C944 C946 1.395 . S
C944 C947 1.403 . S
H945 C951 0.930 . S
C946 H932 0.930 . S
C946 C944 1.395 . S
C946 C949 1.403 . S
C947 C944 1.403 . S
C947 C948 1.524 . S
C947 C951 1.400 . S
C948 H933 0.960 . S
C948 H934 0.960 . S
C948 H935 0.960 . S
C948 C947 1.524 . S
C949 C946 1.403 . S
C949 C950 1.392 . S
C949 C953 1.495 . S
C950 C949 1.392 . S
C950 C951 1.385 . S
C950 C952 1.478 . S
C951 H945 0.930 . S
C951 C947 1.400 . S
C951 C950 1.385 . S
C952 C950 1.478 . S
C952 C954 1.381 . S
C952 C958 1.383 . S
C953 C949 1.495 . S
C953 H959 0.959 . S
C953 H960 0.961 . S
C953 H961 0.960 . S
C954 C952 1.381 . S
C954 C955 1.394 . S
C954 H962 0.930 . S
C955 C954 1.394 . S
C955 C956 1.383 . S
C955 H963 0.929 . S
C956 C955 1.383 . S
C956 C957 1.377 . S
C957 H941 0.930 . S
C957 C956 1.377 . S
C957 C958 1.379 . S
C958 H942 0.931 . S
C958 C952 1.383 . S
C958 C957 1.379 . S
H959 C953 0.959 . S
H960 C953 0.961 . S
H961 C953 0.960 . S
H962 C954 0.930 . S
H963 C955 0.929 . S
H964 C972 0.929 . S
H965 C974 0.930 . S
H966 C976 0.930 . S
H967 C979 0.929 . S
H968 C982 0.930 . S
H969 C984 0.960 . S
H970 C984 0.960 . S
H971 C984 0.960 . S
C972 H964 0.929 . S
C972 C973 1.377 . S
C972 C974 1.384 . S
C973 C972 1.377 . S
C973 C979 1.390 . S
C974 H965 0.930 . S
C974 C972 1.384 . S
C974 C975 1.372 . S
C975 C974 1.372 . S
C975 C976 1.400 . S
C975 C980 1.490 . S
C976 H966 0.930 . S
C976 C975 1.400 . S
C976 C979 1.386 . S
H977 C993 0.930 . S
H978 C994 0.931 . S
C979 H967 0.929 . S
C979 C973 1.390 . S
C979 C976 1.386 . S
C980 C975 1.490 . S
C980 C982 1.395 . S
C980 C983 1.403 . S
H981 C987 0.930 . S
C982 H968 0.930 . S
C982 C980 1.395 . S
C982 C985 1.403 . S
C983 C980 1.403 . S
C983 C984 1.524 . S
C983 C987 1.400 . S
C984 H969 0.960 . S
C984 H970 0.960 . S
C984 H971 0.960 . S
C984 C983 1.524 . S
C985 C982 1.403 . S
C985 C986 1.392 . S
C985 C989 1.495 . S
C986 C985 1.392 . S
C986 C987 1.385 . S
C986 C988 1.478 . S
C987 H981 0.930 . S
C987 C983 1.400 . S
C987 C986 1.385 . S
C988 C986 1.478 . S
C988 C990 1.381 . S
C988 C994 1.383 . S
C989 C985 1.495 . S
C989 H995 0.959 . S
C989 H996 0.961 . S
C989 H997 0.960 . S
C990 C988 1.381 . S
C990 C991 1.394 . S
C990 H998 0.930 . S
C991 C990 1.394 . S
C991 C992 1.383 . S
C991 H999 0.929 . S
C992 C991 1.383 . S
C992 C993 1.377 . S
C993 H977 0.930 . S
C993 C992 1.377 . S
C993 C994 1.379 . S
C994 H978 0.931 . S
C994 C988 1.383 . S
C994 C993 1.379 . S
H995 C989 0.959 . S
H996 C989 0.961 . S
H997 C989 0.960 . S
H998 C990 0.930 . S
H999 C991 0.929 . S
H1000 C1008 0.929 . S
H1001 C1010 0.930 . S
H1002 C1012 0.930 . S
H1003 C1015 0.929 . S
H1004 C1018 0.930 . S
H1005 C1020 0.960 . S
H1006 C1020 0.960 . S
H1007 C1020 0.960 . S
C1008 H1000 0.929 . S
C1008 C1009 1.377 . S
C1008 C1010 1.384 . S
C1009 C1008 1.377 . S
C1009 C1015 1.390 . S
C1010 H1001 0.930 . S
C1010 C1008 1.384 . S
C1010 C1011 1.372 . S
C1011 C1010 1.372 . S
C1011 C1012 1.400 . S
C1011 C1016 1.490 . S
C1012 H1002 0.930 . S
C1012 C1011 1.400 . S
C1012 C1015 1.386 . S
H1013 C1029 0.930 . S
H1014 C1030 0.931 . S
C1015 H1003 0.929 . S
C1015 C1009 1.390 . S
C1015 C1012 1.386 . S
C1016 C1011 1.490 . S
C1016 C1018 1.395 . S
C1016 C1019 1.403 . S
H1017 C1023 0.930 . S
C1018 H1004 0.930 . S
C1018 C1016 1.395 . S
C1018 C1021 1.403 . S
C1019 C1016 1.403 . S
C1019 C1020 1.524 . S
C1019 C1023 1.400 . S
C1020 H1005 0.960 . S
C1020 H1006 0.960 . S
C1020 H1007 0.960 . S
C1020 C1019 1.524 . S
C1021 C1018 1.403 . S
C1021 C1022 1.392 . S
C1021 C1025 1.495 . S
C1022 C1021 1.392 . S
C1022 C1023 1.385 . S
C1022 C1024 1.478 . S
C1023 H1017 0.930 . S
C1023 C1019 1.400 . S
C1023 C1022 1.385 . S
C1024 C1022 1.478 . S
C1024 C1026 1.381 . S
C1024 C1030 1.383 . S
C1025 C1021 1.495 . S
C1025 H1031 0.959 . S
C1025 H1032 0.961 . S
C1025 H1033 0.960 . S
C1026 C1024 1.381 . S
C1026 C1027 1.394 . S
C1026 H1034 0.930 . S
C1027 C1026 1.394 . S
C1027 C1028 1.383 . S
C1027 H1035 0.929 . S
C1028 C1027 1.383 . S
C1028 C1029 1.377 . S
C1029 H1013 0.930 . S
C1029 C1028 1.377 . S
C1029 C1030 1.379 . S
C1030 H1014 0.931 . S
C1030 C1024 1.383 . S
C1030 C1029 1.379 . S
H1031 C1025 0.959 . S
H1032 C1025 0.961 . S
H1033 C1025 0.960 . S
H1034 C1026 0.930 . S
H1035 C1027 0.929 . S
H1036 C1044 0.929 . S
H1037 C1046 0.930 . S
H1038 C1048 0.930 . S
H1039 C1051 0.929 . S
H1040 C1054 0.930 . S
H1041 C1056 0.960 . S
H1042 C1056 0.960 . S
H1043 C1056 0.960 . S
C1044 H1036 0.929 . S
C1044 C1045 1.377 . S
C1044 C1046 1.384 . S
C1045 C1044 1.377 . S
C1045 C1051 1.390 . S
C1046 H1037 0.930 . S
C1046 C1044 1.384 . S
C1046 C1047 1.372 . S
C1047 C1046 1.372 . S
C1047 C1048 1.400 . S
C1047 C1052 1.490 . S
C1048 H1038 0.930 . S
C1048 C1047 1.400 . S
C1048 C1051 1.386 . S
H1049 C1065 0.930 . S
H1050 C1066 0.931 . S
C1051 H1039 0.929 . S
C1051 C1045 1.390 . S
C1051 C1048 1.386 . S
C1052 C1047 1.490 . S
C1052 C1054 1.395 . S
C1052 C1055 1.403 . S
H1053 C1059 0.930 . S
C1054 H1040 0.930 . S
C1054 C1052 1.395 . S
C1054 C1057 1.403 . S
C1055 C1052 1.403 . S
C1055 C1056 1.524 . S
C1055 C1059 1.400 . S
C1056 H1041 0.960 . S
C1056 H1042 0.960 . S
C1056 H1043 0.960 . S
C1056 C1055 1.524 . S
C1057 C1054 1.403 . S
C1057 C1058 1.392 . S
C1057 C1061 1.495 . S
C1058 C1057 1.392 . S
C1058 C1059 1.385 . S
C1058 C1060 1.478 . S
C1059 H1053 0.930 . S
C1059 C1055 1.400 . S
C1059 C1058 1.385 . S
C1060 C1058 1.478 . S
C1060 C1062 1.381 . S
C1060 C1066 1.383 . S
C1061 C1057 1.495 . S
C1061 H1067 0.959 . S
C1061 H1068 0.961 . S
C1061 H1069 0.960 . S
C1062 C1060 1.381 . S
C1062 C1063 1.394 . S
C1062 H1070 0.930 . S
C1063 C1062 1.394 . S
C1063 C1064 1.383 . S
C1063 H1071 0.929 . S
C1064 C1063 1.383 . S
C1064 C1065 1.377 . S
C1065 H1049 0.930 . S
C1065 C1064 1.377 . S
C1065 C1066 1.379 . S
C1066 H1050 0.931 . S
C1066 C1060 1.383 . S
C1066 C1065 1.379 . S
H1067 C1061 0.959 . S
H1068 C1061 0.961 . S
H1069 C1061 0.960 . S
H1070 C1062 0.930 . S
H1071 C1063 0.929 . S
H1072 C1080 0.929 . S
H1073 C1082 0.930 . S
H1074 C1084 0.930 . S
H1075 C1087 0.929 1_556 S
H1076 C1090 0.930 . S
H1077 C1092 0.960 . S
H1078 C1092 0.960 . S
H1079 C1092 0.960 . S
C1080 H1072 0.929 . S
C1080 C1081 1.377 . S
C1080 C1082 1.384 . S
C1081 C1080 1.377 . S
C1081 C1087 1.390 . S
C1082 H1073 0.930 . S
C1082 C1080 1.384 . S
C1082 C1083 1.372 . S
C1083 C1082 1.372 . S
C1083 C1084 1.400 . S
C1083 C1088 1.490 . S
C1084 H1074 0.930 . S
C1084 C1083 1.400 . S
C1084 C1087 1.386 . S
H1085 C1101 0.930 . S
H1086 C1102 0.931 . S
C1087 H1075 0.929 1_554 S
C1087 C1081 1.390 . S
C1087 C1084 1.386 . S
C1088 C1083 1.490 . S
C1088 C1090 1.395 . S
C1088 C1091 1.403 . S
H1089 C1095 0.930 . S
C1090 H1076 0.930 . S
C1090 C1088 1.395 . S
C1090 C1093 1.403 . S
C1091 C1088 1.403 . S
C1091 C1092 1.524 . S
C1091 C1095 1.400 . S
C1092 H1077 0.960 . S
C1092 H1078 0.960 . S
C1092 H1079 0.960 . S
C1092 C1091 1.524 . S
C1093 C1090 1.403 . S
C1093 C1094 1.392 . S
C1093 C1097 1.495 . S
C1094 C1093 1.392 . S
C1094 C1095 1.385 . S
C1094 C1096 1.478 . S
C1095 H1089 0.930 . S
C1095 C1091 1.400 . S
C1095 C1094 1.385 . S
C1096 C1094 1.478 . S
C1096 C1098 1.381 . S
C1096 C1102 1.383 . S
C1097 C1093 1.495 . S
C1097 H1103 0.959 . S
C1097 H1104 0.961 . S
C1097 H1105 0.960 . S
C1098 C1096 1.381 . S
C1098 C1099 1.394 . S
C1098 H1106 0.930 . S
C1099 C1098 1.394 . S
C1099 C1100 1.383 . S
C1099 H1107 0.929 . S
C1100 C1099 1.383 . S
C1100 C1101 1.377 . S
C1101 H1085 0.930 . S
C1101 C1100 1.377 . S
C1101 C1102 1.379 . S
C1102 H1086 0.931 . S
C1102 C1096 1.383 . S
C1102 C1101 1.379 . S
H1103 C1097 0.959 . S
H1104 C1097 0.961 . S
H1105 C1097 0.960 . S
H1106 C1098 0.930 . S
H1107 C1099 0.929 . S
H1108 C1116 0.929 . S
H1109 C1118 0.930 . S
H1110 C1120 0.930 . S
H1111 C1123 0.929 . S
H1112 C1126 0.930 . S
H1113 C1128 0.960 . S
H1114 C1128 0.960 . S
H1115 C1128 0.960 . S
C1116 H1108 0.929 . S
C1116 C1117 1.377 . S
C1116 C1118 1.384 . S
C1117 C1116 1.377 . S
C1117 C1123 1.390 . S
C1118 H1109 0.930 . S
C1118 C1116 1.384 . S
C1118 C1119 1.372 . S
C1119 C1118 1.372 . S
C1119 C1120 1.400 . S
C1119 C1124 1.490 . S
C1120 H1110 0.930 . S
C1120 C1119 1.400 . S
C1120 C1123 1.386 . S
H1121 C1137 0.930 . S
H1122 C1138 0.931 . S
C1123 H1111 0.929 . S
C1123 C1117 1.390 . S
C1123 C1120 1.386 . S
C1124 C1119 1.490 . S
C1124 C1126 1.395 . S
C1124 C1127 1.403 . S
H1125 C1131 0.930 . S
C1126 H1112 0.930 . S
C1126 C1124 1.395 . S
C1126 C1129 1.403 . S
C1127 C1124 1.403 . S
C1127 C1128 1.524 . S
C1127 C1131 1.400 . S
C1128 H1113 0.960 . S
C1128 H1114 0.960 . S
C1128 H1115 0.960 . S
C1128 C1127 1.524 . S
C1129 C1126 1.403 . S
C1129 C1130 1.392 . S
C1129 C1133 1.495 . S
C1130 C1129 1.392 . S
C1130 C1131 1.385 . S
C1130 C1132 1.478 . S
C1131 H1125 0.930 . S
C1131 C1127 1.400 . S
C1131 C1130 1.385 . S
C1132 C1130 1.478 . S
C1132 C1134 1.381 . S
C1132 C1138 1.383 . S
C1133 C1129 1.495 . S
C1133 H1139 0.959 . S
C1133 H1140 0.961 . S
C1133 H1141 0.960 . S
C1134 C1132 1.381 . S
C1134 C1135 1.394 . S
C1134 H1142 0.930 . S
C1135 C1134 1.394 . S
C1135 C1136 1.383 . S
C1135 H1143 0.929 . S
C1136 C1135 1.383 . S
C1136 C1137 1.377 . S
C1137 H1121 0.930 . S
C1137 C1136 1.377 . S
C1137 C1138 1.379 . S
C1138 H1122 0.931 . S
C1138 C1132 1.383 . S
C1138 C1137 1.379 . S
H1139 C1133 0.959 . S
H1140 C1133 0.961 . S
H1141 C1133 0.960 . S
H1142 C1134 0.930 . S
H1143 C1135 0.929 . S
H1144 C1152 0.929 . S
H1145 C1154 0.930 . S
H1146 C1156 0.930 . S
H1147 C1159 0.929 . S
H1148 C1162 0.930 . S
H1149 C1164 0.960 . S
H1150 C1164 0.960 . S
H1151 C1164 0.960 . S
C1152 H1144 0.929 . S
C1152 C1153 1.377 . S
C1152 C1154 1.384 . S
C1153 C1152 1.377 . S
C1153 C1159 1.390 . S
C1154 H1145 0.930 . S
C1154 C1152 1.384 . S
C1154 C1155 1.372 . S
C1155 C1154 1.372 . S
C1155 C1156 1.400 . S
C1155 C1160 1.490 . S
C1156 H1146 0.930 . S
C1156 C1155 1.400 . S
C1156 C1159 1.386 . S
H1157 C1173 0.930 . S
H1158 C1174 0.931 . S
C1159 H1147 0.929 . S
C1159 C1153 1.390 . S
C1159 C1156 1.386 . S
C1160 C1155 1.490 . S
C1160 C1162 1.395 . S
C1160 C1163 1.403 . S
H1161 C1167 0.930 . S
C1162 H1148 0.930 . S
C1162 C1160 1.395 . S
C1162 C1165 1.403 . S
C1163 C1160 1.403 . S
C1163 C1164 1.524 . S
C1163 C1167 1.400 . S
C1164 H1149 0.960 . S
C1164 H1150 0.960 . S
C1164 H1151 0.960 . S
C1164 C1163 1.524 . S
C1165 C1162 1.403 . S
C1165 C1166 1.392 . S
C1165 C1169 1.495 . S
C1166 C1165 1.392 . S
C1166 C1167 1.385 . S
C1166 C1168 1.478 . S
C1167 H1161 0.930 . S
C1167 C1163 1.400 . S
C1167 C1166 1.385 . S
C1168 C1166 1.478 . S
C1168 C1170 1.381 . S
C1168 C1174 1.383 . S
C1169 C1165 1.495 . S
C1169 H1175 0.959 . S
C1169 H1176 0.961 . S
C1169 H1177 0.960 . S
C1170 C1168 1.381 . S
C1170 C1171 1.394 . S
C1170 H1178 0.930 . S
C1171 C1170 1.394 . S
C1171 C1172 1.383 . S
C1171 H1179 0.929 . S
C1172 C1171 1.383 . S
C1172 C1173 1.377 . S
C1173 H1157 0.930 . S
C1173 C1172 1.377 . S
C1173 C1174 1.379 . S
C1174 H1158 0.931 . S
C1174 C1168 1.383 . S
C1174 C1173 1.379 . S
H1175 C1169 0.959 . S
H1176 C1169 0.961 . S
H1177 C1169 0.960 . S
H1178 C1170 0.930 . S
H1179 C1171 0.929 . S
H1180 C1188 0.929 . S
H1181 C1190 0.930 . S
H1182 C1192 0.930 . S
H1183 C1195 0.929 . S
H1184 C1198 0.930 . S
H1185 C1200 0.960 . S
H1186 C1200 0.960 . S
H1187 C1200 0.960 . S
C1188 H1180 0.929 . S
C1188 C1189 1.377 . S
C1188 C1190 1.384 . S
C1189 C1188 1.377 . S
C1189 C1195 1.390 . S
C1190 H1181 0.930 . S
C1190 C1188 1.384 . S
C1190 C1191 1.372 . S
C1191 C1190 1.372 . S
C1191 C1192 1.400 . S
C1191 C1196 1.490 . S
C1192 H1182 0.930 . S
C1192 C1191 1.400 . S
C1192 C1195 1.386 . S
H1193 C1209 0.930 . S
H1194 C1210 0.931 . S
C1195 H1183 0.929 . S
C1195 C1189 1.390 . S
C1195 C1192 1.386 . S
C1196 C1191 1.490 . S
C1196 C1198 1.395 . S
C1196 C1199 1.403 . S
H1197 C1203 0.930 . S
C1198 H1184 0.930 . S
C1198 C1196 1.395 . S
C1198 C1201 1.403 . S
C1199 C1196 1.403 . S
C1199 C1200 1.524 . S
C1199 C1203 1.400 . S
C1200 H1185 0.960 . S
C1200 H1186 0.960 . S
C1200 H1187 0.960 . S
C1200 C1199 1.524 . S
C1201 C1198 1.403 . S
C1201 C1202 1.392 . S
C1201 C1205 1.495 . S
C1202 C1201 1.392 . S
C1202 C1203 1.385 . S
C1202 C1204 1.478 . S
C1203 H1197 0.930 . S
C1203 C1199 1.400 . S
C1203 C1202 1.385 . S
C1204 C1202 1.478 . S
C1204 C1206 1.381 . S
C1204 C1210 1.383 . S
C1205 C1201 1.495 . S
C1205 H1211 0.959 . S
C1205 H1212 0.961 . S
C1205 H1213 0.960 . S
C1206 C1204 1.381 . S
C1206 C1207 1.394 . S
C1206 H1214 0.930 . S
C1207 C1206 1.394 . S
C1207 C1208 1.383 . S
C1207 H1215 0.929 . S
C1208 C1207 1.383 . S
C1208 C1209 1.377 . S
C1209 H1193 0.930 . S
C1209 C1208 1.377 . S
C1209 C1210 1.379 . S
C1210 H1194 0.931 . S
C1210 C1204 1.383 . S
C1210 C1209 1.379 . S
H1211 C1205 0.959 . S
H1212 C1205 0.961 . S
H1213 C1205 0.960 . S
H1214 C1206 0.930 . S
H1215 C1207 0.929 . S
H1216 C1224 0.929 . S
H1217 C1226 0.930 . S
H1218 C1228 0.930 . S
H1219 C1231 0.929 . S
H1220 C1234 0.930 . S
H1221 C1236 0.960 . S
H1222 C1236 0.960 . S
H1223 C1236 0.960 . S
C1224 H1216 0.929 . S
C1224 C1225 1.377 . S
C1224 C1226 1.384 . S
C1225 C1224 1.377 . S
C1225 C1231 1.390 . S
C1226 H1217 0.930 . S
C1226 C1224 1.384 . S
C1226 C1227 1.372 . S
C1227 C1226 1.372 . S
C1227 C1228 1.400 . S
C1227 C1232 1.490 . S
C1228 H1218 0.930 . S
C1228 C1227 1.400 . S
C1228 C1231 1.386 . S
H1229 C1245 0.930 . S
H1230 C1246 0.931 . S
C1231 H1219 0.929 . S
C1231 C1225 1.390 . S
C1231 C1228 1.386 . S
C1232 C1227 1.490 . S
C1232 C1234 1.395 . S
C1232 C1235 1.403 . S
H1233 C1239 0.930 . S
C1234 H1220 0.930 . S
C1234 C1232 1.395 . S
C1234 C1237 1.403 . S
C1235 C1232 1.403 . S
C1235 C1236 1.524 . S
C1235 C1239 1.400 . S
C1236 H1221 0.960 . S
C1236 H1222 0.960 . S
C1236 H1223 0.960 . S
C1236 C1235 1.524 . S
C1237 C1234 1.403 . S
C1237 C1238 1.392 . S
C1237 C1241 1.495 . S
C1238 C1237 1.392 . S
C1238 C1239 1.385 . S
C1238 C1240 1.478 . S
C1239 H1233 0.930 . S
C1239 C1235 1.400 . S
C1239 C1238 1.385 . S
C1240 C1238 1.478 . S
C1240 C1242 1.381 . S
C1240 C1246 1.383 . S
C1241 C1237 1.495 . S
C1241 H1247 0.959 . S
C1241 H1248 0.961 . S
C1241 H1249 0.960 . S
C1242 C1240 1.381 . S
C1242 C1243 1.394 . S
C1242 H1250 0.930 . S
C1243 C1242 1.394 . S
C1243 C1244 1.383 . S
C1243 H1251 0.929 . S
C1244 C1243 1.383 . S
C1244 C1245 1.377 . S
C1245 H1229 0.930 . S
C1245 C1244 1.377 . S
C1245 C1246 1.379 . S
C1246 H1230 0.931 . S
C1246 C1240 1.383 . S
C1246 C1245 1.379 . S
H1247 C1241 0.959 . S
H1248 C1241 0.961 . S
H1249 C1241 0.960 . S
H1250 C1242 0.930 . S
H1251 C1243 0.929 . S
H1252 C1260 0.929 . S
H1253 C1262 0.930 . S
H1254 C1264 0.930 . S
H1255 C1267 0.929 . S
H1256 C1270 0.930 . S
H1257 C1272 0.960 . S
H1258 C1272 0.960 . S
H1259 C1272 0.960 . S
C1260 H1252 0.929 . S
C1260 C1261 1.377 . S
C1260 C1262 1.384 . S
C1261 C1260 1.377 . S
C1261 C1267 1.390 . S
C1262 H1253 0.930 . S
C1262 C1260 1.384 . S
C1262 C1263 1.372 . S
C1263 C1262 1.372 . S
C1263 C1264 1.400 . S
C1263 C1268 1.490 1_545 S
C1264 H1254 0.930 . S
C1264 C1263 1.400 . S
C1264 C1267 1.386 . S
H1265 C1281 0.930 . S
H1266 C1282 0.931 . S
C1267 H1255 0.929 . S
C1267 C1261 1.390 . S
C1267 C1264 1.386 . S
C1268 C1263 1.490 1_565 S
C1268 C1270 1.395 . S
C1268 C1271 1.403 . S
H1269 C1275 0.930 . S
C1270 H1256 0.930 . S
C1270 C1268 1.395 . S
C1270 C1273 1.403 . S
C1271 C1268 1.403 . S
C1271 C1272 1.524 1_565 S
C1271 C1275 1.400 . S
C1272 H1257 0.960 . S
C1272 H1258 0.960 . S
C1272 H1259 0.960 . S
C1272 C1271 1.524 1_545 S
C1273 C1270 1.403 . S
C1273 C1274 1.392 . S
C1273 C1277 1.495 . S
C1274 C1273 1.392 . S
C1274 C1275 1.385 . S
C1274 C1276 1.478 . S
C1275 H1269 0.930 . S
C1275 C1271 1.400 . S
C1275 C1274 1.385 . S
C1276 C1274 1.478 . S
C1276 C1278 1.381 . S
C1276 C1282 1.383 . S
C1277 C1273 1.495 . S
C1277 H1283 0.959 . S
C1277 H1284 0.961 . S
C1277 H1285 0.960 . S
C1278 C1276 1.381 . S
C1278 C1279 1.394 . S
C1278 H1286 0.930 . S
C1279 C1278 1.394 . S
C1279 C1280 1.383 . S
C1279 H1287 0.929 . S
C1280 C1279 1.383 . S
C1280 C1281 1.377 . S
C1281 H1265 0.930 . S
C1281 C1280 1.377 . S
C1281 C1282 1.379 . S
C1282 H1266 0.931 . S
C1282 C1276 1.383 . S
C1282 C1281 1.379 . S
H1283 C1277 0.959 . S
H1284 C1277 0.961 . S
H1285 C1277 0.960 . S
H1286 C1278 0.930 . S
H1287 C1279 0.929 . S
H1288 C1296 0.929 . S
H1289 C1298 0.930 . S
H1290 C1300 0.930 . S
H1291 C1303 0.929 . S
H1292 C1306 0.930 . S
H1293 C1308 0.960 . S
H1294 C1308 0.960 . S
H1295 C1308 0.960 . S
C1296 H1288 0.929 . S
C1296 C1297 1.377 . S
C1296 C1298 1.384 . S
C1297 C1296 1.377 . S
C1297 C1303 1.390 1_556 S
C1298 H1289 0.930 . S
C1298 C1296 1.384 . S
C1298 C1299 1.372 . S
C1299 C1298 1.372 . S
C1299 C1300 1.400 . S
C1299 C1304 1.490 . S
C1300 H1290 0.930 . S
C1300 C1299 1.400 . S
C1300 C1303 1.386 1_556 S
H1301 C1317 0.930 . S
H1302 C1318 0.931 . S
C1303 H1291 0.929 . S
C1303 C1297 1.390 1_554 S
C1303 C1300 1.386 1_554 S
C1304 C1299 1.490 . S
C1304 C1306 1.395 . S
C1304 C1307 1.403 . S
H1305 C1311 0.930 . S
C1306 H1292 0.930 . S
C1306 C1304 1.395 . S
C1306 C1309 1.403 . S
C1307 C1304 1.403 . S
C1307 C1308 1.524 . S
C1307 C1311 1.400 . S
C1308 H1293 0.960 . S
C1308 H1294 0.960 . S
C1308 H1295 0.960 . S
C1308 C1307 1.524 . S
C1309 C1306 1.403 . S
C1309 C1310 1.392 . S
C1309 C1313 1.495 . S
C1310 C1309 1.392 . S
C1310 C1311 1.385 . S
C1310 C1312 1.478 . S
C1311 H1305 0.930 . S
C1311 C1307 1.400 . S
C1311 C1310 1.385 . S
C1312 C1310 1.478 . S
C1312 C1314 1.381 . S
C1312 C1318 1.383 . S
C1313 C1309 1.495 . S
C1313 H1319 0.959 . S
C1313 H1320 0.961 . S
C1313 H1321 0.960 . S
C1314 C1312 1.381 . S
C1314 C1315 1.394 . S
C1314 H1322 0.930 . S
C1315 C1314 1.394 . S
C1315 C1316 1.383 . S
C1315 H1323 0.929 . S
C1316 C1315 1.383 . S
C1316 C1317 1.377 . S
C1317 H1301 0.930 . S
C1317 C1316 1.377 . S
C1317 C1318 1.379 . S
C1318 H1302 0.931 . S
C1318 C1312 1.383 . S
C1318 C1317 1.379 . S
H1319 C1313 0.959 . S
H1320 C1313 0.961 . S
H1321 C1313 0.960 . S
H1322 C1314 0.930 . S
H1323 C1315 0.929 . S
H1324 C1332 0.929 . S
H1325 C1334 0.930 . S
H1326 C1336 0.930 . S
H1327 C1339 0.929 . S
H1328 C1342 0.930 . S
H1329 C1344 0.960 . S
H1330 C1344 0.960 . S
H1331 C1344 0.960 . S
C1332 H1324 0.929 . S
C1332 C1333 1.377 . S
C1332 C1334 1.384 . S
C1333 C1332 1.377 . S
C1333 C1339 1.390 . S
C1334 H1325 0.930 . S
C1334 C1332 1.384 . S
C1334 C1335 1.372 . S
C1335 C1334 1.372 . S
C1335 C1336 1.400 . S
C1335 C1340 1.490 1_565 S
C1336 H1326 0.930 . S
C1336 C1335 1.400 . S
C1336 C1339 1.386 . S
H1337 C1353 0.930 . S
H1338 C1354 0.931 . S
C1339 H1327 0.929 . S
C1339 C1333 1.390 . S
C1339 C1336 1.386 . S
C1340 C1335 1.490 1_545 S
C1340 C1342 1.395 . S
C1340 C1343 1.403 . S
H1341 C1347 0.930 . S
C1342 H1328 0.930 . S
C1342 C1340 1.395 . S
C1342 C1345 1.403 . S
C1343 C1340 1.403 . S
C1343 C1344 1.524 1_545 S
C1343 C1347 1.400 . S
C1344 H1329 0.960 . S
C1344 H1330 0.960 . S
C1344 H1331 0.960 . S
C1344 C1343 1.524 1_565 S
C1345 C1342 1.403 . S
C1345 C1346 1.392 . S
C1345 C1349 1.495 . S
C1346 C1345 1.392 . S
C1346 C1347 1.385 . S
C1346 C1348 1.478 . S
C1347 H1341 0.930 . S
C1347 C1343 1.400 . S
C1347 C1346 1.385 . S
C1348 C1346 1.478 . S
C1348 C1350 1.381 . S
C1348 C1354 1.383 . S
C1349 C1345 1.495 . S
C1349 H1355 0.959 . S
C1349 H1356 0.961 . S
C1349 H1357 0.960 . S
C1350 C1348 1.381 . S
C1350 C1351 1.394 . S
C1350 H1358 0.930 . S
C1351 C1350 1.394 . S
C1351 C1352 1.383 . S
C1351 H1359 0.929 . S
C1352 C1351 1.383 . S
C1352 C1353 1.377 . S
C1353 H1337 0.930 . S
C1353 C1352 1.377 . S
C1353 C1354 1.379 . S
C1354 H1338 0.931 . S
C1354 C1348 1.383 . S
C1354 C1353 1.379 . S
H1355 C1349 0.959 . S
H1356 C1349 0.961 . S
H1357 C1349 0.960 . S
H1358 C1350 0.930 . S
H1359 C1351 0.929 . S
H1360 C1368 0.929 . S
H1361 C1370 0.930 . S
H1362 C1372 0.930 . S
H1363 C1375 0.929 . S
H1364 C1378 0.930 . S
H1365 C1380 0.960 . S
H1366 C1380 0.960 . S
H1367 C1380 0.960 . S
C1368 H1360 0.929 . S
C1368 C1369 1.377 . S
C1368 C1370 1.384 . S
C1369 C1368 1.377 . S
C1369 C1375 1.390 . S
C1370 H1361 0.930 . S
C1370 C1368 1.384 . S
C1370 C1371 1.372 . S
C1371 C1370 1.372 . S
C1371 C1372 1.400 . S
C1371 C1376 1.490 . S
C1372 H1362 0.930 . S
C1372 C1371 1.400 . S
C1372 C1375 1.386 . S
H1373 C1389 0.930 . S
H1374 C1390 0.931 . S
C1375 H1363 0.929 . S
C1375 C1369 1.390 . S
C1375 C1372 1.386 . S
C1376 C1371 1.490 . S
C1376 C1378 1.395 . S
C1376 C1379 1.403 . S
H1377 C1383 0.930 . S
C1378 H1364 0.930 . S
C1378 C1376 1.395 . S
C1378 C1381 1.403 . S
C1379 C1376 1.403 . S
C1379 C1380 1.524 . S
C1379 C1383 1.400 . S
C1380 H1365 0.960 . S
C1380 H1366 0.960 . S
C1380 H1367 0.960 . S
C1380 C1379 1.524 . S
C1381 C1378 1.403 . S
C1381 C1382 1.392 . S
C1381 C1385 1.495 . S
C1382 C1381 1.392 . S
C1382 C1383 1.385 . S
C1382 C1384 1.478 . S
C1383 H1377 0.930 . S
C1383 C1379 1.400 . S
C1383 C1382 1.385 . S
C1384 C1382 1.478 . S
C1384 C1386 1.381 . S
C1384 C1390 1.383 . S
C1385 C1381 1.495 . S
C1385 H1391 0.959 . S
C1385 H1392 0.961 . S
C1385 H1393 0.960 . S
C1386 C1384 1.381 . S
C1386 C1387 1.394 . S
C1386 H1394 0.930 . S
C1387 C1386 1.394 . S
C1387 C1388 1.383 . S
C1387 H1395 0.929 . S
C1388 C1387 1.383 . S
C1388 C1389 1.377 . S
C1389 H1373 0.930 . S
C1389 C1388 1.377 . S
C1389 C1390 1.379 . S
C1390 H1374 0.931 . S
C1390 C1384 1.383 . S
C1390 C1389 1.379 . S
H1391 C1385 0.959 . S
H1392 C1385 0.961 . S
H1393 C1385 0.960 . S
H1394 C1386 0.930 . S
H1395 C1387 0.929 . S
H1396 C1404 0.929 . S
H1397 C1406 0.930 . S
H1398 C1408 0.930 . S
H1399 C1411 0.929 . S
H1400 C1414 0.930 . S
H1401 C1416 0.960 . S
H1402 C1416 0.960 . S
H1403 C1416 0.960 . S
C1404 H1396 0.929 . S
C1404 C1405 1.377 . S
C1404 C1406 1.384 . S
C1405 C1404 1.377 . S
C1405 C1411 1.390 . S
C1406 H1397 0.930 . S
C1406 C1404 1.384 . S
C1406 C1407 1.372 . S
C1407 C1406 1.372 . S
C1407 C1408 1.400 . S
C1407 C1412 1.490 . S
C1408 H1398 0.930 . S
C1408 C1407 1.400 . S
C1408 C1411 1.386 . S
H1409 C1425 0.930 . S
H1410 C1426 0.931 . S
C1411 H1399 0.929 . S
C1411 C1405 1.390 . S
C1411 C1408 1.386 . S
C1412 C1407 1.490 . S
C1412 C1414 1.395 . S
C1412 C1415 1.403 . S
H1413 C1419 0.930 . S
C1414 H1400 0.930 . S
C1414 C1412 1.395 . S
C1414 C1417 1.403 . S
C1415 C1412 1.403 . S
C1415 C1416 1.524 . S
C1415 C1419 1.400 . S
C1416 H1401 0.960 . S
C1416 H1402 0.960 . S
C1416 H1403 0.960 . S
C1416 C1415 1.524 . S
C1417 C1414 1.403 . S
C1417 C1418 1.392 . S
C1417 C1421 1.495 1_545 S
C1418 C1417 1.392 . S
C1418 C1419 1.385 . S
C1418 C1420 1.478 1_545 S
C1419 H1413 0.930 . S
C1419 C1415 1.400 . S
C1419 C1418 1.385 . S
C1420 C1418 1.478 1_565 S
C1420 C1422 1.381 . S
C1420 C1426 1.383 . S
C1421 C1417 1.495 1_565 S
C1421 H1427 0.959 . S
C1421 H1428 0.961 . S
C1421 H1429 0.960 . S
C1422 C1420 1.381 . S
C1422 C1423 1.394 . S
C1422 H1430 0.930 . S
C1423 C1422 1.394 . S
C1423 C1424 1.383 . S
C1423 H1431 0.929 . S
C1424 C1423 1.383 . S
C1424 C1425 1.377 . S
C1425 H1409 0.930 . S
C1425 C1424 1.377 . S
C1425 C1426 1.379 . S
C1426 H1410 0.931 . S
C1426 C1420 1.383 . S
C1426 C1425 1.379 . S
H1427 C1421 0.959 . S
H1428 C1421 0.961 . S
H1429 C1421 0.960 . S
H1430 C1422 0.930 . S
H1431 C1423 0.929 . S
H1432 C1440 0.929 . S
H1433 C1442 0.930 . S
H1434 C1444 0.930 . S
H1435 C1447 0.929 . S
H1436 C1450 0.930 . S
H1437 C1452 0.960 . S
H1438 C1452 0.960 . S
H1439 C1452 0.960 . S
C1440 H1432 0.929 . S
C1440 C1441 1.377 . S
C1440 C1442 1.384 . S
C1441 C1440 1.377 . S
C1441 C1447 1.390 . S
C1442 H1433 0.930 . S
C1442 C1440 1.384 . S
C1442 C1443 1.372 . S
C1443 C1442 1.372 . S
C1443 C1444 1.400 . S
C1443 C1448 1.490 . S
C1444 H1434 0.930 . S
C1444 C1443 1.400 . S
C1444 C1447 1.386 . S
H1445 C1461 0.930 . S
H1446 C1462 0.931 . S
C1447 H1435 0.929 . S
C1447 C1441 1.390 . S
C1447 C1444 1.386 . S
C1448 C1443 1.490 . S
C1448 C1450 1.395 . S
C1448 C1451 1.403 . S
H1449 C1455 0.930 . S
C1450 H1436 0.930 . S
C1450 C1448 1.395 . S
C1450 C1453 1.403 . S
C1451 C1448 1.403 . S
C1451 C1452 1.524 . S
C1451 C1455 1.400 . S
C1452 H1437 0.960 . S
C1452 H1438 0.960 . S
C1452 H1439 0.960 . S
C1452 C1451 1.524 . S
C1453 C1450 1.403 . S
C1453 C1454 1.392 . S
C1453 C1457 1.495 . S
C1454 C1453 1.392 . S
C1454 C1455 1.385 . S
C1454 C1456 1.478 . S
C1455 H1449 0.930 . S
C1455 C1451 1.400 . S
C1455 C1454 1.385 . S
C1456 C1454 1.478 . S
C1456 C1458 1.381 . S
C1456 C1462 1.383 . S
C1457 C1453 1.495 . S
C1457 H1463 0.959 . S
C1457 H1464 0.961 . S
C1457 H1465 0.960 . S
C1458 C1456 1.381 . S
C1458 C1459 1.394 . S
C1458 H1466 0.930 . S
C1459 C1458 1.394 . S
C1459 C1460 1.383 . S
C1459 H1467 0.929 . S
C1460 C1459 1.383 . S
C1460 C1461 1.377 1_554 S
C1461 H1445 0.930 . S
C1461 C1460 1.377 1_556 S
C1461 C1462 1.379 1_556 S
C1462 H1446 0.931 . S
C1462 C1456 1.383 . S
C1462 C1461 1.379 1_554 S
H1463 C1457 0.959 . S
H1464 C1457 0.961 . S
H1465 C1457 0.960 . S
H1466 C1458 0.930 . S
H1467 C1459 0.929 . S
H1468 C1476 0.929 . S
H1469 C1478 0.930 . S
H1470 C1480 0.934 . S
H1471 C1483 0.929 . S
H1472 C1486 0.930 1_545 S
H1473 C1488 0.960 . S
H1474 C1488 0.960 . S
H1475 C1488 0.960 . S
C1476 H1468 0.929 . S
C1476 C1477 1.377 . S
C1476 C1478 1.384 . S
C1477 C1476 1.377 . S
C1477 C1483 1.390 . S
C1478 H1469 0.930 . S
C1478 C1476 1.384 . S
C1478 C1479 1.372 . S
C1479 C1478 1.372 . S
C1479 C1480 1.400 . S
C1479 C1484 1.490 1_545 S
C1480 H1470 0.934 . S
C1480 C1479 1.400 . S
C1480 C1483 1.386 . S
H1481 C1497 0.930 . S
H1482 C1498 0.931 . S
C1483 H1471 0.929 . S
C1483 C1477 1.390 . S
C1483 C1480 1.386 . S
C1484 C1479 1.490 1_565 S
C1484 C1486 1.395 . S
C1484 C1487 1.403 . S
H1485 C1491 0.930 . S
C1486 H1472 0.930 1_565 S
C1486 C1484 1.395 . S
C1486 C1489 1.403 . S
C1487 C1484 1.403 . S
C1487 C1488 1.524 . S
C1487 C1491 1.400 . S
C1488 H1473 0.960 . S
C1488 H1474 0.960 . S
C1488 H1475 0.960 . S
C1488 C1487 1.524 . S
C1489 C1486 1.403 . S
C1489 C1490 1.392 . S
C1489 C1493 1.495 . S
C1490 C1489 1.392 . S
C1490 C1491 1.385 . S
C1490 C1492 1.478 . S
C1491 H1485 0.930 . S
C1491 C1487 1.400 . S
C1491 C1490 1.385 . S
C1492 C1490 1.478 . S
C1492 C1494 1.381 . S
C1492 C1498 1.383 . S
C1493 C1489 1.495 . S
C1493 H1499 0.959 . S
C1493 H1500 0.961 . S
C1493 H1501 0.960 . S
C1494 C1492 1.381 . S
C1494 C1495 1.394 . S
C1494 H1502 0.930 . S
C1495 C1494 1.394 . S
C1495 C1496 1.383 . S
C1495 H1503 0.929 . S
C1496 C1495 1.383 . S
C1496 C1497 1.377 . S
C1497 H1481 0.930 . S
C1497 C1496 1.377 . S
C1497 C1498 1.379 . S
C1498 H1482 0.931 . S
C1498 C1492 1.383 . S
C1498 C1497 1.379 . S
H1499 C1493 0.959 . S
H1500 C1493 0.961 . S
H1501 C1493 0.960 . S
H1502 C1494 0.930 . S
H1503 C1495 0.929 . S
H1504 C1512 0.929 . S
H1505 C1514 0.930 . S
H1506 C1516 0.930 . S
H1507 C1519 0.929 . S
H1508 C1522 0.930 . S
H1509 C1524 0.960 . S
H1510 C1524 0.960 . S
H1511 C1524 0.960 . S
C1512 H1504 0.929 . S
C1512 C1513 1.377 . S
C1512 C1514 1.384 . S
C1513 C1512 1.377 . S
C1513 C1519 1.390 . S
C1514 H1505 0.930 . S
C1514 C1512 1.384 . S
C1514 C1515 1.372 . S
C1515 C1514 1.372 . S
C1515 C1516 1.400 . S
C1515 C1520 1.490 . S
C1516 H1506 0.930 . S
C1516 C1515 1.400 . S
C1516 C1519 1.386 . S
H1517 C1533 0.930 . S
H1518 C1534 0.931 . S
C1519 H1507 0.929 . S
C1519 C1513 1.390 . S
C1519 C1516 1.386 . S
C1520 C1515 1.490 . S
C1520 C1522 1.395 . S
C1520 C1523 1.403 . S
H1521 C1527 0.930 . S
C1522 H1508 0.930 . S
C1522 C1520 1.395 . S
C1522 C1525 1.403 . S
C1523 C1520 1.403 . S
C1523 C1524 1.524 . S
C1523 C1527 1.400 . S
C1524 H1509 0.960 . S
C1524 H1510 0.960 . S
C1524 H1511 0.960 . S
C1524 C1523 1.524 . S
C1525 C1522 1.403 . S
C1525 C1526 1.392 . S
C1525 C1529 1.495 . S
C1526 C1525 1.392 . S
C1526 C1527 1.385 . S
C1526 C1528 1.478 . S
C1527 H1521 0.930 . S
C1527 C1523 1.400 . S
C1527 C1526 1.385 . S
C1528 C1526 1.478 . S
C1528 C1530 1.381 . S
C1528 C1534 1.383 . S
C1529 C1525 1.495 . S
C1529 H1535 0.959 . S
C1529 H1536 0.961 . S
C1529 H1537 0.960 . S
C1530 C1528 1.381 . S
C1530 C1531 1.394 . S
C1530 H1538 0.930 . S
C1531 C1530 1.394 . S
C1531 C1532 1.383 . S
C1531 H1539 0.929 . S
C1532 C1531 1.383 . S
C1532 C1533 1.377 . S
C1533 H1517 0.930 . S
C1533 C1532 1.377 . S
C1533 C1534 1.379 . S
C1534 H1518 0.931 . S
C1534 C1528 1.383 . S
C1534 C1533 1.379 . S
H1535 C1529 0.959 . S
H1536 C1529 0.961 . S
H1537 C1529 0.960 . S
H1538 C1530 0.930 . S
H1539 C1531 0.929 . S
H1540 C1548 0.929 . S
H1541 C1550 0.930 . S
H1542 C1552 0.930 . S
H1543 C1555 0.929 . S
H1544 C1558 0.930 . S
H1545 C1560 0.960 . S
H1546 C1560 0.960 . S
H1547 C1560 0.960 . S
C1548 H1540 0.929 . S
C1548 C1549 1.377 . S
C1548 C1550 1.384 . S
C1549 C1548 1.377 . S
C1549 C1555 1.390 . S
C1550 H1541 0.930 . S
C1550 C1548 1.384 . S
C1550 C1551 1.372 . S
C1551 C1550 1.372 . S
C1551 C1552 1.400 . S
C1551 C1556 1.490 . S
C1552 H1542 0.930 . S
C1552 C1551 1.400 . S
C1552 C1555 1.386 . S
H1553 C1569 0.930 . S
H1554 C1570 0.931 . S
C1555 H1543 0.929 . S
C1555 C1549 1.390 . S
C1555 C1552 1.386 . S
C1556 C1551 1.490 . S
C1556 C1558 1.395 . S
C1556 C1559 1.403 . S
H1557 C1563 0.930 . S
C1558 H1544 0.930 . S
C1558 C1556 1.395 . S
C1558 C1561 1.403 . S
C1559 C1556 1.403 . S
C1559 C1560 1.524 . S
C1559 C1563 1.400 . S
C1560 H1545 0.960 . S
C1560 H1546 0.960 . S
C1560 H1547 0.960 . S
C1560 C1559 1.524 . S
C1561 C1558 1.403 . S
C1561 C1562 1.392 . S
C1561 C1565 1.495 . S
C1562 C1561 1.392 . S
C1562 C1563 1.385 . S
C1562 C1564 1.478 . S
C1563 H1557 0.930 . S
C1563 C1559 1.400 . S
C1563 C1562 1.385 . S
C1564 C1562 1.478 . S
C1564 C1566 1.381 . S
C1564 C1570 1.383 . S
C1565 C1561 1.495 . S
C1565 H1571 0.959 . S
C1565 H1572 0.961 . S
C1565 H1573 0.960 . S
C1566 C1564 1.381 . S
C1566 C1567 1.394 . S
C1566 H1574 0.930 . S
C1567 C1566 1.394 . S
C1567 C1568 1.383 1_554 S
C1567 H1575 0.929 . S
C1568 C1567 1.383 1_556 S
C1568 C1569 1.377 . S
C1569 H1553 0.930 . S
C1569 C1568 1.377 . S
C1569 C1570 1.379 1_556 S
C1570 H1554 0.931 . S
C1570 C1564 1.383 . S
C1570 C1569 1.379 1_554 S
H1571 C1565 0.959 . S
H1572 C1565 0.961 . S
H1573 C1565 0.960 . S
H1574 C1566 0.930 . S
H1575 C1567 0.929 . S
H1576 C1584 0.929 . S
H1577 C1586 0.930 . S
H1578 C1588 0.930 . S
H1579 C1591 0.929 . S
H1580 C1594 0.930 . S
H1581 C1596 0.942 1_455 S
H1582 C1596 0.960 . S
H1583 C1596 0.960 . S
C1584 H1576 0.929 . S
C1584 C1585 1.377 . S
C1584 C1586 1.384 . S
C1585 C1584 1.377 . S
C1585 C1591 1.390 . S
C1586 H1577 0.930 . S
C1586 C1584 1.384 . S
C1586 C1587 1.372 . S
C1587 C1586 1.372 . S
C1587 C1588 1.400 . S
C1587 C1592 1.490 . S
C1588 H1578 0.930 . S
C1588 C1587 1.400 . S
C1588 C1591 1.386 . S
H1589 C1605 0.930 . S
H1590 C1606 0.931 1_655 S
C1591 H1579 0.929 . S
C1591 C1585 1.390 . S
C1591 C1588 1.386 . S
C1592 C1587 1.490 . S
C1592 C1594 1.395 . S
C1592 C1595 1.403 . S
H1593 C1599 0.895 1_455 S
C1594 H1580 0.930 . S
C1594 C1592 1.395 . S
C1594 C1597 1.403 . S
C1595 C1592 1.403 . S
C1595 C1596 1.524 . S
C1595 C1599 1.432 . S
C1596 H1581 0.942 1_655 S
C1596 H1582 0.960 . S
C1596 H1583 0.960 . S
C1596 C1595 1.524 . S
C1597 C1594 1.403 . S
C1597 C1598 1.392 . S
C1597 C1601 1.495 . S
C1598 C1597 1.392 . S
C1598 C1599 1.390 . S
C1598 C1600 1.478 1_655 S
C1599 H1593 0.895 1_655 S
C1599 C1595 1.432 . S
C1599 C1598 1.390 . S
C1600 C1598 1.478 1_455 S
C1600 C1602 1.381 . S
C1600 C1606 1.383 . S
C1601 C1597 1.495 . S
C1601 H1607 0.959 . S
C1601 H1608 0.961 . S
C1601 H1609 0.960 . S
C1602 C1600 1.381 . S
C1602 C1603 1.394 . S
C1602 H1610 0.930 . S
C1603 C1602 1.394 . S
C1603 C1604 1.383 . S
C1603 H1611 0.929 . S
C1604 C1603 1.383 . S
C1604 C1605 1.377 . S
C1605 H1589 0.930 . S
C1605 C1604 1.377 . S
C1605 C1606 1.379 . S
C1606 H1590 0.931 1_455 S
C1606 C1600 1.383 . S
C1606 C1605 1.379 . S
H1607 C1601 0.959 . S
H1608 C1601 0.961 . S
H1609 C1601 0.960 . S
H1610 C1602 0.930 . S
H1611 C1603 0.929 . S
H1612 C1620 0.929 . S
H1613 C1622 0.930 . S
H1614 C1624 0.930 . S
H1615 C1627 0.929 . S
H1616 C1630 0.930 . S
H1617 C1632 0.960 . S
H1618 C1632 0.960 . S
H1619 C1632 0.960 . S
C1620 H1612 0.929 . S
C1620 C1621 1.377 . S
C1620 C1622 1.384 . S
C1621 C1620 1.377 . S
C1621 C1627 1.390 . S
C1622 H1613 0.930 . S
C1622 C1620 1.384 . S
C1622 C1623 1.372 . S
C1623 C1622 1.372 . S
C1623 C1624 1.400 . S
C1623 C1628 1.490 . S
C1624 H1614 0.930 . S
C1624 C1623 1.400 . S
C1624 C1627 1.386 . S
H1625 C1641 0.930 . S
H1626 C1642 0.931 . S
C1627 H1615 0.929 . S
C1627 C1621 1.390 . S
C1627 C1624 1.386 . S
C1628 C1623 1.490 . S
C1628 C1630 1.395 . S
C1628 C1631 1.403 . S
H1629 C1635 0.930 . S
C1630 H1616 0.930 . S
C1630 C1628 1.395 . S
C1630 C1633 1.403 . S
C1631 C1628 1.403 . S
C1631 C1632 1.524 . S
C1631 C1635 1.400 . S
C1632 H1617 0.960 . S
C1632 H1618 0.960 . S
C1632 H1619 0.960 . S
C1632 C1631 1.524 . S
C1633 C1630 1.403 . S
C1633 C1634 1.392 . S
C1633 C1637 1.495 . S
C1634 C1633 1.392 . S
C1634 C1635 1.385 . S
C1634 C1636 1.478 . S
C1635 H1629 0.930 . S
C1635 C1631 1.400 . S
C1635 C1634 1.385 . S
C1636 C1634 1.478 . S
C1636 C1638 1.381 . S
C1636 C1642 1.383 . S
C1637 C1633 1.495 . S
C1637 H1643 0.959 . S
C1637 H1644 0.961 . S
C1637 H1645 0.960 . S
C1638 C1636 1.381 . S
C1638 C1639 1.394 . S
C1638 H1646 0.930 . S
C1639 C1638 1.394 . S
C1639 C1640 1.383 . S
C1639 H1647 0.929 . S
C1640 C1639 1.383 . S
C1640 C1641 1.377 . S
C1641 H1625 0.930 . S
C1641 C1640 1.377 . S
C1641 C1642 1.379 . S
C1642 H1626 0.931 . S
C1642 C1636 1.383 . S
C1642 C1641 1.379 . S
H1643 C1637 0.959 . S
H1644 C1637 0.961 . S
H1645 C1637 0.960 . S
H1646 C1638 0.930 . S
H1647 C1639 0.929 . S
H1648 C1656 0.929 . S
H1649 C1658 0.930 . S
H1650 C1660 0.930 . S
H1651 C1663 0.929 . S
H1652 C1666 0.930 . S
H1653 C1668 0.960 . S
H1654 C1668 0.960 . S
H1655 C1668 0.960 . S
C1656 H1648 0.929 . S
C1656 C1657 1.377 . S
C1656 C1658 1.384 . S
C1657 C1656 1.377 . S
C1657 C1663 1.390 . S
C1658 H1649 0.930 . S
C1658 C1656 1.384 . S
C1658 C1659 1.372 . S
C1659 C1658 1.372 . S
C1659 C1660 1.400 . S
C1659 C1664 1.490 . S
C1660 H1650 0.930 . S
C1660 C1659 1.400 . S
C1660 C1663 1.386 . S
H1661 C1677 0.930 . S
H1662 C1678 0.931 . S
C1663 H1651 0.929 . S
C1663 C1657 1.390 . S
C1663 C1660 1.386 . S
C1664 C1659 1.490 . S
C1664 C1666 1.395 . S
C1664 C1667 1.403 . S
H1665 C1671 0.930 . S
C1666 H1652 0.930 . S
C1666 C1664 1.395 . S
C1666 C1669 1.403 . S
C1667 C1664 1.403 . S
C1667 C1668 1.524 . S
C1667 C1671 1.400 . S
C1668 H1653 0.960 . S
C1668 H1654 0.960 . S
C1668 H1655 0.960 . S
C1668 C1667 1.524 . S
C1669 C1666 1.403 . S
C1669 C1670 1.392 . S
C1669 C1673 1.495 . S
C1670 C1669 1.392 . S
C1670 C1671 1.385 . S
C1670 C1672 1.478 . S
C1671 H1665 0.930 . S
C1671 C1667 1.400 . S
C1671 C1670 1.385 . S
C1672 C1670 1.478 . S
C1672 C1674 1.381 . S
C1672 C1678 1.383 . S
C1673 C1669 1.495 . S
C1673 H1679 0.959 . S
C1673 H1680 0.961 . S
C1673 H1681 0.960 . S
C1674 C1672 1.381 . S
C1674 C1675 1.394 . S
C1674 H1682 0.930 . S
C1675 C1674 1.394 . S
C1675 C1676 1.383 . S
C1675 H1683 0.929 . S
C1676 C1675 1.383 . S
C1676 C1677 1.377 . S
C1677 H1661 0.930 . S
C1677 C1676 1.377 . S
C1677 C1678 1.379 . S
C1678 H1662 0.931 . S
C1678 C1672 1.383 . S
C1678 C1677 1.379 . S
H1679 C1673 0.959 . S
H1680 C1673 0.961 . S
H1681 C1673 0.960 . S
H1682 C1674 0.930 . S
H1683 C1675 0.929 . S
H1684 C1692 0.929 . S
H1685 C1694 0.930 . S
H1686 C1696 0.930 . S
H1687 C1699 0.929 . S
H1688 C1702 0.930 . S
H1689 C1704 0.960 . S
H1690 C1704 0.960 . S
H1691 C1704 0.960 . S
C1692 H1684 0.929 . S
C1692 C1693 1.377 . S
C1692 C1694 1.384 . S
C1693 C1692 1.377 . S
C1693 C1699 1.390 . S
C1694 H1685 0.930 . S
C1694 C1692 1.384 . S
C1694 C1695 1.372 . S
C1695 C1694 1.372 . S
C1695 C1696 1.400 . S
C1695 C1700 1.490 . S
C1696 H1686 0.930 . S
C1696 C1695 1.400 . S
C1696 C1699 1.386 . S
H1697 C1713 0.930 . S
H1698 C1714 0.931 . S
C1699 H1687 0.929 . S
C1699 C1693 1.390 . S
C1699 C1696 1.386 . S
C1700 C1695 1.490 . S
C1700 C1702 1.395 . S
C1700 C1703 1.403 . S
H1701 C1707 0.930 . S
C1702 H1688 0.930 . S
C1702 C1700 1.395 . S
C1702 C1705 1.403 . S
C1703 C1700 1.403 . S
C1703 C1704 1.524 . S
C1703 C1707 1.400 . S
C1704 H1689 0.960 . S
C1704 H1690 0.960 . S
C1704 H1691 0.960 . S
C1704 C1703 1.524 . S
C1705 C1702 1.403 . S
C1705 C1706 1.392 . S
C1705 C1709 1.495 . S
C1706 C1705 1.392 . S
C1706 C1707 1.385 . S
C1706 C1708 1.478 . S
C1707 H1701 0.930 . S
C1707 C1703 1.400 . S
C1707 C1706 1.385 . S
C1708 C1706 1.478 . S
C1708 C1710 1.381 . S
C1708 C1714 1.383 . S
C1709 C1705 1.495 . S
C1709 H1715 0.959 . S
C1709 H1716 0.961 . S
C1709 H1717 0.960 . S
C1710 C1708 1.381 . S
C1710 C1711 1.394 1_556 S
C1710 H1718 0.930 . S
C1711 C1710 1.394 1_554 S
C1711 C1712 1.383 . S
C1711 H1719 0.929 . S
C1712 C1711 1.383 . S
C1712 C1713 1.377 1_554 S
C1713 H1697 0.930 . S
C1713 C1712 1.377 1_556 S
C1713 C1714 1.379 . S
C1714 H1698 0.931 . S
C1714 C1708 1.383 . S
C1714 C1713 1.379 . S
H1715 C1709 0.959 . S
H1716 C1709 0.961 . S
H1717 C1709 0.960 . S
H1718 C1710 0.930 . S
H1719 C1711 0.929 . S
H1720 C1728 0.929 . S
H1721 C1730 0.930 . S
H1722 C1732 0.930 . S
H1723 C1735 0.929 . S
H1724 C1738 0.930 . S
H1725 C1740 0.960 . S
H1726 C1740 0.960 . S
H1727 C1740 0.960 . S
C1728 H1720 0.929 . S
C1728 C1729 1.377 . S
C1728 C1730 1.384 . S
C1729 C1728 1.377 . S
C1729 C1735 1.390 . S
C1730 H1721 0.930 . S
C1730 C1728 1.384 . S
C1730 C1731 1.372 . S
C1731 C1730 1.372 . S
C1731 C1732 1.400 . S
C1731 C1736 1.490 . S
C1732 H1722 0.930 . S
C1732 C1731 1.400 . S
C1732 C1735 1.386 . S
H1733 C1749 0.930 . S
H1734 C1750 0.931 1_455 S
C1735 H1723 0.929 . S
C1735 C1729 1.390 . S
C1735 C1732 1.386 . S
C1736 C1731 1.490 . S
C1736 C1738 1.395 . S
C1736 C1739 1.403 . S
H1737 C1743 0.930 . S
C1738 H1724 0.930 . S
C1738 C1736 1.395 . S
C1738 C1741 1.403 1_455 S
C1739 C1736 1.403 . S
C1739 C1740 1.524 . S
C1739 C1743 1.400 . S
C1740 H1725 0.960 . S
C1740 H1726 0.960 . S
C1740 H1727 0.960 . S
C1740 C1739 1.524 . S
C1741 C1738 1.403 1_655 S
C1741 C1742 1.392 . S
C1741 C1745 1.495 . S
C1742 C1741 1.392 . S
C1742 C1743 1.385 1_655 S
C1742 C1744 1.478 . S
C1743 H1737 0.930 . S
C1743 C1739 1.400 . S
C1743 C1742 1.385 1_455 S
C1744 C1742 1.478 . S
C1744 C1746 1.381 . S
C1744 C1750 1.383 . S
C1745 C1741 1.495 . S
C1745 H1751 0.959 . S
C1745 H1752 0.961 . S
C1745 H1753 0.960 . S
C1746 C1744 1.381 . S
C1746 C1747 1.394 . S
C1746 H1754 0.930 . S
C1747 C1746 1.394 . S
C1747 C1748 1.383 . S
C1747 H1755 0.929 . S
C1748 C1747 1.383 . S
C1748 C1749 1.377 . S
C1749 H1733 0.930 . S
C1749 C1748 1.377 . S
C1749 C1750 1.379 . S
C1750 H1734 0.931 1_655 S
C1750 C1744 1.383 . S
C1750 C1749 1.379 . S
H1751 C1745 0.959 . S
H1752 C1745 0.961 . S
H1753 C1745 0.960 . S
H1754 C1746 0.930 . S
H1755 C1747 0.929 . S
H1756 C1764 0.929 . S
H1757 C1766 0.930 . S
H1758 C1768 0.930 . S
H1759 C1771 0.929 . S
H1760 C1774 0.930 . S
H1761 C1776 0.960 . S
H1762 C1776 0.960 . S
H1763 C1776 0.960 . S
C1764 H1756 0.929 . S
C1764 C1765 1.377 . S
C1764 C1766 1.384 . S
C1765 C1764 1.377 . S
C1765 C1771 1.390 . S
C1766 H1757 0.930 . S
C1766 C1764 1.384 . S
C1766 C1767 1.372 . S
C1767 C1766 1.372 . S
C1767 C1768 1.400 . S
C1767 C1772 1.490 . S
C1768 H1758 0.930 . S
C1768 C1767 1.400 . S
C1768 C1771 1.386 . S
H1769 C1785 0.930 . S
H1770 C1786 0.931 . S
C1771 H1759 0.929 . S
C1771 C1765 1.390 . S
C1771 C1768 1.386 . S
C1772 C1767 1.490 . S
C1772 C1774 1.395 . S
C1772 C1775 1.403 . S
H1773 C1779 0.930 . S
C1774 H1760 0.930 . S
C1774 C1772 1.395 . S
C1774 C1777 1.403 . S
C1775 C1772 1.403 . S
C1775 C1776 1.524 . S
C1775 C1779 1.400 . S
C1776 H1761 0.960 . S
C1776 H1762 0.960 . S
C1776 H1763 0.960 . S
C1776 C1775 1.524 . S
C1777 C1774 1.403 . S
C1777 C1778 1.392 . S
C1777 C1781 1.495 . S
C1778 C1777 1.392 . S
C1778 C1779 1.385 . S
C1778 C1780 1.478 . S
C1779 H1773 0.930 . S
C1779 C1775 1.400 . S
C1779 C1778 1.385 . S
C1780 C1778 1.478 . S
C1780 C1782 1.381 . S
C1780 C1786 1.383 . S
C1781 C1777 1.495 . S
C1781 H1787 0.959 . S
C1781 H1788 0.961 . S
C1781 H1789 0.960 . S
C1782 C1780 1.381 . S
C1782 C1783 1.394 . S
C1782 H1790 0.930 . S
C1783 C1782 1.394 . S
C1783 C1784 1.383 . S
C1783 H1791 0.929 . S
C1784 C1783 1.383 . S
C1784 C1785 1.377 . S
C1785 H1769 0.930 . S
C1785 C1784 1.377 . S
C1785 C1786 1.379 . S
C1786 H1770 0.931 . S
C1786 C1780 1.383 . S
C1786 C1785 1.379 . S
H1787 C1781 0.959 . S
H1788 C1781 0.961 . S
H1789 C1781 0.960 . S
H1790 C1782 0.930 . S
H1791 C1783 0.929 . S
H1792 C1800 0.929 . S
H1793 C1802 0.930 1_455 S
H1794 C1804 0.930 . S
H1795 C1807 0.929 . S
H1796 C1810 0.930 . S
H1797 C1812 0.960 . S
H1798 C1812 0.960 . S
H1799 C1812 0.960 . S
C1800 H1792 0.929 . S
C1800 C1801 1.377 . S
C1800 C1802 1.384 . S
C1801 C1800 1.377 . S
C1801 C1807 1.390 . S
C1802 H1793 0.930 1_655 S
C1802 C1800 1.384 . S
C1802 C1803 1.372 . S
C1803 C1802 1.372 . S
C1803 C1804 1.400 . S
C1803 C1808 1.490 1_655 S
C1804 H1794 0.930 . S
C1804 C1803 1.400 . S
C1804 C1807 1.386 . S
H1805 C1821 0.930 . S
H1806 C1822 0.931 . S
C1807 H1795 0.929 . S
C1807 C1801 1.390 . S
C1807 C1804 1.386 . S
C1808 C1803 1.490 1_455 S
C1808 C1810 1.395 . S
C1808 C1811 1.403 1_455 S
H1809 C1815 0.930 . S
C1810 H1796 0.930 . S
C1810 C1808 1.395 . S
C1810 C1813 1.403 . S
C1811 C1808 1.403 1_655 S
C1811 C1812 1.524 . S
C1811 C1815 1.400 1_655 S
C1812 H1797 0.960 . S
C1812 H1798 0.960 . S
C1812 H1799 0.960 . S
C1812 C1811 1.524 . S
C1813 C1810 1.403 . S
C1813 C1814 1.392 . S
C1813 C1817 1.495 . S
C1814 C1813 1.392 . S
C1814 C1815 1.385 . S
C1814 C1816 1.478 . S
C1815 H1809 0.930 . S
C1815 C1811 1.400 1_455 S
C1815 C1814 1.385 . S
C1816 C1814 1.478 . S
C1816 C1818 1.381 . S
C1816 C1822 1.383 . S
C1817 C1813 1.495 . S
C1817 H1823 0.959 . S
C1817 H1824 0.961 . S
C1817 H1825 0.960 . S
C1818 C1816 1.381 . S
C1818 C1819 1.394 . S
C1818 H1826 0.930 . S
C1819 C1818 1.394 . S
C1819 C1820 1.383 . S
C1819 H1827 0.929 . S
C1820 C1819 1.383 . S
C1820 C1821 1.377 . S
C1821 H1805 0.930 . S
C1821 C1820 1.377 . S
C1821 C1822 1.379 . S
C1822 H1806 0.931 . S
C1822 C1816 1.383 . S
C1822 C1821 1.379 . S
H1823 C1817 0.959 . S
H1824 C1817 0.961 . S
H1825 C1817 0.960 . S
H1826 C1818 0.930 . S
H1827 C1819 0.929 . S
H1828 C1836 0.929 . S
H1829 C1838 0.930 . S
H1830 C1840 0.930 . S
H1831 C1843 0.929 . S
H1832 C1846 0.930 . S
H1833 C1848 0.960 . S
H1834 C1848 0.960 . S
H1835 C1848 0.960 . S
C1836 H1828 0.929 . S
C1836 C1837 1.377 . S
C1836 C1838 1.384 . S
C1837 C1836 1.377 . S
C1837 C1843 1.390 . S
C1838 H1829 0.930 . S
C1838 C1836 1.384 . S
C1838 C1839 1.372 . S
C1839 C1838 1.372 . S
C1839 C1840 1.400 . S
C1839 C1844 1.490 . S
C1840 H1830 0.930 . S
C1840 C1839 1.400 . S
C1840 C1843 1.386 . S
H1841 C1857 0.930 . S
H1842 C1858 0.931 . S
C1843 H1831 0.929 . S
C1843 C1837 1.390 . S
C1843 C1840 1.386 . S
C1844 C1839 1.490 . S
C1844 C1846 1.395 . S
C1844 C1847 1.403 . S
H1845 C1851 0.930 . S
C1846 H1832 0.930 . S
C1846 C1844 1.395 . S
C1846 C1849 1.403 . S
C1847 C1844 1.403 . S
C1847 C1848 1.524 . S
C1847 C1851 1.400 . S
C1848 H1833 0.960 . S
C1848 H1834 0.960 . S
C1848 H1835 0.960 . S
C1848 C1847 1.524 . S
C1849 C1846 1.403 . S
C1849 C1850 1.392 . S
C1849 C1853 1.495 . S
C1850 C1849 1.392 . S
C1850 C1851 1.385 . S
C1850 C1852 1.478 . S
C1851 H1845 0.930 . S
C1851 C1847 1.400 . S
C1851 C1850 1.385 . S
C1852 C1850 1.478 . S
C1852 C1854 1.381 . S
C1852 C1858 1.383 . S
C1853 C1849 1.495 . S
C1853 H1859 0.959 . S
C1853 H1860 0.961 . S
C1853 H1861 0.960 . S
C1854 C1852 1.381 . S
C1854 C1855 1.394 . S
C1854 H1862 0.930 . S
C1855 C1854 1.394 . S
C1855 C1856 1.383 . S
C1855 H1863 0.929 . S
C1856 C1855 1.383 . S
C1856 C1857 1.377 . S
C1857 H1841 0.930 . S
C1857 C1856 1.377 . S
C1857 C1858 1.379 . S
C1858 H1842 0.931 . S
C1858 C1852 1.383 . S
C1858 C1857 1.379 . S
H1859 C1853 0.959 . S
H1860 C1853 0.961 . S
H1861 C1853 0.960 . S
H1862 C1854 0.930 . S
H1863 C1855 0.929 . S
H1864 C1872 0.929 . S
H1865 C1874 0.930 . S
H1866 C1876 0.930 . S
H1867 C1879 0.929 . S
H1868 C1882 0.930 . S
H1869 C1884 0.960 . S
H1870 C1884 0.960 . S
H1871 C1884 0.960 . S
C1872 H1864 0.929 . S
C1872 C1873 1.377 . S
C1872 C1874 1.384 . S
C1873 C1872 1.377 . S
C1873 C1879 1.390 . S
C1874 H1865 0.930 . S
C1874 C1872 1.384 . S
C1874 C1875 1.372 . S
C1875 C1874 1.372 . S
C1875 C1876 1.400 . S
C1875 C1880 1.490 . S
C1876 H1866 0.930 . S
C1876 C1875 1.400 . S
C1876 C1879 1.386 . S
H1877 C1893 0.930 . S
H1878 C1894 0.931 . S
C1879 H1867 0.929 . S
C1879 C1873 1.390 . S
C1879 C1876 1.386 . S
C1880 C1875 1.490 . S
C1880 C1882 1.395 . S
C1880 C1883 1.403 . S
H1881 C1887 0.930 . S
C1882 H1868 0.930 . S
C1882 C1880 1.395 . S
C1882 C1885 1.403 . S
C1883 C1880 1.403 . S
C1883 C1884 1.524 . S
C1883 C1887 1.400 . S
C1884 H1869 0.960 . S
C1884 H1870 0.960 . S
C1884 H1871 0.960 . S
C1884 C1883 1.524 . S
C1885 C1882 1.403 . S
C1885 C1886 1.392 . S
C1885 C1889 1.495 . S
C1886 C1885 1.392 . S
C1886 C1887 1.385 . S
C1886 C1888 1.478 . S
C1887 H1881 0.930 . S
C1887 C1883 1.400 . S
C1887 C1886 1.385 . S
C1888 C1886 1.478 . S
C1888 C1890 1.381 . S
C1888 C1894 1.383 . S
C1889 C1885 1.495 . S
C1889 H1895 0.959 . S
C1889 H1896 0.961 . S
C1889 H1897 0.960 . S
C1890 C1888 1.381 . S
C1890 C1891 1.394 . S
C1890 H1898 0.930 . S
C1891 C1890 1.394 . S
C1891 C1892 1.383 . S
C1891 H1899 0.929 . S
C1892 C1891 1.383 . S
C1892 C1893 1.377 . S
C1893 H1877 0.930 . S
C1893 C1892 1.377 . S
C1893 C1894 1.379 . S
C1894 H1878 0.931 . S
C1894 C1888 1.383 . S
C1894 C1893 1.379 . S
H1895 C1889 0.959 . S
H1896 C1889 0.961 . S
H1897 C1889 0.960 . S
H1898 C1890 0.930 . S
H1899 C1891 0.929 . S
H1900 C1908 0.929 . S
H1901 C1910 0.930 . S
H1902 C1912 0.930 . S
H1903 C1915 0.929 . S
H1904 C1918 0.930 . S
H1905 C1920 0.960 . S
H1906 C1920 0.960 . S
H1907 C1920 0.960 . S
C1908 H1900 0.929 . S
C1908 C1909 1.377 . S
C1908 C1910 1.384 1_556 S
C1909 C1908 1.377 . S
C1909 C1915 1.390 1_556 S
C1910 H1901 0.930 . S
C1910 C1908 1.384 1_554 S
C1910 C1911 1.372 . S
C1911 C1910 1.372 . S
C1911 C1912 1.400 . S
C1911 C1916 1.490 . S
C1912 H1902 0.930 . S
C1912 C1911 1.400 . S
C1912 C1915 1.386 . S
H1913 C1929 0.930 . S
H1914 C1930 0.931 . S
C1915 H1903 0.929 . S
C1915 C1909 1.390 1_554 S
C1915 C1912 1.386 . S
C1916 C1911 1.490 . S
C1916 C1918 1.395 . S
C1916 C1919 1.403 . S
H1917 C1923 0.930 . S
C1918 H1904 0.930 . S
C1918 C1916 1.395 . S
C1918 C1921 1.403 . S
C1919 C1916 1.403 . S
C1919 C1920 1.524 . S
C1919 C1923 1.400 . S
C1920 H1905 0.960 . S
C1920 H1906 0.960 . S
C1920 H1907 0.960 . S
C1920 C1919 1.524 . S
C1921 C1918 1.403 . S
C1921 C1922 1.392 . S
C1921 C1925 1.495 . S
C1922 C1921 1.392 . S
C1922 C1923 1.385 . S
C1922 C1924 1.478 . S
C1923 H1917 0.930 . S
C1923 C1919 1.400 . S
C1923 C1922 1.385 . S
C1924 C1922 1.478 . S
C1924 C1926 1.381 . S
C1924 C1930 1.383 . S
C1925 C1921 1.495 . S
C1925 H1931 0.959 . S
C1925 H1932 0.961 . S
C1925 H1933 0.960 . S
C1926 C1924 1.381 . S
C1926 C1927 1.394 . S
C1926 H1934 0.930 . S
C1927 C1926 1.394 . S
C1927 C1928 1.383 . S
C1927 H1935 0.929 . S
C1928 C1927 1.383 . S
C1928 C1929 1.377 . S
C1929 H1913 0.930 . S
C1929 C1928 1.377 . S
C1929 C1930 1.379 . S
C1930 H1914 0.931 . S
C1930 C1924 1.383 . S
C1930 C1929 1.379 . S
H1931 C1925 0.959 . S
H1932 C1925 0.961 . S
H1933 C1925 0.960 . S
H1934 C1926 0.930 . S
H1935 C1927 0.929 . S
H1936 C1944 0.929 . S
H1937 C1946 0.930 1_655 S
H1938 C1948 0.930 . S
H1939 C1951 0.929 . S
H1940 C1954 0.930 . S
H1941 C1956 0.960 . S
H1942 C1956 0.960 . S
H1943 C1956 0.960 . S
C1944 H1936 0.929 . S
C1944 C1945 1.377 . S
C1944 C1946 1.384 . S
C1945 C1944 1.377 . S
C1945 C1951 1.390 . S
C1946 H1937 0.930 1_455 S
C1946 C1944 1.384 . S
C1946 C1947 1.372 . S
C1947 C1946 1.372 . S
C1947 C1948 1.400 . S
C1947 C1952 1.490 1_455 S
C1948 H1938 0.930 . S
C1948 C1947 1.400 . S
C1948 C1951 1.386 . S
H1949 C1965 0.930 . S
H1950 C1966 0.931 . S
C1951 H1939 0.929 . S
C1951 C1945 1.390 . S
C1951 C1948 1.386 . S
C1952 C1947 1.490 1_655 S
C1952 C1954 1.395 . S
C1952 C1955 1.403 1_655 S
H1953 C1959 0.930 . S
C1954 H1940 0.930 . S
C1954 C1952 1.395 . S
C1954 C1957 1.403 . S
C1955 C1952 1.403 1_455 S
C1955 C1956 1.524 . S
C1955 C1959 1.400 1_455 S
C1956 H1941 0.960 . S
C1956 H1942 0.960 . S
C1956 H1943 0.960 . S
C1956 C1955 1.524 . S
C1957 C1954 1.403 . S
C1957 C1958 1.392 . S
C1957 C1961 1.495 . S
C1958 C1957 1.392 . S
C1958 C1959 1.385 . S
C1958 C1960 1.478 . S
C1959 H1953 0.930 . S
C1959 C1955 1.400 1_655 S
C1959 C1958 1.385 . S
C1960 C1958 1.478 . S
C1960 C1962 1.381 . S
C1960 C1966 1.383 . S
C1961 C1957 1.495 . S
C1961 H1967 0.959 . S
C1961 H1968 0.961 . S
C1961 H1969 0.960 . S
C1962 C1960 1.381 . S
C1962 C1963 1.394 . S
C1962 H1970 0.930 . S
C1963 C1962 1.394 . S
C1963 C1964 1.383 . S
C1963 H1971 0.929 . S
C1964 C1963 1.383 . S
C1964 C1965 1.377 . S
C1965 H1949 0.930 . S
C1965 C1964 1.377 . S
C1965 C1966 1.379 . S
C1966 H1950 0.931 . S
C1966 C1960 1.383 . S
C1966 C1965 1.379 . S
H1967 C1961 0.959 . S
H1968 C1961 0.961 . S
H1969 C1961 0.960 . S
H1970 C1962 0.930 . S
H1971 C1963 0.929 . S
H1972 C1980 0.929 . S
H1973 C1982 0.930 . S
H1974 C1984 0.930 . S
H1975 C1987 0.929 . S
H1976 C1990 0.930 . S
H1977 C1992 0.960 . S
H1978 C1992 0.960 . S
H1979 C1992 0.960 . S
C1980 H1972 0.929 . S
C1980 C1981 1.377 . S
C1980 C1982 1.384 . S
C1981 C1980 1.377 . S
C1981 C1987 1.390 . S
C1982 H1973 0.930 . S
C1982 C1980 1.384 . S
C1982 C1983 1.372 . S
C1983 C1982 1.372 . S
C1983 C1984 1.400 . S
C1983 C1988 1.490 . S
C1984 H1974 0.930 . S
C1984 C1983 1.400 . S
C1984 C1987 1.386 . S
H1985 C2001 0.930 . S
H1986 C2002 0.931 . S
C1987 H1975 0.929 . S
C1987 C1981 1.390 . S
C1987 C1984 1.386 . S
C1988 C1983 1.490 . S
C1988 C1990 1.395 . S
C1988 C1991 1.403 . S
H1989 C1995 0.930 . S
C1990 H1976 0.930 . S
C1990 C1988 1.395 . S
C1990 C1993 1.403 . S
C1991 C1988 1.403 . S
C1991 C1992 1.524 . S
C1991 C1995 1.400 . S
C1992 H1977 0.960 . S
C1992 H1978 0.960 . S
C1992 H1979 0.960 . S
C1992 C1991 1.524 . S
C1993 C1990 1.403 . S
C1993 C1994 1.392 . S
C1993 C1997 1.495 . S
C1994 C1993 1.392 . S
C1994 C1995 1.385 . S
C1994 C1996 1.478 . S
C1995 H1989 0.930 . S
C1995 C1991 1.400 . S
C1995 C1994 1.385 . S
C1996 C1994 1.478 . S
C1996 C1998 1.381 . S
C1996 C2002 1.383 . S
C1997 C1993 1.495 . S
C1997 H2003 0.959 . S
C1997 H2004 0.961 . S
C1997 H2005 0.960 . S
C1998 C1996 1.381 . S
C1998 C1999 1.394 . S
C1998 H2006 0.930 . S
C1999 C1998 1.394 . S
C1999 C2000 1.383 . S
C1999 H2007 0.929 . S
C2000 C1999 1.383 . S
C2000 C2001 1.377 . S
C2001 H1985 0.930 . S
C2001 C2000 1.377 . S
C2001 C2002 1.379 . S
C2002 H1986 0.931 . S
C2002 C1996 1.383 . S
C2002 C2001 1.379 . S
H2003 C1997 0.959 . S
H2004 C1997 0.961 . S
H2005 C1997 0.960 . S
H2006 C1998 0.930 . S
H2007 C1999 0.929 . S
H2008 C2016 0.929 . S
H2009 C2018 0.930 . S
H2010 C2020 0.930 . S
H2011 C2023 0.929 . S
H2012 C2026 0.930 . S
H2013 C2028 0.960 . S
H2014 C2028 0.960 . S
H2015 C2028 0.960 . S
C2016 H2008 0.929 . S
C2016 C2017 1.377 . S
C2016 C2018 1.384 . S
C2017 C2016 1.377 . S
C2017 C2023 1.390 . S
C2018 H2009 0.930 . S
C2018 C2016 1.384 . S
C2018 C2019 1.372 . S
C2019 C2018 1.372 . S
C2019 C2020 1.400 . S
C2019 C2024 1.490 . S
C2020 H2010 0.930 . S
C2020 C2019 1.400 . S
C2020 C2023 1.386 . S
H2021 C2037 0.930 . S
H2022 C2038 0.931 . S
C2023 H2011 0.929 . S
C2023 C2017 1.390 . S
C2023 C2020 1.386 . S
C2024 C2019 1.490 . S
C2024 C2026 1.395 . S
C2024 C2027 1.403 . S
H2025 C2031 0.930 . S
C2026 H2012 0.930 . S
C2026 C2024 1.395 . S
C2026 C2029 1.403 . S
C2027 C2024 1.403 . S
C2027 C2028 1.524 . S
C2027 C2031 1.400 . S
C2028 H2013 0.960 . S
C2028 H2014 0.960 . S
C2028 H2015 0.960 . S
C2028 C2027 1.524 . S
C2029 C2026 1.403 . S
C2029 C2030 1.392 . S
C2029 C2033 1.495 . S
C2030 C2029 1.392 . S
C2030 C2031 1.385 . S
C2030 C2032 1.478 . S
C2031 H2025 0.930 . S
C2031 C2027 1.400 . S
C2031 C2030 1.385 . S
C2032 C2030 1.478 . S
C2032 C2034 1.381 . S
C2032 C2038 1.383 . S
C2033 C2029 1.495 . S
C2033 H2039 0.959 . S
C2033 H2040 0.961 . S
C2033 H2041 0.960 . S
C2034 C2032 1.381 . S
C2034 C2035 1.394 . S
C2034 H2042 0.930 . S
C2035 C2034 1.394 . S
C2035 C2036 1.383 . S
C2035 H2043 0.929 . S
C2036 C2035 1.383 . S
C2036 C2037 1.377 . S
C2037 H2021 0.930 . S
C2037 C2036 1.377 . S
C2037 C2038 1.379 . S
C2038 H2022 0.931 . S
C2038 C2032 1.383 . S
C2038 C2037 1.379 . S
H2039 C2033 0.959 . S
H2040 C2033 0.961 . S
H2041 C2033 0.960 . S
H2042 C2034 0.930 . S
H2043 C2035 0.929 . S
H2044 C2052 0.929 . S
H2045 C2054 0.930 . S
H2046 C2056 0.930 . S
H2047 C2059 0.929 . S
H2048 C2062 0.930 . S
H2049 C2064 0.960 . S
H2050 C2064 0.960 . S
H2051 C2064 0.960 . S
C2052 H2044 0.929 . S
C2052 C2053 1.377 1_556 S
C2052 C2054 1.384 . S
C2053 C2052 1.377 1_554 S
C2053 C2059 1.390 . S
C2054 H2045 0.930 . S
C2054 C2052 1.384 . S
C2054 C2055 1.372 . S
C2055 C2054 1.372 . S
C2055 C2056 1.400 . S
C2055 C2060 1.490 . S
C2056 H2046 0.930 . S
C2056 C2055 1.400 . S
C2056 C2059 1.386 1_556 S
H2057 C2073 0.930 . S
H2058 C2074 0.931 . S
C2059 H2047 0.929 . S
C2059 C2053 1.390 . S
C2059 C2056 1.386 1_554 S
C2060 C2055 1.490 . S
C2060 C2062 1.395 . S
C2060 C2063 1.403 . S
H2061 C2067 0.930 . S
C2062 H2048 0.930 . S
C2062 C2060 1.395 . S
C2062 C2065 1.403 . S
C2063 C2060 1.403 . S
C2063 C2064 1.524 . S
C2063 C2067 1.400 . S
C2064 H2049 0.960 . S
C2064 H2050 0.960 . S
C2064 H2051 0.960 . S
C2064 C2063 1.524 . S
C2065 C2062 1.403 . S
C2065 C2066 1.392 . S
C2065 C2069 1.495 . S
C2066 C2065 1.392 . S
C2066 C2067 1.385 . S
C2066 C2068 1.478 . S
C2067 H2061 0.930 . S
C2067 C2063 1.400 . S
C2067 C2066 1.385 . S
C2068 C2066 1.478 . S
C2068 C2070 1.381 . S
C2068 C2074 1.383 . S
C2069 C2065 1.495 . S
C2069 H2075 0.959 . S
C2069 H2076 0.961 . S
C2069 H2077 0.960 . S
C2070 C2068 1.381 . S
C2070 C2071 1.394 . S
C2070 H2078 0.930 . S
C2071 C2070 1.394 . S
C2071 C2072 1.383 . S
C2071 H2079 0.929 . S
C2072 C2071 1.383 . S
C2072 C2073 1.377 . S
C2073 H2057 0.930 . S
C2073 C2072 1.377 . S
C2073 C2074 1.379 . S
C2074 H2058 0.931 . S
C2074 C2068 1.383 . S
C2074 C2073 1.379 . S
H2075 C2069 0.959 . S
H2076 C2069 0.961 . S
H2077 C2069 0.960 . S
H2078 C2070 0.930 . S
H2079 C2071 0.929 . S
H2080 C2088 0.929 . S
H2081 C2090 0.930 . S
H2082 C2092 0.930 . S
H2083 C2095 0.929 . S
H2084 C2098 0.930 . S
H2085 C2100 0.960 . S
H2086 C2100 0.960 . S
H2087 C2100 0.960 . S
C2088 H2080 0.929 . S
C2088 C2089 1.377 . S
C2088 C2090 1.384 . S
C2089 C2088 1.377 . S
C2089 C2095 1.390 . S
C2090 H2081 0.930 . S
C2090 C2088 1.384 . S
C2090 C2091 1.372 . S
C2091 C2090 1.372 . S
C2091 C2092 1.400 . S
C2091 C2096 1.490 . S
C2092 H2082 0.930 . S
C2092 C2091 1.400 . S
C2092 C2095 1.386 . S
H2093 C2109 0.930 . S
H2094 C2110 0.931 . S
C2095 H2083 0.929 . S
C2095 C2089 1.390 . S
C2095 C2092 1.386 . S
C2096 C2091 1.490 . S
C2096 C2098 1.395 . S
C2096 C2099 1.403 . S
H2097 C2103 0.930 . S
C2098 H2084 0.930 . S
C2098 C2096 1.395 . S
C2098 C2101 1.403 . S
C2099 C2096 1.403 . S
C2099 C2100 1.524 . S
C2099 C2103 1.400 . S
C2100 H2085 0.960 . S
C2100 H2086 0.960 . S
C2100 H2087 0.960 . S
C2100 C2099 1.524 . S
C2101 C2098 1.403 . S
C2101 C2102 1.392 . S
C2101 C2105 1.495 . S
C2102 C2101 1.392 . S
C2102 C2103 1.385 . S
C2102 C2104 1.478 . S
C2103 H2097 0.930 . S
C2103 C2099 1.400 . S
C2103 C2102 1.385 . S
C2104 C2102 1.478 . S
C2104 C2106 1.381 . S
C2104 C2110 1.383 . S
C2105 C2101 1.495 . S
C2105 H2111 0.959 . S
C2105 H2112 0.961 . S
C2105 H2113 0.960 . S
C2106 C2104 1.381 . S
C2106 C2107 1.394 . S
C2106 H2114 0.930 . S
C2107 C2106 1.394 . S
C2107 C2108 1.383 . S
C2107 H2115 0.929 . S
C2108 C2107 1.383 . S
C2108 C2109 1.377 . S
C2109 H2093 0.930 . S
C2109 C2108 1.377 . S
C2109 C2110 1.379 . S
C2110 H2094 0.931 . S
C2110 C2104 1.383 . S
C2110 C2109 1.379 . S
H2111 C2105 0.959 . S
H2112 C2105 0.961 . S
H2113 C2105 0.960 . S
H2114 C2106 0.930 . S
H2115 C2107 0.929 . S
H2116 C2124 0.929 . S
H2117 C2126 0.930 . S
H2118 C2128 0.930 . S
H2119 C2131 0.929 . S
H2120 C2134 0.930 . S
H2121 C2136 0.960 . S
H2122 C2136 0.960 . S
H2123 C2136 0.960 . S
C2124 H2116 0.929 . S
C2124 C2125 1.377 . S
C2124 C2126 1.384 . S
C2125 C2124 1.377 . S
C2125 C2131 1.390 . S
C2126 H2117 0.930 . S
C2126 C2124 1.384 . S
C2126 C2127 1.372 . S
C2127 C2126 1.372 . S
C2127 C2128 1.400 . S
C2127 C2132 1.490 . S
C2128 H2118 0.930 . S
C2128 C2127 1.400 . S
C2128 C2131 1.386 . S
H2129 C2145 0.930 . S
H2130 C2146 0.931 . S
C2131 H2119 0.929 . S
C2131 C2125 1.390 . S
C2131 C2128 1.386 . S
C2132 C2127 1.490 . S
C2132 C2134 1.395 . S
C2132 C2135 1.403 . S
H2133 C2139 0.930 . S
C2134 H2120 0.930 . S
C2134 C2132 1.395 . S
C2134 C2137 1.403 . S
C2135 C2132 1.403 . S
C2135 C2136 1.524 . S
C2135 C2139 1.400 . S
C2136 H2121 0.960 . S
C2136 H2122 0.960 . S
C2136 H2123 0.960 . S
C2136 C2135 1.524 . S
C2137 C2134 1.403 . S
C2137 C2138 1.392 . S
C2137 C2141 1.495 . S
C2138 C2137 1.392 . S
C2138 C2139 1.385 . S
C2138 C2140 1.478 . S
C2139 H2133 0.930 . S
C2139 C2135 1.400 . S
C2139 C2138 1.385 . S
C2140 C2138 1.478 . S
C2140 C2142 1.381 . S
C2140 C2146 1.383 . S
C2141 C2137 1.495 . S
C2141 H2147 0.959 . S
C2141 H2148 0.961 . S
C2141 H2149 0.960 . S
C2142 C2140 1.381 . S
C2142 C2143 1.394 . S
C2142 H2150 0.930 . S
C2143 C2142 1.394 . S
C2143 C2144 1.383 . S
C2143 H2151 0.929 . S
C2144 C2143 1.383 . S
C2144 C2145 1.377 . S
C2145 H2129 0.930 . S
C2145 C2144 1.377 . S
C2145 C2146 1.379 . S
C2146 H2130 0.931 . S
C2146 C2140 1.383 . S
C2146 C2145 1.379 . S
H2147 C2141 0.959 . S
H2148 C2141 0.961 . S
H2149 C2141 0.960 . S
H2150 C2142 0.930 . S
H2151 C2143 0.929 . S
H2152 C2160 0.929 . S
H2153 C2162 0.930 . S
H2154 C2164 0.930 . S
H2155 C2167 0.929 . S
H2156 C2170 0.930 . S
H2157 C2172 0.960 . S
H2158 C2172 0.960 . S
H2159 C2172 0.960 . S
C2160 H2152 0.929 . S
C2160 C2161 1.377 . S
C2160 C2162 1.384 . S
C2161 C2160 1.377 . S
C2161 C2167 1.390 . S
C2162 H2153 0.930 . S
C2162 C2160 1.384 . S
C2162 C2163 1.372 . S
C2163 C2162 1.372 . S
C2163 C2164 1.400 . S
C2163 C2168 1.490 . S
C2164 H2154 0.930 . S
C2164 C2163 1.400 . S
C2164 C2167 1.386 . S
H2165 C2181 0.930 . S
H2166 C2182 0.931 . S
C2167 H2155 0.929 . S
C2167 C2161 1.390 . S
C2167 C2164 1.386 . S
C2168 C2163 1.490 . S
C2168 C2170 1.395 . S
C2168 C2171 1.403 . S
H2169 C2175 0.930 . S
C2170 H2156 0.930 . S
C2170 C2168 1.395 . S
C2170 C2173 1.403 . S
C2171 C2168 1.403 . S
C2171 C2172 1.524 . S
C2171 C2175 1.400 . S
C2172 H2157 0.960 . S
C2172 H2158 0.960 . S
C2172 H2159 0.960 . S
C2172 C2171 1.524 . S
C2173 C2170 1.403 . S
C2173 C2174 1.392 . S
C2173 C2177 1.495 . S
C2174 C2173 1.392 . S
C2174 C2175 1.385 . S
C2174 C2176 1.478 . S
C2175 H2169 0.930 . S
C2175 C2171 1.400 . S
C2175 C2174 1.385 . S
C2176 C2174 1.478 . S
C2176 C2178 1.381 . S
C2176 C2182 1.383 . S
C2177 C2173 1.495 . S
C2177 H2183 0.959 . S
C2177 H2184 0.961 . S
C2177 H2185 0.960 . S
C2178 C2176 1.381 . S
C2178 C2179 1.394 . S
C2178 H2186 0.930 . S
C2179 C2178 1.394 . S
C2179 C2180 1.383 . S
C2179 H2187 0.929 . S
C2180 C2179 1.383 . S
C2180 C2181 1.377 . S
C2181 H2165 0.930 . S
C2181 C2180 1.377 . S
C2181 C2182 1.379 . S
C2182 H2166 0.931 . S
C2182 C2176 1.383 . S
C2182 C2181 1.379 . S
H2183 C2177 0.959 . S
H2184 C2177 0.961 . S
H2185 C2177 0.960 . S
H2186 C2178 0.930 . S
H2187 C2179 0.929 . S
H2188 C2196 0.929 . S
H2189 C2198 0.930 . S
H2190 C2200 0.930 . S
H2191 C2203 0.929 . S
H2192 C2206 0.930 . S
H2193 C2208 0.960 . S
H2194 C2208 0.960 . S
H2195 C2208 0.960 . S
C2196 H2188 0.929 . S
C2196 C2197 1.377 . S
C2196 C2198 1.384 . S
C2197 C2196 1.377 . S
C2197 C2203 1.390 . S
C2198 H2189 0.930 . S
C2198 C2196 1.384 . S
C2198 C2199 1.372 . S
C2199 C2198 1.372 . S
C2199 C2200 1.400 . S
C2199 C2204 1.490 . S
C2200 H2190 0.930 . S
C2200 C2199 1.400 . S
C2200 C2203 1.386 . S
H2201 C2217 0.930 . S
H2202 C2218 0.931 . S
C2203 H2191 0.929 . S
C2203 C2197 1.390 . S
C2203 C2200 1.386 . S
C2204 C2199 1.490 . S
C2204 C2206 1.395 1_455 S
C2204 C2207 1.403 1_554 S
H2205 C2211 0.930 . S
C2206 H2192 0.930 . S
C2206 C2204 1.395 1_655 S
C2206 C2209 1.403 . S
C2207 C2204 1.403 1_556 S
C2207 C2208 1.524 . S
C2207 C2211 1.400 . S
C2208 H2193 0.960 . S
C2208 H2194 0.960 . S
C2208 H2195 0.960 . S
C2208 C2207 1.524 . S
C2209 C2206 1.403 . S
C2209 C2210 1.392 1_554 S
C2209 C2213 1.495 . S
C2210 C2209 1.392 1_556 S
C2210 C2211 1.385 1_655 S
C2210 C2212 1.478 . S
C2211 H2205 0.930 . S
C2211 C2207 1.400 . S
C2211 C2210 1.385 1_455 S
C2212 C2210 1.478 . S
C2212 C2214 1.381 . S
C2212 C2218 1.383 . S
C2213 C2209 1.495 . S
C2213 H2219 0.959 . S
C2213 H2220 0.961 . S
C2213 H2221 0.960 . S
C2214 C2212 1.381 . S
C2214 C2215 1.394 . S
C2214 H2222 0.930 . S
C2215 C2214 1.394 . S
C2215 C2216 1.383 . S
C2215 H2223 0.929 . S
C2216 C2215 1.383 . S
C2216 C2217 1.377 . S
C2217 H2201 0.930 . S
C2217 C2216 1.377 . S
C2217 C2218 1.379 . S
C2218 H2202 0.931 . S
C2218 C2212 1.383 . S
C2218 C2217 1.379 . S
H2219 C2213 0.959 . S
H2220 C2213 0.961 . S
H2221 C2213 0.960 . S
H2222 C2214 0.930 . S
H2223 C2215 0.929 . S
H2224 C2232 0.929 . S
H2225 C2234 0.930 . S
H2226 C2236 0.930 . S
H2227 C2239 0.929 . S
H2228 C2242 0.930 . S
H2229 C2244 0.960 . S
H2230 C2244 0.960 . S
H2231 C2244 0.960 . S
C2232 H2224 0.929 . S
C2232 C2233 1.377 . S
C2232 C2234 1.384 . S
C2233 C2232 1.377 . S
C2233 C2239 1.390 . S
C2234 H2225 0.930 . S
C2234 C2232 1.384 . S
C2234 C2235 1.372 . S
C2235 C2234 1.372 . S
C2235 C2236 1.400 . S
C2235 C2240 1.490 . S
C2236 H2226 0.930 . S
C2236 C2235 1.400 . S
C2236 C2239 1.386 . S
H2237 C2253 0.930 . S
H2238 C2254 0.931 . S
C2239 H2227 0.929 . S
C2239 C2233 1.390 . S
C2239 C2236 1.386 . S
C2240 C2235 1.490 . S
C2240 C2242 1.395 . S
C2240 C2243 1.403 . S
H2241 C2247 0.930 . S
C2242 H2228 0.930 . S
C2242 C2240 1.395 . S
C2242 C2245 1.403 . S
C2243 C2240 1.403 . S
C2243 C2244 1.524 . S
C2243 C2247 1.400 . S
C2244 H2229 0.960 . S
C2244 H2230 0.960 . S
C2244 H2231 0.960 . S
C2244 C2243 1.524 . S
C2245 C2242 1.403 . S
C2245 C2246 1.392 . S
C2245 C2249 1.495 . S
C2246 C2245 1.392 . S
C2246 C2247 1.385 . S
C2246 C2248 1.478 . S
C2247 H2241 0.930 . S
C2247 C2243 1.400 . S
C2247 C2246 1.385 . S
C2248 C2246 1.478 . S
C2248 C2250 1.381 . S
C2248 C2254 1.383 . S
C2249 C2245 1.495 . S
C2249 H2255 0.959 . S
C2249 H2256 0.961 . S
C2249 H2257 0.960 . S
C2250 C2248 1.381 . S
C2250 C2251 1.394 . S
C2250 H2258 0.930 . S
C2251 C2250 1.394 . S
C2251 C2252 1.383 . S
C2251 H2259 0.929 . S
C2252 C2251 1.383 . S
C2252 C2253 1.377 . S
C2253 H2237 0.930 . S
C2253 C2252 1.377 . S
C2253 C2254 1.379 . S
C2254 H2238 0.931 . S
C2254 C2248 1.383 . S
C2254 C2253 1.379 . S
H2255 C2249 0.959 . S
H2256 C2249 0.961 . S
H2257 C2249 0.960 . S
H2258 C2250 0.930 . S
H2259 C2251 0.929 . S
H2260 C2268 0.929 . S
H2261 C2270 0.930 . S
H2262 C2272 0.930 . S
H2263 C2275 0.929 . S
H2264 C2278 0.930 . S
H2265 C2280 0.960 . S
H2266 C2280 0.960 . S
H2267 C2280 0.960 . S
C2268 H2260 0.929 . S
C2268 C2269 1.377 . S
C2268 C2270 1.384 . S
C2269 C2268 1.377 . S
C2269 C2275 1.390 . S
C2270 H2261 0.930 . S
C2270 C2268 1.384 . S
C2270 C2271 1.372 . S
C2271 C2270 1.372 . S
C2271 C2272 1.400 . S
C2271 C2276 1.490 . S
C2272 H2262 0.930 . S
C2272 C2271 1.400 . S
C2272 C2275 1.386 . S
H2273 C2289 0.930 . S
H2274 C2290 0.931 . S
C2275 H2263 0.929 . S
C2275 C2269 1.390 . S
C2275 C2272 1.386 . S
C2276 C2271 1.490 . S
C2276 C2278 1.395 . S
C2276 C2279 1.403 . S
H2277 C2283 0.930 . S
C2278 H2264 0.930 . S
C2278 C2276 1.395 . S
C2278 C2281 1.403 . S
C2279 C2276 1.403 . S
C2279 C2280 1.524 . S
C2279 C2283 1.400 . S
C2280 H2265 0.960 . S
C2280 H2266 0.960 . S
C2280 H2267 0.960 . S
C2280 C2279 1.524 . S
C2281 C2278 1.403 . S
C2281 C2282 1.392 . S
C2281 C2285 1.495 . S
C2282 C2281 1.392 . S
C2282 C2283 1.385 . S
C2282 C2284 1.478 . S
C2283 H2277 0.930 . S
C2283 C2279 1.400 . S
C2283 C2282 1.385 . S
C2284 C2282 1.478 . S
C2284 C2286 1.381 . S
C2284 C2290 1.383 . S
C2285 C2281 1.495 . S
C2285 H2291 0.959 . S
C2285 H2292 0.961 . S
C2285 H2293 0.960 . S
C2286 C2284 1.381 . S
C2286 C2287 1.394 . S
C2286 H2294 0.930 . S
C2287 C2286 1.394 . S
C2287 C2288 1.383 . S
C2287 H2295 0.929 . S
C2288 C2287 1.383 . S
C2288 C2289 1.377 . S
C2289 H2273 0.930 . S
C2289 C2288 1.377 . S
C2289 C2290 1.379 . S
C2290 H2274 0.931 . S
C2290 C2284 1.383 . S
C2290 C2289 1.379 . S
H2291 C2285 0.959 . S
H2292 C2285 0.961 . S
H2293 C2285 0.960 . S
H2294 C2286 0.930 . S
H2295 C2287 0.929 . S
H2296 C2304 0.959 . S
H2297 C2306 0.930 1_565 S
H2298 C2308 0.930 . S
H2299 C2311 0.929 . S
H2300 C2314 0.930 . S
H2301 C2316 0.960 . S
H2302 C2316 0.960 . S
H2303 C2316 0.960 . S
C2304 H2296 0.959 . S
C2304 C2305 1.377 . S
C2304 C2306 1.384 . S
C2305 C2304 1.377 . S
C2305 C2311 1.390 . S
C2306 H2297 0.930 1_545 S
C2306 C2304 1.384 . S
C2306 C2307 1.372 . S
C2307 C2306 1.372 . S
C2307 C2308 1.400 . S
C2307 C2312 1.490 . S
C2308 H2298 0.930 . S
C2308 C2307 1.400 . S
C2308 C2311 1.386 . S
H2309 C2325 0.930 . S
H2310 C2326 0.931 1_545 S
C2311 H2299 0.929 . S
C2311 C2305 1.390 . S
C2311 C2308 1.386 . S
C2312 C2307 1.490 . S
C2312 C2314 1.395 1_545 S
C2312 C2315 1.403 1_455 S
H2313 C2319 0.930 . S
C2314 H2300 0.930 . S
C2314 C2312 1.395 1_565 S
C2314 C2317 1.403 1_556 S
C2315 C2312 1.403 1_655 S
C2315 C2316 1.524 . S
C2315 C2319 1.400 1_556 S
C2316 H2301 0.960 . S
C2316 H2302 0.960 . S
C2316 H2303 0.960 . S
C2316 C2315 1.524 . S
C2317 C2314 1.403 1_554 S
C2317 C2318 1.392 1_455 S
C2317 C2321 1.495 . S
C2318 C2317 1.392 1_655 S
C2318 C2319 1.385 1_565 S
C2318 C2320 1.478 . S
C2319 H2313 0.930 . S
C2319 C2315 1.400 1_554 S
C2319 C2318 1.385 1_545 S
C2320 C2318 1.478 . S
C2320 C2322 1.381 . S
C2320 C2326 1.383 . S
C2321 C2317 1.495 . S
C2321 H2327 0.959 . S
C2321 H2328 0.961 . S
C2321 H2329 0.960 . S
C2322 C2320 1.381 . S
C2322 C2323 1.394 . S
C2322 H2330 0.930 . S
C2323 C2322 1.394 . S
C2323 C2324 1.383 . S
C2323 H2331 0.929 . S
C2324 C2323 1.383 . S
C2324 C2325 1.377 . S
C2325 H2309 0.930 . S
C2325 C2324 1.377 . S
C2325 C2326 1.379 . S
C2326 H2310 0.931 1_565 S
C2326 C2320 1.383 . S
C2326 C2325 1.379 . S
H2327 C2321 0.959 . S
H2328 C2321 0.961 . S
H2329 C2321 0.960 . S
H2330 C2322 0.930 . S
H2331 C2323 0.929 . S
H2332 C2340 0.929 . S
H2333 C2342 0.930 . S
H2334 C2344 0.930 . S
H2335 C2347 0.929 . S
H2336 C2350 0.930 . S
H2337 C2352 0.960 . S
H2338 C2352 0.960 . S
H2339 C2352 0.960 . S
C2340 H2332 0.929 . S
C2340 C2341 1.377 . S
C2340 C2342 1.384 . S
C2341 C2340 1.377 . S
C2341 C2347 1.390 . S
C2342 H2333 0.930 . S
C2342 C2340 1.384 . S
C2342 C2343 1.372 . S
C2343 C2342 1.372 . S
C2343 C2344 1.400 . S
C2343 C2348 1.490 . S
C2344 H2334 0.930 . S
C2344 C2343 1.400 . S
C2344 C2347 1.386 . S
H2345 C2361 0.930 . S
H2346 C2362 0.931 . S
C2347 H2335 0.929 . S
C2347 C2341 1.390 . S
C2347 C2344 1.386 . S
C2348 C2343 1.490 . S
C2348 C2350 1.395 1_545 S
C2348 C2351 1.403 . S
H2349 C2355 0.930 . S
C2350 H2336 0.930 . S
C2350 C2348 1.395 1_565 S
C2350 C2353 1.403 . S
C2351 C2348 1.403 . S
C2351 C2352 1.524 . S
C2351 C2355 1.400 . S
C2352 H2337 0.960 . S
C2352 H2338 0.960 . S
C2352 H2339 0.960 . S
C2352 C2351 1.524 . S
C2353 C2350 1.403 . S
C2353 C2354 1.392 . S
C2353 C2357 1.495 . S
C2354 C2353 1.392 . S
C2354 C2355 1.385 1_565 S
C2354 C2356 1.478 . S
C2355 H2349 0.930 . S
C2355 C2351 1.400 . S
C2355 C2354 1.385 1_545 S
C2356 C2354 1.478 . S
C2356 C2358 1.381 . S
C2356 C2362 1.383 . S
C2357 C2353 1.495 . S
C2357 H2363 0.959 . S
C2357 H2364 0.961 . S
C2357 H2365 0.960 . S
C2358 C2356 1.381 . S
C2358 C2359 1.394 . S
C2358 H2366 0.930 . S
C2359 C2358 1.394 . S
C2359 C2360 1.383 . S
C2359 H2367 0.929 . S
C2360 C2359 1.383 . S
C2360 C2361 1.377 . S
C2361 H2345 0.930 . S
C2361 C2360 1.377 . S
C2361 C2362 1.379 . S
C2362 H2346 0.931 . S
C2362 C2356 1.383 . S
C2362 C2361 1.379 . S
H2363 C2357 0.959 . S
H2364 C2357 0.961 . S
H2365 C2357 0.960 . S
H2366 C2358 0.930 . S
H2367 C2359 0.929 . S
C649 C13 2.986 . S
C668 C413 2.973 . S
C685 C53 2.987 . S
C704 C453 2.989 . S
C721 C93 2.986 . S
C740 C333 2.990 . S
C757 C133 2.988 . S
C776 C373 2.988 . S
C793 C184 2.988 . S
C812 C584 2.990 . S
C829 C224 2.985 . S
C848 C624 2.979 . S
C865 C264 2.985 . S
C884 C504 2.974 . S
C901 C304 2.987 . S
C920 C544 2.989 . S
C937 C362 3.668 . S
C956 C24 3.664 1_556 S
C973 C402 3.668 . S
C992 C64 3.655 . S
C1009 C442 3.668 . S
C1028 C104 3.663 . S
C1045 C322 3.672 . S
C1064 C144 3.660 . S
C1081 C173 3.667 1_554 S
C1100 C543 3.655 . S
C1117 C583 3.669 . S
C1136 C213 3.652 . S
C1153 C623 3.670 . S
C1172 C253 3.651 . S
C1189 C503 3.668 . S
C1208 C293 3.668 . S
C1225 C42 3.672 . S
C1244 C344 3.652 . S
C1261 C384 3.666 . S
C1280 C82 3.674 . S
C1297 C424 3.663 1_556 S
C1316 C122 3.666 . S
C1333 C464 3.666 . S
C1352 C2 3.671 . S
C1369 C493 3.663 . S
C1388 C223 3.672 . S
C1405 C263 3.669 . S
C1424 C533 3.652 . S
C1441 C303 3.668 . S
C1460 C573 3.663 1_554 S
C1477 C613 3.666 . S
C1496 C183 3.654 . S
C1513 C26 0.334 . S
C1532 C602 0.274 . S
C1549 C66 0.334 . S
C1568 C162 0.275 . S
C1585 C522 0.220 . S
C1604 C106 0.445 . S
C1621 C242 0.211 . S
C1640 C146 0.401 . S
C1657 C177 0.353 . S
C1676 C463 0.240 . S
C1693 C217 0.336 . S
C1712 C23 0.166 . S
C1729 C383 0.211 . S
C1748 C257 0.283 . S
C1765 C103 0.242 . S
C1784 C297 0.423 . S
C1801 C346 0.337 . S
C1820 C282 0.239 . S
C1837 C386 0.335 . S
C1856 C482 0.255 . S
C1873 C202 0.224 . S
C1892 C426 0.297 . S
C1909 C562 0.217 . S
C1928 C466 0.441 . S
C1945 C497 0.370 . S
C1964 C143 0.311 . S
C1981 C537 0.369 . S
C2000 C343 0.318 . S
C2017 C577 0.363 . S
C2036 C63 0.280 . S
C2053 C423 0.242 . S
C2072 C617 0.419 . S
C2089 C17 1.234 . S
C2108 C506 1.241 . S
C2125 C57 1.227 . S
C2144 C226 1.198 . S
C2161 C97 1.232 . S
C2180 C586 1.254 . S
C2197 C306 1.234 . S
C2216 C137 1.241 . S
C2233 C186 1.226 . S
C2252 C337 1.197 . S
C2269 C417 1.232 . S
C2288 C266 1.215 . S
C2305 C377 1.227 . S
C2324 C546 1.198 . S
C2341 C626 1.225 . S
C2360 C457 1.195 . S
