# Generated by pormake.
# Topology ung, (4)-cn, num edge types: 1
# Building blocks:
#     Node 0, Type 0, BuildingBlock: CEKHIL_clean_sbu_0, # of connection points: 4
#     Node 1, Type 0, BuildingBlock: CEKHIL_clean_sbu_0, # of connection points: 4
#     Node 2, Type 0, BuildingBlock: CEKHIL_clean_sbu_0, # of connection points: 4
#     Node 3, Type 0, BuildingBlock: CEKHIL_clean_sbu_0, # of connection points: 4
#     Node 4, Type 0, BuildingBlock: CEKHIL_clean_sbu_0, # of connection points: 4
#     Node 5, Type 0, BuildingBlock: CEKHIL_clean_sbu_0, # of connection points: 4
#     Node 6, Type 0, BuildingBlock: CEKHIL_clean_sbu_0, # of connection points: 4
#     Node 7, Type 0, BuildingBlock: CEKHIL_clean_sbu_0, # of connection points: 4
#     Node 8, Type 0, BuildingBlock: CEKHIL_clean_sbu_0, # of connection points: 4
#     Node 9, Type 0, BuildingBlock: CEKHIL_clean_sbu_0, # of connection points: 4
#     Node 10, Type 0, BuildingBlock: CEKHIL_clean_sbu_0, # of connection points: 4
#     Node 11, Type 0, BuildingBlock: CEKHIL_clean_sbu_0, # of connection points: 4
#     Node 12, Type 0, BuildingBlock: CEKHIL_clean_sbu_0, # of connection points: 4
#     Node 13, Type 0, BuildingBlock: CEKHIL_clean_sbu_0, # of connection points: 4
#     Node 14, Type 0, BuildingBlock: CEKHIL_clean_sbu_0, # of connection points: 4
#     Node 15, Type 0, BuildingBlock: CEKHIL_clean_sbu_0, # of connection points: 4
#     Node 16, Type 0, BuildingBlock: CEKHIL_clean_sbu_0, # of connection points: 4
#     Node 17, Type 0, BuildingBlock: CEKHIL_clean_sbu_0, # of connection points: 4
#     Edge 18, Type (0, 0), BuildingBlock: MIFKUJ_clean_linker_0, # of connection points: 2
#     Edge 19, Type (0, 0), BuildingBlock: MIFKUJ_clean_linker_0, # of connection points: 2
#     Edge 20, Type (0, 0), BuildingBlock: MIFKUJ_clean_linker_0, # of connection points: 2
#     Edge 21, Type (0, 0), BuildingBlock: MIFKUJ_clean_linker_0, # of connection points: 2
#     Edge 22, Type (0, 0), BuildingBlock: MIFKUJ_clean_linker_0, # of connection points: 2
#     Edge 23, Type (0, 0), BuildingBlock: MIFKUJ_clean_linker_0, # of connection points: 2
#     Edge 24, Type (0, 0), BuildingBlock: MIFKUJ_clean_linker_0, # of connection points: 2
#     Edge 25, Type (0, 0), BuildingBlock: MIFKUJ_clean_linker_0, # of connection points: 2
#     Edge 26, Type (0, 0), BuildingBlock: MIFKUJ_clean_linker_0, # of connection points: 2
#     Edge 27, Type (0, 0), BuildingBlock: MIFKUJ_clean_linker_0, # of connection points: 2
#     Edge 28, Type (0, 0), BuildingBlock: MIFKUJ_clean_linker_0, # of connection points: 2
#     Edge 29, Type (0, 0), BuildingBlock: MIFKUJ_clean_linker_0, # of connection points: 2
#     Edge 30, Type (0, 0), BuildingBlock: MIFKUJ_clean_linker_0, # of connection points: 2
#     Edge 31, Type (0, 0), BuildingBlock: MIFKUJ_clean_linker_0, # of connection points: 2
#     Edge 32, Type (0, 0), BuildingBlock: MIFKUJ_clean_linker_0, # of connection points: 2
#     Edge 33, Type (0, 0), BuildingBlock: MIFKUJ_clean_linker_0, # of connection points: 2
#     Edge 34, Type (0, 0), BuildingBlock: MIFKUJ_clean_linker_0, # of connection points: 2
#     Edge 35, Type (0, 0), BuildingBlock: MIFKUJ_clean_linker_0, # of connection points: 2
#     Edge 36, Type (0, 0), BuildingBlock: MIFKUJ_clean_linker_0, # of connection points: 2
#     Edge 37, Type (0, 0), BuildingBlock: MIFKUJ_clean_linker_0, # of connection points: 2
#     Edge 38, Type (0, 0), BuildingBlock: MIFKUJ_clean_linker_0, # of connection points: 2
#     Edge 39, Type (0, 0), BuildingBlock: MIFKUJ_clean_linker_0, # of connection points: 2
#     Edge 40, Type (0, 0), BuildingBlock: MIFKUJ_clean_linker_0, # of connection points: 2
#     Edge 41, Type (0, 0), BuildingBlock: MIFKUJ_clean_linker_0, # of connection points: 2
#     Edge 42, Type (0, 0), BuildingBlock: MIFKUJ_clean_linker_0, # of connection points: 2
#     Edge 43, Type (0, 0), BuildingBlock: MIFKUJ_clean_linker_0, # of connection points: 2
#     Edge 44, Type (0, 0), BuildingBlock: MIFKUJ_clean_linker_0, # of connection points: 2
#     Edge 45, Type (0, 0), BuildingBlock: MIFKUJ_clean_linker_0, # of connection points: 2
#     Edge 46, Type (0, 0), BuildingBlock: MIFKUJ_clean_linker_0, # of connection points: 2
#     Edge 47, Type (0, 0), BuildingBlock: MIFKUJ_clean_linker_0, # of connection points: 2
#     Edge 48, Type (0, 0), BuildingBlock: MIFKUJ_clean_linker_0, # of connection points: 2
#     Edge 49, Type (0, 0), BuildingBlock: MIFKUJ_clean_linker_0, # of connection points: 2
#     Edge 50, Type (0, 0), BuildingBlock: MIFKUJ_clean_linker_0, # of connection points: 2
#     Edge 51, Type (0, 0), BuildingBlock: MIFKUJ_clean_linker_0, # of connection points: 2
#     Edge 52, Type (0, 0), BuildingBlock: MIFKUJ_clean_linker_0, # of connection points: 2
#     Edge 53, Type (0, 0), BuildingBlock: MIFKUJ_clean_linker_0, # of connection points: 2
# Relax obj value: 0.073
# Max RMSD: 0.188
# Mean RMSD: 0.184
data_MOF--net-ung--node1-CEKHIL_clean_sbu_0--edge1-MIFKUJ_clean_linker_0
_symmetry_space_group_name_H-M    P1
_symmetry_Int_Tables_number       1
_symmetry_cell_setting            triclinic
loop_
_symmetry_equiv_pos_as_xyz
'x, y, z'
_cell_length_a     94.082004
_cell_length_b     94.028348
_cell_length_c     28.736021
_cell_angle_alpha  90.88125
_cell_angle_beta   90.964997
_cell_angle_gamma 119.94358
loop_
_atom_site_label
_atom_site_type_symbol
_atom_site_fract_x
_atom_site_fract_y
_atom_site_fract_z
_atom_type_partial_charge
Co0 Co 0.06454 0.61876 0.27325 0.0
O1 O 0.07016 0.60547 0.3096 0.0
O2 O 0.04486 0.59809 0.2845 0.0
C3 C 0.0788 0.64178 0.31643 0.0
O4 O 0.05457 0.62987 0.23526 0.0
Co5 Co 0.09246 0.64808 0.22268 0.0
O6 O 0.07514 0.65381 0.21046 0.0
C7 C 0.07962 0.61456 0.18487 0.0
C8 C 0.0547 0.59457 0.30747 0.0
C9 C 0.05989 0.64369 0.21506 0.0
O10 O 0.06845 0.60935 0.21537 0.0
O11 O 0.09121 0.62952 0.18359 0.0
O12 O 0.06422 0.63071 0.32837 0.0
O13 O 0.08495 0.63782 0.28204 0.0
Co14 Co 0.49811 0.48789 0.24059 0.0
O15 O 0.51642 0.49375 0.20193 0.0
O16 O 0.50509 0.50918 0.21336 0.0
C17 C 0.48331 0.4623 0.21115 0.0
O18 O 0.47839 0.48477 0.27746 0.0
Co19 Co 0.48937 0.46026 0.31072 0.0
O20 O 0.46812 0.45992 0.30945 0.0
C21 C 0.51637 0.49357 0.33404 0.0
C22 C 0.516 0.50691 0.19226 0.0
C23 C 0.46696 0.47236 0.29816 0.0
O24 O 0.51314 0.49866 0.29626 0.0
O25 O 0.509 0.47844 0.34501 0.0
O26 O 0.48318 0.47441 0.19057 0.0
O27 O 0.49351 0.46614 0.24616 0.0
Co28 Co 0.63058 0.05637 0.26553 0.0
O29 O 0.61096 0.0442 0.29958 0.0
O30 O 0.62397 0.07117 0.2929 0.0
C31 C 0.64351 0.04389 0.29653 0.0
O32 O 0.65158 0.07285 0.23372 0.0
Co33 Co 0.64007 0.03761 0.19502 0.0
O34 O 0.66165 0.05813 0.1996 0.0
C35 C 0.61441 0.0454 0.16857 0.0
C36 C 0.61191 0.05806 0.31036 0.0
C37 C 0.66307 0.07177 0.21302 0.0
O38 O 0.61725 0.05357 0.20719 0.0
O39 O 0.62141 0.03711 0.15817 0.0
O40 O 0.64368 0.0562 0.31809 0.0
O41 O 0.63438 0.0386 0.25896 0.0
Co42 Co 0.06644 0.4971 0.72117 0.0
O43 O 0.05966 0.50969 0.6857 0.0
O44 O 0.08544 0.51817 0.70848 0.0
C45 C 0.0525 0.4738 0.67878 0.0
O46 O 0.07748 0.48673 0.75795 0.0
Co47 Co 0.03925 0.46775 0.77405 0.0
O48 O 0.05762 0.46414 0.79173 0.0
C49 C 0.05128 0.50129 0.80948 0.0
C50 C 0.07495 0.52107 0.68663 0.0
C51 C 0.07262 0.47393 0.78286 0.0
O52 O 0.06265 0.50637 0.77959 0.0
O53 O 0.0397 0.48634 0.81084 0.0
O54 O 0.06669 0.48531 0.66559 0.0
O55 O 0.04642 0.47751 0.71388 0.0
Co56 Co 0.62973 0.62706 0.77278 0.0
O57 O 0.61253 0.62002 0.81615 0.0
O58 O 0.62616 0.60697 0.80196 0.0
C59 C 0.64273 0.65334 0.79777 0.0
O60 O 0.64884 0.6318 0.73056 0.0
Co61 Co 0.63248 0.6524 0.70042 0.0
O62 O 0.65446 0.65479 0.69288 0.0
C63 C 0.60798 0.6175 0.68456 0.0
C64 C 0.61498 0.60801 0.82559 0.0
C65 C 0.65803 0.64387 0.70448 0.0
O66 O 0.61348 0.61393 0.7212 0.0
O67 O 0.61314 0.63225 0.67201 0.0
O68 O 0.64536 0.6427 0.81867 0.0
O69 O 0.63132 0.64757 0.76571 0.0
Co70 Co 0.49859 0.06453 0.73673 0.0
O71 O 0.51693 0.07493 0.69703 0.0
O72 O 0.50185 0.04806 0.7044 0.0
C73 C 0.48712 0.07939 0.71334 0.0
O74 O 0.47829 0.04969 0.77389 0.0
Co75 Co 0.49482 0.0855 0.81372 0.0
O76 O 0.47252 0.06616 0.81736 0.0
C77 C 0.51858 0.07419 0.82827 0.0
C78 C 0.51403 0.06042 0.68461 0.0
C79 C 0.46885 0.052 0.80119 0.0
O80 O 0.51346 0.06579 0.78982 0.0
O81 O 0.51356 0.08385 0.84253 0.0
O82 O 0.4845 0.06634 0.68998 0.0
O83 O 0.49767 0.0839 0.74769 0.0
Co84 Co 0.71969 0.94344 0.57691 0.0
O85 O 0.70978 0.92176 0.54974 0.0
O86 O 0.73652 0.93824 0.56226 0.0
C87 C 0.7057 0.95228 0.53363 0.0
O88 O 0.73436 0.96661 0.60271 0.0
Co89 Co 0.69909 0.95487 0.63211 0.0
O90 O 0.71837 0.97695 0.62368 0.0
C91 C 0.7115 0.93537 0.67889 0.0
C92 C 0.7246 0.92432 0.54581 0.0
C93 C 0.73241 0.97863 0.61592 0.0
O94 O 0.71806 0.93466 0.64075 0.0
O95 O 0.70291 0.94242 0.68273 0.0
O96 O 0.71843 0.95216 0.51745 0.0
O97 O 0.70071 0.94538 0.57337 0.0
Co98 Co 0.16109 0.82882 0.5497 0.0
O99 O 0.17833 0.83972 0.50713 0.0
O100 O 0.16176 0.84885 0.5293 0.0
C101 C 0.15095 0.80388 0.51578 0.0
O102 O 0.14166 0.81971 0.59329 0.0
Co103 Co 0.16292 0.80242 0.60962 0.0
O104 O 0.14063 0.79763 0.62634 0.0
C105 C 0.18484 0.83737 0.63242 0.0
C106 C 0.17401 0.85074 0.50436 0.0
C107 C 0.13467 0.807 0.61908 0.0
O108 O 0.17682 0.84108 0.60312 0.0
O109 O 0.18229 0.82276 0.63696 0.0
O110 O 0.14652 0.81402 0.50027 0.0
O111 O 0.16241 0.80969 0.54762 0.0
Co112 Co 0.2963 0.39369 0.56989 0.0
O113 O 0.28544 0.40431 0.54254 0.0
O114 O 0.27489 0.37737 0.54484 0.0
C115 C 0.32043 0.40941 0.53533 0.0
O116 O 0.30416 0.37835 0.5939 0.0
Co117 Co 0.32617 0.41285 0.63666 0.0
O118 O 0.32955 0.39397 0.62493 0.0
C119 C 0.29287 0.40008 0.67239 0.0
C120 C 0.27343 0.38976 0.53148 0.0
C121 C 0.31772 0.38011 0.61086 0.0
O122 O 0.28674 0.39378 0.63193 0.0
O123 O 0.30832 0.40858 0.6814 0.0
O124 O 0.30852 0.39673 0.51374 0.0
O125 O 0.31705 0.41303 0.57582 0.0
Co126 Co 0.74163 0.83632 0.05272 0.0
O127 O 0.73649 0.85114 0.02229 0.0
O128 O 0.76161 0.85718 0.04532 0.0
C129 C 0.72674 0.81477 0.00414 0.0
O130 O 0.75109 0.8236 0.08469 0.0
Co131 Co 0.7131 0.80519 0.09635 0.0
O132 O 0.73002 0.79849 0.09981 0.0
C133 C 0.72697 0.83734 0.14538 0.0
C134 C 0.75202 0.86171 0.02541 0.0
C135 C 0.74534 0.80875 0.09808 0.0
O136 O 0.73811 0.84386 0.11488 0.0
O137 O 0.71512 0.82248 0.14229 0.0
O138 O 0.74144 0.82594 0.99336 0.0
O139 O 0.72099 0.81788 0.04096 0.0
Co140 Co 0.29886 0.94366 0.10576 0.0
O141 O 0.2787 0.93346 0.13782 0.0
O142 O 0.29355 0.92163 0.1234 0.0
C143 C 0.30981 0.96743 0.14692 0.0
O144 O 0.32066 0.9515 0.07337 0.0
Co145 Co 0.30639 0.97475 0.04991 0.0
O146 O 0.32857 0.97714 0.05 0.0
C147 C 0.28237 0.9419 0.01233 0.0
C148 C 0.28066 0.92089 0.14203 0.0
C149 C 0.33136 0.96536 0.0567 0.0
O150 O 0.2865 0.93526 0.04466 0.0
O151 O 0.28773 0.95736 0.01066 0.0
O152 O 0.31081 0.95512 0.1629 0.0
O153 O 0.30096 0.96443 0.10935 0.0
Co154 Co 0.16091 0.38549 0.06204 0.0
O155 O 0.1806 0.39701 0.02795 0.0
O156 O 0.16795 0.37034 0.04021 0.0
C157 C 0.14814 0.39715 0.02505 0.0
O158 O 0.13998 0.36944 0.09491 0.0
Co159 Co 0.14967 0.40465 0.12515 0.0
O160 O 0.12852 0.38374 0.12287 0.0
C161 C 0.17547 0.39796 0.15973 0.0
C162 C 0.1799 0.38304 0.02095 0.0
C163 C 0.12801 0.37021 0.11357 0.0
O164 O 0.17404 0.38989 0.12176 0.0
O165 O 0.16739 0.40539 0.16716 0.0
O166 O 0.14809 0.38439 0.00704 0.0
O167 O 0.15672 0.40312 0.06332 0.0
Co168 Co 0.39795 0.28828 0.91455 0.0
O169 O 0.40722 0.28172 0.96329 0.0
O170 O 0.38109 0.26777 0.9402 0.0
C171 C 0.40944 0.31435 0.94061 0.0
O172 O 0.38442 0.29257 0.866 0.0
Co173 Co 0.4219 0.31429 0.84752 0.0
O174 O 0.40231 0.31624 0.83304 0.0
C175 C 0.41351 0.27993 0.83391 0.0
C176 C 0.39271 0.26937 0.96896 0.0
C177 C 0.38768 0.30495 0.84042 0.0
O178 O 0.40343 0.2759 0.86737 0.0
O179 O 0.42275 0.29478 0.82189 0.0
O180 O 0.39573 0.30313 0.95724 0.0
O181 O 0.41653 0.30927 0.91205 0.0
Co182 Co 0.83041 0.14969 0.9034 0.0
O183 O 0.84797 0.15655 0.86132 0.0
O184 O 0.83483 0.17014 0.87451 0.0
C185 C 0.8171 0.12346 0.87653 0.0
O186 O 0.81118 0.14537 0.9447 0.0
Co187 Co 0.82685 0.12402 0.97504 0.0
O188 O 0.80629 0.12391 0.98901 0.0
C189 C 0.85185 0.15858 0.9921 0.0
C190 C 0.84614 0.16895 0.85201 0.0
C191 C 0.80278 0.13466 0.9753 0.0
O192 O 0.84643 0.16236 0.95578 0.0
O193 O 0.84654 0.14374 0.00403 0.0
O194 O 0.81502 0.13458 0.85649 0.0
O195 O 0.82818 0.12878 0.9096 0.0
Co196 Co 0.96032 0.7185 0.93157 0.0
O197 O 0.94074 0.70896 0.96654 0.0
O198 O 0.95639 0.73565 0.95555 0.0
C199 C 0.97102 0.70445 0.96579 0.0
O200 O 0.98169 0.7324 0.89747 0.0
Co201 Co 0.96601 0.69575 0.86538 0.0
O202 O 0.98862 0.71473 0.8659 0.0
C203 C 0.94321 0.70697 0.83593 0.0
C204 C 0.9435 0.72373 0.97423 0.0
C205 C 0.99191 0.72928 0.87667 0.0
O206 O 0.94708 0.71591 0.87336 0.0
O207 O 0.94874 0.69726 0.82697 0.0
O208 O 0.97285 0.71787 0.98482 0.0
O209 O 0.96153 0.69909 0.92889 0.0
Co210 Co 0.38558 0.15119 0.3952 0.0
O211 O 0.37338 0.15834 0.35831 0.0
O212 O 0.40017 0.17303 0.37267 0.0
C213 C 0.37449 0.12621 0.361 0.0
O214 O 0.40204 0.14697 0.43092 0.0
Co215 Co 0.36653 0.12139 0.45935 0.0
O216 O 0.38757 0.12139 0.45809 0.0
C217 C 0.37383 0.15443 0.49102 0.0
C218 C 0.38716 0.17156 0.35121 0.0
C219 C 0.40117 0.1342 0.44973 0.0
O220 O 0.3815 0.16056 0.45336 0.0
O221 O 0.36637 0.13905 0.49908 0.0
O222 O 0.38659 0.13873 0.34199 0.0
O223 O 0.36852 0.12946 0.39715 0.0
Co224 Co 0.96237 0.28818 0.43389 0.0
O225 O 0.94494 0.28237 0.47593 0.0
O226 O 0.9562 0.26707 0.46131 0.0
C227 C 0.9777 0.31417 0.46109 0.0
O228 O 0.98114 0.29132 0.39229 0.0
Co229 Co 0.96763 0.31511 0.36356 0.0
O230 O 0.98685 0.31296 0.34741 0.0
C231 C 0.9409 0.28137 0.34579 0.0
C232 C 0.94546 0.26916 0.48405 0.0
C233 C 0.98962 0.3017 0.36109 0.0
O234 O 0.94605 0.2768 0.38105 0.0
O235 O 0.94697 0.29643 0.33501 0.0
O236 O 0.97838 0.30229 0.48147 0.0
O237 O 0.96658 0.30972 0.42843 0.0
Co238 Co 0.829 0.72036 0.39723 0.0
O239 O 0.84831 0.72962 0.36108 0.0
O240 O 0.83286 0.70305 0.3742 0.0
C241 C 0.81794 0.73399 0.36248 0.0
O242 O 0.80784 0.7067 0.43244 0.0
Co243 Co 0.82371 0.74361 0.46224 0.0
O244 O 0.8012 0.72454 0.46425 0.0
C245 C 0.84744 0.73351 0.49056 0.0
C246 C 0.84557 0.71482 0.35444 0.0
C247 C 0.79776 0.70994 0.45359 0.0
O248 O 0.84281 0.72368 0.45486 0.0
O249 O 0.84204 0.74337 0.49863 0.0
O250 O 0.816 0.7204 0.34435 0.0
O251 O 0.82774 0.73974 0.39869 0.0
H252 H 0.03296 0.49552 0.88768 0.0
H253 H 0.03738 0.51528 0.95062 0.0
H254 H 0.07667 0.55377 0.87528 0.0
H255 H 0.07241 0.5343 0.81244 0.0
H256 H 0.08581 0.55184 0.96489 0.0
H257 H 0.04185 0.55382 0.88396 0.0
H258 H 0.01433 0.54249 0.84714 0.0
H259 H 0.9922 0.52261 0.97742 0.0
H260 H 0.01961 0.53364 0.01491 0.0
H261 H 0.09771 0.6206 0.10608 0.0
H262 H 0.09296 0.60114 0.04197 0.0
H263 H 0.05353 0.56245 0.11641 0.0
H264 H 0.0581 0.58162 0.1804 0.0
H265 H 0.04445 0.56463 0.02689 0.0
H266 H 0.08834 0.56239 0.10762 0.0
H267 H 0.11584 0.57367 0.14458 0.0
H268 H 0.13807 0.59395 0.01471 0.0
H269 H 0.11068 0.58297 0.9771 0.0
C270 C 0.04238 0.50823 0.88423 0.0
C271 C 0.05245 0.51328 0.84531 0.0
C272 C 0.04488 0.51949 0.92015 0.0
C273 C 0.0574 0.53592 0.91749 0.0
C274 C 0.06704 0.5411 0.878 0.0
C275 C 0.06455 0.52992 0.84215 0.0
C276 C 0.06115 0.54757 0.95694 0.0
C277 C 0.07686 0.55483 0.9781 0.0
C278 C 0.04929 0.55109 0.9746 0.0
C279 C 0.03279 0.5444 0.95213 0.0
C280 C 0.03112 0.5469 0.90467 0.0
C281 C 0.01554 0.54056 0.88369 0.0
C282 C 0.00152 0.53179 0.90989 0.0
C283 C 0.00306 0.52938 0.95715 0.0
C284 C 0.01862 0.53569 0.97829 0.0
C285 C 0.08817 0.60791 0.10907 0.0
C286 C 0.0782 0.60272 0.14817 0.0
C287 C 0.08548 0.59683 0.07245 0.0
C288 C 0.07285 0.58043 0.07457 0.0
C289 C 0.06325 0.57511 0.1141 0.0
C290 C 0.06593 0.58611 0.15065 0.0
C291 C 0.06912 0.56889 0.03483 0.0
C292 C 0.05341 0.56165 0.01363 0.0
C293 C 0.08097 0.56537 0.01714 0.0
C294 C 0.09746 0.57201 0.03967 0.0
C295 C 0.09909 0.56939 0.08704 0.0
C296 C 0.11466 0.5757 0.10809 0.0
C297 C 0.12869 0.58457 0.08204 0.0
C298 C 0.12718 0.58711 0.03486 0.0
C299 C 0.11164 0.58083 0.01365 0.0
H300 H 0.14073 0.58944 0.0984 0.0
H301 H 0.98947 0.5269 0.89359 0.0
H302 H 0.61128 0.5777 0.84598 0.0
H303 H 0.59516 0.55978 0.90931 0.0
H304 H 0.58223 0.59581 0.95353 0.0
H305 H 0.59795 0.61346 0.89116 0.0
H306 H 0.59194 0.58396 0.02704 0.0
H307 H 0.5554 0.56378 0.89197 0.0
H308 H 0.54701 0.55257 0.81174 0.0
H309 H 0.55074 0.51037 0.84762 0.0
H310 H 0.5594 0.52145 0.92796 0.0
H311 H 0.52204 0.53778 0.16888 0.0
H312 H 0.53977 0.55485 0.10666 0.0
H313 H 0.55148 0.51719 0.07155 0.0
H314 H 0.53419 0.50034 0.13318 0.0
H315 H 0.54318 0.52915 0.99385 0.0
H316 H 0.57873 0.54889 0.12979 0.0
H317 H 0.58674 0.55997 0.21023 0.0
H318 H 0.58471 0.60296 0.17275 0.0
H319 H 0.57643 0.592 0.09218 0.0
C320 C 0.60501 0.58174 0.86936 0.0
C321 C 0.6058 0.59692 0.86342 0.0
C322 C 0.59581 0.57153 0.90537 0.0
C323 C 0.5875 0.57651 0.93601 0.0
C324 C 0.58858 0.59176 0.93043 0.0
C325 C 0.59752 0.60179 0.89446 0.0
C326 C 0.57734 0.5659 0.97361 0.0
C327 C 0.58122 0.57201 0.01978 0.0
C328 C 0.56349 0.55025 0.96409 0.0
C329 C 0.55826 0.54355 0.91582 0.0
C330 C 0.55459 0.55219 0.88264 0.0
C331 C 0.54975 0.54584 0.83717 0.0
C332 C 0.5484 0.5308 0.82454 0.0
C333 C 0.55183 0.52204 0.85742 0.0
C334 C 0.5567 0.52835 0.90294 0.0
C335 C 0.52846 0.53323 0.14796 0.0
C336 C 0.52679 0.51779 0.15613 0.0
C337 C 0.53855 0.54294 0.11251 0.0
C338 C 0.54691 0.53722 0.08459 0.0
C339 C 0.54511 0.52179 0.09257 0.0
C340 C 0.53527 0.51223 0.12811 0.0
C341 C 0.55771 0.54728 0.04717 0.0
C342 C 0.55394 0.54106 0.0011 0.0
C343 C 0.57166 0.56284 0.05676 0.0
C344 C 0.57678 0.56954 0.10507 0.0
C345 C 0.57985 0.56064 0.13878 0.0
C346 C 0.58447 0.5669 0.18439 0.0
C347 C 0.58619 0.58213 0.19664 0.0
C348 C 0.58335 0.59115 0.16324 0.0
C349 C 0.5787 0.58492 0.11758 0.0
H350 H 0.58976 0.58696 0.23197 0.0
H351 H 0.54465 0.5259 0.78933 0.0
H352 H 0.60387 0.06764 0.16744 0.0
H353 H 0.58727 0.07099 0.10768 0.0
H354 H 0.5829 0.02917 0.03061 0.0
H355 H 0.60014 0.02609 0.08982 0.0
H356 H 0.58918 0.05274 0.9736 0.0
H357 H 0.55019 0.02747 0.09244 0.0
H358 H 0.53932 0.02342 0.1716 0.0
H359 H 0.54366 0.07109 0.17147 0.0
H360 H 0.55477 0.07553 0.09253 0.0
H361 H 0.52693 0.05022 0.82054 0.0
H362 H 0.54306 0.04422 0.87589 0.0
H363 H 0.55204 0.08627 0.9609 0.0
H364 H 0.53557 0.09213 0.90636 0.0
H365 H 0.54203 0.06009 0.0123 0.0
H366 H 0.58216 0.08519 0.89256 0.0
H367 H 0.5927 0.08831 0.8131 0.0
H368 H 0.58516 0.03936 0.81434 0.0
H369 H 0.57437 0.03586 0.89354 0.0
C370 C 0.59926 0.05901 0.13808 0.0
C371 C 0.60329 0.04653 0.13358 0.0
C372 C 0.58969 0.06092 0.10392 0.0
C373 C 0.58357 0.05017 0.06494 0.0
C374 C 0.58745 0.0376 0.06044 0.0
C375 C 0.59726 0.03581 0.09438 0.0
C376 C 0.57368 0.05254 0.02825 0.0
C377 C 0.57869 0.05406 0.98195 0.0
C378 C 0.56013 0.05451 0.03915 0.0
C379 C 0.55342 0.05187 0.08665 0.0
C380 C 0.54894 0.03714 0.10941 0.0
C381 C 0.54271 0.03476 0.15422 0.0
C382 C 0.54082 0.04699 0.17655 0.0
C383 C 0.54513 0.06162 0.15412 0.0
C384 C 0.55137 0.06407 0.10931 0.0
C385 C 0.53251 0.05834 0.85067 0.0
C386 C 0.52989 0.07164 0.85904 0.0
C387 C 0.54178 0.0549 0.88226 0.0
C388 C 0.54885 0.06484 0.92246 0.0
C389 C 0.54665 0.07839 0.93019 0.0
C390 C 0.53726 0.08176 0.89888 0.0
C391 C 0.55776 0.06066 0.95787 0.0
C392 C 0.55249 0.0587 0.00394 0.0
C393 C 0.57094 0.05813 0.94661 0.0
C394 C 0.57732 0.06021 0.89883 0.0
C395 C 0.58262 0.07504 0.87573 0.0
C396 C 0.58866 0.07688 0.83077 0.0
C397 C 0.58958 0.06404 0.80869 0.0
C398 C 0.58443 0.0493 0.83148 0.0
C399 C 0.57837 0.04738 0.87641 0.0
H400 H 0.59434 0.06552 0.77401 0.0
H401 H 0.53595 0.0451 0.21118 0.0
H402 H 0.58438 0.03206 0.34214 0.0
H403 H 0.56715 0.03182 0.40458 0.0
H404 H 0.59599 0.0846 0.4182 0.0
H405 H 0.61364 0.08492 0.35563 0.0
H406 H 0.59147 0.06993 0.50192 0.0
H407 H 0.55695 0.06583 0.3711 0.0
H408 H 0.54207 0.05425 0.2963 0.0
H409 H 0.51325 0.00731 0.35806 0.0
H410 H 0.52809 0.01859 0.43322 0.0
H411 H 0.54081 0.08484 0.64496 0.0
H412 H 0.55643 0.08286 0.58142 0.0
H413 H 0.5257 0.03014 0.57692 0.0
H414 H 0.50958 0.03206 0.64093 0.0
H415 H 0.53076 0.04318 0.48971 0.0
H416 H 0.56412 0.04712 0.62091 0.0
H417 H 0.57875 0.0583 0.6962 0.0
H418 H 0.60982 0.10475 0.63442 0.0
H419 H 0.59517 0.09392 0.55881 0.0
C420 C 0.58698 0.04368 0.35791 0.0
C421 C 0.6004 0.05853 0.34394 0.0
C422 C 0.57704 0.0435 0.39357 0.0
C423 C 0.58019 0.05819 0.4159 0.0
C424 C 0.59334 0.07312 0.40135 0.0
C425 C 0.60334 0.07331 0.36544 0.0
C426 C 0.57021 0.05773 0.45593 0.0
C427 C 0.57823 0.06432 0.49908 0.0
C428 C 0.55286 0.0498 0.45265 0.0
C429 C 0.54373 0.04303 0.40769 0.0
C430 C 0.5475 0.05302 0.36867 0.0
C431 C 0.53906 0.04651 0.3262 0.0
C432 C 0.52675 0.03004 0.32236 0.0
C433 C 0.5228 0.02006 0.36107 0.0
C434 C 0.5312 0.02652 0.40365 0.0
C435 C 0.53736 0.07276 0.63085 0.0
C436 C 0.52396 0.05858 0.64814 0.0
C437 C 0.54639 0.07167 0.59452 0.0
C438 C 0.54237 0.05636 0.57474 0.0
C439 C 0.52902 0.04209 0.59186 0.0
C440 C 0.5199 0.04318 0.62852 0.0
C441 C 0.55206 0.05561 0.5355 0.0
C442 C 0.544 0.04875 0.49256 0.0
C443 C 0.56938 0.06321 0.53901 0.0
C444 C 0.57846 0.06972 0.58422 0.0
C445 C 0.57401 0.05975 0.62341 0.0
C446 C 0.58232 0.06603 0.66616 0.0
C447 C 0.5952 0.08224 0.67014 0.0
C448 C 0.59983 0.09219 0.63129 0.0
C449 C 0.59154 0.08598 0.58844 0.0
H450 H 0.6016 0.08709 0.7033 0.0
H451 H 0.52025 0.02501 0.28941 0.0
H452 H 0.03278 0.58485 0.37622 0.0
H453 H 0.03434 0.57022 0.44416 0.0
H454 H 0.06672 0.55804 0.37119 0.0
H455 H 0.06535 0.57284 0.30377 0.0
H456 H 0.04764 0.5349 0.44039 0.0
H457 H 0.08397 0.59326 0.41953 0.0
H458 H 0.08915 0.62112 0.40349 0.0
H459 H 0.0627 0.62023 0.52478 0.0
H460 H 0.05708 0.59219 0.54098 0.0
H461 H 0.09619 0.53165 0.61611 0.0
H462 H 0.0934 0.54609 0.54942 0.0
H463 H 0.06042 0.55635 0.62633 0.0
H464 H 0.06297 0.54169 0.69252 0.0
H465 H 0.07927 0.58038 0.55612 0.0
H466 H 0.04349 0.52191 0.57753 0.0
H467 H 0.03857 0.49408 0.59268 0.0
H468 H 0.06431 0.49526 0.46951 0.0
H469 H 0.06969 0.52327 0.4542 0.0
C470 C 0.03936 0.57815 0.37375 0.0
C471 C 0.04902 0.57996 0.33529 0.0
C472 C 0.04038 0.56994 0.41265 0.0
C473 C 0.05096 0.56344 0.41281 0.0
C474 C 0.05856 0.56306 0.37167 0.0
C475 C 0.05772 0.57144 0.33315 0.0
C476 C 0.05701 0.56049 0.45722 0.0
C477 C 0.05458 0.54481 0.46563 0.0
C478 C 0.06614 0.57352 0.48993 0.0
C479 C 0.06995 0.59057 0.48117 0.0
C480 C 0.07918 0.59897 0.44262 0.0
C481 C 0.08219 0.61478 0.43348 0.0
C482 C 0.07622 0.62242 0.46301 0.0
C483 C 0.06729 0.61428 0.50187 0.0
C484 C 0.06418 0.59842 0.51105 0.0
C485 C 0.08918 0.53788 0.61969 0.0
C486 C 0.07972 0.53559 0.65896 0.0
C487 C 0.08748 0.54598 0.58152 0.0
C488 C 0.07643 0.55192 0.58288 0.0
C489 C 0.06895 0.55179 0.62471 0.0
C490 C 0.07046 0.54348 0.66251 0.0
C491 C 0.06991 0.55479 0.53923 0.0
C492 C 0.07227 0.57045 0.53097 0.0
C493 C 0.06075 0.54175 0.50659 0.0
C494 C 0.05715 0.52475 0.51502 0.0
C495 C 0.04821 0.51629 0.55388 0.0
C496 C 0.04533 0.50048 0.56249 0.0
C497 C 0.05116 0.49292 0.53214 0.0
C498 C 0.05983 0.50114 0.49304 0.0
C499 C 0.06281 0.51699 0.48438 0.0
H500 H 0.0489 0.48068 0.53883 0.0
H501 H 0.07854 0.63466 0.45584 0.0
H502 H 0.59266 0.6194 0.60489 0.0
H503 H 0.57691 0.59748 0.54718 0.0
H504 H 0.58205 0.56305 0.63332 0.0
H505 H 0.59749 0.58474 0.69164 0.0
H506 H 0.58795 0.5806 0.49854 0.0
H507 H 0.55005 0.5247 0.61213 0.0
H508 H 0.53726 0.51865 0.68896 0.0
H509 H 0.53157 0.56113 0.68193 0.0
H510 H 0.54416 0.56732 0.60488 0.0
H511 H 0.52962 0.48861 0.41381 0.0
H512 H 0.54638 0.50913 0.47421 0.0
H513 H 0.5453 0.5469 0.39338 0.0
H514 H 0.52917 0.52674 0.33249 0.0
H515 H 0.53844 0.52695 0.52697 0.0
H516 H 0.57789 0.58352 0.41466 0.0
H517 H 0.59095 0.58951 0.33824 0.0
H518 H 0.59399 0.54549 0.34282 0.0
H519 H 0.58113 0.53933 0.41949 0.0
C520 C 0.59021 0.60711 0.61201 0.0
C521 C 0.59643 0.60388 0.65287 0.0
C522 C 0.58126 0.59462 0.57885 0.0
C523 C 0.57833 0.57865 0.58593 0.0
C524 C 0.584 0.57524 0.62737 0.0
C525 C 0.59286 0.58769 0.66069 0.0
C526 C 0.57014 0.56582 0.54881 0.0
C527 C 0.57699 0.56894 0.50453 0.0
C528 C 0.55622 0.55041 0.55722 0.0
C529 C 0.5482 0.54656 0.60295 0.0
C530 C 0.54599 0.5327 0.62689 0.0
C531 C 0.5388 0.52926 0.6705 0.0
C532 C 0.53366 0.53953 0.6904 0.0
C533 C 0.53562 0.55322 0.66659 0.0
C534 C 0.5428 0.55671 0.62297 0.0
C535 C 0.53321 0.50134 0.40855 0.0
C536 C 0.52805 0.50602 0.36826 0.0
C537 C 0.54273 0.51303 0.44318 0.0
C538 C 0.5472 0.52957 0.4382 0.0
C539 C 0.54232 0.53429 0.39763 0.0
C540 C 0.53301 0.52269 0.36282 0.0
C541 C 0.55612 0.54179 0.4764 0.0
C542 C 0.54945 0.53856 0.52094 0.0
C543 C 0.57026 0.55709 0.46829 0.0
C544 C 0.57842 0.56091 0.4227 0.0
C545 C 0.58144 0.57517 0.3995 0.0
C546 C 0.58878 0.57858 0.3561 0.0
C547 C 0.59325 0.56786 0.33563 0.0
C548 C 0.59046 0.55375 0.35864 0.0
C549 C 0.58313 0.55028 0.40205 0.0
H550 H 0.5989 0.57051 0.30198 0.0
H551 H 0.52814 0.53687 0.72421 0.0
H552 H 0.70288 0.83284 0.20499 0.0
H553 H 0.70589 0.84848 0.27687 0.0
H554 H 0.7576 0.87933 0.2538 0.0
H555 H 0.7547 0.86392 0.18139 0.0
H556 H 0.74916 0.86675 0.34762 0.0
H557 H 0.73782 0.89649 0.23528 0.0
H558 H 0.72355 0.90054 0.16853 0.0
H559 H 0.67894 0.87988 0.24434 0.0
H560 H 0.69288 0.87544 0.31136 0.0
H561 H 0.75394 0.92923 0.51403 0.0
H562 H 0.75749 0.91355 0.45085 0.0
H563 H 0.70564 0.8785 0.44983 0.0
H564 H 0.70199 0.89396 0.51275 0.0
H565 H 0.71783 0.89598 0.36606 0.0
H566 H 0.73033 0.86572 0.47864 0.0
H567 H 0.74584 0.86289 0.54438 0.0
H568 H 0.7901 0.88673 0.46716 0.0
H569 H 0.77489 0.88991 0.40115 0.0
C570 C 0.71487 0.84299 0.21509 0.0
C571 C 0.72853 0.84721 0.18751 0.0
C572 C 0.71657 0.85188 0.25608 0.0
C573 C 0.73197 0.86498 0.27039 0.0
C574 C 0.74565 0.8692 0.24319 0.0
C575 C 0.74392 0.86048 0.20174 0.0
C576 C 0.73353 0.87433 0.31359 0.0
C577 C 0.74255 0.87339 0.35164 0.0
C578 C 0.72486 0.8829 0.31843 0.0
C579 C 0.71636 0.88546 0.27817 0.0
C580 C 0.72492 0.89263 0.23756 0.0
C581 C 0.7169 0.89504 0.1997 0.0
C582 C 0.70033 0.89042 0.20214 0.0
C583 C 0.69176 0.88342 0.24248 0.0
C584 C 0.69972 0.88097 0.28043 0.0
C585 C 0.74341 0.91789 0.50137 0.0
C586 C 0.72764 0.91297 0.51759 0.0
C587 C 0.74546 0.90897 0.46534 0.0
C588 C 0.73177 0.89504 0.44552 0.0
C589 C 0.71631 0.88931 0.46463 0.0
C590 C 0.71426 0.89816 0.50054 0.0
C591 C 0.73294 0.8879 0.40076 0.0
C592 C 0.72452 0.88942 0.36214 0.0
C593 C 0.74235 0.8801 0.39545 0.0
C594 C 0.75151 0.87824 0.43517 0.0
C595 C 0.7434 0.87053 0.47586 0.0
C596 C 0.75213 0.86882 0.51312 0.0
C597 C 0.76895 0.87468 0.51001 0.0
C598 C 0.77708 0.88222 0.46956 0.0
C599 C 0.7684 0.88397 0.43219 0.0
H600 H 0.77569 0.87333 0.53889 0.0
H601 H 0.69415 0.89231 0.17281 0.0
H602 H 0.20537 0.875 0.512 0.0
H603 H 0.22272 0.88825 0.44608 0.0
H604 H 0.17981 0.86768 0.35473 0.0
H605 H 0.16242 0.85435 0.42117 0.0
H606 H 0.20101 0.85826 0.32796 0.0
H607 H 0.20474 0.9093 0.36714 0.0
H608 H 0.20893 0.93267 0.41724 0.0
H609 H 0.25853 0.94456 0.44802 0.0
H610 H 0.25458 0.92112 0.39859 0.0
H611 H 0.24803 0.90103 0.12886 0.0
H612 H 0.22855 0.88799 0.19113 0.0
H613 H 0.2688 0.90054 0.28818 0.0
H614 H 0.28829 0.91319 0.22543 0.0
H615 H 0.24823 0.9143 0.30948 0.0
H616 H 0.2438 0.86247 0.27179 0.0
H617 H 0.23936 0.83917 0.22097 0.0
H618 H 0.1906 0.82913 0.18611 0.0
H619 H 0.19483 0.85254 0.23626 0.0
C620 C 0.19959 0.87414 0.47831 0.0
C621 C 0.18259 0.86397 0.47163 0.0
C622 C 0.20952 0.88159 0.4405 0.0
C623 C 0.20258 0.87889 0.39532 0.0
C624 C 0.18541 0.86992 0.38928 0.0
C625 C 0.17546 0.86255 0.4273 0.0
C626 C 0.21335 0.88328 0.35455 0.0
C627 C 0.21112 0.87061 0.32335 0.0
C628 C 0.22687 0.89925 0.34941 0.0
C629 C 0.22931 0.91334 0.37941 0.0
C630 C 0.2165 0.9168 0.38491 0.0
C631 C 0.21884 0.93009 0.41313 0.0
C632 C 0.23397 0.94007 0.43588 0.0
C633 C 0.24681 0.93681 0.43039 0.0
C634 C 0.24453 0.92353 0.40222 0.0
C635 C 0.25262 0.90014 0.16291 0.0
C636 C 0.26958 0.90777 0.17233 0.0
C637 C 0.24152 0.89287 0.19854 0.0
C638 C 0.24727 0.89344 0.24427 0.0
C639 C 0.26415 0.89997 0.25304 0.0
C640 C 0.27525 0.90695 0.21712 0.0
C641 C 0.23589 0.88928 0.28335 0.0
C642 C 0.23804 0.902 0.31409 0.0
C643 C 0.22225 0.87339 0.28791 0.0
C644 C 0.2197 0.85939 0.25738 0.0
C645 C 0.23219 0.85541 0.25289 0.0
C646 C 0.2297 0.84216 0.2243 0.0
C647 C 0.21473 0.83271 0.2002 0.0
C648 C 0.2022 0.83648 0.20473 0.0
C649 C 0.20464 0.84974 0.23327 0.0
H650 H 0.21282 0.82244 0.17813 0.0
H651 H 0.23576 0.95036 0.45769 0.0
H652 H 0.25164 0.36268 0.47896 0.0
H653 H 0.23311 0.36194 0.41646 0.0
H654 H 0.24621 0.4118 0.45224 0.0
H655 H 0.26476 0.4127 0.51395 0.0
H656 H 0.20649 0.36814 0.40706 0.0
H657 H 0.25563 0.43287 0.35359 0.0
H658 H 0.28562 0.45099 0.36234 0.0
H659 H 0.29205 0.40893 0.36745 0.0
H660 H 0.26213 0.39056 0.35802 0.0
H661 H 0.17458 0.40406 0.25265 0.0
H662 H 0.19019 0.40067 0.31614 0.0
H663 H 0.21586 0.38757 0.21682 0.0
H664 H 0.20018 0.39074 0.15297 0.0
H665 H 0.23632 0.41004 0.28858 0.0
H666 H 0.18728 0.35801 0.26902 0.0
H667 H 0.15738 0.33948 0.26074 0.0
H668 H 0.15101 0.35428 0.3973 0.0
H669 H 0.18088 0.37313 0.40609 0.0
C670 C 0.25023 0.37332 0.47418 0.0
C671 C 0.2598 0.38782 0.50082 0.0
C672 C 0.23966 0.37288 0.43852 0.0
C673 C 0.23857 0.38693 0.42925 0.0
C674 C 0.2471 0.40093 0.45838 0.0
C675 C 0.25768 0.40141 0.49365 0.0
C676 C 0.22997 0.38773 0.38659 0.0
C677 C 0.21298 0.37726 0.38111 0.0
C678 C 0.23855 0.39942 0.35225 0.0
C679 C 0.25663 0.41035 0.35546 0.0
C680 C 0.26346 0.42749 0.35615 0.0
C681 C 0.28043 0.4378 0.36132 0.0
C682 C 0.29071 0.43111 0.36564 0.0
C683 C 0.28406 0.41409 0.36427 0.0
C684 C 0.26709 0.40372 0.35902 0.0
C685 C 0.18368 0.40065 0.2442 0.0
C686 C 0.1861 0.39762 0.19775 0.0
C687 C 0.1925 0.39862 0.28054 0.0
C688 C 0.20401 0.3937 0.27108 0.0
C689 C 0.20696 0.39131 0.22475 0.0
C690 C 0.19798 0.39311 0.18838 0.0
C691 C 0.21275 0.39079 0.30974 0.0
C692 C 0.22981 0.40086 0.31439 0.0
C693 C 0.20425 0.37859 0.34287 0.0
C694 C 0.18631 0.36709 0.33805 0.0
C695 C 0.1795 0.35741 0.29716 0.0
C696 C 0.16255 0.34684 0.29239 0.0
C697 C 0.1523 0.34573 0.32843 0.0
C698 C 0.15897 0.35516 0.36939 0.0
C699 C 0.17591 0.36578 0.3743 0.0
H700 H 0.13918 0.33755 0.32466 0.0
H701 H 0.30381 0.43911 0.37013 0.0
H702 H 0.18263 0.35591 0.99738 0.0
H703 H 0.20203 0.35488 0.94265 0.0
H704 H 0.22244 0.40655 0.91858 0.0
H705 H 0.20366 0.40776 0.97304 0.0
H706 H 0.20677 0.36223 0.84862 0.0
H707 H 0.26029 0.42493 0.91224 0.0
H708 H 0.27107 0.44072 0.98637 0.0
H709 H 0.25143 0.39585 0.06097 0.0
H710 H 0.2405 0.37982 0.98731 0.0
H711 H 0.26251 0.39701 0.66772 0.0
H712 H 0.2434 0.39082 0.73099 0.0
H713 H 0.27792 0.38794 0.82591 0.0
H714 H 0.29745 0.39524 0.76329 0.0
H715 H 0.26618 0.40268 0.86835 0.0
H716 H 0.24065 0.35257 0.77823 0.0
H717 H 0.22952 0.33509 0.70708 0.0
H718 H 0.19368 0.35032 0.69027 0.0
H719 H 0.20472 0.36804 0.76099 0.0
C720 C 0.19139 0.36704 0.98066 0.0
C721 C 0.19172 0.38194 0.98991 0.0
C722 C 0.20237 0.36642 0.94931 0.0
C723 C 0.21382 0.3807 0.92709 0.0
C724 C 0.21397 0.39546 0.93606 0.0
C725 C 0.20316 0.39611 0.96726 0.0
C726 C 0.22568 0.38058 0.89397 0.0
C727 C 0.2198 0.37087 0.853 0.0
C728 C 0.24268 0.39162 0.90019 0.0
C729 C 0.24962 0.40121 0.94434 0.0
C730 C 0.2584 0.41846 0.94444 0.0
C731 C 0.26446 0.42744 0.98638 0.0
C732 C 0.26194 0.41929 0.02834 0.0
C733 C 0.25334 0.40214 0.02847 0.0
C734 C 0.24717 0.39311 0.98667 0.0
C735 C 0.266 0.39511 0.70218 0.0
C736 C 0.28146 0.39668 0.71074 0.0
C737 C 0.255 0.39137 0.73826 0.0
C738 C 0.25899 0.38849 0.78321 0.0
C739 C 0.27448 0.39007 0.79165 0.0
C740 C 0.28567 0.39428 0.75589 0.0
C741 C 0.24734 0.38457 0.82186 0.0
C742 C 0.25325 0.39366 0.86395 0.0
C743 C 0.23044 0.37258 0.81698 0.0
C744 C 0.22358 0.3617 0.77485 0.0
C745 C 0.23043 0.35224 0.75928 0.0
C746 C 0.22414 0.34228 0.71902 0.0
C747 C 0.21091 0.34161 0.69416 0.0
C748 C 0.20392 0.35084 0.70959 0.0
C749 C 0.21017 0.36082 0.74981 0.0
H750 H 0.20608 0.33392 0.66295 0.0
H751 H 0.26664 0.42627 0.06077 0.0
H752 H 0.76615 0.87012 0.94226 0.0
H753 H 0.76434 0.88968 0.89141 0.0
H754 H 0.74818 0.90769 0.00635 0.0
H755 H 0.74921 0.88739 0.05653 0.0
H756 H 0.72631 0.89702 0.94151 0.0
H757 H 0.784 0.93341 0.94153 0.0
H758 H 0.81325 0.94163 0.93665 0.0
H759 H 0.80502 0.92218 0.79644 0.0
H760 H 0.77569 0.91363 0.80063 0.0
H761 H 0.70912 0.94237 0.77063 0.0
H762 H 0.72016 0.93532 0.83874 0.0
H763 H 0.7349 0.90783 0.74997 0.0
H764 H 0.72401 0.91479 0.68205 0.0
H765 H 0.75977 0.92897 0.80983 0.0
H766 H 0.70203 0.88827 0.81604 0.0
H767 H 0.67249 0.87887 0.82035 0.0
H768 H 0.68118 0.90606 0.94922 0.0
H769 H 0.71082 0.91579 0.94534 0.0
C770 C 0.76311 0.87889 0.95715 0.0
C771 C 0.75801 0.87749 0.00318 0.0
C772 C 0.76203 0.89009 0.92805 0.0
C773 C 0.75608 0.90021 0.94493 0.0
C774 C 0.75275 0.9 0.99249 0.0
C775 C 0.75353 0.88856 0.0213 0.0
C776 C 0.75032 0.90831 0.91162 0.0
C777 C 0.73384 0.90445 0.91357 0.0
C778 C 0.75992 0.91761 0.8743 0.0
C779 C 0.7776 0.92282 0.87149 0.0
C780 C 0.7884 0.93079 0.90974 0.0
C781 C 0.805 0.93553 0.90707 0.0
C782 C 0.81099 0.93243 0.86627 0.0
C783 C 0.80038 0.9246 0.82801 0.0
C784 C 0.78377 0.91984 0.83048 0.0
C785 C 0.71442 0.93456 0.76575 0.0
C786 C 0.71568 0.92915 0.72089 0.0
C787 C 0.72082 0.93064 0.80464 0.0
C788 C 0.72847 0.92118 0.79925 0.0
C789 C 0.72923 0.91532 0.75477 0.0
C790 C 0.72288 0.91922 0.71603 0.0
C791 C 0.73583 0.91734 0.83962 0.0
C792 C 0.75251 0.92196 0.83873 0.0
C793 C 0.72645 0.9087 0.87788 0.0
C794 C 0.70866 0.90293 0.88007 0.0
C795 C 0.69766 0.89237 0.84505 0.0
C796 C 0.6809 0.88696 0.84747 0.0
C797 C 0.67497 0.89192 0.88494 0.0
C798 C 0.68579 0.90227 0.92015 0.0
C799 C 0.70257 0.90773 0.91787 0.0
H800 H 0.66199 0.8877 0.88678 0.0
H801 H 0.82384 0.93609 0.8643 0.0
H802 H 0.26108 0.94655 0.95777 0.0
H803 H 0.24442 0.92943 0.89094 0.0
H804 H 0.2635 0.8967 0.91182 0.0
H805 H 0.27982 0.91344 0.97936 0.0
H806 H 0.26512 0.91 0.81566 0.0
H807 H 0.22906 0.88154 0.9403 0.0
H808 H 0.21328 0.8791 0.01029 0.0
H809 H 0.18564 0.89683 0.93525 0.0
H810 H 0.20148 0.89965 0.86494 0.0
H811 H 0.21044 0.83804 0.68057 0.0
H812 H 0.22794 0.858 0.74124 0.0
H813 H 0.20297 0.88544 0.72012 0.0
H814 H 0.1856 0.86573 0.65883 0.0
H815 H 0.20435 0.87621 0.81463 0.0
H816 H 0.23921 0.90279 0.68799 0.0
H817 H 0.2549 0.90491 0.61806 0.0
H818 H 0.28474 0.89055 0.6964 0.0
H819 H 0.26904 0.88808 0.7667 0.0
C820 C 0.26162 0.93564 0.94826 0.0
C821 C 0.27169 0.93128 0.97368 0.0
C822 C 0.25212 0.92591 0.91024 0.0
C823 C 0.25285 0.91191 0.89669 0.0
C824 C 0.26286 0.90751 0.92195 0.0
C825 C 0.27206 0.91701 0.96057 0.0
C826 C 0.24336 0.902 0.85553 0.0
C827 C 0.25184 0.90247 0.81542 0.0
C828 C 0.22607 0.89257 0.85531 0.0
C829 C 0.21663 0.89106 0.89759 0.0
C830 C 0.21978 0.88514 0.93889 0.0
C831 C 0.21079 0.88363 0.97858 0.0
C832 C 0.19852 0.88788 0.97728 0.0
C833 C 0.19519 0.8936 0.93624 0.0
C834 C 0.20417 0.89515 0.89646 0.0
C835 C 0.20883 0.84845 0.6884 0.0
C836 C 0.19662 0.8503 0.66512 0.0
C837 C 0.21885 0.85983 0.72291 0.0
C838 C 0.21666 0.87311 0.735 0.0
C839 C 0.20478 0.87524 0.7111 0.0
C840 C 0.19495 0.86402 0.67602 0.0
C841 C 0.2261 0.88411 0.77468 0.0
C842 C 0.21761 0.88384 0.81462 0.0
C843 C 0.24339 0.89369 0.77473 0.0
C844 C 0.25282 0.89507 0.73251 0.0
C845 C 0.249 0.8999 0.69021 0.0
C846 C 0.25792 0.90121 0.65052 0.0
C847 C 0.27077 0.89782 0.65275 0.0
C848 C 0.27475 0.89314 0.69471 0.0
C849 C 0.26586 0.8918 0.7345 0.0
H850 H 0.27768 0.89885 0.62199 0.0
H851 H 0.19155 0.88668 0.00802 0.0
H852 H 0.42227 0.28147 0.74349 0.0
H853 H 0.41566 0.25831 0.69051 0.0
H854 H 0.39656 0.22506 0.8042 0.0
H855 H 0.4028 0.24816 0.85761 0.0
H856 H 0.41679 0.21932 0.72917 0.0
H857 H 0.36962 0.22536 0.75547 0.0
H858 H 0.35489 0.24078 0.76249 0.0
H859 H 0.36546 0.25557 0.62074 0.0
H860 H 0.38066 0.24059 0.61333 0.0
H861 H 0.36925 0.14839 0.58383 0.0
H862 H 0.37582 0.16852 0.64726 0.0
H863 H 0.38852 0.20654 0.54747 0.0
H864 H 0.38205 0.18655 0.48373 0.0
H865 H 0.37036 0.20823 0.62127 0.0
H866 H 0.41791 0.20277 0.59518 0.0
H867 H 0.43322 0.18791 0.58787 0.0
H868 H 0.42196 0.1719 0.72838 0.0
H869 H 0.40633 0.18645 0.73629 0.0
C870 C 0.41707 0.26931 0.75757 0.0
C871 C 0.41287 0.26659 0.80459 0.0
C872 C 0.41327 0.25611 0.72722 0.0
C873 C 0.4055 0.24007 0.74359 0.0
C874 C 0.40255 0.23741 0.79115 0.0
C875 C 0.40606 0.25059 0.82145 0.0
C876 C 0.3988 0.2261 0.71 0.0
C877 C 0.40647 0.21666 0.70605 0.0
C878 C 0.38549 0.2229 0.67966 0.0
C879 C 0.37647 0.23204 0.68406 0.0
C880 C 0.36902 0.2321 0.72602 0.0
C881 C 0.36055 0.24074 0.73005 0.0
C882 C 0.35929 0.24921 0.69217 0.0
C883 C 0.3665 0.24907 0.65016 0.0
C884 C 0.37506 0.24052 0.64603 0.0
C885 C 0.37313 0.16097 0.57529 0.0
C886 C 0.37521 0.16591 0.52875 0.0
C887 C 0.37699 0.17245 0.61159 0.0
C888 C 0.38285 0.189 0.60188 0.0
C889 C 0.38406 0.19381 0.55552 0.0
C890 C 0.38038 0.18238 0.5192 0.0
C891 C 0.38843 0.20148 0.63994 0.0
C892 C 0.38056 0.21071 0.64469 0.0
C893 C 0.40153 0.20443 0.67098 0.0
C894 C 0.4108 0.19555 0.66616 0.0
C895 C 0.41854 0.19594 0.62436 0.0
C896 C 0.42731 0.18761 0.62015 0.0
C897 C 0.42856 0.17898 0.65765 0.0
C898 C 0.42098 0.1786 0.69938 0.0
C899 C 0.41217 0.18688 0.70375 0.0
H900 H 0.43543 0.17262 0.65443 0.0
H901 H 0.35264 0.25581 0.69534 0.0
H902 H 0.86967 0.16748 0.80307 0.0
H903 H 0.88596 0.18496 0.74142 0.0
H904 H 0.86251 0.21412 0.75658 0.0
H905 H 0.8456 0.19616 0.81875 0.0
H906 H 0.86462 0.2069 0.66535 0.0
H907 H 0.90182 0.22896 0.79641 0.0
H908 H 0.91678 0.22805 0.86653 0.0
H909 H 0.94022 0.20736 0.78516 0.0
H910 H 0.92522 0.20792 0.71462 0.0
H911 H 0.92156 0.27121 0.52945 0.0
H912 H 0.90449 0.2541 0.59074 0.0
H913 H 0.92699 0.22394 0.57993 0.0
H914 H 0.94463 0.24146 0.51828 0.0
H915 H 0.92527 0.23227 0.66977 0.0
H916 H 0.88766 0.21 0.5387 0.0
H917 H 0.8727 0.2111 0.46884 0.0
H918 H 0.85009 0.23257 0.55062 0.0
H919 H 0.86509 0.23181 0.6209 0.0
C920 C 0.86795 0.17765 0.79375 0.0
C921 C 0.85635 0.18047 0.81608 0.0
C922 C 0.87739 0.1877 0.75846 0.0
C923 C 0.87568 0.20101 0.74486 0.0
C924 C 0.86408 0.20394 0.76682 0.0
C925 C 0.85449 0.19374 0.80237 0.0
C926 C 0.88583 0.21143 0.70677 0.0
C927 C 0.8779 0.21271 0.66662 0.0
C928 C 0.90313 0.2186 0.70794 0.0
C929 C 0.9123 0.21838 0.75026 0.0
C930 C 0.91008 0.22411 0.7935 0.0
C931 C 0.91859 0.22368 0.83333 0.0
C932 C 0.92942 0.21762 0.83032 0.0
C933 C 0.93182 0.21204 0.78744 0.0
C934 C 0.92334 0.21243 0.74751 0.0
C935 C 0.92288 0.26088 0.53967 0.0
C936 C 0.93448 0.25769 0.5189 0.0
C937 C 0.91299 0.25103 0.57468 0.0
C938 C 0.91428 0.2376 0.58954 0.0
C939 C 0.92575 0.23422 0.56875 0.0
C940 C 0.93576 0.24417 0.53349 0.0
C941 C 0.90406 0.22765 0.6282 0.0
C942 C 0.91199 0.22648 0.6685 0.0
C943 C 0.88677 0.22063 0.62719 0.0
C944 C 0.87761 0.22096 0.58502 0.0
C945 C 0.87959 0.21506 0.54174 0.0
C946 C 0.87108 0.21561 0.50207 0.0
C947 C 0.86048 0.22193 0.50527 0.0
C948 C 0.85832 0.22768 0.54819 0.0
C949 C 0.8668 0.22718 0.58796 0.0
H950 H 0.85391 0.22235 0.47451 0.0
H951 H 0.93599 0.21729 0.8612 0.0
H952 H 0.93709 0.69593 0.7448 0.0
H953 H 0.92126 0.70108 0.6858 0.0
H954 H 0.90967 0.72746 0.7883 0.0
H955 H 0.92529 0.72229 0.84749 0.0
H956 H 0.88317 0.70737 0.73403 0.0
H957 H 0.93914 0.74824 0.71324 0.0
H958 H 0.9686 0.75885 0.70126 0.0
H959 H 0.95729 0.73222 0.5705 0.0
H960 H 0.92772 0.72124 0.58205 0.0
H961 H 0.85556 0.74696 0.5791 0.0
H962 H 0.87273 0.74342 0.63735 0.0
H963 H 0.88249 0.71475 0.53794 0.0
H964 H 0.86546 0.71825 0.47942 0.0
H965 H 0.91019 0.73655 0.59091 0.0
H966 H 0.85357 0.69586 0.6139 0.0
H967 H 0.82445 0.68668 0.62686 0.0
H968 H 0.83753 0.71445 0.756 0.0
H969 H 0.8668 0.72412 0.74322 0.0
C970 C 0.93104 0.70268 0.75492 0.0
C971 C 0.93255 0.70877 0.80083 0.0
C972 C 0.92209 0.7057 0.72109 0.0
C973 C 0.91449 0.71484 0.7326 0.0
C974 C 0.91549 0.72044 0.77869 0.0
C975 C 0.92448 0.7175 0.81243 0.0
C976 C 0.90567 0.71881 0.69655 0.0
C977 C 0.88913 0.71391 0.703 0.0
C978 C 0.91343 0.7272 0.65586 0.0
C979 C 0.9312 0.73376 0.64877 0.0
C980 C 0.94292 0.74452 0.68214 0.0
C981 C 0.95964 0.75063 0.67538 0.0
C982 C 0.96481 0.74617 0.63521 0.0
C983 C 0.95326 0.73563 0.60165 0.0
C984 C 0.93652 0.72947 0.60827 0.0
C985 C 0.8615 0.74006 0.56941 0.0
C986 C 0.85899 0.73274 0.52472 0.0
C987 C 0.87127 0.73802 0.60279 0.0
C988 C 0.87869 0.72865 0.59203 0.0
C989 C 0.87682 0.72197 0.54691 0.0
C990 C 0.867 0.72393 0.51362 0.0
C991 C 0.88769 0.72506 0.6284 0.0
C992 C 0.90426 0.73001 0.62198 0.0
C993 C 0.88 0.71685 0.66935 0.0
C994 C 0.86239 0.71085 0.67736 0.0
C995 C 0.85025 0.70012 0.64488 0.0
C996 C 0.83371 0.69481 0.65222 0.0
C997 C 0.82914 0.69999 0.69223 0.0
C998 C 0.84109 0.71047 0.725 0.0
C999 C 0.85766 0.71587 0.71771 0.0
H1000 H 0.81634 0.69588 0.69794 0.0
H1001 H 0.97776 0.75093 0.63003 0.0
H1002 H 0.83583 0.69227 0.2829 0.0
H1003 H 0.85266 0.69341 0.21727 0.0
H1004 H 0.89552 0.73267 0.28802 0.0
H1005 H 0.87854 0.73204 0.3522 0.0
H1006 H 0.89328 0.7417 0.20598 0.0
H1007 H 0.88936 0.6923 0.26616 0.0
H1008 H 0.87509 0.66389 0.29372 0.0
H1009 H 0.84945 0.64673 0.16166 0.0
H1010 H 0.86343 0.67506 0.1335 0.0
H1011 H 0.95295 0.74613 0.04609 0.0
H1012 H 0.93595 0.74477 0.11149 0.0
H1013 H 0.89337 0.70533 0.04024 0.0
H1014 H 0.91052 0.70617 0.97629 0.0
H1015 H 0.89533 0.69633 0.12227 0.0
H1016 H 0.89917 0.74557 0.06189 0.0
H1017 H 0.91328 0.77394 0.03406 0.0
H1018 H 0.93885 0.79138 0.16611 0.0
H1019 H 0.92504 0.76309 0.19454 0.0
C1020 C 0.84895 0.7007 0.28497 0.0
C1021 C 0.85598 0.712 0.32245 0.0
C1022 C 0.85857 0.70141 0.24743 0.0
C1023 C 0.87541 0.71317 0.24756 0.0
C1024 C 0.88257 0.7236 0.28685 0.0
C1025 C 0.87291 0.72313 0.3237 0.0
C1026 C 0.88526 0.71583 0.20532 0.0
C1027 C 0.89392 0.7318 0.18809 0.0
C1028 C 0.8857 0.70287 0.18098 0.0
C1029 C 0.87733 0.68582 0.19788 0.0
C1030 C 0.88059 0.68248 0.24312 0.0
C1031 C 0.87257 0.66639 0.25882 0.0
C1032 C 0.86134 0.65352 0.22951 0.0
C1033 C 0.85814 0.65671 0.18436 0.0
C1034 C 0.86612 0.67278 0.16849 0.0
C1035 C 0.93986 0.7376 0.04387 0.0
C1036 C 0.93296 0.72631 0.0063 0.0
C1037 C 0.93014 0.73677 0.08128 0.0
C1038 C 0.91333 0.72491 0.08093 0.0
C1039 C 0.9063 0.71448 0.04159 0.0
C1040 C 0.91606 0.71507 0.00487 0.0
C1041 C 0.90337 0.72221 0.12298 0.0
C1042 C 0.89469 0.70623 0.14015 0.0
C1043 C 0.90289 0.73516 0.14723 0.0
C1044 C 0.91117 0.75218 0.13018 0.0
C1045 C 0.90789 0.75544 0.08487 0.0
C1046 C 0.91582 0.77151 0.06901 0.0
C1047 C 0.92699 0.78445 0.09826 0.0
C1048 C 0.93021 0.78134 0.14347 0.0
C1049 C 0.92232 0.7653 0.15949 0.0
H1050 H 0.93312 0.79688 0.08591 0.0
H1051 H 0.85514 0.64108 0.24173 0.0
H1052 H 0.36327 0.16643 0.28832 0.0
H1053 H 0.36455 0.18391 0.22513 0.0
H1054 H 0.41346 0.22049 0.27058 0.0
H1055 H 0.41254 0.20266 0.33393 0.0
H1056 H 0.3828 0.22799 0.24458 0.0
H1057 H 0.41965 0.20941 0.19165 0.0
H1058 H 0.42779 0.18855 0.17766 0.0
H1059 H 0.38491 0.16061 0.08967 0.0
H1060 H 0.37638 0.1812 0.10385 0.0
H1061 H 0.41025 0.27834 0.04947 0.0
H1062 H 0.40755 0.26156 0.11584 0.0
H1063 H 0.36669 0.21976 0.04663 0.0
H1064 H 0.36918 0.23682 0.97929 0.0
H1065 H 0.3928 0.21453 0.08503 0.0
H1066 H 0.35753 0.23472 0.13174 0.0
H1067 H 0.34933 0.25551 0.14589 0.0
H1068 H 0.38913 0.28061 0.24576 0.0
H1069 H 0.39773 0.26009 0.23168 0.0
C1070 C 0.3743 0.17824 0.28536 0.0
C1071 C 0.38784 0.18318 0.31614 0.0
C1072 C 0.37499 0.18817 0.24909 0.0
C1073 C 0.3891 0.20335 0.24323 0.0
C1074 C 0.40249 0.20871 0.27471 0.0
C1075 C 0.40195 0.19857 0.31074 0.0
C1076 C 0.38964 0.21322 0.20322 0.0
C1077 C 0.38528 0.22532 0.20977 0.0
C1078 C 0.39225 0.20916 0.15783 0.0
C1079 C 0.39725 0.1967 0.14942 0.0
C1080 C 0.41184 0.1987 0.16987 0.0
C1081 C 0.41655 0.18696 0.16177 0.0
C1082 C 0.40683 0.17322 0.13296 0.0
C1083 C 0.3924 0.17123 0.1121 0.0
C1084 C 0.38762 0.18293 0.12015 0.0
C1085 C 0.40061 0.26559 0.04826 0.0
C1086 C 0.38995 0.25883 0.00914 0.0
C1087 C 0.39905 0.25605 0.08637 0.0
C1088 C 0.38691 0.23949 0.08614 0.0
C1089 C 0.37612 0.23259 0.0473 0.0
C1090 C 0.37749 0.2423 0.0091 0.0
C1091 C 0.38615 0.22952 0.1263 0.0
C1092 C 0.39035 0.21729 0.11979 0.0
C1093 C 0.38346 0.23353 0.17178 0.0
C1094 C 0.37837 0.24594 0.18031 0.0
C1095 C 0.36464 0.24476 0.15639 0.0
C1096 C 0.35989 0.25648 0.16447 0.0
C1097 C 0.36873 0.2694 0.19662 0.0
C1098 C 0.38231 0.2706 0.22082 0.0
C1099 C 0.38711 0.25892 0.21284 0.0
H1100 H 0.36502 0.27845 0.20285 0.0
H1101 H 0.41052 0.16416 0.12667 0.0
H1102 H 0.9263 0.28524 0.26712 0.0
H1103 H 0.91026 0.26431 0.20695 0.0
H1104 H 0.91244 0.22753 0.28964 0.0
H1105 H 0.92832 0.24821 0.35006 0.0
H1106 H 0.9237 0.22923 0.19934 0.0
H1107 H 0.87725 0.22576 0.27634 0.0
H1108 H 0.8603 0.23635 0.30995 0.0
H1109 H 0.85595 0.25396 0.17647 0.0
H1110 H 0.87309 0.24367 0.14217 0.0
H1111 H 0.86719 0.15644 0.07155 0.0
H1112 H 0.8828 0.17822 0.12988 0.0
H1113 H 0.87802 0.21296 0.04432 0.0
H1114 H 0.86245 0.19136 0.98572 0.0
H1115 H 0.86834 0.21303 0.13428 0.0
H1116 H 0.91427 0.21634 0.05664 0.0
H1117 H 0.93136 0.20606 0.02224 0.0
H1118 H 0.93704 0.18928 0.15569 0.0
H1119 H 0.91976 0.19926 0.1908 0.0
C1120 C 0.92311 0.27265 0.27298 0.0
C1121 C 0.92879 0.26847 0.31324 0.0
C1122 C 0.91393 0.26071 0.23855 0.0
C1123 C 0.91032 0.24445 0.24382 0.0
C1124 C 0.91523 0.24007 0.2849 0.0
C1125 C 0.92426 0.25193 0.31946 0.0
C1126 C 0.90255 0.23225 0.20511 0.0
C1127 C 0.9115 0.22549 0.18548 0.0
C1128 C 0.88688 0.22785 0.18626 0.0
C1129 C 0.87663 0.23412 0.20681 0.0
C1130 C 0.87283 0.23204 0.25425 0.0
C1131 C 0.86315 0.23795 0.2734 0.0
C1132 C 0.85709 0.24587 0.24539 0.0
C1133 C 0.86068 0.24785 0.19814 0.0
C1134 C 0.87036 0.24197 0.17882 0.0
C1135 C 0.86968 0.16876 0.0647 0.0
C1136 C 0.86344 0.17209 0.02406 0.0
C1137 C 0.87862 0.18119 0.09808 0.0
C1138 C 0.88146 0.19715 0.09141 0.0
C1139 C 0.87584 0.20068 0.05015 0.0
C1140 C 0.86702 0.18831 0.01661 0.0
C1141 C 0.88944 0.20989 0.12875 0.0
C1142 C 0.88056 0.21678 0.14807 0.0
C1143 C 0.90521 0.21447 0.14722 0.0
C1144 C 0.91556 0.20839 0.12625 0.0
C1145 C 0.91902 0.21032 0.07858 0.0
C1146 C 0.92878 0.20457 0.05896 0.0
C1147 C 0.93524 0.19698 0.08673 0.0
C1148 C 0.932 0.19515 0.13421 0.0
C1149 C 0.92223 0.20086 0.15399 0.0
H1150 H 0.9428 0.19255 0.07149 0.0
H1151 H 0.84959 0.25043 0.26028 0.0
H1152 H 0.06502 0.65572 0.36859 0.0
H1153 H 0.07856 0.68349 0.40306 0.0
H1154 H 0.12485 0.69246 0.35016 0.0
H1155 H 0.1113 0.66474 0.31422 0.0
H1156 H 0.11998 0.70082 0.45819 0.0
H1157 H 0.11449 0.70919 0.29186 0.0
H1158 H 0.0976 0.70169 0.21938 0.0
H1159 H 0.06371 0.71292 0.28587 0.0
H1160 H 0.08023 0.72015 0.35908 0.0
H1161 H 0.16592 0.7858 0.50772 0.0
H1162 H 0.15443 0.75822 0.47323 0.0
H1163 H 0.10798 0.75625 0.44986 0.0
H1164 H 0.11991 0.78435 0.48137 0.0
H1165 H 0.11313 0.74367 0.37909 0.0
H1166 H 0.11595 0.73557 0.54159 0.0
H1167 H 0.12864 0.74021 0.62022 0.0
H1168 H 0.16272 0.72612 0.57017 0.0
H1169 H 0.15037 0.7216 0.49106 0.0
C1170 C 0.0781 0.66357 0.36446 0.0
C1171 C 0.08715 0.65819 0.33865 0.0
C1172 C 0.08577 0.67937 0.38415 0.0
C1173 C 0.10261 0.68985 0.37892 0.0
C1174 C 0.11181 0.6844 0.35438 0.0
C1175 C 0.10408 0.66868 0.33381 0.0
C1176 C 0.11036 0.70674 0.39781 0.0
C1177 C 0.11882 0.71036 0.44075 0.0
C1178 C 0.10805 0.71874 0.37561 0.0
C1179 C 0.09851 0.71506 0.33105 0.0
C1180 C 0.10337 0.70994 0.29112 0.0
C1181 C 0.09387 0.70575 0.2499 0.0
C1182 C 0.07957 0.70678 0.24805 0.0
C1183 C 0.07479 0.7121 0.28736 0.0
C1184 C 0.08422 0.71626 0.32872 0.0
C1185 C 0.15325 0.7794 0.49531 0.0
C1186 C 0.14372 0.78704 0.49722 0.0
C1187 C 0.14666 0.76363 0.47585 0.0
C1188 C 0.13023 0.75499 0.45974 0.0
C1189 C 0.12069 0.76265 0.46197 0.0
C1190 C 0.12745 0.77864 0.48012 0.0
C1191 C 0.12308 0.73809 0.43991 0.0
C1192 C 0.11456 0.73433 0.39674 0.0
C1193 C 0.12493 0.72581 0.46268 0.0
C1194 C 0.13233 0.7284 0.5103 0.0
C1195 C 0.12622 0.73356 0.54728 0.0
C1196 C 0.13334 0.73615 0.59195 0.0
C1197 C 0.1465 0.73349 0.60016 0.0
C1198 C 0.15253 0.72819 0.56374 0.0
C1199 C 0.14547 0.72559 0.51899 0.0
H1200 H 0.152 0.73552 0.63476 0.0
H1201 H 0.0722 0.70348 0.21615 0.0
H1202 H 0.46502 0.49496 0.35417 0.0
H1203 H 0.44042 0.49082 0.39462 0.0
H1204 H 0.4112 0.44534 0.31675 0.0
H1205 H 0.4357 0.44928 0.27736 0.0
H1206 H 0.39483 0.46353 0.33222 0.0
H1207 H 0.42705 0.44377 0.4158 0.0
H1208 H 0.45243 0.44763 0.45418 0.0
H1209 H 0.45265 0.4836 0.54856 0.0
H1210 H 0.42737 0.48011 0.5102 0.0
H1211 H 0.32966 0.40349 0.45166 0.0
H1212 H 0.35508 0.4205 0.41187 0.0
H1213 H 0.37255 0.45558 0.52712 0.0
H1214 H 0.34699 0.43831 0.56785 0.0
H1215 H 0.39621 0.44991 0.49784 0.0
H1216 H 0.36022 0.46482 0.42467 0.0
H1217 H 0.33497 0.46103 0.38574 0.0
H1218 H 0.34162 0.4349 0.27217 0.0
H1219 H 0.36682 0.43837 0.31063 0.0
C1220 C 0.45321 0.48443 0.34464 0.0
C1221 C 0.45212 0.47246 0.31267 0.0
C1222 C 0.43923 0.48201 0.3679 0.0
C1223 C 0.42404 0.46771 0.35885 0.0
C1224 C 0.42279 0.45647 0.32411 0.0
C1225 C 0.43675 0.45872 0.30162 0.0
C1226 C 0.40985 0.46321 0.38893 0.0
C1227 C 0.39509 0.46062 0.3685 0.0
C1228 C 0.41037 0.45984 0.43657 0.0
C1229 C 0.42548 0.46186 0.45976 0.0
C1230 C 0.4326 0.45261 0.44447 0.0
C1231 C 0.44695 0.45471 0.46625 0.0
C1232 C 0.45418 0.4659 0.50368 0.0
C1233 C 0.44705 0.47497 0.51948 0.0
C1234 C 0.43272 0.47294 0.49773 0.0
C1235 C 0.33888 0.41481 0.4687 0.0
C1236 C 0.33629 0.4196 0.51284 0.0
C1237 C 0.35338 0.42462 0.44567 0.0
C1238 C 0.36558 0.43953 0.46597 0.0
C1239 C 0.36322 0.4442 0.51059 0.0
C1240 C 0.34865 0.43433 0.53383 0.0
C1241 C 0.38095 0.44972 0.44078 0.0
C1242 C 0.39595 0.4533 0.46205 0.0
C1243 C 0.38065 0.45406 0.3939 0.0
C1244 C 0.36541 0.45182 0.37068 0.0
C1245 C 0.35624 0.45817 0.39155 0.0
C1246 C 0.34194 0.45609 0.36952 0.0
C1247 C 0.33669 0.44772 0.32651 0.0
C1248 C 0.34571 0.4414 0.30546 0.0
C1249 C 0.36003 0.44345 0.32732 0.0
H1250 H 0.32564 0.44616 0.30942 0.0
H1251 H 0.46529 0.46751 0.52052 0.0
H1252 H 0.71467 0.96727 0.45077 0.0
H1253 H 0.70403 0.98292 0.41146 0.0
H1254 H 0.67011 0.9731 0.52197 0.0
H1255 H 0.68068 0.95717 0.5617 0.0
H1256 H 0.6557 0.96967 0.43547 0.0
H1257 H 0.70367 0.00982 0.51975 0.0
H1258 H 0.73269 0.02394 0.54627 0.0
H1259 H 0.74784 0.03612 0.40544 0.0
H1260 H 0.7189 0.02196 0.37797 0.0
H1261 H 0.66245 0.05267 0.37575 0.0
H1262 H 0.67311 0.03712 0.41566 0.0
H1263 H 0.65364 0.00039 0.30457 0.0
H1264 H 0.6426 0.01582 0.26467 0.0
H1265 H 0.69432 0.02751 0.39627 0.0
H1266 H 0.63961 0.96271 0.35203 0.0
H1267 H 0.61002 0.94951 0.33223 0.0
H1268 H 0.60733 0.98816 0.4058 0.0
H1269 H 0.63684 0.00146 0.42655 0.0
C1270 C 0.70491 0.96837 0.46677 0.0
C1271 C 0.69855 0.96107 0.50948 0.0
C1272 C 0.69888 0.97737 0.44427 0.0
C1273 C 0.68645 0.97934 0.46412 0.0
C1274 C 0.67976 0.97174 0.5062 0.0
C1275 C 0.68581 0.96269 0.52886 0.0
C1276 C 0.68069 0.98955 0.44085 0.0
C1277 C 0.66412 0.98232 0.42692 0.0
C1278 C 0.69167 0.00612 0.43036 0.0
C1279 C 0.70911 0.0147 0.44675 0.0
C1280 C 0.71319 0.01541 0.49438 0.0
C1281 C 0.72963 0.02343 0.5096 0.0
C1282 C 0.7421 0.03086 0.47756 0.0
C1283 C 0.73817 0.03034 0.43022 0.0
C1284 C 0.72174 0.02234 0.41481 0.0
C1285 C 0.66054 0.04135 0.35955 0.0
C1286 C 0.65154 0.03536 0.31731 0.0
C1287 C 0.66669 0.0325 0.38238 0.0
C1288 C 0.66395 0.01748 0.36347 0.0
C1289 C 0.65563 0.01182 0.32017 0.0
C1290 C 0.64942 0.02068 0.29729 0.0
C1291 C 0.66936 0.00756 0.39009 0.0
C1292 C 0.68589 0.01485 0.40467 0.0
C1293 C 0.65827 0.99117 0.4021 0.0
C1294 C 0.64046 0.98315 0.3904 0.0
C1295 C 0.63268 0.96835 0.36411 0.0
C1296 C 0.61593 0.96086 0.35271 0.0
C1297 C 0.60681 0.96802 0.36762 0.0
C1298 C 0.61441 0.98266 0.39412 0.0
C1299 C 0.63116 0.99018 0.40567 0.0
H1300 H 0.59385 0.96221 0.35871 0.0
H1301 H 0.75482 0.03706 0.48942 0.0
H1302 H 0.66561 0.09828 0.1679 0.0
H1303 H 0.69002 0.11909 0.12834 0.0
H1304 H 0.71851 0.09907 0.18762 0.0
H1305 H 0.69421 0.0782 0.22599 0.0
H1306 H 0.7363 0.13404 0.18135 0.0
H1307 H 0.69953 0.08409 0.08671 0.0
H1308 H 0.67275 0.06531 0.04834 0.0
H1309 H 0.67514 0.10535 0.97219 0.0
H1310 H 0.70186 0.1244 0.01065 0.0
H1311 H 0.7901 0.12156 0.05811 0.0
H1312 H 0.76738 0.12108 0.09753 0.0
H1313 H 0.76116 0.14811 0.9868 0.0
H1314 H 0.78439 0.14871 0.94624 0.0
H1315 H 0.73169 0.1202 0.01233 0.0
H1316 H 0.77367 0.16751 0.08833 0.0
H1317 H 0.80067 0.18569 0.12623 0.0
H1318 H 0.78897 0.15183 0.23709 0.0
H1319 H 0.762 0.1333 0.19957 0.0
C1320 C 0.67725 0.09876 0.17371 0.0
C1321 C 0.67812 0.08671 0.19992 0.0
C1322 C 0.69113 0.11057 0.15096 0.0
C1323 C 0.70604 0.11055 0.15487 0.0
C1324 C 0.70716 0.09936 0.18429 0.0
C1325 C 0.69329 0.08743 0.20615 0.0
C1326 C 0.71989 0.12036 0.12398 0.0
C1327 C 0.73533 0.13125 0.14427 0.0
C1328 C 0.71848 0.11715 0.07532 0.0
C1329 C 0.70255 0.10568 0.05192 0.0
C1330 C 0.69428 0.08889 0.06201 0.0
C1331 C 0.67913 0.0782 0.04023 0.0
C1332 C 0.67222 0.08414 0.00795 0.0
C1333 C 0.68048 0.10078 0.99728 0.0
C1334 C 0.69563 0.11152 0.01905 0.0
C1335 C 0.78402 0.12748 0.04181 0.0
C1336 C 0.78905 0.13509 -0.00131 0.0
C1337 C 0.77108 0.12733 0.06481 0.0
C1338 C 0.76272 0.13477 0.04556 0.0
C1339 C 0.76758 0.14243 0.00247 0.0
C1340 C 0.78082 0.14277 0.97939 0.0
C1341 C 0.74828 0.13326 0.07014 0.0
C1342 C 0.73269 0.12378 0.04885 0.0
C1343 C 0.74956 0.13787 0.11787 0.0
C1344 C 0.76576 0.149 0.14104 0.0
C1345 C 0.77687 0.16389 0.12068 0.0
C1346 C 0.79218 0.17426 0.14212 0.0
C1347 C 0.79653 0.16992 0.18405 0.0
C1348 C 0.78557 0.15519 0.20465 0.0
C1349 C 0.77024 0.14476 0.18336 0.0
H1350 H 0.80839 0.17797 0.20058 0.0
H1351 H 0.66048 0.07585 0.99113 0.0
H1352 H 0.96795 0.67492 0.93798 0.0
H1353 H 0.97885 0.65947 0.979 0.0
H1354 H 0.0011 0.69815 0.08428 0.0
H1355 H 0.9903 0.71347 0.04407 0.0
H1356 H 0.01046 0.66756 0.00174 0.0
H1357 H 0.99795 0.68221 0.18931 0.0
H1358 H 0.97725 0.68636 0.22922 0.0
H1359 H 0.94127 0.65737 0.12274 0.0
H1360 H 0.96167 0.65283 0.08253 0.0
H1361 H 0.06662 0.67144 0.16888 0.0
H1362 H 0.04754 0.67671 0.12459 0.0
H1363 H 0.00714 0.63039 0.16565 0.0
H1364 H 0.02622 0.62483 0.21014 0.0
H1365 H 0.0009 0.65695 0.17029 0.0
H1366 H 0.01888 0.63109 0.06178 0.0
H1367 H 0.03896 0.62611 0.02135 0.0
H1368 H 0.06185 0.6748 0.96798 0.0
H1369 H 0.04207 0.68018 0.0087 0.0
C1370 C 0.97521 0.6801 0.9698 0.0
C1371 C 0.9782 0.69534 0.98797 0.0
C1372 C 0.98138 0.67128 0.99318 0.0
C1373 C 0.99048 0.67754 0.03513 0.0
C1374 C 0.99379 0.69293 0.05253 0.0
C1375 C 0.98769 0.70172 0.02929 0.0
C1376 C 0.99705 0.66842 0.06067 0.0
C1377 C 0.00823 0.66505 0.03843 0.0
C1378 C 0.99383 0.66482 0.10832 0.0
C1379 C 0.98139 0.66725 0.13277 0.0
C1380 C 0.98559 0.67662 0.17456 0.0
C1381 C 0.97391 0.67907 0.1972 0.0
C1382 C 0.95796 0.67216 0.17849 0.0
C1383 C 0.95364 0.66275 0.13714 0.0
C1384 C 0.96526 0.66025 0.11438 0.0
C1385 C 0.05368 0.66235 0.16885 0.0
C1386 C 0.04799 0.64759 0.19271 0.0
C1387 C 0.04281 0.66538 0.14333 0.0
C1388 C 0.02602 0.65379 0.1412 0.0
C1389 C 0.02011 0.6394 0.16663 0.0
C1390 C 0.03103 0.63627 0.19205 0.0
C1391 C 0.01484 0.65686 0.11181 0.0
C1392 C 0.00284 0.65912 0.13336 0.0
C1393 C 0.01715 0.65925 0.06342 0.0
C1394 C 0.02903 0.65606 0.03854 0.0
C1395 C 0.02827 0.64078 0.0417 0.0
C1396 C 0.03959 0.63788 0.01868 0.0
C1397 C 0.05169 0.65014 0.99216 0.0
C1398 C 0.05247 0.66532 0.98853 0.0
C1399 C 0.04119 0.66829 0.01153 0.0
H1400 H 0.06044 0.64787 0.97436 0.0
H1401 H 0.94895 0.67409 0.19605 0.0
H1402 H 0.3945 0.33036 0.97477 0.0
H1403 H 0.4076 0.35666 0.01822 0.0
H1404 H 0.45517 0.36208 0.99442 0.0
H1405 H 0.44217 0.336 0.94952 0.0
H1406 H 0.44167 0.3614 0.09688 0.0
H1407 H 0.45389 0.38741 0.94636 0.0
H1408 H 0.44619 0.39146 0.86728 0.0
H1409 H 0.41208 0.40435 0.92412 0.0
H1410 H 0.41941 0.40013 0.00355 0.0
H1411 H 0.49237 0.43907 0.20842 0.0
H1412 H 0.4791 0.41346 0.16219 0.0
H1413 H 0.43945 0.42218 0.12499 0.0
H1414 H 0.45332 0.44832 0.16881 0.0
H1415 H 0.449 0.41528 0.05143 0.0
H1416 H 0.43528 0.39016 0.19916 0.0
H1417 H 0.4398 0.38454 0.27995 0.0
H1418 H 0.47239 0.36807 0.23292 0.0
H1419 H 0.46823 0.3738 0.15187 0.0
C1420 C 0.40777 0.33738 0.97788 0.0
C1421 C 0.41739 0.33125 0.95911 0.0
C1422 C 0.41519 0.35232 0.00261 0.0
C1423 C 0.43226 0.36111 0.00946 0.0
C1424 C 0.44196 0.35537 0.9892 0.0
C1425 C 0.43455 0.34059 0.96348 0.0
C1426 C 0.43971 0.37548 0.04138 0.0
C1427 C 0.44358 0.37332 0.08704 0.0
C1428 C 0.44138 0.39062 0.02853 0.0
C1429 C 0.43706 0.39327 0.98084 0.0
C1430 C 0.44462 0.39094 0.94196 0.0
C1431 C 0.44036 0.39331 0.89708 0.0
C1432 C 0.42861 0.39811 0.89066 0.0
C1433 C 0.42115 0.40061 0.92913 0.0
C1434 C 0.42537 0.39825 0.97409 0.0
C1435 C 0.48065 0.43529 0.19115 0.0
C1436 C 0.47384 0.44556 0.19173 0.0
C1437 C 0.47303 0.42063 0.16485 0.0
C1438 C 0.45823 0.41584 0.14014 0.0
C1439 C 0.45094 0.42569 0.14335 0.0
C1440 C 0.45878 0.44054 0.16852 0.0
C1441 C 0.45113 0.4014 0.1077 0.0
C1442 C 0.44721 0.40346 0.06177 0.0
C1443 C 0.44902 0.38602 0.12073 0.0
C1444 C 0.45157 0.38257 0.16947 0.0
C1445 C 0.44351 0.38547 0.20608 0.0
C1446 C 0.44599 0.38224 0.25192 0.0
C1447 C 0.45641 0.376 0.26158 0.0
C1448 C 0.46434 0.37293 0.22539 0.0
C1449 C 0.46191 0.37615 0.17949 0.0
H1450 H 0.45831 0.3735 0.29709 0.0
H1451 H 0.42532 0.39993 0.85589 0.0
H1452 H -0.0004 0.32562 0.53419 0.0
H1453 H 0.01306 0.35316 0.56966 0.0
H1454 H 0.99175 0.36896 0.46244 0.0
H1455 H 0.9779 0.34125 0.42726 0.0
H1456 H 0.03449 0.38317 0.5448 0.0
H1457 H 0.97986 0.39425 0.51178 0.0
H1458 H 0.94977 0.37813 0.50016 0.0
H1459 H 0.94839 0.33861 0.57669 0.0
H1460 H 0.97842 0.35458 0.58932 0.0
H1461 H 0.05985 0.46573 0.59533 0.0
H1462 H 0.04726 0.43866 0.5572 0.0
H1463 H 0.01437 0.41811 0.67135 0.0
H1464 H 0.02666 0.4454 0.70917 0.0
H1465 H -0.00137 0.40551 0.59032 0.0
H1466 H 0.04844 0.41499 0.66413 0.0
H1467 H 0.07812 0.43056 0.68297 0.0
H1468 H 0.08859 0.42641 0.5402 0.0
H1469 H 0.05898 0.41135 0.52005 0.0
C1470 C 0.99791 0.335 0.51785 0.0
C1471 C 0.98752 0.33127 0.47837 0.0
C1472 C 0.00566 0.35073 0.53808 0.0
C1473 C 0.00315 0.36298 0.51915 0.0
C1474 C 0.99357 0.35955 0.47807 0.0
C1475 C 0.98573 0.34377 0.45793 0.0
C1476 C 0.00981 0.37902 0.54398 0.0
C1477 C 0.02669 0.3881 0.55463 0.0
C1478 C -0.0005 0.38518 0.55794 0.0
C1479 C 0.9814 0.37555 0.55103 0.0
C1480 C 0.97312 0.38215 0.52625 0.0
C1481 C 0.95608 0.37303 0.51948 0.0
C1482 C 0.94718 0.35734 0.53754 0.0
C1483 C 0.9553 0.35075 0.56257 0.0
C1484 C 0.97233 0.35982 0.5695 0.0
C1485 C 0.04988 0.45545 0.61222 0.0
C1486 C 0.04428 0.45757 0.65534 0.0
C1487 C 0.04274 0.44001 0.59046 0.0
C1488 C 0.03011 0.42636 0.6119 0.0
C1489 C 0.02416 0.42851 0.65438 0.0
C1490 C 0.03119 0.44405 0.67596 0.0
C1491 C 0.02337 0.40982 0.59026 0.0
C1492 C 0.00646 0.40062 0.58034 0.0
C1493 C 0.03361 0.40336 0.57822 0.0
C1494 C 0.05145 0.41213 0.59048 0.0
C1495 C 0.05706 0.41749 0.63664 0.0
C1496 C 0.07388 0.42623 0.64757 0.0
C1497 C 0.08522 0.42941 0.61286 0.0
C1498 C 0.07978 0.42391 0.56708 0.0
C1499 C 0.06298 0.41531 0.55585 0.0
H1500 H 0.09824 0.43615 0.62142 0.0
H1501 H 0.934 0.3503 0.53222 0.0
H1502 H 0.68414 0.67115 0.67238 0.0
H1503 H 0.70615 0.67282 0.62553 0.0
H1504 H 0.68791 0.62109 0.64144 0.0
H1505 H 0.66538 0.61919 0.68863 0.0
H1506 H 0.72692 0.64766 0.64755 0.0
H1507 H 0.67871 0.62401 0.54854 0.0
H1508 H 0.65245 0.62072 0.51891 0.0
H1509 H 0.67716 0.67076 0.47581 0.0
H1510 H 0.70353 0.67444 0.50588 0.0
H1511 H 0.78884 0.67777 0.47135 0.0
H1512 H 0.7634 0.65719 0.50742 0.0
H1513 H 0.74569 0.6916 0.50757 0.0
H1514 H 0.77058 0.7118 0.47139 0.0
H1515 H 0.72143 0.66161 0.48488 0.0
H1516 H 0.76708 0.68648 0.60264 0.0
H1517 H 0.79332 0.69103 0.63681 0.0
H1518 H 0.77336 0.63895 0.64577 0.0
H1519 H 0.74709 0.63412 0.61102 0.0
C1520 C 0.68485 0.66011 0.66659 0.0
C1521 C 0.67285 0.64498 0.68369 0.0
C1522 C 0.69748 0.66111 0.63988 0.0
C1523 C 0.6985 0.64705 0.62963 0.0
C1524 C 0.68725 0.63206 0.64902 0.0
C1525 C 0.67445 0.63102 0.67598 0.0
C1526 C 0.71064 0.64836 0.59537 0.0
C1527 C 0.7256 0.65016 0.61148 0.0
C1528 C 0.70888 0.65168 0.54847 0.0
C1529 C 0.69309 0.64949 0.5296 0.0
C1530 C 0.67853 0.63434 0.533 0.0
C1531 C 0.66363 0.6324 0.5161 0.0
C1532 C 0.66314 0.64552 0.49551 0.0
C1533 C 0.67756 0.6606 0.49172 0.0
C1534 C 0.6925 0.66261 0.50862 0.0
C1535 C 0.77934 0.68076 0.47828 0.0
C1536 C 0.78179 0.69647 0.46897 0.0
C1537 C 0.76487 0.66904 0.49912 0.0
C1538 C 0.75269 0.6729 0.51067 0.0
C1539 C 0.75486 0.68828 0.49902 0.0
C1540 C 0.76919 0.6999 0.47853 0.0
C1541 C 0.73807 0.66179 0.53762 0.0
C1542 C 0.72259 0.65829 0.52015 0.0
C1543 C 0.73941 0.65693 0.58319 0.0
C1544 C 0.75523 0.65994 0.60371 0.0
C1545 C 0.76835 0.67601 0.61156 0.0
C1546 C 0.78321 0.67864 0.63108 0.0
C1547 C 0.78501 0.66528 0.64337 0.0
C1548 C 0.77196 0.64928 0.63614 0.0
C1549 C 0.7571 0.64659 0.61651 0.0
H1550 H 0.79647 0.66729 0.65866 0.0
H1551 H 0.65159 0.644 0.48246 0.0
H1552 H 0.4064 0.10853 0.45641 0.0
H1553 H 0.42683 0.10714 0.50636 0.0
H1554 H 0.44989 0.15912 0.53684 0.0
H1555 H 0.4292 0.16062 0.48681 0.0
H1556 H 0.47054 0.13835 0.52357 0.0
H1557 H 0.43265 0.14717 0.61439 0.0
H1558 H 0.40528 0.14348 0.62943 0.0
H1559 H 0.38537 0.09138 0.63648 0.0
H1560 H 0.41256 0.09474 0.62043 0.0
H1561 H 0.50049 0.1127 0.72141 0.0
H1562 H 0.4904 0.12929 0.68285 0.0
H1563 H 0.44781 0.085 0.63057 0.0
H1564 H 0.45802 0.06849 0.66769 0.0
H1565 H 0.44151 0.1105 0.66616 0.0
H1566 H 0.47724 0.10139 0.56245 0.0
H1567 H 0.50371 0.10365 0.54295 0.0
H1568 H 0.52763 0.15611 0.56001 0.0
H1569 H 0.5013 0.15411 0.5803 0.0
C1570 C 0.4161 0.11978 0.47258 0.0
C1571 C 0.41611 0.13464 0.46824 0.0
C1572 C 0.42778 0.11897 0.50099 0.0
C1573 C 0.43969 0.13298 0.52556 0.0
C1574 C 0.44077 0.1482 0.51797 0.0
C1575 C 0.42899 0.14903 0.48932 0.0
C1576 C 0.44897 0.13075 0.56394 0.0
C1577 C 0.46451 0.13282 0.5556 0.0
C1578 C 0.44092 0.1233 0.60527 0.0
C1579 C 0.42461 0.12121 0.61588 0.0
C1580 C 0.42241 0.13492 0.61879 0.0
C1581 C 0.40694 0.13289 0.62754 0.0
C1582 C 0.3936 0.11721 0.63387 0.0
C1583 C 0.39572 0.10352 0.63155 0.0
C1584 C 0.41115 0.10548 0.62265 0.0
C1585 C 0.48882 0.10656 0.70244 0.0
C1586 C 0.48002 0.08935 0.69727 0.0
C1587 C 0.48313 0.11602 0.68038 0.0
C1588 C 0.4684 0.10833 0.65383 0.0
C1589 C 0.45917 0.09114 0.65103 0.0
C1590 C 0.46502 0.08173 0.6721 0.0
C1591 C 0.46302 0.1179 0.62561 0.0
C1592 C 0.448 0.11686 0.63549 0.0
C1593 C 0.47162 0.1264 0.58598 0.0
C1594 C 0.48738 0.12759 0.57349 0.0
C1595 C 0.48818 0.11339 0.56246 0.0
C1596 C 0.50314 0.11462 0.55118 0.0
C1597 C 0.51736 0.13001 0.5504 0.0
C1598 C 0.51662 0.1442 0.56075 0.0
C1599 C 0.50168 0.14302 0.57214 0.0
H1600 H 0.52893 0.13094 0.54165 0.0
H1601 H 0.38163 0.11566 0.64064 0.0
H1602 H 0.36058 0.99351 0.05967 0.0
H1603 H 0.384 -4e-05 0.01142 0.0
H1604 H 0.36104 0.94942 0.96382 0.0
H1605 H 0.33727 0.94282 0.01225 0.0
H1606 H 0.40406 0.97807 0.98756 0.0
H1607 H 0.35421 0.95891 0.886 0.0
H1608 H 0.32714 0.95648 0.87138 0.0
H1609 H 0.34891 0.00885 0.88532 0.0
H1610 H 0.37606 0.01153 0.90074 0.0
H1611 H 0.46042 0.01937 0.80287 0.0
H1612 H 0.43638 0.99697 0.83958 0.0
H1613 H 0.4191 0.03047 0.87397 0.0
H1614 H 0.44266 0.05257 0.8373 0.0
H1615 H 0.39416 0.00165 0.84559 0.0
H1616 H 0.44178 0.02157 0.95212 0.0
H1617 H 0.46934 0.02663 0.97512 0.0
H1618 H 0.4528 0.97521 0.95755 0.0
H1619 H 0.42518 0.96989 0.93391 0.0
C1620 C 0.36074 0.98363 0.04021 0.0
C1621 C 0.34706 0.9677 0.03934 0.0
C1622 C 0.37416 0.98733 0.01277 0.0
C1623 C 0.37415 0.9752 0.98386 0.0
C1624 C 0.36124 0.95892 0.98609 0.0
C1625 C 0.34773 0.95516 0.01387 0.0
C1626 C 0.38617 0.98054 0.94628 0.0
C1627 C 0.40181 0.9827 0.95557 0.0
C1628 C 0.38328 0.98693 0.90528 0.0
C1629 C 0.36709 0.98539 0.89479 0.0
C1630 C 0.35318 0.96988 0.88619 0.0
C1631 C 0.33784 0.96847 0.87775 0.0
C1632 C 0.3363 0.9825 0.8775 0.0
C1633 C 0.35012 -0.00201 0.88555 0.0
C1634 C 0.36548 -0.00054 0.89409 0.0
C1635 C 0.45131 0.02183 0.81754 0.0
C1636 C 0.45353 0.03779 0.8175 0.0
C1637 C 0.43765 0.00906 0.83874 0.0
C1638 C 0.42601 0.01207 0.85995 0.0
C1639 C 0.42787 0.02781 0.85785 0.0
C1640 C 0.44145 0.04049 0.83702 0.0
C1641 C 0.41227 -0.0006 0.88681 0.0
C1642 C 0.39631 0.9962 0.87599 0.0
C1643 C 0.41495 0.99215 0.92644 0.0
C1644 C 0.43152 0.99537 0.94065 0.0
C1645 C 0.44407 0.01137 0.95281 0.0
C1646 C 0.45969 0.01428 0.96602 0.0
C1647 C 0.46284 0.00126 0.96762 0.0
C1648 C 0.45036 0.98529 0.95616 0.0
C1649 C 0.43472 0.98232 0.94286 0.0
H1650 H 0.47493 0.00353 0.97788 0.0
H1651 H 0.32441 0.98138 0.87101 0.0
H1652 H 0.09544 0.46859 0.74084 0.0
H1653 H 0.11209 0.45819 0.77841 0.0
H1654 H 0.09326 0.46117 0.91187 0.0
H1655 H 0.0764 0.47106 0.87442 0.0
H1656 H 0.12834 0.47168 0.91153 0.0
H1657 H 0.07427 0.42683 0.85969 0.0
H1658 H 0.05265 0.41118 0.79974 0.0
H1659 H 0.08645 0.40299 0.72119 0.0
H1660 H 0.10834 0.4188 0.78045 0.0
H1661 H 0.13809 0.41782 0.05963 0.0
H1662 H 0.12791 0.4331 0.01515 0.0
H1663 H 0.13417 0.41241 0.88712 0.0
H1664 H 0.14321 0.39636 0.93163 0.0
H1665 H 0.10811 0.41264 0.87774 0.0
H1666 H 0.16153 0.45413 0.93054 0.0
H1667 H 0.18428 0.47041 0.98689 0.0
H1668 H 0.15461 0.48634 0.05756 0.0
H1669 H 0.1316 0.46999 0.002 0.0
C1670 C 0.09523 0.46737 0.77828 0.0
C1671 C 0.08475 0.47057 0.80498 0.0
C1672 C 0.10465 0.46141 0.79962 0.0
C1673 C 0.10383 0.45892 0.84785 0.0
C1674 C 0.09411 0.46311 0.8747 0.0
C1675 C 0.08448 0.46869 0.85334 0.0
C1676 C 0.11163 0.45037 0.87011 0.0
C1677 C 0.12399 0.45877 0.90432 0.0
C1678 C 0.10614 0.43366 0.85971 0.0
C1679 C 0.09297 0.42412 0.82423 0.0
C1680 C 0.07712 0.4218 0.82946 0.0
C1681 C 0.06481 0.41287 0.79567 0.0
C1682 C 0.06817 0.40607 0.75674 0.0
C1683 C 0.08386 0.40822 0.75145 0.0
C1684 C 0.09622 0.41717 0.7851 0.0
C1685 C 0.13715 0.4165 0.02201 0.0
C1686 C 0.14137 0.40591 -0.00097 0.0
C1687 C 0.13152 0.42536 0.99652 0.0
C1688 C 0.13062 0.42425 0.94753 0.0
C1689 C 0.13474 0.41353 0.92477 0.0
C1690 C 0.1399 0.40434 0.95027 0.0
C1691 C 0.12496 0.43387 0.91989 0.0
C1692 C 0.11285 0.42563 0.88469 0.0
C1693 C 0.13097 0.45084 0.92881 0.0
C1694 C 0.14479 0.46071 0.9623 0.0
C1695 C 0.15982 0.46101 0.95828 0.0
C1696 C 0.17276 0.47027 0.99006 0.0
C1697 C 0.17087 0.47937 0.02584 0.0
C1698 C 0.15605 0.47927 0.02985 0.0
C1699 C 0.14305 0.47003 0.99819 0.0
H1700 H 0.18091 0.48653 0.05041 0.0
H1701 H 0.05863 0.39915 0.73062 0.0
H1702 H 0.62993 0.6731 0.81249 0.0
H1703 H 0.64424 0.70119 0.84451 0.0
H1704 H 0.69005 0.7009 0.84384 0.0
H1705 H 0.67535 0.67226 0.81569 0.0
H1706 H 0.68926 0.71348 0.91915 0.0
H1707 H 0.6781 0.72333 0.76313 0.0
H1708 H 0.66108 0.71969 0.69283 0.0
H1709 H 0.6322 0.73498 0.7705 0.0
H1710 H 0.64892 0.73852 0.84142 0.0
H1711 H 0.73966 0.80091 0.94753 0.0
H1712 H 0.72515 0.77368 0.90919 0.0
H1713 H 0.67959 0.76559 0.96555 0.0
H1714 H 0.69408 0.79265 0.00506 0.0
H1715 H 0.68069 0.75819 0.86158 0.0
H1716 H 0.69266 0.74722 0.01811 0.0
H1717 H 0.7109 0.75126 0.08576 0.0
H1718 H 0.7406 0.73921 0.00025 0.0
H1719 H 0.72259 0.73523 0.93194 0.0
C1720 C 0.64308 0.67918 0.8188 0.0
C1721 C 0.65164 0.67072 0.81172 0.0
C1722 C 0.6513 0.69526 0.83676 0.0
C1723 C 0.66833 0.70337 0.84587 0.0
C1724 C 0.67691 0.69495 0.83729 0.0
C1725 C 0.66858 0.67866 0.82103 0.0
C1726 C 0.67706 0.72022 0.86691 0.0
C1727 C 0.68756 0.72328 0.90581 0.0
C1728 C 0.67465 0.73302 0.85042 0.0
C1729 C 0.66469 0.73108 0.80767 0.0
C1730 C 0.66807 0.72584 0.76527 0.0
C1731 C 0.65848 0.7238 0.72531 0.0
C1732 C 0.64555 0.72708 0.72722 0.0
C1733 C 0.64222 0.73245 0.76907 0.0
C1734 C 0.65176 0.7345 0.80915 0.0
C1735 C 0.72654 0.79336 0.9515 0.0
C1736 C 0.71795 0.79882 0.97916 0.0
C1737 C 0.71831 0.77785 0.92973 0.0
C1738 C 0.70138 0.76776 0.93474 0.0
C1739 C 0.69269 0.77331 0.96138 0.0
C1740 C 0.70096 0.78869 0.98393 0.0
C1741 C 0.69281 0.75121 0.91289 0.0
C1742 C 0.68237 0.74829 0.87419 0.0
C1743 C 0.69551 0.73863 0.92884 0.0
C1744 C 0.70639 0.74111 0.96983 0.0
C1745 C 0.70317 0.74559 0.01363 0.0
C1746 C 0.71343 0.7478 0.05212 0.0
C1747 C 0.72692 0.74551 0.04728 0.0
C1748 C 0.73016 0.74098 0.00394 0.0
C1749 C 0.71991 0.73872 0.96535 0.0
H1750 H 0.73484 0.74722 0.07712 0.0
H1751 H 0.63813 0.72547 0.69626 0.0
H1752 H 0.76174 0.98363 0.65057 0.0
H1753 H 0.78283 0.00845 0.6919 0.0
H1754 H 0.75675 0.03372 0.65502 0.0
H1755 H 0.73547 0.00891 0.61473 0.0
H1756 H 0.79267 0.05369 0.656 0.0
H1757 H 0.74654 0.01417 0.74909 0.0
H1758 H 0.7297 0.98637 0.77943 0.0
H1759 H 0.77263 0.98924 0.84365 0.0
H1760 H 0.78977 0.01698 0.81293 0.0
H1761 H 0.79297 0.1097 0.81002 0.0
H1762 H 0.78433 0.08437 0.76524 0.0
H1763 H 0.81643 0.07426 0.8497 0.0
H1764 H 0.8252 0.0998 0.89523 0.0
H1765 H 0.7853 0.04604 0.82636 0.0
H1766 H 0.83011 0.08877 0.75084 0.0
H1767 H 0.84704 0.1164 0.71974 0.0
H1768 H 0.80831 0.10758 0.62196 0.0
H1769 H 0.791 0.08 0.65302 0.0
C1770 C 0.76081 0.99466 0.64996 0.0
C1771 C 0.74693 0.99437 0.62989 0.0
C1772 C 0.77283 0.00877 0.67364 0.0
C1773 C 0.7712 0.02278 0.67672 0.0
C1774 C 0.75818 0.02299 0.65287 0.0
C1775 C 0.74603 0.00883 0.63002 0.0
C1776 C 0.78136 0.03631 0.71015 0.0
C1777 C 0.79123 0.05207 0.69326 0.0
C1778 C 0.7798 0.03398 0.75875 0.0
C1779 C 0.76944 0.01754 0.7783 0.0
C1780 C 0.75239 0.00882 0.76945 0.0
C1781 C 0.74279 0.99308 0.7867 0.0
C1782 C 0.75009 0.98601 0.81332 0.0
C1783 C 0.767 0.99471 0.82292 0.0
C1784 C 0.77666 0.01044 0.8056 0.0
C1785 C 0.79804 0.102 0.81961 0.0
C1786 C 0.80991 0.10681 0.85568 0.0
C1787 C 0.79314 0.08757 0.79387 0.0
C1788 C 0.80007 0.07772 0.80352 0.0
C1789 C 0.8111 0.08185 0.84153 0.0
C1790 C 0.81604 0.09637 0.86749 0.0
C1791 C 0.79608 0.06357 0.77207 0.0
C1792 C 0.78732 0.04768 0.78929 0.0
C1793 C 0.79881 0.06577 0.72374 0.0
C1794 C 0.80922 0.08231 0.70444 0.0
C1795 C 0.82514 0.09275 0.72291 0.0
C1796 C 0.83482 0.10841 0.70527 0.0
C1797 C 0.82875 0.11375 0.66892 0.0
C1798 C 0.813 0.10343 0.6501 0.0
C1799 C 0.80325 0.08776 0.66768 0.0
H1800 H 0.83626 0.12588 0.65531 0.0
H1801 H 0.74265 0.97381 0.82658 0.0
H1802 H 0.11785 0.78174 0.67709 0.0
H1803 H 0.09271 0.77426 0.7166 0.0
H1804 H 0.09069 0.81495 0.65641 0.0
H1805 H 0.11646 0.82287 0.61616 0.0
H1806 H 0.08275 0.80972 0.75602 0.0
H1807 H 0.0653 0.78024 0.61097 0.0
H1808 H 0.06634 0.76379 0.54485 0.0
H1809 H 0.05745 0.72471 0.63647 0.0
H1810 H 0.0566 0.74101 0.70327 0.0
H1811 H -0.00148 0.75965 0.84705 0.0
H1812 H 0.02216 0.77857 0.80112 0.0
H1813 H 0.04357 0.74775 0.82033 0.0
H1814 H 0.02025 0.729 0.86566 0.0
H1815 H 0.03794 0.75236 0.72674 0.0
H1816 H 0.06069 0.78421 0.87209 0.0
H1817 H 0.0605 0.80085 0.93901 0.0
H1818 H 0.05901 0.83541 0.84596 0.0
H1819 H 0.05898 0.81884 0.77843 0.0
C1820 C 0.11221 0.78923 0.67189 0.0
C1821 C 0.11921 0.80287 0.64287 0.0
C1822 C 0.09777 0.78489 0.69472 0.0
C1823 C 0.08974 0.79392 0.68903 0.0
C1824 C 0.09672 0.8078 0.66108 0.0
C1825 C 0.11137 0.81224 0.63797 0.0
C1826 C 0.07379 0.78807 0.71173 0.0
C1827 C 0.07271 0.79735 0.74887 0.0
C1828 C 0.06074 0.77192 0.70244 0.0
C1829 C 0.0609 0.76188 0.66219 0.0
C1830 C 0.06363 0.76816 0.61707 0.0
C1831 C 0.06419 0.75886 0.57946 0.0
C1832 C 0.06197 0.74321 0.58646 0.0
C1833 C 0.05914 0.73682 0.63108 0.0
C1834 C 0.05858 0.74608 0.66883 0.0
C1835 C 0.00855 0.75725 0.84265 0.0
C1836 C 0.00748 0.74277 0.85947 0.0
C1837 C 0.02198 0.768 0.81625 0.0
C1838 C 0.03447 0.7644 0.80681 0.0
C1839 C 0.03397 0.75064 0.82676 0.0
C1840 C 0.02064 0.73996 0.85277 0.0
C1841 C 0.04727 0.77365 0.77252 0.0
C1842 C 0.04769 0.76494 0.73301 0.0
C1843 C 0.05958 0.79027 0.77964 0.0
C1844 C 0.05959 0.80018 0.82024 0.0
C1845 C 0.06014 0.79527 0.8659 0.0
C1846 C 0.06012 0.80471 0.90394 0.0
C1847 C 0.05967 0.81914 0.89674 0.0
C1848 C 0.05931 0.8242 0.85148 0.0
C1849 C 0.05932 0.8148 0.81332 0.0
H1850 H 0.05966 0.82644 0.92623 0.0
H1851 H 0.06243 0.73604 0.5573 0.0
H1852 H 0.29332 0.34838 0.625 0.0
H1853 H 0.29695 0.3259 0.65397 0.0
H1854 H 0.34946 0.35678 0.64632 0.0
H1855 H 0.34593 0.379 0.61733 0.0
H1856 H 0.34026 0.32566 0.62188 0.0
H1857 H 0.32895 0.35479 0.74637 0.0
H1858 H 0.31125 0.36355 0.7851 0.0
H1859 H 0.27349 0.31317 0.79623 0.0
H1860 H 0.29093 0.30415 0.75701 0.0
H1861 H 0.38984 0.33249 0.8054 0.0
H1862 H 0.36955 0.33515 0.75917 0.0
H1863 H 0.33474 0.28381 0.77517 0.0
H1864 H 0.35536 0.28086 0.8219 0.0
H1865 H 0.32525 0.31324 0.78702 0.0
H1866 H 0.3435 0.28587 0.68035 0.0
H1867 H 0.36445 0.28072 0.64632 0.0
H1868 H 0.39185 0.33088 0.60542 0.0
H1869 H 0.37117 0.33642 0.6396 0.0
C1870 C 0.30559 0.35017 0.62834 0.0
C1871 C 0.31936 0.36551 0.61937 0.0
C1872 C 0.30765 0.33736 0.64512 0.0
C1873 C 0.32349 0.33972 0.65283 0.0
C1874 C 0.33712 0.35464 0.64065 0.0
C1875 C 0.33509 0.36739 0.62429 0.0
C1876 C 0.3264 0.32767 0.67789 0.0
C1877 C 0.33667 0.3226 0.65765 0.0
C1878 C 0.32149 0.32341 0.72436 0.0
C1879 C 0.31112 0.32882 0.74828 0.0
C1880 C 0.31683 0.3456 0.75685 0.0
C1881 C 0.30685 0.35061 0.77889 0.0
C1882 C 0.29123 0.33893 0.79297 0.0
C1883 C 0.28557 0.32221 0.78519 0.0
C1884 C 0.29549 0.31714 0.76305 0.0
C1885 C 0.37788 0.32169 0.79948 0.0
C1886 C 0.37432 0.30639 0.8169 0.0
C1887 C 0.36627 0.32328 0.77313 0.0
C1888 C 0.35075 0.30967 0.76347 0.0
C1889 C 0.34671 0.29445 0.78233 0.0
C1890 C 0.35847 0.2928 0.80897 0.0
C1891 C 0.33956 0.31183 0.73138 0.0
C1892 C 0.32796 0.3153 0.75038 0.0
C1893 C 0.34344 0.31488 0.68393 0.0
C1894 C 0.35577 0.31154 0.66255 0.0
C1895 C 0.35402 0.29582 0.66427 0.0
C1896 C 0.36585 0.29283 0.64495 0.0
C1897 C 0.37947 0.30545 0.62377 0.0
C1898 C 0.38128 0.3211 0.62176 0.0
C1899 C 0.36948 0.32416 0.64098 0.0
H1900 H 0.38862 0.3031 0.60891 0.0
H1901 H 0.28352 0.34282 0.81002 0.0
H1902 H 0.01215 0.29381 0.39743 0.0
H1903 H 0.03648 0.29657 0.35799 0.0
H1904 H 0.02099 0.31015 0.23225 0.0
H1905 H 0.99702 0.30732 0.27084 0.0
H1906 H 0.03403 0.29165 0.21083 0.0
H1907 H 0.04757 0.33904 0.31329 0.0
H1908 H 0.05012 0.35256 0.38972 0.0
H1909 H 0.08198 0.33539 0.44009 0.0
H1910 H 0.07943 0.3216 0.36404 0.0
H1911 H 0.09583 0.36041 0.10096 0.0
H1912 H 0.07299 0.33956 0.14457 0.0
H1913 H 0.10595 0.32683 0.21402 0.0
H1914 H 0.12882 0.34738 0.16893 0.0
H1915 H 0.08697 0.33742 0.27313 0.0
H1916 H 0.07899 0.29777 0.15595 0.0
H1917 H 0.0766 0.287 0.07572 0.0
H1918 H 0.03422 0.29191 0.04932 0.0
H1919 H 0.03649 0.30296 0.12918 0.0
C1920 C 0.01384 0.29701 0.3611 0.0
C1921 C 0.00286 0.30058 0.33734 0.0
C1922 C 0.02773 0.29865 0.33867 0.0
C1923 C 0.03065 0.30372 0.29223 0.0
C1924 C 0.01905 0.30619 0.26796 0.0
C1925 C 0.00539 0.3047 0.29024 0.0
C1926 C 0.04634 0.30821 0.2693 0.0
C1927 C 0.04566 0.30152 0.22468 0.0
C1928 C 0.06161 0.32085 0.28768 0.0
C1929 C 0.06311 0.32909 0.33333 0.0
C1930 C 0.055 0.33804 0.34082 0.0
C1931 C 0.05647 0.34577 0.38402 0.0
C1932 C 0.06615 0.34478 0.4198 0.0
C1933 C 0.07444 0.3361 0.4124 0.0
C1934 C 0.07298 0.32831 0.36928 0.0
C1935 C 0.09805 0.35273 0.12425 0.0
C1936 C 0.11397 0.35529 0.13124 0.0
C1937 C 0.08505 0.34087 0.14923 0.0
C1938 C 0.0878 0.33165 0.18242 0.0
C1939 C 0.10358 0.33374 0.18828 0.0
C1940 C 0.11657 0.34535 0.1623 0.0
C1941 C 0.07443 0.32134 0.21403 0.0
C1942 C 0.07554 0.32703 0.26011 0.0
C1943 C 0.05949 0.30801 0.19664 0.0
C1944 C 0.05794 0.30124 0.14861 0.0
C1945 C 0.06921 0.29665 0.13297 0.0
C1946 C 0.06787 0.29048 0.08755 0.0
C1947 C 0.05527 0.28878 0.05744 0.0
C1948 C 0.04397 0.29322 0.07271 0.0
C1949 C 0.04526 0.29941 0.1181 0.0
H1950 H 0.05426 0.28401 0.02228 0.0
H1951 H 0.06728 0.35078 0.45322 0.0
H1952 H 0.82563 0.7659 0.3784 0.0
H1953 H 0.81608 0.78147 0.33256 0.0
H1954 H 0.78492 0.73796 0.24864 0.0
H1955 H 0.79464 0.72254 0.29342 0.0
H1956 H 0.80164 0.76282 0.19464 0.0
H1957 H 0.76942 0.75304 0.3303 0.0
H1958 H 0.76435 0.75345 0.41407 0.0
H1959 H 0.79285 0.80611 0.41852 0.0
H1960 H 0.7983 0.806 0.33482 0.0
H1961 H 0.74102 0.77802 0.0974 0.0
H1962 H 0.75718 0.76854 0.14059 0.0
H1963 H 0.79088 0.81826 0.18765 0.0
H1964 H 0.77481 0.82788 0.14372 0.0
H1965 H 0.77672 0.7942 0.25996 0.0
H1966 H 0.80553 0.80246 0.11753 0.0
H1967 H 0.80745 0.79995 0.03264 0.0
H1968 H 0.78171 0.7474 0.04049 0.0
H1969 H 0.77947 0.74959 0.1254 0.0
C1970 C 0.8166 0.75965 0.35053 0.0
C1971 C 0.81093 0.74305 0.33927 0.0
C1972 C 0.81116 0.76855 0.32437 0.0
C1973 C 0.79983 0.76088 0.28705 0.0
C1974 C 0.79379 0.74417 0.27694 0.0
C1975 C 0.79929 0.73535 0.30274 0.0
C1976 C 0.79452 0.77023 0.25738 0.0
C1977 C 0.79613 0.76962 0.20898 0.0
C1978 C 0.78764 0.77939 0.27611 0.0
C1979 C 0.78446 0.77951 0.32645 0.0
C1980 C 0.77475 0.76471 0.34924 0.0
C1981 C 0.77177 0.76488 0.39668 0.0
C1982 C 0.77833 0.77979 0.42164 0.0
C1983 C 0.78782 0.79457 0.39916 0.0
C1984 C 0.79086 0.79446 0.35172 0.0
C1985 C 0.75207 0.78696 0.11611 0.0
C1986 C 0.75668 0.80365 0.11724 0.0
C1987 C 0.76128 0.78155 0.14073 0.0
C1988 C 0.77518 0.79272 0.16728 0.0
C1989 C 0.78018 0.80949 0.16725 0.0
C1990 C 0.77109 0.81496 0.1419 0.0
C1991 C 0.78363 0.78652 0.19747 0.0
C1992 C 0.78256 0.78768 0.24588 0.0
C1993 C 0.79069 0.77758 0.17876 0.0
C1994 C 0.79227 0.7762 0.12781 0.0
C1995 C 0.80021 0.79037 0.10112 0.0
C1996 C 0.80137 0.789 0.053 0.0
C1997 C 0.79469 0.77352 0.03117 0.0
C1998 C 0.78689 0.75938 0.05745 0.0
C1999 C 0.7857 0.76068 0.1056 0.0
H2000 H 0.79558 0.77249 0.9939 0.0
H2001 H 0.776 0.7799 0.45837 0.0
H2002 H 0.32811 0.97627 0.22768 0.0
H2003 H 0.33987 0.00262 0.27026 0.0
H2004 H 0.3216 0.02134 0.16264 0.0
H2005 H 0.30964 0.99498 0.12019 0.0
H2006 H 0.36237 0.03373 0.24895 0.0
H2007 H 0.30752 0.04441 0.21332 0.0
H2008 H 0.27755 0.02808 0.19946 0.0
H2009 H 0.27603 0.98807 0.27365 0.0
H2010 H 0.30594 0.00424 0.28852 0.0
H2011 H 0.38414 0.11658 0.28382 0.0
H2012 H 0.37392 0.08857 0.25427 0.0
H2013 H 0.34155 0.06978 0.37012 0.0
H2014 H 0.35149 0.09783 0.39942 0.0
H2015 H 0.32577 0.05558 0.29069 0.0
H2016 H 0.37568 0.06641 0.36637 0.0
H2017 H 0.40531 0.08214 0.38582 0.0
H2018 H 0.41618 0.07741 0.2438 0.0
H2019 H 0.38661 0.0619 0.22328 0.0
C2020 C 0.32668 0.98604 0.213 0.0
C2021 C 0.31786 0.98359 0.17088 0.0
C2022 C 0.33343 0.00106 0.23728 0.0
C2023 C 0.33138 0.01378 0.21983 0.0
C2024 C 0.32306 0.01154 0.17698 0.0
C2025 C 0.31629 0.99652 0.15273 0.0
C2026 C 0.33758 0.0293 0.24688 0.0
C2027 C 0.3544 0.03853 0.25824 0.0
C2028 C 0.32704 0.03526 0.25995 0.0
C2029 C 0.309 0.0255 0.25166 0.0
C2030 C 0.30078 0.03216 0.22685 0.0
C2031 C 0.2838 0.02292 0.21878 0.0
C2032 C 0.2749 0.00703 0.23554 0.0
C2033 C 0.28295 0.00036 0.26053 0.0
C2034 C 0.29991 0.00955 0.26874 0.0
C2035 C 0.37489 0.10648 0.30309 0.0
C2036 C 0.36858 0.10933 0.34386 0.0
C2037 C 0.36914 0.0905 0.28633 0.0
C2038 C 0.35713 0.07714 0.31036 0.0
C2039 C 0.35085 0.07996 0.35119 0.0
C2040 C 0.35654 0.09596 0.36786 0.0
C2041 C 0.35065 0.06026 0.29163 0.0
C2042 C 0.33375 0.05076 0.28178 0.0
C2043 C 0.36108 0.05392 0.2809 0.0
C2044 C 0.3789 0.06307 0.29322 0.0
C2045 C 0.38438 0.06881 0.3392 0.0
C2046 C 0.40117 0.07768 0.35044 0.0
C2047 C 0.41262 0.08078 0.31606 0.0
C2048 C 0.4073 0.075 0.2704 0.0
C2049 C 0.39052 0.06615 0.25896 0.0
H2050 H 0.42561 0.08766 0.32481 0.0
H2051 H 0.26176 -0.0001 0.22923 0.0
loop_
_geom_bond_atom_site_label_1
_geom_bond_atom_site_label_2
_geom_bond_distance
_geom_bond_site_symmetry_2
_ccdc_geom_bond_type
Co0 O1 2.216 . S
Co0 O2 2.091 . S
Co0 O4 2.004 . S
Co0 O10 2.021 . S
Co0 O12 2.137 . S
Co0 O13 2.244 . S
O1 Co0 2.216 . S
O1 C8 1.247 . S
O2 Co0 2.091 . S
O2 C8 1.261 . S
C3 O12 1.247 . S
C3 O13 1.272 . S
O4 Co0 2.004 . S
O4 C9 1.259 . S
Co5 O6 2.061 . S
Co5 O11 2.052 . S
Co5 O13 2.135 . S
O6 Co5 2.061 . S
O6 C9 1.235 . S
C7 O10 1.238 . S
C7 O11 1.241 . S
C8 O1 1.247 . S
C8 O2 1.261 . S
C9 O4 1.259 . S
C9 O6 1.235 . S
O10 Co0 2.021 . S
O10 C7 1.238 . S
O11 Co5 2.052 . S
O11 C7 1.241 . S
O12 Co0 2.137 . S
O12 C3 1.247 . S
O13 Co0 2.244 . S
O13 C3 1.272 . S
O13 Co5 2.135 . S
Co14 O15 2.216 . S
Co14 O16 2.091 . S
Co14 O18 2.004 . S
Co14 O24 2.021 . S
Co14 O26 2.137 . S
Co14 O27 2.244 . S
O15 Co14 2.216 . S
O15 C22 1.247 . S
O16 Co14 2.091 . S
O16 C22 1.261 . S
C17 O26 1.247 . S
C17 O27 1.272 . S
O18 Co14 2.004 . S
O18 C23 1.259 . S
Co19 O20 2.061 . S
Co19 O25 2.052 . S
Co19 O27 2.135 . S
O20 Co19 2.061 . S
O20 C23 1.235 . S
C21 O24 1.238 . S
C21 O25 1.241 . S
C22 O15 1.247 . S
C22 O16 1.261 . S
C23 O18 1.259 . S
C23 O20 1.235 . S
O24 Co14 2.021 . S
O24 C21 1.238 . S
O25 Co19 2.052 . S
O25 C21 1.241 . S
O26 Co14 2.137 . S
O26 C17 1.247 . S
O27 Co14 2.244 . S
O27 C17 1.272 . S
O27 Co19 2.135 . S
Co28 O29 2.216 . S
Co28 O30 2.091 . S
Co28 O32 2.004 . S
Co28 O38 2.021 . S
Co28 O40 2.137 . S
Co28 O41 2.244 . S
O29 Co28 2.216 . S
O29 C36 1.247 . S
O30 Co28 2.091 . S
O30 C36 1.261 . S
C31 O40 1.247 . S
C31 O41 1.272 . S
O32 Co28 2.004 . S
O32 C37 1.259 . S
Co33 O34 2.061 . S
Co33 O39 2.052 . S
Co33 O41 2.135 . S
O34 Co33 2.061 . S
O34 C37 1.235 . S
C35 O38 1.238 . S
C35 O39 1.241 . S
C36 O29 1.247 . S
C36 O30 1.261 . S
C37 O32 1.259 . S
C37 O34 1.235 . S
O38 Co28 2.021 . S
O38 C35 1.238 . S
O39 Co33 2.052 . S
O39 C35 1.241 . S
O40 Co28 2.137 . S
O40 C31 1.247 . S
O41 Co28 2.244 . S
O41 C31 1.272 . S
O41 Co33 2.135 . S
Co42 O43 2.216 . S
Co42 O44 2.091 . S
Co42 O46 2.004 . S
Co42 O52 2.021 . S
Co42 O54 2.137 . S
Co42 O55 2.244 . S
O43 Co42 2.216 . S
O43 C50 1.247 . S
O44 Co42 2.091 . S
O44 C50 1.261 . S
C45 O54 1.247 . S
C45 O55 1.272 . S
O46 Co42 2.004 . S
O46 C51 1.259 . S
Co47 O48 2.061 . S
Co47 O53 2.052 . S
Co47 O55 2.135 . S
O48 Co47 2.061 . S
O48 C51 1.235 . S
C49 O52 1.238 . S
C49 O53 1.241 . S
C50 O43 1.247 . S
C50 O44 1.261 . S
C51 O46 1.259 . S
C51 O48 1.235 . S
O52 Co42 2.021 . S
O52 C49 1.238 . S
O53 Co47 2.052 . S
O53 C49 1.241 . S
O54 Co42 2.137 . S
O54 C45 1.247 . S
O55 Co42 2.244 . S
O55 C45 1.272 . S
O55 Co47 2.135 . S
Co56 O57 2.216 . S
Co56 O58 2.091 . S
Co56 O60 2.004 . S
Co56 O66 2.021 . S
Co56 O68 2.137 . S
Co56 O69 2.244 . S
O57 Co56 2.216 . S
O57 C64 1.247 . S
O58 Co56 2.091 . S
O58 C64 1.261 . S
C59 O68 1.247 . S
C59 O69 1.272 . S
O60 Co56 2.004 . S
O60 C65 1.259 . S
Co61 O62 2.061 . S
Co61 O67 2.052 . S
Co61 O69 2.135 . S
O62 Co61 2.061 . S
O62 C65 1.235 . S
C63 O66 1.238 . S
C63 O67 1.241 . S
C64 O57 1.247 . S
C64 O58 1.261 . S
C65 O60 1.259 . S
C65 O62 1.235 . S
O66 Co56 2.021 . S
O66 C63 1.238 . S
O67 Co61 2.052 . S
O67 C63 1.241 . S
O68 Co56 2.137 . S
O68 C59 1.247 . S
O69 Co56 2.244 . S
O69 C59 1.272 . S
O69 Co61 2.135 . S
Co70 O71 2.216 . S
Co70 O72 2.091 . S
Co70 O74 2.004 . S
Co70 O80 2.021 . S
Co70 O82 2.137 . S
Co70 O83 2.244 . S
O71 Co70 2.216 . S
O71 C78 1.247 . S
O72 Co70 2.091 . S
O72 C78 1.261 . S
C73 O82 1.247 . S
C73 O83 1.272 . S
O74 Co70 2.004 . S
O74 C79 1.259 . S
Co75 O76 2.061 . S
Co75 O81 2.052 . S
Co75 O83 2.135 . S
O76 Co75 2.061 . S
O76 C79 1.235 . S
C77 O80 1.238 . S
C77 O81 1.241 . S
C78 O71 1.247 . S
C78 O72 1.261 . S
C79 O74 1.259 . S
C79 O76 1.235 . S
O80 Co70 2.021 . S
O80 C77 1.238 . S
O81 Co75 2.052 . S
O81 C77 1.241 . S
O82 Co70 2.137 . S
O82 C73 1.247 . S
O83 Co70 2.244 . S
O83 C73 1.272 . S
O83 Co75 2.135 . S
Co84 O85 2.216 . S
Co84 O86 2.091 . S
Co84 O88 2.004 . S
Co84 O94 2.021 . S
Co84 O96 2.137 . S
Co84 O97 2.244 . S
O85 Co84 2.216 . S
O85 C92 1.247 . S
O86 Co84 2.091 . S
O86 C92 1.261 . S
C87 O96 1.247 . S
C87 O97 1.272 . S
O88 Co84 2.004 . S
O88 C93 1.259 . S
Co89 O90 2.061 . S
Co89 O95 2.052 . S
Co89 O97 2.135 . S
O90 Co89 2.061 . S
O90 C93 1.235 . S
C91 O94 1.238 . S
C91 O95 1.241 . S
C92 O85 1.247 . S
C92 O86 1.261 . S
C93 O88 1.259 . S
C93 O90 1.235 . S
O94 Co84 2.021 . S
O94 C91 1.238 . S
O95 Co89 2.052 . S
O95 C91 1.241 . S
O96 Co84 2.137 . S
O96 C87 1.247 . S
O97 Co84 2.244 . S
O97 C87 1.272 . S
O97 Co89 2.135 . S
Co98 O99 2.216 . S
Co98 O100 2.091 . S
Co98 O102 2.004 . S
Co98 O108 2.021 . S
Co98 O110 2.137 . S
Co98 O111 2.244 . S
O99 Co98 2.216 . S
O99 C106 1.247 . S
O100 Co98 2.091 . S
O100 C106 1.261 . S
C101 O110 1.247 . S
C101 O111 1.272 . S
O102 Co98 2.004 . S
O102 C107 1.259 . S
Co103 O104 2.061 . S
Co103 O109 2.052 . S
Co103 O111 2.135 . S
O104 Co103 2.061 . S
O104 C107 1.235 . S
C105 O108 1.238 . S
C105 O109 1.241 . S
C106 O99 1.247 . S
C106 O100 1.261 . S
C107 O102 1.259 . S
C107 O104 1.235 . S
O108 Co98 2.021 . S
O108 C105 1.238 . S
O109 Co103 2.052 . S
O109 C105 1.241 . S
O110 Co98 2.137 . S
O110 C101 1.247 . S
O111 Co98 2.244 . S
O111 C101 1.272 . S
O111 Co103 2.135 . S
Co112 O113 2.216 . S
Co112 O114 2.091 . S
Co112 O116 2.004 . S
Co112 O122 2.021 . S
Co112 O124 2.137 . S
Co112 O125 2.244 . S
O113 Co112 2.216 . S
O113 C120 1.247 . S
O114 Co112 2.091 . S
O114 C120 1.261 . S
C115 O124 1.247 . S
C115 O125 1.272 . S
O116 Co112 2.004 . S
O116 C121 1.259 . S
Co117 O118 2.061 . S
Co117 O123 2.052 . S
Co117 O125 2.135 . S
O118 Co117 2.061 . S
O118 C121 1.235 . S
C119 O122 1.238 . S
C119 O123 1.241 . S
C120 O113 1.247 . S
C120 O114 1.261 . S
C121 O116 1.259 . S
C121 O118 1.235 . S
O122 Co112 2.021 . S
O122 C119 1.238 . S
O123 Co117 2.052 . S
O123 C119 1.241 . S
O124 Co112 2.137 . S
O124 C115 1.247 . S
O125 Co112 2.244 . S
O125 C115 1.272 . S
O125 Co117 2.135 . S
Co126 O127 2.216 . S
Co126 O128 2.091 . S
Co126 O130 2.004 . S
Co126 O136 2.021 . S
Co126 O138 2.137 . S
Co126 O139 2.244 . S
O127 Co126 2.216 . S
O127 C134 1.247 . S
O128 Co126 2.091 . S
O128 C134 1.261 . S
C129 O138 1.247 . S
C129 O139 1.272 . S
O130 Co126 2.004 . S
O130 C135 1.259 . S
Co131 O132 2.061 . S
Co131 O137 2.052 . S
Co131 O139 2.135 . S
O132 Co131 2.061 . S
O132 C135 1.235 . S
C133 O136 1.238 . S
C133 O137 1.241 . S
C134 O127 1.247 . S
C134 O128 1.261 . S
C135 O130 1.259 . S
C135 O132 1.235 . S
O136 Co126 2.021 . S
O136 C133 1.238 . S
O137 Co131 2.052 . S
O137 C133 1.241 . S
O138 Co126 2.137 . S
O138 C129 1.247 . S
O139 Co126 2.244 . S
O139 C129 1.272 . S
O139 Co131 2.135 . S
Co140 O141 2.216 . S
Co140 O142 2.091 . S
Co140 O144 2.004 . S
Co140 O150 2.021 . S
Co140 O152 2.137 . S
Co140 O153 2.244 . S
O141 Co140 2.216 . S
O141 C148 1.247 . S
O142 Co140 2.091 . S
O142 C148 1.261 . S
C143 O152 1.247 . S
C143 O153 1.272 . S
O144 Co140 2.004 . S
O144 C149 1.259 . S
Co145 O146 2.061 . S
Co145 O151 2.052 . S
Co145 O153 2.135 . S
O146 Co145 2.061 . S
O146 C149 1.235 . S
C147 O150 1.238 . S
C147 O151 1.241 . S
C148 O141 1.247 . S
C148 O142 1.261 . S
C149 O144 1.259 . S
C149 O146 1.235 . S
O150 Co140 2.021 . S
O150 C147 1.238 . S
O151 Co145 2.052 . S
O151 C147 1.241 . S
O152 Co140 2.137 . S
O152 C143 1.247 . S
O153 Co140 2.244 . S
O153 C143 1.272 . S
O153 Co145 2.135 . S
Co154 O155 2.216 . S
Co154 O156 2.091 . S
Co154 O158 2.004 . S
Co154 O164 2.021 . S
Co154 O166 2.137 . S
Co154 O167 2.244 . S
O155 Co154 2.216 . S
O155 C162 1.247 . S
O156 Co154 2.091 . S
O156 C162 1.261 . S
C157 O166 1.247 . S
C157 O167 1.272 . S
O158 Co154 2.004 . S
O158 C163 1.259 . S
Co159 O160 2.061 . S
Co159 O165 2.052 . S
Co159 O167 2.135 . S
O160 Co159 2.061 . S
O160 C163 1.235 . S
C161 O164 1.238 . S
C161 O165 1.241 . S
C162 O155 1.247 . S
C162 O156 1.261 . S
C163 O158 1.259 . S
C163 O160 1.235 . S
O164 Co154 2.021 . S
O164 C161 1.238 . S
O165 Co159 2.052 . S
O165 C161 1.241 . S
O166 Co154 2.137 . S
O166 C157 1.247 . S
O167 Co154 2.244 . S
O167 C157 1.272 . S
O167 Co159 2.135 . S
Co168 O169 2.216 . S
Co168 O170 2.091 . S
Co168 O172 2.004 . S
Co168 O178 2.021 . S
Co168 O180 2.137 . S
Co168 O181 2.244 . S
O169 Co168 2.216 . S
O169 C176 1.247 . S
O170 Co168 2.091 . S
O170 C176 1.261 . S
C171 O180 1.247 . S
C171 O181 1.272 . S
O172 Co168 2.004 . S
O172 C177 1.259 . S
Co173 O174 2.061 . S
Co173 O179 2.052 . S
Co173 O181 2.135 . S
O174 Co173 2.061 . S
O174 C177 1.235 . S
C175 O178 1.238 . S
C175 O179 1.241 . S
C176 O169 1.247 . S
C176 O170 1.261 . S
C177 O172 1.259 . S
C177 O174 1.235 . S
O178 Co168 2.021 . S
O178 C175 1.238 . S
O179 Co173 2.052 . S
O179 C175 1.241 . S
O180 Co168 2.137 . S
O180 C171 1.247 . S
O181 Co168 2.244 . S
O181 C171 1.272 . S
O181 Co173 2.135 . S
Co182 O183 2.216 . S
Co182 O184 2.091 . S
Co182 O186 2.004 . S
Co182 O192 2.021 . S
Co182 O194 2.137 . S
Co182 O195 2.244 . S
O183 Co182 2.216 . S
O183 C190 1.247 . S
O184 Co182 2.091 . S
O184 C190 1.261 . S
C185 O194 1.247 . S
C185 O195 1.272 . S
O186 Co182 2.004 . S
O186 C191 1.259 . S
Co187 O188 2.061 . S
Co187 O193 2.052 1_556 S
Co187 O195 2.135 . S
O188 Co187 2.061 . S
O188 C191 1.235 . S
C189 O192 1.238 . S
C189 O193 1.241 1_556 S
C190 O183 1.247 . S
C190 O184 1.261 . S
C191 O186 1.259 . S
C191 O188 1.235 . S
O192 Co182 2.021 . S
O192 C189 1.238 . S
O193 Co187 2.052 1_554 S
O193 C189 1.241 1_554 S
O194 Co182 2.137 . S
O194 C185 1.247 . S
O195 Co182 2.244 . S
O195 C185 1.272 . S
O195 Co187 2.135 . S
Co196 O197 2.216 . S
Co196 O198 2.091 . S
Co196 O200 2.004 . S
Co196 O206 2.021 . S
Co196 O208 2.137 . S
Co196 O209 2.244 . S
O197 Co196 2.216 . S
O197 C204 1.247 . S
O198 Co196 2.091 . S
O198 C204 1.261 . S
C199 O208 1.247 . S
C199 O209 1.272 . S
O200 Co196 2.004 . S
O200 C205 1.259 . S
Co201 O202 2.061 . S
Co201 O207 2.052 . S
Co201 O209 2.135 . S
O202 Co201 2.061 . S
O202 C205 1.235 . S
C203 O206 1.238 . S
C203 O207 1.241 . S
C204 O197 1.247 . S
C204 O198 1.261 . S
C205 O200 1.259 . S
C205 O202 1.235 . S
O206 Co196 2.021 . S
O206 C203 1.238 . S
O207 Co201 2.052 . S
O207 C203 1.241 . S
O208 Co196 2.137 . S
O208 C199 1.247 . S
O209 Co196 2.244 . S
O209 C199 1.272 . S
O209 Co201 2.135 . S
Co210 O211 2.216 . S
Co210 O212 2.091 . S
Co210 O214 2.004 . S
Co210 O220 2.021 . S
Co210 O222 2.137 . S
Co210 O223 2.244 . S
O211 Co210 2.216 . S
O211 C218 1.247 . S
O212 Co210 2.091 . S
O212 C218 1.261 . S
C213 O222 1.247 . S
C213 O223 1.272 . S
O214 Co210 2.004 . S
O214 C219 1.259 . S
Co215 O216 2.061 . S
Co215 O221 2.052 . S
Co215 O223 2.135 . S
O216 Co215 2.061 . S
O216 C219 1.235 . S
C217 O220 1.238 . S
C217 O221 1.241 . S
C218 O211 1.247 . S
C218 O212 1.261 . S
C219 O214 1.259 . S
C219 O216 1.235 . S
O220 Co210 2.021 . S
O220 C217 1.238 . S
O221 Co215 2.052 . S
O221 C217 1.241 . S
O222 Co210 2.137 . S
O222 C213 1.247 . S
O223 Co210 2.244 . S
O223 C213 1.272 . S
O223 Co215 2.135 . S
Co224 O225 2.216 . S
Co224 O226 2.091 . S
Co224 O228 2.004 . S
Co224 O234 2.021 . S
Co224 O236 2.137 . S
Co224 O237 2.244 . S
O225 Co224 2.216 . S
O225 C232 1.247 . S
O226 Co224 2.091 . S
O226 C232 1.261 . S
C227 O236 1.247 . S
C227 O237 1.272 . S
O228 Co224 2.004 . S
O228 C233 1.259 . S
Co229 O230 2.061 . S
Co229 O235 2.052 . S
Co229 O237 2.135 . S
O230 Co229 2.061 . S
O230 C233 1.235 . S
C231 O234 1.238 . S
C231 O235 1.241 . S
C232 O225 1.247 . S
C232 O226 1.261 . S
C233 O228 1.259 . S
C233 O230 1.235 . S
O234 Co224 2.021 . S
O234 C231 1.238 . S
O235 Co229 2.052 . S
O235 C231 1.241 . S
O236 Co224 2.137 . S
O236 C227 1.247 . S
O237 Co224 2.244 . S
O237 C227 1.272 . S
O237 Co229 2.135 . S
Co238 O239 2.216 . S
Co238 O240 2.091 . S
Co238 O242 2.004 . S
Co238 O248 2.021 . S
Co238 O250 2.137 . S
Co238 O251 2.244 . S
O239 Co238 2.216 . S
O239 C246 1.247 . S
O240 Co238 2.091 . S
O240 C246 1.261 . S
C241 O250 1.247 . S
C241 O251 1.272 . S
O242 Co238 2.004 . S
O242 C247 1.259 . S
Co243 O244 2.061 . S
Co243 O249 2.052 . S
Co243 O251 2.135 . S
O244 Co243 2.061 . S
O244 C247 1.235 . S
C245 O248 1.238 . S
C245 O249 1.241 . S
C246 O239 1.247 . S
C246 O240 1.261 . S
C247 O242 1.259 . S
C247 O244 1.235 . S
O248 Co238 2.021 . S
O248 C245 1.238 . S
O249 Co243 2.052 . S
O249 C245 1.241 . S
O250 Co238 2.137 . S
O250 C241 1.247 . S
O251 Co238 2.244 . S
O251 C241 1.272 . S
O251 Co243 2.135 . S
H252 C270 0.951 . S
H253 C272 0.951 . S
H254 C274 0.950 . S
H255 C275 0.950 . S
H256 C277 0.950 . S
H257 C280 0.950 . S
H258 C281 0.950 . S
H259 C283 0.950 1_655 S
H260 C284 0.950 . S
H261 C285 0.951 . S
H262 C287 0.951 . S
H263 C289 0.950 . S
H264 C290 0.950 . S
H265 C292 0.950 . S
H266 C295 0.950 . S
H267 C296 0.950 . S
H268 C298 0.950 . S
H269 C299 0.950 . S
C270 H252 0.951 . S
C270 C271 1.366 . S
C270 C272 1.388 . S
C271 C270 1.366 . S
C271 C275 1.385 . S
C272 H253 0.951 . S
C272 C270 1.388 . S
C272 C273 1.366 . S
C273 C272 1.366 . S
C273 C274 1.414 . S
C273 C276 1.499 . S
C274 H254 0.950 . S
C274 C273 1.414 . S
C274 C275 1.374 . S
C275 H255 0.950 . S
C275 C271 1.385 . S
C275 C274 1.374 . S
C276 C273 1.499 . S
C276 C277 1.373 . S
C276 C278 1.389 . S
C277 H256 0.950 . S
C277 C276 1.373 . S
C277 C293 1.377 1_556 S
C278 C276 1.389 . S
C278 C279 1.524 . S
C278 C292 1.377 1_556 S
C279 C278 1.524 . S
C279 C280 1.397 . S
C279 C284 1.363 . S
C280 H257 0.950 . S
C280 C279 1.397 . S
C280 C281 1.334 . S
C281 H258 0.950 . S
C281 C280 1.334 . S
C281 C282 1.287 . S
C282 C281 1.287 . S
C282 C283 1.524 . S
C282 H301 0.913 . S
C283 H259 0.950 1_455 S
C283 C282 1.524 . S
C283 C284 1.415 . S
C284 H260 0.950 . S
C284 C279 1.363 . S
C284 C283 1.415 . S
C285 H261 0.951 . S
C285 C286 1.366 . S
C285 C287 1.388 . S
C286 C285 1.366 . S
C286 C290 1.385 . S
C287 H262 0.951 . S
C287 C285 1.388 . S
C287 C288 1.366 . S
C288 C287 1.366 . S
C288 C289 1.414 . S
C288 C291 1.499 . S
C289 H263 0.950 . S
C289 C288 1.414 . S
C289 C290 1.374 . S
C290 H264 0.950 . S
C290 C286 1.385 . S
C290 C289 1.374 . S
C291 C288 1.499 . S
C291 C292 1.373 . S
C291 C293 1.389 . S
C292 H265 0.950 . S
C292 C278 1.377 1_554 S
C292 C291 1.373 . S
C293 C277 1.377 1_554 S
C293 C291 1.389 . S
C293 C294 1.524 . S
C294 C293 1.524 . S
C294 C295 1.397 . S
C294 C299 1.363 . S
C295 H266 0.950 . S
C295 C294 1.397 . S
C295 C296 1.334 . S
C296 H267 0.950 . S
C296 C295 1.334 . S
C296 C297 1.287 . S
C297 C296 1.287 . S
C297 C298 1.524 . S
C297 H300 0.999 . S
C298 H268 0.950 . S
C298 C297 1.524 . S
C298 C299 1.415 . S
C299 H269 0.950 . S
C299 C294 1.363 . S
C299 C298 1.415 . S
H300 C297 0.999 . S
H301 C282 0.913 . S
H302 C320 0.951 . S
H303 C322 0.951 . S
H304 C324 0.950 . S
H305 C325 0.950 . S
H306 C327 0.950 . S
H307 C330 0.950 . S
H308 C331 0.950 . S
H309 C333 0.950 . S
H310 C334 0.950 . S
H311 C335 0.951 . S
H312 C337 0.951 . S
H313 C339 0.950 . S
H314 C340 0.950 . S
H315 C342 0.950 . S
H316 C345 0.950 . S
H317 C346 0.950 . S
H318 C348 0.950 . S
H319 C349 0.950 . S
C320 H302 0.951 . S
C320 C321 1.366 . S
C320 C322 1.388 . S
C321 C320 1.366 . S
C321 C325 1.385 . S
C322 H303 0.951 . S
C322 C320 1.388 . S
C322 C323 1.366 . S
C323 C322 1.366 . S
C323 C324 1.414 . S
C323 C326 1.499 . S
C324 H304 0.950 . S
C324 C323 1.414 . S
C324 C325 1.374 . S
C325 H305 0.950 . S
C325 C321 1.385 . S
C325 C324 1.374 . S
C326 C323 1.499 . S
C326 C327 1.373 1_556 S
C326 C328 1.389 . S
C327 H306 0.950 . S
C327 C326 1.373 1_554 S
C327 C343 1.377 . S
C328 C326 1.389 . S
C328 C329 1.524 . S
C328 C342 1.377 . S
C329 C328 1.524 . S
C329 C330 1.397 . S
C329 C334 1.363 . S
C330 H307 0.950 . S
C330 C329 1.397 . S
C330 C331 1.334 . S
C331 H308 0.950 . S
C331 C330 1.334 . S
C331 C332 1.287 . S
C332 C331 1.287 . S
C332 C333 1.524 . S
C332 H351 0.913 . S
C333 H309 0.950 . S
C333 C332 1.524 . S
C333 C334 1.415 . S
C334 H310 0.950 . S
C334 C329 1.363 . S
C334 C333 1.415 . S
C335 H311 0.951 . S
C335 C336 1.366 . S
C335 C337 1.388 . S
C336 C335 1.366 . S
C336 C340 1.385 . S
C337 H312 0.951 . S
C337 C335 1.388 . S
C337 C338 1.366 . S
C338 C337 1.366 . S
C338 C339 1.414 . S
C338 C341 1.499 . S
C339 H313 0.950 . S
C339 C338 1.414 . S
C339 C340 1.374 . S
C340 H314 0.950 . S
C340 C336 1.385 . S
C340 C339 1.374 . S
C341 C338 1.499 . S
C341 C342 1.373 1_554 S
C341 C343 1.389 . S
C342 H315 0.950 . S
C342 C328 1.377 . S
C342 C341 1.373 1_556 S
C343 C327 1.377 . S
C343 C341 1.389 . S
C343 C344 1.524 . S
C344 C343 1.524 . S
C344 C345 1.397 . S
C344 C349 1.363 . S
C345 H316 0.950 . S
C345 C344 1.397 . S
C345 C346 1.334 . S
C346 H317 0.950 . S
C346 C345 1.334 . S
C346 C347 1.287 . S
C347 C346 1.287 . S
C347 C348 1.524 . S
C347 H350 0.999 . S
C348 H318 0.950 . S
C348 C347 1.524 . S
C348 C349 1.415 . S
C349 H319 0.950 . S
C349 C344 1.363 . S
C349 C348 1.415 . S
H350 C347 0.999 . S
H351 C332 0.913 . S
H352 C370 0.951 . S
H353 C372 0.951 . S
H354 C374 0.950 . S
H355 C375 0.950 . S
H356 C377 0.953 . S
H357 C380 0.950 . S
H358 C381 0.950 . S
H359 C383 0.950 . S
H360 C384 0.950 . S
H361 C385 0.951 . S
H362 C387 0.951 . S
H363 C389 0.950 . S
H364 C390 0.950 . S
H365 C392 0.950 . S
H366 C395 0.950 . S
H367 C396 0.950 . S
H368 C398 0.950 . S
H369 C399 0.950 . S
C370 H352 0.951 . S
C370 C371 1.366 . S
C370 C372 1.388 . S
C371 C370 1.366 . S
C371 C375 1.385 . S
C372 H353 0.951 . S
C372 C370 1.388 . S
C372 C373 1.366 . S
C373 C372 1.366 . S
C373 C374 1.414 . S
C373 C376 1.499 . S
C374 H354 0.950 . S
C374 C373 1.414 . S
C374 C375 1.374 . S
C375 H355 0.950 . S
C375 C371 1.385 . S
C375 C374 1.374 . S
C376 C373 1.499 . S
C376 C377 1.373 . S
C376 C378 1.389 . S
C377 H356 0.953 . S
C377 C376 1.373 . S
C377 C393 1.377 1_554 S
C378 C376 1.389 . S
C378 C379 1.524 . S
C378 C392 1.377 . S
C379 C378 1.524 . S
C379 C380 1.397 . S
C379 C384 1.363 . S
C380 H357 0.950 . S
C380 C379 1.397 . S
C380 C381 1.334 . S
C381 H358 0.950 . S
C381 C380 1.334 . S
C381 C382 1.287 . S
C382 C381 1.287 . S
C382 C383 1.524 . S
C382 H401 0.913 . S
C383 H359 0.950 . S
C383 C382 1.524 . S
C383 C384 1.415 . S
C384 H360 0.950 . S
C384 C379 1.363 . S
C384 C383 1.415 . S
C385 H361 0.951 . S
C385 C386 1.366 . S
C385 C387 1.388 . S
C386 C385 1.366 . S
C386 C390 1.385 . S
C387 H362 0.951 . S
C387 C385 1.388 . S
C387 C388 1.366 . S
C388 C387 1.366 . S
C388 C389 1.414 . S
C388 C391 1.499 . S
C389 H363 0.950 . S
C389 C388 1.414 . S
C389 C390 1.374 . S
C390 H364 0.950 . S
C390 C386 1.385 . S
C390 C389 1.374 . S
C391 C388 1.499 . S
C391 C392 1.373 1_556 S
C391 C393 1.389 . S
C392 H365 0.950 . S
C392 C378 1.377 . S
C392 C391 1.373 1_554 S
C393 C377 1.377 1_556 S
C393 C391 1.389 . S
C393 C394 1.524 . S
C394 C393 1.524 . S
C394 C395 1.397 . S
C394 C399 1.363 . S
C395 H366 0.950 . S
C395 C394 1.397 . S
C395 C396 1.334 . S
C396 H367 0.950 . S
C396 C395 1.334 . S
C396 C397 1.287 . S
C397 C396 1.287 . S
C397 C398 1.524 . S
C397 H400 0.999 . S
C398 H368 0.950 . S
C398 C397 1.524 . S
C398 C399 1.415 . S
C399 H369 0.950 . S
C399 C394 1.363 . S
C399 C398 1.415 . S
H400 C397 0.999 . S
H401 C382 0.913 . S
H402 C420 0.951 . S
H403 C422 0.951 . S
H404 C424 0.950 . S
H405 C425 0.950 . S
H406 C427 0.950 . S
H407 C430 0.950 . S
H408 C431 0.950 . S
H409 C433 0.950 1_565 S
H410 C434 0.950 . S
H411 C435 0.951 . S
H412 C437 0.951 . S
H413 C439 0.950 . S
H414 C440 0.950 . S
H415 C442 0.950 . S
H416 C445 0.950 . S
H417 C446 0.950 . S
H418 C448 0.950 . S
H419 C449 0.950 . S
C420 H402 0.951 . S
C420 C421 1.366 . S
C420 C422 1.388 . S
C421 C420 1.366 . S
C421 C425 1.385 . S
C422 H403 0.951 . S
C422 C420 1.388 . S
C422 C423 1.366 . S
C423 C422 1.366 . S
C423 C424 1.414 . S
C423 C426 1.499 . S
C424 H404 0.950 . S
C424 C423 1.414 . S
C424 C425 1.374 . S
C425 H405 0.950 . S
C425 C421 1.385 . S
C425 C424 1.374 . S
C426 C423 1.499 . S
C426 C427 1.373 . S
C426 C428 1.389 . S
C427 H406 0.950 . S
C427 C426 1.373 . S
C427 C443 1.377 . S
C428 C426 1.389 . S
C428 C429 1.524 . S
C428 C442 1.377 . S
C429 C428 1.524 . S
C429 C430 1.397 . S
C429 C434 1.363 . S
C430 H407 0.950 . S
C430 C429 1.397 . S
C430 C431 1.334 . S
C431 H408 0.950 . S
C431 C430 1.334 . S
C431 C432 1.287 . S
C432 C431 1.287 . S
C432 C433 1.524 . S
C432 H451 0.913 . S
C433 H409 0.950 1_545 S
C433 C432 1.524 . S
C433 C434 1.415 . S
C434 H410 0.950 . S
C434 C429 1.363 . S
C434 C433 1.415 . S
C435 H411 0.951 . S
C435 C436 1.366 . S
C435 C437 1.388 . S
C436 C435 1.366 . S
C436 C440 1.385 . S
C437 H412 0.951 . S
C437 C435 1.388 . S
C437 C438 1.366 . S
C438 C437 1.366 . S
C438 C439 1.414 . S
C438 C441 1.499 . S
C439 H413 0.950 . S
C439 C438 1.414 . S
C439 C440 1.374 . S
C440 H414 0.950 . S
C440 C436 1.385 . S
C440 C439 1.374 . S
C441 C438 1.499 . S
C441 C442 1.373 . S
C441 C443 1.389 . S
C442 H415 0.950 . S
C442 C428 1.377 . S
C442 C441 1.373 . S
C443 C427 1.377 . S
C443 C441 1.389 . S
C443 C444 1.524 . S
C444 C443 1.524 . S
C444 C445 1.397 . S
C444 C449 1.363 . S
C445 H416 0.950 . S
C445 C444 1.397 . S
C445 C446 1.334 . S
C446 H417 0.950 . S
C446 C445 1.334 . S
C446 C447 1.287 . S
C447 C446 1.287 . S
C447 C448 1.524 . S
C447 H450 0.999 . S
C448 H418 0.950 . S
C448 C447 1.524 . S
C448 C449 1.415 . S
C449 H419 0.950 . S
C449 C444 1.363 . S
C449 C448 1.415 . S
H450 C447 0.999 . S
H451 C432 0.913 . S
H452 C470 0.951 . S
H453 C472 0.951 . S
H454 C474 0.950 . S
H455 C475 0.950 . S
H456 C477 0.950 . S
H457 C480 0.950 . S
H458 C481 0.950 . S
H459 C483 0.950 . S
H460 C484 0.950 . S
H461 C485 0.951 . S
H462 C487 0.951 . S
H463 C489 0.950 . S
H464 C490 0.950 . S
H465 C492 0.950 . S
H466 C495 0.950 . S
H467 C496 0.950 . S
H468 C498 0.950 . S
H469 C499 0.950 . S
C470 H452 0.951 . S
C470 C471 1.366 . S
C470 C472 1.388 . S
C471 C470 1.366 . S
C471 C475 1.385 . S
C472 H453 0.951 . S
C472 C470 1.388 . S
C472 C473 1.366 . S
C473 C472 1.366 . S
C473 C474 1.414 . S
C473 C476 1.499 . S
C474 H454 0.950 . S
C474 C473 1.414 . S
C474 C475 1.374 . S
C475 H455 0.950 . S
C475 C471 1.385 . S
C475 C474 1.374 . S
C476 C473 1.499 . S
C476 C477 1.373 . S
C476 C478 1.389 . S
C477 H456 0.950 . S
C477 C476 1.373 . S
C477 C493 1.377 . S
C478 C476 1.389 . S
C478 C479 1.524 . S
C478 C492 1.377 . S
C479 C478 1.524 . S
C479 C480 1.397 . S
C479 C484 1.363 . S
C480 H457 0.950 . S
C480 C479 1.397 . S
C480 C481 1.334 . S
C481 H458 0.950 . S
C481 C480 1.334 . S
C481 C482 1.287 . S
C482 C481 1.287 . S
C482 C483 1.524 . S
C482 H501 0.913 . S
C483 H459 0.950 . S
C483 C482 1.524 . S
C483 C484 1.415 . S
C484 H460 0.950 . S
C484 C479 1.363 . S
C484 C483 1.415 . S
C485 H461 0.951 . S
C485 C486 1.366 . S
C485 C487 1.388 . S
C486 C485 1.366 . S
C486 C490 1.385 . S
C487 H462 0.951 . S
C487 C485 1.388 . S
C487 C488 1.366 . S
C488 C487 1.366 . S
C488 C489 1.414 . S
C488 C491 1.499 . S
C489 H463 0.950 . S
C489 C488 1.414 . S
C489 C490 1.374 . S
C490 H464 0.950 . S
C490 C486 1.385 . S
C490 C489 1.374 . S
C491 C488 1.499 . S
C491 C492 1.373 . S
C491 C493 1.389 . S
C492 H465 0.950 . S
C492 C478 1.377 . S
C492 C491 1.373 . S
C493 C477 1.377 . S
C493 C491 1.389 . S
C493 C494 1.524 . S
C494 C493 1.524 . S
C494 C495 1.397 . S
C494 C499 1.363 . S
C495 H466 0.950 . S
C495 C494 1.397 . S
C495 C496 1.334 . S
C496 H467 0.950 . S
C496 C495 1.334 . S
C496 C497 1.287 . S
C497 C496 1.287 . S
C497 C498 1.524 . S
C497 H500 0.999 . S
C498 H468 0.950 . S
C498 C497 1.524 . S
C498 C499 1.415 . S
C499 H469 0.950 . S
C499 C494 1.363 . S
C499 C498 1.415 . S
H500 C497 0.999 . S
H501 C482 0.913 . S
H502 C520 0.951 . S
H503 C522 0.951 . S
H504 C524 0.950 . S
H505 C525 0.950 . S
H506 C527 0.950 . S
H507 C530 0.950 . S
H508 C531 0.950 . S
H509 C533 0.950 . S
H510 C534 0.950 . S
H511 C535 0.951 . S
H512 C537 0.951 . S
H513 C539 0.950 . S
H514 C540 0.950 . S
H515 C542 0.950 . S
H516 C545 0.950 . S
H517 C546 0.950 . S
H518 C548 0.950 . S
H519 C549 0.950 . S
C520 H502 0.951 . S
C520 C521 1.366 . S
C520 C522 1.388 . S
C521 C520 1.366 . S
C521 C525 1.385 . S
C522 H503 0.951 . S
C522 C520 1.388 . S
C522 C523 1.366 . S
C523 C522 1.366 . S
C523 C524 1.414 . S
C523 C526 1.499 . S
C524 H504 0.950 . S
C524 C523 1.414 . S
C524 C525 1.374 . S
C525 H505 0.950 . S
C525 C521 1.385 . S
C525 C524 1.374 . S
C526 C523 1.499 . S
C526 C527 1.373 . S
C526 C528 1.389 . S
C527 H506 0.950 . S
C527 C526 1.373 . S
C527 C543 1.377 . S
C528 C526 1.389 . S
C528 C529 1.524 . S
C528 C542 1.377 . S
C529 C528 1.524 . S
C529 C530 1.397 . S
C529 C534 1.363 . S
C530 H507 0.950 . S
C530 C529 1.397 . S
C530 C531 1.334 . S
C531 H508 0.950 . S
C531 C530 1.334 . S
C531 C532 1.287 . S
C532 C531 1.287 . S
C532 C533 1.524 . S
C532 H551 0.913 . S
C533 H509 0.950 . S
C533 C532 1.524 . S
C533 C534 1.415 . S
C534 H510 0.950 . S
C534 C529 1.363 . S
C534 C533 1.415 . S
C535 H511 0.951 . S
C535 C536 1.366 . S
C535 C537 1.388 . S
C536 C535 1.366 . S
C536 C540 1.385 . S
C537 H512 0.951 . S
C537 C535 1.388 . S
C537 C538 1.366 . S
C538 C537 1.366 . S
C538 C539 1.414 . S
C538 C541 1.499 . S
C539 H513 0.950 . S
C539 C538 1.414 . S
C539 C540 1.374 . S
C540 H514 0.950 . S
C540 C536 1.385 . S
C540 C539 1.374 . S
C541 C538 1.499 . S
C541 C542 1.373 . S
C541 C543 1.389 . S
C542 H515 0.950 . S
C542 C528 1.377 . S
C542 C541 1.373 . S
C543 C527 1.377 . S
C543 C541 1.389 . S
C543 C544 1.524 . S
C544 C543 1.524 . S
C544 C545 1.397 . S
C544 C549 1.363 . S
C545 H516 0.950 . S
C545 C544 1.397 . S
C545 C546 1.334 . S
C546 H517 0.950 . S
C546 C545 1.334 . S
C546 C547 1.287 . S
C547 C546 1.287 . S
C547 C548 1.524 . S
C547 H550 0.999 . S
C548 H518 0.950 . S
C548 C547 1.524 . S
C548 C549 1.415 . S
C549 H519 0.950 . S
C549 C544 1.363 . S
C549 C548 1.415 . S
H550 C547 0.999 . S
H551 C532 0.913 . S
H552 C570 0.951 . S
H553 C572 0.951 . S
H554 C574 0.950 . S
H555 C575 0.950 . S
H556 C577 0.950 . S
H557 C580 0.950 . S
H558 C581 0.950 . S
H559 C583 0.950 . S
H560 C584 0.950 . S
H561 C585 0.951 . S
H562 C587 0.951 . S
H563 C589 0.950 . S
H564 C590 0.950 . S
H565 C592 0.950 . S
H566 C595 0.950 . S
H567 C596 0.950 . S
H568 C598 0.950 . S
H569 C599 0.950 . S
C570 H552 0.951 . S
C570 C571 1.366 . S
C570 C572 1.388 . S
C571 C570 1.366 . S
C571 C575 1.385 . S
C572 H553 0.951 . S
C572 C570 1.388 . S
C572 C573 1.366 . S
C573 C572 1.366 . S
C573 C574 1.414 . S
C573 C576 1.499 . S
C574 H554 0.950 . S
C574 C573 1.414 . S
C574 C575 1.374 . S
C575 H555 0.950 . S
C575 C571 1.385 . S
C575 C574 1.374 . S
C576 C573 1.499 . S
C576 C577 1.373 . S
C576 C578 1.389 . S
C577 H556 0.950 . S
C577 C576 1.373 . S
C577 C593 1.377 . S
C578 C576 1.389 . S
C578 C579 1.524 . S
C578 C592 1.377 . S
C579 C578 1.524 . S
C579 C580 1.397 . S
C579 C584 1.363 . S
C580 H557 0.950 . S
C580 C579 1.397 . S
C580 C581 1.334 . S
C581 H558 0.950 . S
C581 C580 1.334 . S
C581 C582 1.287 . S
C582 C581 1.287 . S
C582 C583 1.524 . S
C582 H601 0.913 . S
C583 H559 0.950 . S
C583 C582 1.524 . S
C583 C584 1.415 . S
C584 H560 0.950 . S
C584 C579 1.363 . S
C584 C583 1.415 . S
C585 H561 0.951 . S
C585 C586 1.366 . S
C585 C587 1.388 . S
C586 C585 1.366 . S
C586 C590 1.385 . S
C587 H562 0.951 . S
C587 C585 1.388 . S
C587 C588 1.366 . S
C588 C587 1.366 . S
C588 C589 1.414 . S
C588 C591 1.499 . S
C589 H563 0.950 . S
C589 C588 1.414 . S
C589 C590 1.374 . S
C590 H564 0.950 . S
C590 C586 1.385 . S
C590 C589 1.374 . S
C591 C588 1.499 . S
C591 C592 1.373 . S
C591 C593 1.389 . S
C592 H565 0.950 . S
C592 C578 1.377 . S
C592 C591 1.373 . S
C593 C577 1.377 . S
C593 C591 1.389 . S
C593 C594 1.524 . S
C594 C593 1.524 . S
C594 C595 1.397 . S
C594 C599 1.363 . S
C595 H566 0.950 . S
C595 C594 1.397 . S
C595 C596 1.334 . S
C596 H567 0.950 . S
C596 C595 1.334 . S
C596 C597 1.287 . S
C597 C596 1.287 . S
C597 C598 1.524 . S
C597 H600 0.999 . S
C598 H568 0.950 . S
C598 C597 1.524 . S
C598 C599 1.415 . S
C599 H569 0.950 . S
C599 C594 1.363 . S
C599 C598 1.415 . S
H600 C597 0.999 . S
H601 C582 0.913 . S
H602 C620 0.951 . S
H603 C622 0.951 . S
H604 C624 0.950 . S
H605 C625 0.950 . S
H606 C627 0.950 . S
H607 C630 0.950 . S
H608 C631 0.950 . S
H609 C633 0.950 . S
H610 C634 0.950 . S
H611 C635 0.951 . S
H612 C637 0.951 . S
H613 C639 0.950 . S
H614 C640 0.950 . S
H615 C642 0.950 . S
H616 C645 0.950 . S
H617 C646 0.950 . S
H618 C648 0.950 . S
H619 C649 0.950 . S
C620 H602 0.951 . S
C620 C621 1.366 . S
C620 C622 1.388 . S
C621 C620 1.366 . S
C621 C625 1.385 . S
C622 H603 0.951 . S
C622 C620 1.388 . S
C622 C623 1.366 . S
C623 C622 1.366 . S
C623 C624 1.414 . S
C623 C626 1.499 . S
C624 H604 0.950 . S
C624 C623 1.414 . S
C624 C625 1.374 . S
C625 H605 0.950 . S
C625 C621 1.385 . S
C625 C624 1.374 . S
C626 C623 1.499 . S
C626 C627 1.373 . S
C626 C628 1.389 . S
C627 H606 0.950 . S
C627 C626 1.373 . S
C627 C643 1.377 . S
C628 C626 1.389 . S
C628 C629 1.524 . S
C628 C642 1.377 . S
C629 C628 1.524 . S
C629 C630 1.397 . S
C629 C634 1.363 . S
C630 H607 0.950 . S
C630 C629 1.397 . S
C630 C631 1.334 . S
C631 H608 0.950 . S
C631 C630 1.334 . S
C631 C632 1.287 . S
C632 C631 1.287 . S
C632 C633 1.524 . S
C632 H651 0.913 . S
C633 H609 0.950 . S
C633 C632 1.524 . S
C633 C634 1.415 . S
C634 H610 0.950 . S
C634 C629 1.363 . S
C634 C633 1.415 . S
C635 H611 0.951 . S
C635 C636 1.366 . S
C635 C637 1.388 . S
C636 C635 1.366 . S
C636 C640 1.385 . S
C637 H612 0.951 . S
C637 C635 1.388 . S
C637 C638 1.366 . S
C638 C637 1.366 . S
C638 C639 1.414 . S
C638 C641 1.499 . S
C639 H613 0.950 . S
C639 C638 1.414 . S
C639 C640 1.374 . S
C640 H614 0.950 . S
C640 C636 1.385 . S
C640 C639 1.374 . S
C641 C638 1.499 . S
C641 C642 1.373 . S
C641 C643 1.389 . S
C642 H615 0.950 . S
C642 C628 1.377 . S
C642 C641 1.373 . S
C643 C627 1.377 . S
C643 C641 1.389 . S
C643 C644 1.524 . S
C644 C643 1.524 . S
C644 C645 1.397 . S
C644 C649 1.363 . S
C645 H616 0.950 . S
C645 C644 1.397 . S
C645 C646 1.334 . S
C646 H617 0.950 . S
C646 C645 1.334 . S
C646 C647 1.287 . S
C647 C646 1.287 . S
C647 C648 1.524 . S
C647 H650 0.999 . S
C648 H618 0.950 . S
C648 C647 1.524 . S
C648 C649 1.415 . S
C649 H619 0.950 . S
C649 C644 1.363 . S
C649 C648 1.415 . S
H650 C647 0.999 . S
H651 C632 0.913 . S
H652 C670 0.951 . S
H653 C672 0.951 . S
H654 C674 0.950 . S
H655 C675 0.950 . S
H656 C677 0.950 . S
H657 C680 0.950 . S
H658 C681 0.950 . S
H659 C683 0.950 . S
H660 C684 0.950 . S
H661 C685 0.951 . S
H662 C687 0.951 . S
H663 C689 0.950 . S
H664 C690 0.950 . S
H665 C692 0.950 . S
H666 C695 0.950 . S
H667 C696 0.950 . S
H668 C698 0.950 . S
H669 C699 0.950 . S
C670 H652 0.951 . S
C670 C671 1.366 . S
C670 C672 1.388 . S
C671 C670 1.366 . S
C671 C675 1.385 . S
C672 H653 0.951 . S
C672 C670 1.388 . S
C672 C673 1.366 . S
C673 C672 1.366 . S
C673 C674 1.414 . S
C673 C676 1.499 . S
C674 H654 0.950 . S
C674 C673 1.414 . S
C674 C675 1.374 . S
C675 H655 0.950 . S
C675 C671 1.385 . S
C675 C674 1.374 . S
C676 C673 1.499 . S
C676 C677 1.373 . S
C676 C678 1.389 . S
C677 H656 0.950 . S
C677 C676 1.373 . S
C677 C693 1.377 . S
C678 C676 1.389 . S
C678 C679 1.524 . S
C678 C692 1.377 . S
C679 C678 1.524 . S
C679 C680 1.397 . S
C679 C684 1.363 . S
C680 H657 0.950 . S
C680 C679 1.397 . S
C680 C681 1.334 . S
C681 H658 0.950 . S
C681 C680 1.334 . S
C681 C682 1.287 . S
C682 C681 1.287 . S
C682 C683 1.524 . S
C682 H701 0.913 . S
C683 H659 0.950 . S
C683 C682 1.524 . S
C683 C684 1.415 . S
C684 H660 0.950 . S
C684 C679 1.363 . S
C684 C683 1.415 . S
C685 H661 0.951 . S
C685 C686 1.366 . S
C685 C687 1.388 . S
C686 C685 1.366 . S
C686 C690 1.385 . S
C687 H662 0.951 . S
C687 C685 1.388 . S
C687 C688 1.366 . S
C688 C687 1.366 . S
C688 C689 1.414 . S
C688 C691 1.499 . S
C689 H663 0.950 . S
C689 C688 1.414 . S
C689 C690 1.374 . S
C690 H664 0.950 . S
C690 C686 1.385 . S
C690 C689 1.374 . S
C691 C688 1.499 . S
C691 C692 1.373 . S
C691 C693 1.389 . S
C692 H665 0.950 . S
C692 C678 1.377 . S
C692 C691 1.373 . S
C693 C677 1.377 . S
C693 C691 1.389 . S
C693 C694 1.524 . S
C694 C693 1.524 . S
C694 C695 1.397 . S
C694 C699 1.363 . S
C695 H666 0.950 . S
C695 C694 1.397 . S
C695 C696 1.334 . S
C696 H667 0.950 . S
C696 C695 1.334 . S
C696 C697 1.287 . S
C697 C696 1.287 . S
C697 C698 1.524 . S
C697 H700 0.999 . S
C698 H668 0.950 . S
C698 C697 1.524 . S
C698 C699 1.415 . S
C699 H669 0.950 . S
C699 C694 1.363 . S
C699 C698 1.415 . S
H700 C697 0.999 . S
H701 C682 0.913 . S
H702 C720 0.951 1_554 S
H703 C722 0.951 . S
H704 C724 0.950 . S
H705 C725 0.950 . S
H706 C727 0.950 . S
H707 C730 0.950 . S
H708 C731 0.950 . S
H709 C733 0.950 . S
H710 C734 0.950 . S
H711 C735 0.951 . S
H712 C737 0.951 . S
H713 C739 0.950 . S
H714 C740 0.950 . S
H715 C742 0.950 . S
H716 C745 0.950 . S
H717 C746 0.950 . S
H718 C748 0.950 . S
H719 C749 0.950 . S
C720 H702 0.951 1_556 S
C720 C721 1.366 . S
C720 C722 1.388 . S
C721 C720 1.366 . S
C721 C725 1.385 . S
C722 H703 0.951 . S
C722 C720 1.388 . S
C722 C723 1.366 . S
C723 C722 1.366 . S
C723 C724 1.414 . S
C723 C726 1.499 . S
C724 H704 0.950 . S
C724 C723 1.414 . S
C724 C725 1.374 . S
C725 H705 0.950 . S
C725 C721 1.385 . S
C725 C724 1.374 . S
C726 C723 1.499 . S
C726 C727 1.373 . S
C726 C728 1.389 . S
C727 H706 0.950 . S
C727 C726 1.373 . S
C727 C743 1.377 . S
C728 C726 1.389 . S
C728 C729 1.524 . S
C728 C742 1.377 . S
C729 C728 1.524 . S
C729 C730 1.397 . S
C729 C734 1.363 . S
C730 H707 0.950 . S
C730 C729 1.397 . S
C730 C731 1.334 . S
C731 H708 0.950 . S
C731 C730 1.334 . S
C731 C732 1.287 . S
C732 C731 1.287 . S
C732 C733 1.524 . S
C732 H751 0.913 1_556 S
C733 H709 0.950 . S
C733 C732 1.524 . S
C733 C734 1.415 . S
C734 H710 0.950 . S
C734 C729 1.363 . S
C734 C733 1.415 . S
C735 H711 0.951 . S
C735 C736 1.366 . S
C735 C737 1.388 . S
C736 C735 1.366 . S
C736 C740 1.385 . S
C737 H712 0.951 . S
C737 C735 1.388 . S
C737 C738 1.366 . S
C738 C737 1.366 . S
C738 C739 1.414 . S
C738 C741 1.499 . S
C739 H713 0.950 . S
C739 C738 1.414 . S
C739 C740 1.374 . S
C740 H714 0.950 . S
C740 C736 1.385 . S
C740 C739 1.374 . S
C741 C738 1.499 . S
C741 C742 1.373 . S
C741 C743 1.389 . S
C742 H715 0.950 . S
C742 C728 1.377 . S
C742 C741 1.373 . S
C743 C727 1.377 . S
C743 C741 1.389 . S
C743 C744 1.524 . S
C744 C743 1.524 . S
C744 C745 1.397 . S
C744 C749 1.363 . S
C745 H716 0.950 . S
C745 C744 1.397 . S
C745 C746 1.334 . S
C746 H717 0.950 . S
C746 C745 1.334 . S
C746 C747 1.287 . S
C747 C746 1.287 . S
C747 C748 1.524 . S
C747 H750 0.999 . S
C748 H718 0.950 . S
C748 C747 1.524 . S
C748 C749 1.415 . S
C749 H719 0.950 . S
C749 C744 1.363 . S
C749 C748 1.415 . S
H750 C747 0.999 . S
H751 C732 0.913 1_554 S
H752 C770 0.951 . S
H753 C772 0.951 . S
H754 C774 0.950 . S
H755 C775 0.950 1_554 S
H756 C777 0.950 . S
H757 C780 0.950 . S
H758 C781 0.950 . S
H759 C783 0.950 . S
H760 C784 0.950 . S
H761 C785 0.951 . S
H762 C787 0.951 . S
H763 C789 0.950 . S
H764 C790 0.950 . S
H765 C792 0.950 . S
H766 C795 0.950 . S
H767 C796 0.950 . S
H768 C798 0.950 . S
H769 C799 0.950 . S
C770 H752 0.951 . S
C770 C771 1.366 . S
C770 C772 1.388 . S
C771 C770 1.366 . S
C771 C775 1.385 . S
C772 H753 0.951 . S
C772 C770 1.388 . S
C772 C773 1.366 . S
C773 C772 1.366 . S
C773 C774 1.414 . S
C773 C776 1.499 . S
C774 H754 0.950 . S
C774 C773 1.414 . S
C774 C775 1.374 . S
C775 H755 0.950 1_556 S
C775 C771 1.385 . S
C775 C774 1.374 . S
C776 C773 1.499 . S
C776 C777 1.373 . S
C776 C778 1.389 . S
C777 H756 0.950 . S
C777 C776 1.373 . S
C777 C793 1.377 . S
C778 C776 1.389 . S
C778 C779 1.524 . S
C778 C792 1.377 . S
C779 C778 1.524 . S
C779 C780 1.397 . S
C779 C784 1.363 . S
C780 H757 0.950 . S
C780 C779 1.397 . S
C780 C781 1.334 . S
C781 H758 0.950 . S
C781 C780 1.334 . S
C781 C782 1.287 . S
C782 C781 1.287 . S
C782 C783 1.524 . S
C782 H801 0.913 . S
C783 H759 0.950 . S
C783 C782 1.524 . S
C783 C784 1.415 . S
C784 H760 0.950 . S
C784 C779 1.363 . S
C784 C783 1.415 . S
C785 H761 0.951 . S
C785 C786 1.366 . S
C785 C787 1.388 . S
C786 C785 1.366 . S
C786 C790 1.385 . S
C787 H762 0.951 . S
C787 C785 1.388 . S
C787 C788 1.366 . S
C788 C787 1.366 . S
C788 C789 1.414 . S
C788 C791 1.499 . S
C789 H763 0.950 . S
C789 C788 1.414 . S
C789 C790 1.374 . S
C790 H764 0.950 . S
C790 C786 1.385 . S
C790 C789 1.374 . S
C791 C788 1.499 . S
C791 C792 1.373 . S
C791 C793 1.389 . S
C792 H765 0.950 . S
C792 C778 1.377 . S
C792 C791 1.373 . S
C793 C777 1.377 . S
C793 C791 1.389 . S
C793 C794 1.524 . S
C794 C793 1.524 . S
C794 C795 1.397 . S
C794 C799 1.363 . S
C795 H766 0.950 . S
C795 C794 1.397 . S
C795 C796 1.334 . S
C796 H767 0.950 . S
C796 C795 1.334 . S
C796 C797 1.287 . S
C797 C796 1.287 . S
C797 C798 1.524 . S
C797 H800 0.999 . S
C798 H768 0.950 . S
C798 C797 1.524 . S
C798 C799 1.415 . S
C799 H769 0.950 . S
C799 C794 1.363 . S
C799 C798 1.415 . S
H800 C797 0.999 . S
H801 C782 0.913 . S
H802 C820 0.951 1_554 S
H803 C822 0.951 . S
H804 C824 0.950 . S
H805 C825 0.950 . S
H806 C827 0.950 . S
H807 C830 0.950 . S
H808 C831 0.941 1_554 S
H809 C833 0.950 . S
H810 C834 0.950 . S
H811 C835 0.951 . S
H812 C837 0.951 . S
H813 C839 0.950 . S
H814 C840 0.950 . S
H815 C842 0.950 . S
H816 C845 0.950 . S
H817 C846 0.950 . S
H818 C848 0.950 . S
H819 C849 0.950 . S
C820 H802 0.951 1_556 S
C820 C821 1.366 . S
C820 C822 1.388 . S
C821 C820 1.366 . S
C821 C825 1.385 . S
C822 H803 0.951 . S
C822 C820 1.388 . S
C822 C823 1.366 . S
C823 C822 1.366 . S
C823 C824 1.414 . S
C823 C826 1.499 . S
C824 H804 0.950 . S
C824 C823 1.414 . S
C824 C825 1.374 . S
C825 H805 0.950 . S
C825 C821 1.385 . S
C825 C824 1.374 . S
C826 C823 1.499 . S
C826 C827 1.373 . S
C826 C828 1.389 . S
C827 H806 0.950 . S
C827 C826 1.373 . S
C827 C843 1.377 . S
C828 C826 1.389 . S
C828 C829 1.524 . S
C828 C842 1.377 . S
C829 C828 1.524 . S
C829 C830 1.397 . S
C829 C834 1.363 . S
C830 H807 0.950 . S
C830 C829 1.397 . S
C830 C831 1.348 . S
C831 H808 0.941 1_556 S
C831 C830 1.348 . S
C831 C832 1.283 1_556 S
C832 C831 1.283 1_554 S
C832 C833 1.524 1_554 S
C832 H851 0.913 . S
C833 H809 0.950 . S
C833 C832 1.524 1_556 S
C833 C834 1.415 . S
C834 H810 0.950 . S
C834 C829 1.363 . S
C834 C833 1.415 . S
C835 H811 0.951 . S
C835 C836 1.366 . S
C835 C837 1.388 . S
C836 C835 1.366 . S
C836 C840 1.385 . S
C837 H812 0.951 . S
C837 C835 1.388 . S
C837 C838 1.366 . S
C838 C837 1.366 . S
C838 C839 1.414 . S
C838 C841 1.499 . S
C839 H813 0.950 . S
C839 C838 1.414 . S
C839 C840 1.374 . S
C840 H814 0.950 . S
C840 C836 1.385 . S
C840 C839 1.374 . S
C841 C838 1.499 . S
C841 C842 1.373 . S
C841 C843 1.389 . S
C842 H815 0.950 . S
C842 C828 1.377 . S
C842 C841 1.373 . S
C843 C827 1.377 . S
C843 C841 1.389 . S
C843 C844 1.524 . S
C844 C843 1.524 . S
C844 C845 1.397 . S
C844 C849 1.363 . S
C845 H816 0.950 . S
C845 C844 1.397 . S
C845 C846 1.334 . S
C846 H817 0.950 . S
C846 C845 1.334 . S
C846 C847 1.287 . S
C847 C846 1.287 . S
C847 C848 1.524 . S
C847 H850 0.999 . S
C848 H818 0.950 . S
C848 C847 1.524 . S
C848 C849 1.415 . S
C849 H819 0.950 . S
C849 C844 1.363 . S
C849 C848 1.415 . S
H850 C847 0.999 . S
H851 C832 0.913 . S
H852 C870 0.951 . S
H853 C872 0.951 . S
H854 C874 0.950 . S
H855 C875 0.950 . S
H856 C877 0.950 . S
H857 C880 0.950 . S
H858 C881 0.950 . S
H859 C883 0.950 . S
H860 C884 0.950 . S
H861 C885 0.951 . S
H862 C887 0.951 . S
H863 C889 0.950 . S
H864 C890 0.950 . S
H865 C892 0.950 . S
H866 C895 0.950 . S
H867 C896 0.950 . S
H868 C898 0.950 . S
H869 C899 0.950 . S
C870 H852 0.951 . S
C870 C871 1.366 . S
C870 C872 1.388 . S
C871 C870 1.366 . S
C871 C875 1.385 . S
C872 H853 0.951 . S
C872 C870 1.388 . S
C872 C873 1.366 . S
C873 C872 1.366 . S
C873 C874 1.414 . S
C873 C876 1.499 . S
C874 H854 0.950 . S
C874 C873 1.414 . S
C874 C875 1.374 . S
C875 H855 0.950 . S
C875 C871 1.385 . S
C875 C874 1.374 . S
C876 C873 1.499 . S
C876 C877 1.373 . S
C876 C878 1.389 . S
C877 H856 0.950 . S
C877 C876 1.373 . S
C877 C893 1.377 . S
C878 C876 1.389 . S
C878 C879 1.524 . S
C878 C892 1.377 . S
C879 C878 1.524 . S
C879 C880 1.397 . S
C879 C884 1.363 . S
C880 H857 0.950 . S
C880 C879 1.397 . S
C880 C881 1.334 . S
C881 H858 0.950 . S
C881 C880 1.334 . S
C881 C882 1.287 . S
C882 C881 1.287 . S
C882 C883 1.524 . S
C882 H901 0.913 . S
C883 H859 0.950 . S
C883 C882 1.524 . S
C883 C884 1.415 . S
C884 H860 0.950 . S
C884 C879 1.363 . S
C884 C883 1.415 . S
C885 H861 0.951 . S
C885 C886 1.366 . S
C885 C887 1.388 . S
C886 C885 1.366 . S
C886 C890 1.385 . S
C887 H862 0.951 . S
C887 C885 1.388 . S
C887 C888 1.366 . S
C888 C887 1.366 . S
C888 C889 1.414 . S
C888 C891 1.499 . S
C889 H863 0.950 . S
C889 C888 1.414 . S
C889 C890 1.374 . S
C890 H864 0.950 . S
C890 C886 1.385 . S
C890 C889 1.374 . S
C891 C888 1.499 . S
C891 C892 1.373 . S
C891 C893 1.389 . S
C892 H865 0.950 . S
C892 C878 1.377 . S
C892 C891 1.373 . S
C893 C877 1.377 . S
C893 C891 1.389 . S
C893 C894 1.524 . S
C894 C893 1.524 . S
C894 C895 1.397 . S
C894 C899 1.363 . S
C895 H866 0.950 . S
C895 C894 1.397 . S
C895 C896 1.334 . S
C896 H867 0.950 . S
C896 C895 1.334 . S
C896 C897 1.287 . S
C897 C896 1.287 . S
C897 C898 1.524 . S
C897 H900 0.999 . S
C898 H868 0.950 . S
C898 C897 1.524 . S
C898 C899 1.415 . S
C899 H869 0.950 . S
C899 C894 1.363 . S
C899 C898 1.415 . S
H900 C897 0.999 . S
H901 C882 0.913 . S
H902 C920 0.951 . S
H903 C922 0.951 . S
H904 C924 0.950 . S
H905 C925 0.950 . S
H906 C927 0.950 . S
H907 C930 0.950 . S
H908 C931 0.950 . S
H909 C933 0.950 . S
H910 C934 0.950 . S
H911 C935 0.951 . S
H912 C937 0.951 . S
H913 C939 0.950 . S
H914 C940 0.950 . S
H915 C942 0.950 . S
H916 C945 0.950 . S
H917 C946 0.950 . S
H918 C948 0.950 . S
H919 C949 0.950 . S
C920 H902 0.951 . S
C920 C921 1.366 . S
C920 C922 1.388 . S
C921 C920 1.366 . S
C921 C925 1.385 . S
C922 H903 0.951 . S
C922 C920 1.388 . S
C922 C923 1.366 . S
C923 C922 1.366 . S
C923 C924 1.414 . S
C923 C926 1.499 . S
C924 H904 0.950 . S
C924 C923 1.414 . S
C924 C925 1.374 . S
C925 H905 0.950 . S
C925 C921 1.385 . S
C925 C924 1.374 . S
C926 C923 1.499 . S
C926 C927 1.373 . S
C926 C928 1.389 . S
C927 H906 0.950 . S
C927 C926 1.373 . S
C927 C943 1.377 . S
C928 C926 1.389 . S
C928 C929 1.524 . S
C928 C942 1.377 . S
C929 C928 1.524 . S
C929 C930 1.397 . S
C929 C934 1.363 . S
C930 H907 0.950 . S
C930 C929 1.397 . S
C930 C931 1.334 . S
C931 H908 0.950 . S
C931 C930 1.334 . S
C931 C932 1.287 . S
C932 C931 1.287 . S
C932 C933 1.524 . S
C932 H951 0.913 . S
C933 H909 0.950 . S
C933 C932 1.524 . S
C933 C934 1.415 . S
C934 H910 0.950 . S
C934 C929 1.363 . S
C934 C933 1.415 . S
C935 H911 0.951 . S
C935 C936 1.366 . S
C935 C937 1.388 . S
C936 C935 1.366 . S
C936 C940 1.385 . S
C937 H912 0.951 . S
C937 C935 1.388 . S
C937 C938 1.366 . S
C938 C937 1.366 . S
C938 C939 1.414 . S
C938 C941 1.499 . S
C939 H913 0.950 . S
C939 C938 1.414 . S
C939 C940 1.374 . S
C940 H914 0.950 . S
C940 C936 1.385 . S
C940 C939 1.374 . S
C941 C938 1.499 . S
C941 C942 1.373 . S
C941 C943 1.389 . S
C942 H915 0.950 . S
C942 C928 1.377 . S
C942 C941 1.373 . S
C943 C927 1.377 . S
C943 C941 1.389 . S
C943 C944 1.524 . S
C944 C943 1.524 . S
C944 C945 1.397 . S
C944 C949 1.363 . S
C945 H916 0.950 . S
C945 C944 1.397 . S
C945 C946 1.334 . S
C946 H917 0.950 . S
C946 C945 1.334 . S
C946 C947 1.287 . S
C947 C946 1.287 . S
C947 C948 1.524 . S
C947 H950 0.999 . S
C948 H918 0.950 . S
C948 C947 1.524 . S
C948 C949 1.415 . S
C949 H919 0.950 . S
C949 C944 1.363 . S
C949 C948 1.415 . S
H950 C947 0.999 . S
H951 C932 0.913 . S
H952 C970 0.951 . S
H953 C972 0.951 . S
H954 C974 0.950 . S
H955 C975 0.950 . S
H956 C977 0.950 . S
H957 C980 0.950 . S
H958 C981 0.950 . S
H959 C983 0.950 . S
H960 C984 0.950 . S
H961 C985 0.951 . S
H962 C987 0.951 . S
H963 C989 0.950 . S
H964 C990 0.950 . S
H965 C992 0.950 . S
H966 C995 0.950 . S
H967 C996 0.950 . S
H968 C998 0.950 . S
H969 C999 0.950 . S
C970 H952 0.951 . S
C970 C971 1.366 . S
C970 C972 1.388 . S
C971 C970 1.366 . S
C971 C975 1.385 . S
C972 H953 0.951 . S
C972 C970 1.388 . S
C972 C973 1.366 . S
C973 C972 1.366 . S
C973 C974 1.414 . S
C973 C976 1.499 . S
C974 H954 0.950 . S
C974 C973 1.414 . S
C974 C975 1.374 . S
C975 H955 0.950 . S
C975 C971 1.385 . S
C975 C974 1.374 . S
C976 C973 1.499 . S
C976 C977 1.373 . S
C976 C978 1.389 . S
C977 H956 0.950 . S
C977 C976 1.373 . S
C977 C993 1.377 . S
C978 C976 1.389 . S
C978 C979 1.524 . S
C978 C992 1.377 . S
C979 C978 1.524 . S
C979 C980 1.397 . S
C979 C984 1.363 . S
C980 H957 0.950 . S
C980 C979 1.397 . S
C980 C981 1.334 . S
C981 H958 0.950 . S
C981 C980 1.334 . S
C981 C982 1.287 . S
C982 C981 1.287 . S
C982 C983 1.524 . S
C982 H1001 0.913 . S
C983 H959 0.950 . S
C983 C982 1.524 . S
C983 C984 1.415 . S
C984 H960 0.950 . S
C984 C979 1.363 . S
C984 C983 1.415 . S
C985 H961 0.951 . S
C985 C986 1.366 . S
C985 C987 1.388 . S
C986 C985 1.366 . S
C986 C990 1.385 . S
C987 H962 0.951 . S
C987 C985 1.388 . S
C987 C988 1.366 . S
C988 C987 1.366 . S
C988 C989 1.414 . S
C988 C991 1.499 . S
C989 H963 0.950 . S
C989 C988 1.414 . S
C989 C990 1.374 . S
C990 H964 0.950 . S
C990 C986 1.385 . S
C990 C989 1.374 . S
C991 C988 1.499 . S
C991 C992 1.373 . S
C991 C993 1.389 . S
C992 H965 0.950 . S
C992 C978 1.377 . S
C992 C991 1.373 . S
C993 C977 1.377 . S
C993 C991 1.389 . S
C993 C994 1.524 . S
C994 C993 1.524 . S
C994 C995 1.397 . S
C994 C999 1.363 . S
C995 H966 0.950 . S
C995 C994 1.397 . S
C995 C996 1.334 . S
C996 H967 0.950 . S
C996 C995 1.334 . S
C996 C997 1.287 . S
C997 C996 1.287 . S
C997 C998 1.524 . S
C997 H1000 0.999 . S
C998 H968 0.950 . S
C998 C997 1.524 . S
C998 C999 1.415 . S
C999 H969 0.950 . S
C999 C994 1.363 . S
C999 C998 1.415 . S
H1000 C997 0.999 . S
H1001 C982 0.913 . S
H1002 C1020 0.951 . S
H1003 C1022 0.951 . S
H1004 C1024 0.950 . S
H1005 C1025 0.950 . S
H1006 C1027 0.950 . S
H1007 C1030 0.950 . S
H1008 C1031 0.950 . S
H1009 C1033 0.950 . S
H1010 C1034 0.950 . S
H1011 C1035 0.951 . S
H1012 C1037 0.951 . S
H1013 C1039 0.950 . S
H1014 C1040 0.950 1_556 S
H1015 C1042 0.950 . S
H1016 C1045 0.950 . S
H1017 C1046 0.950 . S
H1018 C1048 0.950 . S
H1019 C1049 0.950 . S
C1020 H1002 0.951 . S
C1020 C1021 1.366 . S
C1020 C1022 1.388 . S
C1021 C1020 1.366 . S
C1021 C1025 1.385 . S
C1022 H1003 0.951 . S
C1022 C1020 1.388 . S
C1022 C1023 1.366 . S
C1023 C1022 1.366 . S
C1023 C1024 1.414 . S
C1023 C1026 1.499 . S
C1024 H1004 0.950 . S
C1024 C1023 1.414 . S
C1024 C1025 1.374 . S
C1025 H1005 0.950 . S
C1025 C1021 1.385 . S
C1025 C1024 1.374 . S
C1026 C1023 1.499 . S
C1026 C1027 1.373 . S
C1026 C1028 1.389 . S
C1027 H1006 0.950 . S
C1027 C1026 1.373 . S
C1027 C1043 1.377 . S
C1028 C1026 1.389 . S
C1028 C1029 1.524 . S
C1028 C1042 1.377 . S
C1029 C1028 1.524 . S
C1029 C1030 1.397 . S
C1029 C1034 1.363 . S
C1030 H1007 0.950 . S
C1030 C1029 1.397 . S
C1030 C1031 1.334 . S
C1031 H1008 0.950 . S
C1031 C1030 1.334 . S
C1031 C1032 1.287 . S
C1032 C1031 1.287 . S
C1032 C1033 1.524 . S
C1032 H1051 0.913 . S
C1033 H1009 0.950 . S
C1033 C1032 1.524 . S
C1033 C1034 1.415 . S
C1034 H1010 0.950 . S
C1034 C1029 1.363 . S
C1034 C1033 1.415 . S
C1035 H1011 0.951 . S
C1035 C1036 1.366 . S
C1035 C1037 1.388 . S
C1036 C1035 1.366 . S
C1036 C1040 1.385 . S
C1037 H1012 0.951 . S
C1037 C1035 1.388 . S
C1037 C1038 1.366 . S
C1038 C1037 1.366 . S
C1038 C1039 1.414 . S
C1038 C1041 1.499 . S
C1039 H1013 0.950 . S
C1039 C1038 1.414 . S
C1039 C1040 1.374 . S
C1040 H1014 0.950 1_554 S
C1040 C1036 1.385 . S
C1040 C1039 1.374 . S
C1041 C1038 1.499 . S
C1041 C1042 1.373 . S
C1041 C1043 1.389 . S
C1042 H1015 0.950 . S
C1042 C1028 1.377 . S
C1042 C1041 1.373 . S
C1043 C1027 1.377 . S
C1043 C1041 1.389 . S
C1043 C1044 1.524 . S
C1044 C1043 1.524 . S
C1044 C1045 1.397 . S
C1044 C1049 1.363 . S
C1045 H1016 0.950 . S
C1045 C1044 1.397 . S
C1045 C1046 1.334 . S
C1046 H1017 0.950 . S
C1046 C1045 1.334 . S
C1046 C1047 1.287 . S
C1047 C1046 1.287 . S
C1047 C1048 1.524 . S
C1047 H1050 0.999 . S
C1048 H1018 0.950 . S
C1048 C1047 1.524 . S
C1048 C1049 1.415 . S
C1049 H1019 0.950 . S
C1049 C1044 1.363 . S
C1049 C1048 1.415 . S
H1050 C1047 0.999 . S
H1051 C1032 0.913 . S
H1052 C1070 0.951 . S
H1053 C1072 0.951 . S
H1054 C1074 0.950 . S
H1055 C1075 0.950 . S
H1056 C1077 0.950 . S
H1057 C1080 0.950 . S
H1058 C1081 0.950 . S
H1059 C1083 0.950 . S
H1060 C1084 0.950 . S
H1061 C1085 0.951 . S
H1062 C1087 0.951 . S
H1063 C1089 0.950 . S
H1064 C1090 0.950 1_556 S
H1065 C1092 0.950 . S
H1066 C1095 0.950 . S
H1067 C1096 0.950 . S
H1068 C1098 0.950 . S
H1069 C1099 0.950 . S
C1070 H1052 0.951 . S
C1070 C1071 1.366 . S
C1070 C1072 1.388 . S
C1071 C1070 1.366 . S
C1071 C1075 1.385 . S
C1072 H1053 0.951 . S
C1072 C1070 1.388 . S
C1072 C1073 1.366 . S
C1073 C1072 1.366 . S
C1073 C1074 1.414 . S
C1073 C1076 1.499 . S
C1074 H1054 0.950 . S
C1074 C1073 1.414 . S
C1074 C1075 1.374 . S
C1075 H1055 0.950 . S
C1075 C1071 1.385 . S
C1075 C1074 1.374 . S
C1076 C1073 1.499 . S
C1076 C1077 1.373 . S
C1076 C1078 1.389 . S
C1077 H1056 0.950 . S
C1077 C1076 1.373 . S
C1077 C1093 1.377 . S
C1078 C1076 1.389 . S
C1078 C1079 1.524 . S
C1078 C1092 1.377 . S
C1079 C1078 1.524 . S
C1079 C1080 1.397 . S
C1079 C1084 1.363 . S
C1080 H1057 0.950 . S
C1080 C1079 1.397 . S
C1080 C1081 1.334 . S
C1081 H1058 0.950 . S
C1081 C1080 1.334 . S
C1081 C1082 1.287 . S
C1082 C1081 1.287 . S
C1082 C1083 1.524 . S
C1082 H1101 0.913 . S
C1083 H1059 0.950 . S
C1083 C1082 1.524 . S
C1083 C1084 1.415 . S
C1084 H1060 0.950 . S
C1084 C1079 1.363 . S
C1084 C1083 1.415 . S
C1085 H1061 0.951 . S
C1085 C1086 1.366 . S
C1085 C1087 1.388 . S
C1086 C1085 1.366 . S
C1086 C1090 1.385 . S
C1087 H1062 0.951 . S
C1087 C1085 1.388 . S
C1087 C1088 1.366 . S
C1088 C1087 1.366 . S
C1088 C1089 1.414 . S
C1088 C1091 1.499 . S
C1089 H1063 0.950 . S
C1089 C1088 1.414 . S
C1089 C1090 1.374 . S
C1090 H1064 0.950 1_554 S
C1090 C1086 1.385 . S
C1090 C1089 1.374 . S
C1091 C1088 1.499 . S
C1091 C1092 1.373 . S
C1091 C1093 1.389 . S
C1092 H1065 0.950 . S
C1092 C1078 1.377 . S
C1092 C1091 1.373 . S
C1093 C1077 1.377 . S
C1093 C1091 1.389 . S
C1093 C1094 1.524 . S
C1094 C1093 1.524 . S
C1094 C1095 1.397 . S
C1094 C1099 1.363 . S
C1095 H1066 0.950 . S
C1095 C1094 1.397 . S
C1095 C1096 1.334 . S
C1096 H1067 0.950 . S
C1096 C1095 1.334 . S
C1096 C1097 1.287 . S
C1097 C1096 1.287 . S
C1097 C1098 1.524 . S
C1097 H1100 0.999 . S
C1098 H1068 0.950 . S
C1098 C1097 1.524 . S
C1098 C1099 1.415 . S
C1099 H1069 0.950 . S
C1099 C1094 1.363 . S
C1099 C1098 1.415 . S
H1100 C1097 0.999 . S
H1101 C1082 0.913 . S
H1102 C1120 0.951 . S
H1103 C1122 0.951 . S
H1104 C1124 0.950 . S
H1105 C1125 0.950 . S
H1106 C1127 0.950 . S
H1107 C1130 0.950 . S
H1108 C1131 0.950 . S
H1109 C1133 0.950 . S
H1110 C1134 0.950 . S
H1111 C1135 0.951 . S
H1112 C1137 0.951 . S
H1113 C1139 0.950 . S
H1114 C1140 0.950 . S
H1115 C1142 0.950 . S
H1116 C1145 0.950 . S
H1117 C1146 0.950 . S
H1118 C1148 0.950 . S
H1119 C1149 0.950 . S
C1120 H1102 0.951 . S
C1120 C1121 1.366 . S
C1120 C1122 1.388 . S
C1121 C1120 1.366 . S
C1121 C1125 1.385 . S
C1122 H1103 0.951 . S
C1122 C1120 1.388 . S
C1122 C1123 1.366 . S
C1123 C1122 1.366 . S
C1123 C1124 1.414 . S
C1123 C1126 1.499 . S
C1124 H1104 0.950 . S
C1124 C1123 1.414 . S
C1124 C1125 1.374 . S
C1125 H1105 0.950 . S
C1125 C1121 1.385 . S
C1125 C1124 1.374 . S
C1126 C1123 1.499 . S
C1126 C1127 1.373 . S
C1126 C1128 1.389 . S
C1127 H1106 0.950 . S
C1127 C1126 1.373 . S
C1127 C1143 1.377 . S
C1128 C1126 1.389 . S
C1128 C1129 1.524 . S
C1128 C1142 1.377 . S
C1129 C1128 1.524 . S
C1129 C1130 1.397 . S
C1129 C1134 1.363 . S
C1130 H1107 0.950 . S
C1130 C1129 1.397 . S
C1130 C1131 1.334 . S
C1131 H1108 0.950 . S
C1131 C1130 1.334 . S
C1131 C1132 1.287 . S
C1132 C1131 1.287 . S
C1132 C1133 1.524 . S
C1132 H1151 0.913 . S
C1133 H1109 0.950 . S
C1133 C1132 1.524 . S
C1133 C1134 1.415 . S
C1134 H1110 0.950 . S
C1134 C1129 1.363 . S
C1134 C1133 1.415 . S
C1135 H1111 0.951 . S
C1135 C1136 1.366 . S
C1135 C1137 1.388 . S
C1136 C1135 1.366 . S
C1136 C1140 1.385 . S
C1137 H1112 0.951 . S
C1137 C1135 1.388 . S
C1137 C1138 1.366 . S
C1138 C1137 1.366 . S
C1138 C1139 1.414 . S
C1138 C1141 1.499 . S
C1139 H1113 0.950 . S
C1139 C1138 1.414 . S
C1139 C1140 1.374 . S
C1140 H1114 0.950 . S
C1140 C1136 1.385 . S
C1140 C1139 1.374 . S
C1141 C1138 1.499 . S
C1141 C1142 1.373 . S
C1141 C1143 1.389 . S
C1142 H1115 0.950 . S
C1142 C1128 1.377 . S
C1142 C1141 1.373 . S
C1143 C1127 1.377 . S
C1143 C1141 1.389 . S
C1143 C1144 1.524 . S
C1144 C1143 1.524 . S
C1144 C1145 1.397 . S
C1144 C1149 1.363 . S
C1145 H1116 0.950 . S
C1145 C1144 1.397 . S
C1145 C1146 1.334 . S
C1146 H1117 0.950 . S
C1146 C1145 1.334 . S
C1146 C1147 1.287 . S
C1147 C1146 1.287 . S
C1147 C1148 1.524 . S
C1147 H1150 0.999 . S
C1148 H1118 0.950 . S
C1148 C1147 1.524 . S
C1148 C1149 1.415 . S
C1149 H1119 0.950 . S
C1149 C1144 1.363 . S
C1149 C1148 1.415 . S
H1150 C1147 0.999 . S
H1151 C1132 0.913 . S
H1152 C1170 0.951 . S
H1153 C1172 0.951 . S
H1154 C1174 0.950 . S
H1155 C1175 0.950 . S
H1156 C1177 0.950 . S
H1157 C1180 0.950 . S
H1158 C1181 0.950 . S
H1159 C1183 0.950 . S
H1160 C1184 0.950 . S
H1161 C1185 0.951 . S
H1162 C1187 0.951 . S
H1163 C1189 0.950 . S
H1164 C1190 0.950 . S
H1165 C1192 0.950 . S
H1166 C1195 0.950 . S
H1167 C1196 0.950 . S
H1168 C1198 0.950 . S
H1169 C1199 0.950 . S
C1170 H1152 0.951 . S
C1170 C1171 1.366 . S
C1170 C1172 1.388 . S
C1171 C1170 1.366 . S
C1171 C1175 1.385 . S
C1172 H1153 0.951 . S
C1172 C1170 1.388 . S
C1172 C1173 1.366 . S
C1173 C1172 1.366 . S
C1173 C1174 1.414 . S
C1173 C1176 1.499 . S
C1174 H1154 0.950 . S
C1174 C1173 1.414 . S
C1174 C1175 1.374 . S
C1175 H1155 0.950 . S
C1175 C1171 1.385 . S
C1175 C1174 1.374 . S
C1176 C1173 1.499 . S
C1176 C1177 1.373 . S
C1176 C1178 1.389 . S
C1177 H1156 0.950 . S
C1177 C1176 1.373 . S
C1177 C1193 1.377 . S
C1178 C1176 1.389 . S
C1178 C1179 1.524 . S
C1178 C1192 1.377 . S
C1179 C1178 1.524 . S
C1179 C1180 1.397 . S
C1179 C1184 1.363 . S
C1180 H1157 0.950 . S
C1180 C1179 1.397 . S
C1180 C1181 1.334 . S
C1181 H1158 0.950 . S
C1181 C1180 1.334 . S
C1181 C1182 1.287 . S
C1182 C1181 1.287 . S
C1182 C1183 1.524 . S
C1182 H1201 0.913 . S
C1183 H1159 0.950 . S
C1183 C1182 1.524 . S
C1183 C1184 1.415 . S
C1184 H1160 0.950 . S
C1184 C1179 1.363 . S
C1184 C1183 1.415 . S
C1185 H1161 0.951 . S
C1185 C1186 1.366 . S
C1185 C1187 1.388 . S
C1186 C1185 1.366 . S
C1186 C1190 1.385 . S
C1187 H1162 0.951 . S
C1187 C1185 1.388 . S
C1187 C1188 1.366 . S
C1188 C1187 1.366 . S
C1188 C1189 1.414 . S
C1188 C1191 1.499 . S
C1189 H1163 0.950 . S
C1189 C1188 1.414 . S
C1189 C1190 1.374 . S
C1190 H1164 0.950 . S
C1190 C1186 1.385 . S
C1190 C1189 1.374 . S
C1191 C1188 1.499 . S
C1191 C1192 1.373 . S
C1191 C1193 1.389 . S
C1192 H1165 0.950 . S
C1192 C1178 1.377 . S
C1192 C1191 1.373 . S
C1193 C1177 1.377 . S
C1193 C1191 1.389 . S
C1193 C1194 1.524 . S
C1194 C1193 1.524 . S
C1194 C1195 1.397 . S
C1194 C1199 1.363 . S
C1195 H1166 0.950 . S
C1195 C1194 1.397 . S
C1195 C1196 1.334 . S
C1196 H1167 0.950 . S
C1196 C1195 1.334 . S
C1196 C1197 1.287 . S
C1197 C1196 1.287 . S
C1197 C1198 1.524 . S
C1197 H1200 0.999 . S
C1198 H1168 0.950 . S
C1198 C1197 1.524 . S
C1198 C1199 1.415 . S
C1199 H1169 0.950 . S
C1199 C1194 1.363 . S
C1199 C1198 1.415 . S
H1200 C1197 0.999 . S
H1201 C1182 0.913 . S
H1202 C1220 0.951 . S
H1203 C1222 0.951 . S
H1204 C1224 0.950 . S
H1205 C1225 0.950 . S
H1206 C1227 0.950 . S
H1207 C1230 0.950 . S
H1208 C1231 0.950 . S
H1209 C1233 0.950 . S
H1210 C1234 0.950 . S
H1211 C1235 0.951 . S
H1212 C1237 0.951 . S
H1213 C1239 0.950 . S
H1214 C1240 0.950 . S
H1215 C1242 0.950 . S
H1216 C1245 0.950 . S
H1217 C1246 0.950 . S
H1218 C1248 0.950 . S
H1219 C1249 0.950 . S
C1220 H1202 0.951 . S
C1220 C1221 1.366 . S
C1220 C1222 1.388 . S
C1221 C1220 1.366 . S
C1221 C1225 1.385 . S
C1222 H1203 0.951 . S
C1222 C1220 1.388 . S
C1222 C1223 1.366 . S
C1223 C1222 1.366 . S
C1223 C1224 1.414 . S
C1223 C1226 1.499 . S
C1224 H1204 0.950 . S
C1224 C1223 1.414 . S
C1224 C1225 1.374 . S
C1225 H1205 0.950 . S
C1225 C1221 1.385 . S
C1225 C1224 1.374 . S
C1226 C1223 1.499 . S
C1226 C1227 1.373 . S
C1226 C1228 1.389 . S
C1227 H1206 0.950 . S
C1227 C1226 1.373 . S
C1227 C1243 1.377 . S
C1228 C1226 1.389 . S
C1228 C1229 1.524 . S
C1228 C1242 1.377 . S
C1229 C1228 1.524 . S
C1229 C1230 1.397 . S
C1229 C1234 1.363 . S
C1230 H1207 0.950 . S
C1230 C1229 1.397 . S
C1230 C1231 1.334 . S
C1231 H1208 0.950 . S
C1231 C1230 1.334 . S
C1231 C1232 1.287 . S
C1232 C1231 1.287 . S
C1232 C1233 1.524 . S
C1232 H1251 0.913 . S
C1233 H1209 0.950 . S
C1233 C1232 1.524 . S
C1233 C1234 1.415 . S
C1234 H1210 0.950 . S
C1234 C1229 1.363 . S
C1234 C1233 1.415 . S
C1235 H1211 0.951 . S
C1235 C1236 1.366 . S
C1235 C1237 1.388 . S
C1236 C1235 1.366 . S
C1236 C1240 1.385 . S
C1237 H1212 0.951 . S
C1237 C1235 1.388 . S
C1237 C1238 1.366 . S
C1238 C1237 1.366 . S
C1238 C1239 1.414 . S
C1238 C1241 1.499 . S
C1239 H1213 0.950 . S
C1239 C1238 1.414 . S
C1239 C1240 1.374 . S
C1240 H1214 0.950 . S
C1240 C1236 1.385 . S
C1240 C1239 1.374 . S
C1241 C1238 1.499 . S
C1241 C1242 1.373 . S
C1241 C1243 1.389 . S
C1242 H1215 0.950 . S
C1242 C1228 1.377 . S
C1242 C1241 1.373 . S
C1243 C1227 1.377 . S
C1243 C1241 1.389 . S
C1243 C1244 1.524 . S
C1244 C1243 1.524 . S
C1244 C1245 1.397 . S
C1244 C1249 1.363 . S
C1245 H1216 0.950 . S
C1245 C1244 1.397 . S
C1245 C1246 1.334 . S
C1246 H1217 0.950 . S
C1246 C1245 1.334 . S
C1246 C1247 1.287 . S
C1247 C1246 1.287 . S
C1247 C1248 1.524 . S
C1247 H1250 0.999 . S
C1248 H1218 0.950 . S
C1248 C1247 1.524 . S
C1248 C1249 1.415 . S
C1249 H1219 0.950 . S
C1249 C1244 1.363 . S
C1249 C1248 1.415 . S
H1250 C1247 0.999 . S
H1251 C1232 0.913 . S
H1252 C1270 0.951 . S
H1253 C1272 0.951 . S
H1254 C1274 0.950 . S
H1255 C1275 0.950 . S
H1256 C1277 0.950 . S
H1257 C1280 0.950 . S
H1258 C1281 0.950 . S
H1259 C1283 0.950 . S
H1260 C1284 0.950 . S
H1261 C1285 0.951 . S
H1262 C1287 0.951 . S
H1263 C1289 0.950 . S
H1264 C1290 0.950 . S
H1265 C1292 0.950 . S
H1266 C1295 0.950 . S
H1267 C1296 0.950 . S
H1268 C1298 0.950 . S
H1269 C1299 0.950 . S
C1270 H1252 0.951 . S
C1270 C1271 1.366 . S
C1270 C1272 1.388 . S
C1271 C1270 1.366 . S
C1271 C1275 1.385 . S
C1272 H1253 0.951 . S
C1272 C1270 1.388 . S
C1272 C1273 1.366 . S
C1273 C1272 1.366 . S
C1273 C1274 1.414 . S
C1273 C1276 1.499 . S
C1274 H1254 0.950 . S
C1274 C1273 1.414 . S
C1274 C1275 1.374 . S
C1275 H1255 0.950 . S
C1275 C1271 1.385 . S
C1275 C1274 1.374 . S
C1276 C1273 1.499 . S
C1276 C1277 1.373 . S
C1276 C1278 1.389 1_565 S
C1277 H1256 0.950 . S
C1277 C1276 1.373 . S
C1277 C1293 1.377 . S
C1278 C1276 1.389 1_545 S
C1278 C1279 1.524 . S
C1278 C1292 1.377 . S
C1279 C1278 1.524 . S
C1279 C1280 1.397 . S
C1279 C1284 1.363 . S
C1280 H1257 0.950 . S
C1280 C1279 1.397 . S
C1280 C1281 1.334 . S
C1281 H1258 0.950 . S
C1281 C1280 1.334 . S
C1281 C1282 1.287 . S
C1282 C1281 1.287 . S
C1282 C1283 1.524 . S
C1282 H1301 0.913 . S
C1283 H1259 0.950 . S
C1283 C1282 1.524 . S
C1283 C1284 1.415 . S
C1284 H1260 0.950 . S
C1284 C1279 1.363 . S
C1284 C1283 1.415 . S
C1285 H1261 0.951 . S
C1285 C1286 1.366 . S
C1285 C1287 1.388 . S
C1286 C1285 1.366 . S
C1286 C1290 1.385 . S
C1287 H1262 0.951 . S
C1287 C1285 1.388 . S
C1287 C1288 1.366 . S
C1288 C1287 1.366 . S
C1288 C1289 1.414 . S
C1288 C1291 1.499 . S
C1289 H1263 0.950 . S
C1289 C1288 1.414 . S
C1289 C1290 1.374 . S
C1290 H1264 0.950 . S
C1290 C1286 1.385 . S
C1290 C1289 1.374 . S
C1291 C1288 1.499 . S
C1291 C1292 1.373 . S
C1291 C1293 1.389 1_545 S
C1292 H1265 0.950 . S
C1292 C1278 1.377 . S
C1292 C1291 1.373 . S
C1293 C1277 1.377 . S
C1293 C1291 1.389 1_565 S
C1293 C1294 1.524 . S
C1294 C1293 1.524 . S
C1294 C1295 1.397 . S
C1294 C1299 1.363 . S
C1295 H1266 0.950 . S
C1295 C1294 1.397 . S
C1295 C1296 1.334 . S
C1296 H1267 0.950 . S
C1296 C1295 1.334 . S
C1296 C1297 1.287 . S
C1297 C1296 1.287 . S
C1297 C1298 1.524 . S
C1297 H1300 0.999 . S
C1298 H1268 0.950 . S
C1298 C1297 1.524 . S
C1298 C1299 1.415 . S
C1299 H1269 0.950 . S
C1299 C1294 1.363 . S
C1299 C1298 1.415 . S
H1300 C1297 0.999 . S
H1301 C1282 0.913 . S
H1302 C1320 0.951 . S
H1303 C1322 0.951 . S
H1304 C1324 0.950 . S
H1305 C1325 0.950 . S
H1306 C1327 0.950 . S
H1307 C1330 0.950 . S
H1308 C1331 0.950 . S
H1309 C1333 0.950 . S
H1310 C1334 0.950 . S
H1311 C1335 0.951 . S
H1312 C1337 0.951 . S
H1313 C1339 0.950 . S
H1314 C1340 0.950 . S
H1315 C1342 0.950 . S
H1316 C1345 0.950 . S
H1317 C1346 0.950 . S
H1318 C1348 0.950 . S
H1319 C1349 0.950 . S
C1320 H1302 0.951 . S
C1320 C1321 1.366 . S
C1320 C1322 1.388 . S
C1321 C1320 1.366 . S
C1321 C1325 1.385 . S
C1322 H1303 0.951 . S
C1322 C1320 1.388 . S
C1322 C1323 1.366 . S
C1323 C1322 1.366 . S
C1323 C1324 1.414 . S
C1323 C1326 1.499 . S
C1324 H1304 0.950 . S
C1324 C1323 1.414 . S
C1324 C1325 1.374 . S
C1325 H1305 0.950 . S
C1325 C1321 1.385 . S
C1325 C1324 1.374 . S
C1326 C1323 1.499 . S
C1326 C1327 1.373 . S
C1326 C1328 1.389 . S
C1327 H1306 0.950 . S
C1327 C1326 1.373 . S
C1327 C1343 1.377 . S
C1328 C1326 1.389 . S
C1328 C1329 1.524 . S
C1328 C1342 1.377 . S
C1329 C1328 1.524 . S
C1329 C1330 1.397 . S
C1329 C1334 1.363 1_554 S
C1330 H1307 0.950 . S
C1330 C1329 1.397 . S
C1330 C1331 1.334 . S
C1331 H1308 0.950 . S
C1331 C1330 1.334 . S
C1331 C1332 1.287 1_554 S
C1332 C1331 1.287 1_556 S
C1332 C1333 1.524 . S
C1332 H1351 0.913 . S
C1333 H1309 0.950 . S
C1333 C1332 1.524 . S
C1333 C1334 1.415 . S
C1334 H1310 0.950 . S
C1334 C1329 1.363 1_556 S
C1334 C1333 1.415 . S
C1335 H1311 0.951 . S
C1335 C1336 1.366 1_554 S
C1335 C1337 1.388 . S
C1336 C1335 1.366 1_556 S
C1336 C1340 1.385 . S
C1337 H1312 0.951 . S
C1337 C1335 1.388 . S
C1337 C1338 1.366 . S
C1338 C1337 1.366 . S
C1338 C1339 1.414 1_554 S
C1338 C1341 1.499 . S
C1339 H1313 0.950 . S
C1339 C1338 1.414 1_556 S
C1339 C1340 1.374 . S
C1340 H1314 0.950 . S
C1340 C1336 1.385 . S
C1340 C1339 1.374 . S
C1341 C1338 1.499 . S
C1341 C1342 1.373 . S
C1341 C1343 1.389 . S
C1342 H1315 0.950 . S
C1342 C1328 1.377 . S
C1342 C1341 1.373 . S
C1343 C1327 1.377 . S
C1343 C1341 1.389 . S
C1343 C1344 1.524 . S
C1344 C1343 1.524 . S
C1344 C1345 1.397 . S
C1344 C1349 1.363 . S
C1345 H1316 0.950 . S
C1345 C1344 1.397 . S
C1345 C1346 1.334 . S
C1346 H1317 0.950 . S
C1346 C1345 1.334 . S
C1346 C1347 1.287 . S
C1347 C1346 1.287 . S
C1347 C1348 1.524 . S
C1347 H1350 0.999 . S
C1348 H1318 0.950 . S
C1348 C1347 1.524 . S
C1348 C1349 1.415 . S
C1349 H1319 0.950 . S
C1349 C1344 1.363 . S
C1349 C1348 1.415 . S
H1350 C1347 0.999 . S
H1351 C1332 0.913 . S
H1352 C1370 0.951 . S
H1353 C1372 0.951 . S
H1354 C1374 0.950 . S
H1355 C1375 0.940 1_455 S
H1356 C1377 0.950 1_556 S
H1357 C1380 0.996 . S
H1358 C1381 0.950 . S
H1359 C1383 0.950 . S
H1360 C1384 0.950 . S
H1361 C1385 0.951 . S
H1362 C1387 0.951 . S
H1363 C1389 0.950 . S
H1364 C1390 0.950 . S
H1365 C1392 0.948 1_655 S
H1366 C1395 0.950 . S
H1367 C1396 0.950 . S
H1368 C1398 0.950 . S
H1369 C1399 0.950 . S
C1370 H1352 0.951 . S
C1370 C1371 1.366 . S
C1370 C1372 1.388 1_556 S
C1371 C1370 1.366 . S
C1371 C1375 1.385 . S
C1372 H1353 0.951 . S
C1372 C1370 1.388 1_554 S
C1372 C1373 1.366 . S
C1373 C1372 1.366 . S
C1373 C1374 1.414 1_654 S
C1373 C1376 1.479 1_655 S
C1374 H1354 0.950 . S
C1374 C1373 1.414 1_456 S
C1374 C1375 1.374 1_455 S
C1375 H1355 0.940 1_655 S
C1375 C1371 1.385 . S
C1375 C1374 1.374 1_655 S
C1376 C1373 1.479 1_455 S
C1376 C1377 1.397 . S
C1376 C1378 1.386 1_455 S
C1377 H1356 0.950 1_554 S
C1377 C1376 1.397 . S
C1377 C1393 1.377 . S
C1378 C1376 1.386 1_655 S
C1378 C1379 1.524 . S
C1378 C1392 1.377 1_655 S
C1379 C1378 1.524 . S
C1379 C1380 1.397 . S
C1379 C1384 1.363 . S
C1380 H1357 0.996 . S
C1380 C1379 1.397 . S
C1380 C1381 1.334 . S
C1381 H1358 0.950 . S
C1381 C1380 1.334 . S
C1381 C1382 1.287 . S
C1382 C1381 1.287 . S
C1382 C1383 1.524 . S
C1382 H1401 0.913 . S
C1383 H1359 0.950 . S
C1383 C1382 1.524 . S
C1383 C1384 1.415 . S
C1384 H1360 0.950 . S
C1384 C1379 1.363 . S
C1384 C1383 1.415 . S
C1385 H1361 0.951 . S
C1385 C1386 1.366 . S
C1385 C1387 1.388 . S
C1386 C1385 1.366 . S
C1386 C1390 1.385 . S
C1387 H1362 0.951 . S
C1387 C1385 1.388 . S
C1387 C1388 1.366 . S
C1388 C1387 1.366 . S
C1388 C1389 1.414 . S
C1388 C1391 1.499 . S
C1389 H1363 0.950 . S
C1389 C1388 1.414 . S
C1389 C1390 1.374 . S
C1390 H1364 0.950 . S
C1390 C1386 1.385 . S
C1390 C1389 1.374 . S
C1391 C1388 1.499 . S
C1391 C1392 1.373 . S
C1391 C1393 1.389 . S
C1392 H1365 0.948 1_455 S
C1392 C1378 1.377 1_455 S
C1392 C1391 1.373 . S
C1393 C1377 1.377 . S
C1393 C1391 1.389 . S
C1393 C1394 1.524 . S
C1394 C1393 1.524 . S
C1394 C1395 1.397 . S
C1394 C1399 1.363 1_554 S
C1395 H1366 0.950 . S
C1395 C1394 1.397 . S
C1395 C1396 1.334 1_554 S
C1396 H1367 0.950 . S
C1396 C1395 1.334 1_556 S
C1396 C1397 1.287 . S
C1397 C1396 1.287 . S
C1397 C1398 1.524 . S
C1397 H1400 0.999 . S
C1398 H1368 0.950 . S
C1398 C1397 1.524 . S
C1398 C1399 1.415 . S
C1399 H1369 0.950 . S
C1399 C1394 1.363 1_556 S
C1399 C1398 1.415 . S
H1400 C1397 0.999 . S
H1401 C1382 0.913 . S
H1402 C1420 0.951 . S
H1403 C1422 0.951 . S
H1404 C1424 0.950 . S
H1405 C1425 0.950 . S
H1406 C1427 0.950 . S
H1407 C1430 0.950 . S
H1408 C1431 0.950 . S
H1409 C1433 0.950 . S
H1410 C1434 0.950 1_554 S
H1411 C1435 0.951 . S
H1412 C1437 0.951 . S
H1413 C1439 0.950 . S
H1414 C1440 0.950 . S
H1415 C1442 0.950 . S
H1416 C1445 0.950 . S
H1417 C1446 0.950 . S
H1418 C1448 0.950 . S
H1419 C1449 0.950 . S
C1420 H1402 0.951 . S
C1420 C1421 1.366 . S
C1420 C1422 1.388 1_556 S
C1421 C1420 1.366 . S
C1421 C1425 1.384 . S
C1422 H1403 0.951 . S
C1422 C1420 1.388 1_554 S
C1422 C1423 1.366 . S
C1423 C1422 1.366 . S
C1423 C1424 1.414 . S
C1423 C1426 1.499 . S
C1424 H1404 0.950 . S
C1424 C1423 1.414 . S
C1424 C1425 1.374 1_554 S
C1425 H1405 0.950 . S
C1425 C1421 1.384 . S
C1425 C1424 1.374 1_556 S
C1426 C1423 1.499 . S
C1426 C1427 1.373 . S
C1426 C1428 1.389 . S
C1427 H1406 0.950 . S
C1427 C1426 1.373 . S
C1427 C1443 1.377 . S
C1428 C1426 1.389 . S
C1428 C1429 1.524 1_554 S
C1428 C1442 1.377 . S
C1429 C1428 1.524 1_556 S
C1429 C1430 1.397 . S
C1429 C1434 1.363 . S
C1430 H1407 0.950 . S
C1430 C1429 1.397 . S
C1430 C1431 1.334 . S
C1431 H1408 0.950 . S
C1431 C1430 1.334 . S
C1431 C1432 1.287 . S
C1432 C1431 1.287 . S
C1432 C1433 1.524 . S
C1432 H1451 0.913 . S
C1433 H1409 0.950 . S
C1433 C1432 1.524 . S
C1433 C1434 1.415 . S
C1434 H1410 0.950 1_556 S
C1434 C1429 1.363 . S
C1434 C1433 1.415 . S
C1435 H1411 0.951 . S
C1435 C1436 1.366 . S
C1435 C1437 1.388 . S
C1436 C1435 1.366 . S
C1436 C1440 1.385 . S
C1437 H1412 0.951 . S
C1437 C1435 1.388 . S
C1437 C1438 1.366 . S
C1438 C1437 1.366 . S
C1438 C1439 1.414 . S
C1438 C1441 1.499 . S
C1439 H1413 0.950 . S
C1439 C1438 1.414 . S
C1439 C1440 1.374 . S
C1440 H1414 0.950 . S
C1440 C1436 1.385 . S
C1440 C1439 1.374 . S
C1441 C1438 1.499 . S
C1441 C1442 1.373 . S
C1441 C1443 1.389 . S
C1442 H1415 0.950 . S
C1442 C1428 1.377 . S
C1442 C1441 1.373 . S
C1443 C1427 1.377 . S
C1443 C1441 1.389 . S
C1443 C1444 1.524 . S
C1444 C1443 1.524 . S
C1444 C1445 1.397 . S
C1444 C1449 1.363 . S
C1445 H1416 0.950 . S
C1445 C1444 1.397 . S
C1445 C1446 1.334 . S
C1446 H1417 0.950 . S
C1446 C1445 1.334 . S
C1446 C1447 1.287 . S
C1447 C1446 1.287 . S
C1447 C1448 1.524 . S
C1447 H1450 0.999 . S
C1448 H1418 0.950 . S
C1448 C1447 1.524 . S
C1448 C1449 1.415 . S
C1449 H1419 0.950 . S
C1449 C1444 1.363 . S
C1449 C1448 1.415 . S
H1450 C1447 0.999 . S
H1451 C1432 0.913 . S
H1452 C1470 0.951 . S
H1453 C1472 0.951 . S
H1454 C1474 0.950 1_455 S
H1455 C1475 0.950 . S
H1456 C1477 0.950 . S
H1457 C1480 0.950 . S
H1458 C1481 0.950 . S
H1459 C1483 0.950 . S
H1460 C1484 0.950 . S
H1461 C1485 0.951 . S
H1462 C1487 0.951 . S
H1463 C1489 0.950 . S
H1464 C1490 0.950 . S
H1465 C1492 0.950 1_655 S
H1466 C1495 0.950 . S
H1467 C1496 0.950 . S
H1468 C1498 0.950 . S
H1469 C1499 0.950 . S
C1470 H1452 0.951 . S
C1470 C1471 1.366 . S
C1470 C1472 1.388 . S
C1471 C1470 1.366 . S
C1471 C1475 1.385 . S
C1472 H1453 0.951 . S
C1472 C1470 1.388 . S
C1472 C1473 1.366 . S
C1473 C1472 1.366 . S
C1473 C1474 1.414 . S
C1473 C1476 1.499 1_655 S
C1474 H1454 0.950 1_655 S
C1474 C1473 1.414 . S
C1474 C1475 1.374 . S
C1475 H1455 0.950 . S
C1475 C1471 1.385 . S
C1475 C1474 1.374 . S
C1476 C1473 1.499 1_455 S
C1476 C1477 1.373 . S
C1476 C1478 1.389 1_455 S
C1477 H1456 0.950 . S
C1477 C1476 1.373 . S
C1477 C1493 1.377 . S
C1478 C1476 1.389 1_655 S
C1478 C1479 1.524 . S
C1478 C1492 1.377 1_655 S
C1479 C1478 1.524 . S
C1479 C1480 1.397 . S
C1479 C1484 1.363 . S
C1480 H1457 0.950 . S
C1480 C1479 1.397 . S
C1480 C1481 1.334 . S
C1481 H1458 0.950 . S
C1481 C1480 1.334 . S
C1481 C1482 1.287 . S
C1482 C1481 1.287 . S
C1482 C1483 1.524 . S
C1482 H1501 0.913 . S
C1483 H1459 0.950 . S
C1483 C1482 1.524 . S
C1483 C1484 1.415 . S
C1484 H1460 0.950 . S
C1484 C1479 1.363 . S
C1484 C1483 1.415 . S
C1485 H1461 0.951 . S
C1485 C1486 1.366 . S
C1485 C1487 1.388 . S
C1486 C1485 1.366 . S
C1486 C1490 1.385 . S
C1487 H1462 0.951 . S
C1487 C1485 1.388 . S
C1487 C1488 1.366 . S
C1488 C1487 1.366 . S
C1488 C1489 1.414 . S
C1488 C1491 1.499 . S
C1489 H1463 0.950 . S
C1489 C1488 1.414 . S
C1489 C1490 1.374 . S
C1490 H1464 0.950 . S
C1490 C1486 1.385 . S
C1490 C1489 1.374 . S
C1491 C1488 1.499 . S
C1491 C1492 1.373 . S
C1491 C1493 1.389 . S
C1492 H1465 0.950 1_455 S
C1492 C1478 1.377 1_455 S
C1492 C1491 1.373 . S
C1493 C1477 1.377 . S
C1493 C1491 1.389 . S
C1493 C1494 1.524 . S
C1494 C1493 1.524 . S
C1494 C1495 1.397 . S
C1494 C1499 1.363 . S
C1495 H1466 0.950 . S
C1495 C1494 1.397 . S
C1495 C1496 1.334 . S
C1496 H1467 0.950 . S
C1496 C1495 1.334 . S
C1496 C1497 1.287 . S
C1497 C1496 1.287 . S
C1497 C1498 1.524 . S
C1497 H1500 0.999 . S
C1498 H1468 0.950 . S
C1498 C1497 1.524 . S
C1498 C1499 1.415 . S
C1499 H1469 0.950 . S
C1499 C1494 1.363 . S
C1499 C1498 1.415 . S
H1500 C1497 0.999 . S
H1501 C1482 0.913 . S
H1502 C1520 0.951 . S
H1503 C1522 0.951 . S
H1504 C1524 0.950 . S
H1505 C1525 0.950 . S
H1506 C1527 0.950 . S
H1507 C1530 0.950 . S
H1508 C1531 0.950 . S
H1509 C1533 0.950 . S
H1510 C1534 0.950 . S
H1511 C1535 0.951 . S
H1512 C1537 0.951 . S
H1513 C1539 0.950 . S
H1514 C1540 0.950 . S
H1515 C1542 0.950 . S
H1516 C1545 0.950 . S
H1517 C1546 0.950 . S
H1518 C1548 0.950 . S
H1519 C1549 0.950 . S
C1520 H1502 0.951 . S
C1520 C1521 1.366 . S
C1520 C1522 1.388 . S
C1521 C1520 1.366 . S
C1521 C1525 1.385 . S
C1522 H1503 0.951 . S
C1522 C1520 1.388 . S
C1522 C1523 1.366 . S
C1523 C1522 1.366 . S
C1523 C1524 1.414 . S
C1523 C1526 1.499 . S
C1524 H1504 0.950 . S
C1524 C1523 1.414 . S
C1524 C1525 1.374 . S
C1525 H1505 0.950 . S
C1525 C1521 1.385 . S
C1525 C1524 1.374 . S
C1526 C1523 1.499 . S
C1526 C1527 1.373 . S
C1526 C1528 1.389 . S
C1527 H1506 0.950 . S
C1527 C1526 1.373 . S
C1527 C1543 1.377 . S
C1528 C1526 1.389 . S
C1528 C1529 1.524 . S
C1528 C1542 1.377 . S
C1529 C1528 1.524 . S
C1529 C1530 1.397 . S
C1529 C1534 1.363 . S
C1530 H1507 0.950 . S
C1530 C1529 1.397 . S
C1530 C1531 1.334 . S
C1531 H1508 0.950 . S
C1531 C1530 1.334 . S
C1531 C1532 1.287 . S
C1532 C1531 1.287 . S
C1532 C1533 1.524 . S
C1532 H1551 0.913 . S
C1533 H1509 0.950 . S
C1533 C1532 1.524 . S
C1533 C1534 1.415 . S
C1534 H1510 0.950 . S
C1534 C1529 1.363 . S
C1534 C1533 1.415 . S
C1535 H1511 0.951 . S
C1535 C1536 1.366 . S
C1535 C1537 1.388 . S
C1536 C1535 1.366 . S
C1536 C1540 1.385 . S
C1537 H1512 0.951 . S
C1537 C1535 1.388 . S
C1537 C1538 1.366 . S
C1538 C1537 1.366 . S
C1538 C1539 1.414 . S
C1538 C1541 1.499 . S
C1539 H1513 0.950 . S
C1539 C1538 1.414 . S
C1539 C1540 1.374 . S
C1540 H1514 0.950 . S
C1540 C1536 1.385 . S
C1540 C1539 1.374 . S
C1541 C1538 1.499 . S
C1541 C1542 1.373 . S
C1541 C1543 1.389 . S
C1542 H1515 0.950 . S
C1542 C1528 1.377 . S
C1542 C1541 1.373 . S
C1543 C1527 1.377 . S
C1543 C1541 1.389 . S
C1543 C1544 1.524 . S
C1544 C1543 1.524 . S
C1544 C1545 1.397 . S
C1544 C1549 1.363 . S
C1545 H1516 0.950 . S
C1545 C1544 1.397 . S
C1545 C1546 1.334 . S
C1546 H1517 0.950 . S
C1546 C1545 1.334 . S
C1546 C1547 1.287 . S
C1547 C1546 1.287 . S
C1547 C1548 1.524 . S
C1547 H1550 0.999 . S
C1548 H1518 0.950 . S
C1548 C1547 1.524 . S
C1548 C1549 1.415 . S
C1549 H1519 0.950 . S
C1549 C1544 1.363 . S
C1549 C1548 1.415 . S
H1550 C1547 0.999 . S
H1551 C1532 0.913 . S
H1552 C1570 0.951 . S
H1553 C1572 0.951 . S
H1554 C1574 0.950 . S
H1555 C1575 0.950 . S
H1556 C1577 0.950 . S
H1557 C1580 0.950 . S
H1558 C1581 0.950 . S
H1559 C1583 0.950 . S
H1560 C1584 0.950 . S
H1561 C1585 0.951 . S
H1562 C1587 0.951 . S
H1563 C1589 0.950 . S
H1564 C1590 0.950 . S
H1565 C1592 0.950 . S
H1566 C1595 0.950 . S
H1567 C1596 0.950 . S
H1568 C1598 0.950 . S
H1569 C1599 0.950 . S
C1570 H1552 0.951 . S
C1570 C1571 1.366 . S
C1570 C1572 1.388 . S
C1571 C1570 1.366 . S
C1571 C1575 1.385 . S
C1572 H1553 0.951 . S
C1572 C1570 1.388 . S
C1572 C1573 1.366 . S
C1573 C1572 1.366 . S
C1573 C1574 1.414 . S
C1573 C1576 1.499 . S
C1574 H1554 0.950 . S
C1574 C1573 1.414 . S
C1574 C1575 1.374 . S
C1575 H1555 0.950 . S
C1575 C1571 1.385 . S
C1575 C1574 1.374 . S
C1576 C1573 1.499 . S
C1576 C1577 1.373 . S
C1576 C1578 1.389 . S
C1577 H1556 0.950 . S
C1577 C1576 1.373 . S
C1577 C1593 1.377 . S
C1578 C1576 1.389 . S
C1578 C1579 1.524 . S
C1578 C1592 1.377 . S
C1579 C1578 1.524 . S
C1579 C1580 1.397 . S
C1579 C1584 1.363 . S
C1580 H1557 0.950 . S
C1580 C1579 1.397 . S
C1580 C1581 1.334 . S
C1581 H1558 0.950 . S
C1581 C1580 1.334 . S
C1581 C1582 1.287 . S
C1582 C1581 1.287 . S
C1582 C1583 1.524 . S
C1582 H1601 0.913 . S
C1583 H1559 0.950 . S
C1583 C1582 1.524 . S
C1583 C1584 1.415 . S
C1584 H1560 0.950 . S
C1584 C1579 1.363 . S
C1584 C1583 1.415 . S
C1585 H1561 0.951 . S
C1585 C1586 1.366 . S
C1585 C1587 1.388 . S
C1586 C1585 1.366 . S
C1586 C1590 1.385 . S
C1587 H1562 0.951 . S
C1587 C1585 1.388 . S
C1587 C1588 1.366 . S
C1588 C1587 1.366 . S
C1588 C1589 1.414 . S
C1588 C1591 1.499 . S
C1589 H1563 0.950 . S
C1589 C1588 1.414 . S
C1589 C1590 1.374 . S
C1590 H1564 0.950 . S
C1590 C1586 1.385 . S
C1590 C1589 1.374 . S
C1591 C1588 1.499 . S
C1591 C1592 1.373 . S
C1591 C1593 1.389 . S
C1592 H1565 0.950 . S
C1592 C1578 1.377 . S
C1592 C1591 1.373 . S
C1593 C1577 1.377 . S
C1593 C1591 1.389 . S
C1593 C1594 1.524 . S
C1594 C1593 1.524 . S
C1594 C1595 1.397 . S
C1594 C1599 1.363 . S
C1595 H1566 0.950 . S
C1595 C1594 1.397 . S
C1595 C1596 1.334 . S
C1596 H1567 0.950 . S
C1596 C1595 1.334 . S
C1596 C1597 1.287 . S
C1597 C1596 1.287 . S
C1597 C1598 1.524 . S
C1597 H1600 0.999 . S
C1598 H1568 0.950 . S
C1598 C1597 1.524 . S
C1598 C1599 1.415 . S
C1599 H1569 0.950 . S
C1599 C1594 1.363 . S
C1599 C1598 1.415 . S
H1600 C1597 0.999 . S
H1601 C1582 0.913 . S
H1602 C1620 0.951 . S
H1603 C1622 0.951 1_545 S
H1604 C1624 0.950 . S
H1605 C1625 0.950 . S
H1606 C1627 0.950 . S
H1607 C1630 0.950 . S
H1608 C1631 0.950 . S
H1609 C1633 0.950 . S
H1610 C1634 0.950 . S
H1611 C1635 0.951 . S
H1612 C1637 0.951 1_565 S
H1613 C1639 0.950 . S
H1614 C1640 0.950 . S
H1615 C1642 0.950 . S
H1616 C1645 0.950 . S
H1617 C1646 0.950 . S
H1618 C1648 0.950 . S
H1619 C1649 0.950 . S
C1620 H1602 0.951 . S
C1620 C1621 1.366 . S
C1620 C1622 1.388 1_554 S
C1621 C1620 1.366 . S
C1621 C1625 1.385 . S
C1622 H1603 0.951 1_565 S
C1622 C1620 1.388 1_556 S
C1622 C1623 1.366 . S
C1623 C1622 1.366 . S
C1623 C1624 1.414 . S
C1623 C1626 1.499 . S
C1624 H1604 0.950 . S
C1624 C1623 1.414 . S
C1624 C1625 1.374 1_556 S
C1625 H1605 0.950 . S
C1625 C1621 1.385 . S
C1625 C1624 1.374 1_554 S
C1626 C1623 1.499 . S
C1626 C1627 1.373 . S
C1626 C1628 1.389 1_565 S
C1627 H1606 0.950 . S
C1627 C1626 1.373 . S
C1627 C1643 1.377 . S
C1628 C1626 1.389 1_545 S
C1628 C1629 1.524 . S
C1628 C1642 1.377 . S
C1629 C1628 1.524 . S
C1629 C1630 1.397 1_545 S
C1629 C1634 1.363 . S
C1630 H1607 0.950 . S
C1630 C1629 1.397 1_565 S
C1630 C1631 1.334 . S
C1631 H1608 0.950 . S
C1631 C1630 1.334 . S
C1631 C1632 1.287 1_565 S
C1632 C1631 1.287 1_545 S
C1632 C1633 1.524 . S
C1632 H1651 0.913 . S
C1633 H1609 0.950 . S
C1633 C1632 1.524 . S
C1633 C1634 1.415 . S
C1634 H1610 0.950 . S
C1634 C1629 1.363 . S
C1634 C1633 1.415 . S
C1635 H1611 0.951 . S
C1635 C1636 1.366 . S
C1635 C1637 1.388 . S
C1636 C1635 1.366 . S
C1636 C1640 1.385 . S
C1637 H1612 0.951 1_545 S
C1637 C1635 1.388 . S
C1637 C1638 1.366 . S
C1638 C1637 1.366 . S
C1638 C1639 1.414 . S
C1638 C1641 1.499 . S
C1639 H1613 0.950 . S
C1639 C1638 1.414 . S
C1639 C1640 1.374 . S
C1640 H1614 0.950 . S
C1640 C1636 1.385 . S
C1640 C1639 1.374 . S
C1641 C1638 1.499 . S
C1641 C1642 1.373 . S
C1641 C1643 1.389 1_545 S
C1642 H1615 0.950 . S
C1642 C1628 1.377 . S
C1642 C1641 1.373 . S
C1643 C1627 1.377 . S
C1643 C1641 1.389 1_565 S
C1643 C1644 1.524 . S
C1644 C1643 1.524 . S
C1644 C1645 1.397 1_565 S
C1644 C1649 1.363 . S
C1645 H1616 0.950 . S
C1645 C1644 1.397 1_545 S
C1645 C1646 1.334 . S
C1646 H1617 0.950 . S
C1646 C1645 1.334 . S
C1646 C1647 1.287 1_545 S
C1647 C1646 1.287 1_565 S
C1647 C1648 1.524 . S
C1647 H1650 1.001 . S
C1648 H1618 0.950 . S
C1648 C1647 1.524 . S
C1648 C1649 1.415 . S
C1649 H1619 0.950 . S
C1649 C1644 1.363 . S
C1649 C1648 1.415 . S
H1650 C1647 1.001 . S
H1651 C1632 0.913 . S
H1652 C1670 0.951 . S
H1653 C1672 0.951 . S
H1654 C1674 0.950 . S
H1655 C1675 0.950 . S
H1656 C1677 0.950 . S
H1657 C1680 0.950 . S
H1658 C1681 0.950 . S
H1659 C1683 0.950 . S
H1660 C1684 0.950 . S
H1661 C1685 0.951 . S
H1662 C1687 0.951 . S
H1663 C1689 0.950 . S
H1664 C1690 0.950 . S
H1665 C1692 0.950 . S
H1666 C1695 0.950 . S
H1667 C1696 0.950 . S
H1668 C1698 0.950 . S
H1669 C1699 0.950 . S
C1670 H1652 0.951 . S
C1670 C1671 1.366 . S
C1670 C1672 1.388 . S
C1671 C1670 1.366 . S
C1671 C1675 1.385 . S
C1672 H1653 0.951 . S
C1672 C1670 1.388 . S
C1672 C1673 1.366 . S
C1673 C1672 1.366 . S
C1673 C1674 1.414 . S
C1673 C1676 1.499 . S
C1674 H1654 0.950 . S
C1674 C1673 1.414 . S
C1674 C1675 1.374 . S
C1675 H1655 0.950 . S
C1675 C1671 1.385 . S
C1675 C1674 1.374 . S
C1676 C1673 1.499 . S
C1676 C1677 1.373 . S
C1676 C1678 1.389 . S
C1677 H1656 0.950 . S
C1677 C1676 1.373 . S
C1677 C1693 1.377 . S
C1678 C1676 1.389 . S
C1678 C1679 1.524 . S
C1678 C1692 1.377 . S
C1679 C1678 1.524 . S
C1679 C1680 1.397 . S
C1679 C1684 1.363 . S
C1680 H1657 0.950 . S
C1680 C1679 1.397 . S
C1680 C1681 1.334 . S
C1681 H1658 0.950 . S
C1681 C1680 1.334 . S
C1681 C1682 1.287 . S
C1682 C1681 1.287 . S
C1682 C1683 1.524 . S
C1682 H1701 0.913 . S
C1683 H1659 0.950 . S
C1683 C1682 1.524 . S
C1683 C1684 1.415 . S
C1684 H1660 0.950 . S
C1684 C1679 1.363 . S
C1684 C1683 1.415 . S
C1685 H1661 0.951 . S
C1685 C1686 1.366 . S
C1685 C1687 1.388 . S
C1686 C1685 1.366 . S
C1686 C1690 1.385 1_554 S
C1687 H1662 0.951 . S
C1687 C1685 1.388 . S
C1687 C1688 1.366 1_554 S
C1688 C1687 1.366 1_556 S
C1688 C1689 1.414 . S
C1688 C1691 1.499 . S
C1689 H1663 0.950 . S
C1689 C1688 1.414 . S
C1689 C1690 1.374 . S
C1690 H1664 0.950 . S
C1690 C1686 1.385 1_556 S
C1690 C1689 1.374 . S
C1691 C1688 1.499 . S
C1691 C1692 1.373 . S
C1691 C1693 1.389 . S
C1692 H1665 0.950 . S
C1692 C1678 1.377 . S
C1692 C1691 1.373 . S
C1693 C1677 1.377 . S
C1693 C1691 1.389 . S
C1693 C1694 1.524 . S
C1694 C1693 1.524 . S
C1694 C1695 1.397 . S
C1694 C1699 1.363 1_556 S
C1695 H1666 0.950 . S
C1695 C1694 1.397 . S
C1695 C1696 1.334 1_556 S
C1696 H1667 0.950 . S
C1696 C1695 1.334 1_554 S
C1696 C1697 1.287 . S
C1697 C1696 1.287 . S
C1697 C1698 1.524 . S
C1697 H1700 0.999 . S
C1698 H1668 0.950 . S
C1698 C1697 1.524 . S
C1698 C1699 1.415 . S
C1699 H1669 0.950 . S
C1699 C1694 1.363 1_554 S
C1699 C1698 1.415 . S
H1700 C1697 0.999 . S
H1701 C1682 0.913 . S
H1702 C1720 0.951 . S
H1703 C1722 0.951 . S
H1704 C1724 0.950 . S
H1705 C1725 0.950 . S
H1706 C1727 0.950 . S
H1707 C1730 0.950 . S
H1708 C1731 0.950 . S
H1709 C1733 0.950 . S
H1710 C1734 0.950 . S
H1711 C1735 0.951 . S
H1712 C1737 0.951 . S
H1713 C1739 0.950 . S
H1714 C1740 0.950 . S
H1715 C1742 0.950 . S
H1716 C1745 0.950 . S
H1717 C1746 0.950 . S
H1718 C1748 0.950 . S
H1719 C1749 0.950 . S
C1720 H1702 0.951 . S
C1720 C1721 1.366 . S
C1720 C1722 1.388 . S
C1721 C1720 1.366 . S
C1721 C1725 1.385 . S
C1722 H1703 0.951 . S
C1722 C1720 1.388 . S
C1722 C1723 1.366 . S
C1723 C1722 1.366 . S
C1723 C1724 1.414 . S
C1723 C1726 1.499 . S
C1724 H1704 0.950 . S
C1724 C1723 1.414 . S
C1724 C1725 1.374 . S
C1725 H1705 0.950 . S
C1725 C1721 1.385 . S
C1725 C1724 1.374 . S
C1726 C1723 1.499 . S
C1726 C1727 1.373 . S
C1726 C1728 1.389 . S
C1727 H1706 0.950 . S
C1727 C1726 1.373 . S
C1727 C1743 1.377 . S
C1728 C1726 1.389 . S
C1728 C1729 1.524 . S
C1728 C1742 1.377 . S
C1729 C1728 1.524 . S
C1729 C1730 1.397 . S
C1729 C1734 1.363 . S
C1730 H1707 0.950 . S
C1730 C1729 1.397 . S
C1730 C1731 1.334 . S
C1731 H1708 0.950 . S
C1731 C1730 1.334 . S
C1731 C1732 1.287 . S
C1732 C1731 1.287 . S
C1732 C1733 1.524 . S
C1732 H1751 0.913 . S
C1733 H1709 0.950 . S
C1733 C1732 1.524 . S
C1733 C1734 1.415 . S
C1734 H1710 0.950 . S
C1734 C1729 1.363 . S
C1734 C1733 1.415 . S
C1735 H1711 0.951 . S
C1735 C1736 1.366 1_556 S
C1735 C1737 1.388 . S
C1736 C1735 1.366 1_554 S
C1736 C1740 1.385 . S
C1737 H1712 0.951 . S
C1737 C1735 1.388 . S
C1737 C1738 1.366 . S
C1738 C1737 1.366 . S
C1738 C1739 1.414 . S
C1738 C1741 1.499 . S
C1739 H1713 0.950 . S
C1739 C1738 1.414 . S
C1739 C1740 1.374 1_556 S
C1740 H1714 0.950 . S
C1740 C1736 1.385 . S
C1740 C1739 1.374 1_554 S
C1741 C1738 1.499 . S
C1741 C1742 1.373 . S
C1741 C1743 1.389 . S
C1742 H1715 0.950 . S
C1742 C1728 1.377 . S
C1742 C1741 1.373 . S
C1743 C1727 1.377 . S
C1743 C1741 1.389 . S
C1743 C1744 1.524 . S
C1744 C1743 1.524 . S
C1744 C1745 1.397 1_556 S
C1744 C1749 1.363 . S
C1745 H1716 0.950 . S
C1745 C1744 1.397 1_554 S
C1745 C1746 1.334 . S
C1746 H1717 0.950 . S
C1746 C1745 1.334 . S
C1746 C1747 1.287 . S
C1747 C1746 1.287 . S
C1747 C1748 1.524 1_554 S
C1747 H1750 0.999 . S
C1748 H1718 0.950 . S
C1748 C1747 1.524 1_556 S
C1748 C1749 1.415 . S
C1749 H1719 0.950 . S
C1749 C1744 1.363 . S
C1749 C1748 1.415 . S
H1750 C1747 0.999 . S
H1751 C1732 0.913 . S
H1752 C1770 0.951 1_565 S
H1753 C1772 0.951 . S
H1754 C1774 0.950 . S
H1755 C1775 0.950 . S
H1756 C1777 0.950 . S
H1757 C1780 0.950 . S
H1758 C1781 0.950 . S
H1759 C1783 0.950 . S
H1760 C1784 0.950 . S
H1761 C1785 0.951 . S
H1762 C1787 0.951 . S
H1763 C1789 0.950 . S
H1764 C1790 0.950 . S
H1765 C1792 0.950 . S
H1766 C1795 0.950 . S
H1767 C1796 0.950 . S
H1768 C1798 0.950 . S
H1769 C1799 0.950 . S
C1770 H1752 0.951 1_545 S
C1770 C1771 1.353 . S
C1770 C1772 1.388 . S
C1771 C1770 1.353 . S
C1771 C1775 1.462 . S
C1772 H1753 0.951 . S
C1772 C1770 1.388 . S
C1772 C1773 1.366 . S
C1773 C1772 1.366 . S
C1773 C1774 1.414 . S
C1773 C1776 1.499 . S
C1774 H1754 0.950 . S
C1774 C1773 1.414 . S
C1774 C1775 1.374 . S
C1775 H1755 0.950 . S
C1775 C1771 1.462 . S
C1775 C1774 1.374 . S
C1776 C1773 1.499 . S
C1776 C1777 1.373 . S
C1776 C1778 1.389 . S
C1777 H1756 0.950 . S
C1777 C1776 1.373 . S
C1777 C1793 1.377 . S
C1778 C1776 1.389 . S
C1778 C1779 1.524 . S
C1778 C1792 1.377 . S
C1779 C1778 1.524 . S
C1779 C1780 1.397 . S
C1779 C1784 1.363 . S
C1780 H1757 0.950 . S
C1780 C1779 1.397 . S
C1780 C1781 1.334 . S
C1781 H1758 0.950 . S
C1781 C1780 1.334 . S
C1781 C1782 1.287 . S
C1782 C1781 1.287 . S
C1782 C1783 1.524 . S
C1782 H1801 0.913 1_545 S
C1783 H1759 0.950 . S
C1783 C1782 1.524 . S
C1783 C1784 1.415 . S
C1784 H1760 0.950 . S
C1784 C1779 1.363 . S
C1784 C1783 1.415 . S
C1785 H1761 0.951 . S
C1785 C1786 1.366 . S
C1785 C1787 1.388 . S
C1786 C1785 1.366 . S
C1786 C1790 1.385 . S
C1787 H1762 0.951 . S
C1787 C1785 1.388 . S
C1787 C1788 1.366 . S
C1788 C1787 1.366 . S
C1788 C1789 1.414 . S
C1788 C1791 1.499 . S
C1789 H1763 0.950 . S
C1789 C1788 1.414 . S
C1789 C1790 1.374 . S
C1790 H1764 0.950 . S
C1790 C1786 1.385 . S
C1790 C1789 1.374 . S
C1791 C1788 1.499 . S
C1791 C1792 1.373 . S
C1791 C1793 1.389 . S
C1792 H1765 0.950 . S
C1792 C1778 1.377 . S
C1792 C1791 1.373 . S
C1793 C1777 1.377 . S
C1793 C1791 1.389 . S
C1793 C1794 1.524 . S
C1794 C1793 1.524 . S
C1794 C1795 1.397 . S
C1794 C1799 1.363 . S
C1795 H1766 0.950 . S
C1795 C1794 1.397 . S
C1795 C1796 1.334 . S
C1796 H1767 0.950 . S
C1796 C1795 1.334 . S
C1796 C1797 1.287 . S
C1797 C1796 1.287 . S
C1797 C1798 1.524 . S
C1797 H1800 0.999 . S
C1798 H1768 0.950 . S
C1798 C1797 1.524 . S
C1798 C1799 1.415 . S
C1799 H1769 0.950 . S
C1799 C1794 1.363 . S
C1799 C1798 1.415 . S
H1800 C1797 0.999 . S
H1801 C1782 0.913 1_565 S
H1802 C1820 0.951 . S
H1803 C1822 0.951 . S
H1804 C1824 0.950 . S
H1805 C1825 0.950 . S
H1806 C1827 0.950 . S
H1807 C1830 0.950 . S
H1808 C1831 0.950 . S
H1809 C1833 0.950 . S
H1810 C1834 0.950 . S
H1811 C1835 0.951 . S
H1812 C1837 0.951 . S
H1813 C1839 0.950 . S
H1814 C1840 0.950 . S
H1815 C1842 0.950 . S
H1816 C1845 0.950 . S
H1817 C1846 0.950 . S
H1818 C1848 0.950 . S
H1819 C1849 0.950 . S
C1820 H1802 0.951 . S
C1820 C1821 1.366 . S
C1820 C1822 1.388 . S
C1821 C1820 1.366 . S
C1821 C1825 1.385 . S
C1822 H1803 0.951 . S
C1822 C1820 1.388 . S
C1822 C1823 1.366 . S
C1823 C1822 1.366 . S
C1823 C1824 1.414 . S
C1823 C1826 1.499 . S
C1824 H1804 0.950 . S
C1824 C1823 1.414 . S
C1824 C1825 1.374 . S
C1825 H1805 0.950 . S
C1825 C1821 1.385 . S
C1825 C1824 1.374 . S
C1826 C1823 1.499 . S
C1826 C1827 1.373 . S
C1826 C1828 1.389 . S
C1827 H1806 0.950 . S
C1827 C1826 1.373 . S
C1827 C1843 1.377 . S
C1828 C1826 1.389 . S
C1828 C1829 1.524 . S
C1828 C1842 1.377 . S
C1829 C1828 1.524 . S
C1829 C1830 1.397 . S
C1829 C1834 1.363 . S
C1830 H1807 0.950 . S
C1830 C1829 1.397 . S
C1830 C1831 1.334 . S
C1831 H1808 0.950 . S
C1831 C1830 1.334 . S
C1831 C1832 1.287 . S
C1832 C1831 1.287 . S
C1832 C1833 1.524 . S
C1832 H1851 0.913 . S
C1833 H1809 0.950 . S
C1833 C1832 1.524 . S
C1833 C1834 1.415 . S
C1834 H1810 0.950 . S
C1834 C1829 1.363 . S
C1834 C1833 1.415 . S
C1835 H1811 0.951 . S
C1835 C1836 1.366 . S
C1835 C1837 1.388 . S
C1836 C1835 1.366 . S
C1836 C1840 1.385 . S
C1837 H1812 0.951 . S
C1837 C1835 1.388 . S
C1837 C1838 1.366 . S
C1838 C1837 1.366 . S
C1838 C1839 1.414 . S
C1838 C1841 1.499 . S
C1839 H1813 0.950 . S
C1839 C1838 1.414 . S
C1839 C1840 1.374 . S
C1840 H1814 0.950 . S
C1840 C1836 1.385 . S
C1840 C1839 1.374 . S
C1841 C1838 1.499 . S
C1841 C1842 1.373 . S
C1841 C1843 1.389 . S
C1842 H1815 0.950 . S
C1842 C1828 1.377 . S
C1842 C1841 1.373 . S
C1843 C1827 1.377 . S
C1843 C1841 1.389 . S
C1843 C1844 1.524 . S
C1844 C1843 1.524 . S
C1844 C1845 1.397 . S
C1844 C1849 1.363 . S
C1845 H1816 0.950 . S
C1845 C1844 1.397 . S
C1845 C1846 1.334 . S
C1846 H1817 0.950 . S
C1846 C1845 1.334 . S
C1846 C1847 1.287 . S
C1847 C1846 1.287 . S
C1847 C1848 1.524 . S
C1847 H1850 0.999 . S
C1848 H1818 0.950 . S
C1848 C1847 1.524 . S
C1848 C1849 1.415 . S
C1849 H1819 0.950 . S
C1849 C1844 1.363 . S
C1849 C1848 1.415 . S
H1850 C1847 0.999 . S
H1851 C1832 0.913 . S
H1852 C1870 0.951 . S
H1853 C1872 0.951 . S
H1854 C1874 0.950 . S
H1855 C1875 0.950 . S
H1856 C1877 0.950 . S
H1857 C1880 0.950 . S
H1858 C1881 0.950 . S
H1859 C1883 0.950 . S
H1860 C1884 0.950 . S
H1861 C1885 0.951 . S
H1862 C1887 0.951 . S
H1863 C1889 0.950 . S
H1864 C1890 0.950 . S
H1865 C1892 0.950 . S
H1866 C1895 0.950 . S
H1867 C1896 0.950 . S
H1868 C1898 0.950 . S
H1869 C1899 0.950 . S
C1870 H1852 0.951 . S
C1870 C1871 1.366 . S
C1870 C1872 1.388 . S
C1871 C1870 1.366 . S
C1871 C1875 1.385 . S
C1872 H1853 0.951 . S
C1872 C1870 1.388 . S
C1872 C1873 1.366 . S
C1873 C1872 1.366 . S
C1873 C1874 1.414 . S
C1873 C1876 1.499 . S
C1874 H1854 0.950 . S
C1874 C1873 1.414 . S
C1874 C1875 1.374 . S
C1875 H1855 0.950 . S
C1875 C1871 1.385 . S
C1875 C1874 1.374 . S
C1876 C1873 1.499 . S
C1876 C1877 1.373 . S
C1876 C1878 1.389 . S
C1877 H1856 0.950 . S
C1877 C1876 1.373 . S
C1877 C1893 1.377 . S
C1878 C1876 1.389 . S
C1878 C1879 1.524 . S
C1878 C1892 1.377 . S
C1879 C1878 1.524 . S
C1879 C1880 1.397 . S
C1879 C1884 1.363 . S
C1880 H1857 0.950 . S
C1880 C1879 1.397 . S
C1880 C1881 1.334 . S
C1881 H1858 0.950 . S
C1881 C1880 1.334 . S
C1881 C1882 1.287 . S
C1882 C1881 1.287 . S
C1882 C1883 1.524 . S
C1882 H1901 0.913 . S
C1883 H1859 0.950 . S
C1883 C1882 1.524 . S
C1883 C1884 1.415 . S
C1884 H1860 0.950 . S
C1884 C1879 1.363 . S
C1884 C1883 1.415 . S
C1885 H1861 0.951 . S
C1885 C1886 1.366 . S
C1885 C1887 1.388 . S
C1886 C1885 1.366 . S
C1886 C1890 1.385 . S
C1887 H1862 0.951 . S
C1887 C1885 1.388 . S
C1887 C1888 1.366 . S
C1888 C1887 1.366 . S
C1888 C1889 1.414 . S
C1888 C1891 1.499 . S
C1889 H1863 0.950 . S
C1889 C1888 1.414 . S
C1889 C1890 1.374 . S
C1890 H1864 0.950 . S
C1890 C1886 1.385 . S
C1890 C1889 1.374 . S
C1891 C1888 1.499 . S
C1891 C1892 1.373 . S
C1891 C1893 1.389 . S
C1892 H1865 0.950 . S
C1892 C1878 1.377 . S
C1892 C1891 1.373 . S
C1893 C1877 1.377 . S
C1893 C1891 1.389 . S
C1893 C1894 1.524 . S
C1894 C1893 1.524 . S
C1894 C1895 1.397 . S
C1894 C1899 1.363 . S
C1895 H1866 0.950 . S
C1895 C1894 1.397 . S
C1895 C1896 1.334 . S
C1896 H1867 0.950 . S
C1896 C1895 1.334 . S
C1896 C1897 1.287 . S
C1897 C1896 1.287 . S
C1897 C1898 1.524 . S
C1897 H1900 0.999 . S
C1898 H1868 0.950 . S
C1898 C1897 1.524 . S
C1898 C1899 1.415 . S
C1899 H1869 0.950 . S
C1899 C1894 1.363 . S
C1899 C1898 1.415 . S
H1900 C1897 0.999 . S
H1901 C1882 0.913 . S
H1902 C1920 0.951 . S
H1903 C1922 0.951 . S
H1904 C1924 0.950 . S
H1905 C1925 0.950 1_655 S
H1906 C1927 0.950 . S
H1907 C1930 0.950 . S
H1908 C1931 0.950 . S
H1909 C1933 0.950 . S
H1910 C1934 0.950 . S
H1911 C1935 0.951 . S
H1912 C1937 0.951 . S
H1913 C1939 0.950 . S
H1914 C1940 0.950 . S
H1915 C1942 0.950 . S
H1916 C1945 0.950 . S
H1917 C1946 0.950 . S
H1918 C1948 0.950 . S
H1919 C1949 0.950 . S
C1920 H1902 0.951 . S
C1920 C1921 1.366 . S
C1920 C1922 1.388 . S
C1921 C1920 1.366 . S
C1921 C1925 1.385 . S
C1922 H1903 0.951 . S
C1922 C1920 1.388 . S
C1922 C1923 1.366 . S
C1923 C1922 1.366 . S
C1923 C1924 1.414 . S
C1923 C1926 1.499 . S
C1924 H1904 0.950 . S
C1924 C1923 1.414 . S
C1924 C1925 1.374 . S
C1925 H1905 0.950 1_455 S
C1925 C1921 1.385 . S
C1925 C1924 1.374 . S
C1926 C1923 1.499 . S
C1926 C1927 1.373 . S
C1926 C1928 1.389 . S
C1927 H1906 0.950 . S
C1927 C1926 1.373 . S
C1927 C1943 1.377 . S
C1928 C1926 1.389 . S
C1928 C1929 1.524 . S
C1928 C1942 1.377 . S
C1929 C1928 1.524 . S
C1929 C1930 1.397 . S
C1929 C1934 1.363 . S
C1930 H1907 0.950 . S
C1930 C1929 1.397 . S
C1930 C1931 1.334 . S
C1931 H1908 0.950 . S
C1931 C1930 1.334 . S
C1931 C1932 1.287 . S
C1932 C1931 1.287 . S
C1932 C1933 1.524 . S
C1932 H1951 0.913 . S
C1933 H1909 0.950 . S
C1933 C1932 1.524 . S
C1933 C1934 1.415 . S
C1934 H1910 0.950 . S
C1934 C1929 1.363 . S
C1934 C1933 1.415 . S
C1935 H1911 0.951 . S
C1935 C1936 1.366 . S
C1935 C1937 1.388 . S
C1936 C1935 1.366 . S
C1936 C1940 1.385 . S
C1937 H1912 0.951 . S
C1937 C1935 1.388 . S
C1937 C1938 1.366 . S
C1938 C1937 1.366 . S
C1938 C1939 1.414 . S
C1938 C1941 1.499 . S
C1939 H1913 0.950 . S
C1939 C1938 1.414 . S
C1939 C1940 1.374 . S
C1940 H1914 0.950 . S
C1940 C1936 1.385 . S
C1940 C1939 1.374 . S
C1941 C1938 1.499 . S
C1941 C1942 1.373 . S
C1941 C1943 1.389 . S
C1942 H1915 0.950 . S
C1942 C1928 1.377 . S
C1942 C1941 1.373 . S
C1943 C1927 1.377 . S
C1943 C1941 1.389 . S
C1943 C1944 1.524 . S
C1944 C1943 1.524 . S
C1944 C1945 1.397 . S
C1944 C1949 1.363 . S
C1945 H1916 0.950 . S
C1945 C1944 1.397 . S
C1945 C1946 1.334 . S
C1946 H1917 0.950 . S
C1946 C1945 1.334 . S
C1946 C1947 1.287 . S
C1947 C1946 1.287 . S
C1947 C1948 1.524 . S
C1947 H1950 0.999 . S
C1948 H1918 0.950 . S
C1948 C1947 1.524 . S
C1948 C1949 1.415 . S
C1949 H1919 0.950 . S
C1949 C1944 1.363 . S
C1949 C1948 1.415 . S
H1950 C1947 0.999 . S
H1951 C1932 0.913 . S
H1952 C1970 0.951 . S
H1953 C1972 0.951 . S
H1954 C1974 0.950 . S
H1955 C1975 0.950 . S
H1956 C1977 0.950 . S
H1957 C1980 0.950 . S
H1958 C1981 0.950 . S
H1959 C1983 0.950 . S
H1960 C1984 0.950 . S
H1961 C1985 0.951 . S
H1962 C1987 0.951 . S
H1963 C1989 0.950 . S
H1964 C1990 0.950 . S
H1965 C1992 0.950 . S
H1966 C1995 0.950 . S
H1967 C1996 0.950 . S
H1968 C1998 0.950 . S
H1969 C1999 0.950 . S
C1970 H1952 0.951 . S
C1970 C1971 1.366 . S
C1970 C1972 1.388 . S
C1971 C1970 1.366 . S
C1971 C1975 1.385 . S
C1972 H1953 0.951 . S
C1972 C1970 1.388 . S
C1972 C1973 1.366 . S
C1973 C1972 1.366 . S
C1973 C1974 1.414 . S
C1973 C1976 1.499 . S
C1974 H1954 0.950 . S
C1974 C1973 1.414 . S
C1974 C1975 1.374 . S
C1975 H1955 0.950 . S
C1975 C1971 1.385 . S
C1975 C1974 1.374 . S
C1976 C1973 1.499 . S
C1976 C1977 1.373 . S
C1976 C1978 1.389 . S
C1977 H1956 0.950 . S
C1977 C1976 1.373 . S
C1977 C1993 1.377 . S
C1978 C1976 1.389 . S
C1978 C1979 1.524 . S
C1978 C1992 1.377 . S
C1979 C1978 1.524 . S
C1979 C1980 1.397 . S
C1979 C1984 1.363 . S
C1980 H1957 0.950 . S
C1980 C1979 1.397 . S
C1980 C1981 1.334 . S
C1981 H1958 0.950 . S
C1981 C1980 1.334 . S
C1981 C1982 1.287 . S
C1982 C1981 1.287 . S
C1982 C1983 1.524 . S
C1982 H2001 0.913 . S
C1983 H1959 0.950 . S
C1983 C1982 1.524 . S
C1983 C1984 1.415 . S
C1984 H1960 0.950 . S
C1984 C1979 1.363 . S
C1984 C1983 1.415 . S
C1985 H1961 0.951 . S
C1985 C1986 1.366 . S
C1985 C1987 1.388 . S
C1986 C1985 1.366 . S
C1986 C1990 1.385 . S
C1987 H1962 0.951 . S
C1987 C1985 1.388 . S
C1987 C1988 1.366 . S
C1988 C1987 1.366 . S
C1988 C1989 1.414 . S
C1988 C1991 1.499 . S
C1989 H1963 0.950 . S
C1989 C1988 1.414 . S
C1989 C1990 1.374 . S
C1990 H1964 0.950 . S
C1990 C1986 1.385 . S
C1990 C1989 1.374 . S
C1991 C1988 1.499 . S
C1991 C1992 1.373 . S
C1991 C1993 1.389 . S
C1992 H1965 0.950 . S
C1992 C1978 1.377 . S
C1992 C1991 1.373 . S
C1993 C1977 1.377 . S
C1993 C1991 1.389 . S
C1993 C1994 1.524 . S
C1994 C1993 1.524 . S
C1994 C1995 1.397 . S
C1994 C1999 1.363 . S
C1995 H1966 0.950 . S
C1995 C1994 1.397 . S
C1995 C1996 1.334 . S
C1996 H1967 0.950 . S
C1996 C1995 1.334 . S
C1996 C1997 1.287 . S
C1997 C1996 1.287 . S
C1997 C1998 1.524 . S
C1997 H2000 0.999 . S
C1998 H1968 0.950 . S
C1998 C1997 1.524 . S
C1998 C1999 1.415 . S
C1999 H1969 0.950 . S
C1999 C1994 1.363 . S
C1999 C1998 1.415 . S
H2000 C1997 0.999 . S
H2001 C1982 0.913 . S
H2002 C2020 0.951 . S
H2003 C2022 0.951 . S
H2004 C2024 0.950 . S
H2005 C2025 0.950 . S
H2006 C2027 0.950 . S
H2007 C2030 0.950 . S
H2008 C2031 0.950 . S
H2009 C2033 0.950 . S
H2010 C2034 0.950 . S
H2011 C2035 0.951 . S
H2012 C2037 0.951 . S
H2013 C2039 0.950 . S
H2014 C2040 0.950 . S
H2015 C2042 0.950 . S
H2016 C2045 0.950 . S
H2017 C2046 0.950 . S
H2018 C2048 0.950 . S
H2019 C2049 0.950 . S
C2020 H2002 0.951 . S
C2020 C2021 1.366 . S
C2020 C2022 1.388 1_565 S
C2021 C2020 1.366 . S
C2021 C2025 1.385 1_565 S
C2022 H2003 0.951 . S
C2022 C2020 1.388 1_545 S
C2022 C2023 1.366 . S
C2023 C2022 1.366 . S
C2023 C2024 1.414 . S
C2023 C2026 1.499 . S
C2024 H2004 0.950 . S
C2024 C2023 1.414 . S
C2024 C2025 1.374 . S
C2025 H2005 0.950 . S
C2025 C2021 1.385 1_545 S
C2025 C2024 1.374 . S
C2026 C2023 1.499 . S
C2026 C2027 1.373 . S
C2026 C2028 1.389 . S
C2027 H2006 0.950 . S
C2027 C2026 1.373 . S
C2027 C2043 1.377 . S
C2028 C2026 1.389 . S
C2028 C2029 1.524 . S
C2028 C2042 1.377 . S
C2029 C2028 1.524 . S
C2029 C2030 1.397 . S
C2029 C2034 1.363 . S
C2030 H2007 0.950 . S
C2030 C2029 1.397 . S
C2030 C2031 1.334 . S
C2031 H2008 0.950 . S
C2031 C2030 1.334 . S
C2031 C2032 1.287 . S
C2032 C2031 1.287 . S
C2032 C2033 1.524 . S
C2032 H2051 0.913 . S
C2033 H2009 0.950 . S
C2033 C2032 1.524 . S
C2033 C2034 1.415 . S
C2034 H2010 0.950 . S
C2034 C2029 1.363 . S
C2034 C2033 1.415 . S
C2035 H2011 0.951 . S
C2035 C2036 1.366 . S
C2035 C2037 1.388 . S
C2036 C2035 1.366 . S
C2036 C2040 1.385 . S
C2037 H2012 0.951 . S
C2037 C2035 1.388 . S
C2037 C2038 1.366 . S
C2038 C2037 1.366 . S
C2038 C2039 1.414 . S
C2038 C2041 1.499 . S
C2039 H2013 0.950 . S
C2039 C2038 1.414 . S
C2039 C2040 1.374 . S
C2040 H2014 0.950 . S
C2040 C2036 1.385 . S
C2040 C2039 1.374 . S
C2041 C2038 1.499 . S
C2041 C2042 1.373 . S
C2041 C2043 1.389 . S
C2042 H2015 0.950 . S
C2042 C2028 1.377 . S
C2042 C2041 1.373 . S
C2043 C2027 1.377 . S
C2043 C2041 1.389 . S
C2043 C2044 1.524 . S
C2044 C2043 1.524 . S
C2044 C2045 1.397 . S
C2044 C2049 1.363 . S
C2045 H2016 0.950 . S
C2045 C2044 1.397 . S
C2045 C2046 1.334 . S
C2046 H2017 0.950 . S
C2046 C2045 1.334 . S
C2046 C2047 1.287 . S
C2047 C2046 1.287 . S
C2047 C2048 1.524 . S
C2047 H2050 0.999 . S
C2048 H2018 0.950 . S
C2048 C2047 1.524 . S
C2048 C2049 1.415 . S
C2049 H2019 0.950 . S
C2049 C2044 1.363 . S
C2049 C2048 1.415 . S
H2050 C2047 0.999 . S
H2051 C2032 0.913 . S
C271 C49 1.296 . S
C286 C7 1.295 . S
C321 C64 1.316 . S
C336 C22 1.315 . S
C371 C35 1.310 . S
C386 C77 1.311 . S
C421 C36 1.259 . S
C436 C78 1.259 . S
C471 C8 1.235 . S
C486 C50 1.235 . S
C521 C63 1.231 . S
C536 C21 1.232 . S
C571 C133 1.188 . S
C586 C92 1.199 . S
C621 C106 1.213 . S
C636 C148 1.213 . S
C671 C120 1.225 . S
C686 C161 1.214 . S
C721 C162 1.364 1_556 S
C736 C119 1.352 . S
C771 C134 1.340 1_556 S
C786 C91 1.327 . S
C821 C147 1.342 1_556 S
C836 C105 1.343 . S
C871 C175 1.295 . S
C886 C217 1.296 . S
C921 C190 1.319 . S
C936 C232 1.320 . S
C971 C203 1.321 . S
C986 C245 1.321 . S
C1021 C246 1.258 . S
C1036 C204 1.259 1_554 S
C1071 C218 1.243 . S
C1086 C176 1.244 1_554 S
C1121 C231 1.235 . S
C1136 C189 1.236 1_554 S
C1171 C3 1.138 . S
C1186 C101 1.139 . S
C1221 C23 1.168 . S
C1236 C115 1.185 . S
C1271 C87 1.143 . S
C1286 C31 1.142 . S
C1321 C37 1.176 . S
C1336 C191 1.174 . S
C1371 C199 1.152 . S
C1386 C9 1.136 . S
C1421 C171 1.110 . S
C1436 C17 1.111 . S
C1471 C227 1.106 . S
C1486 C45 1.107 . S
C1521 C65 1.180 . S
C1536 C247 1.179 . S
C1571 C219 1.135 . S
C1586 C73 1.152 . S
C1621 C149 1.146 . S
C1636 C79 1.147 . S
C1671 C51 1.107 . S
C1686 C157 1.123 . S
C1721 C59 1.080 . S
C1736 C129 1.080 . S
C1771 C93 1.055 1_545 S
C1786 C185 1.118 . S
C1821 C107 1.148 . S
C1836 C205 1.149 1_455 S
C1871 C121 1.145 . S
C1886 C177 1.144 . S
C1921 C233 1.202 1_455 S
C1936 C163 1.202 . S
C1971 C241 1.181 . S
C1986 C135 1.163 . S
C2021 C143 1.142 . S
C2036 C213 1.142 . S
