# Generated by pormake.
# Topology wke, (5)-cn, num edge types: 1
# Building blocks:
#     Node 0, Type 0, BuildingBlock: XOMCOT_clean_sbu_0, # of connection points: 5
#     Node 1, Type 0, BuildingBlock: XOMCOT_clean_sbu_0, # of connection points: 5
#     Node 2, Type 0, BuildingBlock: XOMCOT_clean_sbu_0, # of connection points: 5
#     Node 3, Type 0, BuildingBlock: XOMCOT_clean_sbu_0, # of connection points: 5
#     Node 4, Type 0, BuildingBlock: XOMCOT_clean_sbu_0, # of connection points: 5
#     Node 5, Type 0, BuildingBlock: XOMCOT_clean_sbu_0, # of connection points: 5
#     Node 6, Type 0, BuildingBlock: XOMCOT_clean_sbu_0, # of connection points: 5
#     Node 7, Type 0, BuildingBlock: XOMCOT_clean_sbu_0, # of connection points: 5
#     Node 8, Type 0, BuildingBlock: XOMCOT_clean_sbu_0, # of connection points: 5
#     Node 9, Type 0, BuildingBlock: XOMCOT_clean_sbu_0, # of connection points: 5
#     Node 10, Type 0, BuildingBlock: XOMCOT_clean_sbu_0, # of connection points: 5
#     Node 11, Type 0, BuildingBlock: XOMCOT_clean_sbu_0, # of connection points: 5
#     Edge 12, Type (0, 0), BuildingBlock: AJUNOK_clean_linker_0, # of connection points: 2
#     Edge 13, Type (0, 0), BuildingBlock: AJUNOK_clean_linker_0, # of connection points: 2
#     Edge 14, Type (0, 0), BuildingBlock: AJUNOK_clean_linker_0, # of connection points: 2
#     Edge 15, Type (0, 0), BuildingBlock: AJUNOK_clean_linker_0, # of connection points: 2
#     Edge 16, Type (0, 0), BuildingBlock: AJUNOK_clean_linker_0, # of connection points: 2
#     Edge 17, Type (0, 0), BuildingBlock: AJUNOK_clean_linker_0, # of connection points: 2
#     Edge 18, Type (0, 0), BuildingBlock: AJUNOK_clean_linker_0, # of connection points: 2
#     Edge 19, Type (0, 0), BuildingBlock: AJUNOK_clean_linker_0, # of connection points: 2
#     Edge 20, Type (0, 0), BuildingBlock: AJUNOK_clean_linker_0, # of connection points: 2
#     Edge 21, Type (0, 0), BuildingBlock: AJUNOK_clean_linker_0, # of connection points: 2
#     Edge 22, Type (0, 0), BuildingBlock: AJUNOK_clean_linker_0, # of connection points: 2
#     Edge 23, Type (0, 0), BuildingBlock: AJUNOK_clean_linker_0, # of connection points: 2
#     Edge 24, Type (0, 0), BuildingBlock: AJUNOK_clean_linker_0, # of connection points: 2
#     Edge 25, Type (0, 0), BuildingBlock: AJUNOK_clean_linker_0, # of connection points: 2
#     Edge 26, Type (0, 0), BuildingBlock: AJUNOK_clean_linker_0, # of connection points: 2
#     Edge 27, Type (0, 0), BuildingBlock: AJUNOK_clean_linker_0, # of connection points: 2
#     Edge 28, Type (0, 0), BuildingBlock: AJUNOK_clean_linker_0, # of connection points: 2
#     Edge 29, Type (0, 0), BuildingBlock: AJUNOK_clean_linker_0, # of connection points: 2
#     Edge 30, Type (0, 0), BuildingBlock: AJUNOK_clean_linker_0, # of connection points: 2
#     Edge 31, Type (0, 0), BuildingBlock: AJUNOK_clean_linker_0, # of connection points: 2
#     Edge 32, Type (0, 0), BuildingBlock: AJUNOK_clean_linker_0, # of connection points: 2
#     Edge 33, Type (0, 0), BuildingBlock: AJUNOK_clean_linker_0, # of connection points: 2
#     Edge 34, Type (0, 0), BuildingBlock: AJUNOK_clean_linker_0, # of connection points: 2
#     Edge 35, Type (0, 0), BuildingBlock: AJUNOK_clean_linker_0, # of connection points: 2
#     Edge 36, Type (0, 0), BuildingBlock: AJUNOK_clean_linker_0, # of connection points: 2
#     Edge 37, Type (0, 0), BuildingBlock: AJUNOK_clean_linker_0, # of connection points: 2
#     Edge 38, Type (0, 0), BuildingBlock: AJUNOK_clean_linker_0, # of connection points: 2
#     Edge 39, Type (0, 0), BuildingBlock: AJUNOK_clean_linker_0, # of connection points: 2
#     Edge 40, Type (0, 0), BuildingBlock: AJUNOK_clean_linker_0, # of connection points: 2
#     Edge 41, Type (0, 0), BuildingBlock: AJUNOK_clean_linker_0, # of connection points: 2
# Relax obj value: 0.147
# Max RMSD: 0.149
# Mean RMSD: 0.149
data_MOF--net-wke--node1-XOMCOT_clean_sbu_0--edge1-AJUNOK_clean_linker_0
_symmetry_space_group_name_H-M    P1
_symmetry_Int_Tables_number       1
_symmetry_cell_setting            triclinic
loop_
_symmetry_equiv_pos_as_xyz
'x, y, z'
_cell_length_a     53.372601
_cell_length_b     53.382352
_cell_length_c     13.550433
_cell_angle_alpha  90.262404
_cell_angle_beta   89.693828
_cell_angle_gamma 119.95209
loop_
_atom_site_label
_atom_site_type_symbol
_atom_site_fract_x
_atom_site_fract_y
_atom_site_fract_z
_atom_type_partial_charge
Co0 Co 0.11996 0.42106 0.35978 0.0
C1 C 0.11926 0.42017 0.13983 0.0
C2 C 0.08361 0.38173 0.19886 0.0
C3 C 0.08244 0.37985 0.09732 0.0
N4 N 0.106 0.40767 0.22595 0.0
N5 N 0.10488 0.40414 0.06078 0.0
H6 H 0.13971 0.44001 0.13399 0.0
H7 H 0.06962 0.36469 0.24886 0.0
C8 C 0.05578 0.38951 0.3954 0.0
O9 O 0.05367 0.40371 0.31985 0.0
N10 N 0.13432 0.43379 0.49199 0.0
C11 C 0.15599 0.45996 0.51995 0.0
C12 C 0.15753 0.46078 0.62175 0.0
C13 C 0.12317 0.41908 0.57643 0.0
N14 N 0.13662 0.43515 0.6565 0.0
C15 C 0.12191 0.47166 0.27851 0.0
C16 C 0.08974 0.47915 0.42389 0.0
C17 C 0.10031 0.49852 0.34468 0.0
C18 C 0.11662 0.49463 0.27173 0.0
C19 C 0.09506 0.45595 0.42672 0.0
N20 N 0.1102 0.45182 0.35258 0.0
H21 H 0.13658 0.47083 0.22621 0.0
H22 H 0.08739 0.44161 0.48954 0.0
H23 H 0.16909 0.47751 0.47007 0.0
H24 H 0.10539 0.3972 0.57982 0.0
O25 O 0.15883 0.44248 0.31007 0.0
O26 O 0.13779 0.39682 0.3579 0.0
O27 O 0.08053 0.3929 0.41832 0.0
C28 C 0.16071 0.41938 0.32246 0.0
H29 H 0.06704 0.36161 0.05384 0.0
H30 H 0.17201 0.47911 0.66682 0.0
H31 H 0.07774 0.48207 0.4832 0.0
H32 H 0.12622 0.50997 0.21182 0.0
Co33 Co 0.70277 0.11725 0.86013 0.0
C34 C 0.70199 0.116 0.64094 0.0
C35 C 0.71324 0.08574 0.69915 0.0
C36 C 0.71522 0.08564 0.59748 0.0
N37 N 0.70409 0.10422 0.72649 0.0
N38 N 0.70842 0.10496 0.56152 0.0
H39 H 0.69712 0.13322 0.63593 0.0
H40 H 0.71917 0.07395 0.74961 0.0
C41 C 0.67277 0.0523 0.88706 0.0
O42 O 0.65921 0.04915 0.80323 0.0
N43 N 0.70228 0.13068 0.99231 0.0
C44 C 0.69437 0.14999 0.02056 0.0
C45 C 0.69578 0.1522 0.12223 0.0
C46 C 0.70855 0.1216 0.07639 0.0
N47 N 0.70462 0.13424 0.15686 0.0
C48 C 0.6575 0.12481 0.78032 0.0
C49 C 0.61145 0.08033 0.87822 0.0
C50 C 0.60596 0.09562 0.80554 0.0
C51 C 0.62957 0.11878 0.75924 0.0
C52 C 0.64005 0.08725 0.89739 0.0
N53 N 0.66256 0.10793 0.84326 0.0
H54 H 0.67506 0.14369 0.74701 0.0
H55 H 0.64389 0.07613 0.95649 0.0
H56 H 0.68741 0.16112 0.97096 0.0
H57 H 0.71584 0.10606 0.07891 0.0
O58 O 0.72141 0.15637 0.81319 0.0
O59 O 0.74483 0.13477 0.86621 0.0
O60 O 0.69099 0.07771 0.9175 0.0
C61 C 0.74602 0.15776 0.82821 0.0
H62 H 0.72234 0.07333 0.55368 0.0
H63 H 0.68971 0.16513 0.1673 0.0
H64 H 0.59388 0.06326 0.91978 0.0
H65 H 0.62657 0.13268 0.70847 0.0
Co66 Co 0.59277 0.70132 0.34169 0.0
C67 C 0.59446 0.70293 0.12238 0.0
C68 C 0.63217 0.70419 0.18114 0.0
C69 C 0.63491 0.70658 0.07985 0.0
N70 N 0.6063 0.70095 0.20791 0.0
N71 N 0.61122 0.70601 0.04338 0.0
H72 H 0.5745 0.70326 0.11747 0.0
H73 H 0.64863 0.706 0.23148 0.0
C74 C 0.62167 0.66595 0.37572 0.0
O75 O 0.6074 0.64949 0.30043 0.0
N76 N 0.58023 0.70267 0.47438 0.0
C77 C 0.55424 0.69844 0.50368 0.0
C78 C 0.55418 0.70038 0.60528 0.0
C79 C 0.5956 0.70718 0.55773 0.0
N80 N 0.58021 0.70586 0.63872 0.0
C81 C 0.54064 0.65601 0.25658 0.0
C82 C 0.53294 0.61204 0.3816 0.0
C83 C 0.51419 0.60547 0.3011 0.0
C84 C 0.51771 0.62818 0.24065 0.0
C85 C 0.55561 0.64051 0.39539 0.0
N86 N 0.56051 0.66168 0.32872 0.0
H87 H 0.54162 0.6731 0.2125 0.0
H88 H 0.56928 0.64544 0.45937 0.0
H89 H 0.53643 0.69366 0.45481 0.0
H90 H 0.61758 0.7112 0.55949 0.0
O91 O 0.57327 0.72102 0.29518 0.0
O92 O 0.61876 0.7431 0.34502 0.0
O93 O 0.61925 0.68792 0.39829 0.0
C94 C 0.59713 0.74515 0.30986 0.0
H95 H 0.65335 0.70961 0.0367 0.0
H96 H 0.53609 0.69701 0.65112 0.0
H97 H 0.53019 0.59541 0.43319 0.0
H98 H 0.50241 0.62467 0.18261 0.0
Co99 Co 0.89369 0.591 0.83351 0.0
C100 C 0.89648 0.5915 0.61348 0.0
C101 C 0.92334 0.63355 0.67514 0.0
C102 C 0.92495 0.63578 0.5736 0.0
N103 N 0.90602 0.60557 0.70024 0.0
N104 N 0.90823 0.60918 0.53536 0.0
H105 H 0.87987 0.56929 0.60603 0.0
H106 H 0.93371 0.6512 0.7272 0.0
C107 C 0.95825 0.62183 0.84559 0.0
O108 O 0.95772 0.61033 0.7591 0.0
N109 N 0.88126 0.57728 0.96583 0.0
C110 C 0.8621 0.5501 0.99369 0.0
C111 C 0.86142 0.54899 0.0953 0.0
C112 C 0.89159 0.59244 0.05005 0.0
N113 N 0.88018 0.57558 0.13032 0.0
C114 C 0.88252 0.53685 0.75053 0.0
C115 C 0.92369 0.53093 0.85365 0.0
C116 C 0.90646 0.50954 0.78485 0.0
C117 C 0.88559 0.51279 0.73348 0.0
C118 C 0.92012 0.55505 0.86744 0.0
N119 N 0.90073 0.55863 0.81212 0.0
H120 H 0.86446 0.53709 0.71682 0.0
H121 H 0.9322 0.57011 0.92553 0.0
H122 H 0.85001 0.53224 0.94365 0.0
H123 H 0.90769 0.61513 0.05262 0.0
O124 O 0.85403 0.57215 0.79184 0.0
O125 O 0.87812 0.61714 0.84676 0.0
O126 O 0.93443 0.61694 0.88538 0.0
C127 C 0.85403 0.59589 0.81224 0.0
H128 H 0.93721 0.65541 0.53127 0.0
H129 H 0.84824 0.53007 0.13987 0.0
H130 H 0.93892 0.52851 0.89935 0.0
H131 H 0.87108 0.49641 0.68209 0.0
Co132 Co 0.30568 0.8891 0.34072 0.0
C133 C 0.30646 0.89127 0.12115 0.0
C134 C 0.2998 0.92447 0.1821 0.0
C135 C 0.29878 0.92555 0.08019 0.0
N136 N 0.30564 0.9035 0.208 0.0
N137 N 0.30338 0.90481 0.04247 0.0
H138 H 0.30693 0.87144 0.11409 0.0
H139 H 0.29567 0.93756 0.23344 0.0
C140 C 0.33798 0.95384 0.38085 0.0
O141 O 0.35241 0.9586 0.29771 0.0
N142 N 0.30482 0.87454 0.47188 0.0
C143 C 0.3126 0.85514 0.49858 0.0
C144 C 0.31224 0.85363 0.60026 0.0
C145 C 0.29929 0.88412 0.55712 0.0
N146 N 0.30433 0.87226 0.63705 0.0
C147 C 0.35039 0.8816 0.25412 0.0
C148 C 0.39551 0.91814 0.37469 0.0
C149 C 0.4005 0.90273 0.30022 0.0
C150 C 0.37759 0.88497 0.2381 0.0
C151 C 0.36777 0.91485 0.38605 0.0
N152 N 0.34565 0.89725 0.32411 0.0
H153 H 0.33292 0.86497 0.21289 0.0
H154 H 0.36395 0.92545 0.44723 0.0
H155 H 0.31902 0.84364 0.44785 0.0
H156 H 0.29302 0.9005 0.56081 0.0
O157 O 0.28662 0.85039 0.28995 0.0
O158 O 0.26356 0.8723 0.34516 0.0
O159 O 0.31843 0.92823 0.40406 0.0
C160 C 0.26214 0.84929 0.3053 0.0
H161 H 0.29468 0.94019 0.03733 0.0
H162 H 0.31779 0.84012 0.64349 0.0
H163 H 0.41249 0.93161 0.42598 0.0
H164 H 0.38027 0.87263 0.17947 0.0
Co165 Co 0.42395 0.30638 0.85545 0.0
C166 C 0.42385 0.30966 0.63643 0.0
C167 C 0.38144 0.29354 0.6969 0.0
C168 C 0.37955 0.29296 0.59526 0.0
N169 N 0.40941 0.3047 0.72281 0.0
N170 N 0.40636 0.30337 0.55768 0.0
H171 H 0.44625 0.31567 0.63 0.0
H172 H 0.36354 0.28562 0.74833 0.0
C173 C 0.38912 0.33645 0.87937 0.0
O174 O 0.3993 0.349 0.79377 0.0
N175 N 0.43791 0.30736 0.98713 0.0
C176 C 0.46522 0.31565 1.01391 0.0
C177 C 0.46658 0.31613 0.11554 0.0
C178 C 0.42295 0.30253 0.07214 0.0
N179 N 0.44003 0.30813 0.15178 0.0
C180 C 0.47748 0.35116 0.77617 0.0
C181 C 0.47917 0.39762 0.87222 0.0
C182 C 0.50069 0.40275 0.80219 0.0
C183 C 0.50005 0.37891 0.75652 0.0
C184 C 0.45684 0.36922 0.88999 0.0
N185 N 0.45506 0.34649 0.83694 0.0
H186 H 0.47869 0.33338 0.7436 0.0
H187 H 0.44149 0.3657 0.94786 0.0
H188 H 0.48302 0.32162 0.96316 0.0
H189 H 0.40024 0.29599 0.07585 0.0
O190 O 0.4443 0.28738 0.8089 0.0
O191 O 0.39928 0.26432 0.86375 0.0
O192 O 0.39644 0.31865 0.91261 0.0
C193 C 0.42122 0.26293 0.82721 0.0
H194 H 0.35997 0.28506 0.55241 0.0
H195 H 0.48567 0.32209 0.15928 0.0
H196 H 0.47965 0.41532 0.91317 0.0
H197 H 0.51733 0.38156 0.70767 0.0
Co198 Co 0.59099 0.89064 0.19287 0.0
C199 C 0.59269 0.89281 0.41281 0.0
C200 C 0.63331 0.92362 0.34975 0.0
C201 C 0.63608 0.92465 0.45118 0.0
N202 N 0.60578 0.9042 0.32551 0.0
N203 N 0.61041 0.90515 0.49041 0.0
H204 H 0.57134 0.87446 0.42081 0.0
H205 H 0.6505 0.93572 0.29731 0.0
C206 C 0.62399 0.95578 0.16295 0.0
O207 O 0.61543 0.96017 0.24904 0.0
N208 N 0.57726 0.87722 0.06094 0.0
C209 C 0.55025 0.85796 0.03192 0.0
C210 C 0.54988 0.85665 0.93007 0.0
C211 C 0.59293 0.8871 0.97725 0.0
N212 N 0.57678 0.87495 0.89599 0.0
C213 C 0.53783 0.88034 0.27969 0.0
C214 C 0.53002 0.9198 0.17329 0.0
C215 C 0.50914 0.90261 0.24381 0.0
C216 C 0.51384 0.88327 0.2988 0.0
C217 C 0.55457 0.91685 0.15879 0.0
N218 N 0.55871 0.89781 0.21404 0.0
H219 H 0.53864 0.86286 0.31532 0.0
H220 H 0.56937 0.92895 0.1002 0.0
H221 H 0.53202 0.8463 0.08109 0.0
H222 H 0.61546 0.90377 0.97583 0.0
O223 O 0.57239 0.85135 0.23873 0.0
O224 O 0.61723 0.87515 0.18201 0.0
O225 O 0.61653 0.93024 0.13387 0.0
C226 C 0.59615 0.85133 0.21882 0.0
H227 H 0.65549 0.93852 0.49246 0.0
H228 H 0.53118 0.84353 0.88454 0.0
H229 H 0.52688 0.93453 0.12723 0.0
H230 H 0.49849 0.86956 0.35434 0.0
Co231 Co 0.70278 0.59107 0.69803 0.0
C232 C 0.70077 0.59105 0.91716 0.0
C233 C 0.70748 0.63107 0.8585 0.0
C234 C 0.70794 0.63284 0.96021 0.0
N235 N 0.70209 0.60446 0.8314 0.0
N236 N 0.70338 0.60746 0.99654 0.0
H237 H 0.70018 0.57065 0.92258 0.0
H238 H 0.71172 0.6484 0.80811 0.0
C239 C 0.66811 0.62076 0.6673 0.0
O240 O 0.65242 0.60712 0.74493 0.0
N241 N 0.70415 0.57835 0.56566 0.0
C242 C 0.69993 0.55224 0.53841 0.0
C243 C 0.69983 0.55089 0.43681 0.0
C244 C 0.70678 0.59262 0.48086 0.0
N245 N 0.70385 0.5762 0.40099 0.0
C246 C 0.65773 0.53753 0.77753 0.0
C247 C 0.61342 0.53152 0.65768 0.0
C248 C 0.60723 0.51096 0.73199 0.0
C249 C 0.63003 0.51402 0.79097 0.0
C250 C 0.6417 0.55469 0.64622 0.0
N251 N 0.66312 0.55862 0.71034 0.0
H252 H 0.67499 0.53791 0.81898 0.0
H253 H 0.64629 0.56931 0.58523 0.0
H254 H 0.69641 0.53513 0.58886 0.0
H255 H 0.7097 0.61416 0.47731 0.0
O256 O 0.72278 0.57189 0.74528 0.0
O257 O 0.74453 0.61729 0.69467 0.0
O258 O 0.68941 0.61755 0.64164 0.0
C259 C 0.74681 0.59583 0.73011 0.0
H260 H 0.71172 0.65142 1.00393 0.0
H261 H 0.69683 0.53262 0.39287 0.0
H262 H 0.59667 0.52979 0.60869 0.0
H263 H 0.6267 0.49785 0.8455 0.0
Co264 Co 0.11654 0.69831 0.18912 0.0
C265 C 0.11403 0.69592 0.4052 0.0
C266 C 0.08299 0.70646 0.34815 0.0
C267 C 0.08214 0.707 0.45015 0.0
N268 N 0.10298 0.69945 0.32058 0.0
N269 N 0.1016 0.70021 0.48565 0.0
H270 H 0.13167 0.69142 0.40753 0.0
H271 H 0.07044 0.71148 0.29786 0.0
C272 C 0.06454 0.6619 0.06873 0.0
O273 O 0.0783 0.64821 0.04261 0.0
N274 N 0.13088 0.69827 0.05577 0.0
C275 C 0.15224 0.69331 0.02658 0.0
C276 C 0.15393 0.69421 0.92508 0.0
C277 C 0.12122 0.70392 0.97109 0.0
N278 N 0.13399 0.70031 0.89022 0.0
C279 C 0.13278 0.65554 0.23049 0.0
C280 C 0.07804 0.61051 0.27361 0.0
C281 C 0.10159 0.60593 0.2798 0.0
C282 C 0.12925 0.62891 0.25932 0.0
C283 C 0.08263 0.63776 0.24623 0.0
N284 N 0.10955 0.65945 0.21889 0.0
H285 H 0.15447 0.67329 0.22182 0.0
H286 H 0.06451 0.64147 0.24862 0.0
H287 H 0.16617 0.68967 0.07418 0.0
H288 H 0.10421 0.70932 0.96828 0.0
O289 O 0.15565 0.71972 0.23558 0.0
O290 O 0.13136 0.73988 0.17603 0.0
O291 O 0.07592 0.68247 0.1325 0.0
C292 C 0.15534 0.74312 0.21297 0.0
H293 H 0.06845 0.7122 0.49472 0.0
H294 H 0.16878 0.69069 0.88044 0.0
H295 H 0.05643 0.59343 0.29214 0.0
H296 H 0.14808 0.62636 0.26597 0.0
Co297 Co 0.4232 0.11605 0.68271 0.0
C298 C 0.42278 0.1152 0.90231 0.0
C299 C 0.38209 0.08304 0.84356 0.0
C300 C 0.38026 0.08197 0.94516 0.0
N301 N 0.40919 0.10312 0.81644 0.0
N302 N 0.4059 0.10227 0.98133 0.0
H303 H 0.44409 0.13383 0.90826 0.0
H304 H 0.36452 0.07052 0.79322 0.0
C305 C 0.38924 0.05124 0.65554 0.0
O306 O 0.40136 0.04887 0.73644 0.0
N307 N 0.43669 0.12928 0.55023 0.0
C308 C 0.46306 0.15064 0.52246 0.0
C309 C 0.46407 0.15209 0.42065 0.0
C310 C 0.42207 0.11809 0.46566 0.0
N311 N 0.43838 0.13138 0.38565 0.0
C312 C 0.47535 0.12195 0.76308 0.0
C313 C 0.47823 0.08022 0.65077 0.0
C314 C 0.49907 0.09464 0.72432 0.0
C315 C 0.49763 0.11612 0.77925 0.0
C316 C 0.45622 0.08697 0.63652 0.0
N317 N 0.45388 0.10634 0.6969 0.0
H318 H 0.47617 0.1399 0.80203 0.0
H319 H 0.44132 0.07674 0.57634 0.0
H320 H 0.48047 0.16385 0.57258 0.0
H321 H 0.39994 0.10065 0.46226 0.0
O322 O 0.44435 0.15517 0.72986 0.0
O323 O 0.39914 0.13421 0.67897 0.0
O324 O 0.395 0.07634 0.62623 0.0
C325 C 0.42141 0.15713 0.71566 0.0
H326 H 0.36132 0.06813 0.989 0.0
H327 H 0.48246 0.16659 0.37574 0.0
H328 H 0.47888 0.06396 0.60457 0.0
H329 H 0.51416 0.129 0.8328 0.0
Co330 Co 0.31013 0.42226 0.17905 0.0
C331 C 0.31437 0.42195 0.39787 0.0
C332 C 0.29556 0.37925 0.33761 0.0
C333 C 0.29448 0.37733 0.43938 0.0
N334 N 0.30859 0.40736 0.31139 0.0
N335 N 0.30653 0.40429 0.47694 0.0
H336 H 0.32199 0.44472 0.40406 0.0
H337 H 0.28643 0.36132 0.28625 0.0
C338 C 0.3379 0.38492 0.14819 0.0
O339 O 0.34915 0.39159 0.23698 0.0
N340 N 0.31092 0.43673 0.04783 0.0
C341 C 0.32197 0.46453 0.02084 0.0
C342 C 0.32208 0.46586 0.91921 0.0
C343 C 0.30377 0.42147 0.96278 0.0
N344 N 0.31102 0.4388 0.88281 0.0
C345 C 0.35565 0.47568 0.25594 0.0
C346 C 0.40171 0.47553 0.16339 0.0
C347 C 0.40718 0.49819 0.22872 0.0
C348 C 0.38357 0.49816 0.27393 0.0
C349 C 0.37317 0.45344 0.14664 0.0
N350 N 0.35054 0.45275 0.19715 0.0
H351 H 0.3381 0.47736 0.28837 0.0
H352 H 0.36957 0.43758 0.09091 0.0
H353 H 0.33033 0.48267 0.07127 0.0
H354 H 0.29469 0.39828 0.95935 0.0
O355 O 0.29183 0.44298 0.22844 0.0
O356 O 0.26796 0.39827 0.17196 0.0
O357 O 0.32162 0.39453 0.11794 0.0
C358 C 0.26708 0.42026 0.21051 0.0
H359 H 0.28495 0.35762 0.48231 0.0
H360 H 0.33019 0.48533 0.87558 0.0
H361 H 0.41921 0.47489 0.12492 0.0
H362 H 0.38653 0.51586 0.32114 0.0
Co363 Co 0.8932 0.30618 0.69987 0.0
C364 C 0.89358 0.3049 0.91934 0.0
C365 C 0.92737 0.29914 0.85821 0.0
C366 C 0.92765 0.29672 0.95952 0.0
N367 N 0.90659 0.3053 0.83292 0.0
N368 N 0.90615 0.3001 0.99741 0.0
H369 H 0.87449 0.30676 0.92583 0.0
H370 H 0.94073 0.29546 0.80667 0.0
C371 C 0.95818 0.33839 0.66741 0.0
O372 O 0.96217 0.3529 0.74987 0.0
N373 N 0.87976 0.30602 0.5678 0.0
C374 C 0.85883 0.31153 0.53956 0.0
C375 C 0.85683 0.30972 0.43793 0.0
C376 C 0.89011 0.30087 0.4838 0.0
N377 N 0.87655 0.30303 0.40339 0.0
C378 C 0.88512 0.35082 0.78511 0.0
C379 C 0.92258 0.39563 0.66465 0.0
C380 C 0.90717 0.40104 0.73789 0.0
C381 C 0.88834 0.37811 0.79853 0.0
C382 C 0.91896 0.3678 0.65472 0.0
N383 N 0.90116 0.34594 0.71708 0.0
H384 H 0.86839 0.33337 0.82646 0.0
H385 H 0.92943 0.36363 0.59404 0.0
H386 H 0.84631 0.31697 0.58917 0.0
H387 H 0.90726 0.29566 0.48123 0.0
O388 O 0.85391 0.28667 0.7464 0.0
O389 O 0.87692 0.26434 0.69252 0.0
O390 O 0.93281 0.31925 0.64073 0.0
C391 C 0.85328 0.26252 0.72782 0.0
H392 H 0.94175 0.29171 1.0017 0.0
H393 H 0.84264 0.31391 0.39287 0.0
H394 H 0.9363 0.41232 0.61281 0.0
H395 H 0.87539 0.38097 0.85443 0.0
C396 C 1.00419 0.37281 0.44033 0.0
C397 C 0.03005 0.37278 0.46063 0.0
C398 C 0.98065 0.3605 0.50577 0.0
C399 C 0.98217 0.34823 0.59543 0.0
H400 H 1.0022 0.38307 0.37438 0.0
H401 H 0.96148 0.36148 0.48704 0.0
S402 S 0.04198 0.33694 0.67552 0.0
N403 N 0.05348 0.3547 0.57032 0.0
N404 N 0.00969 0.3331 0.69563 0.0
C405 C 0.00701 0.34645 0.61457 0.0
C406 C 0.03081 0.35832 0.5466 0.0
C407 C 0.63789 1.00058 0.93128 0.0
C408 C 0.66291 0.02697 0.95455 0.0
C409 C 0.62602 0.9774 0.99803 0.0
C410 C 0.63826 0.97984 0.09168 0.0
H411 H 0.62687 0.99791 0.86185 0.0
H412 H 0.60654 0.95772 0.97722 0.0
S413 S 0.70656 0.04156 0.18273 0.0
N414 N 0.70188 0.05207 0.07324 0.0
N415 N 0.67842 0.009 0.20025 0.0
C416 C 0.66386 0.00537 0.11458 0.0
C417 C 0.67647 0.02877 0.04563 0.0
C418 C 0.62759 0.61833 0.56942 0.0
C419 C 0.65695 0.6337 0.59598 0.0
C420 C 0.61665 0.62865 0.49597 0.0
C421 C 0.63447 0.65515 0.44857 0.0
H422 H 0.61309 0.59775 0.60376 0.0
H423 H 0.59397 0.61595 0.47703 0.0
S424 S 0.71268 0.70388 0.49225 0.0
N425 N 0.70375 0.67649 0.5681 0.0
N426 N 0.6827 0.69676 0.43394 0.0
C427 C 0.66372 0.671 0.47548 0.0
C428 C 0.6751 0.66002 0.5481 0.0
C429 C 0.03619 0.6471 0.91358 0.0
C430 C 0.03806 0.65531 1.01326 0.0
C431 C 0.01078 0.63776 0.85949 0.0
C432 C 0.98583 0.63583 0.9027 0.0
H433 H 0.05448 0.64747 0.87698 0.0
H434 H 0.01059 0.63114 0.78369 0.0
S435 S 0.98011 0.6567 0.1606 0.0
N436 N 0.01353 0.66261 0.15217 0.0
N437 N 0.96541 0.64479 0.05102 0.0
C438 C 0.98779 0.64519 1.00158 0.0
C439 C 0.01398 0.65501 0.05665 0.0
C440 C 0.36611 0.02876 0.49232 0.0
C441 C 0.37265 0.02542 0.59048 0.0
C442 C 0.35401 0.00533 0.42586 0.0
C443 C 0.34757 0.97752 0.45493 0.0
H444 H 0.3711 0.04978 0.46535 0.0
H445 H 0.3498 0.009 0.35082 0.0
S446 S 0.35759 0.95621 0.70573 0.0
N447 N 0.3695 0.9912 0.71488 0.0
N448 N 0.34684 0.94752 0.59044 0.0
C449 C 0.35248 0.97349 0.55405 0.0
C450 C 0.365 0.99732 0.62156 0.0
C451 C 0.37075 0.34076 0.04696 0.0
C452 C 0.37332 0.3466 0.94479 0.0
C453 C 0.35869 0.35264 0.11166 0.0
C454 C 0.34828 0.37056 0.07704 0.0
H455 H 0.37894 0.32764 0.07814 0.0
H456 H 0.35787 0.34802 0.18976 0.0
S457 S 0.34934 0.39218 0.81584 0.0
N458 N 0.36368 0.37106 0.81205 0.0
N459 N 0.34139 0.39343 0.93291 0.0
C460 C 0.35009 0.376 0.97471 0.0
C461 C 0.36249 0.36404 0.90895 0.0
C462 C 0.08195 0.55346 0.2443 0.0
C463 C 0.09768 0.57735 0.30675 0.0
C464 C 0.08168 0.52735 0.25993 0.0
C465 C 0.09657 0.52412 0.33976 0.0
H466 H 0.07105 0.55546 0.18016 0.0
H467 H 0.07057 0.50987 0.20744 0.0
S468 S 0.13909 0.57949 0.52842 0.0
N469 N 0.12728 0.59572 0.45385 0.0
N470 N 0.12619 0.54639 0.48447 0.0
C471 C 0.11111 0.54734 0.40549 0.0
C472 C 0.11182 0.57405 0.38863 0.0
C473 C 0.53168 0.08757 0.83921 0.0
C474 C 0.52352 0.08926 0.74171 0.0
C475 C 0.55752 0.08773 0.85935 0.0
C476 C 0.57621 0.08961 0.78271 0.0
H477 H 0.51854 0.08731 0.90083 0.0
H478 H 0.56364 0.08806 0.93564 0.0
S479 S 0.56323 0.09071 0.51429 0.0
N480 N 0.5352 0.09045 0.5675 0.0
N481 N 0.58324 0.08979 0.60517 0.0
C482 C 0.56732 0.0892 0.6847 0.0
C483 C 0.54109 0.08919 0.6642 0.0
C484 C 0.47101 0.5598 0.36115 0.0
C485 C 0.48959 0.57575 0.28326 0.0
C486 C 0.44517 0.5339 0.3432 0.0
C487 C 0.43684 0.52293 0.2467 0.0
H488 H 0.4757 0.56808 0.43594 0.0
H489 H 0.43108 0.52287 0.40522 0.0
S490 S 0.47968 0.55486 0.0185 0.0
N491 N 0.4995 0.57712 0.10734 0.0
N492 N 0.45044 0.52916 0.07315 0.0
C493 C 0.45606 0.53782 0.16889 0.0
C494 C 0.48249 0.56406 0.18728 0.0
C495 C 0.88202 0.45572 0.77044 0.0
C496 C 0.90787 0.48252 0.77255 0.0
C497 C 0.88218 0.42982 0.75737 0.0
C498 C 0.90821 0.42939 0.74675 0.0
H499 H 0.86134 0.45465 0.77988 0.0
H500 H 0.86159 0.40988 0.75549 0.0
S501 S 0.98197 0.49357 0.74603 0.0
N502 N 0.96033 0.50714 0.76076 0.0
N503 N 0.96067 0.45815 0.73916 0.0
C504 C 0.9343 0.45599 0.74828 0.0
C505 C 0.93413 0.48256 0.76113 0.0
C506 C 0.48109 0.92888 0.26774 0.0
C507 C 0.48143 0.9028 0.25619 0.0
C508 C 0.455 0.9289 0.28482 0.0
C509 C 0.4284 0.90285 0.29052 0.0
H510 H 0.50112 0.94936 0.2647 0.0
H511 H 0.4556 0.94941 0.29188 0.0
S512 S 0.41755 0.82874 0.26536 0.0
N513 N 0.45257 0.85031 0.24855 0.0
N514 N 0.4043 0.85031 0.28696 0.0
C515 C 0.42862 0.8767 0.28026 0.0
C516 C 0.45488 0.87668 0.26126 0.0
C517 C 0.54094 0.45078 0.85998 0.0
C518 C 0.52518 0.43233 0.78167 0.0
C519 C 0.56673 0.4768 0.84264 0.0
C520 C 0.5778 0.48544 0.74635 0.0
H521 H 0.53407 0.44445 0.93558 0.0
H522 H 0.57858 0.48988 0.90557 0.0
S523 S 0.54306 0.44611 0.51511 0.0
N524 N 0.52097 0.42577 0.6036 0.0
N525 N 0.5699 0.47408 0.57126 0.0
C526 C 0.56144 0.46788 0.66706 0.0
C527 C 0.53509 0.44148 0.6847 0.0
C528 C 0.14931 0.43145 0.82855 0.0
C529 C 0.12844 0.42738 0.75783 0.0
C530 C 0.14146 0.42359 0.92751 0.0
C531 C 0.11251 0.41145 0.95871 0.0
H532 H 0.17172 0.44045 0.80674 0.0
H533 H 0.15806 0.42677 0.97988 0.0
S534 S 0.05072 0.40076 0.80507 0.0
N535 N 0.0783 0.41323 0.72737 0.0
N536 N 0.06356 0.3984 0.91315 0.0
C537 C 0.09164 0.408 0.88907 0.0
C538 C 0.09961 0.41601 0.78863 0.0
C539 C 0.69662 0.09141 0.38642 0.0
C540 C 0.70873 0.11289 0.45973 0.0
C541 C 0.69539 0.09859 0.28771 0.0
C542 C 0.70653 0.12751 0.25849 0.0
H543 H 0.68736 0.06885 0.40612 0.0
H544 H 0.68497 0.08139 0.23404 0.0
S545 S 0.74305 0.19202 0.42021 0.0
N546 N 0.73373 0.16443 0.49532 0.0
N547 N 0.73154 0.17784 0.30965 0.0
C548 C 0.71923 0.14923 0.33065 0.0
C549 C 0.72037 0.14195 0.43124 0.0
C550 C 0.60434 0.69354 0.76908 0.0
C551 C 0.58898 0.70734 0.73989 0.0
C552 C 0.61207 0.69372 0.86799 0.0
C553 C 0.60481 0.7078 0.94123 0.0
H554 H 0.60973 0.68186 0.71541 0.0
H555 H 0.62309 0.68208 0.88782 0.0
S556 S 0.56835 0.75061 0.90015 0.0
N557 N 0.56906 0.73756 0.79006 0.0
N558 N 0.58402 0.73842 0.97564 0.0
C559 C 0.59046 0.72265 0.91219 0.0
C560 C 0.58243 0.72227 0.81162 0.0
C561 C 0.8999 0.61944 0.36448 0.0
C562 C 0.9025 0.60111 0.4328 0.0
C563 C 0.89276 0.61105 0.26555 0.0
C564 C 0.88787 0.58402 0.23171 0.0
H565 H 0.90272 0.64008 0.38819 0.0
H566 H 0.89046 0.62554 0.21556 0.0
S567 S 0.89609 0.52999 0.37778 0.0
N568 N 0.90251 0.55603 0.45725 0.0
N569 N 0.8889 0.54024 0.27195 0.0
C570 C 0.89139 0.56596 0.29849 0.0
C571 C 0.89876 0.57452 0.39884 0.0
C572 C 0.28424 0.8884 0.77298 0.0
C573 C 0.30429 0.88036 0.73922 0.0
C574 C 0.28426 0.89689 0.87158 0.0
C575 C 0.30428 0.89756 0.94013 0.0
H576 H 0.26817 0.88778 0.72303 0.0
H577 H 0.26816 0.90238 0.8949 0.0
S578 S 0.36377 0.88255 0.887 0.0
N579 N 0.34651 0.87652 0.78111 0.0
N580 N 0.3462 0.89198 0.96561 0.0
C581 C 0.32492 0.8904 0.90677 0.0
C582 C 0.325 0.8819 0.80669 0.0
C583 C 0.39644 0.28421 0.38686 0.0
C584 C 0.41465 0.30537 0.45519 0.0
C585 C 0.40484 0.28527 0.28784 0.0
C586 C 0.43178 0.30743 0.25368 0.0
H587 H 0.37584 0.2664 0.41055 0.0
H588 H 0.39039 0.26836 0.23792 0.0
S589 S 0.48571 0.36998 0.39985 0.0
N590 N 0.45969 0.3505 0.47945 0.0
N591 N 0.47549 0.35232 0.29399 0.0
C592 C 0.44982 0.32912 0.32058 0.0
C593 C 0.44124 0.32813 0.42111 0.0
C594 C 0.57496 0.89082 0.62649 0.0
C595 C 0.60278 0.89802 0.593 0.0
C596 C 0.56659 0.8831 0.72503 0.0
C597 C 0.58568 0.88224 0.7943 0.0
H598 H 0.55961 0.89147 0.57615 0.0
H599 H 0.54514 0.87825 0.74752 0.0
S600 S 0.66009 0.89669 0.74258 0.0
N601 N 0.64887 0.90222 0.63587 0.0
N602 N 0.63314 0.88765 0.82103 0.0
C603 C 0.61345 0.88902 0.76161 0.0
C604 C 0.622 0.89693 0.66109 0.0
C605 C 0.72203 0.6121 0.26608 0.0
C606 C 0.70333 0.58374 0.29928 0.0
C607 C 0.72177 0.61989 0.1674 0.0
C608 C 0.70277 0.59958 0.09849 0.0
H609 H 0.73727 0.62824 0.31652 0.0
H610 H 0.7369 0.64176 0.14438 0.0
S611 S 0.64696 0.52361 0.15076 0.0
N612 N 0.66362 0.53607 0.25718 0.0
N613 N 0.66315 0.55067 0.07216 0.0
C614 C 0.68343 0.57141 0.13141 0.0
C615 C 0.68371 0.56349 0.23164 0.0
C616 C 0.1095 0.71963 0.65628 0.0
C617 C 0.10899 0.69948 0.58765 0.0
C618 C 0.11771 0.71985 0.75491 0.0
C619 C 0.1258 0.69999 0.78851 0.0
H620 H 0.10406 0.7357 0.63309 0.0
H621 H 0.11816 0.73594 0.80494 0.0
S622 S 0.12429 0.64038 0.64167 0.0
N623 N 0.11474 0.65754 0.56272 0.0
N624 N 0.13015 0.65795 0.74728 0.0
C625 C 0.12455 0.67921 0.72127 0.0
C626 C 0.11616 0.67897 0.62115 0.0
C627 C 0.42705 0.13823 0.11567 0.0
C628 C 0.41374 0.10934 0.08315 0.0
C629 C 0.43524 0.1454 0.21475 0.0
C630 C 0.4304 0.1239 0.28404 0.0
H631 H 0.43086 0.15525 0.06427 0.0
H632 H 0.44507 0.16778 0.23778 0.0
S633 S 0.40096 0.04603 0.23144 0.0
N634 N 0.39892 0.05977 0.12487 0.0
N635 N 0.4145 0.07319 0.31085 0.0
C636 C 0.418 0.09513 0.25147 0.0
C637 C 0.4096 0.08787 0.15099 0.0
C638 C 0.28686 0.4044 0.74511 0.0
C639 C 0.3102 0.43037 0.78076 0.0
C640 C 0.28589 0.39574 0.64627 0.0
C641 C 0.3083 0.41269 0.57944 0.0
H642 H 0.26902 0.3909 0.79374 0.0
H643 H 0.26722 0.37595 0.62151 0.0
S644 S 0.37611 0.48041 0.6392 0.0
N645 N 0.35749 0.47149 0.74337 0.0
N646 N 0.35568 0.45526 0.55853 0.0
C647 C 0.33215 0.43822 0.61505 0.0
C648 C 0.3331 0.44705 0.71535 0.0
C649 C 0.91249 0.31303 0.2716 0.0
C650 C 0.88346 0.30091 0.30183 0.0
C651 C 0.91973 0.3121 0.17241 0.0
C652 C 0.8982 0.29899 0.0999 0.0
H653 H 0.92975 0.32396 0.32466 0.0
H654 H 0.94234 0.32242 0.15173 0.0
S655 S 0.81892 0.26049 0.14351 0.0
N656 N 0.83308 0.27312 0.2532 0.0
N657 N 0.84659 0.27105 0.06709 0.0
C658 C 0.86906 0.28582 0.1299 0.0
C659 C 0.86172 0.28688 0.23075 0.0
C660 C 0.18774 0.39349 0.27425 0.0
C661 C 0.18776 0.41935 0.29578 0.0
C662 C 0.21326 0.39376 0.24448 0.0
C663 C 0.23974 0.41989 0.23644 0.0
H664 H 0.16782 0.37294 0.27916 0.0
H665 H 0.21229 0.37338 0.22893 0.0
S666 S 0.25142 0.49352 0.2865 0.0
N667 N 0.2167 0.47171 0.30811 0.0
N668 N 0.26419 0.47229 0.25281 0.0
C669 C 0.23994 0.44583 0.25829 0.0
C670 C 0.2141 0.44554 0.28779 0.0
C671 C 0.82662 0.21115 0.78932 0.0
C672 C 0.82635 0.2348 0.74507 0.0
C673 C 0.8006 0.18614 0.81611 0.0
C674 C 0.77353 0.18393 0.79865 0.0
H675 H 0.84701 0.21238 0.80636 0.0
H676 H 0.80173 0.16862 0.85178 0.0
S677 S 0.76163 0.2391 0.67407 0.0
N678 N 0.79709 0.25378 0.67856 0.0
N679 N 0.7485 0.20716 0.72676 0.0
C680 C 0.77323 0.20719 0.75073 0.0
C681 C 0.79956 0.23252 0.72454 0.0
C682 C 0.57235 0.79846 0.24851 0.0
C683 C 0.59815 0.82504 0.23838 0.0
C684 C 0.57257 0.77309 0.27151 0.0
C685 C 0.59861 0.77305 0.28672 0.0
H686 H 0.55158 0.79712 0.23848 0.0
H687 H 0.55195 0.75332 0.27827 0.0
S688 S 0.67235 0.8369 0.26844 0.0
N689 N 0.65066 0.84987 0.24433 0.0
N690 N 0.65111 0.80195 0.28892 0.0
C691 C 0.62471 0.79943 0.27669 0.0
C692 C 0.62448 0.82544 0.25194 0.0
C693 C 0.8009 0.57171 0.78738 0.0
C694 C 0.82746 0.59764 0.79557 0.0
C695 C 0.77527 0.57167 0.76665 0.0
C696 C 0.77491 0.59756 0.75189 0.0
H697 H 0.79979 0.55104 0.79703 0.0
H698 H 0.75555 0.55096 0.7611 0.0
S699 S 0.83853 0.67155 0.76601 0.0
N700 N 0.85189 0.65011 0.78853 0.0
N701 N 0.80349 0.65007 0.74821 0.0
C702 C 0.80126 0.62378 0.76017 0.0
C703 C 0.82754 0.62382 0.78259 0.0
C704 C 0.20739 0.82054 0.29524 0.0
C705 C 0.23458 0.8231 0.2757 0.0
C706 C 0.18143 0.79513 0.2704 0.0
C707 C 0.18191 0.77148 0.22604 0.0
H708 H 0.20613 0.83799 0.33157 0.0
H709 H 0.16096 0.79356 0.28955 0.0
S710 S 0.2469 0.76803 0.14957 0.0
N711 N 0.25983 0.80016 0.20122 0.0
N712 N 0.21143 0.75293 0.15685 0.0
C713 C 0.20879 0.7742 0.20294 0.0
C714 C 0.23502 0.79987 0.22713 0.0
C715 C 0.3949 0.21014 0.7781 0.0
C716 C 0.42064 0.23538 0.80468 0.0
C717 C 0.39514 0.1849 0.74797 0.0
C718 C 0.42108 0.18396 0.74442 0.0
H719 H 0.3746 0.21011 0.77827 0.0
H720 H 0.37489 0.16602 0.72762 0.0
S721 S 0.49409 0.24404 0.8122 0.0
N722 N 0.47247 0.25746 0.82916 0.0
N723 N 0.47306 0.21063 0.77324 0.0
C724 C 0.44681 0.20902 0.77276 0.0
C725 C 0.44655 0.23453 0.80271 0.0
loop_
_geom_bond_atom_site_label_1
_geom_bond_atom_site_label_2
_geom_bond_distance
_geom_bond_site_symmetry_2
_ccdc_geom_bond_type
Co0 N4 2.148 . S
Co0 N10 2.128 . S
Co0 N20 2.194 . S
Co0 O25 2.351 . S
Co0 O26 2.155 . S
Co0 O27 2.096 . S
C1 N4 1.301 . S
C1 N5 1.328 . S
C1 H6 0.930 . S
C2 C3 1.333 . S
C2 N4 1.317 . S
C2 H7 0.930 . S
C3 C2 1.333 . S
C3 N5 1.350 . S
C3 H29 0.931 . S
N4 Co0 2.148 . S
N4 C1 1.301 . S
N4 C2 1.317 . S
N5 C1 1.328 . S
N5 C3 1.350 . S
H6 C1 0.930 . S
H7 C2 0.930 . S
C8 O9 1.224 . S
C8 O27 1.247 . S
O9 C8 1.224 . S
N10 Co0 2.128 . S
N10 C11 1.355 . S
N10 C13 1.311 . S
C11 N10 1.355 . S
C11 C12 1.363 . S
C11 H23 0.929 . S
C12 C11 1.363 . S
C12 N14 1.375 . S
C12 H30 0.931 . S
C13 N10 1.311 . S
C13 N14 1.347 . S
C13 H24 0.929 . S
N14 C12 1.375 . S
N14 C13 1.347 . S
C15 C18 1.365 . S
C15 N20 1.328 . S
C15 H21 0.929 . S
C16 C17 1.362 . S
C16 C19 1.378 . S
C16 H31 0.929 . S
C17 C16 1.362 . S
C17 C18 1.366 . S
C18 C15 1.365 . S
C18 C17 1.366 . S
C18 H32 0.930 . S
C19 C16 1.378 . S
C19 N20 1.315 . S
C19 H22 0.930 . S
N20 Co0 2.194 . S
N20 C15 1.328 . S
N20 C19 1.315 . S
H21 C15 0.929 . S
H22 C19 0.930 . S
H23 C11 0.929 . S
H24 C13 0.929 . S
O25 Co0 2.351 . S
O25 C28 1.244 . S
O26 Co0 2.155 . S
O26 C28 1.240 . S
O27 Co0 2.096 . S
O27 C8 1.247 . S
C28 O25 1.244 . S
C28 O26 1.240 . S
H29 C3 0.931 . S
H30 C12 0.931 . S
H31 C16 0.929 . S
H32 C18 0.930 . S
Co33 N37 2.148 . S
Co33 N43 2.128 . S
Co33 N53 2.194 . S
Co33 O58 2.351 . S
Co33 O59 2.155 . S
Co33 O60 2.096 . S
C34 N37 1.301 . S
C34 N38 1.328 . S
C34 H39 0.930 . S
C35 C36 1.333 . S
C35 N37 1.317 . S
C35 H40 0.930 . S
C36 C35 1.333 . S
C36 N38 1.350 . S
C36 H62 0.931 . S
N37 Co33 2.148 . S
N37 C34 1.301 . S
N37 C35 1.317 . S
N38 C34 1.328 . S
N38 C36 1.350 . S
H39 C34 0.930 . S
H40 C35 0.930 . S
C41 O42 1.224 . S
C41 O60 1.247 . S
O42 C41 1.224 . S
N43 Co33 2.128 . S
N43 C44 1.355 1_556 S
N43 C46 1.311 1_556 S
C44 N43 1.355 1_554 S
C44 C45 1.363 . S
C44 H56 0.929 1_554 S
C45 C44 1.363 . S
C45 N47 1.375 . S
C45 H63 0.931 . S
C46 N43 1.311 1_554 S
C46 N47 1.347 . S
C46 H57 0.929 . S
N47 C45 1.375 . S
N47 C46 1.347 . S
C48 C51 1.365 . S
C48 N53 1.328 . S
C48 H54 0.929 . S
C49 C50 1.362 . S
C49 C52 1.378 . S
C49 H64 0.929 . S
C50 C49 1.362 . S
C50 C51 1.366 . S
C51 C48 1.365 . S
C51 C50 1.366 . S
C51 H65 0.930 . S
C52 C49 1.378 . S
C52 N53 1.315 . S
C52 H55 0.930 . S
N53 Co33 2.194 . S
N53 C48 1.328 . S
N53 C52 1.315 . S
H54 C48 0.929 . S
H55 C52 0.930 . S
H56 C44 0.929 1_556 S
H57 C46 0.929 . S
O58 Co33 2.351 . S
O58 C61 1.244 . S
O59 Co33 2.155 . S
O59 C61 1.240 . S
O60 Co33 2.096 . S
O60 C41 1.247 . S
C61 O58 1.244 . S
C61 O59 1.240 . S
H62 C36 0.931 . S
H63 C45 0.931 . S
H64 C49 0.929 . S
H65 C51 0.930 . S
Co66 N70 2.148 . S
Co66 N76 2.128 . S
Co66 N86 2.194 . S
Co66 O91 2.351 . S
Co66 O92 2.155 . S
Co66 O93 2.096 . S
C67 N70 1.301 . S
C67 N71 1.328 . S
C67 H72 0.930 . S
C68 C69 1.333 . S
C68 N70 1.317 . S
C68 H73 0.930 . S
C69 C68 1.333 . S
C69 N71 1.350 . S
C69 H95 0.931 . S
N70 Co66 2.148 . S
N70 C67 1.301 . S
N70 C68 1.317 . S
N71 C67 1.328 . S
N71 C69 1.350 . S
H72 C67 0.930 . S
H73 C68 0.930 . S
C74 O75 1.224 . S
C74 O93 1.247 . S
O75 C74 1.224 . S
N76 Co66 2.128 . S
N76 C77 1.355 . S
N76 C79 1.311 . S
C77 N76 1.355 . S
C77 C78 1.363 . S
C77 H89 0.929 . S
C78 C77 1.363 . S
C78 N80 1.375 . S
C78 H96 0.931 . S
C79 N76 1.311 . S
C79 N80 1.347 . S
C79 H90 0.929 . S
N80 C78 1.375 . S
N80 C79 1.347 . S
C81 C84 1.365 . S
C81 N86 1.328 . S
C81 H87 0.929 . S
C82 C83 1.362 . S
C82 C85 1.378 . S
C82 H97 0.929 . S
C83 C82 1.362 . S
C83 C84 1.366 . S
C84 C81 1.365 . S
C84 C83 1.366 . S
C84 H98 0.930 . S
C85 C82 1.378 . S
C85 N86 1.315 . S
C85 H88 0.930 . S
N86 Co66 2.194 . S
N86 C81 1.328 . S
N86 C85 1.315 . S
H87 C81 0.929 . S
H88 C85 0.930 . S
H89 C77 0.929 . S
H90 C79 0.929 . S
O91 Co66 2.351 . S
O91 C94 1.244 . S
O92 Co66 2.155 . S
O92 C94 1.240 . S
O93 Co66 2.096 . S
O93 C74 1.247 . S
C94 O91 1.244 . S
C94 O92 1.240 . S
H95 C69 0.931 . S
H96 C78 0.931 . S
H97 C82 0.929 . S
H98 C84 0.930 . S
Co99 N103 2.148 . S
Co99 N109 2.128 . S
Co99 N119 2.194 . S
Co99 O124 2.351 . S
Co99 O125 2.155 . S
Co99 O126 2.096 . S
C100 N103 1.301 . S
C100 N104 1.328 . S
C100 H105 0.930 . S
C101 C102 1.333 . S
C101 N103 1.317 . S
C101 H106 0.930 . S
C102 C101 1.333 . S
C102 N104 1.350 . S
C102 H128 0.931 . S
N103 Co99 2.148 . S
N103 C100 1.301 . S
N103 C101 1.317 . S
N104 C100 1.328 . S
N104 C102 1.350 . S
H105 C100 0.930 . S
H106 C101 0.930 . S
C107 O108 1.224 . S
C107 O126 1.247 . S
O108 C107 1.224 . S
N109 Co99 2.128 . S
N109 C110 1.355 1_556 S
N109 C112 1.311 1_556 S
C110 N109 1.355 1_554 S
C110 C111 1.363 . S
C110 H122 0.929 1_554 S
C111 C110 1.363 . S
C111 N113 1.375 . S
C111 H129 0.931 . S
C112 N109 1.311 1_554 S
C112 N113 1.347 . S
C112 H123 0.929 . S
N113 C111 1.375 . S
N113 C112 1.347 . S
C114 C117 1.365 . S
C114 N119 1.328 . S
C114 H120 0.929 . S
C115 C116 1.362 . S
C115 C118 1.378 . S
C115 H130 0.929 . S
C116 C115 1.362 . S
C116 C117 1.366 . S
C117 C114 1.365 . S
C117 C116 1.366 . S
C117 H131 0.930 . S
C118 C115 1.378 . S
C118 N119 1.315 . S
C118 H121 0.930 . S
N119 Co99 2.194 . S
N119 C114 1.328 . S
N119 C118 1.315 . S
H120 C114 0.929 . S
H121 C118 0.930 . S
H122 C110 0.929 1_556 S
H123 C112 0.929 . S
O124 Co99 2.351 . S
O124 C127 1.244 . S
O125 Co99 2.155 . S
O125 C127 1.240 . S
O126 Co99 2.096 . S
O126 C107 1.247 . S
C127 O124 1.244 . S
C127 O125 1.240 . S
H128 C102 0.931 . S
H129 C111 0.931 . S
H130 C115 0.929 . S
H131 C117 0.930 . S
Co132 N136 2.148 . S
Co132 N142 2.128 . S
Co132 N152 2.194 . S
Co132 O157 2.351 . S
Co132 O158 2.155 . S
Co132 O159 2.096 . S
C133 N136 1.301 . S
C133 N137 1.328 . S
C133 H138 0.930 . S
C134 C135 1.333 . S
C134 N136 1.317 . S
C134 H139 0.930 . S
C135 C134 1.333 . S
C135 N137 1.350 . S
C135 H161 0.931 . S
N136 Co132 2.148 . S
N136 C133 1.301 . S
N136 C134 1.317 . S
N137 C133 1.328 . S
N137 C135 1.350 . S
H138 C133 0.930 . S
H139 C134 0.930 . S
C140 O141 1.224 . S
C140 O159 1.247 . S
O141 C140 1.224 . S
N142 Co132 2.128 . S
N142 C143 1.355 . S
N142 C145 1.311 . S
C143 N142 1.355 . S
C143 C144 1.363 . S
C143 H155 0.929 . S
C144 C143 1.363 . S
C144 N146 1.375 . S
C144 H162 0.931 . S
C145 N142 1.311 . S
C145 N146 1.347 . S
C145 H156 0.929 . S
N146 C144 1.375 . S
N146 C145 1.347 . S
C147 C150 1.365 . S
C147 N152 1.328 . S
C147 H153 0.929 . S
C148 C149 1.362 . S
C148 C151 1.378 . S
C148 H163 0.929 . S
C149 C148 1.362 . S
C149 C150 1.366 . S
C150 C147 1.365 . S
C150 C149 1.366 . S
C150 H164 0.930 . S
C151 C148 1.378 . S
C151 N152 1.315 . S
C151 H154 0.930 . S
N152 Co132 2.194 . S
N152 C147 1.328 . S
N152 C151 1.315 . S
H153 C147 0.929 . S
H154 C151 0.930 . S
H155 C143 0.929 . S
H156 C145 0.929 . S
O157 Co132 2.351 . S
O157 C160 1.244 . S
O158 Co132 2.155 . S
O158 C160 1.240 . S
O159 Co132 2.096 . S
O159 C140 1.247 . S
C160 O157 1.244 . S
C160 O158 1.240 . S
H161 C135 0.931 . S
H162 C144 0.931 . S
H163 C148 0.929 . S
H164 C150 0.930 . S
Co165 N169 2.148 . S
Co165 N175 2.128 . S
Co165 N185 2.194 . S
Co165 O190 2.351 . S
Co165 O191 2.155 . S
Co165 O192 2.096 . S
C166 N169 1.301 . S
C166 N170 1.328 . S
C166 H171 0.930 . S
C167 C168 1.333 . S
C167 N169 1.317 . S
C167 H172 0.930 . S
C168 C167 1.333 . S
C168 N170 1.350 . S
C168 H194 0.931 . S
N169 Co165 2.148 . S
N169 C166 1.301 . S
N169 C167 1.317 . S
N170 C166 1.328 . S
N170 C168 1.350 . S
H171 C166 0.930 . S
H172 C167 0.930 . S
C173 O174 1.224 . S
C173 O192 1.247 . S
O174 C173 1.224 . S
N175 Co165 2.128 . S
N175 C176 1.355 1_556 S
N175 C178 1.311 1_556 S
C176 N175 1.355 1_554 S
C176 C177 1.363 . S
C176 H188 0.929 1_554 S
C177 C176 1.363 . S
C177 N179 1.375 . S
C177 H195 0.931 . S
C178 N175 1.311 1_554 S
C178 N179 1.347 . S
C178 H189 0.929 . S
N179 C177 1.375 . S
N179 C178 1.347 . S
C180 C183 1.365 . S
C180 N185 1.328 . S
C180 H186 0.929 . S
C181 C182 1.362 . S
C181 C184 1.378 . S
C181 H196 0.929 . S
C182 C181 1.362 . S
C182 C183 1.366 . S
C183 C180 1.365 . S
C183 C182 1.366 . S
C183 H197 0.930 . S
C184 C181 1.378 . S
C184 N185 1.315 . S
C184 H187 0.930 . S
N185 Co165 2.194 . S
N185 C180 1.328 . S
N185 C184 1.315 . S
H186 C180 0.929 . S
H187 C184 0.930 . S
H188 C176 0.929 1_556 S
H189 C178 0.929 . S
O190 Co165 2.351 . S
O190 C193 1.244 . S
O191 Co165 2.155 . S
O191 C193 1.240 . S
O192 Co165 2.096 . S
O192 C173 1.247 . S
C193 O190 1.244 . S
C193 O191 1.240 . S
H194 C168 0.931 . S
H195 C177 0.931 . S
H196 C181 0.929 . S
H197 C183 0.930 . S
Co198 N202 2.148 . S
Co198 N208 2.128 . S
Co198 N218 2.194 . S
Co198 O223 2.351 . S
Co198 O224 2.155 . S
Co198 O225 2.096 . S
C199 N202 1.301 . S
C199 N203 1.328 . S
C199 H204 0.930 . S
C200 C201 1.333 . S
C200 N202 1.317 . S
C200 H205 0.930 . S
C201 C200 1.333 . S
C201 N203 1.350 . S
C201 H227 0.931 . S
N202 Co198 2.148 . S
N202 C199 1.301 . S
N202 C200 1.317 . S
N203 C199 1.328 . S
N203 C201 1.350 . S
H204 C199 0.930 . S
H205 C200 0.930 . S
C206 O207 1.224 . S
C206 O225 1.247 . S
O207 C206 1.224 . S
N208 Co198 2.128 . S
N208 C209 1.355 1_554 S
N208 C211 1.311 1_554 S
C209 N208 1.355 1_556 S
C209 C210 1.363 . S
C209 H221 0.929 1_556 S
C210 C209 1.363 . S
C210 N212 1.375 . S
C210 H228 0.931 . S
C211 N208 1.311 1_556 S
C211 N212 1.347 . S
C211 H222 0.929 . S
N212 C210 1.375 . S
N212 C211 1.347 . S
C213 C216 1.365 . S
C213 N218 1.328 . S
C213 H219 0.929 . S
C214 C215 1.362 . S
C214 C217 1.378 . S
C214 H229 0.929 . S
C215 C214 1.362 . S
C215 C216 1.366 . S
C216 C213 1.365 . S
C216 C215 1.366 . S
C216 H230 0.930 . S
C217 C214 1.378 . S
C217 N218 1.315 . S
C217 H220 0.930 . S
N218 Co198 2.194 . S
N218 C213 1.328 . S
N218 C217 1.315 . S
H219 C213 0.929 . S
H220 C217 0.930 . S
H221 C209 0.929 1_554 S
H222 C211 0.929 . S
O223 Co198 2.351 . S
O223 C226 1.244 . S
O224 Co198 2.155 . S
O224 C226 1.240 . S
O225 Co198 2.096 . S
O225 C206 1.247 . S
C226 O223 1.244 . S
C226 O224 1.240 . S
H227 C201 0.931 . S
H228 C210 0.931 . S
H229 C214 0.929 . S
H230 C216 0.930 . S
Co231 N235 2.148 . S
Co231 N241 2.128 . S
Co231 N251 2.194 . S
Co231 O256 2.351 . S
Co231 O257 2.155 . S
Co231 O258 2.096 . S
C232 N235 1.301 . S
C232 N236 1.328 . S
C232 H237 0.930 . S
C233 C234 1.333 . S
C233 N235 1.317 . S
C233 H238 0.930 . S
C234 C233 1.333 . S
C234 N236 1.350 . S
C234 H260 0.931 . S
N235 Co231 2.148 . S
N235 C232 1.301 . S
N235 C233 1.317 . S
N236 C232 1.328 . S
N236 C234 1.350 . S
H237 C232 0.930 . S
H238 C233 0.930 . S
C239 O240 1.224 . S
C239 O258 1.247 . S
O240 C239 1.224 . S
N241 Co231 2.128 . S
N241 C242 1.355 . S
N241 C244 1.311 . S
C242 N241 1.355 . S
C242 C243 1.363 . S
C242 H254 0.929 . S
C243 C242 1.363 . S
C243 N245 1.375 . S
C243 H261 0.931 . S
C244 N241 1.311 . S
C244 N245 1.347 . S
C244 H255 0.929 . S
N245 C243 1.375 . S
N245 C244 1.347 . S
C246 C249 1.365 . S
C246 N251 1.328 . S
C246 H252 0.929 . S
C247 C248 1.362 . S
C247 C250 1.378 . S
C247 H262 0.929 . S
C248 C247 1.362 . S
C248 C249 1.366 . S
C249 C246 1.365 . S
C249 C248 1.366 . S
C249 H263 0.930 . S
C250 C247 1.378 . S
C250 N251 1.315 . S
C250 H253 0.930 . S
N251 Co231 2.194 . S
N251 C246 1.328 . S
N251 C250 1.315 . S
H252 C246 0.929 . S
H253 C250 0.930 . S
H254 C242 0.929 . S
H255 C244 0.929 . S
O256 Co231 2.351 . S
O256 C259 1.244 . S
O257 Co231 2.155 . S
O257 C259 1.240 . S
O258 Co231 2.096 . S
O258 C239 1.247 . S
C259 O256 1.244 . S
C259 O257 1.240 . S
H260 C234 0.931 . S
H261 C243 0.931 . S
H262 C247 0.929 . S
H263 C249 0.930 . S
Co264 N268 2.148 . S
Co264 N274 2.128 . S
Co264 N284 2.194 . S
Co264 O289 2.351 . S
Co264 O290 2.155 . S
Co264 O291 2.096 . S
C265 N268 1.301 . S
C265 N269 1.328 . S
C265 H270 0.930 . S
C266 C267 1.333 . S
C266 N268 1.317 . S
C266 H271 0.930 . S
C267 C266 1.333 . S
C267 N269 1.350 . S
C267 H293 0.931 . S
N268 Co264 2.148 . S
N268 C265 1.301 . S
N268 C266 1.317 . S
N269 C265 1.328 . S
N269 C267 1.350 . S
H270 C265 0.930 . S
H271 C266 0.930 . S
C272 O273 1.224 . S
C272 O291 1.247 . S
O273 C272 1.224 . S
N274 Co264 2.128 . S
N274 C275 1.355 1_554 S
N274 C277 1.311 1_554 S
C275 N274 1.355 1_556 S
C275 C276 1.363 . S
C275 H287 0.929 1_556 S
C276 C275 1.363 . S
C276 N278 1.375 . S
C276 H294 0.931 . S
C277 N274 1.311 1_556 S
C277 N278 1.347 . S
C277 H288 0.929 . S
N278 C276 1.375 . S
N278 C277 1.347 . S
C279 C282 1.365 . S
C279 N284 1.328 . S
C279 H285 0.929 . S
C280 C281 1.362 . S
C280 C283 1.378 . S
C280 H295 0.929 . S
C281 C280 1.362 . S
C281 C282 1.366 . S
C282 C279 1.365 . S
C282 C281 1.366 . S
C282 H296 0.930 . S
C283 C280 1.378 . S
C283 N284 1.315 . S
C283 H286 0.930 . S
N284 Co264 2.194 . S
N284 C279 1.328 . S
N284 C283 1.315 . S
H285 C279 0.929 . S
H286 C283 0.930 . S
H287 C275 0.929 1_554 S
H288 C277 0.929 . S
O289 Co264 2.351 . S
O289 C292 1.244 . S
O290 Co264 2.155 . S
O290 C292 1.240 . S
O291 Co264 2.096 . S
O291 C272 1.247 . S
C292 O289 1.244 . S
C292 O290 1.240 . S
H293 C267 0.931 . S
H294 C276 0.931 . S
H295 C280 0.929 . S
H296 C282 0.930 . S
Co297 N301 2.148 . S
Co297 N307 2.128 . S
Co297 N317 2.194 . S
Co297 O322 2.351 . S
Co297 O323 2.155 . S
Co297 O324 2.096 . S
C298 N301 1.301 . S
C298 N302 1.328 . S
C298 H303 0.930 . S
C299 C300 1.333 . S
C299 N301 1.317 . S
C299 H304 0.930 . S
C300 C299 1.333 . S
C300 N302 1.350 . S
C300 H326 0.931 . S
N301 Co297 2.148 . S
N301 C298 1.301 . S
N301 C299 1.317 . S
N302 C298 1.328 . S
N302 C300 1.350 . S
H303 C298 0.930 . S
H304 C299 0.930 . S
C305 O306 1.224 . S
C305 O324 1.247 . S
O306 C305 1.224 . S
N307 Co297 2.128 . S
N307 C308 1.355 . S
N307 C310 1.311 . S
C308 N307 1.355 . S
C308 C309 1.363 . S
C308 H320 0.929 . S
C309 C308 1.363 . S
C309 N311 1.375 . S
C309 H327 0.931 . S
C310 N307 1.311 . S
C310 N311 1.347 . S
C310 H321 0.929 . S
N311 C309 1.375 . S
N311 C310 1.347 . S
C312 C315 1.365 . S
C312 N317 1.328 . S
C312 H318 0.929 . S
C313 C314 1.362 . S
C313 C316 1.378 . S
C313 H328 0.929 . S
C314 C313 1.362 . S
C314 C315 1.366 . S
C315 C312 1.365 . S
C315 C314 1.366 . S
C315 H329 0.930 . S
C316 C313 1.378 . S
C316 N317 1.315 . S
C316 H319 0.930 . S
N317 Co297 2.194 . S
N317 C312 1.328 . S
N317 C316 1.315 . S
H318 C312 0.929 . S
H319 C316 0.930 . S
H320 C308 0.929 . S
H321 C310 0.929 . S
O322 Co297 2.351 . S
O322 C325 1.244 . S
O323 Co297 2.155 . S
O323 C325 1.240 . S
O324 Co297 2.096 . S
O324 C305 1.247 . S
C325 O322 1.244 . S
C325 O323 1.240 . S
H326 C300 0.931 . S
H327 C309 0.931 . S
H328 C313 0.929 . S
H329 C315 0.930 . S
Co330 N334 2.148 . S
Co330 N340 2.128 . S
Co330 N350 2.194 . S
Co330 O355 2.351 . S
Co330 O356 2.155 . S
Co330 O357 2.096 . S
C331 N334 1.301 . S
C331 N335 1.328 . S
C331 H336 0.930 . S
C332 C333 1.333 . S
C332 N334 1.317 . S
C332 H337 0.930 . S
C333 C332 1.333 . S
C333 N335 1.350 . S
C333 H359 0.931 . S
N334 Co330 2.148 . S
N334 C331 1.301 . S
N334 C332 1.317 . S
N335 C331 1.328 . S
N335 C333 1.350 . S
H336 C331 0.930 . S
H337 C332 0.930 . S
C338 O339 1.224 . S
C338 O357 1.247 . S
O339 C338 1.224 . S
N340 Co330 2.128 . S
N340 C341 1.355 1_554 S
N340 C343 1.311 1_554 S
C341 N340 1.355 1_556 S
C341 C342 1.363 . S
C341 H353 0.929 1_556 S
C342 C341 1.363 . S
C342 N344 1.375 . S
C342 H360 0.931 . S
C343 N340 1.311 1_556 S
C343 N344 1.347 . S
C343 H354 0.929 . S
N344 C342 1.375 . S
N344 C343 1.347 . S
C345 C348 1.365 . S
C345 N350 1.328 . S
C345 H351 0.929 . S
C346 C347 1.362 . S
C346 C349 1.378 . S
C346 H361 0.929 . S
C347 C346 1.362 . S
C347 C348 1.366 . S
C348 C345 1.365 . S
C348 C347 1.366 . S
C348 H362 0.930 . S
C349 C346 1.378 . S
C349 N350 1.315 . S
C349 H352 0.930 . S
N350 Co330 2.194 . S
N350 C345 1.328 . S
N350 C349 1.315 . S
H351 C345 0.929 . S
H352 C349 0.930 . S
H353 C341 0.929 1_554 S
H354 C343 0.929 . S
O355 Co330 2.351 . S
O355 C358 1.244 . S
O356 Co330 2.155 . S
O356 C358 1.240 . S
O357 Co330 2.096 . S
O357 C338 1.247 . S
C358 O355 1.244 . S
C358 O356 1.240 . S
H359 C333 0.931 . S
H360 C342 0.931 . S
H361 C346 0.929 . S
H362 C348 0.930 . S
Co363 N367 2.148 . S
Co363 N373 2.128 . S
Co363 N383 2.194 . S
Co363 O388 2.351 . S
Co363 O389 2.155 . S
Co363 O390 2.096 . S
C364 N367 1.301 . S
C364 N368 1.328 . S
C364 H369 0.930 . S
C365 C366 1.333 . S
C365 N367 1.317 . S
C365 H370 0.930 . S
C366 C365 1.333 . S
C366 N368 1.350 . S
C366 H392 0.931 . S
N367 Co363 2.148 . S
N367 C364 1.301 . S
N367 C365 1.317 . S
N368 C364 1.328 . S
N368 C366 1.350 . S
H369 C364 0.930 . S
H370 C365 0.930 . S
C371 O372 1.224 . S
C371 O390 1.247 . S
O372 C371 1.224 . S
N373 Co363 2.128 . S
N373 C374 1.355 . S
N373 C376 1.311 . S
C374 N373 1.355 . S
C374 C375 1.363 . S
C374 H386 0.929 . S
C375 C374 1.363 . S
C375 N377 1.375 . S
C375 H393 0.931 . S
C376 N373 1.311 . S
C376 N377 1.347 . S
C376 H387 0.929 . S
N377 C375 1.375 . S
N377 C376 1.347 . S
C378 C381 1.365 . S
C378 N383 1.328 . S
C378 H384 0.929 . S
C379 C380 1.362 . S
C379 C382 1.378 . S
C379 H394 0.929 . S
C380 C379 1.362 . S
C380 C381 1.366 . S
C381 C378 1.365 . S
C381 C380 1.366 . S
C381 H395 0.930 . S
C382 C379 1.378 . S
C382 N383 1.315 . S
C382 H385 0.930 . S
N383 Co363 2.194 . S
N383 C378 1.328 . S
N383 C382 1.315 . S
H384 C378 0.929 . S
H385 C382 0.930 . S
H386 C374 0.929 . S
H387 C376 0.929 . S
O388 Co363 2.351 . S
O388 C391 1.244 . S
O389 Co363 2.155 . S
O389 C391 1.240 . S
O390 Co363 2.096 . S
O390 C371 1.247 . S
C391 O388 1.244 . S
C391 O389 1.240 . S
H392 C366 0.931 . S
H393 C375 0.931 . S
H394 C379 0.929 . S
H395 C381 0.930 . S
C396 C397 1.369 1_655 S
C396 C398 1.419 . S
C396 H400 0.930 . S
C397 C396 1.369 1_455 S
C397 C406 1.429 . S
C398 C396 1.419 . S
C398 C399 1.363 . S
C398 H401 0.929 . S
C399 C398 1.363 . S
C399 C405 1.428 1_655 S
H400 C396 0.930 . S
H401 C398 0.929 . S
S402 N403 1.613 . S
S402 N404 1.610 . S
N403 S402 1.613 . S
N403 C406 1.350 . S
N404 S402 1.610 . S
N404 C405 1.351 . S
C405 C399 1.428 1_455 S
C405 N404 1.351 . S
C405 C406 1.434 . S
C406 C397 1.429 . S
C406 N403 1.350 . S
C406 C405 1.434 . S
C407 C408 1.369 1_565 S
C407 C409 1.419 . S
C407 H411 0.930 . S
C408 C407 1.369 1_545 S
C408 C417 1.429 1_556 S
C409 C407 1.419 . S
C409 C410 1.363 1_556 S
C409 H412 0.929 . S
C410 C409 1.363 1_554 S
C410 C416 1.428 1_565 S
H411 C407 0.930 . S
H412 C409 0.929 . S
S413 N414 1.613 . S
S413 N415 1.610 . S
N414 S413 1.613 . S
N414 C417 1.350 . S
N415 S413 1.610 . S
N415 C416 1.351 . S
C416 C410 1.428 1_545 S
C416 N415 1.351 . S
C416 C417 1.434 . S
C417 C408 1.429 1_554 S
C417 N414 1.350 . S
C417 C416 1.434 . S
C418 C419 1.369 . S
C418 C420 1.419 . S
C418 H422 0.930 . S
C419 C418 1.369 . S
C419 C428 1.429 . S
C420 C418 1.419 . S
C420 C421 1.363 . S
C420 H423 0.929 . S
C421 C420 1.363 . S
C421 C427 1.428 . S
H422 C418 0.930 . S
H423 C420 0.929 . S
S424 N425 1.613 . S
S424 N426 1.610 . S
N425 S424 1.613 . S
N425 C428 1.350 . S
N426 S424 1.610 . S
N426 C427 1.351 . S
C427 C421 1.428 . S
C427 N426 1.351 . S
C427 C428 1.434 . S
C428 C419 1.429 . S
C428 N425 1.350 . S
C428 C427 1.434 . S
C429 C430 1.369 1_556 S
C429 C431 1.421 1_455 S
C429 H433 0.930 . S
C430 C429 1.369 1_554 S
C430 C439 1.415 1_455 S
C431 C429 1.421 1_655 S
C431 C432 1.361 . S
C431 H434 0.928 1_655 S
C432 C431 1.361 . S
C432 C438 1.428 1_556 S
H433 C429 0.930 . S
H434 C431 0.928 1_455 S
S435 N436 1.613 . S
S435 N437 1.610 . S
N436 S435 1.613 . S
N436 C439 1.344 . S
N437 S435 1.610 . S
N437 C438 1.351 . S
C438 C432 1.428 1_554 S
C438 N437 1.351 . S
C438 C439 1.456 . S
C439 C430 1.415 1_655 S
C439 N436 1.344 . S
C439 C438 1.456 . S
C440 C441 1.369 . S
C440 C442 1.419 . S
C440 H444 0.930 . S
C441 C440 1.369 . S
C441 C450 1.429 1_545 S
C442 C440 1.419 . S
C442 C443 1.363 1_545 S
C442 H445 0.929 . S
C443 C442 1.363 1_565 S
C443 C449 1.428 . S
H444 C440 0.930 . S
H445 C442 0.929 . S
S446 N447 1.613 . S
S446 N448 1.610 . S
N447 S446 1.613 . S
N447 C450 1.350 . S
N448 S446 1.610 . S
N448 C449 1.351 . S
C449 C443 1.428 . S
C449 N448 1.351 . S
C449 C450 1.434 . S
C450 C441 1.429 1_565 S
C450 N447 1.350 . S
C450 C449 1.434 . S
C451 C452 1.369 1_554 S
C451 C453 1.419 . S
C451 H455 0.930 . S
C452 C451 1.369 1_556 S
C452 C461 1.429 . S
C453 C451 1.419 . S
C453 C454 1.363 . S
C453 H456 0.929 . S
C454 C453 1.363 . S
C454 C460 1.428 1_554 S
H455 C451 0.930 . S
H456 C453 0.929 . S
S457 N458 1.613 . S
S457 N459 1.610 . S
N458 S457 1.613 . S
N458 C461 1.350 . S
N459 S457 1.610 . S
N459 C460 1.351 . S
C460 C454 1.428 1_556 S
C460 N459 1.351 . S
C460 C461 1.434 . S
C461 C452 1.429 . S
C461 N458 1.350 . S
C461 C460 1.434 . S
C462 C463 1.369 . S
C462 C464 1.419 . S
C462 H466 0.930 . S
C463 C462 1.369 . S
C463 C472 1.429 . S
C464 C462 1.419 . S
C464 C465 1.363 . S
C464 H467 0.929 . S
C465 C464 1.363 . S
C465 C471 1.428 . S
H466 C462 0.930 . S
H467 C464 0.929 . S
S468 N469 1.613 . S
S468 N470 1.610 . S
N469 S468 1.613 . S
N469 C472 1.350 . S
N470 S468 1.610 . S
N470 C471 1.351 . S
C471 C465 1.428 . S
C471 N470 1.351 . S
C471 C472 1.434 . S
C472 C463 1.429 . S
C472 N469 1.350 . S
C472 C471 1.434 . S
C473 C474 1.369 . S
C473 C475 1.419 . S
C473 H477 0.930 . S
C474 C473 1.369 . S
C474 C483 1.429 . S
C475 C473 1.419 . S
C475 C476 1.363 . S
C475 H478 0.929 . S
C476 C475 1.363 . S
C476 C482 1.428 . S
H477 C473 0.930 . S
H478 C475 0.929 . S
S479 N480 1.613 . S
S479 N481 1.610 . S
N480 S479 1.613 . S
N480 C483 1.350 . S
N481 S479 1.610 . S
N481 C482 1.351 . S
C482 C476 1.428 . S
C482 N481 1.351 . S
C482 C483 1.434 . S
C483 C474 1.429 . S
C483 N480 1.350 . S
C483 C482 1.434 . S
C484 C485 1.369 . S
C484 C486 1.419 . S
C484 H488 0.930 . S
C485 C484 1.369 . S
C485 C494 1.429 . S
C486 C484 1.419 . S
C486 C487 1.363 . S
C486 H489 0.929 . S
C487 C486 1.363 . S
C487 C493 1.428 . S
H488 C484 0.930 . S
H489 C486 0.929 . S
S490 N491 1.613 . S
S490 N492 1.610 . S
N491 S490 1.613 . S
N491 C494 1.350 . S
N492 S490 1.610 . S
N492 C493 1.351 . S
C493 C487 1.428 . S
C493 N492 1.351 . S
C493 C494 1.434 . S
C494 C485 1.429 . S
C494 N491 1.350 . S
C494 C493 1.434 . S
C495 C496 1.369 . S
C495 C497 1.419 . S
C495 H499 0.930 . S
C496 C495 1.369 . S
C496 C505 1.429 . S
C497 C495 1.419 . S
C497 C498 1.363 . S
C497 H500 0.929 . S
C498 C497 1.363 . S
C498 C504 1.428 . S
H499 C495 0.930 . S
H500 C497 0.929 . S
S501 N502 1.613 . S
S501 N503 1.610 . S
N502 S501 1.613 . S
N502 C505 1.350 . S
N503 S501 1.610 . S
N503 C504 1.351 . S
C504 C498 1.428 . S
C504 N503 1.351 . S
C504 C505 1.434 . S
C505 C496 1.429 . S
C505 N502 1.350 . S
C505 C504 1.434 . S
C506 C507 1.369 . S
C506 C508 1.419 . S
C506 H510 0.930 . S
C507 C506 1.369 . S
C507 C516 1.429 . S
C508 C506 1.419 . S
C508 C509 1.363 . S
C508 H511 0.929 . S
C509 C508 1.363 . S
C509 C515 1.428 . S
H510 C506 0.930 . S
H511 C508 0.929 . S
S512 N513 1.613 . S
S512 N514 1.610 . S
N513 S512 1.613 . S
N513 C516 1.350 . S
N514 S512 1.610 . S
N514 C515 1.351 . S
C515 C509 1.428 . S
C515 N514 1.351 . S
C515 C516 1.434 . S
C516 C507 1.429 . S
C516 N513 1.350 . S
C516 C515 1.434 . S
C517 C518 1.369 . S
C517 C519 1.419 . S
C517 H521 0.930 . S
C518 C517 1.369 . S
C518 C527 1.429 . S
C519 C517 1.419 . S
C519 C520 1.363 . S
C519 H522 0.929 . S
C520 C519 1.363 . S
C520 C526 1.428 . S
H521 C517 0.930 . S
H522 C519 0.929 . S
S523 N524 1.613 . S
S523 N525 1.610 . S
N524 S523 1.613 . S
N524 C527 1.350 . S
N525 S523 1.610 . S
N525 C526 1.351 . S
C526 C520 1.428 . S
C526 N525 1.351 . S
C526 C527 1.434 . S
C527 C518 1.429 . S
C527 N524 1.350 . S
C527 C526 1.434 . S
C528 C529 1.369 . S
C528 C530 1.419 . S
C528 H532 0.930 . S
C529 C528 1.369 . S
C529 C538 1.429 . S
C530 C528 1.419 . S
C530 C531 1.363 . S
C530 H533 0.929 . S
C531 C530 1.363 . S
C531 C537 1.428 . S
H532 C528 0.930 . S
H533 C530 0.929 . S
S534 N535 1.613 . S
S534 N536 1.610 . S
N535 S534 1.613 . S
N535 C538 1.350 . S
N536 S534 1.610 . S
N536 C537 1.351 . S
C537 C531 1.428 . S
C537 N536 1.351 . S
C537 C538 1.434 . S
C538 C529 1.429 . S
C538 N535 1.350 . S
C538 C537 1.434 . S
C539 C540 1.369 . S
C539 C541 1.419 . S
C539 H543 0.930 . S
C540 C539 1.369 . S
C540 C549 1.429 . S
C541 C539 1.419 . S
C541 C542 1.363 . S
C541 H544 0.929 . S
C542 C541 1.363 . S
C542 C548 1.428 . S
H543 C539 0.930 . S
H544 C541 0.929 . S
S545 N546 1.613 . S
S545 N547 1.610 . S
N546 S545 1.613 . S
N546 C549 1.350 . S
N547 S545 1.610 . S
N547 C548 1.351 . S
C548 C542 1.428 . S
C548 N547 1.351 . S
C548 C549 1.434 . S
C549 C540 1.429 . S
C549 N546 1.350 . S
C549 C548 1.434 . S
C550 C551 1.369 . S
C550 C552 1.419 . S
C550 H554 0.930 . S
C551 C550 1.369 . S
C551 C560 1.429 . S
C552 C550 1.419 . S
C552 C553 1.363 . S
C552 H555 0.929 . S
C553 C552 1.363 . S
C553 C559 1.428 . S
H554 C550 0.930 . S
H555 C552 0.929 . S
S556 N557 1.613 . S
S556 N558 1.610 . S
N557 S556 1.613 . S
N557 C560 1.350 . S
N558 S556 1.610 . S
N558 C559 1.351 . S
C559 C553 1.428 . S
C559 N558 1.351 . S
C559 C560 1.434 . S
C560 C551 1.429 . S
C560 N557 1.350 . S
C560 C559 1.434 . S
C561 C562 1.369 . S
C561 C563 1.419 . S
C561 H565 0.930 . S
C562 C561 1.369 . S
C562 C571 1.429 . S
C563 C561 1.419 . S
C563 C564 1.363 . S
C563 H566 0.929 . S
C564 C563 1.363 . S
C564 C570 1.428 . S
H565 C561 0.930 . S
H566 C563 0.929 . S
S567 N568 1.613 . S
S567 N569 1.610 . S
N568 S567 1.613 . S
N568 C571 1.350 . S
N569 S567 1.610 . S
N569 C570 1.351 . S
C570 C564 1.428 . S
C570 N569 1.351 . S
C570 C571 1.434 . S
C571 C562 1.429 . S
C571 N568 1.350 . S
C571 C570 1.434 . S
C572 C573 1.369 . S
C572 C574 1.419 . S
C572 H576 0.930 . S
C573 C572 1.369 . S
C573 C582 1.429 . S
C574 C572 1.419 . S
C574 C575 1.363 . S
C574 H577 0.929 . S
C575 C574 1.363 . S
C575 C581 1.428 . S
H576 C572 0.930 . S
H577 C574 0.929 . S
S578 N579 1.613 . S
S578 N580 1.610 . S
N579 S578 1.613 . S
N579 C582 1.350 . S
N580 S578 1.610 . S
N580 C581 1.351 . S
C581 C575 1.428 . S
C581 N580 1.351 . S
C581 C582 1.434 . S
C582 C573 1.429 . S
C582 N579 1.350 . S
C582 C581 1.434 . S
C583 C584 1.369 . S
C583 C585 1.419 . S
C583 H587 0.930 . S
C584 C583 1.369 . S
C584 C593 1.429 . S
C585 C583 1.419 . S
C585 C586 1.363 . S
C585 H588 0.929 . S
C586 C585 1.363 . S
C586 C592 1.428 . S
H587 C583 0.930 . S
H588 C585 0.929 . S
S589 N590 1.613 . S
S589 N591 1.610 . S
N590 S589 1.613 . S
N590 C593 1.350 . S
N591 S589 1.610 . S
N591 C592 1.351 . S
C592 C586 1.428 . S
C592 N591 1.351 . S
C592 C593 1.434 . S
C593 C584 1.429 . S
C593 N590 1.350 . S
C593 C592 1.434 . S
C594 C595 1.369 . S
C594 C596 1.419 . S
C594 H598 0.930 . S
C595 C594 1.369 . S
C595 C604 1.429 . S
C596 C594 1.419 . S
C596 C597 1.363 . S
C596 H599 0.929 . S
C597 C596 1.363 . S
C597 C603 1.428 . S
H598 C594 0.930 . S
H599 C596 0.929 . S
S600 N601 1.613 . S
S600 N602 1.610 . S
N601 S600 1.613 . S
N601 C604 1.350 . S
N602 S600 1.610 . S
N602 C603 1.351 . S
C603 C597 1.428 . S
C603 N602 1.351 . S
C603 C604 1.434 . S
C604 C595 1.429 . S
C604 N601 1.350 . S
C604 C603 1.434 . S
C605 C606 1.369 . S
C605 C607 1.419 . S
C605 H609 0.930 . S
C606 C605 1.369 . S
C606 C615 1.429 . S
C607 C605 1.419 . S
C607 C608 1.363 . S
C607 H610 0.929 . S
C608 C607 1.363 . S
C608 C614 1.428 . S
H609 C605 0.930 . S
H610 C607 0.929 . S
S611 N612 1.613 . S
S611 N613 1.610 . S
N612 S611 1.613 . S
N612 C615 1.350 . S
N613 S611 1.610 . S
N613 C614 1.351 . S
C614 C608 1.428 . S
C614 N613 1.351 . S
C614 C615 1.434 . S
C615 C606 1.429 . S
C615 N612 1.350 . S
C615 C614 1.434 . S
C616 C617 1.369 . S
C616 C618 1.419 . S
C616 H620 0.930 . S
C617 C616 1.369 . S
C617 C626 1.429 . S
C618 C616 1.419 . S
C618 C619 1.363 . S
C618 H621 0.929 . S
C619 C618 1.363 . S
C619 C625 1.428 . S
H620 C616 0.930 . S
H621 C618 0.929 . S
S622 N623 1.613 . S
S622 N624 1.610 . S
N623 S622 1.613 . S
N623 C626 1.350 . S
N624 S622 1.610 . S
N624 C625 1.351 . S
C625 C619 1.428 . S
C625 N624 1.351 . S
C625 C626 1.434 . S
C626 C617 1.429 . S
C626 N623 1.350 . S
C626 C625 1.434 . S
C627 C628 1.369 . S
C627 C629 1.419 . S
C627 H631 0.930 . S
C628 C627 1.369 . S
C628 C637 1.429 . S
C629 C627 1.419 . S
C629 C630 1.363 . S
C629 H632 0.929 . S
C630 C629 1.363 . S
C630 C636 1.428 . S
H631 C627 0.930 . S
H632 C629 0.929 . S
S633 N634 1.613 . S
S633 N635 1.610 . S
N634 S633 1.613 . S
N634 C637 1.350 . S
N635 S633 1.610 . S
N635 C636 1.351 . S
C636 C630 1.428 . S
C636 N635 1.351 . S
C636 C637 1.434 . S
C637 C628 1.429 . S
C637 N634 1.350 . S
C637 C636 1.434 . S
C638 C639 1.369 . S
C638 C640 1.419 . S
C638 H642 0.930 . S
C639 C638 1.369 . S
C639 C648 1.429 . S
C640 C638 1.419 . S
C640 C641 1.363 . S
C640 H643 0.929 . S
C641 C640 1.363 . S
C641 C647 1.428 . S
H642 C638 0.930 . S
H643 C640 0.929 . S
S644 N645 1.613 . S
S644 N646 1.610 . S
N645 S644 1.613 . S
N645 C648 1.350 . S
N646 S644 1.610 . S
N646 C647 1.351 . S
C647 C641 1.428 . S
C647 N646 1.351 . S
C647 C648 1.434 . S
C648 C639 1.429 . S
C648 N645 1.350 . S
C648 C647 1.434 . S
C649 C650 1.369 . S
C649 C651 1.419 . S
C649 H653 0.930 . S
C650 C649 1.369 . S
C650 C659 1.429 . S
C651 C649 1.419 . S
C651 C652 1.363 . S
C651 H654 0.929 . S
C652 C651 1.363 . S
C652 C658 1.428 . S
H653 C649 0.930 . S
H654 C651 0.929 . S
S655 N656 1.613 . S
S655 N657 1.610 . S
N656 S655 1.613 . S
N656 C659 1.350 . S
N657 S655 1.610 . S
N657 C658 1.351 . S
C658 C652 1.428 . S
C658 N657 1.351 . S
C658 C659 1.434 . S
C659 C650 1.429 . S
C659 N656 1.350 . S
C659 C658 1.434 . S
C660 C661 1.369 . S
C660 C662 1.419 . S
C660 H664 0.930 . S
C661 C660 1.369 . S
C661 C670 1.429 . S
C662 C660 1.419 . S
C662 C663 1.363 . S
C662 H665 0.929 . S
C663 C662 1.363 . S
C663 C669 1.428 . S
H664 C660 0.930 . S
H665 C662 0.929 . S
S666 N667 1.613 . S
S666 N668 1.610 . S
N667 S666 1.613 . S
N667 C670 1.350 . S
N668 S666 1.610 . S
N668 C669 1.351 . S
C669 C663 1.428 . S
C669 N668 1.351 . S
C669 C670 1.434 . S
C670 C661 1.429 . S
C670 N667 1.350 . S
C670 C669 1.434 . S
C671 C672 1.369 . S
C671 C673 1.419 . S
C671 H675 0.930 . S
C672 C671 1.369 . S
C672 C681 1.429 . S
C673 C671 1.419 . S
C673 C674 1.363 . S
C673 H676 0.929 . S
C674 C673 1.363 . S
C674 C680 1.428 . S
H675 C671 0.930 . S
H676 C673 0.929 . S
S677 N678 1.613 . S
S677 N679 1.610 . S
N678 S677 1.613 . S
N678 C681 1.350 . S
N679 S677 1.610 . S
N679 C680 1.351 . S
C680 C674 1.428 . S
C680 N679 1.351 . S
C680 C681 1.434 . S
C681 C672 1.429 . S
C681 N678 1.350 . S
C681 C680 1.434 . S
C682 C683 1.369 . S
C682 C684 1.419 . S
C682 H686 0.930 . S
C683 C682 1.369 . S
C683 C692 1.429 . S
C684 C682 1.419 . S
C684 C685 1.363 . S
C684 H687 0.929 . S
C685 C684 1.363 . S
C685 C691 1.428 . S
H686 C682 0.930 . S
H687 C684 0.929 . S
S688 N689 1.613 . S
S688 N690 1.610 . S
N689 S688 1.613 . S
N689 C692 1.350 . S
N690 S688 1.610 . S
N690 C691 1.351 . S
C691 C685 1.428 . S
C691 N690 1.351 . S
C691 C692 1.434 . S
C692 C683 1.429 . S
C692 N689 1.350 . S
C692 C691 1.434 . S
C693 C694 1.369 . S
C693 C695 1.419 . S
C693 H697 0.930 . S
C694 C693 1.369 . S
C694 C703 1.429 . S
C695 C693 1.419 . S
C695 C696 1.363 . S
C695 H698 0.929 . S
C696 C695 1.363 . S
C696 C702 1.428 . S
H697 C693 0.930 . S
H698 C695 0.929 . S
S699 N700 1.613 . S
S699 N701 1.610 . S
N700 S699 1.613 . S
N700 C703 1.350 . S
N701 S699 1.610 . S
N701 C702 1.351 . S
C702 C696 1.428 . S
C702 N701 1.351 . S
C702 C703 1.434 . S
C703 C694 1.429 . S
C703 N700 1.350 . S
C703 C702 1.434 . S
C704 C705 1.369 . S
C704 C706 1.419 . S
C704 H708 0.930 . S
C705 C704 1.369 . S
C705 C714 1.429 . S
C706 C704 1.419 . S
C706 C707 1.363 . S
C706 H709 0.929 . S
C707 C706 1.363 . S
C707 C713 1.428 . S
H708 C704 0.930 . S
H709 C706 0.929 . S
S710 N711 1.613 . S
S710 N712 1.610 . S
N711 S710 1.613 . S
N711 C714 1.350 . S
N712 S710 1.610 . S
N712 C713 1.351 . S
C713 C707 1.428 . S
C713 N712 1.351 . S
C713 C714 1.434 . S
C714 C705 1.429 . S
C714 N711 1.350 . S
C714 C713 1.434 . S
C715 C716 1.369 . S
C715 C717 1.419 . S
C715 H719 0.930 . S
C716 C715 1.369 . S
C716 C725 1.429 . S
C717 C715 1.419 . S
C717 C718 1.363 . S
C717 H720 0.929 . S
C718 C717 1.363 . S
C718 C724 1.428 . S
H719 C715 0.930 . S
H720 C717 0.929 . S
S721 N722 1.613 . S
S721 N723 1.610 . S
N722 S721 1.613 . S
N722 C725 1.350 . S
N723 S721 1.610 . S
N723 C724 1.351 . S
C724 C718 1.428 . S
C724 N723 1.351 . S
C724 C725 1.434 . S
C725 C716 1.429 . S
C725 N722 1.350 . S
C725 C724 1.434 . S
C397 C8 1.328 . S
C399 C371 1.331 . S
C408 C41 1.325 . S
C410 C206 1.331 . S
C419 C239 1.332 . S
C421 C74 1.329 . S
C430 C272 1.325 . S
C432 C107 1.323 . S
C441 C305 1.329 . S
C443 C140 1.324 . S
C452 C173 1.329 . S
C454 C338 1.324 . S
C463 C281 1.587 . S
C465 C17 1.589 . S
C474 C314 1.589 . S
C476 C50 1.586 . S
C485 C83 1.586 . S
C487 C347 1.588 . S
C496 C116 1.586 . S
C498 C380 1.588 . S
C507 C215 1.590 . S
C509 C149 1.588 . S
C518 C182 1.586 . S
C520 C248 1.589 . S
C529 N14 1.433 . S
C531 N5 1.430 1_556 S
C540 N38 1.432 . S
C542 N47 1.432 . S
C551 N80 1.431 . S
C553 N71 1.432 1_556 S
C562 N104 1.430 . S
C564 N113 1.433 . S
C573 N146 1.433 . S
C575 N137 1.430 1_556 S
C584 N170 1.431 . S
C586 N179 1.432 . S
C595 N203 1.433 . S
C597 N212 1.431 . S
C606 N245 1.433 . S
C608 N236 1.430 1_554 S
C617 N269 1.430 . S
C619 N278 1.433 . S
C628 N302 1.430 1_554 S
C630 N311 1.434 . S
C639 N344 1.432 . S
C641 N335 1.431 . S
C650 N377 1.431 . S
C652 N368 1.433 1_554 S
C661 C28 1.346 . S
C663 C358 1.347 . S
C672 C391 1.346 . S
C674 C61 1.347 . S
C683 C226 1.348 . S
C685 C94 1.347 . S
C694 C127 1.346 . S
C696 C259 1.347 . S
C705 C160 1.347 . S
C707 C292 1.347 . S
C716 C193 1.346 . S
C718 C325 1.346 . S
