# Generated by pormake.
# Topology snk, (6)-cn, num edge types: 1
# Building blocks:
#     Node 0, Type 0, BuildingBlock: INOVEN_clean_sbu_0, # of connection points: 6
#     Node 1, Type 0, BuildingBlock: INOVEN_clean_sbu_0, # of connection points: 6
#     Node 2, Type 0, BuildingBlock: INOVEN_clean_sbu_0, # of connection points: 6
#     Node 3, Type 0, BuildingBlock: INOVEN_clean_sbu_0, # of connection points: 6
#     Node 4, Type 0, BuildingBlock: INOVEN_clean_sbu_0, # of connection points: 6
#     Node 5, Type 0, BuildingBlock: INOVEN_clean_sbu_0, # of connection points: 6
#     Node 6, Type 0, BuildingBlock: INOVEN_clean_sbu_0, # of connection points: 6
#     Node 7, Type 0, BuildingBlock: INOVEN_clean_sbu_0, # of connection points: 6
#     Edge 8, Type (0, 0), BuildingBlock: EZIPEK_clean_linker_0, # of connection points: 2
#     Edge 9, Type (0, 0), BuildingBlock: EZIPEK_clean_linker_0, # of connection points: 2
#     Edge 10, Type (0, 0), BuildingBlock: EZIPEK_clean_linker_0, # of connection points: 2
#     Edge 11, Type (0, 0), BuildingBlock: EZIPEK_clean_linker_0, # of connection points: 2
#     Edge 12, Type (0, 0), BuildingBlock: EZIPEK_clean_linker_0, # of connection points: 2
#     Edge 13, Type (0, 0), BuildingBlock: EZIPEK_clean_linker_0, # of connection points: 2
#     Edge 14, Type (0, 0), BuildingBlock: EZIPEK_clean_linker_0, # of connection points: 2
#     Edge 15, Type (0, 0), BuildingBlock: EZIPEK_clean_linker_0, # of connection points: 2
#     Edge 16, Type (0, 0), BuildingBlock: EZIPEK_clean_linker_0, # of connection points: 2
#     Edge 17, Type (0, 0), BuildingBlock: EZIPEK_clean_linker_0, # of connection points: 2
#     Edge 18, Type (0, 0), BuildingBlock: EZIPEK_clean_linker_0, # of connection points: 2
#     Edge 19, Type (0, 0), BuildingBlock: EZIPEK_clean_linker_0, # of connection points: 2
#     Edge 20, Type (0, 0), BuildingBlock: EZIPEK_clean_linker_0, # of connection points: 2
#     Edge 21, Type (0, 0), BuildingBlock: EZIPEK_clean_linker_0, # of connection points: 2
#     Edge 22, Type (0, 0), BuildingBlock: EZIPEK_clean_linker_0, # of connection points: 2
#     Edge 23, Type (0, 0), BuildingBlock: EZIPEK_clean_linker_0, # of connection points: 2
#     Edge 24, Type (0, 0), BuildingBlock: EZIPEK_clean_linker_0, # of connection points: 2
#     Edge 25, Type (0, 0), BuildingBlock: EZIPEK_clean_linker_0, # of connection points: 2
#     Edge 26, Type (0, 0), BuildingBlock: EZIPEK_clean_linker_0, # of connection points: 2
#     Edge 27, Type (0, 0), BuildingBlock: EZIPEK_clean_linker_0, # of connection points: 2
#     Edge 28, Type (0, 0), BuildingBlock: EZIPEK_clean_linker_0, # of connection points: 2
#     Edge 29, Type (0, 0), BuildingBlock: EZIPEK_clean_linker_0, # of connection points: 2
#     Edge 30, Type (0, 0), BuildingBlock: EZIPEK_clean_linker_0, # of connection points: 2
#     Edge 31, Type (0, 0), BuildingBlock: EZIPEK_clean_linker_0, # of connection points: 2
# Relax obj value: 0.097
# Max RMSD: 0.176
# Mean RMSD: 0.138
data_MOF--net-snk--node1-INOVEN_clean_sbu_0--edge1-EZIPEK_clean_linker_0
_symmetry_space_group_name_H-M    P1
_symmetry_Int_Tables_number       1
_symmetry_cell_setting            triclinic
loop_
_symmetry_equiv_pos_as_xyz
'x, y, z'
_cell_length_a     26.609873
_cell_length_b     26.762865
_cell_length_c     20.950831
_cell_angle_alpha  96.429949
_cell_angle_beta   96.656187
_cell_angle_gamma 90.598158
loop_
_atom_site_label
_atom_site_type_symbol
_atom_site_fract_x
_atom_site_fract_y
_atom_site_fract_z
_atom_type_partial_charge
Gd0 Gd 1.00385 0.96083 0.45468 0.0
Gd1 Gd 0.0288 0.02938 0.58763 0.0
C2 C 0.08643 0.05438 0.4666 0.0
C3 C 0.98363 0.93075 0.33258 0.0
C4 C 0.99043 0.95047 0.2703 0.0
C5 C 0.02288 0.92571 0.22927 0.0
C6 C 0.96507 0.99317 0.25067 0.0
C7 C 1.00427 0.98525 0.15043 0.0
C8 C 0.97184 0.01029 0.19116 0.0
C9 C 0.02986 0.94301 0.17015 0.0
C10 C 0.06117 0.91673 0.54662 0.0
C11 C 0.94353 0.94098 0.57682 0.0
C12 C 0.06755 0.06435 0.70332 0.0
C13 C 0.05774 0.05489 0.76961 0.0
C14 C 0.04615 0.09487 0.81466 0.0
C15 C 0.05999 0.00602 0.78872 0.0
C16 C 0.03903 0.03737 0.89599 0.0
C17 C 0.05087 0.99745 0.85117 0.0
C18 C 0.03666 0.08619 0.87713 0.0
C19 C 0.94887 0.05715 0.50683 0.0
O20 O 0.06287 0.01493 0.43172 0.0
O21 O 0.07963 0.06843 0.52783 0.0
O22 O 0.02514 0.91929 0.36751 0.0
O23 O 0.95016 0.9521 0.36763 0.0
O24 O 0.03405 0.89218 0.49736 0.0
O25 O 0.06189 0.96289 0.53857 0.0
O26 O 0.97552 0.97266 0.61412 0.0
O27 O 0.94236 0.93501 0.51244 0.0
O28 O 0.03283 0.08802 0.66944 0.0
O29 O 0.08675 0.02724 0.66847 0.0
O30 O 0.95197 0.06481 0.56966 0.0
O31 O 0.98956 0.0386 0.49154 0.0
H32 H 0.04285 0.89273 0.2429 0.0
H33 H 0.93991 0.01328 0.28107 0.0
H34 H 0.9517 0.04294 0.17677 0.0
H35 H 0.05493 0.9231 0.13941 0.0
H36 H 0.04431 0.13286 0.80146 0.0
H37 H 0.06876 0.97421 0.75547 0.0
H38 H 0.0528 0.95949 0.86451 0.0
H39 H 0.0275 0.11754 0.91083 0.0
Gd40 Gd 0.26772 0.73031 0.75661 0.0
Gd41 Gd 0.20876 0.76151 0.87033 0.0
C42 C 0.17672 0.80973 0.73959 0.0
C43 C 0.29397 0.69927 0.64409 0.0
C44 C 0.27935 0.70882 0.57648 0.0
C45 C 0.31715 0.72116 0.53904 0.0
C46 C 0.22846 0.70626 0.54882 0.0
C47 C 0.25381 0.72793 0.44733 0.0
C48 C 0.21585 0.71555 0.48456 0.0
C49 C 0.30449 0.73082 0.47506 0.0
C50 C 0.31095 0.8058 0.84151 0.0
C51 C 0.30495 0.68504 0.88614 0.0
C52 C 0.17434 0.78873 0.97949 0.0
C53 C 0.18621 0.78074 0.04847 0.0
C54 C 0.16077 0.74233 0.07364 0.0
C55 C 0.22164 0.81194 0.09026 0.0
C56 C 0.2073 0.76516 0.17974 0.0
C57 C 0.23229 0.80401 0.1553 0.0
C58 C 0.17132 0.73456 0.13861 0.0
C59 C 0.16651 0.68498 0.78623 0.0
O60 O 0.20499 0.77559 0.71161 0.0
O61 O 0.17526 0.81583 0.80291 0.0
O62 O 0.31715 0.73648 0.68238 0.0
O63 O 0.26096 0.67532 0.67191 0.0
O64 O 0.33596 0.77253 0.80895 0.0
O65 O 0.2642 0.8008 0.8231 0.0
O66 O 0.27353 0.71604 0.91457 0.0
O67 O 0.30606 0.67923 0.82301 0.0
O68 O 0.15717 0.74952 0.93984 0.0
O69 O 0.20575 0.81669 0.95436 0.0
O70 O 0.14182 0.72216 0.81144 0.0
O71 O 0.21301 0.6912 0.80564 0.0
H72 H 0.35655 0.7234 0.5594 0.0
H73 H 0.19847 0.69712 0.57671 0.0
H74 H 0.17655 0.71314 0.46383 0.0
H75 H 0.33422 0.74029 0.44697 0.0
H76 H 0.13265 0.71817 0.04311 0.0
H77 H 0.2411 0.84249 0.07283 0.0
H78 H 0.26003 0.8281 0.18659 0.0
H79 H 0.15154 0.70455 0.15683 0.0
Gd80 Gd 0.52846 0.98762 0.06615 0.0
Gd81 Gd 0.49592 0.05057 0.95063 0.0
C82 C 0.44432 0.07446 0.08324 0.0
C83 C 0.56419 0.96656 0.17975 0.0
C84 C 0.55101 0.97651 0.24679 0.0
C85 C 0.53067 0.9375 0.2764 0.0
C86 C 0.55947 0.02431 0.28235 0.0
C87 C 0.52669 0.99395 0.37482 0.0
C88 C 0.54716 0.03297 0.34569 0.0
C89 C 0.51847 0.94619 0.33981 0.0
C90 C 0.45435 0.94623 0.97817 0.0
C91 C 0.57713 0.95821 0.93599 0.0
C92 C 0.46242 0.07865 0.83967 0.0
C93 C 0.47007 0.06434 0.77102 0.0
C94 C 0.5101 0.08622 0.74452 0.0
C95 C 0.437 0.02959 0.73088 0.0
C96 C 0.4847 0.03811 0.64031 0.0
C97 C 0.44442 0.01641 0.6661 0.0
C98 C 0.51739 0.07311 0.67988 0.0
C99 C 0.56773 0.09261 0.04016 0.0
O100 O 0.47156 0.03877 0.10776 0.0
O101 O 0.44515 0.08465 1.02262 0.0
O102 O 0.53375 0.93597 0.1392 0.0
O103 O 0.58029 0.00502 0.15341 0.0
O104 O 0.48516 0.92045 1.01398 0.0
O105 O 0.45976 0.9926 0.99709 0.0
O106 O 0.54722 0.99096 0.90814 0.0
O107 O 0.58038 0.95316 0.99832 0.0
O108 O 0.50098 0.10047 0.87739 0.0
O109 O 0.43777 0.04653 0.86817 0.0
O110 O 0.5375 0.11878 1.00453 0.0
O111 O 0.56251 0.04644 1.0201 0.0
H112 H 0.52431 0.90019 0.25054 0.0
H113 H 0.57566 0.05509 0.26145 0.0
H114 H 0.55386 0.07004 0.37218 0.0
H115 H 0.50285 0.91564 0.36174 0.0
H116 H 0.53593 0.11357 0.77366 0.0
H117 H 0.40543 0.01257 0.74948 0.0
H118 H 0.41879 0.98936 0.63606 0.0
H119 H 0.54858 0.09028 0.66063 0.0
Gd120 Gd 0.28674 0.26776 0.33574 0.0
Gd121 Gd 0.2168 0.24549 0.20826 0.0
C122 C 0.19773 0.18107 0.32109 0.0
C123 C 0.31991 0.28831 0.45743 0.0
C124 C 0.30293 0.28009 0.5203 0.0
C125 C 0.33715 0.28842 0.57686 0.0
C126 C 0.25317 0.26377 0.5247 0.0
C127 C 0.27231 0.26437 0.64147 0.0
C128 C 0.238 0.2559 0.58483 0.0
C129 C 0.322 0.28067 0.63693 0.0
C130 C 0.32676 0.20584 0.24472 0.0
C131 C 0.31209 0.32729 0.22131 0.0
C132 C 0.17573 0.22977 0.08864 0.0
C133 C 0.19187 0.23177 1.02354 0.0
C134 C 0.1678 0.20036 0.9703 0.0
C135 C 0.22979 0.26607 1.01334 0.0
C136 C 0.21795 0.23866 0.89762 0.0
C137 C 0.24266 0.26948 0.95094 0.0
C138 C 0.18072 0.20374 0.90784 0.0
C139 C 0.17979 0.30715 0.30206 0.0
O140 O 0.2256 0.21602 0.35922 0.0
O141 O 0.19361 0.17976 0.25743 0.0
O142 O 0.3325 0.24819 0.42163 0.0
O143 O 0.29366 0.3196 0.42377 0.0
O144 O 0.35287 0.23772 0.28761 0.0
O145 O 0.2808 0.20525 0.25491 0.0
O146 O 0.28021 0.29514 0.18382 0.0
O147 O 0.31784 0.32859 0.28502 0.0
O148 O 0.17484 0.27272 0.12489 0.0
O149 O 0.19344 0.1936 0.12131 0.0
O150 O 0.1518 0.27519 0.26168 0.0
O151 O 0.22435 0.30699 0.28788 0.0
H152 H 0.37568 0.301 0.57456 0.0
H153 H 0.22607 0.25721 0.48179 0.0
H154 H 0.19951 0.24334 0.58727 0.0
H155 H 0.34901 0.28746 0.67999 0.0
H156 H 0.13843 0.17372 0.97692 0.0
H157 H 0.2491 0.29064 0.05347 0.0
H158 H 0.27156 0.29654 0.9441 0.0
H159 H 0.16122 0.17962 0.86735 0.0
Gd160 Gd 0.79214 0.2366 0.20986 0.0
Gd161 Gd 0.7421 0.26348 0.33476 0.0
C162 C 0.70794 0.32048 0.20573 0.0
C163 C 0.81973 0.19594 0.10206 0.0
C164 C 0.80747 0.20358 0.03294 0.0
C165 C 0.84201 0.22995 1.00229 0.0
C166 C 0.76134 0.18589 0.99725 0.0
C167 C 0.78393 0.22278 0.9032 0.0
C168 C 0.74971 0.19546 0.93287 0.0
C169 C 0.83024 0.23966 0.93816 0.0
C170 C 0.83436 0.31458 0.29044 0.0
C171 C 0.82862 0.18116 0.3399 0.0
C172 C 0.71363 0.30357 0.44229 0.0
C173 C 0.72429 0.29429 0.51068 0.0
C174 C 0.68424 0.29294 0.54863 0.0
C175 C 0.77359 0.28462 0.53789 0.0
C176 C 0.74232 0.2719 0.63962 0.0
C177 C 0.78253 0.27375 0.60198 0.0
C178 C 0.69314 0.28168 0.61255 0.0
C179 C 0.7003 0.18463 0.25511 0.0
O180 O 0.73329 0.28777 0.17077 0.0
O181 O 0.70908 0.32097 0.26945 0.0
O182 O 0.84528 0.2326 0.13888 0.0
O183 O 0.78413 0.17641 0.13067 0.0
O184 O 0.833 0.31215 0.22798 0.0
O185 O 0.81716 0.27452 0.3061 0.0
O186 O 0.80058 0.21197 0.37386 0.0
O187 O 0.82911 0.18189 0.27657 0.0
O188 O 0.6873 0.26825 0.40404 0.0
O189 O 0.75104 0.3219 0.41577 0.0
O190 O 0.7033 0.18705 0.31767 0.0
O191 O 0.71659 0.22495 0.23864 0.0
H192 H 0.87798 0.24366 1.02823 0.0
H193 H 0.73399 0.16516 1.01912 0.0
H194 H 0.71384 0.18203 0.90638 0.0
H195 H 0.85712 0.26065 0.91585 0.0
H196 H 0.64594 0.29999 0.5285 0.0
H197 H 0.80512 0.28493 0.50952 0.0
H198 H 0.8207 0.26621 0.62205 0.0
H199 H 0.66167 0.28032 0.64086 0.0
Gd200 Gd 0.78383 0.76455 0.82643 0.0
Gd201 Gd 0.71721 0.73758 0.69784 0.0
C202 C 0.69303 0.67946 0.81598 0.0
C203 C 0.81412 0.79116 0.94784 0.0
C204 C 0.80055 0.77888 1.01089 0.0
C205 C 0.83657 0.78643 0.06579 0.0
C206 C 0.75199 0.76021 1.01725 0.0
C207 C 0.77551 0.75807 0.13281 0.0
C208 C 0.73959 0.74987 0.07776 0.0
C209 C 0.82417 0.77614 0.12628 0.0
C210 C 0.82358 0.69549 0.74335 0.0
C211 C 0.81315 0.81797 0.70818 0.0
C212 C 0.67983 0.71576 0.57757 0.0
C213 C 0.69718 0.71847 0.51341 0.0
C214 C 0.67549 0.68601 0.45976 0.0
C215 C 0.73368 0.75463 0.50444 0.0
C216 C 0.72472 0.72728 0.38879 0.0
C217 C 0.7473 0.759 0.44266 0.0
C218 C 0.68911 0.69037 0.39788 0.0
C219 C 0.67941 0.80696 0.78204 0.0
O220 O 0.72392 0.71273 0.8527 0.0
O221 O 0.6872 0.67757 0.75209 0.0
O222 O 0.83507 0.7555 0.91278 0.0
O223 O 0.78073 0.81585 0.91348 0.0
O224 O 0.85002 0.72787 0.78503 0.0
O225 O 0.77734 0.69789 0.7517 0.0
O226 O 0.78228 0.78438 0.6717 0.0
O227 O 0.81645 0.82243 0.77208 0.0
O228 O 0.67373 0.75877 0.61167 0.0
O229 O 0.70081 0.68244 0.61266 0.0
O230 O 0.65201 0.77263 0.74467 0.0
O231 O 0.7249 0.804 0.77125 0.0
H232 H 0.87422 0.80074 0.06196 0.0
H233 H 0.72351 0.75412 0.97568 0.0
H234 H 0.70184 0.73601 0.08185 0.0
H235 H 0.85234 0.7828 0.16817 0.0
H236 H 0.64732 0.65786 0.46553 0.0
H237 H 0.75103 0.7801 0.54494 0.0
H238 H 0.77484 0.78769 0.43665 0.0
H239 H 0.67126 0.66557 0.35694 0.0
Gd240 Gd 0.49218 0.47124 0.96612 0.0
Gd241 Gd 0.53464 0.53058 0.09706 0.0
C242 C 0.58061 0.55775 0.96889 0.0
C243 C 0.4557 0.45089 0.84593 0.0
C244 C 0.47109 0.45925 0.78185 0.0
C245 C 0.5105 0.43235 0.75548 0.0
C246 C 0.4455 0.49465 0.74596 0.0
C247 C 0.49826 0.47629 0.65928 0.0
C248 C 0.45904 0.50318 0.68543 0.0
C249 C 0.52394 0.44084 0.69473 0.0
C250 C 0.56407 0.42479 0.03909 0.0
C251 C 0.43872 0.44955 0.08744 0.0
C252 C 0.57434 0.55049 0.21632 0.0
C253 C 0.56362 0.53736 0.28028 0.0
C254 C 0.51369 0.53356 0.29546 0.0
C255 C 0.60385 0.52928 0.32733 0.0
C256 C 0.54458 0.51518 0.40422 0.0
C257 C 0.59444 0.51812 0.38872 0.0
C258 C 0.50428 0.52277 0.35695 0.0
C259 C 0.46191 0.57823 0.0288 0.0
O260 O 0.54983 0.52264 0.93602 0.0
O261 O 0.58476 0.56631 0.03311 0.0
O262 O 0.48087 0.41835 0.87886 0.0
O263 O 0.44441 0.49121 0.88248 0.0
O264 O 0.52684 0.401 1.00166 0.0
O265 O 0.56341 0.47107 0.03183 0.0
O266 O 0.47792 0.47382 0.12327 0.0
O267 O 0.43152 0.44947 1.02398 0.0
O268 O 0.54191 0.57945 0.1873 0.0
O269 O 0.58986 0.51417 0.17659 0.0
O270 O 0.49737 0.60125 0.06985 0.0
O271 O 0.46366 0.53135 0.03209 0.0
H272 H 0.53095 0.40473 0.78162 0.0
H273 H 0.41486 0.5158 0.76475 0.0
H274 H 0.43875 0.53065 0.65879 0.0
H275 H 0.55431 0.4197 0.67527 0.0
H276 H 0.48196 0.53936 0.25999 0.0
H277 H 0.64261 0.53194 0.31669 0.0
H278 H 0.62603 0.51224 0.42439 0.0
H279 H 0.46555 0.5205 0.36781 0.0
Gd280 Gd 0.02429 0.46075 0.6052 0.0
Gd281 Gd 0.99759 0.51755 0.48089 0.0
C282 C 0.93695 0.54441 0.6064 0.0
C283 C 0.04762 0.44276 0.7233 0.0
C284 C 0.03498 0.46535 0.7874 0.0
C285 C 0.99859 0.44208 0.81809 0.0
C286 C 0.05958 0.50932 0.81939 0.0
C287 C 1.00522 0.51107 0.90696 0.0
C288 C 0.04592 0.53103 0.87878 0.0
C289 C 0.98473 0.46393 0.87709 0.0
C290 C 0.96618 0.41015 0.50509 0.0
C291 C 0.08869 0.43969 0.48581 0.0
C292 C 0.95415 0.54684 0.37489 0.0
C293 C 0.9636 0.54799 0.30709 0.0
C294 C 0.93582 0.58053 0.2692 0.0
C295 C 0.99809 0.51551 0.27878 0.0
C296 C 0.97508 0.54677 0.17485 0.0
C297 C 1.00373 0.51487 0.21296 0.0
C298 C 0.94152 0.57998 0.20359 0.0
C299 C 0.07502 0.55619 0.5669 0.0
O300 O 0.95954 0.50749 0.63454 0.0
O301 O 0.94547 0.55527 0.54821 0.0
O302 O 0.01045 0.4192 0.68452 0.0
O303 O 0.07687 0.46951 0.69297 0.0
O304 O 0.99755 0.38783 0.54454 0.0
O305 O 0.96501 0.45625 0.52393 0.0
O306 O 0.0515 0.4586 0.44875 0.0
O307 O 0.09099 0.44422 0.5497 0.0
O308 O 0.98236 0.57681 0.41889 0.0
O309 O 0.94652 0.50221 0.39272 0.0
O310 O 0.073 0.55994 0.50516 0.0
O311 O 0.0348 0.53605 0.57832 0.0
H312 H 0.98077 0.40662 0.79657 0.0
H313 H 0.08982 0.52701 0.79887 0.0
H314 H 0.06904 0.56256 0.90187 0.0
H315 H 0.95822 0.44266 0.89935 0.0
H316 H 0.90902 0.60577 0.29013 0.0
H317 H 0.01992 0.49011 0.30727 0.0
H318 H 0.02976 0.489 0.19152 0.0
H319 H 0.91905 0.60477 0.17487 0.0
C320 C 0.08887 0.11432 0.38347 0.0
C321 C 0.11562 0.08753 0.43103 0.0
C322 C 0.19639 0.11821 0.40197 0.0
C323 C 0.16958 0.14409 0.35307 0.0
N324 N 0.0902 0.15986 0.29026 0.0
N325 N 0.19402 0.05851 0.4813 0.0
C326 C 0.11586 0.13972 0.34137 0.0
C327 C 0.16922 0.0882 0.43937 0.0
N328 N 0.03738 0.11757 0.38067 0.0
N329 N 0.24808 0.12208 0.41221 0.0
H330 H 0.17522 0.03727 0.51041 0.0
H331 H 0.23276 0.05255 0.48515 0.0
H332 H 0.26972 0.13798 0.38089 0.0
H333 H 0.26977 0.11058 0.4523 0.0
H334 H 0.01595 0.14168 0.35337 0.0
H335 H 0.01611 0.09935 0.41017 0.0
H336 H 0.0523 0.15147 0.27375 0.0
H337 H 0.10693 0.18245 0.26104 0.0
C338 C 0.07111 0.84454 0.61508 0.0
C339 C 0.08948 0.89182 0.60036 0.0
C340 C 0.15894 0.88957 0.68879 0.0
C341 C 0.14414 0.83986 0.69666 0.0
N342 N 0.0913 0.76648 0.65856 0.0
N343 N 0.15991 0.95197 0.6141 0.0
C344 C 0.10194 0.81631 0.65699 0.0
C345 C 0.13561 0.9128 0.63515 0.0
N346 N 0.02307 0.82725 0.59228 0.0
N347 N 0.19627 0.91419 0.73138 0.0
H348 H 0.14768 0.96725 0.57169 0.0
H349 H 0.1958 0.96533 0.63437 0.0
H350 H 0.21544 0.8976 0.76962 0.0
H351 H 0.20496 0.95231 0.73198 0.0
H352 H 0.00676 0.79557 0.6071 0.0
H353 H 0.99646 0.84778 0.56659 0.0
H354 H 0.06564 0.7457 0.62407 0.0
H355 H 0.11106 0.74505 0.69107 0.0
C356 C 0.34066 0.86122 0.94438 0.0
C357 C 0.33576 0.85232 0.87586 0.0
C358 C 0.40259 0.91461 0.87296 0.0
C359 C 0.40779 0.92298 0.9415 0.0
N360 N 0.37109 0.91731 0.0402 0.0
N361 N 0.3498 0.88174 0.77484 0.0
C362 C 0.3728 0.90094 0.97634 0.0
C363 C 0.36247 0.88314 0.84013 0.0
N364 N 0.31812 0.82942 0.97936 0.0
N365 N 0.43774 0.93375 0.83942 0.0
H366 H 0.32006 0.85912 0.74984 0.0
H367 H 0.3652 0.90659 0.74703 0.0
H368 H 0.46711 0.95738 0.86203 0.0
H369 H 0.4395 0.92363 0.79026 0.0
H370 H 0.32591 0.83015 0.02935 0.0
H371 H 0.29491 0.79964 0.95745 0.0
H372 H 0.34325 0.90541 0.06663 0.0
H373 H 0.39439 0.94664 0.06471 0.0
C374 C 0.36275 0.1183 0.10025 0.0
C375 C 0.41124 0.10357 0.12612 0.0
C376 C 0.39363 0.14158 0.2333 0.0
C377 C 0.35128 0.1658 0.20443 0.0
N378 N 0.30084 0.18278 0.10623 0.0
N379 N 0.4761 0.10952 0.21927 0.0
C380 C 0.3369 0.15537 0.13679 0.0
C381 C 0.4276 0.11706 0.19337 0.0
N382 N 0.34027 0.09585 0.04201 0.0
N383 N 0.40107 0.14114 0.29887 0.0
H384 H 0.50419 0.0948 0.19269 0.0
H385 H 0.49028 0.12356 0.2664 0.0
H386 H 0.37535 0.15632 0.32931 0.0
H387 H 0.42928 0.12047 0.32185 0.0
H388 H 0.30318 0.10296 1.02392 0.0
H389 H 0.35601 0.06564 1.01599 0.0
H390 H 0.29296 0.18006 0.05601 0.0
H391 H 0.28305 0.2118 0.13096 0.0
C392 C 0.85622 0.90598 0.59102 0.0
C393 C 0.90942 0.90998 0.61066 0.0
C394 C 0.8991 0.85193 0.69216 0.0
C395 C 0.84594 0.85049 0.67551 0.0
N396 N 0.77274 0.88345 0.61685 0.0
N397 N 0.97867 0.89488 0.69317 0.0
C398 C 0.82419 0.87919 0.62661 0.0
C399 C 0.92984 0.88588 0.66539 0.0
N400 N 0.83571 0.92929 0.53974 0.0
N401 N 0.92135 0.81828 0.73043 0.0
H402 H 0.00649 0.91297 0.67295 0.0
H403 H 0.9915 0.88542 0.73912 0.0
H404 H 0.90101 0.79202 0.75048 0.0
H405 H 0.96027 0.8128 0.73669 0.0
H406 H 0.79928 0.92149 0.51648 0.0
H407 H 0.85556 0.9558 0.51933 0.0
H408 H 0.75438 0.90795 0.58718 0.0
H409 H 0.74812 0.86574 0.64291 0.0
C410 C 0.92837 0.142 0.47043 0.0
C411 C 0.91864 0.08927 0.46387 0.0
C412 C 0.86199 0.09614 0.36423 0.0
C413 C 0.86472 0.14939 0.37687 0.0
N414 N 0.90132 0.22375 0.44291 0.0
N415 N 0.87111 0.01689 0.40898 0.0
C416 C 0.89806 0.1725 0.43045 0.0
C417 C 0.88408 0.06659 0.41193 0.0
N418 N 0.96835 0.16276 0.51231 0.0
N419 N 0.83992 0.07346 0.30605 0.0
H420 H 0.88728 0.99403 0.44239 0.0
H421 H 0.84166 0.9995 0.37676 0.0
H422 H 0.82698 0.09354 0.26812 0.0
H423 H 0.84073 0.03485 0.29239 0.0
H424 H 0.98099 0.19985 0.51368 0.0
H425 H 0.99224 0.14188 0.54156 0.0
H426 H 0.91905 0.24258 0.48598 0.0
H427 H 0.88458 0.24772 0.4112 0.0
C428 C 0.61245 0.16626 0.20358 0.0
C429 C 0.6635 0.15222 0.21106 0.0
C430 C 0.65103 0.09654 0.10976 0.0
C431 C 0.60051 0.11342 0.09918 0.0
N432 N 0.53498 0.17003 0.13292 0.0
N433 N 0.7272 0.09373 0.18499 0.0
C434 C 0.58155 0.14966 0.14527 0.0
C435 C 0.68146 0.11407 0.1682 0.0
N436 N 0.59294 0.19374 0.25361 0.0
N437 N 0.67144 0.06747 0.06173 0.0
H438 H 0.74843 0.10547 0.22914 0.0
H439 H 0.7413 0.06239 0.15943 0.0
H440 H 0.65185 0.05645 1.01629 0.0
H441 H 0.70949 0.05838 0.06412 0.0
H442 H 0.55448 0.20005 0.25461 0.0
H443 H 0.61462 0.20649 0.29713 0.0
H444 H 0.52308 0.20183 0.15991 0.0
H445 H 0.50811 0.15701 0.09472 0.0
C446 C 0.61979 0.83313 0.8621 0.0
C447 C 0.6578 0.84714 0.82508 0.0
C448 C 0.64621 0.93591 0.865 0.0
C449 C 0.60394 0.92135 0.89462 0.0
N450 N 0.54177 0.85689 0.90274 0.0
N451 N 0.70151 0.91382 0.78265 0.0
C452 C 0.58827 0.87019 0.88793 0.0
C453 C 0.66992 0.89913 0.82437 0.0
N454 N 0.61453 0.78453 0.87453 0.0
N455 N 0.66397 0.98454 0.87607 0.0
H456 H 0.71855 0.88873 0.75067 0.0
H457 H 0.70725 0.95126 0.77554 0.0
H458 H 0.64641 0.01249 0.9038 0.0
H459 H 0.69798 0.9962 0.8617 0.0
H460 H 0.59015 0.77341 0.90613 0.0
H461 H 0.63898 0.75678 0.85975 0.0
H462 H 0.52688 0.82025 0.89356 0.0
H463 H 0.51555 0.88356 0.91509 0.0
C464 C 0.66345 0.59316 0.94102 0.0
C465 C 0.60973 0.58888 0.92964 0.0
C466 C 0.61044 0.6416 0.83989 0.0
C467 C 0.66411 0.64424 0.8498 0.0
N468 N 0.74197 0.61311 0.89949 0.0
N469 N 0.53264 0.60236 0.85967 0.0
C470 C 0.69065 0.61756 0.89778 0.0
C471 C 0.58355 0.61076 0.87629 0.0
N472 N 0.68885 0.57313 0.99235 0.0
N473 N 0.58447 0.67108 0.79866 0.0
H474 H 0.50884 0.58664 0.88843 0.0
H475 H 0.5139 0.60928 0.81515 0.0
H476 H 0.60177 0.69358 0.76981 0.0
H477 H 0.54567 0.67666 0.79682 0.0
H478 H 0.72688 0.58103 1.0086 0.0
H479 H 0.67159 0.55041 1.02109 0.0
H480 H 0.76336 0.5902 0.92862 0.0
H481 H 0.76279 0.6283 0.86675 0.0
C482 C 0.61872 0.34042 0.16551 0.0
C483 C 0.67115 0.35211 0.17015 0.0
C484 C 0.65418 0.41037 0.08753 0.0
C485 C 0.6012 0.40079 0.08541 0.0
N486 N 0.53322 0.36358 0.13275 0.0
N487 N 0.73837 0.4046 0.14519 0.0
C488 C 0.58361 0.36778 0.12736 0.0
C489 C 0.68869 0.38917 0.13411 0.0
N490 N 0.60232 0.3013 0.19508 0.0
N491 N 0.67192 0.43704 0.0425 0.0
H492 H 0.76431 0.38973 0.17891 0.0
H493 H 0.75276 0.43507 0.12564 0.0
H494 H 0.64842 0.45152 1.00604 0.0
H495 H 0.71016 0.44083 0.03725 0.0
H496 H 0.56557 0.28635 0.18622 0.0
H497 H 0.62627 0.28116 0.22509 0.0
H498 H 0.51859 0.34591 0.16867 0.0
H499 H 0.50607 0.38142 0.10474 0.0
C500 C 0.88236 0.40071 0.43686 0.0
C501 C 0.93345 0.38559 0.448 0.0
C502 C 0.92112 0.32731 0.3483 0.0
C503 C 0.87149 0.34528 0.33571 0.0
N504 N 0.80887 0.40658 0.35832 0.0
N505 N 1.00389 0.34004 0.40858 0.0
C506 C 0.85362 0.38475 0.37674 0.0
C507 C 0.95361 0.35046 0.4021 0.0
N508 N 0.86002 0.42717 0.48527 0.0
N509 N 0.93642 0.28649 0.31065 0.0
H510 H 0.02871 0.35408 0.44847 0.0
H511 H 0.02174 0.32016 0.37229 0.0
H512 H 0.91473 0.2699 0.26886 0.0
H513 H 0.96921 0.26707 0.32299 0.0
H514 H 0.82162 0.4351 0.48135 0.0
H515 H 0.87813 0.43599 0.53209 0.0
H516 H 0.796 0.43874 0.38364 0.0
H517 H 0.78727 0.39535 0.31408 0.0
C518 C 0.88383 0.62429 0.74484 0.0
C519 C 0.84687 0.65137 0.70949 0.0
C520 C 0.85953 0.5966 0.61125 0.0
C521 C 0.90369 0.57765 0.64371 0.0
N522 N 0.96358 0.58312 0.74153 0.0
N523 N 0.80705 0.6687 0.60498 0.0
C524 C 0.91735 0.59359 0.71083 0.0
C525 C 0.83631 0.63875 0.64158 0.0
N526 N 0.88687 0.62756 0.81072 0.0
N527 N 0.83907 0.57402 0.5521 0.0
H528 H 0.79176 0.70132 0.62511 0.0
H529 H 0.80255 0.66374 0.55454 0.0
H530 H 0.85335 0.54119 0.52994 0.0
H531 H 0.80457 0.58451 0.52907 0.0
H532 H 0.9105 0.60505 0.83804 0.0
H533 H 0.86156 0.6482 0.83705 0.0
H534 H 0.97583 0.59738 0.78922 0.0
H535 H 0.99246 0.56641 0.71787 0.0
C536 C 0.37351 0.33665 0.14087 0.0
C537 C 0.34525 0.35959 0.18918 0.0
C538 C 0.37926 0.44237 0.17218 0.0
C539 C 0.40365 0.41941 0.11968 0.0
N540 N 0.41473 0.34452 0.04607 0.0
N541 N 0.31503 0.43525 0.2444 0.0
C542 C 0.39742 0.36671 0.10112 0.0
C543 C 0.34665 0.41277 0.20346 0.0
N544 N 0.38081 0.286 0.13586 0.0
N545 N 0.38664 0.49263 0.1918 0.0
H546 H 0.29068 0.41499 0.26799 0.0
H547 H 0.30987 0.4739 0.25117 0.0
H548 H 0.40585 0.51671 0.16665 0.0
H549 H 0.37578 0.51012 0.23484 0.0
H550 H 0.40569 0.26775 0.10662 0.0
H551 H 0.36703 0.26311 0.167 0.0
H552 H 0.4045 0.30784 1.02628 0.0
H553 H 0.43634 0.36292 1.01727 0.0
C554 C 0.43226 0.65113 0.96901 0.0
C555 C 0.42056 0.60519 0.99308 0.0
C556 C 0.33196 0.61116 0.94566 0.0
C557 C 0.34327 0.65873 0.92667 0.0
N558 N 0.40095 0.72988 0.93664 0.0
N559 N 0.35504 0.55046 1.02038 0.0
C560 C 0.39242 0.68048 0.94337 0.0
C561 C 0.36926 0.58733 0.98559 0.0
N562 N 0.4814 0.6663 0.96807 0.0
N563 N 0.28554 0.58878 0.92596 0.0
H564 H 0.37953 0.53575 0.05549 0.0
H565 H 0.3175 0.53919 1.02073 0.0
H566 H 0.25649 0.60642 0.89978 0.0
H567 H 0.27718 0.55158 0.93192 0.0
H568 H 0.49148 0.6964 0.94428 0.0
H569 H 0.51251 0.64592 0.98408 0.0
H570 H 0.43473 0.74932 0.9544 0.0
H571 H 0.37227 0.7529 0.92026 0.0
C572 C 0.09113 0.64874 0.71324 0.0
C573 C 0.14314 0.6453 0.73547 0.0
C574 C 0.15265 0.58293 0.64239 0.0
C575 C 0.10251 0.59236 0.61705 0.0
N576 N 0.02852 0.64337 0.61979 0.0
N577 N 0.21708 0.5939 0.73527 0.0
C578 C 0.07328 0.62835 0.64981 0.0
C579 C 0.17265 0.60827 0.70382 0.0
N580 N 0.05797 0.66809 0.75416 0.0
N581 N 0.18082 0.5502 0.60729 0.0
H582 H 0.2285 0.60598 0.78378 0.0
H583 H 0.23962 0.56568 0.71662 0.0
H584 H 0.16646 0.53154 0.56233 0.0
H585 H 0.21909 0.54429 0.61976 0.0
H586 H 0.01922 0.67011 0.74048 0.0
H587 H 0.06782 0.67462 0.80407 0.0
H588 H 0.00737 0.67228 0.64001 0.0
H589 H 0.01572 0.6309 0.57161 0.0
C590 C 0.141 0.32399 0.40593 0.0
C591 C 0.16124 0.34274 0.35327 0.0
C592 C 0.14673 0.42905 0.39985 0.0
C593 C 0.12649 0.4096 0.45204 0.0
N594 N 0.12454 0.34058 0.5171 0.0
N595 N 0.18897 0.41355 0.30307 0.0
C596 C 0.1308 0.35785 0.45954 0.0
C597 C 0.16657 0.39553 0.35167 0.0
N598 N 0.12881 0.27412 0.40369 0.0
N599 N 0.14556 0.47966 0.39588 0.0
H600 H 0.19869 0.39063 0.263 0.0
H601 H 0.19946 0.4511 0.30304 0.0
H602 H 0.13577 0.50513 0.43364 0.0
H603 H 0.15323 0.49643 0.35549 0.0
H604 H 0.10921 0.25942 0.4379 0.0
H605 H 0.13269 0.24843 0.36383 0.0
H606 H 0.13164 0.30362 0.52603 0.0
H607 H 0.11871 0.36397 0.55849 0.0
C608 C 0.98383 0.99971 0.96943 0.0
C609 C 0.02829 0.02745 0.96222 0.0
C610 C 0.05196 0.03492 0.08021 0.0
C611 C 0.01082 1.00219 0.08614 0.0
N612 N 0.94021 0.94906 0.03597 0.0
N613 N 0.10806 0.06659 1.00967 0.0
C614 C 0.97739 0.98348 0.03059 0.0
C615 C 0.06314 0.04409 1.01745 0.0
N616 N 0.94695 0.99025 0.91817 0.0
N617 N 0.07999 0.05771 0.13472 0.0
H618 H 0.11789 0.07354 0.96467 0.0
H619 H 0.13735 0.07482 0.04699 0.0
H620 H 0.07338 0.05116 0.18125 0.0
H621 H 0.1069 0.08615 0.13423 0.0
H622 H 0.91146 0.97482 0.92184 0.0
H623 H 0.95 1.00204 0.87295 0.0
H624 H 0.91857 0.92933 0.99634 0.0
H625 H 0.93322 0.93748 0.0801 0.0
C626 C 0.216 0.78194 0.36394 0.0
C627 C 0.24081 0.73723 0.37876 0.0
C628 C 0.24789 0.71358 0.26369 0.0
C629 C 0.21916 0.75592 0.24844 0.0
N630 N 0.16839 0.82591 0.28246 0.0
N631 N 0.27206 0.65588 0.34249 0.0
C632 C 0.20106 0.78889 0.29816 0.0
C633 C 0.25443 0.7017 0.32851 0.0
N634 N 0.20828 0.81855 0.41259 0.0
N635 N 0.27027 0.6856 0.21656 0.0
H636 H 0.27691 0.64556 0.38933 0.0
H637 H 0.27751 0.62645 0.30721 0.0
H638 H 0.26645 0.69316 0.16847 0.0
H639 H 0.29617 0.65769 0.22605 0.0
H640 H 0.19538 0.85416 0.4045 0.0
H641 H 0.21878 0.81493 0.46136 0.0
H642 H 0.14952 0.84755 0.31622 0.0
H643 H 0.15675 0.83227 0.23483 0.0
C644 C 0.46244 0.04445 0.52144 0.0
C645 C 0.49328 0.02419 0.57177 0.0
C646 C 0.54708 0.98552 0.49331 0.0
C647 C 0.51441 0.00311 0.44254 0.0
N648 N 0.43602 0.04106 0.40622 0.0
N649 N 0.55895 0.96797 0.60511 0.0
C650 C 0.47055 0.03017 0.45602 0.0
C651 C 0.53385 0.99244 0.5575 0.0
N652 N 0.42664 0.07875 0.5363 0.0
N653 N 0.59168 0.96383 0.48052 0.0
H654 H 0.5503 0.97218 0.6527 0.0
H655 H 0.58527 0.94024 0.59645 0.0
H656 H 0.6026 0.95783 0.43409 0.0
H657 H 0.61973 0.95539 0.51638 0.0
H658 H 0.40694 0.09915 0.50239 0.0
H659 H 0.41925 0.08981 0.58357 0.0
H660 H 0.40079 0.05606 0.41277 0.0
H661 H 0.44077 0.03118 0.35771 0.0
C662 C 0.20941 0.28383 0.79765 0.0
C663 C 0.23031 0.24398 0.83084 0.0
C664 C 0.27322 0.21387 0.73641 0.0
C665 C 0.2564 0.25652 0.70589 0.0
N666 N 0.21376 0.33568 0.71039 0.0
N667 N 0.28684 0.17441 0.83573 0.0
C668 C 0.22574 0.29242 0.73724 0.0
C669 C 0.26346 0.20981 0.80119 0.0
N670 N 0.17299 0.31277 0.82326 0.0
N671 N 0.2973 0.1765 0.70268 0.0
H672 H 0.28001 0.16979 0.88278 0.0
H673 H 0.31575 0.15211 0.81979 0.0
H674 H 0.30507 0.17819 0.65528 0.0
H675 H 0.30582 0.14204 0.71944 0.0
H676 H 0.15215 0.33873 0.79837 0.0
H677 H 0.16054 0.30802 0.86767 0.0
H678 H 0.19646 0.3659 0.7341 0.0
H679 H 0.22459 0.34318 0.66607 0.0
C680 C 0.75389 0.2831 0.82412 0.0
C681 C 0.77122 0.23457 0.83557 0.0
C682 C 0.76393 0.20891 0.71864 0.0
C683 C 0.75166 0.25893 0.70724 0.0
N684 N 0.74205 0.34565 0.74879 0.0
N685 N 0.79935 0.15307 0.79485 0.0
C686 C 0.7484 0.2966 0.75993 0.0
C687 C 0.77803 0.1979 0.7831 0.0
N688 N 0.74163 0.3159 0.87452 0.0
N689 N 0.76047 0.17159 0.668 0.0
H690 H 0.80931 0.1433 0.8414 0.0
H691 H 0.81075 0.12718 0.75876 0.0
H692 H 0.74999 0.1781 0.62016 0.0
H693 H 0.76368 0.13357 0.67376 0.0
H694 H 0.72355 0.34966 0.86851 0.0
H695 H 0.74562 0.30749 0.92226 0.0
H696 H 0.74487 0.37557 0.78543 0.0
H697 H 0.73813 0.35709 0.70253 0.0
C698 C 0.76959 0.70048 0.29111 0.0
C699 C 0.73695 0.73423 0.32248 0.0
C700 C 0.73216 0.78509 0.23134 0.0
C701 C 0.76172 0.74938 0.19787 0.0
N702 N 0.80259 0.66933 0.1911 0.0
N703 N 0.68013 0.8037 0.31836 0.0
C704 C 0.77876 0.70594 0.22645 0.0
C705 C 0.71623 0.77516 0.29138 0.0
N706 N 0.79306 0.66416 0.32392 0.0
N707 N 0.72074 0.82939 0.20678 0.0
H708 H 0.66761 0.79777 0.36235 0.0
H709 H 0.65945 0.83045 0.29477 0.0
H710 H 0.73136 0.83796 0.1628 0.0
H711 H 0.70438 0.85938 0.23227 0.0
H712 H 0.8214 0.6418 0.3066 0.0
H713 H 0.78692 0.6588 0.37099 0.0
H714 H 0.81133 0.63442 0.20638 0.0
H715 H 0.81021 0.67226 0.14391 0.0
C716 C 0.53976 0.5295 0.58737 0.0
C717 C 0.51201 0.48522 0.59434 0.0
C718 C 0.51141 0.4578 0.47829 0.0
C719 C 0.53439 0.50446 0.47012 0.0
N720 N 0.56362 0.58809 0.51516 0.0
N721 N 0.46478 0.41053 0.54538 0.0
C722 C 0.54689 0.54122 0.52428 0.0
C723 C 0.49606 0.4502 0.53948 0.0
N724 N 0.56024 0.55981 0.64121 0.0
N725 N 0.50572 0.4201 0.42808 0.0
H726 H 0.45303 0.40343 0.58937 0.0
H727 H 0.44714 0.38704 0.50599 0.0
H728 H 0.51689 0.42406 0.38277 0.0
H729 H 0.49417 0.38355 0.43287 0.0
H730 H 0.58541 0.58961 0.63979 0.0
H731 H 0.55553 0.55261 0.68811 0.0
H732 H 0.56834 0.61812 0.55165 0.0
H733 H 0.56872 0.59838 0.46974 0.0
C734 C 0.01577 0.57265 1.01256 0.0
C735 C 0.98753 0.53458 0.97032 0.0
C736 C 0.94088 0.51654 0.05979 0.0
C737 C 0.97828 0.54421 0.10409 0.0
N738 N 0.05064 0.60148 0.12244 0.0
N739 N 0.90118 0.50432 0.94908 0.0
C740 C 0.01558 0.57319 0.08046 0.0
C741 C 0.94314 0.51619 0.9923 0.0
N742 N 0.03374 0.61361 0.98839 0.0
N743 N 0.90419 0.48924 0.08186 0.0
H744 H 0.90045 0.51006 0.90047 0.0
H745 H 0.86607 0.49518 0.96265 0.0
H746 H 0.90087 0.48882 0.13094 0.0
H747 H 0.87943 0.46424 0.05143 0.0
H748 H 0.0513 0.6445 1.01752 0.0
H749 H 0.02274 0.62018 0.94063 0.0
H750 H 0.08135 0.61939 0.10711 0.0
H751 H 0.05074 0.60428 0.17254 0.0
loop_
_geom_bond_atom_site_label_1
_geom_bond_atom_site_label_2
_geom_bond_distance
_geom_bond_site_symmetry_2
_ccdc_geom_bond_type
Gd0 C3 2.818 1_655 S
Gd0 O20 2.377 1_665 S
Gd0 O22 2.448 1_655 S
Gd0 O23 2.506 . S
Gd0 O24 2.435 1_655 S
Gd0 O25 2.717 1_655 S
Gd0 O27 2.395 . S
Gd0 O31 2.327 1_565 S
Gd1 C12 2.818 1_455 S
Gd1 O21 2.395 . S
Gd1 O25 2.327 1_545 S
Gd1 O26 2.377 1_445 S
Gd1 O28 2.448 1_455 S
Gd1 O29 2.506 . S
Gd1 O30 2.435 1_455 S
Gd1 O31 2.717 1_455 S
C2 O20 1.240 . S
C2 O21 1.240 . S
C3 Gd0 2.818 1_455 S
C3 C4 1.510 . S
C3 O22 1.249 . S
C3 O23 1.252 1_455 S
C4 C3 1.510 . S
C4 C5 1.404 . S
C4 C6 1.352 . S
C5 C4 1.404 . S
C5 C9 1.389 . S
C5 H32 0.930 . S
C6 C4 1.352 . S
C6 C8 1.374 . S
C6 H33 0.931 1_465 S
C7 C8 1.359 . S
C7 C9 1.364 . S
C8 C6 1.374 . S
C8 C7 1.359 . S
C8 H34 0.934 1_565 S
C9 C5 1.389 . S
C9 C7 1.364 . S
C9 H35 0.931 . S
C10 O24 1.256 . S
C10 O25 1.257 . S
C11 O26 1.240 . S
C11 O27 1.240 . S
C12 Gd1 2.818 1_655 S
C12 C13 1.510 . S
C12 O28 1.249 . S
C12 O29 1.252 1_655 S
C13 C12 1.510 . S
C13 C14 1.404 . S
C13 C15 1.352 . S
C14 C13 1.404 . S
C14 C18 1.389 . S
C14 H36 0.930 . S
C15 C13 1.352 . S
C15 C17 1.374 . S
C15 H37 0.931 1_645 S
C16 C17 1.359 . S
C16 C18 1.364 . S
C17 C15 1.374 . S
C17 C16 1.359 . S
C17 H38 0.932 1_545 S
C18 C14 1.389 . S
C18 C16 1.364 . S
C18 H39 0.931 . S
C19 O30 1.256 . S
C19 O31 1.257 . S
O20 Gd0 2.377 1_445 S
O20 C2 1.240 . S
O21 Gd1 2.395 . S
O21 C2 1.240 . S
O22 Gd0 2.448 1_455 S
O22 C3 1.249 . S
O23 Gd0 2.506 . S
O23 C3 1.252 1_655 S
O24 Gd0 2.435 1_455 S
O24 C10 1.256 . S
O25 Gd0 2.717 1_455 S
O25 Gd1 2.327 1_565 S
O25 C10 1.257 . S
O26 Gd1 2.377 1_665 S
O26 C11 1.240 . S
O27 Gd0 2.395 . S
O27 C11 1.240 . S
O28 Gd1 2.448 1_655 S
O28 C12 1.249 . S
O29 Gd1 2.506 . S
O29 C12 1.252 1_455 S
O30 Gd1 2.435 1_655 S
O30 C19 1.256 . S
O31 Gd0 2.327 1_545 S
O31 Gd1 2.717 1_655 S
O31 C19 1.257 . S
H32 C5 0.930 . S
H33 C6 0.931 1_645 S
H34 C8 0.934 1_545 S
H35 C9 0.931 . S
H36 C14 0.930 . S
H37 C15 0.931 1_465 S
H38 C17 0.932 1_565 S
H39 C18 0.931 . S
Gd40 C43 2.818 . S
Gd40 O60 2.377 . S
Gd40 O62 2.448 . S
Gd40 O63 2.506 . S
Gd40 O64 2.435 . S
Gd40 O65 2.717 . S
Gd40 O67 2.395 . S
Gd40 O71 2.327 . S
Gd41 C52 2.818 . S
Gd41 O61 2.395 . S
Gd41 O65 2.327 . S
Gd41 O66 2.377 . S
Gd41 O68 2.448 . S
Gd41 O69 2.506 . S
Gd41 O70 2.435 . S
Gd41 O71 2.717 . S
C42 O60 1.240 . S
C42 O61 1.240 . S
C43 Gd40 2.818 . S
C43 C44 1.510 . S
C43 O62 1.249 . S
C43 O63 1.252 . S
C44 C43 1.510 . S
C44 C45 1.404 . S
C44 C46 1.352 . S
C45 C44 1.404 . S
C45 C49 1.389 . S
C45 H72 0.930 . S
C46 C44 1.352 . S
C46 C48 1.374 . S
C46 H73 0.931 . S
C47 C48 1.359 . S
C47 C49 1.364 . S
C48 C46 1.374 . S
C48 C47 1.359 . S
C48 H74 0.931 . S
C49 C45 1.389 . S
C49 C47 1.364 . S
C49 H75 0.931 . S
C50 O64 1.256 . S
C50 O65 1.257 . S
C51 O66 1.240 . S
C51 O67 1.240 . S
C52 Gd41 2.818 . S
C52 C53 1.510 1_556 S
C52 O68 1.249 . S
C52 O69 1.252 . S
C53 C52 1.510 1_554 S
C53 C54 1.404 . S
C53 C55 1.352 . S
C54 C53 1.404 . S
C54 C58 1.389 . S
C54 H76 0.930 1_554 S
C55 C53 1.352 . S
C55 C57 1.374 . S
C55 H77 0.931 . S
C56 C57 1.359 . S
C56 C58 1.364 . S
C57 C55 1.374 . S
C57 C56 1.359 . S
C57 H78 0.931 . S
C58 C54 1.389 . S
C58 C56 1.364 . S
C58 H79 0.931 . S
C59 O70 1.256 . S
C59 O71 1.257 . S
O60 Gd40 2.377 . S
O60 C42 1.240 . S
O61 Gd41 2.395 . S
O61 C42 1.240 . S
O62 Gd40 2.448 . S
O62 C43 1.249 . S
O63 Gd40 2.506 . S
O63 C43 1.252 . S
O64 Gd40 2.435 . S
O64 C50 1.256 . S
O65 Gd40 2.717 . S
O65 Gd41 2.327 . S
O65 C50 1.257 . S
O66 Gd41 2.377 . S
O66 C51 1.240 . S
O67 Gd40 2.395 . S
O67 C51 1.240 . S
O68 Gd41 2.448 . S
O68 C52 1.249 . S
O69 Gd41 2.506 . S
O69 C52 1.252 . S
O70 Gd41 2.435 . S
O70 C59 1.256 . S
O71 Gd40 2.327 . S
O71 Gd41 2.717 . S
O71 C59 1.257 . S
H72 C45 0.930 . S
H73 C46 0.931 . S
H74 C48 0.931 . S
H75 C49 0.931 . S
H76 C54 0.930 1_556 S
H77 C55 0.931 . S
H78 C57 0.931 . S
H79 C58 0.931 . S
Gd80 C83 2.818 . S
Gd80 O100 2.377 1_565 S
Gd80 O102 2.448 . S
Gd80 O103 2.506 1_565 S
Gd80 O104 2.435 . S
Gd80 O105 2.717 1_554 S
Gd80 O107 2.395 1_554 S
Gd80 O111 2.327 1_565 S
Gd81 C92 2.818 . S
Gd81 O101 2.395 1_556 S
Gd81 O105 2.327 1_545 S
Gd81 O106 2.377 1_545 S
Gd81 O108 2.448 . S
Gd81 O109 2.506 1_545 S
Gd81 O110 2.435 . S
Gd81 O111 2.717 1_556 S
C82 O100 1.240 . S
C82 O101 1.240 . S
C83 Gd80 2.818 . S
C83 C84 1.510 . S
C83 O102 1.249 . S
C83 O103 1.252 1_565 S
C84 C83 1.510 . S
C84 C85 1.404 . S
C84 C86 1.352 1_565 S
C85 C84 1.404 . S
C85 C89 1.389 . S
C85 H112 0.930 . S
C86 C84 1.352 1_545 S
C86 C88 1.374 . S
C86 H113 0.931 . S
C87 C88 1.359 1_565 S
C87 C89 1.364 . S
C88 C86 1.374 . S
C88 C87 1.359 1_545 S
C88 H114 0.931 . S
C89 C85 1.389 . S
C89 C87 1.364 . S
C89 H115 0.931 . S
C90 O104 1.256 1_556 S
C90 O105 1.257 . S
C91 O106 1.240 . S
C91 O107 1.240 . S
C92 Gd81 2.818 . S
C92 C93 1.510 . S
C92 O108 1.249 . S
C92 O109 1.252 1_545 S
C93 C92 1.510 . S
C93 C94 1.404 . S
C93 C95 1.352 1_545 S
C94 C93 1.404 . S
C94 C98 1.389 . S
C94 H116 0.930 . S
C95 C93 1.352 1_565 S
C95 C97 1.374 . S
C95 H117 0.931 . S
C96 C97 1.359 1_545 S
C96 C98 1.364 . S
C97 C95 1.374 . S
C97 C96 1.359 1_565 S
C97 H118 0.931 . S
C98 C94 1.389 . S
C98 C96 1.364 . S
C98 H119 0.931 . S
C99 O110 1.256 1_554 S
C99 O111 1.257 . S
O100 Gd80 2.377 1_545 S
O100 C82 1.240 . S
O101 Gd81 2.395 1_554 S
O101 C82 1.240 . S
O102 Gd80 2.448 . S
O102 C83 1.249 . S
O103 Gd80 2.506 1_545 S
O103 C83 1.252 1_545 S
O104 Gd80 2.435 . S
O104 C90 1.256 1_554 S
O105 Gd80 2.717 1_556 S
O105 Gd81 2.327 1_565 S
O105 C90 1.257 . S
O106 Gd81 2.377 1_565 S
O106 C91 1.240 . S
O107 Gd80 2.395 1_556 S
O107 C91 1.240 . S
O108 Gd81 2.448 . S
O108 C92 1.249 . S
O109 Gd81 2.506 1_565 S
O109 C92 1.252 1_565 S
O110 Gd81 2.435 . S
O110 C99 1.256 1_556 S
O111 Gd80 2.327 1_545 S
O111 Gd81 2.717 1_554 S
O111 C99 1.257 . S
H112 C85 0.930 . S
H113 C86 0.931 . S
H114 C88 0.931 . S
H115 C89 0.931 . S
H116 C94 0.930 . S
H117 C95 0.931 . S
H118 C97 0.931 . S
H119 C98 0.931 . S
Gd120 C123 2.818 . S
Gd120 O140 2.377 . S
Gd120 O142 2.448 . S
Gd120 O143 2.506 . S
Gd120 O144 2.435 . S
Gd120 O145 2.717 . S
Gd120 O147 2.395 . S
Gd120 O151 2.327 . S
Gd121 C132 2.818 . S
Gd121 O141 2.395 . S
Gd121 O145 2.327 . S
Gd121 O146 2.377 . S
Gd121 O148 2.448 . S
Gd121 O149 2.506 . S
Gd121 O150 2.435 . S
Gd121 O151 2.717 . S
C122 O140 1.240 . S
C122 O141 1.240 . S
C123 Gd120 2.818 . S
C123 C124 1.510 . S
C123 O142 1.249 . S
C123 O143 1.252 . S
C124 C123 1.510 . S
C124 C125 1.404 . S
C124 C126 1.352 . S
C125 C124 1.404 . S
C125 C129 1.389 . S
C125 H152 0.930 . S
C126 C124 1.352 . S
C126 C128 1.374 . S
C126 H153 0.931 . S
C127 C128 1.359 . S
C127 C129 1.364 . S
C128 C126 1.374 . S
C128 C127 1.359 . S
C128 H154 0.931 . S
C129 C125 1.389 . S
C129 C127 1.364 . S
C129 H155 0.931 . S
C130 O144 1.256 . S
C130 O145 1.257 . S
C131 O146 1.240 . S
C131 O147 1.240 . S
C132 Gd121 2.818 . S
C132 C133 1.510 1_554 S
C132 O148 1.249 . S
C132 O149 1.252 . S
C133 C132 1.510 1_556 S
C133 C134 1.404 . S
C133 C135 1.352 . S
C134 C133 1.404 . S
C134 C138 1.389 . S
C134 H156 0.930 . S
C135 C133 1.352 . S
C135 C137 1.374 . S
C135 H157 0.931 . S
C136 C137 1.359 . S
C136 C138 1.364 . S
C137 C135 1.374 . S
C137 C136 1.359 . S
C137 H158 0.931 . S
C138 C134 1.389 . S
C138 C136 1.364 . S
C138 H159 0.931 . S
C139 O150 1.256 . S
C139 O151 1.257 . S
O140 Gd120 2.377 . S
O140 C122 1.240 . S
O141 Gd121 2.395 . S
O141 C122 1.240 . S
O142 Gd120 2.448 . S
O142 C123 1.249 . S
O143 Gd120 2.506 . S
O143 C123 1.252 . S
O144 Gd120 2.435 . S
O144 C130 1.256 . S
O145 Gd120 2.717 . S
O145 Gd121 2.327 . S
O145 C130 1.257 . S
O146 Gd121 2.377 . S
O146 C131 1.240 . S
O147 Gd120 2.395 . S
O147 C131 1.240 . S
O148 Gd121 2.448 . S
O148 C132 1.249 . S
O149 Gd121 2.506 . S
O149 C132 1.252 . S
O150 Gd121 2.435 . S
O150 C139 1.256 . S
O151 Gd120 2.327 . S
O151 Gd121 2.717 . S
O151 C139 1.257 . S
H152 C125 0.930 . S
H153 C126 0.931 . S
H154 C128 0.931 . S
H155 C129 0.931 . S
H156 C134 0.930 . S
H157 C135 0.931 . S
H158 C137 0.931 . S
H159 C138 0.931 . S
Gd160 C163 2.818 . S
Gd160 O180 2.377 . S
Gd160 O182 2.448 . S
Gd160 O183 2.506 . S
Gd160 O184 2.435 . S
Gd160 O185 2.717 . S
Gd160 O187 2.395 . S
Gd160 O191 2.327 . S
Gd161 C172 2.818 . S
Gd161 O181 2.395 . S
Gd161 O185 2.327 . S
Gd161 O186 2.377 . S
Gd161 O188 2.448 . S
Gd161 O189 2.506 . S
Gd161 O190 2.435 . S
Gd161 O191 2.717 . S
C162 O180 1.240 . S
C162 O181 1.240 . S
C163 Gd160 2.818 . S
C163 C164 1.510 1_554 S
C163 O182 1.249 . S
C163 O183 1.252 . S
C164 C163 1.510 1_556 S
C164 C165 1.404 . S
C164 C166 1.352 . S
C165 C164 1.404 . S
C165 C169 1.389 . S
C165 H192 0.930 1_556 S
C166 C164 1.352 . S
C166 C168 1.374 . S
C166 H193 0.931 . S
C167 C168 1.359 . S
C167 C169 1.364 . S
C168 C166 1.374 . S
C168 C167 1.359 . S
C168 H194 0.931 . S
C169 C165 1.389 . S
C169 C167 1.364 . S
C169 H195 0.931 . S
C170 O184 1.256 . S
C170 O185 1.257 . S
C171 O186 1.240 . S
C171 O187 1.240 . S
C172 Gd161 2.818 . S
C172 C173 1.510 . S
C172 O188 1.249 . S
C172 O189 1.252 . S
C173 C172 1.510 . S
C173 C174 1.404 . S
C173 C175 1.352 . S
C174 C173 1.404 . S
C174 C178 1.389 . S
C174 H196 0.930 . S
C175 C173 1.352 . S
C175 C177 1.374 . S
C175 H197 0.931 . S
C176 C177 1.359 . S
C176 C178 1.364 . S
C177 C175 1.374 . S
C177 C176 1.359 . S
C177 H198 0.931 . S
C178 C174 1.389 . S
C178 C176 1.364 . S
C178 H199 0.931 . S
C179 O190 1.256 . S
C179 O191 1.257 . S
O180 Gd160 2.377 . S
O180 C162 1.240 . S
O181 Gd161 2.395 . S
O181 C162 1.240 . S
O182 Gd160 2.448 . S
O182 C163 1.249 . S
O183 Gd160 2.506 . S
O183 C163 1.252 . S
O184 Gd160 2.435 . S
O184 C170 1.256 . S
O185 Gd160 2.717 . S
O185 Gd161 2.327 . S
O185 C170 1.257 . S
O186 Gd161 2.377 . S
O186 C171 1.240 . S
O187 Gd160 2.395 . S
O187 C171 1.240 . S
O188 Gd161 2.448 . S
O188 C172 1.249 . S
O189 Gd161 2.506 . S
O189 C172 1.252 . S
O190 Gd161 2.435 . S
O190 C179 1.256 . S
O191 Gd160 2.327 . S
O191 Gd161 2.717 . S
O191 C179 1.257 . S
H192 C165 0.930 1_554 S
H193 C166 0.931 . S
H194 C168 0.931 . S
H195 C169 0.931 . S
H196 C174 0.930 . S
H197 C175 0.931 . S
H198 C177 0.931 . S
H199 C178 0.931 . S
Gd200 C203 2.818 . S
Gd200 O220 2.377 . S
Gd200 O222 2.448 . S
Gd200 O223 2.506 . S
Gd200 O224 2.435 . S
Gd200 O225 2.717 . S
Gd200 O227 2.395 . S
Gd200 O231 2.327 . S
Gd201 C212 2.818 . S
Gd201 O221 2.395 . S
Gd201 O225 2.327 . S
Gd201 O226 2.377 . S
Gd201 O228 2.448 . S
Gd201 O229 2.506 . S
Gd201 O230 2.435 . S
Gd201 O231 2.717 . S
C202 O220 1.240 . S
C202 O221 1.240 . S
C203 Gd200 2.818 . S
C203 C204 1.510 1_556 S
C203 O222 1.249 . S
C203 O223 1.252 . S
C204 C203 1.510 1_554 S
C204 C205 1.404 . S
C204 C206 1.352 . S
C205 C204 1.404 . S
C205 C209 1.389 . S
C205 H232 0.930 . S
C206 C204 1.352 . S
C206 C208 1.374 . S
C206 H233 0.931 . S
C207 C208 1.359 . S
C207 C209 1.364 . S
C208 C206 1.374 . S
C208 C207 1.359 . S
C208 H234 0.931 . S
C209 C205 1.389 . S
C209 C207 1.364 . S
C209 H235 0.931 . S
C210 O224 1.256 . S
C210 O225 1.257 . S
C211 O226 1.240 . S
C211 O227 1.240 . S
C212 Gd201 2.818 . S
C212 C213 1.510 . S
C212 O228 1.249 . S
C212 O229 1.252 . S
C213 C212 1.510 . S
C213 C214 1.404 . S
C213 C215 1.352 . S
C214 C213 1.404 . S
C214 C218 1.389 . S
C214 H236 0.930 . S
C215 C213 1.352 . S
C215 C217 1.374 . S
C215 H237 0.931 . S
C216 C217 1.359 . S
C216 C218 1.364 . S
C217 C215 1.374 . S
C217 C216 1.359 . S
C217 H238 0.931 . S
C218 C214 1.389 . S
C218 C216 1.364 . S
C218 H239 0.931 . S
C219 O230 1.256 . S
C219 O231 1.257 . S
O220 Gd200 2.377 . S
O220 C202 1.240 . S
O221 Gd201 2.395 . S
O221 C202 1.240 . S
O222 Gd200 2.448 . S
O222 C203 1.249 . S
O223 Gd200 2.506 . S
O223 C203 1.252 . S
O224 Gd200 2.435 . S
O224 C210 1.256 . S
O225 Gd200 2.717 . S
O225 Gd201 2.327 . S
O225 C210 1.257 . S
O226 Gd201 2.377 . S
O226 C211 1.240 . S
O227 Gd200 2.395 . S
O227 C211 1.240 . S
O228 Gd201 2.448 . S
O228 C212 1.249 . S
O229 Gd201 2.506 . S
O229 C212 1.252 . S
O230 Gd201 2.435 . S
O230 C219 1.256 . S
O231 Gd200 2.327 . S
O231 Gd201 2.717 . S
O231 C219 1.257 . S
H232 C205 0.930 . S
H233 C206 0.931 . S
H234 C208 0.931 . S
H235 C209 0.931 . S
H236 C214 0.930 . S
H237 C215 0.931 . S
H238 C217 0.931 . S
H239 C218 0.931 . S
Gd240 C243 2.818 . S
Gd240 O260 2.377 . S
Gd240 O262 2.448 . S
Gd240 O263 2.506 . S
Gd240 O264 2.435 . S
Gd240 O265 2.717 1_556 S
Gd240 O267 2.395 . S
Gd240 O271 2.327 . S
Gd241 C252 2.818 . S
Gd241 O261 2.395 . S
Gd241 O265 2.327 . S
Gd241 O266 2.377 . S
Gd241 O268 2.448 . S
Gd241 O269 2.506 . S
Gd241 O270 2.435 . S
Gd241 O271 2.717 1_554 S
C242 O260 1.240 . S
C242 O261 1.240 1_556 S
C243 Gd240 2.818 . S
C243 C244 1.510 . S
C243 O262 1.249 . S
C243 O263 1.252 . S
C244 C243 1.510 . S
C244 C245 1.404 . S
C244 C246 1.352 . S
C245 C244 1.404 . S
C245 C249 1.389 . S
C245 H272 0.930 . S
C246 C244 1.352 . S
C246 C248 1.374 . S
C246 H273 0.931 . S
C247 C248 1.359 . S
C247 C249 1.364 . S
C248 C246 1.374 . S
C248 C247 1.359 . S
C248 H274 0.931 . S
C249 C245 1.389 . S
C249 C247 1.364 . S
C249 H275 0.931 . S
C250 O264 1.256 1_554 S
C250 O265 1.257 . S
C251 O266 1.240 . S
C251 O267 1.240 1_554 S
C252 Gd241 2.818 . S
C252 C253 1.510 . S
C252 O268 1.249 . S
C252 O269 1.252 . S
C253 C252 1.510 . S
C253 C254 1.404 . S
C253 C255 1.352 . S
C254 C253 1.404 . S
C254 C258 1.389 . S
C254 H276 0.930 . S
C255 C253 1.352 . S
C255 C257 1.374 . S
C255 H277 0.931 . S
C256 C257 1.359 . S
C256 C258 1.364 . S
C257 C255 1.374 . S
C257 C256 1.359 . S
C257 H278 0.931 . S
C258 C254 1.389 . S
C258 C256 1.364 . S
C258 H279 0.931 . S
C259 O270 1.256 1_556 S
C259 O271 1.257 . S
O260 Gd240 2.377 . S
O260 C242 1.240 . S
O261 Gd241 2.395 . S
O261 C242 1.240 1_554 S
O262 Gd240 2.448 . S
O262 C243 1.249 . S
O263 Gd240 2.506 . S
O263 C243 1.252 . S
O264 Gd240 2.435 . S
O264 C250 1.256 1_556 S
O265 Gd240 2.717 1_554 S
O265 Gd241 2.327 . S
O265 C250 1.257 . S
O266 Gd241 2.377 . S
O266 C251 1.240 . S
O267 Gd240 2.395 . S
O267 C251 1.240 1_556 S
O268 Gd241 2.448 . S
O268 C252 1.249 . S
O269 Gd241 2.506 . S
O269 C252 1.252 . S
O270 Gd241 2.435 . S
O270 C259 1.256 1_554 S
O271 Gd240 2.327 . S
O271 Gd241 2.717 1_556 S
O271 C259 1.257 . S
H272 C245 0.930 . S
H273 C246 0.931 . S
H274 C248 0.931 . S
H275 C249 0.931 . S
H276 C254 0.930 . S
H277 C255 0.931 . S
H278 C257 0.931 . S
H279 C258 0.931 . S
Gd280 C283 2.818 1_455 S
Gd280 O300 2.377 1_455 S
Gd280 O302 2.448 1_455 S
Gd280 O303 2.506 . S
Gd280 O304 2.435 1_455 S
Gd280 O305 2.717 1_455 S
Gd280 O307 2.395 . S
Gd280 O311 2.327 . S
Gd281 C292 2.818 1_655 S
Gd281 O301 2.395 . S
Gd281 O305 2.327 . S
Gd281 O306 2.377 1_655 S
Gd281 O308 2.448 1_655 S
Gd281 O309 2.506 . S
Gd281 O310 2.435 1_655 S
Gd281 O311 2.717 1_655 S
C282 O300 1.240 . S
C282 O301 1.240 . S
C283 Gd280 2.818 1_655 S
C283 C284 1.510 . S
C283 O302 1.249 . S
C283 O303 1.252 1_655 S
C284 C283 1.510 . S
C284 C285 1.404 . S
C284 C286 1.356 . S
C285 C284 1.404 . S
C285 C289 1.389 . S
C285 H312 0.930 . S
C286 C284 1.356 . S
C286 C288 1.381 . S
C286 H313 0.919 1_655 S
C287 C288 1.359 . S
C287 C289 1.364 . S
C288 C286 1.381 . S
C288 C287 1.359 . S
C288 H314 0.929 1_655 S
C289 C285 1.389 . S
C289 C287 1.364 . S
C289 H315 0.931 . S
C290 O304 1.256 . S
C290 O305 1.257 . S
C291 O306 1.240 . S
C291 O307 1.240 . S
C292 Gd281 2.818 1_455 S
C292 C293 1.510 . S
C292 O308 1.249 . S
C292 O309 1.252 1_455 S
C293 C292 1.510 . S
C293 C294 1.404 . S
C293 C295 1.352 . S
C294 C293 1.404 . S
C294 C298 1.389 . S
C294 H316 0.930 . S
C295 C293 1.352 . S
C295 C297 1.374 . S
C295 H317 0.931 1_455 S
C296 C297 1.359 . S
C296 C298 1.364 . S
C297 C295 1.374 . S
C297 C296 1.359 . S
C297 H318 0.930 1_455 S
C298 C294 1.389 . S
C298 C296 1.364 . S
C298 H319 0.931 . S
C299 O310 1.256 . S
C299 O311 1.257 . S
O300 Gd280 2.377 1_655 S
O300 C282 1.240 . S
O301 Gd281 2.395 . S
O301 C282 1.240 . S
O302 Gd280 2.448 1_655 S
O302 C283 1.249 . S
O303 Gd280 2.506 . S
O303 C283 1.252 1_455 S
O304 Gd280 2.435 1_655 S
O304 C290 1.256 . S
O305 Gd280 2.717 1_655 S
O305 Gd281 2.327 . S
O305 C290 1.257 . S
O306 Gd281 2.377 1_455 S
O306 C291 1.240 . S
O307 Gd280 2.395 . S
O307 C291 1.240 . S
O308 Gd281 2.448 1_455 S
O308 C292 1.249 . S
O309 Gd281 2.506 . S
O309 C292 1.252 1_655 S
O310 Gd281 2.435 1_455 S
O310 C299 1.256 . S
O311 Gd280 2.327 . S
O311 Gd281 2.717 1_455 S
O311 C299 1.257 . S
H312 C285 0.930 . S
H313 C286 0.919 1_455 S
H314 C288 0.929 1_455 S
H315 C289 0.931 . S
H316 C294 0.930 . S
H317 C295 0.931 1_655 S
H318 C297 0.930 1_655 S
H319 C298 0.931 . S
C320 C321 1.363 . S
C320 C326 1.379 . S
C320 N328 1.356 . S
C321 C320 1.363 . S
C321 C327 1.363 . S
C322 C323 1.363 . S
C322 C327 1.379 . S
C322 N329 1.356 . S
C323 C322 1.363 . S
C323 C326 1.363 . S
N324 C326 1.356 . S
N324 H336 0.984 . S
N324 H337 0.985 . S
N325 C327 1.356 . S
N325 H330 0.984 . S
N325 H331 0.985 . S
C326 C320 1.379 . S
C326 C323 1.363 . S
C326 N324 1.356 . S
C327 C321 1.363 . S
C327 C322 1.379 . S
C327 N325 1.356 . S
N328 C320 1.356 . S
N328 H334 0.984 . S
N328 H335 0.984 . S
N329 C322 1.356 . S
N329 H332 0.984 . S
N329 H333 0.985 . S
H330 N325 0.984 . S
H331 N325 0.985 . S
H332 N329 0.984 . S
H333 N329 0.985 . S
H334 N328 0.984 . S
H335 N328 0.984 . S
H336 N324 0.984 . S
H337 N324 0.985 . S
C338 C339 1.363 . S
C338 C344 1.379 . S
C338 N346 1.356 . S
C339 C338 1.363 . S
C339 C345 1.363 . S
C340 C341 1.363 . S
C340 C345 1.379 . S
C340 N347 1.356 . S
C341 C340 1.363 . S
C341 C344 1.363 . S
N342 C344 1.356 . S
N342 H354 0.984 . S
N342 H355 0.985 . S
N343 C345 1.356 . S
N343 H348 0.984 . S
N343 H349 0.985 . S
C344 C338 1.379 . S
C344 C341 1.363 . S
C344 N342 1.356 . S
C345 C339 1.363 . S
C345 C340 1.379 . S
C345 N343 1.356 . S
N346 C338 1.356 . S
N346 H352 0.984 . S
N346 H353 0.984 . S
N347 C340 1.356 . S
N347 H350 0.984 . S
N347 H351 0.985 . S
H348 N343 0.984 . S
H349 N343 0.985 . S
H350 N347 0.984 . S
H351 N347 0.985 . S
H352 N346 0.984 . S
H353 N346 0.984 . S
H354 N342 0.984 . S
H355 N342 0.985 . S
C356 C357 1.363 . S
C356 C362 1.379 . S
C356 N364 1.356 . S
C357 C356 1.363 . S
C357 C363 1.363 . S
C358 C359 1.363 . S
C358 C363 1.379 . S
C358 N365 1.356 . S
C359 C358 1.363 . S
C359 C362 1.363 . S
N360 C362 1.356 . S
N360 H372 0.984 1_556 S
N360 H373 0.985 1_556 S
N361 C363 1.356 . S
N361 H366 0.984 . S
N361 H367 0.985 . S
C362 C356 1.379 . S
C362 C359 1.363 . S
C362 N360 1.356 . S
C363 C357 1.363 . S
C363 C358 1.379 . S
C363 N361 1.356 . S
N364 C356 1.356 . S
N364 H370 0.984 . S
N364 H371 0.984 . S
N365 C358 1.356 . S
N365 H368 0.984 . S
N365 H369 0.985 . S
H366 N361 0.984 . S
H367 N361 0.985 . S
H368 N365 0.984 . S
H369 N365 0.985 . S
H370 N364 0.984 . S
H371 N364 0.984 . S
H372 N360 0.984 1_554 S
H373 N360 0.985 1_554 S
C374 C375 1.363 . S
C374 C380 1.379 . S
C374 N382 1.356 . S
C375 C374 1.363 . S
C375 C381 1.363 . S
C376 C377 1.363 . S
C376 C381 1.379 . S
C376 N383 1.356 . S
C377 C376 1.363 . S
C377 C380 1.363 . S
N378 C380 1.356 . S
N378 H390 0.984 . S
N378 H391 0.985 . S
N379 C381 1.356 . S
N379 H384 0.984 . S
N379 H385 0.985 . S
C380 C374 1.379 . S
C380 C377 1.363 . S
C380 N378 1.356 . S
C381 C375 1.363 . S
C381 C376 1.379 . S
C381 N379 1.356 . S
N382 C374 1.356 . S
N382 H388 0.984 . S
N382 H389 0.984 . S
N383 C376 1.356 . S
N383 H386 0.984 . S
N383 H387 0.985 . S
H384 N379 0.984 . S
H385 N379 0.985 . S
H386 N383 0.984 . S
H387 N383 0.985 . S
H388 N382 0.984 . S
H389 N382 0.984 . S
H390 N378 0.984 . S
H391 N378 0.985 . S
C392 C393 1.363 . S
C392 C398 1.379 . S
C392 N400 1.356 . S
C393 C392 1.363 . S
C393 C399 1.363 . S
C394 C395 1.363 . S
C394 C399 1.379 . S
C394 N401 1.356 . S
C395 C394 1.363 . S
C395 C398 1.363 . S
N396 C398 1.356 . S
N396 H408 0.984 . S
N396 H409 0.985 . S
N397 C399 1.356 . S
N397 H402 0.984 . S
N397 H403 0.985 . S
C398 C392 1.379 . S
C398 C395 1.363 . S
C398 N396 1.356 . S
C399 C393 1.363 . S
C399 C394 1.379 . S
C399 N397 1.356 . S
N400 C392 1.356 . S
N400 H406 0.984 . S
N400 H407 0.984 . S
N401 C394 1.356 . S
N401 H404 0.984 . S
N401 H405 0.985 . S
H402 N397 0.984 . S
H403 N397 0.985 . S
H404 N401 0.984 . S
H405 N401 0.985 . S
H406 N400 0.984 . S
H407 N400 0.984 . S
H408 N396 0.984 . S
H409 N396 0.985 . S
C410 C411 1.363 . S
C410 C416 1.379 . S
C410 N418 1.356 . S
C411 C410 1.363 . S
C411 C417 1.363 . S
C412 C413 1.363 . S
C412 C417 1.379 . S
C412 N419 1.356 . S
C413 C412 1.363 . S
C413 C416 1.363 . S
N414 C416 1.356 . S
N414 H426 0.984 . S
N414 H427 0.985 . S
N415 C417 1.356 . S
N415 H420 0.984 . S
N415 H421 0.985 . S
C416 C410 1.379 . S
C416 C413 1.363 . S
C416 N414 1.356 . S
C417 C411 1.363 . S
C417 C412 1.379 . S
C417 N415 1.356 . S
N418 C410 1.356 . S
N418 H424 0.984 . S
N418 H425 0.984 . S
N419 C412 1.356 . S
N419 H422 0.984 . S
N419 H423 0.985 . S
H420 N415 0.984 . S
H421 N415 0.985 . S
H422 N419 0.984 . S
H423 N419 0.985 . S
H424 N418 0.984 . S
H425 N418 0.984 . S
H426 N414 0.984 . S
H427 N414 0.985 . S
C428 C429 1.363 . S
C428 C434 1.379 . S
C428 N436 1.356 . S
C429 C428 1.363 . S
C429 C435 1.363 . S
C430 C431 1.363 . S
C430 C435 1.379 . S
C430 N437 1.356 . S
C431 C430 1.363 . S
C431 C434 1.363 . S
N432 C434 1.356 . S
N432 H444 0.984 . S
N432 H445 0.985 . S
N433 C435 1.356 . S
N433 H438 0.984 . S
N433 H439 0.985 . S
C434 C428 1.379 . S
C434 C431 1.363 . S
C434 N432 1.356 . S
C435 C429 1.363 . S
C435 C430 1.379 . S
C435 N433 1.356 . S
N436 C428 1.356 . S
N436 H442 0.984 . S
N436 H443 0.984 . S
N437 C430 1.356 . S
N437 H440 0.984 . S
N437 H441 0.985 . S
H438 N433 0.984 . S
H439 N433 0.985 . S
H440 N437 0.984 . S
H441 N437 0.985 . S
H442 N436 0.984 . S
H443 N436 0.984 . S
H444 N432 0.984 . S
H445 N432 0.985 . S
C446 C447 1.363 . S
C446 C452 1.379 . S
C446 N454 1.356 . S
C447 C446 1.363 . S
C447 C453 1.363 . S
C448 C449 1.363 . S
C448 C453 1.379 . S
C448 N455 1.356 . S
C449 C448 1.363 . S
C449 C452 1.363 . S
N450 C452 1.356 . S
N450 H462 0.984 . S
N450 H463 0.985 . S
N451 C453 1.356 . S
N451 H456 0.984 . S
N451 H457 0.985 . S
C452 C446 1.379 . S
C452 C449 1.363 . S
C452 N450 1.356 . S
C453 C447 1.363 . S
C453 C448 1.379 . S
C453 N451 1.356 . S
N454 C446 1.356 . S
N454 H460 0.984 . S
N454 H461 0.984 . S
N455 C448 1.356 . S
N455 H458 0.984 . S
N455 H459 0.985 1_565 S
H456 N451 0.984 . S
H457 N451 0.985 . S
H458 N455 0.984 . S
H459 N455 0.985 1_545 S
H460 N454 0.984 . S
H461 N454 0.984 . S
H462 N450 0.984 . S
H463 N450 0.985 . S
C464 C465 1.363 . S
C464 C470 1.379 . S
C464 N472 1.356 . S
C465 C464 1.363 . S
C465 C471 1.363 . S
C466 C467 1.363 . S
C466 C471 1.379 . S
C466 N473 1.356 . S
C467 C466 1.363 . S
C467 C470 1.363 . S
N468 C470 1.356 . S
N468 H480 0.984 . S
N468 H481 0.985 . S
N469 C471 1.356 . S
N469 H474 0.984 . S
N469 H475 0.985 . S
C470 C464 1.379 . S
C470 C467 1.363 . S
C470 N468 1.356 . S
C471 C465 1.363 . S
C471 C466 1.379 . S
C471 N469 1.356 . S
N472 C464 1.356 . S
N472 H478 0.984 1_556 S
N472 H479 0.984 1_556 S
N473 C466 1.356 . S
N473 H476 0.984 . S
N473 H477 0.985 . S
H474 N469 0.984 . S
H475 N469 0.985 . S
H476 N473 0.984 . S
H477 N473 0.985 . S
H478 N472 0.984 1_554 S
H479 N472 0.984 1_554 S
H480 N468 0.984 . S
H481 N468 0.985 . S
C482 C483 1.363 . S
C482 C488 1.379 . S
C482 N490 1.356 . S
C483 C482 1.363 . S
C483 C489 1.363 . S
C484 C485 1.363 . S
C484 C489 1.379 . S
C484 N491 1.356 . S
C485 C484 1.363 . S
C485 C488 1.363 . S
N486 C488 1.356 . S
N486 H498 0.984 . S
N486 H499 0.984 1_554 S
N487 C489 1.356 . S
N487 H492 0.984 . S
N487 H493 0.985 . S
C488 C482 1.379 . S
C488 C485 1.363 . S
C488 N486 1.356 . S
C489 C483 1.363 . S
C489 C484 1.379 . S
C489 N487 1.356 . S
N490 C482 1.356 . S
N490 H496 0.984 . S
N490 H497 0.984 . S
N491 C484 1.356 . S
N491 H494 0.984 . S
N491 H495 0.985 . S
H492 N487 0.984 . S
H493 N487 0.985 . S
H494 N491 0.984 . S
H495 N491 0.985 . S
H496 N490 0.984 . S
H497 N490 0.984 . S
H498 N486 0.984 . S
H499 N486 0.984 1_556 S
C500 C501 1.363 . S
C500 C506 1.379 . S
C500 N508 1.356 . S
C501 C500 1.363 . S
C501 C507 1.363 . S
C502 C503 1.363 . S
C502 C507 1.379 . S
C502 N509 1.356 . S
C503 C502 1.363 . S
C503 C506 1.363 . S
N504 C506 1.356 . S
N504 H516 0.984 . S
N504 H517 0.985 . S
N505 C507 1.356 . S
N505 H510 0.984 . S
N505 H511 0.985 . S
C506 C500 1.379 . S
C506 C503 1.363 . S
C506 N504 1.356 . S
C507 C501 1.363 . S
C507 C502 1.379 . S
C507 N505 1.356 . S
N508 C500 1.356 . S
N508 H514 0.984 . S
N508 H515 0.984 . S
N509 C502 1.356 . S
N509 H512 0.984 . S
N509 H513 0.985 . S
H510 N505 0.984 . S
H511 N505 0.985 . S
H512 N509 0.984 . S
H513 N509 0.985 . S
H514 N508 0.984 . S
H515 N508 0.984 . S
H516 N504 0.984 . S
H517 N504 0.985 . S
C518 C519 1.363 . S
C518 C524 1.379 . S
C518 N526 1.356 . S
C519 C518 1.363 . S
C519 C525 1.363 . S
C520 C521 1.363 . S
C520 C525 1.379 . S
C520 N527 1.356 . S
C521 C520 1.363 . S
C521 C524 1.363 . S
N522 C524 1.356 . S
N522 H534 0.984 . S
N522 H535 0.985 . S
N523 C525 1.356 . S
N523 H528 0.984 . S
N523 H529 0.985 . S
C524 C518 1.379 . S
C524 C521 1.363 . S
C524 N522 1.356 . S
C525 C519 1.363 . S
C525 C520 1.379 . S
C525 N523 1.356 . S
N526 C518 1.356 . S
N526 H532 0.984 . S
N526 H533 0.984 . S
N527 C520 1.356 . S
N527 H530 0.984 . S
N527 H531 0.985 . S
H528 N523 0.984 . S
H529 N523 0.985 . S
H530 N527 0.984 . S
H531 N527 0.985 . S
H532 N526 0.984 . S
H533 N526 0.984 . S
H534 N522 0.984 . S
H535 N522 0.985 . S
C536 C537 1.363 . S
C536 C542 1.379 . S
C536 N544 1.356 . S
C537 C536 1.363 . S
C537 C543 1.363 . S
C538 C539 1.363 . S
C538 C543 1.379 . S
C538 N545 1.356 . S
C539 C538 1.363 . S
C539 C542 1.363 . S
N540 C542 1.356 . S
N540 H552 0.984 . S
N540 H553 0.985 . S
N541 C543 1.356 . S
N541 H546 0.984 . S
N541 H547 0.985 . S
C542 C536 1.379 . S
C542 C539 1.363 . S
C542 N540 1.356 . S
C543 C537 1.363 . S
C543 C538 1.379 . S
C543 N541 1.356 . S
N544 C536 1.356 . S
N544 H550 0.984 . S
N544 H551 0.984 . S
N545 C538 1.356 . S
N545 H548 0.984 . S
N545 H549 0.985 . S
H546 N541 0.984 . S
H547 N541 0.985 . S
H548 N545 0.984 . S
H549 N545 0.985 . S
H550 N544 0.984 . S
H551 N544 0.984 . S
H552 N540 0.984 . S
H553 N540 0.985 . S
C554 C555 1.363 . S
C554 C560 1.379 . S
C554 N562 1.356 . S
C555 C554 1.363 . S
C555 C561 1.363 . S
C556 C557 1.363 . S
C556 C561 1.379 . S
C556 N563 1.356 . S
C557 C556 1.363 . S
C557 C560 1.363 . S
N558 C560 1.356 . S
N558 H570 0.984 . S
N558 H571 0.985 . S
N559 C561 1.356 . S
N559 H564 0.984 . S
N559 H565 0.985 . S
C560 C554 1.379 . S
C560 C557 1.363 . S
C560 N558 1.356 . S
C561 C555 1.363 . S
C561 C556 1.379 . S
C561 N559 1.356 . S
N562 C554 1.356 . S
N562 H568 0.984 . S
N562 H569 0.984 . S
N563 C556 1.356 . S
N563 H566 0.984 . S
N563 H567 0.985 . S
H564 N559 0.984 . S
H565 N559 0.985 . S
H566 N563 0.984 . S
H567 N563 0.985 . S
H568 N562 0.984 . S
H569 N562 0.984 . S
H570 N558 0.984 . S
H571 N558 0.985 . S
C572 C573 1.363 . S
C572 C578 1.379 . S
C572 N580 1.356 . S
C573 C572 1.363 . S
C573 C579 1.363 . S
C574 C575 1.363 . S
C574 C579 1.379 . S
C574 N581 1.356 . S
C575 C574 1.363 . S
C575 C578 1.363 . S
N576 C578 1.356 . S
N576 H588 0.984 . S
N576 H589 0.985 . S
N577 C579 1.356 . S
N577 H582 0.984 . S
N577 H583 0.985 . S
C578 C572 1.379 . S
C578 C575 1.363 . S
C578 N576 1.356 . S
C579 C573 1.363 . S
C579 C574 1.379 . S
C579 N577 1.356 . S
N580 C572 1.356 . S
N580 H586 0.984 . S
N580 H587 0.984 . S
N581 C574 1.356 . S
N581 H584 0.984 . S
N581 H585 0.985 . S
H582 N577 0.984 . S
H583 N577 0.985 . S
H584 N581 0.984 . S
H585 N581 0.985 . S
H586 N580 0.984 . S
H587 N580 0.984 . S
H588 N576 0.984 . S
H589 N576 0.985 . S
C590 C591 1.363 . S
C590 C596 1.379 . S
C590 N598 1.356 . S
C591 C590 1.363 . S
C591 C597 1.363 . S
C592 C593 1.363 . S
C592 C597 1.379 . S
C592 N599 1.356 . S
C593 C592 1.363 . S
C593 C596 1.363 . S
N594 C596 1.356 . S
N594 H606 0.984 . S
N594 H607 0.985 . S
N595 C597 1.356 . S
N595 H600 0.984 . S
N595 H601 0.985 . S
C596 C590 1.379 . S
C596 C593 1.363 . S
C596 N594 1.356 . S
C597 C591 1.363 . S
C597 C592 1.379 . S
C597 N595 1.356 . S
N598 C590 1.356 . S
N598 H604 0.984 . S
N598 H605 0.984 . S
N599 C592 1.356 . S
N599 H602 0.984 . S
N599 H603 0.985 . S
H600 N595 0.984 . S
H601 N595 0.985 . S
H602 N599 0.984 . S
H603 N599 0.985 . S
H604 N598 0.984 . S
H605 N598 0.984 . S
H606 N594 0.984 . S
H607 N594 0.985 . S
C608 C609 1.363 1_565 S
C608 C614 1.379 . S
C608 N616 1.356 . S
C609 C608 1.363 1_545 S
C609 C615 1.363 1_656 S
C610 C611 1.363 1_545 S
C610 C615 1.379 . S
C610 N617 1.356 . S
C611 C610 1.363 1_565 S
C611 C614 1.363 1_454 S
N612 C614 1.358 1_455 S
N612 H624 0.987 1_455 S
N612 H625 0.980 1_556 S
N613 C615 1.362 . S
N613 H618 0.969 1_454 S
N613 H619 0.995 . S
C614 C608 1.379 . S
C614 C611 1.363 1_656 S
C614 N612 1.358 1_655 S
C615 C609 1.363 1_454 S
C615 C610 1.379 . S
C615 N613 1.362 . S
N616 C608 1.356 . S
N616 H622 0.984 . S
N616 H623 0.984 . S
N617 C610 1.356 . S
N617 H620 0.984 . S
N617 H621 0.985 . S
H618 N613 0.969 1_656 S
H619 N613 0.995 . S
H620 N617 0.984 . S
H621 N617 0.985 . S
H622 N616 0.984 . S
H623 N616 0.984 . S
H624 N612 0.987 1_655 S
H625 N612 0.980 1_554 S
C626 C627 1.363 . S
C626 C632 1.379 . S
C626 N634 1.356 . S
C627 C626 1.363 . S
C627 C633 1.363 . S
C628 C629 1.363 . S
C628 C633 1.379 . S
C628 N635 1.356 . S
C629 C628 1.363 . S
C629 C632 1.363 . S
N630 C632 1.356 . S
N630 H642 0.984 . S
N630 H643 0.985 . S
N631 C633 1.356 . S
N631 H636 0.984 . S
N631 H637 0.985 . S
C632 C626 1.379 . S
C632 C629 1.363 . S
C632 N630 1.356 . S
C633 C627 1.363 . S
C633 C628 1.379 . S
C633 N631 1.356 . S
N634 C626 1.356 . S
N634 H640 0.984 . S
N634 H641 0.984 . S
N635 C628 1.356 . S
N635 H638 0.984 . S
N635 H639 0.985 . S
H636 N631 0.984 . S
H637 N631 0.985 . S
H638 N635 0.984 . S
H639 N635 0.985 . S
H640 N634 0.984 . S
H641 N634 0.984 . S
H642 N630 0.984 . S
H643 N630 0.985 . S
C644 C645 1.363 . S
C644 C650 1.379 . S
C644 N652 1.356 . S
C645 C644 1.363 . S
C645 C651 1.363 1_545 S
C646 C647 1.363 . S
C646 C651 1.379 . S
C646 N653 1.356 . S
C647 C646 1.363 . S
C647 C650 1.363 1_565 S
N648 C650 1.356 . S
N648 H660 0.984 . S
N648 H661 0.985 . S
N649 C651 1.356 . S
N649 H654 0.984 . S
N649 H655 0.985 . S
C650 C644 1.379 . S
C650 C647 1.363 1_545 S
C650 N648 1.356 . S
C651 C645 1.363 1_565 S
C651 C646 1.379 . S
C651 N649 1.356 . S
N652 C644 1.356 . S
N652 H658 0.984 . S
N652 H659 0.984 . S
N653 C646 1.356 . S
N653 H656 0.984 . S
N653 H657 0.985 . S
H654 N649 0.984 . S
H655 N649 0.985 . S
H656 N653 0.984 . S
H657 N653 0.985 . S
H658 N652 0.984 . S
H659 N652 0.984 . S
H660 N648 0.984 . S
H661 N648 0.985 . S
C662 C663 1.363 . S
C662 C668 1.379 . S
C662 N670 1.356 . S
C663 C662 1.363 . S
C663 C669 1.363 . S
C664 C665 1.363 . S
C664 C669 1.379 . S
C664 N671 1.356 . S
C665 C664 1.363 . S
C665 C668 1.363 . S
N666 C668 1.356 . S
N666 H678 0.984 . S
N666 H679 0.985 . S
N667 C669 1.356 . S
N667 H672 0.984 . S
N667 H673 0.985 . S
C668 C662 1.379 . S
C668 C665 1.363 . S
C668 N666 1.356 . S
C669 C663 1.363 . S
C669 C664 1.379 . S
C669 N667 1.356 . S
N670 C662 1.356 . S
N670 H676 0.984 . S
N670 H677 0.984 . S
N671 C664 1.356 . S
N671 H674 0.984 . S
N671 H675 0.985 . S
H672 N667 0.984 . S
H673 N667 0.985 . S
H674 N671 0.984 . S
H675 N671 0.985 . S
H676 N670 0.984 . S
H677 N670 0.984 . S
H678 N666 0.984 . S
H679 N666 0.985 . S
C680 C681 1.363 . S
C680 C686 1.379 . S
C680 N688 1.356 . S
C681 C680 1.363 . S
C681 C687 1.363 . S
C682 C683 1.363 . S
C682 C687 1.379 . S
C682 N689 1.356 . S
C683 C682 1.363 . S
C683 C686 1.363 . S
N684 C686 1.356 . S
N684 H696 0.984 . S
N684 H697 0.985 . S
N685 C687 1.356 . S
N685 H690 0.984 . S
N685 H691 0.985 . S
C686 C680 1.379 . S
C686 C683 1.363 . S
C686 N684 1.356 . S
C687 C681 1.363 . S
C687 C682 1.379 . S
C687 N685 1.356 . S
N688 C680 1.356 . S
N688 H694 0.984 . S
N688 H695 0.984 . S
N689 C682 1.356 . S
N689 H692 0.984 . S
N689 H693 0.985 . S
H690 N685 0.984 . S
H691 N685 0.985 . S
H692 N689 0.984 . S
H693 N689 0.985 . S
H694 N688 0.984 . S
H695 N688 0.984 . S
H696 N684 0.984 . S
H697 N684 0.985 . S
C698 C699 1.363 . S
C698 C704 1.379 . S
C698 N706 1.356 . S
C699 C698 1.363 . S
C699 C705 1.363 . S
C700 C701 1.363 . S
C700 C705 1.379 . S
C700 N707 1.356 . S
C701 C700 1.363 . S
C701 C704 1.363 . S
N702 C704 1.356 . S
N702 H714 0.984 . S
N702 H715 0.985 . S
N703 C705 1.356 . S
N703 H708 0.984 . S
N703 H709 0.985 . S
C704 C698 1.379 . S
C704 C701 1.363 . S
C704 N702 1.356 . S
C705 C699 1.363 . S
C705 C700 1.379 . S
C705 N703 1.356 . S
N706 C698 1.356 . S
N706 H712 0.984 . S
N706 H713 0.984 . S
N707 C700 1.356 . S
N707 H710 0.984 . S
N707 H711 0.985 . S
H708 N703 0.984 . S
H709 N703 0.985 . S
H710 N707 0.984 . S
H711 N707 0.985 . S
H712 N706 0.984 . S
H713 N706 0.984 . S
H714 N702 0.984 . S
H715 N702 0.985 . S
C716 C717 1.363 . S
C716 C722 1.379 . S
C716 N724 1.356 . S
C717 C716 1.363 . S
C717 C723 1.363 . S
C718 C719 1.363 . S
C718 C723 1.379 . S
C718 N725 1.356 . S
C719 C718 1.363 . S
C719 C722 1.363 . S
N720 C722 1.356 . S
N720 H732 0.984 . S
N720 H733 0.985 . S
N721 C723 1.356 . S
N721 H726 0.984 . S
N721 H727 0.985 . S
C722 C716 1.379 . S
C722 C719 1.363 . S
C722 N720 1.356 . S
C723 C717 1.363 . S
C723 C718 1.379 . S
C723 N721 1.356 . S
N724 C716 1.356 . S
N724 H730 0.984 . S
N724 H731 0.984 . S
N725 C718 1.356 . S
N725 H728 0.984 . S
N725 H729 0.985 . S
H726 N721 0.984 . S
H727 N721 0.985 . S
H728 N725 0.984 . S
H729 N725 0.985 . S
H730 N724 0.984 . S
H731 N724 0.984 . S
H732 N720 0.984 . S
H733 N720 0.985 . S
C734 C735 1.363 1_455 S
C734 C740 1.379 1_556 S
C734 N742 1.356 . S
C735 C734 1.363 1_655 S
C735 C741 1.363 . S
C736 C737 1.363 1_655 S
C736 C741 1.379 1_554 S
C736 N743 1.356 . S
C737 C736 1.363 1_455 S
C737 C740 1.363 . S
N738 C740 1.356 . S
N738 H750 0.984 . S
N738 H751 0.985 . S
N739 C741 1.356 . S
N739 H744 0.984 . S
N739 H745 0.985 . S
C740 C734 1.379 1_554 S
C740 C737 1.363 . S
C740 N738 1.356 . S
C741 C735 1.363 . S
C741 C736 1.379 1_556 S
C741 N739 1.356 . S
N742 C734 1.356 . S
N742 H748 0.984 . S
N742 H749 0.984 1_455 S
N743 C736 1.356 . S
N743 H746 0.984 1_655 S
N743 H747 0.985 . S
H744 N739 0.984 . S
H745 N739 0.985 . S
H746 N743 0.984 1_455 S
H747 N743 0.985 . S
H748 N742 0.984 . S
H749 N742 0.984 1_655 S
H750 N738 0.984 . S
H751 N738 0.985 . S
C321 C2 1.934 . S
C323 C122 1.934 . S
C339 C10 1.544 . S
C341 C42 1.560 . S
C357 C50 1.081 . S
C359 C90 1.081 . S
C375 C82 1.560 . S
C377 C130 1.544 . S
C393 C11 1.934 . S
C395 C211 1.934 . S
C411 C19 1.544 . S
C413 C171 1.560 . S
C429 C179 1.081 . S
C431 C99 1.081 . S
C447 C219 1.544 . S
C449 C91 1.560 . S
C465 C242 1.934 . S
C467 C202 1.934 . S
C483 C162 1.560 . S
C485 C250 1.544 . S
C501 C290 1.081 . S
C503 C170 1.081 . S
C519 C210 1.544 . S
C521 C282 1.560 . S
C537 C131 1.934 . S
C539 C251 1.934 . S
C555 C259 1.544 . S
C557 C51 1.560 . S
C573 C59 1.081 . S
C575 C299 1.081 . S
C591 C139 1.544 . S
C593 C291 1.560 . S
C609 C16 1.826 . S
C611 C7 1.826 . S
C627 C47 1.487 . S
C629 C56 1.487 . S
C645 C96 1.487 . S
C647 C87 1.487 . S
C663 C136 1.826 . S
C665 C127 1.826 . S
C681 C167 1.487 . S
C683 C176 1.487 . S
C699 C216 1.826 . S
C701 C207 1.826 . S
C717 C247 1.826 . S
C719 C256 1.826 . S
C735 C287 1.487 . S
C737 C296 1.487 . S
