# Generated by pormake.
# Topology sml, (6)-cn, num edge types: 1
# Building blocks:
#     Node 0, Type 0, BuildingBlock: VOLQOD_clean_sbu_1, # of connection points: 6
#     Node 1, Type 0, BuildingBlock: VOLQOD_clean_sbu_1, # of connection points: 6
#     Node 2, Type 0, BuildingBlock: VOLQOD_clean_sbu_1, # of connection points: 6
#     Node 3, Type 0, BuildingBlock: VOLQOD_clean_sbu_1, # of connection points: 6
#     Node 4, Type 0, BuildingBlock: VOLQOD_clean_sbu_1, # of connection points: 6
#     Node 5, Type 0, BuildingBlock: VOLQOD_clean_sbu_1, # of connection points: 6
#     Edge 6, Type (0, 0), BuildingBlock: TEMPAE_clean_linker_10, # of connection points: 2
#     Edge 7, Type (0, 0), BuildingBlock: TEMPAE_clean_linker_10, # of connection points: 2
#     Edge 8, Type (0, 0), BuildingBlock: TEMPAE_clean_linker_10, # of connection points: 2
#     Edge 9, Type (0, 0), BuildingBlock: TEMPAE_clean_linker_10, # of connection points: 2
#     Edge 10, Type (0, 0), BuildingBlock: TEMPAE_clean_linker_10, # of connection points: 2
#     Edge 11, Type (0, 0), BuildingBlock: TEMPAE_clean_linker_10, # of connection points: 2
#     Edge 12, Type (0, 0), BuildingBlock: TEMPAE_clean_linker_10, # of connection points: 2
#     Edge 13, Type (0, 0), BuildingBlock: TEMPAE_clean_linker_10, # of connection points: 2
#     Edge 14, Type (0, 0), BuildingBlock: TEMPAE_clean_linker_10, # of connection points: 2
#     Edge 15, Type (0, 0), BuildingBlock: TEMPAE_clean_linker_10, # of connection points: 2
#     Edge 16, Type (0, 0), BuildingBlock: TEMPAE_clean_linker_10, # of connection points: 2
#     Edge 17, Type (0, 0), BuildingBlock: TEMPAE_clean_linker_10, # of connection points: 2
#     Edge 18, Type (0, 0), BuildingBlock: TEMPAE_clean_linker_10, # of connection points: 2
#     Edge 19, Type (0, 0), BuildingBlock: TEMPAE_clean_linker_10, # of connection points: 2
#     Edge 20, Type (0, 0), BuildingBlock: TEMPAE_clean_linker_10, # of connection points: 2
#     Edge 21, Type (0, 0), BuildingBlock: TEMPAE_clean_linker_10, # of connection points: 2
#     Edge 22, Type (0, 0), BuildingBlock: TEMPAE_clean_linker_10, # of connection points: 2
#     Edge 23, Type (0, 0), BuildingBlock: TEMPAE_clean_linker_10, # of connection points: 2
# Relax obj value: 0.293
# Max RMSD: 0.187
# Mean RMSD: 0.187
data_MOF--net-sml--node1-VOLQOD_clean_sbu_1--edge1-TEMPAE_clean_linker_10
_symmetry_space_group_name_H-M    P1
_symmetry_Int_Tables_number       1
_symmetry_cell_setting            triclinic
loop_
_symmetry_equiv_pos_as_xyz
'x, y, z'
_cell_length_a     44.036971
_cell_length_b     43.953539
_cell_length_c     15.472125
_cell_angle_alpha  90.185586
_cell_angle_beta   90.053512
_cell_angle_gamma 120.02376
loop_
_atom_site_label
_atom_site_type_symbol
_atom_site_fract_x
_atom_site_fract_y
_atom_site_fract_z
_atom_type_partial_charge
O0 O 0.08754 0.38259 0.94291 0.0
Zn1 Zn 0.12813 0.42132 0.87978 0.0
O2 O 0.16759 0.41432 0.89144 0.0
Zn3 Zn 0.19829 0.44465 0.97916 0.0
Zn4 Zn 0.14822 0.36556 0.91969 0.0
Zn5 Zn 0.19379 0.42457 0.78821 0.0
O6 O 0.24884 0.46753 0.94298 0.0
O7 O 0.24046 0.46861 0.80158 0.0
O8 O 0.13945 0.46929 0.92506 0.0
O9 O 0.18905 0.48458 -0.00439 0.0
O10 O 0.18705 0.41781 0.08995 0.0
O11 O 0.15202 0.36261 0.04631 0.0
O12 O 0.17321 0.34403 0.85759 0.0
O13 O 0.1147 0.41571 0.75472 0.0
O14 O 0.20427 0.38589 0.76214 0.0
O15 O 0.16465 0.42622 0.69205 0.0
C16 C 0.07645 0.34973 0.93648 0.0
C17 C 0.26051 0.47938 0.86775 0.0
C18 C 0.16727 0.38523 0.10583 0.0
C19 C 0.16543 0.49126 0.9707 0.0
C20 C 0.19484 0.35591 0.79495 0.0
C21 C 0.1332 0.42016 0.68781 0.0
O22 O 0.09573 0.33855 0.90423 0.0
O23 O 0.73055 0.10897 0.43849 0.0
Zn24 Zn 0.73127 0.14747 0.36957 0.0
O25 O 0.77588 0.1895 0.38297 0.0
Zn26 Zn 0.77432 0.22117 0.46553 0.0
Zn27 Zn 0.80937 0.17514 0.41352 0.0
Zn28 Zn 0.78543 0.21168 0.27334 0.0
O29 O 0.79724 0.27163 0.42283 0.0
O30 O 0.79493 0.26065 0.28235 0.0
O31 O 0.69246 0.15622 0.40981 0.0
O32 O 0.72372 0.20595 0.48422 0.0
O33 O 0.79463 0.21574 0.57628 0.0
O34 O 0.8245 0.18939 0.53624 0.0
O35 O 0.84952 0.19411 0.32753 0.0
O36 O 0.72799 0.13275 0.24436 0.0
O37 O 0.82847 0.21403 0.22505 0.0
O38 O 0.74581 0.18535 0.191 0.0
C39 C 0.75444 0.10086 0.44558 0.0
C40 C 0.80074 0.28185 0.34452 0.0
C41 C 0.81404 0.20269 0.59416 0.0
C42 C 0.69435 0.18083 0.45781 0.0
C43 C 0.85187 0.20759 0.25306 0.0
C44 C 0.733 0.15258 0.17995 0.0
O45 O 0.78596 0.12224 0.42328 0.0
O46 O 0.60724 0.71504 0.70105 0.0
Zn47 Zn 0.56582 0.71905 0.66234 0.0
O48 O 0.5761 0.76689 0.67666 0.0
Zn49 Zn 0.53463 0.76584 0.71854 0.0
Zn50 Zn 0.61492 0.79265 0.7536 0.0
Zn51 Zn 0.5884 0.78847 0.56539 0.0
O52 O 0.51608 0.78666 0.63373 0.0
O53 O 0.5501 0.79698 0.51898 0.0
O54 O 0.52331 0.68514 0.72929 0.0
O55 O 0.49675 0.71644 0.74228 0.0
O56 O 0.54295 0.78808 0.83457 0.0
O57 O 0.59407 0.79234 0.86889 0.0
O58 O 0.64717 0.8422 0.7109 0.0
O59 O 0.55365 0.70668 0.53703 0.0
O60 O 0.63212 0.835 0.57212 0.0
O61 O 0.59486 0.75705 0.48358 0.0
C62 C 0.63552 0.73635 0.74049 0.0
C63 C 0.52385 0.79639 0.55552 0.0
C64 C 0.5658 0.79172 0.89024 0.0
C65 C 0.49679 0.68768 0.75083 0.0
C66 C 0.65174 0.85382 0.63377 0.0
C67 C 0.57101 0.72525 0.473 0.0
O68 O 0.64212 0.76699 0.76346 0.0
O69 O 0.89153 0.61355 0.09456 0.0
Zn70 Zn 0.84917 0.57212 0.04386 0.0
O71 O 0.80861 0.57807 0.05354 0.0
Zn72 Zn 0.77542 0.54593 0.13686 0.0
Zn73 Zn 0.82659 0.62648 0.08606 0.0
Zn74 Zn 0.78443 0.56951 0.94698 0.0
O75 O 0.72524 0.51828 0.08964 0.0
O76 O 0.73823 0.52518 0.94979 0.0
O77 O 0.8411 0.52828 0.10479 0.0
O78 O 0.78913 0.50985 0.16606 0.0
O79 O 0.78163 0.57205 0.24864 0.0
O80 O 0.8218 0.62666 0.21258 0.0
O81 O 0.80103 0.64771 0.02561 0.0
O82 O 0.86133 0.57203 0.9184 0.0
O83 O 0.77501 0.6086 0.91999 0.0
O84 O 0.8141 0.56788 0.85427 0.0
C85 C 0.90111 0.64605 0.08979 0.0
C86 C 0.71647 0.50977 0.01067 0.0
C87 C 0.80377 0.60374 0.26898 0.0
C88 C 0.81564 0.5063 0.15109 0.0
C89 C 0.78229 0.63733 0.9573 0.0
C90 C 0.84381 0.56975 0.85089 0.0
O91 O 0.87921 0.65591 0.07023 0.0
O92 O 0.29655 0.90196 0.30828 0.0
Zn93 Zn 0.29529 0.86199 0.24071 0.0
O94 O 0.2493 0.82022 0.24718 0.0
Zn95 Zn 0.25652 0.78412 0.29361 0.0
Zn96 Zn 0.2203 0.83012 0.32147 0.0
Zn97 Zn 0.22587 0.80329 0.13944 0.0
O98 O 0.22421 0.73682 0.24221 0.0
O99 O 0.21742 0.75425 0.11266 0.0
O100 O 0.33391 0.85293 0.28018 0.0
O101 O 0.30592 0.79474 0.27469 0.0
O102 O 0.25337 0.78617 0.42056 0.0
O103 O 0.22446 0.81517 0.43987 0.0
O104 O 0.17031 0.80738 0.27894 0.0
O105 O 0.30538 0.87644 0.11706 0.0
O106 O 0.17784 0.79819 0.14141 0.0
O107 O 0.25599 0.83731 0.05014 0.0
C108 C 0.27208 0.90699 0.33555 0.0
C109 C 0.21427 0.73007 0.16368 0.0
C110 C 0.24043 0.80002 0.46945 0.0
C111 C 0.33425 0.82411 0.28147 0.0
C112 C 0.15836 0.79809 0.20241 0.0
C113 C 0.2865 0.86445 0.04957 0.0
O114 O 0.24013 0.88242 0.33452 0.0
O115 O 0.39034 0.28799 0.66999 0.0
Zn116 Zn 0.43376 0.28546 0.64203 0.0
O117 O 0.42378 0.2372 0.65272 0.0
Zn118 Zn 0.45309 0.23288 0.73982 0.0
Zn119 Zn 0.37558 0.20899 0.68729 0.0
Zn120 Zn 0.42947 0.21864 0.54713 0.0
O121 O 0.48201 0.2125 0.69189 0.0
O122 O 0.47001 0.21044 0.55207 0.0
O123 O 0.4734 0.31783 0.72306 0.0
O124 O 0.48653 0.28073 0.78756 0.0
O125 O 0.42397 0.20549 0.841 0.0
O126 O 0.3776 0.21111 0.81562 0.0
O127 O 0.35326 0.15971 0.63642 0.0
O128 O 0.44514 0.30132 0.51725 0.0
O129 O 0.38725 0.17193 0.52061 0.0
O130 O 0.43845 0.25259 0.45423 0.0
C131 C 0.35784 0.26502 0.66464 0.0
C132 C 0.48714 0.207 0.61373 0.0
C133 C 0.39846 0.20869 0.86819 0.0
C134 C 0.49155 0.31166 0.77722 0.0
C135 C 0.36044 0.15067 0.56418 0.0
C136 C 0.44514 0.28424 0.45053 0.0
O137 O 0.34768 0.23242 0.65676 0.0
C138 C 0.29663 0.25434 0.64667 0.0
C139 C 0.33148 0.27635 0.67316 0.0
C140 C 0.27123 0.26439 0.65861 0.0
C141 C 0.28081 0.29683 0.69955 0.0
C142 C 0.31601 0.31925 0.72563 0.0
C143 C 0.34095 0.30889 0.71139 0.0
C144 C 0.23411 0.2402 0.62828 0.0
C145 C 0.32722 0.35389 0.7705 0.0
C146 C 0.22878 0.34396 0.68399 0.0
C147 C 0.21207 0.33633 0.76464 0.0
C148 C 0.24951 0.32942 0.65944 0.0
C149 C 0.25413 0.30729 0.71763 0.0
C150 C 0.2359 0.29808 0.79726 0.0
C151 C 0.2148 0.31248 0.81948 0.0
C152 C 0.26789 0.33925 0.57316 0.0
C153 C 0.24046 0.27486 0.86148 0.0
H154 H 0.28921 0.22926 0.6166 0.0
H155 H 0.36776 0.32593 0.73258 0.0
H156 H 0.21612 0.23103 0.68447 0.0
H157 H 0.22549 0.25456 0.58505 0.0
H158 H 0.23138 0.21687 0.59315 0.0
H159 H 0.35562 0.36824 0.78673 0.0
H160 H 0.32152 0.3709 0.72878 0.0
H161 H 0.31207 0.34931 0.83108 0.0
H162 H 0.22643 0.36208 0.64088 0.0
H163 H 0.20203 0.30655 0.88198 0.0
H164 H 0.26471 0.31556 0.53917 0.0
H165 H 0.29639 0.35719 0.58338 0.0
H166 H 0.25782 0.35262 0.53081 0.0
H167 H 0.23616 0.25036 0.82971 0.0
H168 H 0.22219 0.26777 0.91699 0.0
H169 H 0.26774 0.28871 0.88668 0.0
C170 C 0.02782 0.28818 0.96425 0.0
C171 C 0.0423 0.32456 0.97542 0.0
C172 C 0.99657 0.26429 0.00598 0.0
C173 C 0.97969 0.27716 0.06047 0.0
C174 C 0.99421 0.3138 0.07196 0.0
C175 C 0.02519 0.33702 0.02903 0.0
C176 C 0.98171 0.22536 -0.00767 0.0
C177 C 0.97714 0.32857 0.13022 0.0
C178 C 0.88322 0.22796 0.11286 0.0
C179 C 0.88359 0.21907 0.19973 0.0
C180 C 0.91412 0.24449 0.06443 0.0
C181 C 0.94628 0.25273 0.1042 0.0
C182 C 0.94654 0.24157 0.18988 0.0
C183 C 0.91506 0.2247 0.2367 0.0
C184 C 0.9126 0.25551 0.97287 0.0
C185 C 0.98032 0.24984 0.2346 0.0
H186 H 0.04099 0.27835 0.92327 0.0
H187 H 0.03637 0.36504 0.03902 0.0
H188 H 0.97989 0.21246 0.05516 0.0
H189 H 0.95472 0.21339 0.96568 0.0
H190 H 0.99794 0.2196 0.9476 0.0
H191 H 0.99206 0.35775 0.13292 0.0
H192 H 0.95016 0.31998 0.10711 0.0
H193 H 0.97499 0.31839 0.19679 0.0
H194 H 0.85891 0.22333 0.08351 0.0
H195 H 0.91554 0.21783 0.30372 0.0
H196 H 0.92879 0.24932 0.92933 0.0
H197 H 0.92343 0.28436 0.97105 0.0
H198 H 0.88537 0.24247 0.94729 0.0
H199 H 0.99807 0.24632 0.19013 0.0
H200 H 0.97549 0.2331 0.29239 0.0
H201 H 0.99405 0.2777 0.256 0.0
C202 C 0.77105 0.0572 0.49871 0.0
C203 C 0.74514 0.06606 0.48111 0.0
C204 C 0.76203 0.02396 0.53154 0.0
C205 C 0.72633 0.99911 0.54636 0.0
C206 C 0.70022 0.00822 0.53063 0.0
C207 C 0.70995 0.04155 0.49843 0.0
C208 C 0.79052 0.01517 0.54838 0.0
C209 C 0.66178 0.98239 0.54538 0.0
C210 C 0.68713 0.90117 0.52881 0.0
C211 C 0.67784 0.89082 0.61491 0.0
C212 C 0.70575 0.9367 0.50633 0.0
C213 C 0.71535 0.96252 0.57164 0.0
C214 C 0.70899 0.95235 0.65952 0.0
C215 C 0.69023 0.91645 0.68026 0.0
C216 C 0.71222 0.94641 0.41186 0.0
C217 C 0.7193 0.97923 0.73097 0.0
H218 H 0.79836 0.07613 0.48643 0.0
H219 H 0.68974 0.04817 0.48559 0.0
H220 H 0.78778 0.00416 0.61422 0.0
H221 H 0.788 0.99476 0.50189 0.0
H222 H 0.81717 0.03848 0.54194 0.0
H223 H 0.64496 0.99417 0.53352 0.0
H224 H 0.65305 0.9594 0.50172 0.0
H225 H 0.65754 0.97252 0.61271 0.0
H226 H 0.67822 0.88145 0.47807 0.0
H227 H 0.68337 0.90862 0.74701 0.0
H228 H 0.73947 0.96808 0.40166 0.0
H229 H 0.69432 0.95581 0.39008 0.0
H230 H 0.7076 0.92375 0.37059 0.0
H231 H 0.74592 0.00194 0.71982 0.0
H232 H 0.71876 0.96781 0.79531 0.0
H233 H 0.70071 0.98933 0.73206 0.0
C234 C 0.64724 0.68892 0.78532 0.0
C235 C 0.66012 0.72435 0.76538 0.0
C236 C 0.6697 0.67728 0.81534 0.0
C237 C 0.70606 0.70151 0.82307 0.0
C238 C 0.7194 0.73714 0.80039 0.0
C239 C 0.69613 0.74829 0.7731 0.0
C240 C 0.65435 0.63922 0.84075 0.0
C241 C 0.75815 0.76342 0.80523 0.0
C242 C 0.75567 0.67527 0.97795 0.0
C243 C 0.76695 0.65777 0.92223 0.0
C244 C 0.73667 0.69067 0.94613 0.0
C245 C 0.7298 0.68934 0.85631 0.0
C246 C 0.74309 0.6736 0.79928 0.0
C247 C 0.76107 0.6575 0.83314 0.0
C248 C 0.72222 0.70651 0.00916 0.0
C249 C 0.73719 0.67255 0.70289 0.0
H250 H 0.61934 0.67045 0.78026 0.0
H251 H 0.7061 0.77567 0.75717 0.0
H252 H 0.66606 0.62667 0.80109 0.0
H253 H 0.66074 0.63751 0.90934 0.0
H254 H 0.62541 0.62398 0.83254 0.0
H255 H 0.76448 0.78967 0.78071 0.0
H256 H 0.76738 0.76636 0.87309 0.0
H257 H 0.77305 0.75385 0.76702 0.0
H258 H 0.76004 0.67526 0.04692 0.0
H259 H 0.77013 0.64424 0.78995 0.0
H260 H 0.69314 0.69078 0.0089 0.0
H261 H 0.72965 0.73359 -0.01053 0.0
H262 H 0.73169 0.70734 0.07619 0.0
H263 H 0.70906 0.65456 0.68808 0.0
H264 H 0.75291 0.66333 0.66685 0.0
H265 H 0.74401 0.699 0.67901 0.0
C266 C 0.10725 0.77356 0.10079 0.0
C267 C 0.12046 0.78376 0.18499 0.0
C268 C 0.07105 0.75519 0.08467 0.0
C269 C 0.04745 0.74683 0.1544 0.0
C270 C 0.06057 0.75906 0.23863 0.0
C271 C 0.09696 0.77742 0.25297 0.0
C272 C 0.05812 0.74272 -0.00618 0.0
C273 C 0.0362 0.75083 0.31455 0.0
C274 C 0.95061 0.70854 0.10131 0.0
C275 C 0.9383 0.67236 0.10776 0.0
C276 C 0.98602 0.7333 0.11764 0.0
C277 C 0.00952 0.72153 0.14083 0.0
C278 C 0.99713 0.6851 0.14848 0.0
C279 C 0.96177 0.66104 0.13192 0.0
C280 C 0.99836 0.77196 0.10915 0.0
C281 C 0.02135 0.67144 0.17309 0.0
H282 H 0.12514 0.77865 0.04757 0.0
H283 H 0.10687 0.78539 0.31817 0.0
H284 H 0.04645 0.71377 -0.00975 0.0
H285 H 0.03732 0.74877 0.97594 0.0
H286 H 0.07956 0.75489 0.94551 0.0
H287 H 0.05021 0.76616 0.3731 0.0
H288 H 0.01488 0.75637 0.29857 0.0
H289 H 0.02374 0.72245 0.32998 0.0
H290 H 0.93267 0.71755 0.08301 0.0
H291 H 0.95258 0.6332 0.13762 0.0
H292 H 0.01822 0.7835 0.0571 0.0
H293 H 0.01123 0.78595 0.16996 0.0
H294 H 0.97652 0.77688 0.09407 0.0
H295 H 0.04243 0.67966 0.12422 0.0
H296 H 0.00737 0.64233 0.1781 0.0
H297 H 0.03415 0.6828 0.23607 0.0
C298 C 0.33955 0.1072 0.44354 0.0
C299 C 0.33944 0.11415 0.53204 0.0
C300 C 0.3246 0.07268 0.41241 0.0
C301 C 0.30963 0.04438 0.47137 0.0
C302 C 0.30781 0.0511 0.56032 0.0
C303 C 0.32253 0.086 0.5896 0.0
C304 C 0.32655 0.06666 0.31689 0.0
C305 C 0.29231 0.02162 0.62524 0.0
C306 C 0.25583 0.95212 0.37817 0.0
C307 C 0.28118 0.94179 0.37169 0.0
C308 C 0.26448 0.98526 0.41169 0.0
C309 C 0.29913 0.00831 0.44066 0.0
C310 C 0.32457 0.99763 0.43622 0.0
C311 C 0.31536 0.96466 0.40117 0.0
C312 C 0.2368 0.99593 0.41432 0.0
C313 C 0.36169 0.02124 0.46759 0.0
H314 H 0.35228 0.12889 0.39865 0.0
H315 H 0.32255 0.09126 0.65811 0.0
H316 H 0.34512 0.05693 0.30587 0.0
H317 H 0.30054 0.04629 0.29215 0.0
H318 H 0.33551 0.09105 0.27872 0.0
H319 H 0.28945 0.03078 0.69012 0.0
H320 H 0.26624 1.00041 0.60315 0.0
H321 H 0.30953 0.01 0.6313 0.0
H322 H 0.22935 0.93454 0.35553 0.0
H323 H 0.33497 0.95667 0.39755 0.0
H324 H 0.24467 0.019 0.37195 0.0
H325 H 0.23436 0.00395 0.48082 0.0
H326 H 0.21072 0.97442 0.39282 0.0
H327 H 0.37455 0.04541 0.42781 0.0
H328 H 0.37773 0.0082 0.46427 0.0
H329 H 0.36156 0.02947 0.53539 0.0
C330 C 0.10051 0.37231 0.58662 0.0
C331 C 0.11603 0.40828 0.60442 0.0
C332 C 0.0993 0.36054 0.50199 0.0
C333 C 0.11286 0.3855 0.43479 0.0
C334 C 0.12282 0.42103 0.45142 0.0
C335 C 0.12524 0.43229 0.53709 0.0
C336 C 0.08868 0.32252 0.48725 0.0
C337 C 0.13549 0.448 0.38022 0.0
C338 C 0.17409 0.38627 0.26484 0.0
C339 C 0.15241 0.37587 0.19226 0.0
C340 C 0.16033 0.38592 0.3465 0.0
C341 C 0.12464 0.37694 0.35378 0.0
C342 C 0.10221 0.36428 0.28115 0.0
C343 C 0.11635 0.36326 0.20114 0.0
C344 C 0.18468 0.39786 0.42373 0.0
C345 C 0.06438 0.35541 0.28529 0.0
H346 H 0.09378 0.35395 0.63968 0.0
H347 H 0.13736 0.46012 0.55167 0.0
H348 H 0.0756 0.31284 0.42376 0.0
H349 H 0.11254 0.32001 0.48784 0.0
H350 H 0.07087 0.30544 0.53895 0.0
H351 H 0.13481 0.47195 0.40023 0.0
H352 H 0.16296 0.45583 0.36364 0.0
H353 H 0.11927 0.43695 0.32109 0.0
H354 H 0.20196 0.39613 0.25712 0.0
H355 H 0.09978 0.35581 0.14402 0.0
H356 H 0.17188 0.3804 0.4798 0.0
H357 H 0.19114 0.42483 0.44262 0.0
H358 H 0.20958 0.39819 0.40967 0.0
H359 H 0.04882 0.33813 0.23067 0.0
H360 H 0.06332 0.38006 0.28116 0.0
H361 H 0.05189 0.34242 0.34695 0.0
C362 C 0.72201 0.14468 0.02269 0.0
C363 C 0.73955 0.1423 0.09522 0.0
C364 C 0.73642 0.14826 0.94009 0.0
C365 C 0.76993 0.15139 0.93134 0.0
C366 C 0.78636 0.1462 0.00382 0.0
C367 C 0.77051 0.14101 0.08506 0.0
C368 C 0.71731 0.15196 0.8634 0.0
C369 C 0.82205 0.14938 -0.00301 0.0
C370 C 0.80098 0.15659 0.70141 0.0
C371 C 0.81408 0.19235 0.68416 0.0
C372 C 0.78811 0.14276 0.7834 0.0
C373 C 0.78972 0.16561 0.84998 0.0
C374 C 0.80678 0.20237 0.83521 0.0
C375 C 0.818 0.21523 0.75162 0.0
C376 C 0.76921 0.10338 0.79489 0.0
C377 C 0.81038 0.22784 0.90564 0.0
H378 H 0.69833 0.14615 0.03119 0.0
H379 H 0.78429 0.1398 0.14196 0.0
H380 H 0.73 0.18 0.84434 0.0
H381 H 0.71862 0.13689 0.80723 0.0
H382 H 0.68934 0.14268 0.87823 0.0
H383 H 0.8323 0.14707 0.0608 0.0
H384 H 0.82062 0.12858 0.95362 0.0
H385 H 0.84106 0.17502 0.96807 0.0
H386 H 0.79725 0.13872 0.64862 0.0
H387 H 0.82789 0.2428 0.7379 0.0
H388 H 0.74072 0.09275 0.78427 0.0
H389 H 0.77264 0.09593 0.861 0.0
H390 H 0.7783 0.09065 0.74741 0.0
H391 H 0.78491 0.22687 0.91447 0.0
H392 H 0.83051 0.25527 0.88944 0.0
H393 H 0.81753 0.22073 0.96809 0.0
C394 C 0.57297 0.71424 0.31755 0.0
C395 C 0.55463 0.71683 0.38795 0.0
C396 C 0.56551 0.72069 0.2339 0.0
C397 C 0.54057 0.73176 0.22235 0.0
C398 C 0.51965 0.73099 0.2924 0.0
C399 C 0.52658 0.72281 0.37472 0.0
C400 C 0.58698 0.7194 0.15947 0.0
C401 C 0.4929 0.74267 0.28227 0.0
C402 C 0.57435 0.80063 0.04871 0.0
C403 C 0.5537 0.78127 0.97868 0.0
C404 C 0.56771 0.78567 0.13121 0.0
C405 C 0.54128 0.74999 0.14171 0.0
C406 C 0.51898 0.73116 0.07194 0.0
C407 C 0.52511 0.74739 -0.0087 0.0
C408 C 0.59073 0.80719 0.20569 0.0
C409 C 0.49129 0.69285 0.07894 0.0
H410 H 0.59485 0.70992 0.32858 0.0
H411 H 0.51285 0.72527 0.43014 0.0
H412 H 0.57023 0.70748 0.1015 0.0
H413 H 0.60753 0.74652 0.14251 0.0
H414 H 0.60006 0.70414 0.17591 0.0
H415 H 0.50628 0.77063 0.26239 0.0
H416 H 0.47387 0.72727 0.23054 0.0
H417 H 0.47826 0.7398 0.34299 0.0
H418 H 0.59652 0.82671 0.03819 0.0
H419 H 0.50961 0.73223 0.93615 0.0
H420 H 0.6094 0.79807 0.22214 0.0
H421 H 0.57462 0.8038 0.26389 0.0
H422 H 0.60607 0.83562 0.1899 0.0
H423 H 0.50363 0.67659 0.06632 0.0
H424 H 0.47013 0.68554 0.0303 0.0
H425 H 0.47943 0.68612 0.14419 0.0
C426 C 0.84955 0.5538 0.70238 0.0
C427 C 0.86094 0.57933 0.76726 0.0
C428 C 0.84937 0.56315 0.61607 0.0
C429 C 0.85907 0.59834 0.59658 0.0
C430 C 0.87486 0.62476 0.66058 0.0
C431 C 0.87641 0.61488 0.74549 0.0
C432 C 0.83459 0.53468 0.54788 0.0
C433 C 0.88512 0.66247 0.64288 0.0
C434 C 0.85432 0.62069 0.36382 0.0
C435 C 0.81859 0.61003 0.3561 0.0
C436 C 0.86841 0.61808 0.44244 0.0
C437 C 0.84642 0.60583 0.51546 0.0
C438 C 0.81101 0.59796 0.50962 0.0
C439 C 0.79716 0.59916 0.42894 0.0
C440 C 0.90576 0.62533 0.44478 0.0
C441 C 0.78726 0.58649 0.58758 0.0
H442 H 0.8374 0.5263 0.71989 0.0
H443 H 0.8848 0.63443 0.79664 0.0
H444 H 0.80682 0.52683 0.53495 0.0
H445 H 0.84927 0.54432 0.48638 0.0
H446 H 0.83552 0.51102 0.56893 0.0
H447 H 0.90324 0.68053 0.69322 0.0
H448 H 0.89774 0.67113 0.57881 0.0
H449 H 0.86114 0.66478 0.64262 0.0
H450 H 0.87069 0.62826 0.30656 0.0
H451 H 0.76952 0.59063 0.42226 0.0
H452 H 0.9055 0.59998 0.44105 0.0
H453 H 0.91921 0.63849 0.50578 0.0
H454 H 0.92129 0.64183 0.38946 0.0
H455 H 0.78071 0.55955 0.60634 0.0
H456 H 0.76239 0.58641 0.57468 0.0
H457 H 0.80068 0.60413 0.6434 0.0
C458 C 0.24128 0.79745 0.62957 0.0
C459 C 0.25763 0.81294 0.5522 0.0
C460 C 0.25684 0.81375 0.70806 0.0
C461 C 0.28872 0.84657 0.70742 0.0
C462 C 0.30582 0.86144 0.62886 0.0
C463 C 0.29003 0.84421 0.55185 0.0
C464 C 0.23831 0.79672 0.79135 0.0
C465 C 0.33927 0.89655 0.62492 0.0
C466 C 0.28543 0.88973 0.91014 0.0
C467 C 0.30189 0.8774 0.96543 0.0
C468 C 0.2858 0.88492 0.82102 0.0
C469 C 0.30185 0.86621 0.78898 0.0
C470 C 0.32332 0.85911 0.8434 0.0
C471 C 0.32342 0.86528 0.93207 0.0
C472 C 0.26448 0.89483 0.76338 0.0
C473 C 0.34148 0.83994 0.81078 0.0
H474 H 0.21613 0.77333 0.62851 0.0
H475 H 0.3022 0.8561 0.4907 0.0
H476 H 0.25685 0.79529 0.83752 0.0
H477 H 0.22825 0.81281 0.82191 0.0
H478 H 0.21587 0.76976 0.78077 0.0
H479 H 0.35423 0.89898 0.56505 0.0
H480 H 0.33257 0.91776 0.62446 0.0
H481 H 0.35644 0.90093 0.68161 0.0
H482 H 0.26897 0.89928 0.93695 0.0
H483 H 0.3361 0.85581 0.97586 0.0
H484 H 0.2385 0.87125 0.75088 0.0
H485 H 0.27764 0.90467 0.70022 0.0
H486 H 0.26016 0.91528 0.79384 0.0
H487 H 0.32209 0.81143 0.80616 0.0
H488 H 0.36286 0.84342 0.85515 0.0
H489 H 0.35255 0.84909 0.74539 0.0
C490 C 0.41676 0.29502 0.32863 0.0
C491 C 0.44746 0.29824 0.36407 0.0
C492 C 0.40977 0.28833 0.24015 0.0
C493 C 0.43451 0.28559 0.18731 0.0
C494 C 0.46806 0.29516 0.22064 0.0
C495 C 0.47399 0.30088 0.30962 0.0
C496 C 0.37404 0.27918 0.20625 0.0
C497 C 0.49586 0.29453 0.16492 0.0
C498 C 0.40083 0.20964 0.0289 0.0
C499 C 0.40364 0.22664 0.95103 0.0
C500 C 0.4097 0.22857 0.10683 0.0
C501 C 0.4228 0.26543 0.10548 0.0
C502 C 0.42558 0.28257 0.02643 0.0
C503 C 0.41563 0.26281 0.95006 0.0
C504 C 0.40587 0.20927 0.19037 0.0
C505 C 0.44072 0.32186 0.02136 0.0
H506 H 0.39622 0.29277 0.37138 0.0
H507 H 0.49771 0.30334 0.33767 0.0
H508 H 0.37605 0.29048 0.14109 0.0
H509 H 0.35756 0.25019 0.2004 0.0
H510 H 0.3606 0.28873 0.2501 0.0
H511 H 0.52224 0.30934 0.19535 0.0
H512 H 0.48949 0.26692 0.1553 0.0
H513 H 0.4968 0.30585 0.10033 0.0
H514 H 0.39203 0.18177 0.02863 0.0
H515 H 0.41864 0.27595 0.88875 0.0
H516 H 0.39008 0.21469 0.2372 0.0
H517 H 0.43209 0.21867 0.21978 0.0
H518 H 0.39312 0.18039 0.18063 0.0
H519 H 0.43219 0.33189 0.07659 0.0
H520 H 0.43323 0.3296 0.96017 0.0
H521 H 0.46977 0.33496 0.02361 0.0
C522 C 0.20184 0.55314 0.02214 0.0
C523 C 0.16919 0.52574 -0.00599 0.0
C524 C 0.20635 0.58599 0.04533 0.0
C525 C 0.17741 0.59158 0.04153 0.0
C526 C 0.14438 0.56417 0.01275 0.0
C527 C 0.14071 0.53158 -0.01132 0.0
C528 C 0.24214 0.61464 0.07465 0.0
C529 C 0.11285 0.56908 0.00889 0.0
C530 C 0.18854 0.66565 0.18839 0.0
C531 C 0.2007 0.69387 0.13061 0.0
C532 C 0.17883 0.6317 0.15935 0.0
C533 C 0.18191 0.62592 0.07054 0.0
C534 C 0.19279 0.65398 0.01133 0.0
C535 C 0.2018 0.6876 0.04202 0.0
C536 C 0.1668 0.60237 0.22439 0.0
C537 C 0.1968 0.64897 0.9163 0.0
H538 H 0.22412 0.54904 0.02562 0.0
H539 H 0.1154 0.51052 0.96715 0.0
H540 H 0.25079 0.6385 0.03473 0.0
H541 H 0.24084 0.62201 0.14263 0.0
H542 H 0.26226 0.60651 0.07032 0.0
H543 H 0.08925 0.54552 -0.01711 0.0
H544 H 0.10681 0.57476 0.07459 0.0
H545 H 0.11858 0.59197 0.96779 0.0
H546 H 0.1872 0.6702 0.25683 0.0
H547 H 0.21121 0.70929 -0.003 0.0
H548 H 0.18704 0.59455 0.23118 0.0
H549 H 0.14232 0.57891 0.20189 0.0
H550 H 0.16204 0.61021 0.28907 0.0
H551 H 0.21881 0.64381 0.9071 0.0
H552 H 0.20219 0.67242 0.87768 0.0
H553 H 0.17278 0.62585 0.89068 0.0
C554 C 0.66455 0.21245 0.51296 0.0
C555 C 0.6621 0.18113 0.48297 0.0
C556 C 0.63462 0.21385 0.53657 0.0
C557 C 0.60134 0.18305 0.53129 0.0
C558 C 0.59862 0.15115 0.50258 0.0
C559 C 0.62908 0.15062 0.47796 0.0
C560 C 0.63858 0.24855 0.56543 0.0
C561 C 0.56356 0.11772 0.4973 0.0
C562 C 0.53026 0.18831 0.65767 0.0
C563 C 0.51442 0.19787 0.59273 0.0
C564 C 0.5575 0.18159 0.63799 0.0
C565 C 0.56946 0.18508 0.55168 0.0
C566 C 0.55292 0.19375 0.4856 0.0
C567 C 0.52548 0.19979 0.50683 0.0
C568 C 0.57424 0.17188 0.70988 0.0
C569 C 0.56525 0.19825 0.39298 0.0
H570 H 0.68995 0.23621 0.51659 0.0
H571 H 0.62706 0.12628 0.45549 0.0
H572 H 0.62392 0.25635 0.52087 0.0
H573 H 0.62724 0.24596 0.6308 0.0
H574 H 0.66642 0.26995 0.56717 0.0
H575 H 0.56612 0.0947 0.47844 0.0
H576 H 0.55004 0.11229 0.56062 0.0
H577 H 0.54656 0.12077 0.4493 0.0
H578 H 0.52165 0.18645 0.72403 0.0
H579 H 0.51344 0.20717 0.45611 0.0
H580 H 0.60144 0.19363 0.72085 0.0
H581 H 0.5758 0.14827 0.69166 0.0
H582 H 0.55954 0.16658 0.77152 0.0
H583 H 0.59236 0.22089 0.38851 0.0
H584 H 0.54819 0.20293 0.3485 0.0
H585 H 0.56595 0.17462 0.37054 0.0
C586 C 0.32005 0.52077 0.92894 0.0
C587 C 0.29749 0.50741 0.85725 0.0
C588 C 0.35439 0.54903 0.9201 0.0
C589 C 0.36627 0.56428 0.8378 0.0
C590 C 0.344 0.5503 0.7649 0.0
C591 C 0.30994 0.522 0.77548 0.0
C592 C 0.37759 0.56318 -0.00093 0.0
C593 C 0.35576 0.56595 0.67601 0.0
C594 C 0.4362 0.65947 0.81118 0.0
C595 C 0.46482 0.65641 0.78295 0.0
C596 C 0.40442 0.62972 0.83354 0.0
C597 C 0.40123 0.59612 0.82769 0.0
C598 C 0.43055 0.59296 0.80398 0.0
C599 C 0.46206 0.62319 0.78179 0.0
C600 C 0.37374 0.63415 0.85908 0.0
C601 C 0.42816 0.55753 0.79795 0.0
H602 H 0.31071 0.50958 -0.00765 0.0
H603 H 0.29281 0.51183 0.71962 0.0
H604 H 0.40317 0.56475 -0.01291 0.0
H605 H 0.38308 0.59023 0.01317 0.0
H606 H 0.36539 0.54669 0.05705 0.0
H607 H 0.33573 0.55108 0.6255 0.0
H608 H 0.36131 0.59352 0.67611 0.0
H609 H 0.38042 0.56647 0.65826 0.0
H610 H 0.43823 0.68508 0.81356 0.0
H611 H 0.48415 0.62061 0.76085 0.0
H612 H 0.36191 0.61993 0.92002 0.0
H613 H 0.35318 0.62262 0.80827 0.0
H614 H 0.38142 0.6622 0.86793 0.0
H615 H 0.41605 0.542 0.85719 0.0
H616 H 0.45425 0.55986 0.78864 0.0
H617 H 0.41109 0.54255 0.74262 0.0
C618 C 0.81575 0.3431 0.38812 0.0
C619 C 0.80908 0.31809 0.32334 0.0
C620 C 0.82036 0.37627 0.36722 0.0
C621 C 0.81768 0.38423 0.27986 0.0
C622 C 0.81212 0.35954 0.21418 0.0
C623 C 0.80819 0.32698 0.23662 0.0
C624 C 0.82695 0.40234 0.43867 0.0
C625 C 0.80872 0.36682 0.12027 0.0
C626 C 0.786 0.44713 0.22015 0.0
C627 C 0.81679 0.47603 0.18896 0.0
C628 C 0.78624 0.41762 0.25329 0.0
C629 C 0.81815 0.4172 0.25648 0.0
C630 C 0.8496 0.44686 0.22852 0.0
C631 C 0.84851 0.47584 0.1943 0.0
C632 C 0.75203 0.38627 0.28123 0.0
C633 C 0.88419 0.44753 0.23224 0.0
H634 H 0.81669 0.33654 0.45517 0.0
H635 H 0.80318 0.30799 0.1858 0.0
H636 H 0.84964 0.42841 0.4224 0.0
H637 H 0.80378 0.40576 0.44587 0.0
H638 H 0.83213 0.39372 0.50168 0.0
H639 H 0.8057 0.34531 0.0768 0.0
H640 H 0.78556 0.37021 0.11179 0.0
H641 H 0.83211 0.39161 0.09966 0.0
H642 H 0.7614 0.4471 0.21642 0.0
H643 H 0.8725 0.4983 0.17148 0.0
H644 H 0.75446 0.37827 0.3476 0.0
H645 H 0.74549 0.36367 0.23774 0.0
H646 H 0.72993 0.39167 0.27986 0.0
H647 H 0.88816 0.43939 0.29713 0.0
H648 H 0.90673 0.47397 0.21769 0.0
H649 H 0.88407 0.42852 0.1847 0.0
C650 C 0.36834 0.79282 0.29488 0.0
C651 C 0.3674 0.82423 0.29951 0.0
C652 C 0.39751 0.79111 0.32476 0.0
C653 C 0.42641 0.82151 0.36044 0.0
C654 C 0.42677 0.8539 0.35929 0.0
C655 C 0.39723 0.8549 0.32874 0.0
C656 C 0.39624 0.75612 0.32402 0.0
C657 C 0.45727 0.88696 0.39598 0.0
C658 C 0.47102 0.80322 0.54575 0.0
C659 C 0.50072 0.80555 0.50592 0.0
C660 C 0.44728 0.8093 0.49936 0.0
C661 C 0.45332 0.81805 0.41069 0.0
C662 C 0.48378 0.82158 0.37043 0.0
C663 C 0.50717 0.81526 0.41859 0.0
C664 C 0.41513 0.8053 0.54492 0.0
C665 C 0.49114 0.831 0.27609 0.0
H666 H 0.34564 0.76908 0.27118 0.0
H667 H 0.3969 0.87937 0.33197 0.0
H668 H 0.42116 0.75905 0.29899 0.0
H669 H 0.39293 0.74607 0.39108 0.0
H670 H 0.37422 0.73623 0.28406 0.0
H671 H 0.45607 0.91079 0.37802 0.0
H672 H 0.45703 0.8852 0.46754 0.0
H673 H 0.48253 0.89001 0.37324 0.0
H674 H 0.4658 0.79593 0.61323 0.0
H675 H 0.53011 0.81726 0.38732 0.0
H676 H 0.39115 0.78353 0.51488 0.0
H677 H 0.41363 0.82962 0.53793 0.0
H678 H 0.415 0.79965 0.6149 0.0
H679 H 0.47191 0.80869 0.23584 0.0
H680 H 0.51796 0.83708 0.25739 0.0
H681 H 0.48809 0.85398 0.26086 0.0
C682 C 0.65243 0.46948 0.04412 0.0
C683 C 0.68089 0.48093 -0.01267 0.0
C684 C 0.61872 0.44246 0.0198 0.0
C685 C 0.61367 0.42626 0.93759 0.0
C686 C 0.64243 0.43754 0.88069 0.0
C687 C 0.67548 0.4648 0.90595 0.0
C688 C 0.58851 0.43141 0.08156 0.0
C689 C 0.63843 0.42058 0.79307 0.0
C690 C 0.54079 0.33424 0.88446 0.0
C691 C 0.51994 0.34093 0.82758 0.0
C692 C 0.57011 0.36176 0.92564 0.0
C693 C 0.57875 0.3969 0.91025 0.0
C694 C 0.55641 0.40373 0.858 0.0
C695 C 0.52733 0.37568 0.81695 0.0
C696 C 0.59318 0.35323 -0.01927 0.0
C697 C 0.56435 0.44082 0.84135 0.0
H698 H 0.65639 0.48194 0.1069 0.0
H699 H 0.69734 0.4732 0.86186 0.0
H700 H 0.56777 0.43505 0.05085 0.0
H701 H 0.57662 0.40308 0.0968 0.0
H702 H 0.59673 0.44665 0.14294 0.0
H703 H 0.66355 0.43221 0.75695 0.0
H704 H 0.62843 0.39202 0.80075 0.0
H705 H 0.61901 0.42349 0.7536 0.0
H706 H 0.53505 0.30749 0.89446 0.0
H707 H 0.51109 0.38113 0.77438 0.0
H708 H 0.60005 0.3682 0.04234 0.0
H709 H 0.61805 0.36105 0.94599 0.0
H710 H 0.58045 0.32475 -0.00428 0.0
H711 H 0.57126 0.45612 0.90252 0.0
H712 H 0.54185 0.44149 0.81081 0.0
H713 H 0.58729 0.4541 0.79769 0.0
loop_
_geom_bond_atom_site_label_1
_geom_bond_atom_site_label_2
_geom_bond_distance
_geom_bond_site_symmetry_2
_ccdc_geom_bond_type
O0 Zn1 1.953 1_554 S
O0 C16 1.225 . S
Zn1 O0 1.953 1_556 S
Zn1 O2 1.949 1_556 S
Zn1 O8 1.919 1_556 S
Zn1 O13 1.924 . S
O2 Zn1 1.949 1_554 S
O2 Zn3 1.923 . S
O2 Zn4 1.950 . S
O2 Zn5 1.945 1_554 S
Zn3 O2 1.923 . S
Zn3 O6 1.933 . S
Zn3 O9 1.941 . S
Zn3 O10 1.965 . S
Zn4 O2 1.950 . S
Zn4 O11 1.938 . S
Zn4 O12 1.906 . S
Zn4 O22 1.953 . S
Zn5 O2 1.945 1_556 S
Zn5 O7 1.932 . S
Zn5 O14 1.977 . S
Zn5 O15 1.910 . S
O6 Zn3 1.933 . S
O6 C17 1.226 1_554 S
O7 Zn5 1.932 . S
O7 C17 1.307 . S
O8 Zn1 1.919 1_554 S
O8 C19 1.253 . S
O9 Zn3 1.941 . S
O9 C19 1.283 . S
O10 Zn3 1.965 . S
O10 C18 1.303 . S
O11 Zn4 1.938 . S
O11 C18 1.247 . S
O12 Zn4 1.906 . S
O12 C20 1.304 1_554 S
O13 Zn1 1.924 . S
O13 C21 1.311 . S
O14 Zn5 1.977 . S
O14 C20 1.272 . S
O15 Zn5 1.910 . S
O15 C21 1.231 . S
C16 O0 1.225 . S
C16 O22 1.298 . S
C17 O6 1.226 1_556 S
C17 O7 1.307 . S
C18 O10 1.303 . S
C18 O11 1.247 . S
C19 O8 1.253 . S
C19 O9 1.283 . S
C20 O12 1.304 1_556 S
C20 O14 1.272 . S
C21 O13 1.311 . S
C21 O15 1.231 . S
O22 Zn4 1.953 . S
O22 C16 1.298 . S
O23 Zn24 1.953 . S
O23 C39 1.225 . S
Zn24 O23 1.953 . S
Zn24 O25 1.949 . S
Zn24 O31 1.919 . S
Zn24 O36 1.924 . S
O25 Zn24 1.949 . S
O25 Zn26 1.923 . S
O25 Zn27 1.950 . S
O25 Zn28 1.945 . S
Zn26 O25 1.923 . S
Zn26 O29 1.933 . S
Zn26 O32 1.941 . S
Zn26 O33 1.965 . S
Zn27 O25 1.950 . S
Zn27 O34 1.938 . S
Zn27 O35 1.906 . S
Zn27 O45 1.953 . S
Zn28 O25 1.945 . S
Zn28 O30 1.932 . S
Zn28 O37 1.977 . S
Zn28 O38 1.910 . S
O29 Zn26 1.933 . S
O29 C40 1.226 . S
O30 Zn28 1.932 . S
O30 C40 1.307 . S
O31 Zn24 1.919 . S
O31 C42 1.253 . S
O32 Zn26 1.941 . S
O32 C42 1.283 . S
O33 Zn26 1.965 . S
O33 C41 1.303 . S
O34 Zn27 1.938 . S
O34 C41 1.247 . S
O35 Zn27 1.906 . S
O35 C43 1.304 . S
O36 Zn24 1.924 . S
O36 C44 1.311 . S
O37 Zn28 1.977 . S
O37 C43 1.272 . S
O38 Zn28 1.910 . S
O38 C44 1.231 . S
C39 O23 1.225 . S
C39 O45 1.298 . S
C40 O29 1.226 . S
C40 O30 1.307 . S
C41 O33 1.303 . S
C41 O34 1.247 . S
C42 O31 1.253 . S
C42 O32 1.283 . S
C43 O35 1.304 . S
C43 O37 1.272 . S
C44 O36 1.311 . S
C44 O38 1.231 . S
O45 Zn27 1.953 . S
O45 C39 1.298 . S
O46 Zn47 1.953 . S
O46 C62 1.225 . S
Zn47 O46 1.953 . S
Zn47 O48 1.949 . S
Zn47 O54 1.919 . S
Zn47 O59 1.924 . S
O48 Zn47 1.949 . S
O48 Zn49 1.923 . S
O48 Zn50 1.950 . S
O48 Zn51 1.945 . S
Zn49 O48 1.923 . S
Zn49 O52 1.933 . S
Zn49 O55 1.941 . S
Zn49 O56 1.965 . S
Zn50 O48 1.950 . S
Zn50 O57 1.938 . S
Zn50 O58 1.906 . S
Zn50 O68 1.953 . S
Zn51 O48 1.945 . S
Zn51 O53 1.932 . S
Zn51 O60 1.977 . S
Zn51 O61 1.910 . S
O52 Zn49 1.933 . S
O52 C63 1.226 . S
O53 Zn51 1.932 . S
O53 C63 1.307 . S
O54 Zn47 1.919 . S
O54 C65 1.253 . S
O55 Zn49 1.941 . S
O55 C65 1.283 . S
O56 Zn49 1.965 . S
O56 C64 1.303 . S
O57 Zn50 1.938 . S
O57 C64 1.247 . S
O58 Zn50 1.906 . S
O58 C66 1.304 . S
O59 Zn47 1.924 . S
O59 C67 1.311 . S
O60 Zn51 1.977 . S
O60 C66 1.272 . S
O61 Zn51 1.910 . S
O61 C67 1.231 . S
C62 O46 1.225 . S
C62 O68 1.298 . S
C63 O52 1.226 . S
C63 O53 1.307 . S
C64 O56 1.303 . S
C64 O57 1.247 . S
C65 O54 1.253 . S
C65 O55 1.283 . S
C66 O58 1.304 . S
C66 O60 1.272 . S
C67 O59 1.311 . S
C67 O61 1.231 . S
O68 Zn50 1.953 . S
O68 C62 1.298 . S
O69 Zn70 1.953 1_554 S
O69 C85 1.225 . S
Zn70 O69 1.953 1_556 S
Zn70 O71 1.949 1_556 S
Zn70 O77 1.919 1_556 S
Zn70 O82 1.924 . S
O71 Zn70 1.949 1_554 S
O71 Zn72 1.923 . S
O71 Zn73 1.950 . S
O71 Zn74 1.945 1_554 S
Zn72 O71 1.923 . S
Zn72 O75 1.933 . S
Zn72 O78 1.941 . S
Zn72 O79 1.965 . S
Zn73 O71 1.950 . S
Zn73 O80 1.938 . S
Zn73 O81 1.906 . S
Zn73 O91 1.953 . S
Zn74 O71 1.945 1_556 S
Zn74 O76 1.932 . S
Zn74 O83 1.977 . S
Zn74 O84 1.910 . S
O75 Zn72 1.933 . S
O75 C86 1.226 1_554 S
O76 Zn74 1.932 . S
O76 C86 1.307 . S
O77 Zn70 1.919 1_554 S
O77 C88 1.253 . S
O78 Zn72 1.941 . S
O78 C88 1.283 . S
O79 Zn72 1.965 . S
O79 C87 1.303 . S
O80 Zn73 1.938 . S
O80 C87 1.247 . S
O81 Zn73 1.906 . S
O81 C89 1.304 1_554 S
O82 Zn70 1.924 . S
O82 C90 1.311 . S
O83 Zn74 1.977 . S
O83 C89 1.272 . S
O84 Zn74 1.910 . S
O84 C90 1.231 . S
C85 O69 1.225 . S
C85 O91 1.298 . S
C86 O75 1.226 1_556 S
C86 O76 1.307 . S
C87 O79 1.303 . S
C87 O80 1.247 . S
C88 O77 1.253 . S
C88 O78 1.283 . S
C89 O81 1.304 1_556 S
C89 O83 1.272 . S
C90 O82 1.311 . S
C90 O84 1.231 . S
O91 Zn73 1.953 . S
O91 C85 1.298 . S
O92 Zn93 1.953 . S
O92 C108 1.225 . S
Zn93 O92 1.953 . S
Zn93 O94 1.949 . S
Zn93 O100 1.919 . S
Zn93 O105 1.924 . S
O94 Zn93 1.949 . S
O94 Zn95 1.923 . S
O94 Zn96 1.950 . S
O94 Zn97 1.945 . S
Zn95 O94 1.923 . S
Zn95 O98 1.933 . S
Zn95 O101 1.941 . S
Zn95 O102 1.965 . S
Zn96 O94 1.950 . S
Zn96 O103 1.938 . S
Zn96 O104 1.906 . S
Zn96 O114 1.953 . S
Zn97 O94 1.945 . S
Zn97 O99 1.932 . S
Zn97 O106 1.977 . S
Zn97 O107 1.910 . S
O98 Zn95 1.933 . S
O98 C109 1.226 . S
O99 Zn97 1.932 . S
O99 C109 1.307 . S
O100 Zn93 1.919 . S
O100 C111 1.253 . S
O101 Zn95 1.941 . S
O101 C111 1.283 . S
O102 Zn95 1.965 . S
O102 C110 1.303 . S
O103 Zn96 1.938 . S
O103 C110 1.247 . S
O104 Zn96 1.906 . S
O104 C112 1.304 . S
O105 Zn93 1.924 . S
O105 C113 1.311 . S
O106 Zn97 1.977 . S
O106 C112 1.272 . S
O107 Zn97 1.910 . S
O107 C113 1.231 . S
C108 O92 1.225 . S
C108 O114 1.298 . S
C109 O98 1.226 . S
C109 O99 1.307 . S
C110 O102 1.303 . S
C110 O103 1.247 . S
C111 O100 1.253 . S
C111 O101 1.283 . S
C112 O104 1.304 . S
C112 O106 1.272 . S
C113 O105 1.311 . S
C113 O107 1.231 . S
O114 Zn96 1.953 . S
O114 C108 1.298 . S
O115 Zn116 1.953 . S
O115 C131 1.225 . S
Zn116 O115 1.953 . S
Zn116 O117 1.949 . S
Zn116 O123 1.919 . S
Zn116 O128 1.924 . S
O117 Zn116 1.949 . S
O117 Zn118 1.923 . S
O117 Zn119 1.950 . S
O117 Zn120 1.945 . S
Zn118 O117 1.923 . S
Zn118 O121 1.933 . S
Zn118 O124 1.941 . S
Zn118 O125 1.965 . S
Zn119 O117 1.950 . S
Zn119 O126 1.938 . S
Zn119 O127 1.906 . S
Zn119 O137 1.953 . S
Zn120 O117 1.945 . S
Zn120 O122 1.932 . S
Zn120 O129 1.977 . S
Zn120 O130 1.910 . S
O121 Zn118 1.933 . S
O121 C132 1.226 . S
O122 Zn120 1.932 . S
O122 C132 1.307 . S
O123 Zn116 1.919 . S
O123 C134 1.253 . S
O124 Zn118 1.941 . S
O124 C134 1.283 . S
O125 Zn118 1.965 . S
O125 C133 1.303 . S
O126 Zn119 1.938 . S
O126 C133 1.247 . S
O127 Zn119 1.906 . S
O127 C135 1.304 . S
O128 Zn116 1.924 . S
O128 C136 1.311 . S
O129 Zn120 1.977 . S
O129 C135 1.272 . S
O130 Zn120 1.910 . S
O130 C136 1.231 . S
C131 O115 1.225 . S
C131 O137 1.298 . S
C132 O121 1.226 . S
C132 O122 1.307 . S
C133 O125 1.303 . S
C133 O126 1.247 . S
C134 O123 1.253 . S
C134 O124 1.283 . S
C135 O127 1.304 . S
C135 O129 1.272 . S
C136 O128 1.311 . S
C136 O130 1.231 . S
O137 Zn119 1.953 . S
O137 C131 1.298 . S
C138 C139 1.391 . S
C138 C140 1.394 . S
C138 H154 0.931 . S
C139 C138 1.391 . S
C139 C143 1.376 . S
C140 C138 1.394 . S
C140 C141 1.369 . S
C140 C144 1.531 . S
C141 C140 1.369 . S
C141 C142 1.410 . S
C141 C149 1.503 . S
C142 C141 1.410 . S
C142 C143 1.392 . S
C142 C145 1.511 . S
C143 C139 1.376 . S
C143 C142 1.392 . S
C143 H155 0.929 . S
C144 C140 1.531 . S
C144 H156 0.960 . S
C144 H157 0.962 . S
C144 H158 0.960 . S
C145 C142 1.511 . S
C145 H159 0.961 . S
C145 H160 0.961 . S
C145 H161 0.961 1_556 S
C146 C147 1.370 . S
C146 C148 1.363 . S
C146 H162 0.931 . S
C147 C146 1.370 . S
C147 C151 1.408 . S
C148 C146 1.363 . S
C148 C149 1.370 . S
C148 C152 1.524 . S
C149 C141 1.503 . S
C149 C148 1.370 . S
C149 C150 1.403 . S
C150 C149 1.403 . S
C150 C151 1.404 . S
C150 C153 1.539 . S
C151 C147 1.408 . S
C151 C150 1.404 . S
C151 H163 0.930 . S
C152 C148 1.524 . S
C152 H164 0.956 . S
C152 H165 0.961 . S
C152 H166 0.961 . S
C153 C150 1.539 . S
C153 H167 0.958 . S
C153 H168 0.961 . S
C153 H169 0.960 . S
H154 C138 0.931 . S
H155 C143 0.929 . S
H156 C144 0.960 . S
H157 C144 0.962 . S
H158 C144 0.960 . S
H159 C145 0.961 . S
H160 C145 0.961 . S
H161 C145 0.961 1_554 S
H162 C146 0.931 . S
H163 C151 0.930 . S
H164 C152 0.956 . S
H165 C152 0.961 . S
H166 C152 0.961 . S
H167 C153 0.958 . S
H168 C153 0.961 . S
H169 C153 0.960 . S
C170 C171 1.391 . S
C170 C172 1.394 . S
C170 H186 0.931 . S
C171 C170 1.391 . S
C171 C175 1.376 . S
C172 C170 1.394 . S
C172 C173 1.369 . S
C172 C176 1.531 . S
C173 C172 1.369 . S
C173 C174 1.410 . S
C173 C181 1.503 1_455 S
C174 C173 1.410 . S
C174 C175 1.392 . S
C174 C177 1.511 1_455 S
C175 C171 1.376 . S
C175 C174 1.392 . S
C175 H187 0.929 1_554 S
C176 C172 1.531 . S
C176 H188 0.960 . S
C176 H189 0.962 . S
C176 H190 0.960 . S
C177 C174 1.511 1_655 S
C177 H191 0.961 1_554 S
C177 H192 0.961 . S
C177 H193 0.961 . S
C178 C179 1.370 . S
C178 C180 1.363 . S
C178 H194 0.931 . S
C179 C178 1.370 . S
C179 C183 1.408 . S
C180 C178 1.363 . S
C180 C181 1.370 . S
C180 C184 1.524 . S
C181 C173 1.503 1_655 S
C181 C180 1.370 . S
C181 C182 1.403 . S
C182 C181 1.403 . S
C182 C183 1.404 . S
C182 C185 1.539 . S
C183 C179 1.408 . S
C183 C182 1.404 . S
C183 H195 0.930 . S
C184 C180 1.524 . S
C184 H196 0.956 . S
C184 H197 0.961 . S
C184 H198 0.961 . S
C185 C182 1.539 . S
C185 H199 0.958 . S
C185 H200 0.961 . S
C185 H201 0.960 . S
H186 C170 0.931 . S
H187 C175 0.929 1_556 S
H188 C176 0.960 . S
H189 C176 0.962 . S
H190 C176 0.960 . S
H191 C177 0.961 1_556 S
H192 C177 0.961 . S
H193 C177 0.961 . S
H194 C178 0.931 . S
H195 C183 0.930 . S
H196 C184 0.956 . S
H197 C184 0.961 . S
H198 C184 0.961 . S
H199 C185 0.958 . S
H200 C185 0.961 . S
H201 C185 0.960 . S
C202 C203 1.391 . S
C202 C204 1.394 . S
C202 H218 0.931 . S
C203 C202 1.391 . S
C203 C207 1.376 . S
C204 C202 1.394 . S
C204 C205 1.369 . S
C204 C208 1.531 . S
C205 C204 1.369 . S
C205 C206 1.410 . S
C205 C213 1.503 1_545 S
C206 C205 1.410 . S
C206 C207 1.392 . S
C206 C209 1.511 1_545 S
C207 C203 1.376 . S
C207 C206 1.392 . S
C207 H219 0.929 . S
C208 C204 1.531 . S
C208 H220 0.960 . S
C208 H221 0.962 . S
C208 H222 0.960 . S
C209 C206 1.511 1_565 S
C209 H223 0.961 . S
C209 H224 0.961 . S
C209 H225 0.961 . S
C210 C211 1.370 . S
C210 C212 1.363 . S
C210 H226 0.931 . S
C211 C210 1.370 . S
C211 C215 1.408 . S
C212 C210 1.363 . S
C212 C213 1.370 . S
C212 C216 1.524 . S
C213 C205 1.503 1_565 S
C213 C212 1.370 . S
C213 C214 1.403 . S
C214 C213 1.403 . S
C214 C215 1.404 . S
C214 C217 1.539 . S
C215 C211 1.408 . S
C215 C214 1.404 . S
C215 H227 0.930 . S
C216 C212 1.524 . S
C216 H228 0.956 . S
C216 H229 0.961 . S
C216 H230 0.961 . S
C217 C214 1.539 . S
C217 H231 0.958 . S
C217 H232 0.961 . S
C217 H233 0.960 . S
H218 C202 0.931 . S
H219 C207 0.929 . S
H220 C208 0.960 . S
H221 C208 0.962 . S
H222 C208 0.960 . S
H223 C209 0.961 . S
H224 C209 0.961 . S
H225 C209 0.961 . S
H226 C210 0.931 . S
H227 C215 0.930 . S
H228 C216 0.956 . S
H229 C216 0.961 . S
H230 C216 0.961 . S
H231 C217 0.958 . S
H232 C217 0.961 . S
H233 C217 0.960 . S
C234 C235 1.391 . S
C234 C236 1.394 . S
C234 H250 0.931 . S
C235 C234 1.391 . S
C235 C239 1.376 . S
C236 C234 1.394 . S
C236 C237 1.369 . S
C236 C240 1.531 . S
C237 C236 1.369 . S
C237 C238 1.410 . S
C237 C245 1.503 . S
C238 C237 1.410 . S
C238 C239 1.392 . S
C238 C241 1.511 . S
C239 C235 1.376 . S
C239 C238 1.392 . S
C239 H251 0.929 . S
C240 C236 1.531 . S
C240 H252 0.960 . S
C240 H253 0.962 . S
C240 H254 0.960 . S
C241 C238 1.511 . S
C241 H255 0.961 . S
C241 H256 0.961 . S
C241 H257 0.961 . S
C242 C243 1.370 . S
C242 C244 1.363 . S
C242 H258 0.931 1_556 S
C243 C242 1.370 . S
C243 C247 1.408 . S
C244 C242 1.363 . S
C244 C245 1.370 . S
C244 C248 1.524 . S
C245 C237 1.503 . S
C245 C244 1.370 . S
C245 C246 1.403 . S
C246 C245 1.403 . S
C246 C247 1.404 . S
C246 C249 1.539 . S
C247 C243 1.408 . S
C247 C246 1.404 . S
C247 H259 0.930 . S
C248 C244 1.524 . S
C248 H260 0.956 . S
C248 H261 0.961 . S
C248 H262 0.961 1_556 S
C249 C246 1.539 . S
C249 H263 0.958 . S
C249 H264 0.961 . S
C249 H265 0.960 . S
H250 C234 0.931 . S
H251 C239 0.929 . S
H252 C240 0.960 . S
H253 C240 0.962 . S
H254 C240 0.960 . S
H255 C241 0.961 . S
H256 C241 0.961 . S
H257 C241 0.961 . S
H258 C242 0.931 1_554 S
H259 C247 0.930 . S
H260 C248 0.956 . S
H261 C248 0.961 . S
H262 C248 0.961 1_554 S
H263 C249 0.958 . S
H264 C249 0.961 . S
H265 C249 0.960 . S
C266 C267 1.391 . S
C266 C268 1.394 . S
C266 H282 0.931 . S
C267 C266 1.391 . S
C267 C271 1.376 . S
C268 C266 1.394 . S
C268 C269 1.369 . S
C268 C272 1.531 . S
C269 C268 1.369 . S
C269 C270 1.410 . S
C269 C277 1.503 . S
C270 C269 1.410 . S
C270 C271 1.392 . S
C270 C273 1.511 . S
C271 C267 1.376 . S
C271 C270 1.392 . S
C271 H283 0.929 . S
C272 C268 1.531 . S
C272 H284 0.960 . S
C272 H285 0.962 . S
C272 H286 0.960 . S
C273 C270 1.511 . S
C273 H287 0.961 . S
C273 H288 0.961 1_455 S
C273 H289 0.961 . S
C274 C275 1.370 . S
C274 C276 1.363 . S
C274 H290 0.931 . S
C275 C274 1.370 . S
C275 C279 1.408 . S
C276 C274 1.363 . S
C276 C277 1.370 1_655 S
C276 C280 1.524 . S
C277 C269 1.503 . S
C277 C276 1.370 1_455 S
C277 C278 1.403 1_455 S
C278 C277 1.403 1_655 S
C278 C279 1.404 . S
C278 C281 1.539 1_655 S
C279 C275 1.408 . S
C279 C278 1.404 . S
C279 H291 0.930 1_554 S
C280 C276 1.524 . S
C280 H292 0.950 1_655 S
C280 H293 0.961 . S
C280 H294 0.961 . S
C281 C278 1.539 1_455 S
C281 H295 0.958 1_554 S
C281 H296 0.961 1_554 S
C281 H297 0.960 . S
H282 C266 0.931 . S
H283 C271 0.929 . S
H284 C272 0.960 . S
H285 C272 0.962 . S
H286 C272 0.960 . S
H287 C273 0.961 . S
H288 C273 0.961 1_655 S
H289 C273 0.961 . S
H290 C274 0.931 . S
H291 C279 0.930 1_556 S
H292 C280 0.950 1_455 S
H293 C280 0.961 . S
H294 C280 0.961 . S
H295 C281 0.958 1_556 S
H296 C281 0.961 1_556 S
H297 C281 0.960 . S
C298 C299 1.391 . S
C298 C300 1.394 . S
C298 H314 0.931 . S
C299 C298 1.391 . S
C299 C303 1.376 . S
C300 C298 1.394 . S
C300 C301 1.369 . S
C300 C304 1.531 . S
C301 C300 1.369 . S
C301 C302 1.410 . S
C301 C309 1.503 . S
C302 C301 1.410 . S
C302 C303 1.392 . S
C302 C305 1.511 . S
C303 C299 1.376 . S
C303 C302 1.392 . S
C303 H315 0.929 . S
C304 C300 1.531 . S
C304 H316 0.960 . S
C304 H317 0.962 . S
C304 H318 0.960 . S
C305 C302 1.511 . S
C305 H319 0.961 . S
C305 H320 0.961 1_545 S
C305 H321 0.961 . S
C306 C307 1.370 . S
C306 C308 1.363 . S
C306 H322 0.931 . S
C307 C306 1.370 . S
C307 C311 1.408 . S
C308 C306 1.363 . S
C308 C309 1.370 1_565 S
C308 C312 1.524 . S
C309 C301 1.503 . S
C309 C308 1.370 1_545 S
C309 C310 1.403 1_545 S
C310 C309 1.403 1_565 S
C310 C311 1.404 . S
C310 C313 1.539 1_565 S
C311 C307 1.408 . S
C311 C310 1.404 . S
C311 H323 0.930 . S
C312 C308 1.524 . S
C312 H324 0.956 1_565 S
C312 H325 0.962 . S
C312 H326 0.961 . S
C313 C310 1.539 1_545 S
C313 H327 0.958 . S
C313 H328 0.936 1_545 S
C313 H329 0.960 . S
H314 C298 0.931 . S
H315 C303 0.929 . S
H316 C304 0.960 . S
H317 C304 0.962 . S
H318 C304 0.960 . S
H319 C305 0.961 . S
H320 C305 0.961 1_565 S
H321 C305 0.961 . S
H322 C306 0.931 . S
H323 C311 0.930 . S
H324 C312 0.956 1_545 S
H325 C312 0.962 . S
H326 C312 0.961 . S
H327 C313 0.958 . S
H328 C313 0.936 1_565 S
H329 C313 0.960 . S
C330 C331 1.391 . S
C330 C332 1.394 . S
C330 H346 0.931 . S
C331 C330 1.391 . S
C331 C335 1.376 . S
C332 C330 1.394 . S
C332 C333 1.369 . S
C332 C336 1.531 . S
C333 C332 1.369 . S
C333 C334 1.410 . S
C333 C341 1.503 . S
C334 C333 1.410 . S
C334 C335 1.392 . S
C334 C337 1.511 . S
C335 C331 1.376 . S
C335 C334 1.392 . S
C335 H347 0.929 . S
C336 C332 1.531 . S
C336 H348 0.960 . S
C336 H349 0.962 . S
C336 H350 0.960 . S
C337 C334 1.511 . S
C337 H351 0.961 . S
C337 H352 0.961 . S
C337 H353 0.961 . S
C338 C339 1.370 . S
C338 C340 1.363 . S
C338 H354 0.931 . S
C339 C338 1.370 . S
C339 C343 1.408 . S
C340 C338 1.363 . S
C340 C341 1.370 . S
C340 C344 1.524 . S
C341 C333 1.503 . S
C341 C340 1.370 . S
C341 C342 1.403 . S
C342 C341 1.403 . S
C342 C343 1.404 . S
C342 C345 1.539 . S
C343 C339 1.408 . S
C343 C342 1.404 . S
C343 H355 0.930 . S
C344 C340 1.524 . S
C344 H356 0.956 . S
C344 H357 0.961 . S
C344 H358 0.961 . S
C345 C342 1.539 . S
C345 H359 0.958 . S
C345 H360 0.961 . S
C345 H361 0.960 . S
H346 C330 0.931 . S
H347 C335 0.929 . S
H348 C336 0.960 . S
H349 C336 0.962 . S
H350 C336 0.960 . S
H351 C337 0.961 . S
H352 C337 0.961 . S
H353 C337 0.961 . S
H354 C338 0.931 . S
H355 C343 0.930 . S
H356 C344 0.956 . S
H357 C344 0.961 . S
H358 C344 0.961 . S
H359 C345 0.958 . S
H360 C345 0.961 . S
H361 C345 0.960 . S
C362 C363 1.391 . S
C362 C364 1.394 1_554 S
C362 H378 0.931 . S
C363 C362 1.391 . S
C363 C367 1.376 . S
C364 C362 1.394 1_556 S
C364 C365 1.369 . S
C364 C368 1.531 . S
C365 C364 1.369 . S
C365 C366 1.410 . S
C365 C373 1.503 . S
C366 C365 1.410 . S
C366 C367 1.392 1_556 S
C366 C369 1.511 . S
C367 C363 1.376 . S
C367 C366 1.392 1_554 S
C367 H379 0.929 . S
C368 C364 1.531 . S
C368 H380 0.960 . S
C368 H381 0.962 . S
C368 H382 0.960 . S
C369 C366 1.511 . S
C369 H383 0.961 . S
C369 H384 0.961 . S
C369 H385 0.961 . S
C370 C371 1.370 . S
C370 C372 1.363 . S
C370 H386 0.931 . S
C371 C370 1.370 . S
C371 C375 1.408 . S
C372 C370 1.363 . S
C372 C373 1.370 . S
C372 C376 1.524 . S
C373 C365 1.503 . S
C373 C372 1.370 . S
C373 C374 1.403 . S
C374 C373 1.403 . S
C374 C375 1.404 . S
C374 C377 1.539 . S
C375 C371 1.408 . S
C375 C374 1.404 . S
C375 H387 0.930 . S
C376 C372 1.524 . S
C376 H388 0.956 . S
C376 H389 0.961 . S
C376 H390 0.961 . S
C377 C374 1.539 . S
C377 H391 0.958 . S
C377 H392 0.961 . S
C377 H393 0.960 . S
H378 C362 0.931 . S
H379 C367 0.929 . S
H380 C368 0.960 . S
H381 C368 0.962 . S
H382 C368 0.960 . S
H383 C369 0.961 . S
H384 C369 0.961 . S
H385 C369 0.961 . S
H386 C370 0.931 . S
H387 C375 0.930 . S
H388 C376 0.956 . S
H389 C376 0.961 . S
H390 C376 0.961 . S
H391 C377 0.958 . S
H392 C377 0.961 . S
H393 C377 0.960 . S
C394 C395 1.391 . S
C394 C396 1.394 . S
C394 H410 0.931 . S
C395 C394 1.391 . S
C395 C399 1.376 . S
C396 C394 1.394 . S
C396 C397 1.369 . S
C396 C400 1.531 . S
C397 C396 1.369 . S
C397 C398 1.410 . S
C397 C405 1.503 . S
C398 C397 1.410 . S
C398 C399 1.392 . S
C398 C401 1.511 . S
C399 C395 1.376 . S
C399 C398 1.392 . S
C399 H411 0.929 . S
C400 C396 1.531 . S
C400 H412 0.960 . S
C400 H413 0.962 . S
C400 H414 0.960 . S
C401 C398 1.511 . S
C401 H415 0.961 . S
C401 H416 0.961 . S
C401 H417 0.961 . S
C402 C403 1.370 1_554 S
C402 C404 1.363 . S
C402 H418 0.931 1_554 S
C403 C402 1.370 1_556 S
C403 C407 1.408 . S
C404 C402 1.363 . S
C404 C405 1.370 . S
C404 C408 1.524 . S
C405 C397 1.503 . S
C405 C404 1.370 . S
C405 C406 1.403 . S
C406 C405 1.403 . S
C406 C407 1.404 1_554 S
C406 C409 1.539 . S
C407 C403 1.408 . S
C407 C406 1.404 1_556 S
C407 H419 0.930 . S
C408 C404 1.524 . S
C408 H420 0.956 . S
C408 H421 0.961 . S
C408 H422 0.961 . S
C409 C406 1.539 . S
C409 H423 0.958 . S
C409 H424 0.961 . S
C409 H425 0.960 . S
H410 C394 0.931 . S
H411 C399 0.929 . S
H412 C400 0.960 . S
H413 C400 0.962 . S
H414 C400 0.960 . S
H415 C401 0.961 . S
H416 C401 0.961 . S
H417 C401 0.961 . S
H418 C402 0.931 1_556 S
H419 C407 0.930 . S
H420 C408 0.956 . S
H421 C408 0.961 . S
H422 C408 0.961 . S
H423 C409 0.958 . S
H424 C409 0.961 . S
H425 C409 0.960 . S
C426 C427 1.391 . S
C426 C428 1.394 . S
C426 H442 0.931 . S
C427 C426 1.391 . S
C427 C431 1.376 . S
C428 C426 1.394 . S
C428 C429 1.369 . S
C428 C432 1.531 . S
C429 C428 1.369 . S
C429 C430 1.410 . S
C429 C437 1.503 . S
C430 C429 1.410 . S
C430 C431 1.392 . S
C430 C433 1.511 . S
C431 C427 1.376 . S
C431 C430 1.392 . S
C431 H443 0.929 . S
C432 C428 1.531 . S
C432 H444 0.960 . S
C432 H445 0.962 . S
C432 H446 0.960 . S
C433 C430 1.511 . S
C433 H447 0.961 . S
C433 H448 0.961 . S
C433 H449 0.961 . S
C434 C435 1.370 . S
C434 C436 1.363 . S
C434 H450 0.931 . S
C435 C434 1.370 . S
C435 C439 1.408 . S
C436 C434 1.363 . S
C436 C437 1.370 . S
C436 C440 1.524 . S
C437 C429 1.503 . S
C437 C436 1.370 . S
C437 C438 1.403 . S
C438 C437 1.403 . S
C438 C439 1.404 . S
C438 C441 1.539 . S
C439 C435 1.408 . S
C439 C438 1.404 . S
C439 H451 0.930 . S
C440 C436 1.524 . S
C440 H452 0.956 . S
C440 H453 0.961 . S
C440 H454 0.961 . S
C441 C438 1.539 . S
C441 H455 0.958 . S
C441 H456 0.961 . S
C441 H457 0.960 . S
H442 C426 0.931 . S
H443 C431 0.929 . S
H444 C432 0.960 . S
H445 C432 0.962 . S
H446 C432 0.960 . S
H447 C433 0.961 . S
H448 C433 0.961 . S
H449 C433 0.961 . S
H450 C434 0.931 . S
H451 C439 0.930 . S
H452 C440 0.956 . S
H453 C440 0.961 . S
H454 C440 0.961 . S
H455 C441 0.958 . S
H456 C441 0.961 . S
H457 C441 0.960 . S
C458 C459 1.391 . S
C458 C460 1.394 . S
C458 H474 0.931 . S
C459 C458 1.391 . S
C459 C463 1.376 . S
C460 C458 1.394 . S
C460 C461 1.369 . S
C460 C464 1.531 . S
C461 C460 1.369 . S
C461 C462 1.410 . S
C461 C469 1.503 . S
C462 C461 1.410 . S
C462 C463 1.392 . S
C462 C465 1.511 . S
C463 C459 1.376 . S
C463 C462 1.392 . S
C463 H475 0.929 . S
C464 C460 1.531 . S
C464 H476 0.960 . S
C464 H477 0.962 . S
C464 H478 0.960 . S
C465 C462 1.511 . S
C465 H479 0.961 . S
C465 H480 0.961 . S
C465 H481 0.961 . S
C466 C467 1.370 . S
C466 C468 1.363 1_554 S
C466 H482 0.931 . S
C467 C466 1.370 . S
C467 C471 1.408 . S
C468 C466 1.363 1_556 S
C468 C469 1.370 . S
C468 C472 1.524 . S
C469 C461 1.503 . S
C469 C468 1.370 . S
C469 C470 1.403 . S
C470 C469 1.403 . S
C470 C471 1.404 1_556 S
C470 C473 1.539 . S
C471 C467 1.408 . S
C471 C470 1.404 1_554 S
C471 H483 0.930 . S
C472 C468 1.524 . S
C472 H484 0.956 . S
C472 H485 0.961 . S
C472 H486 0.961 . S
C473 C470 1.539 . S
C473 H487 0.958 . S
C473 H488 0.961 . S
C473 H489 0.960 . S
H474 C458 0.931 . S
H475 C463 0.929 . S
H476 C464 0.960 . S
H477 C464 0.962 . S
H478 C464 0.960 . S
H479 C465 0.961 . S
H480 C465 0.961 . S
H481 C465 0.961 . S
H482 C466 0.931 . S
H483 C471 0.930 . S
H484 C472 0.956 . S
H485 C472 0.961 . S
H486 C472 0.961 . S
H487 C473 0.958 . S
H488 C473 0.961 . S
H489 C473 0.960 . S
C490 C491 1.391 . S
C490 C492 1.394 . S
C490 H506 0.931 . S
C491 C490 1.391 . S
C491 C495 1.376 . S
C492 C490 1.394 . S
C492 C493 1.369 . S
C492 C496 1.531 . S
C493 C492 1.369 . S
C493 C494 1.410 . S
C493 C501 1.503 . S
C494 C493 1.410 . S
C494 C495 1.392 . S
C494 C497 1.511 . S
C495 C491 1.376 . S
C495 C494 1.392 . S
C495 H507 0.929 . S
C496 C492 1.531 . S
C496 H508 0.960 . S
C496 H509 0.962 . S
C496 H510 0.960 . S
C497 C494 1.511 . S
C497 H511 0.961 . S
C497 H512 0.961 . S
C497 H513 0.961 . S
C498 C499 1.370 1_554 S
C498 C500 1.363 . S
C498 H514 0.931 1_554 S
C499 C498 1.370 1_556 S
C499 C503 1.408 . S
C500 C498 1.363 . S
C500 C501 1.370 . S
C500 C504 1.524 . S
C501 C493 1.503 . S
C501 C500 1.370 . S
C501 C502 1.403 . S
C502 C501 1.403 . S
C502 C503 1.404 1_554 S
C502 C505 1.539 . S
C503 C499 1.408 . S
C503 C502 1.404 1_556 S
C503 H515 0.930 . S
C504 C500 1.524 . S
C504 H516 0.956 . S
C504 H517 0.961 . S
C504 H518 0.961 . S
C505 C502 1.539 . S
C505 H519 0.958 . S
C505 H520 0.961 . S
C505 H521 0.960 . S
H506 C490 0.931 . S
H507 C495 0.929 . S
H508 C496 0.960 . S
H509 C496 0.962 . S
H510 C496 0.960 . S
H511 C497 0.961 . S
H512 C497 0.961 . S
H513 C497 0.961 . S
H514 C498 0.931 1_556 S
H515 C503 0.930 . S
H516 C504 0.956 . S
H517 C504 0.961 . S
H518 C504 0.961 . S
H519 C505 0.958 . S
H520 C505 0.961 . S
H521 C505 0.960 . S
C522 C523 1.391 . S
C522 C524 1.394 . S
C522 H538 0.931 . S
C523 C522 1.391 . S
C523 C527 1.376 . S
C524 C522 1.394 . S
C524 C525 1.369 . S
C524 C528 1.531 . S
C525 C524 1.369 . S
C525 C526 1.410 . S
C525 C533 1.503 . S
C526 C525 1.410 . S
C526 C527 1.392 . S
C526 C529 1.511 . S
C527 C523 1.376 . S
C527 C526 1.392 . S
C527 H539 0.929 . S
C528 C524 1.531 . S
C528 H540 0.960 . S
C528 H541 0.962 . S
C528 H542 0.960 . S
C529 C526 1.511 . S
C529 H543 0.961 . S
C529 H544 0.961 . S
C529 H545 0.961 . S
C530 C531 1.370 . S
C530 C532 1.363 . S
C530 H546 0.931 . S
C531 C530 1.370 . S
C531 C535 1.408 . S
C532 C530 1.363 . S
C532 C533 1.370 . S
C532 C536 1.524 . S
C533 C525 1.503 . S
C533 C532 1.370 . S
C533 C534 1.403 . S
C534 C533 1.403 . S
C534 C535 1.404 . S
C534 C537 1.539 . S
C535 C531 1.408 . S
C535 C534 1.404 . S
C535 H547 0.930 . S
C536 C532 1.524 . S
C536 H548 0.956 . S
C536 H549 0.961 . S
C536 H550 0.961 . S
C537 C534 1.539 . S
C537 H551 0.958 . S
C537 H552 0.964 . S
C537 H553 0.960 . S
H538 C522 0.931 . S
H539 C527 0.929 . S
H540 C528 0.960 . S
H541 C528 0.962 . S
H542 C528 0.960 . S
H543 C529 0.961 . S
H544 C529 0.961 . S
H545 C529 0.961 . S
H546 C530 0.931 . S
H547 C535 0.930 . S
H548 C536 0.956 . S
H549 C536 0.961 . S
H550 C536 0.961 . S
H551 C537 0.958 . S
H552 C537 0.964 . S
H553 C537 0.960 . S
C554 C555 1.391 . S
C554 C556 1.394 . S
C554 H570 0.931 . S
C555 C554 1.391 . S
C555 C559 1.376 . S
C556 C554 1.394 . S
C556 C557 1.369 . S
C556 C560 1.531 . S
C557 C556 1.369 . S
C557 C558 1.410 . S
C557 C565 1.503 . S
C558 C557 1.410 . S
C558 C559 1.392 . S
C558 C561 1.511 . S
C559 C555 1.376 . S
C559 C558 1.392 . S
C559 H571 0.929 . S
C560 C556 1.531 . S
C560 H572 0.960 . S
C560 H573 0.962 . S
C560 H574 0.960 . S
C561 C558 1.511 . S
C561 H575 0.961 . S
C561 H576 0.961 . S
C561 H577 0.961 . S
C562 C563 1.370 . S
C562 C564 1.363 . S
C562 H578 0.931 . S
C563 C562 1.370 . S
C563 C567 1.408 . S
C564 C562 1.363 . S
C564 C565 1.370 . S
C564 C568 1.524 . S
C565 C557 1.503 . S
C565 C564 1.370 . S
C565 C566 1.403 . S
C566 C565 1.403 . S
C566 C567 1.404 . S
C566 C569 1.539 . S
C567 C563 1.408 . S
C567 C566 1.404 . S
C567 H579 0.930 . S
C568 C564 1.524 . S
C568 H580 0.956 . S
C568 H581 0.961 . S
C568 H582 0.961 . S
C569 C566 1.539 . S
C569 H583 0.958 . S
C569 H584 0.961 . S
C569 H585 0.960 . S
H570 C554 0.931 . S
H571 C559 0.929 . S
H572 C560 0.960 . S
H573 C560 0.962 . S
H574 C560 0.960 . S
H575 C561 0.961 . S
H576 C561 0.961 . S
H577 C561 0.961 . S
H578 C562 0.931 . S
H579 C567 0.930 . S
H580 C568 0.956 . S
H581 C568 0.961 . S
H582 C568 0.961 . S
H583 C569 0.958 . S
H584 C569 0.961 . S
H585 C569 0.960 . S
C586 C587 1.391 . S
C586 C588 1.394 . S
C586 H602 0.931 . S
C587 C586 1.391 . S
C587 C591 1.376 . S
C588 C586 1.394 . S
C588 C589 1.369 . S
C588 C592 1.531 . S
C589 C588 1.369 . S
C589 C590 1.410 . S
C589 C597 1.503 . S
C590 C589 1.410 . S
C590 C591 1.392 . S
C590 C593 1.511 . S
C591 C587 1.376 . S
C591 C590 1.392 . S
C591 H603 0.929 . S
C592 C588 1.531 . S
C592 H604 0.960 . S
C592 H605 0.962 . S
C592 H606 0.960 . S
C593 C590 1.511 . S
C593 H607 0.961 . S
C593 H608 0.961 . S
C593 H609 0.961 . S
C594 C595 1.370 . S
C594 C596 1.363 . S
C594 H610 0.931 . S
C595 C594 1.370 . S
C595 C599 1.408 . S
C596 C594 1.363 . S
C596 C597 1.370 . S
C596 C600 1.524 . S
C597 C589 1.503 . S
C597 C596 1.370 . S
C597 C598 1.403 . S
C598 C597 1.403 . S
C598 C599 1.404 . S
C598 C601 1.539 . S
C599 C595 1.408 . S
C599 C598 1.404 . S
C599 H611 0.930 . S
C600 C596 1.524 . S
C600 H612 0.956 . S
C600 H613 0.961 . S
C600 H614 0.961 . S
C601 C598 1.539 . S
C601 H615 0.958 1_556 S
C601 H616 0.961 . S
C601 H617 0.960 . S
H602 C586 0.931 . S
H603 C591 0.929 . S
H604 C592 0.960 . S
H605 C592 0.962 . S
H606 C592 0.960 . S
H607 C593 0.961 . S
H608 C593 0.961 . S
H609 C593 0.961 . S
H610 C594 0.931 . S
H611 C599 0.930 . S
H612 C600 0.956 . S
H613 C600 0.961 . S
H614 C600 0.961 . S
H615 C601 0.958 1_554 S
H616 C601 0.961 . S
H617 C601 0.960 . S
C618 C619 1.391 . S
C618 C620 1.394 . S
C618 H634 0.931 . S
C619 C618 1.391 . S
C619 C623 1.376 . S
C620 C618 1.394 . S
C620 C621 1.369 . S
C620 C624 1.531 . S
C621 C620 1.369 . S
C621 C622 1.410 . S
C621 C629 1.503 . S
C622 C621 1.410 . S
C622 C623 1.392 . S
C622 C625 1.511 . S
C623 C619 1.376 . S
C623 C622 1.392 . S
C623 H635 0.929 . S
C624 C620 1.531 . S
C624 H636 0.960 . S
C624 H637 0.962 . S
C624 H638 0.960 . S
C625 C622 1.511 . S
C625 H639 0.961 . S
C625 H640 0.961 . S
C625 H641 0.961 . S
C626 C627 1.370 . S
C626 C628 1.363 . S
C626 H642 0.931 . S
C627 C626 1.370 . S
C627 C631 1.408 . S
C628 C626 1.363 . S
C628 C629 1.370 . S
C628 C632 1.524 . S
C629 C621 1.503 . S
C629 C628 1.370 . S
C629 C630 1.403 . S
C630 C629 1.403 . S
C630 C631 1.404 . S
C630 C633 1.539 . S
C631 C627 1.408 . S
C631 C630 1.404 . S
C631 H643 0.930 . S
C632 C628 1.524 . S
C632 H644 0.956 . S
C632 H645 0.961 . S
C632 H646 0.961 . S
C633 C630 1.539 . S
C633 H647 0.958 . S
C633 H648 0.961 . S
C633 H649 0.960 . S
H634 C618 0.931 . S
H635 C623 0.929 . S
H636 C624 0.960 . S
H637 C624 0.962 . S
H638 C624 0.960 . S
H639 C625 0.961 . S
H640 C625 0.961 . S
H641 C625 0.961 . S
H642 C626 0.931 . S
H643 C631 0.930 . S
H644 C632 0.956 . S
H645 C632 0.961 . S
H646 C632 0.961 . S
H647 C633 0.958 . S
H648 C633 0.961 . S
H649 C633 0.960 . S
C650 C651 1.391 . S
C650 C652 1.394 . S
C650 H666 0.931 . S
C651 C650 1.391 . S
C651 C655 1.376 . S
C652 C650 1.394 . S
C652 C653 1.369 . S
C652 C656 1.531 . S
C653 C652 1.369 . S
C653 C654 1.410 . S
C653 C661 1.503 . S
C654 C653 1.410 . S
C654 C655 1.392 . S
C654 C657 1.511 . S
C655 C651 1.376 . S
C655 C654 1.392 . S
C655 H667 0.929 . S
C656 C652 1.531 . S
C656 H668 0.960 . S
C656 H669 0.962 . S
C656 H670 0.960 . S
C657 C654 1.511 . S
C657 H671 0.961 . S
C657 H672 0.961 . S
C657 H673 0.961 . S
C658 C659 1.370 . S
C658 C660 1.363 . S
C658 H674 0.931 . S
C659 C658 1.370 . S
C659 C663 1.408 . S
C660 C658 1.363 . S
C660 C661 1.370 . S
C660 C664 1.524 . S
C661 C653 1.503 . S
C661 C660 1.370 . S
C661 C662 1.403 . S
C662 C661 1.403 . S
C662 C663 1.404 . S
C662 C665 1.539 . S
C663 C659 1.408 . S
C663 C662 1.404 . S
C663 H675 0.930 . S
C664 C660 1.524 . S
C664 H676 0.956 . S
C664 H677 0.961 . S
C664 H678 0.961 . S
C665 C662 1.539 . S
C665 H679 0.958 . S
C665 H680 0.961 . S
C665 H681 0.960 . S
H666 C650 0.931 . S
H667 C655 0.929 . S
H668 C656 0.960 . S
H669 C656 0.962 . S
H670 C656 0.960 . S
H671 C657 0.961 . S
H672 C657 0.961 . S
H673 C657 0.961 . S
H674 C658 0.931 . S
H675 C663 0.930 . S
H676 C664 0.956 . S
H677 C664 0.961 . S
H678 C664 0.961 . S
H679 C665 0.958 . S
H680 C665 0.961 . S
H681 C665 0.960 . S
C682 C683 1.391 . S
C682 C684 1.394 . S
C682 H698 0.931 . S
C683 C682 1.391 . S
C683 C687 1.376 . S
C684 C682 1.394 . S
C684 C685 1.369 . S
C684 C688 1.531 . S
C685 C684 1.369 . S
C685 C686 1.410 . S
C685 C693 1.503 . S
C686 C685 1.410 . S
C686 C687 1.392 . S
C686 C689 1.511 . S
C687 C683 1.376 . S
C687 C686 1.392 . S
C687 H699 0.929 . S
C688 C684 1.531 . S
C688 H700 0.960 . S
C688 H701 0.962 . S
C688 H702 0.960 . S
C689 C686 1.511 . S
C689 H703 0.961 . S
C689 H704 0.961 . S
C689 H705 0.961 . S
C690 C691 1.370 . S
C690 C692 1.363 . S
C690 H706 0.931 . S
C691 C690 1.370 . S
C691 C695 1.408 . S
C692 C690 1.363 . S
C692 C693 1.370 . S
C692 C696 1.524 . S
C693 C685 1.503 . S
C693 C692 1.370 . S
C693 C694 1.403 . S
C694 C693 1.403 . S
C694 C695 1.404 . S
C694 C697 1.539 . S
C695 C691 1.408 . S
C695 C694 1.404 . S
C695 H707 0.930 . S
C696 C692 1.524 . S
C696 H708 0.956 . S
C696 H709 0.961 . S
C696 H710 0.961 . S
C697 C694 1.539 . S
C697 H711 0.958 . S
C697 H712 0.961 . S
C697 H713 0.960 . S
H698 C682 0.931 . S
H699 C687 0.929 . S
H700 C688 0.960 . S
H701 C688 0.962 . S
H702 C688 0.960 . S
H703 C689 0.961 . S
H704 C689 0.961 . S
H705 C689 0.961 . S
H706 C690 0.931 . S
H707 C695 0.930 . S
H708 C696 0.956 . S
H709 C696 0.961 . S
H710 C696 0.961 . S
H711 C697 0.958 . S
H712 C697 0.961 . S
H713 C697 0.960 . S
C139 C131 1.473 . S
C147 C20 1.465 . S
C171 C16 1.442 . S
C179 C43 1.468 . S
C203 C39 1.442 . S
C211 C66 1.468 . S
C235 C62 1.485 . S
C243 C89 1.452 . S
C267 C112 1.441 . S
C275 C85 1.467 . S
C299 C135 1.449 . S
C307 C108 1.463 . S
C331 C21 0.799 . S
C339 C18 0.717 . S
C363 C44 0.650 . S
C371 C41 0.712 . S
C395 C67 0.711 . S
C403 C64 0.712 . S
C427 C90 0.650 . S
C435 C87 0.711 . S
C459 C110 0.707 . S
C467 C113 0.691 . S
C491 C136 0.723 . S
C499 C133 0.713 . S
C523 C19 1.602 . S
C531 C109 1.611 . S
C555 C42 1.586 . S
C563 C132 1.610 . S
C587 C17 1.624 . S
C595 C65 1.568 . S
C619 C40 1.619 . S
C627 C88 1.576 . S
C651 C111 1.601 . S
C659 C63 1.610 . S
C683 C86 1.603 . S
C691 C134 1.588 . S
