# Generated by pormake.
# Topology wjf, (4)-cn, num edge types: 1
# Building blocks:
#     Node 0, Type 0, BuildingBlock: KUFVIS_clean_sbu_0, # of connection points: 4
#     Node 1, Type 0, BuildingBlock: KUFVIS_clean_sbu_0, # of connection points: 4
#     Node 2, Type 0, BuildingBlock: KUFVIS_clean_sbu_0, # of connection points: 4
#     Node 3, Type 0, BuildingBlock: KUFVIS_clean_sbu_0, # of connection points: 4
#     Node 4, Type 0, BuildingBlock: KUFVIS_clean_sbu_0, # of connection points: 4
#     Node 5, Type 0, BuildingBlock: KUFVIS_clean_sbu_0, # of connection points: 4
#     Node 6, Type 0, BuildingBlock: KUFVIS_clean_sbu_0, # of connection points: 4
#     Node 7, Type 0, BuildingBlock: KUFVIS_clean_sbu_0, # of connection points: 4
#     Node 8, Type 0, BuildingBlock: KUFVIS_clean_sbu_0, # of connection points: 4
#     Node 9, Type 0, BuildingBlock: KUFVIS_clean_sbu_0, # of connection points: 4
#     Node 10, Type 0, BuildingBlock: KUFVIS_clean_sbu_0, # of connection points: 4
#     Node 11, Type 0, BuildingBlock: KUFVIS_clean_sbu_0, # of connection points: 4
#     Edge 12, Type (0, 0), BuildingBlock: UVAHIK_clean_linker_0, # of connection points: 2
#     Edge 13, Type (0, 0), BuildingBlock: UVAHIK_clean_linker_0, # of connection points: 2
#     Edge 14, Type (0, 0), BuildingBlock: UVAHIK_clean_linker_0, # of connection points: 2
#     Edge 15, Type (0, 0), BuildingBlock: UVAHIK_clean_linker_0, # of connection points: 2
#     Edge 16, Type (0, 0), BuildingBlock: UVAHIK_clean_linker_0, # of connection points: 2
#     Edge 17, Type (0, 0), BuildingBlock: UVAHIK_clean_linker_0, # of connection points: 2
#     Edge 18, Type (0, 0), BuildingBlock: UVAHIK_clean_linker_0, # of connection points: 2
#     Edge 19, Type (0, 0), BuildingBlock: UVAHIK_clean_linker_0, # of connection points: 2
#     Edge 20, Type (0, 0), BuildingBlock: UVAHIK_clean_linker_0, # of connection points: 2
#     Edge 21, Type (0, 0), BuildingBlock: UVAHIK_clean_linker_0, # of connection points: 2
#     Edge 22, Type (0, 0), BuildingBlock: UVAHIK_clean_linker_0, # of connection points: 2
#     Edge 23, Type (0, 0), BuildingBlock: UVAHIK_clean_linker_0, # of connection points: 2
#     Edge 24, Type (0, 0), BuildingBlock: UVAHIK_clean_linker_0, # of connection points: 2
#     Edge 25, Type (0, 0), BuildingBlock: UVAHIK_clean_linker_0, # of connection points: 2
#     Edge 26, Type (0, 0), BuildingBlock: UVAHIK_clean_linker_0, # of connection points: 2
#     Edge 27, Type (0, 0), BuildingBlock: UVAHIK_clean_linker_0, # of connection points: 2
#     Edge 28, Type (0, 0), BuildingBlock: UVAHIK_clean_linker_0, # of connection points: 2
#     Edge 29, Type (0, 0), BuildingBlock: UVAHIK_clean_linker_0, # of connection points: 2
#     Edge 30, Type (0, 0), BuildingBlock: UVAHIK_clean_linker_0, # of connection points: 2
#     Edge 31, Type (0, 0), BuildingBlock: UVAHIK_clean_linker_0, # of connection points: 2
#     Edge 32, Type (0, 0), BuildingBlock: UVAHIK_clean_linker_0, # of connection points: 2
#     Edge 33, Type (0, 0), BuildingBlock: UVAHIK_clean_linker_0, # of connection points: 2
#     Edge 34, Type (0, 0), BuildingBlock: UVAHIK_clean_linker_0, # of connection points: 2
#     Edge 35, Type (0, 0), BuildingBlock: UVAHIK_clean_linker_0, # of connection points: 2
# Relax obj value: 0.141
# Max RMSD: 0.203
# Mean RMSD: 0.178
data_MOF--net-wjf--node1-KUFVIS_clean_sbu_0--edge1-UVAHIK_clean_linker_0
_symmetry_space_group_name_H-M    P1
_symmetry_Int_Tables_number       1
_symmetry_cell_setting            triclinic
loop_
_symmetry_equiv_pos_as_xyz
'x, y, z'
_cell_length_a     61.876594
_cell_length_b     64.73783
_cell_length_c     36.6001
_cell_angle_alpha  90.125356
_cell_angle_beta   90.073748
_cell_angle_gamma 118.38907
loop_
_atom_site_label
_atom_site_type_symbol
_atom_site_fract_x
_atom_site_fract_y
_atom_site_fract_z
_atom_type_partial_charge
Mn0 Mn 0.3256 0.382 0.10816 0.0
Mn1 Mn 0.34092 0.43396 0.06858 0.0
C2 C 0.36603 0.41115 0.1098 0.0
C3 C 0.31048 0.35931 0.16052 0.0
C4 C 0.32967 0.38931 0.02633 0.0
O5 O 0.29274 0.38093 0.09757 0.0
O6 O 0.30573 0.41874 0.08246 0.0
C7 C 0.33573 0.45949 0.13223 0.0
N8 N 0.3497 0.45794 0.10476 0.0
C9 C 0.38408 0.49489 0.12185 0.0
C10 C 0.37002 0.49696 0.15024 0.0
C11 C 0.34576 0.47914 0.15552 0.0
C12 C 0.37313 0.47484 0.09968 0.0
H13 H 0.31708 0.44581 0.13631 0.0
C14 C 0.28869 0.39794 0.08939 0.0
O15 O 0.3091 0.34942 0.12901 0.0
O16 O 0.32012 0.38194 0.16129 0.0
N17 N 0.37446 0.45079 0.05337 0.0
C18 C 0.38559 0.44599 0.02495 0.0
C19 C 0.40979 0.46223 0.0156 0.0
C20 C 0.4222 0.48332 0.0353 0.0
C21 C 0.41037 0.48791 0.06439 0.0
C22 C 0.38612 0.47122 0.07211 0.0
H23 H 0.37603 0.42999 0.00929 0.0
O24 O 0.36054 0.38962 0.11697 0.0
O25 O 0.34762 0.41502 0.1034 0.0
O26 O 0.32864 0.37646 0.05352 0.0
O27 O 0.33274 0.41023 0.02961 0.0
C28 C 0.42167 0.5084 0.08599 0.0
C29 C 0.40858 0.51181 0.11487 0.0
H30 H 0.37768 0.5121 0.16823 0.0
H31 H 0.33483 0.48057 0.17745 0.0
H32 H 0.4188 0.45858 -0.00692 0.0
H33 H 0.44075 0.49592 0.0277 0.0
H34 H 0.44047 0.52154 0.08084 0.0
H35 H 0.41755 0.5275 0.13155 0.0
Mn36 Mn 0.9578 0.32911 0.37602 0.0
Mn37 Mn 0.01925 0.35704 0.36443 0.0
C38 C 0.97376 0.33828 0.31802 0.0
C39 C 0.92119 0.29409 0.38089 0.0
C40 C 0.99049 0.38203 0.38761 0.0
O41 O 0.97037 0.32547 0.42554 0.0
O42 O 0.011 0.34269 0.41414 0.0
C43 C 0.02676 0.31517 0.36505 0.0
N44 N 0.02908 0.33475 0.34784 0.0
C45 C 0.04786 0.3272 0.29557 0.0
C46 C 0.04586 0.30706 0.31287 0.0
C47 C 0.03523 0.30101 0.34774 0.0
C48 C 0.03923 0.34071 0.31426 0.0
H49 H 0.01842 0.31035 0.39172 0.0
C50 C 0.99244 0.33175 0.43521 0.0
O51 O 0.92296 0.31372 0.3931 0.0
O52 O 0.94094 0.2947 0.36795 0.0
N53 N 0.03003 0.37158 0.31773 0.0
C54 C 0.03004 0.39123 0.30442 0.0
C55 C 0.03964 0.39941 0.2695 0.0
C56 C 0.04934 0.38746 0.24881 0.0
C57 C 0.04959 0.36756 0.26339 0.0
C58 C 0.03995 0.36034 0.29846 0.0
H59 H 0.02253 0.40045 0.32013 0.0
O60 O 0.95138 0.33379 0.32446 0.0
O61 O 0.98612 0.33663 0.3457 0.0
O62 O 0.96922 0.36396 0.38706 0.0
O63 O 0.0103 0.38122 0.38033 0.0
C64 C 0.05863 0.35437 0.24424 0.0
C65 C 0.05774 0.33419 0.2603 0.0
H66 H 0.05225 0.29601 0.29953 0.0
H67 H 0.03349 0.28542 0.36118 0.0
H68 H 0.03943 0.41481 0.25848 0.0
H69 H 0.05648 0.39366 0.22172 0.0
H70 H 0.06607 0.35946 0.21699 0.0
H71 H 0.06452 0.32407 0.24517 0.0
Mn72 Mn 0.61662 0.94813 0.75158 0.0
Mn73 Mn 0.56586 0.9181 0.69981 0.0
C74 C 0.58841 0.96187 0.74523 0.0
C75 C 0.63467 0.95373 0.80992 0.0
C76 C 0.61675 0.94888 0.66804 0.0
O77 O 0.61574 0.91643 0.74352 0.0
O78 O 0.57901 0.89694 0.71528 0.0
C79 C 0.53305 0.88641 0.75683 0.0
N80 N 0.53775 0.90288 0.7306 0.0
C81 C 0.49884 0.90184 0.74081 0.0
C82 C 0.4935 0.88476 0.76782 0.0
C83 C 0.51073 0.87707 0.77593 0.0
C84 C 0.52143 0.91057 0.72283 0.0
H85 H 0.54627 0.88048 0.7631 0.0
C86 C 0.59843 0.89785 0.72927 0.0
O87 O 0.64816 0.961 0.78069 0.0
O88 O 0.61118 0.9424 0.80484 0.0
N89 N 0.55096 0.93621 0.68244 0.0
C90 C 0.55908 0.95296 0.65593 0.0
C91 C 0.54392 0.96233 0.64426 0.0
C92 C 0.5205 0.95421 0.65965 0.0
C93 C 0.5125 0.93687 0.68674 0.0
C94 C 0.52828 0.92798 0.69693 0.0
H95 H 0.57692 0.95905 0.64364 0.0
O96 O 0.61053 0.97577 0.75646 0.0
O97 O 0.58333 0.9403 0.73894 0.0
O98 O 0.62824 0.9572 0.69821 0.0
O99 O 0.59394 0.9338 0.66629 0.0
C100 C 0.4895 0.92811 0.70409 0.0
C101 C 0.48274 0.91071 0.73127 0.0
H102 H 0.47631 0.87751 0.7826 0.0
H103 H 0.50678 0.86396 0.79683 0.0
H104 H 0.5502 0.97568 0.62329 0.0
H105 H 0.50879 0.96132 0.65033 0.0
H106 H 0.47698 0.93479 0.69698 0.0
H107 H 0.46514 0.90429 0.74471 0.0
Mn108 Mn 0.65814 0.61458 0.10808 0.0
Mn109 Mn 0.63436 0.56412 0.05918 0.0
C110 C 0.61721 0.58735 0.11444 0.0
C111 C 0.67789 0.63515 0.16081 0.0
C112 C 0.64154 0.61007 0.02783 0.0
O113 O 0.68895 0.61455 0.08909 0.0
O114 O 0.67073 0.58109 0.05666 0.0
C115 C 0.6536 0.54023 0.10799 0.0
N116 N 0.63432 0.5405 0.09045 0.0
C117 C 0.6062 0.50234 0.11381 0.0
C118 C 0.62577 0.50159 0.132 0.0
C119 C 0.64956 0.52066 0.12918 0.0
C120 C 0.61132 0.52243 0.09345 0.0
H121 H 0.67191 0.55482 0.10583 0.0
C122 C 0.68985 0.59946 0.06767 0.0
O123 O 0.67784 0.64624 0.13126 0.0
O124 O 0.6673 0.61246 0.15919 0.0
N125 N 0.59942 0.54506 0.05787 0.0
C126 C 0.58277 0.54813 0.03741 0.0
C127 C 0.55826 0.53029 0.03606 0.0
C128 C 0.55116 0.50932 0.05536 0.0
C129 C 0.5687 0.50633 0.07561 0.0
C130 C 0.59293 0.52462 0.07552 0.0
H131 H 0.58815 0.56408 0.02227 0.0
O132 O 0.62517 0.60893 0.12451 0.0
O133 O 0.63359 0.58187 0.10208 0.0
O134 O 0.65166 0.62276 0.05611 0.0
O135 O 0.63353 0.58784 0.02637 0.0
C136 C 0.56312 0.48588 0.09572 0.0
C137 C 0.58183 0.48396 0.11503 0.0
H138 H 0.62275 0.48647 0.1482 0.0
H139 H 0.66475 0.52023 0.14321 0.0
H140 H 0.54488 0.53267 0.02009 0.0
H141 H 0.53223 0.4956 0.0543 0.0
H142 H 0.5445 0.47153 0.09655 0.0
H143 H 0.57732 0.46818 0.13052 0.0
Mn144 Mn 0.04034 0.665 0.37788 0.0
Mn145 Mn 0.97852 0.63537 0.37224 0.0
C146 C 0.02161 0.65413 0.32148 0.0
C147 C 0.07631 0.70089 0.37908 0.0
C148 C 0.00963 0.61228 0.39275 0.0
O149 O 0.02982 0.66956 0.42865 0.0
O150 O 0.9888 0.65118 0.42067 0.0
C151 C 0.9694 0.6763 0.37302 0.0
N152 N 0.96687 0.65643 0.35637 0.0
C153 C 0.94446 0.66134 0.30637 0.0
C154 C 0.94666 0.68177 0.3231 0.0
C155 C 0.95923 0.68929 0.35654 0.0
C156 C 0.9549 0.64908 0.32414 0.0
H157 H 0.97915 0.68221 0.39862 0.0
C158 C 0.00807 0.66308 0.44013 0.0
O159 O 0.07599 0.68192 0.39144 0.0
O160 O 0.0556 0.69911 0.36811 0.0
N161 N 0.96578 0.6193 0.32691 0.0
C162 C 0.96572 0.59951 0.314 0.0
C163 C 0.95415 0.58983 0.28054 0.0
C164 C 0.94254 0.60044 0.26093 0.0
C165 C 0.94243 0.62053 0.27511 0.0
C166 C 0.95409 0.62927 0.30874 0.0
H167 H 0.9746 0.59126 0.32895 0.0
O168 O 0.04442 0.65931 0.32554 0.0
O169 O 0.01047 0.65596 0.35048 0.0
O170 O 0.03061 0.6306 0.38995 0.0
O171 O 0.98925 0.61243 0.38755 0.0
C172 C 0.93153 0.63243 0.25695 0.0
C173 C 0.9326 0.65285 0.27252 0.0
H174 H 0.93893 0.69189 0.31041 0.0
H175 H 0.96111 0.7051 0.36953 0.0
H176 H 0.95426 0.57429 0.26982 0.0
H177 H 0.93384 0.59306 0.23496 0.0
H178 H 0.92252 0.62616 0.2308 0.0
H179 H 0.92437 0.66198 0.25811 0.0
Mn180 Mn 0.37352 0.04656 0.74185 0.0
Mn181 Mn 0.42487 0.07601 0.69151 0.0
C182 C 0.4016 0.03255 0.73699 0.0
C183 C 0.35491 0.04131 0.79953 0.0
C184 C 0.37432 0.04517 0.65828 0.0
O185 O 0.3748 0.07835 0.73351 0.0
O186 O 0.41154 0.09732 0.70551 0.0
C187 C 0.45696 0.10822 0.74903 0.0
N188 N 0.45258 0.0915 0.72323 0.0
C189 C 0.49127 0.09251 0.73567 0.0
C190 C 0.49627 0.10985 0.76226 0.0
C191 C 0.47901 0.11768 0.76904 0.0
C192 C 0.46895 0.08368 0.71673 0.0
H193 H 0.44371 0.11426 0.75431 0.0
C194 C 0.39222 0.09673 0.71923 0.0
O195 O 0.3417 0.03395 0.76993 0.0
O196 O 0.37846 0.05245 0.79517 0.0
N197 N 0.43997 0.05773 0.67567 0.0
C198 C 0.43218 0.04073 0.6494 0.0
C199 C 0.44744 0.03119 0.63903 0.0
C200 C 0.4706 0.03938 0.65547 0.0
C201 C 0.47828 0.05697 0.68229 0.0
C202 C 0.46242 0.06603 0.69116 0.0
H203 H 0.41452 0.03457 0.63633 0.0
O204 O 0.3793 0.01878 0.74741 0.0
O205 O 0.4069 0.05415 0.73051 0.0
O206 O 0.3624 0.03741 0.68818 0.0
O207 O 0.39722 0.05997 0.65717 0.0
C208 C 0.501 0.06582 0.70063 0.0
C209 C 0.50743 0.08348 0.72747 0.0
H210 H 0.51325 0.11719 0.77775 0.0
H211 H 0.48269 0.13099 0.78962 0.0
H212 H 0.44141 0.01764 0.61827 0.0
H213 H 0.48239 0.0321 0.64717 0.0
H214 H 0.51356 0.05901 0.69455 0.0
H215 H 0.52482 0.08997 0.74167 0.0
Mn216 Mn 0.62311 0.66775 0.5951 0.0
Mn217 Mn 0.65543 0.63871 0.60886 0.0
C218 C 0.62836 0.65783 0.65351 0.0
C219 C 0.62262 0.70345 0.59055 0.0
C220 C 0.60231 0.61468 0.58331 0.0
O221 O 0.64041 0.67167 0.54646 0.0
O222 O 0.66222 0.65294 0.55915 0.0
C223 C 0.70498 0.68006 0.60936 0.0
N224 N 0.68736 0.66064 0.62631 0.0
C225 C 0.71284 0.66791 0.67958 0.0
C226 C 0.73133 0.6879 0.66259 0.0
C227 C 0.72736 0.694 0.62735 0.0
C228 C 0.69097 0.65463 0.66024 0.0
H229 H 0.70194 0.6849 0.58238 0.0
C230 C 0.65568 0.66454 0.53752 0.0
O231 O 0.60475 0.68427 0.57723 0.0
O232 O 0.64113 0.70198 0.60423 0.0
N233 N 0.65092 0.62411 0.65567 0.0
C234 C 0.63109 0.60451 0.66844 0.0
C235 C 0.63196 0.59621 0.70354 0.0
C236 C 0.65326 0.60798 0.72498 0.0
C237 C 0.67363 0.6278 0.71093 0.0
C238 C 0.67177 0.63515 0.67564 0.0
H239 H 0.61465 0.59541 0.65212 0.0
O240 O 0.61087 0.66275 0.64608 0.0
O241 O 0.64284 0.65945 0.62658 0.0
O242 O 0.59944 0.63302 0.58293 0.0
O243 O 0.62252 0.61506 0.5921 0.0
C244 C 0.69556 0.64077 0.73076 0.0
C245 C 0.71513 0.66084 0.71513 0.0
H246 H 0.74857 0.69876 0.67644 0.0
H247 H 0.74149 0.70946 0.61413 0.0
H248 H 0.61619 0.58085 0.71414 0.0
H249 H 0.65375 0.60168 0.7522 0.0
H250 H 0.69748 0.6356 0.7582 0.0
H251 H 0.73182 0.67079 0.73077 0.0
Mn252 Mn 0.94392 0.61873 0.86798 0.0
Mn253 Mn 0.90454 0.56753 0.90696 0.0
C254 C 0.95266 0.5878 0.86687 0.0
C255 C 0.9533 0.64168 0.81558 0.0
C256 C 0.9396 0.61119 0.94981 0.0
O257 O 0.9133 0.62207 0.87764 0.0
O258 O 0.88658 0.58474 0.89255 0.0
C259 C 0.87365 0.54353 0.84267 0.0
N260 N 0.88849 0.54394 0.87047 0.0
C261 C 0.88368 0.50611 0.85314 0.0
C262 C 0.86822 0.5052 0.82443 0.0
C263 C 0.86325 0.52403 0.81911 0.0
C264 C 0.8936 0.52605 0.87561 0.0
H265 H 0.86982 0.558 0.83854 0.0
C266 C 0.89173 0.60595 0.88538 0.0
O267 O 0.96195 0.65129 0.84721 0.0
O268 O 0.93917 0.61922 0.81472 0.0
N269 N 0.91928 0.54889 0.92258 0.0
C270 C 0.9347 0.55262 0.95138 0.0
C271 C 0.94126 0.53531 0.96075 0.0
C272 C 0.93169 0.51428 0.9407 0.0
C273 C 0.91576 0.51078 0.91129 0.0
C274 C 0.90963 0.52852 0.90354 0.0
H275 H 0.94183 0.56859 0.96726 0.0
O276 O 0.96973 0.60893 0.85998 0.0
O277 O 0.93089 0.58538 0.8727 0.0
O278 O 0.95207 0.62374 0.92282 0.0
O279 O 0.92094 0.59083 0.9462 0.0
C280 C 0.90573 0.4904 0.88937 0.0
C281 C 0.88983 0.48813 0.86017 0.0
H282 H 0.86016 0.49019 0.80621 0.0
H283 H 0.85142 0.5235 0.79692 0.0
H284 H 0.95352 0.53811 0.98354 0.0
H285 H 0.9366 0.50088 0.94827 0.0
H286 H 0.9103 0.47646 0.89454 0.0
H287 H 0.88244 0.47249 0.84326 0.0
Mn288 Mn 0.32339 0.94841 0.22042 0.0
Mn289 Mn 0.34559 0.91916 0.27103 0.0
C290 C 0.36544 0.96271 0.22569 0.0
C291 C 0.31002 0.95344 0.16254 0.0
C292 C 0.32523 0.94966 0.30394 0.0
O293 O 0.29314 0.91655 0.22885 0.0
O294 O 0.31127 0.89762 0.25636 0.0
C295 C 0.34652 0.88745 0.21341 0.0
N296 N 0.35842 0.90407 0.23953 0.0
C297 C 0.39639 0.90347 0.228 0.0
C298 C 0.38452 0.88625 0.2011 0.0
C299 C 0.3595 0.87827 0.19369 0.0
C300 C 0.38254 0.91206 0.24659 0.0
H301 H 0.32729 0.8813 0.20768 0.0
C302 C 0.29245 0.89816 0.24284 0.0
O303 O 0.30401 0.9608 0.19198 0.0
O304 O 0.32258 0.94241 0.16717 0.0
N305 N 0.3787 0.93763 0.28759 0.0
C306 C 0.38741 0.9544 0.31423 0.0
C307 C 0.41202 0.96394 0.32542 0.0
C308 C 0.42733 0.95598 0.3094 0.0
C309 C 0.41795 0.93867 0.28211 0.0
C310 C 0.39319 0.92958 0.27245 0.0
H311 H 0.37564 0.96034 0.32706 0.0
O312 O 0.35673 0.97633 0.21494 0.0
O313 O 0.34936 0.94108 0.23213 0.0
O314 O 0.32127 0.95759 0.274 0.0
O315 O 0.33337 0.93482 0.30515 0.0
C316 C 0.43219 0.93006 0.26414 0.0
C317 C 0.42145 0.91259 0.23691 0.0
H318 H 0.39446 0.8791 0.18586 0.0
H319 H 0.35023 0.86505 0.17287 0.0
H320 H 0.41912 0.97727 0.34654 0.0
H321 H 0.4462 0.96317 0.31844 0.0
H322 H 0.45145 0.9369 0.27082 0.0
H323 H 0.43264 0.90629 0.22301 0.0
Mn324 Mn 0.37053 0.33194 0.59741 0.0
Mn325 Mn 0.33852 0.36183 0.60472 0.0
C326 C 0.36343 0.34283 0.65425 0.0
C327 C 0.37078 0.29604 0.59543 0.0
C328 C 0.39233 0.38479 0.58309 0.0
O329 O 0.35482 0.32743 0.54713 0.0
O330 O 0.3327 0.34633 0.55596 0.0
C331 C 0.28864 0.32096 0.60403 0.0
N332 N 0.30601 0.34072 0.62077 0.0
C333 C 0.27901 0.33563 0.67119 0.0
C334 C 0.26077 0.31531 0.65437 0.0
C335 C 0.26563 0.30792 0.62068 0.0
C336 C 0.30157 0.34793 0.65326 0.0
H337 H 0.29233 0.31516 0.57822 0.0
C338 C 0.33971 0.33428 0.5361 0.0
O339 O 0.38914 0.31503 0.58278 0.0
O340 O 0.35201 0.29781 0.60721 0.0
N341 N 0.34209 0.37765 0.65035 0.0
C342 C 0.36181 0.39737 0.6633 0.0
C343 C 0.36007 0.40691 0.69697 0.0
C344 C 0.33802 0.39626 0.71677 0.0
C345 C 0.31782 0.37626 0.70255 0.0
C346 C 0.32058 0.36764 0.66872 0.0
H347 H 0.37881 0.40566 0.6482 0.0
O348 O 0.381 0.3376 0.64948 0.0
O349 O 0.35007 0.34104 0.6257 0.0
O350 O 0.39489 0.36633 0.58505 0.0
O351 O 0.37199 0.38481 0.58924 0.0
C352 C 0.29518 0.36432 0.72089 0.0
C353 C 0.27582 0.34398 0.70526 0.0
H354 H 0.24303 0.30515 0.66718 0.0
H355 H 0.25168 0.2922 0.60761 0.0
H356 H 0.37572 0.42239 0.70771 0.0
H357 H 0.33682 0.40354 0.74289 0.0
H358 H 0.29256 0.37048 0.7472 0.0
H359 H 0.25858 0.33482 0.71979 0.0
Mn360 Mn 0.04463 0.38687 0.86421 0.0
Mn361 Mn 0.06701 0.43593 0.91626 0.0
C362 C 0.02754 0.41166 0.86029 0.0
C363 C 0.0459 0.36884 0.80947 0.0
C364 C 0.03156 0.38792 0.94504 0.0
O365 O 0.07686 0.3894 0.88212 0.0
O366 O 0.08907 0.42157 0.91716 0.0
C367 C 0.10963 0.46396 0.86861 0.0
N368 N 0.08919 0.46139 0.88643 0.0
C369 C 0.09574 0.49922 0.86598 0.0
C370 C 0.11693 0.50233 0.84755 0.0
C371 C 0.12385 0.48457 0.84876 0.0
C372 C 0.08218 0.4782 0.885 0.0
H373 H 0.11504 0.45038 0.86955 0.0
C374 C 0.09185 0.40455 0.90448 0.0
O375 O 0.0358 0.35641 0.83848 0.0
O376 O 0.0559 0.39141 0.81296 0.0
N377 N 0.04836 0.45246 0.91912 0.0
C378 C 0.02776 0.44697 0.93905 0.0
C379 C 0.01878 0.46317 0.94161 0.0
C380 C 0.03125 0.48499 0.92409 0.0
C381 C 0.05261 0.49043 0.90418 0.0
C382 C 0.06085 0.47369 0.90297 0.0
H383 H 0.01824 0.43034 0.95279 0.0
O384 O 0.01546 0.39011 0.84922 0.0
O385 O 0.0497 0.41848 0.87248 0.0
O386 O 0.03037 0.37631 0.91598 0.0
O387 O 0.04387 0.41031 0.9477 0.0
C388 C 0.06606 0.5118 0.88552 0.0
C389 C 0.08752 0.51613 0.86621 0.0
H390 H 0.128 0.51825 0.83235 0.0
H391 H 0.14014 0.48681 0.83454 0.0
H392 H 0.00231 0.45886 0.95713 0.0
H393 H 0.02431 0.49747 0.92616 0.0
H394 H 0.06001 0.52499 0.88572 0.0
H395 H 0.09764 0.53257 0.85178 0.0
Mn396 Mn 0.66465 0.04832 0.22965 0.0
Mn397 Mn 0.64137 0.07697 0.27989 0.0
C398 C 0.62274 0.03535 0.2303 0.0
C399 C 0.67968 0.0435 0.17298 0.0
C400 C 0.65568 0.04232 0.31291 0.0
O401 O 0.69547 0.07915 0.24144 0.0
O402 O 0.67745 0.09571 0.27533 0.0
C403 C 0.65197 0.11447 0.22578 0.0
N404 N 0.63564 0.09696 0.24748 0.0
C405 C 0.60259 0.10396 0.22779 0.0
C406 C 0.61908 0.12218 0.20537 0.0
C407 C 0.64386 0.12739 0.20427 0.0
C408 C 0.61171 0.09158 0.24835 0.0
H409 H 0.67103 0.11852 0.2249 0.0
C410 C 0.69642 0.09569 0.2616 0.0
O411 O 0.68399 0.03518 0.20284 0.0
O412 O 0.66804 0.05548 0.17664 0.0
N413 N 0.60665 0.06143 0.28772 0.0
C414 C 0.59329 0.04374 0.31149 0.0
C415 C 0.56826 0.03675 0.31658 0.0
C416 C 0.55735 0.0483 0.29769 0.0
C417 C 0.57155 0.06672 0.27389 0.0
C418 C 0.59645 0.07307 0.27023 0.0
H419 H 0.60169 0.03506 0.32647 0.0
O420 O 0.63129 0.02144 0.22042 0.0
O421 O 0.63893 0.05671 0.23878 0.0
O422 O 0.6638 0.03758 0.28347 0.0
O423 O 0.64641 0.05627 0.314 0.0
C424 C 0.56199 0.07907 0.25371 0.0
C425 C 0.57746 0.09757 0.23047 0.0
H426 H 0.61291 0.13224 0.18884 0.0
H427 H 0.65668 0.14137 0.18695 0.0
H428 H 0.55744 0.02259 0.33513 0.0
H429 H 0.53809 0.04298 0.30184 0.0
H430 H 0.54274 0.0744 0.25575 0.0
H431 H 0.56988 0.10684 0.21491 0.0
C432 C 0.31321 0.33168 0.20544 0.0
C433 C 0.30323 0.34623 0.19506 0.0
C434 C 0.31213 0.32482 0.24202 0.0
C435 C 0.30768 0.34766 0.33271 0.0
H436 H 0.30819 0.29183 0.36973 0.0
C437 C 0.31232 0.33483 0.48607 0.0
C438 C 0.33054 0.3292 0.49785 0.0
C439 C 0.30549 0.33267 0.44935 0.0
C440 C 0.30811 0.30752 0.35968 0.0
H441 H 0.28238 0.36325 0.2133 0.0
H442 H 0.27902 0.35013 0.27632 0.0
H443 H 0.30103 0.29472 0.30444 0.0
H444 H 0.35478 0.3155 0.48029 0.0
H445 H 0.34287 0.3119 0.41587 0.0
H446 H 0.31492 0.36058 0.38748 0.0
C447 C 0.28866 0.34479 0.25699 0.0
C448 C 0.30404 0.3092 0.32231 0.0
C449 C 0.29026 0.35206 0.2208 0.0
C450 C 0.34078 0.32011 0.47219 0.0
C451 C 0.33388 0.31793 0.43529 0.0
C452 C 0.31152 0.34589 0.36982 0.0
C453 C 0.30075 0.33221 0.26855 0.0
C454 C 0.30376 0.32934 0.30837 0.0
C455 C 0.31666 0.32482 0.42337 0.0
C456 C 0.3118 0.32585 0.38381 0.0
H457 H 0.3236 0.32726 0.18604 0.0
H458 H 0.32168 0.31519 0.24985 0.0
H459 H 0.30847 0.36379 0.32302 0.0
H460 H 0.30372 0.34152 0.50505 0.0
H461 H 0.29182 0.33769 0.44112 0.0
C462 C 0.01884 0.3267 0.48267 0.0
C463 C -0.00287 0.32735 0.47339 0.0
C464 C 0.02433 0.32475 0.51919 0.0
C465 C 0.04061 0.33878 0.59713 0.0
H466 H 0.99046 0.31106 0.67157 0.0
C467 C 0.057 0.37307 0.74361 0.0
C468 C 0.04423 0.35834 0.7729 0.0
C469 C 0.05283 0.3646 0.70787 0.0
C470 C 0.00482 0.31851 0.65122 0.0
H471 H 0.96381 0.32578 0.49511 0.0
H472 H 0.97379 0.32348 0.55865 0.0
H473 H 0.97903 0.30333 0.60742 0.0
H474 H 0.01802 0.32274 0.78784 0.0
H475 H 0.01101 0.30765 0.72501 0.0
H476 H 0.06644 0.3536 0.64083 0.0
C477 C 0.98634 0.32371 0.53788 0.0
C478 C -0.00182 0.31441 0.61427 0.0
C479 C 0.98064 0.32521 0.50132 0.0
C480 C 0.02814 0.33452 0.76581 0.0
C481 C 0.02397 0.32596 0.72979 0.0
C482 C 0.04727 0.34258 0.63399 0.0
C483 C 0.00849 0.3239 0.54745 0.0
C484 C 0.01587 0.32517 0.58666 0.0
C485 C 0.03586 0.34107 0.70027 0.0
C486 C 0.02936 0.33327 0.66154 0.0
H487 H 0.03178 0.32799 0.46173 0.0
H488 H 0.04125 0.32434 0.52522 0.0
H489 H 0.05485 0.34755 0.57696 0.0
H490 H 0.06956 0.39152 0.74807 0.0
H491 H 0.06207 0.37694 0.68605 0.0
C492 C 0.6693 0.9769 0.85445 0.0
C493 C 0.64474 0.96006 0.84766 0.0
C494 C 0.67713 0.98537 0.89012 0.0
C495 C 0.6886 0.99214 0.97478 0.0
H496 H 0.64417 0.0111 0.02028 0.0
C497 C 0.68908 0.01835 0.12955 0.0
C498 C 0.68452 0.03739 0.13575 0.0
C499 C 0.68851 0.00997 0.09384 0.0
C500 C 0.65686 0.00601 0.00797 0.0
H501 H 0.60969 0.93783 0.87349 0.0
H502 H 0.62325 0.9526 0.93496 0.0
H503 H 0.63481 0.99333 0.95976 0.0
H504 H 0.67778 0.06368 0.10903 0.0
H505 H 0.67682 0.04918 0.04742 0.0
H506 H 0.71047 0.00472 0.02374 0.0
C507 C 0.63641 0.95947 0.91285 0.0
C508 C 0.65138 0.99564 0.97336 0.0
C509 C 0.62867 0.95095 0.87753 0.0
C510 C 0.68111 0.04882 0.10539 0.0
C511 C 0.68046 0.04046 0.06999 0.0
C512 C 0.69392 0.00225 0.00993 0.0
C513 C 0.66048 0.97727 0.91949 0.0
C514 C 0.66711 0.98854 0.95629 0.0
C515 C 0.68326 0.02044 0.06382 0.0
C516 C 0.67814 0.00944 0.02677 0.0
H517 H 0.68214 0.9843 0.83207 0.0
H518 H 0.69581 -0.00088 0.89442 0.0
H519 H 0.70102 0.98679 0.96232 0.0
H520 H 0.69168 0.00911 0.15234 0.0
H521 H 0.69073 0.9945 0.08994 0.0
C522 C 0.6969 0.63773 0.2215 0.0
C523 C 0.68677 0.64701 0.19629 0.0
C524 C 0.69994 0.64482 0.25802 0.0
C525 C 0.69415 0.68598 0.32485 0.0
H526 H 0.67463 0.63253 0.38916 0.0
C527 C 0.65762 0.67968 0.47352 0.0
C528 C 0.66531 0.66853 0.49955 0.0
C529 C 0.66463 0.68096 0.43685 0.0
C530 C 0.68047 0.64775 0.37171 0.0
H531 H 0.67314 0.6719 0.18869 0.0
H532 H 0.67744 0.6837 0.2529 0.0
H533 H 0.67964 0.6281 0.32455 0.0
H534 H 0.6877 0.65128 0.50753 0.0
H535 H 0.69969 0.65345 0.44384 0.0
H536 H 0.6937 0.70519 0.37257 0.0
C537 C 0.68371 0.6714 0.24449 0.0
C538 C 0.68351 0.64528 0.33452 0.0
C539 C 0.68123 0.66468 0.20763 0.0
C540 C 0.68115 0.65976 0.48831 0.0
C541 C 0.68801 0.66095 0.45174 0.0
C542 C 0.69081 0.68838 0.36224 0.0
C543 C 0.69215 0.6608 0.27044 0.0
C544 C 0.69041 0.66432 0.31046 0.0
C545 C 0.67935 0.67102 0.42545 0.0
C546 C 0.68393 0.66924 0.38602 0.0
H547 H 0.70146 0.62418 0.2133 0.0
H548 H 0.70734 0.63689 0.27683 0.0
H549 H 0.69964 0.70108 0.3073 0.0
H550 H 0.64552 0.68674 0.48116 0.0
H551 H 0.65758 0.68875 0.41716 0.0
C552 C 0.98481 0.66798 0.77093 0.0
C553 C 0.96007 0.65478 0.78103 0.0
C554 C 0.99103 0.67454 0.73434 0.0
C555 C 0.96352 0.65244 0.64361 0.0
H556 H 0.02156 0.70626 0.60637 0.0
C557 C 0.98102 0.66397 0.49025 0.0
C558 C 0.00448 0.66851 0.47841 0.0
C559 C 0.9767 0.66652 0.52696 0.0
C560 C 0.00532 0.69112 0.61649 0.0
H561 H 0.92248 0.63994 0.76227 0.0
H562 H 0.93312 0.65256 0.69922 0.0
H563 H 0.01161 0.70418 0.67161 0.0
H564 H 0.04216 0.68064 0.49583 0.0
H565 H 0.03446 0.68489 0.56028 0.0
H566 H 0.95724 0.63922 0.58901 0.0
C567 C 0.94784 0.65705 0.7188 0.0
C568 C -0.00037 0.68991 0.65381 0.0
C569 C 0.94169 0.65009 0.75499 0.0
C570 C 0.02384 0.67689 0.504 0.0
C571 C 0.01947 0.67943 0.54091 0.0
C572 C 0.96909 0.65373 0.60656 0.0
C573 C 0.97255 0.66819 0.70755 0.0
C574 C 0.97857 0.67054 0.66781 0.0
C575 C -0.00432 0.67364 0.5529 0.0
C576 C 0.99 0.67305 0.59246 0.0
H577 H -0.00073 0.67149 0.79056 0.0
H578 H 0.01023 0.68306 0.72673 0.0
H579 H 0.94763 0.63684 0.65338 0.0
H580 H 0.96572 0.65786 0.47132 0.0
H581 H 0.95827 0.66237 0.53522 0.0
C582 C 0.31086 0.94885 0.09497 0.0
C583 C 0.30562 0.95934 0.12496 0.0
C584 C 0.31149 0.95704 0.05954 0.0
C585 C 0.33389 0.99199 -0.00171 0.0
H586 H 0.28693 0.00645 0.94987 0.0
C587 C 0.36008 0.04558 0.86718 0.0
C588 C 0.34449 0.03532 0.83698 0.0
C589 C 0.35232 0.03734 0.90251 0.0
C590 C 0.30015 0.00245 0.96312 0.0
H591 H 0.29526 0.9857 0.14079 0.0
H592 H 0.29625 4e-05 0.07829 0.0
H593 H 0.27783 0.9887 0.01124 0.0
H594 H 0.30783 0.00933 0.82066 0.0
H595 H 0.29413 0.99493 0.88298 0.0
H596 H 0.35632 0.00574 0.9509 0.0
C597 C 0.29989 0.98543 0.08253 0.0
C598 C 0.29502 0.99244 -0.00176 0.0
C599 C 0.29932 0.97722 0.11829 0.0
C600 C 0.32027 0.01762 0.84333 0.0
C601 C 0.31243 0.00938 0.87899 0.0
C602 C 0.33914 0.00223 0.96372 0.0
C603 C 0.30687 0.97595 0.05297 0.0
C604 C 0.31181 0.98694 0.01605 0.0
C605 C 0.32872 0.01863 0.90877 0.0
C606 C 0.3224 0.00761 0.94564 0.0
H607 H 0.31554 0.93487 0.09898 0.0
H608 H 0.31649 0.94909 0.0373 0.0
H609 H 0.34734 0.98821 0.01137 0.0
H610 H 0.37876 0.0594 0.86344 0.0
H611 H 0.36516 0.04512 0.92493 0.0
C612 C 0.11128 0.37921 0.91963 0.0
C613 C 0.1121 0.4013 0.92011 0.0
C614 C 0.12803 0.37531 0.9404 0.0
C615 C 0.16674 0.39858 0.02239 0.0
H616 H 0.20159 0.36625 -0.01318 0.0
C617 C 0.25759 0.41181 0.08292 0.0
C618 C 0.26318 0.39317 0.08274 0.0
C619 C 0.23541 0.40881 0.06851 0.0
C620 C 0.19159 0.37486 -0.00254 0.0
H621 H 0.13229 0.43705 0.94051 0.0
H622 H 0.16149 0.43031 0.97608 0.0
H623 H 0.17115 0.36922 0.94771 0.0
H624 H 0.24918 0.35629 0.06967 0.0
H625 H 0.21025 0.35105 0.04444 0.0
H626 H 0.18755 0.40477 0.07171 0.0
C627 C 0.14753 0.41583 0.96056 0.0
C628 C 0.17426 0.37665 0.97497 0.0
C629 C 0.1309 0.41973 0.9399 0.0
C630 C 0.24535 0.37097 0.0703 0.0
C631 C 0.22319 0.36802 0.0555 0.0
C632 C 0.18399 0.39677 0.04483 0.0
C633 C 0.14582 0.39343 0.96197 0.0
C634 C 0.16221 0.38915 -0.01316 0.0
C635 C 0.21837 0.38713 0.05337 0.0
C636 C 0.19712 0.38547 0.03224 0.0
H637 H 0.09696 0.36462 0.90477 0.0
H638 H 0.12636 0.35788 0.94086 0.0
H639 H 0.15726 0.4078 0.03264 0.0
H640 H 0.27092 0.42909 0.09245 0.0
H641 H 0.23236 0.42393 0.0671 0.0
C642 C 0.87563 0.27429 0.37255 0.0
C643 C 0.89732 0.27267 0.37659 0.0
C644 C 0.8539 0.25476 0.36124 0.0
C645 C 0.83219 0.19679 0.31472 0.0
H646 H 0.76844 0.18846 0.34387 0.0
C647 C 0.74094 0.12495 0.25043 0.0
C648 C 0.7204 0.11495 0.2735 0.0
C649 C 0.76289 0.14411 0.26257 0.0
C650 C 0.78605 0.19025 0.33571 0.0
H651 H 0.91303 0.24909 0.37429 0.0
H652 H 0.87492 0.21472 0.35667 0.0
H653 H 0.80514 0.22069 0.3692 0.0
H654 H 0.70714 0.11604 0.32793 0.0
H655 H 0.74521 0.14825 0.34942 0.0
H656 H 0.81294 0.16555 0.28263 0.0
C657 C 0.87476 0.23123 0.36059 0.0
C658 C 0.80723 0.20909 0.34987 0.0
C659 C 0.89656 0.25086 0.37122 0.0
C660 C 0.72249 0.12375 0.30918 0.0
C661 C 0.74436 0.14241 0.32146 0.0
C662 C 0.81096 0.17767 0.30099 0.0
C663 C 0.85328 0.23305 0.35435 0.0
C664 C 0.83064 0.21266 0.33964 0.0
C665 C 0.76476 0.15326 0.29819 0.0
C666 C 0.78757 0.17405 0.31147 0.0
H667 H 0.87576 0.29097 0.37602 0.0
H668 H 0.83791 0.25705 0.35638 0.0
H669 H 0.84984 0.19917 0.30548 0.0
H670 H 0.73979 0.11844 0.22283 0.0
H671 H 0.77816 0.15205 0.24377 0.0
C672 C 0.58102 0.85507 0.71591 0.0
C673 C 0.6016 0.87673 0.7242 0.0
C674 C 0.58391 0.83623 0.70305 0.0
C675 C 0.62891 0.82479 0.65361 0.0
H676 H 0.5827 0.75974 0.67396 0.0
C677 C 0.64173 0.74603 0.60598 0.0
C678 C 0.62074 0.72519 0.59578 0.0
C679 C 0.63962 0.76527 0.61902 0.0
C680 C 0.59554 0.77782 0.66759 0.0
H681 H 0.64135 0.89503 0.72787 0.0
H682 H 0.64641 0.86183 0.70606 0.0
H683 H 0.57951 0.7909 0.70699 0.0
H684 H 0.58122 0.70867 0.58911 0.0
H685 H 0.5775 0.74246 0.61175 0.0
H686 H 0.64505 0.81161 0.6144 0.0
C687 C 0.62802 0.85966 0.70881 0.0
C688 C 0.5938 0.7957 0.68667 0.0
C689 C 0.62512 0.87858 0.7218 0.0
C690 C 0.59773 0.72452 0.59664 0.0
C691 C 0.59558 0.74375 0.61002 0.0
C692 C 0.63072 0.80689 0.63464 0.0
C693 C 0.60746 0.8385 0.6982 0.0
C694 C 0.61039 0.81943 0.67982 0.0
C695 C 0.61644 0.76406 0.62241 0.0
C696 C 0.61398 0.7832 0.64129 0.0
H697 H 0.56261 0.85299 0.71763 0.0
H698 H 0.56765 0.82031 0.69502 0.0
H699 H 0.64169 0.84286 0.64708 0.0
H700 H 0.65974 0.74708 0.60561 0.0
H701 H 0.65603 0.7806 0.62842 0.0
C702 C 0.7341 0.62673 0.05212 0.0
C703 C 0.71361 0.60415 0.05124 0.0
C704 C 0.75495 0.63177 0.03111 0.0
C705 C 0.7718 0.6113 0.94775 0.0
H706 H 0.83828 0.64077 0.98583 0.0
C707 C 0.84733 0.59469 0.88928 0.0
C708 C 0.87196 0.61224 0.89104 0.0
C709 C 0.82872 0.59888 0.90279 0.0
C710 C 0.81991 0.63305 0.97447 0.0
H711 H 0.69975 0.5688 0.0296 0.0
H712 H 0.73589 0.57761 -0.00662 0.0
H713 H 0.80473 0.63787 0.02446 0.0
H714 H 0.89628 0.6485 0.90591 0.0
H715 H 0.86357 0.65584 0.92963 0.0
H716 H 0.78668 0.60579 0.89823 0.0
C717 C 0.73565 0.59154 0.00957 0.0
C718 C 0.80071 0.63131 -0.00332 0.0
C719 C 0.715 0.58648 0.03058 0.0
C720 C 0.87743 0.63466 0.90407 0.0
C721 C 0.85876 0.63879 0.91799 0.0
C722 C 0.79092 0.61313 0.92556 0.0
C723 C 0.75553 0.61435 0.00877 0.0
C724 C 0.77639 0.61962 0.98394 0.0
C725 C 0.83432 0.62068 0.91859 0.0
C726 C 0.81506 0.62324 0.93912 0.0
H727 H 0.73362 0.64075 0.06769 0.0
H728 H 0.77016 0.64947 0.03114 0.0
H729 H 0.75324 0.60268 0.93698 0.0
H730 H 0.84255 0.57727 0.87926 0.0
H731 H 0.81013 0.58447 0.90306 0.0
C732 C 0.12202 0.72275 0.37113 0.0
C733 C 0.09938 0.72283 0.3726 0.0
C734 C 0.14293 0.74233 0.35787 0.0
C735 C 0.15964 0.79357 0.29759 0.0
H736 H 0.22538 0.8131 0.33398 0.0
C737 C 0.24661 0.87821 0.25086 0.0
C738 C 0.26853 0.8768 0.24801 0.0
C739 C 0.22516 0.85905 0.26385 0.0
C740 C 0.20714 0.80768 0.32322 0.0
H741 H 0.08125 0.744 0.36384 0.0
H742 H 0.11776 0.77828 0.34182 0.0
H743 H 0.19035 0.7815 0.36455 0.0
H744 H 0.28454 0.85351 0.25343 0.0
H745 H 0.24721 0.8202 0.27544 0.0
H746 H 0.17654 0.81992 0.25639 0.0
C747 C 0.11929 0.76292 0.34977 0.0
C748 C 0.18706 0.78957 0.34081 0.0
C749 C 0.09841 0.74334 0.36276 0.0
C750 C 0.26806 0.85532 0.25579 0.0
C751 C 0.24671 0.83626 0.26869 0.0
C752 C 0.17974 0.81176 0.28009 0.0
C753 C 0.14163 0.76241 0.34603 0.0
C754 C 0.16304 0.78222 0.32816 0.0
C755 C 0.22528 0.83816 0.27415 0.0
C756 C 0.20374 0.81891 0.29256 0.0
H757 H 0.1233 0.70714 0.37828 0.0
H758 H 0.15981 0.74127 0.35523 0.0
H759 H 0.14144 0.78808 0.28666 0.0
H760 H 0.24639 0.89454 0.24527 0.0
H761 H 0.2089 0.86104 0.26772 0.0
C762 C 0.36621 0.11694 0.71441 0.0
C763 C 0.3895 0.11813 0.71459 0.0
C764 C 0.36354 0.1363 0.7032 0.0
C765 C 0.39864 0.20043 0.68385 0.0
H766 H 0.34538 0.18717 0.61603 0.0
C767 C 0.3948 0.27403 0.60051 0.0
C768 C 0.37213 0.27407 0.60114 0.0
C769 C 0.39656 0.25439 0.61273 0.0
C770 C 0.36027 0.19115 0.63509 0.0
H771 H 0.4284 0.14112 0.70556 0.0
H772 H 0.42373 0.17451 0.68597 0.0
H773 H 0.3486 0.15477 0.64484 0.0
H774 H 0.33329 0.25309 0.61287 0.0
H775 H 0.33632 0.2189 0.6338 0.0
H776 H 0.41044 0.2368 0.6738 0.0
C777 C 0.40749 0.15877 0.69446 0.0
C778 C 0.36202 0.17259 0.65182 0.0
C779 C 0.41015 0.1395 0.70553 0.0
C780 C 0.35104 0.25362 0.61209 0.0
C781 C 0.35276 0.23398 0.62402 0.0
C782 C 0.39695 0.21897 0.66701 0.0
C783 C 0.38411 0.15725 0.69219 0.0
C784 C 0.38129 0.177 0.67631 0.0
C785 C 0.37564 0.23437 0.62549 0.0
C786 C 0.3778 0.21455 0.64234 0.0
H787 H 0.34993 0.10074 0.72116 0.0
H788 H 0.34531 0.13468 0.70237 0.0
H789 H 0.41352 0.20449 0.70295 0.0
H790 H 0.41138 0.28954 0.59231 0.0
H791 H 0.41439 0.25507 0.61299 0.0
C792 C 0.33423 0.33204 0.70633 0.0
C793 C 0.35744 0.34672 0.6915 0.0
C794 C 0.32921 0.33477 0.74276 0.0
C795 C 0.32948 0.33661 0.82674 0.0
H796 H 0.35337 0.40023 0.86238 0.0
C797 C 0.3333 0.36198 0.98052 0.0
C798 C 0.32801 0.38034 -0.01138 0.0
C799 C 0.33436 0.35573 0.94411 0.0
C800 C 0.34637 0.38233 0.85282 0.0
H801 H 0.39417 0.37435 0.7031 0.0
H802 H 0.38545 0.37946 0.76663 0.0
H803 H 0.36007 0.39368 0.79893 0.0
H804 H 0.31792 0.40533 0.96498 0.0
H805 H 0.31946 0.39427 0.9021 0.0
H806 H 0.31569 0.32534 0.88089 0.0
C807 C 0.37089 0.36628 0.75006 0.0
C808 C 0.35044 0.3786 0.81655 0.0
C809 C 0.37591 0.36339 0.71384 0.0
C810 C 0.32252 0.3914 0.95975 0.0
C811 C 0.32346 0.38512 0.92363 0.0
C812 C 0.32548 0.34035 0.86324 0.0
C813 C 0.34745 0.35212 0.76485 0.0
C814 C 0.34219 0.35574 0.80314 0.0
C815 C 0.33006 0.3677 0.9153 0.0
C816 C 0.3339 0.36328 0.87663 0.0
H817 H 0.32003 0.31845 0.68978 0.0
H818 H 0.311 0.32361 0.75342 0.0
H819 H 0.32306 0.31879 0.81716 0.0
H820 H 0.3376 0.35312 0.00216 0.0
H821 H 0.33955 0.34225 0.9385 0.0
C822 C 0.98917 0.32602 0.26358 0.0
C823 C 0.9821 0.3415 0.27997 0.0
C824 C 0.99317 0.32684 0.22582 0.0
C825 C 0.97374 0.34396 0.14163 0.0
H826 H 0.03205 0.34714 0.09707 0.0
C827 C 0.00902 0.38498 0.00253 0.0
C828 C 0.01934 0.37515 0.97858 0.0
C829 C 0.00114 0.37552 0.03712 0.0
C830 C 0.01541 0.34572 0.10908 0.0
H831 H 0.97287 0.36931 0.27033 0.0
H832 H 0.98008 0.37102 0.20461 0.0
H833 H 0.02629 0.34191 0.16335 0.0
H834 H 0.0289 0.34725 0.97151 0.0
H835 H 0.01532 0.33072 0.03285 0.0
H836 H 0.96318 0.34854 0.08785 0.0
C837 C 0.98273 0.35836 0.22069 0.0
C838 C 0.01219 0.34283 0.14696 0.0
C839 C 0.97884 0.35758 0.25825 0.0
C840 C 0.02074 0.35499 -0.01063 0.0
C841 C 0.01321 0.3457 0.02448 0.0
C842 C 0.97694 0.34681 0.10395 0.0
C843 C 0.98948 0.34273 0.20396 0.0
C844 C 0.99169 0.34271 0.16366 0.0
C845 C 0.00371 0.35617 0.04886 0.0
C846 C -0.00183 0.34849 0.08742 0.0
H847 H 0.99084 0.31285 0.27976 0.0
H848 H -0.00178 0.31449 0.21357 0.0
H849 H 0.95746 0.34334 0.15369 0.0
H850 H 0.00773 0.4005 -0.00498 0.0
H851 H -0.00583 0.38415 0.05539 0.0
C852 C 0.65138 0.97891 0.62968 0.0
C853 C 0.62958 0.95748 0.63256 0.0
C854 C 0.66117 0.98806 0.59521 0.0
C855 C 0.66406 0.01067 0.52112 0.0
H856 H 0.65476 0.97101 0.43655 0.0
C857 C 0.6469 0.03633 0.37981 0.0
C858 C 0.65725 0.03191 0.34845 0.0
C859 C 0.64893 0.0279 0.41388 0.0
C860 C 0.6579 0.98244 0.45985 0.0
H861 H 0.60198 0.92817 0.60141 0.0
H862 H 0.61864 0.94411 0.54214 0.0
H863 H 0.65035 0.95474 0.49792 0.0
H864 H 0.67761 0.01461 0.32874 0.0
H865 H 0.68103 -0.00042 0.38892 0.0
H866 H 0.67128 0.03826 0.48315 0.0
C867 C 0.62843 0.9539 0.56616 0.0
C868 C 0.65512 0.97306 0.49508 0.0
C869 C 0.61867 0.94485 0.60037 0.0
C870 C 0.66941 0.01836 0.35222 0.0
C871 C 0.67138 0.00977 0.38668 0.0
C872 C 0.66691 0.02003 0.48599 0.0
C873 C 0.64946 0.97589 0.56296 0.0
C874 C 0.65725 0.98684 0.52614 0.0
C875 C 0.66139 0.01473 0.41798 0.0
C876 C 0.6629 0.0058 0.45489 0.0
H877 H 0.66029 0.98906 0.65389 0.0
H878 H 0.67758 0.00494 0.59379 0.0
H879 H 0.66577 0.02184 0.5442 0.0
H880 H 0.63715 0.04646 0.37829 0.0
H881 H 0.6404 0.03152 0.43709 0.0
C882 C 0.6551 0.66991 0.70887 0.0
C883 C 0.63286 0.65451 0.69182 0.0
C884 C 0.65786 0.66881 0.74667 0.0
C885 C 0.62046 0.64888 0.83049 0.0
H886 H 0.67828 0.65052 0.87452 0.0
C887 C 0.62026 0.60951 0.96987 0.0
C888 C 0.64018 0.62149 -0.00627 0.0
C889 C 0.62044 0.6182 0.93504 0.0
C890 C 0.66224 0.65051 0.86263 0.0
H891 H 0.59586 0.6266 0.70029 0.0
H892 H 0.60073 0.62414 0.76603 0.0
H893 H 0.67702 0.65569 0.80842 0.0
H894 H 0.67569 0.65232 0.00033 0.0
H895 H 0.67622 0.66743 0.93859 0.0
H896 H 0.60528 0.64275 0.88434 0.0
C897 C 0.61607 0.6371 0.75053 0.0
C898 C 0.66149 0.6534 0.82483 0.0
C899 C 0.61334 0.63828 0.71293 0.0
C900 C 0.65997 0.64288 0.98256 0.0
C901 C 0.66038 0.65139 0.94724 0.0
C902 C 0.62116 0.64587 0.86809 0.0
C903 C 0.63821 0.65259 0.76795 0.0
C904 C 0.6403 0.65197 0.80828 0.0
C905 C 0.64074 0.63889 0.92302 0.0
C906 C 0.64179 0.64607 0.88441 0.0
H907 H 0.67005 0.68317 0.69313 0.0
H908 H 0.67505 0.68111 0.75935 0.0
H909 H 0.60412 0.64831 0.81868 0.0
H910 H 0.60479 0.593 0.97767 0.0
H911 H 0.60515 0.60808 0.91686 0.0
C912 C 0.01263 0.63363 0.26176 0.0
C913 C 0.01126 0.65038 0.28453 0.0
C914 C 0.0044 0.63098 0.22569 0.0
C915 C 0.97132 0.61959 0.15953 0.0
H916 H 0.9907 0.67349 0.09615 0.0
C917 C 0.93054 0.60887 0.01647 0.0
C918 C 0.94712 0.61976 -0.01233 0.0
C919 C 0.9379 0.61473 0.05266 0.0
C920 C 0.98523 0.6583 0.11353 0.0
H921 H 0.00246 0.67894 0.28719 0.0
H922 H 0.98777 0.67424 0.22382 0.0
H923 H 0.00467 0.67933 0.15987 0.0
H924 H 0.98417 0.64626 0.97439 0.0
H925 H -0.00281 0.65642 0.03814 0.0
H926 H 0.95228 0.59849 0.11342 0.0
C927 C -0.00528 0.66284 0.23404 0.0
C928 C 0.99301 0.66165 0.15003 0.0
C929 C 0.00276 0.66531 0.27031 0.0
C930 C 0.97098 0.63754 -0.00405 0.0
C931 C 0.9784 0.64339 0.03242 0.0
C932 C 0.96347 0.61627 0.12326 0.0
C933 C -0.00474 0.64548 0.21149 0.0
C934 C 0.98628 0.64228 0.17327 0.0
C935 C 0.96207 0.63157 0.06113 0.0
C936 C 0.97037 0.63555 0.0998 0.0
H937 H 0.01988 0.62246 0.27201 0.0
H938 H 0.00549 0.61777 0.20875 0.0
H939 H 0.96565 0.60435 0.17688 0.0
H940 H 0.91188 0.59538 0.01116 0.0
H941 H 0.92473 0.60572 0.07413 0.0
C942 C 0.31621 0.97729 0.34238 0.0
C943 C 0.32129 0.95834 0.33974 0.0
C944 C 0.31474 0.9863 0.37674 0.0
C945 C 0.31132 0.97327 0.47731 0.0
H946 H 0.34678 0.04096 0.48712 0.0
C947 C 0.3374 0.01823 0.6198 0.0
C948 C 0.36177 0.03641 0.62244 0.0
C949 C 0.32678 0.00935 0.58546 0.0
C950 C 0.3368 0.022 0.48493 0.0
H951 H 0.32781 0.9335 0.37157 0.0
H952 H 0.32585 0.94932 0.43034 0.0
H953 H 0.33827 0.02331 0.42655 0.0
H954 H 0.39371 0.05986 0.59057 0.0
H955 H 0.37565 0.04424 0.53187 0.0
H956 H 0.31148 0.97192 0.5357 0.0
C957 C 0.32254 0.95711 0.40627 0.0
C958 C 0.33159 0.01186 0.45005 0.0
C959 C 0.32395 0.94816 0.37223 0.0
C960 C 0.37491 0.04585 0.58993 0.0
C961 C 0.36439 0.03702 0.55593 0.0
C962 C 0.31676 0.98341 0.51219 0.0
C963 C 0.31826 0.9765 0.40914 0.0
C964 C 0.31959 0.98732 0.44576 0.0
C965 C 0.34028 0.01849 0.55307 0.0
C966 C 0.3304 0.00789 0.51648 0.0
H967 H 0.31397 0.98553 0.31799 0.0
H968 H 0.31118 0.00112 0.37787 0.0
H969 H 0.30147 0.95431 0.47512 0.0
H970 H 0.32669 0.01056 0.64418 0.0
H971 H 0.30808 0.99518 0.58433 0.0
C972 C 0.40983 0.42919 0.0918 0.0
C973 C 0.39146 0.42977 0.11338 0.0
C974 C 0.43416 0.44674 0.09542 0.0
C975 C 0.47808 0.49576 0.09178 0.0
H976 H 0.51244 0.51326 0.18471 0.0
C977 C 0.57335 0.57563 0.10407 0.0
C978 C 0.59115 0.57057 0.11906 0.0
C979 C 0.54846 0.55967 0.10765 0.0
C980 C 0.50296 0.5086 0.15866 0.0
H981 H 0.38388 0.44743 0.15786 0.0
H982 H 0.42673 0.47825 0.16457 0.0
H983 H 0.46966 0.48178 0.18224 0.0
H984 H 0.59737 0.54669 0.15326 0.0
H985 H 0.55356 0.51846 0.15957 0.0
H986 H 0.51081 0.52276 0.06817 0.0
C987 C 0.42225 0.46456 0.14433 0.0
C988 C 0.47856 0.4907 0.15727 0.0
C989 C 0.39783 0.44719 0.14025 0.0
C990 C 0.5838 0.55039 0.1404 0.0
C991 C 0.55883 0.53451 0.14443 0.0
C992 C 0.50208 0.51404 0.09332 0.0
C993 C 0.44054 0.46469 0.1215 0.0
C994 C 0.46605 0.48398 0.12368 0.0
C995 C 0.54099 0.5387 0.12714 0.0
C996 C 0.51491 0.52042 0.12663 0.0
H997 H 0.40525 0.41547 0.07157 0.0
H998 H 0.44801 0.44632 0.07781 0.0
H999 H 0.46892 0.49086 0.06557 0.0
H1000 H 0.57875 0.59152 0.08843 0.0
H1001 H 0.53505 0.56348 0.09457 0.0
C1002 C 0.98563 0.56927 0.40647 0.0
C1003 C 0.00846 0.58919 0.40018 0.0
C1004 C 0.98385 0.54703 0.40982 0.0
C1005 C 0.01973 0.51542 0.42542 0.0
H1006 H 0.96563 0.46525 0.37305 0.0
C1007 C 0.01545 0.42583 0.39428 0.0
C1008 C 0.99244 0.40545 0.39519 0.0
C1009 C 0.01728 0.44806 0.3987 0.0
C1010 C 0.98063 0.47893 0.38833 0.0
H1011 H 0.0475 0.60126 0.3938 0.0
H1012 H 0.04433 0.56231 0.39935 0.0
H1013 H 0.96939 0.50438 0.37394 0.0
H1014 H 0.95334 0.39265 0.40268 0.0
H1015 H 0.95659 0.43143 0.41077 0.0
H1016 H 0.0311 0.4899 0.4394 0.0
C1017 C 0.02782 0.56401 0.40198 0.0
C1018 C 0.98281 0.50142 0.38882 0.0
C1019 C 0.02962 0.58636 0.39869 0.0
C1020 C 0.97136 0.4079 0.40164 0.0
C1021 C 0.97321 0.43018 0.40606 0.0
C1022 C 0.01754 0.49286 0.42494 0.0
C1023 C 0.00482 0.54402 0.40687 0.0
C1024 C 0.00241 0.51999 0.40728 0.0
C1025 C -0.00384 0.45056 0.40417 0.0
C1026 C -0.002 0.47435 0.40624 0.0
H1027 H 0.96893 0.57071 0.40815 0.0
H1028 H 0.96592 0.53212 0.41436 0.0
H1029 H 0.03488 0.52923 0.44026 0.0
H1030 H 0.03213 0.42473 0.38933 0.0
H1031 H 0.03522 0.46335 0.39666 0.0
C1032 C 0.57276 0.98922 0.72623 0.0
C1033 C 0.56969 0.96963 0.74637 0.0
C1034 C 0.55478 0.99644 0.72725 0.0
C1035 C 0.50493 0.99444 0.71535 0.0
H1036 H 0.47764 0.0026 0.8062 0.0
C1037 C 0.41756 0.00503 0.72029 0.0
C1038 C 0.42027 0.02479 0.73973 0.0
C1039 C 0.4355 0.99782 0.72289 0.0
C1040 C 0.48509 0.00031 0.78066 0.0
H1041 H 0.54709 0.94358 0.78604 0.0
H1042 H 0.5156 0.95631 0.78818 0.0
H1043 H 0.51078 0.99202 0.80767 0.0
H1044 H 0.44216 0.05119 0.77972 0.0
H1045 H 0.47356 0.03846 0.78467 0.0
H1046 H 0.4788 0.00189 0.68832 0.0
C1047 C 0.53155 0.96576 0.77099 0.0
C1048 C 0.50394 0.99421 0.7815 0.0
C1049 C 0.54934 0.95833 0.76948 0.0
C1050 C 0.44019 0.0363 0.7637 0.0
C1051 C 0.45793 0.02887 0.76681 0.0
C1052 C 0.48568 -0.00011 0.71452 0.0
C1053 C 0.53388 0.98462 0.74936 0.0
C1054 C 0.51412 0.99134 0.74881 0.0
C1055 C 0.45598 0.00982 0.74592 0.0
C1056 C 0.47571 0.00308 0.74712 0.0
H1057 H 0.58871 0.99848 0.70895 0.0
H1058 H 0.55716 0.01122 0.7107 0.0
H1059 H 0.51244 0.99238 0.68978 0.0
H1060 H 0.40193 0.99561 0.70235 0.0
H1061 H 0.43343 0.9829 0.70686 0.0
C1062 C 0.55696 0.58836 0.57282 0.0
C1063 C 0.58098 0.59136 0.57518 0.0
C1064 C 0.53683 0.56587 0.56873 0.0
C1065 C 0.51915 0.50361 0.58628 0.0
H1066 H 0.46216 0.49091 0.52708 0.0
C1067 C 0.43778 0.40984 0.57222 0.0
C1068 C 0.41418 0.40779 0.5753 0.0
C1069 C 0.45844 0.4319 0.56799 0.0
C1070 C 0.47789 0.4942 0.54392 0.0
H1071 H 0.60261 0.57299 0.57327 0.0
H1072 H 0.56776 0.53416 0.56567 0.0
H1073 H 0.49744 0.53027 0.52752 0.0
H1074 H 0.39392 0.42751 0.57515 0.0
H1075 H 0.42976 0.46569 0.56816 0.0
H1076 H 0.49957 0.46774 0.60315 0.0
C1077 C 0.56436 0.54906 0.56781 0.0
C1078 C 0.49809 0.51678 0.54419 0.0
C1079 C 0.5844 0.57143 0.57196 0.0
C1080 C 0.41174 0.4283 0.5729 0.0
C1081 C 0.43235 0.45028 0.56863 0.0
C1082 C 0.49899 0.48109 0.58601 0.0
C1083 C 0.54029 0.54591 0.56686 0.0
C1084 C 0.51894 0.52179 0.56553 0.0
C1085 C 0.456 0.45243 0.56665 0.0
C1086 C 0.47802 0.4761 0.56503 0.0
H1087 H 0.5536 0.60326 0.57527 0.0
H1088 H 0.51852 0.56407 0.56833 0.0
H1089 H 0.53469 0.50692 0.60356 0.0
H1090 H 0.4404 0.39447 0.57384 0.0
H1091 H 0.47637 0.43289 0.56604 0.0
C1092 C 0.97577 0.56708 0.88559 0.0
C1093 C 0.95784 0.56806 0.8634 0.0
C1094 C 0.98115 0.54855 0.88185 0.0
C1095 C 0.97324 0.49817 0.88298 0.0
H1096 H -0.00551 0.48453 0.7906 0.0
C1097 C 0.99331 0.42088 0.86894 0.0
C1098 C 0.01683 0.42735 0.85535 0.0
C1099 C 0.98324 0.43601 0.86522 0.0
C1100 C 0.98839 0.48806 0.81646 0.0
H1101 H 0.93296 0.55209 0.81792 0.0
H1102 H 0.9427 0.51965 0.81083 0.0
H1103 H 0.98298 0.51592 0.79414 0.0
H1104 H 0.04706 0.45289 0.82334 0.0
H1105 H 0.02956 0.47964 0.81694 0.0
H1106 H 0.97826 0.47035 0.90541 0.0
C1107 C 0.95207 0.53282 0.83171 0.0
C1108 C 0.98176 0.5059 0.81844 0.0
C1109 C 0.94636 0.55114 0.83596 0.0
C1110 C 0.02925 0.44808 0.83515 0.0
C1111 C 0.01906 0.46313 0.83102 0.0
C1112 C 0.97917 0.47998 0.8808 0.0
C1113 C 0.96926 0.53122 0.855 0.0
C1114 C 0.97459 0.51136 0.85192 0.0
C1115 C -0.00371 0.45755 0.84702 0.0
C1116 C 0.98734 0.47507 0.84775 0.0
H1117 H 0.98522 0.58036 0.9063 0.0
H1118 H -0.00531 0.5478 0.8998 0.0
H1119 H 0.96784 0.50209 0.90907 0.0
H1120 H 0.98317 0.40455 0.88365 0.0
H1121 H 0.96548 0.43111 0.87728 0.0
C1122 C 0.5794 0.00695 0.24439 0.0
C1123 C 0.59637 0.02753 0.2269 0.0
C1124 C 0.55426 -0.0005 0.24143 0.0
C1125 C 0.50627 0.00121 0.25214 0.0
H1126 H 0.47281 0.99531 0.15995 0.0
C1127 C 0.40842 0.99042 0.24379 0.0
C1128 C 0.39191 0.97075 0.22372 0.0
C1129 C 0.43363 0.99793 0.24195 0.0
C1130 C 0.48201 0.99699 0.18584 0.0
H1131 H 0.60083 0.0551 0.18948 0.0
H1132 H 0.55665 0.04196 0.18394 0.0
H1133 H 0.51664 0.00627 0.16031 0.0
H1134 H 0.38837 0.94481 0.18344 0.0
H1135 H 0.43262 0.95811 0.17978 0.0
H1136 H 0.47216 0.99304 0.27777 0.0
C1137 C 0.56276 0.03193 0.20065 0.0
C1138 C 0.507 0.00329 0.18605 0.0
C1139 C 0.58794 0.0396 0.20414 0.0
C1140 C 0.40089 0.95963 0.19991 0.0
C1141 C 0.42611 0.96738 0.19754 0.0
C1142 C 0.48159 0.9957 0.25197 0.0
C1143 C 0.54574 0.01211 0.21995 0.0
C1144 C 0.51929 0.0053 0.21924 0.0
C1145 C 0.44266 0.98633 0.21905 0.0
C1146 C 0.46915 0.99328 0.21887 0.0
H1147 H 0.58563 0.99707 0.26126 0.0
H1148 H 0.54148 0.98397 0.25614 0.0
H1149 H 0.51527 0.00258 0.2781 0.0
H1150 H 0.40177 -0.00047 0.26164 0.0
H1151 H 0.44607 0.01274 0.2585 0.0
loop_
_geom_bond_atom_site_label_1
_geom_bond_atom_site_label_2
_geom_bond_distance
_geom_bond_site_symmetry_2
_ccdc_geom_bond_type
Mn0 O5 2.095 . S
Mn0 O15 2.162 . S
Mn0 O16 2.297 . S
Mn0 O24 2.385 . S
Mn0 O25 2.209 . S
Mn0 O26 2.094 . S
Mn1 O6 2.121 . S
Mn1 N8 2.257 . S
Mn1 N17 2.282 1_554 S
Mn1 O25 2.215 . S
Mn1 O27 2.117 1_554 S
C2 O24 1.234 . S
C2 O25 1.283 . S
C3 O15 1.281 . S
C3 O16 1.236 . S
C4 O26 1.240 1_556 S
C4 O27 1.264 . S
O5 Mn0 2.095 . S
O5 C14 1.250 . S
O6 Mn1 2.121 . S
O6 C14 1.258 . S
C7 N8 1.326 . S
C7 C11 1.460 . S
C7 H13 0.929 . S
N8 Mn1 2.257 . S
N8 C7 1.326 . S
N8 C12 1.362 1_554 S
C9 C10 1.258 1_556 S
C9 C12 1.431 . S
C9 C29 1.449 . S
C10 C9 1.258 1_554 S
C10 C11 1.477 . S
C10 H30 0.931 . S
C11 C7 1.460 . S
C11 C10 1.477 . S
C11 H31 0.930 . S
C12 N8 1.362 1_556 S
C12 C9 1.431 . S
C12 C22 1.476 . S
H13 C7 0.929 . S
C14 O5 1.250 . S
C14 O6 1.258 . S
O15 Mn0 2.162 . S
O15 C3 1.281 . S
O16 Mn0 2.297 . S
O16 C3 1.236 . S
N17 Mn1 2.282 1_556 S
N17 C18 1.328 . S
N17 C22 1.318 . S
C18 N17 1.328 . S
C18 C19 1.457 . S
C18 H23 0.929 . S
C19 C18 1.457 . S
C19 C20 1.291 . S
C19 H32 0.931 . S
C20 C19 1.291 . S
C20 C21 1.373 . S
C20 H33 0.929 . S
C21 C20 1.373 . S
C21 C22 1.396 . S
C21 C28 1.403 . S
C22 C12 1.476 . S
C22 N17 1.318 . S
C22 C21 1.396 . S
H23 C18 0.929 . S
O24 Mn0 2.385 . S
O24 C2 1.234 . S
O25 Mn0 2.209 . S
O25 Mn1 2.215 . S
O25 C2 1.283 . S
O26 Mn0 2.094 . S
O26 C4 1.240 1_554 S
O27 Mn1 2.117 1_556 S
O27 C4 1.264 . S
C28 C21 1.403 . S
C28 C29 1.399 . S
C28 H34 0.929 . S
C29 C9 1.449 . S
C29 C28 1.399 . S
C29 H35 0.930 . S
H30 C10 0.931 . S
H31 C11 0.930 . S
H32 C19 0.931 . S
H33 C20 0.929 . S
H34 C28 0.929 . S
H35 C29 0.930 . S
Mn36 O41 2.095 . S
Mn36 O51 2.162 . S
Mn36 O52 2.297 . S
Mn36 O60 2.385 . S
Mn36 O61 2.209 . S
Mn36 O62 2.094 . S
Mn37 O42 2.121 . S
Mn37 N44 2.257 . S
Mn37 N53 2.282 . S
Mn37 O61 2.215 1_455 S
Mn37 O63 2.117 1_455 S
C38 O60 1.234 . S
C38 O61 1.283 . S
C39 O51 1.281 . S
C39 O52 1.236 . S
C40 O62 1.240 . S
C40 O63 1.264 . S
O41 Mn36 2.095 . S
O41 C50 1.250 . S
O42 Mn37 2.121 . S
O42 C50 1.258 1_455 S
C43 N44 1.326 . S
C43 C47 1.460 . S
C43 H49 0.929 . S
N44 Mn37 2.257 . S
N44 C43 1.326 . S
N44 C48 1.362 . S
C45 C46 1.258 . S
C45 C48 1.431 . S
C45 C65 1.449 . S
C46 C45 1.258 . S
C46 C47 1.477 . S
C46 H66 0.931 . S
C47 C43 1.460 . S
C47 C46 1.477 . S
C47 H67 0.930 . S
C48 N44 1.362 . S
C48 C45 1.431 . S
C48 C58 1.476 . S
H49 C43 0.929 . S
C50 O41 1.250 . S
C50 O42 1.258 1_655 S
O51 Mn36 2.162 . S
O51 C39 1.281 . S
O52 Mn36 2.297 . S
O52 C39 1.236 . S
N53 Mn37 2.282 . S
N53 C54 1.328 . S
N53 C58 1.318 . S
C54 N53 1.328 . S
C54 C55 1.457 . S
C54 H59 0.929 . S
C55 C54 1.457 . S
C55 C56 1.291 . S
C55 H68 0.931 . S
C56 C55 1.291 . S
C56 C57 1.373 . S
C56 H69 0.929 . S
C57 C56 1.373 . S
C57 C58 1.396 . S
C57 C64 1.403 . S
C58 C48 1.476 . S
C58 N53 1.318 . S
C58 C57 1.396 . S
H59 C54 0.929 . S
O60 Mn36 2.385 . S
O60 C38 1.234 . S
O61 Mn36 2.209 . S
O61 Mn37 2.215 1_655 S
O61 C38 1.283 . S
O62 Mn36 2.094 . S
O62 C40 1.240 . S
O63 Mn37 2.117 1_655 S
O63 C40 1.264 . S
C64 C57 1.403 . S
C64 C65 1.399 . S
C64 H70 0.929 . S
C65 C45 1.449 . S
C65 C64 1.399 . S
C65 H71 0.930 . S
H66 C46 0.931 . S
H67 C47 0.930 . S
H68 C55 0.931 . S
H69 C56 0.929 . S
H70 C64 0.929 . S
H71 C65 0.930 . S
Mn72 O77 2.095 . S
Mn72 O87 2.162 . S
Mn72 O88 2.297 . S
Mn72 O96 2.385 . S
Mn72 O97 2.209 . S
Mn72 O98 2.094 . S
Mn73 O78 2.121 . S
Mn73 N80 2.257 . S
Mn73 N89 2.282 . S
Mn73 O97 2.215 . S
Mn73 O99 2.117 . S
C74 O96 1.234 . S
C74 O97 1.283 . S
C75 O87 1.281 . S
C75 O88 1.236 . S
C76 O98 1.240 . S
C76 O99 1.264 . S
O77 Mn72 2.095 . S
O77 C86 1.250 . S
O78 Mn73 2.121 . S
O78 C86 1.258 . S
C79 N80 1.326 . S
C79 C83 1.460 . S
C79 H85 0.929 . S
N80 Mn73 2.257 . S
N80 C79 1.326 . S
N80 C84 1.362 . S
C81 C82 1.258 . S
C81 C84 1.431 . S
C81 C101 1.449 . S
C82 C81 1.258 . S
C82 C83 1.477 . S
C82 H102 0.931 . S
C83 C79 1.460 . S
C83 C82 1.477 . S
C83 H103 0.930 . S
C84 N80 1.362 . S
C84 C81 1.431 . S
C84 C94 1.476 . S
H85 C79 0.929 . S
C86 O77 1.250 . S
C86 O78 1.258 . S
O87 Mn72 2.162 . S
O87 C75 1.281 . S
O88 Mn72 2.297 . S
O88 C75 1.236 . S
N89 Mn73 2.282 . S
N89 C90 1.328 . S
N89 C94 1.318 . S
C90 N89 1.328 . S
C90 C91 1.457 . S
C90 H95 0.929 . S
C91 C90 1.457 . S
C91 C92 1.291 . S
C91 H104 0.931 1_565 S
C92 C91 1.291 . S
C92 C93 1.373 . S
C92 H105 0.929 . S
C93 C92 1.373 . S
C93 C94 1.396 . S
C93 C100 1.403 . S
C94 C84 1.476 . S
C94 N89 1.318 . S
C94 C93 1.396 . S
H95 C90 0.929 . S
O96 Mn72 2.385 . S
O96 C74 1.234 . S
O97 Mn72 2.209 . S
O97 Mn73 2.215 . S
O97 C74 1.283 . S
O98 Mn72 2.094 . S
O98 C76 1.240 . S
O99 Mn73 2.117 . S
O99 C76 1.264 . S
C100 C93 1.403 . S
C100 C101 1.399 . S
C100 H106 0.929 . S
C101 C81 1.449 . S
C101 C100 1.399 . S
C101 H107 0.930 . S
H102 C82 0.931 . S
H103 C83 0.930 . S
H104 C91 0.931 1_545 S
H105 C92 0.929 . S
H106 C100 0.929 . S
H107 C101 0.930 . S
Mn108 O113 2.095 . S
Mn108 O123 2.162 . S
Mn108 O124 2.297 . S
Mn108 O132 2.385 . S
Mn108 O133 2.209 . S
Mn108 O134 2.094 . S
Mn109 O114 2.121 . S
Mn109 N116 2.257 . S
Mn109 N125 2.282 1_554 S
Mn109 O133 2.215 . S
Mn109 O135 2.117 1_554 S
C110 O132 1.234 . S
C110 O133 1.283 . S
C111 O123 1.281 . S
C111 O124 1.236 . S
C112 O134 1.240 1_556 S
C112 O135 1.264 . S
O113 Mn108 2.095 . S
O113 C122 1.250 . S
O114 Mn109 2.121 . S
O114 C122 1.258 . S
C115 N116 1.326 . S
C115 C119 1.460 . S
C115 H121 0.929 . S
N116 Mn109 2.257 . S
N116 C115 1.326 . S
N116 C120 1.362 1_554 S
C117 C118 1.258 1_556 S
C117 C120 1.431 . S
C117 C137 1.449 . S
C118 C117 1.258 1_554 S
C118 C119 1.477 . S
C118 H138 0.931 . S
C119 C115 1.460 . S
C119 C118 1.477 . S
C119 H139 0.930 . S
C120 N116 1.362 1_556 S
C120 C117 1.431 . S
C120 C130 1.476 . S
H121 C115 0.929 . S
C122 O113 1.250 . S
C122 O114 1.258 . S
O123 Mn108 2.162 . S
O123 C111 1.281 . S
O124 Mn108 2.297 . S
O124 C111 1.236 . S
N125 Mn109 2.282 1_556 S
N125 C126 1.328 . S
N125 C130 1.318 . S
C126 N125 1.328 . S
C126 C127 1.457 . S
C126 H131 0.929 . S
C127 C126 1.457 . S
C127 C128 1.291 . S
C127 H140 0.931 . S
C128 C127 1.291 . S
C128 C129 1.373 . S
C128 H141 0.929 . S
C129 C128 1.373 . S
C129 C130 1.396 . S
C129 C136 1.403 . S
C130 C120 1.476 . S
C130 N125 1.318 . S
C130 C129 1.396 . S
H131 C126 0.929 . S
O132 Mn108 2.385 . S
O132 C110 1.234 . S
O133 Mn108 2.209 . S
O133 Mn109 2.215 . S
O133 C110 1.283 . S
O134 Mn108 2.094 . S
O134 C112 1.240 1_554 S
O135 Mn109 2.117 1_556 S
O135 C112 1.264 . S
C136 C129 1.403 . S
C136 C137 1.399 . S
C136 H142 0.929 . S
C137 C117 1.449 . S
C137 C136 1.399 . S
C137 H143 0.930 . S
H138 C118 0.931 . S
H139 C119 0.930 . S
H140 C127 0.931 . S
H141 C128 0.929 . S
H142 C136 0.929 . S
H143 C137 0.930 . S
Mn144 O149 2.095 . S
Mn144 O159 2.162 . S
Mn144 O160 2.297 . S
Mn144 O168 2.385 . S
Mn144 O169 2.209 . S
Mn144 O170 2.094 . S
Mn145 O150 2.121 . S
Mn145 N152 2.257 . S
Mn145 N161 2.282 . S
Mn145 O169 2.215 1_655 S
Mn145 O171 2.117 1_655 S
C146 O168 1.234 . S
C146 O169 1.283 . S
C147 O159 1.281 . S
C147 O160 1.236 . S
C148 O170 1.240 . S
C148 O171 1.264 . S
O149 Mn144 2.095 . S
O149 C158 1.250 . S
O150 Mn145 2.121 . S
O150 C158 1.258 1_655 S
C151 N152 1.326 . S
C151 C155 1.460 . S
C151 H157 0.929 . S
N152 Mn145 2.257 . S
N152 C151 1.326 . S
N152 C156 1.362 . S
C153 C154 1.258 . S
C153 C156 1.431 . S
C153 C173 1.449 . S
C154 C153 1.258 . S
C154 C155 1.477 . S
C154 H174 0.931 . S
C155 C151 1.460 . S
C155 C154 1.477 . S
C155 H175 0.930 . S
C156 N152 1.362 . S
C156 C153 1.431 . S
C156 C166 1.476 . S
H157 C151 0.929 . S
C158 O149 1.250 . S
C158 O150 1.258 1_455 S
O159 Mn144 2.162 . S
O159 C147 1.281 . S
O160 Mn144 2.297 . S
O160 C147 1.236 . S
N161 Mn145 2.282 . S
N161 C162 1.328 . S
N161 C166 1.318 . S
C162 N161 1.328 . S
C162 C163 1.457 . S
C162 H167 0.929 . S
C163 C162 1.457 . S
C163 C164 1.291 . S
C163 H176 0.931 . S
C164 C163 1.291 . S
C164 C165 1.373 . S
C164 H177 0.929 . S
C165 C164 1.373 . S
C165 C166 1.396 . S
C165 C172 1.403 . S
C166 C156 1.476 . S
C166 N161 1.318 . S
C166 C165 1.396 . S
H167 C162 0.929 . S
O168 Mn144 2.385 . S
O168 C146 1.234 . S
O169 Mn144 2.209 . S
O169 Mn145 2.215 1_455 S
O169 C146 1.283 . S
O170 Mn144 2.094 . S
O170 C148 1.240 . S
O171 Mn145 2.117 1_455 S
O171 C148 1.264 . S
C172 C165 1.403 . S
C172 C173 1.399 . S
C172 H178 0.929 . S
C173 C153 1.449 . S
C173 C172 1.399 . S
C173 H179 0.930 . S
H174 C154 0.931 . S
H175 C155 0.930 . S
H176 C163 0.931 . S
H177 C164 0.929 . S
H178 C172 0.929 . S
H179 C173 0.930 . S
Mn180 O185 2.095 . S
Mn180 O195 2.162 . S
Mn180 O196 2.297 . S
Mn180 O204 2.385 . S
Mn180 O205 2.209 . S
Mn180 O206 2.094 . S
Mn181 O186 2.121 . S
Mn181 N188 2.257 . S
Mn181 N197 2.282 . S
Mn181 O205 2.215 . S
Mn181 O207 2.117 . S
C182 O204 1.234 . S
C182 O205 1.283 . S
C183 O195 1.281 . S
C183 O196 1.236 . S
C184 O206 1.240 . S
C184 O207 1.264 . S
O185 Mn180 2.095 . S
O185 C194 1.250 . S
O186 Mn181 2.121 . S
O186 C194 1.258 . S
C187 N188 1.326 . S
C187 C191 1.460 . S
C187 H193 0.929 . S
N188 Mn181 2.257 . S
N188 C187 1.326 . S
N188 C192 1.362 . S
C189 C190 1.258 . S
C189 C192 1.431 . S
C189 C209 1.449 . S
C190 C189 1.258 . S
C190 C191 1.477 . S
C190 H210 0.931 . S
C191 C187 1.460 . S
C191 C190 1.477 . S
C191 H211 0.930 . S
C192 N188 1.362 . S
C192 C189 1.431 . S
C192 C202 1.476 . S
H193 C187 0.929 . S
C194 O185 1.250 . S
C194 O186 1.258 . S
O195 Mn180 2.162 . S
O195 C183 1.281 . S
O196 Mn180 2.297 . S
O196 C183 1.236 . S
N197 Mn181 2.282 . S
N197 C198 1.328 . S
N197 C202 1.318 . S
C198 N197 1.328 . S
C198 C199 1.457 . S
C198 H203 0.929 . S
C199 C198 1.457 . S
C199 C200 1.291 . S
C199 H212 0.931 1_545 S
C200 C199 1.291 . S
C200 C201 1.373 . S
C200 H213 0.929 . S
C201 C200 1.373 . S
C201 C202 1.396 . S
C201 C208 1.403 . S
C202 C192 1.476 . S
C202 N197 1.318 . S
C202 C201 1.396 . S
H203 C198 0.929 . S
O204 Mn180 2.385 . S
O204 C182 1.234 . S
O205 Mn180 2.209 . S
O205 Mn181 2.215 . S
O205 C182 1.283 . S
O206 Mn180 2.094 . S
O206 C184 1.240 . S
O207 Mn181 2.117 . S
O207 C184 1.264 . S
C208 C201 1.403 . S
C208 C209 1.399 . S
C208 H214 0.929 . S
C209 C189 1.449 . S
C209 C208 1.399 . S
C209 H215 0.930 . S
H210 C190 0.931 . S
H211 C191 0.930 . S
H212 C199 0.931 1_565 S
H213 C200 0.929 . S
H214 C208 0.929 . S
H215 C209 0.930 . S
Mn216 O221 2.095 . S
Mn216 O231 2.162 . S
Mn216 O232 2.297 . S
Mn216 O240 2.385 . S
Mn216 O241 2.209 . S
Mn216 O242 2.094 . S
Mn217 O222 2.121 . S
Mn217 N224 2.257 . S
Mn217 N233 2.282 . S
Mn217 O241 2.215 . S
Mn217 O243 2.117 . S
C218 O240 1.234 . S
C218 O241 1.283 . S
C219 O231 1.281 . S
C219 O232 1.236 . S
C220 O242 1.240 . S
C220 O243 1.264 . S
O221 Mn216 2.095 . S
O221 C230 1.250 . S
O222 Mn217 2.121 . S
O222 C230 1.258 . S
C223 N224 1.326 . S
C223 C227 1.460 . S
C223 H229 0.929 . S
N224 Mn217 2.257 . S
N224 C223 1.326 . S
N224 C228 1.362 . S
C225 C226 1.258 . S
C225 C228 1.431 . S
C225 C245 1.449 . S
C226 C225 1.258 . S
C226 C227 1.477 . S
C226 H246 0.931 . S
C227 C223 1.460 . S
C227 C226 1.477 . S
C227 H247 0.930 . S
C228 N224 1.362 . S
C228 C225 1.431 . S
C228 C238 1.476 . S
H229 C223 0.929 . S
C230 O221 1.250 . S
C230 O222 1.258 . S
O231 Mn216 2.162 . S
O231 C219 1.281 . S
O232 Mn216 2.297 . S
O232 C219 1.236 . S
N233 Mn217 2.282 . S
N233 C234 1.328 . S
N233 C238 1.318 . S
C234 N233 1.328 . S
C234 C235 1.457 . S
C234 H239 0.929 . S
C235 C234 1.457 . S
C235 C236 1.291 . S
C235 H248 0.931 . S
C236 C235 1.291 . S
C236 C237 1.373 . S
C236 H249 0.929 . S
C237 C236 1.373 . S
C237 C238 1.396 . S
C237 C244 1.403 . S
C238 C228 1.476 . S
C238 N233 1.318 . S
C238 C237 1.396 . S
H239 C234 0.929 . S
O240 Mn216 2.385 . S
O240 C218 1.234 . S
O241 Mn216 2.209 . S
O241 Mn217 2.215 . S
O241 C218 1.283 . S
O242 Mn216 2.094 . S
O242 C220 1.240 . S
O243 Mn217 2.117 . S
O243 C220 1.264 . S
C244 C237 1.403 . S
C244 C245 1.399 . S
C244 H250 0.929 . S
C245 C225 1.449 . S
C245 C244 1.399 . S
C245 H251 0.930 . S
H246 C226 0.931 . S
H247 C227 0.930 . S
H248 C235 0.931 . S
H249 C236 0.929 . S
H250 C244 0.929 . S
H251 C245 0.930 . S
Mn252 O257 2.095 . S
Mn252 O267 2.162 . S
Mn252 O268 2.297 . S
Mn252 O276 2.385 . S
Mn252 O277 2.209 . S
Mn252 O278 2.094 . S
Mn253 O258 2.121 . S
Mn253 N260 2.257 . S
Mn253 N269 2.282 1_556 S
Mn253 O277 2.215 . S
Mn253 O279 2.117 1_556 S
C254 O276 1.234 . S
C254 O277 1.283 . S
C255 O267 1.281 . S
C255 O268 1.236 . S
C256 O278 1.240 1_554 S
C256 O279 1.264 . S
O257 Mn252 2.095 . S
O257 C266 1.250 . S
O258 Mn253 2.121 . S
O258 C266 1.258 . S
C259 N260 1.326 . S
C259 C263 1.460 . S
C259 H265 0.929 . S
N260 Mn253 2.257 . S
N260 C259 1.326 . S
N260 C264 1.362 1_556 S
C261 C262 1.258 1_554 S
C261 C264 1.431 . S
C261 C281 1.449 . S
C262 C261 1.258 1_556 S
C262 C263 1.477 . S
C262 H282 0.931 . S
C263 C259 1.460 . S
C263 C262 1.477 . S
C263 H283 0.930 . S
C264 N260 1.362 1_554 S
C264 C261 1.431 . S
C264 C274 1.476 . S
H265 C259 0.929 . S
C266 O257 1.250 . S
C266 O258 1.258 . S
O267 Mn252 2.162 . S
O267 C255 1.281 . S
O268 Mn252 2.297 . S
O268 C255 1.236 . S
N269 Mn253 2.282 1_554 S
N269 C270 1.328 . S
N269 C274 1.318 . S
C270 N269 1.328 . S
C270 C271 1.457 . S
C270 H275 0.929 . S
C271 C270 1.457 . S
C271 C272 1.291 . S
C271 H284 0.931 1_655 S
C272 C271 1.291 . S
C272 C273 1.373 . S
C272 H285 0.929 . S
C273 C272 1.373 . S
C273 C274 1.396 . S
C273 C280 1.403 . S
C274 C264 1.476 . S
C274 N269 1.318 . S
C274 C273 1.396 . S
H275 C270 0.929 . S
O276 Mn252 2.385 . S
O276 C254 1.234 . S
O277 Mn252 2.209 . S
O277 Mn253 2.215 . S
O277 C254 1.283 . S
O278 Mn252 2.094 . S
O278 C256 1.240 1_556 S
O279 Mn253 2.117 1_554 S
O279 C256 1.264 . S
C280 C273 1.403 . S
C280 C281 1.399 . S
C280 H286 0.929 . S
C281 C261 1.449 . S
C281 C280 1.399 . S
C281 H287 0.930 . S
H282 C262 0.931 . S
H283 C263 0.930 . S
H284 C271 0.931 1_455 S
H285 C272 0.929 . S
H286 C280 0.929 . S
H287 C281 0.930 . S
Mn288 O293 2.095 . S
Mn288 O303 2.162 . S
Mn288 O304 2.297 . S
Mn288 O312 2.385 . S
Mn288 O313 2.209 . S
Mn288 O314 2.094 . S
Mn289 O294 2.121 . S
Mn289 N296 2.257 . S
Mn289 N305 2.282 . S
Mn289 O313 2.215 . S
Mn289 O315 2.117 . S
C290 O312 1.234 . S
C290 O313 1.283 . S
C291 O303 1.281 . S
C291 O304 1.236 . S
C292 O314 1.240 . S
C292 O315 1.264 . S
O293 Mn288 2.095 . S
O293 C302 1.250 . S
O294 Mn289 2.121 . S
O294 C302 1.258 . S
C295 N296 1.326 . S
C295 C299 1.460 . S
C295 H301 0.929 . S
N296 Mn289 2.257 . S
N296 C295 1.326 . S
N296 C300 1.362 . S
C297 C298 1.258 . S
C297 C300 1.431 . S
C297 C317 1.449 . S
C298 C297 1.258 . S
C298 C299 1.477 . S
C298 H318 0.931 . S
C299 C295 1.460 . S
C299 C298 1.477 . S
C299 H319 0.930 . S
C300 N296 1.362 . S
C300 C297 1.431 . S
C300 C310 1.476 . S
H301 C295 0.929 . S
C302 O293 1.250 . S
C302 O294 1.258 . S
O303 Mn288 2.162 . S
O303 C291 1.281 . S
O304 Mn288 2.297 . S
O304 C291 1.236 . S
N305 Mn289 2.282 . S
N305 C306 1.328 . S
N305 C310 1.318 . S
C306 N305 1.328 . S
C306 C307 1.457 . S
C306 H311 0.929 . S
C307 C306 1.457 . S
C307 C308 1.291 . S
C307 H320 0.931 1_565 S
C308 C307 1.291 . S
C308 C309 1.373 . S
C308 H321 0.929 . S
C309 C308 1.373 . S
C309 C310 1.396 . S
C309 C316 1.403 . S
C310 C300 1.476 . S
C310 N305 1.318 . S
C310 C309 1.396 . S
H311 C306 0.929 . S
O312 Mn288 2.385 . S
O312 C290 1.234 . S
O313 Mn288 2.209 . S
O313 Mn289 2.215 . S
O313 C290 1.283 . S
O314 Mn288 2.094 . S
O314 C292 1.240 . S
O315 Mn289 2.117 . S
O315 C292 1.264 . S
C316 C309 1.403 . S
C316 C317 1.399 . S
C316 H322 0.929 . S
C317 C297 1.449 . S
C317 C316 1.399 . S
C317 H323 0.930 . S
H318 C298 0.931 . S
H319 C299 0.930 . S
H320 C307 0.931 1_545 S
H321 C308 0.929 . S
H322 C316 0.929 . S
H323 C317 0.930 . S
Mn324 O329 2.095 . S
Mn324 O339 2.162 . S
Mn324 O340 2.297 . S
Mn324 O348 2.385 . S
Mn324 O349 2.209 . S
Mn324 O350 2.094 . S
Mn325 O330 2.121 . S
Mn325 N332 2.257 . S
Mn325 N341 2.282 . S
Mn325 O349 2.215 . S
Mn325 O351 2.117 . S
C326 O348 1.234 . S
C326 O349 1.283 . S
C327 O339 1.281 . S
C327 O340 1.236 . S
C328 O350 1.240 . S
C328 O351 1.264 . S
O329 Mn324 2.095 . S
O329 C338 1.250 . S
O330 Mn325 2.121 . S
O330 C338 1.258 . S
C331 N332 1.326 . S
C331 C335 1.460 . S
C331 H337 0.929 . S
N332 Mn325 2.257 . S
N332 C331 1.326 . S
N332 C336 1.362 . S
C333 C334 1.258 . S
C333 C336 1.431 . S
C333 C353 1.449 . S
C334 C333 1.258 . S
C334 C335 1.477 . S
C334 H354 0.931 . S
C335 C331 1.460 . S
C335 C334 1.477 . S
C335 H355 0.930 . S
C336 N332 1.362 . S
C336 C333 1.431 . S
C336 C346 1.476 . S
H337 C331 0.929 . S
C338 O329 1.250 . S
C338 O330 1.258 . S
O339 Mn324 2.162 . S
O339 C327 1.281 . S
O340 Mn324 2.297 . S
O340 C327 1.236 . S
N341 Mn325 2.282 . S
N341 C342 1.328 . S
N341 C346 1.318 . S
C342 N341 1.328 . S
C342 C343 1.457 . S
C342 H347 0.929 . S
C343 C342 1.457 . S
C343 C344 1.291 . S
C343 H356 0.931 . S
C344 C343 1.291 . S
C344 C345 1.373 . S
C344 H357 0.929 . S
C345 C344 1.373 . S
C345 C346 1.396 . S
C345 C352 1.403 . S
C346 C336 1.476 . S
C346 N341 1.318 . S
C346 C345 1.396 . S
H347 C342 0.929 . S
O348 Mn324 2.385 . S
O348 C326 1.234 . S
O349 Mn324 2.209 . S
O349 Mn325 2.215 . S
O349 C326 1.283 . S
O350 Mn324 2.094 . S
O350 C328 1.240 . S
O351 Mn325 2.117 . S
O351 C328 1.264 . S
C352 C345 1.403 . S
C352 C353 1.399 . S
C352 H358 0.929 . S
C353 C333 1.449 . S
C353 C352 1.399 . S
C353 H359 0.930 . S
H354 C334 0.931 . S
H355 C335 0.930 . S
H356 C343 0.931 . S
H357 C344 0.929 . S
H358 C352 0.929 . S
H359 C353 0.930 . S
Mn360 O365 2.095 . S
Mn360 O375 2.162 . S
Mn360 O376 2.297 . S
Mn360 O384 2.385 . S
Mn360 O385 2.209 . S
Mn360 O386 2.094 . S
Mn361 O366 2.121 . S
Mn361 N368 2.257 . S
Mn361 N377 2.282 1_556 S
Mn361 O385 2.215 . S
Mn361 O387 2.117 1_556 S
C362 O384 1.234 . S
C362 O385 1.283 . S
C363 O375 1.281 . S
C363 O376 1.236 . S
C364 O386 1.240 1_554 S
C364 O387 1.264 . S
O365 Mn360 2.095 . S
O365 C374 1.250 . S
O366 Mn361 2.121 . S
O366 C374 1.258 . S
C367 N368 1.326 . S
C367 C371 1.460 . S
C367 H373 0.929 . S
N368 Mn361 2.257 . S
N368 C367 1.326 . S
N368 C372 1.362 1_556 S
C369 C370 1.258 1_554 S
C369 C372 1.431 . S
C369 C389 1.449 . S
C370 C369 1.258 1_556 S
C370 C371 1.477 . S
C370 H390 0.931 . S
C371 C367 1.460 . S
C371 C370 1.477 . S
C371 H391 0.930 . S
C372 N368 1.362 1_554 S
C372 C369 1.431 . S
C372 C382 1.476 . S
H373 C367 0.929 . S
C374 O365 1.250 . S
C374 O366 1.258 . S
O375 Mn360 2.162 . S
O375 C363 1.281 . S
O376 Mn360 2.297 . S
O376 C363 1.236 . S
N377 Mn361 2.282 1_554 S
N377 C378 1.328 . S
N377 C382 1.318 . S
C378 N377 1.328 . S
C378 C379 1.457 . S
C378 H383 0.929 . S
C379 C378 1.457 . S
C379 C380 1.291 . S
C379 H392 0.931 1_455 S
C380 C379 1.291 . S
C380 C381 1.373 . S
C380 H393 0.929 . S
C381 C380 1.373 . S
C381 C382 1.396 . S
C381 C388 1.403 . S
C382 C372 1.476 . S
C382 N377 1.318 . S
C382 C381 1.396 . S
H383 C378 0.929 . S
O384 Mn360 2.385 . S
O384 C362 1.234 . S
O385 Mn360 2.209 . S
O385 Mn361 2.215 . S
O385 C362 1.283 . S
O386 Mn360 2.094 . S
O386 C364 1.240 1_556 S
O387 Mn361 2.117 1_554 S
O387 C364 1.264 . S
C388 C381 1.403 . S
C388 C389 1.399 . S
C388 H394 0.929 . S
C389 C369 1.449 . S
C389 C388 1.399 . S
C389 H395 0.930 . S
H390 C370 0.931 . S
H391 C371 0.930 . S
H392 C379 0.931 1_655 S
H393 C380 0.929 . S
H394 C388 0.929 . S
H395 C389 0.930 . S
Mn396 O401 2.095 . S
Mn396 O411 2.162 . S
Mn396 O412 2.297 . S
Mn396 O420 2.385 . S
Mn396 O421 2.209 . S
Mn396 O422 2.094 . S
Mn397 O402 2.121 . S
Mn397 N404 2.257 . S
Mn397 N413 2.282 . S
Mn397 O421 2.215 . S
Mn397 O423 2.117 . S
C398 O420 1.234 . S
C398 O421 1.283 . S
C399 O411 1.281 . S
C399 O412 1.236 . S
C400 O422 1.240 . S
C400 O423 1.264 . S
O401 Mn396 2.095 . S
O401 C410 1.250 . S
O402 Mn397 2.121 . S
O402 C410 1.258 . S
C403 N404 1.326 . S
C403 C407 1.460 . S
C403 H409 0.929 . S
N404 Mn397 2.257 . S
N404 C403 1.326 . S
N404 C408 1.362 . S
C405 C406 1.258 . S
C405 C408 1.431 . S
C405 C425 1.449 . S
C406 C405 1.258 . S
C406 C407 1.477 . S
C406 H426 0.931 . S
C407 C403 1.460 . S
C407 C406 1.477 . S
C407 H427 0.930 . S
C408 N404 1.362 . S
C408 C405 1.431 . S
C408 C418 1.476 . S
H409 C403 0.929 . S
C410 O401 1.250 . S
C410 O402 1.258 . S
O411 Mn396 2.162 . S
O411 C399 1.281 . S
O412 Mn396 2.297 . S
O412 C399 1.236 . S
N413 Mn397 2.282 . S
N413 C414 1.328 . S
N413 C418 1.318 . S
C414 N413 1.328 . S
C414 C415 1.457 . S
C414 H419 0.929 . S
C415 C414 1.457 . S
C415 C416 1.291 . S
C415 H428 0.931 1_545 S
C416 C415 1.291 . S
C416 C417 1.373 . S
C416 H429 0.929 . S
C417 C416 1.373 . S
C417 C418 1.396 . S
C417 C424 1.403 . S
C418 C408 1.476 . S
C418 N413 1.318 . S
C418 C417 1.396 . S
H419 C414 0.929 . S
O420 Mn396 2.385 . S
O420 C398 1.234 . S
O421 Mn396 2.209 . S
O421 Mn397 2.215 . S
O421 C398 1.283 . S
O422 Mn396 2.094 . S
O422 C400 1.240 . S
O423 Mn397 2.117 . S
O423 C400 1.264 . S
C424 C417 1.403 . S
C424 C425 1.399 . S
C424 H430 0.929 . S
C425 C405 1.449 . S
C425 C424 1.399 . S
C425 H431 0.930 . S
H426 C406 0.931 . S
H427 C407 0.930 . S
H428 C415 0.931 1_565 S
H429 C416 0.929 . S
H430 C424 0.929 . S
H431 C425 0.930 . S
C432 C433 1.349 . S
C432 C434 1.327 . S
C432 H457 0.950 . S
C433 C432 1.349 . S
C433 C449 1.349 . S
C434 C432 1.327 . S
C434 C453 1.429 . S
C434 H458 0.950 . S
C435 C452 1.574 . S
C435 C454 1.368 . S
C435 H459 0.949 . S
H436 C440 0.949 . S
C437 C438 1.349 . S
C437 C439 1.327 . S
C437 H460 0.950 . S
C438 C437 1.349 . S
C438 C450 1.349 . S
C439 C437 1.327 . S
C439 C455 1.429 . S
C439 H461 0.950 . S
C440 H436 0.949 . S
C440 C448 1.574 . S
C440 C456 1.368 . S
H441 C449 0.950 . S
H442 C447 0.950 . S
H443 C448 0.949 . S
H444 C450 0.950 . S
H445 C451 0.950 . S
H446 C452 0.949 . S
C447 H442 0.950 . S
C447 C449 1.327 . S
C447 C453 1.429 . S
C448 C440 1.574 . S
C448 H443 0.949 . S
C448 C454 1.368 . S
C449 C433 1.349 . S
C449 H441 0.950 . S
C449 C447 1.327 . S
C450 C438 1.349 . S
C450 H444 0.950 . S
C450 C451 1.327 . S
C451 H445 0.950 . S
C451 C450 1.327 . S
C451 C455 1.429 . S
C452 C435 1.574 . S
C452 H446 0.949 . S
C452 C456 1.368 . S
C453 C434 1.429 . S
C453 C447 1.429 . S
C453 C454 1.523 . S
C454 C435 1.368 . S
C454 C448 1.368 . S
C454 C453 1.523 . S
C455 C439 1.429 . S
C455 C451 1.429 . S
C455 C456 1.523 . S
C456 C440 1.368 . S
C456 C452 1.368 . S
C456 C455 1.523 . S
H457 C432 0.950 . S
H458 C434 0.950 . S
H459 C435 0.949 . S
H460 C437 0.950 . S
H461 C439 0.950 . S
C462 C463 1.349 . S
C462 C464 1.327 . S
C462 H487 0.950 . S
C463 C462 1.349 . S
C463 C479 1.349 . S
C464 C462 1.327 . S
C464 C483 1.429 . S
C464 H488 0.950 . S
C465 C482 1.574 . S
C465 C484 1.368 . S
C465 H489 0.949 . S
H466 C470 0.945 1_455 S
C467 C468 1.349 . S
C467 C469 1.327 . S
C467 H490 0.950 . S
C468 C467 1.349 . S
C468 C480 1.349 . S
C469 C467 1.327 . S
C469 C485 1.429 . S
C469 H491 0.950 1_455 S
C470 H466 0.945 1_655 S
C470 C478 1.575 . S
C470 C486 1.372 . S
H471 C479 0.950 . S
H472 C477 0.950 . S
H473 C478 0.949 . S
H474 C480 0.950 . S
H475 C481 0.950 . S
H476 C482 0.949 . S
C477 H472 0.950 . S
C477 C479 1.327 . S
C477 C483 1.429 . S
C478 C470 1.575 . S
C478 H473 0.949 . S
C478 C484 1.368 . S
C479 C463 1.349 . S
C479 H471 0.950 . S
C479 C477 1.327 . S
C480 C468 1.349 . S
C480 H474 0.950 . S
C480 C481 1.327 . S
C481 H475 0.950 . S
C481 C480 1.327 . S
C481 C485 1.429 . S
C482 C465 1.574 . S
C482 H476 0.949 . S
C482 C486 1.368 . S
C483 C464 1.429 . S
C483 C477 1.429 . S
C483 C484 1.523 . S
C484 C465 1.368 . S
C484 C478 1.368 . S
C484 C483 1.523 . S
C485 C469 1.429 . S
C485 C481 1.429 . S
C485 C486 1.523 1_455 S
C486 C470 1.372 . S
C486 C482 1.368 . S
C486 C485 1.523 1_655 S
H487 C462 0.950 . S
H488 C464 0.950 . S
H489 C465 0.949 . S
H490 C467 0.950 . S
H491 C469 0.950 1_655 S
C492 C493 1.349 1_545 S
C492 C494 1.327 . S
C492 H517 0.950 . S
C493 C492 1.349 1_565 S
C493 C509 1.349 . S
C494 C492 1.327 . S
C494 C513 1.429 1_545 S
C494 H518 0.950 . S
C495 C512 1.574 1_556 S
C495 C514 1.368 . S
C495 H519 0.949 . S
H496 C500 0.949 . S
C497 C498 1.349 1_565 S
C497 C499 1.327 . S
C497 H520 0.950 . S
C498 C497 1.349 1_545 S
C498 C510 1.349 . S
C499 C497 1.327 . S
C499 C515 1.429 1_565 S
C499 H521 0.950 . S
C500 H496 0.949 . S
C500 C508 1.574 1_554 S
C500 C516 1.368 . S
H501 C509 0.950 . S
H502 C507 0.950 . S
H503 C508 0.949 . S
H504 C510 0.950 . S
H505 C511 0.950 . S
H506 C512 0.949 . S
C507 H502 0.950 . S
C507 C509 1.327 . S
C507 C513 1.429 . S
C508 C500 1.574 1_556 S
C508 H503 0.949 . S
C508 C514 1.368 1_545 S
C509 C493 1.349 . S
C509 H501 0.950 . S
C509 C507 1.327 . S
C510 C498 1.349 . S
C510 H504 0.950 . S
C510 C511 1.327 . S
C511 H505 0.950 . S
C511 C510 1.327 . S
C511 C515 1.429 . S
C512 C495 1.574 1_554 S
C512 H506 0.949 . S
C512 C516 1.368 1_565 S
C513 C494 1.429 1_565 S
C513 C507 1.429 . S
C513 C514 1.523 . S
C514 C495 1.368 . S
C514 C508 1.368 1_565 S
C514 C513 1.523 . S
C515 C499 1.429 1_545 S
C515 C511 1.429 . S
C515 C516 1.523 . S
C516 C500 1.368 . S
C516 C512 1.368 1_545 S
C516 C515 1.523 . S
H517 C492 0.950 . S
H518 C494 0.950 . S
H519 C495 0.949 . S
H520 C497 0.950 . S
H521 C499 0.950 . S
C522 C523 1.349 . S
C522 C524 1.327 . S
C522 H547 0.950 . S
C523 C522 1.349 . S
C523 C539 1.349 . S
C524 C522 1.327 . S
C524 C543 1.429 . S
C524 H548 0.950 . S
C525 C542 1.574 . S
C525 C544 1.368 . S
C525 H549 0.949 . S
H526 C530 0.949 . S
C527 C528 1.349 . S
C527 C529 1.327 . S
C527 H550 0.950 . S
C528 C527 1.349 . S
C528 C540 1.349 . S
C529 C527 1.327 . S
C529 C545 1.429 . S
C529 H551 0.950 . S
C530 H526 0.949 . S
C530 C538 1.574 . S
C530 C546 1.368 . S
H531 C539 0.950 . S
H532 C537 0.950 . S
H533 C538 0.949 . S
H534 C540 0.950 . S
H535 C541 0.950 . S
H536 C542 0.949 . S
C537 H532 0.950 . S
C537 C539 1.327 . S
C537 C543 1.429 . S
C538 C530 1.574 . S
C538 H533 0.949 . S
C538 C544 1.368 . S
C539 C523 1.349 . S
C539 H531 0.950 . S
C539 C537 1.327 . S
C540 C528 1.349 . S
C540 H534 0.950 . S
C540 C541 1.327 . S
C541 H535 0.950 . S
C541 C540 1.327 . S
C541 C545 1.429 . S
C542 C525 1.574 . S
C542 H536 0.949 . S
C542 C546 1.368 . S
C543 C524 1.429 . S
C543 C537 1.429 . S
C543 C544 1.523 . S
C544 C525 1.368 . S
C544 C538 1.368 . S
C544 C543 1.523 . S
C545 C529 1.429 . S
C545 C541 1.429 . S
C545 C546 1.523 . S
C546 C530 1.368 . S
C546 C542 1.368 . S
C546 C545 1.523 . S
H547 C522 0.950 . S
H548 C524 0.950 . S
H549 C525 0.949 . S
H550 C527 0.950 . S
H551 C529 0.950 . S
C552 C553 1.349 1_455 S
C552 C554 1.327 . S
C552 H577 0.950 . S
C553 C552 1.349 1_655 S
C553 C569 1.349 . S
C554 C552 1.327 . S
C554 C573 1.429 1_455 S
C554 H578 0.950 . S
C555 C572 1.574 . S
C555 C574 1.368 1_655 S
C555 H579 0.949 . S
H556 C560 0.949 . S
C557 C558 1.349 1_655 S
C557 C559 1.327 . S
C557 H580 0.950 . S
C558 C557 1.349 1_455 S
C558 C570 1.349 . S
C559 C557 1.327 . S
C559 C575 1.429 1_655 S
C559 H581 0.950 . S
C560 H556 0.949 . S
C560 C568 1.574 . S
C560 C576 1.368 . S
H561 C569 0.950 . S
H562 C567 0.950 . S
H563 C568 0.949 . S
H564 C570 0.950 . S
H565 C571 0.950 . S
H566 C572 0.949 . S
C567 H562 0.950 . S
C567 C569 1.327 . S
C567 C573 1.429 . S
C568 C560 1.574 . S
C568 H563 0.949 . S
C568 C574 1.368 . S
C569 C553 1.349 . S
C569 H561 0.950 . S
C569 C567 1.327 . S
C570 C558 1.349 . S
C570 H564 0.950 . S
C570 C571 1.327 . S
C571 H565 0.950 . S
C571 C570 1.327 . S
C571 C575 1.429 . S
C572 C555 1.574 . S
C572 H566 0.949 . S
C572 C576 1.368 1_655 S
C573 C554 1.429 1_655 S
C573 C567 1.429 . S
C573 C574 1.523 1_655 S
C574 C555 1.368 1_455 S
C574 C568 1.368 . S
C574 C573 1.523 1_455 S
C575 C559 1.429 1_455 S
C575 C571 1.429 . S
C575 C576 1.523 . S
C576 C560 1.368 . S
C576 C572 1.368 1_455 S
C576 C575 1.523 . S
H577 C552 0.950 . S
H578 C554 0.950 . S
H579 C555 0.949 . S
H580 C557 0.950 . S
H581 C559 0.950 . S
C582 C583 1.349 . S
C582 C584 1.327 . S
C582 H607 0.950 . S
C583 C582 1.349 . S
C583 C599 1.349 1_565 S
C584 C582 1.327 . S
C584 C603 1.429 . S
C584 H608 0.950 . S
C585 C602 1.574 1_554 S
C585 C604 1.368 1_545 S
C585 H609 0.949 . S
H586 C590 0.949 . S
C587 C588 1.349 . S
C587 C589 1.327 . S
C587 H610 0.950 . S
C588 C587 1.349 . S
C588 C600 1.349 1_545 S
C589 C587 1.327 . S
C589 C605 1.429 . S
C589 H611 0.950 . S
C590 H586 0.949 . S
C590 C598 1.574 1_556 S
C590 C606 1.368 1_565 S
H591 C599 0.950 . S
H592 C597 0.950 . S
H593 C598 0.949 . S
H594 C600 0.950 . S
H595 C601 0.950 . S
H596 C602 0.949 . S
C597 H592 0.950 . S
C597 C599 1.327 . S
C597 C603 1.429 1_545 S
C598 C590 1.574 1_554 S
C598 H593 0.949 . S
C598 C604 1.368 . S
C599 C583 1.349 1_545 S
C599 H591 0.950 . S
C599 C597 1.327 . S
C600 C588 1.349 1_565 S
C600 H594 0.950 . S
C600 C601 1.327 . S
C601 H595 0.950 . S
C601 C600 1.327 . S
C601 C605 1.429 1_565 S
C602 C585 1.574 1_556 S
C602 H596 0.949 . S
C602 C606 1.368 . S
C603 C584 1.429 . S
C603 C597 1.429 1_565 S
C603 C604 1.523 . S
C604 C585 1.368 1_565 S
C604 C598 1.368 . S
C604 C603 1.523 . S
C605 C589 1.429 . S
C605 C601 1.429 1_545 S
C605 C606 1.523 . S
C606 C590 1.368 1_545 S
C606 C602 1.368 . S
C606 C605 1.523 . S
H607 C582 0.950 . S
H608 C584 0.950 . S
H609 C585 0.949 . S
H610 C587 0.950 . S
H611 C589 0.950 . S
C612 C613 1.349 . S
C612 C614 1.327 . S
C612 H637 0.950 . S
C613 C612 1.349 . S
C613 C629 1.349 . S
C614 C612 1.327 . S
C614 C633 1.429 . S
C614 H638 0.950 . S
C615 C632 1.574 . S
C615 C634 1.368 1_554 S
C615 H639 0.949 . S
H616 C620 0.949 . S
C617 C618 1.349 . S
C617 C619 1.327 . S
C617 H640 0.950 . S
C618 C617 1.349 . S
C618 C630 1.349 . S
C619 C617 1.327 . S
C619 C635 1.429 . S
C619 H641 0.950 . S
C620 H616 0.949 . S
C620 C628 1.574 . S
C620 C636 1.368 1_556 S
H621 C629 0.950 . S
H622 C627 0.950 1_554 S
H623 C628 0.949 . S
H624 C630 0.950 . S
H625 C631 0.950 1_556 S
H626 C632 0.949 . S
C627 H622 0.950 1_556 S
C627 C629 1.327 . S
C627 C633 1.429 . S
C628 C620 1.574 . S
C628 H623 0.949 . S
C628 C634 1.368 . S
C629 C613 1.349 . S
C629 H621 0.950 . S
C629 C627 1.327 . S
C630 C618 1.349 . S
C630 H624 0.950 . S
C630 C631 1.327 . S
C631 H625 0.950 1_554 S
C631 C630 1.327 . S
C631 C635 1.429 . S
C632 C615 1.574 . S
C632 H626 0.949 . S
C632 C636 1.368 . S
C633 C614 1.429 . S
C633 C627 1.429 . S
C633 C634 1.523 . S
C634 C615 1.368 1_556 S
C634 C628 1.368 . S
C634 C633 1.523 . S
C635 C619 1.429 . S
C635 C631 1.429 . S
C635 C636 1.523 . S
C636 C620 1.368 1_554 S
C636 C632 1.368 . S
C636 C635 1.523 . S
H637 C612 0.950 . S
H638 C614 0.950 . S
H639 C615 0.949 . S
H640 C617 0.950 . S
H641 C619 0.950 . S
C642 C643 1.349 . S
C642 C644 1.327 . S
C642 H667 0.950 . S
C643 C642 1.349 . S
C643 C659 1.349 . S
C644 C642 1.327 . S
C644 C663 1.429 . S
C644 H668 0.950 . S
C645 C662 1.574 . S
C645 C664 1.368 . S
C645 H669 0.949 . S
H646 C650 0.949 . S
C647 C648 1.349 . S
C647 C649 1.327 . S
C647 H670 0.950 . S
C648 C647 1.349 . S
C648 C660 1.349 . S
C649 C647 1.327 . S
C649 C665 1.429 . S
C649 H671 0.950 . S
C650 H646 0.949 . S
C650 C658 1.574 . S
C650 C666 1.368 . S
H651 C659 0.950 . S
H652 C657 0.950 . S
H653 C658 0.949 . S
H654 C660 0.950 . S
H655 C661 0.950 . S
H656 C662 0.949 . S
C657 H652 0.950 . S
C657 C659 1.327 . S
C657 C663 1.429 . S
C658 C650 1.574 . S
C658 H653 0.949 . S
C658 C664 1.368 . S
C659 C643 1.349 . S
C659 H651 0.950 . S
C659 C657 1.327 . S
C660 C648 1.349 . S
C660 H654 0.950 . S
C660 C661 1.327 . S
C661 H655 0.950 . S
C661 C660 1.327 . S
C661 C665 1.429 . S
C662 C645 1.574 . S
C662 H656 0.949 . S
C662 C666 1.368 . S
C663 C644 1.429 . S
C663 C657 1.429 . S
C663 C664 1.523 . S
C664 C645 1.368 . S
C664 C658 1.368 . S
C664 C663 1.523 . S
C665 C649 1.429 . S
C665 C661 1.429 . S
C665 C666 1.523 . S
C666 C650 1.368 . S
C666 C662 1.368 . S
C666 C665 1.523 . S
H667 C642 0.950 . S
H668 C644 0.950 . S
H669 C645 0.949 . S
H670 C647 0.950 . S
H671 C649 0.950 . S
C672 C673 1.349 . S
C672 C674 1.327 . S
C672 H697 0.950 . S
C673 C672 1.349 . S
C673 C689 1.349 . S
C674 C672 1.327 . S
C674 C693 1.429 . S
C674 H698 0.950 . S
C675 C692 1.574 . S
C675 C694 1.368 . S
C675 H699 0.949 . S
H676 C680 0.949 . S
C677 C678 1.349 . S
C677 C679 1.327 . S
C677 H700 0.950 . S
C678 C677 1.349 . S
C678 C690 1.349 . S
C679 C677 1.327 . S
C679 C695 1.429 . S
C679 H701 0.950 . S
C680 H676 0.949 . S
C680 C688 1.574 . S
C680 C696 1.368 . S
H681 C689 0.950 . S
H682 C687 0.950 . S
H683 C688 0.949 . S
H684 C690 0.950 . S
H685 C691 0.950 . S
H686 C692 0.949 . S
C687 H682 0.950 . S
C687 C689 1.327 . S
C687 C693 1.429 . S
C688 C680 1.574 . S
C688 H683 0.949 . S
C688 C694 1.368 . S
C689 C673 1.349 . S
C689 H681 0.950 . S
C689 C687 1.327 . S
C690 C678 1.349 . S
C690 H684 0.950 . S
C690 C691 1.327 . S
C691 H685 0.950 . S
C691 C690 1.327 . S
C691 C695 1.429 . S
C692 C675 1.574 . S
C692 H686 0.949 . S
C692 C696 1.368 . S
C693 C674 1.429 . S
C693 C687 1.429 . S
C693 C694 1.523 . S
C694 C675 1.368 . S
C694 C688 1.368 . S
C694 C693 1.523 . S
C695 C679 1.429 . S
C695 C691 1.429 . S
C695 C696 1.523 . S
C696 C680 1.368 . S
C696 C692 1.368 . S
C696 C695 1.523 . S
H697 C672 0.950 . S
H698 C674 0.950 . S
H699 C675 0.949 . S
H700 C677 0.950 . S
H701 C679 0.950 . S
C702 C703 1.349 . S
C702 C704 1.327 . S
C702 H727 0.950 . S
C703 C702 1.349 . S
C703 C719 1.349 . S
C704 C702 1.327 . S
C704 C723 1.429 . S
C704 H728 0.950 . S
C705 C722 1.574 . S
C705 C724 1.368 1_556 S
C705 H729 0.949 . S
H706 C710 0.949 . S
C707 C708 1.349 . S
C707 C709 1.327 . S
C707 H730 0.950 . S
C708 C707 1.349 . S
C708 C720 1.349 . S
C709 C707 1.327 . S
C709 C725 1.429 . S
C709 H731 0.950 . S
C710 H706 0.949 . S
C710 C718 1.574 . S
C710 C726 1.368 1_554 S
H711 C719 0.950 . S
H712 C717 0.950 1_556 S
H713 C718 0.949 . S
H714 C720 0.950 . S
H715 C721 0.950 1_554 S
H716 C722 0.949 . S
C717 H712 0.950 1_554 S
C717 C719 1.327 . S
C717 C723 1.429 . S
C718 C710 1.574 . S
C718 H713 0.949 . S
C718 C724 1.368 . S
C719 C703 1.349 . S
C719 H711 0.950 . S
C719 C717 1.327 . S
C720 C708 1.349 . S
C720 H714 0.950 . S
C720 C721 1.327 . S
C721 H715 0.950 1_556 S
C721 C720 1.327 . S
C721 C725 1.429 . S
C722 C705 1.574 . S
C722 H716 0.949 . S
C722 C726 1.368 . S
C723 C704 1.429 . S
C723 C717 1.429 . S
C723 C724 1.523 . S
C724 C705 1.368 1_554 S
C724 C718 1.368 . S
C724 C723 1.523 . S
C725 C709 1.429 . S
C725 C721 1.429 . S
C725 C726 1.523 . S
C726 C710 1.368 1_556 S
C726 C722 1.368 . S
C726 C725 1.523 . S
H727 C702 0.950 . S
H728 C704 0.950 . S
H729 C705 0.949 . S
H730 C707 0.950 . S
H731 C709 0.950 . S
C732 C733 1.349 . S
C732 C734 1.327 . S
C732 H757 0.950 . S
C733 C732 1.349 . S
C733 C749 1.349 . S
C734 C732 1.327 . S
C734 C753 1.429 . S
C734 H758 0.950 . S
C735 C752 1.574 . S
C735 C754 1.368 . S
C735 H759 0.949 . S
H736 C740 0.949 . S
C737 C738 1.349 . S
C737 C739 1.327 . S
C737 H760 0.950 . S
C738 C737 1.349 . S
C738 C750 1.349 . S
C739 C737 1.327 . S
C739 C755 1.429 . S
C739 H761 0.950 . S
C740 H736 0.949 . S
C740 C748 1.574 . S
C740 C756 1.368 . S
H741 C749 0.950 . S
H742 C747 0.950 . S
H743 C748 0.949 . S
H744 C750 0.950 . S
H745 C751 0.950 . S
H746 C752 0.949 . S
C747 H742 0.950 . S
C747 C749 1.327 . S
C747 C753 1.429 . S
C748 C740 1.574 . S
C748 H743 0.949 . S
C748 C754 1.368 . S
C749 C733 1.349 . S
C749 H741 0.950 . S
C749 C747 1.327 . S
C750 C738 1.349 . S
C750 H744 0.950 . S
C750 C751 1.327 . S
C751 H745 0.950 . S
C751 C750 1.327 . S
C751 C755 1.429 . S
C752 C735 1.574 . S
C752 H746 0.949 . S
C752 C756 1.368 . S
C753 C734 1.429 . S
C753 C747 1.429 . S
C753 C754 1.523 . S
C754 C735 1.368 . S
C754 C748 1.368 . S
C754 C753 1.523 . S
C755 C739 1.429 . S
C755 C751 1.429 . S
C755 C756 1.523 . S
C756 C740 1.368 . S
C756 C752 1.368 . S
C756 C755 1.523 . S
H757 C732 0.950 . S
H758 C734 0.950 . S
H759 C735 0.949 . S
H760 C737 0.950 . S
H761 C739 0.950 . S
C762 C763 1.349 . S
C762 C764 1.327 . S
C762 H787 0.950 . S
C763 C762 1.349 . S
C763 C779 1.349 . S
C764 C762 1.327 . S
C764 C783 1.429 . S
C764 H788 0.950 . S
C765 C782 1.574 . S
C765 C784 1.368 . S
C765 H789 0.949 . S
H766 C770 0.949 . S
C767 C768 1.349 . S
C767 C769 1.327 . S
C767 H790 0.950 . S
C768 C767 1.349 . S
C768 C780 1.349 . S
C769 C767 1.327 . S
C769 C785 1.429 . S
C769 H791 0.950 . S
C770 H766 0.949 . S
C770 C778 1.574 . S
C770 C786 1.368 . S
H771 C779 0.950 . S
H772 C777 0.950 . S
H773 C778 0.949 . S
H774 C780 0.950 . S
H775 C781 0.950 . S
H776 C782 0.949 . S
C777 H772 0.950 . S
C777 C779 1.327 . S
C777 C783 1.429 . S
C778 C770 1.574 . S
C778 H773 0.949 . S
C778 C784 1.368 . S
C779 C763 1.349 . S
C779 H771 0.950 . S
C779 C777 1.327 . S
C780 C768 1.349 . S
C780 H774 0.950 . S
C780 C781 1.327 . S
C781 H775 0.950 . S
C781 C780 1.327 . S
C781 C785 1.429 . S
C782 C765 1.574 . S
C782 H776 0.949 . S
C782 C786 1.368 . S
C783 C764 1.429 . S
C783 C777 1.429 . S
C783 C784 1.523 . S
C784 C765 1.368 . S
C784 C778 1.368 . S
C784 C783 1.523 . S
C785 C769 1.429 . S
C785 C781 1.429 . S
C785 C786 1.523 . S
C786 C770 1.368 . S
C786 C782 1.368 . S
C786 C785 1.523 . S
H787 C762 0.950 . S
H788 C764 0.950 . S
H789 C765 0.949 . S
H790 C767 0.950 . S
H791 C769 0.950 . S
C792 C793 1.349 . S
C792 C794 1.327 . S
C792 H817 0.950 . S
C793 C792 1.349 . S
C793 C809 1.349 . S
C794 C792 1.327 . S
C794 C813 1.429 . S
C794 H818 0.950 . S
C795 C812 1.574 . S
C795 C814 1.368 . S
C795 H819 0.949 . S
H796 C800 0.949 . S
C797 C798 1.349 . S
C797 C799 1.327 . S
C797 H820 0.950 . S
C798 C797 1.349 . S
C798 C810 1.349 . S
C799 C797 1.327 . S
C799 C815 1.429 . S
C799 H821 0.950 . S
C800 H796 0.949 . S
C800 C808 1.574 . S
C800 C816 1.368 . S
H801 C809 0.950 . S
H802 C807 0.950 . S
H803 C808 0.949 . S
H804 C810 0.950 . S
H805 C811 0.950 . S
H806 C812 0.949 . S
C807 H802 0.950 . S
C807 C809 1.327 . S
C807 C813 1.429 . S
C808 C800 1.574 . S
C808 H803 0.949 . S
C808 C814 1.368 . S
C809 C793 1.349 . S
C809 H801 0.950 . S
C809 C807 1.327 . S
C810 C798 1.349 . S
C810 H804 0.950 . S
C810 C811 1.327 . S
C811 H805 0.950 . S
C811 C810 1.327 . S
C811 C815 1.429 . S
C812 C795 1.574 . S
C812 H806 0.949 . S
C812 C816 1.368 . S
C813 C794 1.429 . S
C813 C807 1.429 . S
C813 C814 1.523 . S
C814 C795 1.368 . S
C814 C808 1.368 . S
C814 C813 1.523 . S
C815 C799 1.429 . S
C815 C811 1.429 . S
C815 C816 1.523 . S
C816 C800 1.368 . S
C816 C812 1.368 . S
C816 C815 1.523 . S
H817 C792 0.950 . S
H818 C794 0.950 . S
H819 C795 0.949 . S
H820 C797 0.950 . S
H821 C799 0.950 . S
C822 C823 1.349 1_455 S
C822 C824 1.327 . S
C822 H847 0.950 . S
C823 C822 1.349 1_655 S
C823 C839 1.349 . S
C824 C822 1.327 . S
C824 C843 1.429 1_455 S
C824 H848 0.950 . S
C825 C842 1.574 . S
C825 C844 1.368 . S
C825 H849 0.949 . S
H826 C830 0.949 . S
C827 C828 1.349 1_655 S
C827 C829 1.327 . S
C827 H850 0.950 . S
C828 C827 1.349 1_455 S
C828 C840 1.349 . S
C829 C827 1.327 . S
C829 C845 1.429 . S
C829 H851 0.950 . S
C830 H826 0.949 . S
C830 C838 1.574 . S
C830 C846 1.368 1_455 S
H831 C839 0.950 . S
H832 C837 0.950 . S
H833 C838 0.949 . S
H834 C840 0.950 . S
H835 C841 0.950 . S
H836 C842 0.949 . S
C837 H832 0.950 . S
C837 C839 1.327 . S
C837 C843 1.429 . S
C838 C830 1.574 . S
C838 H833 0.949 . S
C838 C844 1.368 1_455 S
C839 C823 1.349 . S
C839 H831 0.950 . S
C839 C837 1.327 . S
C840 C828 1.349 . S
C840 H834 0.950 . S
C840 C841 1.327 . S
C841 H835 0.950 . S
C841 C840 1.327 . S
C841 C845 1.429 1_455 S
C842 C825 1.574 . S
C842 H836 0.949 . S
C842 C846 1.368 . S
C843 C824 1.429 1_655 S
C843 C837 1.429 . S
C843 C844 1.523 . S
C844 C825 1.368 . S
C844 C838 1.368 1_655 S
C844 C843 1.523 . S
C845 C829 1.429 . S
C845 C841 1.429 1_655 S
C845 C846 1.523 . S
C846 C830 1.368 1_655 S
C846 C842 1.368 . S
C846 C845 1.523 . S
H847 C822 0.950 . S
H848 C824 0.950 . S
H849 C825 0.949 . S
H850 C827 0.950 . S
H851 C829 0.950 . S
C852 C853 1.349 1_545 S
C852 C854 1.327 . S
C852 H877 0.950 . S
C853 C852 1.349 1_565 S
C853 C869 1.349 . S
C854 C852 1.327 . S
C854 C873 1.429 1_545 S
C854 H878 0.950 . S
C855 C872 1.574 . S
C855 C874 1.368 . S
C855 H879 0.949 . S
H856 C860 0.949 . S
C857 C858 1.349 1_565 S
C857 C859 1.327 . S
C857 H880 0.950 . S
C858 C857 1.349 1_545 S
C858 C870 1.349 . S
C859 C857 1.327 . S
C859 C875 1.429 1_565 S
C859 H881 0.950 . S
C860 H856 0.949 . S
C860 C868 1.574 . S
C860 C876 1.368 . S
H861 C869 0.950 . S
H862 C867 0.950 . S
H863 C868 0.949 . S
H864 C870 0.950 . S
H865 C871 0.950 . S
H866 C872 0.949 . S
C867 H862 0.950 . S
C867 C869 1.327 . S
C867 C873 1.429 . S
C868 C860 1.574 . S
C868 H863 0.949 . S
C868 C874 1.368 1_545 S
C869 C853 1.349 . S
C869 H861 0.950 . S
C869 C867 1.327 . S
C870 C858 1.349 . S
C870 H864 0.950 . S
C870 C871 1.327 . S
C871 H865 0.950 . S
C871 C870 1.327 . S
C871 C875 1.429 . S
C872 C855 1.574 . S
C872 H866 0.949 . S
C872 C876 1.368 1_565 S
C873 C854 1.429 1_565 S
C873 C867 1.429 . S
C873 C874 1.523 . S
C874 C855 1.368 . S
C874 C868 1.368 1_565 S
C874 C873 1.523 . S
C875 C859 1.429 1_545 S
C875 C871 1.429 . S
C875 C876 1.523 . S
C876 C860 1.368 . S
C876 C872 1.368 1_545 S
C876 C875 1.523 . S
H877 C852 0.950 . S
H878 C854 0.950 . S
H879 C855 0.949 . S
H880 C857 0.950 . S
H881 C859 0.950 . S
C882 C883 1.349 . S
C882 C884 1.327 . S
C882 H907 0.950 . S
C883 C882 1.349 . S
C883 C899 1.349 . S
C884 C882 1.327 . S
C884 C903 1.429 . S
C884 H908 0.950 . S
C885 C902 1.574 . S
C885 C904 1.368 . S
C885 H909 0.949 . S
H886 C890 0.949 . S
C887 C888 1.349 . S
C887 C889 1.327 . S
C887 H910 0.950 . S
C888 C887 1.349 . S
C888 C900 1.349 . S
C889 C887 1.327 . S
C889 C905 1.429 . S
C889 H911 0.950 . S
C890 H886 0.949 . S
C890 C898 1.574 . S
C890 C906 1.368 . S
H891 C899 0.950 . S
H892 C897 0.950 . S
H893 C898 0.949 . S
H894 C900 0.950 . S
H895 C901 0.950 . S
H896 C902 0.949 . S
C897 H892 0.950 . S
C897 C899 1.327 . S
C897 C903 1.429 . S
C898 C890 1.574 . S
C898 H893 0.949 . S
C898 C904 1.368 . S
C899 C883 1.349 . S
C899 H891 0.950 . S
C899 C897 1.327 . S
C900 C888 1.349 . S
C900 H894 0.950 . S
C900 C901 1.327 . S
C901 H895 0.950 . S
C901 C900 1.327 . S
C901 C905 1.429 . S
C902 C885 1.574 . S
C902 H896 0.949 . S
C902 C906 1.368 . S
C903 C884 1.429 . S
C903 C897 1.429 . S
C903 C904 1.523 . S
C904 C885 1.368 . S
C904 C898 1.368 . S
C904 C903 1.523 . S
C905 C889 1.429 . S
C905 C901 1.429 . S
C905 C906 1.523 . S
C906 C890 1.368 . S
C906 C902 1.368 . S
C906 C905 1.523 . S
H907 C882 0.950 . S
H908 C884 0.950 . S
H909 C885 0.949 . S
H910 C887 0.950 . S
H911 C889 0.950 . S
C912 C913 1.349 . S
C912 C914 1.327 . S
C912 H937 0.950 . S
C913 C912 1.349 . S
C913 C929 1.349 1_455 S
C914 C912 1.327 . S
C914 C933 1.429 . S
C914 H938 0.950 . S
C915 C932 1.574 . S
C915 C934 1.368 1_655 S
C915 H939 0.949 . S
H916 C920 0.949 . S
C917 C918 1.349 . S
C917 C919 1.327 . S
C917 H940 0.950 . S
C918 C917 1.349 . S
C918 C930 1.349 1_655 S
C919 C917 1.327 . S
C919 C935 1.429 1_655 S
C919 H941 0.950 . S
C920 H916 0.949 . S
C920 C928 1.574 . S
C920 C936 1.368 . S
H921 C929 0.950 . S
H922 C927 0.950 . S
H923 C928 0.949 . S
H924 C930 0.950 . S
H925 C931 0.950 . S
H926 C932 0.949 . S
C927 H922 0.950 . S
C927 C929 1.327 . S
C927 C933 1.429 1_655 S
C928 C920 1.574 . S
C928 H923 0.949 . S
C928 C934 1.368 . S
C929 C913 1.349 1_655 S
C929 H921 0.950 . S
C929 C927 1.327 . S
C930 C918 1.349 1_455 S
C930 H924 0.950 . S
C930 C931 1.327 . S
C931 H925 0.950 . S
C931 C930 1.327 . S
C931 C935 1.429 . S
C932 C915 1.574 . S
C932 H926 0.949 . S
C932 C936 1.368 1_655 S
C933 C914 1.429 . S
C933 C927 1.429 1_455 S
C933 C934 1.523 . S
C934 C915 1.368 1_455 S
C934 C928 1.368 . S
C934 C933 1.523 . S
C935 C919 1.429 1_455 S
C935 C931 1.429 . S
C935 C936 1.523 . S
C936 C920 1.368 . S
C936 C932 1.368 1_455 S
C936 C935 1.523 . S
H937 C912 0.950 . S
H938 C914 0.950 . S
H939 C915 0.949 . S
H940 C917 0.950 . S
H941 C919 0.950 . S
C942 C943 1.349 1_545 S
C942 C944 1.327 . S
C942 H967 0.950 . S
C943 C942 1.349 1_565 S
C943 C959 1.349 . S
C944 C942 1.327 . S
C944 C963 1.429 1_545 S
C944 H968 0.950 . S
C945 C962 1.574 . S
C945 C964 1.368 . S
C945 H969 0.949 . S
H946 C950 0.949 . S
C947 C948 1.349 1_565 S
C947 C949 1.327 . S
C947 H970 0.950 . S
C948 C947 1.349 1_545 S
C948 C960 1.349 . S
C949 C947 1.327 . S
C949 C965 1.429 1_565 S
C949 H971 0.950 . S
C950 H946 0.949 . S
C950 C958 1.574 . S
C950 C966 1.368 . S
H951 C959 0.950 . S
H952 C957 0.950 . S
H953 C958 0.949 . S
H954 C960 0.950 . S
H955 C961 0.950 . S
H956 C962 0.949 . S
C957 H952 0.950 . S
C957 C959 1.327 . S
C957 C963 1.429 . S
C958 C950 1.574 . S
C958 H953 0.949 . S
C958 C964 1.368 1_545 S
C959 C943 1.349 . S
C959 H951 0.950 . S
C959 C957 1.327 . S
C960 C948 1.349 . S
C960 H954 0.950 . S
C960 C961 1.327 . S
C961 H955 0.950 . S
C961 C960 1.327 . S
C961 C965 1.429 . S
C962 C945 1.574 . S
C962 H956 0.949 . S
C962 C966 1.368 1_565 S
C963 C944 1.429 1_565 S
C963 C957 1.429 . S
C963 C964 1.523 . S
C964 C945 1.368 . S
C964 C958 1.368 1_565 S
C964 C963 1.523 . S
C965 C949 1.429 1_545 S
C965 C961 1.429 . S
C965 C966 1.523 . S
C966 C950 1.368 . S
C966 C962 1.368 1_545 S
C966 C965 1.523 . S
H967 C942 0.950 . S
H968 C944 0.950 . S
H969 C945 0.949 . S
H970 C947 0.950 . S
H971 C949 0.950 . S
C972 C973 1.349 . S
C972 C974 1.327 . S
C972 H997 0.950 . S
C973 C972 1.349 . S
C973 C989 1.349 . S
C974 C972 1.327 . S
C974 C993 1.429 . S
C974 H998 0.950 . S
C975 C992 1.574 . S
C975 C994 1.368 . S
C975 H999 0.949 . S
H976 C980 0.949 . S
C977 C978 1.349 . S
C977 C979 1.327 . S
C977 H1000 0.950 . S
C978 C977 1.349 . S
C978 C990 1.349 . S
C979 C977 1.327 . S
C979 C995 1.429 . S
C979 H1001 0.950 . S
C980 H976 0.949 . S
C980 C988 1.574 . S
C980 C996 1.368 . S
H981 C989 0.950 . S
H982 C987 0.950 . S
H983 C988 0.949 . S
H984 C990 0.950 . S
H985 C991 0.950 . S
H986 C992 0.949 . S
C987 H982 0.950 . S
C987 C989 1.327 . S
C987 C993 1.429 . S
C988 C980 1.574 . S
C988 H983 0.949 . S
C988 C994 1.368 . S
C989 C973 1.349 . S
C989 H981 0.950 . S
C989 C987 1.327 . S
C990 C978 1.349 . S
C990 H984 0.950 . S
C990 C991 1.327 . S
C991 H985 0.950 . S
C991 C990 1.327 . S
C991 C995 1.429 . S
C992 C975 1.574 . S
C992 H986 0.949 . S
C992 C996 1.368 . S
C993 C974 1.429 . S
C993 C987 1.429 . S
C993 C994 1.523 . S
C994 C975 1.368 . S
C994 C988 1.368 . S
C994 C993 1.523 . S
C995 C979 1.429 . S
C995 C991 1.429 . S
C995 C996 1.523 . S
C996 C980 1.368 . S
C996 C992 1.368 . S
C996 C995 1.523 . S
H997 C972 0.950 . S
H998 C974 0.950 . S
H999 C975 0.949 . S
H1000 C977 0.950 . S
H1001 C979 0.950 . S
C1002 C1003 1.349 . S
C1002 C1004 1.327 . S
C1002 H1027 0.950 . S
C1003 C1002 1.349 . S
C1003 C1019 1.349 . S
C1004 C1002 1.327 . S
C1004 C1023 1.429 . S
C1004 H1028 0.950 1_455 S
C1005 C1022 1.574 . S
C1005 C1024 1.368 . S
C1005 H1029 0.949 . S
H1006 C1010 0.949 . S
C1007 C1008 1.349 . S
C1007 C1009 1.327 . S
C1007 H1030 0.950 . S
C1008 C1007 1.349 . S
C1008 C1020 1.349 . S
C1009 C1007 1.327 . S
C1009 C1025 1.429 . S
C1009 H1031 0.950 1_655 S
C1010 H1006 0.949 . S
C1010 C1018 1.574 . S
C1010 C1026 1.368 . S
H1011 C1019 0.950 . S
H1012 C1017 0.950 . S
H1013 C1018 0.949 . S
H1014 C1020 0.950 . S
H1015 C1021 0.950 . S
H1016 C1022 0.949 . S
C1017 H1012 0.950 . S
C1017 C1019 1.327 . S
C1017 C1023 1.429 . S
C1018 C1010 1.574 . S
C1018 H1013 0.949 . S
C1018 C1024 1.368 1_655 S
C1019 C1003 1.349 . S
C1019 H1011 0.950 . S
C1019 C1017 1.327 . S
C1020 C1008 1.349 . S
C1020 H1014 0.950 . S
C1020 C1021 1.327 . S
C1021 H1015 0.950 . S
C1021 C1020 1.327 . S
C1021 C1025 1.429 . S
C1022 C1005 1.574 . S
C1022 H1016 0.949 . S
C1022 C1026 1.368 1_455 S
C1023 C1004 1.429 . S
C1023 C1017 1.429 . S
C1023 C1024 1.523 . S
C1024 C1005 1.368 . S
C1024 C1018 1.368 1_455 S
C1024 C1023 1.523 . S
C1025 C1009 1.429 . S
C1025 C1021 1.429 . S
C1025 C1026 1.523 . S
C1026 C1010 1.368 . S
C1026 C1022 1.368 1_655 S
C1026 C1025 1.523 . S
H1027 C1002 0.950 . S
H1028 C1004 0.950 1_655 S
H1029 C1005 0.949 . S
H1030 C1007 0.950 . S
H1031 C1009 0.950 1_455 S
C1032 C1033 1.349 . S
C1032 C1034 1.327 . S
C1032 H1057 0.950 . S
C1033 C1032 1.349 . S
C1033 C1049 1.349 . S
C1034 C1032 1.327 . S
C1034 C1053 1.429 . S
C1034 H1058 0.950 1_565 S
C1035 C1052 1.574 . S
C1035 C1054 1.368 . S
C1035 H1059 0.949 . S
H1036 C1040 0.949 . S
C1037 C1038 1.349 . S
C1037 C1039 1.327 . S
C1037 H1060 0.950 . S
C1038 C1037 1.349 . S
C1038 C1050 1.349 . S
C1039 C1037 1.327 . S
C1039 C1055 1.429 . S
C1039 H1061 0.950 1_545 S
C1040 H1036 0.949 . S
C1040 C1048 1.574 . S
C1040 C1056 1.368 . S
H1041 C1049 0.950 . S
H1042 C1047 0.950 . S
H1043 C1048 0.949 . S
H1044 C1050 0.950 . S
H1045 C1051 0.950 . S
H1046 C1052 0.949 . S
C1047 H1042 0.950 . S
C1047 C1049 1.327 . S
C1047 C1053 1.429 . S
C1048 C1040 1.574 . S
C1048 H1043 0.949 . S
C1048 C1054 1.368 1_545 S
C1049 C1033 1.349 . S
C1049 H1041 0.950 . S
C1049 C1047 1.327 . S
C1050 C1038 1.349 . S
C1050 H1044 0.950 . S
C1050 C1051 1.327 . S
C1051 H1045 0.950 . S
C1051 C1050 1.327 . S
C1051 C1055 1.429 . S
C1052 C1035 1.574 . S
C1052 H1046 0.949 . S
C1052 C1056 1.368 1_565 S
C1053 C1034 1.429 . S
C1053 C1047 1.429 . S
C1053 C1054 1.523 . S
C1054 C1035 1.368 . S
C1054 C1048 1.368 1_565 S
C1054 C1053 1.523 . S
C1055 C1039 1.429 . S
C1055 C1051 1.429 . S
C1055 C1056 1.523 . S
C1056 C1040 1.368 . S
C1056 C1052 1.368 1_545 S
C1056 C1055 1.523 . S
H1057 C1032 0.950 . S
H1058 C1034 0.950 1_545 S
H1059 C1035 0.949 . S
H1060 C1037 0.950 . S
H1061 C1039 0.950 1_565 S
C1062 C1063 1.349 . S
C1062 C1064 1.327 . S
C1062 H1087 0.950 . S
C1063 C1062 1.349 . S
C1063 C1079 1.349 . S
C1064 C1062 1.327 . S
C1064 C1083 1.429 . S
C1064 H1088 0.950 . S
C1065 C1082 1.574 . S
C1065 C1084 1.368 . S
C1065 H1089 0.949 . S
H1066 C1070 0.949 . S
C1067 C1068 1.349 . S
C1067 C1069 1.327 . S
C1067 H1090 0.950 . S
C1068 C1067 1.349 . S
C1068 C1080 1.349 . S
C1069 C1067 1.327 . S
C1069 C1085 1.429 . S
C1069 H1091 0.950 . S
C1070 H1066 0.949 . S
C1070 C1078 1.574 . S
C1070 C1086 1.368 . S
H1071 C1079 0.950 . S
H1072 C1077 0.950 . S
H1073 C1078 0.949 . S
H1074 C1080 0.950 . S
H1075 C1081 0.950 . S
H1076 C1082 0.949 . S
C1077 H1072 0.950 . S
C1077 C1079 1.327 . S
C1077 C1083 1.429 . S
C1078 C1070 1.574 . S
C1078 H1073 0.949 . S
C1078 C1084 1.368 . S
C1079 C1063 1.349 . S
C1079 H1071 0.950 . S
C1079 C1077 1.327 . S
C1080 C1068 1.349 . S
C1080 H1074 0.950 . S
C1080 C1081 1.327 . S
C1081 H1075 0.950 . S
C1081 C1080 1.327 . S
C1081 C1085 1.429 . S
C1082 C1065 1.574 . S
C1082 H1076 0.949 . S
C1082 C1086 1.368 . S
C1083 C1064 1.429 . S
C1083 C1077 1.429 . S
C1083 C1084 1.523 . S
C1084 C1065 1.368 . S
C1084 C1078 1.368 . S
C1084 C1083 1.523 . S
C1085 C1069 1.429 . S
C1085 C1081 1.429 . S
C1085 C1086 1.523 . S
C1086 C1070 1.368 . S
C1086 C1082 1.368 . S
C1086 C1085 1.523 . S
H1087 C1062 0.950 . S
H1088 C1064 0.950 . S
H1089 C1065 0.949 . S
H1090 C1067 0.950 . S
H1091 C1069 0.950 . S
C1092 C1093 1.349 . S
C1092 C1094 1.327 . S
C1092 H1117 0.951 . S
C1093 C1092 1.349 . S
C1093 C1109 1.349 . S
C1094 C1092 1.327 . S
C1094 C1113 1.429 . S
C1094 H1118 0.950 1_655 S
C1095 C1112 1.574 . S
C1095 C1114 1.368 . S
C1095 H1119 0.949 . S
H1096 C1100 0.949 . S
C1097 C1098 1.349 . S
C1097 C1099 1.327 . S
C1097 H1120 0.951 . S
C1098 C1097 1.349 . S
C1098 C1110 1.349 . S
C1099 C1097 1.327 . S
C1099 C1115 1.429 . S
C1099 H1121 0.950 1_455 S
C1100 H1096 0.949 . S
C1100 C1108 1.574 . S
C1100 C1116 1.368 . S
H1101 C1109 0.950 . S
H1102 C1107 0.950 . S
H1103 C1108 0.949 . S
H1104 C1110 0.950 . S
H1105 C1111 0.950 . S
H1106 C1112 0.949 . S
C1107 H1102 0.950 . S
C1107 C1109 1.327 . S
C1107 C1113 1.429 . S
C1108 C1100 1.574 . S
C1108 H1103 0.949 . S
C1108 C1114 1.368 1_455 S
C1109 C1093 1.349 . S
C1109 H1101 0.950 . S
C1109 C1107 1.327 . S
C1110 C1098 1.349 . S
C1110 H1104 0.950 . S
C1110 C1111 1.327 . S
C1111 H1105 0.950 . S
C1111 C1110 1.327 . S
C1111 C1115 1.429 . S
C1112 C1095 1.574 . S
C1112 H1106 0.949 . S
C1112 C1116 1.368 1_655 S
C1113 C1094 1.429 . S
C1113 C1107 1.429 . S
C1113 C1114 1.523 . S
C1114 C1095 1.368 . S
C1114 C1108 1.368 1_655 S
C1114 C1113 1.523 . S
C1115 C1099 1.429 . S
C1115 C1111 1.429 . S
C1115 C1116 1.523 . S
C1116 C1100 1.368 . S
C1116 C1112 1.368 1_455 S
C1116 C1115 1.523 . S
H1117 C1092 0.951 . S
H1118 C1094 0.950 1_455 S
H1119 C1095 0.949 . S
H1120 C1097 0.951 . S
H1121 C1099 0.950 1_655 S
C1122 C1123 1.349 . S
C1122 C1124 1.327 . S
C1122 H1147 0.950 . S
C1123 C1122 1.349 . S
C1123 C1139 1.349 . S
C1124 C1122 1.327 . S
C1124 C1143 1.429 . S
C1124 H1148 0.950 1_545 S
C1125 C1142 1.574 . S
C1125 C1144 1.368 . S
C1125 H1149 0.949 . S
H1126 C1130 0.949 . S
C1127 C1128 1.349 . S
C1127 C1129 1.327 . S
C1127 H1150 0.950 . S
C1128 C1127 1.349 . S
C1128 C1140 1.349 . S
C1129 C1127 1.327 . S
C1129 C1145 1.429 . S
C1129 H1151 0.950 1_565 S
C1130 H1126 0.949 . S
C1130 C1138 1.574 . S
C1130 C1146 1.368 . S
H1131 C1139 0.950 . S
H1132 C1137 0.950 . S
H1133 C1138 0.949 . S
H1134 C1140 0.950 . S
H1135 C1141 0.950 . S
H1136 C1142 0.949 . S
C1137 H1132 0.950 . S
C1137 C1139 1.327 . S
C1137 C1143 1.429 . S
C1138 C1130 1.574 . S
C1138 H1133 0.949 . S
C1138 C1144 1.368 1_565 S
C1139 C1123 1.349 . S
C1139 H1131 0.950 . S
C1139 C1137 1.327 . S
C1140 C1128 1.349 . S
C1140 H1134 0.950 . S
C1140 C1141 1.327 . S
C1141 H1135 0.950 . S
C1141 C1140 1.327 . S
C1141 C1145 1.429 . S
C1142 C1125 1.574 . S
C1142 H1136 0.949 . S
C1142 C1146 1.368 1_545 S
C1143 C1124 1.429 . S
C1143 C1137 1.429 . S
C1143 C1144 1.523 . S
C1144 C1125 1.368 . S
C1144 C1138 1.368 1_545 S
C1144 C1143 1.523 . S
C1145 C1129 1.429 . S
C1145 C1141 1.429 . S
C1145 C1146 1.523 . S
C1146 C1130 1.368 . S
C1146 C1142 1.368 1_565 S
C1146 C1145 1.523 . S
H1147 C1122 0.950 . S
H1148 C1124 0.950 1_565 S
H1149 C1125 0.949 . S
H1150 C1127 0.950 . S
H1151 C1129 0.950 1_545 S
C433 C3 1.545 . S
C438 C338 1.485 . S
C463 C50 1.485 . S
C468 C363 1.545 . S
C493 C75 1.331 . S
C498 C399 1.331 . S
C523 C111 1.545 . S
C528 C230 1.485 . S
C553 C255 1.545 . S
C558 C158 1.485 . S
C583 C291 1.331 . S
C588 C183 1.331 . S
C613 C374 1.404 . S
C618 C14 1.404 . S
C643 C39 1.469 . S
C648 C410 1.381 . S
C673 C86 1.380 . S
C678 C219 1.469 . S
C703 C122 1.404 . S
C708 C266 1.404 . S
C733 C147 1.469 . S
C738 C302 1.381 . S
C763 C194 1.380 . S
C768 C327 1.469 . S
C793 C326 0.569 . S
C798 C4 0.548 . S
C823 C38 0.569 . S
C828 C364 0.548 . S
C853 C76 0.454 . S
C858 C400 0.454 . S
C883 C218 0.569 . S
C888 C112 0.548 . S
C913 C146 0.569 . S
C918 C256 0.548 . S
C943 C292 0.454 . S
C948 C184 0.454 . S
C973 C2 1.552 . S
C978 C110 1.552 . S
C1003 C148 1.310 . S
C1008 C40 1.310 . S
C1033 C74 1.432 . S
C1038 C182 1.432 . S
C1063 C220 1.310 . S
C1068 C328 1.310 . S
C1093 C254 1.552 . S
C1098 C362 1.552 . S
C1123 C398 1.432 . S
C1128 C290 1.432 . S
