# Generated by pormake.
# Topology cab, (5)-cn, num edge types: 1
# Building blocks:
#     Node 0, Type 0, BuildingBlock: XOMCOT_clean_sbu_0, # of connection points: 5
#     Node 1, Type 0, BuildingBlock: XOMCOT_clean_sbu_0, # of connection points: 5
#     Node 2, Type 0, BuildingBlock: XOMCOT_clean_sbu_0, # of connection points: 5
#     Node 3, Type 0, BuildingBlock: XOMCOT_clean_sbu_0, # of connection points: 5
#     Node 4, Type 0, BuildingBlock: XOMCOT_clean_sbu_0, # of connection points: 5
#     Node 5, Type 0, BuildingBlock: XOMCOT_clean_sbu_0, # of connection points: 5
#     Edge 6, Type (0, 0), BuildingBlock: ZUJKAS_clean_linker_0, # of connection points: 2
#     Edge 7, Type (0, 0), BuildingBlock: ZUJKAS_clean_linker_0, # of connection points: 2
#     Edge 8, Type (0, 0), BuildingBlock: ZUJKAS_clean_linker_0, # of connection points: 2
#     Edge 9, Type (0, 0), BuildingBlock: ZUJKAS_clean_linker_0, # of connection points: 2
#     Edge 10, Type (0, 0), BuildingBlock: ZUJKAS_clean_linker_0, # of connection points: 2
#     Edge 11, Type (0, 0), BuildingBlock: ZUJKAS_clean_linker_0, # of connection points: 2
#     Edge 12, Type (0, 0), BuildingBlock: ZUJKAS_clean_linker_0, # of connection points: 2
#     Edge 13, Type (0, 0), BuildingBlock: ZUJKAS_clean_linker_0, # of connection points: 2
#     Edge 14, Type (0, 0), BuildingBlock: ZUJKAS_clean_linker_0, # of connection points: 2
#     Edge 15, Type (0, 0), BuildingBlock: ZUJKAS_clean_linker_0, # of connection points: 2
#     Edge 16, Type (0, 0), BuildingBlock: ZUJKAS_clean_linker_0, # of connection points: 2
#     Edge 17, Type (0, 0), BuildingBlock: ZUJKAS_clean_linker_0, # of connection points: 2
#     Edge 18, Type (0, 0), BuildingBlock: ZUJKAS_clean_linker_0, # of connection points: 2
#     Edge 19, Type (0, 0), BuildingBlock: ZUJKAS_clean_linker_0, # of connection points: 2
#     Edge 20, Type (0, 0), BuildingBlock: ZUJKAS_clean_linker_0, # of connection points: 2
# Relax obj value: 0.827
# Max RMSD: 0.221
# Mean RMSD: 0.218
data_MOF--net-cab--node1-XOMCOT_clean_sbu_0--edge1-ZUJKAS_clean_linker_0
_symmetry_space_group_name_H-M    P1
_symmetry_Int_Tables_number       1
_symmetry_cell_setting            triclinic
loop_
_symmetry_equiv_pos_as_xyz
'x, y, z'
_cell_length_a     45.409657
_cell_length_b     45.472031
_cell_length_c     45.35551
_cell_angle_alpha  79.337942
_cell_angle_beta   78.2626
_cell_angle_gamma 79.822136
loop_
_atom_site_label
_atom_site_type_symbol
_atom_site_fract_x
_atom_site_fract_y
_atom_site_fract_z
_atom_type_partial_charge
Co0 Co 0.00653 0.97507 0.36266 0.0
C1 C 0.018 0.90935 0.38683 0.0
C2 C 0.97333 0.92243 0.37623 0.0
C3 C 0.97788 0.89165 0.38465 0.0
N4 N 0.99813 0.9339 0.37846 0.0
N5 N 0.00614 0.88331 0.39102 0.0
H6 H 0.04168 0.91009 0.38676 0.0
H7 H 0.95413 0.93486 0.36653 0.0
C8 C 0.93934 0.98726 0.38502 0.0
O9 O 0.94242 0.97052 0.41142 0.0
N10 N 0.01442 0.01562 0.34547 0.0
C11 C 0.03508 0.03098 0.35076 0.0
C12 C 0.03379 0.05843 0.33164 0.0
C13 C 0.00119 0.0335 0.32322 0.0
N14 N 0.01243 0.05994 0.3143 0.0
C15 C 0.02154 0.96659 0.42252 0.0
C16 C 0.98882 0.02058 0.438 0.0
C17 C 0.00728 0.00268 0.45769 0.0
C18 C 0.02326 0.97508 0.45007 0.0
C19 C 0.98747 0.0111 0.41088 0.0
N20 N 0.00374 0.98441 0.40333 0.0
H21 H 0.03592 0.94658 0.41596 0.0
H22 H 0.97442 0.02604 0.39523 0.0
H23 H 0.05017 0.02268 0.36706 0.0
H24 H 0.98441 0.02664 0.31307 0.0
O25 O 0.04948 0.961 0.35422 0.0
O26 O 0.01779 0.96472 0.32191 0.0
O27 O 0.96209 0.98998 0.3634 0.0
C28 C 0.04558 0.95865 0.32717 0.0
H29 H 0.96236 0.87645 0.38371 0.0
H30 H 0.04763 0.07578 0.33062 0.0
H31 H 0.97639 0.04222 0.44302 0.0
H32 H 0.03844 0.96108 0.46435 0.0
Co33 Co 0.15134 0.156 0.75532 0.0
C34 C 0.09469 0.17646 0.7976 0.0
C35 C 0.09101 0.13765 0.77881 0.0
C36 C 0.0653 0.14362 0.8 0.0
N37 N 0.10943 0.15842 0.77694 0.0
N38 N 0.06768 0.16795 0.81197 0.0
H39 H 0.10386 0.19472 0.80307 0.0
H40 H 0.09661 0.11836 0.76684 0.0
C41 C 0.17873 0.09099 0.77862 0.0
O42 O 0.20403 0.09162 0.75863 0.0
N43 N 0.19325 0.1535 0.73492 0.0
C44 C 0.2053 0.15724 0.70495 0.0
C45 C 0.23665 0.15384 0.70192 0.0
C46 C 0.21698 0.14942 0.74947 0.0
N47 N 0.24373 0.14852 0.73009 0.0
C48 C 0.11582 0.15893 0.70984 0.0
C49 C 0.14179 0.1045 0.69045 0.0
C50 C 0.11624 0.1208 0.67914 0.0
C51 C 0.10348 0.14857 0.68862 0.0
C52 C 0.15302 0.11538 0.71211 0.0
N53 N 0.13947 0.14181 0.72224 0.0
H54 H 0.10548 0.18014 0.71749 0.0
H55 H 0.17254 0.10248 0.7205 0.0
H56 H 0.19239 0.16173 0.68663 0.0
H57 H 0.21469 0.14592 0.77405 0.0
O58 O 0.14602 0.19861 0.7399 0.0
O59 O 0.16108 0.17794 0.7837 0.0
O60 O 0.15762 0.1137 0.77893 0.0
C61 C 0.15461 0.20226 0.76448 0.0
H62 H 0.04722 0.12985 0.80741 0.0
H63 H 0.25292 0.15415 0.68084 0.0
H64 H 0.15242 0.08307 0.68331 0.0
H65 H 0.08397 0.16199 0.67994 0.0
Co66 Co 0.36872 0.02638 0.03205 0.0
C67 C 0.39447 0.04759 0.9674 0.0
C68 C 0.3937 -8e-05 0.97514 0.0
C69 C 0.40373 0.00876 0.94462 0.0
N70 N 0.38875 0.02409 0.98987 0.0
N71 N 0.40406 0.03876 0.9398 0.0
H72 H 0.38979 0.07105 0.97062 0.0
H73 H 0.38771 0.97783 0.98483 0.0
C74 C 0.39634 0.96074 0.03999 0.0
O75 O 0.42339 0.96804 0.02765 0.0
N76 N 0.34763 0.02857 0.07323 0.0
C77 C 0.34784 0.04963 0.09049 0.0
C78 C 0.32555 0.046 0.116 0.0
C79 C 0.32536 0.01251 0.08826 0.0
N80 N 0.31146 0.02269 0.11447 0.0
C81 C 0.4248 0.0481 0.02844 0.0
C82 C 0.44077 0.01265 0.08088 0.0
C83 C 0.4598 0.03321 0.06388 0.0
C84 C 0.4515 0.05107 0.03741 0.0
C85 C 0.4143 0.01015 0.07085 0.0
N86 N 0.40694 0.02734 0.04453 0.0
H87 H 0.41803 0.06334 0.00908 0.0
H88 H 0.39947 0.99465 0.08446 0.0
H89 H 0.36226 0.06716 0.08429 0.0
H90 H 0.3182 0.99504 0.07921 0.0
O91 O 0.35684 0.0692 0.02196 0.0
O92 O 0.32972 0.0341 0.01895 0.0
O93 O 0.37299 0.98106 0.04222 0.0
C94 C 0.33199 0.06271 0.01628 0.0
H95 H 0.40733 0.99482 0.9269 0.0
H96 H 0.31964 0.05993 0.13387 0.0
H97 H 0.44622 0.99876 0.10172 0.0
H98 H 0.46499 0.06804 0.02428 0.0
Co99 Co 0.99481 0.34074 0.04024 0.0
C100 C 0.9314 0.37394 0.03983 0.0
C101 C 0.94779 0.34807 0.00333 0.0
C102 C 0.91861 0.36142 0.00124 0.0
N103 N 0.95621 0.35643 0.02706 0.0
N104 N 0.90827 0.37765 0.02423 0.0
H105 H 0.92911 0.38186 0.06124 0.0
H106 H 0.96169 0.33251 0.98895 0.0
C107 C 0.01246 0.36425 0.97407 0.0
O108 O 0.99327 0.38908 0.97791 0.0
N109 N 0.03326 0.32393 0.05239 0.0
C110 C 0.04518 0.32995 0.07508 0.0
C111 C 0.07306 0.3121 0.07554 0.0
C112 C 0.05357 0.30254 0.03962 0.0
N113 N 0.07828 0.29485 0.05319 0.0
C114 C 0.98568 0.39668 0.06405 0.0
C115 C 0.03639 0.41861 0.02816 0.0
C116 C 0.01784 0.4359 0.04922 0.0
C117 C 0.99233 0.42451 0.06755 0.0
C118 C 0.02899 0.39088 0.02555 0.0
N119 N 0.00304 0.38084 0.04226 0.0
H120 H 0.9674 0.38728 0.07991 0.0
H121 H 0.04495 0.37698 0.0109 0.0
H122 H 0.0344 0.34612 0.09015 0.0
H123 H 0.04981 0.29239 0.02119 0.0
O124 O 0.97466 0.33036 0.08169 0.0
O125 O 0.98449 0.3003 0.04651 0.0
O126 O 0.01556 0.343 0.99648 0.0
C127 C 0.97401 0.30399 0.07473 0.0
H128 H 0.90561 0.35839 0.98477 0.0
H129 H 0.08827 0.31205 0.09106 0.0
H130 H 0.05718 0.42584 0.01466 0.0
H131 H 0.97792 0.43674 0.0848 0.0
Co132 Co 0.81597 0.16742 0.10908 0.0
C133 C 0.77876 0.22703 0.11433 0.0
C134 C 0.79983 0.20941 0.15354 0.0
C135 C 0.78247 0.23677 0.15794 0.0
N136 N 0.79741 0.20337 0.12625 0.0
N137 N 0.76921 0.24785 0.1333 0.0
H138 H 0.77258 0.229 0.09216 0.0
H139 H 0.81364 0.19517 0.16897 0.0
C140 C 0.80463 0.11834 0.16128 0.0
O141 O 0.79558 0.1041 0.14278 0.0
N142 N 0.83613 0.13101 0.09236 0.0
C143 C 0.8388 0.1244 0.064 0.0
C144 C 0.8603 0.09921 0.06056 0.0
C145 C 0.85726 0.11051 0.10501 0.0
N146 N 0.87194 0.09057 0.08639 0.0
C147 C 0.76813 0.15687 0.08065 0.0
C148 C 0.72544 0.15093 0.13355 0.0
C149 C 0.71887 0.14443 0.10681 0.0
C150 C 0.74015 0.14863 0.07982 0.0
C151 C 0.75363 0.15918 0.13326 0.0
N152 N 0.7755 0.15965 0.10758 0.0
H153 H 0.78367 0.16117 0.05961 0.0
H154 H 0.75819 0.16429 0.15409 0.0
H155 H 0.82828 0.13813 0.04586 0.0
H156 H 0.86269 0.111 0.12702 0.0
O157 O 0.8249 0.19123 0.0694 0.0
O158 O 0.85563 0.17979 0.10341 0.0
O159 O 0.81415 0.14382 0.15148 0.0
C160 C 0.85111 0.19251 0.07618 0.0
H161 H 0.781 0.24832 0.17715 0.0
H162 H 0.86822 0.08934 0.03989 0.0
H163 H 0.70908 0.14939 0.15459 0.0
H164 H 0.73562 0.14485 0.05839 0.0
Co165 Co 0.14039 0.79987 0.09969 0.0
C166 C 0.14025 0.77224 0.16554 0.0
C167 C 0.17656 0.79811 0.14616 0.0
C168 C 0.17904 0.78684 0.17589 0.0
N169 N 0.15271 0.78842 0.1393 0.0
N170 N 0.15622 0.77058 0.18806 0.0
H171 H 0.11953 0.76274 0.16882 0.0
H172 H 0.19091 0.81297 0.13064 0.0
C173 C 0.20528 0.77196 0.08668 0.0
O174 O 0.19848 0.74888 0.10766 0.0
N175 N 0.12921 0.81257 0.06009 0.0
C176 C 0.10629 0.80545 0.04925 0.0
C177 C 0.10521 0.82233 0.02075 0.0
C178 C 0.14147 0.83366 0.03854 0.0
N179 N 0.12721 0.84017 0.01431 0.0
C180 C 0.11118 0.74695 0.11649 0.0
C181 C 0.14482 0.71636 0.07058 0.0
C182 C 0.1211 0.70338 0.09062 0.0
C183 C 0.10418 0.71907 0.1138 0.0
C184 C 0.15105 0.74435 0.07412 0.0
N185 N 0.13511 0.75881 0.09764 0.0
H186 H 0.09614 0.75972 0.13272 0.0
H187 H 0.16785 0.75492 0.05705 0.0
H188 H 0.09094 0.78986 0.06152 0.0
H189 H 0.16005 0.84451 0.04094 0.0
O190 O 0.0995 0.81427 0.1182 0.0
O191 O 0.13693 0.842 0.10406 0.0
O192 O 0.18446 0.79359 0.07981 0.0
C193 C 0.10834 0.84051 0.11519 0.0
H194 H 0.1953 0.79169 0.18814 0.0
H195 H 0.08872 0.82245 0.00651 0.0
H196 H 0.15805 0.70535 0.05191 0.0
H197 H 0.08469 0.71063 0.12883 0.0
H198 H 0.97091 0.24612 0.0676 0.0
H199 H 0.96845 0.20184 0.10757 0.0
H200 H 0.96029 0.25908 0.17566 0.0
H201 H 0.96177 0.30329 0.13613 0.0
H202 H 0.01023 0.18185 0.14233 0.0
H203 H 0.89988 0.20405 0.21808 0.0
H204 H 0.90824 0.22508 0.18024 0.0
H205 H 0.92028 0.23561 0.21186 0.0
C206 C 0.9677 0.24934 0.09118 0.0
C207 C 0.96661 0.27821 0.0987 0.0
C208 C 0.9664 0.224 0.114 0.0
C209 C 0.96397 0.22708 0.14471 0.0
C210 C 0.96142 0.25611 0.15229 0.0
H211 H 0.04576 0.10371 0.28292 0.0
H212 H 0.03234 0.14304 0.24148 0.0
C213 C 0.96245 0.28143 0.12957 0.0
C214 C 0.9679 0.19999 0.16836 0.0
H215 H 0.93916 0.16973 0.24103 0.0
C216 C 0.99441 0.17895 0.16371 0.0
C217 C 0.94713 0.19586 0.19614 0.0
C218 C 0.91714 0.21621 0.20173 0.0
C219 C 0.0014 0.15478 0.18654 0.0
C220 C 0.9818 0.15204 0.21518 0.0
C221 C 0.95454 0.17217 0.21932 0.0
C222 C 0.98941 0.12872 0.2412 0.0
C223 C 0.02974 0.13244 0.17964 0.0
C224 C 0.96915 0.10838 0.25585 0.0
C225 C 0.97646 0.08621 0.28008 0.0
C226 C 0.00428 0.0838 0.29021 0.0
C227 C 0.02416 0.10476 0.27592 0.0
C228 C 0.0167 0.12707 0.25185 0.0
H229 H 0.03645 0.13183 0.15477 0.0
H230 H 0.04877 0.13937 0.1874 0.0
H231 H 0.02654 0.10927 0.19149 0.0
H232 H 0.94777 0.10945 0.24831 0.0
H233 H 0.9602 0.07103 0.29087 0.0
H234 H 0.83474 0.13227 0.2017 0.0
H235 H 0.83522 0.10815 0.25431 0.0
H236 H 0.77043 0.05196 0.24728 0.0
H237 H 0.7708 0.07524 0.19399 0.0
H238 H 0.79228 0.10116 0.30644 0.0
H239 H 0.84056 0.98957 0.26888 0.0
H240 H 0.83716 0.02388 0.24185 0.0
H241 H 0.80397 0.00685 0.26022 0.0
C242 C 0.82049 0.11487 0.21138 0.0
C243 C 0.80321 0.10518 0.19364 0.0
C244 C 0.8206 0.10125 0.24151 0.0
C245 C 0.80317 0.07797 0.25457 0.0
C246 C 0.78454 0.06941 0.23743 0.0
H247 H 0.88542 0.9647 0.40159 0.0
H248 H 0.83849 0.986 0.38131 0.0
C249 C 0.78482 0.0827 0.20703 0.0
C250 C 0.80722 0.06123 0.28502 0.0
H251 H 0.84523 0.99564 0.31727 0.0
C252 C 0.80304 0.07777 0.30919 0.0
C253 C 0.82075 0.03054 0.28879 0.0
C254 C 0.82608 0.01159 0.26362 0.0
C255 C 0.81524 0.06553 0.33557 0.0
C256 C 0.83191 0.03616 0.33766 0.0
C257 C 0.83249 0.01826 0.31543 0.0
C258 C 0.85553 0.02691 0.3569 0.0
C259 C 0.81249 0.08497 0.35982 0.0
C260 C 0.88024 0.04315 0.35025 0.0
C261 C 0.90699 0.0308 0.36107 0.0
C262 C 0.90934 0.0022 0.37907 0.0
C263 C 0.88389 0.98692 0.38787 0.0
C264 C 0.85716 -0.00093 0.37644 0.0
H265 H 0.79085 0.1009 0.36116 0.0
H266 H 0.81359 0.07099 0.38251 0.0
H267 H 0.83146 0.09862 0.35391 0.0
H268 H 0.87978 0.06429 0.33461 0.0
H269 H 0.9264 0.04295 0.35409 0.0
H270 H 0.99529 0.83628 0.36778 0.0
H271 H 0.03062 0.79164 0.35822 0.0
H272 H 0.09164 0.81628 0.40811 0.0
H273 H 0.05597 0.86213 0.41733 0.0
H274 H 0.11802 0.81454 0.35408 0.0
H275 H 0.06937 0.70961 0.38523 0.0
H276 H 0.04083 0.73675 0.36954 0.0
H277 H 0.05262 0.74212 0.40373 0.0
C278 C 0.01551 0.83178 0.37797 0.0
C279 C 0.0231 0.85327 0.3927 0.0
C280 C 0.03577 0.80573 0.37275 0.0
C281 C 0.06396 0.80027 0.3825 0.0
C282 C 0.07007 0.81995 0.40031 0.0
H283 H 0.19427 0.74586 0.2277 0.0
H284 H 0.18038 0.73794 0.28346 0.0
C285 C 0.04982 0.8463 0.4053 0.0
C286 C 0.08901 0.77985 0.36678 0.0
H287 H 0.09633 0.71963 0.32957 0.0
C288 C 0.11416 0.793 0.34973 0.0
C289 C 0.08465 0.75137 0.36144 0.0
C290 C 0.0605 0.73414 0.38135 0.0
C291 C 0.13149 0.78142 0.32407 0.0
C292 C 0.1237 0.75566 0.31572 0.0
C293 C 0.1018 0.73979 0.33559 0.0
C294 C 0.13209 0.75022 0.28373 0.0
C295 C 0.15529 0.79919 0.30401 0.0
C296 C 0.1094 0.75742 0.26558 0.0
C297 C 0.11724 0.76173 0.23389 0.0
C298 C 0.14792 0.75907 0.21987 0.0
C299 C 0.17047 0.74871 0.23806 0.0
C300 C 0.16258 0.74406 0.26983 0.0
H301 H 0.15711 0.81978 0.31305 0.0
H302 H 0.17782 0.78482 0.30223 0.0
H303 H 0.14984 0.80622 0.28072 0.0
H304 H 0.0857 0.76232 0.27586 0.0
H305 H 0.09939 0.76968 0.22051 0.0
H306 H 0.29764 0.96569 0.12917 0.0
H307 H 0.25259 0.94899 0.16361 0.0
H308 H 0.21993 0.04091 0.17898 0.0
H309 H 0.26526 0.0574 0.14536 0.0
H310 H 0.21475 0.00409 0.23075 0.0
H311 H 0.16713 0.95684 0.14943 0.0
H312 H 0.20526 0.93968 0.15283 0.0
H313 H 0.19784 0.97911 0.13732 0.0
C314 C 0.28071 0.98228 0.13982 0.0
C315 C 0.28499 0.01282 0.13468 0.0
C316 C 0.25487 0.97278 0.15931 0.0
C317 C 0.2325 0.99376 0.17351 0.0
C318 C 0.2368 0.02427 0.1683 0.0
H319 H 0.04846 0.97872 0.26628 0.0
H320 H 0.09474 0.98352 0.22814 0.0
C321 C 0.26279 0.03368 0.1492 0.0
C322 C 0.20527 0.98399 0.19493 0.0
H323 H 0.14372 0.94783 0.20158 0.0
C324 C 0.19923 0.99181 0.22431 0.0
C325 C 0.18477 0.96824 0.18646 0.0
C326 C 0.18885 0.96073 0.1547 0.0
C327 C 0.17334 0.98458 0.24537 0.0
C328 C 0.15335 0.96796 0.2373 0.0
C329 C 0.15931 0.9601 0.20792 0.0
C330 C 0.12534 0.96017 0.25864 0.0
C331 C 0.16714 0.99585 0.27566 0.0
C332 C 0.12703 0.94398 0.28793 0.0
C333 C 0.10067 0.9416 0.30983 0.0
C334 C 0.0721 0.95467 0.30257 0.0
C335 C 0.07017 0.9683 0.27245 0.0
C336 C 0.09663 0.97115 0.25068 0.0
H337 H 0.17975 0.0149 0.27488 0.0
H338 H 0.14252 0.00355 0.28276 0.0
H339 H 0.17464 0.97725 0.29331 0.0
H340 H 0.14886 0.93449 0.29432 0.0
H341 H 0.10276 0.93074 0.33283 0.0
H342 H 0.12079 0.83943 0.95641 0.0
H343 H 0.13141 0.87871 0.91217 0.0
H344 H 0.15572 0.93273 0.96987 0.0
H345 H 0.14567 0.89354 0.01373 0.0
H346 H 0.10631 0.93691 0.90093 0.0
H347 H 0.22851 0.9321 0.90232 0.0
H348 H 0.20663 0.90348 0.92445 0.0
H349 H 0.20567 0.9383 0.93843 0.0
C350 C 0.12845 0.8597 0.95952 0.0
C351 C 0.13284 0.86326 0.98836 0.0
C352 C 0.13459 0.88204 0.93429 0.0
C353 C 0.14509 0.9083 0.9376 0.0
C354 C 0.14865 0.91221 0.96657 0.0
H355 H 0.13323 0.08365 0.82788 0.0
H356 H 0.1254 0.03771 0.86416 0.0
C357 C 0.14284 0.88982 0.99164 0.0
C358 C 0.15138 0.93225 0.9111 0.0
H359 H 0.20476 0.97689 0.87405 0.0
C360 C 0.12796 0.94542 0.89478 0.0
C361 C 0.17982 0.94293 0.90268 0.0
C362 C 0.20668 0.92823 0.91769 0.0
C363 C 0.13178 0.96989 0.87113 0.0
C364 C 0.15949 0.98199 0.86423 0.0
C365 C 0.18335 0.96793 0.87965 0.0
C366 C 0.16398 0.0097 0.84176 0.0
C367 C 0.10611 0.98242 0.85376 0.0
C368 C 0.18891 0.00955 0.81768 0.0
C369 C 0.19381 0.03597 0.79719 0.0
C370 C 0.17381 0.06303 0.80039 0.0
C371 C 0.14893 0.06313 0.8246 0.0
C372 C 0.14424 0.0368 0.84523 0.0
H373 H 0.09144 0.96504 0.85457 0.0
H374 H 0.09168 0.00143 0.86432 0.0
H375 H 0.11478 0.99094 0.82953 0.0
H376 H 0.20457 0.98894 0.81472 0.0
H377 H 0.21318 0.03511 0.77879 0.0
H378 H 0.36409 0.08764 0.9247 0.0
H379 H 0.35878 0.11217 0.87319 0.0
H380 H 0.44168 0.05786 0.83715 0.0
H381 H 0.44582 0.03183 0.88904 0.0
H382 H 0.38753 0.14355 0.8241 0.0
H383 H 0.38392 0.02892 0.79841 0.0
H384 H 0.38568 0.03459 0.83618 0.0
H385 H 0.41889 0.03556 0.80675 0.0
C386 C 0.38157 0.0815 0.90585 0.0
C387 C 0.40513 0.05765 0.91063 0.0
C388 C 0.37859 0.09553 0.87635 0.0
C389 C 0.39937 0.0863 0.8511 0.0
C390 C 0.42478 0.06466 0.85613 0.0
H391 H 0.29715 0.16829 0.70163 0.0
H392 H 0.34622 0.15465 0.7199 0.0
C393 C 0.4273 0.04999 0.88569 0.0
C394 C 0.39141 0.09648 0.82025 0.0
H395 H 0.36258 0.07026 0.76786 0.0
C396 C 0.38285 0.12759 0.81119 0.0
C397 C 0.38575 0.07562 0.80308 0.0
C398 C 0.39385 0.04182 0.81154 0.0
C399 C 0.36523 0.13808 0.78823 0.0
C400 C 0.35673 0.11689 0.77354 0.0
C401 C 0.36905 0.08632 0.77947 0.0
C402 C 0.32897 0.12404 0.7597 0.0
C403 C 0.35298 0.17128 0.78227 0.0
C404 C 0.30352 0.11077 0.77552 0.0
C405 C 0.27602 0.1183 0.76519 0.0
C406 C 0.27312 0.13947 0.7388 0.0
C407 C 0.29885 0.15202 0.72211 0.0
C408 C 0.32671 0.1444 0.7326 0.0
H409 H 0.36159 0.18477 0.79591 0.0
H410 H 0.35961 0.18019 0.75776 0.0
H411 H 0.32776 0.17454 0.78782 0.0
H412 H 0.30472 0.09498 0.79646 0.0
H413 H 0.25685 0.10767 0.77812 0.0
H414 H 0.1327 0.25633 0.73334 0.0
H415 H 0.11704 0.30416 0.75334 0.0
H416 H 0.15439 0.26403 0.8342 0.0
H417 H 0.17032 0.21649 0.81431 0.0
H418 H 0.07487 0.30309 0.80438 0.0
H419 H 0.17169 0.34975 0.82431 0.0
H420 H 0.17599 0.32408 0.79715 0.0
H421 H 0.17607 0.30975 0.83698 0.0
C422 C 0.13858 0.25807 0.75487 0.0
C423 C 0.1523 0.2326 0.77254 0.0
C424 C 0.12969 0.28545 0.76619 0.0
C425 C 0.13473 0.28775 0.79513 0.0
C426 C 0.15087 0.26305 0.81151 0.0
H427 H 0.06073 0.32101 0.96146 0.0
H428 H 0.0906 0.31327 0.91182 0.0
C429 C 0.15968 0.23572 0.80026 0.0
C430 C 0.11761 0.31258 0.81131 0.0
H431 H 0.12507 0.3546 0.86352 0.0
C432 C 0.08575 0.31544 0.81639 0.0
C433 C 0.13184 0.32868 0.82686 0.0
C434 C 0.1658 0.32812 0.82074 0.0
C435 C 0.06795 0.33092 0.83934 0.0
C436 C 0.08251 0.34421 0.85716 0.0
C437 C 0.11406 0.34419 0.84985 0.0
C438 C 0.06642 0.3521 0.88691 0.0
C439 C 0.03411 0.33016 0.84655 0.0
C440 C 0.04318 0.37679 0.88925 0.0
C441 C 0.02584 0.38127 0.91774 0.0
C442 C 0.03153 0.36097 0.94409 0.0
C443 C 0.05553 0.33688 0.94159 0.0
C444 C 0.07282 0.33256 0.91328 0.0
H445 H 0.02657 0.31772 0.83118 0.0
H446 H 0.02751 0.31919 0.87044 0.0
H447 H 0.02179 0.3536 0.8443 0.0
H448 H 0.03802 0.39209 0.86903 0.0
H449 H 0.00758 0.40011 0.91903 0.0
H450 H 0.84737 0.22083 0.01833 0.0
H451 H 0.88952 0.22666 0.97563 0.0
H452 H 0.95353 0.19328 0.03668 0.0
H453 H 0.91141 0.18725 0.07969 0.0
H454 H 0.94793 0.25446 0.96191 0.0
H455 H 0.96084 0.12853 0.97805 0.0
H456 H 0.92708 0.15095 0.9953 0.0
H457 H 0.96149 0.14586 0.01046 0.0
C458 C 0.87039 0.21553 0.02287 0.0
C459 C 0.87607 0.20311 0.0523 0.0
C460 C 0.89446 0.21899 0.99843 0.0
C461 C 0.92457 0.21003 0.00297 0.0
C462 C 0.93039 0.20014 0.03272 0.0
H463 H 0.08181 0.19727 0.85344 0.0
H464 H 0.04851 0.21137 0.89984 0.0
C465 C 0.90629 0.19675 0.05726 0.0
C466 C 0.94904 0.20648 0.97622 0.0
H467 H 0.99088 0.15259 0.93537 0.0
C468 C 0.95773 0.23223 0.95624 0.0
C469 C 0.96141 0.17741 0.9688 0.0
C470 C 0.95223 0.14901 0.98907 0.0
C471 C 0.97818 0.22959 0.92867 0.0
C472 C 0.98992 0.2005 0.92101 0.0
C473 C 0.98176 0.17484 0.94136 0.0
C474 C 0.00918 0.19583 0.89122 0.0
C475 C 0.98626 0.25777 0.90736 0.0
C476 C 0.99799 0.18276 0.87085 0.0
C477 C 0.01686 0.17477 0.84429 0.0
C478 C 0.04748 0.17941 0.83763 0.0
C479 C 0.05833 0.1936 0.85758 0.0
C480 C 0.03934 0.20167 0.88419 0.0
H481 H 0.9723 0.27861 0.91487 0.0
H482 H 0.01056 0.25941 0.90633 0.0
H483 H 0.98315 0.25666 0.88395 0.0
H484 H 0.97475 0.17809 0.87588 0.0
H485 H 0.00758 0.16442 0.82925 0.0
H486 H 0.33064 0.12322 0.01292 0.0
H487 H 0.28626 0.16218 0.01323 0.0
H488 H 0.23093 0.09618 0.00748 0.0
H489 H 0.27529 0.05665 0.00808 0.0
H490 H 0.2454 0.18538 0.9758 0.0
H491 H 0.18891 0.12711 0.08607 0.0
H492 H 0.22805 0.11569 0.06993 0.0
H493 H 0.19798 0.105 0.05563 0.0
C494 C 0.30913 0.11699 0.01132 0.0
C495 C 0.30635 0.08677 0.01092 0.0
C496 C 0.28378 0.13933 0.01146 0.0
C497 C 0.25517 0.13195 0.0111 0.0
C498 C 0.25269 0.1022 0.00854 0.0
H499 H 0.09667 0.27179 1e-05 0.0
H500 H 0.13873 0.23195 0.98858 0.0
C501 C 0.27808 0.0797 0.00863 0.0
C502 C 0.22793 0.15515 0.01538 0.0
H503 H 0.16192 0.17233 0.06446 0.0
C504 C 0.22702 0.18251 0.99507 0.0
C505 C 0.2043 0.15152 0.04089 0.0
C506 C 0.20486 0.12339 0.06457 0.0
C507 C 0.20328 0.20648 -0.00028 0.0
C508 C 0.17942 0.20265 0.02497 0.0
C509 C 0.18017 0.17516 0.04505 0.0
C510 C 0.15391 0.22713 0.03168 0.0
C511 C 0.20462 0.23599 0.97819 0.0
C512 C 0.1479 0.23719 0.06005 0.0
C513 C 0.12333 0.25953 0.06702 0.0
C514 C 0.10421 0.27235 0.04573 0.0
C515 C 0.11051 0.26231 0.01721 0.0
C516 C 0.13492 0.23976 0.01039 0.0
H517 H 0.22806 0.23797 0.9656 0.0
H518 H 0.18984 0.23722 0.96118 0.0
H519 H 0.19648 0.2556 0.99061 0.0
H520 H 0.16219 0.22763 0.07691 0.0
H521 H 0.11909 0.26629 0.08932 0.0
H522 H 0.3485 0.93829 0.07779 0.0
H523 H 0.33611 0.88737 0.08503 0.0
H524 H 0.42067 0.85958 0.02726 0.0
H525 H 0.43319 0.9112 0.01955 0.0
H526 H 0.3725 0.84598 0.00876 0.0
H527 H 0.36199 0.80587 0.13165 0.0
H528 H 0.34275 0.84387 0.12623 0.0
H529 H 0.38321 0.83633 0.11295 0.0
C530 C 0.36481 0.92125 0.06709 0.0
C531 C 0.39169 0.92876 0.04791 0.0
C532 C 0.35788 0.89198 0.07157 0.0
C533 C 0.37772 0.86947 0.05714 0.0
C534 C 0.40525 0.87653 0.03892 0.0
H535 H 0.25624 0.73527 0.1025 0.0
H536 H 0.30831 0.74708 0.08981 0.0
C537 C 0.41235 0.90597 0.03456 0.0
C538 C 0.36688 0.84049 0.05777 0.0
H539 H 0.32269 0.79312 0.10691 0.0
C540 C 0.36255 0.83356 0.03019 0.0
C541 C 0.35479 0.82344 0.08554 0.0
C542 C 0.3613 0.8276 0.1157 0.0
C543 C 0.34276 0.81319 0.02995 0.0
C544 C 0.32652 0.80018 0.05794 0.0
C545 C 0.33442 0.80369 0.08534 0.0
C546 C 0.29748 0.78876 0.05971 0.0
C547 C 0.33794 0.80744 -0.00029 0.0
C548 C 0.27424 0.80778 0.04634 0.0
C549 C 0.2446 0.8011 0.05345 0.0
C550 C 0.23743 0.77545 0.07447 0.0
C551 C 0.26102 0.75529 0.0863 0.0
C552 C 0.29081 0.76196 0.07905 0.0
H553 H 0.35967 0.80659 0.98316 0.0
H554 H 0.32871 0.78593 0.00194 0.0
H555 H 0.32183 0.82637 0.99019 0.0
H556 H 0.27847 0.82903 0.03208 0.0
H557 H 0.22701 0.81706 0.04386 0.0
H558 H 0.73471 0.28291 0.17362 0.0
H559 H 0.72173 0.33792 0.16345 0.0
H560 H 0.75616 0.33592 0.06768 0.0
H561 H 0.76849 0.28167 0.07769 0.0
H562 H 0.76627 0.36596 0.14879 0.0
H563 H 0.70329 0.41428 0.05811 0.0
H564 H 0.69658 0.37823 0.08103 0.0
H565 H 0.72391 0.38013 0.04581 0.0
C566 C 0.73845 0.29425 0.15027 0.0
C567 C 0.75353 0.27807 0.12657 0.0
C568 C 0.73065 0.32568 0.14443 0.0
C569 C 0.73803 0.34143 0.11482 0.0
C570 C 0.74948 0.32469 0.0907 0.0
H571 H 0.85786 0.35915 0.01566 0.0
H572 H 0.80624 0.37441 0.03938 0.0
C573 C 0.75701 0.29335 0.0965 0.0
C574 C 0.74356 0.37338 0.11008 0.0
H575 H 0.76074 0.42303 0.04558 0.0
C576 C 0.76398 0.37953 0.12683 0.0
C577 C 0.73918 0.393 0.0828 0.0
C578 C 0.71416 0.39114 0.06625 0.0
C579 C 0.78603 0.39817 0.1129 0.0
C580 C 0.78702 0.41076 0.08178 0.0
C581 C 0.76114 0.4118 0.06881 0.0
C582 C 0.81688 0.40911 0.06095 0.0
C583 C 0.81098 0.39953 0.12985 0.0
C584 C 0.84028 0.42431 0.06385 0.0
C585 C 0.8704 0.41492 0.05063 0.0
C586 C 0.87731 0.39078 0.03376 0.0
C587 C 0.85343 0.37784 0.0284 0.0
C588 C 0.82367 0.38679 0.04191 0.0
H589 H 0.80514 0.39085 0.15456 0.0
H590 H 0.83228 0.38569 0.12035 0.0
H591 H 0.81523 0.42322 0.12739 0.0
H592 H 0.83561 0.44212 0.07772 0.0
H593 H 0.88839 0.42575 0.05449 0.0
H594 H 0.04739 0.84353 0.13617 0.0
H595 H 0.00932 0.88877 0.13544 0.0
H596 H 0.08032 0.94477 0.10411 0.0
H597 H 0.11866 0.89946 0.10425 0.0
H598 H 0.99817 0.94099 0.16248 0.0
H599 H 0.02912 0.96683 0.03633 0.0
H600 H 0.04265 0.9312 0.05774 0.0
H601 H 0.05976 0.96421 0.05669 0.0
C602 C 0.05499 0.86547 0.12957 0.0
C603 C 0.08604 0.8679 0.11995 0.0
C604 C 0.03317 0.89132 0.12918 0.0
C605 C 0.04195 0.92009 0.11912 0.0
C606 C 0.07304 0.92273 0.11136 0.0
H607 H 0.91297 0.08804 0.12325 0.0
H608 H 0.9547 0.04744 0.13235 0.0
C609 C 0.09492 0.89683 0.11168 0.0
C610 C 0.01839 0.9469 0.11494 0.0
H611 H 0.99038 0.00074 0.06041 0.0
C612 C 0.99654 0.95421 0.14022 0.0
C613 C 0.01605 0.96377 0.08576 0.0
C614 C 0.03794 0.95605 0.05749 0.0
C615 C 0.97232 0.97788 0.13709 0.0
C616 C 0.97019 0.99494 0.10795 0.0
C617 C 0.99216 0.98774 0.08274 0.0
C618 C 0.94471 0.0196 0.1028 0.0
C619 C 0.94869 0.98373 0.16482 0.0
C620 C 0.92562 0.01781 0.08263 0.0
C621 C 0.90179 0.04105 0.07727 0.0
C622 C 0.89657 0.06662 0.09196 0.0
C623 C 0.9159 0.06843 0.11203 0.0
C624 C 0.93981 0.04521 0.11727 0.0
H625 H 0.94947 0.96419 0.18356 0.0
H626 H 0.95297 0.00367 0.17333 0.0
H627 H 0.92549 0.98864 0.15912 0.0
H628 H 0.92903 0.99827 0.07115 0.0
H629 H 0.88721 0.03883 0.06191 0.0
H630 H 0.14424 0.10016 0.62634 0.0
H631 H 0.12107 0.07917 0.59207 0.0
H632 H 0.03434 0.09078 0.65211 0.0
H633 H 0.05723 0.11291 0.68571 0.0
H634 H 0.0944 0.03022 0.60112 0.0
H635 H 0.01083 0.13111 0.57247 0.0
H636 H 0.0409 0.13228 0.59258 0.0
H637 H 0.00687 0.1174 0.61257 0.0
C638 C 0.12019 0.09838 0.632 0.0
C639 C 0.10236 0.1084 0.65833 0.0
C640 C 0.107 0.08637 0.61253 0.0
C641 C 0.07586 0.0839 0.61928 0.0
C642 C 0.05818 0.0933 0.64599 0.0
H643 H 0.00545 0.97378 0.51642 0.0
H644 H 0.01869 0.99244 0.5588 0.0
C645 C 0.07126 0.10581 0.66518 0.0
C646 C 0.06217 0.07108 0.59845 0.0
H647 H 0.00715 0.08659 0.55432 0.0
C648 C 0.07531 0.04251 0.59087 0.0
C649 C 0.03737 0.08729 0.58502 0.0
C650 C 0.02334 0.11883 0.59081 0.0
C651 C 0.06482 0.02995 0.56966 0.0
C652 C 0.03976 0.04599 0.55653 0.0
C653 C 0.02616 0.07424 0.56467 0.0
C654 C 0.02908 0.03527 0.53221 0.0
C655 C 0.08159 0.00032 0.56056 0.0
C656 C 0.02912 0.05372 0.50376 0.0
C657 C 0.02095 0.04342 0.47992 0.0
C658 C 0.01279 0.01438 0.48403 0.0
C659 C 0.01192 0.99617 0.51272 0.0
C660 C 0.01965 0.00671 0.53679 0.0
H661 H 0.10455 0.995 0.56688 0.0
H662 H 0.06856 0.98178 0.57249 0.0
H663 H 0.08415 0.00069 0.53563 0.0
H664 H 0.03633 0.07582 0.49973 0.0
H665 H 0.02214 0.05775 0.45791 0.0
H666 H 0.69309 0.10157 0.14977 0.0
H667 H 0.64784 0.07945 0.14939 0.0
H668 H 0.63587 0.13701 0.06448 0.0
H669 H 0.68072 0.1598 0.06499 0.0
H670 H 0.58138 0.13282 0.11043 0.0
H671 H 0.64678 0.02079 0.08909 0.0
H672 H 0.6536 0.03555 0.12086 0.0
H673 H 0.66453 0.05449 0.08281 0.0
C674 C 0.68057 0.10984 0.13123 0.0
C675 C 0.6905 0.13236 0.10733 0.0
C676 C 0.65493 0.09698 0.13093 0.0
C677 C 0.63887 0.10637 0.10672 0.0
C678 C 0.64817 0.1294 0.08327 0.0
H679 H 0.51601 0.03714 0.02974 0.0
H680 H 0.5594 0.05203 0.04462 0.0
C681 C 0.67385 0.14223 0.0835 0.0
C682 C 0.61266 0.09187 0.10539 0.0
H683 H 0.59358 0.02628 0.09338 0.0
C684 C 0.5839 0.10945 0.10702 0.0
C685 C 0.61628 0.06143 0.10077 0.0
C686 C 0.64695 0.0419 0.09805 0.0
C687 C 0.55859 0.09753 0.10353 0.0
C688 C 0.56226 0.06719 0.09857 0.0
C689 C 0.59092 0.04943 0.09752 0.0
C690 C 0.53728 0.05463 0.09124 0.0
C691 C 0.52841 0.11779 0.10387 0.0
C692 C 0.51094 0.05025 0.11288 0.0
C693 C 0.48609 0.04174 0.10442 0.0
C694 C 0.48734 0.03764 0.0742 0.0
C695 C 0.51437 0.04052 0.05308 0.0
C696 C 0.53916 0.04887 0.06156 0.0
H697 H 0.53053 0.14187 0.10331 0.0
H698 H 0.51823 0.11606 0.08409 0.0
H699 H 0.51251 0.11048 0.12494 0.0
H700 H 0.50928 0.05433 0.13598 0.0
H701 H 0.46547 0.03979 0.1211 0.0
H702 H 0.118 0.68595 0.03688 0.0
H703 H 0.10037 0.64029 0.02996 0.0
H704 H 0.08615 0.61104 0.12715 0.0
H705 H 0.10417 0.65644 0.13432 0.0
H706 H 0.12291 0.57768 0.04964 0.0
H707 H 0.00276 0.61156 0.10223 0.0
H708 H 0.02966 0.63813 0.0895 0.0
H709 H 0.03067 0.61276 0.12481 0.0
C710 C 0.11159 0.66959 0.05676 0.0
C711 C 0.11239 0.67482 0.08617 0.0
C712 C 0.10133 0.64366 0.05276 0.0
C713 C 0.09155 0.62268 0.07809 0.0
C714 C 0.09308 0.62735 0.1074 0.0
H715 H 0.01776 0.4554 0.10273 0.0
H716 H 0.03535 0.50127 0.10923 0.0
C717 C 0.10337 0.65324 0.11143 0.0
C718 C 0.07966 0.59589 0.07383 0.0
H719 H 0.0156 0.56227 0.08916 0.0
C720 C 0.09944 0.57429 0.05815 0.0
C721 C 0.04904 0.5917 0.08504 0.0
C722 C 0.02665 0.61484 0.10114 0.0
C723 C 0.08952 0.54815 0.05385 0.0
C724 C 0.05886 0.54398 0.065 0.0
C725 C 0.03908 0.56563 0.08065 0.0
C726 C 0.04698 0.51709 0.0609 0.0
C727 C 0.1121 0.52493 0.03804 0.0
C728 C 0.04701 0.51131 0.03157 0.0
C729 C 0.03695 0.4852 0.02779 0.0
C730 C 0.02642 0.46461 0.0533 0.0
C731 C 0.02547 0.471 0.08267 0.0
C732 C 0.03565 0.49707 0.08642 0.0
H733 H 0.13592 0.52778 0.03794 0.0
H734 H 0.10855 0.50163 0.04918 0.0
H735 H 0.10898 0.52752 0.01401 0.0
H736 H 0.05499 0.52691 0.01162 0.0
H737 H 0.03749 0.48105 0.00491 0.0
loop_
_geom_bond_atom_site_label_1
_geom_bond_atom_site_label_2
_geom_bond_distance
_geom_bond_site_symmetry_2
_ccdc_geom_bond_type
Co0 N4 2.148 1_545 S
Co0 N10 2.128 . S
Co0 N20 2.194 . S
Co0 O25 2.351 . S
Co0 O26 2.155 . S
Co0 O27 2.096 1_455 S
C1 N4 1.301 . S
C1 N5 1.328 . S
C1 H6 0.930 . S
C2 C3 1.333 . S
C2 N4 1.317 . S
C2 H7 0.930 1_455 S
C3 C2 1.333 . S
C3 N5 1.350 . S
C3 H29 0.931 . S
N4 Co0 2.148 1_565 S
N4 C1 1.301 . S
N4 C2 1.317 . S
N5 C1 1.328 . S
N5 C3 1.350 . S
H6 C1 0.930 . S
H7 C2 0.930 1_655 S
C8 O9 1.224 . S
C8 O27 1.247 . S
O9 C8 1.224 . S
N10 Co0 2.128 . S
N10 C11 1.355 . S
N10 C13 1.311 . S
C11 N10 1.355 . S
C11 C12 1.363 . S
C11 H23 0.929 . S
C12 C11 1.363 . S
C12 N14 1.375 . S
C12 H30 0.931 . S
C13 N10 1.311 . S
C13 N14 1.347 . S
C13 H24 0.929 1_455 S
N14 C12 1.375 . S
N14 C13 1.347 . S
C15 C18 1.365 . S
C15 N20 1.328 . S
C15 H21 0.941 . S
C16 C17 1.362 . S
C16 C19 1.378 . S
C16 H31 0.929 1_455 S
C17 C16 1.362 . S
C17 C18 1.366 . S
C18 C15 1.365 . S
C18 C17 1.366 . S
C18 H32 0.930 . S
C19 C16 1.378 . S
C19 N20 1.315 . S
C19 H22 0.930 1_455 S
N20 Co0 2.194 . S
N20 C15 1.328 . S
N20 C19 1.315 . S
H21 C15 0.941 . S
H22 C19 0.930 1_655 S
H23 C11 0.929 . S
H24 C13 0.929 1_655 S
O25 Co0 2.351 . S
O25 C28 1.244 . S
O26 Co0 2.155 . S
O26 C28 1.240 . S
O27 Co0 2.096 1_655 S
O27 C8 1.247 . S
C28 O25 1.244 . S
C28 O26 1.240 . S
H29 C3 0.931 . S
H30 C12 0.931 . S
H31 C16 0.929 1_655 S
H32 C18 0.930 . S
Co33 N37 2.148 . S
Co33 N43 2.128 . S
Co33 N53 2.194 . S
Co33 O58 2.351 . S
Co33 O59 2.155 . S
Co33 O60 2.096 . S
C34 N37 1.301 . S
C34 N38 1.328 . S
C34 H39 0.930 . S
C35 C36 1.333 . S
C35 N37 1.317 . S
C35 H40 0.930 . S
C36 C35 1.333 . S
C36 N38 1.350 . S
C36 H62 0.931 . S
N37 Co33 2.148 . S
N37 C34 1.301 . S
N37 C35 1.317 . S
N38 C34 1.328 . S
N38 C36 1.350 . S
H39 C34 0.930 . S
H40 C35 0.930 . S
C41 O42 1.224 . S
C41 O60 1.247 . S
O42 C41 1.224 . S
N43 Co33 2.128 . S
N43 C44 1.355 . S
N43 C46 1.311 . S
C44 N43 1.355 . S
C44 C45 1.363 . S
C44 H56 0.929 . S
C45 C44 1.363 . S
C45 N47 1.375 . S
C45 H63 0.931 . S
C46 N43 1.311 . S
C46 N47 1.347 . S
C46 H57 0.929 . S
N47 C45 1.375 . S
N47 C46 1.347 . S
C48 C51 1.365 . S
C48 N53 1.328 . S
C48 H54 0.929 . S
C49 C50 1.362 . S
C49 C52 1.378 . S
C49 H64 0.929 . S
C50 C49 1.362 . S
C50 C51 1.366 . S
C51 C48 1.365 . S
C51 C50 1.366 . S
C51 H65 0.930 . S
C52 C49 1.378 . S
C52 N53 1.315 . S
C52 H55 0.930 . S
N53 Co33 2.194 . S
N53 C48 1.328 . S
N53 C52 1.315 . S
H54 C48 0.929 . S
H55 C52 0.930 . S
H56 C44 0.929 . S
H57 C46 0.929 . S
O58 Co33 2.351 . S
O58 C61 1.244 . S
O59 Co33 2.155 . S
O59 C61 1.240 . S
O60 Co33 2.096 . S
O60 C41 1.247 . S
C61 O58 1.244 . S
C61 O59 1.240 . S
H62 C36 0.931 . S
H63 C45 0.931 . S
H64 C49 0.929 . S
H65 C51 0.930 . S
Co66 N70 2.148 1_554 S
Co66 N76 2.128 . S
Co66 N86 2.194 . S
Co66 O91 2.351 . S
Co66 O92 2.155 . S
Co66 O93 2.110 . S
C67 N70 1.301 . S
C67 N71 1.328 . S
C67 H72 0.930 . S
C68 C69 1.333 . S
C68 N70 1.317 . S
C68 H73 0.930 1_545 S
C69 C68 1.333 . S
C69 N71 1.350 . S
C69 H95 0.931 . S
N70 Co66 2.148 1_556 S
N70 C67 1.301 . S
N70 C68 1.317 . S
N71 C67 1.328 . S
N71 C69 1.350 . S
H72 C67 0.930 . S
H73 C68 0.930 1_565 S
C74 O75 1.224 . S
C74 O93 1.234 1_565 S
O75 C74 1.224 . S
N76 Co66 2.128 . S
N76 C77 1.355 . S
N76 C79 1.311 . S
C77 N76 1.355 . S
C77 C78 1.363 . S
C77 H89 0.929 . S
C78 C77 1.363 . S
C78 N80 1.375 . S
C78 H96 0.931 . S
C79 N76 1.311 . S
C79 N80 1.347 . S
C79 H90 0.929 . S
N80 C78 1.375 . S
N80 C79 1.347 . S
C81 C84 1.365 . S
C81 N86 1.328 . S
C81 H87 0.923 1_554 S
C82 C83 1.362 . S
C82 C85 1.378 . S
C82 H97 0.929 1_545 S
C83 C82 1.362 . S
C83 C84 1.366 . S
C84 C81 1.365 . S
C84 C83 1.366 . S
C84 H98 0.930 . S
C85 C82 1.378 . S
C85 N86 1.315 . S
C85 H88 0.930 1_545 S
N86 Co66 2.194 . S
N86 C81 1.328 . S
N86 C85 1.315 . S
H87 C81 0.923 1_556 S
H88 C85 0.930 1_565 S
H89 C77 0.929 . S
H90 C79 0.929 . S
O91 Co66 2.351 . S
O91 C94 1.244 . S
O92 Co66 2.155 . S
O92 C94 1.240 . S
O93 Co66 2.110 . S
O93 C74 1.234 1_545 S
C94 O91 1.244 . S
C94 O92 1.240 . S
H95 C69 0.931 . S
H96 C78 0.931 . S
H97 C82 0.929 1_565 S
H98 C84 0.930 . S
Co99 N103 2.148 1_455 S
Co99 N109 2.128 . S
Co99 N119 2.194 . S
Co99 O124 2.351 . S
Co99 O125 2.155 . S
Co99 O126 2.096 1_554 S
C100 N103 1.301 . S
C100 N104 1.328 . S
C100 H105 0.930 . S
C101 C102 1.333 . S
C101 N103 1.317 . S
C101 H106 0.930 1_554 S
C102 C101 1.333 . S
C102 N104 1.350 . S
C102 H128 0.931 . S
N103 Co99 2.148 1_655 S
N103 C100 1.301 . S
N103 C101 1.317 . S
N104 C100 1.328 . S
N104 C102 1.350 . S
H105 C100 0.930 . S
H106 C101 0.930 1_556 S
C107 O108 1.224 . S
C107 O126 1.247 . S
O108 C107 1.224 . S
N109 Co99 2.128 . S
N109 C110 1.355 . S
N109 C112 1.311 . S
C110 N109 1.355 . S
C110 C111 1.363 . S
C110 H122 0.929 . S
C111 C110 1.363 . S
C111 N113 1.375 . S
C111 H129 0.931 . S
C112 N109 1.311 . S
C112 N113 1.347 . S
C112 H123 0.929 1_554 S
N113 C111 1.375 . S
N113 C112 1.347 . S
C114 C117 1.365 . S
C114 N119 1.328 . S
C114 H120 0.929 . S
C115 C116 1.362 . S
C115 C118 1.378 . S
C115 H130 0.929 1_554 S
C116 C115 1.362 . S
C116 C117 1.366 . S
C117 C114 1.365 . S
C117 C116 1.366 . S
C117 H131 0.930 . S
C118 C115 1.378 . S
C118 N119 1.315 . S
C118 H121 0.930 1_554 S
N119 Co99 2.194 . S
N119 C114 1.328 . S
N119 C118 1.315 . S
H120 C114 0.929 . S
H121 C118 0.930 1_556 S
H122 C110 0.929 . S
H123 C112 0.929 1_556 S
O124 Co99 2.351 . S
O124 C127 1.244 . S
O125 Co99 2.155 . S
O125 C127 1.240 . S
O126 Co99 2.096 1_556 S
O126 C107 1.247 . S
C127 O124 1.244 . S
C127 O125 1.240 . S
H128 C102 0.931 . S
H129 C111 0.931 . S
H130 C115 0.929 1_556 S
H131 C117 0.930 . S
Co132 N136 2.148 . S
Co132 N142 2.128 . S
Co132 N152 2.194 . S
Co132 O157 2.351 . S
Co132 O158 2.155 . S
Co132 O159 2.096 . S
C133 N136 1.301 . S
C133 N137 1.328 . S
C133 H138 0.930 . S
C134 C135 1.333 . S
C134 N136 1.317 . S
C134 H139 0.930 . S
C135 C134 1.333 . S
C135 N137 1.350 . S
C135 H161 0.931 . S
N136 Co132 2.148 . S
N136 C133 1.301 . S
N136 C134 1.317 . S
N137 C133 1.328 . S
N137 C135 1.350 . S
H138 C133 0.930 . S
H139 C134 0.930 . S
C140 O141 1.224 . S
C140 O159 1.247 . S
O141 C140 1.224 . S
N142 Co132 2.128 . S
N142 C143 1.355 . S
N142 C145 1.311 . S
C143 N142 1.355 . S
C143 C144 1.363 . S
C143 H155 0.929 . S
C144 C143 1.363 . S
C144 N146 1.375 . S
C144 H162 0.931 . S
C145 N142 1.311 . S
C145 N146 1.347 . S
C145 H156 0.929 . S
N146 C144 1.375 . S
N146 C145 1.347 . S
C147 C150 1.365 . S
C147 N152 1.328 . S
C147 H153 0.929 . S
C148 C149 1.362 . S
C148 C151 1.378 . S
C148 H163 0.929 . S
C149 C148 1.362 . S
C149 C150 1.366 . S
C150 C147 1.365 . S
C150 C149 1.366 . S
C150 H164 0.930 . S
C151 C148 1.378 . S
C151 N152 1.315 . S
C151 H154 0.930 . S
N152 Co132 2.194 . S
N152 C147 1.328 . S
N152 C151 1.315 . S
H153 C147 0.929 . S
H154 C151 0.930 . S
H155 C143 0.929 . S
H156 C145 0.929 . S
O157 Co132 2.351 . S
O157 C160 1.244 . S
O158 Co132 2.155 . S
O158 C160 1.240 . S
O159 Co132 2.096 . S
O159 C140 1.247 . S
C160 O157 1.244 . S
C160 O158 1.240 . S
H161 C135 0.931 . S
H162 C144 0.931 . S
H163 C148 0.929 . S
H164 C150 0.930 . S
Co165 N169 2.148 . S
Co165 N175 2.128 . S
Co165 N185 2.194 . S
Co165 O190 2.351 . S
Co165 O191 2.155 . S
Co165 O192 2.096 . S
C166 N169 1.301 . S
C166 N170 1.328 . S
C166 H171 0.930 . S
C167 C168 1.333 . S
C167 N169 1.317 . S
C167 H172 0.930 . S
C168 C167 1.333 . S
C168 N170 1.350 . S
C168 H194 0.931 . S
N169 Co165 2.148 . S
N169 C166 1.301 . S
N169 C167 1.317 . S
N170 C166 1.328 . S
N170 C168 1.350 . S
H171 C166 0.930 . S
H172 C167 0.930 . S
C173 O174 1.224 . S
C173 O192 1.247 . S
O174 C173 1.224 . S
N175 Co165 2.128 . S
N175 C176 1.355 . S
N175 C178 1.311 . S
C176 N175 1.355 . S
C176 C177 1.363 . S
C176 H188 0.929 . S
C177 C176 1.363 . S
C177 N179 1.375 . S
C177 H195 0.931 . S
C178 N175 1.311 . S
C178 N179 1.347 . S
C178 H189 0.929 . S
N179 C177 1.375 . S
N179 C178 1.347 . S
C180 C183 1.365 . S
C180 N185 1.328 . S
C180 H186 0.929 . S
C181 C182 1.362 . S
C181 C184 1.378 . S
C181 H196 0.929 . S
C182 C181 1.362 . S
C182 C183 1.366 . S
C183 C180 1.365 . S
C183 C182 1.366 . S
C183 H197 0.930 . S
C184 C181 1.378 . S
C184 N185 1.315 . S
C184 H187 0.930 . S
N185 Co165 2.194 . S
N185 C180 1.328 . S
N185 C184 1.315 . S
H186 C180 0.929 . S
H187 C184 0.930 . S
H188 C176 0.929 . S
H189 C178 0.929 . S
O190 Co165 2.351 . S
O190 C193 1.244 . S
O191 Co165 2.155 . S
O191 C193 1.240 . S
O192 Co165 2.096 . S
O192 C173 1.247 . S
C193 O190 1.244 . S
C193 O191 1.240 . S
H194 C168 0.931 . S
H195 C177 0.931 . S
H196 C181 0.929 . S
H197 C183 0.930 . S
H198 C206 0.929 . S
H199 C208 0.930 . S
H200 C210 0.930 . S
H201 C213 0.929 . S
H202 C216 0.930 . S
H203 C218 0.960 . S
H204 C218 0.960 . S
H205 C218 0.960 . S
C206 H198 0.929 . S
C206 C207 1.377 1_655 S
C206 C208 1.384 . S
C207 C206 1.377 1_455 S
C207 C213 1.390 . S
C208 H199 0.930 . S
C208 C206 1.384 . S
C208 C209 1.372 1_655 S
C209 C208 1.372 1_455 S
C209 C210 1.400 . S
C209 C214 1.490 . S
C210 H200 0.930 . S
C210 C209 1.400 . S
C210 C213 1.386 . S
H211 C227 0.930 . S
H212 C228 0.931 . S
C213 H201 0.929 . S
C213 C207 1.390 . S
C213 C210 1.386 . S
C214 C209 1.490 . S
C214 C216 1.395 . S
C214 C217 1.403 1_455 S
H215 C221 0.930 . S
C216 H202 0.930 . S
C216 C214 1.395 . S
C216 C219 1.403 . S
C217 C214 1.403 1_655 S
C217 C218 1.524 . S
C217 C221 1.400 . S
C218 H203 0.960 . S
C218 H204 0.960 . S
C218 H205 0.960 . S
C218 C217 1.524 . S
C219 C216 1.403 . S
C219 C220 1.392 . S
C219 C223 1.495 . S
C220 C219 1.392 . S
C220 C221 1.385 1_455 S
C220 C222 1.478 . S
C221 H215 0.930 . S
C221 C217 1.400 . S
C221 C220 1.385 1_655 S
C222 C220 1.478 . S
C222 C224 1.381 1_455 S
C222 C228 1.383 . S
C223 C219 1.495 . S
C223 H229 0.959 . S
C223 H230 0.961 . S
C223 H231 0.960 . S
C224 C222 1.381 1_655 S
C224 C225 1.394 . S
C224 H232 0.930 . S
C225 C224 1.394 . S
C225 C226 1.383 1_655 S
C225 H233 0.929 . S
C226 C225 1.383 1_455 S
C226 C227 1.377 . S
C227 H211 0.930 . S
C227 C226 1.377 . S
C227 C228 1.379 . S
C228 H212 0.931 . S
C228 C222 1.383 . S
C228 C227 1.379 . S
H229 C223 0.959 . S
H230 C223 0.961 . S
H231 C223 0.960 . S
H232 C224 0.930 . S
H233 C225 0.929 . S
H234 C242 0.929 . S
H235 C244 0.930 . S
H236 C246 0.930 . S
H237 C249 0.929 . S
H238 C252 0.930 . S
H239 C254 0.960 . S
H240 C254 0.960 . S
H241 C254 0.960 . S
C242 H234 0.929 . S
C242 C243 1.377 . S
C242 C244 1.384 . S
C243 C242 1.377 . S
C243 C249 1.390 . S
C244 H235 0.930 . S
C244 C242 1.384 . S
C244 C245 1.372 . S
C245 C244 1.372 . S
C245 C246 1.400 . S
C245 C250 1.490 . S
C246 H236 0.930 . S
C246 C245 1.400 . S
C246 C249 1.386 . S
H247 C263 0.930 1_565 S
H248 C264 0.931 . S
C249 H237 0.929 . S
C249 C243 1.390 . S
C249 C246 1.386 . S
C250 C245 1.490 . S
C250 C252 1.395 . S
C250 C253 1.403 . S
H251 C257 0.930 . S
C252 H238 0.930 . S
C252 C250 1.395 . S
C252 C255 1.403 . S
C253 C250 1.403 . S
C253 C254 1.524 . S
C253 C257 1.400 . S
C254 H239 0.960 . S
C254 H240 0.960 . S
C254 H241 0.960 . S
C254 C253 1.524 . S
C255 C252 1.403 . S
C255 C256 1.392 . S
C255 C259 1.495 . S
C256 C255 1.392 . S
C256 C257 1.385 . S
C256 C258 1.478 . S
C257 H251 0.930 . S
C257 C253 1.400 . S
C257 C256 1.385 . S
C258 C256 1.478 . S
C258 C260 1.381 . S
C258 C264 1.383 . S
C259 C255 1.495 . S
C259 H265 0.959 . S
C259 H266 0.961 . S
C259 H267 0.960 . S
C260 C258 1.381 . S
C260 C261 1.394 . S
C260 H268 0.930 . S
C261 C260 1.394 . S
C261 C262 1.383 . S
C261 H269 0.929 . S
C262 C261 1.383 . S
C262 C263 1.377 . S
C263 H247 0.930 1_545 S
C263 C262 1.377 . S
C263 C264 1.379 . S
C264 H248 0.931 . S
C264 C258 1.383 . S
C264 C263 1.379 . S
H265 C259 0.959 . S
H266 C259 0.961 . S
H267 C259 0.960 . S
H268 C260 0.930 . S
H269 C261 0.929 . S
H270 C278 0.929 . S
H271 C280 0.930 . S
H272 C282 0.930 . S
H273 C285 0.929 . S
H274 C288 0.930 . S
H275 C290 0.960 . S
H276 C290 0.960 . S
H277 C290 0.960 . S
C278 H270 0.929 . S
C278 C279 1.377 . S
C278 C280 1.384 . S
C279 C278 1.377 . S
C279 C285 1.390 . S
C280 H271 0.930 . S
C280 C278 1.384 . S
C280 C281 1.372 . S
C281 C280 1.372 . S
C281 C282 1.400 . S
C281 C286 1.490 . S
C282 H272 0.930 . S
C282 C281 1.400 . S
C282 C285 1.386 . S
H283 C299 0.930 . S
H284 C300 0.931 . S
C285 H273 0.929 . S
C285 C279 1.390 . S
C285 C282 1.386 . S
C286 C281 1.490 . S
C286 C288 1.395 . S
C286 C289 1.403 . S
H287 C293 0.930 . S
C288 H274 0.930 . S
C288 C286 1.395 . S
C288 C291 1.403 . S
C289 C286 1.403 . S
C289 C290 1.524 . S
C289 C293 1.400 . S
C290 H275 0.960 . S
C290 H276 0.960 . S
C290 H277 0.960 . S
C290 C289 1.524 . S
C291 C288 1.403 . S
C291 C292 1.392 . S
C291 C295 1.495 . S
C292 C291 1.392 . S
C292 C293 1.385 . S
C292 C294 1.478 . S
C293 H287 0.930 . S
C293 C289 1.400 . S
C293 C292 1.385 . S
C294 C292 1.478 . S
C294 C296 1.381 . S
C294 C300 1.383 . S
C295 C291 1.495 . S
C295 H301 0.959 . S
C295 H302 0.961 . S
C295 H303 0.960 . S
C296 C294 1.381 . S
C296 C297 1.394 . S
C296 H304 0.930 . S
C297 C296 1.394 . S
C297 C298 1.383 . S
C297 H305 0.929 . S
C298 C297 1.383 . S
C298 C299 1.377 . S
C299 H283 0.930 . S
C299 C298 1.377 . S
C299 C300 1.379 . S
C300 H284 0.931 . S
C300 C294 1.383 . S
C300 C299 1.379 . S
H301 C295 0.959 . S
H302 C295 0.961 . S
H303 C295 0.960 . S
H304 C296 0.930 . S
H305 C297 0.929 . S
H306 C314 0.929 . S
H307 C316 0.930 . S
H308 C318 0.930 . S
H309 C321 0.929 . S
H310 C324 0.930 . S
H311 C326 0.960 . S
H312 C326 0.960 1_565 S
H313 C326 0.960 . S
C314 H306 0.929 . S
C314 C315 1.377 1_565 S
C314 C316 1.384 . S
C315 C314 1.377 1_545 S
C315 C321 1.390 . S
C316 H307 0.930 . S
C316 C314 1.384 . S
C316 C317 1.372 1_565 S
C317 C316 1.372 1_545 S
C317 C318 1.400 . S
C317 C322 1.490 . S
C318 H308 0.930 . S
C318 C317 1.400 . S
C318 C321 1.386 . S
H319 C335 0.930 . S
H320 C336 0.931 . S
C321 H309 0.929 . S
C321 C315 1.390 . S
C321 C318 1.386 . S
C322 C317 1.490 . S
C322 C324 1.395 . S
C322 C325 1.403 . S
H323 C329 0.930 . S
C324 H310 0.930 . S
C324 C322 1.395 . S
C324 C327 1.403 . S
C325 C322 1.403 . S
C325 C326 1.524 . S
C325 C329 1.400 . S
C326 H311 0.960 . S
C326 H312 0.960 1_545 S
C326 H313 0.960 . S
C326 C325 1.524 . S
C327 C324 1.403 . S
C327 C328 1.392 . S
C327 C331 1.495 . S
C328 C327 1.392 . S
C328 C329 1.385 . S
C328 C330 1.478 . S
C329 H323 0.930 . S
C329 C325 1.400 . S
C329 C328 1.385 . S
C330 C328 1.478 . S
C330 C332 1.381 1_545 S
C330 C336 1.383 . S
C331 C327 1.495 . S
C331 H337 0.959 . S
C331 H338 0.961 . S
C331 H339 0.960 1_545 S
C332 C330 1.381 1_565 S
C332 C333 1.394 . S
C332 H340 0.930 . S
C333 C332 1.394 . S
C333 C334 1.383 1_565 S
C333 H341 0.929 . S
C334 C333 1.383 1_545 S
C334 C335 1.377 . S
C335 H319 0.930 . S
C335 C334 1.377 . S
C335 C336 1.379 . S
C336 H320 0.931 . S
C336 C330 1.383 . S
C336 C335 1.379 . S
H337 C331 0.959 . S
H338 C331 0.961 . S
H339 C331 0.960 1_565 S
H340 C332 0.930 . S
H341 C333 0.929 . S
H342 C350 0.929 . S
H343 C352 0.930 . S
H344 C354 0.930 . S
H345 C357 0.929 . S
H346 C360 0.930 . S
H347 C362 0.960 . S
H348 C362 0.960 . S
H349 C362 0.960 . S
C350 H342 0.929 . S
C350 C351 1.377 1_556 S
C350 C352 1.384 . S
C351 C350 1.377 1_554 S
C351 C357 1.390 . S
C352 H343 0.930 . S
C352 C350 1.384 . S
C352 C353 1.372 . S
C353 C352 1.372 . S
C353 C354 1.400 . S
C353 C358 1.490 . S
C354 H344 0.930 . S
C354 C353 1.400 . S
C354 C357 1.386 1_556 S
H355 C371 0.930 . S
H356 C372 0.931 . S
C357 H345 0.929 . S
C357 C351 1.390 . S
C357 C354 1.386 1_554 S
C358 C353 1.490 . S
C358 C360 1.395 . S
C358 C361 1.403 . S
H359 C365 0.930 . S
C360 H346 0.930 . S
C360 C358 1.395 . S
C360 C363 1.403 . S
C361 C358 1.403 . S
C361 C362 1.524 . S
C361 C365 1.400 . S
C362 H347 0.960 . S
C362 H348 0.960 . S
C362 H349 0.960 . S
C362 C361 1.524 . S
C363 C360 1.403 . S
C363 C364 1.392 . S
C363 C367 1.495 . S
C364 C363 1.392 . S
C364 C365 1.385 . S
C364 C366 1.478 . S
C365 H359 0.930 . S
C365 C361 1.400 . S
C365 C364 1.385 . S
C366 C364 1.478 . S
C366 C368 1.381 . S
C366 C372 1.383 1_565 S
C367 C363 1.495 . S
C367 H373 0.959 . S
C367 H374 0.961 . S
C367 H375 0.960 . S
C368 C366 1.381 . S
C368 C369 1.394 1_565 S
C368 H376 0.930 . S
C369 C368 1.394 1_545 S
C369 C370 1.383 . S
C369 H377 0.929 . S
C370 C369 1.383 . S
C370 C371 1.377 . S
C371 H355 0.930 . S
C371 C370 1.377 . S
C371 C372 1.379 . S
C372 H356 0.931 . S
C372 C366 1.383 1_545 S
C372 C371 1.379 . S
H373 C367 0.959 . S
H374 C367 0.961 . S
H375 C367 0.960 . S
H376 C368 0.930 . S
H377 C369 0.929 . S
H378 C386 0.929 . S
H379 C388 0.930 . S
H380 C390 0.930 . S
H381 C393 0.929 . S
H382 C396 0.930 . S
H383 C398 0.960 . S
H384 C398 0.960 . S
H385 C398 0.960 . S
C386 H378 0.929 . S
C386 C387 1.377 . S
C386 C388 1.384 . S
C387 C386 1.377 . S
C387 C393 1.390 . S
C388 H379 0.930 . S
C388 C386 1.384 . S
C388 C389 1.372 . S
C389 C388 1.372 . S
C389 C390 1.400 . S
C389 C394 1.490 . S
C390 H380 0.930 . S
C390 C389 1.400 . S
C390 C393 1.386 . S
H391 C407 0.930 . S
H392 C408 0.931 . S
C393 H381 0.929 . S
C393 C387 1.390 . S
C393 C390 1.386 . S
C394 C389 1.490 . S
C394 C396 1.395 . S
C394 C397 1.403 . S
H395 C401 0.930 . S
C396 H382 0.930 . S
C396 C394 1.395 . S
C396 C399 1.403 . S
C397 C394 1.403 . S
C397 C398 1.524 . S
C397 C401 1.400 . S
C398 H383 0.960 . S
C398 H384 0.960 . S
C398 H385 0.960 . S
C398 C397 1.524 . S
C399 C396 1.403 . S
C399 C400 1.392 . S
C399 C403 1.495 . S
C400 C399 1.392 . S
C400 C401 1.385 . S
C400 C402 1.478 . S
C401 H395 0.930 . S
C401 C397 1.400 . S
C401 C400 1.385 . S
C402 C400 1.478 . S
C402 C404 1.381 . S
C402 C408 1.383 . S
C403 C399 1.495 . S
C403 H409 0.959 . S
C403 H410 0.961 . S
C403 H411 0.960 . S
C404 C402 1.381 . S
C404 C405 1.394 . S
C404 H412 0.930 . S
C405 C404 1.394 . S
C405 C406 1.383 . S
C405 H413 0.929 . S
C406 C405 1.383 . S
C406 C407 1.377 . S
C407 H391 0.930 . S
C407 C406 1.377 . S
C407 C408 1.379 . S
C408 H392 0.931 . S
C408 C402 1.383 . S
C408 C407 1.379 . S
H409 C403 0.959 . S
H410 C403 0.961 . S
H411 C403 0.960 . S
H412 C404 0.930 . S
H413 C405 0.929 . S
H414 C422 0.929 . S
H415 C424 0.930 . S
H416 C426 0.930 . S
H417 C429 0.929 . S
H418 C432 0.930 . S
H419 C434 0.960 . S
H420 C434 0.960 . S
H421 C434 0.960 . S
C422 H414 0.929 . S
C422 C423 1.377 . S
C422 C424 1.384 . S
C423 C422 1.377 . S
C423 C429 1.390 . S
C424 H415 0.930 . S
C424 C422 1.384 . S
C424 C425 1.372 . S
C425 C424 1.372 . S
C425 C426 1.400 . S
C425 C430 1.490 . S
C426 H416 0.930 . S
C426 C425 1.400 . S
C426 C429 1.386 . S
H427 C443 0.930 . S
H428 C444 0.931 . S
C429 H417 0.929 . S
C429 C423 1.390 . S
C429 C426 1.386 . S
C430 C425 1.490 . S
C430 C432 1.395 . S
C430 C433 1.403 . S
H431 C437 0.930 . S
C432 H418 0.930 . S
C432 C430 1.395 . S
C432 C435 1.403 . S
C433 C430 1.403 . S
C433 C434 1.524 . S
C433 C437 1.400 . S
C434 H419 0.960 . S
C434 H420 0.960 . S
C434 H421 0.960 . S
C434 C433 1.524 . S
C435 C432 1.403 . S
C435 C436 1.392 . S
C435 C439 1.495 . S
C436 C435 1.392 . S
C436 C437 1.385 . S
C436 C438 1.478 . S
C437 H431 0.930 . S
C437 C433 1.400 . S
C437 C436 1.385 . S
C438 C436 1.478 . S
C438 C440 1.381 . S
C438 C444 1.383 . S
C439 C435 1.495 . S
C439 H445 0.959 . S
C439 H446 0.961 . S
C439 H447 0.960 . S
C440 C438 1.381 . S
C440 C441 1.394 . S
C440 H448 0.930 . S
C441 C440 1.394 . S
C441 C442 1.383 . S
C441 H449 0.929 1_455 S
C442 C441 1.383 . S
C442 C443 1.377 . S
C443 H427 0.930 . S
C443 C442 1.377 . S
C443 C444 1.379 . S
C444 H428 0.931 . S
C444 C438 1.383 . S
C444 C443 1.379 . S
H445 C439 0.959 . S
H446 C439 0.961 . S
H447 C439 0.960 . S
H448 C440 0.930 . S
H449 C441 0.929 1_655 S
H450 C458 0.929 . S
H451 C460 0.930 . S
H452 C462 0.930 . S
H453 C465 0.929 . S
H454 C468 0.930 . S
H455 C470 0.960 . S
H456 C470 0.960 . S
H457 C470 0.960 . S
C458 H450 0.929 . S
C458 C459 1.377 . S
C458 C460 1.384 1_554 S
C459 C458 1.377 . S
C459 C465 1.390 . S
C460 H451 0.930 . S
C460 C458 1.384 1_556 S
C460 C461 1.372 . S
C461 C460 1.372 . S
C461 C462 1.400 . S
C461 C466 1.490 . S
C462 H452 0.930 . S
C462 C461 1.400 . S
C462 C465 1.386 1_556 S
H463 C479 0.930 . S
H464 C480 0.931 . S
C465 H453 0.929 . S
C465 C459 1.390 . S
C465 C462 1.386 1_554 S
C466 C461 1.490 . S
C466 C468 1.395 . S
C466 C469 1.403 . S
H467 C473 0.930 . S
C468 H454 0.930 . S
C468 C466 1.395 . S
C468 C471 1.403 . S
C469 C466 1.403 . S
C469 C470 1.524 . S
C469 C473 1.400 . S
C470 H455 0.960 . S
C470 H456 0.960 . S
C470 H457 0.960 . S
C470 C469 1.524 . S
C471 C468 1.403 . S
C471 C472 1.392 . S
C471 C475 1.495 . S
C472 C471 1.392 . S
C472 C473 1.385 . S
C472 C474 1.478 . S
C473 H467 0.930 . S
C473 C469 1.400 . S
C473 C472 1.385 . S
C474 C472 1.478 . S
C474 C476 1.381 . S
C474 C480 1.383 . S
C475 C471 1.495 . S
C475 H481 0.959 . S
C475 H482 0.961 . S
C475 H483 0.960 . S
C476 C474 1.381 . S
C476 C477 1.394 1_655 S
C476 H484 0.930 . S
C477 C476 1.394 1_455 S
C477 C478 1.383 . S
C477 H485 0.929 . S
C478 C477 1.383 . S
C478 C479 1.377 . S
C479 H463 0.930 . S
C479 C478 1.377 . S
C479 C480 1.379 1_455 S
C480 H464 0.931 . S
C480 C474 1.383 . S
C480 C479 1.379 1_655 S
H481 C475 0.959 . S
H482 C475 0.961 . S
H483 C475 0.960 . S
H484 C476 0.930 . S
H485 C477 0.929 . S
H486 C494 0.929 . S
H487 C496 0.930 . S
H488 C498 0.930 . S
H489 C501 0.929 . S
H490 C504 0.930 . S
H491 C506 0.960 . S
H492 C506 0.960 . S
H493 C506 0.960 1_556 S
C494 H486 0.929 . S
C494 C495 1.377 . S
C494 C496 1.384 . S
C495 C494 1.377 . S
C495 C501 1.390 1_554 S
C496 H487 0.930 . S
C496 C494 1.384 . S
C496 C497 1.372 . S
C497 C496 1.372 . S
C497 C498 1.400 1_554 S
C497 C502 1.490 . S
C498 H488 0.930 . S
C498 C497 1.400 1_556 S
C498 C501 1.386 . S
H499 C515 0.930 . S
H500 C516 0.931 . S
C501 H489 0.929 . S
C501 C495 1.390 1_556 S
C501 C498 1.386 . S
C502 C497 1.490 . S
C502 C504 1.395 . S
C502 C505 1.403 . S
H503 C509 0.930 . S
C504 H490 0.930 . S
C504 C502 1.395 . S
C504 C507 1.403 . S
C505 C502 1.403 . S
C505 C506 1.524 . S
C505 C509 1.400 . S
C506 H491 0.960 . S
C506 H492 0.960 . S
C506 H493 0.960 1_554 S
C506 C505 1.524 . S
C507 C504 1.403 . S
C507 C508 1.392 . S
C507 C511 1.495 . S
C508 C507 1.392 . S
C508 C509 1.385 . S
C508 C510 1.478 . S
C509 H503 0.930 . S
C509 C505 1.400 . S
C509 C508 1.385 . S
C510 C508 1.478 . S
C510 C512 1.381 . S
C510 C516 1.383 1_554 S
C511 C507 1.495 . S
C511 H517 0.959 . S
C511 H518 0.961 1_554 S
C511 H519 0.960 . S
C512 C510 1.381 . S
C512 C513 1.394 . S
C512 H520 0.930 . S
C513 C512 1.394 . S
C513 C514 1.383 . S
C513 H521 0.929 . S
C514 C513 1.383 . S
C514 C515 1.377 1_554 S
C515 H499 0.930 . S
C515 C514 1.377 1_556 S
C515 C516 1.379 . S
C516 H500 0.931 . S
C516 C510 1.383 1_556 S
C516 C515 1.379 . S
H517 C511 0.959 . S
H518 C511 0.961 1_556 S
H519 C511 0.960 . S
H520 C512 0.930 . S
H521 C513 0.929 . S
H522 C530 0.929 1_556 S
H523 C532 0.930 . S
H524 C534 0.930 . S
H525 C537 0.929 . S
H526 C540 0.930 . S
H527 C542 0.960 . S
H528 C542 0.960 . S
H529 C542 0.960 . S
C530 H522 0.929 1_554 S
C530 C531 1.377 . S
C530 C532 1.384 . S
C531 C530 1.377 . S
C531 C537 1.390 . S
C532 H523 0.930 . S
C532 C530 1.384 . S
C532 C533 1.372 . S
C533 C532 1.372 . S
C533 C534 1.400 . S
C533 C538 1.490 . S
C534 H524 0.930 . S
C534 C533 1.400 . S
C534 C537 1.386 . S
H535 C551 0.930 . S
H536 C552 0.931 . S
C537 H525 0.929 . S
C537 C531 1.390 . S
C537 C534 1.386 . S
C538 C533 1.490 . S
C538 C540 1.395 . S
C538 C541 1.403 . S
H539 C545 0.930 . S
C540 H526 0.930 . S
C540 C538 1.395 . S
C540 C543 1.403 . S
C541 C538 1.403 . S
C541 C542 1.524 . S
C541 C545 1.400 . S
C542 H527 0.960 . S
C542 H528 0.960 . S
C542 H529 0.960 . S
C542 C541 1.524 . S
C543 C540 1.403 . S
C543 C544 1.392 . S
C543 C547 1.495 . S
C544 C543 1.392 . S
C544 C545 1.385 . S
C544 C546 1.478 . S
C545 H539 0.930 . S
C545 C541 1.400 . S
C545 C544 1.385 . S
C546 C544 1.478 . S
C546 C548 1.381 . S
C546 C552 1.383 . S
C547 C543 1.495 . S
C547 H553 0.959 . S
C547 H554 0.961 . S
C547 H555 0.960 . S
C548 C546 1.381 . S
C548 C549 1.394 . S
C548 H556 0.930 . S
C549 C548 1.394 . S
C549 C550 1.383 . S
C549 H557 0.929 . S
C550 C549 1.383 . S
C550 C551 1.377 . S
C551 H535 0.930 . S
C551 C550 1.377 . S
C551 C552 1.379 . S
C552 H536 0.931 . S
C552 C546 1.383 . S
C552 C551 1.379 . S
H553 C547 0.959 . S
H554 C547 0.961 . S
H555 C547 0.960 . S
H556 C548 0.930 . S
H557 C549 0.929 . S
H558 C566 0.929 . S
H559 C568 0.930 . S
H560 C570 0.930 . S
H561 C573 0.929 . S
H562 C576 0.930 . S
H563 C578 0.960 . S
H564 C578 0.960 . S
H565 C578 0.960 . S
C566 H558 0.929 . S
C566 C567 1.377 . S
C566 C568 1.384 . S
C567 C566 1.377 . S
C567 C573 1.390 . S
C568 H559 0.930 . S
C568 C566 1.384 . S
C568 C569 1.372 . S
C569 C568 1.372 . S
C569 C570 1.400 . S
C569 C574 1.490 . S
C570 H560 0.930 . S
C570 C569 1.400 . S
C570 C573 1.386 . S
H571 C587 0.930 . S
H572 C588 0.931 . S
C573 H561 0.929 . S
C573 C567 1.390 . S
C573 C570 1.386 . S
C574 C569 1.490 . S
C574 C576 1.395 . S
C574 C577 1.403 . S
H575 C581 0.930 . S
C576 H562 0.930 . S
C576 C574 1.395 . S
C576 C579 1.403 . S
C577 C574 1.403 . S
C577 C578 1.524 . S
C577 C581 1.400 . S
C578 H563 0.960 . S
C578 H564 0.960 . S
C578 H565 0.960 . S
C578 C577 1.524 . S
C579 C576 1.403 . S
C579 C580 1.392 . S
C579 C583 1.495 . S
C580 C579 1.392 . S
C580 C581 1.385 . S
C580 C582 1.478 . S
C581 H575 0.930 . S
C581 C577 1.400 . S
C581 C580 1.385 . S
C582 C580 1.478 . S
C582 C584 1.381 . S
C582 C588 1.383 . S
C583 C579 1.495 . S
C583 H589 0.959 . S
C583 H590 0.961 . S
C583 H591 0.960 . S
C584 C582 1.381 . S
C584 C585 1.394 . S
C584 H592 0.930 . S
C585 C584 1.394 . S
C585 C586 1.383 . S
C585 H593 0.929 . S
C586 C585 1.383 . S
C586 C587 1.377 . S
C587 H571 0.930 . S
C587 C586 1.377 . S
C587 C588 1.379 . S
C588 H572 0.931 . S
C588 C582 1.383 . S
C588 C587 1.379 . S
H589 C583 0.959 . S
H590 C583 0.961 . S
H591 C583 0.960 . S
H592 C584 0.930 . S
H593 C585 0.929 . S
H594 C602 0.929 . S
H595 C604 0.930 . S
H596 C606 0.930 . S
H597 C609 0.929 . S
H598 C612 0.930 . S
H599 C614 0.960 . S
H600 C614 0.960 . S
H601 C614 0.960 . S
C602 H594 0.929 . S
C602 C603 1.377 . S
C602 C604 1.384 1_455 S
C603 C602 1.377 . S
C603 C609 1.390 . S
C604 H595 0.930 . S
C604 C602 1.384 1_655 S
C604 C605 1.372 . S
C605 C604 1.372 . S
C605 C606 1.400 1_655 S
C605 C610 1.490 . S
C606 H596 0.930 . S
C606 C605 1.400 1_455 S
C606 C609 1.386 . S
H607 C623 0.930 . S
H608 C624 0.931 . S
C609 H597 0.929 . S
C609 C603 1.390 . S
C609 C606 1.386 . S
C610 C605 1.490 . S
C610 C612 1.395 . S
C610 C613 1.403 . S
H611 C617 0.930 . S
C612 H598 0.930 . S
C612 C610 1.395 . S
C612 C615 1.403 . S
C613 C610 1.403 . S
C613 C614 1.524 . S
C613 C617 1.400 . S
C614 H599 0.960 . S
C614 H600 0.960 . S
C614 H601 0.960 . S
C614 C613 1.524 . S
C615 C612 1.403 . S
C615 C616 1.392 . S
C615 C619 1.495 . S
C616 C615 1.392 . S
C616 C617 1.385 . S
C616 C618 1.478 . S
C617 H611 0.930 . S
C617 C613 1.400 . S
C617 C616 1.385 . S
C618 C616 1.478 . S
C618 C620 1.381 . S
C618 C624 1.383 1_565 S
C619 C615 1.495 . S
C619 H625 0.959 . S
C619 H626 0.961 . S
C619 H627 0.960 . S
C620 C618 1.381 . S
C620 C621 1.394 . S
C620 H628 0.930 . S
C621 C620 1.394 . S
C621 C622 1.383 1_565 S
C621 H629 0.929 . S
C622 C621 1.383 1_545 S
C622 C623 1.377 . S
C623 H607 0.930 . S
C623 C622 1.377 . S
C623 C624 1.379 . S
C624 H608 0.931 . S
C624 C618 1.383 1_545 S
C624 C623 1.379 . S
H625 C619 0.959 . S
H626 C619 0.961 . S
H627 C619 0.960 . S
H628 C620 0.930 . S
H629 C621 0.929 . S
H630 C638 0.929 . S
H631 C640 0.930 . S
H632 C642 0.930 . S
H633 C645 0.929 . S
H634 C648 0.930 . S
H635 C650 0.960 . S
H636 C650 0.960 . S
H637 C650 0.960 . S
C638 H630 0.929 . S
C638 C639 1.377 . S
C638 C640 1.384 . S
C639 C638 1.377 . S
C639 C645 1.390 . S
C640 H631 0.930 . S
C640 C638 1.384 . S
C640 C641 1.372 . S
C641 C640 1.372 . S
C641 C642 1.400 . S
C641 C646 1.490 . S
C642 H632 0.930 . S
C642 C641 1.400 . S
C642 C645 1.386 . S
H643 C659 0.940 . S
H644 C660 0.931 . S
C645 H633 0.929 . S
C645 C639 1.390 . S
C645 C642 1.386 . S
C646 C641 1.490 . S
C646 C648 1.395 . S
C646 C649 1.403 . S
H647 C653 0.930 . S
C648 H634 0.930 . S
C648 C646 1.395 . S
C648 C651 1.403 . S
C649 C646 1.403 . S
C649 C650 1.524 . S
C649 C653 1.400 . S
C650 H635 0.960 . S
C650 H636 0.960 . S
C650 H637 0.960 . S
C650 C649 1.524 . S
C651 C648 1.403 . S
C651 C652 1.392 . S
C651 C655 1.495 . S
C652 C651 1.392 . S
C652 C653 1.385 . S
C652 C654 1.478 . S
C653 H647 0.930 . S
C653 C649 1.400 . S
C653 C652 1.385 . S
C654 C652 1.478 . S
C654 C656 1.381 . S
C654 C660 1.383 . S
C655 C651 1.495 . S
C655 H661 0.959 1_545 S
C655 H662 0.961 1_545 S
C655 H663 0.960 . S
C656 C654 1.381 . S
C656 C657 1.394 . S
C656 H664 0.930 . S
C657 C656 1.394 . S
C657 C658 1.383 . S
C657 H665 0.929 . S
C658 C657 1.383 . S
C658 C659 1.377 . S
C659 H643 0.940 . S
C659 C658 1.377 . S
C659 C660 1.379 . S
C660 H644 0.931 . S
C660 C654 1.383 . S
C660 C659 1.379 . S
H661 C655 0.959 1_565 S
H662 C655 0.961 1_565 S
H663 C655 0.960 . S
H664 C656 0.930 . S
H665 C657 0.929 . S
H666 C674 0.929 . S
H667 C676 0.930 . S
H668 C678 0.930 . S
H669 C681 0.929 . S
H670 C684 0.930 . S
H671 C686 0.960 . S
H672 C686 0.960 . S
H673 C686 0.960 . S
C674 H666 0.929 . S
C674 C675 1.377 . S
C674 C676 1.384 . S
C675 C674 1.377 . S
C675 C681 1.390 . S
C676 H667 0.930 . S
C676 C674 1.384 . S
C676 C677 1.372 . S
C677 C676 1.372 . S
C677 C678 1.400 . S
C677 C682 1.490 . S
C678 H668 0.930 . S
C678 C677 1.400 . S
C678 C681 1.386 . S
H679 C695 0.900 1_556 S
H680 C696 0.917 1_556 S
C681 H669 0.929 . S
C681 C675 1.390 . S
C681 C678 1.386 . S
C682 C677 1.490 . S
C682 C684 1.395 . S
C682 C685 1.403 . S
H683 C689 0.930 . S
C684 H670 0.930 . S
C684 C682 1.395 . S
C684 C687 1.403 . S
C685 C682 1.403 . S
C685 C686 1.524 . S
C685 C689 1.400 . S
C686 H671 0.960 . S
C686 H672 0.960 . S
C686 H673 0.960 . S
C686 C685 1.524 . S
C687 C684 1.403 . S
C687 C688 1.392 . S
C687 C691 1.495 . S
C688 C687 1.392 . S
C688 C689 1.385 . S
C688 C690 1.478 . S
C689 H683 0.930 . S
C689 C685 1.400 . S
C689 C688 1.385 . S
C690 C688 1.478 . S
C690 C692 1.381 . S
C690 C696 1.383 . S
C691 C687 1.495 . S
C691 H697 0.959 . S
C691 H698 0.961 . S
C691 H699 0.960 . S
C692 C690 1.381 . S
C692 C693 1.394 . S
C692 H700 0.930 . S
C693 C692 1.394 . S
C693 C694 1.383 . S
C693 H701 0.929 . S
C694 C693 1.383 . S
C694 C695 1.389 . S
C695 H679 0.900 1_554 S
C695 C694 1.389 . S
C695 C696 1.397 . S
C696 H680 0.917 1_554 S
C696 C690 1.383 . S
C696 C695 1.397 . S
H697 C691 0.959 . S
H698 C691 0.961 . S
H699 C691 0.960 . S
H700 C692 0.930 . S
H701 C693 0.929 . S
H702 C710 0.929 . S
H703 C712 0.930 . S
H704 C714 0.930 . S
H705 C717 0.929 . S
H706 C720 0.930 . S
H707 C722 0.960 . S
H708 C722 0.960 . S
H709 C722 0.960 . S
C710 H702 0.929 . S
C710 C711 1.377 . S
C710 C712 1.384 . S
C711 C710 1.377 . S
C711 C717 1.390 . S
C712 H703 0.930 . S
C712 C710 1.384 . S
C712 C713 1.372 . S
C713 C712 1.372 . S
C713 C714 1.400 . S
C713 C718 1.490 . S
C714 H704 0.930 . S
C714 C713 1.400 . S
C714 C717 1.386 . S
H715 C731 0.930 . S
H716 C732 0.931 . S
C717 H705 0.929 . S
C717 C711 1.390 . S
C717 C714 1.386 . S
C718 C713 1.490 . S
C718 C720 1.395 . S
C718 C721 1.403 . S
H719 C725 0.930 . S
C720 H706 0.930 . S
C720 C718 1.395 . S
C720 C723 1.403 . S
C721 C718 1.403 . S
C721 C722 1.524 . S
C721 C725 1.400 . S
C722 H707 0.960 . S
C722 H708 0.960 . S
C722 H709 0.960 . S
C722 C721 1.524 . S
C723 C720 1.403 . S
C723 C724 1.392 . S
C723 C727 1.495 . S
C724 C723 1.392 . S
C724 C725 1.385 . S
C724 C726 1.478 . S
C725 H719 0.930 . S
C725 C721 1.400 . S
C725 C724 1.385 . S
C726 C724 1.478 . S
C726 C728 1.381 . S
C726 C732 1.383 . S
C727 C723 1.495 . S
C727 H733 0.959 . S
C727 H734 0.961 . S
C727 H735 0.960 . S
C728 C726 1.381 . S
C728 C729 1.394 . S
C728 H736 0.930 . S
C729 C728 1.394 . S
C729 C730 1.383 . S
C729 H737 0.929 1_554 S
C730 C729 1.383 . S
C730 C731 1.377 . S
C731 H715 0.930 . S
C731 C730 1.377 . S
C731 C732 1.379 . S
C732 H716 0.931 . S
C732 C726 1.383 . S
C732 C731 1.379 . S
H733 C727 0.959 . S
H734 C727 0.961 . S
H735 C727 0.960 . S
H736 C728 0.930 . S
H737 C729 0.929 1_556 S
C207 C127 1.354 . S
C226 N14 1.230 . S
C243 C140 0.498 . S
C262 C8 0.568 . S
C279 N5 0.860 . S
C298 N170 0.775 . S
C315 N80 1.281 . S
C334 C28 1.357 . S
C351 N179 1.324 . S
C370 C41 1.391 . S
C387 N71 0.848 . S
C406 N47 0.515 . S
C423 C61 0.510 . S
C442 C107 0.445 . S
C459 C160 1.323 . S
C478 N38 1.205 . S
C495 C94 1.324 . S
C514 N113 1.274 . S
C531 C74 0.382 . S
C550 C173 0.439 . S
C567 N137 0.925 . S
C586 N104 0.880 . S
C603 C193 1.381 . S
C622 N146 1.328 . S
C639 C50 0.915 . S
C658 C17 0.913 . S
C675 C149 0.750 . S
C694 C83 0.708 . S
C711 C182 0.758 . S
C730 C116 0.749 . S
