# Generated by pormake.
# Topology uon, (4)-cn, num edge types: 1
# Building blocks:
#     Node 0, Type 0, BuildingBlock: ICAMEG_clean_sbu_1, # of connection points: 4
#     Node 1, Type 0, BuildingBlock: ICAMEG_clean_sbu_1, # of connection points: 4
#     Node 2, Type 0, BuildingBlock: ICAMEG_clean_sbu_1, # of connection points: 4
#     Node 3, Type 0, BuildingBlock: ICAMEG_clean_sbu_1, # of connection points: 4
#     Node 4, Type 0, BuildingBlock: ICAMEG_clean_sbu_1, # of connection points: 4
#     Node 5, Type 0, BuildingBlock: ICAMEG_clean_sbu_1, # of connection points: 4
#     Edge 6, Type (0, 0), BuildingBlock: XUDNAN_clean_linker_2, # of connection points: 2
#     Edge 7, Type (0, 0), BuildingBlock: XUDNAN_clean_linker_2, # of connection points: 2
#     Edge 8, Type (0, 0), BuildingBlock: XUDNAN_clean_linker_2, # of connection points: 2
#     Edge 9, Type (0, 0), BuildingBlock: XUDNAN_clean_linker_2, # of connection points: 2
#     Edge 10, Type (0, 0), BuildingBlock: XUDNAN_clean_linker_2, # of connection points: 2
#     Edge 11, Type (0, 0), BuildingBlock: XUDNAN_clean_linker_2, # of connection points: 2
#     Edge 12, Type (0, 0), BuildingBlock: XUDNAN_clean_linker_2, # of connection points: 2
#     Edge 13, Type (0, 0), BuildingBlock: XUDNAN_clean_linker_2, # of connection points: 2
#     Edge 14, Type (0, 0), BuildingBlock: XUDNAN_clean_linker_2, # of connection points: 2
#     Edge 15, Type (0, 0), BuildingBlock: XUDNAN_clean_linker_2, # of connection points: 2
#     Edge 16, Type (0, 0), BuildingBlock: XUDNAN_clean_linker_2, # of connection points: 2
#     Edge 17, Type (0, 0), BuildingBlock: XUDNAN_clean_linker_2, # of connection points: 2
# Relax obj value: 0.158
# Max RMSD: 0.296
# Mean RMSD: 0.272
data_MOF--net-uon--node1-ICAMEG_clean_sbu_1--edge1-XUDNAN_clean_linker_2
_symmetry_space_group_name_H-M    P1
_symmetry_Int_Tables_number       1
_symmetry_cell_setting            triclinic
loop_
_symmetry_equiv_pos_as_xyz
'x, y, z'
_cell_length_a     36.754119
_cell_length_b     36.785037
_cell_length_c     17.141787
_cell_angle_alpha  89.796506
_cell_angle_beta   90.35625
_cell_angle_gamma 119.98844
loop_
_atom_site_label
_atom_site_type_symbol
_atom_site_fract_x
_atom_site_fract_y
_atom_site_fract_z
_atom_type_partial_charge
Co0 Co 0.17108 0.41442 0.96312 0.0
Co1 Co 0.23191 0.40865 0.11294 0.0
O2 O 0.21533 0.40456 0.00335 0.0
C3 C 0.25017 0.46859 0.87495 0.0
O4 O 0.26537 0.44456 0.89586 0.0
C5 C 0.20838 0.32257 0.06136 0.0
O6 O 0.17336 0.31854 0.03266 0.0
O7 O 0.17177 0.3767 0.14576 0.0
O8 O 0.1319 0.37579 0.04419 0.0
H9 H 0.22489 0.4349 0.39826 0.0
H10 H 0.21262 0.37891 0.8583 0.0
O11 O 0.21134 0.45661 0.8851 0.0
H12 H 0.06071 0.28108 0.8374 0.0
H13 H 0.08777 0.43666 0.75325 0.0
H14 H 0.10595 0.42799 0.03676 0.0
H15 H 0.08769 0.34329 0.9215 0.0
H16 H 0.14327 0.42379 0.80461 0.0
O17 O 0.23318 0.35503 0.10091 0.0
H18 H 0.20594 0.43174 0.2591 0.0
H19 H 0.29195 0.39104 0.20017 0.0
H20 H 0.05002 0.44084 0.98807 0.0
H21 H 0.18711 0.31763 0.77365 0.0
H22 H 0.04055 0.44504 0.84533 0.0
H23 H 0.1105 0.26789 0.76223 0.0
O24 O 0.18881 0.46325 0.03286 0.0
H25 H 0.35792 0.43433 0.95596 0.0
H26 H 0.30674 0.48822 0.16606 0.0
H27 H 0.38135 0.52783 0.1287 0.0
H28 H 0.40754 0.50051 0.02388 0.0
H29 H 0.28338 0.39624 0.99383 0.0
H30 H 0.31175 0.39362 0.33869 0.0
H31 H 0.27819 0.41579 0.43878 0.0
O32 O 0.23254 0.46313 0.12459 0.0
C33 C 0.13625 0.36558 0.11354 0.0
C34 C 0.23985 0.42535 0.35517 0.0
C35 C 0.28855 0.40211 0.32174 0.0
N36 N 0.24805 0.41153 0.22161 0.0
C37 C 0.22933 0.4236 0.2763 0.0
C38 C 0.27716 0.40064 0.24342 0.0
C39 C 0.26972 0.41457 0.37787 0.0
C40 C 0.17946 0.35863 0.85305 0.0
N41 N 0.152 0.36624 0.89337 0.0
C42 C 0.16504 0.32334 0.80522 0.0
C43 C 0.12208 0.29536 0.79902 0.0
C44 C 0.09418 0.30276 0.84111 0.0
C45 C 0.10977 0.33827 0.88855 0.0
C46 C 0.09151 0.43478 0.81556 0.0
C47 C 0.10189 0.42964 0.97458 0.0
C48 C 0.12292 0.42761 0.84492 0.0
N49 N 0.12748 0.4247 0.92349 0.0
C50 C 0.07026 0.43702 0.94735 0.0
C51 C 0.06501 0.43945 0.86726 0.0
C52 C 0.21384 0.47998 0.09009 0.0
C53 C 0.34694 0.44639 0.00212 0.0
C54 C 0.31765 0.47654 0.11928 0.0
C55 C 0.36004 0.49895 0.09882 0.0
C56 C 0.37472 0.48361 0.04003 0.0
N57 N 0.29056 0.43991 0.08212 0.0
C58 C 0.30477 0.42483 0.02416 0.0
Co59 Co 0.78166 0.2336 0.53714 0.0
Co60 Co 0.87777 0.27215 0.62993 0.0
O61 O 0.84229 0.27047 0.54322 0.0
C62 C 0.79457 0.31896 0.54361 0.0
O63 O 0.82767 0.32858 0.58684 0.0
C64 C 0.90579 0.2466 0.4906 0.0
O65 O 0.86594 0.21943 0.47904 0.0
O66 O 0.84649 0.20949 0.6395 0.0
O67 O 0.78763 0.18443 0.5664 0.0
H68 H 0.90856 0.23538 0.89561 0.0
H69 H 0.8259 0.29022 0.40484 0.0
O70 O 0.77365 0.28264 0.51272 0.0
H71 H 0.76242 0.14696 0.29754 0.0
H72 H 0.6387 0.17938 0.41571 0.0
H73 H 0.71762 0.16576 0.63656 0.0
H74 H 0.75189 0.15831 0.43548 0.0
H75 H 0.71561 0.22518 0.42514 0.0
O76 O 0.91719 0.26929 0.55198 0.0
H77 H 0.86311 0.23282 0.78656 0.0
H78 H 0.97044 0.31583 0.65447 0.0
H79 H 0.64093 0.11863 0.62854 0.0
H80 H 0.8371 0.28037 0.26645 0.0
H81 H 0.60091 0.12539 0.51761 0.0
H82 H 0.80532 0.2083 0.21211 0.0
O83 O 0.77501 0.24237 0.64803 0.0
H84 H 0.95258 0.40984 0.48691 0.0
H85 H 0.90495 0.34215 0.74381 0.0
H86 H 0.94188 0.41937 0.7343 0.0
H87 H 0.96596 0.45371 0.60512 0.0
H88 H 0.91523 0.33274 0.49891 0.0
H89 H 0.01707 0.31925 0.76194 0.0
H90 H 0.98613 0.27896 0.88367 0.0
O91 O 0.83835 0.27555 0.70722 0.0
C92 C 0.81249 0.17929 0.61149 0.0
C93 C 0.92241 0.25319 0.84294 0.0
C94 C 0.98332 0.3002 0.76785 0.0
N95 N 0.9141 0.27439 0.71459 0.0
C96 C 0.89683 0.25192 0.78112 0.0
C97 C 0.95676 0.29807 0.70717 0.0
C98 C 0.96593 0.2776 0.83618 0.0
C99 C 0.81164 0.25881 0.38127 0.0
N100 N 0.78805 0.2249 0.42783 0.0
C101 C 0.81822 0.25341 0.30303 0.0
C102 C 0.80043 0.21295 0.2726 0.0
C103 C 0.77637 0.17852 0.32052 0.0
C104 C 0.77055 0.18512 0.39854 0.0
C105 C 0.65582 0.17589 0.464 0.0
C106 C 0.70056 0.16828 0.58726 0.0
C107 C 0.69936 0.2017 0.46959 0.0
N108 N 0.72123 0.19727 0.53012 0.0
C109 C 0.65708 0.14175 0.58337 0.0
C110 C 0.63464 0.14562 0.5212 0.0
C111 C 0.79849 0.26009 0.7067 0.0
C112 C 0.94235 0.39525 0.54355 0.0
C113 C 0.91531 0.35686 0.68738 0.0
C114 C 0.93626 0.4006 0.68237 0.0
C115 C 0.94979 0.41984 0.60988 0.0
N116 N 0.90817 0.33294 0.62206 0.0
C117 C 0.92136 0.35159 0.55078 0.0
Co118 Co 0.58175 0.76085 0.74521 0.0
Co119 Co 0.57211 0.83064 0.86524 0.0
O120 O 0.58296 0.81351 0.76489 0.0
C121 C 0.51035 0.75534 0.66021 0.0
O122 O 0.50614 0.77352 0.72209 0.0
C123 C 0.65905 0.89513 0.82516 0.0
O124 O 0.66726 0.86462 0.81576 0.0
O125 O 0.6071 0.81106 0.92001 0.0
O126 O 0.6194 0.7708 0.83757 0.0
H127 H 0.53515 0.81453 0.14974 0.0
H128 H 0.60272 0.82194 0.61634 0.0
O129 O 0.54166 0.74938 0.65452 0.0
H130 H 0.72718 0.80551 0.64881 0.0
H131 H 0.58397 0.65162 0.57259 0.0
H132 H 0.57604 0.69158 0.84362 0.0
H133 H 0.66488 0.76588 0.73202 0.0
H134 H 0.58477 0.71779 0.60083 0.0
O135 O 0.62287 0.88741 0.84791 0.0
H136 H 0.54699 0.79175 0.02183 0.0
H137 H 0.5777 0.90961 0.92277 0.0
H138 H 0.57537 0.62529 0.81815 0.0
H139 H 0.6643 0.86217 0.53171 0.0
H140 H 0.57942 0.60497 0.68177 0.0
H141 H 0.72709 0.85404 0.54774 0.0
O142 O 0.5323 0.72894 0.81311 0.0
H143 H 0.53779 0.90278 0.65142 0.0
H144 H 0.48719 0.81964 0.89325 0.0
H145 H 0.4415 0.84033 0.82327 0.0
H146 H 0.46678 0.88227 0.70149 0.0
H147 H 0.58208 0.88072 0.72242 0.0
H148 H 0.56647 0.93381 0.04972 0.0
H149 H 0.54488 0.88604 0.16423 0.0
O150 O 0.52087 0.77409 0.88188 0.0
C151 C 0.62376 0.78876 0.90361 0.0
C152 C 0.54438 0.83557 0.10021 0.0
C153 C 0.56203 0.90255 0.0441 0.0
N154 N 0.56262 0.84918 0.96485 0.0
C155 C 0.551 0.8228 0.02761 0.0
C156 C 0.56842 0.88871 0.97243 0.0
C157 C 0.5499 0.87572 0.10832 0.0
C158 C 0.62987 0.81811 0.62328 0.0
N159 N 0.63019 0.79147 0.67862 0.0
C160 C 0.66467 0.84104 0.5754 0.0
C161 C 0.69991 0.8365 0.5845 0.0
C162 C 0.7 0.80931 0.64123 0.0
C163 C 0.66469 0.787 0.68824 0.0
C164 C 0.58226 0.66017 0.63225 0.0
C165 C 0.57802 0.68305 0.78417 0.0
C166 C 0.58262 0.69753 0.64856 0.0
N167 N 0.58084 0.70867 0.7238 0.0
C168 C 0.5775 0.64542 0.77008 0.0
C169 C 0.57973 0.63401 0.69355 0.0
C170 C 0.51051 0.73695 0.8601 0.0
C171 C 0.52648 0.88466 0.7046 0.0
C172 C 0.49841 0.83788 0.84031 0.0
C173 C 0.47242 0.84956 0.80099 0.0
C174 C 0.48663 0.87309 0.73267 0.0
N175 N 0.53744 0.84929 0.81237 0.0
C176 C 0.55156 0.87234 0.74538 0.0
Co177 Co 0.75681 0.56098 0.26353 0.0
Co178 Co 0.73584 0.61837 0.39711 0.0
O179 O 0.72574 0.58772 0.29921 0.0
C180 C 0.66955 0.49119 0.27409 0.0
O181 O 0.66809 0.50614 0.34265 0.0
C182 C 0.74796 0.67761 0.27099 0.0
O183 O 0.77091 0.66416 0.23703 0.0
O184 O 0.79787 0.6485 0.38164 0.0
O185 O 0.81146 0.61027 0.29664 0.0
H186 H 0.80501 0.67604 0.65647 0.0
H187 H 0.69608 0.56527 0.15487 0.0
O188 O 0.70251 0.5102 0.23232 0.0
H189 H 0.83361 0.64372 0.02544 0.0
H190 H 0.7879 0.47473 0.07698 0.0
H191 H 0.8256 0.54974 0.3284 0.0
H192 H 0.82744 0.61078 0.15403 0.0
H193 H 0.75064 0.51076 0.12292 0.0
O194 O 0.73243 0.66393 0.33832 0.0
H195 H 0.79243 0.6366 0.53359 0.0
H196 H 0.69976 0.66751 0.46636 0.0
H197 H 0.86425 0.51488 0.28416 0.0
H198 H 0.7006 0.59661 0.0254 0.0
H199 H 0.84535 0.47689 0.15764 0.0
H200 H 0.76983 0.63667 0.96022 0.0
O201 O 0.75244 0.53583 0.36699 0.0
H202 H 0.5855 0.56328 0.31653 0.0
H203 H 0.67992 0.57228 0.53059 0.0
H204 H 0.60331 0.53401 0.55136 0.0
H205 H 0.55555 0.52943 0.4439 0.0
H206 H 0.66228 0.601 0.29809 0.0
H207 H 0.71145 0.70746 0.58826 0.0
H208 H 0.7643 0.71176 0.68443 0.0
O209 O 0.7393 0.57279 0.45623 0.0
C210 C 0.82316 0.64129 0.34302 0.0
C211 C 0.78179 0.67427 0.61514 0.0
C212 C 0.72933 0.69197 0.57681 0.0
N213 N 0.74516 0.64948 0.49328 0.0
C214 C 0.77446 0.6519 0.54561 0.0
C215 C 0.72291 0.66938 0.50784 0.0
C216 C 0.75897 0.69435 0.63076 0.0
C217 C 0.72621 0.58207 0.12633 0.0
N218 N 0.76141 0.58599 0.1617 0.0
C219 C 0.72862 0.59998 0.05323 0.0
C220 C 0.76748 0.62243 0.0167 0.0
C221 C 0.80328 0.62645 0.05332 0.0
C222 C 0.79963 0.60787 0.12624 0.0
C223 C 0.79663 0.49142 0.13195 0.0
C224 C 0.81777 0.53399 0.27266 0.0
C225 C 0.77567 0.51191 0.15822 0.0
N226 N 0.78668 0.53325 0.22737 0.0
C227 C 0.8395 0.51398 0.24819 0.0
C228 C 0.82884 0.49263 0.17726 0.0
C229 C 0.74627 0.54336 0.43653 0.0
C230 C 0.606 0.56517 0.36388 0.0
C231 C 0.65934 0.57032 0.48347 0.0
C232 C 0.61599 0.54868 0.49563 0.0
C233 C 0.58921 0.54614 0.43532 0.0
N234 N 0.67558 0.5891 0.41335 0.0
C235 C 0.64952 0.58662 0.35387 0.0
Co236 Co 0.24604 0.80751 0.33981 0.0
Co237 Co 0.18542 0.73546 0.48159 0.0
O238 O 0.19358 0.76057 0.37812 0.0
C239 C 0.2143 0.73718 0.22323 0.0
O240 O 0.17646 0.72002 0.25237 0.0
C241 C 0.12241 0.76279 0.46729 0.0
O242 O 0.15335 0.80013 0.44868 0.0
O243 O 0.21398 0.79193 0.53105 0.0
O244 O 0.25247 0.83948 0.43898 0.0
H245 H 0.22892 0.71962 0.75223 0.0
H246 H 0.16481 0.77632 0.24741 0.0
O247 O 0.24234 0.77451 0.24249 0.0
H248 H 0.22036 0.92729 0.28739 0.0
H249 H 0.34205 0.90722 0.13534 0.0
H250 H 0.329 0.86482 0.41166 0.0
H251 H 0.2585 0.89329 0.33903 0.0
H252 H 0.27554 0.84863 0.18529 0.0
O253 O 0.12991 0.73364 0.48662 0.0
H254 H 0.23947 0.75066 0.62072 0.0
H255 H 0.11134 0.66751 0.56421 0.0
H256 H 0.39594 0.92383 0.36451 0.0
H257 H 0.12612 0.80893 0.19449 0.0
H258 H 0.40273 0.94538 0.22541 0.0
H259 H 0.15368 0.88514 0.2141 0.0
O260 O 0.27889 0.78331 0.38474 0.0
H261 H 0.07987 0.62142 0.30638 0.0
H262 H 0.19514 0.65982 0.4953 0.0
H263 H 0.16032 0.58945 0.43579 0.0
H264 H 0.10186 0.56964 0.34137 0.0
H265 H 0.11618 0.69179 0.36573 0.0
H266 H 0.09927 0.6358 0.69539 0.0
H267 H 0.15839 0.66175 0.79029 0.0
O268 O 0.24039 0.73642 0.47661 0.0
C269 C 0.23918 0.82954 0.50906 0.0
C270 C 0.20294 0.70795 0.71133 0.0
C271 C 0.13016 0.66094 0.67945 0.0
N272 N 0.17615 0.71064 0.58468 0.0
C273 C 0.20876 0.7253 0.63671 0.0
C274 C 0.13716 0.67907 0.60533 0.0
C275 C 0.16335 0.67551 0.73266 0.0
C276 C 0.17788 0.80934 0.25518 0.0
N277 N 0.21487 0.83269 0.29457 0.0
C278 C 0.15542 0.82777 0.22549 0.0
C279 C 0.1708 0.87048 0.23669 0.0
C280 C 0.20818 0.89411 0.27773 0.0
C281 C 0.22971 0.87458 0.3067 0.0
C282 C 0.33944 0.89819 0.1961 0.0
C283 C 0.33167 0.87425 0.3512 0.0
C284 C 0.30194 0.865 0.2246 0.0
N285 N 0.29835 0.85369 0.3014 0.0
C286 C 0.36967 0.90756 0.32477 0.0
C287 C 0.37347 0.9196 0.24669 0.0
C288 C 0.27358 0.75595 0.4357 0.0
C289 C 0.10517 0.62961 0.34774 0.0
C290 C 0.17023 0.65179 0.45325 0.0
C291 C 0.15043 0.61174 0.42013 0.0
C292 C 0.11763 0.60063 0.36718 0.0
N293 N 0.15782 0.68008 0.43399 0.0
C294 C 0.1257 0.66936 0.38202 0.0
Co295 Co 0.45687 0.22174 0.82026 0.0
Co296 Co 0.40802 0.14368 0.95921 0.0
O297 O 0.43925 0.16613 0.86251 0.0
C298 C 0.53523 0.22067 0.84783 0.0
O299 O 0.51737 0.19944 0.91136 0.0
C300 C 0.3573 0.08427 0.83429 0.0
O301 O 0.36474 0.11718 0.79237 0.0
O302 O 0.36794 0.16316 0.93126 0.0
O303 O 0.40064 0.21546 0.84368 0.0
H304 H 0.33546 0.14705 0.20427 0.0
H305 H 0.46926 0.16162 0.72593 0.0
O306 O 0.51476 0.23072 0.80039 0.0
H307 H 0.37357 0.1913 0.57098 0.0
H308 H 0.53127 0.3397 0.62791 0.0
H309 H 0.4475 0.29398 0.86888 0.0
H310 H 0.40148 0.22637 0.69758 0.0
H311 H 0.50659 0.26881 0.6814 0.0
O312 O 0.37107 0.08893 0.90424 0.0
H313 H 0.37543 0.17593 0.08274 0.0
H314 H 0.37258 0.06093 0.03932 0.0
H315 H 0.47122 0.36498 0.8173 0.0
H316 H 0.4422 0.12589 0.59956 0.0
H317 H 0.51348 0.38827 0.69591 0.0
H318 H 0.39383 0.14054 0.5214 0.0
O319 O 0.47698 0.24773 0.92307 0.0
H320 H 0.49374 0.07424 0.90938 0.0
H321 H 0.45779 0.15043 0.10198 0.0
H322 H 0.50934 0.12869 0.1369 0.0
H323 H 0.52765 0.09035 0.04018 0.0
H324 H 0.44261 0.09682 0.87666 0.0
H325 H 0.33227 0.03066 0.16003 0.0
H326 H 0.31362 0.07391 0.24359 0.0
O327 O 0.44477 0.19835 0.01539 0.0
C328 C 0.36966 0.19215 0.88778 0.0
C329 C 0.34352 0.12794 0.16849 0.0
C330 C 0.34168 0.0626 0.1436 0.0
N331 N 0.37662 0.12025 0.05443 0.0
C332 C 0.36625 0.14417 0.09976 0.0
C333 C 0.36442 0.07987 0.07525 0.0
C334 C 0.33124 0.08688 0.19048 0.0
C335 C 0.44863 0.16849 0.6917 0.0
N336 N 0.43711 0.19616 0.71874 0.0
C337 C 0.43327 0.14805 0.62041 0.0
C338 C 0.40607 0.15624 0.57665 0.0
C339 C 0.39465 0.18468 0.60448 0.0
C340 C 0.41051 0.20442 0.67618 0.0
C341 C 0.51271 0.32985 0.68063 0.0
C342 C 0.46542 0.3037 0.8156 0.0
C343 C 0.49864 0.28976 0.71115 0.0
N344 N 0.47506 0.27706 0.77752 0.0
C345 C 0.47897 0.34402 0.78686 0.0
C346 C 0.50272 0.35709 0.71882 0.0
C347 C 0.47014 0.23608 0.99396 0.0
C348 C 0.48591 0.0908 0.9521 0.0
C349 C 0.46558 0.13374 0.05958 0.0
C350 C 0.49474 0.12145 0.07973 0.0
C351 C 0.50498 0.09991 0.02546 0.0
N352 N 0.44703 0.12472 0.98748 0.0
C353 C 0.45681 0.10347 0.93406 0.0
H354 H 0.28912 0.33799 0.06128 0.0
H355 H 0.16174 0.24299 0.00051 0.0
H356 H 0.18859 0.19833 0.94708 0.0
H357 H 0.33512 0.32815 0.88737 0.0
H358 H 0.38322 0.33773 0.93398 0.0
H359 H 0.35367 0.36023 0.97384 0.0
H360 H 0.3496 0.32539 0.10748 0.0
H361 H 0.37979 0.30336 0.06871 0.0
H362 H 0.32934 0.26955 0.11229 0.0
H363 H 0.23075 0.16344 0.90341 0.0
H364 H 0.2843 0.14399 0.86721 0.0
H365 H 0.383 0.26603 0.94368 0.0
C366 C 0.26665 0.30759 0.0377 0.0
C367 C 0.22321 0.29376 0.03591 0.0
C368 C 0.19511 0.25403 0.00315 0.0
C369 C 0.2101 0.22855 0.97251 0.0
C370 C 0.25331 0.24365 0.97376 0.0
C371 C 0.28112 0.28246 0.00509 0.0
C372 C 0.32618 0.29282 0.99581 0.0
C373 C 0.35099 0.33205 0.94469 0.0
C374 C 0.34746 0.29806 0.07583 0.0
C375 C 0.31957 0.25368 0.9547 0.0
C376 C 0.27737 0.2253 0.9433 0.0
C377 C 0.26386 0.18576 0.9108 0.0
C378 C 0.29431 0.17501 0.89014 0.0
C379 C 0.33754 0.20416 0.90022 0.0
C380 C 0.35015 0.24392 0.93245 0.0
H381 H 0.99192 0.29836 0.49288 0.0
H382 H 0.88781 0.21457 0.34312 0.0
H383 H 0.93616 0.23328 0.2323 0.0
H384 H 0.04463 0.37871 0.35473 0.0
H385 H 0.09685 0.39136 0.38406 0.0
H386 H 0.05473 0.36936 0.45371 0.0
H387 H 0.06989 0.30897 0.48238 0.0
H388 H 0.11222 0.33094 0.41299 0.0
H389 H 0.07054 0.27727 0.40302 0.0
H390 H 0.99389 0.26609 0.13468 0.0
H391 H 0.05893 0.30714 0.05874 0.0
H392 H 0.12668 0.36691 0.27172 0.0
C393 C 0.97944 0.2834 0.43711 0.0
C394 C 0.93605 0.25485 0.42696 0.0
C395 C 0.92093 0.23627 0.35276 0.0
C396 C 0.94814 0.24676 0.28921 0.0
C397 C 0.99054 0.27549 0.30079 0.0
C398 C 0.0063 0.29317 0.37301 0.0
C399 C 0.05308 0.32407 0.36887 0.0
C400 C 0.06287 0.3685 0.39168 0.0
C401 C 0.07789 0.30942 0.41984 0.0
C402 C 0.06086 0.3215 0.28282 0.0
C403 C 0.02429 0.29341 0.24461 0.0
C404 C 0.0229 0.28765 0.16409 0.0
C405 C 0.05991 0.3112 0.12142 0.0
C406 C 0.09787 0.33976 0.15948 0.0
C407 C 0.09829 0.34464 0.24133 0.0
H408 H 0.73287 0.11231 0.61244 0.0
H409 H 0.86145 0.14896 0.67351 0.0
H410 H 0.8366 0.07877 0.73198 0.0
H411 H 0.69065 0.06241 0.79142 0.0
H412 H 0.6419 0.02225 0.7497 0.0
H413 H 0.67041 0.0728 0.70328 0.0
H414 H 0.67212 0.03727 0.57415 0.0
H415 H 0.64329 0.98653 0.61993 0.0
H416 H 0.69298 0.00212 0.57411 0.0
H417 H 0.79643 0.00389 0.78473 0.0
H418 H 0.74461 0.93339 0.83478 0.0
H419 H 0.64299 0.95194 0.75428 0.0
C420 C 0.75603 0.10566 0.63709 0.0
C421 C 0.79916 0.13612 0.63792 0.0
C422 C 0.82825 0.12597 0.67171 0.0
C423 C 0.81442 0.08625 0.70511 0.0
C424 C 0.7714 0.05749 0.7055 0.0
C425 C 0.74268 0.06698 0.67288 0.0
C426 C 0.69798 0.03249 0.68675 0.0
C427 C 0.67383 0.04845 0.73571 0.0
C428 C 0.67527 0.01348 0.60911 0.0
C429 C 0.70588 0.00185 0.73221 0.0
C430 C 0.74838 0.01636 0.7413 0.0
C431 C 0.76311 0.99244 0.77862 0.0
C432 C 0.73357 0.95259 0.80691 0.0
C433 C 0.69 0.93775 0.79942 0.0
C434 C 0.67614 0.9629 0.76216 0.0
H435 H 0.73955 0.6803 0.1132 0.0
H436 H 0.72632 0.73304 0.32987 0.0
H437 H 0.69996 0.77325 0.25621 0.0
H438 H 0.76823 0.77145 0.98604 0.0
H439 H 0.73691 0.73937 0.90566 0.0
H440 H 0.75996 0.71917 0.97392 0.0
H441 H 0.6866 0.65518 0.00044 0.0
H442 H 0.6631 0.67507 0.93293 0.0
H443 H 0.64457 0.6634 0.03201 0.0
H444 H 0.67127 0.80394 0.16091 0.0
H445 H 0.63722 0.81957 0.05253 0.0
H446 H 0.66517 0.74352 0.89748 0.0
C447 C 0.73205 0.7011 0.14486 0.0
C448 C 0.73557 0.70423 0.22701 0.0
C449 C 0.72418 0.73063 0.26684 0.0
C450 C 0.70934 0.75362 0.22549 0.0
C451 C 0.70565 0.74938 0.14456 0.0
C452 C 0.71635 0.72352 0.10465 0.0
C453 C 0.70534 0.72122 0.0187 0.0
C454 C 0.74498 0.73887 0.9681 0.0
C455 C 0.67297 0.67604 0.99466 0.0
C456 C 0.68636 0.74948 0.01668 0.0
C457 C 0.68746 0.76585 0.08971 0.0
C458 C 0.67045 0.79155 0.10336 0.0
C459 C 0.65111 0.80019 0.04114 0.0
C460 C 0.64841 0.78279 0.96607 0.0
C461 C 0.66691 0.75758 0.95379 0.0
H462 H 0.88234 0.61749 0.34926 0.0
H463 H 0.86597 0.72566 0.37448 0.0
H464 H 0.94138 0.76937 0.4093 0.0
H465 H 0.94891 0.64037 0.51467 0.0
H466 H 0.98054 0.62094 0.4717 0.0
H467 H 0.92651 0.59938 0.44228 0.0
H468 H 0.94921 0.61717 0.29803 0.0
H469 H 0.00331 0.63846 0.32678 0.0
H470 H 0.98759 0.67022 0.27174 0.0
H471 H 0.01942 0.80111 0.43869 0.0
H472 H 0.09211 0.81734 0.46791 0.0
H473 H 0.05397 0.68603 0.43662 0.0
C474 C 0.89471 0.65051 0.36065 0.0
C475 C 0.86859 0.66844 0.35778 0.0
C476 C 0.88569 0.71151 0.3756 0.0
C477 C 0.92838 0.73648 0.39545 0.0
C478 C 0.95316 0.71758 0.39878 0.0
C479 C 0.93677 0.67545 0.38252 0.0
C480 C 0.96911 0.66196 0.39487 0.0
C481 C 0.95544 0.62871 0.45974 0.0
C482 C 0.97782 0.64603 0.31829 0.0
C483 C 0.0065 0.7032 0.41997 0.0
C484 C 0.99691 0.73506 0.42099 0.0
C485 C 0.02714 0.77631 0.43888 0.0
C486 C 0.06827 0.78523 0.45548 0.0
C487 C 0.07853 0.7529 0.45549 0.0
C488 C 0.04699 0.71133 0.43835 0.0
H489 H 0.34672 0.06418 0.67836 0.0
H490 H 0.31946 0.00874 0.9098 0.0
H491 H 0.28523 0.938 0.85107 0.0
H492 H 0.2512 0.98559 0.58304 0.0
H493 H 0.27728 0.98649 0.49374 0.0
H494 H 0.29801 0.03286 0.55361 0.0
H495 H 0.36986 0.03593 0.56024 0.0
H496 H 0.3494 0.98953 0.50052 0.0
H497 H 0.37232 0.99079 0.59446 0.0
H498 H 0.25428 0.87368 0.76826 0.0
H499 H 0.2306 0.81926 0.66708 0.0
H500 H 0.28025 0.91579 0.48782 0.0
C501 C 0.3331 0.03713 0.71665 0.0
C502 C 0.33538 0.04193 0.79876 0.0
C503 C 0.31794 0.0058 0.84685 0.0
C504 C 0.2984 0.9655 0.81401 0.0
C505 C 0.29692 0.96185 0.73299 0.0
C506 C 0.31396 0.99662 0.68483 0.0
C507 C 0.30953 0.98385 0.59961 0.0
C508 C 0.28238 0.99804 0.55488 0.0
C509 C 0.35286 0.00105 0.56148 0.0
C510 C 0.28721 0.93643 0.60747 0.0
C511 C 0.28006 0.92454 0.68497 0.0
C512 C 0.25972 0.88258 0.70738 0.0
C513 C 0.2463 0.85186 0.64918 0.0
C514 C 0.25347 0.86305 0.56911 0.0
C515 C 0.27434 0.90608 0.54831 0.0
H516 H 0.16328 0.66438 0.14632 0.0
H517 H 0.29222 0.74426 0.22171 0.0
H518 H 0.30737 0.6873 0.19288 0.0
H519 H 0.14848 0.57259 0.22828 0.0
H520 H 0.11659 0.53878 0.15024 0.0
H521 H 0.11785 0.5876 0.16769 0.0
H522 H 0.14087 0.61003 0.02388 0.0
H523 H 0.13932 0.56095 0.0069 0.0
H524 H 0.18665 0.60983 0.98725 0.0
H525 H 0.30472 0.61721 0.175 0.0
H526 H 0.28767 0.54409 0.14937 0.0
H527 H 0.16127 0.51202 0.08112 0.0
C528 C 0.19511 0.67045 0.15409 0.0
C529 C 0.22663 0.70878 0.18599 0.0
C530 C 0.26774 0.71532 0.19644 0.0
C531 C 0.27652 0.683 0.1808 0.0
C532 C 0.24404 0.64474 0.1532 0.0
C533 C 0.20446 0.63882 0.13787 0.0
C534 C 0.17445 0.59437 0.11156 0.0
C535 C 0.13713 0.57205 0.16779 0.0
C536 C 0.15945 0.59377 0.02739 0.0
C537 C 0.20292 0.57579 0.11649 0.0
C538 C 0.2429 0.60512 0.141 0.0
C539 C 0.27371 0.59422 0.1545 0.0
C540 C 0.26362 0.55252 0.14078 0.0
C541 C 0.22318 0.52245 0.11333 0.0
C542 C 0.19256 0.53441 0.10152 0.0
H543 H 0.57683 0.17751 0.86663 0.0
H544 H 0.59484 0.29973 0.80511 0.0
H545 H 0.67164 0.32782 0.7961 0.0
H546 H 0.67594 0.2114 0.97423 0.0
H547 H 0.68328 0.17066 0.93226 0.0
H548 H 0.63097 0.16199 0.94676 0.0
H549 H 0.61366 0.14381 0.80031 0.0
H550 H 0.66537 0.15149 0.78559 0.0
H551 H 0.64744 0.18058 0.72774 0.0
H552 H 0.74537 0.34118 0.78557 0.0
H553 H 0.80574 0.33479 0.74178 0.0
H554 H 0.73896 0.20288 0.80095 0.0
C555 C 0.59717 0.21031 0.85216 0.0
C556 C 0.58036 0.23667 0.83697 0.0
C557 C 0.60742 0.27913 0.81652 0.0
C558 C 0.65102 0.29543 0.81257 0.0
C559 C 0.66684 0.26868 0.82856 0.0
C560 C 0.64055 0.22673 0.84599 0.0
C561 C 0.66433 0.203 0.84816 0.0
C562 C 0.66358 0.18575 0.93026 0.0
C563 C 0.64669 0.16766 0.78681 0.0
C564 C 0.708 0.23789 0.82733 0.0
C565 C 0.70914 0.27589 0.81909 0.0
C566 C 0.74508 0.31182 0.79321 0.0
C567 C 0.77959 0.30812 0.76966 0.0
C568 C 0.77722 0.26857 0.76998 0.0
C569 C 0.74207 0.23373 0.80345 0.0
H570 H 0.48258 0.65393 0.83963 0.0
H571 H 0.44123 0.74023 0.91306 0.0
H572 H 0.36763 0.68141 0.91476 0.0
H573 H 0.3985 0.59551 0.70903 0.0
H574 H 0.3958 0.54624 0.73091 0.0
H575 H 0.44499 0.59462 0.74016 0.0
H576 H 0.45203 0.57719 0.88398 0.0
H577 H 0.40329 0.52839 0.87552 0.0
H578 H 0.40994 0.56527 0.95107 0.0
H579 H 0.2976 0.61138 0.90529 0.0
H580 H 0.24036 0.53723 0.89867 0.0
H581 H 0.32996 0.50052 0.82404 0.0
C582 C 0.45827 0.66064 0.85721 0.0
C583 C 0.46779 0.70175 0.8765 0.0
C584 C 0.43483 0.7089 0.89898 0.0
C585 C 0.39288 0.67577 0.89915 0.0
C586 C 0.38461 0.63592 0.87646 0.0
C587 C 0.41664 0.62839 0.85672 0.0
C588 C 0.40024 0.58325 0.83402 0.0
C589 C 0.41049 0.57972 0.74845 0.0
C590 C 0.41737 0.56228 0.88946 0.0
C591 C 0.35379 0.56603 0.84504 0.0
C592 C 0.34506 0.59672 0.86898 0.0
C593 C 0.30413 0.58726 0.88586 0.0
C594 C 0.27173 0.54514 0.88104 0.0
C595 C 0.28069 0.51321 0.85989 0.0
C596 C 0.32203 0.52426 0.83939 0.0
H597 H 0.81274 0.54051 0.4938 0.0
H598 H 0.67707 0.47705 0.49667 0.0
H599 H 0.67462 0.41177 0.54046 0.0
H600 H 0.82125 0.46602 0.40868 0.0
H601 H 0.86614 0.47058 0.46059 0.0
H602 H 0.85873 0.51515 0.45314 0.0
H603 H 0.86037 0.52233 0.60354 0.0
H604 H 0.86941 0.47859 0.61182 0.0
H605 H 0.82602 0.47752 0.66237 0.0
H606 H 0.68664 0.35066 0.5471 0.0
H607 H 0.71276 0.30032 0.54206 0.0
H608 H 0.84097 0.40403 0.53954 0.0
C609 C 0.78279 0.51364 0.50941 0.0
C610 C 0.74514 0.51376 0.49459 0.0
C611 C 0.70616 0.47765 0.51068 0.0
C612 C 0.70455 0.44038 0.53461 0.0
C613 C 0.74228 0.44028 0.5431 0.0
C614 C 0.78081 0.4764 0.53363 0.0
C615 C 0.81648 0.467 0.53619 0.0
C616 C 0.84212 0.48049 0.46014 0.0
C617 C 0.84473 0.48757 0.60777 0.0
C618 C 0.79193 0.41978 0.54407 0.0
C619 C 0.7492 0.40489 0.54815 0.0
C620 C 0.72007 0.36201 0.5464 0.0
C621 C 0.73509 0.33371 0.54227 0.0
C622 C 0.77876 0.34854 0.54046 0.0
C623 C 0.80741 0.39203 0.54178 0.0
H624 H 0.28836 0.71904 0.56242 0.0
H625 H 0.33844 0.77437 0.33637 0.0
H626 H 0.39957 0.7653 0.35906 0.0
H627 H 0.38209 0.77175 0.65969 0.0
H628 H 0.37281 0.72972 0.72564 0.0
H629 H 0.32916 0.73239 0.68456 0.0
H630 H 0.29888 0.65671 0.63098 0.0
H631 H 0.34309 0.65434 0.67129 0.0
H632 H 0.33078 0.64458 0.56883 0.0
H633 H 0.46047 0.7608 0.4138 0.0
H634 H 0.51721 0.76657 0.5013 0.0
H635 H 0.4281 0.71465 0.69064 0.0
C636 C 0.31157 0.72807 0.51678 0.0
C637 C 0.30831 0.74701 0.44736 0.0
C638 C 0.34 0.75951 0.38992 0.0
C639 C 0.3748 0.75421 0.40197 0.0
C640 C 0.37761 0.73631 0.47176 0.0
C641 C 0.34683 0.72347 0.52833 0.0
C642 C 0.3601 0.71083 0.60255 0.0
C643 C 0.36112 0.7378 0.67213 0.0
C644 C 0.33151 0.66381 0.61936 0.0
C645 C 0.4038 0.72045 0.58005 0.0
C646 C 0.41307 0.73409 0.50375 0.0
C647 C 0.45331 0.74918 0.47303 0.0
C648 C 0.4853 0.75211 0.52268 0.0
C649 C 0.4766 0.74054 0.60184 0.0
C650 C 0.43512 0.72292 0.62963 0.0
H651 H 0.54121 0.31024 0.96776 0.0
H652 H 0.45515 0.23627 0.15215 0.0
H653 H 0.49625 0.29439 0.24553 0.0
H654 H 0.63505 0.35543 0.08228 0.0
H655 H 0.65772 0.40508 0.03201 0.0
H656 H 0.62137 0.35756 0.98185 0.0
H657 H 0.57452 0.38974 0.94788 0.0
H658 H 0.61058 0.4373 0.99827 0.0
H659 H 0.55591 0.40931 0.02513 0.0
H660 H 0.54671 0.36294 0.31661 0.0
H661 H 0.60367 0.43239 0.36074 0.0
H662 H 0.65557 0.45851 0.12711 0.0
C663 C 0.53069 0.30599 0.02773 0.0
C664 C 0.49469 0.26881 0.05262 0.0
C665 C 0.48263 0.26452 0.1319 0.0
C666 C 0.50568 0.2974 0.18508 0.0
C667 C 0.54069 0.33393 0.15783 0.0
C668 C 0.5532 0.33804 0.081 0.0
C669 C 0.59196 0.37988 0.0654 0.0
C670 C 0.62869 0.37412 0.03885 0.0
C671 C 0.58267 0.40556 0.00565 0.0
C672 C 0.59966 0.39906 0.14568 0.0
C673 C 0.5697 0.37238 0.1983 0.0
C674 C 0.57034 0.38392 0.27588 0.0
C675 C 0.6027 0.42348 0.30027 0.0
C676 C 0.63407 0.45077 0.24731 0.0
C677 C 0.63219 0.43829 0.16906 0.0
loop_
_geom_bond_atom_site_label_1
_geom_bond_atom_site_label_2
_geom_bond_distance
_geom_bond_site_symmetry_2
_ccdc_geom_bond_type
Co0 O2 2.143 . S
Co0 O8 2.074 1_556 S
Co0 O11 2.093 . S
Co0 O24 2.097 1_556 S
Co0 N41 2.151 . S
Co0 N49 2.214 . S
Co1 O2 2.160 1_554 S
Co1 O7 2.058 . S
Co1 O17 2.057 . S
Co1 O32 2.037 . S
Co1 N36 2.145 . S
Co1 N57 2.257 . S
O2 Co0 2.143 . S
O2 Co1 2.160 1_556 S
C3 O4 1.278 . S
C3 O11 1.224 . S
O4 C3 1.278 . S
C5 O6 1.245 1_554 S
C5 O17 1.232 . S
O6 C5 1.245 1_556 S
O7 Co1 2.058 . S
O7 C33 1.269 . S
O8 Co0 2.074 1_554 S
O8 C33 1.257 . S
H9 C34 0.930 . S
H10 C40 0.930 . S
O11 Co0 2.093 . S
O11 C3 1.224 . S
H12 C44 0.929 . S
H13 C46 0.930 . S
H14 C47 0.930 . S
H15 C45 0.929 . S
H16 C48 0.928 . S
O17 Co1 2.057 . S
O17 C5 1.232 . S
H18 C37 0.929 . S
H19 C38 0.929 . S
H20 C50 0.931 . S
H21 C42 0.929 . S
H22 C51 0.930 . S
H23 C43 0.931 . S
O24 Co0 2.097 1_554 S
O24 C52 1.214 . S
H25 C53 0.929 . S
H26 C54 0.929 . S
H27 C55 0.930 . S
H28 C56 0.929 . S
H29 C58 0.930 . S
H30 C35 0.930 . S
H31 C39 0.930 . S
O32 Co1 2.037 . S
O32 C52 1.234 . S
C33 O7 1.269 . S
C33 O8 1.257 . S
C34 H9 0.930 . S
C34 C37 1.388 . S
C34 C39 1.418 . S
C35 H30 0.930 . S
C35 C38 1.404 . S
C35 C39 1.353 . S
N36 Co1 2.145 . S
N36 C37 1.397 . S
N36 C38 1.334 . S
C37 H18 0.929 . S
C37 C34 1.388 . S
C37 N36 1.397 . S
C38 H19 0.929 . S
C38 C35 1.404 . S
C38 N36 1.334 . S
C39 H31 0.930 . S
C39 C34 1.418 . S
C39 C35 1.353 . S
C40 H10 0.930 . S
C40 N41 1.330 . S
C40 C42 1.446 . S
N41 Co0 2.151 . S
N41 C40 1.330 . S
N41 C45 1.418 . S
C42 H21 0.929 . S
C42 C40 1.446 . S
C42 C43 1.332 . S
C43 H23 0.931 . S
C43 C42 1.332 . S
C43 C44 1.267 . S
C44 H12 0.929 . S
C44 C43 1.267 . S
C44 C45 1.251 . S
C45 H15 0.929 . S
C45 N41 1.418 . S
C45 C44 1.251 . S
C46 H13 0.930 . S
C46 C48 1.406 . S
C46 C51 1.261 . S
C47 H14 0.930 . S
C47 N49 1.325 . S
C47 C50 1.357 . S
C48 H16 0.928 . S
C48 C46 1.406 . S
C48 N49 1.261 . S
N49 Co0 2.214 . S
N49 C47 1.325 . S
N49 C48 1.261 . S
C50 H20 0.931 . S
C50 C47 1.357 . S
C50 C51 1.312 . S
C51 H22 0.930 . S
C51 C46 1.261 . S
C51 C50 1.312 . S
C52 O24 1.214 . S
C52 O32 1.234 . S
C53 H25 0.929 . S
C53 C56 1.391 . S
C53 C58 1.391 . S
C54 H26 0.929 . S
C54 C55 1.390 . S
C54 N57 1.391 . S
C55 H27 0.930 . S
C55 C54 1.390 . S
C55 C56 1.392 . S
C56 H28 0.929 . S
C56 C53 1.391 . S
C56 C55 1.392 . S
N57 Co1 2.257 . S
N57 C54 1.391 . S
N57 C58 1.388 . S
C58 H29 0.930 . S
C58 C53 1.391 . S
C58 N57 1.388 . S
Co59 O61 2.143 . S
Co59 O67 2.074 . S
Co59 O70 2.093 . S
Co59 O83 2.097 . S
Co59 N100 2.151 . S
Co59 N108 2.214 . S
Co60 O61 2.160 . S
Co60 O66 2.058 . S
Co60 O76 2.057 . S
Co60 O91 2.037 . S
Co60 N95 2.145 . S
Co60 N116 2.257 . S
O61 Co59 2.143 . S
O61 Co60 2.160 . S
C62 O63 1.278 . S
C62 O70 1.224 . S
O63 C62 1.278 . S
C64 O65 1.245 . S
C64 O76 1.232 . S
O65 C64 1.245 . S
O66 Co60 2.058 . S
O66 C92 1.269 . S
O67 Co59 2.074 . S
O67 C92 1.257 . S
H68 C93 0.930 1_554 S
H69 C99 0.930 . S
O70 Co59 2.093 . S
O70 C62 1.224 . S
H71 C103 0.929 . S
H72 C105 0.930 . S
H73 C106 0.930 . S
H74 C104 0.929 . S
H75 C107 0.928 . S
O76 Co60 2.057 . S
O76 C64 1.232 . S
H77 C96 0.929 . S
H78 C97 0.929 . S
H79 C109 0.931 . S
H80 C101 0.929 . S
H81 C110 0.930 . S
H82 C102 0.931 . S
O83 Co59 2.097 . S
O83 C111 1.214 . S
H84 C112 0.929 . S
H85 C113 0.929 . S
H86 C114 0.930 . S
H87 C115 0.929 . S
H88 C117 0.930 . S
H89 C94 0.930 1_455 S
H90 C98 0.930 1_554 S
O91 Co60 2.037 . S
O91 C111 1.234 . S
C92 O66 1.269 . S
C92 O67 1.257 . S
C93 H68 0.930 1_556 S
C93 C96 1.388 . S
C93 C98 1.418 . S
C94 H89 0.930 1_655 S
C94 C97 1.404 . S
C94 C98 1.353 . S
N95 Co60 2.145 . S
N95 C96 1.397 . S
N95 C97 1.334 . S
C96 H77 0.929 . S
C96 C93 1.388 . S
C96 N95 1.397 . S
C97 H78 0.929 . S
C97 C94 1.404 . S
C97 N95 1.334 . S
C98 H90 0.930 1_556 S
C98 C93 1.418 . S
C98 C94 1.353 . S
C99 H69 0.930 . S
C99 N100 1.330 . S
C99 C101 1.446 . S
N100 Co59 2.151 . S
N100 C99 1.330 . S
N100 C104 1.418 . S
C101 H80 0.929 . S
C101 C99 1.446 . S
C101 C102 1.332 . S
C102 H82 0.931 . S
C102 C101 1.332 . S
C102 C103 1.267 . S
C103 H71 0.929 . S
C103 C102 1.267 . S
C103 C104 1.251 . S
C104 H74 0.929 . S
C104 N100 1.418 . S
C104 C103 1.251 . S
C105 H72 0.930 . S
C105 C107 1.406 . S
C105 C110 1.261 . S
C106 H73 0.930 . S
C106 N108 1.325 . S
C106 C109 1.357 . S
C107 H75 0.928 . S
C107 C105 1.406 . S
C107 N108 1.261 . S
N108 Co59 2.214 . S
N108 C106 1.325 . S
N108 C107 1.261 . S
C109 H79 0.931 . S
C109 C106 1.357 . S
C109 C110 1.312 . S
C110 H81 0.930 . S
C110 C105 1.261 . S
C110 C109 1.312 . S
C111 O83 1.214 . S
C111 O91 1.234 . S
C112 H84 0.929 . S
C112 C115 1.391 . S
C112 C117 1.391 . S
C113 H85 0.929 . S
C113 C114 1.390 . S
C113 N116 1.391 . S
C114 H86 0.930 . S
C114 C113 1.390 . S
C114 C115 1.392 . S
C115 H87 0.929 . S
C115 C112 1.391 . S
C115 C114 1.392 . S
N116 Co60 2.257 . S
N116 C113 1.391 . S
N116 C117 1.388 . S
C117 H88 0.930 . S
C117 C112 1.391 . S
C117 N116 1.388 . S
Co118 O120 2.143 . S
Co118 O126 2.074 . S
Co118 O129 2.093 . S
Co118 O142 2.097 . S
Co118 N159 2.151 . S
Co118 N167 2.214 . S
Co119 O120 2.160 . S
Co119 O125 2.058 . S
Co119 O135 2.057 . S
Co119 O150 2.037 . S
Co119 N154 2.145 . S
Co119 N175 2.257 . S
O120 Co118 2.143 . S
O120 Co119 2.160 . S
C121 O122 1.278 . S
C121 O129 1.224 . S
O122 C121 1.278 . S
C123 O124 1.245 . S
C123 O135 1.232 . S
O124 C123 1.245 . S
O125 Co119 2.058 . S
O125 C151 1.269 . S
O126 Co118 2.074 . S
O126 C151 1.257 . S
H127 C152 0.930 1_554 S
H128 C158 0.930 . S
O129 Co118 2.093 . S
O129 C121 1.224 . S
H130 C162 0.929 . S
H131 C164 0.930 . S
H132 C165 0.930 . S
H133 C163 0.929 . S
H134 C166 0.928 . S
O135 Co119 2.057 . S
O135 C123 1.232 . S
H136 C155 0.929 . S
H137 C156 0.929 . S
H138 C168 0.931 . S
H139 C160 0.929 . S
H140 C169 0.930 . S
H141 C161 0.931 . S
O142 Co118 2.097 . S
O142 C170 1.214 . S
H143 C171 0.929 . S
H144 C172 0.929 . S
H145 C173 0.930 . S
H146 C174 0.929 . S
H147 C176 0.930 . S
H148 C153 0.930 . S
H149 C157 0.930 . S
O150 Co119 2.037 . S
O150 C170 1.234 . S
C151 O125 1.269 . S
C151 O126 1.257 . S
C152 H127 0.930 1_556 S
C152 C155 1.388 . S
C152 C157 1.418 1_556 S
C153 H148 0.930 . S
C153 C156 1.404 . S
C153 C157 1.353 1_556 S
N154 Co119 2.145 . S
N154 C155 1.397 . S
N154 C156 1.334 . S
C155 H136 0.929 . S
C155 C152 1.388 . S
C155 N154 1.397 . S
C156 H137 0.929 . S
C156 C153 1.404 . S
C156 N154 1.334 . S
C157 H149 0.930 . S
C157 C152 1.418 1_554 S
C157 C153 1.353 1_554 S
C158 H128 0.930 . S
C158 N159 1.330 . S
C158 C160 1.446 . S
N159 Co118 2.151 . S
N159 C158 1.330 . S
N159 C163 1.418 . S
C160 H139 0.929 . S
C160 C158 1.446 . S
C160 C161 1.332 . S
C161 H141 0.931 . S
C161 C160 1.332 . S
C161 C162 1.267 . S
C162 H130 0.929 . S
C162 C161 1.267 . S
C162 C163 1.251 . S
C163 H133 0.929 . S
C163 N159 1.418 . S
C163 C162 1.251 . S
C164 H131 0.930 . S
C164 C166 1.406 . S
C164 C169 1.261 . S
C165 H132 0.930 . S
C165 N167 1.325 . S
C165 C168 1.357 . S
C166 H134 0.928 . S
C166 C164 1.406 . S
C166 N167 1.261 . S
N167 Co118 2.214 . S
N167 C165 1.325 . S
N167 C166 1.261 . S
C168 H138 0.931 . S
C168 C165 1.357 . S
C168 C169 1.312 . S
C169 H140 0.930 . S
C169 C164 1.261 . S
C169 C168 1.312 . S
C170 O142 1.214 . S
C170 O150 1.234 . S
C171 H143 0.929 . S
C171 C174 1.391 . S
C171 C176 1.391 . S
C172 H144 0.929 . S
C172 C173 1.390 . S
C172 N175 1.391 . S
C173 H145 0.930 . S
C173 C172 1.390 . S
C173 C174 1.392 . S
C174 H146 0.929 . S
C174 C171 1.391 . S
C174 C173 1.392 . S
N175 Co119 2.257 . S
N175 C172 1.391 . S
N175 C176 1.388 . S
C176 H147 0.930 . S
C176 C171 1.391 . S
C176 N175 1.388 . S
Co177 O179 2.143 . S
Co177 O185 2.074 . S
Co177 O188 2.093 . S
Co177 O201 2.097 . S
Co177 N218 2.151 . S
Co177 N226 2.214 . S
Co178 O179 2.160 . S
Co178 O184 2.058 . S
Co178 O194 2.057 . S
Co178 O209 2.037 . S
Co178 N213 2.145 . S
Co178 N234 2.257 . S
O179 Co177 2.143 . S
O179 Co178 2.160 . S
C180 O181 1.278 . S
C180 O188 1.224 . S
O181 C180 1.278 . S
C182 O183 1.245 . S
C182 O194 1.232 . S
O183 C182 1.245 . S
O184 Co178 2.058 . S
O184 C210 1.269 . S
O185 Co177 2.074 . S
O185 C210 1.257 . S
H186 C211 0.930 . S
H187 C217 0.930 . S
O188 Co177 2.093 . S
O188 C180 1.224 . S
H189 C221 0.929 . S
H190 C223 0.930 . S
H191 C224 0.930 . S
H192 C222 0.929 . S
H193 C225 0.928 . S
O194 Co178 2.057 . S
O194 C182 1.232 . S
H195 C214 0.929 . S
H196 C215 0.929 . S
H197 C227 0.931 . S
H198 C219 0.929 . S
H199 C228 0.930 . S
H200 C220 0.931 1_556 S
O201 Co177 2.097 . S
O201 C229 1.214 . S
H202 C230 0.929 . S
H203 C231 0.929 . S
H204 C232 0.930 . S
H205 C233 0.929 . S
H206 C235 0.930 . S
H207 C212 0.930 . S
H208 C216 0.930 . S
O209 Co178 2.037 . S
O209 C229 1.234 . S
C210 O184 1.269 . S
C210 O185 1.257 . S
C211 H186 0.930 . S
C211 C214 1.388 . S
C211 C216 1.418 . S
C212 H207 0.930 . S
C212 C215 1.404 . S
C212 C216 1.353 . S
N213 Co178 2.145 . S
N213 C214 1.397 . S
N213 C215 1.334 . S
C214 H195 0.929 . S
C214 C211 1.388 . S
C214 N213 1.397 . S
C215 H196 0.929 . S
C215 C212 1.404 . S
C215 N213 1.334 . S
C216 H208 0.930 . S
C216 C211 1.418 . S
C216 C212 1.353 . S
C217 H187 0.930 . S
C217 N218 1.330 . S
C217 C219 1.446 . S
N218 Co177 2.151 . S
N218 C217 1.330 . S
N218 C222 1.418 . S
C219 H198 0.929 . S
C219 C217 1.446 . S
C219 C220 1.332 . S
C220 H200 0.931 1_554 S
C220 C219 1.332 . S
C220 C221 1.267 . S
C221 H189 0.929 . S
C221 C220 1.267 . S
C221 C222 1.251 . S
C222 H192 0.929 . S
C222 N218 1.418 . S
C222 C221 1.251 . S
C223 H190 0.930 . S
C223 C225 1.406 . S
C223 C228 1.261 . S
C224 H191 0.930 . S
C224 N226 1.325 . S
C224 C227 1.357 . S
C225 H193 0.928 . S
C225 C223 1.406 . S
C225 N226 1.261 . S
N226 Co177 2.214 . S
N226 C224 1.325 . S
N226 C225 1.261 . S
C227 H197 0.931 . S
C227 C224 1.357 . S
C227 C228 1.312 . S
C228 H199 0.930 . S
C228 C223 1.261 . S
C228 C227 1.312 . S
C229 O201 1.214 . S
C229 O209 1.234 . S
C230 H202 0.929 . S
C230 C233 1.391 . S
C230 C235 1.391 . S
C231 H203 0.929 . S
C231 C232 1.390 . S
C231 N234 1.391 . S
C232 H204 0.930 . S
C232 C231 1.390 . S
C232 C233 1.392 . S
C233 H205 0.929 . S
C233 C230 1.391 . S
C233 C232 1.392 . S
N234 Co178 2.257 . S
N234 C231 1.391 . S
N234 C235 1.388 . S
C235 H206 0.930 . S
C235 C230 1.391 . S
C235 N234 1.388 . S
Co236 O238 2.143 . S
Co236 O244 2.074 . S
Co236 O247 2.093 . S
Co236 O260 2.097 . S
Co236 N277 2.151 . S
Co236 N285 2.214 . S
Co237 O238 2.160 . S
Co237 O243 2.058 . S
Co237 O253 2.057 . S
Co237 O268 2.037 . S
Co237 N272 2.145 . S
Co237 N293 2.257 . S
O238 Co236 2.143 . S
O238 Co237 2.160 . S
C239 O240 1.278 . S
C239 O247 1.224 . S
O240 C239 1.278 . S
C241 O242 1.245 . S
C241 O253 1.232 . S
O242 C241 1.245 . S
O243 Co237 2.058 . S
O243 C269 1.269 . S
O244 Co236 2.074 . S
O244 C269 1.257 . S
H245 C270 0.930 . S
H246 C276 0.930 . S
O247 Co236 2.093 . S
O247 C239 1.224 . S
H248 C280 0.929 . S
H249 C282 0.930 . S
H250 C283 0.930 . S
H251 C281 0.929 . S
H252 C284 0.928 . S
O253 Co237 2.057 . S
O253 C241 1.232 . S
H254 C273 0.929 . S
H255 C274 0.929 . S
H256 C286 0.931 . S
H257 C278 0.929 1_556 S
H258 C287 0.930 . S
H259 C279 0.931 1_556 S
O260 Co236 2.097 . S
O260 C288 1.214 . S
H261 C289 0.929 . S
H262 C290 0.929 . S
H263 C291 0.930 . S
H264 C292 0.929 . S
H265 C294 0.930 . S
H266 C271 0.930 . S
H267 C275 0.930 . S
O268 Co237 2.037 . S
O268 C288 1.234 . S
C269 O243 1.269 . S
C269 O244 1.257 . S
C270 H245 0.930 . S
C270 C273 1.388 . S
C270 C275 1.418 . S
C271 H266 0.930 . S
C271 C274 1.404 . S
C271 C275 1.353 . S
N272 Co237 2.145 . S
N272 C273 1.397 . S
N272 C274 1.334 . S
C273 H254 0.929 . S
C273 C270 1.388 . S
C273 N272 1.397 . S
C274 H255 0.929 . S
C274 C271 1.404 . S
C274 N272 1.334 . S
C275 H267 0.930 . S
C275 C270 1.418 . S
C275 C271 1.353 . S
C276 H246 0.930 . S
C276 N277 1.330 . S
C276 C278 1.446 . S
N277 Co236 2.151 . S
N277 C276 1.330 . S
N277 C281 1.418 . S
C278 H257 0.929 1_554 S
C278 C276 1.446 . S
C278 C279 1.332 . S
C279 H259 0.931 1_554 S
C279 C278 1.332 . S
C279 C280 1.267 . S
C280 H248 0.929 . S
C280 C279 1.267 . S
C280 C281 1.251 . S
C281 H251 0.929 . S
C281 N277 1.418 . S
C281 C280 1.251 . S
C282 H249 0.930 . S
C282 C284 1.406 . S
C282 C287 1.261 . S
C283 H250 0.930 . S
C283 N285 1.325 . S
C283 C286 1.357 . S
C284 H252 0.928 . S
C284 C282 1.406 . S
C284 N285 1.261 . S
N285 Co236 2.214 . S
N285 C283 1.325 . S
N285 C284 1.261 . S
C286 H256 0.931 . S
C286 C283 1.357 . S
C286 C287 1.312 . S
C287 H258 0.930 . S
C287 C282 1.261 . S
C287 C286 1.312 . S
C288 O260 1.214 . S
C288 O268 1.234 . S
C289 H261 0.929 . S
C289 C292 1.391 . S
C289 C294 1.391 . S
C290 H262 0.929 . S
C290 C291 1.390 . S
C290 N293 1.391 . S
C291 H263 0.930 . S
C291 C290 1.390 . S
C291 C292 1.392 . S
C292 H264 0.929 . S
C292 C289 1.391 . S
C292 C291 1.392 . S
N293 Co237 2.257 . S
N293 C290 1.391 . S
N293 C294 1.388 . S
C294 H265 0.930 . S
C294 C289 1.391 . S
C294 N293 1.388 . S
Co295 O297 2.143 . S
Co295 O303 2.074 . S
Co295 O306 2.093 . S
Co295 O319 2.097 1_556 S
Co295 N336 2.151 . S
Co295 N344 2.214 . S
Co296 O297 2.160 1_554 S
Co296 O302 2.058 . S
Co296 O312 2.057 . S
Co296 O327 2.037 . S
Co296 N331 2.145 . S
Co296 N352 2.257 . S
O297 Co295 2.143 . S
O297 Co296 2.160 1_556 S
C298 O299 1.278 . S
C298 O306 1.224 . S
O299 C298 1.278 . S
C300 O301 1.245 . S
C300 O312 1.232 1_556 S
O301 C300 1.245 . S
O302 Co296 2.058 . S
O302 C328 1.269 1_554 S
O303 Co295 2.074 . S
O303 C328 1.257 . S
H304 C329 0.930 . S
H305 C335 0.930 . S
O306 Co295 2.093 . S
O306 C298 1.224 . S
H307 C339 0.929 . S
H308 C341 0.930 . S
H309 C342 0.930 . S
H310 C340 0.929 . S
H311 C343 0.928 . S
O312 Co296 2.057 . S
O312 C300 1.232 1_554 S
H313 C332 0.929 . S
H314 C333 0.929 . S
H315 C345 0.931 . S
H316 C337 0.929 . S
H317 C346 0.930 . S
H318 C338 0.931 . S
O319 Co295 2.097 1_554 S
O319 C347 1.214 . S
H320 C348 0.929 . S
H321 C349 0.929 . S
H322 C350 0.930 . S
H323 C351 0.929 . S
H324 C353 0.930 . S
H325 C330 0.930 1_565 S
H326 C334 0.930 . S
O327 Co296 2.037 . S
O327 C347 1.234 . S
C328 O302 1.269 1_556 S
C328 O303 1.257 . S
C329 H304 0.930 . S
C329 C332 1.388 . S
C329 C334 1.418 . S
C330 H325 0.930 1_545 S
C330 C333 1.404 . S
C330 C334 1.353 . S
N331 Co296 2.145 . S
N331 C332 1.397 . S
N331 C333 1.334 . S
C332 H313 0.929 . S
C332 C329 1.388 . S
C332 N331 1.397 . S
C333 H314 0.929 . S
C333 C330 1.404 . S
C333 N331 1.334 . S
C334 H326 0.930 . S
C334 C329 1.418 . S
C334 C330 1.353 . S
C335 H305 0.930 . S
C335 N336 1.330 . S
C335 C337 1.446 . S
N336 Co295 2.151 . S
N336 C335 1.330 . S
N336 C340 1.418 . S
C337 H316 0.929 . S
C337 C335 1.446 . S
C337 C338 1.332 . S
C338 H318 0.931 . S
C338 C337 1.332 . S
C338 C339 1.267 . S
C339 H307 0.929 . S
C339 C338 1.267 . S
C339 C340 1.251 . S
C340 H310 0.929 . S
C340 N336 1.418 . S
C340 C339 1.251 . S
C341 H308 0.930 . S
C341 C343 1.406 . S
C341 C346 1.261 . S
C342 H309 0.930 . S
C342 N344 1.325 1_554 S
C342 C345 1.357 . S
C343 H311 0.928 . S
C343 C341 1.406 . S
C343 N344 1.261 . S
N344 Co295 2.214 . S
N344 C342 1.325 1_556 S
N344 C343 1.261 . S
C345 H315 0.931 . S
C345 C342 1.357 . S
C345 C346 1.312 1_554 S
C346 H317 0.930 . S
C346 C341 1.261 . S
C346 C345 1.312 1_556 S
C347 O319 1.214 . S
C347 O327 1.234 . S
C348 H320 0.929 . S
C348 C351 1.391 . S
C348 C353 1.391 . S
C349 H321 0.929 . S
C349 C350 1.390 . S
C349 N352 1.391 . S
C350 H322 0.930 . S
C350 C349 1.390 . S
C350 C351 1.392 . S
C351 H323 0.929 . S
C351 C348 1.391 . S
C351 C350 1.392 . S
N352 Co296 2.257 . S
N352 C349 1.391 . S
N352 C353 1.388 . S
C353 H324 0.930 . S
C353 C348 1.391 . S
C353 N352 1.388 . S
H354 C366 0.930 . S
H355 C368 0.930 . S
H356 C369 0.930 . S
H357 C373 0.959 . S
H358 C373 0.959 . S
H359 C373 0.961 . S
H360 C374 0.960 . S
H361 C374 0.961 . S
H362 C374 0.959 . S
H363 C377 0.929 . S
H364 C378 0.931 . S
H365 C380 0.930 . S
C366 H354 0.930 . S
C366 C367 1.399 . S
C366 C371 1.399 . S
C367 C366 1.399 . S
C367 C368 1.376 1_554 S
C368 H355 0.930 . S
C368 C367 1.376 1_556 S
C368 C369 1.388 . S
C369 H356 0.930 . S
C369 C368 1.388 . S
C369 C370 1.390 . S
C370 C369 1.390 . S
C370 C371 1.394 1_556 S
C370 C376 1.465 . S
C371 C366 1.399 . S
C371 C370 1.394 1_554 S
C371 C372 1.516 . S
C372 C371 1.516 . S
C372 C373 1.502 . S
C372 C374 1.561 . S
C372 C375 1.526 . S
C373 H357 0.959 . S
C373 H358 0.959 . S
C373 H359 0.961 . S
C373 C372 1.502 . S
C374 H360 0.960 . S
C374 H361 0.961 . S
C374 H362 0.959 . S
C374 C372 1.561 . S
C375 C372 1.526 . S
C375 C376 1.396 1_554 S
C375 C380 1.390 . S
C376 C370 1.465 . S
C376 C375 1.396 1_556 S
C376 C377 1.399 . S
C377 H363 0.929 . S
C377 C376 1.399 . S
C377 C378 1.385 . S
C378 H364 0.931 . S
C378 C377 1.385 . S
C378 C379 1.389 . S
C379 C378 1.389 . S
C379 C380 1.387 1_556 S
C380 H365 0.930 . S
C380 C375 1.390 . S
C380 C379 1.387 1_554 S
H381 C393 0.930 . S
H382 C395 0.930 . S
H383 C396 0.930 . S
H384 C400 0.959 . S
H385 C400 0.959 . S
H386 C400 0.961 . S
H387 C401 0.960 . S
H388 C401 0.961 . S
H389 C401 0.959 . S
H390 C404 0.929 . S
H391 C405 0.931 . S
H392 C407 0.930 . S
C393 H381 0.930 . S
C393 C394 1.399 1_455 S
C393 C398 1.399 . S
C394 C393 1.399 1_655 S
C394 C395 1.376 . S
C395 H382 0.930 . S
C395 C394 1.376 . S
C395 C396 1.388 . S
C396 H383 0.930 . S
C396 C395 1.388 . S
C396 C397 1.390 1_655 S
C397 C396 1.390 1_455 S
C397 C398 1.394 . S
C397 C403 1.465 . S
C398 C393 1.399 . S
C398 C397 1.394 . S
C398 C399 1.516 . S
C399 C398 1.516 . S
C399 C400 1.502 . S
C399 C401 1.561 . S
C399 C402 1.526 . S
C400 H384 0.959 . S
C400 H385 0.959 . S
C400 H386 0.961 . S
C400 C399 1.502 . S
C401 H387 0.960 . S
C401 H388 0.961 . S
C401 H389 0.959 . S
C401 C399 1.561 . S
C402 C399 1.526 . S
C402 C403 1.396 . S
C402 C407 1.390 . S
C403 C397 1.465 . S
C403 C402 1.396 . S
C403 C404 1.399 1_455 S
C404 H390 0.929 . S
C404 C403 1.399 1_655 S
C404 C405 1.385 1_655 S
C405 H391 0.931 . S
C405 C404 1.385 1_455 S
C405 C406 1.389 . S
C406 C405 1.389 . S
C406 C407 1.387 . S
C407 H392 0.930 . S
C407 C402 1.390 . S
C407 C406 1.387 . S
H408 C420 0.930 . S
H409 C422 0.930 . S
H410 C423 0.930 . S
H411 C427 0.959 . S
H412 C427 0.959 . S
H413 C427 0.961 . S
H414 C428 0.960 . S
H415 C428 0.961 . S
H416 C428 0.959 . S
H417 C431 0.929 . S
H418 C432 0.931 . S
H419 C434 0.930 . S
C420 H408 0.930 . S
C420 C421 1.399 . S
C420 C425 1.399 . S
C421 C420 1.399 . S
C421 C422 1.376 . S
C422 H409 0.930 . S
C422 C421 1.376 . S
C422 C423 1.388 . S
C423 H410 0.930 . S
C423 C422 1.388 . S
C423 C424 1.390 . S
C424 C423 1.390 . S
C424 C425 1.394 . S
C424 C430 1.465 . S
C425 C420 1.399 . S
C425 C424 1.394 . S
C425 C426 1.516 . S
C426 C425 1.516 . S
C426 C427 1.502 . S
C426 C428 1.561 . S
C426 C429 1.526 1_545 S
C427 H411 0.959 . S
C427 H412 0.959 . S
C427 H413 0.961 . S
C427 C426 1.502 . S
C428 H414 0.960 . S
C428 H415 0.961 . S
C428 H416 0.959 . S
C428 C426 1.561 . S
C429 C426 1.526 1_565 S
C429 C430 1.396 1_565 S
C429 C434 1.390 . S
C430 C424 1.465 . S
C430 C429 1.396 1_545 S
C430 C431 1.399 1_545 S
C431 H417 0.929 . S
C431 C430 1.399 1_565 S
C431 C432 1.385 . S
C432 H418 0.931 . S
C432 C431 1.385 . S
C432 C433 1.389 . S
C433 C432 1.389 . S
C433 C434 1.387 . S
C434 H419 0.930 . S
C434 C429 1.390 . S
C434 C433 1.387 . S
H435 C447 0.930 . S
H436 C449 0.930 . S
H437 C450 0.930 . S
H438 C454 0.959 . S
H439 C454 0.959 . S
H440 C454 0.961 . S
H441 C455 0.960 1_554 S
H442 C455 0.961 . S
H443 C455 0.959 . S
H444 C458 0.929 . S
H445 C459 0.931 . S
H446 C461 0.930 . S
C447 H435 0.930 . S
C447 C448 1.399 . S
C447 C452 1.399 . S
C448 C447 1.399 . S
C448 C449 1.376 . S
C449 H436 0.930 . S
C449 C448 1.376 . S
C449 C450 1.388 . S
C450 H437 0.930 . S
C450 C449 1.388 . S
C450 C451 1.390 . S
C451 C450 1.390 . S
C451 C452 1.394 . S
C451 C457 1.465 1_554 S
C452 C447 1.399 . S
C452 C451 1.394 . S
C452 C453 1.516 1_554 S
C453 C452 1.516 1_556 S
C453 C454 1.502 . S
C453 C455 1.561 . S
C453 C456 1.526 . S
C454 H438 0.959 . S
C454 H439 0.959 . S
C454 H440 0.961 . S
C454 C453 1.502 . S
C455 H441 0.960 1_556 S
C455 H442 0.961 . S
C455 H443 0.959 . S
C455 C453 1.561 . S
C456 C453 1.526 . S
C456 C457 1.396 . S
C456 C461 1.390 . S
C457 C451 1.465 1_556 S
C457 C456 1.396 . S
C457 C458 1.399 . S
C458 H444 0.929 . S
C458 C457 1.399 . S
C458 C459 1.385 . S
C459 H445 0.931 . S
C459 C458 1.385 . S
C459 C460 1.389 . S
C460 C459 1.389 . S
C460 C461 1.387 . S
C461 H446 0.930 . S
C461 C456 1.390 . S
C461 C460 1.387 . S
H462 C474 0.930 . S
H463 C476 0.930 . S
H464 C477 0.930 . S
H465 C481 0.959 . S
H466 C481 0.959 . S
H467 C481 0.961 . S
H468 C482 0.960 . S
H469 C482 0.961 . S
H470 C482 0.959 . S
H471 C485 0.929 . S
H472 C486 0.931 . S
H473 C488 0.930 . S
C474 H462 0.930 . S
C474 C475 1.399 . S
C474 C479 1.399 . S
C475 C474 1.399 . S
C475 C476 1.376 . S
C476 H463 0.930 . S
C476 C475 1.376 . S
C476 C477 1.388 . S
C477 H464 0.930 . S
C477 C476 1.388 . S
C477 C478 1.390 . S
C478 C477 1.390 . S
C478 C479 1.394 . S
C478 C484 1.465 . S
C479 C474 1.399 . S
C479 C478 1.394 . S
C479 C480 1.516 . S
C480 C479 1.516 . S
C480 C481 1.502 . S
C480 C482 1.561 . S
C480 C483 1.526 1_655 S
C481 H465 0.959 . S
C481 H466 0.959 . S
C481 H467 0.961 . S
C481 C480 1.502 . S
C482 H468 0.960 . S
C482 H469 0.961 . S
C482 H470 0.959 . S
C482 C480 1.561 . S
C483 C480 1.526 1_455 S
C483 C484 1.396 1_455 S
C483 C488 1.390 . S
C484 C478 1.465 . S
C484 C483 1.396 1_655 S
C484 C485 1.399 1_655 S
C485 H471 0.929 . S
C485 C484 1.399 1_455 S
C485 C486 1.385 . S
C486 H472 0.931 . S
C486 C485 1.385 . S
C486 C487 1.389 . S
C487 C486 1.389 . S
C487 C488 1.387 . S
C488 H473 0.930 . S
C488 C483 1.390 . S
C488 C487 1.387 . S
H489 C501 0.930 . S
H490 C503 0.930 . S
H491 C504 0.930 . S
H492 C508 0.959 1_565 S
H493 C508 0.959 . S
H494 C508 0.961 . S
H495 C509 0.960 . S
H496 C509 0.961 . S
H497 C509 0.959 . S
H498 C512 0.929 . S
H499 C513 0.931 . S
H500 C515 0.930 . S
C501 H489 0.930 . S
C501 C502 1.399 . S
C501 C506 1.399 . S
C502 C501 1.399 . S
C502 C503 1.376 1_545 S
C503 H490 0.930 . S
C503 C502 1.376 1_565 S
C503 C504 1.388 . S
C504 H491 0.930 . S
C504 C503 1.388 . S
C504 C505 1.390 . S
C505 C504 1.390 . S
C505 C506 1.394 1_565 S
C505 C511 1.465 . S
C506 C501 1.399 . S
C506 C505 1.394 1_545 S
C506 C507 1.516 . S
C507 C506 1.516 . S
C507 C508 1.502 . S
C507 C509 1.561 . S
C507 C510 1.526 1_545 S
C508 H492 0.959 1_545 S
C508 H493 0.959 . S
C508 H494 0.961 . S
C508 C507 1.502 . S
C509 H495 0.960 . S
C509 H496 0.961 . S
C509 H497 0.959 . S
C509 C507 1.561 . S
C510 C507 1.526 1_565 S
C510 C511 1.396 . S
C510 C515 1.390 . S
C511 C505 1.465 . S
C511 C510 1.396 . S
C511 C512 1.399 . S
C512 H498 0.929 . S
C512 C511 1.399 . S
C512 C513 1.385 . S
C513 H499 0.931 . S
C513 C512 1.385 . S
C513 C514 1.389 . S
C514 C513 1.389 . S
C514 C515 1.387 . S
C515 H500 0.930 . S
C515 C510 1.390 . S
C515 C514 1.387 . S
H516 C528 0.930 . S
H517 C530 0.930 . S
H518 C531 0.930 . S
H519 C535 0.959 1_554 S
H520 C535 0.959 . S
H521 C535 0.961 . S
H522 C536 0.960 . S
H523 C536 0.961 . S
H524 C536 0.959 . S
H525 C539 0.929 . S
H526 C540 0.931 . S
H527 C542 0.930 . S
C528 H516 0.930 . S
C528 C529 1.399 . S
C528 C533 1.399 . S
C529 C528 1.399 . S
C529 C530 1.376 . S
C530 H517 0.930 . S
C530 C529 1.376 . S
C530 C531 1.388 . S
C531 H518 0.930 . S
C531 C530 1.388 . S
C531 C532 1.390 . S
C532 C531 1.390 . S
C532 C533 1.394 . S
C532 C538 1.465 . S
C533 C528 1.399 . S
C533 C532 1.394 . S
C533 C534 1.516 . S
C534 C533 1.516 . S
C534 C535 1.502 1_554 S
C534 C536 1.561 1_554 S
C534 C537 1.526 . S
C535 H519 0.959 1_556 S
C535 H520 0.959 . S
C535 H521 0.961 . S
C535 C534 1.502 1_556 S
C536 H522 0.960 . S
C536 H523 0.961 . S
C536 H524 0.959 . S
C536 C534 1.561 1_556 S
C537 C534 1.526 . S
C537 C538 1.396 . S
C537 C542 1.390 . S
C538 C532 1.465 . S
C538 C537 1.396 . S
C538 C539 1.399 . S
C539 H525 0.929 . S
C539 C538 1.399 . S
C539 C540 1.385 . S
C540 H526 0.931 . S
C540 C539 1.385 . S
C540 C541 1.389 . S
C541 C540 1.389 . S
C541 C542 1.387 . S
C542 H527 0.930 . S
C542 C537 1.390 . S
C542 C541 1.387 . S
H543 C555 0.930 . S
H544 C557 0.930 1_554 S
H545 C558 0.930 1_554 S
H546 C562 0.959 . S
H547 C562 0.959 . S
H548 C562 0.961 . S
H549 C563 0.960 . S
H550 C563 0.961 . S
H551 C563 0.959 . S
H552 C566 0.929 1_554 S
H553 C567 0.931 . S
H554 C569 0.930 . S
C555 H543 0.930 . S
C555 C556 1.399 . S
C555 C560 1.399 . S
C556 C555 1.399 . S
C556 C557 1.376 . S
C557 H544 0.930 1_556 S
C557 C556 1.376 . S
C557 C558 1.388 . S
C558 H545 0.930 1_556 S
C558 C557 1.388 . S
C558 C559 1.390 . S
C559 C558 1.390 . S
C559 C560 1.394 . S
C559 C565 1.465 . S
C560 C555 1.399 . S
C560 C559 1.394 . S
C560 C561 1.516 . S
C561 C560 1.516 . S
C561 C562 1.502 . S
C561 C563 1.561 . S
C561 C564 1.526 . S
C562 H546 0.959 . S
C562 H547 0.959 . S
C562 H548 0.961 . S
C562 C561 1.502 . S
C563 H549 0.960 . S
C563 H550 0.961 . S
C563 H551 0.959 . S
C563 C561 1.561 . S
C564 C561 1.526 . S
C564 C565 1.396 . S
C564 C569 1.390 . S
C565 C559 1.465 . S
C565 C564 1.396 . S
C565 C566 1.399 . S
C566 H552 0.929 1_556 S
C566 C565 1.399 . S
C566 C567 1.385 . S
C567 H553 0.931 . S
C567 C566 1.385 . S
C567 C568 1.389 . S
C568 C567 1.389 . S
C568 C569 1.387 . S
C569 H554 0.930 . S
C569 C564 1.390 . S
C569 C568 1.387 . S
H570 C582 0.930 . S
H571 C584 0.930 . S
H572 C585 0.930 . S
H573 C589 0.959 . S
H574 C589 0.959 . S
H575 C589 0.961 . S
H576 C590 0.960 . S
H577 C590 0.961 . S
H578 C590 0.959 . S
H579 C593 0.929 . S
H580 C594 0.931 . S
H581 C596 0.930 . S
C582 H570 0.930 . S
C582 C583 1.399 . S
C582 C587 1.399 . S
C583 C582 1.399 . S
C583 C584 1.376 . S
C584 H571 0.930 . S
C584 C583 1.376 . S
C584 C585 1.388 . S
C585 H572 0.930 . S
C585 C584 1.388 . S
C585 C586 1.390 . S
C586 C585 1.390 . S
C586 C587 1.394 . S
C586 C592 1.465 . S
C587 C582 1.399 . S
C587 C586 1.394 . S
C587 C588 1.516 . S
C588 C587 1.516 . S
C588 C589 1.502 . S
C588 C590 1.561 . S
C588 C591 1.526 . S
C589 H573 0.959 . S
C589 H574 0.959 . S
C589 H575 0.961 . S
C589 C588 1.502 . S
C590 H576 0.960 . S
C590 H577 0.961 . S
C590 H578 0.959 . S
C590 C588 1.561 . S
C591 C588 1.526 . S
C591 C592 1.396 . S
C591 C596 1.390 . S
C592 C586 1.465 . S
C592 C591 1.396 . S
C592 C593 1.399 . S
C593 H579 0.929 . S
C593 C592 1.399 . S
C593 C594 1.385 . S
C594 H580 0.931 . S
C594 C593 1.385 . S
C594 C595 1.389 . S
C595 C594 1.389 . S
C595 C596 1.387 . S
C596 H581 0.930 . S
C596 C591 1.390 . S
C596 C595 1.387 . S
H597 C609 0.930 . S
H598 C611 0.930 . S
H599 C612 0.930 . S
H600 C616 0.959 . S
H601 C616 0.959 . S
H602 C616 0.961 . S
H603 C617 0.960 . S
H604 C617 0.961 . S
H605 C617 0.959 . S
H606 C620 0.929 . S
H607 C621 0.931 . S
H608 C623 0.930 . S
C609 H597 0.930 . S
C609 C610 1.399 . S
C609 C614 1.399 . S
C610 C609 1.399 . S
C610 C611 1.376 . S
C611 H598 0.930 . S
C611 C610 1.376 . S
C611 C612 1.388 . S
C612 H599 0.930 . S
C612 C611 1.388 . S
C612 C613 1.390 . S
C613 C612 1.390 . S
C613 C614 1.394 . S
C613 C619 1.465 . S
C614 C609 1.399 . S
C614 C613 1.394 . S
C614 C615 1.516 . S
C615 C614 1.516 . S
C615 C616 1.502 . S
C615 C617 1.561 . S
C615 C618 1.526 . S
C616 H600 0.959 . S
C616 H601 0.959 . S
C616 H602 0.961 . S
C616 C615 1.502 . S
C617 H603 0.960 . S
C617 H604 0.961 . S
C617 H605 0.959 . S
C617 C615 1.561 . S
C618 C615 1.526 . S
C618 C619 1.396 . S
C618 C623 1.390 . S
C619 C613 1.465 . S
C619 C618 1.396 . S
C619 C620 1.399 . S
C620 H606 0.929 . S
C620 C619 1.399 . S
C620 C621 1.385 . S
C621 H607 0.931 . S
C621 C620 1.385 . S
C621 C622 1.389 . S
C622 C621 1.389 . S
C622 C623 1.387 . S
C623 H608 0.930 . S
C623 C618 1.390 . S
C623 C622 1.387 . S
H624 C636 0.930 . S
H625 C638 0.930 . S
H626 C639 0.930 . S
H627 C643 0.959 . S
H628 C643 0.959 . S
H629 C643 0.961 . S
H630 C644 0.960 . S
H631 C644 0.961 . S
H632 C644 0.959 . S
H633 C647 0.929 . S
H634 C648 0.931 . S
H635 C650 0.930 . S
C636 H624 0.930 . S
C636 C637 1.399 . S
C636 C641 1.399 . S
C637 C636 1.399 . S
C637 C638 1.376 . S
C638 H625 0.930 . S
C638 C637 1.376 . S
C638 C639 1.388 . S
C639 H626 0.930 . S
C639 C638 1.388 . S
C639 C640 1.390 . S
C640 C639 1.390 . S
C640 C641 1.394 . S
C640 C646 1.465 . S
C641 C636 1.399 . S
C641 C640 1.394 . S
C641 C642 1.516 . S
C642 C641 1.516 . S
C642 C643 1.502 . S
C642 C644 1.561 . S
C642 C645 1.526 . S
C643 H627 0.959 . S
C643 H628 0.959 . S
C643 H629 0.961 . S
C643 C642 1.502 . S
C644 H630 0.960 . S
C644 H631 0.961 . S
C644 H632 0.959 . S
C644 C642 1.561 . S
C645 C642 1.526 . S
C645 C646 1.396 . S
C645 C650 1.390 . S
C646 C640 1.465 . S
C646 C645 1.396 . S
C646 C647 1.399 . S
C647 H633 0.929 . S
C647 C646 1.399 . S
C647 C648 1.385 . S
C648 H634 0.931 . S
C648 C647 1.385 . S
C648 C649 1.389 . S
C649 C648 1.389 . S
C649 C650 1.387 . S
C650 H635 0.930 . S
C650 C645 1.390 . S
C650 C649 1.387 . S
H651 C663 0.930 . S
H652 C665 0.930 . S
H653 C666 0.930 . S
H654 C670 0.959 . S
H655 C670 0.959 . S
H656 C670 0.961 . S
H657 C671 0.960 . S
H658 C671 0.961 . S
H659 C671 0.959 . S
H660 C674 0.929 . S
H661 C675 0.931 . S
H662 C677 0.930 . S
C663 H651 0.930 . S
C663 C664 1.399 . S
C663 C668 1.399 . S
C664 C663 1.399 . S
C664 C665 1.376 . S
C665 H652 0.930 . S
C665 C664 1.376 . S
C665 C666 1.388 . S
C666 H653 0.930 . S
C666 C665 1.388 . S
C666 C667 1.390 . S
C667 C666 1.390 . S
C667 C668 1.394 . S
C667 C673 1.465 . S
C668 C663 1.399 . S
C668 C667 1.394 . S
C668 C669 1.516 . S
C669 C668 1.516 . S
C669 C670 1.502 . S
C669 C671 1.561 . S
C669 C672 1.526 . S
C670 H654 0.959 . S
C670 H655 0.959 . S
C670 H656 0.961 . S
C670 C669 1.502 . S
C671 H657 0.960 . S
C671 H658 0.961 . S
C671 H659 0.959 . S
C671 C669 1.561 . S
C672 C669 1.526 . S
C672 C673 1.396 . S
C672 C677 1.390 . S
C673 C667 1.465 . S
C673 C672 1.396 . S
C673 C674 1.399 . S
C674 H660 0.929 . S
C674 C673 1.399 . S
C674 C675 1.385 . S
C675 H661 0.931 . S
C675 C674 1.385 . S
C675 C676 1.389 . S
C676 C675 1.389 . S
C676 C677 1.387 . S
C677 H662 0.930 . S
C677 C672 1.390 . S
C677 C676 1.387 . S
C367 C5 1.354 . S
C379 C328 1.378 . S
C394 C64 2.146 . S
C406 C33 2.219 . S
C421 C92 1.417 . S
C433 C123 1.424 . S
C448 C182 2.227 . S
C460 C151 2.150 . S
C475 C210 1.415 . S
C487 C241 1.409 . S
C502 C300 2.210 . S
C514 C269 2.134 . S
C529 C239 1.434 . S
C541 C52 1.660 . S
C556 C298 1.563 . S
C568 C111 1.547 . S
C583 C170 1.669 . S
C595 C3 1.448 . S
C610 C229 1.480 . S
C622 C62 1.637 . S
C637 C288 1.604 . S
C649 C121 1.548 . S
C664 C347 1.506 . S
C676 C180 1.642 . S
