# Generated by pormake.
# Topology uli, (4)-cn, num edge types: 1
# Building blocks:
#     Node 0, Type 0, BuildingBlock: CEKHIL_clean_sbu_0, # of connection points: 4
#     Node 1, Type 0, BuildingBlock: CEKHIL_clean_sbu_0, # of connection points: 4
#     Node 2, Type 0, BuildingBlock: CEKHIL_clean_sbu_0, # of connection points: 4
#     Node 3, Type 0, BuildingBlock: CEKHIL_clean_sbu_0, # of connection points: 4
#     Node 4, Type 0, BuildingBlock: CEKHIL_clean_sbu_0, # of connection points: 4
#     Node 5, Type 0, BuildingBlock: CEKHIL_clean_sbu_0, # of connection points: 4
#     Node 6, Type 0, BuildingBlock: CEKHIL_clean_sbu_0, # of connection points: 4
#     Node 7, Type 0, BuildingBlock: CEKHIL_clean_sbu_0, # of connection points: 4
#     Node 8, Type 0, BuildingBlock: CEKHIL_clean_sbu_0, # of connection points: 4
#     Node 9, Type 0, BuildingBlock: CEKHIL_clean_sbu_0, # of connection points: 4
#     Node 10, Type 0, BuildingBlock: CEKHIL_clean_sbu_0, # of connection points: 4
#     Node 11, Type 0, BuildingBlock: CEKHIL_clean_sbu_0, # of connection points: 4
#     Node 12, Type 0, BuildingBlock: CEKHIL_clean_sbu_0, # of connection points: 4
#     Node 13, Type 0, BuildingBlock: CEKHIL_clean_sbu_0, # of connection points: 4
#     Node 14, Type 0, BuildingBlock: CEKHIL_clean_sbu_0, # of connection points: 4
#     Node 15, Type 0, BuildingBlock: CEKHIL_clean_sbu_0, # of connection points: 4
#     Node 16, Type 0, BuildingBlock: CEKHIL_clean_sbu_0, # of connection points: 4
#     Node 17, Type 0, BuildingBlock: CEKHIL_clean_sbu_0, # of connection points: 4
#     Node 18, Type 0, BuildingBlock: CEKHIL_clean_sbu_0, # of connection points: 4
#     Node 19, Type 0, BuildingBlock: CEKHIL_clean_sbu_0, # of connection points: 4
#     Node 20, Type 0, BuildingBlock: CEKHIL_clean_sbu_0, # of connection points: 4
#     Node 21, Type 0, BuildingBlock: CEKHIL_clean_sbu_0, # of connection points: 4
#     Node 22, Type 0, BuildingBlock: CEKHIL_clean_sbu_0, # of connection points: 4
#     Node 23, Type 0, BuildingBlock: CEKHIL_clean_sbu_0, # of connection points: 4
#     Node 24, Type 0, BuildingBlock: CEKHIL_clean_sbu_0, # of connection points: 4
#     Node 25, Type 0, BuildingBlock: CEKHIL_clean_sbu_0, # of connection points: 4
#     Node 26, Type 0, BuildingBlock: CEKHIL_clean_sbu_0, # of connection points: 4
#     Node 27, Type 0, BuildingBlock: CEKHIL_clean_sbu_0, # of connection points: 4
#     Node 28, Type 0, BuildingBlock: CEKHIL_clean_sbu_0, # of connection points: 4
#     Node 29, Type 0, BuildingBlock: CEKHIL_clean_sbu_0, # of connection points: 4
#     Node 30, Type 0, BuildingBlock: CEKHIL_clean_sbu_0, # of connection points: 4
#     Node 31, Type 0, BuildingBlock: CEKHIL_clean_sbu_0, # of connection points: 4
#     Node 32, Type 0, BuildingBlock: CEKHIL_clean_sbu_0, # of connection points: 4
#     Node 33, Type 0, BuildingBlock: CEKHIL_clean_sbu_0, # of connection points: 4
#     Node 34, Type 0, BuildingBlock: CEKHIL_clean_sbu_0, # of connection points: 4
#     Node 35, Type 0, BuildingBlock: CEKHIL_clean_sbu_0, # of connection points: 4
#     Node 36, Type 0, BuildingBlock: CEKHIL_clean_sbu_0, # of connection points: 4
#     Node 37, Type 0, BuildingBlock: CEKHIL_clean_sbu_0, # of connection points: 4
#     Node 38, Type 0, BuildingBlock: CEKHIL_clean_sbu_0, # of connection points: 4
#     Node 39, Type 0, BuildingBlock: CEKHIL_clean_sbu_0, # of connection points: 4
#     Node 40, Type 0, BuildingBlock: CEKHIL_clean_sbu_0, # of connection points: 4
#     Node 41, Type 0, BuildingBlock: CEKHIL_clean_sbu_0, # of connection points: 4
#     Node 42, Type 0, BuildingBlock: CEKHIL_clean_sbu_0, # of connection points: 4
#     Node 43, Type 0, BuildingBlock: CEKHIL_clean_sbu_0, # of connection points: 4
#     Node 44, Type 0, BuildingBlock: CEKHIL_clean_sbu_0, # of connection points: 4
#     Node 45, Type 0, BuildingBlock: CEKHIL_clean_sbu_0, # of connection points: 4
#     Node 46, Type 0, BuildingBlock: CEKHIL_clean_sbu_0, # of connection points: 4
#     Node 47, Type 0, BuildingBlock: CEKHIL_clean_sbu_0, # of connection points: 4
#     Edge 48, Type (0, 0), BuildingBlock: ZUJKAS_clean_linker_0, # of connection points: 2
#     Edge 49, Type (0, 0), BuildingBlock: ZUJKAS_clean_linker_0, # of connection points: 2
#     Edge 50, Type (0, 0), BuildingBlock: ZUJKAS_clean_linker_0, # of connection points: 2
#     Edge 51, Type (0, 0), BuildingBlock: ZUJKAS_clean_linker_0, # of connection points: 2
#     Edge 52, Type (0, 0), BuildingBlock: ZUJKAS_clean_linker_0, # of connection points: 2
#     Edge 53, Type (0, 0), BuildingBlock: ZUJKAS_clean_linker_0, # of connection points: 2
#     Edge 54, Type (0, 0), BuildingBlock: ZUJKAS_clean_linker_0, # of connection points: 2
#     Edge 55, Type (0, 0), BuildingBlock: ZUJKAS_clean_linker_0, # of connection points: 2
#     Edge 56, Type (0, 0), BuildingBlock: ZUJKAS_clean_linker_0, # of connection points: 2
#     Edge 57, Type (0, 0), BuildingBlock: ZUJKAS_clean_linker_0, # of connection points: 2
#     Edge 58, Type (0, 0), BuildingBlock: ZUJKAS_clean_linker_0, # of connection points: 2
#     Edge 59, Type (0, 0), BuildingBlock: ZUJKAS_clean_linker_0, # of connection points: 2
#     Edge 60, Type (0, 0), BuildingBlock: ZUJKAS_clean_linker_0, # of connection points: 2
#     Edge 61, Type (0, 0), BuildingBlock: ZUJKAS_clean_linker_0, # of connection points: 2
#     Edge 62, Type (0, 0), BuildingBlock: ZUJKAS_clean_linker_0, # of connection points: 2
#     Edge 63, Type (0, 0), BuildingBlock: ZUJKAS_clean_linker_0, # of connection points: 2
#     Edge 64, Type (0, 0), BuildingBlock: ZUJKAS_clean_linker_0, # of connection points: 2
#     Edge 65, Type (0, 0), BuildingBlock: ZUJKAS_clean_linker_0, # of connection points: 2
#     Edge 66, Type (0, 0), BuildingBlock: ZUJKAS_clean_linker_0, # of connection points: 2
#     Edge 67, Type (0, 0), BuildingBlock: ZUJKAS_clean_linker_0, # of connection points: 2
#     Edge 68, Type (0, 0), BuildingBlock: ZUJKAS_clean_linker_0, # of connection points: 2
#     Edge 69, Type (0, 0), BuildingBlock: ZUJKAS_clean_linker_0, # of connection points: 2
#     Edge 70, Type (0, 0), BuildingBlock: ZUJKAS_clean_linker_0, # of connection points: 2
#     Edge 71, Type (0, 0), BuildingBlock: ZUJKAS_clean_linker_0, # of connection points: 2
#     Edge 72, Type (0, 0), BuildingBlock: ZUJKAS_clean_linker_0, # of connection points: 2
#     Edge 73, Type (0, 0), BuildingBlock: ZUJKAS_clean_linker_0, # of connection points: 2
#     Edge 74, Type (0, 0), BuildingBlock: ZUJKAS_clean_linker_0, # of connection points: 2
#     Edge 75, Type (0, 0), BuildingBlock: ZUJKAS_clean_linker_0, # of connection points: 2
#     Edge 76, Type (0, 0), BuildingBlock: ZUJKAS_clean_linker_0, # of connection points: 2
#     Edge 77, Type (0, 0), BuildingBlock: ZUJKAS_clean_linker_0, # of connection points: 2
#     Edge 78, Type (0, 0), BuildingBlock: ZUJKAS_clean_linker_0, # of connection points: 2
#     Edge 79, Type (0, 0), BuildingBlock: ZUJKAS_clean_linker_0, # of connection points: 2
#     Edge 80, Type (0, 0), BuildingBlock: ZUJKAS_clean_linker_0, # of connection points: 2
#     Edge 81, Type (0, 0), BuildingBlock: ZUJKAS_clean_linker_0, # of connection points: 2
#     Edge 82, Type (0, 0), BuildingBlock: ZUJKAS_clean_linker_0, # of connection points: 2
#     Edge 83, Type (0, 0), BuildingBlock: ZUJKAS_clean_linker_0, # of connection points: 2
#     Edge 84, Type (0, 0), BuildingBlock: ZUJKAS_clean_linker_0, # of connection points: 2
#     Edge 85, Type (0, 0), BuildingBlock: ZUJKAS_clean_linker_0, # of connection points: 2
#     Edge 86, Type (0, 0), BuildingBlock: ZUJKAS_clean_linker_0, # of connection points: 2
#     Edge 87, Type (0, 0), BuildingBlock: ZUJKAS_clean_linker_0, # of connection points: 2
#     Edge 88, Type (0, 0), BuildingBlock: ZUJKAS_clean_linker_0, # of connection points: 2
#     Edge 89, Type (0, 0), BuildingBlock: ZUJKAS_clean_linker_0, # of connection points: 2
#     Edge 90, Type (0, 0), BuildingBlock: ZUJKAS_clean_linker_0, # of connection points: 2
#     Edge 91, Type (0, 0), BuildingBlock: ZUJKAS_clean_linker_0, # of connection points: 2
#     Edge 92, Type (0, 0), BuildingBlock: ZUJKAS_clean_linker_0, # of connection points: 2
#     Edge 93, Type (0, 0), BuildingBlock: ZUJKAS_clean_linker_0, # of connection points: 2
#     Edge 94, Type (0, 0), BuildingBlock: ZUJKAS_clean_linker_0, # of connection points: 2
#     Edge 95, Type (0, 0), BuildingBlock: ZUJKAS_clean_linker_0, # of connection points: 2
#     Edge 96, Type (0, 0), BuildingBlock: ZUJKAS_clean_linker_0, # of connection points: 2
#     Edge 97, Type (0, 0), BuildingBlock: ZUJKAS_clean_linker_0, # of connection points: 2
#     Edge 98, Type (0, 0), BuildingBlock: ZUJKAS_clean_linker_0, # of connection points: 2
#     Edge 99, Type (0, 0), BuildingBlock: ZUJKAS_clean_linker_0, # of connection points: 2
#     Edge 100, Type (0, 0), BuildingBlock: ZUJKAS_clean_linker_0, # of connection points: 2
#     Edge 101, Type (0, 0), BuildingBlock: ZUJKAS_clean_linker_0, # of connection points: 2
#     Edge 102, Type (0, 0), BuildingBlock: ZUJKAS_clean_linker_0, # of connection points: 2
#     Edge 103, Type (0, 0), BuildingBlock: ZUJKAS_clean_linker_0, # of connection points: 2
#     Edge 104, Type (0, 0), BuildingBlock: ZUJKAS_clean_linker_0, # of connection points: 2
#     Edge 105, Type (0, 0), BuildingBlock: ZUJKAS_clean_linker_0, # of connection points: 2
#     Edge 106, Type (0, 0), BuildingBlock: ZUJKAS_clean_linker_0, # of connection points: 2
#     Edge 107, Type (0, 0), BuildingBlock: ZUJKAS_clean_linker_0, # of connection points: 2
#     Edge 108, Type (0, 0), BuildingBlock: ZUJKAS_clean_linker_0, # of connection points: 2
#     Edge 109, Type (0, 0), BuildingBlock: ZUJKAS_clean_linker_0, # of connection points: 2
#     Edge 110, Type (0, 0), BuildingBlock: ZUJKAS_clean_linker_0, # of connection points: 2
#     Edge 111, Type (0, 0), BuildingBlock: ZUJKAS_clean_linker_0, # of connection points: 2
#     Edge 112, Type (0, 0), BuildingBlock: ZUJKAS_clean_linker_0, # of connection points: 2
#     Edge 113, Type (0, 0), BuildingBlock: ZUJKAS_clean_linker_0, # of connection points: 2
#     Edge 114, Type (0, 0), BuildingBlock: ZUJKAS_clean_linker_0, # of connection points: 2
#     Edge 115, Type (0, 0), BuildingBlock: ZUJKAS_clean_linker_0, # of connection points: 2
#     Edge 116, Type (0, 0), BuildingBlock: ZUJKAS_clean_linker_0, # of connection points: 2
#     Edge 117, Type (0, 0), BuildingBlock: ZUJKAS_clean_linker_0, # of connection points: 2
#     Edge 118, Type (0, 0), BuildingBlock: ZUJKAS_clean_linker_0, # of connection points: 2
#     Edge 119, Type (0, 0), BuildingBlock: ZUJKAS_clean_linker_0, # of connection points: 2
#     Edge 120, Type (0, 0), BuildingBlock: ZUJKAS_clean_linker_0, # of connection points: 2
#     Edge 121, Type (0, 0), BuildingBlock: ZUJKAS_clean_linker_0, # of connection points: 2
#     Edge 122, Type (0, 0), BuildingBlock: ZUJKAS_clean_linker_0, # of connection points: 2
#     Edge 123, Type (0, 0), BuildingBlock: ZUJKAS_clean_linker_0, # of connection points: 2
#     Edge 124, Type (0, 0), BuildingBlock: ZUJKAS_clean_linker_0, # of connection points: 2
#     Edge 125, Type (0, 0), BuildingBlock: ZUJKAS_clean_linker_0, # of connection points: 2
#     Edge 126, Type (0, 0), BuildingBlock: ZUJKAS_clean_linker_0, # of connection points: 2
#     Edge 127, Type (0, 0), BuildingBlock: ZUJKAS_clean_linker_0, # of connection points: 2
#     Edge 128, Type (0, 0), BuildingBlock: ZUJKAS_clean_linker_0, # of connection points: 2
#     Edge 129, Type (0, 0), BuildingBlock: ZUJKAS_clean_linker_0, # of connection points: 2
#     Edge 130, Type (0, 0), BuildingBlock: ZUJKAS_clean_linker_0, # of connection points: 2
#     Edge 131, Type (0, 0), BuildingBlock: ZUJKAS_clean_linker_0, # of connection points: 2
#     Edge 132, Type (0, 0), BuildingBlock: ZUJKAS_clean_linker_0, # of connection points: 2
#     Edge 133, Type (0, 0), BuildingBlock: ZUJKAS_clean_linker_0, # of connection points: 2
#     Edge 134, Type (0, 0), BuildingBlock: ZUJKAS_clean_linker_0, # of connection points: 2
#     Edge 135, Type (0, 0), BuildingBlock: ZUJKAS_clean_linker_0, # of connection points: 2
#     Edge 136, Type (0, 0), BuildingBlock: ZUJKAS_clean_linker_0, # of connection points: 2
#     Edge 137, Type (0, 0), BuildingBlock: ZUJKAS_clean_linker_0, # of connection points: 2
#     Edge 138, Type (0, 0), BuildingBlock: ZUJKAS_clean_linker_0, # of connection points: 2
#     Edge 139, Type (0, 0), BuildingBlock: ZUJKAS_clean_linker_0, # of connection points: 2
#     Edge 140, Type (0, 0), BuildingBlock: ZUJKAS_clean_linker_0, # of connection points: 2
#     Edge 141, Type (0, 0), BuildingBlock: ZUJKAS_clean_linker_0, # of connection points: 2
#     Edge 142, Type (0, 0), BuildingBlock: ZUJKAS_clean_linker_0, # of connection points: 2
#     Edge 143, Type (0, 0), BuildingBlock: ZUJKAS_clean_linker_0, # of connection points: 2
# Relax obj value: 0.466
# Max RMSD: 0.154
# Mean RMSD: 0.154
data_MOF--net-uli--node1-CEKHIL_clean_sbu_0--edge1-ZUJKAS_clean_linker_0
_symmetry_space_group_name_H-M    P1
_symmetry_Int_Tables_number       1
_symmetry_cell_setting            triclinic
loop_
_symmetry_equiv_pos_as_xyz
'x, y, z'
_cell_length_a     86.597834
_cell_length_b     86.547948
_cell_length_c     86.543159
_cell_angle_alpha  89.995892
_cell_angle_beta   89.984527
_cell_angle_gamma 89.962093
loop_
_atom_site_label
_atom_site_type_symbol
_atom_site_fract_x
_atom_site_fract_y
_atom_site_fract_z
_atom_type_partial_charge
Co0 Co 0.09915 0.25572 0.24045 0.0
O1 O 0.08035 0.25994 0.25107 0.0
O2 O 0.08434 0.26378 0.22596 0.0
C3 C 0.10337 0.23201 0.25009 0.0
O4 O 0.11692 0.25213 0.22555 0.0
Co5 Co 0.12942 0.25196 0.25915 0.0
O6 O 0.13739 0.24383 0.23922 0.0
C7 C 0.11603 0.28289 0.25495 0.0
C8 C 0.07504 0.26433 0.23775 0.0
C9 C 0.13056 0.24628 0.2264 0.0
O10 O 0.10644 0.27717 0.24522 0.0
O11 O 0.12552 0.2746 0.26272 0.0
O12 O 0.09378 0.23403 0.23873 0.0
O13 O 0.10845 0.24454 0.25649 0.0
Co14 Co 0.74022 0.08602 0.23012 0.0
O15 O 0.73666 0.06446 0.2329 0.0
O16 O 0.73316 0.07724 0.21087 0.0
C17 C 0.76356 0.08672 0.24145 0.0
O18 O 0.74311 0.10813 0.2229 0.0
Co19 Co 0.7431 0.10765 0.25859 0.0
O20 O 0.7489 0.12352 0.243 0.0
C21 C 0.71278 0.09523 0.2497 0.0
C22 C 0.733 0.06422 0.21836 0.0
C23 C 0.747 0.12131 0.22855 0.0
O24 O 0.71849 0.09062 0.23679 0.0
O25 O 0.72097 0.1008 0.26068 0.0
O26 O 0.76215 0.08224 0.22721 0.0
O27 O 0.75076 0.08905 0.2488 0.0
Co28 Co 0.89698 0.73431 0.23336 0.0
O29 O 0.91814 0.7358 0.23938 0.0
O30 O 0.90994 0.73047 0.21563 0.0
C31 C 0.88892 0.75642 0.2444 0.0
O32 O 0.87612 0.73245 0.22281 0.0
Co33 Co 0.8714 0.73096 0.25829 0.0
O34 O 0.85732 0.73481 0.24059 0.0
C35 C 0.89052 0.70397 0.25002 0.0
C36 C 0.92137 0.73324 0.22497 0.0
C37 C 0.86181 0.73379 0.22659 0.0
O38 O 0.89668 0.71172 0.23894 0.0
O39 O 0.8812 0.70997 0.25983 0.0
O40 O 0.89583 0.75658 0.23111 0.0
O41 O 0.88877 0.7432 0.25141 0.0
Co42 Co 0.26037 0.88604 0.23799 0.0
O43 O 0.25934 0.89744 0.25703 0.0
O44 O 0.26115 0.90776 0.23362 0.0
C45 C 0.24086 0.86973 0.24316 0.0
O46 O 0.26059 0.87828 0.21578 0.0
Co47 Co 0.26839 0.85102 0.23767 0.0
O48 O 0.26184 0.8523 0.21584 0.0
C49 C 0.29334 0.87403 0.24074 0.0
C50 C 0.25975 0.90974 0.24845 0.0
C51 C 0.26019 0.86514 0.20884 0.0
O52 O 0.28364 0.88519 0.23936 0.0
O53 O 0.28949 0.85977 0.24105 0.0
O54 O 0.23807 0.88358 0.23814 0.0
O55 O 0.25513 0.86675 0.24645 0.0
Co56 Co 0.08899 0.74572 0.75814 0.0
O57 O 0.06934 0.74549 0.74831 0.0
O58 O 0.07332 0.74126 0.77337 0.0
C59 C 0.09753 0.76803 0.74793 0.0
O60 O 0.10771 0.74548 0.77216 0.0
Co61 Co 0.1185 0.7433 0.73782 0.0
O62 O 0.12909 0.74823 0.75762 0.0
C63 C 0.09932 0.71581 0.74309 0.0
C64 C 0.06371 0.74277 0.76193 0.0
C65 C 0.12236 0.74741 0.77072 0.0
O66 O 0.09178 0.72312 0.75356 0.0
O67 O 0.10932 0.72223 0.73429 0.0
O68 O 0.08828 0.76811 0.75973 0.0
O69 O 0.09965 0.75467 0.74156 0.0
Co70 Co 0.24359 0.10135 0.74798 0.0
O71 O 0.24979 0.08542 0.73404 0.0
O72 O 0.2541 0.08534 0.75936 0.0
C73 C 0.21925 0.10385 0.73934 0.0
O74 O 0.23848 0.11579 0.76586 0.0
Co75 Co 0.23482 0.13355 0.73477 0.0
O76 O 0.22757 0.13732 0.7562 0.0
C77 C 0.26757 0.12466 0.73704 0.0
C78 C 0.25541 0.07845 0.74606 0.0
C79 C 0.23158 0.12886 0.76759 0.0
O80 O 0.26368 0.11238 0.74441 0.0
O81 O 0.25773 0.13399 0.73112 0.0
O82 O 0.22275 0.09291 0.74898 0.0
O83 O 0.23081 0.1116 0.73394 0.0
Co84 Co 0.8888 0.25622 0.75916 0.0
O85 O 0.9027 0.25784 0.74212 0.0
O86 O 0.90755 0.2661 0.76593 0.0
C87 C 0.88214 0.23149 0.75521 0.0
O88 O 0.87726 0.25578 0.77964 0.0
Co89 Co 0.85407 0.25013 0.7524 0.0
O90 O 0.85311 0.24729 0.77513 0.0
C91 C 0.86721 0.28092 0.74667 0.0
C92 C 0.9122 0.2643 0.75173 0.0
C93 C 0.86389 0.2513 0.78433 0.0
O94 O 0.87965 0.27687 0.75369 0.0
O95 O 0.85622 0.2715 0.74369 0.0
O96 O 0.89482 0.23474 0.76255 0.0
O97 O 0.875 0.24311 0.74917 0.0
Co98 Co 0.72826 0.899 0.76835 0.0
O99 O 0.72759 0.92025 0.76278 0.0
O100 O 0.72348 0.91111 0.78647 0.0
C101 C 0.75069 0.89319 0.75667 0.0
O102 O 0.7286 0.87785 0.77832 0.0
Co103 Co 0.72684 0.87389 0.74271 0.0
O104 O 0.73222 0.85973 0.76003 0.0
C105 C 0.69904 0.89165 0.75085 0.0
C106 C 0.7248 0.92292 0.77727 0.0
C107 C 0.73121 0.86383 0.77417 0.0
O108 O 0.70579 0.89672 0.76305 0.0
O109 O 0.70597 0.88384 0.74037 0.0
O110 O 0.75063 0.89976 0.77015 0.0
O111 O 0.73739 0.89216 0.74997 0.0
Co112 Co 0.23337 0.08698 0.24465 0.0
O113 O 0.2455 0.06908 0.24893 0.0
O114 O 0.22199 0.07339 0.25823 0.0
C115 C 0.23741 0.08739 0.21897 0.0
O116 O 0.21739 0.10401 0.24231 0.0
Co117 Co 0.24943 0.11629 0.23148 0.0
O118 O 0.22788 0.12372 0.229 0.0
C119 C 0.25239 0.10892 0.2646 0.0
C120 C 0.23403 0.06441 0.25738 0.0
C121 C 0.21638 0.1172 0.23551 0.0
O122 O 0.24264 0.09784 0.263 0.0
O123 O 0.25757 0.11681 0.2532 0.0
O124 O 0.22688 0.07841 0.22477 0.0
O125 O 0.24605 0.09439 0.22889 0.0
Co126 Co 0.89453 0.22179 0.25057 0.0
O127 O 0.91032 0.23677 0.24801 0.0
O128 O 0.91388 0.21311 0.25746 0.0
C129 C 0.88417 0.22499 0.22702 0.0
O130 O 0.88062 0.20331 0.25439 0.0
Co131 Co 0.86064 0.23312 0.25029 0.0
O132 O 0.8559 0.21075 0.25125 0.0
C133 C 0.88017 0.23935 0.27733 0.0
C134 C 0.91962 0.22647 0.2536 0.0
C135 C 0.86607 0.2004 0.25383 0.0
O136 O 0.89039 0.23011 0.27184 0.0
O137 O 0.86803 0.24324 0.26983 0.0
O138 O 0.89598 0.21595 0.22892 0.0
O139 O 0.87996 0.2328 0.23904 0.0
Co140 Co 0.75322 0.89716 0.26114 0.0
O141 O 0.74346 0.91688 0.25971 0.0
O142 O 0.76863 0.91314 0.2629 0.0
C143 C 0.74166 0.88672 0.24035 0.0
O144 O 0.76739 0.87848 0.26242 0.0
Co145 Co 0.73357 0.86778 0.26719 0.0
O146 O 0.753 0.85686 0.26178 0.0
C147 C 0.7406 0.88908 0.29293 0.0
C148 C 0.75724 0.92267 0.26056 0.0
C149 C 0.76604 0.8637 0.26153 0.0
O150 O 0.74985 0.89673 0.28416 0.0
O151 O 0.73205 0.87807 0.28795 0.0
O152 O 0.75359 0.89562 0.23876 0.0
O153 O 0.73612 0.88574 0.25421 0.0
Co154 Co 0.08281 0.75605 0.25948 0.0
O155 O 0.06107 0.75225 0.25991 0.0
O156 O 0.07208 0.77525 0.26295 0.0
C157 C 0.08853 0.74295 0.2378 0.0
O158 O 0.10467 0.76447 0.259 0.0
Co159 Co 0.10596 0.7289 0.26326 0.0
O160 O 0.12154 0.74476 0.25746 0.0
C161 C 0.08867 0.74015 0.29017 0.0
C162 C 0.05956 0.76708 0.26166 0.0
C163 C 0.11844 0.75916 0.2572 0.0
O164 O 0.08429 0.75198 0.28233 0.0
O165 O 0.09595 0.72873 0.28421 0.0
O166 O 0.0825 0.75665 0.2371 0.0
O167 O 0.0887 0.73677 0.25142 0.0
Co168 Co 0.24793 0.89388 0.74359 0.0
O169 O 0.26217 0.91058 0.7417 0.0
O170 O 0.23771 0.91117 0.73393 0.0
C171 C 0.25317 0.88795 0.76831 0.0
O172 O 0.22994 0.87874 0.74415 0.0
Co173 Co 0.26098 0.86093 0.74917 0.0
O174 O 0.23893 0.85589 0.75273 0.0
C175 C 0.26277 0.87455 0.71808 0.0
C176 C 0.25091 0.9182 0.73541 0.0
C177 C 0.22784 0.86473 0.74871 0.0
O178 O 0.25452 0.88595 0.72277 0.0
O179 O 0.26764 0.86389 0.72712 0.0
O180 O 0.24383 0.89923 0.76505 0.0
O181 O 0.26036 0.88198 0.75665 0.0
Co182 Co 0.09264 0.24179 0.74486 0.0
O183 O 0.07835 0.2582 0.74127 0.0
O184 O 0.07577 0.23422 0.73252 0.0
C185 C 0.09567 0.24578 0.77033 0.0
O186 O 0.10482 0.22184 0.74679 0.0
Co187 Co 0.1259 0.24951 0.75569 0.0
O188 O 0.12692 0.2269 0.75942 0.0
C189 C 0.11752 0.25378 0.72297 0.0
C190 C 0.07025 0.24817 0.73364 0.0
C191 C 0.11731 0.21743 0.75351 0.0
O192 O 0.10432 0.24756 0.72563 0.0
O193 O 0.12736 0.25666 0.73364 0.0
O194 O 0.08387 0.23803 0.76528 0.0
O195 O 0.10413 0.25223 0.75984 0.0
Co196 Co 0.75936 0.08483 0.73713 0.0
O197 O 0.74919 0.0657 0.73293 0.0
O198 O 0.77408 0.07038 0.72891 0.0
C199 C 0.74992 0.08835 0.76111 0.0
O200 O 0.77414 0.10258 0.74082 0.0
Co201 Co 0.74093 0.11506 0.74242 0.0
O202 O 0.76099 0.12279 0.7504 0.0
C203 C 0.74454 0.10275 0.71081 0.0
C204 C 0.76274 0.06055 0.72902 0.0
C205 C 0.77364 0.11594 0.74729 0.0
O206 O 0.75414 0.09257 0.71584 0.0
O207 O 0.73718 0.11198 0.71972 0.0
O208 O 0.76146 0.07909 0.75873 0.0
O209 O 0.74335 0.09374 0.7488 0.0
Co210 Co 0.89547 0.76526 0.72624 0.0
O211 O 0.91617 0.75805 0.72389 0.0
O212 O 0.90784 0.78151 0.71749 0.0
C213 C 0.89223 0.75702 0.75067 0.0
O214 O 0.87529 0.77705 0.72749 0.0
Co215 Co 0.86827 0.74267 0.73186 0.0
O216 O 0.85672 0.76178 0.73723 0.0
C217 C 0.88167 0.74581 0.70056 0.0
C218 C 0.91924 0.77183 0.71879 0.0
C219 C 0.86165 0.77498 0.73296 0.0
O220 O 0.89011 0.7571 0.7052 0.0
O221 O 0.87301 0.73792 0.70961 0.0
O222 O 0.89931 0.76992 0.74787 0.0
O223 O 0.88865 0.74885 0.73867 0.0
Co224 Co 0.26477 0.22037 0.09713 0.0
O225 O 0.26673 0.23908 0.08543 0.0
O226 O 0.26904 0.21535 0.07592 0.0
C227 C 0.24309 0.22696 0.10982 0.0
O228 O 0.26282 0.19844 0.10547 0.0
Co229 Co 0.26693 0.22123 0.133 0.0
O230 O 0.26101 0.19925 0.13144 0.0
C231 C 0.29528 0.22358 0.11425 0.0
C232 C 0.26911 0.2302 0.07358 0.0
C233 C 0.26082 0.19193 0.11868 0.0
O234 O 0.28756 0.22105 0.10183 0.0
O235 O 0.28908 0.22499 0.1276 0.0
O236 O 0.24233 0.22147 0.09587 0.0
O237 O 0.25683 0.22973 0.11496 0.0
Co238 Co 0.25738 0.74975 0.89939 0.0
O239 O 0.26036 0.73319 0.91367 0.0
O240 O 0.26172 0.7581 0.91956 0.0
C241 C 0.23565 0.74055 0.88863 0.0
O242 O 0.25427 0.76994 0.8876 0.0
Co243 Co 0.25856 0.7432 0.8641 0.0
O244 O 0.24822 0.76358 0.86315 0.0
C245 C 0.28759 0.74711 0.88166 0.0
C246 C 0.26207 0.74377 0.92413 0.0
C247 C 0.24929 0.77346 0.87402 0.0
O248 O 0.27999 0.74966 0.89414 0.0
O249 O 0.28125 0.74376 0.86872 0.0
O250 O 0.23513 0.74797 0.90164 0.0
O251 O 0.24934 0.73739 0.88355 0.0
Co252 Co 0.22859 0.26053 0.89742 0.0
O253 O 0.24635 0.26343 0.91033 0.0
O254 O 0.22199 0.26671 0.91772 0.0
C255 C 0.23559 0.23768 0.88712 0.0
O256 O 0.20738 0.25812 0.88759 0.0
Co257 Co 0.23237 0.25943 0.86161 0.0
O258 O 0.21019 0.25405 0.862 0.0
C259 C 0.23252 0.28949 0.87777 0.0
C260 C 0.2366 0.26691 0.92119 0.0
C261 C 0.2019 0.25511 0.87412 0.0
O262 O 0.22971 0.28284 0.89075 0.0
O263 O 0.23479 0.28216 0.86513 0.0
O264 O 0.22927 0.23823 0.90072 0.0
O265 O 0.23907 0.25089 0.88112 0.0
Co266 Co 0.74493 0.22013 0.90054 0.0
O267 O 0.73846 0.23403 0.91641 0.0
O268 O 0.73447 0.20865 0.91655 0.0
C269 C 0.76907 0.22953 0.89823 0.0
O270 O 0.75013 0.2022 0.88621 0.0
Co271 Co 0.75448 0.23264 0.86823 0.0
O272 O 0.76185 0.21124 0.86488 0.0
C273 C 0.72143 0.23051 0.87671 0.0
C274 C 0.73278 0.22198 0.92327 0.0
C275 C 0.75732 0.20009 0.87336 0.0
O276 O 0.72484 0.22375 0.88947 0.0
O277 O 0.73153 0.23564 0.86719 0.0
O278 O 0.76591 0.21949 0.90893 0.0
O279 O 0.75743 0.23439 0.89028 0.0
Co280 Co 0.77124 0.72782 0.89961 0.0
O281 O 0.75984 0.72744 0.91843 0.0
O282 O 0.78539 0.72552 0.91669 0.0
C283 C 0.75949 0.74857 0.88933 0.0
O284 O 0.7868 0.72847 0.88204 0.0
Co285 Co 0.75397 0.72272 0.86849 0.0
O286 O 0.77359 0.73068 0.85975 0.0
C287 C 0.75971 0.6964 0.88944 0.0
C288 C 0.77309 0.7263 0.92531 0.0
C289 C 0.78618 0.73101 0.86739 0.0
O290 O 0.76887 0.70473 0.89763 0.0
O291 O 0.75164 0.70185 0.87828 0.0
O292 O 0.77056 0.75031 0.89929 0.0
O293 O 0.75478 0.73455 0.88736 0.0
Co294 Co 0.72311 0.75218 0.09904 0.0
O295 O 0.72564 0.74155 0.07992 0.0
O296 O 0.72034 0.76657 0.08222 0.0
C297 C 0.74443 0.74297 0.11062 0.0
O298 O 0.72035 0.76701 0.11701 0.0
Co299 Co 0.71758 0.73301 0.12889 0.0
O300 O 0.72011 0.75335 0.13917 0.0
C301 C 0.69213 0.73736 0.10674 0.0
C302 C 0.7235 0.75485 0.07335 0.0
C303 C 0.72013 0.76616 0.13186 0.0
O304 O 0.70042 0.74708 0.09917 0.0
O305 O 0.69739 0.72941 0.11806 0.0
O306 O 0.7453 0.75443 0.10101 0.0
O307 O 0.7311 0.73625 0.11142 0.0
Co308 Co 0.21807 0.74829 0.09469 0.0
O309 O 0.22415 0.74878 0.07355 0.0
O310 O 0.2034 0.73658 0.08266 0.0
C311 C 0.22186 0.77357 0.09916 0.0
O312 O 0.20785 0.74583 0.11562 0.0
Co313 Co 0.24147 0.75618 0.12056 0.0
O314 O 0.22332 0.75463 0.13452 0.0
C315 C 0.24327 0.72598 0.10503 0.0
C316 C 0.2121 0.74026 0.07099 0.0
C317 C 0.2105 0.74908 0.12987 0.0
O318 O 0.23057 0.72899 0.09797 0.0
O319 O 0.25019 0.73578 0.11368 0.0
O320 O 0.20907 0.7689 0.09283 0.0
O321 O 0.23225 0.76309 0.10133 0.0
Co322 Co 0.75091 0.26417 0.10224 0.0
O323 O 0.7332 0.26231 0.08901 0.0
O324 O 0.75745 0.26495 0.08109 0.0
C325 C 0.74535 0.24459 0.11835 0.0
O326 O 0.77212 0.26546 0.1122 0.0
Co327 Co 0.74707 0.27276 0.13694 0.0
O328 O 0.76929 0.2676 0.13798 0.0
C329 C 0.74535 0.29717 0.11327 0.0
C330 C 0.74297 0.26305 0.07764 0.0
C331 C 0.77764 0.26587 0.12597 0.0
O332 O 0.74853 0.28738 0.10258 0.0
O333 O 0.74353 0.29354 0.12748 0.0
O334 O 0.75161 0.24192 0.10497 0.0
O335 O 0.74088 0.25866 0.1207 0.0
Co336 Co 0.59508 0.75341 0.72165 0.0
O337 O 0.57627 0.75569 0.73274 0.0
O338 O 0.57949 0.76132 0.70783 0.0
C339 C 0.60053 0.72951 0.73016 0.0
O340 O 0.61278 0.75215 0.70641 0.0
Co341 Co 0.62581 0.75007 0.7396 0.0
O342 O 0.63463 0.74571 0.71886 0.0
C343 C 0.61035 0.78034 0.73801 0.0
C344 C 0.57047 0.76058 0.71982 0.0
C345 C 0.62715 0.74843 0.70646 0.0
O346 O 0.60111 0.77492 0.72777 0.0
O347 O 0.62021 0.77195 0.74519 0.0
O348 O 0.59115 0.73149 0.71864 0.0
O349 O 0.60512 0.74197 0.73702 0.0
Co350 Co 0.23022 0.59827 0.74892 0.0
O351 O 0.22727 0.58071 0.76205 0.0
O352 O 0.22292 0.58124 0.73675 0.0
C353 C 0.25359 0.6054 0.75758 0.0
O354 O 0.2326 0.61387 0.73159 0.0
Co355 Co 0.23234 0.63119 0.76287 0.0
O356 O 0.23957 0.63671 0.74177 0.0
C357 C 0.20204 0.61607 0.76031 0.0
C358 C 0.22302 0.57346 0.74961 0.0
C359 C 0.23741 0.62785 0.73019 0.0
O360 O 0.20835 0.60504 0.75265 0.0
O361 O 0.20979 0.62703 0.76652 0.0
O362 O 0.25229 0.59416 0.74773 0.0
O363 O 0.24075 0.61045 0.76334 0.0
Co364 Co 0.40674 0.24883 0.74059 0.0
O365 O 0.42091 0.24317 0.75651 0.0
O366 O 0.42226 0.23525 0.73211 0.0
C367 C 0.4063 0.27426 0.74589 0.0
O368 O 0.39416 0.25248 0.72111 0.0
Co369 Co 0.37488 0.2628 0.74935 0.0
O370 O 0.37382 0.26758 0.72691 0.0
C371 C 0.38018 0.22922 0.75253 0.0
C372 C 0.42794 0.23508 0.74603 0.0
C373 C 0.38238 0.26062 0.71714 0.0
O374 O 0.39342 0.23068 0.74603 0.0
O375 O 0.37151 0.24075 0.75591 0.0
O376 O 0.41731 0.26854 0.73745 0.0
O377 O 0.39697 0.26432 0.75194 0.0
Co378 Co 0.74255 0.40929 0.73167 0.0
O379 O 0.74955 0.42769 0.74155 0.0
O380 O 0.7535 0.42179 0.71681 0.0
C381 C 0.71822 0.40942 0.74078 0.0
O382 O 0.73681 0.39144 0.71757 0.0
Co383 Co 0.73336 0.38106 0.75177 0.0
O384 O 0.7262 0.37243 0.73176 0.0
C385 C 0.76615 0.38887 0.74791 0.0
C386 C 0.75554 0.43126 0.72828 0.0
C387 C 0.72997 0.37829 0.71877 0.0
O388 O 0.76237 0.39883 0.7376 0.0
O389 O 0.75621 0.38136 0.75588 0.0
O390 O 0.72192 0.41791 0.72896 0.0
O391 O 0.72965 0.40276 0.74772 0.0
Co392 Co 0.59538 0.22727 0.25885 0.0
O393 O 0.57573 0.22438 0.24943 0.0
O394 O 0.58044 0.22227 0.27458 0.0
C395 C 0.6013 0.24967 0.24708 0.0
O396 O 0.61408 0.23009 0.27265 0.0
Co397 Co 0.625 0.22694 0.23865 0.0
O398 O 0.63475 0.23512 0.25775 0.0
C399 C 0.60915 0.19771 0.24594 0.0
C400 C 0.5705 0.22228 0.26333 0.0
C401 C 0.62824 0.23421 0.27094 0.0
O402 O 0.60045 0.20486 0.25561 0.0
O403 O 0.61872 0.20463 0.23702 0.0
O404 O 0.59227 0.24949 0.25904 0.0
O405 O 0.60489 0.23624 0.24154 0.0
Co406 Co 0.76572 0.59631 0.25841 0.0
O407 O 0.76363 0.57635 0.24936 0.0
O408 O 0.76867 0.58074 0.27415 0.0
C409 C 0.7442 0.6066 0.2481 0.0
O410 O 0.76811 0.6155 0.27167 0.0
Co411 Co 0.77074 0.62452 0.23672 0.0
O412 O 0.76872 0.63645 0.25623 0.0
C413 C 0.79603 0.60254 0.24207 0.0
C414 C 0.76577 0.57091 0.26315 0.0
C415 C 0.76856 0.63022 0.26959 0.0
O416 O 0.78842 0.59652 0.25331 0.0
O417 O 0.79028 0.61257 0.23284 0.0
O418 O 0.74342 0.59804 0.26037 0.0
O419 O 0.75759 0.60715 0.24149 0.0
Co420 Co 0.4023 0.7589 0.27447 0.0
O421 O 0.4228 0.75927 0.26645 0.0
O422 O 0.41641 0.7647 0.29074 0.0
C423 C 0.39561 0.73577 0.26464 0.0
O424 O 0.38238 0.75917 0.28684 0.0
Co425 Co 0.37444 0.75878 0.25183 0.0
O426 O 0.36242 0.75452 0.27088 0.0
C427 C 0.39188 0.78761 0.25714 0.0
C428 C 0.42709 0.76291 0.28034 0.0
C429 C 0.36798 0.75647 0.28438 0.0
O430 O 0.39932 0.78114 0.26826 0.0
O431 O 0.38255 0.78023 0.24834 0.0
O432 O 0.40353 0.73661 0.27734 0.0
O433 O 0.39353 0.74872 0.25749 0.0
Co434 Co 0.23604 0.40206 0.26161 0.0
O435 O 0.23777 0.41488 0.24378 0.0
O436 O 0.22907 0.4226 0.26668 0.0
C437 C 0.25948 0.39118 0.26001 0.0
O438 O 0.23332 0.39184 0.28259 0.0
Co439 Co 0.23659 0.36644 0.25657 0.0
O440 O 0.23628 0.36611 0.27948 0.0
C441 C 0.20904 0.38425 0.24806 0.0
C442 C 0.2324 0.4259 0.25238 0.0
C443 C 0.23418 0.378 0.28794 0.0
O444 O 0.2145 0.39605 0.2552 0.0
O445 O 0.21682 0.37187 0.24584 0.0
O446 O 0.2579 0.40472 0.26628 0.0
O447 O 0.24733 0.3857 0.25334 0.0
Co448 Co 0.73505 0.6079 0.76515 0.0
O449 O 0.75324 0.59578 0.7616 0.0
O450 O 0.72973 0.58637 0.76567 0.0
C451 C 0.73872 0.62465 0.74568 0.0
O452 O 0.71351 0.61678 0.76834 0.0
Co453 Co 0.73793 0.64234 0.77461 0.0
O454 O 0.71536 0.64255 0.77134 0.0
C455 C 0.74247 0.61807 0.79805 0.0
C456 C 0.74424 0.58385 0.76267 0.0
C457 C 0.70742 0.63026 0.7698 0.0
O458 O 0.73917 0.60761 0.78808 0.0
O459 O 0.74329 0.63248 0.79484 0.0
O460 O 0.73263 0.61119 0.74314 0.0
O461 O 0.74393 0.62692 0.75952 0.0
Co462 Co 0.39968 0.7366 0.76398 0.0
O463 O 0.41893 0.74701 0.76595 0.0
O464 O 0.41491 0.72226 0.77164 0.0
C465 C 0.39399 0.74495 0.74008 0.0
O466 O 0.38137 0.72197 0.76281 0.0
Co467 Co 0.36956 0.75579 0.7609 0.0
O468 O 0.36044 0.73548 0.75544 0.0
C469 C 0.38518 0.75349 0.79107 0.0
C470 C 0.42442 0.73384 0.77054 0.0
C471 C 0.36722 0.72271 0.7583 0.0
O472 O 0.39413 0.74301 0.78557 0.0
O473 O 0.37542 0.76091 0.78277 0.0
O474 O 0.40329 0.73336 0.74206 0.0
O475 O 0.38996 0.75217 0.75254 0.0
Co476 Co 0.27294 0.39399 0.75083 0.0
O477 O 0.2541 0.40532 0.74882 0.0
O478 O 0.27662 0.41533 0.75592 0.0
C479 C 0.27086 0.38117 0.72832 0.0
O480 O 0.29481 0.38587 0.75343 0.0
Co481 Co 0.27148 0.35826 0.75334 0.0
O482 O 0.29431 0.35984 0.75301 0.0
C483 C 0.26178 0.37748 0.77959 0.0
C484 C 0.26202 0.41735 0.75291 0.0
C485 C 0.30155 0.37264 0.75368 0.0
O486 O 0.26782 0.38937 0.77308 0.0
O487 O 0.26062 0.36435 0.77288 0.0
O488 O 0.27636 0.39512 0.72857 0.0
O489 O 0.26551 0.37611 0.7413 0.0
Co490 Co 0.59698 0.27344 0.75016 0.0
O491 O 0.58612 0.25505 0.75561 0.0
O492 O 0.57786 0.27889 0.7603 0.0
C493 C 0.60263 0.26586 0.72598 0.0
O494 O 0.60523 0.29508 0.74577 0.0
Co495 Co 0.63177 0.27142 0.74196 0.0
O496 O 0.62812 0.29247 0.73381 0.0
C497 C 0.62191 0.26989 0.7746 0.0
C498 C 0.57559 0.26404 0.76128 0.0
C499 C 0.61678 0.30073 0.73829 0.0
O500 O 0.60792 0.27278 0.77061 0.0
O501 O 0.63294 0.26808 0.7649 0.0
O502 O 0.58934 0.27216 0.72897 0.0
O503 O 0.61142 0.26332 0.73776 0.0
Co504 Co 0.72323 0.40257 0.23095 0.0
O505 O 0.73195 0.42279 0.23069 0.0
O506 O 0.7071 0.41749 0.22702 0.0
C507 C 0.73463 0.39473 0.25297 0.0
O508 O 0.71014 0.38309 0.23096 0.0
Co509 Co 0.74468 0.37388 0.22837 0.0
O510 O 0.72567 0.36249 0.23417 0.0
C511 C 0.73797 0.39271 0.20068 0.0
C512 C 0.71799 0.42774 0.22842 0.0
C513 C 0.71228 0.36856 0.23331 0.0
O514 O 0.72761 0.40026 0.2082 0.0
O515 O 0.7469 0.38276 0.20705 0.0
O516 O 0.72217 0.40305 0.25342 0.0
O517 O 0.74062 0.39283 0.23941 0.0
Co518 Co 0.59821 0.7366 0.23291 0.0
O519 O 0.57907 0.74678 0.23668 0.0
O520 O 0.58167 0.72163 0.23219 0.0
C521 C 0.61118 0.74706 0.2528 0.0
O522 O 0.61642 0.72229 0.22914 0.0
Co523 Co 0.62655 0.75672 0.22395 0.0
O524 O 0.63778 0.73678 0.22584 0.0
C525 C 0.60167 0.75168 0.20152 0.0
C526 C 0.57275 0.73325 0.23561 0.0
C527 C 0.6311 0.72371 0.22725 0.0
O528 O 0.59622 0.74088 0.21012 0.0
O529 O 0.61263 0.76065 0.20576 0.0
O530 O 0.60214 0.73531 0.25496 0.0
O531 O 0.61062 0.7532 0.23918 0.0
Co532 Co 0.256 0.60507 0.22819 0.0
O533 O 0.24265 0.58824 0.22329 0.0
O534 O 0.26817 0.58812 0.22037 0.0
C535 C 0.24616 0.61054 0.25156 0.0
O536 O 0.27335 0.62029 0.23257 0.0
Co537 Co 0.24195 0.63788 0.23228 0.0
O538 O 0.26266 0.64247 0.24095 0.0
C539 C 0.24517 0.62458 0.20111 0.0
C540 C 0.25505 0.5809 0.21917 0.0
C541 C 0.27438 0.63384 0.23861 0.0
O542 O 0.25322 0.61343 0.20669 0.0
O543 O 0.23854 0.63476 0.20956 0.0
O544 O 0.25605 0.59937 0.24999 0.0
O545 O 0.24119 0.61656 0.23883 0.0
Co546 Co 0.40848 0.27192 0.23318 0.0
O547 O 0.42737 0.26232 0.22713 0.0
O548 O 0.42253 0.28752 0.22583 0.0
C549 C 0.40598 0.26006 0.25622 0.0
O550 O 0.39068 0.28605 0.23901 0.0
Co551 Co 0.37859 0.25288 0.23827 0.0
O552 O 0.37256 0.27137 0.25044 0.0
C553 C 0.38871 0.26058 0.20651 0.0
C554 C 0.43224 0.27619 0.22412 0.0
C555 C 0.37862 0.28446 0.24753 0.0
O556 O 0.39992 0.26871 0.21182 0.0
O557 O 0.37941 0.25291 0.21508 0.0
O558 O 0.41502 0.27191 0.25468 0.0
O559 O 0.40025 0.2547 0.24349 0.0
Co560 Co 0.75844 0.73538 0.5855 0.0
O561 O 0.76166 0.73906 0.564 0.0
O562 O 0.76581 0.71666 0.57588 0.0
C563 C 0.73474 0.74589 0.58714 0.0
O564 O 0.75582 0.72718 0.60738 0.0
Co565 Co 0.75505 0.76292 0.60825 0.0
O566 O 0.74848 0.74663 0.62298 0.0
C567 C 0.78588 0.7544 0.59653 0.0
C568 C 0.7655 0.72458 0.56313 0.0
C569 C 0.75096 0.73233 0.62047 0.0
O570 O 0.78012 0.74233 0.59009 0.0
O571 O 0.77764 0.76465 0.60333 0.0
O572 O 0.73661 0.732 0.58186 0.0
O573 O 0.74733 0.75362 0.58944 0.0
Co574 Co 0.76776 0.26059 0.39165 0.0
O575 O 0.76854 0.24793 0.40962 0.0
O576 O 0.77441 0.27295 0.40899 0.0
C577 C 0.74442 0.25295 0.38339 0.0
O578 O 0.76777 0.27716 0.375 0.0
Co579 Co 0.76711 0.24428 0.35964 0.0
O580 O 0.76419 0.26566 0.3519 0.0
C581 C 0.79589 0.24503 0.37762 0.0
C582 C 0.77298 0.26024 0.4169 0.0
C583 C 0.76573 0.27769 0.36027 0.0
O584 O 0.78976 0.25489 0.38686 0.0
O585 O 0.78826 0.23823 0.36693 0.0
O586 O 0.74559 0.26346 0.39403 0.0
O587 O 0.75717 0.24621 0.37955 0.0
Co588 Co 0.74202 0.76465 0.39755 0.0
O589 O 0.75025 0.76263 0.41788 0.0
O590 O 0.7256 0.76724 0.41244 0.0
C591 C 0.75304 0.74331 0.38765 0.0
O592 O 0.72949 0.76682 0.37785 0.0
Co593 Co 0.7646 0.77011 0.37016 0.0
O594 O 0.74567 0.76737 0.35748 0.0
C595 C 0.75794 0.79533 0.39188 0.0
C596 C 0.73618 0.76437 0.42272 0.0
C597 C 0.7321 0.76705 0.3632 0.0
O598 O 0.74672 0.78744 0.39758 0.0
O599 O 0.76757 0.78981 0.38211 0.0
O600 O 0.74049 0.74235 0.39576 0.0
O601 O 0.75948 0.7568 0.38734 0.0
Co602 Co 0.22449 0.73662 0.39952 0.0
O603 O 0.22109 0.74572 0.41932 0.0
O604 O 0.21843 0.72075 0.41382 0.0
C605 C 0.24728 0.74789 0.39447 0.0
O606 O 0.22762 0.72299 0.38074 0.0
Co607 Co 0.22559 0.75696 0.37008 0.0
O608 O 0.2335 0.73778 0.36022 0.0
C609 C 0.19569 0.75045 0.38495 0.0
C610 C 0.21815 0.73177 0.42402 0.0
C611 C 0.23214 0.7246 0.36668 0.0
O612 O 0.20237 0.7406 0.39381 0.0
O613 O 0.20311 0.75912 0.37552 0.0
O614 O 0.24655 0.73583 0.40335 0.0
O615 O 0.23412 0.75382 0.39054 0.0
Co616 Co 0.26608 0.24751 0.39125 0.0
O617 O 0.25095 0.2418 0.40622 0.0
O618 O 0.27592 0.23613 0.40776 0.0
C619 C 0.25843 0.27225 0.389 0.0
O620 O 0.28494 0.25187 0.3779 0.0
Co621 Co 0.25536 0.25798 0.35863 0.0
O622 O 0.27709 0.26508 0.35693 0.0
C623 C 0.25521 0.22479 0.36674 0.0
C624 C 0.26217 0.23543 0.41381 0.0
C625 C 0.28774 0.25972 0.36559 0.0
O626 O 0.26201 0.22784 0.37958 0.0
O627 O 0.25058 0.23528 0.35735 0.0
O628 O 0.26761 0.2682 0.40015 0.0
O629 O 0.25317 0.2611 0.3806 0.0
Co630 Co 0.24928 0.23999 0.59671 0.0
O631 O 0.24471 0.22571 0.5805 0.0
O632 O 0.24048 0.251 0.57947 0.0
C633 C 0.27337 0.23186 0.60204 0.0
O634 O 0.25316 0.25817 0.61114 0.0
Co635 Co 0.2546 0.22724 0.62985 0.0
O636 O 0.26213 0.24856 0.63359 0.0
C637 C 0.2229 0.23002 0.61796 0.0
C638 C 0.23999 0.23759 0.57267 0.0
C639 C 0.25919 0.25991 0.62464 0.0
O640 O 0.22812 0.23683 0.60584 0.0
O641 O 0.23168 0.22418 0.62834 0.0
O642 O 0.27082 0.24093 0.59036 0.0
O643 O 0.26113 0.22625 0.60852 0.0
Co644 Co 0.73356 0.2343 0.59833 0.0
O645 O 0.75001 0.23501 0.58367 0.0
O646 O 0.72604 0.22738 0.57857 0.0
C647 C 0.73725 0.25792 0.60841 0.0
O648 O 0.71356 0.23278 0.6105 0.0
Co649 Co 0.74156 0.23538 0.63334 0.0
O650 O 0.71887 0.23746 0.63556 0.0
C651 C 0.74708 0.20688 0.61565 0.0
C652 C 0.73995 0.23024 0.57364 0.0
C653 C 0.70934 0.23506 0.62458 0.0
O654 O 0.73957 0.21255 0.60416 0.0
O655 O 0.7504 0.21471 0.62775 0.0
O656 O 0.72968 0.25629 0.59557 0.0
O657 O 0.74384 0.24557 0.61361 0.0
Co658 Co 0.25925 0.7511 0.59903 0.0
O659 O 0.24766 0.75337 0.58049 0.0
O660 O 0.27292 0.7576 0.58269 0.0
C661 C 0.24991 0.72784 0.60581 0.0
O662 O 0.27499 0.74947 0.61629 0.0
Co663 Co 0.242 0.74947 0.63049 0.0
O664 O 0.26271 0.74366 0.63844 0.0
C665 C 0.24552 0.77944 0.61461 0.0
C666 C 0.26066 0.75705 0.57403 0.0
C667 C 0.27505 0.74568 0.63066 0.0
O668 O 0.25463 0.77316 0.6047 0.0
O669 O 0.23827 0.77169 0.62493 0.0
O670 O 0.26094 0.72891 0.59572 0.0
O671 O 0.24375 0.74079 0.61001 0.0
H672 H 0.94391 0.20716 0.24817 0.0
H673 H 0.97086 0.21518 0.24426 0.0
H674 H 0.95882 0.26183 0.2572 0.0
H675 H 0.93199 0.254 0.26064 0.0
H676 H 0.97348 0.25994 0.22891 0.0
H677 H 0.00508 0.22718 0.27436 0.0
H678 H 0.99307 0.21578 0.26186 0.0
H679 H 0.98437 0.22957 0.27471 0.0
C680 C 0.9472 0.219 0.25058 0.0
C681 C 0.93605 0.23002 0.25465 0.0
C682 C 0.9625 0.22357 0.24831 0.0
C683 C 0.96671 0.2391 0.25041 0.0
C684 C 0.9557 0.24984 0.25541 0.0
H685 H 0.05613 0.27684 0.25915 0.0
H686 H 0.02814 0.27374 0.25992 0.0
C687 C 0.94046 0.24535 0.25745 0.0
C688 C 0.98227 0.24458 0.24646 0.0
H689 H 0.02002 0.2418 0.25688 0.0
C690 C 0.9837 0.256 0.235 0.0
C691 C 0.99546 0.23935 0.25447 0.0
C692 C 0.99448 0.22738 0.26712 0.0
C693 C -0.00195 0.26258 0.23151 0.0
C694 C 0.01117 0.25743 0.23963 0.0
C695 C 0.0098 0.24577 0.25082 0.0
C696 C 0.0266 0.26392 0.23699 0.0
C697 C -0.00092 0.27518 0.21953 0.0
C698 C 0.03469 0.2604 0.2234 0.0
C699 C 0.05067 0.26236 0.22286 0.0
C700 C 0.05857 0.26756 0.23603 0.0
C701 C 0.05022 0.27268 0.24893 0.0
C702 C 0.03429 0.27092 0.24938 0.0
H703 H 0.98751 0.27963 0.2162 0.0
H704 H 0.00617 0.28494 0.2239 0.0
H705 H 0.00481 0.27058 0.20902 0.0
H706 H 0.0289 0.25484 0.2138 0.0
H707 H 0.05694 0.25828 0.21282 0.0
H708 H 0.78161 0.93377 0.2441 0.0
H709 H 0.78104 0.95703 0.22791 0.0
H710 H 0.73762 0.97023 0.24849 0.0
H711 H 0.73793 0.9469 0.26433 0.0
H712 H 0.73749 0.96593 0.2152 0.0
H713 H 0.78504 0.00441 0.23555 0.0
H714 H 0.78894 0.98423 0.2322 0.0
H715 H 0.77683 0.98985 0.24804 0.0
C716 C 0.77229 0.94199 0.24562 0.0
C717 C 0.75977 0.9386 0.25539 0.0
C718 C 0.77193 0.95518 0.23628 0.0
C719 C 0.75919 0.96516 0.2369 0.0
C720 C 0.74746 0.96252 0.24776 0.0
H721 H 0.71446 0.04055 0.22628 0.0
H722 H 0.72089 0.01354 0.22189 0.0
C723 C 0.74772 0.94931 0.2569 0.0
C724 C 0.75701 0.97755 0.22542 0.0
H725 H 0.76706 0.01482 0.21826 0.0
C726 C 0.74418 0.97653 0.21554 0.0
C727 C 0.766 0.99112 0.22561 0.0
C728 C 0.77997 0.99262 0.23591 0.0
C729 C 0.73912 0.98936 0.2071 0.0
C730 C 0.74707 0.00347 0.20869 0.0
C731 C 0.76096 0.00394 0.21709 0.0
C732 C 0.73935 0.01835 0.20568 0.0
C733 C 0.72465 0.98807 0.19752 0.0
C734 C 0.74684 0.02993 0.19716 0.0
C735 C 0.74289 0.04542 0.19945 0.0
C736 C 0.73173 0.04934 0.21055 0.0
C737 C 0.72298 0.0377 0.21756 0.0
C738 C 0.72667 0.02226 0.21501 0.0
H739 H 0.72334 0.97621 0.19278 0.0
H740 H 0.71447 0.99046 0.20494 0.0
H741 H 0.72469 0.99649 0.18783 0.0
H742 H 0.75675 0.02712 0.19004 0.0
H743 H 0.74992 0.0543 0.19412 0.0
H744 H 0.0537 0.79092 0.24239 0.0
H745 H 0.02892 0.79524 0.22937 0.0
H746 H 0.00708 0.76315 0.2606 0.0
H747 H 0.03189 0.75828 0.27311 0.0
H748 H 0.0168 0.76426 0.21754 0.0
H749 H 0.9738 0.79848 0.25042 0.0
H750 H 0.99437 0.80211 0.25143 0.0
H751 H 0.98599 0.78647 0.26221 0.0
C752 C 0.04342 0.78544 0.24697 0.0
C753 C 0.04456 0.77425 0.25868 0.0
C754 C 0.02933 0.78788 0.23949 0.0
C755 C 0.01626 0.77953 0.24408 0.0
C756 C 0.01705 0.76984 0.25706 0.0
H757 H 0.94842 0.72329 0.23684 0.0
H758 H 0.97303 0.73687 0.23431 0.0
C759 C 0.03118 0.76706 0.26421 0.0
C760 C 0.00308 0.77758 0.23353 0.0
H761 H 0.96386 0.77729 0.23498 0.0
C762 C 0.0052 0.76764 0.22086 0.0
C763 C 0.98806 0.782 0.23794 0.0
C764 C 0.98537 0.79298 0.25118 0.0
C765 C 0.99256 0.76044 0.21379 0.0
C766 C 0.97762 0.76353 0.21942 0.0
C767 C 0.97542 0.77495 0.23073 0.0
C768 C 0.96484 0.75269 0.21678 0.0
C769 C 0.99525 0.74844 0.20148 0.0
C770 C 0.95253 0.75658 0.20704 0.0
C771 C 0.93861 0.74848 0.20813 0.0
C772 C 0.93686 0.73684 0.21932 0.0
C773 C 0.94963 0.7321 0.22803 0.0
C774 C 0.96362 0.73989 0.22663 0.0
H775 H 0.00685 0.74964 0.19613 0.0
H776 H 0.99441 0.73677 0.20674 0.0
H777 H 0.98629 0.74929 0.19234 0.0
H778 H 0.9533 0.76655 0.19951 0.0
H779 H 0.92876 0.75248 0.20153 0.0
H780 H 0.26273 0.93739 0.23387 0.0
H781 H 0.25524 0.96274 0.24369 0.0
H782 H 0.2427 0.94238 0.28742 0.0
H783 H 0.25048 0.91691 0.27776 0.0
H784 H 0.22477 0.96937 0.25405 0.0
H785 H 0.2691 0.98051 0.2994 0.0
H786 H 0.272 0.96626 0.28444 0.0
H787 H 0.25873 0.96249 0.2999 0.0
C788 C 0.25863 0.93833 0.24566 0.0
C789 C 0.25716 0.9252 0.25505 0.0
C790 C 0.25431 0.95279 0.25123 0.0
C791 C 0.24841 0.95437 0.26625 0.0
C792 C 0.24738 0.94138 0.27586 0.0
H793 H 0.21057 0.04865 0.27188 0.0
H794 H 0.21113 0.02145 0.28006 0.0
C795 C 0.25182 0.92687 0.27031 0.0
C796 C 0.24266 0.96961 0.27127 0.0
H797 H 0.25261 0.00099 0.29283 0.0
C798 C 0.23058 0.97625 0.26277 0.0
C799 C 0.25022 0.97834 0.28278 0.0
C800 C 0.26328 0.97165 0.29217 0.0
C801 C 0.22681 0.99188 0.26441 0.0
C802 C 0.23514 0.00097 0.27514 0.0
C803 C 0.24623 0.99394 0.28468 0.0
C804 C 0.23514 0.018 0.27395 0.0
C805 C 0.21497 -0.00119 0.25361 0.0
C806 C 0.24866 0.02522 0.26876 0.0
C807 C 0.2484 0.04061 0.26424 0.0
C808 C 0.2346 0.04911 0.26478 0.0
C809 C 0.22132 0.04228 0.27117 0.0
C810 C 0.22161 0.02678 0.2758 0.0
H811 H 0.21088 0.9904 0.24481 0.0
H812 H 0.20482 0.00276 0.26036 0.0
H813 H 0.21988 0.00897 0.2475 0.0
H814 H 0.25923 0.01867 0.26726 0.0
H815 H 0.25888 0.04562 0.25959 0.0
H816 H 0.93108 0.79843 0.73004 0.0
H817 H 0.95786 0.80144 0.73868 0.0
H818 H 0.97009 0.7592 0.71521 0.0
H819 H 0.94334 0.75589 0.70706 0.0
H820 H 0.96717 0.77452 0.75759 0.0
H821 H 0.00905 0.7878 0.71109 0.0
H822 H 0.98918 0.79427 0.71062 0.0
H823 H 0.99399 0.7748 0.70519 0.0
C824 C 0.93969 0.79027 0.72604 0.0
C825 C 0.9353 0.77688 0.71799 0.0
C826 C 0.95492 0.79197 0.73105 0.0
C827 C 0.96584 0.78053 0.72758 0.0
C828 C 0.96182 0.76823 0.71783 0.0
H829 H 0.04131 0.72848 0.74586 0.0
H830 H 0.01566 0.73936 0.7415 0.0
C831 C 0.94657 0.76634 0.71317 0.0
C832 C 0.98004 0.77908 0.73676 0.0
H833 H 0.01825 0.77159 0.73193 0.0
C834 C 0.97849 0.77436 0.75222 0.0
C835 C 0.99464 0.77887 0.72962 0.0
C836 C -0.00312 0.78435 0.71324 0.0
C837 C 0.99099 0.7679 0.76024 0.0
C838 C 0.00525 0.76641 0.75256 0.0
C839 C 0.00713 0.77253 0.73765 0.0
C840 C 0.01803 0.75717 0.75889 0.0
C841 C 0.98862 0.7616 0.77631 0.0
C842 C 0.02719 0.76287 0.77096 0.0
C843 C 0.04169 0.75634 0.77375 0.0
C844 C 0.04711 0.74438 0.76423 0.0
C845 C 0.03722 0.73762 0.75338 0.0
C846 C 0.02268 0.74392 0.75081 0.0
H847 H 0.97646 0.76278 0.78025 0.0
H848 H 0.99193 0.74921 0.77669 0.0
H849 H 0.99618 0.76788 0.78454 0.0
H850 H 0.0238 0.77317 0.77721 0.0
H851 H 0.04932 0.76186 0.78199 0.0
H852 H 0.2557 0.05582 0.76789 0.0
H853 H 0.25993 0.02829 0.76322 0.0
H854 H 0.27316 0.03821 0.71616 0.0
H855 H 0.26835 0.06565 0.72062 0.0
H856 H 0.25026 0.01831 0.71702 0.0
H857 H 0.29525 -0.00108 0.75792 0.0
H858 H 0.28018 0.00918 0.76773 0.0
H859 H 0.29198 0.01909 0.75373 0.0
C860 C 0.25999 0.05215 0.75672 0.0
C861 C 0.26157 0.06274 0.74456 0.0
C862 C 0.26247 0.03643 0.75407 0.0
C863 C 0.26692 0.03122 0.73935 0.0
C864 C 0.2697 0.042 0.72758 0.0
H865 H 0.27777 0.93217 0.72777 0.0
H866 H 0.28239 0.95989 0.7253 0.0
C867 C 0.26696 0.05764 0.73014 0.0
C868 C 0.26643 0.01459 0.73562 0.0
H869 H 0.27793 0.97922 0.7484 0.0
C870 C 0.25655 0.00976 0.72368 0.0
C871 C 0.27472 0.00348 0.74422 0.0
C872 C 0.28625 0.00796 0.7565 0.0
C873 C 0.25425 0.99408 0.72052 0.0
C874 C 0.26171 0.98296 0.72984 0.0
C875 C 0.2721 0.98778 0.74134 0.0
C876 C 0.25844 0.96628 0.72848 0.0
C877 C 0.24377 0.98961 0.70733 0.0
C878 C 0.24334 0.9607 0.73056 0.0
C879 C 0.24064 0.94484 0.73171 0.0
C880 C 0.25306 0.93446 0.73117 0.0
C881 C 0.26802 0.94001 0.72834 0.0
C882 C 0.27068 0.9558 0.72693 0.0
H883 H 0.24339 -0.0012 0.69837 0.0
H884 H 0.24756 0.97866 0.70182 0.0
H885 H 0.23186 0.98803 0.71177 0.0
H886 H 0.23378 0.96861 0.73214 0.0
H887 H 0.22903 0.9408 0.73402 0.0
H888 H 0.05686 0.27654 0.73373 0.0
H889 H 0.02938 0.28204 0.73134 0.0
H890 H 0.02087 0.23458 0.71877 0.0
H891 H 0.04844 0.22884 0.72146 0.0
H892 H 0.00456 0.27797 0.70986 0.0
H893 H 0.00093 0.24038 0.76194 0.0
H894 H 0.01908 0.24695 0.75417 0.0
H895 H 0.00888 0.23135 0.74503 0.0
C896 C 0.04921 0.26734 0.73008 0.0
C897 C 0.05467 0.25216 0.7282 0.0
C898 C 0.03353 0.27054 0.72862 0.0
C899 C 0.02316 0.25863 0.72522 0.0
C900 C 0.02877 0.24384 0.72164 0.0
H901 H 0.92429 0.2613 0.72293 0.0
H902 H 0.9514 0.26281 0.71571 0.0
C903 C 0.04449 0.24059 0.72316 0.0
C904 C 0.0066 0.26114 0.72807 0.0
H905 H 0.9778 0.25131 0.75299 0.0
C906 C -0.00138 0.27212 0.71922 0.0
C907 C -0.00086 0.25377 0.7406 0.0
C908 C 0.00744 0.24255 0.7511 0.0
C909 C 0.98317 0.27577 0.72246 0.0
C910 C 0.97563 0.2681 0.73475 0.0
C911 C 0.98368 0.25722 0.74363 0.0
C912 C 0.95913 0.27037 0.73824 0.0
C913 C 0.97515 0.28795 0.71292 0.0
C914 C 0.95449 0.27432 0.75328 0.0
C915 C 0.93899 0.27324 0.75755 0.0
C916 C 0.92799 0.26814 0.74681 0.0
C917 C 0.93254 0.2652 0.73149 0.0
C918 C 0.94802 0.26621 0.72727 0.0
H919 H 0.98357 0.29587 0.70734 0.0
H920 H 0.9684 0.28224 0.70364 0.0
H921 H 0.96707 0.29488 0.72008 0.0
H922 H 0.96298 0.27748 0.76192 0.0
H923 H 0.93578 0.27563 0.76941 0.0
H924 H 0.74276 0.03773 0.72134 0.0
H925 H 0.74286 0.0123 0.73351 0.0
H926 H 0.78861 0.02068 0.75121 0.0
H927 H 0.78878 0.04604 0.73872 0.0
H928 H 0.77187 0.98488 0.74051 0.0
H929 H 0.74763 0.02392 0.78566 0.0
H930 H 0.74354 0.02825 0.7657 0.0
H931 H 0.76291 0.02994 0.77279 0.0
C932 C 0.75318 0.03379 0.72704 0.0
C933 C 0.76562 0.04388 0.72938 0.0
C934 C 0.75321 0.01931 0.73404 0.0
C935 C 0.76561 0.01492 0.74347 0.0
C936 C 0.77895 0.02401 0.74397 0.0
H937 H 0.74581 0.93269 0.79798 0.0
H938 H 0.75843 0.95789 0.79558 0.0
C939 C 0.77904 0.03844 0.73675 0.0
C940 C 0.76296 0.00288 0.75509 0.0
H941 H 0.74206 -0.00281 0.78803 0.0
C942 C 0.76587 0.98749 0.7512 0.0
C943 C 0.75514 0.00652 0.76898 0.0
C944 C 0.75214 0.02305 0.77367 0.0
C945 C 0.76003 0.97549 0.76034 0.0
C946 C 0.75098 0.97915 0.77348 0.0
C947 C 0.74908 0.99453 0.77799 0.0
C948 C 0.74101 0.96731 0.78038 0.0
C949 C 0.7624 0.95899 0.7552 0.0
C950 C 0.72646 0.96494 0.77369 0.0
C951 C 0.71938 0.95056 0.77486 0.0
C952 C 0.72671 0.93864 0.78297 0.0
C953 C 0.73989 0.94186 0.79184 0.0
C954 C 0.74717 0.95619 0.79039 0.0
H955 H 0.77029 0.95812 0.74511 0.0
H956 H 0.76728 0.95207 0.76483 0.0
H957 H 0.75112 0.9538 0.752 0.0
H958 H 0.72159 0.97348 0.76592 0.0
H959 H 0.7093 0.9482 0.76783 0.0
H960 H 0.27693 0.25973 0.06599 0.0
H961 H 0.27668 0.27135 0.04019 0.0
H962 H 0.26397 0.2273 0.02057 0.0
H963 H 0.26491 0.21552 0.04617 0.0
H964 H 0.28394 0.2421 0.00253 0.0
H965 H 0.23661 0.28215 0.01961 0.0
H966 H 0.25426 0.28427 0.03025 0.0
H967 H 0.24318 0.26679 0.03202 0.0
C968 C 0.27428 0.25251 0.05611 0.0
C969 C 0.27075 0.23678 0.05802 0.0
C970 C 0.27405 0.25918 0.04143 0.0
C971 C 0.2699 0.25028 0.02854 0.0
C972 C 0.26713 0.2344 0.03038 0.0
H973 H 0.22009 0.26346 0.94764 0.0
H974 H 0.23025 0.26303 0.97393 0.0
C975 C 0.26765 0.22767 0.045 0.0
C976 C 0.26754 0.25742 0.01321 0.0
H977 H 0.24398 0.2822 0.99359 0.0
C978 C 0.27535 0.25101 0.00054 0.0
C979 C 0.25627 0.26902 0.01074 0.0
C980 C 0.24699 0.2759 0.02383 0.0
C981 C 0.2715 0.25512 0.98538 0.0
C982 C 0.25996 0.26645 0.98288 0.0
C983 C 0.25286 0.27358 0.99559 0.0
C984 C 0.25355 0.26938 0.96732 0.0
C985 C 0.27905 0.24642 0.97225 0.0
C986 C 0.26309 0.27378 0.95499 0.0
C987 C 0.25738 0.27366 0.93991 0.0
C988 C 0.24194 0.26959 0.93706 0.0
C989 C 0.23206 0.26659 0.94954 0.0
C990 C 0.23785 0.26637 0.96456 0.0
H991 H 0.28516 0.23589 0.97631 0.0
H992 H 0.27036 0.24291 0.96349 0.0
H993 H 0.28766 0.254 0.96654 0.0
H994 H 0.2751 0.27664 0.95694 0.0
H995 H 0.26515 0.27627 0.93045 0.0
H996 H 0.25851 0.76306 0.94882 0.0
H997 H 0.24979 0.75538 0.97459 0.0
H998 H 0.25467 0.70739 0.96219 0.0
H999 H 0.26351 0.71489 0.93644 0.0
H1000 H 0.22109 0.7281 0.97193 0.0
H1001 H 0.27161 0.72062 0.01116 0.0
H1002 H 0.27198 0.7357 0.99675 0.0
H1003 H 0.27265 0.71588 0.99083 0.0
C1004 C 0.25828 0.7509 0.95175 0.0
C1005 C 0.26144 0.73957 0.94058 0.0
C1006 C 0.25326 0.74654 0.96643 0.0
C1007 C 0.2515 0.73086 0.97007 0.0
C1008 C 0.25599 0.71954 0.95947 0.0
H1009 H 0.21615 0.71079 0.06174 0.0
H1010 H 0.22238 0.70311 0.03515 0.0
C1011 C 0.26103 0.72387 0.9448 0.0
C1012 C 0.24282 0.72649 0.98395 0.0
H1013 H 0.24682 0.72099 0.02262 0.0
C1014 C 0.22666 0.72622 0.983 0.0
C1015 C 0.25023 0.72385 -0.00183 0.0
C1016 C 0.26759 0.72395 -0.00056 0.0
C1017 C 0.21761 0.72437 0.99627 0.0
C1018 C 0.225 0.72288 0.01072 0.0
C1019 C 0.24119 0.72202 0.01146 0.0
C1020 C 0.21661 0.72535 0.0253 0.0
C1021 C 0.20026 0.72476 0.99486 0.0
C1022 C 0.21066 0.74013 0.02831 0.0
C1023 C 0.2073 0.74453 0.04341 0.0
C1024 C 0.20962 0.73412 0.05555 0.0
C1025 C 0.21398 0.71884 0.0524 0.0
C1026 C 0.2176 0.71448 0.03728 0.0
H1027 H 0.19647 0.7208 0.98325 0.0
H1028 H 0.19472 0.71742 0.00381 0.0
H1029 H 0.19618 0.73681 0.99644 0.0
H1030 H 0.21013 0.74877 0.01927 0.0
H1031 H 0.20425 0.75645 0.04575 0.0
H1032 H 0.71307 0.24432 0.93257 0.0
H1033 H 0.70698 0.25111 0.95935 0.0
H1034 H 0.73193 0.21091 0.97514 0.0
H1035 H 0.73722 0.20362 0.9483 0.0
H1036 H 0.70842 0.21862 0.99483 0.0
H1037 H 0.74403 0.27007 0.9802 0.0
H1038 H 0.72652 0.26844 0.96927 0.0
H1039 H 0.7415 0.25419 0.96702 0.0
C1040 C 0.71675 0.23667 0.94179 0.0
C1041 C 0.72578 0.22361 0.93856 0.0
C1042 C 0.71334 0.24059 0.95703 0.0
C1043 C 0.71949 0.23182 0.96918 0.0
C1044 C 0.72719 0.2179 0.9659 0.0
H1045 H 0.76131 0.25912 0.05248 0.0
H1046 H 0.75329 0.2523 0.02637 0.0
C1047 C 0.73022 0.21374 0.9506 0.0
C1048 C 0.7201 0.23823 0.98498 0.0
H1049 H 0.73581 0.26775 0.00581 0.0
C1050 C 0.71425 0.22944 -0.00273 0.0
C1051 C 0.72796 0.25225 0.98807 0.0
C1052 C 0.73549 0.26173 0.97549 0.0
C1053 C 0.71645 0.23407 0.01266 0.0
C1054 C 0.72436 0.24805 0.01569 0.0
C1055 C 0.72967 0.2571 0.00338 0.0
C1056 C 0.72881 0.25273 0.03147 0.0
C1057 C 0.71106 0.22357 0.02549 0.0
C1058 C 0.71767 0.25555 0.04289 0.0
C1059 C 0.72224 0.25934 0.0579 0.0
C1060 C 0.738 0.26055 0.06159 0.0
C1061 C 0.74908 0.2583 0.04997 0.0
C1062 C 0.74452 0.25437 0.03506 0.0
H1063 H 0.70812 0.21184 0.0212 0.0
H1064 H 0.72006 0.22246 0.03456 0.0
H1065 H 0.70057 0.22857 0.03091 0.0
H1066 H 0.70548 0.25471 0.04023 0.0
H1067 H 0.71345 0.26111 0.06663 0.0
H1068 H 0.75177 0.71686 0.94587 0.0
H1069 H 0.74898 0.72602 0.97238 0.0
H1070 H 0.7926 0.7498 0.969 0.0
H1071 H 0.79559 0.74044 0.94229 0.0
H1072 H 0.78001 0.73002 0.00036 0.0
H1073 H 0.74526 0.77798 0.97547 0.0
H1074 H 0.74282 0.75932 0.96659 0.0
H1075 H 0.76111 0.76897 0.96524 0.0
C1076 C 0.76101 0.72361 0.95094 0.0
C1077 C 0.77384 0.72804 0.94212 0.0
C1078 C 0.75938 0.72887 0.96601 0.0
C1079 C 0.77047 0.73874 0.9724 0.0
C1080 C 0.78394 0.74221 0.96412 0.0
H1081 H 0.73592 0.78005 0.05904 0.0
H1082 H 0.74946 0.77969 0.03405 0.0
C1083 C 0.78567 0.73678 0.94898 0.0
C1084 C 0.76685 0.74639 0.98708 0.0
H1085 H 0.74016 0.77132 0.00186 0.0
C1086 C 0.77171 0.7394 0.0008 0.0
C1087 C 0.75614 0.75871 0.9875 0.0
C1088 C 0.75107 0.76681 0.97293 0.0
C1089 C 0.765 0.74353 0.01493 0.0
C1090 C 0.75298 0.75463 0.0151 0.0
C1091 C 0.74924 0.76268 0.00159 0.0
C1092 C 0.74285 0.75621 0.02864 0.0
C1093 C 0.77011 0.73531 0.02942 0.0
C1094 C 0.73389 0.74352 0.03317 0.0
C1095 C 0.72622 0.74369 0.04727 0.0
C1096 C 0.72725 0.75664 0.05694 0.0
C1097 C 0.7349 0.76997 0.05169 0.0
C1098 C 0.74274 0.76973 0.03755 0.0
H1099 H 0.78213 0.73095 0.02831 0.0
H1100 H 0.76941 0.74306 0.03963 0.0
H1101 H 0.76245 0.72525 0.03149 0.0
H1102 H 0.73358 0.73313 0.02619 0.0
H1103 H 0.72031 0.73333 0.05105 0.0
H1104 H 0.55056 0.74685 0.70016 0.0
H1105 H 0.52326 0.74225 0.70617 0.0
H1106 H 0.52617 0.77449 0.74406 0.0
H1107 H 0.55345 0.77874 0.73836 0.0
H1108 H 0.52049 0.7306 0.73885 0.0
H1109 H 0.48131 0.77965 0.72525 0.0
H1110 H 0.49851 0.77551 0.71412 0.0
H1111 H 0.50005 0.78476 0.73261 0.0
C1112 C 0.54508 0.75359 0.70918 0.0
C1113 C 0.55389 0.76312 0.71885 0.0
C1114 C 0.52958 0.75087 0.71266 0.0
C1115 C 0.52285 0.75802 0.72555 0.0
C1116 C 0.53119 0.76903 0.73397 0.0
H1117 H 0.44505 0.75301 0.78383 0.0
H1118 H 0.47156 0.75618 0.77477 0.0
C1119 C 0.54671 0.77148 0.7307 0.0
C1120 C 0.50877 0.75163 0.73247 0.0
H1121 H 0.47267 0.76165 0.7441 0.0
C1122 C 0.50988 0.73721 0.73983 0.0
C1123 C 0.49521 0.76048 0.73385 0.0
C1124 C 0.49357 0.77593 0.72596 0.0
C1125 C 0.49791 0.73167 0.74918 0.0
C1126 C 0.48444 0.7407 0.75087 0.0
C1127 C 0.48315 0.75487 0.743 0.0
C1128 C 0.47122 0.73573 0.76036 0.0
C1129 C 0.50003 0.71657 0.75763 0.0
C1130 C 0.46286 0.72245 0.7563 0.0
C1131 C 0.44788 0.72039 0.76188 0.0
C1132 C 0.44112 0.73183 0.77115 0.0
C1133 C 0.45014 0.74405 0.77671 0.0
C1134 C 0.4652 0.74593 0.77143 0.0
H1135 H 0.51243 0.71347 0.75876 0.0
H1136 H 0.49481 0.71703 0.76934 0.0
H1137 H 0.49425 0.70722 0.75103 0.0
H1138 H 0.46722 0.71456 0.74763 0.0
H1139 H 0.441 0.711 0.75731 0.0
H1140 H 0.23208 0.42434 0.74656 0.0
H1141 H 0.22037 0.44997 0.74517 0.0
H1142 H 0.26351 0.47053 0.75919 0.0
H1143 H 0.27545 0.4449 0.76038 0.0
H1144 H 0.21707 0.47353 0.7673 0.0
H1145 H 0.25336 0.49144 0.71765 0.0
H1146 H 0.25176 0.47158 0.72381 0.0
H1147 H 0.26443 0.48465 0.73382 0.0
C1148 C 0.23907 0.43431 0.74942 0.0
C1149 C 0.25474 0.43268 0.7534 0.0
C1150 C 0.23234 0.44891 0.74865 0.0
C1151 C 0.24118 0.46206 0.75181 0.0
C1152 C 0.25663 0.46045 0.75642 0.0
H1153 H 0.22491 0.55419 0.77433 0.0
H1154 H 0.22484 0.5261 0.77382 0.0
C1155 C 0.2634 0.44585 0.75716 0.0
C1156 C 0.23439 0.47752 0.74986 0.0
H1157 H 0.23979 0.5115 0.73087 0.0
C1158 C 0.22187 0.48182 0.75921 0.0
C1159 C 0.24041 0.48807 0.73897 0.0
C1160 C 0.25312 0.48367 0.72787 0.0
C1161 C 0.21582 0.49683 0.75862 0.0
C1162 C 0.22269 0.50775 0.7486 0.0
C1163 C 0.23458 0.50312 0.7386 0.0
C1164 C 0.21918 0.52439 0.7495 0.0
C1165 C 0.20234 0.50091 0.76887 0.0
C1166 C 0.21584 0.53277 0.73603 0.0
C1167 C 0.21614 0.54888 0.73622 0.0
C1168 C 0.21984 0.55679 0.7499 0.0
C1169 C 0.22207 0.54839 0.7636 0.0
C1170 C 0.22186 0.53231 0.76338 0.0
H1171 H 0.19502 0.49062 0.77116 0.0
H1172 H 0.20674 0.50511 0.78015 0.0
H1173 H 0.19506 0.5101 0.76365 0.0
H1174 H 0.21383 0.52683 0.72519 0.0
H1175 H 0.21428 0.55509 0.72551 0.0
H1176 H 0.45296 0.23197 0.72744 0.0
H1177 H 0.47925 0.22718 0.7362 0.0
H1178 H 0.46222 0.2162 0.78181 0.0
H1179 H 0.43594 0.22187 0.77322 0.0
H1180 H 0.4807 0.23875 0.78383 0.0
H1181 H 0.51015 0.19577 0.74775 0.0
H1182 H 0.50062 0.20904 0.73509 0.0
H1183 H 0.48934 0.19727 0.74813 0.0
C1184 C 0.45479 0.22791 0.73915 0.0
C1185 C 0.44258 0.22749 0.74975 0.0
C1186 C 0.46984 0.22504 0.74415 0.0
C1187 C 0.47275 0.22128 0.7597 0.0
C1188 C 0.46026 0.21913 0.7698 0.0
H1189 H 0.57144 0.2349 0.77196 0.0
H1190 H 0.54685 0.22211 0.77718 0.0
C1191 C 0.44528 0.22237 0.76489 0.0
C1192 C 0.48854 0.22314 0.76596 0.0
H1193 H 0.52615 0.21826 0.75573 0.0
C1194 C 0.49065 0.23384 0.77801 0.0
C1195 C 0.5016 0.21657 0.75871 0.0
C1196 C 0.50025 0.20389 0.74683 0.0
C1197 C 0.50534 0.23933 0.78184 0.0
C1198 C 0.51816 0.23432 0.77309 0.0
C1199 C 0.51626 0.2224 0.76222 0.0
C1200 C 0.53305 0.24262 0.77341 0.0
C1201 C 0.50687 0.25094 0.79475 0.0
C1202 C 0.53347 0.25852 0.77008 0.0
C1203 C 0.54752 0.26589 0.76728 0.0
C1204 C 0.56127 0.25737 0.76742 0.0
C1205 C 0.56093 0.24169 0.77165 0.0
C1206 C 0.54693 0.23438 0.77466 0.0
H1207 H 0.49815 0.24874 0.8039 0.0
H1208 H 0.51855 0.25065 0.80002 0.0
H1209 H 0.5047 0.2627 0.79013 0.0
H1210 H 0.52289 0.26504 0.76865 0.0
H1211 H 0.54749 0.27796 0.76393 0.0
H1212 H 0.78032 0.44095 0.74443 0.0
H1213 H 0.78797 0.46797 0.74792 0.0
H1214 H 0.75517 0.48167 0.71295 0.0
H1215 H 0.74822 0.45456 0.70884 0.0
H1216 H 0.77961 0.50248 0.71581 0.0
H1217 H 0.75326 0.48761 0.77266 0.0
H1218 H 0.77067 0.47738 0.76802 0.0
H1219 H 0.75351 0.47426 0.75672 0.0
C1220 C 0.77535 0.44972 0.73699 0.0
C1221 C 0.7636 0.44593 0.72652 0.0
C1222 C 0.77966 0.46509 0.73902 0.0
C1223 C 0.77173 0.47678 0.73108 0.0
C1224 C 0.76134 0.47279 0.71926 0.0
H1225 H 0.72753 0.55736 0.76028 0.0
H1226 H 0.73698 0.53182 0.75296 0.0
C1227 C 0.75736 0.45735 0.71692 0.0
C1228 C 0.77153 0.49268 0.73719 0.0
H1229 H 0.75837 0.51356 0.76792 0.0
C1230 C 0.77523 0.50497 0.72729 0.0
C1231 C 0.76552 0.49579 0.75211 0.0
C1232 C 0.76038 0.48311 0.76297 0.0
C1233 C 0.7725 0.52033 0.73171 0.0
C1234 C 0.76622 0.52334 0.74649 0.0
C1235 C 0.76324 0.51111 0.75663 0.0
C1236 C 0.76091 0.53884 0.7511 0.0
C1237 C 0.7755 0.53312 0.72025 0.0
C1238 C 0.77131 0.55111 0.75273 0.0
C1239 C 0.76593 0.56575 0.75687 0.0
C1240 C 0.75009 0.56821 0.75954 0.0
C1241 C 0.73979 0.55578 0.75832 0.0
C1242 C 0.74516 0.54122 0.7541 0.0
H1243 H 0.7778 0.5286 0.70845 0.0
H1244 H 0.76548 0.54112 0.7197 0.0
H1245 H 0.78572 0.53987 0.72401 0.0
H1246 H 0.78355 0.54939 0.75078 0.0
H1247 H 0.77414 0.57514 0.7578 0.0
H1248 H 0.45307 0.25827 0.20928 0.0
H1249 H 0.4797 0.25527 0.21792 0.0
H1250 H 0.47525 0.29609 0.24615 0.0
H1251 H 0.44864 0.29937 0.23721 0.0
H1252 H 0.50904 0.27567 0.22543 0.0
H1253 H 0.47254 0.25411 0.2741 0.0
H1254 H 0.46453 0.25669 0.25503 0.0
H1255 H 0.46946 0.27324 0.26646 0.0
C1256 C 0.45809 0.26713 0.21655 0.0
C1257 C 0.44885 0.27886 0.22282 0.0
C1258 C 0.47326 0.2654 0.22153 0.0
C1259 C 0.47917 0.27527 0.23291 0.0
C1260 C 0.47076 0.28836 0.23739 0.0
H1261 H 0.55703 0.23906 0.28604 0.0
H1262 H 0.53279 0.25312 0.28222 0.0
C1263 C 0.45561 0.29025 0.2322 0.0
C1264 C 0.49199 0.26957 0.24242 0.0
H1265 H 0.49832 0.24581 0.2733 0.0
C1266 C 0.50685 0.26953 0.23613 0.0
C1267 C 0.48895 0.26152 0.25635 0.0
C1268 C 0.47303 0.26129 0.26347 0.0
C1269 C 0.51864 0.26087 0.243 0.0
C1270 C 0.51524 0.25178 0.25616 0.0
C1271 C 0.5007 0.25268 0.2631 0.0
C1272 C 0.5264 0.24029 0.26177 0.0
C1273 C 0.53447 0.26087 0.23569 0.0
C1274 C 0.52989 0.2276 0.25234 0.0
C1275 C 0.54369 0.21964 0.25444 0.0
C1276 C 0.55396 0.22427 0.26606 0.0
C1277 C 0.54922 0.23526 0.27703 0.0
C1278 C 0.53547 0.2434 0.27479 0.0
H1279 H 0.53623 0.27116 0.22821 0.0
H1280 H 0.54365 0.26064 0.24465 0.0
H1281 H 0.53576 0.2504 0.2284 0.0
H1282 H 0.52281 0.22497 0.24236 0.0
H1283 H 0.54715 0.21118 0.24588 0.0
H1284 H 0.73461 0.45126 0.2167 0.0
H1285 H 0.73523 0.47748 0.22707 0.0
H1286 H 0.69592 0.46725 0.25589 0.0
H1287 H 0.695 0.44095 0.24517 0.0
H1288 H 0.70904 0.50313 0.23443 0.0
H1289 H 0.73914 0.47301 0.28287 0.0
H1290 H 0.73864 0.46421 0.26398 0.0
H1291 H 0.72122 0.46577 0.27505 0.0
C1292 C 0.72564 0.45486 0.22467 0.0
C1293 C 0.71477 0.44422 0.23018 0.0
C1294 C 0.72604 0.46977 0.23062 0.0
C1295 C 0.71573 0.47412 0.24233 0.0
C1296 C 0.70391 0.46402 0.24682 0.0
H1297 H 0.74932 0.5593 0.28728 0.0
H1298 H 0.73481 0.53489 0.28654 0.0
C1299 C 0.70334 0.4491 0.24062 0.0
C1300 C 0.71934 0.48807 0.2513 0.0
H1301 H 0.74452 0.49952 0.27939 0.0
C1302 C 0.71629 0.50247 0.24463 0.0
C1303 C 0.72881 0.48705 0.26458 0.0
C1304 C 0.7322 0.47171 0.27215 0.0
C1305 C 0.72358 0.51579 0.25016 0.0
C1306 C 0.73436 0.51449 0.26237 0.0
C1307 C 0.7363 0.50036 0.26997 0.0
C1308 C 0.74543 0.52702 0.26533 0.0
C1309 C 0.72065 0.53099 0.24214 0.0
C1310 C 0.75681 0.52999 0.25422 0.0
C1311 C 0.76498 0.54381 0.25458 0.0
C1312 C 0.762 0.55471 0.26617 0.0
C1313 C 0.75192 0.55093 0.27833 0.0
C1314 C 0.74354 0.53711 0.27785 0.0
H1315 H 0.70944 0.53094 0.23589 0.0
H1316 H 0.72068 0.54068 0.25056 0.0
H1317 H 0.72997 0.53311 0.2336 0.0
H1318 H 0.75847 0.52219 0.24457 0.0
H1319 H 0.77268 0.54653 0.24508 0.0
H1320 H 0.54941 0.75332 0.23122 0.0
H1321 H 0.52552 0.75442 0.24611 0.0
H1322 H 0.53644 0.71063 0.26727 0.0
H1323 H 0.56044 0.70934 0.25206 0.0
H1324 H 0.50355 0.7164 0.25961 0.0
H1325 H 0.5304 0.76342 0.29343 0.0
H1326 H 0.53211 0.76656 0.273 0.0
H1327 H 0.5415 0.75016 0.28171 0.0
C1328 C 0.54647 0.74369 0.23866 0.0
C1329 C 0.55672 0.73131 0.24062 0.0
C1330 C 0.53294 0.7444 0.24726 0.0
C1331 C 0.52959 0.73286 0.25812 0.0
C1332 C 0.53904 0.71973 0.25908 0.0
H1333 H 0.44057 0.74869 0.30484 0.0
H1334 H 0.46765 0.74011 0.30566 0.0
C1335 C 0.5526 0.71893 0.25029 0.0
C1336 C 0.51667 0.73533 0.2689 0.0
H1337 H 0.50227 0.76352 0.29234 0.0
C1338 C 0.50336 0.72633 0.26726 0.0
C1339 C 0.51663 0.74815 0.27904 0.0
C1340 C 0.531 0.75753 0.28204 0.0
C1341 C 0.48944 0.73093 0.27414 0.0
C1342 C 0.48902 0.74483 0.28274 0.0
C1343 C 0.50269 0.7529 0.2857 0.0
C1344 C 0.47427 0.75284 0.28521 0.0
C1345 C 0.47495 0.72182 0.27094 0.0
C1346 C 0.46946 0.76342 0.27394 0.0
C1347 C 0.45412 0.76813 0.27334 0.0
C1348 C 0.44351 0.76253 0.28419 0.0
C1349 C 0.44868 0.7533 0.29651 0.0
C1350 C 0.46405 0.74833 0.29693 0.0
H1351 H 0.4774 0.7108 0.26482 0.0
H1352 H 0.46893 0.71918 0.28195 0.0
H1353 H 0.46697 0.72883 0.26373 0.0
H1354 H 0.47725 0.76697 0.2648 0.0
H1355 H 0.4503 0.77517 0.26372 0.0
H1356 H 0.27597 0.55828 0.22514 0.0
H1357 H 0.27082 0.53053 0.2246 0.0
H1358 H 0.22672 0.53911 0.20296 0.0
H1359 H 0.23155 0.56688 0.20419 0.0
H1360 H 0.22306 0.52417 0.22873 0.0
H1361 H 0.26895 0.49474 0.19562 0.0
H1362 H 0.27716 0.50742 0.20977 0.0
H1363 H 0.26573 0.51531 0.19425 0.0
C1364 C 0.26545 0.55416 0.21976 0.0
C1365 C 0.25407 0.56458 0.21485 0.0
C1366 C 0.26254 0.53831 0.21938 0.0
C1367 C 0.24839 0.53275 0.2137 0.0
C1368 C 0.23768 0.54317 0.20742 0.0
H1369 H 0.23106 0.43405 0.22221 0.0
H1370 H 0.23243 0.46008 0.21146 0.0
C1371 C 0.24044 0.55899 0.20812 0.0
C1372 C 0.24366 0.51666 0.21683 0.0
H1373 H 0.25607 0.47936 0.21522 0.0
C1374 C 0.23012 0.51433 0.22548 0.0
C1375 C 0.25279 0.50384 0.21252 0.0
C1376 C 0.26687 0.50546 0.20239 0.0
C1377 C 0.22582 0.4996 0.23052 0.0
C1378 C 0.23557 0.48696 0.22719 0.0
C1379 C 0.24872 0.48914 0.21793 0.0
C1380 C 0.23276 0.47147 0.23371 0.0
C1381 C 0.21096 0.49778 0.23945 0.0
C1382 C 0.23217 0.46932 0.24979 0.0
C1383 C 0.23116 0.45446 0.25597 0.0
C1384 C 0.23108 0.4416 0.24613 0.0
C1385 C 0.23119 0.44381 0.23005 0.0
C1386 C 0.23199 0.45864 0.22389 0.0
H1387 H 0.2026 0.50707 0.23652 0.0
H1388 H 0.20546 0.48642 0.23713 0.0
H1389 H 0.21345 0.4986 0.252 0.0
H1390 H 0.23311 0.47907 0.25757 0.0
H1391 H 0.23124 0.45302 0.26841 0.0
H1392 H 0.74928 0.69958 0.554 0.0
H1393 H 0.7407 0.69539 0.52734 0.0
H1394 H 0.77333 0.72959 0.5116 0.0
H1395 H 0.78146 0.73413 0.53814 0.0
H1396 H 0.72792 0.72342 0.5154 0.0
H1397 H 0.77076 0.69927 0.47481 0.0
H1398 H 0.77048 0.69437 0.49514 0.0
H1399 H 0.77963 0.71189 0.48865 0.0
C1400 C 0.75525 0.70548 0.54471 0.0
C1401 C 0.76597 0.7172 0.54796 0.0
C1402 C 0.75028 0.70313 0.52952 0.0
C1403 C 0.75638 0.71217 0.51754 0.0
C1404 C 0.76864 0.72231 0.52064 0.0
H1405 H 0.7525 0.771 0.44838 0.0
H1406 H 0.75247 0.75554 0.47197 0.0
C1407 C 0.77331 0.72493 0.53581 0.0
C1408 C 0.74767 0.71448 0.5031 0.0
H1409 H 0.75494 0.7207 0.465 0.0
C1410 C 0.73344 0.72226 0.50421 0.0
C1411 C 0.75488 0.71291 0.48859 0.0
C1412 C 0.76972 0.70401 0.4867 0.0
C1413 C 0.72733 0.73025 0.49151 0.0
C1414 C 0.73561 0.73022 0.47751 0.0
C1415 C 0.74876 0.72086 0.47591 0.0
C1416 C 0.73269 0.74178 0.46539 0.0
C1417 C 0.71301 0.73996 0.49351 0.0
C1418 C 0.72089 0.73979 0.45449 0.0
C1419 C 0.72068 0.74891 0.44113 0.0
C1420 C 0.73244 0.75979 0.43856 0.0
C1421 C 0.74328 0.76273 0.4502 0.0
C1422 C 0.74335 0.75383 0.46358 0.0
H1423 H 0.70744 0.73809 0.50493 0.0
H1424 H 0.71606 0.75238 0.4924 0.0
H1425 H 0.70456 0.73722 0.48427 0.0
H1426 H 0.71262 0.73049 0.45574 0.0
H1427 H 0.71236 0.74629 0.43215 0.0
H1428 H 0.78521 0.23685 0.43336 0.0
H1429 H 0.78187 0.23242 0.46104 0.0
H1430 H 0.7605 0.27724 0.46569 0.0
H1431 H 0.76436 0.28195 0.43797 0.0
H1432 H 0.778 0.26851 0.4915 0.0
H1433 H 0.73734 0.22246 0.47342 0.0
H1434 H 0.75646 0.21977 0.46588 0.0
H1435 H 0.7453 0.23632 0.46004 0.0
C1436 C 0.78026 0.24594 0.44041 0.0
C1437 C 0.77486 0.25965 0.43367 0.0
C1438 C 0.77826 0.24336 0.45614 0.0
C1439 C 0.77048 0.25429 0.46519 0.0
C1440 C 0.76639 0.26862 0.45877 0.0
H1441 H 0.72028 0.23276 0.54921 0.0
H1442 H 0.72752 0.23838 0.52243 0.0
C1443 C 0.76866 0.27133 0.44302 0.0
C1444 C 0.76525 0.25005 0.48081 0.0
H1445 H 0.74349 0.22352 0.50017 0.0
C1446 C 0.77043 0.25872 0.49344 0.0
C1447 C 0.755 0.23753 0.48317 0.0
C1448 C 0.74806 0.22858 0.4699 0.0
C1449 C 0.76601 0.25485 0.50852 0.0
C1450 C 0.75654 0.24173 0.51094 0.0
C1451 C 0.75098 0.23338 0.49826 0.0
C1452 C 0.75212 0.23662 0.52657 0.0
C1453 C 0.77131 0.26501 0.52167 0.0
C1454 C 0.76354 0.23297 0.53744 0.0
C1455 C 0.75945 0.22989 0.55269 0.0
C1456 C 0.74387 0.23012 0.55717 0.0
C1457 C 0.73237 0.23249 0.546 0.0
C1458 C 0.73649 0.23579 0.53077 0.0
H1459 H 0.77445 0.27676 0.51758 0.0
H1460 H 0.76222 0.2661 0.53066 0.0
H1461 H 0.78172 0.25982 0.52707 0.0
H1462 H 0.77563 0.23303 0.53426 0.0
H1463 H 0.76852 0.22792 0.56109 0.0
H1464 H 0.23013 0.70689 0.43878 0.0
H1465 H 0.23775 0.70645 0.46605 0.0
H1466 H 0.21321 0.74917 0.47358 0.0
H1467 H 0.20597 0.74991 0.44632 0.0
H1468 H 0.25538 0.73583 0.47453 0.0
H1469 H 0.20684 0.72124 0.51388 0.0
H1470 H 0.20844 0.71355 0.4945 0.0
H1471 H 0.20191 0.73302 0.49746 0.0
C1472 C 0.22576 0.71578 0.44644 0.0
C1473 C 0.2176 0.72852 0.44057 0.0
C1474 C 0.23018 0.71554 0.46195 0.0
C1475 C 0.22604 0.72779 0.47167 0.0
C1476 C 0.21636 0.73956 0.4662 0.0
H1477 H 0.2417 0.77296 0.55521 0.0
H1478 H 0.23628 0.76606 0.5284 0.0
C1479 C 0.21224 0.73998 0.45067 0.0
C1480 C 0.23418 0.73026 0.48632 0.0
H1481 H 0.22752 0.73595 0.52457 0.0
C1482 C 0.24948 0.73558 0.48559 0.0
C1483 C 0.2263 0.72997 0.50052 0.0
C1484 C 0.20999 0.72403 0.50175 0.0
C1485 C 0.2568 0.74167 0.49868 0.0
C1486 C 0.24861 0.74211 0.51276 0.0
C1487 C 0.23365 0.73585 0.51363 0.0
C1488 C 0.25489 0.74942 0.52678 0.0
C1489 C 0.27282 0.74835 0.49713 0.0
C1490 C 0.26788 0.7432 0.53422 0.0
C1491 C 0.27127 0.74753 0.54939 0.0
C1492 C 0.26144 0.75776 0.55723 0.0
C1493 C 0.24945 0.76512 0.54926 0.0
C1494 C 0.24628 0.76107 0.53404 0.0
H1495 H 0.27602 0.75033 0.48486 0.0
H1496 H 0.27376 0.75945 0.50349 0.0
H1497 H 0.28129 0.74016 0.50217 0.0
H1498 H 0.27453 0.73406 0.52887 0.0
H1499 H 0.28041 0.74154 0.5555 0.0
H1500 H 0.24044 0.25989 0.55045 0.0
H1501 H 0.24 0.25565 0.52255 0.0
H1502 H 0.23042 0.20727 0.52994 0.0
H1503 H 0.23136 0.21136 0.55785 0.0
H1504 H 0.2553 0.21109 0.51251 0.0
H1505 H 0.2084 0.24784 0.48956 0.0
H1506 H 0.22121 0.2587 0.50167 0.0
H1507 H 0.20999 0.24319 0.50984 0.0
C1508 C 0.23777 0.24846 0.54611 0.0
C1509 C 0.23607 0.23592 0.55624 0.0
C1510 C 0.23746 0.24605 0.53016 0.0
C1511 C 0.23511 0.23114 0.52418 0.0
C1512 C 0.23228 0.21884 0.53433 0.0
H1513 H 0.23549 0.22306 0.42428 0.0
H1514 H 0.2286 0.2181 0.45118 0.0
C1515 C 0.2328 0.22121 0.55025 0.0
C1516 C 0.23769 0.22804 0.50759 0.0
H1517 H 0.22847 0.24078 0.47155 0.0
C1518 C 0.24923 0.21736 0.50352 0.0
C1519 C 0.22968 0.23611 0.4959 0.0
C1520 C 0.21652 0.24697 0.49947 0.0
C1521 C 0.25344 0.21503 0.48806 0.0
C1522 C 0.24616 0.22389 0.47646 0.0
C1523 C 0.23415 0.23406 0.48048 0.0
C1524 C 0.25127 0.22356 0.46017 0.0
C1525 C 0.2657 0.20321 0.48437 0.0
C1526 C 0.26649 0.22763 0.45627 0.0
C1527 C 0.27053 0.2302 0.44085 0.0
C1528 C 0.25928 0.22908 0.42925 0.0
C1529 C 0.24434 0.22407 0.43307 0.0
C1530 C 0.24039 0.22126 0.44841 0.0
H1531 H 0.26614 0.19401 0.49331 0.0
H1532 H 0.26368 0.19775 0.47294 0.0
H1533 H 0.27715 0.20896 0.48415 0.0
H1534 H 0.27499 0.22979 0.46518 0.0
H1535 H 0.28207 0.23421 0.43817 0.0
H1536 H 0.21098 0.14684 0.22626 0.0
H1537 H 0.18769 0.16204 0.23 0.0
H1538 H 0.16478 0.1225 0.24987 0.0
H1539 H 0.18836 0.10718 0.2466 0.0
H1540 H 0.15878 0.15909 0.21934 0.0
H1541 H 0.15928 0.15461 0.2835 0.0
H1542 H 0.17532 0.14836 0.27176 0.0
H1543 H 0.15828 0.1366 0.27323 0.0
C1544 C 0.20101 0.14127 0.23135 0.0
C1545 C 0.20163 0.12581 0.23628 0.0
C1546 C 0.18767 0.15001 0.23348 0.0
C1547 C 0.17461 0.14349 0.24048 0.0
C1548 C 0.17488 0.12786 0.2448 0.0
H1549 H 0.09377 0.2043 0.23884 0.0
H1550 H 0.10856 0.18025 0.23817 0.0
C1551 C 0.18832 0.1191 0.24281 0.0
C1552 C 0.16099 0.1534 0.24345 0.0
H1553 H 0.14011 0.1703 0.27237 0.0
C1554 C 0.15454 0.1614 0.23091 0.0
C1555 C 0.15562 0.15647 0.25859 0.0
C1556 C 0.16253 0.14868 0.27258 0.0
C1557 C 0.14339 0.17292 0.23313 0.0
C1558 C 0.13814 0.17611 0.24829 0.0
C1559 C 0.1441 0.16768 0.26078 0.0
C1560 C 0.1277 0.18925 0.25144 0.0
C1561 C 0.13807 0.1822 0.21933 0.0
C1562 C 0.13309 0.20186 0.2601 0.0
C1563 C 0.12455 0.21554 0.26074 0.0
C1564 C 0.11061 0.21681 0.25257 0.0
C1565 C 0.10462 0.20372 0.24503 0.0
C1566 C 0.11307 0.19 0.24457 0.0
H1567 H 0.14566 0.18045 0.20912 0.0
H1568 H 0.12622 0.17857 0.21609 0.0
H1569 H 0.1378 0.19473 0.22207 0.0
H1570 H 0.14432 0.20144 0.2656 0.0
H1571 H 0.12935 0.22536 0.2668 0.0
H1572 H 0.88272 0.17349 0.25123 0.0
H1573 H 0.87274 0.14697 0.2532 0.0
H1574 H 0.82756 0.16483 0.26412 0.0
H1575 H 0.83725 0.19115 0.26208 0.0
H1576 H 0.84177 0.13571 0.28257 0.0
H1577 H 0.83844 0.13381 0.2182 0.0
H1578 H 0.85547 0.14087 0.22791 0.0
H1579 H 0.83813 0.15219 0.22802 0.0
C1580 C 0.87072 0.17173 0.25427 0.0
C1581 C 0.86071 0.1844 0.2563 0.0
C1582 C 0.86508 0.15661 0.25544 0.0
C1583 C 0.84947 0.15406 0.25885 0.0
C1584 C 0.83968 0.16664 0.26158 0.0
H1585 H 0.76943 0.10635 0.26539 0.0
H1586 H 0.79415 0.11809 0.27169 0.0
C1587 C 0.84521 0.18167 0.26026 0.0
C1588 C 0.84256 0.13857 0.25787 0.0
H1589 H 0.8227 0.11673 0.23201 0.0
C1590 C 0.83795 0.13118 0.27152 0.0
C1591 C 0.83782 0.13266 0.24344 0.0
C1592 C 0.84268 0.1402 0.22849 0.0
C1593 C 0.82767 0.11866 0.27113 0.0
C1594 C 0.8215 0.11389 0.25676 0.0
C1595 C 0.82731 0.1204 0.24306 0.0
C1596 C 0.80742 0.10422 0.25557 0.0
C1597 C 0.82311 0.11111 0.28615 0.0
C1598 C 0.80655 0.09242 0.24448 0.0
C1599 C 0.79228 0.08608 0.24048 0.0
C1600 C 0.7787 0.09128 0.24767 0.0
C1601 C 0.77971 0.10212 0.25966 0.0
C1602 C 0.79393 0.10871 0.26343 0.0
H1603 H 0.83303 0.11088 0.29429 0.0
H1604 H 0.8138 0.11798 0.29169 0.0
H1605 H 0.81895 0.09911 0.28439 0.0
H1606 H 0.81677 0.08878 0.23824 0.0
H1607 H 0.79181 0.0776 0.23128 0.0
H1608 H 0.88939 0.78537 0.23244 0.0
H1609 H 0.87119 0.80629 0.23749 0.0
H1610 H 0.84856 0.77837 0.27203 0.0
H1611 H 0.86697 0.75741 0.26722 0.0
H1612 H 0.84027 0.80265 0.23219 0.0
H1613 H 0.85057 0.82089 0.29275 0.0
H1614 H 0.8645 0.80987 0.28178 0.0
H1615 H 0.8482 0.8004 0.29048 0.0
C1616 C 0.88074 0.78379 0.24136 0.0
C1617 C 0.8795 0.76971 0.24935 0.0
C1618 C 0.87037 0.79576 0.24423 0.0
C1619 C 0.85859 0.7939 0.25517 0.0
C1620 C 0.85775 0.78014 0.26372 0.0
H1621 H 0.76796 0.83266 0.25607 0.0
H1622 H 0.7912 0.81682 0.25448 0.0
C1623 C 0.86822 0.76814 0.26091 0.0
C1624 C 0.84615 0.80557 0.25622 0.0
H1625 H 0.82683 0.82921 0.28119 0.0
C1626 C 0.83745 0.80858 0.24287 0.0
C1627 C 0.84259 0.81337 0.27011 0.0
C1628 C 0.85204 0.81111 0.28457 0.0
C1629 C 0.82494 0.81882 0.24316 0.0
C1630 C 0.82091 0.82606 0.25722 0.0
C1631 C 0.82991 0.8235 0.27046 0.0
C1632 C 0.80696 0.83577 0.25848 0.0
C1633 C 0.81605 0.82176 0.22845 0.0
C1634 C 0.80818 0.85164 0.26148 0.0
C1635 C 0.7949 0.86079 0.26237 0.0
C1636 C 0.78019 0.85415 0.26044 0.0
C1637 C 0.77908 0.83818 0.2576 0.0
C1638 C 0.79234 0.8291 0.25664 0.0
H1639 H 0.82282 0.81845 0.21806 0.0
H1640 H 0.8053 0.81479 0.22857 0.0
H1641 H 0.81276 0.83413 0.22748 0.0
H1642 H 0.81941 0.85695 0.26296 0.0
H1643 H 0.79617 0.87303 0.26464 0.0
H1644 H 0.24411 0.83891 0.24932 0.0
H1645 H 0.2236 0.81942 0.25054 0.0
H1646 H 0.18968 0.85434 0.23996 0.0
H1647 H 0.21005 0.87386 0.23862 0.0
H1648 H 0.18445 0.83408 0.2677 0.0
H1649 H 0.19658 0.80253 0.21291 0.0
H1650 H 0.2127 0.80687 0.22532 0.0
H1651 H 0.20252 0.82231 0.21598 0.0
C1652 C 0.23229 0.84242 0.2472 0.0
C1653 C 0.22866 0.8579 0.2439 0.0
C1654 C 0.22063 0.83127 0.24782 0.0
C1655 C 0.20522 0.83549 0.2452 0.0
C1656 C 0.20156 0.85091 0.24193 0.0
H1657 H 0.11643 0.79052 0.25366 0.0
H1658 H 0.13756 0.80884 0.25029 0.0
C1659 C 0.21319 0.86202 0.24119 0.0
C1660 C 0.19276 0.82396 0.24657 0.0
H1661 H 0.17677 0.79262 0.22883 0.0
C1662 C 0.18272 0.82501 0.25922 0.0
C1663 C 0.1907 0.81216 0.23549 0.0
C1664 C 0.2011 0.81085 0.22157 0.0
C1665 C 0.17066 0.81441 0.2612 0.0
C1666 C 0.1684 0.80272 0.24999 0.0
C1667 C 0.17853 0.80163 0.23737 0.0
C1668 C 0.15557 0.79153 0.25122 0.0
C1669 C 0.16067 0.81564 0.27545 0.0
C1670 C 0.15868 0.77566 0.25224 0.0
C1671 C 0.14662 0.76511 0.25404 0.0
C1672 C 0.13122 0.77026 0.25483 0.0
C1673 C 0.12815 0.78615 0.25334 0.0
C1674 C 0.14021 0.79667 0.25147 0.0
H1675 H 0.16649 0.82226 0.28477 0.0
H1676 H 0.14983 0.82179 0.27247 0.0
H1677 H 0.15761 0.80403 0.27997 0.0
H1678 H 0.17047 0.77146 0.25194 0.0
H1679 H 0.1494 0.75294 0.255 0.0
H1680 H 0.12329 0.76927 0.72967 0.0
H1681 H 0.14199 0.7904 0.72839 0.0
H1682 H 0.11234 0.81857 0.75688 0.0
H1683 H 0.09381 0.79734 0.7586 0.0
H1684 H 0.14171 0.82177 0.71978 0.0
H1685 H 0.15151 0.81394 0.78286 0.0
H1686 H 0.14054 0.80037 0.77151 0.0
H1687 H 0.13201 0.81837 0.77737 0.0
C1688 C 0.12064 0.78004 0.73545 0.0
C1689 C 0.10727 0.78156 0.74451 0.0
C1690 C 0.1313 0.79212 0.73467 0.0
C1691 C 0.12867 0.80589 0.74283 0.0
C1692 C 0.11472 0.80789 0.75079 0.0
H1693 H 0.20063 0.87857 0.73962 0.0
H1694 H 0.17495 0.86666 0.73839 0.0
C1695 C 0.10414 0.79578 0.75172 0.0
C1696 C 0.1412 0.8174 0.74425 0.0
H1697 H 0.16674 0.8324 0.77022 0.0
C1698 C 0.1471 0.82428 0.73081 0.0
C1699 C 0.14824 0.82049 0.75868 0.0
C1700 C 0.14288 0.81284 0.77343 0.0
C1701 C 0.16022 0.8338 0.73134 0.0
C1702 C 0.1674 0.83665 0.74574 0.0
C1703 C 0.16111 0.83026 0.75923 0.0
C1704 C 0.18257 0.84442 0.74691 0.0
C1705 C 0.16678 0.84002 0.71643 0.0
C1706 C 0.1952 0.83601 0.75253 0.0
C1707 C 0.20975 0.84276 0.75341 0.0
C1708 C 0.21205 0.85812 0.74864 0.0
C1709 C 0.19929 0.8667 0.74332 0.0
C1710 C 0.18463 0.85989 0.7425 0.0
H1711 H 0.16135 0.83461 0.70613 0.0
H1712 H 0.16472 0.85266 0.71585 0.0
H1713 H 0.17944 0.83804 0.71591 0.0
H1714 H 0.19385 0.82406 0.75604 0.0
H1715 H 0.21925 0.83578 0.75762 0.0
H1716 H 0.20935 0.13002 0.72504 0.0
H1717 H 0.18365 0.14126 0.72634 0.0
H1718 H 0.1668 0.10056 0.7497 0.0
H1719 H 0.19287 0.08951 0.74914 0.0
H1720 H 0.15461 0.13439 0.71753 0.0
H1721 H 0.15904 0.13307 0.78184 0.0
H1722 H 0.17516 0.12799 0.76971 0.0
H1723 H 0.1592 0.11489 0.77186 0.0
C1724 C 0.20017 0.12336 0.7303 0.0
C1725 C 0.20319 0.10909 0.73736 0.0
C1726 C 0.18543 0.12975 0.73095 0.0
C1727 C 0.17339 0.12191 0.73846 0.0
C1728 C 0.17603 0.10699 0.74424 0.0
H1729 H 0.10032 0.19301 0.74224 0.0
H1730 H 0.10873 0.16607 0.7397 0.0
C1731 C 0.19089 0.10068 0.74384 0.0
C1732 C 0.15889 0.1304 0.74167 0.0
H1733 H 0.14104 0.14972 0.77102 0.0
C1734 C 0.1513 0.13749 0.72922 0.0
C1735 C 0.15455 0.13426 0.75698 0.0
C1736 C 0.16241 0.12726 0.7709 0.0
C1737 C 0.14085 0.14964 0.73159 0.0
C1738 C 0.13759 0.15443 0.74689 0.0
C1739 C 0.1437 0.14604 0.75934 0.0
C1740 C 0.13109 0.16991 0.75017 0.0
C1741 C 0.13465 0.15823 0.71773 0.0
C1742 C 0.14056 0.18078 0.75756 0.0
C1743 C 0.13576 0.19602 0.75923 0.0
C1744 C 0.12138 0.20081 0.75341 0.0
C1745 C 0.11154 0.18974 0.74668 0.0
C1746 C 0.11634 0.17436 0.74515 0.0
H1747 H 0.13969 0.15399 0.70671 0.0
H1748 H 0.12194 0.15674 0.71712 0.0
H1749 H 0.13712 0.17077 0.71877 0.0
H1750 H 0.152 0.17761 0.76154 0.0
H1751 H 0.14361 0.20415 0.76457 0.0
H1752 H 0.89188 0.20602 0.77125 0.0
H1753 H 0.87955 0.18046 0.77186 0.0
H1754 H 0.84506 0.19647 0.73965 0.0
H1755 H 0.85723 0.22182 0.73895 0.0
H1756 H 0.84879 0.17463 0.78099 0.0
H1757 H 0.85895 0.15501 0.72115 0.0
H1758 H 0.87028 0.17008 0.73012 0.0
H1759 H 0.85183 0.17448 0.72157 0.0
C1760 C 0.88179 0.20398 0.76415 0.0
C1761 C 0.87551 0.21585 0.75502 0.0
C1762 C 0.8748 0.18942 0.76452 0.0
C1763 C 0.86161 0.18655 0.75557 0.0
C1764 C 0.85547 0.19836 0.74634 0.0
H1765 H 0.77755 0.14441 0.76035 0.0
H1766 H 0.80169 0.15802 0.76485 0.0
C1767 C 0.86236 0.21287 0.74604 0.0
C1768 C 0.85325 0.17175 0.75666 0.0
H1769 H 0.83567 0.14524 0.73356 0.0
C1770 C 0.84623 0.16789 0.77074 0.0
C1771 C 0.85024 0.16277 0.74337 0.0
C1772 C 0.85837 0.1657 0.72824 0.0
C1773 C 0.83502 0.15623 0.77148 0.0
C1774 C 0.83063 0.14856 0.75775 0.0
C1775 C 0.83884 0.15133 0.74405 0.0
C1776 C 0.81629 0.13937 0.75675 0.0
C1777 C 0.82753 0.15274 0.78682 0.0
C1778 C 0.81645 0.12445 0.75045 0.0
C1779 C 0.8026 0.11669 0.74763 0.0
C1780 C 0.78835 0.12379 0.75096 0.0
C1781 C 0.78828 0.1386 0.75762 0.0
C1782 C 0.80211 0.14633 0.76039 0.0
H1783 H 0.83571 0.15478 0.7965 0.0
H1784 H 0.81751 0.16057 0.78851 0.0
H1785 H 0.82339 0.14061 0.78739 0.0
H1786 H 0.82728 0.11896 0.7474 0.0
H1787 H 0.80308 0.10526 0.74256 0.0
H1788 H 0.83572 0.77807 0.75067 0.0
H1789 H 0.81824 0.8002 0.7518 0.0
H1790 H 0.84611 0.82414 0.71812 0.0
H1791 H 0.86396 0.80228 0.71734 0.0
H1792 H 0.83787 0.84309 0.74065 0.0
H1793 H 0.7862 0.81159 0.72041 0.0
H1794 H 0.79433 0.80264 0.73722 0.0
H1795 H 0.80531 0.80333 0.71954 0.0
C1796 C 0.8381 0.78802 0.74347 0.0
C1797 C 0.85114 0.78838 0.73383 0.0
C1798 C 0.82805 0.80062 0.74405 0.0
C1799 C 0.83066 0.81365 0.73474 0.0
C1800 C 0.84381 0.81415 0.7253 0.0
H1801 H 0.75497 0.88005 0.72833 0.0
H1802 H 0.77597 0.86273 0.72058 0.0
C1803 C 0.854 0.80165 0.72488 0.0
C1804 C 0.81982 0.82687 0.73513 0.0
H1805 H 0.7816 0.83596 0.73283 0.0
C1806 C 0.82558 0.84159 0.73874 0.0
C1807 C 0.80386 0.825 0.73223 0.0
C1808 C 0.79709 0.80981 0.72696 0.0
C1809 C 0.8157 0.85434 0.74027 0.0
C1810 C 0.79959 0.85218 0.7386 0.0
C1811 C 0.79393 0.83761 0.73427 0.0
C1812 C 0.78825 0.86445 0.74232 0.0
C1813 C 0.82265 0.86996 0.74365 0.0
C1814 C 0.78833 0.87137 0.75698 0.0
C1815 C 0.77652 0.88143 0.76131 0.0
C1816 C 0.76421 0.88446 0.75118 0.0
C1817 C 0.76433 0.8779 0.73635 0.0
C1818 C 0.7763 0.868 0.73193 0.0
H1819 H 0.83451 0.87086 0.73884 0.0
H1820 H 0.81552 0.87947 0.7388 0.0
H1821 H 0.8235 0.87154 0.75635 0.0
H1822 H 0.79714 0.86846 0.76537 0.0
H1823 H 0.77665 0.8862 0.77288 0.0
H1824 H 0.25929 0.10441 0.20449 0.0
H1825 H 0.25944 0.11306 0.17775 0.0
H1826 H 0.21768 0.0874 0.16889 0.0
H1827 H 0.21735 0.07874 0.19596 0.0
H1828 H 0.25879 0.09686 0.14841 0.0
H1829 H 0.20642 0.133 0.15914 0.0
H1830 H 0.21704 0.12478 0.17508 0.0
H1831 H 0.20581 0.11252 0.16272 0.0
C1832 C 0.25021 0.10043 0.19685 0.0
C1833 C 0.23822 0.09104 0.20235 0.0
C1834 C 0.25037 0.10531 0.18153 0.0
C1835 C 0.23853 0.10093 0.17138 0.0
C1836 C 0.22686 0.09098 0.1766 0.0
H1837 H 0.23955 0.17455 0.10313 0.0
H1838 H 0.23232 0.14765 0.10914 0.0
C1839 C 0.22671 0.08603 0.19202 0.0
C1840 C 0.23802 0.1083 0.15598 0.0
H1841 H 0.22319 0.14085 0.13955 0.0
C1842 C 0.25067 0.10612 0.14608 0.0
C1843 C 0.22727 0.1202 0.15279 0.0
C1844 C 0.21334 0.12288 0.16294 0.0
C1845 C 0.25393 0.11676 0.13431 0.0
C1846 C 0.2444 0.12989 0.13261 0.0
C1847 C 0.23056 0.13082 0.141 0.0
C1848 C 0.25051 0.1444 0.12598 0.0
C1849 C 0.26834 0.11464 0.12476 0.0
C1850 C 0.26319 0.15133 0.13331 0.0
C1851 C 0.26705 0.1666 0.13017 0.0
C1852 C 0.25845 0.17517 0.11948 0.0
C1853 C 0.24642 0.16801 0.1113 0.0
C1854 C 0.24231 0.15272 0.1147 0.0
H1855 H 0.27077 0.10218 0.12289 0.0
H1856 H 0.26732 0.12048 0.11338 0.0
H1857 H 0.27832 0.11965 0.13105 0.0
H1858 H 0.26942 0.14529 0.14234 0.0
H1859 H 0.27634 0.17195 0.13663 0.0
H1860 H 0.79558 0.27875 0.14804 0.0
H1861 H 0.82147 0.27082 0.1555 0.0
H1862 H 0.82306 0.23899 0.11716 0.0
H1863 H 0.79694 0.24708 0.1095 0.0
H1864 H 0.8265 0.22519 0.14578 0.0
H1865 H 0.86627 0.27458 0.14183 0.0
H1866 H 0.84814 0.2808 0.14966 0.0
H1867 H 0.84892 0.27325 0.13025 0.0
C1868 C 0.80163 0.27042 0.14092 0.0
C1869 C 0.79428 0.26342 0.1283 0.0
C1870 C 0.8165 0.26602 0.14507 0.0
C1871 C 0.82427 0.25447 0.13676 0.0
C1872 C 0.81732 0.24809 0.12357 0.0
H1873 H 0.89145 0.21051 0.19992 0.0
H1874 H 0.88038 0.21551 0.17428 0.0
C1875 C 0.80244 0.2527 0.11923 0.0
C1876 C 0.83794 0.24722 0.14391 0.0
H1877 H 0.86938 0.25793 0.16496 0.0
C1878 C 0.8363 0.23207 0.14947 0.0
C1879 C 0.85075 0.25617 0.14859 0.0
C1880 C 0.85369 0.27205 0.1421 0.0
C1881 C 0.84596 0.22643 0.16118 0.0
C1882 C 0.8575 0.23619 0.16725 0.0
C1883 C 0.86033 0.25059 0.16038 0.0
C1884 C 0.86452 0.23301 0.1824 0.0
C1885 C 0.84277 0.21076 0.16812 0.0
C1886 C 0.85911 0.24116 0.19532 0.0
C1887 C 0.86529 0.23831 0.2099 0.0
C1888 C 0.87703 0.2273 0.21176 0.0
C1889 C 0.88237 0.21905 0.1988 0.0
C1890 C 0.87613 0.22189 0.18418 0.0
H1891 H 0.83349 0.20448 0.16187 0.0
H1892 H 0.85343 0.20365 0.16787 0.0
H1893 H 0.83928 0.21211 0.1804 0.0
H1894 H 0.85005 0.24972 0.1941 0.0
H1895 H 0.86097 0.24484 0.21966 0.0
H1896 H 0.72307 0.8612 0.24173 0.0
H1897 H 0.71733 0.84325 0.22059 0.0
H1898 H 0.74222 0.87251 0.18884 0.0
H1899 H 0.7484 0.89019 0.20994 0.0
H1900 H 0.70279 0.8461 0.19218 0.0
H1901 H 0.76495 0.8317 0.1849 0.0
H1902 H 0.75783 0.84255 0.2012 0.0
H1903 H 0.76052 0.85185 0.18281 0.0
C1904 C 0.72719 0.86385 0.23022 0.0
C1905 C 0.73638 0.87693 0.2275 0.0
C1906 C 0.7239 0.85362 0.21816 0.0
C1907 C 0.72966 0.85641 0.20325 0.0
C1908 C 0.73802 0.86996 0.20035 0.0
H1909 H 0.72804 0.79532 0.12237 0.0
H1910 H 0.72909 0.81881 0.13823 0.0
C1911 C 0.74147 0.88007 0.2124 0.0
C1912 C 0.72759 0.84474 0.19096 0.0
H1913 H 0.74752 0.81994 0.16762 0.0
C1914 C 0.71255 0.84043 0.18674 0.0
C1915 C 0.7404 0.83737 0.18391 0.0
C1916 C 0.75683 0.84097 0.1885 0.0
C1917 C 0.70997 0.82878 0.17578 0.0
C1918 C 0.72276 0.82128 0.16897 0.0
C1919 C 0.73778 0.82587 0.17283 0.0
C1920 C 0.72087 0.80761 0.159 0.0
C1921 C 0.69363 0.8244 0.17167 0.0
C1922 C 0.71598 0.79365 0.16553 0.0
C1923 C 0.71554 0.78024 0.15662 0.0
C1924 C 0.71993 0.78059 0.14098 0.0
C1925 C 0.72452 0.79471 0.13437 0.0
C1926 C 0.72513 0.80811 0.14337 0.0
H1927 H 0.68523 0.83344 0.17521 0.0
H1928 H 0.69253 0.82239 0.15904 0.0
H1929 H 0.69057 0.81349 0.17768 0.0
H1930 H 0.71288 0.79304 0.17765 0.0
H1931 H 0.71189 0.76958 0.16206 0.0
H1932 H 0.10981 0.71936 0.23825 0.0
H1933 H 0.13119 0.71605 0.21994 0.0
H1934 H 0.11169 0.75135 0.1907 0.0
H1935 H 0.09049 0.75488 0.2089 0.0
H1936 H 0.13279 0.71234 0.184 0.0
H1937 H 0.1554 0.76694 0.2091 0.0
H1938 H 0.14143 0.75495 0.21891 0.0
H1939 H 0.13541 0.76742 0.20346 0.0
C1940 C 0.10987 0.72613 0.22774 0.0
C1941 C 0.09872 0.73767 0.2252 0.0
C1942 C 0.12208 0.72421 0.21731 0.0
C1943 C 0.12308 0.73369 0.20421 0.0
C1944 C 0.11114 0.74408 0.20089 0.0
H1945 H 0.18017 0.74235 0.12434 0.0
H1946 H 0.15999 0.737 0.14325 0.0
C1947 C 0.09903 0.74605 0.21129 0.0
C1948 C 0.13731 0.7342 0.19491 0.0
H1949 H 0.16715 0.7582 0.18587 0.0
C1950 C 0.14044 0.72225 0.18447 0.0
C1951 C 0.14737 0.74702 0.19588 0.0
C1952 C 0.14488 0.75978 0.20752 0.0
C1953 C 0.15311 0.72313 0.17438 0.0
C1954 C 0.16258 0.73647 0.1746 0.0
C1955 C 0.1598 0.74806 0.18559 0.0
C1956 C 0.17502 0.73904 0.16314 0.0
C1957 C 0.15619 0.70978 0.1636 0.0
C1958 C 0.19007 0.7425 0.16805 0.0
C1959 C 0.20159 0.74587 0.15727 0.0
C1960 C 0.19827 0.74582 0.14136 0.0
C1961 C 0.18317 0.74237 0.13649 0.0
C1962 C 0.17163 0.73914 0.14729 0.0
H1963 H 0.15148 0.6988 0.16831 0.0
H1964 H 0.1504 0.712 0.15238 0.0
H1965 H 0.16875 0.70828 0.16147 0.0
H1966 H 0.19289 0.74263 0.18024 0.0
H1967 H 0.21311 0.74843 0.16141 0.0
H1968 H 0.26637 0.8607 0.77685 0.0
H1969 H 0.26471 0.84807 0.80199 0.0
H1970 H 0.24013 0.88739 0.82035 0.0
H1971 H 0.24123 0.89987 0.79496 0.0
H1972 H 0.27439 0.85558 0.83089 0.0
H1973 H 0.21012 0.8528 0.82896 0.0
H1974 H 0.2214 0.85854 0.81243 0.0
H1975 H 0.2187 0.87168 0.82828 0.0
C1976 C 0.2607 0.86671 0.78625 0.0
C1977 C 0.25374 0.88115 0.78391 0.0
C1978 C 0.2598 0.85951 0.80063 0.0
C1979 C 0.25206 0.86668 0.81297 0.0
C1980 C 0.24583 0.8815 0.8109 0.0
H1981 H 0.25789 0.79979 0.88974 0.0
H1982 H 0.25667 0.8264 0.87993 0.0
C1983 C 0.24655 0.88863 0.79642 0.0
C1984 C 0.24991 0.85801 0.82757 0.0
H1985 H 0.22255 0.83832 0.84797 0.0
C1986 C 0.26307 0.85202 0.83489 0.0
C1987 C 0.23508 0.85355 0.8328 0.0
C1988 C 0.22049 0.85936 0.8252 0.0
C1989 C 0.26187 0.84053 0.84626 0.0
C1990 C 0.24704 0.83525 0.85071 0.0
C1991 C 0.23387 0.84242 0.84451 0.0
C1992 C 0.24503 0.82023 0.85868 0.0
C1993 C 0.27649 0.83318 0.85228 0.0
C1994 C 0.23793 0.80818 0.85051 0.0
C1995 C 0.2384 0.79314 0.85614 0.0
C1996 C 0.24609 0.78977 0.87003 0.0
C1997 C 0.25204 0.80202 0.8789 0.0
C1998 C 0.25146 0.8172 0.87327 0.0
H1999 H 0.28696 0.83744 0.8462 0.0
H2000 H 0.27779 0.83585 0.86475 0.0
H2001 H 0.27598 0.82043 0.85097 0.0
H2002 H 0.2328 0.81023 0.83928 0.0
H2003 H 0.23341 0.78404 0.84914 0.0
H2004 H 0.11838 0.26265 0.78374 0.0
H2005 H 0.12742 0.2612 0.81039 0.0
H2006 H 0.09256 0.22716 0.82071 0.0
H2007 H 0.08334 0.22857 0.79388 0.0
H2008 H 0.10886 0.2646 0.84043 0.0
H2009 H 0.13683 0.20735 0.83048 0.0
H2010 H 0.13223 0.21958 0.81423 0.0
H2011 H 0.11699 0.2107 0.82507 0.0
C2012 C 0.11252 0.25497 0.79169 0.0
C2013 C 0.10022 0.24568 0.78673 0.0
C2014 C 0.11764 0.2542 0.80692 0.0
C2015 C 0.11063 0.24408 0.81745 0.0
C2016 C 0.09808 0.23504 0.81271 0.0
H2017 H 0.18163 0.23534 0.88823 0.0
H2018 H 0.15441 0.23115 0.88083 0.0
C2019 C 0.09285 0.23587 0.79742 0.0
C2020 C 0.11753 0.24251 0.83294 0.0
H2021 H 0.14725 0.22315 0.84993 0.0
C2022 C 0.11683 0.25525 0.84292 0.0
C2023 C 0.12769 0.23017 0.83628 0.0
C2024 C 0.12857 0.21611 0.82603 0.0
C2025 C 0.12743 0.25685 0.85504 0.0
C2026 C 0.13908 0.24559 0.85693 0.0
C2027 C 0.13836 0.23185 0.84836 0.0
C2028 C 0.15407 0.24964 0.86399 0.0
C2029 C 0.127 0.27128 0.86478 0.0
C2030 C 0.16276 0.26141 0.85701 0.0
C2031 C 0.17817 0.26353 0.86092 0.0
C2032 C 0.18515 0.25407 0.87203 0.0
C2033 C 0.17633 0.24283 0.87972 0.0
C2034 C 0.16086 0.24047 0.87554 0.0
H2035 H 0.11493 0.27535 0.86636 0.0
H2036 H 0.1323 0.26931 0.8763 0.0
H2037 H 0.13348 0.28059 0.85882 0.0
H2038 H 0.1579 0.26834 0.84778 0.0
H2039 H 0.18483 0.27223 0.85486 0.0
H2040 H 0.76053 0.07723 0.78851 0.0
H2041 H 0.75993 0.0902 0.81357 0.0
H2042 H 0.73333 0.12737 0.79362 0.0
H2043 H 0.73331 0.11412 0.76877 0.0
H2044 H 0.7735 0.11619 0.81894 0.0
H2045 H 0.71231 0.12389 0.83431 0.0
H2046 H 0.71838 0.11058 0.81943 0.0
H2047 H 0.71544 0.13075 0.81505 0.0
C2048 C 0.75419 0.08796 0.78959 0.0
C2049 C 0.7471 0.09476 0.77665 0.0
C2050 C 0.75386 0.09536 0.80392 0.0
C2051 C 0.7465 0.10972 0.80555 0.0
C2052 C 0.73875 0.11612 0.7928 0.0
H2053 H 0.77313 0.19097 0.84766 0.0
H2054 H 0.77156 0.16621 0.83462 0.0
C2055 C 0.73887 0.1086 0.77852 0.0
C2056 C 0.74875 0.119 0.81978 0.0
H2057 H 0.73001 0.14365 0.84414 0.0
C2058 C 0.76394 0.12188 0.8247 0.0
C2059 C 0.73633 0.12619 0.8276 0.0
C2060 C 0.71971 0.12253 0.82391 0.0
C2061 C 0.76709 0.1327 0.83632 0.0
C2062 C 0.75476 0.14117 0.84288 0.0
C2063 C 0.73951 0.13735 0.83892 0.0
C2064 C 0.75746 0.15529 0.85217 0.0
C2065 C 0.78365 0.13525 0.84109 0.0
C2066 C 0.75006 0.15747 0.86644 0.0
C2067 C 0.75078 0.1718 0.87391 0.0
C2068 C 0.75879 0.18421 0.86713 0.0
C2069 C 0.76683 0.1817 0.85323 0.0
C2070 C 0.76606 0.16745 0.84579 0.0
H2071 H 0.79044 0.12441 0.84002 0.0
H2072 H 0.78899 0.14392 0.83331 0.0
H2073 H 0.7845 0.13948 0.85318 0.0
H2074 H 0.74328 0.14826 0.87152 0.0
H2075 H 0.74443 0.17333 0.88459 0.0
H2076 H 0.81612 0.72866 0.87776 0.0
H2077 H 0.83978 0.73431 0.8632 0.0
H2078 H 0.8124 0.74677 0.82349 0.0
H2079 H 0.78887 0.74134 0.8378 0.0
H2080 H 0.8495 0.72043 0.83521 0.0
H2081 H 0.842 0.78342 0.82827 0.0
H2082 H 0.83172 0.77242 0.84273 0.0
H2083 H 0.82477 0.77316 0.82313 0.0
C2084 C 0.81515 0.73271 0.86596 0.0
C2085 C 0.8006 0.73452 0.85893 0.0
C2086 C 0.82867 0.73593 0.85769 0.0
C2087 C 0.82778 0.7412 0.84239 0.0
C2088 C 0.8133 0.74302 0.8354 0.0
H2089 H 0.87321 0.73336 0.75902 0.0
H2090 H 0.86138 0.72913 0.78424 0.0
C2091 C 0.79985 0.73977 0.84358 0.0
C2092 C 0.84182 0.74403 0.83316 0.0
H2093 H 0.8571 0.77054 0.80845 0.0
C2094 C 0.85145 0.73148 0.82963 0.0
C2095 C 0.84457 0.75853 0.82619 0.0
C2096 C 0.8353 0.77269 0.83041 0.0
C2097 C 0.86288 0.73272 0.81821 0.0
C2098 C 0.86443 0.74676 0.80999 0.0
C2099 C 0.85575 0.75968 0.81457 0.0
C2100 C 0.87347 0.7479 0.79553 0.0
C2101 C 0.87282 0.71884 0.81471 0.0
C2102 C 0.88412 0.75993 0.79344 0.0
C2103 C 0.89069 0.76253 0.77894 0.0
C2104 C 0.88668 0.75317 0.76629 0.0
C2105 C 0.87653 0.74074 0.76855 0.0
C2106 C 0.86989 0.73821 0.78302 0.0
H2107 H 0.87448 0.71162 0.8252 0.0
H2108 H 0.86698 0.71158 0.80591 0.0
H2109 H 0.88432 0.72229 0.8102 0.0
H2110 H 0.88694 0.76762 0.8029 0.0
H2111 H 0.89855 0.77217 0.77754 0.0
H2112 H 0.12354 0.25542 0.19689 0.0
H2113 H 0.1387 0.25077 0.17344 0.0
H2114 H 0.17169 0.22445 0.19994 0.0
H2115 H 0.15663 0.22886 0.22331 0.0
H2116 H 0.1691 0.26036 0.16954 0.0
H2117 H 0.16451 0.19701 0.16217 0.0
H2118 H 0.15129 0.20795 0.17407 0.0
H2119 H 0.16988 0.20235 0.18147 0.0
C2120 C 0.1339 0.24845 0.19767 0.0
C2121 C 0.13895 0.24262 0.21198 0.0
C2122 C 0.14252 0.24581 0.18428 0.0
C2123 C 0.15618 0.23711 0.18495 0.0
C2124 C 0.16101 0.23094 0.19912 0.0
H2125 H 0.24165 0.23934 0.13869 0.0
H2126 H 0.21883 0.24225 0.15504 0.0
C2127 C 0.15247 0.23363 0.2125 0.0
C2128 C 0.16628 0.23568 0.17127 0.0
H2129 H 0.18634 0.20931 0.1499 0.0
C2130 C 0.17266 0.24922 0.16503 0.0
C2131 C 0.17076 0.22114 0.16531 0.0
C2132 C 0.16363 0.20629 0.171 0.0
C2133 C 0.18413 0.24854 0.15363 0.0
C2134 C 0.18942 0.23397 0.14851 0.0
C2135 C 0.18236 0.22047 0.15402 0.0
C2136 C 0.20301 0.2325 0.13833 0.0
C2137 C 0.19076 0.26341 0.14742 0.0
C2138 C 0.20166 0.2258 0.12364 0.0
C2139 C 0.21469 0.22412 0.11426 0.0
C2140 C 0.22927 0.22896 0.11953 0.0
C2141 C 0.23057 0.23556 0.1343 0.0
C2142 C 0.21754 0.23731 0.14361 0.0
H2143 H 0.18271 0.27326 0.14915 0.0
H2144 H 0.20165 0.26607 0.15364 0.0
H2145 H 0.19345 0.2624 0.13491 0.0
H2146 H 0.19053 0.22192 0.11945 0.0
H2147 H 0.21337 0.21893 0.10295 0.0
H2148 H 0.20662 0.75086 0.89497 0.0
H2149 H 0.18441 0.75116 0.87754 0.0
H2150 H 0.21119 0.72741 0.84286 0.0
H2151 H 0.23349 0.72703 0.86023 0.0
H2152 H 0.18541 0.76578 0.848 0.0
H2153 H 0.16941 0.7038 0.84404 0.0
H2154 H 0.18081 0.71153 0.85973 0.0
H2155 H 0.18963 0.70764 0.84134 0.0
C2156 C 0.2077 0.74545 0.88374 0.0
C2157 C 0.22179 0.73895 0.87892 0.0
C2158 C 0.19502 0.74566 0.87381 0.0
C2159 C 0.19618 0.73921 0.85901 0.0
C2160 C 0.21004 0.73223 0.85436 0.0
H2161 H 0.15243 0.75658 0.77316 0.0
H2162 H 0.16886 0.75555 0.79605 0.0
C2163 C 0.22277 0.73208 0.86425 0.0
C2164 C 0.18338 0.74097 0.84792 0.0
H2165 H 0.15897 0.72058 0.82473 0.0
C2166 C 0.17947 0.75593 0.84304 0.0
C2167 C 0.1756 0.72808 0.84165 0.0
C2168 C 0.17894 0.71185 0.84703 0.0
C2169 C 0.1684 0.7583 0.83148 0.0
C2170 C 0.16123 0.74537 0.82461 0.0
C2171 C 0.16462 0.73045 0.82999 0.0
C2172 C 0.1509 0.74699 0.81118 0.0
C2173 C 0.16463 0.77458 0.82653 0.0
C2174 C 0.1354 0.74248 0.81217 0.0
C2175 C 0.12595 0.74306 0.79911 0.0
C2176 C 0.13196 0.74796 0.78481 0.0
C2177 C 0.14746 0.7527 0.78397 0.0
C2178 C 0.15684 0.75222 0.79705 0.0
H2179 H 0.16802 0.78316 0.83546 0.0
H2180 H 0.17104 0.77731 0.81577 0.0
H2181 H 0.1521 0.77585 0.82412 0.0
H2182 H 0.13068 0.73834 0.823 0.0
H2183 H 0.11408 0.73928 0.80013 0.0
H2184 H 0.24601 0.23405 0.85767 0.0
H2185 H 0.24502 0.21075 0.84184 0.0
H2186 H 0.22616 0.18523 0.88027 0.0
H2187 H 0.2268 0.20868 0.89616 0.0
H2188 H 0.25832 0.18175 0.84558 0.0
H2189 H 0.19409 0.17862 0.84611 0.0
H2190 H 0.20445 0.19547 0.85265 0.0
H2191 H 0.20351 0.17854 0.86461 0.0
C2192 C 0.24172 0.22348 0.8628 0.0
C2193 C 0.23634 0.22322 0.8781 0.0
C2194 C 0.2412 0.21015 0.85375 0.0
C2195 C 0.23531 0.19633 0.85982 0.0
C2196 C 0.23048 0.19586 0.87529 0.0
H2197 H 0.24318 0.11777 0.79505 0.0
H2198 H 0.24312 0.13099 0.8201 0.0
C2199 C 0.23094 0.20923 0.88436 0.0
C2200 C 0.23383 0.18269 0.84959 0.0
H2201 H 0.20721 0.16082 0.83044 0.0
C2202 C 0.24718 0.17696 0.84243 0.0
C2203 C 0.21924 0.17657 0.8455 0.0
C2204 C 0.20446 0.18264 0.8525 0.0
C2205 C 0.24631 0.16583 0.83068 0.0
C2206 C 0.23168 0.16004 0.82623 0.0
C2207 C 0.2184 0.1652 0.83397 0.0
C2208 C 0.22976 0.15056 0.81211 0.0
C2209 C 0.26096 0.16115 0.82244 0.0
C2210 C 0.22152 0.15674 0.79961 0.0
C2211 C 0.22138 0.14919 0.7854 0.0
C2212 C 0.22953 0.13528 0.78334 0.0
C2213 C 0.2369 0.12854 0.79619 0.0
C2214 C 0.23698 0.13612 0.81048 0.0
H2215 H 0.27088 0.16867 0.82555 0.0
H2216 H 0.26397 0.1491 0.82564 0.0
H2217 H 0.25935 0.1616 0.80972 0.0
H2218 H 0.21578 0.16783 0.80064 0.0
H2219 H 0.2154 0.15464 0.77584 0.0
H2220 H 0.79627 0.21661 0.90823 0.0
H2221 H 0.8223 0.22209 0.89831 0.0
H2222 H 0.80336 0.2574 0.86861 0.0
H2223 H 0.7777 0.25219 0.87853 0.0
H2224 H 0.83007 0.21741 0.86908 0.0
H2225 H 0.84245 0.27827 0.88136 0.0
H2226 H 0.82812 0.26756 0.89213 0.0
H2227 H 0.82308 0.27711 0.87427 0.0
C2228 C 0.79779 0.2258 0.89988 0.0
C2229 C 0.78498 0.2339 0.89405 0.0
C2230 C 0.81265 0.22896 0.89428 0.0
C2231 C 0.81486 0.24039 0.88296 0.0
C2232 C 0.80209 0.24889 0.87771 0.0
H2233 H 0.83573 0.25031 0.79805 0.0
H2234 H 0.82988 0.24769 0.82539 0.0
C2235 C 0.78734 0.24573 0.88322 0.0
C2236 C 0.82963 0.24175 0.87442 0.0
H2237 H 0.84972 0.26926 0.85465 0.0
C2238 C 0.83494 0.22865 0.86646 0.0
C2239 C 0.83627 0.25633 0.87113 0.0
C2240 C 0.83226 0.27055 0.88036 0.0
C2241 C 0.84487 0.23014 0.85376 0.0
C2242 C 0.84944 0.24504 0.84897 0.0
C2243 C 0.84597 0.25785 0.85824 0.0
C2244 C 0.85374 0.24773 0.83273 0.0
C2245 C 0.84895 0.21601 0.84442 0.0
C2246 C 0.86915 0.2489 0.82791 0.0
C2247 C 0.87259 0.25044 0.81214 0.0
C2248 C 0.86062 0.25073 0.8011 0.0
C2249 C 0.84523 0.24995 0.80617 0.0
C2250 C 0.84185 0.2485 0.82181 0.0
H2251 H 0.84759 0.20525 0.85129 0.0
H2252 H 0.84119 0.21531 0.83423 0.0
H2253 H 0.86102 0.21676 0.84014 0.0
H2254 H 0.87844 0.2483 0.83627 0.0
H2255 H 0.88456 0.25101 0.80857 0.0
H2256 H 0.73791 0.83309 0.77053 0.0
H2257 H 0.74148 0.81376 0.79082 0.0
H2258 H 0.73301 0.84844 0.82558 0.0
H2259 H 0.72924 0.86783 0.80547 0.0
H2260 H 0.7634 0.81439 0.81496 0.0
H2261 H 0.70322 0.81318 0.83725 0.0
H2262 H 0.7082 0.82145 0.81875 0.0
H2263 H 0.71175 0.83207 0.83622 0.0
C2264 C 0.73669 0.83661 0.78248 0.0
C2265 C 0.7332 0.85201 0.78635 0.0
C2266 C 0.73876 0.82555 0.79404 0.0
C2267 C 0.73729 0.82967 0.80964 0.0
C2268 C 0.7339 0.845 0.81358 0.0
H2269 H 0.77069 0.77798 0.88866 0.0
H2270 H 0.76484 0.7981 0.86968 0.0
C2271 C 0.73183 0.85607 0.80205 0.0
C2272 C 0.73977 0.818 0.82182 0.0
H2273 H 0.72202 0.79938 0.8517 0.0
C2274 C 0.75436 0.81106 0.82298 0.0
C2275 C 0.72788 0.81367 0.83215 0.0
C2276 C 0.71183 0.82036 0.831 0.0
C2277 C 0.75746 0.79997 0.83435 0.0
C2278 C 0.74568 0.7959 0.84491 0.0
C2279 C 0.73103 0.80269 0.84365 0.0
C2280 C 0.74829 0.78427 0.85707 0.0
C2281 C 0.77321 0.7925 0.83486 0.0
C2282 C 0.74048 0.7701 0.85652 0.0
C2283 C 0.74374 0.75862 0.86736 0.0
C2284 C 0.75482 0.7612 0.87893 0.0
C2285 C 0.76215 0.77565 0.87983 0.0
C2286 C 0.75889 0.78711 0.86897 0.0
H2287 H 0.7798 0.79446 0.82402 0.0
H2288 H 0.77993 0.7975 0.84456 0.0
H2289 H 0.77222 0.77987 0.83685 0.0
H2290 H 0.7322 0.76778 0.84743 0.0
H2291 H 0.73788 0.74761 0.86644 0.0
H2292 H 0.74458 0.72299 0.13519 0.0
H2293 H 0.76511 0.71996 0.15453 0.0
H2294 H 0.79343 0.75246 0.12958 0.0
H2295 H 0.77308 0.75563 0.11036 0.0
H2296 H 0.79813 0.71186 0.1509 0.0
H2297 H 0.78787 0.77099 0.17388 0.0
H2298 H 0.77401 0.76105 0.16187 0.0
H2299 H 0.79078 0.7698 0.15336 0.0
C2300 C 0.75525 0.72934 0.13376 0.0
C2301 C 0.75718 0.73966 0.12138 0.0
C2302 C 0.76694 0.7276 0.14478 0.0
C2303 C 0.78063 0.73618 0.14354 0.0
C2304 C 0.78283 0.74593 0.13082 0.0
H2305 H 0.8662 0.73 0.19543 0.0
H2306 H 0.84652 0.73001 0.17516 0.0
C2307 C 0.7712 0.74769 0.11985 0.0
C2308 C 0.79237 0.73554 0.15586 0.0
H2309 H 0.80957 0.75752 0.18365 0.0
C2310 C 0.80063 0.72179 0.15812 0.0
C2311 C 0.79545 0.74852 0.16526 0.0
C2312 C 0.7865 0.76341 0.16361 0.0
C2313 C 0.81214 0.72076 0.16949 0.0
C2314 C 0.81546 0.73387 0.17866 0.0
C2315 C 0.80704 0.74754 0.17651 0.0
C2316 C 0.82739 0.73359 0.19085 0.0
C2317 C 0.82051 0.70564 0.17175 0.0
C2318 C 0.82314 0.73593 0.20629 0.0
C2319 C 0.83432 0.73602 0.21789 0.0
C2320 C 0.85 0.73385 0.21423 0.0
C2321 C 0.85423 0.73165 0.19867 0.0
C2322 C 0.843 0.73154 0.18708 0.0
H2323 H 0.81429 0.69586 0.16624 0.0
H2324 H 0.83215 0.70643 0.16644 0.0
H2325 H 0.82201 0.70308 0.18423 0.0
H2326 H 0.81113 0.73765 0.20938 0.0
H2327 H 0.83064 0.73781 0.22971 0.0
H2328 H 0.20157 0.79788 0.09754 0.0
H2329 H 0.2056 0.82418 0.1074 0.0
H2330 H 0.25162 0.81152 0.12179 0.0
H2331 H 0.2478 0.7856 0.11182 0.0
H2332 H 0.21032 0.83078 0.13688 0.0
H2333 H 0.25993 0.85377 0.10497 0.0
H2334 H 0.24861 0.83777 0.09774 0.0
H2335 H 0.2645 0.83447 0.11085 0.0
C2336 C 0.21263 0.80086 0.10255 0.0
C2337 C 0.22435 0.7897 0.104 0.0
C2338 C 0.21495 0.81588 0.10809 0.0
C2339 C 0.22905 0.81996 0.11498 0.0
C2340 C 0.24084 0.80887 0.11602 0.0
H2341 H 0.27048 0.84374 0.18852 0.0
H2342 H 0.26167 0.83974 0.16211 0.0
C2343 C 0.23855 0.79394 0.11053 0.0
C2344 C 0.23088 0.83471 0.12343 0.0
H2345 H 0.25966 0.85962 0.13337 0.0
C2346 C 0.22075 0.83763 0.13574 0.0
C2347 C 0.24431 0.84386 0.12178 0.0
C2348 C 0.25482 0.84238 0.10797 0.0
C2349 C 0.22489 0.84774 0.14769 0.0
C2350 C 0.23947 0.85505 0.14717 0.0
C2351 C 0.24857 0.85381 0.13382 0.0
C2352 C 0.247 0.85999 0.16164 0.0
C2353 C 0.21453 0.84904 0.16166 0.0
C2354 C 0.24209 0.87306 0.16988 0.0
C2355 C 0.24721 0.87543 0.18506 0.0
C2356 C 0.25708 0.86461 0.19212 0.0
C2357 C 0.26273 0.85215 0.18341 0.0
C2358 C 0.2578 0.84992 0.16829 0.0
H2359 H 0.20344 0.84279 0.16009 0.0
H2360 H 0.2205 0.84424 0.17196 0.0
H2361 H 0.21195 0.86137 0.16402 0.0
H2362 H 0.23375 0.88094 0.16488 0.0
H2363 H 0.24269 0.88513 0.19156 0.0
H2364 H 0.75699 0.15066 0.23524 0.0
H2365 H 0.75739 0.17304 0.21791 0.0
H2366 H 0.74067 0.14463 0.1806 0.0
H2367 H 0.7402 0.12222 0.19771 0.0
H2368 H 0.773 0.17655 0.18764 0.0
H2369 H 0.70905 0.18132 0.185 0.0
H2370 H 0.71895 0.17078 0.20006 0.0
H2371 H 0.71669 0.16236 0.18123 0.0
C2372 C 0.75347 0.14913 0.22333 0.0
C2373 C 0.74844 0.13464 0.21791 0.0
C2374 C 0.75373 0.16193 0.21347 0.0
C2375 C 0.74884 0.16047 0.1981 0.0
C2376 C 0.74427 0.14599 0.19252 0.0
H2377 H 0.75772 0.21573 0.11688 0.0
H2378 H 0.75905 0.19646 0.13743 0.0
C2379 C 0.74409 0.13318 0.20231 0.0
C2380 C 0.74826 0.17412 0.18786 0.0
H2381 H 0.72331 0.19651 0.16712 0.0
C2382 C 0.76216 0.18103 0.18324 0.0
C2383 C 0.73407 0.18001 0.18235 0.0
C2384 C 0.71881 0.17335 0.18749 0.0
C2385 C 0.76224 0.19336 0.17271 0.0
C2386 C 0.74806 0.19877 0.16665 0.0
C2387 C 0.73415 0.19225 0.17175 0.0
C2388 C 0.74745 0.21067 0.15442 0.0
C2389 C 0.77747 0.20045 0.16808 0.0
C2390 C 0.74015 0.2249 0.15709 0.0
C2391 C 0.73932 0.23596 0.14533 0.0
C2392 C 0.74563 0.23284 0.1307 0.0
C2393 C 0.75275 0.21848 0.12803 0.0
C2394 C 0.75364 0.2075 0.13979 0.0
H2395 H 0.7867 0.19783 0.1766 0.0
H2396 H 0.78107 0.19565 0.15674 0.0
H2397 H 0.77642 0.21318 0.16686 0.0
H2398 H 0.7352 0.22747 0.16829 0.0
H2399 H 0.73379 0.24693 0.1477 0.0
H2400 H 0.68993 0.65152 0.78455 0.0
H2401 H 0.66336 0.65843 0.77882 0.0
H2402 H 0.66011 0.62024 0.74693 0.0
H2403 H 0.687 0.61322 0.7527 0.0
H2404 H 0.65503 0.6479 0.73337 0.0
H2405 H 0.61924 0.64533 0.78568 0.0
H2406 H 0.63748 0.65382 0.79045 0.0
H2407 H 0.63676 0.63412 0.78364 0.0
C2408 C 0.68341 0.64429 0.77668 0.0
C2409 C 0.69053 0.63197 0.76892 0.0
C2410 C 0.66813 0.64812 0.77357 0.0
C2411 C 0.65965 0.63974 0.76258 0.0
C2412 C 0.66639 0.62672 0.75559 0.0
H2413 H 0.59253 0.70171 0.71755 0.0
H2414 H 0.60251 0.67614 0.72457 0.0
C2415 C 0.68172 0.62275 0.75887 0.0
C2416 C 0.64542 0.64679 0.7563 0.0
H2417 H 0.6148 0.66818 0.76876 0.0
C2418 C 0.64582 0.65184 0.74089 0.0
C2419 C 0.63336 0.65181 0.76608 0.0
C2420 C 0.63162 0.64581 0.78234 0.0
C2421 C 0.63574 0.66338 0.73564 0.0
C2422 C 0.6249 0.66977 0.74606 0.0
C2423 C 0.6233 0.6634 0.76088 0.0
C2424 C 0.61733 0.68469 0.74277 0.0
C2425 C 0.63781 0.66975 0.71953 0.0
C2426 C 0.62213 0.69785 0.75093 0.0
C2427 C 0.61649 0.71241 0.74697 0.0
C2428 C 0.60594 0.71404 0.73478 0.0
C2429 C 0.60077 0.70079 0.72692 0.0
C2430 C 0.60641 0.68619 0.73091 0.0
H2431 H 0.64765 0.6643 0.71335 0.0
H2432 H 0.62716 0.66771 0.71272 0.0
H2433 H 0.63978 0.68242 0.72 0.0
H2434 H 0.63062 0.6969 0.76007 0.0
H2435 H 0.62063 0.7224 0.75327 0.0
H2436 H 0.25877 0.63121 0.77487 0.0
H2437 H 0.28171 0.64762 0.77452 0.0
H2438 H 0.30432 0.61564 0.74369 0.0
H2439 H 0.28128 0.59926 0.74376 0.0
H2440 H 0.31299 0.64219 0.7817 0.0
H2441 H 0.30427 0.65668 0.71962 0.0
H2442 H 0.28961 0.64727 0.73105 0.0
H2443 H 0.30594 0.63649 0.72416 0.0
C2444 C 0.26868 0.62757 0.76816 0.0
C2445 C 0.26817 0.61405 0.7592 0.0
C2446 C 0.28178 0.63694 0.76799 0.0
C2447 C 0.29457 0.63295 0.75887 0.0
C2448 C 0.29443 0.61904 0.75058 0.0
H2449 H 0.37676 0.69295 0.76398 0.0
H2450 H 0.36108 0.66943 0.76303 0.0
C2451 C 0.28131 0.60966 0.75071 0.0
C2452 C 0.30761 0.64387 0.7575 0.0
H2453 H 0.32481 0.66894 0.7324 0.0
C2454 C 0.31575 0.64793 0.7709 0.0
C2455 C 0.31102 0.65137 0.74337 0.0
C2456 C 0.30221 0.64787 0.72873 0.0
C2457 C 0.32689 0.65969 0.7707 0.0
C2458 C 0.33012 0.66737 0.75664 0.0
C2459 C 0.32236 0.66293 0.74312 0.0
C2460 C 0.34015 0.68118 0.75607 0.0
C2461 C 0.33449 0.66434 0.78569 0.0
C2462 C 0.3337 0.69545 0.75192 0.0
C2463 C 0.3426 0.70885 0.75233 0.0
C2464 C 0.35817 0.70827 0.75692 0.0
C2465 C 0.36477 0.69384 0.76055 0.0
C2466 C 0.35582 0.6804 0.76008 0.0
H2467 H 0.3286 0.65925 0.79589 0.0
H2468 H 0.34665 0.66029 0.78569 0.0
H2469 H 0.33456 0.67711 0.78696 0.0
H2470 H 0.32163 0.69628 0.74873 0.0
H2471 H 0.33714 0.7197 0.74932 0.0
H2472 H 0.38543 0.28839 0.76437 0.0
H2473 H 0.37832 0.31556 0.76464 0.0
H2474 H 0.41345 0.32539 0.73067 0.0
H2475 H 0.42058 0.29787 0.7302 0.0
H2476 H 0.39528 0.34387 0.76992 0.0
H2477 H 0.37244 0.33852 0.70982 0.0
H2478 H 0.37737 0.32143 0.72068 0.0
H2479 H 0.39233 0.33406 0.7139 0.0
C2480 C 0.39179 0.29632 0.75707 0.0
C2481 C 0.40342 0.291 0.74713 0.0
C2482 C 0.3878 0.31188 0.75732 0.0
C2483 C 0.39531 0.32246 0.74763 0.0
C2484 C 0.40746 0.31737 0.73817 0.0
H2485 H 0.3227 0.39044 0.73834 0.0
H2486 H 0.35071 0.38563 0.73669 0.0
C2487 C 0.41151 0.30169 0.73793 0.0
C2488 C 0.38887 0.33823 0.74654 0.0
H2489 H 0.36051 0.35636 0.72618 0.0
C2490 C 0.38814 0.34706 0.76013 0.0
C2491 C 0.37981 0.34259 0.73365 0.0
C2492 C 0.38043 0.33372 0.71864 0.0
C2493 C 0.37693 0.35861 0.76192 0.0
C2494 C 0.36623 0.36119 0.74988 0.0
C2495 C 0.36863 0.35418 0.73547 0.0
C2496 C 0.3505 0.36689 0.75324 0.0
C2497 C 0.37556 0.36678 0.77723 0.0
C2498 C 0.34122 0.35804 0.76317 0.0
C2499 C 0.32536 0.36049 0.76381 0.0
C2500 C 0.31848 0.37197 0.7547 0.0
C2501 C 0.32783 0.38157 0.74554 0.0
C2502 C 0.34377 0.37888 0.74462 0.0
H2503 H 0.38712 0.36841 0.78255 0.0
H2504 H 0.36986 0.37821 0.77595 0.0
H2505 H 0.36858 0.3596 0.78524 0.0
H2506 H 0.34608 0.34847 0.76962 0.0
H2507 H 0.31837 0.35298 0.771 0.0
H2508 H 0.60102 0.3238 0.75353 0.0
H2509 H 0.60787 0.35129 0.75407 0.0
H2510 H 0.64331 0.3429 0.71998 0.0
H2511 H 0.63617 0.31595 0.71892 0.0
H2512 H 0.63336 0.36154 0.76454 0.0
H2513 H 0.63047 0.38395 0.70575 0.0
H2514 H 0.62052 0.36641 0.71109 0.0
H2515 H 0.64024 0.36582 0.70422 0.0
C2516 C 0.60986 0.32799 0.74572 0.0
C2517 C 0.61819 0.31766 0.73632 0.0
C2518 C 0.61379 0.3437 0.74608 0.0
C2519 C 0.62601 0.3493 0.73695 0.0
C2520 C 0.63354 0.33911 0.72681 0.0
H2521 H 0.70763 0.38555 0.75828 0.0
H2522 H 0.6814 0.37589 0.75958 0.0
C2523 C 0.62959 0.32354 0.72639 0.0
C2524 C 0.63297 0.36472 0.73979 0.0
H2525 H 0.65466 0.39112 0.72038 0.0
C2526 C 0.63757 0.36838 0.75492 0.0
C2527 C 0.63799 0.37422 0.72747 0.0
C2528 C 0.63183 0.37244 0.71128 0.0
C2529 C 0.64875 0.37976 0.75771 0.0
C2530 C 0.65594 0.38714 0.74501 0.0
C2531 C 0.64967 0.38509 0.73017 0.0
C2532 C 0.67131 0.39467 0.74638 0.0
C2533 C 0.65322 0.38316 0.77421 0.0
C2534 C 0.67464 0.40838 0.73833 0.0
C2535 C 0.68987 0.41362 0.73708 0.0
C2536 C 0.702 0.40534 0.74401 0.0
C2537 C 0.69855 0.3922 0.75284 0.0
C2538 C 0.68343 0.38678 0.75379 0.0
H2539 H 0.64284 0.38301 0.78176 0.0
H2540 H 0.66111 0.37398 0.77845 0.0
H2541 H 0.65899 0.39455 0.77536 0.0
H2542 H 0.66555 0.41467 0.73245 0.0
H2543 H 0.69221 0.42385 0.73025 0.0
H2544 H 0.68196 0.37541 0.22704 0.0
H2545 H 0.65977 0.35789 0.22846 0.0
H2546 H 0.68967 0.32108 0.2437 0.0
H2547 H 0.71184 0.33837 0.2424 0.0
H2548 H 0.65642 0.32848 0.2123 0.0
H2549 H 0.65418 0.32263 0.27609 0.0
H2550 H 0.66408 0.33834 0.26655 0.0
H2551 H 0.67307 0.31966 0.26803 0.0
C2552 C 0.6838 0.36362 0.23081 0.0
C2553 C 0.69868 0.3583 0.23463 0.0
C2554 C 0.67112 0.35364 0.23156 0.0
C2555 C 0.67312 0.33829 0.23632 0.0
C2556 C 0.6879 0.33297 0.24019 0.0
H2557 H 0.62542 0.25301 0.2269 0.0
H2558 H 0.64085 0.27633 0.22274 0.0
C2559 C 0.70056 0.34286 0.23937 0.0
C2560 C 0.65991 0.32755 0.23692 0.0
H2561 H 0.64058 0.30361 0.26146 0.0
C2562 C 0.65276 0.32318 0.22305 0.0
C2563 C 0.65509 0.32084 0.25099 0.0
C2564 C 0.66189 0.3257 0.2663 0.0
C2565 C 0.64137 0.31165 0.22281 0.0
C2566 C 0.63724 0.30427 0.23678 0.0
C2567 C 0.64387 0.30921 0.25073 0.0
C2568 C 0.62663 0.29091 0.23728 0.0
C2569 C 0.63398 0.30735 0.20763 0.0
C2570 C 0.61349 0.29143 0.24672 0.0
C2571 C 0.60478 0.27813 0.24922 0.0
C2572 C 0.60911 0.26404 0.24239 0.0
C2573 C 0.62181 0.2637 0.2323 0.0
C2574 C 0.63057 0.27704 0.22984 0.0
H2575 H 0.63495 0.31687 0.19907 0.0
H2576 H 0.63994 0.29708 0.20281 0.0
H2577 H 0.62159 0.30443 0.2092 0.0
H2578 H 0.6103 0.30202 0.2526 0.0
H2579 H 0.595 0.27876 0.257 0.0
H2580 H 0.74437 0.63133 0.22839 0.0
H2581 H 0.72287 0.64898 0.22305 0.0
H2582 H 0.69286 0.62106 0.25138 0.0
H2583 H 0.71434 0.60369 0.25714 0.0
H2584 H 0.69384 0.64525 0.21029 0.0
H2585 H 0.68955 0.66301 0.27185 0.0
H2586 H 0.70555 0.65185 0.26452 0.0
H2587 H 0.68743 0.64262 0.26879 0.0
C2588 C 0.73316 0.62891 0.23337 0.0
C2589 C 0.73105 0.6163 0.24335 0.0
C2590 C 0.7209 0.63898 0.23032 0.0
C2591 C 0.70638 0.63649 0.23711 0.0
C2592 C 0.70407 0.6234 0.24636 0.0
H2593 H 0.62367 0.69465 0.23742 0.0
H2594 H 0.64067 0.672 0.23856 0.0
C2595 C 0.71634 0.61346 0.24957 0.0
C2596 C 0.69385 0.64793 0.23504 0.0
H2597 H 0.67083 0.67315 0.2548 0.0
C2598 C 0.68877 0.65132 0.22001 0.0
C2599 C 0.68728 0.65584 0.24777 0.0
C2600 C 0.69281 0.65328 0.26413 0.0
C2601 C 0.67733 0.66251 0.21738 0.0
C2602 C 0.67092 0.67048 0.23009 0.0
C2603 C 0.67573 0.66687 0.24512 0.0
C2604 C 0.66016 0.68354 0.22804 0.0
C2605 C 0.67222 0.66581 0.20106 0.0
C2606 C 0.66557 0.69743 0.22176 0.0
C2607 C 0.65601 0.71039 0.22124 0.0
C2608 C 0.64081 0.70966 0.22694 0.0
C2609 C 0.63529 0.69557 0.23287 0.0
C2610 C 0.64496 0.68264 0.23354 0.0
H2611 H 0.67561 0.65641 0.193 0.0
H2612 H 0.6595 0.66738 0.20052 0.0
H2613 H 0.6777 0.67669 0.19704 0.0
H2614 H 0.67737 0.69838 0.21768 0.0
H2615 H 0.66061 0.72103 0.21654 0.0
H2616 H 0.30287 0.62168 0.23156 0.0
H2617 H 0.32818 0.63323 0.23681 0.0
H2618 H 0.30593 0.67166 0.25947 0.0
H2619 H 0.28081 0.66019 0.25461 0.0
H2620 H 0.33862 0.66095 0.22625 0.0
H2621 H 0.3396 0.66111 0.28994 0.0
H2622 H 0.32623 0.64939 0.27903 0.0
H2623 H 0.32192 0.66937 0.28302 0.0
C2624 C 0.30339 0.63248 0.23787 0.0
C2625 C 0.2898 0.64005 0.24259 0.0
C2626 C 0.31786 0.63905 0.24085 0.0
C2627 C 0.31893 0.65317 0.24874 0.0
C2628 C 0.3054 0.66056 0.25369 0.0
H2629 H 0.37331 0.73224 0.24266 0.0
H2630 H 0.35763 0.70933 0.23791 0.0
C2631 C 0.29101 0.65405 0.25074 0.0
C2632 C 0.33395 0.66105 0.25072 0.0
H2633 H 0.35463 0.68129 0.27737 0.0
C2634 C 0.34236 0.66511 0.23746 0.0
C2635 C 0.33905 0.66616 0.26537 0.0
C2636 C 0.3313 0.66112 0.28014 0.0
C2637 C 0.35498 0.67523 0.23835 0.0
C2638 C 0.35899 0.6817 0.25282 0.0
C2639 C 0.35139 0.67658 0.26621 0.0
C2640 C 0.36987 0.69482 0.25424 0.0
C2641 C 0.36361 0.67917 0.22374 0.0
C2642 C 0.38187 0.69438 0.26511 0.0
C2643 C 0.39065 0.70758 0.26808 0.0
C2644 C 0.38757 0.72144 0.2602 0.0
C2645 C 0.37598 0.72171 0.24887 0.0
C2646 C 0.36711 0.70855 0.24603 0.0
H2647 H 0.36331 0.66937 0.21544 0.0
H2648 H 0.35798 0.6892 0.21808 0.0
H2649 H 0.37585 0.68215 0.22614 0.0
H2650 H 0.38415 0.68394 0.27164 0.0
H2651 H 0.39956 0.70703 0.27684 0.0
H2652 H 0.37302 0.31104 0.23192 0.0
H2653 H 0.35617 0.33215 0.24004 0.0
H2654 H 0.35018 0.31032 0.28454 0.0
H2655 H 0.36643 0.28878 0.27604 0.0
H2656 H 0.32391 0.31604 0.27334 0.0
H2657 H 0.35751 0.36942 0.26618 0.0
H2658 H 0.35846 0.35869 0.24853 0.0
H2659 H 0.36657 0.35063 0.26598 0.0
C2660 C 0.36837 0.31097 0.24354 0.0
C2661 C 0.37075 0.29828 0.25331 0.0
C2662 C 0.35888 0.32312 0.24826 0.0
C2663 C 0.35205 0.32297 0.263 0.0
C2664 C 0.35531 0.3107 0.27312 0.0
H2665 H 0.28427 0.39737 0.27849 0.0
H2666 H 0.30726 0.38124 0.28225 0.0
C2667 C 0.36449 0.29838 0.26826 0.0
C2668 C 0.33971 0.3342 0.2668 0.0
H2669 H 0.32945 0.372 0.26236 0.0
C2670 C 0.32528 0.32833 0.27132 0.0
C2671 C 0.34145 0.3503 0.26451 0.0
C2672 C 0.35691 0.3576 0.26121 0.0
C2673 C 0.31232 0.33791 0.27243 0.0
C2674 C 0.31371 0.35366 0.26835 0.0
C2675 C 0.32834 0.35981 0.26508 0.0
C2676 C 0.29996 0.36352 0.2662 0.0
C2677 C 0.29719 0.33095 0.27759 0.0
C2678 C 0.28847 0.35903 0.25569 0.0
C2679 C 0.27535 0.36811 0.25362 0.0
C2680 C 0.27363 0.38198 0.26182 0.0
C2681 C 0.28534 0.38671 0.27202 0.0
C2682 C 0.29843 0.37753 0.2742 0.0
H2683 H 0.29913 0.32095 0.2854 0.0
H2684 H 0.28988 0.33957 0.28367 0.0
H2685 H 0.29081 0.32668 0.26733 0.0
H2686 H 0.28966 0.34849 0.24905 0.0
H2687 H 0.26657 0.36426 0.24558 0.0
H2688 H 0.75143 0.65356 0.74726 0.0
H2689 H 0.75241 0.67298 0.72661 0.0
H2690 H 0.72803 0.64197 0.69619 0.0
H2691 H 0.72691 0.62263 0.71667 0.0
H2692 H 0.76606 0.66901 0.69698 0.0
H2693 H 0.70357 0.68274 0.69283 0.0
H2694 H 0.71191 0.67312 0.70937 0.0
H2695 H 0.70795 0.66246 0.692 0.0
C2696 C 0.7462 0.65095 0.7362 0.0
C2697 C 0.7391 0.6366 0.73356 0.0
C2698 C 0.74677 0.66202 0.72444 0.0
C2699 C 0.74011 0.65894 0.70998 0.0
C2700 C 0.73297 0.64466 0.70737 0.0
H2701 H 0.75823 0.70149 0.62136 0.0
H2702 H 0.75538 0.68379 0.64321 0.0
C2703 C 0.73244 0.6336 0.71906 0.0
C2704 C 0.74124 0.67032 0.69732 0.0
H2705 H 0.71961 0.69192 0.67242 0.0
C2706 C 0.75593 0.67412 0.69166 0.0
C2707 C 0.72798 0.67699 0.69051 0.0
C2708 C 0.71196 0.67375 0.69655 0.0
C2709 C 0.75771 0.6842 0.67911 0.0
C2710 C 0.74443 0.69046 0.67196 0.0
C2711 C 0.72975 0.68694 0.67784 0.0
C2712 C 0.74557 0.70094 0.65854 0.0
C2713 C 0.77378 0.68817 0.67367 0.0
C2714 C 0.74056 0.71627 0.65983 0.0
C2715 C 0.74212 0.7264 0.64739 0.0
C2716 C 0.74864 0.72134 0.63337 0.0
C2717 C 0.75324 0.70581 0.63199 0.0
C2718 C 0.75171 0.69569 0.64448 0.0
H2719 H 0.78265 0.68534 0.68251 0.0
H2720 H 0.77644 0.68145 0.66308 0.0
H2721 H 0.77467 0.70064 0.67078 0.0
H2722 H 0.73569 0.72048 0.67058 0.0
H2723 H 0.73832 0.73824 0.64883 0.0
H2724 H 0.3698 0.76423 0.73395 0.0
H2725 H 0.354 0.76454 0.71056 0.0
H2726 H 0.38486 0.73182 0.68907 0.0
H2727 H 0.40052 0.73114 0.71257 0.0
H2728 H 0.35911 0.77007 0.67876 0.0
H2729 H 0.34342 0.70888 0.69112 0.0
H2730 H 0.35343 0.72081 0.70495 0.0
H2731 H 0.36365 0.71283 0.68874 0.0
C2732 C 0.37336 0.75729 0.72417 0.0
C2733 C 0.38618 0.74741 0.72518 0.0
C2734 C 0.36436 0.75752 0.7108 0.0
C2735 C 0.36813 0.74796 0.69825 0.0
C2736 C 0.38163 0.73904 0.69877 0.0
H2737 H 0.30417 0.74976 0.61872 0.0
H2738 H 0.32867 0.74933 0.63285 0.0
C2739 C 0.39056 0.7387 0.71218 0.0
C2740 C 0.35702 0.74622 0.68545 0.0
H2741 H 0.33074 0.72097 0.67053 0.0
C2742 C 0.35304 0.7593 0.67674 0.0
C2743 C 0.34909 0.73214 0.68302 0.0
C2744 C 0.35248 0.71787 0.6925 0.0
C2745 C 0.34085 0.75884 0.66608 0.0
C2746 C 0.33267 0.74486 0.66397 0.0
C2747 C 0.33713 0.73162 0.67216 0.0
C2748 C 0.31821 0.74421 0.65496 0.0
C2749 C 0.33625 0.77351 0.65783 0.0
C2750 C 0.30434 0.74095 0.66266 0.0
C2751 C 0.29039 0.74105 0.65466 0.0
C2752 C 0.29003 0.74443 0.63878 0.0
C2753 C 0.30403 0.74722 0.63098 0.0
C2754 C 0.31803 0.74707 0.63902 0.0
H2755 H 0.34216 0.78383 0.66265 0.0
H2756 H 0.33935 0.77255 0.64543 0.0
H2757 H 0.32358 0.77532 0.65861 0.0
H2758 H 0.30427 0.73866 0.67497 0.0
H2759 H 0.27988 0.73877 0.66105 0.0
H2760 H 0.28254 0.3885 0.69988 0.0
H2761 H 0.2812 0.3729 0.67622 0.0
H2762 H 0.25688 0.33728 0.70115 0.0
H2763 H 0.25813 0.3527 0.72471 0.0
H2764 H 0.29295 0.34253 0.67182 0.0
H2765 H 0.22981 0.3448 0.66257 0.0
H2766 H 0.23991 0.35849 0.67467 0.0
H2767 H 0.23468 0.33978 0.68209 0.0
C2768 C 0.27686 0.37736 0.70027 0.0
C2769 C 0.27038 0.37182 0.7141 0.0
C2770 C 0.27609 0.36851 0.68677 0.0
C2771 C 0.26866 0.35412 0.6869 0.0
C2772 C 0.26233 0.34853 0.70074 0.0
H2773 H 0.27391 0.26765 0.65132 0.0
H2774 H 0.27781 0.29318 0.66212 0.0
C2775 C 0.26317 0.3573 0.71422 0.0
C2776 C 0.26816 0.34435 0.67293 0.0
H2777 H 0.24313 0.32271 0.65161 0.0
C2778 C 0.28208 0.33848 0.66709 0.0
C2779 C 0.25399 0.33935 0.66655 0.0
C2780 C 0.23875 0.34606 0.67168 0.0
C2781 C 0.28213 0.32661 0.65607 0.0
C2782 C 0.26791 0.32043 0.65097 0.0
C2783 C 0.25404 0.32735 0.65567 0.0
C2784 C 0.26708 0.30532 0.64308 0.0
C2785 C 0.29738 0.32023 0.65057 0.0
C2786 C 0.2596 0.30363 0.62879 0.0
C2787 C 0.25741 0.2889 0.62245 0.0
C2788 C 0.26242 0.27566 0.63048 0.0
C2789 C 0.27006 0.27753 0.64469 0.0
C2790 C 0.27238 0.29217 0.65088 0.0
H2791 H 0.30656 0.32918 0.65105 0.0
H2792 H 0.30092 0.31057 0.65823 0.0
H2793 H 0.29653 0.31578 0.63856 0.0
H2794 H 0.25523 0.31367 0.62272 0.0
H2795 H 0.25142 0.28787 0.61151 0.0
H2796 H 0.6849 0.24176 0.60544 0.0
H2797 H 0.65774 0.2452 0.61315 0.0
H2798 H 0.66947 0.23238 0.65985 0.0
H2799 H 0.69633 0.22899 0.65237 0.0
H2800 H 0.63997 0.21931 0.64641 0.0
H2801 H 0.64685 0.2833 0.64254 0.0
H2802 H 0.65187 0.27093 0.62653 0.0
H2803 H 0.66378 0.27117 0.64348 0.0
C2804 C 0.68158 0.23942 0.61728 0.0
C2805 C 0.69274 0.23529 0.62837 0.0
C2806 C 0.66611 0.24141 0.62163 0.0
C2807 C 0.6617 0.23909 0.63705 0.0
C2808 C 0.67268 0.23417 0.64788 0.0
H2809 H 0.62677 0.24771 0.718 0.0
H2810 H 0.63526 0.24069 0.69213 0.0
C2811 C 0.68804 0.23235 0.64361 0.0
C2812 C 0.64619 0.24313 0.6428 0.0
H2813 H 0.62921 0.27371 0.66087 0.0
C2814 C 0.63713 0.23123 0.64904 0.0
C2815 C 0.64242 0.25869 0.64604 0.0
C2816 C 0.65166 0.27184 0.63932 0.0
C2817 C 0.62572 0.23445 0.66005 0.0
C2818 C 0.62357 0.24986 0.66498 0.0
C2819 C 0.63105 0.26189 0.65714 0.0
C2820 C 0.61709 0.25323 0.68038 0.0
C2821 C 0.61713 0.22123 0.66744 0.0
C2822 C 0.60422 0.26288 0.68231 0.0
C2823 C 0.59928 0.26691 0.69719 0.0
C2824 C 0.60741 0.26158 0.71023 0.0
C2825 C 0.6203 0.25199 0.70818 0.0
C2826 C 0.62506 0.24784 0.69341 0.0
H2827 H 0.6158 0.21146 0.65922 0.0
H2828 H 0.62379 0.21698 0.67754 0.0
H2829 H 0.60553 0.22493 0.6715 0.0
H2830 H 0.59812 0.26736 0.67234 0.0
H2831 H 0.58933 0.27437 0.69849 0.0
H2832 H 0.75571 0.3713 0.2541 0.0
H2833 H 0.76264 0.35567 0.27657 0.0
H2834 H 0.73359 0.38409 0.30545 0.0
H2835 H 0.72616 0.39943 0.2829 0.0
H2836 H 0.77603 0.36181 0.30452 0.0
H2837 H 0.71549 0.34167 0.31246 0.0
H2838 H 0.72159 0.35219 0.29555 0.0
H2839 H 0.71811 0.36221 0.31342 0.0
C2840 C 0.75087 0.37428 0.26524 0.0
C2841 C 0.74021 0.38641 0.26672 0.0
C2842 C 0.75487 0.36537 0.27809 0.0
C2843 C 0.74838 0.36854 0.29261 0.0
C2844 C 0.73842 0.38121 0.29428 0.0
H2845 H 0.75726 0.30565 0.37257 0.0
H2846 H 0.75422 0.33024 0.35863 0.0
C2847 C 0.73425 0.38999 0.2814 0.0
C2848 C 0.75147 0.35799 0.30572 0.0
H2849 H 0.73417 0.33143 0.3292 0.0
C2850 C 0.76686 0.35532 0.31007 0.0
C2851 C 0.73946 0.34954 0.31294 0.0
C2852 C 0.72275 0.35141 0.30831 0.0
C2853 C 0.77061 0.34397 0.32101 0.0
C2854 C 0.75866 0.33516 0.32774 0.0
C2855 C 0.74324 0.33837 0.32405 0.0
C2856 C 0.76197 0.32108 0.33671 0.0
C2857 C 0.78732 0.34105 0.32493 0.0
C2858 C 0.76729 0.30793 0.32892 0.0
C2859 C 0.76878 0.29393 0.33671 0.0
C2860 C 0.7651 0.29286 0.35249 0.0
C2861 C 0.76024 0.30618 0.36043 0.0
C2862 C 0.75851 0.32019 0.35252 0.0
H2863 H 0.79478 0.35094 0.3216 0.0
H2864 H 0.78869 0.3388 0.33749 0.0
H2865 H 0.79137 0.33065 0.3186 0.0
H2866 H 0.76982 0.30839 0.31667 0.0
H2867 H 0.77265 0.28389 0.33031 0.0
H2868 H 0.63685 0.76525 0.24943 0.0
H2869 H 0.65675 0.77028 0.26899 0.0
H2870 H 0.63031 0.74468 0.30259 0.0
H2871 H 0.6107 0.73927 0.2831 0.0
H2872 H 0.65612 0.78427 0.29794 0.0
H2873 H 0.67147 0.72219 0.30281 0.0
H2874 H 0.65942 0.72958 0.28749 0.0
H2875 H 0.65141 0.72601 0.30634 0.0
C2876 C 0.63526 0.76081 0.26102 0.0
C2877 C 0.62237 0.7517 0.26472 0.0
C2878 C 0.64661 0.76368 0.27216 0.0
C2879 C 0.64514 0.75754 0.28711 0.0
C2880 C 0.63185 0.74917 0.291 0.0
H2881 H 0.70195 0.76002 0.36974 0.0
H2882 H 0.68029 0.75875 0.35157 0.0
C2883 C 0.62063 0.74616 0.27988 0.0
C2884 C 0.65767 0.75944 0.29854 0.0
H2885 H 0.68269 0.7391 0.32126 0.0
C2886 C 0.66198 0.77442 0.303 0.0
C2887 C 0.66531 0.74652 0.30506 0.0
C2888 C 0.66179 0.73018 0.30008 0.0
C2889 C 0.67363 0.7768 0.31401 0.0
C2890 C 0.68107 0.76389 0.32064 0.0
C2891 C 0.67679 0.74894 0.31621 0.0
C2892 C 0.69384 0.76562 0.33174 0.0
C2893 C 0.6779 0.79304 0.31863 0.0
C2894 C 0.70853 0.76984 0.32648 0.0
C2895 C 0.72093 0.77043 0.33675 0.0
C2896 C 0.71881 0.76687 0.35247 0.0
C2897 C 0.70396 0.76288 0.35773 0.0
C2898 C 0.69159 0.76215 0.34739 0.0
H2899 H 0.66966 0.80172 0.31398 0.0
H2900 H 0.67825 0.79406 0.33142 0.0
H2901 H 0.68961 0.79577 0.31418 0.0
H2902 H 0.71044 0.7724 0.31438 0.0
H2903 H 0.73219 0.7736 0.33232 0.0
H2904 H 0.24045 0.72296 0.33623 0.0
H2905 H 0.24407 0.69978 0.32063 0.0
H2906 H 0.23527 0.67127 0.36054 0.0
H2907 H 0.23133 0.69441 0.37627 0.0
H2908 H 0.26444 0.67479 0.32354 0.0
H2909 H 0.20298 0.65664 0.32908 0.0
H2910 H 0.20952 0.67563 0.33464 0.0
H2911 H 0.21343 0.6593 0.34682 0.0
C2912 C 0.23932 0.71179 0.34175 0.0
C2913 C 0.23537 0.71056 0.35746 0.0
C2914 C 0.24145 0.69855 0.33282 0.0
C2915 C 0.2397 0.68385 0.3394 0.0
C2916 C 0.23638 0.68253 0.3552 0.0
H2917 H 0.26046 0.60445 0.27907 0.0
H2918 H 0.25896 0.61989 0.30277 0.0
C2919 C 0.23418 0.69578 0.36416 0.0
C2920 C 0.24077 0.67004 0.32943 0.0
H2921 H 0.21888 0.64172 0.31295 0.0
C2922 C 0.25458 0.66739 0.32137 0.0
C2923 C 0.2278 0.66052 0.32662 0.0
C2924 C 0.21254 0.66316 0.33463 0.0
C2925 C 0.25559 0.65582 0.31007 0.0
C2926 C 0.24249 0.64657 0.30699 0.0
C2927 C 0.22889 0.6488 0.31549 0.0
C2928 C 0.2421 0.63594 0.29367 0.0
C2929 C 0.27034 0.65417 0.30091 0.0
C2930 C 0.23263 0.63952 0.28103 0.0
C2931 C 0.2334 0.63074 0.26757 0.0
C2932 C 0.24364 0.6182 0.26654 0.0
C2933 C 0.25249 0.61409 0.27953 0.0
C2934 C 0.25173 0.62292 0.29303 0.0
H2935 H 0.27856 0.66376 0.30319 0.0
H2936 H 0.27609 0.64315 0.30405 0.0
H2937 H 0.26782 0.65384 0.28833 0.0
H2938 H 0.2251 0.64952 0.28137 0.0
H2939 H 0.22639 0.63413 0.25777 0.0
H2940 H 0.31151 0.23942 0.37003 0.0
H2941 H 0.33567 0.23845 0.35536 0.0
H2942 H 0.32418 0.28179 0.33356 0.0
H2943 H 0.29986 0.28258 0.34781 0.0
H2944 H 0.32839 0.25878 0.31304 0.0
H2945 H 0.3775 0.25996 0.35423 0.0
H2946 H 0.36297 0.24581 0.35859 0.0
H2947 H 0.35824 0.26601 0.35954 0.0
C2948 C 0.31439 0.24899 0.36249 0.0
C2949 C 0.30376 0.261 0.35992 0.0
C2950 C 0.32823 0.24844 0.35414 0.0
C2951 C 0.33172 0.26005 0.34337 0.0
C2952 C 0.32168 0.27269 0.34179 0.0
H2953 H 0.40766 0.27702 0.2827 0.0
H2954 H 0.39084 0.27472 0.3052 0.0
C2955 C 0.30779 0.27313 0.34993 0.0
C2956 C 0.3444 0.25799 0.33206 0.0
H2957 H 0.3834 0.25359 0.32811 0.0
C2958 C 0.34043 0.25769 0.31635 0.0
C2959 C 0.36006 0.2565 0.33642 0.0
C2960 C 0.36502 0.25721 0.35311 0.0
C2961 C 0.35165 0.2562 0.30483 0.0
C2962 C 0.36732 0.25449 0.30914 0.0
C2963 C 0.37135 0.25467 0.32487 0.0
C2964 C 0.37966 0.2538 0.29733 0.0
C2965 C 0.34658 0.25696 0.28814 0.0
C2966 C 0.37953 0.24233 0.28586 0.0
C2967 C 0.38897 0.24374 0.27284 0.0
C2968 C 0.39887 0.25649 0.27129 0.0
C2969 C 0.40011 0.26709 0.28354 0.0
C2970 C 0.39051 0.26579 0.29643 0.0
H2971 H 0.33502 0.2624 0.2869 0.0
H2972 H 0.35492 0.26357 0.28101 0.0
H2973 H 0.34585 0.24506 0.28342 0.0
H2974 H 0.37146 0.2328 0.28652 0.0
H2975 H 0.3879 0.23533 0.26363 0.0
H2976 H 0.70685 0.7329 0.58138 0.0
H2977 H 0.68347 0.73575 0.59685 0.0
H2978 H 0.70562 0.7713 0.62385 0.0
H2979 H 0.7288 0.76896 0.608 0.0
H2980 H 0.68483 0.72802 0.62629 0.0
H2981 H 0.66214 0.78754 0.62225 0.0
H2982 H 0.67546 0.7797 0.60823 0.0
H2983 H 0.68246 0.78752 0.62619 0.0
C2984 C 0.70654 0.7417 0.59028 0.0
C2985 C 0.71974 0.75049 0.59372 0.0
C2986 C 0.69317 0.74332 0.59909 0.0
C2987 C 0.6928 0.75369 0.61153 0.0
C2988 C 0.70553 0.7634 0.61415 0.0
H2989 H 0.6575 0.74119 0.70156 0.0
H2990 H 0.6716 0.74189 0.67719 0.0
C2991 C 0.71885 0.76195 0.60516 0.0
C2992 C 0.68047 0.75239 0.62329 0.0
H2993 H 0.65595 0.77351 0.64577 0.0
C2994 C 0.67828 0.73792 0.63032 0.0
C2995 C 0.67184 0.76525 0.62847 0.0
C2996 C 0.67298 0.78083 0.62076 0.0
C2997 C 0.66832 0.73614 0.64291 0.0
C2998 C 0.6606 0.74924 0.64883 0.0
C2999 C 0.66208 0.76353 0.6413 0.0
C3000 C 0.65181 0.7485 0.66342 0.0
C3001 C 0.66637 0.7203 0.64993 0.0
C3002 C 0.63607 0.75223 0.66375 0.0
C3003 C 0.62795 0.75191 0.67769 0.0
C3004 C 0.63551 0.74798 0.69156 0.0
C3005 C 0.65129 0.7442 0.69112 0.0
C3006 C 0.65937 0.74452 0.67719 0.0
H3007 H 0.66902 0.71104 0.64143 0.0
H3008 H 0.6745 0.71901 0.65976 0.0
H3009 H 0.65444 0.71859 0.65431 0.0
H3010 H 0.63008 0.7554 0.65322 0.0
H3011 H 0.61581 0.75493 0.67761 0.0
H3012 H 0.71668 0.267 0.38835 0.0
H3013 H 0.693 0.26399 0.37323 0.0
H3014 H 0.7157 0.2303 0.34434 0.0
H3015 H 0.73933 0.23309 0.3595 0.0
H3016 H 0.6903 0.27031 0.34226 0.0
H3017 H 0.67452 0.20949 0.35392 0.0
H3018 H 0.68793 0.2201 0.36587 0.0
H3019 H 0.69431 0.21142 0.34808 0.0
C3020 C 0.71655 0.25878 0.37892 0.0
C3021 C 0.72984 0.25027 0.37507 0.0
C3022 C 0.70302 0.25709 0.37032 0.0
C3023 C 0.70256 0.24677 0.35784 0.0
C3024 C 0.71573 0.23806 0.35417 0.0
H3025 H 0.65758 0.24571 0.27211 0.0
H3026 H 0.67339 0.25014 0.29496 0.0
C3027 C 0.72925 0.23974 0.36275 0.0
C3028 C 0.68883 0.24606 0.34775 0.0
H3029 H 0.66404 0.22073 0.33063 0.0
C3030 C 0.68436 0.25953 0.33991 0.0
C3031 C 0.68092 0.23206 0.34493 0.0
C3032 C 0.68456 0.21749 0.35377 0.0
C3033 C 0.67284 0.25914 0.32856 0.0
C3034 C 0.66586 0.24487 0.32483 0.0
C3035 C 0.66959 0.23162 0.33339 0.0
C3036 C 0.65574 0.24315 0.31122 0.0
C3037 C 0.66851 0.27393 0.3204 0.0
C3038 C 0.64064 0.23754 0.31282 0.0
C3039 C 0.63156 0.2349 0.29974 0.0
C3040 C 0.63752 0.23766 0.28486 0.0
C3041 C 0.65262 0.24344 0.28337 0.0
C3042 C 0.66164 0.24611 0.29643 0.0
H3043 H 0.67102 0.2842 0.3277 0.0
H3044 H 0.6754 0.27499 0.30964 0.0
H3045 H 0.65608 0.27404 0.31725 0.0
H3046 H 0.63596 0.23508 0.32416 0.0
H3047 H 0.61998 0.23043 0.30131 0.0
H3048 H 0.77684 0.66062 0.27052 0.0
H3049 H 0.77681 0.67783 0.29289 0.0
H3050 H 0.76116 0.64049 0.32189 0.0
H3051 H 0.76128 0.62303 0.29957 0.0
H3052 H 0.74322 0.6713 0.32099 0.0
H3053 H 0.80615 0.67613 0.33306 0.0
H3054 H 0.80017 0.67704 0.31315 0.0
H3055 H 0.79775 0.65942 0.32377 0.0
C3056 C 0.77347 0.656 0.28166 0.0
C3057 C 0.76901 0.64045 0.28326 0.0
C3058 C 0.77357 0.66583 0.29442 0.0
C3059 C 0.76914 0.66033 0.30897 0.0
C3060 C 0.76476 0.64484 0.31071 0.0
H3061 H 0.74515 0.71323 0.39094 0.0
H3062 H 0.7503 0.69207 0.37301 0.0
C3063 C 0.76482 0.63492 0.29796 0.0
C3064 C 0.76802 0.67116 0.32206 0.0
H3065 H 0.78962 0.69359 0.3462 0.0
C3066 C 0.75332 0.67607 0.32666 0.0
C3067 C 0.78128 0.6774 0.3292 0.0
C3068 C 0.79728 0.67221 0.32467 0.0
C3069 C 0.75149 0.6875 0.33798 0.0
C3070 C 0.76477 0.6938 0.34517 0.0
C3071 C 0.77949 0.68869 0.3407 0.0
C3072 C 0.7635 0.70603 0.35703 0.0
C3073 C 0.7354 0.69313 0.34167 0.0
C3074 C 0.77004 0.72065 0.35444 0.0
C3075 C 0.76735 0.73273 0.36484 0.0
C3076 C 0.758 0.73032 0.37786 0.0
C3077 C 0.75222 0.71545 0.38085 0.0
C3078 C 0.75508 0.70337 0.37059 0.0
H3079 H 0.72707 0.69016 0.33236 0.0
H3080 H 0.73134 0.68756 0.35248 0.0
H3081 H 0.73522 0.70584 0.34338 0.0
H3082 H 0.77668 0.72288 0.34407 0.0
H3083 H 0.77198 0.74407 0.3623 0.0
H3084 H 0.25156 0.76827 0.37069 0.0
H3085 H 0.27494 0.77127 0.35507 0.0
H3086 H 0.29931 0.74009 0.38535 0.0
H3087 H 0.27597 0.73683 0.40088 0.0
H3088 H 0.30694 0.77945 0.36157 0.0
H3089 H 0.2989 0.71858 0.3424 0.0
H3090 H 0.28399 0.72925 0.35231 0.0
H3091 H 0.30007 0.72155 0.36291 0.0
C3092 C 0.26197 0.76228 0.37418 0.0
C3093 C 0.26188 0.75209 0.38681 0.0
C3094 C 0.27531 0.76403 0.36528 0.0
C3095 C 0.2887 0.75567 0.36895 0.0
C3096 C 0.28898 0.74644 0.38224 0.0
H3097 H 0.3746 0.76132 0.31505 0.0
H3098 H 0.35647 0.76118 0.33677 0.0
C3099 C 0.27565 0.74461 0.39108 0.0
C3100 C 0.30177 0.7554 0.35802 0.0
H3101 H 0.3201 0.73204 0.3321 0.0
C3102 C 0.30995 0.76909 0.35519 0.0
C3103 C 0.30547 0.74185 0.34967 0.0
C3104 C 0.29661 0.72698 0.35183 0.0
C3105 C 0.32167 0.76964 0.344 0.0
C3106 C 0.32531 0.75609 0.33562 0.0
C3107 C 0.31731 0.74235 0.33866 0.0
C3108 C 0.33645 0.75616 0.3227 0.0
C3109 C 0.32967 0.78479 0.34081 0.0
C3110 C 0.3312 0.75304 0.30771 0.0
C3111 C 0.34148 0.75301 0.29532 0.0
C3112 C 0.35725 0.75606 0.29769 0.0
C3113 C 0.36252 0.75899 0.3128 0.0
C3114 C 0.35219 0.75901 0.32522 0.0
H3115 H 0.32361 0.79469 0.34631 0.0
H3116 H 0.3416 0.78432 0.34545 0.0
H3117 H 0.33043 0.78692 0.32818 0.0
H3118 H 0.31909 0.75075 0.30558 0.0
H3119 H 0.33699 0.75067 0.28388 0.0
H3120 H 0.23895 0.28306 0.36701 0.0
H3121 H 0.23432 0.30985 0.35976 0.0
H3122 H 0.26537 0.32521 0.39556 0.0
H3123 H 0.27021 0.29819 0.40288 0.0
H3124 H 0.22375 0.33644 0.37804 0.0
H3125 H 0.28341 0.34267 0.35434 0.0
H3126 H 0.27559 0.32379 0.35845 0.0
H3127 H 0.2806 0.33651 0.37402 0.0
C3128 C 0.24473 0.29211 0.37344 0.0
C3129 C 0.25504 0.28855 0.38541 0.0
C3130 C 0.24199 0.30742 0.36935 0.0
C3131 C 0.24953 0.31947 0.37711 0.0
C3132 C 0.25951 0.31604 0.3894 0.0
H3133 H 0.24745 0.39493 0.31109 0.0
H3134 H 0.25011 0.38696 0.33829 0.0
C3135 C 0.26225 0.30063 0.39355 0.0
C3136 C 0.24763 0.33533 0.37113 0.0
H3137 H 0.26428 0.35889 0.34438 0.0
C3138 C 0.23275 0.34175 0.37112 0.0
C3139 C 0.25945 0.3424 0.36235 0.0
C3140 C 0.27569 0.33607 0.36219 0.0
C3141 C 0.22893 0.35385 0.36106 0.0
C3142 C 0.24023 0.35941 0.35068 0.0
C3143 C 0.25559 0.35449 0.35227 0.0
C3144 C 0.2358 0.36662 0.33584 0.0
C3145 C 0.21252 0.35964 0.36066 0.0
C3146 C 0.22671 0.35795 0.32559 0.0
C3147 C 0.22545 0.36228 0.31017 0.0
C3148 C 0.23313 0.37544 0.3047 0.0
C3149 C 0.24132 0.38479 0.31513 0.0
C3150 C 0.24283 0.38028 0.33061 0.0
H3151 H 0.20732 0.35935 0.37239 0.0
H3152 H 0.21186 0.37161 0.35607 0.0
H3153 H 0.20553 0.35198 0.35313 0.0
H3154 H 0.22151 0.34716 0.32923 0.0
H3155 H 0.21906 0.35491 0.30233 0.0
H3156 H 0.3866 0.23729 0.69645 0.0
H3157 H 0.37209 0.2332 0.67266 0.0
H3158 H 0.3514 0.27833 0.67744 0.0
H3159 H 0.36539 0.28217 0.70166 0.0
H3160 H 0.33023 0.25737 0.67592 0.0
H3161 H 0.3713 0.24599 0.6284 0.0
H3162 H 0.37513 0.23378 0.64469 0.0
H3163 H 0.37728 0.25441 0.64652 0.0
C3164 C 0.37936 0.24655 0.69216 0.0
C3165 C 0.37698 0.25999 0.70098 0.0
C3166 C 0.37112 0.24423 0.67847 0.0
C3167 C 0.36067 0.25547 0.6732 0.0
C3168 C 0.35936 0.26947 0.68131 0.0
H3169 H 0.29864 0.24919 0.59479 0.0
H3170 H 0.32118 0.25377 0.61112 0.0
C3171 C 0.36736 0.27167 0.69514 0.0
C3172 C 0.34931 0.25163 0.66096 0.0
H3173 H 0.34527 0.23662 0.62466 0.0
C3174 C 0.33358 0.25302 0.66466 0.0
C3175 C 0.35361 0.24598 0.64622 0.0
C3176 C 0.37026 0.24511 0.64117 0.0
C3177 C 0.32207 0.2487 0.65419 0.0
C3178 C 0.32635 0.24225 0.63981 0.0
C3179 C 0.34205 0.24121 0.63587 0.0
C3180 C 0.3145 0.2372 0.62859 0.0
C3181 C 0.30539 0.25134 0.65856 0.0
C3182 C 0.3037 0.22581 0.63267 0.0
C3183 C 0.29071 0.22327 0.62345 0.0
C3184 C 0.28846 0.23197 0.60994 0.0
C3185 C 0.30002 0.24236 0.60519 0.0
C3186 C 0.31293 0.24499 0.61449 0.0
H3187 H 0.30422 0.26016 0.66782 0.0
H3188 H 0.29857 0.25517 0.64841 0.0
H3189 H 0.30037 0.24038 0.6629 0.0
H3190 H 0.30489 0.21949 0.6434 0.0
H3191 H 0.28207 0.21509 0.62731 0.0
H3192 H 0.74933 0.2634 0.63697 0.0
H3193 H 0.74662 0.28685 0.65249 0.0
H3194 H 0.72114 0.30856 0.61557 0.0
H3195 H 0.72355 0.28504 0.60006 0.0
H3196 H 0.75595 0.31709 0.64623 0.0
H3197 H 0.69218 0.31276 0.65289 0.0
H3198 H 0.7038 0.29693 0.64589 0.0
H3199 H 0.69925 0.31284 0.63337 0.0
C3200 C 0.7432 0.27318 0.63213 0.0
C3201 C 0.73656 0.27237 0.61736 0.0
C3202 C 0.74167 0.28656 0.641 0.0
C3203 C 0.73349 0.29932 0.63524 0.0
C3204 C 0.72724 0.29872 0.62031 0.0
H3205 H 0.73775 0.38553 0.68886 0.0
H3206 H 0.73717 0.3683 0.66645 0.0
C3207 C 0.72871 0.28531 0.61146 0.0
C3208 C 0.73145 0.31314 0.64504 0.0
H3209 H 0.70442 0.33384 0.66493 0.0
C3210 C 0.74469 0.32089 0.65022 0.0
C3211 C 0.71672 0.31793 0.65023 0.0
C3212 C 0.70216 0.30964 0.64544 0.0
C3213 C 0.74366 0.33303 0.66087 0.0
C3214 C 0.72894 0.33773 0.66622 0.0
C3215 C 0.71566 0.33029 0.66067 0.0
C3216 C 0.72726 0.34903 0.67891 0.0
C3217 C 0.75837 0.34017 0.66692 0.0
C3218 C 0.72111 0.34415 0.69307 0.0
C3219 C 0.72128 0.35396 0.70584 0.0
C3220 C 0.72765 0.36887 0.70469 0.0
C3221 C 0.73292 0.37407 0.69021 0.0
C3222 C 0.73268 0.36423 0.6774 0.0
H3223 H 0.76872 0.33321 0.66386 0.0
H3224 H 0.75981 0.35185 0.66183 0.0
H3225 H 0.75791 0.34142 0.67968 0.0
H3226 H 0.7168 0.33248 0.69444 0.0
H3227 H 0.71698 0.3496 0.71675 0.0
H3228 H 0.23079 0.61417 0.70237 0.0
H3229 H 0.23403 0.62526 0.67655 0.0
H3230 H 0.25299 0.66668 0.69672 0.0
H3231 H 0.25004 0.65571 0.72245 0.0
H3232 H 0.22019 0.65157 0.66571 0.0
H3233 H 0.28354 0.65757 0.66227 0.0
H3234 H 0.27422 0.64526 0.67632 0.0
H3235 H 0.27631 0.66566 0.67992 0.0
C3236 C 0.23584 0.62557 0.70131 0.0
C3237 C 0.2401 0.63408 0.7145 0.0
C3238 C 0.23768 0.63186 0.68654 0.0
C3239 C 0.24398 0.64667 0.68473 0.0
C3240 C 0.24845 0.65508 0.69784 0.0
H3241 H 0.22973 0.72313 0.62948 0.0
H3242 H 0.22743 0.7001 0.64551 0.0
C3243 C 0.2466 0.64884 0.71257 0.0
C3244 C 0.24469 0.65407 0.66936 0.0
H3245 H 0.2686 0.67557 0.6467 0.0
C3246 C 0.23083 0.65653 0.66132 0.0
C3247 C 0.25862 0.66018 0.66344 0.0
C3248 C 0.27403 0.65687 0.67087 0.0
C3249 C 0.23034 0.66611 0.64827 0.0
C3250 C 0.24399 0.6736 0.64339 0.0
C3251 C 0.25807 0.67002 0.6506 0.0
C3252 C 0.24373 0.68652 0.63222 0.0
C3253 C 0.21512 0.6685 0.64014 0.0
C3254 C 0.25369 0.68657 0.61944 0.0
C3255 C 0.25517 0.69983 0.61035 0.0
C3256 C 0.24678 0.71326 0.61399 0.0
C3257 C 0.23633 0.71295 0.62638 0.0
C3258 C 0.23489 0.69973 0.63547 0.0
H3259 H 0.20762 0.65814 0.64129 0.0
H3260 H 0.20896 0.67837 0.64554 0.0
H3261 H 0.21678 0.67105 0.62768 0.0
H3262 H 0.2607 0.67653 0.61681 0.0
H3263 H 0.2633 0.69973 0.60084 0.0
H3264 H 0.1944 0.36386 0.22919 0.0
H3265 H 0.167 0.35897 0.22808 0.0
H3266 H 0.1583 0.39923 0.25625 0.0
H3267 H 0.18611 0.40394 0.25783 0.0
H3268 H 0.14673 0.37607 0.26977 0.0
H3269 H 0.12666 0.36992 0.21066 0.0
H3270 H 0.14498 0.36042 0.21072 0.0
H3271 H 0.14389 0.38087 0.21499 0.0
C3272 C 0.18669 0.37199 0.23477 0.0
C3273 C 0.19247 0.38405 0.24392 0.0
C3274 C 0.17088 0.36933 0.2339 0.0
C3275 C 0.16043 0.37879 0.24199 0.0
C3276 C 0.1661 0.3918 0.24986 0.0
H3277 H 0.09606 0.30434 0.24286 0.0
H3278 H 0.09938 0.33238 0.24226 0.0
C3279 C 0.18202 0.39446 0.25078 0.0
C3280 C 0.14472 0.3727 0.24509 0.0
H3281 H 0.12111 0.34638 0.22809 0.0
C3282 C 0.14063 0.37011 0.26059 0.0
C3283 C 0.136 0.36549 0.23332 0.0
C3284 C 0.13807 0.36954 0.21651 0.0
C3285 C 0.13035 0.35826 0.26454 0.0
C3286 C 0.12452 0.34862 0.25274 0.0
C3287 C 0.12617 0.35326 0.23726 0.0
C3288 C 0.12035 0.3323 0.25584 0.0
C3289 C 0.12697 0.35533 0.28138 0.0
C3290 C 0.13088 0.3229 0.2639 0.0
C3291 C 0.12902 0.30692 0.26431 0.0
C3292 C 0.11674 0.29991 0.25641 0.0
C3293 C 0.10576 0.30936 0.24896 0.0
C3294 C 0.10758 0.32541 0.24866 0.0
H3295 H 0.12538 0.36645 0.28758 0.0
H3296 H 0.11647 0.34814 0.28296 0.0
H3297 H 0.13697 0.34937 0.28677 0.0
H3298 H 0.14115 0.3278 0.26909 0.0
H3299 H 0.1377 0.30004 0.27013 0.0
H3300 H 0.69235 0.10205 0.22704 0.0
H3301 H 0.66565 0.11014 0.23042 0.0
H3302 H 0.66787 0.09779 0.27871 0.0
H3303 H 0.69516 0.09083 0.27557 0.0
H3304 H 0.63818 0.10118 0.2397 0.0
H3305 H 0.66182 0.14276 0.28299 0.0
H3306 H 0.67424 0.13031 0.27196 0.0
H3307 H 0.66326 0.12272 0.28793 0.0
C3308 C 0.68706 0.10076 0.23832 0.0
C3309 C 0.69587 0.09622 0.25114 0.0
C3310 C 0.67175 0.10532 0.24024 0.0
C3311 C 0.66489 0.1051 0.25496 0.0
C3312 C 0.67311 0.09866 0.26739 0.0
H3313 H 0.59888 0.17881 0.26911 0.0
H3314 H 0.60589 0.15172 0.2729 0.0
C3315 C 0.68864 0.0946 0.26558 0.0
C3316 C 0.65035 0.11386 0.25737 0.0
H3317 H 0.63762 0.14765 0.27316 0.0
C3318 C 0.63788 0.11114 0.2473 0.0
C3319 C 0.64985 0.12683 0.26739 0.0
C3320 C 0.66301 0.13094 0.27811 0.0
C3321 C 0.62576 0.12182 0.24591 0.0
C3322 C 0.62605 0.13538 0.25494 0.0
C3323 C 0.63749 0.13719 0.26625 0.0
C3324 C 0.61716 0.14934 0.25073 0.0
C3325 C 0.61327 0.11903 0.23412 0.0
C3326 C 0.62065 0.15677 0.23675 0.0
C3327 C 0.61691 0.1723 0.23464 0.0
C3328 C 0.60957 0.18064 0.24647 0.0
C3329 C 0.60462 0.17273 0.25979 0.0
C3330 C 0.60852 0.15721 0.26197 0.0
H3331 H 0.61142 0.10647 0.23226 0.0
H3332 H 0.60219 0.12443 0.23772 0.0
H3333 H 0.61682 0.12418 0.22293 0.0
H3334 H 0.62756 0.15101 0.22804 0.0
H3335 H 0.62071 0.17802 0.22417 0.0
H3336 H 0.81389 0.59781 0.21656 0.0
H3337 H 0.84165 0.60272 0.21486 0.0
H3338 H 0.84317 0.60934 0.26432 0.0
H3339 H 0.81594 0.60311 0.26606 0.0
H3340 H 0.849 0.62952 0.21945 0.0
H3341 H 0.88633 0.59804 0.25933 0.0
H3342 H 0.86757 0.5906 0.25406 0.0
H3343 H 0.86976 0.60353 0.27034 0.0
C3344 C 0.82042 0.59946 0.22711 0.0
C3345 C 0.81284 0.60025 0.24141 0.0
C3346 C 0.83628 0.60228 0.22616 0.0
C3347 C 0.84464 0.6066 0.23943 0.0
C3348 C 0.83729 0.60572 0.2539 0.0
H3349 H 0.87936 0.68341 0.27127 0.0
H3350 H 0.87513 0.65597 0.26705 0.0
C3351 C 0.82157 0.60231 0.2549 0.0
C3352 C 0.85898 0.61598 0.23787 0.0
H3353 H 0.89065 0.62701 0.25862 0.0
C3354 C 0.85848 0.62853 0.22757 0.0
C3355 C 0.87151 0.61482 0.24832 0.0
C3356 C 0.87385 0.60087 0.25848 0.0
C3357 C 0.86885 0.64085 0.22879 0.0
C3358 C 0.88018 0.64057 0.24057 0.0
C3359 C 0.88182 0.62729 0.24973 0.0
C3360 C 0.8877 0.65511 0.24547 0.0
C3361 C 0.86646 0.65481 0.21855 0.0
C3362 C 0.89717 0.66346 0.23531 0.0
C3363 C 0.89944 0.67931 0.23756 0.0
C3364 C 0.89233 0.68692 0.25008 0.0
C3365 C 0.88471 0.67801 0.26133 0.0
C3366 C 0.88239 0.66224 0.25901 0.0
H3367 H 0.85623 0.6536 0.2109 0.0
H3368 H 0.86491 0.66536 0.22569 0.0
H3369 H 0.87676 0.6565 0.21113 0.0
H3370 H 0.90157 0.65807 0.2249 0.0
H3371 H 0.90564 0.68575 0.22881 0.0
H3372 H 0.40582 0.80886 0.27633 0.0
H3373 H 0.40173 0.83689 0.27616 0.0
H3374 H 0.37516 0.83264 0.2342 0.0
H3375 H 0.37964 0.80503 0.23395 0.0
H3376 H 0.3905 0.86068 0.23571 0.0
H3377 H 0.35939 0.84905 0.29108 0.0
H3378 H 0.37987 0.84596 0.28986 0.0
H3379 H 0.36688 0.83316 0.27994 0.0
C3380 C 0.39948 0.81398 0.26684 0.0
C3381 C 0.39265 0.80463 0.2554 0.0
C3382 C 0.39711 0.83001 0.2668 0.0
C3383 C 0.38776 0.83682 0.25543 0.0
C3384 C 0.38236 0.82768 0.24317 0.0
H3385 H 0.31555 0.86151 0.22312 0.0
H3386 H 0.34319 0.86211 0.22778 0.0
C3387 C 0.3848 0.81179 0.24312 0.0
C3388 C 0.38103 0.85248 0.25724 0.0
H3389 H 0.34902 0.86738 0.27457 0.0
C3390 C 0.38183 0.86259 0.24456 0.0
C3391 C 0.37003 0.85538 0.26903 0.0
C3392 C 0.3689 0.84538 0.28328 0.0
C3393 C 0.37023 0.87362 0.242 0.0
C3394 C 0.35761 0.87438 0.25233 0.0
C3395 C 0.35852 0.86649 0.26645 0.0
C3396 C 0.34193 0.8784 0.24679 0.0
C3397 C 0.37062 0.88306 0.22739 0.0
C3398 C 0.33192 0.88763 0.25566 0.0
C3399 C 0.31596 0.88732 0.2529 0.0
C3400 C 0.30992 0.87748 0.24151 0.0
C3401 C 0.32001 0.86915 0.23199 0.0
C3402 C 0.33585 0.86968 0.23452 0.0
H3403 H 0.38264 0.88667 0.22472 0.0
H3404 H 0.3665 0.87589 0.21759 0.0
H3405 H 0.36319 0.89349 0.2283 0.0
H3406 H 0.33633 0.89422 0.26534 0.0
H3407 H 0.3083 0.89377 0.26041 0.0
H3408 H 0.09836 0.69656 0.7181 0.0
H3409 H 0.10426 0.6689 0.71823 0.0
H3410 H 0.10673 0.67001 0.7681 0.0
H3411 H 0.0994 0.69701 0.76792 0.0
H3412 H 0.13018 0.6613 0.72491 0.0
H3413 H 0.09604 0.62681 0.76503 0.0
H3414 H 0.08904 0.64525 0.75822 0.0
H3415 H 0.10078 0.64395 0.77549 0.0
C3416 C 0.09941 0.6906 0.72906 0.0
C3417 C 0.09858 0.69884 0.74299 0.0
C3418 C 0.10279 0.67481 0.72917 0.0
C3419 C 0.10607 0.66719 0.74317 0.0
C3420 C 0.10386 0.67525 0.75712 0.0
H3421 H 0.18384 0.63521 0.77768 0.0
H3422 H 0.15682 0.64155 0.77285 0.0
C3423 C 0.09985 0.69085 0.75702 0.0
C3424 C 0.11547 0.65277 0.7432 0.0
H3425 H 0.1251 0.62272 0.76693 0.0
C3426 C 0.12861 0.65247 0.73365 0.0
C3427 C 0.1136 0.641 0.75444 0.0
C3428 C 0.09896 0.63924 0.7637 0.0
C3429 C 0.14068 0.64208 0.73632 0.0
C3430 C 0.13967 0.6318 0.74894 0.0
C3431 C 0.12593 0.63087 0.75745 0.0
C3432 C 0.1538 0.62441 0.75492 0.0
C3433 C 0.15512 0.6432 0.72657 0.0
C3434 C 0.16073 0.61216 0.74694 0.0
C3435 C 0.17622 0.60851 0.74965 0.0
C3436 C 0.18498 0.61721 0.76025 0.0
C3437 C 0.1775 0.62844 0.76928 0.0
C3438 C 0.16201 0.63199 0.76664 0.0
H3439 H 0.15406 0.65194 0.71723 0.0
H3440 H 0.16514 0.64629 0.73394 0.0
H3441 H 0.1576 0.63182 0.72119 0.0
H3442 H 0.15454 0.60626 0.7378 0.0
H3443 H 0.18158 0.59968 0.74257 0.0
H3444 H 0.35235 0.22094 0.76495 0.0
H3445 H 0.34049 0.19551 0.7645 0.0
H3446 H 0.38202 0.17611 0.74494 0.0
H3447 H 0.39399 0.20167 0.74509 0.0
H3448 H 0.35744 0.16963 0.72764 0.0
H3449 H 0.3432 0.15551 0.78791 0.0
H3450 H 0.33706 0.17485 0.78387 0.0
H3451 H 0.35732 0.17006 0.78297 0.0
C3452 C 0.35914 0.21124 0.76088 0.0
C3453 C 0.37406 0.21342 0.75489 0.0
C3454 C 0.35238 0.19663 0.76078 0.0
C3455 C 0.36044 0.18386 0.75486 0.0
C3456 C 0.37565 0.1858 0.74966 0.0
H3457 H 0.29183 0.11005 0.7513 0.0
H3458 H 0.31819 0.11974 0.75419 0.0
C3459 C 0.38245 0.20044 0.74974 0.0
C3460 C 0.352 0.16928 0.75197 0.0
H3461 H 0.32451 0.14647 0.76837 0.0
C3462 C 0.35059 0.16422 0.73662 0.0
C3463 C 0.34339 0.16188 0.76369 0.0
C3464 C 0.34548 0.16577 0.78055 0.0
C3465 C 0.33946 0.15322 0.73248 0.0
C3466 C 0.32936 0.14746 0.74393 0.0
C3467 C 0.33203 0.15115 0.75951 0.0
C3468 C 0.31459 0.13991 0.73988 0.0
C3469 C 0.33811 0.14851 0.71576 0.0
C3470 C 0.30392 0.1479 0.73065 0.0
C3471 C 0.28887 0.14245 0.72899 0.0
C3472 C 0.28412 0.12896 0.73667 0.0
C3473 C 0.29507 0.12051 0.74525 0.0
C3474 C 0.31016 0.126 0.74691 0.0
H3475 H 0.3496 0.14863 0.71004 0.0
H3476 H 0.333 0.13681 0.71455 0.0
H3477 H 0.33065 0.15693 0.7096 0.0
H3478 H 0.30694 0.15886 0.72542 0.0
H3479 H 0.28078 0.14924 0.72227 0.0
H3480 H 0.77891 0.36563 0.76505 0.0
H3481 H 0.80555 0.35692 0.76469 0.0
H3482 H 0.81785 0.39482 0.73472 0.0
H3483 H 0.79097 0.40348 0.73471 0.0
H3484 H 0.827 0.36904 0.72257 0.0
H3485 H 0.84634 0.36778 0.78273 0.0
H3486 H 0.82763 0.35904 0.78227 0.0
H3487 H 0.82981 0.37907 0.77679 0.0
C3488 C 0.7873 0.37237 0.75867 0.0
C3489 C 0.78274 0.38513 0.74976 0.0
C3490 C 0.80264 0.36748 0.75862 0.0
C3491 C 0.81381 0.37537 0.74989 0.0
C3492 C 0.80946 0.38863 0.74164 0.0
H3493 H 0.88505 0.30566 0.75547 0.0
H3494 H 0.87833 0.33305 0.75326 0.0
C3495 C 0.79407 0.3935 0.74161 0.0
C3496 C 0.82909 0.36807 0.74743 0.0
H3497 H 0.85413 0.34481 0.76681 0.0
C3498 C 0.83333 0.36419 0.73224 0.0
C3499 C 0.83788 0.36223 0.75989 0.0
C3500 C 0.83524 0.36745 0.7763 0.0
C3501 C 0.84447 0.3528 0.7294 0.0
C3502 C 0.85111 0.34488 0.74204 0.0
C3503 C 0.84868 0.3505 0.75707 0.0
C3504 C 0.85732 0.32902 0.74035 0.0
C3505 C 0.84815 0.34858 0.7129 0.0
C3506 C 0.84793 0.31769 0.73354 0.0
C3507 C 0.85168 0.30211 0.7348 0.0
C3508 C 0.86483 0.29746 0.74307 0.0
C3509 C 0.87478 0.30885 0.74907 0.0
C3510 C 0.87099 0.32451 0.7478 0.0
H3511 H 0.8484 0.3591 0.70554 0.0
H3512 H 0.85944 0.34255 0.71193 0.0
H3513 H 0.83895 0.34093 0.70832 0.0
H3514 H 0.83708 0.32078 0.72814 0.0
H3515 H 0.84381 0.29369 0.72995 0.0
H3516 H 0.68105 0.89888 0.72604 0.0
H3517 H 0.654 0.89144 0.72276 0.0
H3518 H 0.65287 0.87596 0.77023 0.0
H3519 H 0.67918 0.88472 0.77378 0.0
H3520 H 0.64951 0.86384 0.72207 0.0
H3521 H 0.60888 0.88273 0.76632 0.0
H3522 H 0.62663 0.89316 0.76302 0.0
H3523 H 0.62589 0.87733 0.77668 0.0
C3524 C 0.67464 0.8947 0.73595 0.0
C3525 C 0.68212 0.89218 0.7501 0.0
C3526 C 0.6592 0.89043 0.7341 0.0
C3527 C 0.65128 0.88293 0.74616 0.0
C3528 C 0.65837 0.88201 0.76077 0.0
H3529 H 0.62655 0.79641 0.75988 0.0
H3530 H 0.63028 0.82432 0.76109 0.0
C3531 C 0.67358 0.88686 0.76278 0.0
C3532 C 0.63816 0.87242 0.7426 0.0
H3533 H 0.60846 0.85381 0.76069 0.0
C3534 C 0.6401 0.86215 0.73015 0.0
C3535 C 0.62569 0.87007 0.75294 0.0
C3536 C 0.62162 0.88159 0.76536 0.0
C3537 C 0.63132 0.84866 0.72896 0.0
C3538 C 0.62034 0.84532 0.74055 0.0
C3539 C 0.61713 0.85631 0.752 0.0
C3540 C 0.61457 0.82941 0.74235 0.0
C3541 C 0.63494 0.83729 0.71622 0.0
C3542 C 0.60405 0.82317 0.73177 0.0
C3543 C 0.60194 0.80718 0.73097 0.0
C3544 C 0.61043 0.79724 0.74068 0.0
C3545 C 0.62 0.8037 0.75209 0.0
C3546 C 0.62203 0.81966 0.75292 0.0
H3547 H 0.64414 0.84153 0.70833 0.0
H3548 H 0.63873 0.82611 0.72126 0.0
H3549 H 0.6244 0.83508 0.70928 0.0
H3550 H 0.59826 0.83056 0.72349 0.0
H3551 H 0.59434 0.80262 0.72215 0.0
H3552 H 0.24065 0.21345 0.34115 0.0
H3553 H 0.2404 0.18695 0.33192 0.0
H3554 H 0.2656 0.17227 0.37232 0.0
H3555 H 0.26614 0.19897 0.38165 0.0
H3556 H 0.27895 0.16206 0.34614 0.0
H3557 H 0.21699 0.14847 0.34361 0.0
H3558 H 0.2203 0.1668 0.33458 0.0
H3559 H 0.2244 0.16441 0.35488 0.0
C3560 C 0.24593 0.2046 0.34826 0.0
C3561 C 0.25348 0.2084 0.36212 0.0
C3562 C 0.24564 0.18938 0.34302 0.0
C3563 C 0.25274 0.17757 0.35157 0.0
C3564 C 0.25992 0.18119 0.36563 0.0
H3565 H 0.24195 0.09723 0.29221 0.0
H3566 H 0.24444 0.1092 0.31767 0.0
C3567 C 0.26021 0.19647 0.37092 0.0
C3568 C 0.25408 0.16196 0.34471 0.0
H3569 H 0.23305 0.13647 0.32344 0.0
C3570 C 0.2689 0.15616 0.34155 0.0
C3571 C 0.24101 0.15393 0.33915 0.0
C3572 C 0.2248 0.15866 0.34341 0.0
C3573 C 0.27099 0.14364 0.33147 0.0
C3574 C 0.25796 0.13708 0.32413 0.0
C3575 C 0.24311 0.14169 0.32877 0.0
C3576 C 0.25936 0.12767 0.30989 0.0
C3577 C 0.28718 0.13808 0.32824 0.0
C3578 C 0.2673 0.13379 0.29714 0.0
C3579 C 0.26596 0.12698 0.28261 0.0
C3580 C 0.25643 0.11402 0.28044 0.0
C3581 C 0.24932 0.10726 0.29343 0.0
C3582 C 0.25073 0.11407 0.30802 0.0
H3583 H 0.29445 0.139 0.33878 0.0
H3584 H 0.28731 0.12591 0.32417 0.0
H3585 H 0.29248 0.14552 0.31925 0.0
H3586 H 0.2737 0.14448 0.29814 0.0
H3587 H 0.27165 0.13249 0.27292 0.0
H3588 H 0.86035 0.25756 0.2937 0.0
H3589 H 0.86044 0.2622 0.3212 0.0
H3590 H 0.90396 0.23821 0.32551 0.0
H3591 H 0.9037 0.23303 0.29772 0.0
H3592 H 0.88529 0.22617 0.34446 0.0
H3593 H 0.87807 0.2876 0.35441 0.0
H3594 H 0.86525 0.28365 0.33873 0.0
H3595 H 0.88578 0.28054 0.33632 0.0
C3596 C 0.87017 0.25358 0.30035 0.0
C3597 C 0.88186 0.24467 0.2935 0.0
C3598 C 0.87036 0.25649 0.31617 0.0
C3599 C 0.88236 0.25081 0.32553 0.0
C3600 C 0.89464 0.24282 0.31855 0.0
H3601 H 0.81728 0.26042 0.39537 0.0
H3602 H 0.84528 0.26038 0.39169 0.0
C3603 C 0.89442 0.23981 0.30266 0.0
C3604 C 0.88005 0.25052 0.34252 0.0
H3605 H 0.85729 0.2705 0.3674 0.0
C3606 C 0.87978 0.23604 0.34985 0.0
C3607 C 0.87378 0.26341 0.35034 0.0
C3608 C 0.87597 0.27968 0.34454 0.0
C3609 C 0.87045 0.23361 0.36286 0.0
C3610 C 0.86083 0.24576 0.36804 0.0
C3611 C 0.86394 0.26086 0.36294 0.0
C3612 C 0.84512 0.24256 0.37413 0.0
C3613 C 0.86969 0.21766 0.36982 0.0
C3614 C 0.83571 0.2321 0.36602 0.0
C3615 C 0.81979 0.23207 0.36811 0.0
C3616 C 0.81281 0.24268 0.37819 0.0
C3617 C 0.82228 0.2522 0.38736 0.0
C3618 C 0.83832 0.25217 0.38532 0.0
H3619 H 0.88154 0.21299 0.37132 0.0
H3620 H 0.86373 0.21767 0.38119 0.0
H3621 H 0.86353 0.20977 0.3618 0.0
H3622 H 0.84043 0.22487 0.35697 0.0
H3623 H 0.8129 0.22445 0.36097 0.0
H3624 H 0.76209 0.90569 0.30939 0.0
H3625 H 0.76805 0.90229 0.33681 0.0
H3626 H 0.72758 0.8738 0.34213 0.0
H3627 H 0.72133 0.87738 0.315 0.0
H3628 H 0.73702 0.88978 0.37022 0.0
H3629 H 0.78497 0.85804 0.34083 0.0
H3630 H 0.78332 0.87853 0.33803 0.0
H3631 H 0.76907 0.86582 0.3299 0.0
C3632 C 0.75411 0.8992 0.31652 0.0
C3633 C 0.74153 0.89132 0.30988 0.0
C3634 C 0.75756 0.89729 0.33221 0.0
C3635 C 0.7485 0.88743 0.34136 0.0
C3636 C 0.7348 0.88137 0.33524 0.0
H3637 H 0.73335 0.81459 0.39258 0.0
H3638 H 0.73399 0.842 0.38693 0.0
C3639 C 0.73132 0.8833 0.31964 0.0
C3640 C 0.75475 0.88028 0.35558 0.0
H3641 H 0.77776 0.8499 0.36507 0.0
C3642 C 0.74627 0.88138 0.36936 0.0
C3643 C 0.76703 0.86952 0.35455 0.0
C3644 C 0.77665 0.86779 0.34007 0.0
C3645 C 0.74875 0.87094 0.38156 0.0
C3646 C 0.75959 0.85883 0.37963 0.0
C3647 C 0.76931 0.85902 0.36662 0.0
C3648 C 0.75891 0.84418 0.38866 0.0
C3649 C 0.73923 0.87261 0.39604 0.0
C3650 C 0.77259 0.83613 0.39218 0.0
C3651 C 0.77225 0.82018 0.39469 0.0
C3652 C 0.75817 0.81216 0.39432 0.0
C3653 C 0.74436 0.82053 0.39302 0.0
C3654 C 0.74472 0.83636 0.38995 0.0
H3655 H 0.73811 0.885 0.3992 0.0
H3656 H 0.72739 0.8682 0.39387 0.0
H3657 H 0.74435 0.86626 0.40594 0.0
H3658 H 0.78368 0.84186 0.3914 0.0
H3659 H 0.78305 0.81395 0.39578 0.0
H3660 H 0.17556 0.73155 0.40053 0.0
H3661 H 0.14795 0.7285 0.39548 0.0
H3662 H 0.14951 0.76656 0.3634 0.0
H3663 H 0.177 0.76982 0.36837 0.0
H3664 H 0.11982 0.76241 0.38184 0.0
H3665 H 0.14173 0.71011 0.35098 0.0
H3666 H 0.14586 0.71248 0.3712 0.0
H3667 H 0.15479 0.72503 0.35732 0.0
C3668 C 0.16997 0.73956 0.3927 0.0
C3669 C 0.17859 0.75068 0.38452 0.0
C3670 C 0.15416 0.73782 0.38991 0.0
C3671 C 0.1468 0.74719 0.37896 0.0
C3672 C 0.15502 0.75924 0.37193 0.0
H3673 H 0.09249 0.76543 0.30814 0.0
H3674 H 0.10033 0.76532 0.335 0.0
C3675 C 0.17079 0.76098 0.37468 0.0
C3676 C 0.13174 0.74275 0.37232 0.0
H3677 H 0.11801 0.71985 0.34359 0.0
C3678 C 0.11914 0.75284 0.37378 0.0
C3679 C 0.13079 0.73007 0.36209 0.0
C3680 C 0.14397 0.71877 0.36019 0.0
C3681 C 0.10611 0.75132 0.36423 0.0
C3682 C 0.10606 0.73984 0.35257 0.0
C3683 C 0.11796 0.72877 0.35238 0.0
C3684 C 0.09611 0.74086 0.3386 0.0
C3685 C 0.09287 0.76243 0.36637 0.0
C3686 C 0.0905 0.72731 0.33158 0.0
C3687 C 0.08668 0.72725 0.31589 0.0
C3688 C 0.08788 0.74086 0.30715 0.0
C3689 C 0.09139 0.75479 0.31465 0.0
C3690 C 0.09572 0.75475 0.33017 0.0
H3691 H 0.09074 0.76443 0.37887 0.0
H3692 H 0.09595 0.77376 0.36121 0.0
H3693 H 0.08207 0.75813 0.36096 0.0
H3694 H 0.09056 0.71646 0.33782 0.0
H3695 H 0.08386 0.71639 0.31037 0.0
H3696 H 0.22823 0.79697 0.63426 0.0
H3697 H 0.23199 0.82389 0.64035 0.0
H3698 H 0.26472 0.82813 0.60294 0.0
H3699 H 0.26146 0.80067 0.59712 0.0
H3700 H 0.27792 0.83699 0.62718 0.0
H3701 H 0.22263 0.86667 0.62916 0.0
H3702 H 0.2191 0.84868 0.63865 0.0
H3703 H 0.22482 0.84883 0.61853 0.0
C3704 C 0.23592 0.80365 0.62699 0.0
C3705 C 0.24482 0.79652 0.61544 0.0
C3706 C 0.23789 0.81925 0.63034 0.0
C3707 C 0.24857 0.82822 0.62203 0.0
C3708 C 0.2564 0.82148 0.60951 0.0
H3709 H 0.25536 0.89503 0.69496 0.0
H3710 H 0.25576 0.89014 0.66713 0.0
C3711 C 0.25453 0.80576 0.60622 0.0
C3712 C 0.25376 0.84311 0.62879 0.0
H3713 H 0.23925 0.87003 0.65345 0.0
C3714 C 0.26951 0.84466 0.63242 0.0
C3715 C 0.24313 0.85379 0.63511 0.0
C3716 C 0.22652 0.85446 0.62993 0.0
C3717 C 0.27435 0.85462 0.64421 0.0
C3718 C 0.26311 0.86272 0.65287 0.0
C3719 C 0.24786 0.8633 0.64734 0.0
C3720 C 0.26601 0.86742 0.6691 0.0
C3721 C 0.29131 0.85543 0.64805 0.0
C3722 C 0.27195 0.85644 0.6795 0.0
C3723 C 0.27183 0.8592 0.69535 0.0
C3724 C 0.26547 0.87291 0.70125 0.0
C3725 C 0.26027 0.88428 0.69082 0.0
C3726 C 0.26051 0.88154 0.67488 0.0
H3727 H 0.29829 0.8555 0.63727 0.0
H3728 H 0.29417 0.86588 0.65492 0.0
H3729 H 0.29469 0.84498 0.65468 0.0
H3730 H 0.27577 0.84522 0.67548 0.0
H3731 H 0.2759 0.85017 0.70299 0.0
H3732 H 0.20703 0.21534 0.64092 0.0
H3733 H 0.1809 0.22074 0.64948 0.0
H3734 H 0.17427 0.25155 0.61085 0.0
H3735 H 0.2007 0.24642 0.60229 0.0
H3736 H 0.16837 0.26589 0.63698 0.0
H3737 H 0.13714 0.21087 0.63893 0.0
H3738 H 0.15568 0.20786 0.64756 0.0
H3739 H 0.15442 0.2133 0.62746 0.0
C3740 C 0.19993 0.22295 0.63397 0.0
C3741 C 0.20607 0.2306 0.62104 0.0
C3742 C 0.18486 0.2259 0.63879 0.0
C3743 C 0.17552 0.23643 0.63072 0.0
C3744 C 0.18124 0.2433 0.6172 0.0
H3745 H 0.10073 0.24785 0.69671 0.0
H3746 H 0.11032 0.24732 0.67014 0.0
C3747 C 0.19636 0.24034 0.61233 0.0
C3748 C 0.16111 0.24205 0.63809 0.0
H3749 H 0.13217 0.22863 0.66106 0.0
C3750 C 0.1601 0.25781 0.64182 0.0
C3751 C 0.14994 0.23173 0.64401 0.0
C3752 C 0.14928 0.21504 0.63909 0.0
C3753 C 0.14956 0.26309 0.65294 0.0
C3754 C 0.14015 0.25226 0.66073 0.0
C3755 C 0.1397 0.23692 0.65544 0.0
C3756 C 0.13311 0.25574 0.67596 0.0
C3757 C 0.14927 0.28007 0.65684 0.0
C3758 C 0.1426 0.26101 0.68801 0.0
C3759 C 0.13718 0.26136 0.70317 0.0
C3760 C 0.12219 0.25622 0.70667 0.0
C3761 C 0.11237 0.25181 0.69446 0.0
C3762 C 0.11782 0.25152 0.67924 0.0
H3763 H 0.15129 0.28714 0.64632 0.0
H3764 H 0.1381 0.28356 0.6621 0.0
H3765 H 0.15872 0.28268 0.66509 0.0
H3766 H 0.15457 0.26392 0.68589 0.0
H3767 H 0.14507 0.26484 0.71224 0.0
H3768 H 0.727 0.12414 0.69576 0.0
H3769 H 0.72761 0.13061 0.66863 0.0
H3770 H 0.75857 0.09249 0.65986 0.0
H3771 H 0.75847 0.0862 0.68744 0.0
H3772 H 0.77039 0.11654 0.64818 0.0
H3773 H 0.7108 0.1181 0.6284 0.0
H3774 H 0.71051 0.12792 0.64656 0.0
H3775 H 0.71609 0.10778 0.64578 0.0
C3776 C 0.73368 0.11685 0.68809 0.0
C3777 C 0.74285 0.10477 0.69388 0.0
C3778 C 0.73383 0.12043 0.67242 0.0
C3779 C 0.7429 0.11187 0.66202 0.0
C3780 C 0.75138 0.0992 0.6676 0.0
H3781 H 0.737 0.18434 0.59558 0.0
H3782 H 0.73913 0.15634 0.59919 0.0
C3783 C 0.75133 0.09566 0.68339 0.0
C3784 C 0.74555 0.11817 0.64628 0.0
H3785 H 0.72663 0.14204 0.62149 0.0
C3786 C 0.76079 0.12161 0.64191 0.0
C3787 C 0.73326 0.12416 0.63734 0.0
C3788 C 0.71678 0.11907 0.63972 0.0
C3789 C 0.76385 0.13305 0.63086 0.0
C3790 C 0.75139 0.14157 0.62461 0.0
C3791 C 0.73629 0.13606 0.62678 0.0
C3792 C 0.75333 0.1579 0.61971 0.0
C3793 C 0.78041 0.13677 0.62701 0.0
C3794 C 0.76097 0.16812 0.62974 0.0
C3795 C 0.75982 0.18402 0.62771 0.0
C3796 C 0.75078 0.19016 0.61572 0.0
C3797 C 0.744 0.17998 0.605 0.0
C3798 C 0.74522 0.16396 0.60702 0.0
H3799 H 0.78716 0.12593 0.62564 0.0
H3800 H 0.7814 0.14367 0.61624 0.0
H3801 H 0.78568 0.1433 0.6367 0.0
H3802 H 0.76689 0.1639 0.63992 0.0
H3803 H 0.76529 0.19148 0.63613 0.0
H3804 H 0.80232 0.77311 0.61568 0.0
H3805 H 0.82933 0.77099 0.62212 0.0
H3806 H 0.8355 0.73658 0.58649 0.0
H3807 H 0.80792 0.73807 0.58051 0.0
H3808 H 0.84627 0.72539 0.61031 0.0
H3809 H 0.87091 0.78299 0.61039 0.0
H3810 H 0.85297 0.78545 0.62027 0.0
H3811 H 0.85305 0.77916 0.60031 0.0
C3812 C 0.80944 0.7654 0.60886 0.0
C3813 C 0.80288 0.75559 0.59774 0.0
C3814 C 0.82508 0.76435 0.61242 0.0
C3815 C 0.83469 0.75378 0.60466 0.0
C3816 C 0.8284 0.74485 0.59264 0.0
H3817 H 0.90111 0.75604 0.67764 0.0
H3818 H 0.89679 0.75445 0.64973 0.0
C3819 C 0.81261 0.7457 0.58926 0.0
C3820 C 0.85004 0.75007 0.6114 0.0
H3821 H 0.87583 0.76754 0.63527 0.0
C3822 C 0.85315 0.73461 0.61527 0.0
C3823 C 0.85983 0.76176 0.61726 0.0
C3824 C 0.85906 0.77822 0.6116 0.0
C3825 C 0.86379 0.73094 0.6269 0.0
C3826 C 0.87083 0.74306 0.63529 0.0
C3827 C 0.86988 0.75819 0.62945 0.0
C3828 C 0.87581 0.74096 0.65158 0.0
C3829 C 0.86648 0.71417 0.6308 0.0
C3830 C 0.86575 0.73357 0.66197 0.0
C3831 C 0.8683 0.73426 0.67783 0.0
C3832 C 0.88076 0.74275 0.68377 0.0
C3833 C 0.89131 0.74951 0.67341 0.0
C3834 C 0.88889 0.74857 0.65745 0.0
H3835 H 0.86757 0.70727 0.62003 0.0
H3836 H 0.87706 0.71251 0.63786 0.0
H3837 H 0.85636 0.70959 0.63721 0.0
H3838 H 0.85524 0.72813 0.65795 0.0
H3839 H 0.85988 0.72899 0.68543 0.0
H3840 H 0.31212 0.23812 0.09174 0.0
H3841 H 0.33944 0.24572 0.09356 0.0
H3842 H 0.34326 0.22073 0.13657 0.0
H3843 H 0.31629 0.21338 0.13486 0.0
H3844 H 0.34785 0.26411 0.11726 0.0
H3845 H 0.38591 0.21374 0.11948 0.0
H3846 H 0.36763 0.21334 0.10934 0.0
H3847 H 0.36863 0.20878 0.12969 0.0
C3848 C 0.31903 0.23384 0.10126 0.0
C3849 C 0.31215 0.22535 0.11328 0.0
C3850 C 0.33461 0.23813 0.10225 0.0
C3851 C 0.3435 0.2336 0.11505 0.0
C3852 C 0.33683 0.22403 0.12634 0.0
H3853 H 0.36133 0.25747 0.19187 0.0
H3854 H 0.35668 0.25538 0.16423 0.0
C3855 C 0.32132 0.22001 0.1255 0.0
C3856 C 0.35816 0.24146 0.11898 0.0
H3857 H 0.3887 0.23254 0.14202 0.0
C3858 C 0.35732 0.25739 0.12197 0.0
C3859 C 0.37089 0.23297 0.12469 0.0
C3860 C 0.37337 0.21628 0.12043 0.0
C3861 C 0.36687 0.26413 0.13315 0.0
C3862 C 0.37732 0.25468 0.14135 0.0
C3863 C 0.38033 0.23968 0.13602 0.0
C3864 C 0.38068 0.25799 0.15773 0.0
C3865 C 0.36422 0.28073 0.13767 0.0
C3866 C 0.39577 0.26009 0.16321 0.0
C3867 C 0.39845 0.26146 0.17914 0.0
C3868 C 0.38611 0.26026 0.18968 0.0
C3869 C 0.37106 0.25832 0.18404 0.0
C3870 C 0.36838 0.25728 0.16825 0.0
H3871 H 0.36044 0.28768 0.12756 0.0
H3872 H 0.35493 0.28127 0.1465 0.0
H3873 H 0.37484 0.28593 0.14265 0.0
H3874 H 0.40541 0.26042 0.15524 0.0
H3875 H 0.41018 0.26291 0.18323 0.0
H3876 H 0.40546 0.74211 0.81275 0.0
H3877 H 0.40255 0.74312 0.8409 0.0
H3878 H 0.3618 0.77136 0.83548 0.0
H3879 H 0.36494 0.77093 0.8077 0.0
H3880 H 0.37788 0.77895 0.86186 0.0
H3881 H 0.37018 0.71496 0.8585 0.0
H3882 H 0.38839 0.72363 0.85361 0.0
H3883 H 0.37212 0.72587 0.84089 0.0
C3884 C 0.39607 0.7488 0.81761 0.0
C3885 C 0.38519 0.75613 0.80796 0.0
C3886 C 0.39443 0.74934 0.83371 0.0
C3887 C 0.38177 0.75701 0.84031 0.0
C3888 C 0.3717 0.76536 0.8307 0.0
H3889 H 0.30463 0.76038 0.85933 0.0
H3890 H 0.33252 0.76367 0.85855 0.0
C3891 C 0.37342 0.765 0.81473 0.0
C3892 C 0.37706 0.75462 0.85659 0.0
H3893 H 0.35372 0.72871 0.87476 0.0
C3894 C 0.37321 0.76782 0.86523 0.0
C3895 C 0.37136 0.74004 0.8614 0.0
C3896 C 0.37569 0.72527 0.8532 0.0
C3897 C 0.36128 0.76728 0.87617 0.0
C3898 C 0.3534 0.75323 0.87852 0.0
C3899 C 0.35964 0.73954 0.87257 0.0
C3900 C 0.33657 0.75335 0.88099 0.0
C3901 C 0.35557 0.78211 0.88326 0.0
C3902 C 0.32964 0.74642 0.8939 0.0
C3903 C 0.31354 0.7447 0.89444 0.0
C3904 C 0.30441 0.74938 0.88183 0.0
C3905 C 0.31144 0.75648 0.8691 0.0
C3906 C 0.32733 0.75856 0.86875 0.0
H3907 H 0.36523 0.79039 0.88495 0.0
H3908 H 0.34706 0.78755 0.87536 0.0
H3909 H 0.34982 0.77992 0.89453 0.0
H3910 H 0.33667 0.74208 0.9033 0.0
H3911 H 0.30829 0.73924 0.90441 0.0
H3912 H 0.24485 0.31018 0.89844 0.0
H3913 H 0.24781 0.33826 0.89448 0.0
H3914 H 0.22287 0.33457 0.85146 0.0
H3915 H 0.22021 0.30691 0.85521 0.0
H3916 H 0.26404 0.34885 0.86895 0.0
H3917 H 0.20679 0.37565 0.86768 0.0
H3918 H 0.21086 0.35852 0.879 0.0
H3919 H 0.20538 0.35695 0.85893 0.0
C3920 C 0.2397 0.31554 0.88837 0.0
C3921 C 0.23249 0.30647 0.877 0.0
C3922 C 0.24131 0.33153 0.88618 0.0
C3923 C 0.23528 0.33858 0.87285 0.0
C3924 C 0.22724 0.32953 0.86205 0.0
H3925 H 0.24116 0.35895 0.79415 0.0
H3926 H 0.23518 0.35815 0.82155 0.0
C3927 C 0.22594 0.31366 0.86407 0.0
C3928 C 0.23981 0.35436 0.8681 0.0
H3929 H 0.22372 0.38128 0.84445 0.0
C3930 C 0.25538 0.3566 0.86424 0.0
C3931 C 0.22863 0.36478 0.86238 0.0
C3932 C 0.212 0.36392 0.86741 0.0
C3933 C 0.25951 0.36673 0.85228 0.0
C3934 C 0.24773 0.37472 0.84426 0.0
C3935 C 0.23271 0.37483 0.85035 0.0
C3936 C 0.2495 0.37775 0.82756 0.0
C3937 C 0.27602 0.36695 0.84673 0.0
C3938 C 0.25925 0.38933 0.82176 0.0
C3939 C 0.26272 0.38981 0.80594 0.0
C3940 C 0.25661 0.3786 0.79583 0.0
C3941 C 0.24621 0.36761 0.80163 0.0
C3942 C 0.24267 0.36723 0.8173 0.0
H3943 H 0.28393 0.36097 0.85488 0.0
H3944 H 0.27681 0.36116 0.8353 0.0
H3945 H 0.27999 0.37905 0.84529 0.0
H3946 H 0.2646 0.39755 0.82952 0.0
H3947 H 0.27075 0.39845 0.80176 0.0
H3948 H 0.60241 0.26065 0.79772 0.0
H3949 H 0.60935 0.25496 0.82466 0.0
H3950 H 0.65607 0.26966 0.81559 0.0
H3951 H 0.64935 0.27511 0.78881 0.0
H3952 H 0.63307 0.23275 0.83126 0.0
H3953 H 0.64637 0.28877 0.85844 0.0
H3954 H 0.63321 0.28691 0.8423 0.0
H3955 H 0.65374 0.288 0.83907 0.0
C3956 C 0.61408 0.26296 0.80161 0.0
C3957 C 0.62541 0.26819 0.79118 0.0
C3958 C 0.61798 0.25975 0.81697 0.0
C3959 C 0.63313 0.26216 0.82215 0.0
C3960 C 0.64422 0.26806 0.81191 0.0
H3961 H 0.70919 0.22957 0.84803 0.0
H3962 H 0.68258 0.23477 0.84053 0.0
C3963 C 0.64042 0.27099 0.79656 0.0
C3964 C 0.63839 0.25632 0.83727 0.0
H3965 H 0.66374 0.26712 0.86528 0.0
C3966 C 0.63921 0.24025 0.8392 0.0
C3967 C 0.64611 0.26609 0.8478 0.0
C3968 C 0.64466 0.28342 0.84689 0.0
C3969 C 0.64955 0.23375 0.84981 0.0
C3970 C 0.65916 0.2436 0.85854 0.0
C3971 C 0.6565 0.25958 0.85838 0.0
C3972 C 0.67438 0.23824 0.8639 0.0
C3973 C 0.65142 0.21645 0.85036 0.0
C3974 C 0.67852 0.23845 0.87957 0.0
C3975 C 0.69378 0.23527 0.88392 0.0
C3976 C 0.70506 0.23237 0.87258 0.0
C3977 C 0.70074 0.2319 0.85697 0.0
C3978 C 0.68553 0.23472 0.8527 0.0
H3979 H 0.64047 0.21052 0.84727 0.0
H3980 H 0.66036 0.2129 0.84187 0.0
H3981 H 0.65517 0.21258 0.86201 0.0
H3982 H 0.67006 0.24138 0.88832 0.0
H3983 H 0.69689 0.23574 0.89603 0.0
H3984 H 0.76158 0.59562 0.80959 0.0
H3985 H 0.76843 0.59184 0.837 0.0
H3986 H 0.73499 0.62656 0.84984 0.0
H3987 H 0.72861 0.6306 0.8228 0.0
H3988 H 0.78077 0.61709 0.85236 0.0
H3989 H 0.73161 0.59675 0.88635 0.0
H3990 H 0.73465 0.59098 0.86644 0.0
H3991 H 0.72437 0.60857 0.87096 0.0
C3992 C 0.75545 0.60206 0.8184 0.0
C3993 C 0.74475 0.61354 0.81424 0.0
C3994 C 0.75926 0.59981 0.834 0.0
C3995 C 0.752 0.60867 0.84551 0.0
C3996 C 0.74045 0.61926 0.84126 0.0
H3997 H 0.73804 0.67635 0.87896 0.0
H3998 H 0.74012 0.64857 0.87738 0.0
C3999 C 0.73697 0.62176 0.82578 0.0
C4000 C 0.75862 0.61016 0.8612 0.0
H4001 H 0.74322 0.62221 0.89521 0.0
C4002 C 0.77297 0.61756 0.86217 0.0
C4003 C 0.74888 0.61011 0.87428 0.0
C4004 C 0.73409 0.60098 0.87448 0.0
C4005 C 0.77595 0.62814 0.87408 0.0
C4006 C 0.76428 0.63097 0.88522 0.0
C4007 C 0.75189 0.62053 0.88632 0.0
C4008 C 0.76143 0.64704 0.89047 0.0
C4009 C 0.79027 0.638 0.87304 0.0
C4010 C 0.77227 0.65552 0.89906 0.0
C4011 C 0.77123 0.67169 0.89973 0.0
C4012 C 0.75928 0.67948 0.8919 0.0
C4013 C 0.74759 0.67078 0.88481 0.0
C4014 C 0.74868 0.65478 0.88408 0.0
H4015 H 0.79851 0.63364 0.86421 0.0
H4016 H 0.78706 0.65003 0.86995 0.0
H4017 H 0.79626 0.6382 0.88436 0.0
H4018 H 0.78201 0.64979 0.9044 0.0
H4019 H 0.78029 0.67809 0.90551 0.0
H4020 H 0.67498 0.75671 0.08825 0.0
H4021 H 0.64735 0.7618 0.09108 0.0
H4022 H 0.64347 0.72321 0.12234 0.0
H4023 H 0.67081 0.71778 0.11932 0.0
H4024 H 0.61486 0.73095 0.10644 0.0
H4025 H 0.64358 0.78187 0.13385 0.0
H4026 H 0.64575 0.77868 0.11346 0.0
H4027 H 0.65494 0.76586 0.12698 0.0
C4028 C 0.66814 0.7489 0.09523 0.0
C4029 C 0.67523 0.73721 0.10408 0.0
C4030 C 0.65232 0.75184 0.09681 0.0
C4031 C 0.64351 0.7432 0.10732 0.0
C4032 C 0.6501 0.73013 0.11428 0.0
H4033 H 0.59953 0.72729 0.18227 0.0
H4034 H 0.60193 0.72829 0.15443 0.0
C4035 C 0.66583 0.72713 0.11266 0.0
C4036 C 0.6293 0.7496 0.11436 0.0
H4037 H 0.62068 0.77349 0.14427 0.0
C4038 C 0.61581 0.74061 0.11437 0.0
C4039 C 0.63033 0.76247 0.1244 0.0
C4040 C 0.64439 0.77282 0.12478 0.0
C4041 C 0.6042 0.74302 0.12547 0.0
C4042 C 0.60651 0.75425 0.13714 0.0
C4043 C 0.61889 0.76464 0.1356 0.0
C4044 C 0.5991 0.75317 0.15266 0.0
C4045 C 0.59003 0.73293 0.12502 0.0
C4046 C 0.59607 0.76668 0.16122 0.0
C4047 C 0.59556 0.76615 0.17736 0.0
C4048 C 0.59731 0.75203 0.18511 0.0
C4049 C 0.59804 0.73832 0.17652 0.0
C4050 C 0.59921 0.73889 0.16046 0.0
H4051 H 0.58585 0.73178 0.11294 0.0
H4052 H 0.59305 0.72114 0.12908 0.0
H4053 H 0.58054 0.73762 0.13226 0.0
H4054 H 0.59576 0.77784 0.15556 0.0
H4055 H 0.59489 0.77687 0.1838 0.0
H4056 H 0.22817 0.64557 0.18498 0.0
H4057 H 0.2297 0.65141 0.15772 0.0
H4058 H 0.26165 0.61369 0.15103 0.0
H4059 H 0.26049 0.60794 0.17873 0.0
H4060 H 0.27318 0.6385 0.13904 0.0
H4061 H 0.21413 0.63612 0.11758 0.0
H4062 H 0.21297 0.64617 0.13559 0.0
H4063 H 0.21965 0.62637 0.1352 0.0
C4064 C 0.2353 0.63826 0.17774 0.0
C4065 C 0.24434 0.62641 0.18412 0.0
C4066 C 0.23598 0.64147 0.16201 0.0
C4067 C 0.24554 0.63278 0.15218 0.0
C4068 C 0.25405 0.62043 0.15835 0.0
H4069 H 0.23519 0.70268 0.08507 0.0
H4070 H 0.24004 0.67507 0.08863 0.0
C4071 C 0.2534 0.6172 0.17419 0.0
C4072 C 0.24839 0.6386 0.13632 0.0
H4073 H 0.22883 0.66051 0.11034 0.0
C4074 C 0.26353 0.64282 0.13233 0.0
C4075 C 0.23605 0.64355 0.12684 0.0
C4076 C 0.21984 0.63759 0.12898 0.0
C4077 C 0.26625 0.65412 0.12104 0.0
C4078 C 0.25349 0.66171 0.11418 0.0
C4079 C 0.23869 0.6553 0.11605 0.0
C4080 C 0.25453 0.678 0.10881 0.0
C4081 C 0.28268 0.65861 0.11749 0.0
C4082 C 0.26166 0.68896 0.11845 0.0
C4083 C 0.2591 0.70471 0.11631 0.0
C4084 C 0.24901 0.70987 0.10472 0.0
C4085 C 0.24288 0.69904 0.09425 0.0
C4086 C 0.24567 0.68324 0.09625 0.0
H4087 H 0.28994 0.64809 0.11629 0.0
H4088 H 0.28357 0.66551 0.1067 0.0
H4089 H 0.28747 0.66539 0.12726 0.0
H4090 H 0.26812 0.68541 0.12855 0.0
H4091 H 0.26402 0.7127 0.12458 0.0
H4092 H 0.71802 0.40835 0.18136 0.0
H4093 H 0.71624 0.40558 0.15323 0.0
H4094 H 0.75727 0.37726 0.15355 0.0
H4095 H 0.75947 0.38044 0.18124 0.0
H4096 H 0.75449 0.39371 0.12623 0.0
H4097 H 0.69876 0.36449 0.1405 0.0
H4098 H 0.70112 0.38478 0.14415 0.0
H4099 H 0.71115 0.37089 0.15591 0.0
C4100 C 0.7269 0.4019 0.17536 0.0
C4101 C 0.73862 0.3942 0.18363 0.0
C4102 C 0.72582 0.40029 0.15927 0.0
C4103 C 0.73635 0.39084 0.15133 0.0
C4104 C 0.74894 0.38456 0.1594 0.0
H4105 H 0.76481 0.31873 0.12375 0.0
H4106 H 0.76109 0.34654 0.1232 0.0
C4107 C 0.7501 0.38626 0.17534 0.0
C4108 C 0.73321 0.38479 0.1356 0.0
H4109 H 0.71386 0.35377 0.12118 0.0
C4110 C 0.74523 0.38541 0.1247 0.0
C4111 C 0.72086 0.37432 0.13318 0.0
C4112 C 0.70719 0.3735 0.14399 0.0
C4113 C 0.7467 0.37395 0.11333 0.0
C4114 C 0.73596 0.36168 0.11303 0.0
C4115 C 0.72235 0.36296 0.12173 0.0
C4116 C 0.74075 0.34584 0.10858 0.0
C4117 C 0.76068 0.37408 0.10296 0.0
C4118 C 0.7308 0.33605 0.10025 0.0
C4119 C 0.73299 0.32 0.1006 0.0
C4120 C 0.74497 0.31366 0.10949 0.0
C4121 C 0.75553 0.32346 0.1168 0.0
C4122 C 0.75351 0.33939 0.11628 0.0
H4123 H 0.76327 0.38606 0.09916 0.0
H4124 H 0.77086 0.36984 0.10951 0.0
H4125 H 0.759 0.36665 0.09263 0.0
H4126 H 0.72075 0.34074 0.09446 0.0
H4127 H 0.72467 0.31254 0.09496 0.0
loop_
_geom_bond_atom_site_label_1
_geom_bond_atom_site_label_2
_geom_bond_distance
_geom_bond_site_symmetry_2
_ccdc_geom_bond_type
Co0 O1 2.216 . S
Co0 O2 2.091 . S
Co0 O4 2.004 . S
Co0 O10 2.021 . S
Co0 O12 2.137 . S
Co0 O13 2.244 . S
O1 Co0 2.216 . S
O1 C8 1.247 . S
O2 Co0 2.091 . S
O2 C8 1.261 . S
C3 O12 1.247 . S
C3 O13 1.272 . S
O4 Co0 2.004 . S
O4 C9 1.259 . S
Co5 O6 2.061 . S
Co5 O11 2.052 . S
Co5 O13 2.135 . S
O6 Co5 2.061 . S
O6 C9 1.235 . S
C7 O10 1.238 . S
C7 O11 1.241 . S
C8 O1 1.247 . S
C8 O2 1.261 . S
C9 O4 1.259 . S
C9 O6 1.235 . S
O10 Co0 2.021 . S
O10 C7 1.238 . S
O11 Co5 2.052 . S
O11 C7 1.241 . S
O12 Co0 2.137 . S
O12 C3 1.247 . S
O13 Co0 2.244 . S
O13 C3 1.272 . S
O13 Co5 2.135 . S
Co14 O15 2.216 . S
Co14 O16 2.091 . S
Co14 O18 2.004 . S
Co14 O24 2.021 . S
Co14 O26 2.137 . S
Co14 O27 2.244 . S
O15 Co14 2.216 . S
O15 C22 1.247 . S
O16 Co14 2.091 . S
O16 C22 1.261 . S
C17 O26 1.247 . S
C17 O27 1.272 . S
O18 Co14 2.004 . S
O18 C23 1.259 . S
Co19 O20 2.061 . S
Co19 O25 2.052 . S
Co19 O27 2.135 . S
O20 Co19 2.061 . S
O20 C23 1.235 . S
C21 O24 1.238 . S
C21 O25 1.241 . S
C22 O15 1.247 . S
C22 O16 1.261 . S
C23 O18 1.259 . S
C23 O20 1.235 . S
O24 Co14 2.021 . S
O24 C21 1.238 . S
O25 Co19 2.052 . S
O25 C21 1.241 . S
O26 Co14 2.137 . S
O26 C17 1.247 . S
O27 Co14 2.244 . S
O27 C17 1.272 . S
O27 Co19 2.135 . S
Co28 O29 2.216 . S
Co28 O30 2.091 . S
Co28 O32 2.004 . S
Co28 O38 2.021 . S
Co28 O40 2.137 . S
Co28 O41 2.244 . S
O29 Co28 2.216 . S
O29 C36 1.247 . S
O30 Co28 2.091 . S
O30 C36 1.261 . S
C31 O40 1.247 . S
C31 O41 1.272 . S
O32 Co28 2.004 . S
O32 C37 1.259 . S
Co33 O34 2.061 . S
Co33 O39 2.052 . S
Co33 O41 2.135 . S
O34 Co33 2.061 . S
O34 C37 1.235 . S
C35 O38 1.238 . S
C35 O39 1.241 . S
C36 O29 1.247 . S
C36 O30 1.261 . S
C37 O32 1.259 . S
C37 O34 1.235 . S
O38 Co28 2.021 . S
O38 C35 1.238 . S
O39 Co33 2.052 . S
O39 C35 1.241 . S
O40 Co28 2.137 . S
O40 C31 1.247 . S
O41 Co28 2.244 . S
O41 C31 1.272 . S
O41 Co33 2.135 . S
Co42 O43 2.216 . S
Co42 O44 2.091 . S
Co42 O46 2.004 . S
Co42 O52 2.021 . S
Co42 O54 2.137 . S
Co42 O55 2.244 . S
O43 Co42 2.216 . S
O43 C50 1.247 . S
O44 Co42 2.091 . S
O44 C50 1.261 . S
C45 O54 1.247 . S
C45 O55 1.272 . S
O46 Co42 2.004 . S
O46 C51 1.259 . S
Co47 O48 2.061 . S
Co47 O53 2.052 . S
Co47 O55 2.135 . S
O48 Co47 2.061 . S
O48 C51 1.235 . S
C49 O52 1.238 . S
C49 O53 1.241 . S
C50 O43 1.247 . S
C50 O44 1.261 . S
C51 O46 1.259 . S
C51 O48 1.235 . S
O52 Co42 2.021 . S
O52 C49 1.238 . S
O53 Co47 2.052 . S
O53 C49 1.241 . S
O54 Co42 2.137 . S
O54 C45 1.247 . S
O55 Co42 2.244 . S
O55 C45 1.272 . S
O55 Co47 2.135 . S
Co56 O57 2.216 . S
Co56 O58 2.091 . S
Co56 O60 2.004 . S
Co56 O66 2.021 . S
Co56 O68 2.137 . S
Co56 O69 2.244 . S
O57 Co56 2.216 . S
O57 C64 1.247 . S
O58 Co56 2.091 . S
O58 C64 1.261 . S
C59 O68 1.247 . S
C59 O69 1.272 . S
O60 Co56 2.004 . S
O60 C65 1.259 . S
Co61 O62 2.061 . S
Co61 O67 2.052 . S
Co61 O69 2.135 . S
O62 Co61 2.061 . S
O62 C65 1.235 . S
C63 O66 1.238 . S
C63 O67 1.241 . S
C64 O57 1.247 . S
C64 O58 1.261 . S
C65 O60 1.259 . S
C65 O62 1.235 . S
O66 Co56 2.021 . S
O66 C63 1.238 . S
O67 Co61 2.052 . S
O67 C63 1.241 . S
O68 Co56 2.137 . S
O68 C59 1.247 . S
O69 Co56 2.244 . S
O69 C59 1.272 . S
O69 Co61 2.135 . S
Co70 O71 2.216 . S
Co70 O72 2.091 . S
Co70 O74 2.004 . S
Co70 O80 2.021 . S
Co70 O82 2.137 . S
Co70 O83 2.244 . S
O71 Co70 2.216 . S
O71 C78 1.247 . S
O72 Co70 2.091 . S
O72 C78 1.261 . S
C73 O82 1.247 . S
C73 O83 1.272 . S
O74 Co70 2.004 . S
O74 C79 1.259 . S
Co75 O76 2.061 . S
Co75 O81 2.052 . S
Co75 O83 2.135 . S
O76 Co75 2.061 . S
O76 C79 1.235 . S
C77 O80 1.238 . S
C77 O81 1.241 . S
C78 O71 1.247 . S
C78 O72 1.261 . S
C79 O74 1.259 . S
C79 O76 1.235 . S
O80 Co70 2.021 . S
O80 C77 1.238 . S
O81 Co75 2.052 . S
O81 C77 1.241 . S
O82 Co70 2.137 . S
O82 C73 1.247 . S
O83 Co70 2.244 . S
O83 C73 1.272 . S
O83 Co75 2.135 . S
Co84 O85 2.216 . S
Co84 O86 2.091 . S
Co84 O88 2.004 . S
Co84 O94 2.021 . S
Co84 O96 2.137 . S
Co84 O97 2.244 . S
O85 Co84 2.216 . S
O85 C92 1.247 . S
O86 Co84 2.091 . S
O86 C92 1.261 . S
C87 O96 1.247 . S
C87 O97 1.272 . S
O88 Co84 2.004 . S
O88 C93 1.259 . S
Co89 O90 2.061 . S
Co89 O95 2.052 . S
Co89 O97 2.135 . S
O90 Co89 2.061 . S
O90 C93 1.235 . S
C91 O94 1.238 . S
C91 O95 1.241 . S
C92 O85 1.247 . S
C92 O86 1.261 . S
C93 O88 1.259 . S
C93 O90 1.235 . S
O94 Co84 2.021 . S
O94 C91 1.238 . S
O95 Co89 2.052 . S
O95 C91 1.241 . S
O96 Co84 2.137 . S
O96 C87 1.247 . S
O97 Co84 2.244 . S
O97 C87 1.272 . S
O97 Co89 2.135 . S
Co98 O99 2.216 . S
Co98 O100 2.091 . S
Co98 O102 2.004 . S
Co98 O108 2.021 . S
Co98 O110 2.137 . S
Co98 O111 2.244 . S
O99 Co98 2.216 . S
O99 C106 1.247 . S
O100 Co98 2.091 . S
O100 C106 1.261 . S
C101 O110 1.247 . S
C101 O111 1.272 . S
O102 Co98 2.004 . S
O102 C107 1.259 . S
Co103 O104 2.061 . S
Co103 O109 2.052 . S
Co103 O111 2.135 . S
O104 Co103 2.061 . S
O104 C107 1.235 . S
C105 O108 1.238 . S
C105 O109 1.241 . S
C106 O99 1.247 . S
C106 O100 1.261 . S
C107 O102 1.259 . S
C107 O104 1.235 . S
O108 Co98 2.021 . S
O108 C105 1.238 . S
O109 Co103 2.052 . S
O109 C105 1.241 . S
O110 Co98 2.137 . S
O110 C101 1.247 . S
O111 Co98 2.244 . S
O111 C101 1.272 . S
O111 Co103 2.135 . S
Co112 O113 2.216 . S
Co112 O114 2.091 . S
Co112 O116 2.004 . S
Co112 O122 2.021 . S
Co112 O124 2.137 . S
Co112 O125 2.244 . S
O113 Co112 2.216 . S
O113 C120 1.247 . S
O114 Co112 2.091 . S
O114 C120 1.261 . S
C115 O124 1.247 . S
C115 O125 1.272 . S
O116 Co112 2.004 . S
O116 C121 1.259 . S
Co117 O118 2.061 . S
Co117 O123 2.052 . S
Co117 O125 2.135 . S
O118 Co117 2.061 . S
O118 C121 1.235 . S
C119 O122 1.238 . S
C119 O123 1.241 . S
C120 O113 1.247 . S
C120 O114 1.261 . S
C121 O116 1.259 . S
C121 O118 1.235 . S
O122 Co112 2.021 . S
O122 C119 1.238 . S
O123 Co117 2.052 . S
O123 C119 1.241 . S
O124 Co112 2.137 . S
O124 C115 1.247 . S
O125 Co112 2.244 . S
O125 C115 1.272 . S
O125 Co117 2.135 . S
Co126 O127 2.216 . S
Co126 O128 2.091 . S
Co126 O130 2.004 . S
Co126 O136 2.021 . S
Co126 O138 2.137 . S
Co126 O139 2.244 . S
O127 Co126 2.216 . S
O127 C134 1.247 . S
O128 Co126 2.091 . S
O128 C134 1.261 . S
C129 O138 1.247 . S
C129 O139 1.272 . S
O130 Co126 2.004 . S
O130 C135 1.259 . S
Co131 O132 2.061 . S
Co131 O137 2.052 . S
Co131 O139 2.135 . S
O132 Co131 2.061 . S
O132 C135 1.235 . S
C133 O136 1.238 . S
C133 O137 1.241 . S
C134 O127 1.247 . S
C134 O128 1.261 . S
C135 O130 1.259 . S
C135 O132 1.235 . S
O136 Co126 2.021 . S
O136 C133 1.238 . S
O137 Co131 2.052 . S
O137 C133 1.241 . S
O138 Co126 2.137 . S
O138 C129 1.247 . S
O139 Co126 2.244 . S
O139 C129 1.272 . S
O139 Co131 2.135 . S
Co140 O141 2.216 . S
Co140 O142 2.091 . S
Co140 O144 2.004 . S
Co140 O150 2.021 . S
Co140 O152 2.137 . S
Co140 O153 2.244 . S
O141 Co140 2.216 . S
O141 C148 1.247 . S
O142 Co140 2.091 . S
O142 C148 1.261 . S
C143 O152 1.247 . S
C143 O153 1.272 . S
O144 Co140 2.004 . S
O144 C149 1.259 . S
Co145 O146 2.061 . S
Co145 O151 2.052 . S
Co145 O153 2.135 . S
O146 Co145 2.061 . S
O146 C149 1.235 . S
C147 O150 1.238 . S
C147 O151 1.241 . S
C148 O141 1.247 . S
C148 O142 1.261 . S
C149 O144 1.259 . S
C149 O146 1.235 . S
O150 Co140 2.021 . S
O150 C147 1.238 . S
O151 Co145 2.052 . S
O151 C147 1.241 . S
O152 Co140 2.137 . S
O152 C143 1.247 . S
O153 Co140 2.244 . S
O153 C143 1.272 . S
O153 Co145 2.135 . S
Co154 O155 2.216 . S
Co154 O156 2.091 . S
Co154 O158 2.004 . S
Co154 O164 2.021 . S
Co154 O166 2.137 . S
Co154 O167 2.244 . S
O155 Co154 2.216 . S
O155 C162 1.247 . S
O156 Co154 2.091 . S
O156 C162 1.261 . S
C157 O166 1.247 . S
C157 O167 1.272 . S
O158 Co154 2.004 . S
O158 C163 1.259 . S
Co159 O160 2.061 . S
Co159 O165 2.052 . S
Co159 O167 2.135 . S
O160 Co159 2.061 . S
O160 C163 1.235 . S
C161 O164 1.238 . S
C161 O165 1.241 . S
C162 O155 1.247 . S
C162 O156 1.261 . S
C163 O158 1.259 . S
C163 O160 1.235 . S
O164 Co154 2.021 . S
O164 C161 1.238 . S
O165 Co159 2.052 . S
O165 C161 1.241 . S
O166 Co154 2.137 . S
O166 C157 1.247 . S
O167 Co154 2.244 . S
O167 C157 1.272 . S
O167 Co159 2.135 . S
Co168 O169 2.216 . S
Co168 O170 2.091 . S
Co168 O172 2.004 . S
Co168 O178 2.021 . S
Co168 O180 2.137 . S
Co168 O181 2.244 . S
O169 Co168 2.216 . S
O169 C176 1.247 . S
O170 Co168 2.091 . S
O170 C176 1.261 . S
C171 O180 1.247 . S
C171 O181 1.272 . S
O172 Co168 2.004 . S
O172 C177 1.259 . S
Co173 O174 2.061 . S
Co173 O179 2.052 . S
Co173 O181 2.135 . S
O174 Co173 2.061 . S
O174 C177 1.235 . S
C175 O178 1.238 . S
C175 O179 1.241 . S
C176 O169 1.247 . S
C176 O170 1.261 . S
C177 O172 1.259 . S
C177 O174 1.235 . S
O178 Co168 2.021 . S
O178 C175 1.238 . S
O179 Co173 2.052 . S
O179 C175 1.241 . S
O180 Co168 2.137 . S
O180 C171 1.247 . S
O181 Co168 2.244 . S
O181 C171 1.272 . S
O181 Co173 2.135 . S
Co182 O183 2.216 . S
Co182 O184 2.091 . S
Co182 O186 2.004 . S
Co182 O192 2.021 . S
Co182 O194 2.137 . S
Co182 O195 2.244 . S
O183 Co182 2.216 . S
O183 C190 1.247 . S
O184 Co182 2.091 . S
O184 C190 1.261 . S
C185 O194 1.247 . S
C185 O195 1.272 . S
O186 Co182 2.004 . S
O186 C191 1.259 . S
Co187 O188 2.061 . S
Co187 O193 2.052 . S
Co187 O195 2.135 . S
O188 Co187 2.061 . S
O188 C191 1.235 . S
C189 O192 1.238 . S
C189 O193 1.241 . S
C190 O183 1.247 . S
C190 O184 1.261 . S
C191 O186 1.259 . S
C191 O188 1.235 . S
O192 Co182 2.021 . S
O192 C189 1.238 . S
O193 Co187 2.052 . S
O193 C189 1.241 . S
O194 Co182 2.137 . S
O194 C185 1.247 . S
O195 Co182 2.244 . S
O195 C185 1.272 . S
O195 Co187 2.135 . S
Co196 O197 2.216 . S
Co196 O198 2.091 . S
Co196 O200 2.004 . S
Co196 O206 2.021 . S
Co196 O208 2.137 . S
Co196 O209 2.244 . S
O197 Co196 2.216 . S
O197 C204 1.247 . S
O198 Co196 2.091 . S
O198 C204 1.261 . S
C199 O208 1.247 . S
C199 O209 1.272 . S
O200 Co196 2.004 . S
O200 C205 1.259 . S
Co201 O202 2.061 . S
Co201 O207 2.052 . S
Co201 O209 2.135 . S
O202 Co201 2.061 . S
O202 C205 1.235 . S
C203 O206 1.238 . S
C203 O207 1.241 . S
C204 O197 1.247 . S
C204 O198 1.261 . S
C205 O200 1.259 . S
C205 O202 1.235 . S
O206 Co196 2.021 . S
O206 C203 1.238 . S
O207 Co201 2.052 . S
O207 C203 1.241 . S
O208 Co196 2.137 . S
O208 C199 1.247 . S
O209 Co196 2.244 . S
O209 C199 1.272 . S
O209 Co201 2.135 . S
Co210 O211 2.216 . S
Co210 O212 2.091 . S
Co210 O214 2.004 . S
Co210 O220 2.021 . S
Co210 O222 2.137 . S
Co210 O223 2.244 . S
O211 Co210 2.216 . S
O211 C218 1.247 . S
O212 Co210 2.091 . S
O212 C218 1.261 . S
C213 O222 1.247 . S
C213 O223 1.272 . S
O214 Co210 2.004 . S
O214 C219 1.259 . S
Co215 O216 2.061 . S
Co215 O221 2.052 . S
Co215 O223 2.135 . S
O216 Co215 2.061 . S
O216 C219 1.235 . S
C217 O220 1.238 . S
C217 O221 1.241 . S
C218 O211 1.247 . S
C218 O212 1.261 . S
C219 O214 1.259 . S
C219 O216 1.235 . S
O220 Co210 2.021 . S
O220 C217 1.238 . S
O221 Co215 2.052 . S
O221 C217 1.241 . S
O222 Co210 2.137 . S
O222 C213 1.247 . S
O223 Co210 2.244 . S
O223 C213 1.272 . S
O223 Co215 2.135 . S
Co224 O225 2.216 . S
Co224 O226 2.091 . S
Co224 O228 2.004 . S
Co224 O234 2.021 . S
Co224 O236 2.137 . S
Co224 O237 2.244 . S
O225 Co224 2.216 . S
O225 C232 1.247 . S
O226 Co224 2.091 . S
O226 C232 1.261 . S
C227 O236 1.247 . S
C227 O237 1.272 . S
O228 Co224 2.004 . S
O228 C233 1.259 . S
Co229 O230 2.061 . S
Co229 O235 2.052 . S
Co229 O237 2.135 . S
O230 Co229 2.061 . S
O230 C233 1.235 . S
C231 O234 1.238 . S
C231 O235 1.241 . S
C232 O225 1.247 . S
C232 O226 1.261 . S
C233 O228 1.259 . S
C233 O230 1.235 . S
O234 Co224 2.021 . S
O234 C231 1.238 . S
O235 Co229 2.052 . S
O235 C231 1.241 . S
O236 Co224 2.137 . S
O236 C227 1.247 . S
O237 Co224 2.244 . S
O237 C227 1.272 . S
O237 Co229 2.135 . S
Co238 O239 2.216 . S
Co238 O240 2.091 . S
Co238 O242 2.004 . S
Co238 O248 2.021 . S
Co238 O250 2.137 . S
Co238 O251 2.244 . S
O239 Co238 2.216 . S
O239 C246 1.247 . S
O240 Co238 2.091 . S
O240 C246 1.261 . S
C241 O250 1.247 . S
C241 O251 1.272 . S
O242 Co238 2.004 . S
O242 C247 1.259 . S
Co243 O244 2.061 . S
Co243 O249 2.052 . S
Co243 O251 2.135 . S
O244 Co243 2.061 . S
O244 C247 1.235 . S
C245 O248 1.238 . S
C245 O249 1.241 . S
C246 O239 1.247 . S
C246 O240 1.261 . S
C247 O242 1.259 . S
C247 O244 1.235 . S
O248 Co238 2.021 . S
O248 C245 1.238 . S
O249 Co243 2.052 . S
O249 C245 1.241 . S
O250 Co238 2.137 . S
O250 C241 1.247 . S
O251 Co238 2.244 . S
O251 C241 1.272 . S
O251 Co243 2.135 . S
Co252 O253 2.216 . S
Co252 O254 2.091 . S
Co252 O256 2.004 . S
Co252 O262 2.021 . S
Co252 O264 2.137 . S
Co252 O265 2.244 . S
O253 Co252 2.216 . S
O253 C260 1.247 . S
O254 Co252 2.091 . S
O254 C260 1.261 . S
C255 O264 1.247 . S
C255 O265 1.272 . S
O256 Co252 2.004 . S
O256 C261 1.259 . S
Co257 O258 2.061 . S
Co257 O263 2.052 . S
Co257 O265 2.135 . S
O258 Co257 2.061 . S
O258 C261 1.235 . S
C259 O262 1.238 . S
C259 O263 1.241 . S
C260 O253 1.247 . S
C260 O254 1.261 . S
C261 O256 1.259 . S
C261 O258 1.235 . S
O262 Co252 2.021 . S
O262 C259 1.238 . S
O263 Co257 2.052 . S
O263 C259 1.241 . S
O264 Co252 2.137 . S
O264 C255 1.247 . S
O265 Co252 2.244 . S
O265 C255 1.272 . S
O265 Co257 2.135 . S
Co266 O267 2.216 . S
Co266 O268 2.091 . S
Co266 O270 2.004 . S
Co266 O276 2.021 . S
Co266 O278 2.137 . S
Co266 O279 2.244 . S
O267 Co266 2.216 . S
O267 C274 1.247 . S
O268 Co266 2.091 . S
O268 C274 1.261 . S
C269 O278 1.247 . S
C269 O279 1.272 . S
O270 Co266 2.004 . S
O270 C275 1.259 . S
Co271 O272 2.061 . S
Co271 O277 2.052 . S
Co271 O279 2.135 . S
O272 Co271 2.061 . S
O272 C275 1.235 . S
C273 O276 1.238 . S
C273 O277 1.241 . S
C274 O267 1.247 . S
C274 O268 1.261 . S
C275 O270 1.259 . S
C275 O272 1.235 . S
O276 Co266 2.021 . S
O276 C273 1.238 . S
O277 Co271 2.052 . S
O277 C273 1.241 . S
O278 Co266 2.137 . S
O278 C269 1.247 . S
O279 Co266 2.244 . S
O279 C269 1.272 . S
O279 Co271 2.135 . S
Co280 O281 2.216 . S
Co280 O282 2.091 . S
Co280 O284 2.004 . S
Co280 O290 2.021 . S
Co280 O292 2.137 . S
Co280 O293 2.244 . S
O281 Co280 2.216 . S
O281 C288 1.247 . S
O282 Co280 2.091 . S
O282 C288 1.261 . S
C283 O292 1.247 . S
C283 O293 1.272 . S
O284 Co280 2.004 . S
O284 C289 1.259 . S
Co285 O286 2.061 . S
Co285 O291 2.052 . S
Co285 O293 2.135 . S
O286 Co285 2.061 . S
O286 C289 1.235 . S
C287 O290 1.238 . S
C287 O291 1.241 . S
C288 O281 1.247 . S
C288 O282 1.261 . S
C289 O284 1.259 . S
C289 O286 1.235 . S
O290 Co280 2.021 . S
O290 C287 1.238 . S
O291 Co285 2.052 . S
O291 C287 1.241 . S
O292 Co280 2.137 . S
O292 C283 1.247 . S
O293 Co280 2.244 . S
O293 C283 1.272 . S
O293 Co285 2.135 . S
Co294 O295 2.216 . S
Co294 O296 2.091 . S
Co294 O298 2.004 . S
Co294 O304 2.021 . S
Co294 O306 2.137 . S
Co294 O307 2.244 . S
O295 Co294 2.216 . S
O295 C302 1.247 . S
O296 Co294 2.091 . S
O296 C302 1.261 . S
C297 O306 1.247 . S
C297 O307 1.272 . S
O298 Co294 2.004 . S
O298 C303 1.259 . S
Co299 O300 2.061 . S
Co299 O305 2.052 . S
Co299 O307 2.135 . S
O300 Co299 2.061 . S
O300 C303 1.235 . S
C301 O304 1.238 . S
C301 O305 1.241 . S
C302 O295 1.247 . S
C302 O296 1.261 . S
C303 O298 1.259 . S
C303 O300 1.235 . S
O304 Co294 2.021 . S
O304 C301 1.238 . S
O305 Co299 2.052 . S
O305 C301 1.241 . S
O306 Co294 2.137 . S
O306 C297 1.247 . S
O307 Co294 2.244 . S
O307 C297 1.272 . S
O307 Co299 2.135 . S
Co308 O309 2.216 . S
Co308 O310 2.091 . S
Co308 O312 2.004 . S
Co308 O318 2.021 . S
Co308 O320 2.137 . S
Co308 O321 2.244 . S
O309 Co308 2.216 . S
O309 C316 1.247 . S
O310 Co308 2.091 . S
O310 C316 1.261 . S
C311 O320 1.247 . S
C311 O321 1.272 . S
O312 Co308 2.004 . S
O312 C317 1.259 . S
Co313 O314 2.061 . S
Co313 O319 2.052 . S
Co313 O321 2.135 . S
O314 Co313 2.061 . S
O314 C317 1.235 . S
C315 O318 1.238 . S
C315 O319 1.241 . S
C316 O309 1.247 . S
C316 O310 1.261 . S
C317 O312 1.259 . S
C317 O314 1.235 . S
O318 Co308 2.021 . S
O318 C315 1.238 . S
O319 Co313 2.052 . S
O319 C315 1.241 . S
O320 Co308 2.137 . S
O320 C311 1.247 . S
O321 Co308 2.244 . S
O321 C311 1.272 . S
O321 Co313 2.135 . S
Co322 O323 2.216 . S
Co322 O324 2.091 . S
Co322 O326 2.004 . S
Co322 O332 2.021 . S
Co322 O334 2.137 . S
Co322 O335 2.244 . S
O323 Co322 2.216 . S
O323 C330 1.247 . S
O324 Co322 2.091 . S
O324 C330 1.261 . S
C325 O334 1.247 . S
C325 O335 1.272 . S
O326 Co322 2.004 . S
O326 C331 1.259 . S
Co327 O328 2.061 . S
Co327 O333 2.052 . S
Co327 O335 2.135 . S
O328 Co327 2.061 . S
O328 C331 1.235 . S
C329 O332 1.238 . S
C329 O333 1.241 . S
C330 O323 1.247 . S
C330 O324 1.261 . S
C331 O326 1.259 . S
C331 O328 1.235 . S
O332 Co322 2.021 . S
O332 C329 1.238 . S
O333 Co327 2.052 . S
O333 C329 1.241 . S
O334 Co322 2.137 . S
O334 C325 1.247 . S
O335 Co322 2.244 . S
O335 C325 1.272 . S
O335 Co327 2.135 . S
Co336 O337 2.216 . S
Co336 O338 2.091 . S
Co336 O340 2.004 . S
Co336 O346 2.021 . S
Co336 O348 2.137 . S
Co336 O349 2.244 . S
O337 Co336 2.216 . S
O337 C344 1.247 . S
O338 Co336 2.091 . S
O338 C344 1.261 . S
C339 O348 1.247 . S
C339 O349 1.272 . S
O340 Co336 2.004 . S
O340 C345 1.259 . S
Co341 O342 2.061 . S
Co341 O347 2.052 . S
Co341 O349 2.135 . S
O342 Co341 2.061 . S
O342 C345 1.235 . S
C343 O346 1.238 . S
C343 O347 1.241 . S
C344 O337 1.247 . S
C344 O338 1.261 . S
C345 O340 1.259 . S
C345 O342 1.235 . S
O346 Co336 2.021 . S
O346 C343 1.238 . S
O347 Co341 2.052 . S
O347 C343 1.241 . S
O348 Co336 2.137 . S
O348 C339 1.247 . S
O349 Co336 2.244 . S
O349 C339 1.272 . S
O349 Co341 2.135 . S
Co350 O351 2.216 . S
Co350 O352 2.091 . S
Co350 O354 2.004 . S
Co350 O360 2.021 . S
Co350 O362 2.137 . S
Co350 O363 2.244 . S
O351 Co350 2.216 . S
O351 C358 1.247 . S
O352 Co350 2.091 . S
O352 C358 1.261 . S
C353 O362 1.247 . S
C353 O363 1.272 . S
O354 Co350 2.004 . S
O354 C359 1.259 . S
Co355 O356 2.061 . S
Co355 O361 2.052 . S
Co355 O363 2.135 . S
O356 Co355 2.061 . S
O356 C359 1.235 . S
C357 O360 1.238 . S
C357 O361 1.241 . S
C358 O351 1.247 . S
C358 O352 1.261 . S
C359 O354 1.259 . S
C359 O356 1.235 . S
O360 Co350 2.021 . S
O360 C357 1.238 . S
O361 Co355 2.052 . S
O361 C357 1.241 . S
O362 Co350 2.137 . S
O362 C353 1.247 . S
O363 Co350 2.244 . S
O363 C353 1.272 . S
O363 Co355 2.135 . S
Co364 O365 2.216 . S
Co364 O366 2.091 . S
Co364 O368 2.004 . S
Co364 O374 2.021 . S
Co364 O376 2.137 . S
Co364 O377 2.244 . S
O365 Co364 2.216 . S
O365 C372 1.247 . S
O366 Co364 2.091 . S
O366 C372 1.261 . S
C367 O376 1.247 . S
C367 O377 1.272 . S
O368 Co364 2.004 . S
O368 C373 1.259 . S
Co369 O370 2.061 . S
Co369 O375 2.052 . S
Co369 O377 2.135 . S
O370 Co369 2.061 . S
O370 C373 1.235 . S
C371 O374 1.238 . S
C371 O375 1.241 . S
C372 O365 1.247 . S
C372 O366 1.261 . S
C373 O368 1.259 . S
C373 O370 1.235 . S
O374 Co364 2.021 . S
O374 C371 1.238 . S
O375 Co369 2.052 . S
O375 C371 1.241 . S
O376 Co364 2.137 . S
O376 C367 1.247 . S
O377 Co364 2.244 . S
O377 C367 1.272 . S
O377 Co369 2.135 . S
Co378 O379 2.216 . S
Co378 O380 2.091 . S
Co378 O382 2.004 . S
Co378 O388 2.021 . S
Co378 O390 2.137 . S
Co378 O391 2.244 . S
O379 Co378 2.216 . S
O379 C386 1.247 . S
O380 Co378 2.091 . S
O380 C386 1.261 . S
C381 O390 1.247 . S
C381 O391 1.272 . S
O382 Co378 2.004 . S
O382 C387 1.259 . S
Co383 O384 2.061 . S
Co383 O389 2.052 . S
Co383 O391 2.135 . S
O384 Co383 2.061 . S
O384 C387 1.235 . S
C385 O388 1.238 . S
C385 O389 1.241 . S
C386 O379 1.247 . S
C386 O380 1.261 . S
C387 O382 1.259 . S
C387 O384 1.235 . S
O388 Co378 2.021 . S
O388 C385 1.238 . S
O389 Co383 2.052 . S
O389 C385 1.241 . S
O390 Co378 2.137 . S
O390 C381 1.247 . S
O391 Co378 2.244 . S
O391 C381 1.272 . S
O391 Co383 2.135 . S
Co392 O393 2.216 . S
Co392 O394 2.091 . S
Co392 O396 2.004 . S
Co392 O402 2.021 . S
Co392 O404 2.137 . S
Co392 O405 2.244 . S
O393 Co392 2.216 . S
O393 C400 1.247 . S
O394 Co392 2.091 . S
O394 C400 1.261 . S
C395 O404 1.247 . S
C395 O405 1.272 . S
O396 Co392 2.004 . S
O396 C401 1.259 . S
Co397 O398 2.061 . S
Co397 O403 2.052 . S
Co397 O405 2.135 . S
O398 Co397 2.061 . S
O398 C401 1.235 . S
C399 O402 1.238 . S
C399 O403 1.241 . S
C400 O393 1.247 . S
C400 O394 1.261 . S
C401 O396 1.259 . S
C401 O398 1.235 . S
O402 Co392 2.021 . S
O402 C399 1.238 . S
O403 Co397 2.052 . S
O403 C399 1.241 . S
O404 Co392 2.137 . S
O404 C395 1.247 . S
O405 Co392 2.244 . S
O405 C395 1.272 . S
O405 Co397 2.135 . S
Co406 O407 2.216 . S
Co406 O408 2.091 . S
Co406 O410 2.004 . S
Co406 O416 2.021 . S
Co406 O418 2.137 . S
Co406 O419 2.244 . S
O407 Co406 2.216 . S
O407 C414 1.247 . S
O408 Co406 2.091 . S
O408 C414 1.261 . S
C409 O418 1.247 . S
C409 O419 1.272 . S
O410 Co406 2.004 . S
O410 C415 1.259 . S
Co411 O412 2.061 . S
Co411 O417 2.052 . S
Co411 O419 2.135 . S
O412 Co411 2.061 . S
O412 C415 1.235 . S
C413 O416 1.238 . S
C413 O417 1.241 . S
C414 O407 1.247 . S
C414 O408 1.261 . S
C415 O410 1.259 . S
C415 O412 1.235 . S
O416 Co406 2.021 . S
O416 C413 1.238 . S
O417 Co411 2.052 . S
O417 C413 1.241 . S
O418 Co406 2.137 . S
O418 C409 1.247 . S
O419 Co406 2.244 . S
O419 C409 1.272 . S
O419 Co411 2.135 . S
Co420 O421 2.216 . S
Co420 O422 2.091 . S
Co420 O424 2.004 . S
Co420 O430 2.021 . S
Co420 O432 2.137 . S
Co420 O433 2.244 . S
O421 Co420 2.216 . S
O421 C428 1.247 . S
O422 Co420 2.091 . S
O422 C428 1.261 . S
C423 O432 1.247 . S
C423 O433 1.272 . S
O424 Co420 2.004 . S
O424 C429 1.259 . S
Co425 O426 2.061 . S
Co425 O431 2.052 . S
Co425 O433 2.135 . S
O426 Co425 2.061 . S
O426 C429 1.235 . S
C427 O430 1.238 . S
C427 O431 1.241 . S
C428 O421 1.247 . S
C428 O422 1.261 . S
C429 O424 1.259 . S
C429 O426 1.235 . S
O430 Co420 2.021 . S
O430 C427 1.238 . S
O431 Co425 2.052 . S
O431 C427 1.241 . S
O432 Co420 2.137 . S
O432 C423 1.247 . S
O433 Co420 2.244 . S
O433 C423 1.272 . S
O433 Co425 2.135 . S
Co434 O435 2.216 . S
Co434 O436 2.091 . S
Co434 O438 2.004 . S
Co434 O444 2.021 . S
Co434 O446 2.137 . S
Co434 O447 2.244 . S
O435 Co434 2.216 . S
O435 C442 1.247 . S
O436 Co434 2.091 . S
O436 C442 1.261 . S
C437 O446 1.247 . S
C437 O447 1.272 . S
O438 Co434 2.004 . S
O438 C443 1.259 . S
Co439 O440 2.061 . S
Co439 O445 2.052 . S
Co439 O447 2.135 . S
O440 Co439 2.061 . S
O440 C443 1.235 . S
C441 O444 1.238 . S
C441 O445 1.241 . S
C442 O435 1.247 . S
C442 O436 1.261 . S
C443 O438 1.259 . S
C443 O440 1.235 . S
O444 Co434 2.021 . S
O444 C441 1.238 . S
O445 Co439 2.052 . S
O445 C441 1.241 . S
O446 Co434 2.137 . S
O446 C437 1.247 . S
O447 Co434 2.244 . S
O447 C437 1.272 . S
O447 Co439 2.135 . S
Co448 O449 2.216 . S
Co448 O450 2.091 . S
Co448 O452 2.004 . S
Co448 O458 2.021 . S
Co448 O460 2.137 . S
Co448 O461 2.244 . S
O449 Co448 2.216 . S
O449 C456 1.247 . S
O450 Co448 2.091 . S
O450 C456 1.261 . S
C451 O460 1.247 . S
C451 O461 1.272 . S
O452 Co448 2.004 . S
O452 C457 1.259 . S
Co453 O454 2.061 . S
Co453 O459 2.052 . S
Co453 O461 2.135 . S
O454 Co453 2.061 . S
O454 C457 1.235 . S
C455 O458 1.238 . S
C455 O459 1.241 . S
C456 O449 1.247 . S
C456 O450 1.261 . S
C457 O452 1.259 . S
C457 O454 1.235 . S
O458 Co448 2.021 . S
O458 C455 1.238 . S
O459 Co453 2.052 . S
O459 C455 1.241 . S
O460 Co448 2.137 . S
O460 C451 1.247 . S
O461 Co448 2.244 . S
O461 C451 1.272 . S
O461 Co453 2.135 . S
Co462 O463 2.216 . S
Co462 O464 2.091 . S
Co462 O466 2.004 . S
Co462 O472 2.021 . S
Co462 O474 2.137 . S
Co462 O475 2.244 . S
O463 Co462 2.216 . S
O463 C470 1.247 . S
O464 Co462 2.091 . S
O464 C470 1.261 . S
C465 O474 1.247 . S
C465 O475 1.272 . S
O466 Co462 2.004 . S
O466 C471 1.259 . S
Co467 O468 2.061 . S
Co467 O473 2.052 . S
Co467 O475 2.135 . S
O468 Co467 2.061 . S
O468 C471 1.235 . S
C469 O472 1.238 . S
C469 O473 1.241 . S
C470 O463 1.247 . S
C470 O464 1.261 . S
C471 O466 1.259 . S
C471 O468 1.235 . S
O472 Co462 2.021 . S
O472 C469 1.238 . S
O473 Co467 2.052 . S
O473 C469 1.241 . S
O474 Co462 2.137 . S
O474 C465 1.247 . S
O475 Co462 2.244 . S
O475 C465 1.272 . S
O475 Co467 2.135 . S
Co476 O477 2.216 . S
Co476 O478 2.091 . S
Co476 O480 2.004 . S
Co476 O486 2.021 . S
Co476 O488 2.137 . S
Co476 O489 2.244 . S
O477 Co476 2.216 . S
O477 C484 1.247 . S
O478 Co476 2.091 . S
O478 C484 1.261 . S
C479 O488 1.247 . S
C479 O489 1.272 . S
O480 Co476 2.004 . S
O480 C485 1.259 . S
Co481 O482 2.061 . S
Co481 O487 2.052 . S
Co481 O489 2.135 . S
O482 Co481 2.061 . S
O482 C485 1.235 . S
C483 O486 1.238 . S
C483 O487 1.241 . S
C484 O477 1.247 . S
C484 O478 1.261 . S
C485 O480 1.259 . S
C485 O482 1.235 . S
O486 Co476 2.021 . S
O486 C483 1.238 . S
O487 Co481 2.052 . S
O487 C483 1.241 . S
O488 Co476 2.137 . S
O488 C479 1.247 . S
O489 Co476 2.244 . S
O489 C479 1.272 . S
O489 Co481 2.135 . S
Co490 O491 2.216 . S
Co490 O492 2.091 . S
Co490 O494 2.004 . S
Co490 O500 2.021 . S
Co490 O502 2.137 . S
Co490 O503 2.244 . S
O491 Co490 2.216 . S
O491 C498 1.247 . S
O492 Co490 2.091 . S
O492 C498 1.261 . S
C493 O502 1.247 . S
C493 O503 1.272 . S
O494 Co490 2.004 . S
O494 C499 1.259 . S
Co495 O496 2.061 . S
Co495 O501 2.052 . S
Co495 O503 2.135 . S
O496 Co495 2.061 . S
O496 C499 1.235 . S
C497 O500 1.238 . S
C497 O501 1.241 . S
C498 O491 1.247 . S
C498 O492 1.261 . S
C499 O494 1.259 . S
C499 O496 1.235 . S
O500 Co490 2.021 . S
O500 C497 1.238 . S
O501 Co495 2.052 . S
O501 C497 1.241 . S
O502 Co490 2.137 . S
O502 C493 1.247 . S
O503 Co490 2.244 . S
O503 C493 1.272 . S
O503 Co495 2.135 . S
Co504 O505 2.216 . S
Co504 O506 2.091 . S
Co504 O508 2.004 . S
Co504 O514 2.021 . S
Co504 O516 2.137 . S
Co504 O517 2.244 . S
O505 Co504 2.216 . S
O505 C512 1.247 . S
O506 Co504 2.091 . S
O506 C512 1.261 . S
C507 O516 1.247 . S
C507 O517 1.272 . S
O508 Co504 2.004 . S
O508 C513 1.259 . S
Co509 O510 2.061 . S
Co509 O515 2.052 . S
Co509 O517 2.135 . S
O510 Co509 2.061 . S
O510 C513 1.235 . S
C511 O514 1.238 . S
C511 O515 1.241 . S
C512 O505 1.247 . S
C512 O506 1.261 . S
C513 O508 1.259 . S
C513 O510 1.235 . S
O514 Co504 2.021 . S
O514 C511 1.238 . S
O515 Co509 2.052 . S
O515 C511 1.241 . S
O516 Co504 2.137 . S
O516 C507 1.247 . S
O517 Co504 2.244 . S
O517 C507 1.272 . S
O517 Co509 2.135 . S
Co518 O519 2.216 . S
Co518 O520 2.091 . S
Co518 O522 2.004 . S
Co518 O528 2.021 . S
Co518 O530 2.137 . S
Co518 O531 2.244 . S
O519 Co518 2.216 . S
O519 C526 1.247 . S
O520 Co518 2.091 . S
O520 C526 1.261 . S
C521 O530 1.247 . S
C521 O531 1.272 . S
O522 Co518 2.004 . S
O522 C527 1.259 . S
Co523 O524 2.061 . S
Co523 O529 2.052 . S
Co523 O531 2.135 . S
O524 Co523 2.061 . S
O524 C527 1.235 . S
C525 O528 1.238 . S
C525 O529 1.241 . S
C526 O519 1.247 . S
C526 O520 1.261 . S
C527 O522 1.259 . S
C527 O524 1.235 . S
O528 Co518 2.021 . S
O528 C525 1.238 . S
O529 Co523 2.052 . S
O529 C525 1.241 . S
O530 Co518 2.137 . S
O530 C521 1.247 . S
O531 Co518 2.244 . S
O531 C521 1.272 . S
O531 Co523 2.135 . S
Co532 O533 2.216 . S
Co532 O534 2.091 . S
Co532 O536 2.004 . S
Co532 O542 2.021 . S
Co532 O544 2.137 . S
Co532 O545 2.244 . S
O533 Co532 2.216 . S
O533 C540 1.247 . S
O534 Co532 2.091 . S
O534 C540 1.261 . S
C535 O544 1.247 . S
C535 O545 1.272 . S
O536 Co532 2.004 . S
O536 C541 1.259 . S
Co537 O538 2.061 . S
Co537 O543 2.052 . S
Co537 O545 2.135 . S
O538 Co537 2.061 . S
O538 C541 1.235 . S
C539 O542 1.238 . S
C539 O543 1.241 . S
C540 O533 1.247 . S
C540 O534 1.261 . S
C541 O536 1.259 . S
C541 O538 1.235 . S
O542 Co532 2.021 . S
O542 C539 1.238 . S
O543 Co537 2.052 . S
O543 C539 1.241 . S
O544 Co532 2.137 . S
O544 C535 1.247 . S
O545 Co532 2.244 . S
O545 C535 1.272 . S
O545 Co537 2.135 . S
Co546 O547 2.216 . S
Co546 O548 2.091 . S
Co546 O550 2.004 . S
Co546 O556 2.021 . S
Co546 O558 2.137 . S
Co546 O559 2.244 . S
O547 Co546 2.216 . S
O547 C554 1.247 . S
O548 Co546 2.091 . S
O548 C554 1.261 . S
C549 O558 1.247 . S
C549 O559 1.272 . S
O550 Co546 2.004 . S
O550 C555 1.259 . S
Co551 O552 2.061 . S
Co551 O557 2.052 . S
Co551 O559 2.135 . S
O552 Co551 2.061 . S
O552 C555 1.235 . S
C553 O556 1.238 . S
C553 O557 1.241 . S
C554 O547 1.247 . S
C554 O548 1.261 . S
C555 O550 1.259 . S
C555 O552 1.235 . S
O556 Co546 2.021 . S
O556 C553 1.238 . S
O557 Co551 2.052 . S
O557 C553 1.241 . S
O558 Co546 2.137 . S
O558 C549 1.247 . S
O559 Co546 2.244 . S
O559 C549 1.272 . S
O559 Co551 2.135 . S
Co560 O561 2.216 . S
Co560 O562 2.091 . S
Co560 O564 2.004 . S
Co560 O570 2.021 . S
Co560 O572 2.137 . S
Co560 O573 2.244 . S
O561 Co560 2.216 . S
O561 C568 1.247 . S
O562 Co560 2.091 . S
O562 C568 1.261 . S
C563 O572 1.247 . S
C563 O573 1.272 . S
O564 Co560 2.004 . S
O564 C569 1.259 . S
Co565 O566 2.061 . S
Co565 O571 2.052 . S
Co565 O573 2.135 . S
O566 Co565 2.061 . S
O566 C569 1.235 . S
C567 O570 1.238 . S
C567 O571 1.241 . S
C568 O561 1.247 . S
C568 O562 1.261 . S
C569 O564 1.259 . S
C569 O566 1.235 . S
O570 Co560 2.021 . S
O570 C567 1.238 . S
O571 Co565 2.052 . S
O571 C567 1.241 . S
O572 Co560 2.137 . S
O572 C563 1.247 . S
O573 Co560 2.244 . S
O573 C563 1.272 . S
O573 Co565 2.135 . S
Co574 O575 2.216 . S
Co574 O576 2.091 . S
Co574 O578 2.004 . S
Co574 O584 2.021 . S
Co574 O586 2.137 . S
Co574 O587 2.244 . S
O575 Co574 2.216 . S
O575 C582 1.247 . S
O576 Co574 2.091 . S
O576 C582 1.261 . S
C577 O586 1.247 . S
C577 O587 1.272 . S
O578 Co574 2.004 . S
O578 C583 1.259 . S
Co579 O580 2.061 . S
Co579 O585 2.052 . S
Co579 O587 2.135 . S
O580 Co579 2.061 . S
O580 C583 1.235 . S
C581 O584 1.238 . S
C581 O585 1.241 . S
C582 O575 1.247 . S
C582 O576 1.261 . S
C583 O578 1.259 . S
C583 O580 1.235 . S
O584 Co574 2.021 . S
O584 C581 1.238 . S
O585 Co579 2.052 . S
O585 C581 1.241 . S
O586 Co574 2.137 . S
O586 C577 1.247 . S
O587 Co574 2.244 . S
O587 C577 1.272 . S
O587 Co579 2.135 . S
Co588 O589 2.216 . S
Co588 O590 2.091 . S
Co588 O592 2.004 . S
Co588 O598 2.021 . S
Co588 O600 2.137 . S
Co588 O601 2.244 . S
O589 Co588 2.216 . S
O589 C596 1.247 . S
O590 Co588 2.091 . S
O590 C596 1.261 . S
C591 O600 1.247 . S
C591 O601 1.272 . S
O592 Co588 2.004 . S
O592 C597 1.259 . S
Co593 O594 2.061 . S
Co593 O599 2.052 . S
Co593 O601 2.135 . S
O594 Co593 2.061 . S
O594 C597 1.235 . S
C595 O598 1.238 . S
C595 O599 1.241 . S
C596 O589 1.247 . S
C596 O590 1.261 . S
C597 O592 1.259 . S
C597 O594 1.235 . S
O598 Co588 2.021 . S
O598 C595 1.238 . S
O599 Co593 2.052 . S
O599 C595 1.241 . S
O600 Co588 2.137 . S
O600 C591 1.247 . S
O601 Co588 2.244 . S
O601 C591 1.272 . S
O601 Co593 2.135 . S
Co602 O603 2.216 . S
Co602 O604 2.091 . S
Co602 O606 2.004 . S
Co602 O612 2.021 . S
Co602 O614 2.137 . S
Co602 O615 2.244 . S
O603 Co602 2.216 . S
O603 C610 1.247 . S
O604 Co602 2.091 . S
O604 C610 1.261 . S
C605 O614 1.247 . S
C605 O615 1.272 . S
O606 Co602 2.004 . S
O606 C611 1.259 . S
Co607 O608 2.061 . S
Co607 O613 2.052 . S
Co607 O615 2.135 . S
O608 Co607 2.061 . S
O608 C611 1.235 . S
C609 O612 1.238 . S
C609 O613 1.241 . S
C610 O603 1.247 . S
C610 O604 1.261 . S
C611 O606 1.259 . S
C611 O608 1.235 . S
O612 Co602 2.021 . S
O612 C609 1.238 . S
O613 Co607 2.052 . S
O613 C609 1.241 . S
O614 Co602 2.137 . S
O614 C605 1.247 . S
O615 Co602 2.244 . S
O615 C605 1.272 . S
O615 Co607 2.135 . S
Co616 O617 2.216 . S
Co616 O618 2.091 . S
Co616 O620 2.004 . S
Co616 O626 2.021 . S
Co616 O628 2.137 . S
Co616 O629 2.244 . S
O617 Co616 2.216 . S
O617 C624 1.247 . S
O618 Co616 2.091 . S
O618 C624 1.261 . S
C619 O628 1.247 . S
C619 O629 1.272 . S
O620 Co616 2.004 . S
O620 C625 1.259 . S
Co621 O622 2.061 . S
Co621 O627 2.052 . S
Co621 O629 2.135 . S
O622 Co621 2.061 . S
O622 C625 1.235 . S
C623 O626 1.238 . S
C623 O627 1.241 . S
C624 O617 1.247 . S
C624 O618 1.261 . S
C625 O620 1.259 . S
C625 O622 1.235 . S
O626 Co616 2.021 . S
O626 C623 1.238 . S
O627 Co621 2.052 . S
O627 C623 1.241 . S
O628 Co616 2.137 . S
O628 C619 1.247 . S
O629 Co616 2.244 . S
O629 C619 1.272 . S
O629 Co621 2.135 . S
Co630 O631 2.216 . S
Co630 O632 2.091 . S
Co630 O634 2.004 . S
Co630 O640 2.021 . S
Co630 O642 2.137 . S
Co630 O643 2.244 . S
O631 Co630 2.216 . S
O631 C638 1.247 . S
O632 Co630 2.091 . S
O632 C638 1.261 . S
C633 O642 1.247 . S
C633 O643 1.272 . S
O634 Co630 2.004 . S
O634 C639 1.259 . S
Co635 O636 2.061 . S
Co635 O641 2.052 . S
Co635 O643 2.135 . S
O636 Co635 2.061 . S
O636 C639 1.235 . S
C637 O640 1.238 . S
C637 O641 1.241 . S
C638 O631 1.247 . S
C638 O632 1.261 . S
C639 O634 1.259 . S
C639 O636 1.235 . S
O640 Co630 2.021 . S
O640 C637 1.238 . S
O641 Co635 2.052 . S
O641 C637 1.241 . S
O642 Co630 2.137 . S
O642 C633 1.247 . S
O643 Co630 2.244 . S
O643 C633 1.272 . S
O643 Co635 2.135 . S
Co644 O645 2.216 . S
Co644 O646 2.091 . S
Co644 O648 2.004 . S
Co644 O654 2.021 . S
Co644 O656 2.137 . S
Co644 O657 2.244 . S
O645 Co644 2.216 . S
O645 C652 1.247 . S
O646 Co644 2.091 . S
O646 C652 1.261 . S
C647 O656 1.247 . S
C647 O657 1.272 . S
O648 Co644 2.004 . S
O648 C653 1.259 . S
Co649 O650 2.061 . S
Co649 O655 2.052 . S
Co649 O657 2.135 . S
O650 Co649 2.061 . S
O650 C653 1.235 . S
C651 O654 1.238 . S
C651 O655 1.241 . S
C652 O645 1.247 . S
C652 O646 1.261 . S
C653 O648 1.259 . S
C653 O650 1.235 . S
O654 Co644 2.021 . S
O654 C651 1.238 . S
O655 Co649 2.052 . S
O655 C651 1.241 . S
O656 Co644 2.137 . S
O656 C647 1.247 . S
O657 Co644 2.244 . S
O657 C647 1.272 . S
O657 Co649 2.135 . S
Co658 O659 2.216 . S
Co658 O660 2.091 . S
Co658 O662 2.004 . S
Co658 O668 2.021 . S
Co658 O670 2.137 . S
Co658 O671 2.244 . S
O659 Co658 2.216 . S
O659 C666 1.247 . S
O660 Co658 2.091 . S
O660 C666 1.261 . S
C661 O670 1.247 . S
C661 O671 1.272 . S
O662 Co658 2.004 . S
O662 C667 1.259 . S
Co663 O664 2.061 . S
Co663 O669 2.052 . S
Co663 O671 2.135 . S
O664 Co663 2.061 . S
O664 C667 1.235 . S
C665 O668 1.238 . S
C665 O669 1.241 . S
C666 O659 1.247 . S
C666 O660 1.261 . S
C667 O662 1.259 . S
C667 O664 1.235 . S
O668 Co658 2.021 . S
O668 C665 1.238 . S
O669 Co663 2.052 . S
O669 C665 1.241 . S
O670 Co658 2.137 . S
O670 C661 1.247 . S
O671 Co658 2.244 . S
O671 C661 1.272 . S
O671 Co663 2.135 . S
H672 C680 0.929 . S
H673 C682 0.930 . S
H674 C684 0.930 . S
H675 C687 0.929 . S
H676 C690 0.930 . S
H677 C692 0.995 . S
H678 C692 0.930 1_655 S
H679 C692 0.959 . S
C680 H672 0.929 . S
C680 C681 1.377 . S
C680 C682 1.384 . S
C681 C680 1.377 . S
C681 C687 1.390 . S
C682 H673 0.930 . S
C682 C680 1.384 . S
C682 C683 1.372 . S
C683 C682 1.372 . S
C683 C684 1.400 . S
C683 C688 1.490 . S
C684 H674 0.930 . S
C684 C683 1.400 . S
C684 C687 1.386 . S
H685 C701 0.930 . S
H686 C702 0.931 . S
C687 H675 0.929 . S
C687 C681 1.390 . S
C687 C684 1.386 . S
C688 C683 1.490 . S
C688 C690 1.395 . S
C688 C691 1.429 . S
H689 C695 0.930 . S
C690 H676 0.930 . S
C690 C688 1.395 . S
C690 C693 1.403 . S
C691 C688 1.429 . S
C691 C692 1.521 1_655 S
C691 C695 1.376 1_655 S
C692 H677 0.995 . S
C692 H678 0.930 1_455 S
C692 H679 0.959 . S
C692 C691 1.521 1_455 S
C693 C690 1.403 . S
C693 C694 1.392 1_655 S
C693 C697 1.495 . S
C694 C693 1.392 1_455 S
C694 C695 1.385 . S
C694 C696 1.478 . S
C695 H689 0.930 . S
C695 C691 1.376 1_455 S
C695 C694 1.385 . S
C696 C694 1.478 . S
C696 C698 1.381 . S
C696 C702 1.383 . S
C697 C693 1.495 . S
C697 H703 0.959 . S
C697 H704 0.961 1_655 S
C697 H705 0.960 . S
C698 C696 1.381 . S
C698 C699 1.394 . S
C698 H706 0.930 . S
C699 C698 1.394 . S
C699 C700 1.383 . S
C699 H707 0.929 . S
C700 C699 1.383 . S
C700 C701 1.377 . S
C701 H685 0.930 . S
C701 C700 1.377 . S
C701 C702 1.379 . S
C702 H686 0.931 . S
C702 C696 1.383 . S
C702 C701 1.379 . S
H703 C697 0.959 . S
H704 C697 0.961 1_455 S
H705 C697 0.960 . S
H706 C698 0.930 . S
H707 C699 0.929 . S
H708 C716 0.929 . S
H709 C718 0.930 . S
H710 C720 0.930 . S
H711 C723 0.929 . S
H712 C726 0.930 . S
H713 C728 0.960 . S
H714 C728 0.960 1_565 S
H715 C728 0.960 . S
C716 H708 0.929 . S
C716 C717 1.377 . S
C716 C718 1.384 . S
C717 C716 1.377 . S
C717 C723 1.390 . S
C718 H709 0.930 . S
C718 C716 1.384 . S
C718 C719 1.372 . S
C719 C718 1.372 . S
C719 C720 1.400 . S
C719 C724 1.490 . S
C720 H710 0.930 . S
C720 C719 1.400 . S
C720 C723 1.386 . S
H721 C737 0.930 . S
H722 C738 0.931 . S
C723 H711 0.929 . S
C723 C717 1.390 . S
C723 C720 1.386 . S
C724 C719 1.490 . S
C724 C726 1.395 . S
C724 C727 1.403 1_565 S
H725 C731 0.930 . S
C726 H712 0.930 . S
C726 C724 1.395 . S
C726 C729 1.403 . S
C727 C724 1.403 1_545 S
C727 C728 1.524 . S
C727 C731 1.400 . S
C728 H713 0.960 . S
C728 H714 0.960 1_545 S
C728 H715 0.960 . S
C728 C727 1.524 . S
C729 C726 1.403 . S
C729 C730 1.392 1_565 S
C729 C733 1.495 . S
C730 C729 1.392 1_545 S
C730 C731 1.385 . S
C730 C732 1.478 . S
C731 H725 0.930 . S
C731 C727 1.400 . S
C731 C730 1.385 . S
C732 C730 1.478 . S
C732 C734 1.381 . S
C732 C738 1.383 . S
C733 C729 1.495 . S
C733 H739 0.959 . S
C733 H740 0.948 1_565 S
C733 H741 0.960 . S
C734 C732 1.381 . S
C734 C735 1.394 . S
C734 H742 0.930 . S
C735 C734 1.394 . S
C735 C736 1.383 . S
C735 H743 0.929 . S
C736 C735 1.383 . S
C736 C737 1.377 . S
C737 H721 0.930 . S
C737 C736 1.377 . S
C737 C738 1.379 . S
C738 H722 0.931 . S
C738 C732 1.383 . S
C738 C737 1.379 . S
H739 C733 0.959 . S
H740 C733 0.948 1_545 S
H741 C733 0.960 . S
H742 C734 0.930 . S
H743 C735 0.929 . S
H744 C752 0.929 . S
H745 C754 0.930 . S
H746 C756 0.930 . S
H747 C759 0.929 . S
H748 C762 0.930 . S
H749 C764 0.960 . S
H750 C764 0.960 1_455 S
H751 C764 0.964 . S
C752 H744 0.929 . S
C752 C753 1.377 . S
C752 C754 1.384 . S
C753 C752 1.377 . S
C753 C759 1.390 . S
C754 H745 0.930 . S
C754 C752 1.384 . S
C754 C755 1.372 . S
C755 C754 1.372 . S
C755 C756 1.400 . S
C755 C760 1.490 . S
C756 H746 0.930 . S
C756 C755 1.400 . S
C756 C759 1.386 . S
H757 C773 0.930 . S
H758 C774 0.931 . S
C759 H747 0.929 . S
C759 C753 1.390 . S
C759 C756 1.386 . S
C760 C755 1.490 . S
C760 C762 1.395 . S
C760 C763 1.405 . S
H761 C767 0.930 . S
C762 H748 0.930 . S
C762 C760 1.395 . S
C762 C765 1.403 . S
C763 C760 1.405 . S
C763 C764 1.523 1_455 S
C763 C767 1.398 1_455 S
C764 H749 0.960 . S
C764 H750 0.960 1_655 S
C764 H751 0.964 . S
C764 C763 1.523 1_655 S
C765 C762 1.403 . S
C765 C766 1.392 1_455 S
C765 C769 1.495 . S
C766 C765 1.392 1_655 S
C766 C767 1.385 . S
C766 C768 1.478 . S
C767 H761 0.930 . S
C767 C763 1.398 1_655 S
C767 C766 1.385 . S
C768 C766 1.478 . S
C768 C770 1.381 . S
C768 C774 1.383 . S
C769 C765 1.495 . S
C769 H775 0.959 . S
C769 H776 0.961 1_455 S
C769 H777 0.960 . S
C770 C768 1.381 . S
C770 C771 1.394 . S
C770 H778 0.930 . S
C771 C770 1.394 . S
C771 C772 1.383 . S
C771 H779 0.929 . S
C772 C771 1.383 . S
C772 C773 1.377 . S
C773 H757 0.930 . S
C773 C772 1.377 . S
C773 C774 1.379 . S
C774 H758 0.931 . S
C774 C768 1.383 . S
C774 C773 1.379 . S
H775 C769 0.959 . S
H776 C769 0.961 1_655 S
H777 C769 0.960 . S
H778 C770 0.930 . S
H779 C771 0.929 . S
H780 C788 0.929 . S
H781 C790 0.930 . S
H782 C792 0.930 . S
H783 C795 0.929 . S
H784 C798 0.930 . S
H785 C800 0.960 . S
H786 C800 0.960 . S
H787 C800 0.960 . S
C788 H780 0.929 . S
C788 C789 1.377 . S
C788 C790 1.384 . S
C789 C788 1.377 . S
C789 C795 1.390 . S
C790 H781 0.930 . S
C790 C788 1.384 . S
C790 C791 1.372 . S
C791 C790 1.372 . S
C791 C792 1.400 . S
C791 C796 1.490 . S
C792 H782 0.930 . S
C792 C791 1.400 . S
C792 C795 1.386 . S
H793 C809 0.930 . S
H794 C810 0.931 . S
C795 H783 0.929 . S
C795 C789 1.390 . S
C795 C792 1.386 . S
C796 C791 1.490 . S
C796 C798 1.395 . S
C796 C799 1.403 . S
H797 C803 0.930 . S
C798 H784 0.930 . S
C798 C796 1.395 . S
C798 C801 1.403 1_565 S
C799 C796 1.403 . S
C799 C800 1.524 . S
C799 C803 1.400 1_565 S
C800 H785 0.960 . S
C800 H786 0.960 . S
C800 H787 0.960 . S
C800 C799 1.524 . S
C801 C798 1.403 1_545 S
C801 C802 1.392 . S
C801 C805 1.495 . S
C802 C801 1.392 . S
C802 C803 1.385 . S
C802 C804 1.478 . S
C803 H797 0.930 . S
C803 C799 1.400 1_545 S
C803 C802 1.385 . S
C804 C802 1.478 . S
C804 C806 1.381 . S
C804 C810 1.383 . S
C805 C801 1.495 . S
C805 H811 0.959 . S
C805 H812 0.961 . S
C805 H813 0.960 . S
C806 C804 1.381 . S
C806 C807 1.394 . S
C806 H814 0.930 . S
C807 C806 1.394 . S
C807 C808 1.383 . S
C807 H815 0.929 . S
C808 C807 1.383 . S
C808 C809 1.377 . S
C809 H793 0.930 . S
C809 C808 1.377 . S
C809 C810 1.379 . S
C810 H794 0.931 . S
C810 C804 1.383 . S
C810 C809 1.379 . S
H811 C805 0.959 . S
H812 C805 0.961 . S
H813 C805 0.960 . S
H814 C806 0.930 . S
H815 C807 0.929 . S
H816 C824 0.929 . S
H817 C826 0.930 . S
H818 C828 0.930 . S
H819 C831 0.929 . S
H820 C834 0.930 . S
H821 C836 0.960 1_455 S
H822 C836 0.960 . S
H823 C836 0.960 . S
C824 H816 0.929 . S
C824 C825 1.377 . S
C824 C826 1.384 . S
C825 C824 1.377 . S
C825 C831 1.390 . S
C826 H817 0.930 . S
C826 C824 1.384 . S
C826 C827 1.372 . S
C827 C826 1.372 . S
C827 C828 1.400 . S
C827 C832 1.490 . S
C828 H818 0.930 . S
C828 C827 1.400 . S
C828 C831 1.386 . S
H829 C845 0.930 . S
H830 C846 0.931 . S
C831 H819 0.929 . S
C831 C825 1.390 . S
C831 C828 1.386 . S
C832 C827 1.490 . S
C832 C834 1.395 . S
C832 C835 1.403 . S
H833 C839 0.930 . S
C834 H820 0.930 . S
C834 C832 1.395 . S
C834 C837 1.403 1_655 S
C835 C832 1.403 . S
C835 C836 1.524 . S
C835 C839 1.400 1_655 S
C836 H821 0.960 1_655 S
C836 H822 0.960 . S
C836 H823 0.960 . S
C836 C835 1.524 . S
C837 C834 1.403 1_455 S
C837 C838 1.392 . S
C837 C841 1.495 . S
C838 C837 1.392 . S
C838 C839 1.385 . S
C838 C840 1.478 . S
C839 H833 0.930 . S
C839 C835 1.400 1_455 S
C839 C838 1.385 . S
C840 C838 1.478 . S
C840 C842 1.381 . S
C840 C846 1.383 . S
C841 C837 1.495 . S
C841 H847 0.924 1_455 S
C841 H848 0.961 . S
C841 H849 0.960 . S
C842 C840 1.381 . S
C842 C843 1.394 . S
C842 H850 0.930 . S
C843 C842 1.394 . S
C843 C844 1.383 . S
C843 H851 0.929 . S
C844 C843 1.383 . S
C844 C845 1.377 . S
C845 H829 0.930 . S
C845 C844 1.377 . S
C845 C846 1.379 . S
C846 H830 0.931 . S
C846 C840 1.383 . S
C846 C845 1.379 . S
H847 C841 0.924 1_655 S
H848 C841 0.961 . S
H849 C841 0.960 . S
H850 C842 0.930 . S
H851 C843 0.929 . S
H852 C860 0.929 . S
H853 C862 0.930 . S
H854 C864 0.930 . S
H855 C867 0.929 . S
H856 C870 0.930 . S
H857 C872 0.960 . S
H858 C872 0.960 . S
H859 C872 0.960 1_545 S
C860 H852 0.929 . S
C860 C861 1.377 . S
C860 C862 1.384 . S
C861 C860 1.377 . S
C861 C867 1.390 . S
C862 H853 0.930 . S
C862 C860 1.384 . S
C862 C863 1.372 . S
C863 C862 1.372 . S
C863 C864 1.400 . S
C863 C868 1.490 . S
C864 H854 0.930 . S
C864 C863 1.400 . S
C864 C867 1.386 . S
H865 C881 0.930 . S
H866 C882 0.931 . S
C867 H855 0.929 . S
C867 C861 1.390 . S
C867 C864 1.386 . S
C868 C863 1.490 . S
C868 C870 1.395 . S
C868 C871 1.403 1_545 S
H869 C875 0.930 . S
C870 H856 0.930 . S
C870 C868 1.395 . S
C870 C873 1.403 . S
C871 C868 1.403 1_565 S
C871 C872 1.524 . S
C871 C875 1.400 . S
C872 H857 0.960 . S
C872 H858 0.960 . S
C872 H859 0.960 1_565 S
C872 C871 1.524 . S
C873 C870 1.403 . S
C873 C874 1.392 1_545 S
C873 C877 1.495 . S
C874 C873 1.392 1_565 S
C874 C875 1.385 . S
C874 C876 1.478 . S
C875 H869 0.930 . S
C875 C871 1.400 . S
C875 C874 1.385 . S
C876 C874 1.478 . S
C876 C878 1.381 . S
C876 C882 1.383 . S
C877 C873 1.495 . S
C877 H883 0.959 . S
C877 H884 0.961 . S
C877 H885 0.912 1_545 S
C878 C876 1.381 . S
C878 C879 1.394 . S
C878 H886 0.930 . S
C879 C878 1.394 . S
C879 C880 1.383 . S
C879 H887 0.929 . S
C880 C879 1.383 . S
C880 C881 1.377 . S
C881 H865 0.930 . S
C881 C880 1.377 . S
C881 C882 1.379 . S
C882 H866 0.931 . S
C882 C876 1.383 . S
C882 C881 1.379 . S
H883 C877 0.959 . S
H884 C877 0.961 . S
H885 C877 0.912 1_565 S
H886 C878 0.930 . S
H887 C879 0.929 . S
H888 C896 0.929 . S
H889 C898 0.930 . S
H890 C900 0.930 . S
H891 C903 0.929 . S
H892 C906 0.930 . S
H893 C908 0.960 1_655 S
H894 C908 0.960 . S
H895 C908 0.960 . S
C896 H888 0.929 . S
C896 C897 1.377 . S
C896 C898 1.384 . S
C897 C896 1.377 . S
C897 C903 1.390 . S
C898 H889 0.930 . S
C898 C896 1.384 . S
C898 C899 1.372 . S
C899 C898 1.372 . S
C899 C900 1.400 . S
C899 C904 1.490 . S
C900 H890 0.930 . S
C900 C899 1.400 . S
C900 C903 1.386 . S
H901 C917 0.930 . S
H902 C918 0.931 . S
C903 H891 0.929 . S
C903 C897 1.390 . S
C903 C900 1.386 . S
C904 C899 1.490 . S
C904 C906 1.395 . S
C904 C907 1.403 . S
H905 C911 0.930 . S
C906 H892 0.930 . S
C906 C904 1.395 . S
C906 C909 1.370 1_455 S
C907 C904 1.403 . S
C907 C908 1.524 . S
C907 C911 1.400 1_455 S
C908 H893 0.960 1_455 S
C908 H894 0.960 . S
C908 H895 0.960 . S
C908 C907 1.524 . S
C909 C906 1.370 1_655 S
C909 C910 1.423 . S
C909 C913 1.499 . S
C910 C909 1.423 . S
C910 C911 1.385 . S
C910 C912 1.478 . S
C911 H905 0.930 . S
C911 C907 1.400 1_655 S
C911 C910 1.385 . S
C912 C910 1.478 . S
C912 C914 1.381 . S
C912 C918 1.383 . S
C913 C909 1.499 . S
C913 H919 0.959 1_655 S
C913 H920 0.961 . S
C913 H921 0.960 . S
C914 C912 1.381 . S
C914 C915 1.394 . S
C914 H922 0.930 . S
C915 C914 1.394 . S
C915 C916 1.383 . S
C915 H923 0.929 . S
C916 C915 1.383 . S
C916 C917 1.377 . S
C917 H901 0.930 . S
C917 C916 1.377 . S
C917 C918 1.379 . S
C918 H902 0.931 . S
C918 C912 1.383 . S
C918 C917 1.379 . S
H919 C913 0.959 1_455 S
H920 C913 0.961 . S
H921 C913 0.960 . S
H922 C914 0.930 . S
H923 C915 0.929 . S
H924 C932 0.929 . S
H925 C934 0.930 . S
H926 C936 0.930 . S
H927 C939 0.929 . S
H928 C942 0.930 . S
H929 C944 0.960 . S
H930 C944 0.960 . S
H931 C944 0.960 . S
C932 H924 0.929 . S
C932 C933 1.377 . S
C932 C934 1.384 . S
C933 C932 1.377 . S
C933 C939 1.390 . S
C934 H925 0.930 . S
C934 C932 1.384 . S
C934 C935 1.372 . S
C935 C934 1.372 . S
C935 C936 1.400 . S
C935 C940 1.490 . S
C936 H926 0.930 . S
C936 C935 1.400 . S
C936 C939 1.386 . S
H937 C953 0.930 . S
H938 C954 0.931 . S
C939 H927 0.929 . S
C939 C933 1.390 . S
C939 C936 1.386 . S
C940 C935 1.490 . S
C940 C942 1.395 . S
C940 C943 1.403 . S
H941 C947 0.930 . S
C942 H928 0.930 . S
C942 C940 1.395 . S
C942 C945 1.403 1_545 S
C943 C940 1.403 . S
C943 C944 1.524 . S
C943 C947 1.400 1_545 S
C944 H929 0.960 . S
C944 H930 0.960 . S
C944 H931 0.960 . S
C944 C943 1.524 . S
C945 C942 1.403 1_565 S
C945 C946 1.392 . S
C945 C949 1.495 . S
C946 C945 1.392 . S
C946 C947 1.385 . S
C946 C948 1.478 . S
C947 H941 0.930 . S
C947 C943 1.400 1_565 S
C947 C946 1.385 . S
C948 C946 1.478 . S
C948 C950 1.381 . S
C948 C954 1.383 . S
C949 C945 1.495 . S
C949 H955 0.959 . S
C949 H956 0.961 . S
C949 H957 0.960 . S
C950 C948 1.381 . S
C950 C951 1.394 . S
C950 H958 0.930 . S
C951 C950 1.394 . S
C951 C952 1.383 . S
C951 H959 0.929 . S
C952 C951 1.383 . S
C952 C953 1.377 . S
C953 H937 0.930 . S
C953 C952 1.377 . S
C953 C954 1.379 . S
C954 H938 0.931 . S
C954 C948 1.383 . S
C954 C953 1.379 . S
H955 C949 0.959 . S
H956 C949 0.961 . S
H957 C949 0.960 . S
H958 C950 0.930 . S
H959 C951 0.929 . S
H960 C968 0.929 . S
H961 C970 0.930 . S
H962 C972 0.930 . S
H963 C975 0.929 . S
H964 C978 0.930 . S
H965 C980 0.960 . S
H966 C980 0.960 . S
H967 C980 0.960 . S
C968 H960 0.929 . S
C968 C969 1.377 . S
C968 C970 1.384 . S
C969 C968 1.377 . S
C969 C975 1.390 . S
C970 H961 0.930 . S
C970 C968 1.384 . S
C970 C971 1.372 . S
C971 C970 1.372 . S
C971 C972 1.400 . S
C971 C976 1.490 . S
C972 H962 0.930 . S
C972 C971 1.400 . S
C972 C975 1.386 . S
H973 C989 0.930 . S
H974 C990 0.931 . S
C975 H963 0.929 . S
C975 C969 1.390 . S
C975 C972 1.386 . S
C976 C971 1.490 . S
C976 C978 1.395 . S
C976 C979 1.403 . S
H977 C983 0.930 . S
C978 H964 0.930 . S
C978 C976 1.395 . S
C978 C981 1.403 1_554 S
C979 C976 1.403 . S
C979 C980 1.524 . S
C979 C983 1.400 1_554 S
C980 H965 0.960 . S
C980 H966 0.960 . S
C980 H967 0.960 . S
C980 C979 1.524 . S
C981 C978 1.403 1_556 S
C981 C982 1.392 . S
C981 C985 1.495 . S
C982 C981 1.392 . S
C982 C983 1.385 . S
C982 C984 1.478 . S
C983 H977 0.930 . S
C983 C979 1.400 1_556 S
C983 C982 1.385 . S
C984 C982 1.478 . S
C984 C986 1.381 . S
C984 C990 1.383 . S
C985 C981 1.495 . S
C985 H991 0.959 . S
C985 H992 0.961 . S
C985 H993 0.960 . S
C986 C984 1.381 . S
C986 C987 1.394 . S
C986 H994 0.930 . S
C987 C986 1.394 . S
C987 C988 1.383 . S
C987 H995 0.929 . S
C988 C987 1.383 . S
C988 C989 1.377 . S
C989 H973 0.930 . S
C989 C988 1.377 . S
C989 C990 1.379 . S
C990 H974 0.931 . S
C990 C984 1.383 . S
C990 C989 1.379 . S
H991 C985 0.959 . S
H992 C985 0.961 . S
H993 C985 0.960 . S
H994 C986 0.930 . S
H995 C987 0.929 . S
H996 C1004 0.929 . S
H997 C1006 0.930 . S
H998 C1008 0.930 . S
H999 C1011 0.929 . S
H1000 C1014 0.930 . S
H1001 C1016 0.960 . S
H1002 C1016 0.960 . S
H1003 C1016 0.960 . S
C1004 H996 0.929 . S
C1004 C1005 1.377 . S
C1004 C1006 1.384 . S
C1005 C1004 1.377 . S
C1005 C1011 1.390 . S
C1006 H997 0.930 . S
C1006 C1004 1.384 . S
C1006 C1007 1.372 . S
C1007 C1006 1.372 . S
C1007 C1008 1.400 . S
C1007 C1012 1.490 . S
C1008 H998 0.930 . S
C1008 C1007 1.400 . S
C1008 C1011 1.386 . S
H1009 C1025 0.930 . S
H1010 C1026 0.931 . S
C1011 H999 0.929 . S
C1011 C1005 1.390 . S
C1011 C1008 1.386 . S
C1012 C1007 1.490 . S
C1012 C1014 1.395 . S
C1012 C1015 1.403 1_556 S
H1013 C1019 0.930 . S
C1014 H1000 0.930 . S
C1014 C1012 1.395 . S
C1014 C1017 1.403 . S
C1015 C1012 1.403 1_554 S
C1015 C1016 1.524 . S
C1015 C1019 1.400 . S
C1016 H1001 0.960 . S
C1016 H1002 0.960 . S
C1016 H1003 0.960 . S
C1016 C1015 1.524 . S
C1017 C1014 1.403 . S
C1017 C1018 1.392 1_556 S
C1017 C1021 1.495 . S
C1018 C1017 1.392 1_554 S
C1018 C1019 1.385 . S
C1018 C1020 1.478 . S
C1019 H1013 0.930 . S
C1019 C1015 1.400 . S
C1019 C1018 1.385 . S
C1020 C1018 1.478 . S
C1020 C1022 1.381 . S
C1020 C1026 1.383 . S
C1021 C1017 1.495 . S
C1021 H1027 0.959 . S
C1021 H1028 0.961 . S
C1021 H1029 0.960 . S
C1022 C1020 1.381 . S
C1022 C1023 1.394 . S
C1022 H1030 0.930 . S
C1023 C1022 1.394 . S
C1023 C1024 1.383 . S
C1023 H1031 0.929 . S
C1024 C1023 1.383 . S
C1024 C1025 1.377 . S
C1025 H1009 0.930 . S
C1025 C1024 1.377 . S
C1025 C1026 1.379 . S
C1026 H1010 0.931 . S
C1026 C1020 1.383 . S
C1026 C1025 1.379 . S
H1027 C1021 0.959 . S
H1028 C1021 0.961 . S
H1029 C1021 0.960 . S
H1030 C1022 0.930 . S
H1031 C1023 0.929 . S
H1032 C1040 0.929 . S
H1033 C1042 0.930 . S
H1034 C1044 0.930 . S
H1035 C1047 0.929 . S
H1036 C1050 0.930 . S
H1037 C1052 0.960 . S
H1038 C1052 0.960 . S
H1039 C1052 0.960 . S
C1040 H1032 0.929 . S
C1040 C1041 1.377 . S
C1040 C1042 1.384 . S
C1041 C1040 1.377 . S
C1041 C1047 1.390 . S
C1042 H1033 0.930 . S
C1042 C1040 1.384 . S
C1042 C1043 1.372 . S
C1043 C1042 1.372 . S
C1043 C1044 1.400 . S
C1043 C1048 1.490 . S
C1044 H1034 0.930 . S
C1044 C1043 1.400 . S
C1044 C1047 1.386 . S
H1045 C1061 0.930 . S
H1046 C1062 0.931 . S
C1047 H1035 0.929 . S
C1047 C1041 1.390 . S
C1047 C1044 1.386 . S
C1048 C1043 1.490 . S
C1048 C1050 1.338 1_556 S
C1048 C1051 1.403 . S
H1049 C1055 0.930 . S
C1050 H1036 0.930 . S
C1050 C1048 1.338 1_554 S
C1050 C1053 1.462 . S
C1051 C1048 1.403 . S
C1051 C1052 1.524 . S
C1051 C1055 1.400 1_556 S
C1052 H1037 0.960 . S
C1052 H1038 0.960 . S
C1052 H1039 0.960 . S
C1052 C1051 1.524 . S
C1053 C1050 1.462 . S
C1053 C1054 1.392 . S
C1053 C1057 1.495 . S
C1054 C1053 1.392 . S
C1054 C1055 1.385 . S
C1054 C1056 1.478 . S
C1055 H1049 0.930 . S
C1055 C1051 1.400 1_554 S
C1055 C1054 1.385 . S
C1056 C1054 1.478 . S
C1056 C1058 1.381 . S
C1056 C1062 1.383 . S
C1057 C1053 1.495 . S
C1057 H1063 0.959 . S
C1057 H1064 0.961 . S
C1057 H1065 0.960 . S
C1058 C1056 1.381 . S
C1058 C1059 1.394 . S
C1058 H1066 0.930 . S
C1059 C1058 1.394 . S
C1059 C1060 1.383 . S
C1059 H1067 0.929 . S
C1060 C1059 1.383 . S
C1060 C1061 1.377 . S
C1061 H1045 0.930 . S
C1061 C1060 1.377 . S
C1061 C1062 1.379 . S
C1062 H1046 0.931 . S
C1062 C1056 1.383 . S
C1062 C1061 1.379 . S
H1063 C1057 0.959 . S
H1064 C1057 0.961 . S
H1065 C1057 0.960 . S
H1066 C1058 0.930 . S
H1067 C1059 0.929 . S
H1068 C1076 0.929 . S
H1069 C1078 0.930 . S
H1070 C1080 0.930 . S
H1071 C1083 0.929 . S
H1072 C1086 0.929 1_556 S
H1073 C1088 0.960 . S
H1074 C1088 0.960 . S
H1075 C1088 0.960 . S
C1076 H1068 0.929 . S
C1076 C1077 1.377 . S
C1076 C1078 1.384 . S
C1077 C1076 1.377 . S
C1077 C1083 1.390 . S
C1078 H1069 0.930 . S
C1078 C1076 1.384 . S
C1078 C1079 1.372 . S
C1079 C1078 1.372 . S
C1079 C1080 1.400 . S
C1079 C1084 1.490 . S
C1080 H1070 0.930 . S
C1080 C1079 1.400 . S
C1080 C1083 1.386 . S
H1081 C1097 0.930 . S
H1082 C1098 0.931 . S
C1083 H1071 0.929 . S
C1083 C1077 1.390 . S
C1083 C1080 1.386 . S
C1084 C1079 1.490 . S
C1084 C1086 1.388 1_556 S
C1084 C1087 1.403 . S
H1085 C1091 0.930 . S
C1086 H1072 0.929 1_554 S
C1086 C1084 1.388 1_554 S
C1086 C1089 1.410 . S
C1087 C1084 1.403 . S
C1087 C1088 1.524 . S
C1087 C1091 1.400 1_556 S
C1088 H1073 0.960 . S
C1088 H1074 0.960 . S
C1088 H1075 0.960 . S
C1088 C1087 1.524 . S
C1089 C1086 1.410 . S
C1089 C1090 1.392 . S
C1089 C1093 1.495 . S
C1090 C1089 1.392 . S
C1090 C1091 1.385 . S
C1090 C1092 1.478 . S
C1091 H1085 0.930 . S
C1091 C1087 1.400 1_554 S
C1091 C1090 1.385 . S
C1092 C1090 1.478 . S
C1092 C1094 1.381 . S
C1092 C1098 1.383 . S
C1093 C1089 1.495 . S
C1093 H1099 0.959 . S
C1093 H1100 0.961 . S
C1093 H1101 0.960 . S
C1094 C1092 1.381 . S
C1094 C1095 1.394 . S
C1094 H1102 0.930 . S
C1095 C1094 1.394 . S
C1095 C1096 1.383 . S
C1095 H1103 0.929 . S
C1096 C1095 1.383 . S
C1096 C1097 1.377 . S
C1097 H1081 0.930 . S
C1097 C1096 1.377 . S
C1097 C1098 1.379 . S
C1098 H1082 0.931 . S
C1098 C1092 1.383 . S
C1098 C1097 1.379 . S
H1099 C1093 0.959 . S
H1100 C1093 0.961 . S
H1101 C1093 0.960 . S
H1102 C1094 0.930 . S
H1103 C1095 0.929 . S
H1104 C1112 0.929 . S
H1105 C1114 0.930 . S
H1106 C1116 0.930 . S
H1107 C1119 0.929 . S
H1108 C1122 0.930 . S
H1109 C1124 0.960 . S
H1110 C1124 0.960 . S
H1111 C1124 0.960 . S
C1112 H1104 0.929 . S
C1112 C1113 1.377 . S
C1112 C1114 1.384 . S
C1113 C1112 1.377 . S
C1113 C1119 1.390 . S
C1114 H1105 0.930 . S
C1114 C1112 1.384 . S
C1114 C1115 1.372 . S
C1115 C1114 1.372 . S
C1115 C1116 1.400 . S
C1115 C1120 1.490 . S
C1116 H1106 0.930 . S
C1116 C1115 1.400 . S
C1116 C1119 1.386 . S
H1117 C1133 0.930 . S
H1118 C1134 0.931 . S
C1119 H1107 0.929 . S
C1119 C1113 1.390 . S
C1119 C1116 1.386 . S
C1120 C1115 1.490 . S
C1120 C1122 1.395 . S
C1120 C1123 1.403 . S
H1121 C1127 0.930 . S
C1122 H1108 0.930 . S
C1122 C1120 1.395 . S
C1122 C1125 1.403 . S
C1123 C1120 1.403 . S
C1123 C1124 1.524 . S
C1123 C1127 1.400 . S
C1124 H1109 0.960 . S
C1124 H1110 0.960 . S
C1124 H1111 0.960 . S
C1124 C1123 1.524 . S
C1125 C1122 1.403 . S
C1125 C1126 1.392 . S
C1125 C1129 1.495 . S
C1126 C1125 1.392 . S
C1126 C1127 1.385 . S
C1126 C1128 1.478 . S
C1127 H1121 0.930 . S
C1127 C1123 1.400 . S
C1127 C1126 1.385 . S
C1128 C1126 1.478 . S
C1128 C1130 1.381 . S
C1128 C1134 1.383 . S
C1129 C1125 1.495 . S
C1129 H1135 0.959 . S
C1129 H1136 0.961 . S
C1129 H1137 0.960 . S
C1130 C1128 1.381 . S
C1130 C1131 1.394 . S
C1130 H1138 0.930 . S
C1131 C1130 1.394 . S
C1131 C1132 1.383 . S
C1131 H1139 0.929 . S
C1132 C1131 1.383 . S
C1132 C1133 1.377 . S
C1133 H1117 0.930 . S
C1133 C1132 1.377 . S
C1133 C1134 1.379 . S
C1134 H1118 0.931 . S
C1134 C1128 1.383 . S
C1134 C1133 1.379 . S
H1135 C1129 0.959 . S
H1136 C1129 0.961 . S
H1137 C1129 0.960 . S
H1138 C1130 0.930 . S
H1139 C1131 0.929 . S
H1140 C1148 0.929 . S
H1141 C1150 0.930 . S
H1142 C1152 0.930 . S
H1143 C1155 0.929 . S
H1144 C1158 0.930 . S
H1145 C1160 0.960 . S
H1146 C1160 0.960 . S
H1147 C1160 0.960 . S
C1148 H1140 0.929 . S
C1148 C1149 1.377 . S
C1148 C1150 1.384 . S
C1149 C1148 1.377 . S
C1149 C1155 1.390 . S
C1150 H1141 0.930 . S
C1150 C1148 1.384 . S
C1150 C1151 1.372 . S
C1151 C1150 1.372 . S
C1151 C1152 1.400 . S
C1151 C1156 1.490 . S
C1152 H1142 0.930 . S
C1152 C1151 1.400 . S
C1152 C1155 1.386 . S
H1153 C1169 0.930 . S
H1154 C1170 0.931 . S
C1155 H1143 0.929 . S
C1155 C1149 1.390 . S
C1155 C1152 1.386 . S
C1156 C1151 1.490 . S
C1156 C1158 1.395 . S
C1156 C1159 1.403 . S
H1157 C1163 0.930 . S
C1158 H1144 0.930 . S
C1158 C1156 1.395 . S
C1158 C1161 1.403 . S
C1159 C1156 1.403 . S
C1159 C1160 1.524 . S
C1159 C1163 1.400 . S
C1160 H1145 0.960 . S
C1160 H1146 0.960 . S
C1160 H1147 0.960 . S
C1160 C1159 1.524 . S
C1161 C1158 1.403 . S
C1161 C1162 1.392 . S
C1161 C1165 1.495 . S
C1162 C1161 1.392 . S
C1162 C1163 1.385 . S
C1162 C1164 1.478 . S
C1163 H1157 0.930 . S
C1163 C1159 1.400 . S
C1163 C1162 1.385 . S
C1164 C1162 1.478 . S
C1164 C1166 1.381 . S
C1164 C1170 1.383 . S
C1165 C1161 1.495 . S
C1165 H1171 0.959 . S
C1165 H1172 0.961 . S
C1165 H1173 0.960 . S
C1166 C1164 1.381 . S
C1166 C1167 1.394 . S
C1166 H1174 0.930 . S
C1167 C1166 1.394 . S
C1167 C1168 1.383 . S
C1167 H1175 0.929 . S
C1168 C1167 1.383 . S
C1168 C1169 1.377 . S
C1169 H1153 0.930 . S
C1169 C1168 1.377 . S
C1169 C1170 1.379 . S
C1170 H1154 0.931 . S
C1170 C1164 1.383 . S
C1170 C1169 1.379 . S
H1171 C1165 0.959 . S
H1172 C1165 0.961 . S
H1173 C1165 0.960 . S
H1174 C1166 0.930 . S
H1175 C1167 0.929 . S
H1176 C1184 0.929 . S
H1177 C1186 0.930 . S
H1178 C1188 0.930 . S
H1179 C1191 0.929 . S
H1180 C1194 0.930 . S
H1181 C1196 0.960 . S
H1182 C1196 0.960 . S
H1183 C1196 0.960 . S
C1184 H1176 0.929 . S
C1184 C1185 1.377 . S
C1184 C1186 1.384 . S
C1185 C1184 1.377 . S
C1185 C1191 1.390 . S
C1186 H1177 0.930 . S
C1186 C1184 1.384 . S
C1186 C1187 1.372 . S
C1187 C1186 1.372 . S
C1187 C1188 1.400 . S
C1187 C1192 1.490 . S
C1188 H1178 0.930 . S
C1188 C1187 1.400 . S
C1188 C1191 1.386 . S
H1189 C1205 0.930 . S
H1190 C1206 0.931 . S
C1191 H1179 0.929 . S
C1191 C1185 1.390 . S
C1191 C1188 1.386 . S
C1192 C1187 1.490 . S
C1192 C1194 1.395 . S
C1192 C1195 1.403 . S
H1193 C1199 0.930 . S
C1194 H1180 0.930 . S
C1194 C1192 1.395 . S
C1194 C1197 1.403 . S
C1195 C1192 1.403 . S
C1195 C1196 1.524 . S
C1195 C1199 1.400 . S
C1196 H1181 0.960 . S
C1196 H1182 0.960 . S
C1196 H1183 0.960 . S
C1196 C1195 1.524 . S
C1197 C1194 1.403 . S
C1197 C1198 1.392 . S
C1197 C1201 1.495 . S
C1198 C1197 1.392 . S
C1198 C1199 1.385 . S
C1198 C1200 1.478 . S
C1199 H1193 0.930 . S
C1199 C1195 1.400 . S
C1199 C1198 1.385 . S
C1200 C1198 1.478 . S
C1200 C1202 1.381 . S
C1200 C1206 1.383 . S
C1201 C1197 1.495 . S
C1201 H1207 0.959 . S
C1201 H1208 0.961 . S
C1201 H1209 0.960 . S
C1202 C1200 1.381 . S
C1202 C1203 1.394 . S
C1202 H1210 0.930 . S
C1203 C1202 1.394 . S
C1203 C1204 1.383 . S
C1203 H1211 0.929 . S
C1204 C1203 1.383 . S
C1204 C1205 1.377 . S
C1205 H1189 0.930 . S
C1205 C1204 1.377 . S
C1205 C1206 1.379 . S
C1206 H1190 0.931 . S
C1206 C1200 1.383 . S
C1206 C1205 1.379 . S
H1207 C1201 0.959 . S
H1208 C1201 0.961 . S
H1209 C1201 0.960 . S
H1210 C1202 0.930 . S
H1211 C1203 0.929 . S
H1212 C1220 0.929 . S
H1213 C1222 0.930 . S
H1214 C1224 0.930 . S
H1215 C1227 0.929 . S
H1216 C1230 0.930 . S
H1217 C1232 0.960 . S
H1218 C1232 0.960 . S
H1219 C1232 0.960 . S
C1220 H1212 0.929 . S
C1220 C1221 1.377 . S
C1220 C1222 1.384 . S
C1221 C1220 1.377 . S
C1221 C1227 1.390 . S
C1222 H1213 0.930 . S
C1222 C1220 1.384 . S
C1222 C1223 1.372 . S
C1223 C1222 1.372 . S
C1223 C1224 1.400 . S
C1223 C1228 1.490 . S
C1224 H1214 0.930 . S
C1224 C1223 1.400 . S
C1224 C1227 1.386 . S
H1225 C1241 0.930 . S
H1226 C1242 0.931 . S
C1227 H1215 0.929 . S
C1227 C1221 1.390 . S
C1227 C1224 1.386 . S
C1228 C1223 1.490 . S
C1228 C1230 1.395 . S
C1228 C1231 1.403 . S
H1229 C1235 0.930 . S
C1230 H1216 0.930 . S
C1230 C1228 1.395 . S
C1230 C1233 1.403 . S
C1231 C1228 1.403 . S
C1231 C1232 1.524 . S
C1231 C1235 1.400 . S
C1232 H1217 0.960 . S
C1232 H1218 0.960 . S
C1232 H1219 0.960 . S
C1232 C1231 1.524 . S
C1233 C1230 1.403 . S
C1233 C1234 1.392 . S
C1233 C1237 1.495 . S
C1234 C1233 1.392 . S
C1234 C1235 1.385 . S
C1234 C1236 1.478 . S
C1235 H1229 0.930 . S
C1235 C1231 1.400 . S
C1235 C1234 1.385 . S
C1236 C1234 1.478 . S
C1236 C1238 1.381 . S
C1236 C1242 1.383 . S
C1237 C1233 1.495 . S
C1237 H1243 0.959 . S
C1237 H1244 0.961 . S
C1237 H1245 0.960 . S
C1238 C1236 1.381 . S
C1238 C1239 1.394 . S
C1238 H1246 0.930 . S
C1239 C1238 1.394 . S
C1239 C1240 1.383 . S
C1239 H1247 0.929 . S
C1240 C1239 1.383 . S
C1240 C1241 1.377 . S
C1241 H1225 0.930 . S
C1241 C1240 1.377 . S
C1241 C1242 1.379 . S
C1242 H1226 0.931 . S
C1242 C1236 1.383 . S
C1242 C1241 1.379 . S
H1243 C1237 0.959 . S
H1244 C1237 0.961 . S
H1245 C1237 0.960 . S
H1246 C1238 0.930 . S
H1247 C1239 0.929 . S
H1248 C1256 0.929 . S
H1249 C1258 0.930 . S
H1250 C1260 0.930 . S
H1251 C1263 0.929 . S
H1252 C1266 0.930 . S
H1253 C1268 0.960 . S
H1254 C1268 0.960 . S
H1255 C1268 0.960 . S
C1256 H1248 0.929 . S
C1256 C1257 1.377 . S
C1256 C1258 1.384 . S
C1257 C1256 1.377 . S
C1257 C1263 1.390 . S
C1258 H1249 0.930 . S
C1258 C1256 1.384 . S
C1258 C1259 1.372 . S
C1259 C1258 1.372 . S
C1259 C1260 1.400 . S
C1259 C1264 1.490 . S
C1260 H1250 0.930 . S
C1260 C1259 1.400 . S
C1260 C1263 1.386 . S
H1261 C1277 0.930 . S
H1262 C1278 0.931 . S
C1263 H1251 0.929 . S
C1263 C1257 1.390 . S
C1263 C1260 1.386 . S
C1264 C1259 1.490 . S
C1264 C1266 1.395 . S
C1264 C1267 1.403 . S
H1265 C1271 0.930 . S
C1266 H1252 0.930 . S
C1266 C1264 1.395 . S
C1266 C1269 1.403 . S
C1267 C1264 1.403 . S
C1267 C1268 1.524 . S
C1267 C1271 1.400 . S
C1268 H1253 0.960 . S
C1268 H1254 0.960 . S
C1268 H1255 0.960 . S
C1268 C1267 1.524 . S
C1269 C1266 1.403 . S
C1269 C1270 1.392 . S
C1269 C1273 1.495 . S
C1270 C1269 1.392 . S
C1270 C1271 1.385 . S
C1270 C1272 1.478 . S
C1271 H1265 0.930 . S
C1271 C1267 1.400 . S
C1271 C1270 1.385 . S
C1272 C1270 1.478 . S
C1272 C1274 1.381 . S
C1272 C1278 1.383 . S
C1273 C1269 1.495 . S
C1273 H1279 0.959 . S
C1273 H1280 0.961 . S
C1273 H1281 0.960 . S
C1274 C1272 1.381 . S
C1274 C1275 1.394 . S
C1274 H1282 0.930 . S
C1275 C1274 1.394 . S
C1275 C1276 1.383 . S
C1275 H1283 0.929 . S
C1276 C1275 1.383 . S
C1276 C1277 1.377 . S
C1277 H1261 0.930 . S
C1277 C1276 1.377 . S
C1277 C1278 1.379 . S
C1278 H1262 0.931 . S
C1278 C1272 1.383 . S
C1278 C1277 1.379 . S
H1279 C1273 0.959 . S
H1280 C1273 0.961 . S
H1281 C1273 0.960 . S
H1282 C1274 0.930 . S
H1283 C1275 0.929 . S
H1284 C1292 0.929 . S
H1285 C1294 0.930 . S
H1286 C1296 0.930 . S
H1287 C1299 0.929 . S
H1288 C1302 0.930 . S
H1289 C1304 0.960 . S
H1290 C1304 0.960 . S
H1291 C1304 0.960 . S
C1292 H1284 0.929 . S
C1292 C1293 1.377 . S
C1292 C1294 1.384 . S
C1293 C1292 1.377 . S
C1293 C1299 1.390 . S
C1294 H1285 0.930 . S
C1294 C1292 1.384 . S
C1294 C1295 1.372 . S
C1295 C1294 1.372 . S
C1295 C1296 1.400 . S
C1295 C1300 1.490 . S
C1296 H1286 0.930 . S
C1296 C1295 1.400 . S
C1296 C1299 1.386 . S
H1297 C1313 0.930 . S
H1298 C1314 0.931 . S
C1299 H1287 0.929 . S
C1299 C1293 1.390 . S
C1299 C1296 1.386 . S
C1300 C1295 1.490 . S
C1300 C1302 1.395 . S
C1300 C1303 1.403 . S
H1301 C1307 0.930 . S
C1302 H1288 0.930 . S
C1302 C1300 1.395 . S
C1302 C1305 1.403 . S
C1303 C1300 1.403 . S
C1303 C1304 1.524 . S
C1303 C1307 1.400 . S
C1304 H1289 0.960 . S
C1304 H1290 0.960 . S
C1304 H1291 0.960 . S
C1304 C1303 1.524 . S
C1305 C1302 1.403 . S
C1305 C1306 1.392 . S
C1305 C1309 1.495 . S
C1306 C1305 1.392 . S
C1306 C1307 1.385 . S
C1306 C1308 1.478 . S
C1307 H1301 0.930 . S
C1307 C1303 1.400 . S
C1307 C1306 1.385 . S
C1308 C1306 1.478 . S
C1308 C1310 1.381 . S
C1308 C1314 1.383 . S
C1309 C1305 1.495 . S
C1309 H1315 0.959 . S
C1309 H1316 0.961 . S
C1309 H1317 0.960 . S
C1310 C1308 1.381 . S
C1310 C1311 1.394 . S
C1310 H1318 0.930 . S
C1311 C1310 1.394 . S
C1311 C1312 1.383 . S
C1311 H1319 0.929 . S
C1312 C1311 1.383 . S
C1312 C1313 1.377 . S
C1313 H1297 0.930 . S
C1313 C1312 1.377 . S
C1313 C1314 1.379 . S
C1314 H1298 0.931 . S
C1314 C1308 1.383 . S
C1314 C1313 1.379 . S
H1315 C1309 0.959 . S
H1316 C1309 0.961 . S
H1317 C1309 0.960 . S
H1318 C1310 0.930 . S
H1319 C1311 0.929 . S
H1320 C1328 0.929 . S
H1321 C1330 0.930 . S
H1322 C1332 0.930 . S
H1323 C1335 0.929 . S
H1324 C1338 0.930 . S
H1325 C1340 0.960 . S
H1326 C1340 0.960 . S
H1327 C1340 0.960 . S
C1328 H1320 0.929 . S
C1328 C1329 1.377 . S
C1328 C1330 1.384 . S
C1329 C1328 1.377 . S
C1329 C1335 1.390 . S
C1330 H1321 0.930 . S
C1330 C1328 1.384 . S
C1330 C1331 1.372 . S
C1331 C1330 1.372 . S
C1331 C1332 1.400 . S
C1331 C1336 1.490 . S
C1332 H1322 0.930 . S
C1332 C1331 1.400 . S
C1332 C1335 1.386 . S
H1333 C1349 0.930 . S
H1334 C1350 0.931 . S
C1335 H1323 0.929 . S
C1335 C1329 1.390 . S
C1335 C1332 1.386 . S
C1336 C1331 1.490 . S
C1336 C1338 1.395 . S
C1336 C1339 1.403 . S
H1337 C1343 0.930 . S
C1338 H1324 0.930 . S
C1338 C1336 1.395 . S
C1338 C1341 1.403 . S
C1339 C1336 1.403 . S
C1339 C1340 1.524 . S
C1339 C1343 1.400 . S
C1340 H1325 0.960 . S
C1340 H1326 0.960 . S
C1340 H1327 0.960 . S
C1340 C1339 1.524 . S
C1341 C1338 1.403 . S
C1341 C1342 1.392 . S
C1341 C1345 1.495 . S
C1342 C1341 1.392 . S
C1342 C1343 1.385 . S
C1342 C1344 1.478 . S
C1343 H1337 0.930 . S
C1343 C1339 1.400 . S
C1343 C1342 1.385 . S
C1344 C1342 1.478 . S
C1344 C1346 1.381 . S
C1344 C1350 1.383 . S
C1345 C1341 1.495 . S
C1345 H1351 0.959 . S
C1345 H1352 0.961 . S
C1345 H1353 0.960 . S
C1346 C1344 1.381 . S
C1346 C1347 1.394 . S
C1346 H1354 0.930 . S
C1347 C1346 1.394 . S
C1347 C1348 1.383 . S
C1347 H1355 0.929 . S
C1348 C1347 1.383 . S
C1348 C1349 1.377 . S
C1349 H1333 0.930 . S
C1349 C1348 1.377 . S
C1349 C1350 1.379 . S
C1350 H1334 0.931 . S
C1350 C1344 1.383 . S
C1350 C1349 1.379 . S
H1351 C1345 0.959 . S
H1352 C1345 0.961 . S
H1353 C1345 0.960 . S
H1354 C1346 0.930 . S
H1355 C1347 0.929 . S
H1356 C1364 0.929 . S
H1357 C1366 0.930 . S
H1358 C1368 0.930 . S
H1359 C1371 0.929 . S
H1360 C1374 0.930 . S
H1361 C1376 0.960 . S
H1362 C1376 0.960 . S
H1363 C1376 0.960 . S
C1364 H1356 0.929 . S
C1364 C1365 1.377 . S
C1364 C1366 1.384 . S
C1365 C1364 1.377 . S
C1365 C1371 1.390 . S
C1366 H1357 0.930 . S
C1366 C1364 1.384 . S
C1366 C1367 1.372 . S
C1367 C1366 1.372 . S
C1367 C1368 1.400 . S
C1367 C1372 1.490 . S
C1368 H1358 0.930 . S
C1368 C1367 1.400 . S
C1368 C1371 1.386 . S
H1369 C1385 0.930 . S
H1370 C1386 0.931 . S
C1371 H1359 0.929 . S
C1371 C1365 1.390 . S
C1371 C1368 1.386 . S
C1372 C1367 1.490 . S
C1372 C1374 1.395 . S
C1372 C1375 1.403 . S
H1373 C1379 0.930 . S
C1374 H1360 0.930 . S
C1374 C1372 1.395 . S
C1374 C1377 1.403 . S
C1375 C1372 1.403 . S
C1375 C1376 1.524 . S
C1375 C1379 1.400 . S
C1376 H1361 0.960 . S
C1376 H1362 0.960 . S
C1376 H1363 0.960 . S
C1376 C1375 1.524 . S
C1377 C1374 1.403 . S
C1377 C1378 1.392 . S
C1377 C1381 1.495 . S
C1378 C1377 1.392 . S
C1378 C1379 1.385 . S
C1378 C1380 1.478 . S
C1379 H1373 0.930 . S
C1379 C1375 1.400 . S
C1379 C1378 1.385 . S
C1380 C1378 1.478 . S
C1380 C1382 1.381 . S
C1380 C1386 1.383 . S
C1381 C1377 1.495 . S
C1381 H1387 0.959 . S
C1381 H1388 0.961 . S
C1381 H1389 0.960 . S
C1382 C1380 1.381 . S
C1382 C1383 1.394 . S
C1382 H1390 0.930 . S
C1383 C1382 1.394 . S
C1383 C1384 1.383 . S
C1383 H1391 0.929 . S
C1384 C1383 1.383 . S
C1384 C1385 1.377 . S
C1385 H1369 0.930 . S
C1385 C1384 1.377 . S
C1385 C1386 1.379 . S
C1386 H1370 0.931 . S
C1386 C1380 1.383 . S
C1386 C1385 1.379 . S
H1387 C1381 0.959 . S
H1388 C1381 0.961 . S
H1389 C1381 0.960 . S
H1390 C1382 0.930 . S
H1391 C1383 0.929 . S
H1392 C1400 0.929 . S
H1393 C1402 0.930 . S
H1394 C1404 0.930 . S
H1395 C1407 0.929 . S
H1396 C1410 0.930 . S
H1397 C1412 0.960 . S
H1398 C1412 0.960 . S
H1399 C1412 0.960 . S
C1400 H1392 0.929 . S
C1400 C1401 1.377 . S
C1400 C1402 1.384 . S
C1401 C1400 1.377 . S
C1401 C1407 1.390 . S
C1402 H1393 0.930 . S
C1402 C1400 1.384 . S
C1402 C1403 1.372 . S
C1403 C1402 1.372 . S
C1403 C1404 1.400 . S
C1403 C1408 1.490 . S
C1404 H1394 0.930 . S
C1404 C1403 1.400 . S
C1404 C1407 1.386 . S
H1405 C1421 0.930 . S
H1406 C1422 0.931 . S
C1407 H1395 0.929 . S
C1407 C1401 1.390 . S
C1407 C1404 1.386 . S
C1408 C1403 1.490 . S
C1408 C1410 1.395 . S
C1408 C1411 1.403 . S
H1409 C1415 0.930 . S
C1410 H1396 0.930 . S
C1410 C1408 1.395 . S
C1410 C1413 1.403 . S
C1411 C1408 1.403 . S
C1411 C1412 1.524 . S
C1411 C1415 1.400 . S
C1412 H1397 0.960 . S
C1412 H1398 0.960 . S
C1412 H1399 0.960 . S
C1412 C1411 1.524 . S
C1413 C1410 1.403 . S
C1413 C1414 1.392 . S
C1413 C1417 1.495 . S
C1414 C1413 1.392 . S
C1414 C1415 1.385 . S
C1414 C1416 1.478 . S
C1415 H1409 0.930 . S
C1415 C1411 1.400 . S
C1415 C1414 1.385 . S
C1416 C1414 1.478 . S
C1416 C1418 1.381 . S
C1416 C1422 1.383 . S
C1417 C1413 1.495 . S
C1417 H1423 0.959 . S
C1417 H1424 0.961 . S
C1417 H1425 0.960 . S
C1418 C1416 1.381 . S
C1418 C1419 1.394 . S
C1418 H1426 0.930 . S
C1419 C1418 1.394 . S
C1419 C1420 1.383 . S
C1419 H1427 0.929 . S
C1420 C1419 1.383 . S
C1420 C1421 1.377 . S
C1421 H1405 0.930 . S
C1421 C1420 1.377 . S
C1421 C1422 1.379 . S
C1422 H1406 0.931 . S
C1422 C1416 1.383 . S
C1422 C1421 1.379 . S
H1423 C1417 0.959 . S
H1424 C1417 0.961 . S
H1425 C1417 0.960 . S
H1426 C1418 0.930 . S
H1427 C1419 0.929 . S
H1428 C1436 0.929 . S
H1429 C1438 0.930 . S
H1430 C1440 0.930 . S
H1431 C1443 0.929 . S
H1432 C1446 0.930 . S
H1433 C1448 0.960 . S
H1434 C1448 0.960 . S
H1435 C1448 0.960 . S
C1436 H1428 0.929 . S
C1436 C1437 1.377 . S
C1436 C1438 1.384 . S
C1437 C1436 1.377 . S
C1437 C1443 1.390 . S
C1438 H1429 0.930 . S
C1438 C1436 1.384 . S
C1438 C1439 1.372 . S
C1439 C1438 1.372 . S
C1439 C1440 1.400 . S
C1439 C1444 1.490 . S
C1440 H1430 0.930 . S
C1440 C1439 1.400 . S
C1440 C1443 1.386 . S
H1441 C1457 0.930 . S
H1442 C1458 0.931 . S
C1443 H1431 0.929 . S
C1443 C1437 1.390 . S
C1443 C1440 1.386 . S
C1444 C1439 1.490 . S
C1444 C1446 1.395 . S
C1444 C1447 1.403 . S
H1445 C1451 0.930 . S
C1446 H1432 0.930 . S
C1446 C1444 1.395 . S
C1446 C1449 1.403 . S
C1447 C1444 1.403 . S
C1447 C1448 1.524 . S
C1447 C1451 1.400 . S
C1448 H1433 0.960 . S
C1448 H1434 0.960 . S
C1448 H1435 0.960 . S
C1448 C1447 1.524 . S
C1449 C1446 1.403 . S
C1449 C1450 1.392 . S
C1449 C1453 1.495 . S
C1450 C1449 1.392 . S
C1450 C1451 1.385 . S
C1450 C1452 1.478 . S
C1451 H1445 0.930 . S
C1451 C1447 1.400 . S
C1451 C1450 1.385 . S
C1452 C1450 1.478 . S
C1452 C1454 1.381 . S
C1452 C1458 1.383 . S
C1453 C1449 1.495 . S
C1453 H1459 0.959 . S
C1453 H1460 0.961 . S
C1453 H1461 0.960 . S
C1454 C1452 1.381 . S
C1454 C1455 1.394 . S
C1454 H1462 0.930 . S
C1455 C1454 1.394 . S
C1455 C1456 1.383 . S
C1455 H1463 0.929 . S
C1456 C1455 1.383 . S
C1456 C1457 1.377 . S
C1457 H1441 0.930 . S
C1457 C1456 1.377 . S
C1457 C1458 1.379 . S
C1458 H1442 0.931 . S
C1458 C1452 1.383 . S
C1458 C1457 1.379 . S
H1459 C1453 0.959 . S
H1460 C1453 0.961 . S
H1461 C1453 0.960 . S
H1462 C1454 0.930 . S
H1463 C1455 0.929 . S
H1464 C1472 0.929 . S
H1465 C1474 0.930 . S
H1466 C1476 0.930 . S
H1467 C1479 0.929 . S
H1468 C1482 0.930 . S
H1469 C1484 0.960 . S
H1470 C1484 0.960 . S
H1471 C1484 0.960 . S
C1472 H1464 0.929 . S
C1472 C1473 1.377 . S
C1472 C1474 1.384 . S
C1473 C1472 1.377 . S
C1473 C1479 1.390 . S
C1474 H1465 0.930 . S
C1474 C1472 1.384 . S
C1474 C1475 1.372 . S
C1475 C1474 1.372 . S
C1475 C1476 1.400 . S
C1475 C1480 1.490 . S
C1476 H1466 0.930 . S
C1476 C1475 1.400 . S
C1476 C1479 1.386 . S
H1477 C1493 0.930 . S
H1478 C1494 0.931 . S
C1479 H1467 0.929 . S
C1479 C1473 1.390 . S
C1479 C1476 1.386 . S
C1480 C1475 1.490 . S
C1480 C1482 1.395 . S
C1480 C1483 1.403 . S
H1481 C1487 0.930 . S
C1482 H1468 0.930 . S
C1482 C1480 1.395 . S
C1482 C1485 1.403 . S
C1483 C1480 1.403 . S
C1483 C1484 1.524 . S
C1483 C1487 1.400 . S
C1484 H1469 0.960 . S
C1484 H1470 0.960 . S
C1484 H1471 0.960 . S
C1484 C1483 1.524 . S
C1485 C1482 1.403 . S
C1485 C1486 1.392 . S
C1485 C1489 1.495 . S
C1486 C1485 1.392 . S
C1486 C1487 1.385 . S
C1486 C1488 1.478 . S
C1487 H1481 0.930 . S
C1487 C1483 1.400 . S
C1487 C1486 1.385 . S
C1488 C1486 1.478 . S
C1488 C1490 1.381 . S
C1488 C1494 1.383 . S
C1489 C1485 1.495 . S
C1489 H1495 0.959 . S
C1489 H1496 0.961 . S
C1489 H1497 0.960 . S
C1490 C1488 1.381 . S
C1490 C1491 1.394 . S
C1490 H1498 0.930 . S
C1491 C1490 1.394 . S
C1491 C1492 1.383 . S
C1491 H1499 0.929 . S
C1492 C1491 1.383 . S
C1492 C1493 1.377 . S
C1493 H1477 0.930 . S
C1493 C1492 1.377 . S
C1493 C1494 1.379 . S
C1494 H1478 0.931 . S
C1494 C1488 1.383 . S
C1494 C1493 1.379 . S
H1495 C1489 0.959 . S
H1496 C1489 0.961 . S
H1497 C1489 0.960 . S
H1498 C1490 0.930 . S
H1499 C1491 0.929 . S
H1500 C1508 0.929 . S
H1501 C1510 0.930 . S
H1502 C1512 0.930 . S
H1503 C1515 0.929 . S
H1504 C1518 0.930 . S
H1505 C1520 0.960 . S
H1506 C1520 0.960 . S
H1507 C1520 0.960 . S
C1508 H1500 0.929 . S
C1508 C1509 1.377 . S
C1508 C1510 1.384 . S
C1509 C1508 1.377 . S
C1509 C1515 1.390 . S
C1510 H1501 0.930 . S
C1510 C1508 1.384 . S
C1510 C1511 1.372 . S
C1511 C1510 1.372 . S
C1511 C1512 1.400 . S
C1511 C1516 1.490 . S
C1512 H1502 0.930 . S
C1512 C1511 1.400 . S
C1512 C1515 1.386 . S
H1513 C1529 0.930 . S
H1514 C1530 0.931 . S
C1515 H1503 0.929 . S
C1515 C1509 1.390 . S
C1515 C1512 1.386 . S
C1516 C1511 1.490 . S
C1516 C1518 1.395 . S
C1516 C1519 1.403 . S
H1517 C1523 0.930 . S
C1518 H1504 0.930 . S
C1518 C1516 1.395 . S
C1518 C1521 1.403 . S
C1519 C1516 1.403 . S
C1519 C1520 1.524 . S
C1519 C1523 1.400 . S
C1520 H1505 0.960 . S
C1520 H1506 0.960 . S
C1520 H1507 0.960 . S
C1520 C1519 1.524 . S
C1521 C1518 1.403 . S
C1521 C1522 1.392 . S
C1521 C1525 1.495 . S
C1522 C1521 1.392 . S
C1522 C1523 1.385 . S
C1522 C1524 1.478 . S
C1523 H1517 0.930 . S
C1523 C1519 1.400 . S
C1523 C1522 1.385 . S
C1524 C1522 1.478 . S
C1524 C1526 1.381 . S
C1524 C1530 1.383 . S
C1525 C1521 1.495 . S
C1525 H1531 0.959 . S
C1525 H1532 0.961 . S
C1525 H1533 0.960 . S
C1526 C1524 1.381 . S
C1526 C1527 1.394 . S
C1526 H1534 0.930 . S
C1527 C1526 1.394 . S
C1527 C1528 1.383 . S
C1527 H1535 0.929 . S
C1528 C1527 1.383 . S
C1528 C1529 1.377 . S
C1529 H1513 0.930 . S
C1529 C1528 1.377 . S
C1529 C1530 1.379 . S
C1530 H1514 0.931 . S
C1530 C1524 1.383 . S
C1530 C1529 1.379 . S
H1531 C1525 0.959 . S
H1532 C1525 0.961 . S
H1533 C1525 0.960 . S
H1534 C1526 0.930 . S
H1535 C1527 0.929 . S
H1536 C1544 0.929 . S
H1537 C1546 0.930 . S
H1538 C1548 0.930 . S
H1539 C1551 0.929 . S
H1540 C1554 0.930 . S
H1541 C1556 0.960 . S
H1542 C1556 0.960 . S
H1543 C1556 0.960 . S
C1544 H1536 0.929 . S
C1544 C1545 1.377 . S
C1544 C1546 1.384 . S
C1545 C1544 1.377 . S
C1545 C1551 1.390 . S
C1546 H1537 0.930 . S
C1546 C1544 1.384 . S
C1546 C1547 1.372 . S
C1547 C1546 1.372 . S
C1547 C1548 1.400 . S
C1547 C1552 1.490 . S
C1548 H1538 0.930 . S
C1548 C1547 1.400 . S
C1548 C1551 1.386 . S
H1549 C1565 0.930 . S
H1550 C1566 0.931 . S
C1551 H1539 0.929 . S
C1551 C1545 1.390 . S
C1551 C1548 1.386 . S
C1552 C1547 1.490 . S
C1552 C1554 1.395 . S
C1552 C1555 1.403 . S
H1553 C1559 0.930 . S
C1554 H1540 0.930 . S
C1554 C1552 1.395 . S
C1554 C1557 1.403 . S
C1555 C1552 1.403 . S
C1555 C1556 1.524 . S
C1555 C1559 1.400 . S
C1556 H1541 0.960 . S
C1556 H1542 0.960 . S
C1556 H1543 0.960 . S
C1556 C1555 1.524 . S
C1557 C1554 1.403 . S
C1557 C1558 1.392 . S
C1557 C1561 1.495 . S
C1558 C1557 1.392 . S
C1558 C1559 1.385 . S
C1558 C1560 1.478 . S
C1559 H1553 0.930 . S
C1559 C1555 1.400 . S
C1559 C1558 1.385 . S
C1560 C1558 1.478 . S
C1560 C1562 1.381 . S
C1560 C1566 1.383 . S
C1561 C1557 1.495 . S
C1561 H1567 0.959 . S
C1561 H1568 0.961 . S
C1561 H1569 0.960 . S
C1562 C1560 1.381 . S
C1562 C1563 1.394 . S
C1562 H1570 0.930 . S
C1563 C1562 1.394 . S
C1563 C1564 1.383 . S
C1563 H1571 0.929 . S
C1564 C1563 1.383 . S
C1564 C1565 1.377 . S
C1565 H1549 0.930 . S
C1565 C1564 1.377 . S
C1565 C1566 1.379 . S
C1566 H1550 0.931 . S
C1566 C1560 1.383 . S
C1566 C1565 1.379 . S
H1567 C1561 0.959 . S
H1568 C1561 0.961 . S
H1569 C1561 0.960 . S
H1570 C1562 0.930 . S
H1571 C1563 0.929 . S
H1572 C1580 0.929 . S
H1573 C1582 0.930 . S
H1574 C1584 0.930 . S
H1575 C1587 0.929 . S
H1576 C1590 0.930 . S
H1577 C1592 0.960 . S
H1578 C1592 0.960 . S
H1579 C1592 0.960 . S
C1580 H1572 0.929 . S
C1580 C1581 1.377 . S
C1580 C1582 1.384 . S
C1581 C1580 1.377 . S
C1581 C1587 1.390 . S
C1582 H1573 0.930 . S
C1582 C1580 1.384 . S
C1582 C1583 1.372 . S
C1583 C1582 1.372 . S
C1583 C1584 1.400 . S
C1583 C1588 1.490 . S
C1584 H1574 0.930 . S
C1584 C1583 1.400 . S
C1584 C1587 1.386 . S
H1585 C1601 0.930 . S
H1586 C1602 0.931 . S
C1587 H1575 0.929 . S
C1587 C1581 1.390 . S
C1587 C1584 1.386 . S
C1588 C1583 1.490 . S
C1588 C1590 1.395 . S
C1588 C1591 1.403 . S
H1589 C1595 0.930 . S
C1590 H1576 0.930 . S
C1590 C1588 1.395 . S
C1590 C1593 1.403 . S
C1591 C1588 1.403 . S
C1591 C1592 1.524 . S
C1591 C1595 1.400 . S
C1592 H1577 0.960 . S
C1592 H1578 0.960 . S
C1592 H1579 0.960 . S
C1592 C1591 1.524 . S
C1593 C1590 1.403 . S
C1593 C1594 1.392 . S
C1593 C1597 1.495 . S
C1594 C1593 1.392 . S
C1594 C1595 1.385 . S
C1594 C1596 1.478 . S
C1595 H1589 0.930 . S
C1595 C1591 1.400 . S
C1595 C1594 1.385 . S
C1596 C1594 1.478 . S
C1596 C1598 1.381 . S
C1596 C1602 1.383 . S
C1597 C1593 1.495 . S
C1597 H1603 0.959 . S
C1597 H1604 0.961 . S
C1597 H1605 0.960 . S
C1598 C1596 1.381 . S
C1598 C1599 1.394 . S
C1598 H1606 0.930 . S
C1599 C1598 1.394 . S
C1599 C1600 1.383 . S
C1599 H1607 0.929 . S
C1600 C1599 1.383 . S
C1600 C1601 1.377 . S
C1601 H1585 0.930 . S
C1601 C1600 1.377 . S
C1601 C1602 1.379 . S
C1602 H1586 0.931 . S
C1602 C1596 1.383 . S
C1602 C1601 1.379 . S
H1603 C1597 0.959 . S
H1604 C1597 0.961 . S
H1605 C1597 0.960 . S
H1606 C1598 0.930 . S
H1607 C1599 0.929 . S
H1608 C1616 0.929 . S
H1609 C1618 0.930 . S
H1610 C1620 0.930 . S
H1611 C1623 0.929 . S
H1612 C1626 0.930 . S
H1613 C1628 0.960 . S
H1614 C1628 0.960 . S
H1615 C1628 0.960 . S
C1616 H1608 0.929 . S
C1616 C1617 1.377 . S
C1616 C1618 1.384 . S
C1617 C1616 1.377 . S
C1617 C1623 1.390 . S
C1618 H1609 0.930 . S
C1618 C1616 1.384 . S
C1618 C1619 1.372 . S
C1619 C1618 1.372 . S
C1619 C1620 1.400 . S
C1619 C1624 1.490 . S
C1620 H1610 0.930 . S
C1620 C1619 1.400 . S
C1620 C1623 1.386 . S
H1621 C1637 0.930 . S
H1622 C1638 0.931 . S
C1623 H1611 0.929 . S
C1623 C1617 1.390 . S
C1623 C1620 1.386 . S
C1624 C1619 1.490 . S
C1624 C1626 1.395 . S
C1624 C1627 1.403 . S
H1625 C1631 0.930 . S
C1626 H1612 0.930 . S
C1626 C1624 1.395 . S
C1626 C1629 1.403 . S
C1627 C1624 1.403 . S
C1627 C1628 1.524 . S
C1627 C1631 1.400 . S
C1628 H1613 0.960 . S
C1628 H1614 0.960 . S
C1628 H1615 0.960 . S
C1628 C1627 1.524 . S
C1629 C1626 1.403 . S
C1629 C1630 1.392 . S
C1629 C1633 1.495 . S
C1630 C1629 1.392 . S
C1630 C1631 1.385 . S
C1630 C1632 1.478 . S
C1631 H1625 0.930 . S
C1631 C1627 1.400 . S
C1631 C1630 1.385 . S
C1632 C1630 1.478 . S
C1632 C1634 1.381 . S
C1632 C1638 1.383 . S
C1633 C1629 1.495 . S
C1633 H1639 0.959 . S
C1633 H1640 0.961 . S
C1633 H1641 0.960 . S
C1634 C1632 1.381 . S
C1634 C1635 1.394 . S
C1634 H1642 0.930 . S
C1635 C1634 1.394 . S
C1635 C1636 1.383 . S
C1635 H1643 0.929 . S
C1636 C1635 1.383 . S
C1636 C1637 1.377 . S
C1637 H1621 0.930 . S
C1637 C1636 1.377 . S
C1637 C1638 1.379 . S
C1638 H1622 0.931 . S
C1638 C1632 1.383 . S
C1638 C1637 1.379 . S
H1639 C1633 0.959 . S
H1640 C1633 0.961 . S
H1641 C1633 0.960 . S
H1642 C1634 0.930 . S
H1643 C1635 0.929 . S
H1644 C1652 0.929 . S
H1645 C1654 0.930 . S
H1646 C1656 0.930 . S
H1647 C1659 0.929 . S
H1648 C1662 0.930 . S
H1649 C1664 0.960 . S
H1650 C1664 0.960 . S
H1651 C1664 0.960 . S
C1652 H1644 0.929 . S
C1652 C1653 1.377 . S
C1652 C1654 1.384 . S
C1653 C1652 1.377 . S
C1653 C1659 1.390 . S
C1654 H1645 0.930 . S
C1654 C1652 1.384 . S
C1654 C1655 1.372 . S
C1655 C1654 1.372 . S
C1655 C1656 1.400 . S
C1655 C1660 1.490 . S
C1656 H1646 0.930 . S
C1656 C1655 1.400 . S
C1656 C1659 1.386 . S
H1657 C1673 0.930 . S
H1658 C1674 0.931 . S
C1659 H1647 0.929 . S
C1659 C1653 1.390 . S
C1659 C1656 1.386 . S
C1660 C1655 1.490 . S
C1660 C1662 1.395 . S
C1660 C1663 1.403 . S
H1661 C1667 0.930 . S
C1662 H1648 0.930 . S
C1662 C1660 1.395 . S
C1662 C1665 1.403 . S
C1663 C1660 1.403 . S
C1663 C1664 1.524 . S
C1663 C1667 1.400 . S
C1664 H1649 0.960 . S
C1664 H1650 0.960 . S
C1664 H1651 0.960 . S
C1664 C1663 1.524 . S
C1665 C1662 1.403 . S
C1665 C1666 1.392 . S
C1665 C1669 1.495 . S
C1666 C1665 1.392 . S
C1666 C1667 1.385 . S
C1666 C1668 1.478 . S
C1667 H1661 0.930 . S
C1667 C1663 1.400 . S
C1667 C1666 1.385 . S
C1668 C1666 1.478 . S
C1668 C1670 1.381 . S
C1668 C1674 1.383 . S
C1669 C1665 1.495 . S
C1669 H1675 0.959 . S
C1669 H1676 0.961 . S
C1669 H1677 0.960 . S
C1670 C1668 1.381 . S
C1670 C1671 1.394 . S
C1670 H1678 0.930 . S
C1671 C1670 1.394 . S
C1671 C1672 1.383 . S
C1671 H1679 0.929 . S
C1672 C1671 1.383 . S
C1672 C1673 1.377 . S
C1673 H1657 0.930 . S
C1673 C1672 1.377 . S
C1673 C1674 1.379 . S
C1674 H1658 0.931 . S
C1674 C1668 1.383 . S
C1674 C1673 1.379 . S
H1675 C1669 0.959 . S
H1676 C1669 0.961 . S
H1677 C1669 0.960 . S
H1678 C1670 0.930 . S
H1679 C1671 0.929 . S
H1680 C1688 0.929 . S
H1681 C1690 0.930 . S
H1682 C1692 0.930 . S
H1683 C1695 0.929 . S
H1684 C1698 0.930 . S
H1685 C1700 0.960 . S
H1686 C1700 0.960 . S
H1687 C1700 0.960 . S
C1688 H1680 0.929 . S
C1688 C1689 1.377 . S
C1688 C1690 1.384 . S
C1689 C1688 1.377 . S
C1689 C1695 1.390 . S
C1690 H1681 0.930 . S
C1690 C1688 1.384 . S
C1690 C1691 1.372 . S
C1691 C1690 1.372 . S
C1691 C1692 1.400 . S
C1691 C1696 1.490 . S
C1692 H1682 0.930 . S
C1692 C1691 1.400 . S
C1692 C1695 1.386 . S
H1693 C1709 0.930 . S
H1694 C1710 0.931 . S
C1695 H1683 0.929 . S
C1695 C1689 1.390 . S
C1695 C1692 1.386 . S
C1696 C1691 1.490 . S
C1696 C1698 1.395 . S
C1696 C1699 1.403 . S
H1697 C1703 0.930 . S
C1698 H1684 0.930 . S
C1698 C1696 1.395 . S
C1698 C1701 1.403 . S
C1699 C1696 1.403 . S
C1699 C1700 1.524 . S
C1699 C1703 1.400 . S
C1700 H1685 0.960 . S
C1700 H1686 0.960 . S
C1700 H1687 0.960 . S
C1700 C1699 1.524 . S
C1701 C1698 1.403 . S
C1701 C1702 1.392 . S
C1701 C1705 1.495 . S
C1702 C1701 1.392 . S
C1702 C1703 1.385 . S
C1702 C1704 1.478 . S
C1703 H1697 0.930 . S
C1703 C1699 1.400 . S
C1703 C1702 1.385 . S
C1704 C1702 1.478 . S
C1704 C1706 1.381 . S
C1704 C1710 1.383 . S
C1705 C1701 1.495 . S
C1705 H1711 0.959 . S
C1705 H1712 0.961 . S
C1705 H1713 0.960 . S
C1706 C1704 1.381 . S
C1706 C1707 1.394 . S
C1706 H1714 0.930 . S
C1707 C1706 1.394 . S
C1707 C1708 1.383 . S
C1707 H1715 0.929 . S
C1708 C1707 1.383 . S
C1708 C1709 1.377 . S
C1709 H1693 0.930 . S
C1709 C1708 1.377 . S
C1709 C1710 1.379 . S
C1710 H1694 0.931 . S
C1710 C1704 1.383 . S
C1710 C1709 1.379 . S
H1711 C1705 0.959 . S
H1712 C1705 0.961 . S
H1713 C1705 0.960 . S
H1714 C1706 0.930 . S
H1715 C1707 0.929 . S
H1716 C1724 0.929 . S
H1717 C1726 0.930 . S
H1718 C1728 0.930 . S
H1719 C1731 0.929 . S
H1720 C1734 0.930 . S
H1721 C1736 0.960 . S
H1722 C1736 0.960 . S
H1723 C1736 0.960 . S
C1724 H1716 0.929 . S
C1724 C1725 1.377 . S
C1724 C1726 1.384 . S
C1725 C1724 1.377 . S
C1725 C1731 1.390 . S
C1726 H1717 0.930 . S
C1726 C1724 1.384 . S
C1726 C1727 1.372 . S
C1727 C1726 1.372 . S
C1727 C1728 1.400 . S
C1727 C1732 1.490 . S
C1728 H1718 0.930 . S
C1728 C1727 1.400 . S
C1728 C1731 1.386 . S
H1729 C1745 0.930 . S
H1730 C1746 0.931 . S
C1731 H1719 0.929 . S
C1731 C1725 1.390 . S
C1731 C1728 1.386 . S
C1732 C1727 1.490 . S
C1732 C1734 1.395 . S
C1732 C1735 1.403 . S
H1733 C1739 0.930 . S
C1734 H1720 0.930 . S
C1734 C1732 1.395 . S
C1734 C1737 1.403 . S
C1735 C1732 1.403 . S
C1735 C1736 1.524 . S
C1735 C1739 1.400 . S
C1736 H1721 0.960 . S
C1736 H1722 0.960 . S
C1736 H1723 0.960 . S
C1736 C1735 1.524 . S
C1737 C1734 1.403 . S
C1737 C1738 1.392 . S
C1737 C1741 1.495 . S
C1738 C1737 1.392 . S
C1738 C1739 1.385 . S
C1738 C1740 1.478 . S
C1739 H1733 0.930 . S
C1739 C1735 1.400 . S
C1739 C1738 1.385 . S
C1740 C1738 1.478 . S
C1740 C1742 1.381 . S
C1740 C1746 1.383 . S
C1741 C1737 1.495 . S
C1741 H1747 0.959 . S
C1741 H1748 0.961 . S
C1741 H1749 0.960 . S
C1742 C1740 1.381 . S
C1742 C1743 1.394 . S
C1742 H1750 0.930 . S
C1743 C1742 1.394 . S
C1743 C1744 1.383 . S
C1743 H1751 0.929 . S
C1744 C1743 1.383 . S
C1744 C1745 1.377 . S
C1745 H1729 0.930 . S
C1745 C1744 1.377 . S
C1745 C1746 1.379 . S
C1746 H1730 0.931 . S
C1746 C1740 1.383 . S
C1746 C1745 1.379 . S
H1747 C1741 0.959 . S
H1748 C1741 0.961 . S
H1749 C1741 0.960 . S
H1750 C1742 0.930 . S
H1751 C1743 0.929 . S
H1752 C1760 0.929 . S
H1753 C1762 0.930 . S
H1754 C1764 0.930 . S
H1755 C1767 0.929 . S
H1756 C1770 0.930 . S
H1757 C1772 0.960 . S
H1758 C1772 0.960 . S
H1759 C1772 0.960 . S
C1760 H1752 0.929 . S
C1760 C1761 1.377 . S
C1760 C1762 1.384 . S
C1761 C1760 1.377 . S
C1761 C1767 1.390 . S
C1762 H1753 0.930 . S
C1762 C1760 1.384 . S
C1762 C1763 1.372 . S
C1763 C1762 1.372 . S
C1763 C1764 1.400 . S
C1763 C1768 1.490 . S
C1764 H1754 0.930 . S
C1764 C1763 1.400 . S
C1764 C1767 1.386 . S
H1765 C1781 0.930 . S
H1766 C1782 0.931 . S
C1767 H1755 0.929 . S
C1767 C1761 1.390 . S
C1767 C1764 1.386 . S
C1768 C1763 1.490 . S
C1768 C1770 1.395 . S
C1768 C1771 1.403 . S
H1769 C1775 0.930 . S
C1770 H1756 0.930 . S
C1770 C1768 1.395 . S
C1770 C1773 1.403 . S
C1771 C1768 1.403 . S
C1771 C1772 1.524 . S
C1771 C1775 1.400 . S
C1772 H1757 0.960 . S
C1772 H1758 0.960 . S
C1772 H1759 0.960 . S
C1772 C1771 1.524 . S
C1773 C1770 1.403 . S
C1773 C1774 1.392 . S
C1773 C1777 1.495 . S
C1774 C1773 1.392 . S
C1774 C1775 1.385 . S
C1774 C1776 1.478 . S
C1775 H1769 0.930 . S
C1775 C1771 1.400 . S
C1775 C1774 1.385 . S
C1776 C1774 1.478 . S
C1776 C1778 1.381 . S
C1776 C1782 1.383 . S
C1777 C1773 1.495 . S
C1777 H1783 0.959 . S
C1777 H1784 0.961 . S
C1777 H1785 0.960 . S
C1778 C1776 1.381 . S
C1778 C1779 1.394 . S
C1778 H1786 0.930 . S
C1779 C1778 1.394 . S
C1779 C1780 1.383 . S
C1779 H1787 0.929 . S
C1780 C1779 1.383 . S
C1780 C1781 1.377 . S
C1781 H1765 0.930 . S
C1781 C1780 1.377 . S
C1781 C1782 1.379 . S
C1782 H1766 0.931 . S
C1782 C1776 1.383 . S
C1782 C1781 1.379 . S
H1783 C1777 0.959 . S
H1784 C1777 0.961 . S
H1785 C1777 0.960 . S
H1786 C1778 0.930 . S
H1787 C1779 0.929 . S
H1788 C1796 0.929 . S
H1789 C1798 0.930 . S
H1790 C1800 0.930 . S
H1791 C1803 0.929 . S
H1792 C1806 0.930 . S
H1793 C1808 0.960 . S
H1794 C1808 0.960 . S
H1795 C1808 0.960 . S
C1796 H1788 0.929 . S
C1796 C1797 1.377 . S
C1796 C1798 1.384 . S
C1797 C1796 1.377 . S
C1797 C1803 1.390 . S
C1798 H1789 0.930 . S
C1798 C1796 1.384 . S
C1798 C1799 1.372 . S
C1799 C1798 1.372 . S
C1799 C1800 1.400 . S
C1799 C1804 1.490 . S
C1800 H1790 0.930 . S
C1800 C1799 1.400 . S
C1800 C1803 1.386 . S
H1801 C1817 0.930 . S
H1802 C1818 0.931 . S
C1803 H1791 0.929 . S
C1803 C1797 1.390 . S
C1803 C1800 1.386 . S
C1804 C1799 1.490 . S
C1804 C1806 1.395 . S
C1804 C1807 1.403 . S
H1805 C1811 0.930 . S
C1806 H1792 0.930 . S
C1806 C1804 1.395 . S
C1806 C1809 1.403 . S
C1807 C1804 1.403 . S
C1807 C1808 1.524 . S
C1807 C1811 1.400 . S
C1808 H1793 0.960 . S
C1808 H1794 0.960 . S
C1808 H1795 0.960 . S
C1808 C1807 1.524 . S
C1809 C1806 1.403 . S
C1809 C1810 1.392 . S
C1809 C1813 1.495 . S
C1810 C1809 1.392 . S
C1810 C1811 1.385 . S
C1810 C1812 1.478 . S
C1811 H1805 0.930 . S
C1811 C1807 1.400 . S
C1811 C1810 1.385 . S
C1812 C1810 1.478 . S
C1812 C1814 1.381 . S
C1812 C1818 1.383 . S
C1813 C1809 1.495 . S
C1813 H1819 0.959 . S
C1813 H1820 0.961 . S
C1813 H1821 0.960 . S
C1814 C1812 1.381 . S
C1814 C1815 1.394 . S
C1814 H1822 0.930 . S
C1815 C1814 1.394 . S
C1815 C1816 1.383 . S
C1815 H1823 0.929 . S
C1816 C1815 1.383 . S
C1816 C1817 1.377 . S
C1817 H1801 0.930 . S
C1817 C1816 1.377 . S
C1817 C1818 1.379 . S
C1818 H1802 0.931 . S
C1818 C1812 1.383 . S
C1818 C1817 1.379 . S
H1819 C1813 0.959 . S
H1820 C1813 0.961 . S
H1821 C1813 0.960 . S
H1822 C1814 0.930 . S
H1823 C1815 0.929 . S
H1824 C1832 0.929 . S
H1825 C1834 0.930 . S
H1826 C1836 0.930 . S
H1827 C1839 0.929 . S
H1828 C1842 0.930 . S
H1829 C1844 0.960 . S
H1830 C1844 0.960 . S
H1831 C1844 0.960 . S
C1832 H1824 0.929 . S
C1832 C1833 1.377 . S
C1832 C1834 1.384 . S
C1833 C1832 1.377 . S
C1833 C1839 1.390 . S
C1834 H1825 0.930 . S
C1834 C1832 1.384 . S
C1834 C1835 1.372 . S
C1835 C1834 1.372 . S
C1835 C1836 1.400 . S
C1835 C1840 1.490 . S
C1836 H1826 0.930 . S
C1836 C1835 1.400 . S
C1836 C1839 1.386 . S
H1837 C1853 0.930 . S
H1838 C1854 0.931 . S
C1839 H1827 0.929 . S
C1839 C1833 1.390 . S
C1839 C1836 1.386 . S
C1840 C1835 1.490 . S
C1840 C1842 1.395 . S
C1840 C1843 1.403 . S
H1841 C1847 0.930 . S
C1842 H1828 0.930 . S
C1842 C1840 1.395 . S
C1842 C1845 1.403 . S
C1843 C1840 1.403 . S
C1843 C1844 1.524 . S
C1843 C1847 1.400 . S
C1844 H1829 0.960 . S
C1844 H1830 0.960 . S
C1844 H1831 0.960 . S
C1844 C1843 1.524 . S
C1845 C1842 1.403 . S
C1845 C1846 1.392 . S
C1845 C1849 1.495 . S
C1846 C1845 1.392 . S
C1846 C1847 1.385 . S
C1846 C1848 1.478 . S
C1847 H1841 0.930 . S
C1847 C1843 1.400 . S
C1847 C1846 1.385 . S
C1848 C1846 1.478 . S
C1848 C1850 1.381 . S
C1848 C1854 1.383 . S
C1849 C1845 1.495 . S
C1849 H1855 0.959 . S
C1849 H1856 0.961 . S
C1849 H1857 0.960 . S
C1850 C1848 1.381 . S
C1850 C1851 1.394 . S
C1850 H1858 0.930 . S
C1851 C1850 1.394 . S
C1851 C1852 1.383 . S
C1851 H1859 0.929 . S
C1852 C1851 1.383 . S
C1852 C1853 1.377 . S
C1853 H1837 0.930 . S
C1853 C1852 1.377 . S
C1853 C1854 1.379 . S
C1854 H1838 0.931 . S
C1854 C1848 1.383 . S
C1854 C1853 1.379 . S
H1855 C1849 0.959 . S
H1856 C1849 0.961 . S
H1857 C1849 0.960 . S
H1858 C1850 0.930 . S
H1859 C1851 0.929 . S
H1860 C1868 0.929 . S
H1861 C1870 0.930 . S
H1862 C1872 0.930 . S
H1863 C1875 0.929 . S
H1864 C1878 0.930 . S
H1865 C1880 0.960 . S
H1866 C1880 0.960 . S
H1867 C1880 0.960 . S
C1868 H1860 0.929 . S
C1868 C1869 1.377 . S
C1868 C1870 1.384 . S
C1869 C1868 1.377 . S
C1869 C1875 1.390 . S
C1870 H1861 0.930 . S
C1870 C1868 1.384 . S
C1870 C1871 1.372 . S
C1871 C1870 1.372 . S
C1871 C1872 1.400 . S
C1871 C1876 1.490 . S
C1872 H1862 0.930 . S
C1872 C1871 1.400 . S
C1872 C1875 1.386 . S
H1873 C1889 0.930 . S
H1874 C1890 0.931 . S
C1875 H1863 0.929 . S
C1875 C1869 1.390 . S
C1875 C1872 1.386 . S
C1876 C1871 1.490 . S
C1876 C1878 1.395 . S
C1876 C1879 1.403 . S
H1877 C1883 0.930 . S
C1878 H1864 0.930 . S
C1878 C1876 1.395 . S
C1878 C1881 1.403 . S
C1879 C1876 1.403 . S
C1879 C1880 1.524 . S
C1879 C1883 1.400 . S
C1880 H1865 0.960 . S
C1880 H1866 0.960 . S
C1880 H1867 0.960 . S
C1880 C1879 1.524 . S
C1881 C1878 1.403 . S
C1881 C1882 1.392 . S
C1881 C1885 1.495 . S
C1882 C1881 1.392 . S
C1882 C1883 1.385 . S
C1882 C1884 1.478 . S
C1883 H1877 0.930 . S
C1883 C1879 1.400 . S
C1883 C1882 1.385 . S
C1884 C1882 1.478 . S
C1884 C1886 1.381 . S
C1884 C1890 1.383 . S
C1885 C1881 1.495 . S
C1885 H1891 0.959 . S
C1885 H1892 0.961 . S
C1885 H1893 0.960 . S
C1886 C1884 1.381 . S
C1886 C1887 1.394 . S
C1886 H1894 0.930 . S
C1887 C1886 1.394 . S
C1887 C1888 1.383 . S
C1887 H1895 0.929 . S
C1888 C1887 1.383 . S
C1888 C1889 1.377 . S
C1889 H1873 0.930 . S
C1889 C1888 1.377 . S
C1889 C1890 1.379 . S
C1890 H1874 0.931 . S
C1890 C1884 1.383 . S
C1890 C1889 1.379 . S
H1891 C1885 0.959 . S
H1892 C1885 0.961 . S
H1893 C1885 0.960 . S
H1894 C1886 0.930 . S
H1895 C1887 0.929 . S
H1896 C1904 0.929 . S
H1897 C1906 0.930 . S
H1898 C1908 0.930 . S
H1899 C1911 0.929 . S
H1900 C1914 0.930 . S
H1901 C1916 0.960 . S
H1902 C1916 0.960 . S
H1903 C1916 0.960 . S
C1904 H1896 0.929 . S
C1904 C1905 1.377 . S
C1904 C1906 1.384 . S
C1905 C1904 1.377 . S
C1905 C1911 1.390 . S
C1906 H1897 0.930 . S
C1906 C1904 1.384 . S
C1906 C1907 1.372 . S
C1907 C1906 1.372 . S
C1907 C1908 1.400 . S
C1907 C1912 1.490 . S
C1908 H1898 0.930 . S
C1908 C1907 1.400 . S
C1908 C1911 1.386 . S
H1909 C1925 0.930 . S
H1910 C1926 0.931 . S
C1911 H1899 0.929 . S
C1911 C1905 1.390 . S
C1911 C1908 1.386 . S
C1912 C1907 1.490 . S
C1912 C1914 1.395 . S
C1912 C1915 1.403 . S
H1913 C1919 0.930 . S
C1914 H1900 0.930 . S
C1914 C1912 1.395 . S
C1914 C1917 1.403 . S
C1915 C1912 1.403 . S
C1915 C1916 1.524 . S
C1915 C1919 1.400 . S
C1916 H1901 0.960 . S
C1916 H1902 0.960 . S
C1916 H1903 0.960 . S
C1916 C1915 1.524 . S
C1917 C1914 1.403 . S
C1917 C1918 1.392 . S
C1917 C1921 1.495 . S
C1918 C1917 1.392 . S
C1918 C1919 1.385 . S
C1918 C1920 1.478 . S
C1919 H1913 0.930 . S
C1919 C1915 1.400 . S
C1919 C1918 1.385 . S
C1920 C1918 1.478 . S
C1920 C1922 1.381 . S
C1920 C1926 1.383 . S
C1921 C1917 1.495 . S
C1921 H1927 0.959 . S
C1921 H1928 0.961 . S
C1921 H1929 0.960 . S
C1922 C1920 1.381 . S
C1922 C1923 1.394 . S
C1922 H1930 0.930 . S
C1923 C1922 1.394 . S
C1923 C1924 1.383 . S
C1923 H1931 0.929 . S
C1924 C1923 1.383 . S
C1924 C1925 1.377 . S
C1925 H1909 0.930 . S
C1925 C1924 1.377 . S
C1925 C1926 1.379 . S
C1926 H1910 0.931 . S
C1926 C1920 1.383 . S
C1926 C1925 1.379 . S
H1927 C1921 0.959 . S
H1928 C1921 0.961 . S
H1929 C1921 0.960 . S
H1930 C1922 0.930 . S
H1931 C1923 0.929 . S
H1932 C1940 0.929 . S
H1933 C1942 0.930 . S
H1934 C1944 0.930 . S
H1935 C1947 0.929 . S
H1936 C1950 0.930 . S
H1937 C1952 0.960 . S
H1938 C1952 0.960 . S
H1939 C1952 0.960 . S
C1940 H1932 0.929 . S
C1940 C1941 1.377 . S
C1940 C1942 1.384 . S
C1941 C1940 1.377 . S
C1941 C1947 1.390 . S
C1942 H1933 0.930 . S
C1942 C1940 1.384 . S
C1942 C1943 1.372 . S
C1943 C1942 1.372 . S
C1943 C1944 1.400 . S
C1943 C1948 1.490 . S
C1944 H1934 0.930 . S
C1944 C1943 1.400 . S
C1944 C1947 1.386 . S
H1945 C1961 0.930 . S
H1946 C1962 0.931 . S
C1947 H1935 0.929 . S
C1947 C1941 1.390 . S
C1947 C1944 1.386 . S
C1948 C1943 1.490 . S
C1948 C1950 1.395 . S
C1948 C1951 1.403 . S
H1949 C1955 0.930 . S
C1950 H1936 0.930 . S
C1950 C1948 1.395 . S
C1950 C1953 1.403 . S
C1951 C1948 1.403 . S
C1951 C1952 1.524 . S
C1951 C1955 1.400 . S
C1952 H1937 0.960 . S
C1952 H1938 0.960 . S
C1952 H1939 0.960 . S
C1952 C1951 1.524 . S
C1953 C1950 1.403 . S
C1953 C1954 1.392 . S
C1953 C1957 1.495 . S
C1954 C1953 1.392 . S
C1954 C1955 1.385 . S
C1954 C1956 1.478 . S
C1955 H1949 0.930 . S
C1955 C1951 1.400 . S
C1955 C1954 1.385 . S
C1956 C1954 1.478 . S
C1956 C1958 1.381 . S
C1956 C1962 1.383 . S
C1957 C1953 1.495 . S
C1957 H1963 0.959 . S
C1957 H1964 0.961 . S
C1957 H1965 0.960 . S
C1958 C1956 1.381 . S
C1958 C1959 1.394 . S
C1958 H1966 0.930 . S
C1959 C1958 1.394 . S
C1959 C1960 1.383 . S
C1959 H1967 0.929 . S
C1960 C1959 1.383 . S
C1960 C1961 1.377 . S
C1961 H1945 0.930 . S
C1961 C1960 1.377 . S
C1961 C1962 1.379 . S
C1962 H1946 0.931 . S
C1962 C1956 1.383 . S
C1962 C1961 1.379 . S
H1963 C1957 0.959 . S
H1964 C1957 0.961 . S
H1965 C1957 0.960 . S
H1966 C1958 0.930 . S
H1967 C1959 0.929 . S
H1968 C1976 0.929 . S
H1969 C1978 0.930 . S
H1970 C1980 0.930 . S
H1971 C1983 0.929 . S
H1972 C1986 0.930 . S
H1973 C1988 0.960 . S
H1974 C1988 0.960 . S
H1975 C1988 0.960 . S
C1976 H1968 0.929 . S
C1976 C1977 1.377 . S
C1976 C1978 1.384 . S
C1977 C1976 1.377 . S
C1977 C1983 1.390 . S
C1978 H1969 0.930 . S
C1978 C1976 1.384 . S
C1978 C1979 1.372 . S
C1979 C1978 1.372 . S
C1979 C1980 1.400 . S
C1979 C1984 1.490 . S
C1980 H1970 0.930 . S
C1980 C1979 1.400 . S
C1980 C1983 1.386 . S
H1981 C1997 0.930 . S
H1982 C1998 0.931 . S
C1983 H1971 0.929 . S
C1983 C1977 1.390 . S
C1983 C1980 1.386 . S
C1984 C1979 1.490 . S
C1984 C1986 1.395 . S
C1984 C1987 1.403 . S
H1985 C1991 0.930 . S
C1986 H1972 0.930 . S
C1986 C1984 1.395 . S
C1986 C1989 1.403 . S
C1987 C1984 1.403 . S
C1987 C1988 1.524 . S
C1987 C1991 1.400 . S
C1988 H1973 0.960 . S
C1988 H1974 0.960 . S
C1988 H1975 0.960 . S
C1988 C1987 1.524 . S
C1989 C1986 1.403 . S
C1989 C1990 1.392 . S
C1989 C1993 1.495 . S
C1990 C1989 1.392 . S
C1990 C1991 1.385 . S
C1990 C1992 1.478 . S
C1991 H1985 0.930 . S
C1991 C1987 1.400 . S
C1991 C1990 1.385 . S
C1992 C1990 1.478 . S
C1992 C1994 1.381 . S
C1992 C1998 1.383 . S
C1993 C1989 1.495 . S
C1993 H1999 0.959 . S
C1993 H2000 0.961 . S
C1993 H2001 0.960 . S
C1994 C1992 1.381 . S
C1994 C1995 1.394 . S
C1994 H2002 0.930 . S
C1995 C1994 1.394 . S
C1995 C1996 1.383 . S
C1995 H2003 0.929 . S
C1996 C1995 1.383 . S
C1996 C1997 1.377 . S
C1997 H1981 0.930 . S
C1997 C1996 1.377 . S
C1997 C1998 1.379 . S
C1998 H1982 0.931 . S
C1998 C1992 1.383 . S
C1998 C1997 1.379 . S
H1999 C1993 0.959 . S
H2000 C1993 0.961 . S
H2001 C1993 0.960 . S
H2002 C1994 0.930 . S
H2003 C1995 0.929 . S
H2004 C2012 0.929 . S
H2005 C2014 0.930 . S
H2006 C2016 0.930 . S
H2007 C2019 0.929 . S
H2008 C2022 0.930 . S
H2009 C2024 0.960 . S
H2010 C2024 0.960 . S
H2011 C2024 0.960 . S
C2012 H2004 0.929 . S
C2012 C2013 1.377 . S
C2012 C2014 1.384 . S
C2013 C2012 1.377 . S
C2013 C2019 1.390 . S
C2014 H2005 0.930 . S
C2014 C2012 1.384 . S
C2014 C2015 1.372 . S
C2015 C2014 1.372 . S
C2015 C2016 1.400 . S
C2015 C2020 1.490 . S
C2016 H2006 0.930 . S
C2016 C2015 1.400 . S
C2016 C2019 1.386 . S
H2017 C2033 0.930 . S
H2018 C2034 0.931 . S
C2019 H2007 0.929 . S
C2019 C2013 1.390 . S
C2019 C2016 1.386 . S
C2020 C2015 1.490 . S
C2020 C2022 1.395 . S
C2020 C2023 1.403 . S
H2021 C2027 0.930 . S
C2022 H2008 0.930 . S
C2022 C2020 1.395 . S
C2022 C2025 1.403 . S
C2023 C2020 1.403 . S
C2023 C2024 1.524 . S
C2023 C2027 1.400 . S
C2024 H2009 0.960 . S
C2024 H2010 0.960 . S
C2024 H2011 0.960 . S
C2024 C2023 1.524 . S
C2025 C2022 1.403 . S
C2025 C2026 1.392 . S
C2025 C2029 1.495 . S
C2026 C2025 1.392 . S
C2026 C2027 1.385 . S
C2026 C2028 1.478 . S
C2027 H2021 0.930 . S
C2027 C2023 1.400 . S
C2027 C2026 1.385 . S
C2028 C2026 1.478 . S
C2028 C2030 1.381 . S
C2028 C2034 1.383 . S
C2029 C2025 1.495 . S
C2029 H2035 0.959 . S
C2029 H2036 0.961 . S
C2029 H2037 0.960 . S
C2030 C2028 1.381 . S
C2030 C2031 1.394 . S
C2030 H2038 0.930 . S
C2031 C2030 1.394 . S
C2031 C2032 1.383 . S
C2031 H2039 0.929 . S
C2032 C2031 1.383 . S
C2032 C2033 1.377 . S
C2033 H2017 0.930 . S
C2033 C2032 1.377 . S
C2033 C2034 1.379 . S
C2034 H2018 0.931 . S
C2034 C2028 1.383 . S
C2034 C2033 1.379 . S
H2035 C2029 0.959 . S
H2036 C2029 0.961 . S
H2037 C2029 0.960 . S
H2038 C2030 0.930 . S
H2039 C2031 0.929 . S
H2040 C2048 0.929 . S
H2041 C2050 0.930 . S
H2042 C2052 0.930 . S
H2043 C2055 0.929 . S
H2044 C2058 0.930 . S
H2045 C2060 0.960 . S
H2046 C2060 0.960 . S
H2047 C2060 0.960 . S
C2048 H2040 0.929 . S
C2048 C2049 1.377 . S
C2048 C2050 1.384 . S
C2049 C2048 1.377 . S
C2049 C2055 1.390 . S
C2050 H2041 0.930 . S
C2050 C2048 1.384 . S
C2050 C2051 1.372 . S
C2051 C2050 1.372 . S
C2051 C2052 1.400 . S
C2051 C2056 1.490 . S
C2052 H2042 0.930 . S
C2052 C2051 1.400 . S
C2052 C2055 1.386 . S
H2053 C2069 0.930 . S
H2054 C2070 0.931 . S
C2055 H2043 0.929 . S
C2055 C2049 1.390 . S
C2055 C2052 1.386 . S
C2056 C2051 1.490 . S
C2056 C2058 1.395 . S
C2056 C2059 1.403 . S
H2057 C2063 0.930 . S
C2058 H2044 0.930 . S
C2058 C2056 1.395 . S
C2058 C2061 1.403 . S
C2059 C2056 1.403 . S
C2059 C2060 1.524 . S
C2059 C2063 1.400 . S
C2060 H2045 0.960 . S
C2060 H2046 0.960 . S
C2060 H2047 0.960 . S
C2060 C2059 1.524 . S
C2061 C2058 1.403 . S
C2061 C2062 1.392 . S
C2061 C2065 1.495 . S
C2062 C2061 1.392 . S
C2062 C2063 1.385 . S
C2062 C2064 1.478 . S
C2063 H2057 0.930 . S
C2063 C2059 1.400 . S
C2063 C2062 1.385 . S
C2064 C2062 1.478 . S
C2064 C2066 1.381 . S
C2064 C2070 1.383 . S
C2065 C2061 1.495 . S
C2065 H2071 0.959 . S
C2065 H2072 0.961 . S
C2065 H2073 0.960 . S
C2066 C2064 1.381 . S
C2066 C2067 1.394 . S
C2066 H2074 0.930 . S
C2067 C2066 1.394 . S
C2067 C2068 1.383 . S
C2067 H2075 0.929 . S
C2068 C2067 1.383 . S
C2068 C2069 1.377 . S
C2069 H2053 0.930 . S
C2069 C2068 1.377 . S
C2069 C2070 1.379 . S
C2070 H2054 0.931 . S
C2070 C2064 1.383 . S
C2070 C2069 1.379 . S
H2071 C2065 0.959 . S
H2072 C2065 0.961 . S
H2073 C2065 0.960 . S
H2074 C2066 0.930 . S
H2075 C2067 0.929 . S
H2076 C2084 0.929 . S
H2077 C2086 0.930 . S
H2078 C2088 0.930 . S
H2079 C2091 0.929 . S
H2080 C2094 0.930 . S
H2081 C2096 0.960 . S
H2082 C2096 0.960 . S
H2083 C2096 0.960 . S
C2084 H2076 0.929 . S
C2084 C2085 1.377 . S
C2084 C2086 1.384 . S
C2085 C2084 1.377 . S
C2085 C2091 1.390 . S
C2086 H2077 0.930 . S
C2086 C2084 1.384 . S
C2086 C2087 1.372 . S
C2087 C2086 1.372 . S
C2087 C2088 1.400 . S
C2087 C2092 1.490 . S
C2088 H2078 0.930 . S
C2088 C2087 1.400 . S
C2088 C2091 1.386 . S
H2089 C2105 0.930 . S
H2090 C2106 0.931 . S
C2091 H2079 0.929 . S
C2091 C2085 1.390 . S
C2091 C2088 1.386 . S
C2092 C2087 1.490 . S
C2092 C2094 1.395 . S
C2092 C2095 1.403 . S
H2093 C2099 0.930 . S
C2094 H2080 0.930 . S
C2094 C2092 1.395 . S
C2094 C2097 1.403 . S
C2095 C2092 1.403 . S
C2095 C2096 1.524 . S
C2095 C2099 1.400 . S
C2096 H2081 0.960 . S
C2096 H2082 0.960 . S
C2096 H2083 0.960 . S
C2096 C2095 1.524 . S
C2097 C2094 1.403 . S
C2097 C2098 1.392 . S
C2097 C2101 1.495 . S
C2098 C2097 1.392 . S
C2098 C2099 1.385 . S
C2098 C2100 1.478 . S
C2099 H2093 0.930 . S
C2099 C2095 1.400 . S
C2099 C2098 1.385 . S
C2100 C2098 1.478 . S
C2100 C2102 1.381 . S
C2100 C2106 1.383 . S
C2101 C2097 1.495 . S
C2101 H2107 0.959 . S
C2101 H2108 0.961 . S
C2101 H2109 0.960 . S
C2102 C2100 1.381 . S
C2102 C2103 1.394 . S
C2102 H2110 0.930 . S
C2103 C2102 1.394 . S
C2103 C2104 1.383 . S
C2103 H2111 0.929 . S
C2104 C2103 1.383 . S
C2104 C2105 1.377 . S
C2105 H2089 0.930 . S
C2105 C2104 1.377 . S
C2105 C2106 1.379 . S
C2106 H2090 0.931 . S
C2106 C2100 1.383 . S
C2106 C2105 1.379 . S
H2107 C2101 0.959 . S
H2108 C2101 0.961 . S
H2109 C2101 0.960 . S
H2110 C2102 0.930 . S
H2111 C2103 0.929 . S
H2112 C2120 0.929 . S
H2113 C2122 0.930 . S
H2114 C2124 0.930 . S
H2115 C2127 0.929 . S
H2116 C2130 0.930 . S
H2117 C2132 0.960 . S
H2118 C2132 0.960 . S
H2119 C2132 0.960 . S
C2120 H2112 0.929 . S
C2120 C2121 1.377 . S
C2120 C2122 1.384 . S
C2121 C2120 1.377 . S
C2121 C2127 1.390 . S
C2122 H2113 0.930 . S
C2122 C2120 1.384 . S
C2122 C2123 1.372 . S
C2123 C2122 1.372 . S
C2123 C2124 1.400 . S
C2123 C2128 1.490 . S
C2124 H2114 0.930 . S
C2124 C2123 1.400 . S
C2124 C2127 1.386 . S
H2125 C2141 0.930 . S
H2126 C2142 0.931 . S
C2127 H2115 0.929 . S
C2127 C2121 1.390 . S
C2127 C2124 1.386 . S
C2128 C2123 1.490 . S
C2128 C2130 1.395 . S
C2128 C2131 1.403 . S
H2129 C2135 0.930 . S
C2130 H2116 0.930 . S
C2130 C2128 1.395 . S
C2130 C2133 1.403 . S
C2131 C2128 1.403 . S
C2131 C2132 1.524 . S
C2131 C2135 1.400 . S
C2132 H2117 0.960 . S
C2132 H2118 0.960 . S
C2132 H2119 0.960 . S
C2132 C2131 1.524 . S
C2133 C2130 1.403 . S
C2133 C2134 1.392 . S
C2133 C2137 1.495 . S
C2134 C2133 1.392 . S
C2134 C2135 1.385 . S
C2134 C2136 1.478 . S
C2135 H2129 0.930 . S
C2135 C2131 1.400 . S
C2135 C2134 1.385 . S
C2136 C2134 1.478 . S
C2136 C2138 1.381 . S
C2136 C2142 1.383 . S
C2137 C2133 1.495 . S
C2137 H2143 0.959 . S
C2137 H2144 0.961 . S
C2137 H2145 0.960 . S
C2138 C2136 1.381 . S
C2138 C2139 1.394 . S
C2138 H2146 0.930 . S
C2139 C2138 1.394 . S
C2139 C2140 1.383 . S
C2139 H2147 0.929 . S
C2140 C2139 1.383 . S
C2140 C2141 1.377 . S
C2141 H2125 0.930 . S
C2141 C2140 1.377 . S
C2141 C2142 1.379 . S
C2142 H2126 0.931 . S
C2142 C2136 1.383 . S
C2142 C2141 1.379 . S
H2143 C2137 0.959 . S
H2144 C2137 0.961 . S
H2145 C2137 0.960 . S
H2146 C2138 0.930 . S
H2147 C2139 0.929 . S
H2148 C2156 0.929 . S
H2149 C2158 0.930 . S
H2150 C2160 0.930 . S
H2151 C2163 0.929 . S
H2152 C2166 0.930 . S
H2153 C2168 0.960 . S
H2154 C2168 0.960 . S
H2155 C2168 0.960 . S
C2156 H2148 0.929 . S
C2156 C2157 1.377 . S
C2156 C2158 1.384 . S
C2157 C2156 1.377 . S
C2157 C2163 1.390 . S
C2158 H2149 0.930 . S
C2158 C2156 1.384 . S
C2158 C2159 1.372 . S
C2159 C2158 1.372 . S
C2159 C2160 1.400 . S
C2159 C2164 1.490 . S
C2160 H2150 0.930 . S
C2160 C2159 1.400 . S
C2160 C2163 1.386 . S
H2161 C2177 0.930 . S
H2162 C2178 0.931 . S
C2163 H2151 0.929 . S
C2163 C2157 1.390 . S
C2163 C2160 1.386 . S
C2164 C2159 1.490 . S
C2164 C2166 1.395 . S
C2164 C2167 1.403 . S
H2165 C2171 0.930 . S
C2166 H2152 0.930 . S
C2166 C2164 1.395 . S
C2166 C2169 1.403 . S
C2167 C2164 1.403 . S
C2167 C2168 1.524 . S
C2167 C2171 1.400 . S
C2168 H2153 0.960 . S
C2168 H2154 0.960 . S
C2168 H2155 0.960 . S
C2168 C2167 1.524 . S
C2169 C2166 1.403 . S
C2169 C2170 1.392 . S
C2169 C2173 1.495 . S
C2170 C2169 1.392 . S
C2170 C2171 1.385 . S
C2170 C2172 1.478 . S
C2171 H2165 0.930 . S
C2171 C2167 1.400 . S
C2171 C2170 1.385 . S
C2172 C2170 1.478 . S
C2172 C2174 1.381 . S
C2172 C2178 1.383 . S
C2173 C2169 1.495 . S
C2173 H2179 0.959 . S
C2173 H2180 0.961 . S
C2173 H2181 0.960 . S
C2174 C2172 1.381 . S
C2174 C2175 1.394 . S
C2174 H2182 0.930 . S
C2175 C2174 1.394 . S
C2175 C2176 1.383 . S
C2175 H2183 0.929 . S
C2176 C2175 1.383 . S
C2176 C2177 1.377 . S
C2177 H2161 0.930 . S
C2177 C2176 1.377 . S
C2177 C2178 1.379 . S
C2178 H2162 0.931 . S
C2178 C2172 1.383 . S
C2178 C2177 1.379 . S
H2179 C2173 0.959 . S
H2180 C2173 0.961 . S
H2181 C2173 0.960 . S
H2182 C2174 0.930 . S
H2183 C2175 0.929 . S
H2184 C2192 0.929 . S
H2185 C2194 0.930 . S
H2186 C2196 0.930 . S
H2187 C2199 0.929 . S
H2188 C2202 0.930 . S
H2189 C2204 0.960 . S
H2190 C2204 0.960 . S
H2191 C2204 0.960 . S
C2192 H2184 0.929 . S
C2192 C2193 1.377 . S
C2192 C2194 1.384 . S
C2193 C2192 1.377 . S
C2193 C2199 1.390 . S
C2194 H2185 0.930 . S
C2194 C2192 1.384 . S
C2194 C2195 1.372 . S
C2195 C2194 1.372 . S
C2195 C2196 1.400 . S
C2195 C2200 1.490 . S
C2196 H2186 0.930 . S
C2196 C2195 1.400 . S
C2196 C2199 1.386 . S
H2197 C2213 0.930 . S
H2198 C2214 0.931 . S
C2199 H2187 0.929 . S
C2199 C2193 1.390 . S
C2199 C2196 1.386 . S
C2200 C2195 1.490 . S
C2200 C2202 1.395 . S
C2200 C2203 1.403 . S
H2201 C2207 0.930 . S
C2202 H2188 0.930 . S
C2202 C2200 1.395 . S
C2202 C2205 1.403 . S
C2203 C2200 1.403 . S
C2203 C2204 1.524 . S
C2203 C2207 1.400 . S
C2204 H2189 0.960 . S
C2204 H2190 0.960 . S
C2204 H2191 0.960 . S
C2204 C2203 1.524 . S
C2205 C2202 1.403 . S
C2205 C2206 1.392 . S
C2205 C2209 1.495 . S
C2206 C2205 1.392 . S
C2206 C2207 1.385 . S
C2206 C2208 1.478 . S
C2207 H2201 0.930 . S
C2207 C2203 1.400 . S
C2207 C2206 1.385 . S
C2208 C2206 1.478 . S
C2208 C2210 1.381 . S
C2208 C2214 1.383 . S
C2209 C2205 1.495 . S
C2209 H2215 0.959 . S
C2209 H2216 0.961 . S
C2209 H2217 0.960 . S
C2210 C2208 1.381 . S
C2210 C2211 1.394 . S
C2210 H2218 0.930 . S
C2211 C2210 1.394 . S
C2211 C2212 1.383 . S
C2211 H2219 0.929 . S
C2212 C2211 1.383 . S
C2212 C2213 1.377 . S
C2213 H2197 0.930 . S
C2213 C2212 1.377 . S
C2213 C2214 1.379 . S
C2214 H2198 0.931 . S
C2214 C2208 1.383 . S
C2214 C2213 1.379 . S
H2215 C2209 0.959 . S
H2216 C2209 0.961 . S
H2217 C2209 0.960 . S
H2218 C2210 0.930 . S
H2219 C2211 0.929 . S
H2220 C2228 0.929 . S
H2221 C2230 0.930 . S
H2222 C2232 0.930 . S
H2223 C2235 0.929 . S
H2224 C2238 0.930 . S
H2225 C2240 0.960 . S
H2226 C2240 0.960 . S
H2227 C2240 0.960 . S
C2228 H2220 0.929 . S
C2228 C2229 1.377 . S
C2228 C2230 1.384 . S
C2229 C2228 1.377 . S
C2229 C2235 1.390 . S
C2230 H2221 0.930 . S
C2230 C2228 1.384 . S
C2230 C2231 1.372 . S
C2231 C2230 1.372 . S
C2231 C2232 1.400 . S
C2231 C2236 1.490 . S
C2232 H2222 0.930 . S
C2232 C2231 1.400 . S
C2232 C2235 1.386 . S
H2233 C2249 0.930 . S
H2234 C2250 0.931 . S
C2235 H2223 0.929 . S
C2235 C2229 1.390 . S
C2235 C2232 1.386 . S
C2236 C2231 1.490 . S
C2236 C2238 1.395 . S
C2236 C2239 1.403 . S
H2237 C2243 0.930 . S
C2238 H2224 0.930 . S
C2238 C2236 1.395 . S
C2238 C2241 1.403 . S
C2239 C2236 1.403 . S
C2239 C2240 1.524 . S
C2239 C2243 1.400 . S
C2240 H2225 0.960 . S
C2240 H2226 0.960 . S
C2240 H2227 0.960 . S
C2240 C2239 1.524 . S
C2241 C2238 1.403 . S
C2241 C2242 1.392 . S
C2241 C2245 1.495 . S
C2242 C2241 1.392 . S
C2242 C2243 1.385 . S
C2242 C2244 1.478 . S
C2243 H2237 0.930 . S
C2243 C2239 1.400 . S
C2243 C2242 1.385 . S
C2244 C2242 1.478 . S
C2244 C2246 1.381 . S
C2244 C2250 1.383 . S
C2245 C2241 1.495 . S
C2245 H2251 0.959 . S
C2245 H2252 0.961 . S
C2245 H2253 0.960 . S
C2246 C2244 1.381 . S
C2246 C2247 1.394 . S
C2246 H2254 0.930 . S
C2247 C2246 1.394 . S
C2247 C2248 1.383 . S
C2247 H2255 0.929 . S
C2248 C2247 1.383 . S
C2248 C2249 1.377 . S
C2249 H2233 0.930 . S
C2249 C2248 1.377 . S
C2249 C2250 1.379 . S
C2250 H2234 0.931 . S
C2250 C2244 1.383 . S
C2250 C2249 1.379 . S
H2251 C2245 0.959 . S
H2252 C2245 0.961 . S
H2253 C2245 0.960 . S
H2254 C2246 0.930 . S
H2255 C2247 0.929 . S
H2256 C2264 0.929 . S
H2257 C2266 0.930 . S
H2258 C2268 0.930 . S
H2259 C2271 0.929 . S
H2260 C2274 0.930 . S
H2261 C2276 0.960 . S
H2262 C2276 0.960 . S
H2263 C2276 0.960 . S
C2264 H2256 0.929 . S
C2264 C2265 1.377 . S
C2264 C2266 1.384 . S
C2265 C2264 1.377 . S
C2265 C2271 1.390 . S
C2266 H2257 0.930 . S
C2266 C2264 1.384 . S
C2266 C2267 1.372 . S
C2267 C2266 1.372 . S
C2267 C2268 1.400 . S
C2267 C2272 1.490 . S
C2268 H2258 0.930 . S
C2268 C2267 1.400 . S
C2268 C2271 1.386 . S
H2269 C2285 0.930 . S
H2270 C2286 0.931 . S
C2271 H2259 0.929 . S
C2271 C2265 1.390 . S
C2271 C2268 1.386 . S
C2272 C2267 1.490 . S
C2272 C2274 1.395 . S
C2272 C2275 1.403 . S
H2273 C2279 0.930 . S
C2274 H2260 0.930 . S
C2274 C2272 1.395 . S
C2274 C2277 1.403 . S
C2275 C2272 1.403 . S
C2275 C2276 1.524 . S
C2275 C2279 1.400 . S
C2276 H2261 0.960 . S
C2276 H2262 0.960 . S
C2276 H2263 0.960 . S
C2276 C2275 1.524 . S
C2277 C2274 1.403 . S
C2277 C2278 1.392 . S
C2277 C2281 1.495 . S
C2278 C2277 1.392 . S
C2278 C2279 1.385 . S
C2278 C2280 1.478 . S
C2279 H2273 0.930 . S
C2279 C2275 1.400 . S
C2279 C2278 1.385 . S
C2280 C2278 1.478 . S
C2280 C2282 1.381 . S
C2280 C2286 1.383 . S
C2281 C2277 1.495 . S
C2281 H2287 0.959 . S
C2281 H2288 0.961 . S
C2281 H2289 0.960 . S
C2282 C2280 1.381 . S
C2282 C2283 1.394 . S
C2282 H2290 0.930 . S
C2283 C2282 1.394 . S
C2283 C2284 1.383 . S
C2283 H2291 0.929 . S
C2284 C2283 1.383 . S
C2284 C2285 1.377 . S
C2285 H2269 0.930 . S
C2285 C2284 1.377 . S
C2285 C2286 1.379 . S
C2286 H2270 0.931 . S
C2286 C2280 1.383 . S
C2286 C2285 1.379 . S
H2287 C2281 0.959 . S
H2288 C2281 0.961 . S
H2289 C2281 0.960 . S
H2290 C2282 0.930 . S
H2291 C2283 0.929 . S
H2292 C2300 0.929 . S
H2293 C2302 0.930 . S
H2294 C2304 0.930 . S
H2295 C2307 0.929 . S
H2296 C2310 0.930 . S
H2297 C2312 0.960 . S
H2298 C2312 0.960 . S
H2299 C2312 0.960 . S
C2300 H2292 0.929 . S
C2300 C2301 1.377 . S
C2300 C2302 1.384 . S
C2301 C2300 1.377 . S
C2301 C2307 1.390 . S
C2302 H2293 0.930 . S
C2302 C2300 1.384 . S
C2302 C2303 1.372 . S
C2303 C2302 1.372 . S
C2303 C2304 1.400 . S
C2303 C2308 1.490 . S
C2304 H2294 0.930 . S
C2304 C2303 1.400 . S
C2304 C2307 1.386 . S
H2305 C2321 0.930 . S
H2306 C2322 0.931 . S
C2307 H2295 0.929 . S
C2307 C2301 1.390 . S
C2307 C2304 1.386 . S
C2308 C2303 1.490 . S
C2308 C2310 1.395 . S
C2308 C2311 1.403 . S
H2309 C2315 0.930 . S
C2310 H2296 0.930 . S
C2310 C2308 1.395 . S
C2310 C2313 1.403 . S
C2311 C2308 1.403 . S
C2311 C2312 1.524 . S
C2311 C2315 1.400 . S
C2312 H2297 0.960 . S
C2312 H2298 0.960 . S
C2312 H2299 0.960 . S
C2312 C2311 1.524 . S
C2313 C2310 1.403 . S
C2313 C2314 1.392 . S
C2313 C2317 1.495 . S
C2314 C2313 1.392 . S
C2314 C2315 1.385 . S
C2314 C2316 1.478 . S
C2315 H2309 0.930 . S
C2315 C2311 1.400 . S
C2315 C2314 1.385 . S
C2316 C2314 1.478 . S
C2316 C2318 1.381 . S
C2316 C2322 1.383 . S
C2317 C2313 1.495 . S
C2317 H2323 0.959 . S
C2317 H2324 0.961 . S
C2317 H2325 0.960 . S
C2318 C2316 1.381 . S
C2318 C2319 1.394 . S
C2318 H2326 0.930 . S
C2319 C2318 1.394 . S
C2319 C2320 1.383 . S
C2319 H2327 0.929 . S
C2320 C2319 1.383 . S
C2320 C2321 1.377 . S
C2321 H2305 0.930 . S
C2321 C2320 1.377 . S
C2321 C2322 1.379 . S
C2322 H2306 0.931 . S
C2322 C2316 1.383 . S
C2322 C2321 1.379 . S
H2323 C2317 0.959 . S
H2324 C2317 0.961 . S
H2325 C2317 0.960 . S
H2326 C2318 0.930 . S
H2327 C2319 0.929 . S
H2328 C2336 0.929 . S
H2329 C2338 0.930 . S
H2330 C2340 0.930 . S
H2331 C2343 0.929 . S
H2332 C2346 0.930 . S
H2333 C2348 0.960 . S
H2334 C2348 0.960 . S
H2335 C2348 0.960 . S
C2336 H2328 0.929 . S
C2336 C2337 1.377 . S
C2336 C2338 1.384 . S
C2337 C2336 1.377 . S
C2337 C2343 1.390 . S
C2338 H2329 0.930 . S
C2338 C2336 1.384 . S
C2338 C2339 1.372 . S
C2339 C2338 1.372 . S
C2339 C2340 1.400 . S
C2339 C2344 1.490 . S
C2340 H2330 0.930 . S
C2340 C2339 1.400 . S
C2340 C2343 1.386 . S
H2341 C2357 0.930 . S
H2342 C2358 0.931 . S
C2343 H2331 0.929 . S
C2343 C2337 1.390 . S
C2343 C2340 1.386 . S
C2344 C2339 1.490 . S
C2344 C2346 1.395 . S
C2344 C2347 1.403 . S
H2345 C2351 0.930 . S
C2346 H2332 0.930 . S
C2346 C2344 1.395 . S
C2346 C2349 1.403 . S
C2347 C2344 1.403 . S
C2347 C2348 1.524 . S
C2347 C2351 1.400 . S
C2348 H2333 0.960 . S
C2348 H2334 0.960 . S
C2348 H2335 0.960 . S
C2348 C2347 1.524 . S
C2349 C2346 1.403 . S
C2349 C2350 1.392 . S
C2349 C2353 1.495 . S
C2350 C2349 1.392 . S
C2350 C2351 1.385 . S
C2350 C2352 1.478 . S
C2351 H2345 0.930 . S
C2351 C2347 1.400 . S
C2351 C2350 1.385 . S
C2352 C2350 1.478 . S
C2352 C2354 1.381 . S
C2352 C2358 1.383 . S
C2353 C2349 1.495 . S
C2353 H2359 0.959 . S
C2353 H2360 0.961 . S
C2353 H2361 0.960 . S
C2354 C2352 1.381 . S
C2354 C2355 1.394 . S
C2354 H2362 0.930 . S
C2355 C2354 1.394 . S
C2355 C2356 1.383 . S
C2355 H2363 0.929 . S
C2356 C2355 1.383 . S
C2356 C2357 1.377 . S
C2357 H2341 0.930 . S
C2357 C2356 1.377 . S
C2357 C2358 1.379 . S
C2358 H2342 0.931 . S
C2358 C2352 1.383 . S
C2358 C2357 1.379 . S
H2359 C2353 0.959 . S
H2360 C2353 0.961 . S
H2361 C2353 0.960 . S
H2362 C2354 0.930 . S
H2363 C2355 0.929 . S
H2364 C2372 0.929 . S
H2365 C2374 0.930 . S
H2366 C2376 0.930 . S
H2367 C2379 0.929 . S
H2368 C2382 0.930 . S
H2369 C2384 0.960 . S
H2370 C2384 0.960 . S
H2371 C2384 0.960 . S
C2372 H2364 0.929 . S
C2372 C2373 1.377 . S
C2372 C2374 1.384 . S
C2373 C2372 1.377 . S
C2373 C2379 1.390 . S
C2374 H2365 0.930 . S
C2374 C2372 1.384 . S
C2374 C2375 1.372 . S
C2375 C2374 1.372 . S
C2375 C2376 1.400 . S
C2375 C2380 1.490 . S
C2376 H2366 0.930 . S
C2376 C2375 1.400 . S
C2376 C2379 1.386 . S
H2377 C2393 0.930 . S
H2378 C2394 0.931 . S
C2379 H2367 0.929 . S
C2379 C2373 1.390 . S
C2379 C2376 1.386 . S
C2380 C2375 1.490 . S
C2380 C2382 1.395 . S
C2380 C2383 1.403 . S
H2381 C2387 0.930 . S
C2382 H2368 0.930 . S
C2382 C2380 1.395 . S
C2382 C2385 1.403 . S
C2383 C2380 1.403 . S
C2383 C2384 1.524 . S
C2383 C2387 1.400 . S
C2384 H2369 0.960 . S
C2384 H2370 0.960 . S
C2384 H2371 0.960 . S
C2384 C2383 1.524 . S
C2385 C2382 1.403 . S
C2385 C2386 1.392 . S
C2385 C2389 1.495 . S
C2386 C2385 1.392 . S
C2386 C2387 1.385 . S
C2386 C2388 1.478 . S
C2387 H2381 0.930 . S
C2387 C2383 1.400 . S
C2387 C2386 1.385 . S
C2388 C2386 1.478 . S
C2388 C2390 1.381 . S
C2388 C2394 1.383 . S
C2389 C2385 1.495 . S
C2389 H2395 0.959 . S
C2389 H2396 0.961 . S
C2389 H2397 0.960 . S
C2390 C2388 1.381 . S
C2390 C2391 1.394 . S
C2390 H2398 0.930 . S
C2391 C2390 1.394 . S
C2391 C2392 1.383 . S
C2391 H2399 0.929 . S
C2392 C2391 1.383 . S
C2392 C2393 1.377 . S
C2393 H2377 0.930 . S
C2393 C2392 1.377 . S
C2393 C2394 1.379 . S
C2394 H2378 0.931 . S
C2394 C2388 1.383 . S
C2394 C2393 1.379 . S
H2395 C2389 0.959 . S
H2396 C2389 0.961 . S
H2397 C2389 0.960 . S
H2398 C2390 0.930 . S
H2399 C2391 0.929 . S
H2400 C2408 0.929 . S
H2401 C2410 0.930 . S
H2402 C2412 0.930 . S
H2403 C2415 0.929 . S
H2404 C2418 0.930 . S
H2405 C2420 0.960 . S
H2406 C2420 0.960 . S
H2407 C2420 0.960 . S
C2408 H2400 0.929 . S
C2408 C2409 1.377 . S
C2408 C2410 1.384 . S
C2409 C2408 1.377 . S
C2409 C2415 1.390 . S
C2410 H2401 0.930 . S
C2410 C2408 1.384 . S
C2410 C2411 1.372 . S
C2411 C2410 1.372 . S
C2411 C2412 1.400 . S
C2411 C2416 1.490 . S
C2412 H2402 0.930 . S
C2412 C2411 1.400 . S
C2412 C2415 1.386 . S
H2413 C2429 0.930 . S
H2414 C2430 0.931 . S
C2415 H2403 0.929 . S
C2415 C2409 1.390 . S
C2415 C2412 1.386 . S
C2416 C2411 1.490 . S
C2416 C2418 1.395 . S
C2416 C2419 1.403 . S
H2417 C2423 0.930 . S
C2418 H2404 0.930 . S
C2418 C2416 1.395 . S
C2418 C2421 1.403 . S
C2419 C2416 1.403 . S
C2419 C2420 1.524 . S
C2419 C2423 1.400 . S
C2420 H2405 0.960 . S
C2420 H2406 0.960 . S
C2420 H2407 0.960 . S
C2420 C2419 1.524 . S
C2421 C2418 1.403 . S
C2421 C2422 1.392 . S
C2421 C2425 1.495 . S
C2422 C2421 1.392 . S
C2422 C2423 1.385 . S
C2422 C2424 1.478 . S
C2423 H2417 0.930 . S
C2423 C2419 1.400 . S
C2423 C2422 1.385 . S
C2424 C2422 1.478 . S
C2424 C2426 1.381 . S
C2424 C2430 1.383 . S
C2425 C2421 1.495 . S
C2425 H2431 0.959 . S
C2425 H2432 0.961 . S
C2425 H2433 0.960 . S
C2426 C2424 1.381 . S
C2426 C2427 1.394 . S
C2426 H2434 0.930 . S
C2427 C2426 1.394 . S
C2427 C2428 1.383 . S
C2427 H2435 0.929 . S
C2428 C2427 1.383 . S
C2428 C2429 1.377 . S
C2429 H2413 0.930 . S
C2429 C2428 1.377 . S
C2429 C2430 1.379 . S
C2430 H2414 0.931 . S
C2430 C2424 1.383 . S
C2430 C2429 1.379 . S
H2431 C2425 0.959 . S
H2432 C2425 0.961 . S
H2433 C2425 0.960 . S
H2434 C2426 0.930 . S
H2435 C2427 0.929 . S
H2436 C2444 0.929 . S
H2437 C2446 0.930 . S
H2438 C2448 0.930 . S
H2439 C2451 0.929 . S
H2440 C2454 0.930 . S
H2441 C2456 0.960 . S
H2442 C2456 0.960 . S
H2443 C2456 0.960 . S
C2444 H2436 0.929 . S
C2444 C2445 1.377 . S
C2444 C2446 1.384 . S
C2445 C2444 1.377 . S
C2445 C2451 1.390 . S
C2446 H2437 0.930 . S
C2446 C2444 1.384 . S
C2446 C2447 1.372 . S
C2447 C2446 1.372 . S
C2447 C2448 1.400 . S
C2447 C2452 1.490 . S
C2448 H2438 0.930 . S
C2448 C2447 1.400 . S
C2448 C2451 1.386 . S
H2449 C2465 0.930 . S
H2450 C2466 0.931 . S
C2451 H2439 0.929 . S
C2451 C2445 1.390 . S
C2451 C2448 1.386 . S
C2452 C2447 1.490 . S
C2452 C2454 1.395 . S
C2452 C2455 1.403 . S
H2453 C2459 0.930 . S
C2454 H2440 0.930 . S
C2454 C2452 1.395 . S
C2454 C2457 1.403 . S
C2455 C2452 1.403 . S
C2455 C2456 1.524 . S
C2455 C2459 1.400 . S
C2456 H2441 0.960 . S
C2456 H2442 0.960 . S
C2456 H2443 0.960 . S
C2456 C2455 1.524 . S
C2457 C2454 1.403 . S
C2457 C2458 1.392 . S
C2457 C2461 1.495 . S
C2458 C2457 1.392 . S
C2458 C2459 1.385 . S
C2458 C2460 1.478 . S
C2459 H2453 0.930 . S
C2459 C2455 1.400 . S
C2459 C2458 1.385 . S
C2460 C2458 1.478 . S
C2460 C2462 1.381 . S
C2460 C2466 1.383 . S
C2461 C2457 1.495 . S
C2461 H2467 0.959 . S
C2461 H2468 0.961 . S
C2461 H2469 0.960 . S
C2462 C2460 1.381 . S
C2462 C2463 1.394 . S
C2462 H2470 0.930 . S
C2463 C2462 1.394 . S
C2463 C2464 1.383 . S
C2463 H2471 0.929 . S
C2464 C2463 1.383 . S
C2464 C2465 1.377 . S
C2465 H2449 0.930 . S
C2465 C2464 1.377 . S
C2465 C2466 1.379 . S
C2466 H2450 0.931 . S
C2466 C2460 1.383 . S
C2466 C2465 1.379 . S
H2467 C2461 0.959 . S
H2468 C2461 0.961 . S
H2469 C2461 0.960 . S
H2470 C2462 0.930 . S
H2471 C2463 0.929 . S
H2472 C2480 0.929 . S
H2473 C2482 0.930 . S
H2474 C2484 0.930 . S
H2475 C2487 0.929 . S
H2476 C2490 0.930 . S
H2477 C2492 0.960 . S
H2478 C2492 0.960 . S
H2479 C2492 0.960 . S
C2480 H2472 0.929 . S
C2480 C2481 1.377 . S
C2480 C2482 1.384 . S
C2481 C2480 1.377 . S
C2481 C2487 1.390 . S
C2482 H2473 0.930 . S
C2482 C2480 1.384 . S
C2482 C2483 1.372 . S
C2483 C2482 1.372 . S
C2483 C2484 1.400 . S
C2483 C2488 1.490 . S
C2484 H2474 0.930 . S
C2484 C2483 1.400 . S
C2484 C2487 1.386 . S
H2485 C2501 0.930 . S
H2486 C2502 0.931 . S
C2487 H2475 0.929 . S
C2487 C2481 1.390 . S
C2487 C2484 1.386 . S
C2488 C2483 1.490 . S
C2488 C2490 1.395 . S
C2488 C2491 1.403 . S
H2489 C2495 0.930 . S
C2490 H2476 0.930 . S
C2490 C2488 1.395 . S
C2490 C2493 1.403 . S
C2491 C2488 1.403 . S
C2491 C2492 1.524 . S
C2491 C2495 1.400 . S
C2492 H2477 0.960 . S
C2492 H2478 0.960 . S
C2492 H2479 0.960 . S
C2492 C2491 1.524 . S
C2493 C2490 1.403 . S
C2493 C2494 1.392 . S
C2493 C2497 1.495 . S
C2494 C2493 1.392 . S
C2494 C2495 1.385 . S
C2494 C2496 1.478 . S
C2495 H2489 0.930 . S
C2495 C2491 1.400 . S
C2495 C2494 1.385 . S
C2496 C2494 1.478 . S
C2496 C2498 1.381 . S
C2496 C2502 1.383 . S
C2497 C2493 1.495 . S
C2497 H2503 0.959 . S
C2497 H2504 0.961 . S
C2497 H2505 0.960 . S
C2498 C2496 1.381 . S
C2498 C2499 1.394 . S
C2498 H2506 0.930 . S
C2499 C2498 1.394 . S
C2499 C2500 1.383 . S
C2499 H2507 0.929 . S
C2500 C2499 1.383 . S
C2500 C2501 1.377 . S
C2501 H2485 0.930 . S
C2501 C2500 1.377 . S
C2501 C2502 1.379 . S
C2502 H2486 0.931 . S
C2502 C2496 1.383 . S
C2502 C2501 1.379 . S
H2503 C2497 0.959 . S
H2504 C2497 0.961 . S
H2505 C2497 0.960 . S
H2506 C2498 0.930 . S
H2507 C2499 0.929 . S
H2508 C2516 0.929 . S
H2509 C2518 0.930 . S
H2510 C2520 0.930 . S
H2511 C2523 0.929 . S
H2512 C2526 0.930 . S
H2513 C2528 0.960 . S
H2514 C2528 0.960 . S
H2515 C2528 0.960 . S
C2516 H2508 0.929 . S
C2516 C2517 1.377 . S
C2516 C2518 1.384 . S
C2517 C2516 1.377 . S
C2517 C2523 1.390 . S
C2518 H2509 0.930 . S
C2518 C2516 1.384 . S
C2518 C2519 1.372 . S
C2519 C2518 1.372 . S
C2519 C2520 1.400 . S
C2519 C2524 1.490 . S
C2520 H2510 0.930 . S
C2520 C2519 1.400 . S
C2520 C2523 1.386 . S
H2521 C2537 0.930 . S
H2522 C2538 0.931 . S
C2523 H2511 0.929 . S
C2523 C2517 1.390 . S
C2523 C2520 1.386 . S
C2524 C2519 1.490 . S
C2524 C2526 1.395 . S
C2524 C2527 1.403 . S
H2525 C2531 0.930 . S
C2526 H2512 0.930 . S
C2526 C2524 1.395 . S
C2526 C2529 1.403 . S
C2527 C2524 1.403 . S
C2527 C2528 1.524 . S
C2527 C2531 1.400 . S
C2528 H2513 0.960 . S
C2528 H2514 0.960 . S
C2528 H2515 0.960 . S
C2528 C2527 1.524 . S
C2529 C2526 1.403 . S
C2529 C2530 1.392 . S
C2529 C2533 1.495 . S
C2530 C2529 1.392 . S
C2530 C2531 1.385 . S
C2530 C2532 1.478 . S
C2531 H2525 0.930 . S
C2531 C2527 1.400 . S
C2531 C2530 1.385 . S
C2532 C2530 1.478 . S
C2532 C2534 1.381 . S
C2532 C2538 1.383 . S
C2533 C2529 1.495 . S
C2533 H2539 0.959 . S
C2533 H2540 0.961 . S
C2533 H2541 0.960 . S
C2534 C2532 1.381 . S
C2534 C2535 1.394 . S
C2534 H2542 0.930 . S
C2535 C2534 1.394 . S
C2535 C2536 1.383 . S
C2535 H2543 0.929 . S
C2536 C2535 1.383 . S
C2536 C2537 1.377 . S
C2537 H2521 0.930 . S
C2537 C2536 1.377 . S
C2537 C2538 1.379 . S
C2538 H2522 0.931 . S
C2538 C2532 1.383 . S
C2538 C2537 1.379 . S
H2539 C2533 0.959 . S
H2540 C2533 0.961 . S
H2541 C2533 0.960 . S
H2542 C2534 0.930 . S
H2543 C2535 0.929 . S
H2544 C2552 0.929 . S
H2545 C2554 0.930 . S
H2546 C2556 0.930 . S
H2547 C2559 0.929 . S
H2548 C2562 0.930 . S
H2549 C2564 0.960 . S
H2550 C2564 0.960 . S
H2551 C2564 0.960 . S
C2552 H2544 0.929 . S
C2552 C2553 1.377 . S
C2552 C2554 1.384 . S
C2553 C2552 1.377 . S
C2553 C2559 1.390 . S
C2554 H2545 0.930 . S
C2554 C2552 1.384 . S
C2554 C2555 1.372 . S
C2555 C2554 1.372 . S
C2555 C2556 1.400 . S
C2555 C2560 1.490 . S
C2556 H2546 0.930 . S
C2556 C2555 1.400 . S
C2556 C2559 1.386 . S
H2557 C2573 0.930 . S
H2558 C2574 0.931 . S
C2559 H2547 0.929 . S
C2559 C2553 1.390 . S
C2559 C2556 1.386 . S
C2560 C2555 1.490 . S
C2560 C2562 1.395 . S
C2560 C2563 1.403 . S
H2561 C2567 0.930 . S
C2562 H2548 0.930 . S
C2562 C2560 1.395 . S
C2562 C2565 1.403 . S
C2563 C2560 1.403 . S
C2563 C2564 1.524 . S
C2563 C2567 1.400 . S
C2564 H2549 0.960 . S
C2564 H2550 0.960 . S
C2564 H2551 0.960 . S
C2564 C2563 1.524 . S
C2565 C2562 1.403 . S
C2565 C2566 1.392 . S
C2565 C2569 1.495 . S
C2566 C2565 1.392 . S
C2566 C2567 1.385 . S
C2566 C2568 1.478 . S
C2567 H2561 0.930 . S
C2567 C2563 1.400 . S
C2567 C2566 1.385 . S
C2568 C2566 1.478 . S
C2568 C2570 1.381 . S
C2568 C2574 1.383 . S
C2569 C2565 1.495 . S
C2569 H2575 0.959 . S
C2569 H2576 0.961 . S
C2569 H2577 0.960 . S
C2570 C2568 1.381 . S
C2570 C2571 1.394 . S
C2570 H2578 0.930 . S
C2571 C2570 1.394 . S
C2571 C2572 1.383 . S
C2571 H2579 0.929 . S
C2572 C2571 1.383 . S
C2572 C2573 1.377 . S
C2573 H2557 0.930 . S
C2573 C2572 1.377 . S
C2573 C2574 1.379 . S
C2574 H2558 0.931 . S
C2574 C2568 1.383 . S
C2574 C2573 1.379 . S
H2575 C2569 0.959 . S
H2576 C2569 0.961 . S
H2577 C2569 0.960 . S
H2578 C2570 0.930 . S
H2579 C2571 0.929 . S
H2580 C2588 0.929 . S
H2581 C2590 0.930 . S
H2582 C2592 0.930 . S
H2583 C2595 0.929 . S
H2584 C2598 0.930 . S
H2585 C2600 0.960 . S
H2586 C2600 0.960 . S
H2587 C2600 0.960 . S
C2588 H2580 0.929 . S
C2588 C2589 1.377 . S
C2588 C2590 1.384 . S
C2589 C2588 1.377 . S
C2589 C2595 1.390 . S
C2590 H2581 0.930 . S
C2590 C2588 1.384 . S
C2590 C2591 1.372 . S
C2591 C2590 1.372 . S
C2591 C2592 1.400 . S
C2591 C2596 1.490 . S
C2592 H2582 0.930 . S
C2592 C2591 1.400 . S
C2592 C2595 1.386 . S
H2593 C2609 0.930 . S
H2594 C2610 0.931 . S
C2595 H2583 0.929 . S
C2595 C2589 1.390 . S
C2595 C2592 1.386 . S
C2596 C2591 1.490 . S
C2596 C2598 1.395 . S
C2596 C2599 1.403 . S
H2597 C2603 0.930 . S
C2598 H2584 0.930 . S
C2598 C2596 1.395 . S
C2598 C2601 1.403 . S
C2599 C2596 1.403 . S
C2599 C2600 1.524 . S
C2599 C2603 1.400 . S
C2600 H2585 0.960 . S
C2600 H2586 0.960 . S
C2600 H2587 0.960 . S
C2600 C2599 1.524 . S
C2601 C2598 1.403 . S
C2601 C2602 1.392 . S
C2601 C2605 1.495 . S
C2602 C2601 1.392 . S
C2602 C2603 1.385 . S
C2602 C2604 1.478 . S
C2603 H2597 0.930 . S
C2603 C2599 1.400 . S
C2603 C2602 1.385 . S
C2604 C2602 1.478 . S
C2604 C2606 1.381 . S
C2604 C2610 1.383 . S
C2605 C2601 1.495 . S
C2605 H2611 0.959 . S
C2605 H2612 0.961 . S
C2605 H2613 0.960 . S
C2606 C2604 1.381 . S
C2606 C2607 1.394 . S
C2606 H2614 0.930 . S
C2607 C2606 1.394 . S
C2607 C2608 1.383 . S
C2607 H2615 0.929 . S
C2608 C2607 1.383 . S
C2608 C2609 1.377 . S
C2609 H2593 0.930 . S
C2609 C2608 1.377 . S
C2609 C2610 1.379 . S
C2610 H2594 0.931 . S
C2610 C2604 1.383 . S
C2610 C2609 1.379 . S
H2611 C2605 0.959 . S
H2612 C2605 0.961 . S
H2613 C2605 0.960 . S
H2614 C2606 0.930 . S
H2615 C2607 0.929 . S
H2616 C2624 0.929 . S
H2617 C2626 0.930 . S
H2618 C2628 0.930 . S
H2619 C2631 0.929 . S
H2620 C2634 0.930 . S
H2621 C2636 0.960 . S
H2622 C2636 0.960 . S
H2623 C2636 0.960 . S
C2624 H2616 0.929 . S
C2624 C2625 1.377 . S
C2624 C2626 1.384 . S
C2625 C2624 1.377 . S
C2625 C2631 1.390 . S
C2626 H2617 0.930 . S
C2626 C2624 1.384 . S
C2626 C2627 1.372 . S
C2627 C2626 1.372 . S
C2627 C2628 1.400 . S
C2627 C2632 1.490 . S
C2628 H2618 0.930 . S
C2628 C2627 1.400 . S
C2628 C2631 1.386 . S
H2629 C2645 0.930 . S
H2630 C2646 0.931 . S
C2631 H2619 0.929 . S
C2631 C2625 1.390 . S
C2631 C2628 1.386 . S
C2632 C2627 1.490 . S
C2632 C2634 1.395 . S
C2632 C2635 1.403 . S
H2633 C2639 0.930 . S
C2634 H2620 0.930 . S
C2634 C2632 1.395 . S
C2634 C2637 1.403 . S
C2635 C2632 1.403 . S
C2635 C2636 1.524 . S
C2635 C2639 1.400 . S
C2636 H2621 0.960 . S
C2636 H2622 0.960 . S
C2636 H2623 0.960 . S
C2636 C2635 1.524 . S
C2637 C2634 1.403 . S
C2637 C2638 1.392 . S
C2637 C2641 1.495 . S
C2638 C2637 1.392 . S
C2638 C2639 1.385 . S
C2638 C2640 1.478 . S
C2639 H2633 0.930 . S
C2639 C2635 1.400 . S
C2639 C2638 1.385 . S
C2640 C2638 1.478 . S
C2640 C2642 1.381 . S
C2640 C2646 1.383 . S
C2641 C2637 1.495 . S
C2641 H2647 0.959 . S
C2641 H2648 0.961 . S
C2641 H2649 0.960 . S
C2642 C2640 1.381 . S
C2642 C2643 1.394 . S
C2642 H2650 0.930 . S
C2643 C2642 1.394 . S
C2643 C2644 1.383 . S
C2643 H2651 0.929 . S
C2644 C2643 1.383 . S
C2644 C2645 1.377 . S
C2645 H2629 0.930 . S
C2645 C2644 1.377 . S
C2645 C2646 1.379 . S
C2646 H2630 0.931 . S
C2646 C2640 1.383 . S
C2646 C2645 1.379 . S
H2647 C2641 0.959 . S
H2648 C2641 0.961 . S
H2649 C2641 0.960 . S
H2650 C2642 0.930 . S
H2651 C2643 0.929 . S
H2652 C2660 0.929 . S
H2653 C2662 0.930 . S
H2654 C2664 0.930 . S
H2655 C2667 0.929 . S
H2656 C2670 0.930 . S
H2657 C2672 0.960 . S
H2658 C2672 0.960 . S
H2659 C2672 0.960 . S
C2660 H2652 0.929 . S
C2660 C2661 1.377 . S
C2660 C2662 1.384 . S
C2661 C2660 1.377 . S
C2661 C2667 1.390 . S
C2662 H2653 0.930 . S
C2662 C2660 1.384 . S
C2662 C2663 1.372 . S
C2663 C2662 1.372 . S
C2663 C2664 1.400 . S
C2663 C2668 1.490 . S
C2664 H2654 0.930 . S
C2664 C2663 1.400 . S
C2664 C2667 1.386 . S
H2665 C2681 0.930 . S
H2666 C2682 0.931 . S
C2667 H2655 0.929 . S
C2667 C2661 1.390 . S
C2667 C2664 1.386 . S
C2668 C2663 1.490 . S
C2668 C2670 1.395 . S
C2668 C2671 1.403 . S
H2669 C2675 0.930 . S
C2670 H2656 0.930 . S
C2670 C2668 1.395 . S
C2670 C2673 1.403 . S
C2671 C2668 1.403 . S
C2671 C2672 1.524 . S
C2671 C2675 1.400 . S
C2672 H2657 0.960 . S
C2672 H2658 0.960 . S
C2672 H2659 0.960 . S
C2672 C2671 1.524 . S
C2673 C2670 1.403 . S
C2673 C2674 1.392 . S
C2673 C2677 1.495 . S
C2674 C2673 1.392 . S
C2674 C2675 1.385 . S
C2674 C2676 1.478 . S
C2675 H2669 0.930 . S
C2675 C2671 1.400 . S
C2675 C2674 1.385 . S
C2676 C2674 1.478 . S
C2676 C2678 1.381 . S
C2676 C2682 1.383 . S
C2677 C2673 1.495 . S
C2677 H2683 0.959 . S
C2677 H2684 0.961 . S
C2677 H2685 0.960 . S
C2678 C2676 1.381 . S
C2678 C2679 1.394 . S
C2678 H2686 0.930 . S
C2679 C2678 1.394 . S
C2679 C2680 1.383 . S
C2679 H2687 0.929 . S
C2680 C2679 1.383 . S
C2680 C2681 1.377 . S
C2681 H2665 0.930 . S
C2681 C2680 1.377 . S
C2681 C2682 1.379 . S
C2682 H2666 0.931 . S
C2682 C2676 1.383 . S
C2682 C2681 1.379 . S
H2683 C2677 0.959 . S
H2684 C2677 0.961 . S
H2685 C2677 0.960 . S
H2686 C2678 0.930 . S
H2687 C2679 0.929 . S
H2688 C2696 0.929 . S
H2689 C2698 0.930 . S
H2690 C2700 0.930 . S
H2691 C2703 0.929 . S
H2692 C2706 0.930 . S
H2693 C2708 0.960 . S
H2694 C2708 0.960 . S
H2695 C2708 0.960 . S
C2696 H2688 0.929 . S
C2696 C2697 1.377 . S
C2696 C2698 1.384 . S
C2697 C2696 1.377 . S
C2697 C2703 1.390 . S
C2698 H2689 0.930 . S
C2698 C2696 1.384 . S
C2698 C2699 1.372 . S
C2699 C2698 1.372 . S
C2699 C2700 1.400 . S
C2699 C2704 1.490 . S
C2700 H2690 0.930 . S
C2700 C2699 1.400 . S
C2700 C2703 1.386 . S
H2701 C2717 0.930 . S
H2702 C2718 0.931 . S
C2703 H2691 0.929 . S
C2703 C2697 1.390 . S
C2703 C2700 1.386 . S
C2704 C2699 1.490 . S
C2704 C2706 1.395 . S
C2704 C2707 1.403 . S
H2705 C2711 0.930 . S
C2706 H2692 0.930 . S
C2706 C2704 1.395 . S
C2706 C2709 1.403 . S
C2707 C2704 1.403 . S
C2707 C2708 1.524 . S
C2707 C2711 1.400 . S
C2708 H2693 0.960 . S
C2708 H2694 0.960 . S
C2708 H2695 0.960 . S
C2708 C2707 1.524 . S
C2709 C2706 1.403 . S
C2709 C2710 1.392 . S
C2709 C2713 1.495 . S
C2710 C2709 1.392 . S
C2710 C2711 1.385 . S
C2710 C2712 1.478 . S
C2711 H2705 0.930 . S
C2711 C2707 1.400 . S
C2711 C2710 1.385 . S
C2712 C2710 1.478 . S
C2712 C2714 1.381 . S
C2712 C2718 1.383 . S
C2713 C2709 1.495 . S
C2713 H2719 0.959 . S
C2713 H2720 0.961 . S
C2713 H2721 0.960 . S
C2714 C2712 1.381 . S
C2714 C2715 1.394 . S
C2714 H2722 0.930 . S
C2715 C2714 1.394 . S
C2715 C2716 1.383 . S
C2715 H2723 0.929 . S
C2716 C2715 1.383 . S
C2716 C2717 1.377 . S
C2717 H2701 0.930 . S
C2717 C2716 1.377 . S
C2717 C2718 1.379 . S
C2718 H2702 0.931 . S
C2718 C2712 1.383 . S
C2718 C2717 1.379 . S
H2719 C2713 0.959 . S
H2720 C2713 0.961 . S
H2721 C2713 0.960 . S
H2722 C2714 0.930 . S
H2723 C2715 0.929 . S
H2724 C2732 0.929 . S
H2725 C2734 0.930 . S
H2726 C2736 0.930 . S
H2727 C2739 0.929 . S
H2728 C2742 0.930 . S
H2729 C2744 0.960 . S
H2730 C2744 0.960 . S
H2731 C2744 0.960 . S
C2732 H2724 0.929 . S
C2732 C2733 1.377 . S
C2732 C2734 1.384 . S
C2733 C2732 1.377 . S
C2733 C2739 1.390 . S
C2734 H2725 0.930 . S
C2734 C2732 1.384 . S
C2734 C2735 1.372 . S
C2735 C2734 1.372 . S
C2735 C2736 1.400 . S
C2735 C2740 1.490 . S
C2736 H2726 0.930 . S
C2736 C2735 1.400 . S
C2736 C2739 1.386 . S
H2737 C2753 0.930 . S
H2738 C2754 0.931 . S
C2739 H2727 0.929 . S
C2739 C2733 1.390 . S
C2739 C2736 1.386 . S
C2740 C2735 1.490 . S
C2740 C2742 1.395 . S
C2740 C2743 1.403 . S
H2741 C2747 0.930 . S
C2742 H2728 0.930 . S
C2742 C2740 1.395 . S
C2742 C2745 1.403 . S
C2743 C2740 1.403 . S
C2743 C2744 1.524 . S
C2743 C2747 1.400 . S
C2744 H2729 0.960 . S
C2744 H2730 0.960 . S
C2744 H2731 0.960 . S
C2744 C2743 1.524 . S
C2745 C2742 1.403 . S
C2745 C2746 1.392 . S
C2745 C2749 1.495 . S
C2746 C2745 1.392 . S
C2746 C2747 1.385 . S
C2746 C2748 1.478 . S
C2747 H2741 0.930 . S
C2747 C2743 1.400 . S
C2747 C2746 1.385 . S
C2748 C2746 1.478 . S
C2748 C2750 1.381 . S
C2748 C2754 1.383 . S
C2749 C2745 1.495 . S
C2749 H2755 0.959 . S
C2749 H2756 0.961 . S
C2749 H2757 0.960 . S
C2750 C2748 1.381 . S
C2750 C2751 1.394 . S
C2750 H2758 0.930 . S
C2751 C2750 1.394 . S
C2751 C2752 1.383 . S
C2751 H2759 0.929 . S
C2752 C2751 1.383 . S
C2752 C2753 1.377 . S
C2753 H2737 0.930 . S
C2753 C2752 1.377 . S
C2753 C2754 1.379 . S
C2754 H2738 0.931 . S
C2754 C2748 1.383 . S
C2754 C2753 1.379 . S
H2755 C2749 0.959 . S
H2756 C2749 0.961 . S
H2757 C2749 0.960 . S
H2758 C2750 0.930 . S
H2759 C2751 0.929 . S
H2760 C2768 0.929 . S
H2761 C2770 0.930 . S
H2762 C2772 0.930 . S
H2763 C2775 0.929 . S
H2764 C2778 0.930 . S
H2765 C2780 0.960 . S
H2766 C2780 0.960 . S
H2767 C2780 0.960 . S
C2768 H2760 0.929 . S
C2768 C2769 1.377 . S
C2768 C2770 1.384 . S
C2769 C2768 1.377 . S
C2769 C2775 1.390 . S
C2770 H2761 0.930 . S
C2770 C2768 1.384 . S
C2770 C2771 1.372 . S
C2771 C2770 1.372 . S
C2771 C2772 1.400 . S
C2771 C2776 1.490 . S
C2772 H2762 0.930 . S
C2772 C2771 1.400 . S
C2772 C2775 1.386 . S
H2773 C2789 0.930 . S
H2774 C2790 0.931 . S
C2775 H2763 0.929 . S
C2775 C2769 1.390 . S
C2775 C2772 1.386 . S
C2776 C2771 1.490 . S
C2776 C2778 1.395 . S
C2776 C2779 1.403 . S
H2777 C2783 0.930 . S
C2778 H2764 0.930 . S
C2778 C2776 1.395 . S
C2778 C2781 1.403 . S
C2779 C2776 1.403 . S
C2779 C2780 1.524 . S
C2779 C2783 1.400 . S
C2780 H2765 0.960 . S
C2780 H2766 0.960 . S
C2780 H2767 0.960 . S
C2780 C2779 1.524 . S
C2781 C2778 1.403 . S
C2781 C2782 1.392 . S
C2781 C2785 1.495 . S
C2782 C2781 1.392 . S
C2782 C2783 1.385 . S
C2782 C2784 1.478 . S
C2783 H2777 0.930 . S
C2783 C2779 1.400 . S
C2783 C2782 1.385 . S
C2784 C2782 1.478 . S
C2784 C2786 1.381 . S
C2784 C2790 1.383 . S
C2785 C2781 1.495 . S
C2785 H2791 0.959 . S
C2785 H2792 0.961 . S
C2785 H2793 0.960 . S
C2786 C2784 1.381 . S
C2786 C2787 1.394 . S
C2786 H2794 0.930 . S
C2787 C2786 1.394 . S
C2787 C2788 1.383 . S
C2787 H2795 0.929 . S
C2788 C2787 1.383 . S
C2788 C2789 1.377 . S
C2789 H2773 0.930 . S
C2789 C2788 1.377 . S
C2789 C2790 1.379 . S
C2790 H2774 0.931 . S
C2790 C2784 1.383 . S
C2790 C2789 1.379 . S
H2791 C2785 0.959 . S
H2792 C2785 0.961 . S
H2793 C2785 0.960 . S
H2794 C2786 0.930 . S
H2795 C2787 0.929 . S
H2796 C2804 0.929 . S
H2797 C2806 0.930 . S
H2798 C2808 0.930 . S
H2799 C2811 0.929 . S
H2800 C2814 0.930 . S
H2801 C2816 0.960 . S
H2802 C2816 0.960 . S
H2803 C2816 0.960 . S
C2804 H2796 0.929 . S
C2804 C2805 1.377 . S
C2804 C2806 1.384 . S
C2805 C2804 1.377 . S
C2805 C2811 1.390 . S
C2806 H2797 0.930 . S
C2806 C2804 1.384 . S
C2806 C2807 1.372 . S
C2807 C2806 1.372 . S
C2807 C2808 1.400 . S
C2807 C2812 1.490 . S
C2808 H2798 0.930 . S
C2808 C2807 1.400 . S
C2808 C2811 1.386 . S
H2809 C2825 0.930 . S
H2810 C2826 0.931 . S
C2811 H2799 0.929 . S
C2811 C2805 1.390 . S
C2811 C2808 1.386 . S
C2812 C2807 1.490 . S
C2812 C2814 1.395 . S
C2812 C2815 1.403 . S
H2813 C2819 0.930 . S
C2814 H2800 0.930 . S
C2814 C2812 1.395 . S
C2814 C2817 1.403 . S
C2815 C2812 1.403 . S
C2815 C2816 1.524 . S
C2815 C2819 1.400 . S
C2816 H2801 0.960 . S
C2816 H2802 0.960 . S
C2816 H2803 0.960 . S
C2816 C2815 1.524 . S
C2817 C2814 1.403 . S
C2817 C2818 1.392 . S
C2817 C2821 1.495 . S
C2818 C2817 1.392 . S
C2818 C2819 1.385 . S
C2818 C2820 1.478 . S
C2819 H2813 0.930 . S
C2819 C2815 1.400 . S
C2819 C2818 1.385 . S
C2820 C2818 1.478 . S
C2820 C2822 1.381 . S
C2820 C2826 1.383 . S
C2821 C2817 1.495 . S
C2821 H2827 0.959 . S
C2821 H2828 0.961 . S
C2821 H2829 0.960 . S
C2822 C2820 1.381 . S
C2822 C2823 1.394 . S
C2822 H2830 0.930 . S
C2823 C2822 1.394 . S
C2823 C2824 1.383 . S
C2823 H2831 0.929 . S
C2824 C2823 1.383 . S
C2824 C2825 1.377 . S
C2825 H2809 0.930 . S
C2825 C2824 1.377 . S
C2825 C2826 1.379 . S
C2826 H2810 0.931 . S
C2826 C2820 1.383 . S
C2826 C2825 1.379 . S
H2827 C2821 0.959 . S
H2828 C2821 0.961 . S
H2829 C2821 0.960 . S
H2830 C2822 0.930 . S
H2831 C2823 0.929 . S
H2832 C2840 0.929 . S
H2833 C2842 0.930 . S
H2834 C2844 0.930 . S
H2835 C2847 0.929 . S
H2836 C2850 0.930 . S
H2837 C2852 0.960 . S
H2838 C2852 0.960 . S
H2839 C2852 0.960 . S
C2840 H2832 0.929 . S
C2840 C2841 1.377 . S
C2840 C2842 1.384 . S
C2841 C2840 1.377 . S
C2841 C2847 1.390 . S
C2842 H2833 0.930 . S
C2842 C2840 1.384 . S
C2842 C2843 1.372 . S
C2843 C2842 1.372 . S
C2843 C2844 1.400 . S
C2843 C2848 1.490 . S
C2844 H2834 0.930 . S
C2844 C2843 1.400 . S
C2844 C2847 1.386 . S
H2845 C2861 0.930 . S
H2846 C2862 0.931 . S
C2847 H2835 0.929 . S
C2847 C2841 1.390 . S
C2847 C2844 1.386 . S
C2848 C2843 1.490 . S
C2848 C2850 1.395 . S
C2848 C2851 1.403 . S
H2849 C2855 0.930 . S
C2850 H2836 0.930 . S
C2850 C2848 1.395 . S
C2850 C2853 1.403 . S
C2851 C2848 1.403 . S
C2851 C2852 1.524 . S
C2851 C2855 1.400 . S
C2852 H2837 0.960 . S
C2852 H2838 0.960 . S
C2852 H2839 0.960 . S
C2852 C2851 1.524 . S
C2853 C2850 1.403 . S
C2853 C2854 1.392 . S
C2853 C2857 1.495 . S
C2854 C2853 1.392 . S
C2854 C2855 1.385 . S
C2854 C2856 1.478 . S
C2855 H2849 0.930 . S
C2855 C2851 1.400 . S
C2855 C2854 1.385 . S
C2856 C2854 1.478 . S
C2856 C2858 1.381 . S
C2856 C2862 1.383 . S
C2857 C2853 1.495 . S
C2857 H2863 0.959 . S
C2857 H2864 0.961 . S
C2857 H2865 0.960 . S
C2858 C2856 1.381 . S
C2858 C2859 1.394 . S
C2858 H2866 0.930 . S
C2859 C2858 1.394 . S
C2859 C2860 1.383 . S
C2859 H2867 0.929 . S
C2860 C2859 1.383 . S
C2860 C2861 1.377 . S
C2861 H2845 0.930 . S
C2861 C2860 1.377 . S
C2861 C2862 1.379 . S
C2862 H2846 0.931 . S
C2862 C2856 1.383 . S
C2862 C2861 1.379 . S
H2863 C2857 0.959 . S
H2864 C2857 0.961 . S
H2865 C2857 0.960 . S
H2866 C2858 0.930 . S
H2867 C2859 0.929 . S
H2868 C2876 0.929 . S
H2869 C2878 0.930 . S
H2870 C2880 0.930 . S
H2871 C2883 0.929 . S
H2872 C2886 0.930 . S
H2873 C2888 0.960 . S
H2874 C2888 0.960 . S
H2875 C2888 0.960 . S
C2876 H2868 0.929 . S
C2876 C2877 1.377 . S
C2876 C2878 1.384 . S
C2877 C2876 1.377 . S
C2877 C2883 1.390 . S
C2878 H2869 0.930 . S
C2878 C2876 1.384 . S
C2878 C2879 1.372 . S
C2879 C2878 1.372 . S
C2879 C2880 1.400 . S
C2879 C2884 1.490 . S
C2880 H2870 0.930 . S
C2880 C2879 1.400 . S
C2880 C2883 1.386 . S
H2881 C2897 0.930 . S
H2882 C2898 0.931 . S
C2883 H2871 0.929 . S
C2883 C2877 1.390 . S
C2883 C2880 1.386 . S
C2884 C2879 1.490 . S
C2884 C2886 1.395 . S
C2884 C2887 1.403 . S
H2885 C2891 0.930 . S
C2886 H2872 0.930 . S
C2886 C2884 1.395 . S
C2886 C2889 1.403 . S
C2887 C2884 1.403 . S
C2887 C2888 1.524 . S
C2887 C2891 1.400 . S
C2888 H2873 0.960 . S
C2888 H2874 0.960 . S
C2888 H2875 0.960 . S
C2888 C2887 1.524 . S
C2889 C2886 1.403 . S
C2889 C2890 1.392 . S
C2889 C2893 1.495 . S
C2890 C2889 1.392 . S
C2890 C2891 1.385 . S
C2890 C2892 1.478 . S
C2891 H2885 0.930 . S
C2891 C2887 1.400 . S
C2891 C2890 1.385 . S
C2892 C2890 1.478 . S
C2892 C2894 1.381 . S
C2892 C2898 1.383 . S
C2893 C2889 1.495 . S
C2893 H2899 0.959 . S
C2893 H2900 0.961 . S
C2893 H2901 0.960 . S
C2894 C2892 1.381 . S
C2894 C2895 1.394 . S
C2894 H2902 0.930 . S
C2895 C2894 1.394 . S
C2895 C2896 1.383 . S
C2895 H2903 0.929 . S
C2896 C2895 1.383 . S
C2896 C2897 1.377 . S
C2897 H2881 0.930 . S
C2897 C2896 1.377 . S
C2897 C2898 1.379 . S
C2898 H2882 0.931 . S
C2898 C2892 1.383 . S
C2898 C2897 1.379 . S
H2899 C2893 0.959 . S
H2900 C2893 0.961 . S
H2901 C2893 0.960 . S
H2902 C2894 0.930 . S
H2903 C2895 0.929 . S
H2904 C2912 0.929 . S
H2905 C2914 0.930 . S
H2906 C2916 0.930 . S
H2907 C2919 0.929 . S
H2908 C2922 0.930 . S
H2909 C2924 0.960 . S
H2910 C2924 0.960 . S
H2911 C2924 0.960 . S
C2912 H2904 0.929 . S
C2912 C2913 1.377 . S
C2912 C2914 1.384 . S
C2913 C2912 1.377 . S
C2913 C2919 1.390 . S
C2914 H2905 0.930 . S
C2914 C2912 1.384 . S
C2914 C2915 1.372 . S
C2915 C2914 1.372 . S
C2915 C2916 1.400 . S
C2915 C2920 1.490 . S
C2916 H2906 0.930 . S
C2916 C2915 1.400 . S
C2916 C2919 1.386 . S
H2917 C2933 0.930 . S
H2918 C2934 0.931 . S
C2919 H2907 0.929 . S
C2919 C2913 1.390 . S
C2919 C2916 1.386 . S
C2920 C2915 1.490 . S
C2920 C2922 1.395 . S
C2920 C2923 1.403 . S
H2921 C2927 0.930 . S
C2922 H2908 0.930 . S
C2922 C2920 1.395 . S
C2922 C2925 1.403 . S
C2923 C2920 1.403 . S
C2923 C2924 1.524 . S
C2923 C2927 1.400 . S
C2924 H2909 0.960 . S
C2924 H2910 0.960 . S
C2924 H2911 0.960 . S
C2924 C2923 1.524 . S
C2925 C2922 1.403 . S
C2925 C2926 1.392 . S
C2925 C2929 1.495 . S
C2926 C2925 1.392 . S
C2926 C2927 1.385 . S
C2926 C2928 1.478 . S
C2927 H2921 0.930 . S
C2927 C2923 1.400 . S
C2927 C2926 1.385 . S
C2928 C2926 1.478 . S
C2928 C2930 1.381 . S
C2928 C2934 1.383 . S
C2929 C2925 1.495 . S
C2929 H2935 0.959 . S
C2929 H2936 0.961 . S
C2929 H2937 0.960 . S
C2930 C2928 1.381 . S
C2930 C2931 1.394 . S
C2930 H2938 0.930 . S
C2931 C2930 1.394 . S
C2931 C2932 1.383 . S
C2931 H2939 0.929 . S
C2932 C2931 1.383 . S
C2932 C2933 1.377 . S
C2933 H2917 0.930 . S
C2933 C2932 1.377 . S
C2933 C2934 1.379 . S
C2934 H2918 0.931 . S
C2934 C2928 1.383 . S
C2934 C2933 1.379 . S
H2935 C2929 0.959 . S
H2936 C2929 0.961 . S
H2937 C2929 0.960 . S
H2938 C2930 0.930 . S
H2939 C2931 0.929 . S
H2940 C2948 0.929 . S
H2941 C2950 0.930 . S
H2942 C2952 0.930 . S
H2943 C2955 0.929 . S
H2944 C2958 0.930 . S
H2945 C2960 0.960 . S
H2946 C2960 0.960 . S
H2947 C2960 0.960 . S
C2948 H2940 0.929 . S
C2948 C2949 1.377 . S
C2948 C2950 1.384 . S
C2949 C2948 1.377 . S
C2949 C2955 1.390 . S
C2950 H2941 0.930 . S
C2950 C2948 1.384 . S
C2950 C2951 1.372 . S
C2951 C2950 1.372 . S
C2951 C2952 1.400 . S
C2951 C2956 1.490 . S
C2952 H2942 0.930 . S
C2952 C2951 1.400 . S
C2952 C2955 1.386 . S
H2953 C2969 0.930 . S
H2954 C2970 0.931 . S
C2955 H2943 0.929 . S
C2955 C2949 1.390 . S
C2955 C2952 1.386 . S
C2956 C2951 1.490 . S
C2956 C2958 1.395 . S
C2956 C2959 1.403 . S
H2957 C2963 0.930 . S
C2958 H2944 0.930 . S
C2958 C2956 1.395 . S
C2958 C2961 1.403 . S
C2959 C2956 1.403 . S
C2959 C2960 1.524 . S
C2959 C2963 1.400 . S
C2960 H2945 0.960 . S
C2960 H2946 0.960 . S
C2960 H2947 0.960 . S
C2960 C2959 1.524 . S
C2961 C2958 1.403 . S
C2961 C2962 1.392 . S
C2961 C2965 1.495 . S
C2962 C2961 1.392 . S
C2962 C2963 1.385 . S
C2962 C2964 1.478 . S
C2963 H2957 0.930 . S
C2963 C2959 1.400 . S
C2963 C2962 1.385 . S
C2964 C2962 1.478 . S
C2964 C2966 1.381 . S
C2964 C2970 1.383 . S
C2965 C2961 1.495 . S
C2965 H2971 0.959 . S
C2965 H2972 0.961 . S
C2965 H2973 0.960 . S
C2966 C2964 1.381 . S
C2966 C2967 1.394 . S
C2966 H2974 0.930 . S
C2967 C2966 1.394 . S
C2967 C2968 1.383 . S
C2967 H2975 0.929 . S
C2968 C2967 1.383 . S
C2968 C2969 1.377 . S
C2969 H2953 0.930 . S
C2969 C2968 1.377 . S
C2969 C2970 1.379 . S
C2970 H2954 0.931 . S
C2970 C2964 1.383 . S
C2970 C2969 1.379 . S
H2971 C2965 0.959 . S
H2972 C2965 0.961 . S
H2973 C2965 0.960 . S
H2974 C2966 0.930 . S
H2975 C2967 0.929 . S
H2976 C2984 0.929 . S
H2977 C2986 0.930 . S
H2978 C2988 0.930 . S
H2979 C2991 0.929 . S
H2980 C2994 0.930 . S
H2981 C2996 0.960 . S
H2982 C2996 0.960 . S
H2983 C2996 0.960 . S
C2984 H2976 0.929 . S
C2984 C2985 1.377 . S
C2984 C2986 1.384 . S
C2985 C2984 1.377 . S
C2985 C2991 1.390 . S
C2986 H2977 0.930 . S
C2986 C2984 1.384 . S
C2986 C2987 1.372 . S
C2987 C2986 1.372 . S
C2987 C2988 1.400 . S
C2987 C2992 1.490 . S
C2988 H2978 0.930 . S
C2988 C2987 1.400 . S
C2988 C2991 1.386 . S
H2989 C3005 0.930 . S
H2990 C3006 0.931 . S
C2991 H2979 0.929 . S
C2991 C2985 1.390 . S
C2991 C2988 1.386 . S
C2992 C2987 1.490 . S
C2992 C2994 1.395 . S
C2992 C2995 1.403 . S
H2993 C2999 0.930 . S
C2994 H2980 0.930 . S
C2994 C2992 1.395 . S
C2994 C2997 1.403 . S
C2995 C2992 1.403 . S
C2995 C2996 1.524 . S
C2995 C2999 1.400 . S
C2996 H2981 0.960 . S
C2996 H2982 0.960 . S
C2996 H2983 0.960 . S
C2996 C2995 1.524 . S
C2997 C2994 1.403 . S
C2997 C2998 1.392 . S
C2997 C3001 1.495 . S
C2998 C2997 1.392 . S
C2998 C2999 1.385 . S
C2998 C3000 1.478 . S
C2999 H2993 0.930 . S
C2999 C2995 1.400 . S
C2999 C2998 1.385 . S
C3000 C2998 1.478 . S
C3000 C3002 1.381 . S
C3000 C3006 1.383 . S
C3001 C2997 1.495 . S
C3001 H3007 0.959 . S
C3001 H3008 0.961 . S
C3001 H3009 0.960 . S
C3002 C3000 1.381 . S
C3002 C3003 1.394 . S
C3002 H3010 0.930 . S
C3003 C3002 1.394 . S
C3003 C3004 1.383 . S
C3003 H3011 0.929 . S
C3004 C3003 1.383 . S
C3004 C3005 1.377 . S
C3005 H2989 0.930 . S
C3005 C3004 1.377 . S
C3005 C3006 1.379 . S
C3006 H2990 0.931 . S
C3006 C3000 1.383 . S
C3006 C3005 1.379 . S
H3007 C3001 0.959 . S
H3008 C3001 0.961 . S
H3009 C3001 0.960 . S
H3010 C3002 0.930 . S
H3011 C3003 0.929 . S
H3012 C3020 0.929 . S
H3013 C3022 0.930 . S
H3014 C3024 0.930 . S
H3015 C3027 0.929 . S
H3016 C3030 0.930 . S
H3017 C3032 0.960 . S
H3018 C3032 0.960 . S
H3019 C3032 0.960 . S
C3020 H3012 0.929 . S
C3020 C3021 1.377 . S
C3020 C3022 1.384 . S
C3021 C3020 1.377 . S
C3021 C3027 1.390 . S
C3022 H3013 0.930 . S
C3022 C3020 1.384 . S
C3022 C3023 1.372 . S
C3023 C3022 1.372 . S
C3023 C3024 1.400 . S
C3023 C3028 1.490 . S
C3024 H3014 0.930 . S
C3024 C3023 1.400 . S
C3024 C3027 1.386 . S
H3025 C3041 0.930 . S
H3026 C3042 0.931 . S
C3027 H3015 0.929 . S
C3027 C3021 1.390 . S
C3027 C3024 1.386 . S
C3028 C3023 1.490 . S
C3028 C3030 1.395 . S
C3028 C3031 1.403 . S
H3029 C3035 0.930 . S
C3030 H3016 0.930 . S
C3030 C3028 1.395 . S
C3030 C3033 1.403 . S
C3031 C3028 1.403 . S
C3031 C3032 1.524 . S
C3031 C3035 1.400 . S
C3032 H3017 0.960 . S
C3032 H3018 0.960 . S
C3032 H3019 0.960 . S
C3032 C3031 1.524 . S
C3033 C3030 1.403 . S
C3033 C3034 1.392 . S
C3033 C3037 1.495 . S
C3034 C3033 1.392 . S
C3034 C3035 1.385 . S
C3034 C3036 1.478 . S
C3035 H3029 0.930 . S
C3035 C3031 1.400 . S
C3035 C3034 1.385 . S
C3036 C3034 1.478 . S
C3036 C3038 1.381 . S
C3036 C3042 1.383 . S
C3037 C3033 1.495 . S
C3037 H3043 0.959 . S
C3037 H3044 0.961 . S
C3037 H3045 0.960 . S
C3038 C3036 1.381 . S
C3038 C3039 1.394 . S
C3038 H3046 0.930 . S
C3039 C3038 1.394 . S
C3039 C3040 1.383 . S
C3039 H3047 0.929 . S
C3040 C3039 1.383 . S
C3040 C3041 1.377 . S
C3041 H3025 0.930 . S
C3041 C3040 1.377 . S
C3041 C3042 1.379 . S
C3042 H3026 0.931 . S
C3042 C3036 1.383 . S
C3042 C3041 1.379 . S
H3043 C3037 0.959 . S
H3044 C3037 0.961 . S
H3045 C3037 0.960 . S
H3046 C3038 0.930 . S
H3047 C3039 0.929 . S
H3048 C3056 0.929 . S
H3049 C3058 0.930 . S
H3050 C3060 0.930 . S
H3051 C3063 0.929 . S
H3052 C3066 0.930 . S
H3053 C3068 0.960 . S
H3054 C3068 0.960 . S
H3055 C3068 0.960 . S
C3056 H3048 0.929 . S
C3056 C3057 1.377 . S
C3056 C3058 1.384 . S
C3057 C3056 1.377 . S
C3057 C3063 1.390 . S
C3058 H3049 0.930 . S
C3058 C3056 1.384 . S
C3058 C3059 1.372 . S
C3059 C3058 1.372 . S
C3059 C3060 1.400 . S
C3059 C3064 1.490 . S
C3060 H3050 0.930 . S
C3060 C3059 1.400 . S
C3060 C3063 1.386 . S
H3061 C3077 0.930 . S
H3062 C3078 0.931 . S
C3063 H3051 0.929 . S
C3063 C3057 1.390 . S
C3063 C3060 1.386 . S
C3064 C3059 1.490 . S
C3064 C3066 1.395 . S
C3064 C3067 1.403 . S
H3065 C3071 0.930 . S
C3066 H3052 0.930 . S
C3066 C3064 1.395 . S
C3066 C3069 1.403 . S
C3067 C3064 1.403 . S
C3067 C3068 1.524 . S
C3067 C3071 1.400 . S
C3068 H3053 0.960 . S
C3068 H3054 0.960 . S
C3068 H3055 0.960 . S
C3068 C3067 1.524 . S
C3069 C3066 1.403 . S
C3069 C3070 1.392 . S
C3069 C3073 1.495 . S
C3070 C3069 1.392 . S
C3070 C3071 1.385 . S
C3070 C3072 1.478 . S
C3071 H3065 0.930 . S
C3071 C3067 1.400 . S
C3071 C3070 1.385 . S
C3072 C3070 1.478 . S
C3072 C3074 1.381 . S
C3072 C3078 1.383 . S
C3073 C3069 1.495 . S
C3073 H3079 0.959 . S
C3073 H3080 0.961 . S
C3073 H3081 0.960 . S
C3074 C3072 1.381 . S
C3074 C3075 1.394 . S
C3074 H3082 0.930 . S
C3075 C3074 1.394 . S
C3075 C3076 1.383 . S
C3075 H3083 0.929 . S
C3076 C3075 1.383 . S
C3076 C3077 1.377 . S
C3077 H3061 0.930 . S
C3077 C3076 1.377 . S
C3077 C3078 1.379 . S
C3078 H3062 0.931 . S
C3078 C3072 1.383 . S
C3078 C3077 1.379 . S
H3079 C3073 0.959 . S
H3080 C3073 0.961 . S
H3081 C3073 0.960 . S
H3082 C3074 0.930 . S
H3083 C3075 0.929 . S
H3084 C3092 0.929 . S
H3085 C3094 0.930 . S
H3086 C3096 0.930 . S
H3087 C3099 0.929 . S
H3088 C3102 0.930 . S
H3089 C3104 0.960 . S
H3090 C3104 0.960 . S
H3091 C3104 0.960 . S
C3092 H3084 0.929 . S
C3092 C3093 1.377 . S
C3092 C3094 1.384 . S
C3093 C3092 1.377 . S
C3093 C3099 1.390 . S
C3094 H3085 0.930 . S
C3094 C3092 1.384 . S
C3094 C3095 1.372 . S
C3095 C3094 1.372 . S
C3095 C3096 1.400 . S
C3095 C3100 1.490 . S
C3096 H3086 0.930 . S
C3096 C3095 1.400 . S
C3096 C3099 1.386 . S
H3097 C3113 0.930 . S
H3098 C3114 0.931 . S
C3099 H3087 0.929 . S
C3099 C3093 1.390 . S
C3099 C3096 1.386 . S
C3100 C3095 1.490 . S
C3100 C3102 1.395 . S
C3100 C3103 1.403 . S
H3101 C3107 0.930 . S
C3102 H3088 0.930 . S
C3102 C3100 1.395 . S
C3102 C3105 1.403 . S
C3103 C3100 1.403 . S
C3103 C3104 1.524 . S
C3103 C3107 1.400 . S
C3104 H3089 0.960 . S
C3104 H3090 0.960 . S
C3104 H3091 0.960 . S
C3104 C3103 1.524 . S
C3105 C3102 1.403 . S
C3105 C3106 1.392 . S
C3105 C3109 1.495 . S
C3106 C3105 1.392 . S
C3106 C3107 1.385 . S
C3106 C3108 1.478 . S
C3107 H3101 0.930 . S
C3107 C3103 1.400 . S
C3107 C3106 1.385 . S
C3108 C3106 1.478 . S
C3108 C3110 1.381 . S
C3108 C3114 1.383 . S
C3109 C3105 1.495 . S
C3109 H3115 0.959 . S
C3109 H3116 0.961 . S
C3109 H3117 0.960 . S
C3110 C3108 1.381 . S
C3110 C3111 1.394 . S
C3110 H3118 0.930 . S
C3111 C3110 1.394 . S
C3111 C3112 1.383 . S
C3111 H3119 0.929 . S
C3112 C3111 1.383 . S
C3112 C3113 1.377 . S
C3113 H3097 0.930 . S
C3113 C3112 1.377 . S
C3113 C3114 1.379 . S
C3114 H3098 0.931 . S
C3114 C3108 1.383 . S
C3114 C3113 1.379 . S
H3115 C3109 0.959 . S
H3116 C3109 0.961 . S
H3117 C3109 0.960 . S
H3118 C3110 0.930 . S
H3119 C3111 0.929 . S
H3120 C3128 0.929 . S
H3121 C3130 0.930 . S
H3122 C3132 0.930 . S
H3123 C3135 0.929 . S
H3124 C3138 0.930 . S
H3125 C3140 0.960 . S
H3126 C3140 0.960 . S
H3127 C3140 0.960 . S
C3128 H3120 0.929 . S
C3128 C3129 1.377 . S
C3128 C3130 1.384 . S
C3129 C3128 1.377 . S
C3129 C3135 1.390 . S
C3130 H3121 0.930 . S
C3130 C3128 1.384 . S
C3130 C3131 1.372 . S
C3131 C3130 1.372 . S
C3131 C3132 1.400 . S
C3131 C3136 1.490 . S
C3132 H3122 0.930 . S
C3132 C3131 1.400 . S
C3132 C3135 1.386 . S
H3133 C3149 0.930 . S
H3134 C3150 0.931 . S
C3135 H3123 0.929 . S
C3135 C3129 1.390 . S
C3135 C3132 1.386 . S
C3136 C3131 1.490 . S
C3136 C3138 1.395 . S
C3136 C3139 1.403 . S
H3137 C3143 0.930 . S
C3138 H3124 0.930 . S
C3138 C3136 1.395 . S
C3138 C3141 1.403 . S
C3139 C3136 1.403 . S
C3139 C3140 1.524 . S
C3139 C3143 1.400 . S
C3140 H3125 0.960 . S
C3140 H3126 0.960 . S
C3140 H3127 0.960 . S
C3140 C3139 1.524 . S
C3141 C3138 1.403 . S
C3141 C3142 1.392 . S
C3141 C3145 1.495 . S
C3142 C3141 1.392 . S
C3142 C3143 1.385 . S
C3142 C3144 1.478 . S
C3143 H3137 0.930 . S
C3143 C3139 1.400 . S
C3143 C3142 1.385 . S
C3144 C3142 1.478 . S
C3144 C3146 1.381 . S
C3144 C3150 1.383 . S
C3145 C3141 1.495 . S
C3145 H3151 0.959 . S
C3145 H3152 0.961 . S
C3145 H3153 0.960 . S
C3146 C3144 1.381 . S
C3146 C3147 1.394 . S
C3146 H3154 0.930 . S
C3147 C3146 1.394 . S
C3147 C3148 1.383 . S
C3147 H3155 0.929 . S
C3148 C3147 1.383 . S
C3148 C3149 1.377 . S
C3149 H3133 0.930 . S
C3149 C3148 1.377 . S
C3149 C3150 1.379 . S
C3150 H3134 0.931 . S
C3150 C3144 1.383 . S
C3150 C3149 1.379 . S
H3151 C3145 0.959 . S
H3152 C3145 0.961 . S
H3153 C3145 0.960 . S
H3154 C3146 0.930 . S
H3155 C3147 0.929 . S
H3156 C3164 0.929 . S
H3157 C3166 0.930 . S
H3158 C3168 0.930 . S
H3159 C3171 0.929 . S
H3160 C3174 0.930 . S
H3161 C3176 0.960 . S
H3162 C3176 0.960 . S
H3163 C3176 0.960 . S
C3164 H3156 0.929 . S
C3164 C3165 1.377 . S
C3164 C3166 1.384 . S
C3165 C3164 1.377 . S
C3165 C3171 1.390 . S
C3166 H3157 0.930 . S
C3166 C3164 1.384 . S
C3166 C3167 1.372 . S
C3167 C3166 1.372 . S
C3167 C3168 1.400 . S
C3167 C3172 1.490 . S
C3168 H3158 0.930 . S
C3168 C3167 1.400 . S
C3168 C3171 1.386 . S
H3169 C3185 0.930 . S
H3170 C3186 0.931 . S
C3171 H3159 0.929 . S
C3171 C3165 1.390 . S
C3171 C3168 1.386 . S
C3172 C3167 1.490 . S
C3172 C3174 1.395 . S
C3172 C3175 1.403 . S
H3173 C3179 0.930 . S
C3174 H3160 0.930 . S
C3174 C3172 1.395 . S
C3174 C3177 1.403 . S
C3175 C3172 1.403 . S
C3175 C3176 1.524 . S
C3175 C3179 1.400 . S
C3176 H3161 0.960 . S
C3176 H3162 0.960 . S
C3176 H3163 0.960 . S
C3176 C3175 1.524 . S
C3177 C3174 1.403 . S
C3177 C3178 1.392 . S
C3177 C3181 1.495 . S
C3178 C3177 1.392 . S
C3178 C3179 1.385 . S
C3178 C3180 1.478 . S
C3179 H3173 0.930 . S
C3179 C3175 1.400 . S
C3179 C3178 1.385 . S
C3180 C3178 1.478 . S
C3180 C3182 1.381 . S
C3180 C3186 1.383 . S
C3181 C3177 1.495 . S
C3181 H3187 0.959 . S
C3181 H3188 0.961 . S
C3181 H3189 0.960 . S
C3182 C3180 1.381 . S
C3182 C3183 1.394 . S
C3182 H3190 0.930 . S
C3183 C3182 1.394 . S
C3183 C3184 1.383 . S
C3183 H3191 0.929 . S
C3184 C3183 1.383 . S
C3184 C3185 1.377 . S
C3185 H3169 0.930 . S
C3185 C3184 1.377 . S
C3185 C3186 1.379 . S
C3186 H3170 0.931 . S
C3186 C3180 1.383 . S
C3186 C3185 1.379 . S
H3187 C3181 0.959 . S
H3188 C3181 0.961 . S
H3189 C3181 0.960 . S
H3190 C3182 0.930 . S
H3191 C3183 0.929 . S
H3192 C3200 0.929 . S
H3193 C3202 0.930 . S
H3194 C3204 0.930 . S
H3195 C3207 0.929 . S
H3196 C3210 0.930 . S
H3197 C3212 0.960 . S
H3198 C3212 0.960 . S
H3199 C3212 0.960 . S
C3200 H3192 0.929 . S
C3200 C3201 1.377 . S
C3200 C3202 1.384 . S
C3201 C3200 1.377 . S
C3201 C3207 1.390 . S
C3202 H3193 0.930 . S
C3202 C3200 1.384 . S
C3202 C3203 1.372 . S
C3203 C3202 1.372 . S
C3203 C3204 1.400 . S
C3203 C3208 1.490 . S
C3204 H3194 0.930 . S
C3204 C3203 1.400 . S
C3204 C3207 1.386 . S
H3205 C3221 0.930 . S
H3206 C3222 0.931 . S
C3207 H3195 0.929 . S
C3207 C3201 1.390 . S
C3207 C3204 1.386 . S
C3208 C3203 1.490 . S
C3208 C3210 1.395 . S
C3208 C3211 1.403 . S
H3209 C3215 0.930 . S
C3210 H3196 0.930 . S
C3210 C3208 1.395 . S
C3210 C3213 1.403 . S
C3211 C3208 1.403 . S
C3211 C3212 1.524 . S
C3211 C3215 1.400 . S
C3212 H3197 0.960 . S
C3212 H3198 0.960 . S
C3212 H3199 0.960 . S
C3212 C3211 1.524 . S
C3213 C3210 1.403 . S
C3213 C3214 1.392 . S
C3213 C3217 1.495 . S
C3214 C3213 1.392 . S
C3214 C3215 1.385 . S
C3214 C3216 1.478 . S
C3215 H3209 0.930 . S
C3215 C3211 1.400 . S
C3215 C3214 1.385 . S
C3216 C3214 1.478 . S
C3216 C3218 1.381 . S
C3216 C3222 1.383 . S
C3217 C3213 1.495 . S
C3217 H3223 0.959 . S
C3217 H3224 0.961 . S
C3217 H3225 0.960 . S
C3218 C3216 1.381 . S
C3218 C3219 1.394 . S
C3218 H3226 0.930 . S
C3219 C3218 1.394 . S
C3219 C3220 1.383 . S
C3219 H3227 0.929 . S
C3220 C3219 1.383 . S
C3220 C3221 1.377 . S
C3221 H3205 0.930 . S
C3221 C3220 1.377 . S
C3221 C3222 1.379 . S
C3222 H3206 0.931 . S
C3222 C3216 1.383 . S
C3222 C3221 1.379 . S
H3223 C3217 0.959 . S
H3224 C3217 0.961 . S
H3225 C3217 0.960 . S
H3226 C3218 0.930 . S
H3227 C3219 0.929 . S
H3228 C3236 0.929 . S
H3229 C3238 0.930 . S
H3230 C3240 0.930 . S
H3231 C3243 0.929 . S
H3232 C3246 0.930 . S
H3233 C3248 0.960 . S
H3234 C3248 0.960 . S
H3235 C3248 0.960 . S
C3236 H3228 0.929 . S
C3236 C3237 1.377 . S
C3236 C3238 1.384 . S
C3237 C3236 1.377 . S
C3237 C3243 1.390 . S
C3238 H3229 0.930 . S
C3238 C3236 1.384 . S
C3238 C3239 1.372 . S
C3239 C3238 1.372 . S
C3239 C3240 1.400 . S
C3239 C3244 1.490 . S
C3240 H3230 0.930 . S
C3240 C3239 1.400 . S
C3240 C3243 1.386 . S
H3241 C3257 0.930 . S
H3242 C3258 0.931 . S
C3243 H3231 0.929 . S
C3243 C3237 1.390 . S
C3243 C3240 1.386 . S
C3244 C3239 1.490 . S
C3244 C3246 1.395 . S
C3244 C3247 1.403 . S
H3245 C3251 0.930 . S
C3246 H3232 0.930 . S
C3246 C3244 1.395 . S
C3246 C3249 1.403 . S
C3247 C3244 1.403 . S
C3247 C3248 1.524 . S
C3247 C3251 1.400 . S
C3248 H3233 0.960 . S
C3248 H3234 0.960 . S
C3248 H3235 0.960 . S
C3248 C3247 1.524 . S
C3249 C3246 1.403 . S
C3249 C3250 1.392 . S
C3249 C3253 1.495 . S
C3250 C3249 1.392 . S
C3250 C3251 1.385 . S
C3250 C3252 1.478 . S
C3251 H3245 0.930 . S
C3251 C3247 1.400 . S
C3251 C3250 1.385 . S
C3252 C3250 1.478 . S
C3252 C3254 1.381 . S
C3252 C3258 1.383 . S
C3253 C3249 1.495 . S
C3253 H3259 0.959 . S
C3253 H3260 0.961 . S
C3253 H3261 0.960 . S
C3254 C3252 1.381 . S
C3254 C3255 1.394 . S
C3254 H3262 0.930 . S
C3255 C3254 1.394 . S
C3255 C3256 1.383 . S
C3255 H3263 0.929 . S
C3256 C3255 1.383 . S
C3256 C3257 1.377 . S
C3257 H3241 0.930 . S
C3257 C3256 1.377 . S
C3257 C3258 1.379 . S
C3258 H3242 0.931 . S
C3258 C3252 1.383 . S
C3258 C3257 1.379 . S
H3259 C3253 0.959 . S
H3260 C3253 0.961 . S
H3261 C3253 0.960 . S
H3262 C3254 0.930 . S
H3263 C3255 0.929 . S
H3264 C3272 0.929 . S
H3265 C3274 0.930 . S
H3266 C3276 0.930 . S
H3267 C3279 0.929 . S
H3268 C3282 0.930 . S
H3269 C3284 0.960 . S
H3270 C3284 0.960 . S
H3271 C3284 0.960 . S
C3272 H3264 0.929 . S
C3272 C3273 1.377 . S
C3272 C3274 1.384 . S
C3273 C3272 1.377 . S
C3273 C3279 1.390 . S
C3274 H3265 0.930 . S
C3274 C3272 1.384 . S
C3274 C3275 1.372 . S
C3275 C3274 1.372 . S
C3275 C3276 1.400 . S
C3275 C3280 1.490 . S
C3276 H3266 0.930 . S
C3276 C3275 1.400 . S
C3276 C3279 1.386 . S
H3277 C3293 0.930 . S
H3278 C3294 0.931 . S
C3279 H3267 0.929 . S
C3279 C3273 1.390 . S
C3279 C3276 1.386 . S
C3280 C3275 1.490 . S
C3280 C3282 1.395 . S
C3280 C3283 1.403 . S
H3281 C3287 0.930 . S
C3282 H3268 0.930 . S
C3282 C3280 1.395 . S
C3282 C3285 1.403 . S
C3283 C3280 1.403 . S
C3283 C3284 1.524 . S
C3283 C3287 1.400 . S
C3284 H3269 0.960 . S
C3284 H3270 0.960 . S
C3284 H3271 0.960 . S
C3284 C3283 1.524 . S
C3285 C3282 1.403 . S
C3285 C3286 1.392 . S
C3285 C3289 1.495 . S
C3286 C3285 1.392 . S
C3286 C3287 1.385 . S
C3286 C3288 1.478 . S
C3287 H3281 0.930 . S
C3287 C3283 1.400 . S
C3287 C3286 1.385 . S
C3288 C3286 1.478 . S
C3288 C3290 1.381 . S
C3288 C3294 1.383 . S
C3289 C3285 1.495 . S
C3289 H3295 0.959 . S
C3289 H3296 0.961 . S
C3289 H3297 0.960 . S
C3290 C3288 1.381 . S
C3290 C3291 1.394 . S
C3290 H3298 0.930 . S
C3291 C3290 1.394 . S
C3291 C3292 1.383 . S
C3291 H3299 0.929 . S
C3292 C3291 1.383 . S
C3292 C3293 1.377 . S
C3293 H3277 0.930 . S
C3293 C3292 1.377 . S
C3293 C3294 1.379 . S
C3294 H3278 0.931 . S
C3294 C3288 1.383 . S
C3294 C3293 1.379 . S
H3295 C3289 0.959 . S
H3296 C3289 0.961 . S
H3297 C3289 0.960 . S
H3298 C3290 0.930 . S
H3299 C3291 0.929 . S
H3300 C3308 0.929 . S
H3301 C3310 0.930 . S
H3302 C3312 0.930 . S
H3303 C3315 0.929 . S
H3304 C3318 0.930 . S
H3305 C3320 0.960 . S
H3306 C3320 0.960 . S
H3307 C3320 0.960 . S
C3308 H3300 0.929 . S
C3308 C3309 1.377 . S
C3308 C3310 1.384 . S
C3309 C3308 1.377 . S
C3309 C3315 1.390 . S
C3310 H3301 0.930 . S
C3310 C3308 1.384 . S
C3310 C3311 1.372 . S
C3311 C3310 1.372 . S
C3311 C3312 1.400 . S
C3311 C3316 1.490 . S
C3312 H3302 0.930 . S
C3312 C3311 1.400 . S
C3312 C3315 1.386 . S
H3313 C3329 0.930 . S
H3314 C3330 0.931 . S
C3315 H3303 0.929 . S
C3315 C3309 1.390 . S
C3315 C3312 1.386 . S
C3316 C3311 1.490 . S
C3316 C3318 1.395 . S
C3316 C3319 1.403 . S
H3317 C3323 0.930 . S
C3318 H3304 0.930 . S
C3318 C3316 1.395 . S
C3318 C3321 1.403 . S
C3319 C3316 1.403 . S
C3319 C3320 1.524 . S
C3319 C3323 1.400 . S
C3320 H3305 0.960 . S
C3320 H3306 0.960 . S
C3320 H3307 0.960 . S
C3320 C3319 1.524 . S
C3321 C3318 1.403 . S
C3321 C3322 1.392 . S
C3321 C3325 1.495 . S
C3322 C3321 1.392 . S
C3322 C3323 1.385 . S
C3322 C3324 1.478 . S
C3323 H3317 0.930 . S
C3323 C3319 1.400 . S
C3323 C3322 1.385 . S
C3324 C3322 1.478 . S
C3324 C3326 1.381 . S
C3324 C3330 1.383 . S
C3325 C3321 1.495 . S
C3325 H3331 0.959 . S
C3325 H3332 0.961 . S
C3325 H3333 0.960 . S
C3326 C3324 1.381 . S
C3326 C3327 1.394 . S
C3326 H3334 0.930 . S
C3327 C3326 1.394 . S
C3327 C3328 1.383 . S
C3327 H3335 0.929 . S
C3328 C3327 1.383 . S
C3328 C3329 1.377 . S
C3329 H3313 0.930 . S
C3329 C3328 1.377 . S
C3329 C3330 1.379 . S
C3330 H3314 0.931 . S
C3330 C3324 1.383 . S
C3330 C3329 1.379 . S
H3331 C3325 0.959 . S
H3332 C3325 0.961 . S
H3333 C3325 0.960 . S
H3334 C3326 0.930 . S
H3335 C3327 0.929 . S
H3336 C3344 0.929 . S
H3337 C3346 0.930 . S
H3338 C3348 0.930 . S
H3339 C3351 0.929 . S
H3340 C3354 0.930 . S
H3341 C3356 0.960 . S
H3342 C3356 0.960 . S
H3343 C3356 0.960 . S
C3344 H3336 0.929 . S
C3344 C3345 1.377 . S
C3344 C3346 1.384 . S
C3345 C3344 1.377 . S
C3345 C3351 1.390 . S
C3346 H3337 0.930 . S
C3346 C3344 1.384 . S
C3346 C3347 1.372 . S
C3347 C3346 1.372 . S
C3347 C3348 1.400 . S
C3347 C3352 1.490 . S
C3348 H3338 0.930 . S
C3348 C3347 1.400 . S
C3348 C3351 1.386 . S
H3349 C3365 0.930 . S
H3350 C3366 0.931 . S
C3351 H3339 0.929 . S
C3351 C3345 1.390 . S
C3351 C3348 1.386 . S
C3352 C3347 1.490 . S
C3352 C3354 1.395 . S
C3352 C3355 1.403 . S
H3353 C3359 0.930 . S
C3354 H3340 0.930 . S
C3354 C3352 1.395 . S
C3354 C3357 1.403 . S
C3355 C3352 1.403 . S
C3355 C3356 1.524 . S
C3355 C3359 1.400 . S
C3356 H3341 0.960 . S
C3356 H3342 0.960 . S
C3356 H3343 0.960 . S
C3356 C3355 1.524 . S
C3357 C3354 1.403 . S
C3357 C3358 1.392 . S
C3357 C3361 1.495 . S
C3358 C3357 1.392 . S
C3358 C3359 1.385 . S
C3358 C3360 1.478 . S
C3359 H3353 0.930 . S
C3359 C3355 1.400 . S
C3359 C3358 1.385 . S
C3360 C3358 1.478 . S
C3360 C3362 1.381 . S
C3360 C3366 1.383 . S
C3361 C3357 1.495 . S
C3361 H3367 0.959 . S
C3361 H3368 0.961 . S
C3361 H3369 0.960 . S
C3362 C3360 1.381 . S
C3362 C3363 1.394 . S
C3362 H3370 0.930 . S
C3363 C3362 1.394 . S
C3363 C3364 1.383 . S
C3363 H3371 0.929 . S
C3364 C3363 1.383 . S
C3364 C3365 1.377 . S
C3365 H3349 0.930 . S
C3365 C3364 1.377 . S
C3365 C3366 1.379 . S
C3366 H3350 0.931 . S
C3366 C3360 1.383 . S
C3366 C3365 1.379 . S
H3367 C3361 0.959 . S
H3368 C3361 0.961 . S
H3369 C3361 0.960 . S
H3370 C3362 0.930 . S
H3371 C3363 0.929 . S
H3372 C3380 0.929 . S
H3373 C3382 0.930 . S
H3374 C3384 0.930 . S
H3375 C3387 0.929 . S
H3376 C3390 0.930 . S
H3377 C3392 0.960 . S
H3378 C3392 0.960 . S
H3379 C3392 0.960 . S
C3380 H3372 0.929 . S
C3380 C3381 1.377 . S
C3380 C3382 1.384 . S
C3381 C3380 1.377 . S
C3381 C3387 1.390 . S
C3382 H3373 0.930 . S
C3382 C3380 1.384 . S
C3382 C3383 1.372 . S
C3383 C3382 1.372 . S
C3383 C3384 1.400 . S
C3383 C3388 1.490 . S
C3384 H3374 0.930 . S
C3384 C3383 1.400 . S
C3384 C3387 1.386 . S
H3385 C3401 0.930 . S
H3386 C3402 0.931 . S
C3387 H3375 0.929 . S
C3387 C3381 1.390 . S
C3387 C3384 1.386 . S
C3388 C3383 1.490 . S
C3388 C3390 1.395 . S
C3388 C3391 1.403 . S
H3389 C3395 0.930 . S
C3390 H3376 0.930 . S
C3390 C3388 1.395 . S
C3390 C3393 1.403 . S
C3391 C3388 1.403 . S
C3391 C3392 1.524 . S
C3391 C3395 1.400 . S
C3392 H3377 0.960 . S
C3392 H3378 0.960 . S
C3392 H3379 0.960 . S
C3392 C3391 1.524 . S
C3393 C3390 1.403 . S
C3393 C3394 1.392 . S
C3393 C3397 1.495 . S
C3394 C3393 1.392 . S
C3394 C3395 1.385 . S
C3394 C3396 1.478 . S
C3395 H3389 0.930 . S
C3395 C3391 1.400 . S
C3395 C3394 1.385 . S
C3396 C3394 1.478 . S
C3396 C3398 1.381 . S
C3396 C3402 1.383 . S
C3397 C3393 1.495 . S
C3397 H3403 0.959 . S
C3397 H3404 0.961 . S
C3397 H3405 0.960 . S
C3398 C3396 1.381 . S
C3398 C3399 1.394 . S
C3398 H3406 0.930 . S
C3399 C3398 1.394 . S
C3399 C3400 1.383 . S
C3399 H3407 0.929 . S
C3400 C3399 1.383 . S
C3400 C3401 1.377 . S
C3401 H3385 0.930 . S
C3401 C3400 1.377 . S
C3401 C3402 1.379 . S
C3402 H3386 0.931 . S
C3402 C3396 1.383 . S
C3402 C3401 1.379 . S
H3403 C3397 0.959 . S
H3404 C3397 0.961 . S
H3405 C3397 0.960 . S
H3406 C3398 0.930 . S
H3407 C3399 0.929 . S
H3408 C3416 0.929 . S
H3409 C3418 0.930 . S
H3410 C3420 0.930 . S
H3411 C3423 0.929 . S
H3412 C3426 0.930 . S
H3413 C3428 0.960 . S
H3414 C3428 0.960 . S
H3415 C3428 0.960 . S
C3416 H3408 0.929 . S
C3416 C3417 1.377 . S
C3416 C3418 1.384 . S
C3417 C3416 1.377 . S
C3417 C3423 1.390 . S
C3418 H3409 0.930 . S
C3418 C3416 1.384 . S
C3418 C3419 1.372 . S
C3419 C3418 1.372 . S
C3419 C3420 1.400 . S
C3419 C3424 1.490 . S
C3420 H3410 0.930 . S
C3420 C3419 1.400 . S
C3420 C3423 1.386 . S
H3421 C3437 0.930 . S
H3422 C3438 0.931 . S
C3423 H3411 0.929 . S
C3423 C3417 1.390 . S
C3423 C3420 1.386 . S
C3424 C3419 1.490 . S
C3424 C3426 1.395 . S
C3424 C3427 1.403 . S
H3425 C3431 0.930 . S
C3426 H3412 0.930 . S
C3426 C3424 1.395 . S
C3426 C3429 1.403 . S
C3427 C3424 1.403 . S
C3427 C3428 1.524 . S
C3427 C3431 1.400 . S
C3428 H3413 0.960 . S
C3428 H3414 0.960 . S
C3428 H3415 0.960 . S
C3428 C3427 1.524 . S
C3429 C3426 1.403 . S
C3429 C3430 1.392 . S
C3429 C3433 1.495 . S
C3430 C3429 1.392 . S
C3430 C3431 1.385 . S
C3430 C3432 1.478 . S
C3431 H3425 0.930 . S
C3431 C3427 1.400 . S
C3431 C3430 1.385 . S
C3432 C3430 1.478 . S
C3432 C3434 1.381 . S
C3432 C3438 1.383 . S
C3433 C3429 1.495 . S
C3433 H3439 0.959 . S
C3433 H3440 0.961 . S
C3433 H3441 0.960 . S
C3434 C3432 1.381 . S
C3434 C3435 1.394 . S
C3434 H3442 0.930 . S
C3435 C3434 1.394 . S
C3435 C3436 1.383 . S
C3435 H3443 0.929 . S
C3436 C3435 1.383 . S
C3436 C3437 1.377 . S
C3437 H3421 0.930 . S
C3437 C3436 1.377 . S
C3437 C3438 1.379 . S
C3438 H3422 0.931 . S
C3438 C3432 1.383 . S
C3438 C3437 1.379 . S
H3439 C3433 0.959 . S
H3440 C3433 0.961 . S
H3441 C3433 0.960 . S
H3442 C3434 0.930 . S
H3443 C3435 0.929 . S
H3444 C3452 0.929 . S
H3445 C3454 0.930 . S
H3446 C3456 0.930 . S
H3447 C3459 0.929 . S
H3448 C3462 0.930 . S
H3449 C3464 0.960 . S
H3450 C3464 0.960 . S
H3451 C3464 0.960 . S
C3452 H3444 0.929 . S
C3452 C3453 1.377 . S
C3452 C3454 1.384 . S
C3453 C3452 1.377 . S
C3453 C3459 1.390 . S
C3454 H3445 0.930 . S
C3454 C3452 1.384 . S
C3454 C3455 1.372 . S
C3455 C3454 1.372 . S
C3455 C3456 1.400 . S
C3455 C3460 1.490 . S
C3456 H3446 0.930 . S
C3456 C3455 1.400 . S
C3456 C3459 1.386 . S
H3457 C3473 0.930 . S
H3458 C3474 0.931 . S
C3459 H3447 0.929 . S
C3459 C3453 1.390 . S
C3459 C3456 1.386 . S
C3460 C3455 1.490 . S
C3460 C3462 1.395 . S
C3460 C3463 1.403 . S
H3461 C3467 0.930 . S
C3462 H3448 0.930 . S
C3462 C3460 1.395 . S
C3462 C3465 1.403 . S
C3463 C3460 1.403 . S
C3463 C3464 1.524 . S
C3463 C3467 1.400 . S
C3464 H3449 0.960 . S
C3464 H3450 0.960 . S
C3464 H3451 0.960 . S
C3464 C3463 1.524 . S
C3465 C3462 1.403 . S
C3465 C3466 1.392 . S
C3465 C3469 1.495 . S
C3466 C3465 1.392 . S
C3466 C3467 1.385 . S
C3466 C3468 1.478 . S
C3467 H3461 0.930 . S
C3467 C3463 1.400 . S
C3467 C3466 1.385 . S
C3468 C3466 1.478 . S
C3468 C3470 1.381 . S
C3468 C3474 1.383 . S
C3469 C3465 1.495 . S
C3469 H3475 0.959 . S
C3469 H3476 0.961 . S
C3469 H3477 0.960 . S
C3470 C3468 1.381 . S
C3470 C3471 1.394 . S
C3470 H3478 0.930 . S
C3471 C3470 1.394 . S
C3471 C3472 1.383 . S
C3471 H3479 0.929 . S
C3472 C3471 1.383 . S
C3472 C3473 1.377 . S
C3473 H3457 0.930 . S
C3473 C3472 1.377 . S
C3473 C3474 1.379 . S
C3474 H3458 0.931 . S
C3474 C3468 1.383 . S
C3474 C3473 1.379 . S
H3475 C3469 0.959 . S
H3476 C3469 0.961 . S
H3477 C3469 0.960 . S
H3478 C3470 0.930 . S
H3479 C3471 0.929 . S
H3480 C3488 0.929 . S
H3481 C3490 0.930 . S
H3482 C3492 0.930 . S
H3483 C3495 0.929 . S
H3484 C3498 0.930 . S
H3485 C3500 0.960 . S
H3486 C3500 0.960 . S
H3487 C3500 0.960 . S
C3488 H3480 0.929 . S
C3488 C3489 1.377 . S
C3488 C3490 1.384 . S
C3489 C3488 1.377 . S
C3489 C3495 1.390 . S
C3490 H3481 0.930 . S
C3490 C3488 1.384 . S
C3490 C3491 1.372 . S
C3491 C3490 1.372 . S
C3491 C3492 1.400 . S
C3491 C3496 1.490 . S
C3492 H3482 0.930 . S
C3492 C3491 1.400 . S
C3492 C3495 1.386 . S
H3493 C3509 0.930 . S
H3494 C3510 0.931 . S
C3495 H3483 0.929 . S
C3495 C3489 1.390 . S
C3495 C3492 1.386 . S
C3496 C3491 1.490 . S
C3496 C3498 1.395 . S
C3496 C3499 1.403 . S
H3497 C3503 0.930 . S
C3498 H3484 0.930 . S
C3498 C3496 1.395 . S
C3498 C3501 1.403 . S
C3499 C3496 1.403 . S
C3499 C3500 1.524 . S
C3499 C3503 1.400 . S
C3500 H3485 0.960 . S
C3500 H3486 0.960 . S
C3500 H3487 0.960 . S
C3500 C3499 1.524 . S
C3501 C3498 1.403 . S
C3501 C3502 1.392 . S
C3501 C3505 1.495 . S
C3502 C3501 1.392 . S
C3502 C3503 1.385 . S
C3502 C3504 1.478 . S
C3503 H3497 0.930 . S
C3503 C3499 1.400 . S
C3503 C3502 1.385 . S
C3504 C3502 1.478 . S
C3504 C3506 1.381 . S
C3504 C3510 1.383 . S
C3505 C3501 1.495 . S
C3505 H3511 0.959 . S
C3505 H3512 0.961 . S
C3505 H3513 0.960 . S
C3506 C3504 1.381 . S
C3506 C3507 1.394 . S
C3506 H3514 0.930 . S
C3507 C3506 1.394 . S
C3507 C3508 1.383 . S
C3507 H3515 0.929 . S
C3508 C3507 1.383 . S
C3508 C3509 1.377 . S
C3509 H3493 0.930 . S
C3509 C3508 1.377 . S
C3509 C3510 1.379 . S
C3510 H3494 0.931 . S
C3510 C3504 1.383 . S
C3510 C3509 1.379 . S
H3511 C3505 0.959 . S
H3512 C3505 0.961 . S
H3513 C3505 0.960 . S
H3514 C3506 0.930 . S
H3515 C3507 0.929 . S
H3516 C3524 0.929 . S
H3517 C3526 0.930 . S
H3518 C3528 0.930 . S
H3519 C3531 0.929 . S
H3520 C3534 0.930 . S
H3521 C3536 0.960 . S
H3522 C3536 0.960 . S
H3523 C3536 0.960 . S
C3524 H3516 0.929 . S
C3524 C3525 1.377 . S
C3524 C3526 1.384 . S
C3525 C3524 1.377 . S
C3525 C3531 1.390 . S
C3526 H3517 0.930 . S
C3526 C3524 1.384 . S
C3526 C3527 1.372 . S
C3527 C3526 1.372 . S
C3527 C3528 1.400 . S
C3527 C3532 1.490 . S
C3528 H3518 0.930 . S
C3528 C3527 1.400 . S
C3528 C3531 1.386 . S
H3529 C3545 0.930 . S
H3530 C3546 0.931 . S
C3531 H3519 0.929 . S
C3531 C3525 1.390 . S
C3531 C3528 1.386 . S
C3532 C3527 1.490 . S
C3532 C3534 1.395 . S
C3532 C3535 1.403 . S
H3533 C3539 0.930 . S
C3534 H3520 0.930 . S
C3534 C3532 1.395 . S
C3534 C3537 1.403 . S
C3535 C3532 1.403 . S
C3535 C3536 1.524 . S
C3535 C3539 1.400 . S
C3536 H3521 0.960 . S
C3536 H3522 0.960 . S
C3536 H3523 0.960 . S
C3536 C3535 1.524 . S
C3537 C3534 1.403 . S
C3537 C3538 1.392 . S
C3537 C3541 1.495 . S
C3538 C3537 1.392 . S
C3538 C3539 1.385 . S
C3538 C3540 1.478 . S
C3539 H3533 0.930 . S
C3539 C3535 1.400 . S
C3539 C3538 1.385 . S
C3540 C3538 1.478 . S
C3540 C3542 1.381 . S
C3540 C3546 1.383 . S
C3541 C3537 1.495 . S
C3541 H3547 0.959 . S
C3541 H3548 0.961 . S
C3541 H3549 0.960 . S
C3542 C3540 1.381 . S
C3542 C3543 1.394 . S
C3542 H3550 0.930 . S
C3543 C3542 1.394 . S
C3543 C3544 1.383 . S
C3543 H3551 0.929 . S
C3544 C3543 1.383 . S
C3544 C3545 1.377 . S
C3545 H3529 0.930 . S
C3545 C3544 1.377 . S
C3545 C3546 1.379 . S
C3546 H3530 0.931 . S
C3546 C3540 1.383 . S
C3546 C3545 1.379 . S
H3547 C3541 0.959 . S
H3548 C3541 0.961 . S
H3549 C3541 0.960 . S
H3550 C3542 0.930 . S
H3551 C3543 0.929 . S
H3552 C3560 0.929 . S
H3553 C3562 0.930 . S
H3554 C3564 0.930 . S
H3555 C3567 0.929 . S
H3556 C3570 0.930 . S
H3557 C3572 0.960 . S
H3558 C3572 0.960 . S
H3559 C3572 0.960 . S
C3560 H3552 0.929 . S
C3560 C3561 1.377 . S
C3560 C3562 1.384 . S
C3561 C3560 1.377 . S
C3561 C3567 1.390 . S
C3562 H3553 0.930 . S
C3562 C3560 1.384 . S
C3562 C3563 1.372 . S
C3563 C3562 1.372 . S
C3563 C3564 1.400 . S
C3563 C3568 1.490 . S
C3564 H3554 0.930 . S
C3564 C3563 1.400 . S
C3564 C3567 1.386 . S
H3565 C3581 0.930 . S
H3566 C3582 0.931 . S
C3567 H3555 0.929 . S
C3567 C3561 1.390 . S
C3567 C3564 1.386 . S
C3568 C3563 1.490 . S
C3568 C3570 1.395 . S
C3568 C3571 1.403 . S
H3569 C3575 0.930 . S
C3570 H3556 0.930 . S
C3570 C3568 1.395 . S
C3570 C3573 1.403 . S
C3571 C3568 1.403 . S
C3571 C3572 1.524 . S
C3571 C3575 1.400 . S
C3572 H3557 0.960 . S
C3572 H3558 0.960 . S
C3572 H3559 0.960 . S
C3572 C3571 1.524 . S
C3573 C3570 1.403 . S
C3573 C3574 1.392 . S
C3573 C3577 1.495 . S
C3574 C3573 1.392 . S
C3574 C3575 1.385 . S
C3574 C3576 1.478 . S
C3575 H3569 0.930 . S
C3575 C3571 1.400 . S
C3575 C3574 1.385 . S
C3576 C3574 1.478 . S
C3576 C3578 1.381 . S
C3576 C3582 1.383 . S
C3577 C3573 1.495 . S
C3577 H3583 0.959 . S
C3577 H3584 0.961 . S
C3577 H3585 0.960 . S
C3578 C3576 1.381 . S
C3578 C3579 1.394 . S
C3578 H3586 0.930 . S
C3579 C3578 1.394 . S
C3579 C3580 1.383 . S
C3579 H3587 0.929 . S
C3580 C3579 1.383 . S
C3580 C3581 1.377 . S
C3581 H3565 0.930 . S
C3581 C3580 1.377 . S
C3581 C3582 1.379 . S
C3582 H3566 0.931 . S
C3582 C3576 1.383 . S
C3582 C3581 1.379 . S
H3583 C3577 0.959 . S
H3584 C3577 0.961 . S
H3585 C3577 0.960 . S
H3586 C3578 0.930 . S
H3587 C3579 0.929 . S
H3588 C3596 0.929 . S
H3589 C3598 0.930 . S
H3590 C3600 0.930 . S
H3591 C3603 0.929 . S
H3592 C3606 0.930 . S
H3593 C3608 0.960 . S
H3594 C3608 0.960 . S
H3595 C3608 0.960 . S
C3596 H3588 0.929 . S
C3596 C3597 1.377 . S
C3596 C3598 1.384 . S
C3597 C3596 1.377 . S
C3597 C3603 1.390 . S
C3598 H3589 0.930 . S
C3598 C3596 1.384 . S
C3598 C3599 1.372 . S
C3599 C3598 1.372 . S
C3599 C3600 1.400 . S
C3599 C3604 1.490 . S
C3600 H3590 0.930 . S
C3600 C3599 1.400 . S
C3600 C3603 1.386 . S
H3601 C3617 0.930 . S
H3602 C3618 0.931 . S
C3603 H3591 0.929 . S
C3603 C3597 1.390 . S
C3603 C3600 1.386 . S
C3604 C3599 1.490 . S
C3604 C3606 1.395 . S
C3604 C3607 1.403 . S
H3605 C3611 0.930 . S
C3606 H3592 0.930 . S
C3606 C3604 1.395 . S
C3606 C3609 1.403 . S
C3607 C3604 1.403 . S
C3607 C3608 1.524 . S
C3607 C3611 1.400 . S
C3608 H3593 0.960 . S
C3608 H3594 0.960 . S
C3608 H3595 0.960 . S
C3608 C3607 1.524 . S
C3609 C3606 1.403 . S
C3609 C3610 1.392 . S
C3609 C3613 1.495 . S
C3610 C3609 1.392 . S
C3610 C3611 1.385 . S
C3610 C3612 1.478 . S
C3611 H3605 0.930 . S
C3611 C3607 1.400 . S
C3611 C3610 1.385 . S
C3612 C3610 1.478 . S
C3612 C3614 1.381 . S
C3612 C3618 1.383 . S
C3613 C3609 1.495 . S
C3613 H3619 0.959 . S
C3613 H3620 0.961 . S
C3613 H3621 0.960 . S
C3614 C3612 1.381 . S
C3614 C3615 1.394 . S
C3614 H3622 0.930 . S
C3615 C3614 1.394 . S
C3615 C3616 1.383 . S
C3615 H3623 0.929 . S
C3616 C3615 1.383 . S
C3616 C3617 1.377 . S
C3617 H3601 0.930 . S
C3617 C3616 1.377 . S
C3617 C3618 1.379 . S
C3618 H3602 0.931 . S
C3618 C3612 1.383 . S
C3618 C3617 1.379 . S
H3619 C3613 0.959 . S
H3620 C3613 0.961 . S
H3621 C3613 0.960 . S
H3622 C3614 0.930 . S
H3623 C3615 0.929 . S
H3624 C3632 0.929 . S
H3625 C3634 0.930 . S
H3626 C3636 0.930 . S
H3627 C3639 0.929 . S
H3628 C3642 0.930 . S
H3629 C3644 0.960 . S
H3630 C3644 0.960 . S
H3631 C3644 0.960 . S
C3632 H3624 0.929 . S
C3632 C3633 1.377 . S
C3632 C3634 1.384 . S
C3633 C3632 1.377 . S
C3633 C3639 1.390 . S
C3634 H3625 0.930 . S
C3634 C3632 1.384 . S
C3634 C3635 1.372 . S
C3635 C3634 1.372 . S
C3635 C3636 1.400 . S
C3635 C3640 1.490 . S
C3636 H3626 0.930 . S
C3636 C3635 1.400 . S
C3636 C3639 1.386 . S
H3637 C3653 0.930 . S
H3638 C3654 0.931 . S
C3639 H3627 0.929 . S
C3639 C3633 1.390 . S
C3639 C3636 1.386 . S
C3640 C3635 1.490 . S
C3640 C3642 1.395 . S
C3640 C3643 1.403 . S
H3641 C3647 0.930 . S
C3642 H3628 0.930 . S
C3642 C3640 1.395 . S
C3642 C3645 1.403 . S
C3643 C3640 1.403 . S
C3643 C3644 1.524 . S
C3643 C3647 1.400 . S
C3644 H3629 0.960 . S
C3644 H3630 0.960 . S
C3644 H3631 0.960 . S
C3644 C3643 1.524 . S
C3645 C3642 1.403 . S
C3645 C3646 1.392 . S
C3645 C3649 1.495 . S
C3646 C3645 1.392 . S
C3646 C3647 1.385 . S
C3646 C3648 1.478 . S
C3647 H3641 0.930 . S
C3647 C3643 1.400 . S
C3647 C3646 1.385 . S
C3648 C3646 1.478 . S
C3648 C3650 1.381 . S
C3648 C3654 1.383 . S
C3649 C3645 1.495 . S
C3649 H3655 0.959 . S
C3649 H3656 0.961 . S
C3649 H3657 0.960 . S
C3650 C3648 1.381 . S
C3650 C3651 1.394 . S
C3650 H3658 0.930 . S
C3651 C3650 1.394 . S
C3651 C3652 1.383 . S
C3651 H3659 0.929 . S
C3652 C3651 1.383 . S
C3652 C3653 1.377 . S
C3653 H3637 0.930 . S
C3653 C3652 1.377 . S
C3653 C3654 1.379 . S
C3654 H3638 0.931 . S
C3654 C3648 1.383 . S
C3654 C3653 1.379 . S
H3655 C3649 0.959 . S
H3656 C3649 0.961 . S
H3657 C3649 0.960 . S
H3658 C3650 0.930 . S
H3659 C3651 0.929 . S
H3660 C3668 0.929 . S
H3661 C3670 0.930 . S
H3662 C3672 0.930 . S
H3663 C3675 0.929 . S
H3664 C3678 0.930 . S
H3665 C3680 0.960 . S
H3666 C3680 0.960 . S
H3667 C3680 0.960 . S
C3668 H3660 0.929 . S
C3668 C3669 1.377 . S
C3668 C3670 1.384 . S
C3669 C3668 1.377 . S
C3669 C3675 1.390 . S
C3670 H3661 0.930 . S
C3670 C3668 1.384 . S
C3670 C3671 1.372 . S
C3671 C3670 1.372 . S
C3671 C3672 1.400 . S
C3671 C3676 1.490 . S
C3672 H3662 0.930 . S
C3672 C3671 1.400 . S
C3672 C3675 1.386 . S
H3673 C3689 0.930 . S
H3674 C3690 0.931 . S
C3675 H3663 0.929 . S
C3675 C3669 1.390 . S
C3675 C3672 1.386 . S
C3676 C3671 1.490 . S
C3676 C3678 1.395 . S
C3676 C3679 1.403 . S
H3677 C3683 0.930 . S
C3678 H3664 0.930 . S
C3678 C3676 1.395 . S
C3678 C3681 1.403 . S
C3679 C3676 1.403 . S
C3679 C3680 1.524 . S
C3679 C3683 1.400 . S
C3680 H3665 0.960 . S
C3680 H3666 0.960 . S
C3680 H3667 0.960 . S
C3680 C3679 1.524 . S
C3681 C3678 1.403 . S
C3681 C3682 1.392 . S
C3681 C3685 1.495 . S
C3682 C3681 1.392 . S
C3682 C3683 1.385 . S
C3682 C3684 1.478 . S
C3683 H3677 0.930 . S
C3683 C3679 1.400 . S
C3683 C3682 1.385 . S
C3684 C3682 1.478 . S
C3684 C3686 1.381 . S
C3684 C3690 1.383 . S
C3685 C3681 1.495 . S
C3685 H3691 0.959 . S
C3685 H3692 0.961 . S
C3685 H3693 0.960 . S
C3686 C3684 1.381 . S
C3686 C3687 1.394 . S
C3686 H3694 0.930 . S
C3687 C3686 1.394 . S
C3687 C3688 1.383 . S
C3687 H3695 0.929 . S
C3688 C3687 1.383 . S
C3688 C3689 1.377 . S
C3689 H3673 0.930 . S
C3689 C3688 1.377 . S
C3689 C3690 1.379 . S
C3690 H3674 0.931 . S
C3690 C3684 1.383 . S
C3690 C3689 1.379 . S
H3691 C3685 0.959 . S
H3692 C3685 0.961 . S
H3693 C3685 0.960 . S
H3694 C3686 0.930 . S
H3695 C3687 0.929 . S
H3696 C3704 0.929 . S
H3697 C3706 0.930 . S
H3698 C3708 0.930 . S
H3699 C3711 0.929 . S
H3700 C3714 0.930 . S
H3701 C3716 0.960 . S
H3702 C3716 0.960 . S
H3703 C3716 0.960 . S
C3704 H3696 0.929 . S
C3704 C3705 1.377 . S
C3704 C3706 1.384 . S
C3705 C3704 1.377 . S
C3705 C3711 1.390 . S
C3706 H3697 0.930 . S
C3706 C3704 1.384 . S
C3706 C3707 1.372 . S
C3707 C3706 1.372 . S
C3707 C3708 1.400 . S
C3707 C3712 1.490 . S
C3708 H3698 0.930 . S
C3708 C3707 1.400 . S
C3708 C3711 1.386 . S
H3709 C3725 0.930 . S
H3710 C3726 0.931 . S
C3711 H3699 0.929 . S
C3711 C3705 1.390 . S
C3711 C3708 1.386 . S
C3712 C3707 1.490 . S
C3712 C3714 1.395 . S
C3712 C3715 1.403 . S
H3713 C3719 0.930 . S
C3714 H3700 0.930 . S
C3714 C3712 1.395 . S
C3714 C3717 1.403 . S
C3715 C3712 1.403 . S
C3715 C3716 1.524 . S
C3715 C3719 1.400 . S
C3716 H3701 0.960 . S
C3716 H3702 0.960 . S
C3716 H3703 0.960 . S
C3716 C3715 1.524 . S
C3717 C3714 1.403 . S
C3717 C3718 1.392 . S
C3717 C3721 1.495 . S
C3718 C3717 1.392 . S
C3718 C3719 1.385 . S
C3718 C3720 1.478 . S
C3719 H3713 0.930 . S
C3719 C3715 1.400 . S
C3719 C3718 1.385 . S
C3720 C3718 1.478 . S
C3720 C3722 1.381 . S
C3720 C3726 1.383 . S
C3721 C3717 1.495 . S
C3721 H3727 0.959 . S
C3721 H3728 0.961 . S
C3721 H3729 0.960 . S
C3722 C3720 1.381 . S
C3722 C3723 1.394 . S
C3722 H3730 0.930 . S
C3723 C3722 1.394 . S
C3723 C3724 1.383 . S
C3723 H3731 0.929 . S
C3724 C3723 1.383 . S
C3724 C3725 1.377 . S
C3725 H3709 0.930 . S
C3725 C3724 1.377 . S
C3725 C3726 1.379 . S
C3726 H3710 0.931 . S
C3726 C3720 1.383 . S
C3726 C3725 1.379 . S
H3727 C3721 0.959 . S
H3728 C3721 0.961 . S
H3729 C3721 0.960 . S
H3730 C3722 0.930 . S
H3731 C3723 0.929 . S
H3732 C3740 0.929 . S
H3733 C3742 0.930 . S
H3734 C3744 0.930 . S
H3735 C3747 0.929 . S
H3736 C3750 0.930 . S
H3737 C3752 0.960 . S
H3738 C3752 0.960 . S
H3739 C3752 0.960 . S
C3740 H3732 0.929 . S
C3740 C3741 1.377 . S
C3740 C3742 1.384 . S
C3741 C3740 1.377 . S
C3741 C3747 1.390 . S
C3742 H3733 0.930 . S
C3742 C3740 1.384 . S
C3742 C3743 1.372 . S
C3743 C3742 1.372 . S
C3743 C3744 1.400 . S
C3743 C3748 1.490 . S
C3744 H3734 0.930 . S
C3744 C3743 1.400 . S
C3744 C3747 1.386 . S
H3745 C3761 0.930 . S
H3746 C3762 0.931 . S
C3747 H3735 0.929 . S
C3747 C3741 1.390 . S
C3747 C3744 1.386 . S
C3748 C3743 1.490 . S
C3748 C3750 1.395 . S
C3748 C3751 1.403 . S
H3749 C3755 0.930 . S
C3750 H3736 0.930 . S
C3750 C3748 1.395 . S
C3750 C3753 1.403 . S
C3751 C3748 1.403 . S
C3751 C3752 1.524 . S
C3751 C3755 1.400 . S
C3752 H3737 0.960 . S
C3752 H3738 0.960 . S
C3752 H3739 0.960 . S
C3752 C3751 1.524 . S
C3753 C3750 1.403 . S
C3753 C3754 1.392 . S
C3753 C3757 1.495 . S
C3754 C3753 1.392 . S
C3754 C3755 1.385 . S
C3754 C3756 1.478 . S
C3755 H3749 0.930 . S
C3755 C3751 1.400 . S
C3755 C3754 1.385 . S
C3756 C3754 1.478 . S
C3756 C3758 1.381 . S
C3756 C3762 1.383 . S
C3757 C3753 1.495 . S
C3757 H3763 0.959 . S
C3757 H3764 0.961 . S
C3757 H3765 0.960 . S
C3758 C3756 1.381 . S
C3758 C3759 1.394 . S
C3758 H3766 0.930 . S
C3759 C3758 1.394 . S
C3759 C3760 1.383 . S
C3759 H3767 0.929 . S
C3760 C3759 1.383 . S
C3760 C3761 1.377 . S
C3761 H3745 0.930 . S
C3761 C3760 1.377 . S
C3761 C3762 1.379 . S
C3762 H3746 0.931 . S
C3762 C3756 1.383 . S
C3762 C3761 1.379 . S
H3763 C3757 0.959 . S
H3764 C3757 0.961 . S
H3765 C3757 0.960 . S
H3766 C3758 0.930 . S
H3767 C3759 0.929 . S
H3768 C3776 0.929 . S
H3769 C3778 0.930 . S
H3770 C3780 0.930 . S
H3771 C3783 0.929 . S
H3772 C3786 0.930 . S
H3773 C3788 0.960 . S
H3774 C3788 0.960 . S
H3775 C3788 0.960 . S
C3776 H3768 0.929 . S
C3776 C3777 1.377 . S
C3776 C3778 1.384 . S
C3777 C3776 1.377 . S
C3777 C3783 1.390 . S
C3778 H3769 0.930 . S
C3778 C3776 1.384 . S
C3778 C3779 1.372 . S
C3779 C3778 1.372 . S
C3779 C3780 1.400 . S
C3779 C3784 1.490 . S
C3780 H3770 0.930 . S
C3780 C3779 1.400 . S
C3780 C3783 1.386 . S
H3781 C3797 0.930 . S
H3782 C3798 0.931 . S
C3783 H3771 0.929 . S
C3783 C3777 1.390 . S
C3783 C3780 1.386 . S
C3784 C3779 1.490 . S
C3784 C3786 1.395 . S
C3784 C3787 1.403 . S
H3785 C3791 0.930 . S
C3786 H3772 0.930 . S
C3786 C3784 1.395 . S
C3786 C3789 1.403 . S
C3787 C3784 1.403 . S
C3787 C3788 1.524 . S
C3787 C3791 1.400 . S
C3788 H3773 0.960 . S
C3788 H3774 0.960 . S
C3788 H3775 0.960 . S
C3788 C3787 1.524 . S
C3789 C3786 1.403 . S
C3789 C3790 1.392 . S
C3789 C3793 1.495 . S
C3790 C3789 1.392 . S
C3790 C3791 1.385 . S
C3790 C3792 1.478 . S
C3791 H3785 0.930 . S
C3791 C3787 1.400 . S
C3791 C3790 1.385 . S
C3792 C3790 1.478 . S
C3792 C3794 1.381 . S
C3792 C3798 1.383 . S
C3793 C3789 1.495 . S
C3793 H3799 0.959 . S
C3793 H3800 0.961 . S
C3793 H3801 0.960 . S
C3794 C3792 1.381 . S
C3794 C3795 1.394 . S
C3794 H3802 0.930 . S
C3795 C3794 1.394 . S
C3795 C3796 1.383 . S
C3795 H3803 0.929 . S
C3796 C3795 1.383 . S
C3796 C3797 1.377 . S
C3797 H3781 0.930 . S
C3797 C3796 1.377 . S
C3797 C3798 1.379 . S
C3798 H3782 0.931 . S
C3798 C3792 1.383 . S
C3798 C3797 1.379 . S
H3799 C3793 0.959 . S
H3800 C3793 0.961 . S
H3801 C3793 0.960 . S
H3802 C3794 0.930 . S
H3803 C3795 0.929 . S
H3804 C3812 0.929 . S
H3805 C3814 0.930 . S
H3806 C3816 0.930 . S
H3807 C3819 0.929 . S
H3808 C3822 0.930 . S
H3809 C3824 0.960 . S
H3810 C3824 0.960 . S
H3811 C3824 0.960 . S
C3812 H3804 0.929 . S
C3812 C3813 1.377 . S
C3812 C3814 1.384 . S
C3813 C3812 1.377 . S
C3813 C3819 1.390 . S
C3814 H3805 0.930 . S
C3814 C3812 1.384 . S
C3814 C3815 1.372 . S
C3815 C3814 1.372 . S
C3815 C3816 1.400 . S
C3815 C3820 1.490 . S
C3816 H3806 0.930 . S
C3816 C3815 1.400 . S
C3816 C3819 1.386 . S
H3817 C3833 0.930 . S
H3818 C3834 0.931 . S
C3819 H3807 0.929 . S
C3819 C3813 1.390 . S
C3819 C3816 1.386 . S
C3820 C3815 1.490 . S
C3820 C3822 1.395 . S
C3820 C3823 1.403 . S
H3821 C3827 0.930 . S
C3822 H3808 0.930 . S
C3822 C3820 1.395 . S
C3822 C3825 1.403 . S
C3823 C3820 1.403 . S
C3823 C3824 1.524 . S
C3823 C3827 1.400 . S
C3824 H3809 0.960 . S
C3824 H3810 0.960 . S
C3824 H3811 0.960 . S
C3824 C3823 1.524 . S
C3825 C3822 1.403 . S
C3825 C3826 1.392 . S
C3825 C3829 1.495 . S
C3826 C3825 1.392 . S
C3826 C3827 1.385 . S
C3826 C3828 1.478 . S
C3827 H3821 0.930 . S
C3827 C3823 1.400 . S
C3827 C3826 1.385 . S
C3828 C3826 1.478 . S
C3828 C3830 1.381 . S
C3828 C3834 1.383 . S
C3829 C3825 1.495 . S
C3829 H3835 0.959 . S
C3829 H3836 0.961 . S
C3829 H3837 0.960 . S
C3830 C3828 1.381 . S
C3830 C3831 1.394 . S
C3830 H3838 0.930 . S
C3831 C3830 1.394 . S
C3831 C3832 1.383 . S
C3831 H3839 0.929 . S
C3832 C3831 1.383 . S
C3832 C3833 1.377 . S
C3833 H3817 0.930 . S
C3833 C3832 1.377 . S
C3833 C3834 1.379 . S
C3834 H3818 0.931 . S
C3834 C3828 1.383 . S
C3834 C3833 1.379 . S
H3835 C3829 0.959 . S
H3836 C3829 0.961 . S
H3837 C3829 0.960 . S
H3838 C3830 0.930 . S
H3839 C3831 0.929 . S
H3840 C3848 0.929 . S
H3841 C3850 0.930 . S
H3842 C3852 0.930 . S
H3843 C3855 0.929 . S
H3844 C3858 0.930 . S
H3845 C3860 0.960 . S
H3846 C3860 0.960 . S
H3847 C3860 0.960 . S
C3848 H3840 0.929 . S
C3848 C3849 1.377 . S
C3848 C3850 1.384 . S
C3849 C3848 1.377 . S
C3849 C3855 1.390 . S
C3850 H3841 0.930 . S
C3850 C3848 1.384 . S
C3850 C3851 1.372 . S
C3851 C3850 1.372 . S
C3851 C3852 1.400 . S
C3851 C3856 1.490 . S
C3852 H3842 0.930 . S
C3852 C3851 1.400 . S
C3852 C3855 1.386 . S
H3853 C3869 0.930 . S
H3854 C3870 0.931 . S
C3855 H3843 0.929 . S
C3855 C3849 1.390 . S
C3855 C3852 1.386 . S
C3856 C3851 1.490 . S
C3856 C3858 1.395 . S
C3856 C3859 1.403 . S
H3857 C3863 0.930 . S
C3858 H3844 0.930 . S
C3858 C3856 1.395 . S
C3858 C3861 1.403 . S
C3859 C3856 1.403 . S
C3859 C3860 1.524 . S
C3859 C3863 1.400 . S
C3860 H3845 0.960 . S
C3860 H3846 0.960 . S
C3860 H3847 0.960 . S
C3860 C3859 1.524 . S
C3861 C3858 1.403 . S
C3861 C3862 1.392 . S
C3861 C3865 1.495 . S
C3862 C3861 1.392 . S
C3862 C3863 1.385 . S
C3862 C3864 1.478 . S
C3863 H3857 0.930 . S
C3863 C3859 1.400 . S
C3863 C3862 1.385 . S
C3864 C3862 1.478 . S
C3864 C3866 1.381 . S
C3864 C3870 1.383 . S
C3865 C3861 1.495 . S
C3865 H3871 0.959 . S
C3865 H3872 0.961 . S
C3865 H3873 0.960 . S
C3866 C3864 1.381 . S
C3866 C3867 1.394 . S
C3866 H3874 0.930 . S
C3867 C3866 1.394 . S
C3867 C3868 1.383 . S
C3867 H3875 0.929 . S
C3868 C3867 1.383 . S
C3868 C3869 1.377 . S
C3869 H3853 0.930 . S
C3869 C3868 1.377 . S
C3869 C3870 1.379 . S
C3870 H3854 0.931 . S
C3870 C3864 1.383 . S
C3870 C3869 1.379 . S
H3871 C3865 0.959 . S
H3872 C3865 0.961 . S
H3873 C3865 0.960 . S
H3874 C3866 0.930 . S
H3875 C3867 0.929 . S
H3876 C3884 0.929 . S
H3877 C3886 0.930 . S
H3878 C3888 0.930 . S
H3879 C3891 0.929 . S
H3880 C3894 0.930 . S
H3881 C3896 0.960 . S
H3882 C3896 0.960 . S
H3883 C3896 0.960 . S
C3884 H3876 0.929 . S
C3884 C3885 1.377 . S
C3884 C3886 1.384 . S
C3885 C3884 1.377 . S
C3885 C3891 1.390 . S
C3886 H3877 0.930 . S
C3886 C3884 1.384 . S
C3886 C3887 1.372 . S
C3887 C3886 1.372 . S
C3887 C3888 1.400 . S
C3887 C3892 1.490 . S
C3888 H3878 0.930 . S
C3888 C3887 1.400 . S
C3888 C3891 1.386 . S
H3889 C3905 0.930 . S
H3890 C3906 0.931 . S
C3891 H3879 0.929 . S
C3891 C3885 1.390 . S
C3891 C3888 1.386 . S
C3892 C3887 1.490 . S
C3892 C3894 1.395 . S
C3892 C3895 1.403 . S
H3893 C3899 0.930 . S
C3894 H3880 0.930 . S
C3894 C3892 1.395 . S
C3894 C3897 1.403 . S
C3895 C3892 1.403 . S
C3895 C3896 1.524 . S
C3895 C3899 1.400 . S
C3896 H3881 0.960 . S
C3896 H3882 0.960 . S
C3896 H3883 0.960 . S
C3896 C3895 1.524 . S
C3897 C3894 1.403 . S
C3897 C3898 1.392 . S
C3897 C3901 1.495 . S
C3898 C3897 1.392 . S
C3898 C3899 1.385 . S
C3898 C3900 1.478 . S
C3899 H3893 0.930 . S
C3899 C3895 1.400 . S
C3899 C3898 1.385 . S
C3900 C3898 1.478 . S
C3900 C3902 1.381 . S
C3900 C3906 1.383 . S
C3901 C3897 1.495 . S
C3901 H3907 0.959 . S
C3901 H3908 0.961 . S
C3901 H3909 0.960 . S
C3902 C3900 1.381 . S
C3902 C3903 1.394 . S
C3902 H3910 0.930 . S
C3903 C3902 1.394 . S
C3903 C3904 1.383 . S
C3903 H3911 0.929 . S
C3904 C3903 1.383 . S
C3904 C3905 1.377 . S
C3905 H3889 0.930 . S
C3905 C3904 1.377 . S
C3905 C3906 1.379 . S
C3906 H3890 0.931 . S
C3906 C3900 1.383 . S
C3906 C3905 1.379 . S
H3907 C3901 0.959 . S
H3908 C3901 0.961 . S
H3909 C3901 0.960 . S
H3910 C3902 0.930 . S
H3911 C3903 0.929 . S
H3912 C3920 0.929 . S
H3913 C3922 0.930 . S
H3914 C3924 0.930 . S
H3915 C3927 0.929 . S
H3916 C3930 0.930 . S
H3917 C3932 0.960 . S
H3918 C3932 0.960 . S
H3919 C3932 0.960 . S
C3920 H3912 0.929 . S
C3920 C3921 1.377 . S
C3920 C3922 1.384 . S
C3921 C3920 1.377 . S
C3921 C3927 1.390 . S
C3922 H3913 0.930 . S
C3922 C3920 1.384 . S
C3922 C3923 1.372 . S
C3923 C3922 1.372 . S
C3923 C3924 1.400 . S
C3923 C3928 1.490 . S
C3924 H3914 0.930 . S
C3924 C3923 1.400 . S
C3924 C3927 1.386 . S
H3925 C3941 0.930 . S
H3926 C3942 0.931 . S
C3927 H3915 0.929 . S
C3927 C3921 1.390 . S
C3927 C3924 1.386 . S
C3928 C3923 1.490 . S
C3928 C3930 1.395 . S
C3928 C3931 1.403 . S
H3929 C3935 0.930 . S
C3930 H3916 0.930 . S
C3930 C3928 1.395 . S
C3930 C3933 1.403 . S
C3931 C3928 1.403 . S
C3931 C3932 1.524 . S
C3931 C3935 1.400 . S
C3932 H3917 0.960 . S
C3932 H3918 0.960 . S
C3932 H3919 0.960 . S
C3932 C3931 1.524 . S
C3933 C3930 1.403 . S
C3933 C3934 1.392 . S
C3933 C3937 1.495 . S
C3934 C3933 1.392 . S
C3934 C3935 1.385 . S
C3934 C3936 1.478 . S
C3935 H3929 0.930 . S
C3935 C3931 1.400 . S
C3935 C3934 1.385 . S
C3936 C3934 1.478 . S
C3936 C3938 1.381 . S
C3936 C3942 1.383 . S
C3937 C3933 1.495 . S
C3937 H3943 0.959 . S
C3937 H3944 0.961 . S
C3937 H3945 0.960 . S
C3938 C3936 1.381 . S
C3938 C3939 1.394 . S
C3938 H3946 0.930 . S
C3939 C3938 1.394 . S
C3939 C3940 1.383 . S
C3939 H3947 0.929 . S
C3940 C3939 1.383 . S
C3940 C3941 1.377 . S
C3941 H3925 0.930 . S
C3941 C3940 1.377 . S
C3941 C3942 1.379 . S
C3942 H3926 0.931 . S
C3942 C3936 1.383 . S
C3942 C3941 1.379 . S
H3943 C3937 0.959 . S
H3944 C3937 0.961 . S
H3945 C3937 0.960 . S
H3946 C3938 0.930 . S
H3947 C3939 0.929 . S
H3948 C3956 0.929 . S
H3949 C3958 0.930 . S
H3950 C3960 0.930 . S
H3951 C3963 0.929 . S
H3952 C3966 0.930 . S
H3953 C3968 0.960 . S
H3954 C3968 0.960 . S
H3955 C3968 0.960 . S
C3956 H3948 0.929 . S
C3956 C3957 1.377 . S
C3956 C3958 1.384 . S
C3957 C3956 1.377 . S
C3957 C3963 1.390 . S
C3958 H3949 0.930 . S
C3958 C3956 1.384 . S
C3958 C3959 1.372 . S
C3959 C3958 1.372 . S
C3959 C3960 1.400 . S
C3959 C3964 1.490 . S
C3960 H3950 0.930 . S
C3960 C3959 1.400 . S
C3960 C3963 1.386 . S
H3961 C3977 0.930 . S
H3962 C3978 0.931 . S
C3963 H3951 0.929 . S
C3963 C3957 1.390 . S
C3963 C3960 1.386 . S
C3964 C3959 1.490 . S
C3964 C3966 1.395 . S
C3964 C3967 1.403 . S
H3965 C3971 0.930 . S
C3966 H3952 0.930 . S
C3966 C3964 1.395 . S
C3966 C3969 1.403 . S
C3967 C3964 1.403 . S
C3967 C3968 1.524 . S
C3967 C3971 1.400 . S
C3968 H3953 0.960 . S
C3968 H3954 0.960 . S
C3968 H3955 0.960 . S
C3968 C3967 1.524 . S
C3969 C3966 1.403 . S
C3969 C3970 1.392 . S
C3969 C3973 1.495 . S
C3970 C3969 1.392 . S
C3970 C3971 1.385 . S
C3970 C3972 1.478 . S
C3971 H3965 0.930 . S
C3971 C3967 1.400 . S
C3971 C3970 1.385 . S
C3972 C3970 1.478 . S
C3972 C3974 1.381 . S
C3972 C3978 1.383 . S
C3973 C3969 1.495 . S
C3973 H3979 0.959 . S
C3973 H3980 0.961 . S
C3973 H3981 0.960 . S
C3974 C3972 1.381 . S
C3974 C3975 1.394 . S
C3974 H3982 0.930 . S
C3975 C3974 1.394 . S
C3975 C3976 1.383 . S
C3975 H3983 0.929 . S
C3976 C3975 1.383 . S
C3976 C3977 1.377 . S
C3977 H3961 0.930 . S
C3977 C3976 1.377 . S
C3977 C3978 1.379 . S
C3978 H3962 0.931 . S
C3978 C3972 1.383 . S
C3978 C3977 1.379 . S
H3979 C3973 0.959 . S
H3980 C3973 0.961 . S
H3981 C3973 0.960 . S
H3982 C3974 0.930 . S
H3983 C3975 0.929 . S
H3984 C3992 0.929 . S
H3985 C3994 0.930 . S
H3986 C3996 0.930 . S
H3987 C3999 0.929 . S
H3988 C4002 0.930 . S
H3989 C4004 0.960 . S
H3990 C4004 0.960 . S
H3991 C4004 0.960 . S
C3992 H3984 0.929 . S
C3992 C3993 1.377 . S
C3992 C3994 1.384 . S
C3993 C3992 1.377 . S
C3993 C3999 1.390 . S
C3994 H3985 0.930 . S
C3994 C3992 1.384 . S
C3994 C3995 1.372 . S
C3995 C3994 1.372 . S
C3995 C3996 1.400 . S
C3995 C4000 1.490 . S
C3996 H3986 0.930 . S
C3996 C3995 1.400 . S
C3996 C3999 1.386 . S
H3997 C4013 0.930 . S
H3998 C4014 0.931 . S
C3999 H3987 0.929 . S
C3999 C3993 1.390 . S
C3999 C3996 1.386 . S
C4000 C3995 1.490 . S
C4000 C4002 1.395 . S
C4000 C4003 1.403 . S
H4001 C4007 0.930 . S
C4002 H3988 0.930 . S
C4002 C4000 1.395 . S
C4002 C4005 1.403 . S
C4003 C4000 1.403 . S
C4003 C4004 1.524 . S
C4003 C4007 1.400 . S
C4004 H3989 0.960 . S
C4004 H3990 0.960 . S
C4004 H3991 0.960 . S
C4004 C4003 1.524 . S
C4005 C4002 1.403 . S
C4005 C4006 1.392 . S
C4005 C4009 1.495 . S
C4006 C4005 1.392 . S
C4006 C4007 1.385 . S
C4006 C4008 1.478 . S
C4007 H4001 0.930 . S
C4007 C4003 1.400 . S
C4007 C4006 1.385 . S
C4008 C4006 1.478 . S
C4008 C4010 1.381 . S
C4008 C4014 1.383 . S
C4009 C4005 1.495 . S
C4009 H4015 0.959 . S
C4009 H4016 0.961 . S
C4009 H4017 0.960 . S
C4010 C4008 1.381 . S
C4010 C4011 1.394 . S
C4010 H4018 0.930 . S
C4011 C4010 1.394 . S
C4011 C4012 1.383 . S
C4011 H4019 0.929 . S
C4012 C4011 1.383 . S
C4012 C4013 1.377 . S
C4013 H3997 0.930 . S
C4013 C4012 1.377 . S
C4013 C4014 1.379 . S
C4014 H3998 0.931 . S
C4014 C4008 1.383 . S
C4014 C4013 1.379 . S
H4015 C4009 0.959 . S
H4016 C4009 0.961 . S
H4017 C4009 0.960 . S
H4018 C4010 0.930 . S
H4019 C4011 0.929 . S
H4020 C4028 0.929 . S
H4021 C4030 0.930 . S
H4022 C4032 0.930 . S
H4023 C4035 0.929 . S
H4024 C4038 0.930 . S
H4025 C4040 0.960 . S
H4026 C4040 0.960 . S
H4027 C4040 0.960 . S
C4028 H4020 0.929 . S
C4028 C4029 1.377 . S
C4028 C4030 1.384 . S
C4029 C4028 1.377 . S
C4029 C4035 1.390 . S
C4030 H4021 0.930 . S
C4030 C4028 1.384 . S
C4030 C4031 1.372 . S
C4031 C4030 1.372 . S
C4031 C4032 1.400 . S
C4031 C4036 1.490 . S
C4032 H4022 0.930 . S
C4032 C4031 1.400 . S
C4032 C4035 1.386 . S
H4033 C4049 0.930 . S
H4034 C4050 0.931 . S
C4035 H4023 0.929 . S
C4035 C4029 1.390 . S
C4035 C4032 1.386 . S
C4036 C4031 1.490 . S
C4036 C4038 1.395 . S
C4036 C4039 1.403 . S
H4037 C4043 0.930 . S
C4038 H4024 0.930 . S
C4038 C4036 1.395 . S
C4038 C4041 1.403 . S
C4039 C4036 1.403 . S
C4039 C4040 1.524 . S
C4039 C4043 1.400 . S
C4040 H4025 0.960 . S
C4040 H4026 0.960 . S
C4040 H4027 0.960 . S
C4040 C4039 1.524 . S
C4041 C4038 1.403 . S
C4041 C4042 1.392 . S
C4041 C4045 1.495 . S
C4042 C4041 1.392 . S
C4042 C4043 1.385 . S
C4042 C4044 1.478 . S
C4043 H4037 0.930 . S
C4043 C4039 1.400 . S
C4043 C4042 1.385 . S
C4044 C4042 1.478 . S
C4044 C4046 1.381 . S
C4044 C4050 1.383 . S
C4045 C4041 1.495 . S
C4045 H4051 0.959 . S
C4045 H4052 0.961 . S
C4045 H4053 0.960 . S
C4046 C4044 1.381 . S
C4046 C4047 1.394 . S
C4046 H4054 0.930 . S
C4047 C4046 1.394 . S
C4047 C4048 1.383 . S
C4047 H4055 0.929 . S
C4048 C4047 1.383 . S
C4048 C4049 1.377 . S
C4049 H4033 0.930 . S
C4049 C4048 1.377 . S
C4049 C4050 1.379 . S
C4050 H4034 0.931 . S
C4050 C4044 1.383 . S
C4050 C4049 1.379 . S
H4051 C4045 0.959 . S
H4052 C4045 0.961 . S
H4053 C4045 0.960 . S
H4054 C4046 0.930 . S
H4055 C4047 0.929 . S
H4056 C4064 0.929 . S
H4057 C4066 0.930 . S
H4058 C4068 0.930 . S
H4059 C4071 0.929 . S
H4060 C4074 0.930 . S
H4061 C4076 0.960 . S
H4062 C4076 0.960 . S
H4063 C4076 0.960 . S
C4064 H4056 0.929 . S
C4064 C4065 1.377 . S
C4064 C4066 1.384 . S
C4065 C4064 1.377 . S
C4065 C4071 1.390 . S
C4066 H4057 0.930 . S
C4066 C4064 1.384 . S
C4066 C4067 1.372 . S
C4067 C4066 1.372 . S
C4067 C4068 1.400 . S
C4067 C4072 1.490 . S
C4068 H4058 0.930 . S
C4068 C4067 1.400 . S
C4068 C4071 1.386 . S
H4069 C4085 0.930 . S
H4070 C4086 0.931 . S
C4071 H4059 0.929 . S
C4071 C4065 1.390 . S
C4071 C4068 1.386 . S
C4072 C4067 1.490 . S
C4072 C4074 1.395 . S
C4072 C4075 1.403 . S
H4073 C4079 0.930 . S
C4074 H4060 0.930 . S
C4074 C4072 1.395 . S
C4074 C4077 1.403 . S
C4075 C4072 1.403 . S
C4075 C4076 1.524 . S
C4075 C4079 1.400 . S
C4076 H4061 0.960 . S
C4076 H4062 0.960 . S
C4076 H4063 0.960 . S
C4076 C4075 1.524 . S
C4077 C4074 1.403 . S
C4077 C4078 1.392 . S
C4077 C4081 1.495 . S
C4078 C4077 1.392 . S
C4078 C4079 1.385 . S
C4078 C4080 1.478 . S
C4079 H4073 0.930 . S
C4079 C4075 1.400 . S
C4079 C4078 1.385 . S
C4080 C4078 1.478 . S
C4080 C4082 1.381 . S
C4080 C4086 1.383 . S
C4081 C4077 1.495 . S
C4081 H4087 0.959 . S
C4081 H4088 0.961 . S
C4081 H4089 0.960 . S
C4082 C4080 1.381 . S
C4082 C4083 1.394 . S
C4082 H4090 0.930 . S
C4083 C4082 1.394 . S
C4083 C4084 1.383 . S
C4083 H4091 0.929 . S
C4084 C4083 1.383 . S
C4084 C4085 1.377 . S
C4085 H4069 0.930 . S
C4085 C4084 1.377 . S
C4085 C4086 1.379 . S
C4086 H4070 0.931 . S
C4086 C4080 1.383 . S
C4086 C4085 1.379 . S
H4087 C4081 0.959 . S
H4088 C4081 0.961 . S
H4089 C4081 0.960 . S
H4090 C4082 0.930 . S
H4091 C4083 0.929 . S
H4092 C4100 0.929 . S
H4093 C4102 0.930 . S
H4094 C4104 0.930 . S
H4095 C4107 0.929 . S
H4096 C4110 0.930 . S
H4097 C4112 0.960 . S
H4098 C4112 0.960 . S
H4099 C4112 0.960 . S
C4100 H4092 0.929 . S
C4100 C4101 1.377 . S
C4100 C4102 1.384 . S
C4101 C4100 1.377 . S
C4101 C4107 1.390 . S
C4102 H4093 0.930 . S
C4102 C4100 1.384 . S
C4102 C4103 1.372 . S
C4103 C4102 1.372 . S
C4103 C4104 1.400 . S
C4103 C4108 1.490 . S
C4104 H4094 0.930 . S
C4104 C4103 1.400 . S
C4104 C4107 1.386 . S
H4105 C4121 0.930 . S
H4106 C4122 0.931 . S
C4107 H4095 0.929 . S
C4107 C4101 1.390 . S
C4107 C4104 1.386 . S
C4108 C4103 1.490 . S
C4108 C4110 1.395 . S
C4108 C4111 1.403 . S
H4109 C4115 0.930 . S
C4110 H4096 0.930 . S
C4110 C4108 1.395 . S
C4110 C4113 1.403 . S
C4111 C4108 1.403 . S
C4111 C4112 1.524 . S
C4111 C4115 1.400 . S
C4112 H4097 0.960 . S
C4112 H4098 0.960 . S
C4112 H4099 0.960 . S
C4112 C4111 1.524 . S
C4113 C4110 1.403 . S
C4113 C4114 1.392 . S
C4113 C4117 1.495 . S
C4114 C4113 1.392 . S
C4114 C4115 1.385 . S
C4114 C4116 1.478 . S
C4115 H4109 0.930 . S
C4115 C4111 1.400 . S
C4115 C4114 1.385 . S
C4116 C4114 1.478 . S
C4116 C4118 1.381 . S
C4116 C4122 1.383 . S
C4117 C4113 1.495 . S
C4117 H4123 0.959 . S
C4117 H4124 0.961 . S
C4117 H4125 0.960 . S
C4118 C4116 1.381 . S
C4118 C4119 1.394 . S
C4118 H4126 0.930 . S
C4119 C4118 1.394 . S
C4119 C4120 1.383 . S
C4119 H4127 0.929 . S
C4120 C4119 1.383 . S
C4120 C4121 1.377 . S
C4121 H4105 0.930 . S
C4121 C4120 1.377 . S
C4121 C4122 1.379 . S
C4122 H4106 0.931 . S
C4122 C4116 1.383 . S
C4122 C4121 1.379 . S
H4123 C4117 0.959 . S
H4124 C4117 0.961 . S
H4125 C4117 0.960 . S
H4126 C4118 0.930 . S
H4127 C4119 0.929 . S
C681 C134 1.465 . S
C700 C8 1.492 . S
C717 C148 1.467 . S
C736 C22 1.496 . S
C753 C162 1.465 . S
C772 C36 1.493 . S
C789 C50 1.475 . S
C808 C120 1.447 . S
C825 C218 1.476 . S
C844 C64 1.467 . S
C861 C78 1.473 . S
C880 C176 1.488 . S
C897 C190 1.464 . S
C916 C92 1.487 . S
C933 C204 1.464 . S
C952 C106 1.457 . S
C969 C232 1.463 . S
C988 C260 1.474 . S
C1005 C246 1.471 . S
C1024 C316 1.494 . S
C1041 C274 1.466 . S
C1060 C330 1.447 . S
C1077 C288 1.465 . S
C1096 C302 1.449 . S
C1113 C344 1.470 . S
C1132 C470 1.495 . S
C1149 C484 1.463 . S
C1168 C358 1.479 . S
C1185 C372 1.471 . S
C1204 C498 1.493 . S
C1221 C386 1.467 . S
C1240 C456 1.443 . S
C1257 C554 1.465 . S
C1276 C400 1.448 . S
C1293 C512 1.468 . S
C1312 C414 1.438 . S
C1329 C526 1.475 . S
C1348 C428 1.448 . S
C1365 C540 1.474 . S
C1384 C442 1.481 . S
C1401 C568 1.472 . S
C1420 C596 1.491 . S
C1437 C582 1.465 . S
C1456 C652 1.451 . S
C1473 C610 1.474 . S
C1492 C666 1.485 . S
C1509 C638 1.468 . S
C1528 C624 1.496 . S
C1545 C121 0.965 . S
C1564 C3 1.060 . S
C1581 C135 0.965 . S
C1600 C17 1.064 . S
C1617 C31 1.061 . S
C1636 C149 0.933 . S
C1653 C45 1.060 . S
C1672 C163 1.029 . S
C1689 C59 1.060 . S
C1708 C177 0.940 . S
C1725 C73 1.059 . S
C1744 C191 0.965 . S
C1761 C87 1.061 . S
C1780 C205 0.914 . S
C1797 C219 0.964 . S
C1816 C101 1.062 . S
C1833 C115 1.059 . S
C1852 C233 1.032 . S
C1869 C331 0.983 . S
C1888 C129 1.052 . S
C1905 C143 1.059 . S
C1924 C303 1.028 . S
C1941 C157 1.059 . S
C1960 C317 1.034 . S
C1977 C171 1.060 . S
C1996 C247 0.933 . S
C2013 C185 1.059 . S
C2032 C261 1.032 . S
C2049 C199 1.060 . S
C2068 C275 1.018 . S
C2085 C289 0.986 . S
C2104 C213 1.057 . S
C2121 C9 0.984 . S
C2140 C227 1.059 . S
C2157 C241 1.061 . S
C2176 C65 0.967 . S
C2193 C255 1.059 . S
C2212 C79 0.973 . S
C2229 C269 1.060 . S
C2248 C93 0.924 . S
C2265 C107 0.967 . S
C2284 C283 1.058 . S
C2301 C297 1.059 . S
C2320 C37 1.020 . S
C2337 C311 1.061 . S
C2356 C51 0.949 . S
C2373 C23 0.967 . S
C2392 C325 1.059 . S
C2409 C457 0.971 . S
C2428 C339 1.056 . S
C2445 C353 1.060 . S
C2464 C471 0.943 . S
C2481 C367 1.059 . S
C2500 C485 1.034 . S
C2517 C499 0.987 . S
C2536 C381 1.057 . S
C2553 C513 0.976 . S
C2572 C395 1.062 . S
C2589 C409 1.059 . S
C2608 C527 0.985 . S
C2625 C541 0.971 . S
C2644 C423 1.064 . S
C2661 C555 0.988 . S
C2680 C437 1.053 . S
C2697 C451 1.059 . S
C2716 C569 0.972 . S
C2733 C465 1.059 . S
C2752 C667 1.001 . S
C2769 C479 1.060 . S
C2788 C639 1.018 . S
C2805 C653 0.969 . S
C2824 C493 1.064 . S
C2841 C507 1.059 . S
C2860 C583 0.999 . S
C2877 C521 1.059 . S
C2896 C597 0.982 . S
C2913 C611 0.981 . S
C2932 C535 1.053 . S
C2949 C625 0.989 . S
C2968 C549 1.054 . S
C2985 C563 1.061 . S
C3004 C345 0.936 . S
C3021 C577 1.061 . S
C3040 C401 0.931 . S
C3057 C415 0.983 . S
C3076 C591 1.052 . S
C3093 C605 1.059 . S
C3112 C429 0.998 . S
C3129 C619 1.059 . S
C3148 C443 1.034 . S
C3165 C373 0.988 . S
C3184 C633 1.055 . S
C3201 C647 1.060 . S
C3220 C387 0.930 . S
C3237 C359 0.966 . S
C3256 C661 1.064 . S
C3273 C441 1.243 . S
C3292 C7 1.291 . S
C3309 C21 1.244 . S
C3328 C399 1.292 . S
C3345 C413 1.255 . S
C3364 C35 1.201 . S
C3381 C427 1.247 . S
C3400 C49 1.292 . S
C3417 C63 1.254 . S
C3436 C357 1.201 . S
C3453 C371 1.248 . S
C3472 C77 1.207 . S
C3489 C385 1.240 . S
C3508 C91 1.275 . S
C3525 C105 1.258 . S
C3544 C343 1.216 . S
C3561 C623 1.240 . S
C3580 C119 1.249 . S
C3597 C133 1.245 . S
C3616 C581 1.293 . S
C3633 C147 1.248 . S
C3652 C595 1.291 . S
C3669 C609 1.245 . S
C3688 C161 1.293 . S
C3705 C665 1.241 . S
C3724 C175 1.242 . S
C3741 C637 1.241 . S
C3760 C189 1.286 . S
C3777 C203 1.243 . S
C3796 C651 1.229 . S
C3813 C567 1.240 . S
C3832 C217 1.276 . S
C3849 C231 1.257 . S
C3868 C553 1.259 . S
C3885 C469 1.252 . S
C3904 C245 1.281 . S
C3921 C259 1.258 . S
C3940 C483 1.216 . S
C3957 C497 1.257 . S
C3976 C273 1.259 . S
C3993 C455 1.259 . S
C4012 C287 1.235 . S
C4029 C301 1.246 . S
C4048 C525 1.293 . S
C4065 C539 1.239 . S
C4084 C315 1.264 . S
C4101 C511 1.251 . S
C4120 C329 1.283 . S
