# Generated by pormake.
# Topology vcq, (7)-cn, num edge types: 1
# Building blocks:
#     Node 0, Type 0, BuildingBlock: HICVOG_clean_sbu_0, # of connection points: 7
#     Node 1, Type 0, BuildingBlock: HICVOG_clean_sbu_0, # of connection points: 7
#     Node 2, Type 0, BuildingBlock: HICVOG_clean_sbu_0, # of connection points: 7
#     Node 3, Type 0, BuildingBlock: HICVOG_clean_sbu_0, # of connection points: 7
#     Node 4, Type 0, BuildingBlock: HICVOG_clean_sbu_0, # of connection points: 7
#     Node 5, Type 0, BuildingBlock: HICVOG_clean_sbu_0, # of connection points: 7
#     Node 6, Type 0, BuildingBlock: HICVOG_clean_sbu_0, # of connection points: 7
#     Node 7, Type 0, BuildingBlock: HICVOG_clean_sbu_0, # of connection points: 7
#     Node 8, Type 0, BuildingBlock: HICVOG_clean_sbu_0, # of connection points: 7
#     Node 9, Type 0, BuildingBlock: HICVOG_clean_sbu_0, # of connection points: 7
#     Node 10, Type 0, BuildingBlock: HICVOG_clean_sbu_0, # of connection points: 7
#     Node 11, Type 0, BuildingBlock: HICVOG_clean_sbu_0, # of connection points: 7
#     Node 12, Type 0, BuildingBlock: HICVOG_clean_sbu_0, # of connection points: 7
#     Node 13, Type 0, BuildingBlock: HICVOG_clean_sbu_0, # of connection points: 7
#     Node 14, Type 0, BuildingBlock: HICVOG_clean_sbu_0, # of connection points: 7
#     Node 15, Type 0, BuildingBlock: HICVOG_clean_sbu_0, # of connection points: 7
#     Edge 16, Type (0, 0), BuildingBlock: OJICUG_clean_linker_0, # of connection points: 2
#     Edge 17, Type (0, 0), BuildingBlock: OJICUG_clean_linker_0, # of connection points: 2
#     Edge 18, Type (0, 0), BuildingBlock: OJICUG_clean_linker_0, # of connection points: 2
#     Edge 19, Type (0, 0), BuildingBlock: OJICUG_clean_linker_0, # of connection points: 2
#     Edge 20, Type (0, 0), BuildingBlock: OJICUG_clean_linker_0, # of connection points: 2
#     Edge 21, Type (0, 0), BuildingBlock: OJICUG_clean_linker_0, # of connection points: 2
#     Edge 22, Type (0, 0), BuildingBlock: OJICUG_clean_linker_0, # of connection points: 2
#     Edge 23, Type (0, 0), BuildingBlock: OJICUG_clean_linker_0, # of connection points: 2
#     Edge 24, Type (0, 0), BuildingBlock: OJICUG_clean_linker_0, # of connection points: 2
#     Edge 25, Type (0, 0), BuildingBlock: OJICUG_clean_linker_0, # of connection points: 2
#     Edge 26, Type (0, 0), BuildingBlock: OJICUG_clean_linker_0, # of connection points: 2
#     Edge 27, Type (0, 0), BuildingBlock: OJICUG_clean_linker_0, # of connection points: 2
#     Edge 28, Type (0, 0), BuildingBlock: OJICUG_clean_linker_0, # of connection points: 2
#     Edge 29, Type (0, 0), BuildingBlock: OJICUG_clean_linker_0, # of connection points: 2
#     Edge 30, Type (0, 0), BuildingBlock: OJICUG_clean_linker_0, # of connection points: 2
#     Edge 31, Type (0, 0), BuildingBlock: OJICUG_clean_linker_0, # of connection points: 2
#     Edge 32, Type (0, 0), BuildingBlock: OJICUG_clean_linker_0, # of connection points: 2
#     Edge 33, Type (0, 0), BuildingBlock: OJICUG_clean_linker_0, # of connection points: 2
#     Edge 34, Type (0, 0), BuildingBlock: OJICUG_clean_linker_0, # of connection points: 2
#     Edge 35, Type (0, 0), BuildingBlock: OJICUG_clean_linker_0, # of connection points: 2
#     Edge 36, Type (0, 0), BuildingBlock: OJICUG_clean_linker_0, # of connection points: 2
#     Edge 37, Type (0, 0), BuildingBlock: OJICUG_clean_linker_0, # of connection points: 2
#     Edge 38, Type (0, 0), BuildingBlock: OJICUG_clean_linker_0, # of connection points: 2
#     Edge 39, Type (0, 0), BuildingBlock: OJICUG_clean_linker_0, # of connection points: 2
#     Edge 40, Type (0, 0), BuildingBlock: OJICUG_clean_linker_0, # of connection points: 2
#     Edge 41, Type (0, 0), BuildingBlock: OJICUG_clean_linker_0, # of connection points: 2
#     Edge 42, Type (0, 0), BuildingBlock: OJICUG_clean_linker_0, # of connection points: 2
#     Edge 43, Type (0, 0), BuildingBlock: OJICUG_clean_linker_0, # of connection points: 2
#     Edge 44, Type (0, 0), BuildingBlock: OJICUG_clean_linker_0, # of connection points: 2
#     Edge 45, Type (0, 0), BuildingBlock: OJICUG_clean_linker_0, # of connection points: 2
#     Edge 46, Type (0, 0), BuildingBlock: OJICUG_clean_linker_0, # of connection points: 2
#     Edge 47, Type (0, 0), BuildingBlock: OJICUG_clean_linker_0, # of connection points: 2
#     Edge 48, Type (0, 0), BuildingBlock: OJICUG_clean_linker_0, # of connection points: 2
#     Edge 49, Type (0, 0), BuildingBlock: OJICUG_clean_linker_0, # of connection points: 2
#     Edge 50, Type (0, 0), BuildingBlock: OJICUG_clean_linker_0, # of connection points: 2
#     Edge 51, Type (0, 0), BuildingBlock: OJICUG_clean_linker_0, # of connection points: 2
#     Edge 52, Type (0, 0), BuildingBlock: OJICUG_clean_linker_0, # of connection points: 2
#     Edge 53, Type (0, 0), BuildingBlock: OJICUG_clean_linker_0, # of connection points: 2
#     Edge 54, Type (0, 0), BuildingBlock: OJICUG_clean_linker_0, # of connection points: 2
#     Edge 55, Type (0, 0), BuildingBlock: OJICUG_clean_linker_0, # of connection points: 2
#     Edge 56, Type (0, 0), BuildingBlock: OJICUG_clean_linker_0, # of connection points: 2
#     Edge 57, Type (0, 0), BuildingBlock: OJICUG_clean_linker_0, # of connection points: 2
#     Edge 58, Type (0, 0), BuildingBlock: OJICUG_clean_linker_0, # of connection points: 2
#     Edge 59, Type (0, 0), BuildingBlock: OJICUG_clean_linker_0, # of connection points: 2
#     Edge 60, Type (0, 0), BuildingBlock: OJICUG_clean_linker_0, # of connection points: 2
#     Edge 61, Type (0, 0), BuildingBlock: OJICUG_clean_linker_0, # of connection points: 2
#     Edge 62, Type (0, 0), BuildingBlock: OJICUG_clean_linker_0, # of connection points: 2
#     Edge 63, Type (0, 0), BuildingBlock: OJICUG_clean_linker_0, # of connection points: 2
#     Edge 64, Type (0, 0), BuildingBlock: OJICUG_clean_linker_0, # of connection points: 2
#     Edge 65, Type (0, 0), BuildingBlock: OJICUG_clean_linker_0, # of connection points: 2
#     Edge 66, Type (0, 0), BuildingBlock: OJICUG_clean_linker_0, # of connection points: 2
#     Edge 67, Type (0, 0), BuildingBlock: OJICUG_clean_linker_0, # of connection points: 2
#     Edge 68, Type (0, 0), BuildingBlock: OJICUG_clean_linker_0, # of connection points: 2
#     Edge 69, Type (0, 0), BuildingBlock: OJICUG_clean_linker_0, # of connection points: 2
#     Edge 70, Type (0, 0), BuildingBlock: OJICUG_clean_linker_0, # of connection points: 2
#     Edge 71, Type (0, 0), BuildingBlock: OJICUG_clean_linker_0, # of connection points: 2
# Relax obj value: 0.296
# Max RMSD: 0.271
# Mean RMSD: 0.271
data_MOF--net-vcq--node1-HICVOG_clean_sbu_0--edge1-OJICUG_clean_linker_0
_symmetry_space_group_name_H-M    P1
_symmetry_Int_Tables_number       1
_symmetry_cell_setting            triclinic
loop_
_symmetry_equiv_pos_as_xyz
'x, y, z'
_cell_length_a     64.193907
_cell_length_b     25.756632
_cell_length_c     19.328286
_cell_angle_alpha  90.007145
_cell_angle_beta   90.239301
_cell_angle_gamma 89.975214
loop_
_atom_site_label
_atom_site_type_symbol
_atom_site_fract_x
_atom_site_fract_y
_atom_site_fract_z
_atom_type_partial_charge
Zn0 Zn 0.15824 0.39065 0.32777 0.0
C1 C 0.13202 0.31301 0.48619 0.0
N2 N 0.13438 0.35723 0.52157 0.0
C3 C 0.13987 0.39129 0.47228 0.0
N4 N 0.1413 0.36848 0.40895 0.0
N5 N 0.13561 0.31946 0.41828 0.0
C6 C 0.13779 0.1854 0.34649 0.0
O7 O 0.15331 0.21733 0.33435 0.0
O8 O 0.15253 0.46533 0.29851 0.0
Zn9 Zn 0.11904 0.28218 0.35235 0.0
N10 N 0.18773 0.3853 0.35665 0.0
C11 C 0.21149 0.37101 0.44994 0.0
C12 C 0.1913 0.37232 0.42399 0.0
C13 C 0.20403 0.39511 0.31328 0.0
N14 N 0.2276 0.381 0.40715 0.0
C15 C 0.22468 0.39261 0.33914 0.0
O16 O 0.12894 0.29245 0.25748 0.0
C17 C 0.14108 0.31538 0.21624 0.0
O18 O 0.15395 0.3497 0.23711 0.0
H19 H 0.17865 0.36325 0.45815 0.0
H20 H 0.20092 0.40496 0.25981 0.0
C21 C 0.07295 0.2892 0.37038 0.0
C22 C 0.05392 0.31439 0.35514 0.0
C23 C 0.0725 0.38248 0.30025 0.0
C24 C 0.09119 0.35771 0.31534 0.0
N25 N 0.09115 0.31137 0.34897 0.0
N26 N 0.05439 0.36024 0.32019 0.0
H27 H 0.07324 0.25228 0.39709 0.0
C28 C 0.14097 0.47828 0.24767 0.0
O29 O 0.13063 0.44225 0.21388 0.0
O30 O 0.12025 0.20443 0.3639 0.0
H31 H 0.10575 0.37473 0.29896 0.0
H32 H 0.21438 0.36145 0.50364 0.0
H33 H 0.07235 0.41903 0.2727 0.0
Zn34 Zn 0.3664 0.62844 0.82029 0.0
C35 C 0.37372 0.69666 0.99361 0.0
N36 N 0.36439 0.65395 0.01832 0.0
C37 C 0.36715 0.61887 0.96791 0.0
N38 N 0.37758 0.63952 0.91361 0.0
N39 N 0.38274 0.68759 0.93148 0.0
C40 C 0.38729 0.81925 0.84121 0.0
O41 O 0.37633 0.78465 0.80695 0.0
O42 O 0.3673 0.55263 0.79259 0.0
Zn43 Zn 0.40534 0.7252 0.88561 0.0
N44 N 0.33784 0.65534 0.82245 0.0
C45 C 0.31664 0.72478 0.86304 0.0
C46 C 0.33608 0.70207 0.85464 0.0
C47 C 0.32069 0.63108 0.79565 0.0
N48 N 0.29961 0.70079 0.83678 0.0
C49 C 0.30089 0.65472 0.80252 0.0
O50 O 0.4083 0.71194 0.7819 0.0
C51 C 0.39764 0.6938 0.73161 0.0
O52 O 0.38142 0.66642 0.74208 0.0
H53 H 0.3497 0.7218 0.87383 0.0
H54 H 0.32248 0.5941 0.76978 0.0
C55 C 0.45067 0.72158 0.90732 0.0
C56 C 0.46892 0.70767 0.94408 0.0
C57 C 0.44811 0.66513 0.02791 0.0
C58 C 0.43024 0.67758 0.99053 0.0
N59 N 0.43167 0.70681 0.93204 0.0
N60 N 0.46693 0.68026 1.00386 0.0
H61 H 0.45152 0.7437 0.85981 0.0
C62 C 0.38447 0.53558 0.76874 0.0
O63 O 0.40074 0.5665 0.76836 0.0
O64 O 0.4004 0.80341 0.88629 0.0
H65 H 0.41529 0.66471 1.00911 0.0
H66 H 0.3151 0.76163 0.88941 0.0
H67 H 0.44706 0.64292 0.07528 0.0
Zn68 Zn 0.15934 0.61469 0.66482 0.0
C69 C 0.1277 0.68362 0.50795 0.0
N70 N 0.13154 0.63799 0.47661 0.0
C71 C 0.1393 0.60917 0.52842 0.0
N72 N 0.14063 0.63573 0.58833 0.0
N73 N 0.13275 0.68242 0.57607 0.0
C74 C 0.13631 0.81705 0.65129 0.0
O75 O 0.15218 0.78519 0.65827 0.0
O76 O 0.15434 0.53992 0.69366 0.0
Zn77 Zn 0.1182 0.72037 0.64771 0.0
N78 N 0.1882 0.61863 0.63161 0.0
C79 C 0.21173 0.62524 0.53697 0.0
C80 C 0.19153 0.62483 0.56261 0.0
C81 C 0.2046 0.61422 0.67643 0.0
N82 N 0.228 0.62094 0.58143 0.0
C83 C 0.22521 0.61586 0.65087 0.0
O84 O 0.13115 0.71206 0.74139 0.0
C85 C 0.14499 0.69031 0.77829 0.0
O86 O 0.15735 0.65647 0.75379 0.0
H87 H 0.17873 0.62951 0.52718 0.0
H88 H 0.20154 0.60922 0.731 0.0
C89 C 0.07181 0.71343 0.64813 0.0
C90 C 0.0535 0.68745 0.669 0.0
C91 C 0.07404 0.61742 0.71088 0.0
C92 C 0.09202 0.64299 0.69022 0.0
N93 N 0.09068 0.69058 0.66023 0.0
N94 N 0.0553 0.64023 0.70006 0.0
H95 H 0.0711 0.75148 0.62447 0.0
C96 C 0.14252 0.52746 0.7438 0.0
O97 O 0.13209 0.56391 0.77618 0.0
O98 O 0.11855 0.7981 0.63601 0.0
H99 H 0.10711 0.62564 0.69938 0.0
H100 H 0.2145 0.62961 0.4821 0.0
H101 H 0.07496 0.5798 0.7356 0.0
Zn102 Zn 0.36743 0.38969 0.19245 0.0
C103 C 0.37544 0.32456 0.01888 0.0
N104 N 0.3658 0.36721 0.99487 0.0
C105 C 0.36883 0.40198 0.04559 0.0
N106 N 0.37934 0.38091 0.09985 0.0
N107 N 0.38459 0.33314 0.08106 0.0
C108 C 0.38828 0.19918 0.1689 0.0
O109 O 0.37732 0.23357 0.20328 0.0
O110 O 0.36767 0.46494 0.22343 0.0
Zn111 Zn 0.40672 0.29369 0.12727 0.0
N112 N 0.33897 0.36244 0.18542 0.0
C113 C 0.31846 0.29335 0.13965 0.0
C114 C 0.33773 0.31585 0.15255 0.0
C115 C 0.3214 0.38671 0.20857 0.0
N116 N 0.30102 0.31736 0.16231 0.0
C117 C 0.30173 0.36325 0.19717 0.0
O118 O 0.40933 0.30572 0.23087 0.0
C119 C 0.39843 0.32263 0.28101 0.0
O120 O 0.38214 0.34994 0.2705 0.0
H121 H 0.35165 0.2962 0.13605 0.0
H122 H 0.32275 0.42359 0.235 0.0
C123 C 0.45208 0.29571 0.11064 0.0
C124 C 0.47074 0.30931 0.07657 0.0
C125 C 0.45093 0.3536 0.991 0.0
C126 C 0.43266 0.3414 0.02581 0.0
N127 N 0.43341 0.31152 0.08387 0.0
N128 N 0.46945 0.33749 1.01715 0.0
H129 H 0.45236 0.273 0.15774 0.0
C130 C 0.38421 0.48139 0.25277 0.0
O131 O 0.40037 0.45023 0.25727 0.0
O132 O 0.40148 0.21537 0.12474 0.0
H133 H 0.41793 0.35499 1.00567 0.0
H134 H 0.31735 0.25667 0.11262 0.0
H135 H 0.45045 0.37638 0.944 0.0
Zn136 Zn 0.86677 0.63224 0.73207 0.0
C137 C 0.87241 0.70173 0.55773 0.0
N138 N 0.86254 0.65933 0.53407 0.0
C139 C 0.86556 0.62416 0.58434 0.0
N140 N 0.8767 0.64444 0.63764 0.0
N141 N 0.88191 0.69239 0.61934 0.0
C142 C 0.88729 0.82474 0.70613 0.0
O143 O 0.87695 0.79086 0.74328 0.0
O144 O 0.86759 0.55556 0.75942 0.0
Zn145 Zn 0.90504 0.7296 0.6634 0.0
N146 N 0.8383 0.65917 0.7312 0.0
C147 C 0.81742 0.73036 0.69382 0.0
C148 C 0.83678 0.70731 0.70276 0.0
C149 C 0.82095 0.63351 0.75332 0.0
N150 N 0.80018 0.70499 0.71543 0.0
C151 C 0.80121 0.65729 0.74557 0.0
O152 O 0.90866 0.71743 0.76724 0.0
C153 C 0.89848 0.6992 0.8183 0.0
O154 O 0.88235 0.67115 0.80898 0.0
H155 H 0.85055 0.72762 0.68637 0.0
H156 H 0.82252 0.59523 0.77581 0.0
C157 C 0.95028 0.72409 0.63739 0.0
C158 C 0.96791 0.70956 0.5983 0.0
C159 C 0.94578 0.66684 0.51792 0.0
C160 C 0.92853 0.67999 0.55744 0.0
N161 N 0.93087 0.70973 0.61525 0.0
N162 N 0.96497 0.68178 0.53921 0.0
H163 H 0.95194 0.74646 0.6845 0.0
C164 C 0.88291 0.53886 0.79525 0.0
O165 O 0.8982 0.57084 0.81026 0.0
O166 O 0.90014 0.80799 0.66112 0.0
H167 H 0.91329 0.66739 0.54083 0.0
H168 H 0.81607 0.76837 0.6704 0.0
H169 H 0.94397 0.64431 0.47103 0.0
Zn170 Zn 0.61895 0.2808 0.16883 0.0
C171 C 0.63849 0.38908 0.04137 0.0
N172 N 0.63079 0.35662 0.99342 0.0
C173 C 0.62794 0.31247 0.02842 0.0
N174 N 0.63342 0.31756 0.09577 0.0
N175 N 0.64083 0.36546 0.10386 0.0
C176 C 0.64171 0.47532 0.27065 0.0
O177 O 0.63381 0.43822 0.30902 0.0
O178 O 0.61874 0.20288 0.15726 0.0
Zn179 Zn 0.65839 0.38947 0.18371 0.0
N180 N 0.59149 0.31134 0.18165 0.0
C181 C 0.57436 0.37952 0.24207 0.0
C182 C 0.59253 0.35467 0.22166 0.0
C183 C 0.57277 0.29253 0.15903 0.0
N184 N 0.55574 0.36057 0.22076 0.0
C185 C 0.55425 0.31792 0.17944 0.0
O186 O 0.65701 0.34717 0.27256 0.0
C187 C 0.64561 0.31171 0.29793 0.0
O188 O 0.632 0.28828 0.26212 0.0
H189 H 0.60748 0.36934 0.23854 0.0
H190 H 0.57228 0.25803 0.1271 0.0
C191 C 0.70365 0.39416 0.20087 0.0
C192 C 0.72461 0.391 0.17844 0.0
C193 C 0.71243 0.37545 0.06396 0.0
C194 C 0.69193 0.37728 0.08674 0.0
N195 N 0.68779 0.38714 0.15445 0.0
N196 N 0.72816 0.38206 0.11006 0.0
H197 H 0.69982 0.40207 0.25423 0.0
C198 C 0.63637 0.18256 0.17127 0.0
O199 O 0.6526 0.21326 0.17796 0.0
O200 O 0.65155 0.46346 0.2157 0.0
H201 H 0.67946 0.37095 0.05025 0.0
H202 H 0.57503 0.41365 0.27463 0.0
H203 H 0.71586 0.36813 1.01008 0.0
Zn204 Zn 0.8639 0.39577 0.36707 0.0
C205 C 0.88497 0.3347 0.54246 0.0
N206 N 0.87635 0.37688 0.57148 0.0
C207 C 0.8721 0.40715 0.51668 0.0
N208 N 0.87789 0.38434 0.45641 0.0
N209 N 0.88656 0.33925 0.47306 0.0
C210 C 0.88752 0.20662 0.37224 0.0
O211 O 0.87407 0.23964 0.34587 0.0
O212 O 0.86607 0.47053 0.33297 0.0
Zn213 Zn 0.907 0.30289 0.41606 0.0
N214 N 0.83461 0.37569 0.38068 0.0
C215 C 0.81142 0.32473 0.44848 0.0
C216 C 0.83141 0.34181 0.43358 0.0
C217 C 0.81833 0.39212 0.34037 0.0
N218 N 0.79529 0.34093 0.40867 0.0
C219 C 0.79792 0.3739 0.35434 0.0
O220 O 0.90727 0.32553 0.31594 0.0
C221 C 0.89252 0.3307 0.27224 0.0
O222 O 0.8751 0.35089 0.28877 0.0
H223 H 0.84431 0.32763 0.46407 0.0
H224 H 0.82133 0.41881 0.29843 0.0
C225 C 0.9526 0.295 0.42945 0.0
C226 C 0.97204 0.30765 0.4597 0.0
C227 C 0.95488 0.36443 0.53749 0.0
C228 C 0.93594 0.35371 0.50548 0.0
N229 N 0.93486 0.31766 0.45411 0.0
N230 N 0.97242 0.34147 0.51375 0.0
H231 H 0.95161 0.26823 0.38639 0.0
C232 C 0.88221 0.48484 0.29976 0.0
O233 O 0.89755 0.45168 0.29163 0.0
O234 O 0.9022 0.22403 0.41044 0.0
H235 H 0.92227 0.37458 0.52151 0.0
H236 H 0.80874 0.29813 0.49082 0.0
H237 H 0.95574 0.39205 0.57957 0.0
Zn238 Zn 0.61831 0.72167 0.87306 0.0
C239 C 0.63725 0.60797 0.99195 0.0
N240 N 0.62976 0.63686 0.04397 0.0
C241 C 0.62666 0.68317 1.01333 0.0
N242 N 0.63193 0.68221 0.94549 0.0
N243 N 0.63915 0.63497 0.93273 0.0
C244 C 0.64316 0.52484 0.77717 0.0
O245 O 0.63387 0.5612 0.74074 0.0
O246 O 0.61937 0.79945 0.88541 0.0
Zn247 Zn 0.65841 0.61312 0.85878 0.0
N248 N 0.5905 0.69379 0.85781 0.0
C249 C 0.57302 0.62564 0.79802 0.0
C250 C 0.59132 0.64927 0.82015 0.0
C251 C 0.57184 0.71509 0.87636 0.0
N252 N 0.55449 0.64701 0.81531 0.0
C253 C 0.55319 0.69095 0.8542 0.0
O254 O 0.65702 0.65413 0.76907 0.0
C255 C 0.64521 0.68909 0.74408 0.0
O256 O 0.63167 0.71221 0.78042 0.0
H257 H 0.60621 0.6327 0.80639 0.0
H258 H 0.57153 0.75052 0.90644 0.0
C259 C 0.70375 0.61256 0.85341 0.0
C260 C 0.72406 0.61419 0.88193 0.0
C261 C 0.70943 0.62448 0.99367 0.0
C262 C 0.68953 0.62423 0.96511 0.0
N263 N 0.68691 0.61745 0.89577 0.0
N264 N 0.72614 0.61967 0.95165 0.0
H265 H 0.70128 0.60729 0.79847 0.0
C266 C 0.63714 0.81852 0.87103 0.0
O267 O 0.65296 0.78668 0.86322 0.0
O268 O 0.6537 0.53771 0.83055 0.0
H269 H 0.67639 0.6295 0.99862 0.0
H270 H 0.57352 0.59056 0.76729 0.0
H271 H 0.71163 0.62923 0.04884 0.0
Zn272 Zn 0.65981 0.8808 0.3348 0.0
C273 C 0.65229 0.81368 0.50821 0.0
N274 N 0.66195 0.85609 0.53267 0.0
C275 C 0.65925 0.89106 0.48201 0.0
N276 N 0.64854 0.8706 0.42786 0.0
N277 N 0.64316 0.82281 0.44613 0.0
C278 C 0.6385 0.69027 0.36065 0.0
O279 O 0.64985 0.72449 0.32746 0.0
O280 O 0.65884 0.95636 0.30596 0.0
Zn281 Zn 0.62051 0.78501 0.40077 0.0
N282 N 0.68852 0.85493 0.33946 0.0
C283 C 0.70986 0.78695 0.3841 0.0
C284 C 0.69034 0.80854 0.37255 0.0
C285 C 0.70574 0.87986 0.31472 0.0
N286 N 0.72696 0.81169 0.36007 0.0
C287 C 0.72565 0.8574 0.32497 0.0
O288 O 0.61801 0.79656 0.2971 0.0
C289 C 0.62874 0.81365 0.24669 0.0
O290 O 0.64496 0.84126 0.25678 0.0
H291 H 0.67669 0.78839 0.39032 0.0
H292 H 0.70396 0.91655 0.28809 0.0
C293 C 0.57518 0.79104 0.41763 0.0
C294 C 0.55674 0.80612 0.45198 0.0
C295 C 0.57722 0.84786 0.53807 0.0
C296 C 0.59528 0.83422 0.50302 0.0
N297 N 0.59408 0.80487 0.44455 0.0
N298 N 0.55846 0.83369 0.5118 0.0
H299 H 0.57455 0.76874 0.37021 0.0
C300 C 0.6419 0.97343 0.27998 0.0
O301 O 0.62563 0.94256 0.27747 0.0
O302 O 0.62506 0.70664 0.40392 0.0
H303 H 0.61021 0.84633 0.52324 0.0
H304 H 0.71143 0.75044 0.41128 0.0
H305 H 0.57806 0.87023 0.58538 0.0
Zn306 Zn 0.86961 0.13313 0.8633 0.0
C307 C 0.88547 0.19391 0.04255 0.0
N308 N 0.87849 0.14815 0.0666 0.0
C309 C 0.87711 0.11928 1.00888 0.0
N310 N 0.88305 0.14592 0.95229 0.0
N311 N 0.889 0.19244 0.97361 0.0
C312 C 0.88757 0.32582 0.89176 0.0
O313 O 0.87507 0.29101 0.86431 0.0
O314 O 0.87162 0.05697 0.83423 0.0
Zn315 Zn 0.90939 0.23312 0.9232 0.0
N316 N 0.8402 0.15115 0.87722 0.0
C317 C 0.81623 0.19754 0.94795 0.0
C318 C 0.83653 0.18584 0.92888 0.0
C319 C 0.82403 0.12942 0.84127 0.0
N320 N 0.8002 0.17553 0.91304 0.0
C321 C 0.80336 0.14208 0.85962 0.0
O322 O 0.90902 0.22136 0.81989 0.0
C323 C 0.89699 0.20489 0.77209 0.0
O324 O 0.88124 0.17639 0.78488 0.0
H325 H 0.84923 0.20422 0.95588 0.0
H326 H 0.82721 0.10247 0.79965 0.0
C327 C 0.95539 0.23601 0.93167 0.0
C328 C 0.97469 0.22439 0.96359 0.0
C329 C 0.95697 0.17726 0.05059 0.0
C330 C 0.93813 0.18688 1.01745 0.0
N331 N 0.93739 0.21787 0.96047 0.0
N332 N 0.97475 0.19598 0.02287 0.0
H333 H 0.95472 0.25855 0.88445 0.0
C334 C 0.88321 0.04208 0.78457 0.0
O335 O 0.89462 0.07651 0.75197 0.0
O336 O 0.90308 0.31028 0.92763 0.0
H337 H 0.92431 0.16886 0.03695 0.0
H338 H 0.8132 0.22441 0.98975 0.0
H339 H 0.95755 0.15368 0.09688 0.0
Zn340 Zn 0.6613 0.11952 0.70638 0.0
C341 C 0.65309 0.1856 0.53271 0.0
N342 N 0.66241 0.14265 0.5085 0.0
C343 C 0.65944 0.10794 0.55923 0.0
N344 N 0.64927 0.12927 0.61371 0.0
N345 N 0.64416 0.17721 0.59517 0.0
C346 C 0.64064 0.30997 0.68629 0.0
O347 O 0.65169 0.27539 0.7203 0.0
O348 O 0.66074 0.04406 0.73652 0.0
Zn349 Zn 0.62208 0.21604 0.64206 0.0
N350 N 0.6899 0.14591 0.70026 0.0
C351 C 0.71107 0.21173 0.64996 0.0
C352 C 0.69159 0.19097 0.664 0.0
C353 C 0.70721 0.12227 0.72702 0.0
N354 N 0.72825 0.18805 0.6756 0.0
C355 C 0.72704 0.14419 0.7146 0.0
O356 O 0.6193 0.20241 0.74583 0.0
C357 C 0.63037 0.1851 0.79573 0.0
O358 O 0.64677 0.15848 0.78473 0.0
H359 H 0.67789 0.21086 0.64578 0.0
H360 H 0.70558 0.08713 0.7572 0.0
C361 C 0.57671 0.21586 0.621 0.0
C362 C 0.55827 0.20347 0.58438 0.0
C363 C 0.57844 0.15877 0.50074 0.0
C364 C 0.59648 0.16979 0.53797 0.0
N365 N 0.59548 0.19933 0.5963 0.0
N366 N 0.55985 0.17566 0.52477 0.0
H367 H 0.57618 0.23827 0.66833 0.0
C368 C 0.64406 0.02802 0.765 0.0
O369 O 0.62801 0.05957 0.7686 0.0
O370 O 0.62744 0.29411 0.64154 0.0
H371 H 0.61124 0.15563 0.51932 0.0
H372 H 0.71252 0.24699 0.61995 0.0
H373 H 0.57916 0.13633 0.45349 0.0
Zn374 Zn 0.86871 0.90037 0.20264 0.0
C375 C 0.9021 0.82817 0.05051 0.0
N376 N 0.89849 0.87225 1.01584 0.0
C377 C 0.88961 0.90311 0.06322 0.0
N378 N 0.88746 0.87871 0.12522 0.0
N379 N 0.89594 0.83184 0.11728 0.0
C380 C 0.88971 0.69517 0.19536 0.0
O381 O 0.87406 0.72736 0.20425 0.0
O382 O 0.87335 0.97666 0.2325 0.0
Zn383 Zn 0.90916 0.79215 0.1914 0.0
N384 N 0.8398 0.89095 0.16944 0.0
C385 C 0.81725 0.87088 0.07482 0.0
C386 C 0.83717 0.8759 0.10241 0.0
C387 C 0.82293 0.899 0.21099 0.0
N388 N 0.80054 0.87913 0.11588 0.0
C389 C 0.80262 0.89257 0.18364 0.0
O390 O 0.89595 0.80118 0.2846 0.0
C391 C 0.88232 0.82501 0.31965 0.0
O392 O 0.87085 0.85999 0.29305 0.0
H393 H 0.8504 0.86829 0.06988 0.0
H394 H 0.82537 0.9103 0.26432 0.0
C395 C 0.95551 0.79907 0.17653 0.0
C396 C 0.97488 0.82031 0.19741 0.0
C397 C 0.95716 0.87737 0.2737 0.0
C398 C 0.93818 0.8567 0.2528 0.0
N399 N 0.93759 0.81747 0.20574 0.0
N400 N 0.97496 0.8587 0.24582 0.0
H401 H 0.95472 0.76805 0.13884 0.0
C402 C 0.88526 0.9908 0.28204 0.0
O403 O 0.8962 0.95546 0.31508 0.0
O404 O 0.90745 0.71392 0.17951 0.0
H405 H 0.92391 0.87157 0.27466 0.0
H406 H 0.81505 0.85979 0.0213 0.0
H407 H 0.95777 0.90815 0.31173 0.0
Zn408 Zn 0.36884 0.12244 0.6704 0.0
C409 C 0.39961 0.19282 0.51446 0.0
N410 N 0.39588 0.14695 0.48338 0.0
C411 C 0.38855 0.11801 0.53554 0.0
N412 N 0.38749 0.14453 0.59535 0.0
N413 N 0.39493 0.19156 0.58279 0.0
C414 C 0.39112 0.3274 0.65754 0.0
O415 O 0.37508 0.29607 0.66372 0.0
O416 O 0.3736 0.04694 0.69778 0.0
Zn417 Zn 0.40916 0.22989 0.65511 0.0
N418 N 0.34023 0.12808 0.63567 0.0
C419 C 0.31682 0.14741 0.5433 0.0
C420 C 0.337 0.14381 0.56929 0.0
C421 C 0.32383 0.11669 0.67765 0.0
N422 N 0.30052 0.13666 0.58524 0.0
C423 C 0.30323 0.12175 0.65226 0.0
O424 O 0.39589 0.22137 0.74801 0.0
C425 C 0.38237 0.19837 0.78451 0.0
O426 O 0.37059 0.16329 0.75983 0.0
H427 H 0.34989 0.15384 0.53642 0.0
H428 H 0.327 0.10397 0.72991 0.0
C429 C 0.45554 0.2198 0.65178 0.0
C430 C 0.47386 0.19392 0.67354 0.0
C431 C 0.45319 0.12957 0.7282 0.0
C432 C 0.43522 0.15491 0.70646 0.0
N433 N 0.43662 0.19979 0.66979 0.0
N434 N 0.47199 0.14965 0.71147 0.0
H435 H 0.45632 0.25552 0.62244 0.0
C436 C 0.38419 0.03412 0.75107 0.0
O437 O 0.39338 0.07054 0.78765 0.0
O438 O 0.40885 0.3078 0.64359 0.0
H439 H 0.42011 0.1394 0.71975 0.0
H440 H 0.31408 0.1595 0.49044 0.0
H441 H 0.45223 0.09419 0.75816 0.0
Zn442 Zn 0.16058 0.88134 0.18954 0.0
C443 C 0.152 0.8183 1.01283 0.0
N444 N 0.16163 0.86136 0.99023 0.0
C445 C 0.15897 0.89493 0.04258 0.0
N446 N 0.14876 0.87269 0.0962 0.0
N447 N 0.14319 0.82561 0.07561 0.0
C448 C 0.13922 0.69252 0.15613 0.0
O449 O 0.151 0.72641 0.18865 0.0
O450 O 0.16017 0.95666 0.22013 0.0
Zn451 Zn 0.12075 0.78705 0.12049 0.0
N452 N 0.18928 0.85489 0.18496 0.0
C453 C 0.21079 0.78816 0.13852 0.0
C454 C 0.19126 0.81006 0.14844 0.0
C455 C 0.20634 0.87807 0.21419 0.0
N456 N 0.22771 0.8111 0.16719 0.0
C457 C 0.22627 0.85532 0.20546 0.0
O458 O 0.11891 0.79676 0.22451 0.0
C459 C 0.12952 0.81375 0.27555 0.0
O460 O 0.1457 0.84158 0.26649 0.0
H461 H 0.17773 0.79127 0.12689 0.0
H462 H 0.20439 0.91364 0.2432 0.0
C463 C 0.07537 0.79325 0.10864 0.0
C464 C 0.05643 0.80871 0.07714 0.0
C465 C 0.07569 0.85028 0.98831 0.0
C466 C 0.09427 0.83628 0.02066 0.0
N467 N 0.09388 0.80703 0.07924 0.0
N468 N 0.05732 0.83641 1.01725 0.0
H469 H 0.07547 0.77072 0.15587 0.0
C470 C 0.1439 0.97306 0.2507 0.0
O471 O 0.12793 0.94162 0.25747 0.0
O472 O 0.12528 0.70925 0.11468 0.0
H473 H 0.10892 0.84822 0.99852 0.0
H474 H 0.21249 0.75281 0.10884 0.0
H475 H 0.07585 0.87272 0.941 0.0
Zn476 Zn 0.36841 0.89765 0.34532 0.0
C477 C 0.40022 0.8225 0.49926 0.0
N478 N 0.3978 0.86716 0.53352 0.0
C479 C 0.38968 0.89912 0.4857 0.0
N480 N 0.38668 0.87471 0.42404 0.0
N481 N 0.39406 0.8268 0.43244 0.0
C482 C 0.39007 0.69167 0.3569 0.0
O483 O 0.37405 0.72288 0.34877 0.0
O484 O 0.37468 0.9719 0.31245 0.0
Zn485 Zn 0.40819 0.78932 0.35931 0.0
N486 N 0.33922 0.89428 0.37729 0.0
C487 C 0.31576 0.88666 0.47203 0.0
C488 C 0.33594 0.88793 0.44631 0.0
C489 C 0.32275 0.89764 0.33245 0.0
N490 N 0.29945 0.89006 0.42763 0.0
C491 C 0.30214 0.89505 0.35814 0.0
O492 O 0.39524 0.79764 0.26585 0.0
C493 C 0.38147 0.82077 0.2303 0.0
O494 O 0.36978 0.85548 0.2562 0.0
H495 H 0.34884 0.88423 0.48171 0.0
H496 H 0.32574 0.90238 0.27779 0.0
C497 C 0.45448 0.79802 0.36955 0.0
C498 C 0.47327 0.8222 0.34941 0.0
C499 C 0.45385 0.88529 0.28693 0.0
C500 C 0.43541 0.86159 0.30701 0.0
N501 N 0.43597 0.81812 0.34684 0.0
N502 N 0.47226 0.86505 0.3083 0.0
H503 H 0.45458 0.76341 0.4013 0.0
C504 C 0.38486 0.98396 0.25828 0.0
O505 O 0.39341 0.94703 0.2211 0.0
O506 O 0.40775 0.71148 0.37134 0.0
H507 H 0.42063 0.87724 0.28999 0.0
H508 H 0.31305 0.88235 0.52694 0.0
H509 H 0.45357 0.91953 0.25452 0.0
Zn510 Zn 0.12161 0.21748 0.85967 0.0
C511 C 0.15268 0.11172 0.96939 0.0
N512 N 0.15022 0.14663 0.02033 0.0
C513 C 0.14301 0.18834 0.98669 0.0
N514 N 0.14053 0.17941 0.91866 0.0
N515 N 0.14747 0.13172 0.90642 0.0
C516 C 0.1434 0.02517 0.76186 0.0
O517 O 0.1285 0.05918 0.75099 0.0
O518 O 0.12354 0.29574 0.86881 0.0
Zn519 Zn 0.16236 0.1154 0.8194 0.0
N520 N 0.09376 0.18973 0.8696 0.0
C521 C 0.07407 0.1131 0.84841 0.0
C522 C 0.09313 0.13826 0.85438 0.0
C523 C 0.07591 0.21732 0.88059 0.0
N524 N 0.0563 0.14043 0.85812 0.0
C525 C 0.05654 0.19188 0.87422 0.0
O526 O 0.15255 0.15259 0.73022 0.0
C527 C 0.13809 0.18446 0.7146 0.0
O528 O 0.12731 0.20632 0.76082 0.0
H529 H 0.10742 0.11734 0.84478 0.0
H530 H 0.07675 0.25846 0.89169 0.0
C531 C 0.20808 0.11667 0.79923 0.0
C532 C 0.22846 0.13358 0.81624 0.0
C533 C 0.2145 0.18505 0.90682 0.0
C534 C 0.19453 0.16945 0.88874 0.0
N535 N 0.19155 0.13488 0.83635 0.0
N536 N 0.23088 0.16701 0.87022 0.0
H537 H 0.20533 0.0896 0.7574 0.0
C538 C 0.13955 0.31407 0.83868 0.0
O539 O 0.15394 0.28157 0.81732 0.0
O540 O 0.15975 0.03942 0.79424 0.0
H541 H 0.18153 0.18535 0.91651 0.0
H542 H 0.07337 0.07227 0.83547 0.0
H543 H 0.21698 0.21203 0.94896 0.0
C544 C 0.12164 0.2467 0.05745 0.0
C545 C 0.14031 0.23787 0.02252 0.0
H546 H 0.10728 0.27968 0.1467 0.0
C547 C 0.15837 0.26477 0.04314 0.0
H548 H 0.10767 0.22559 0.04312 0.0
C549 C 0.15833 0.29528 0.10313 0.0
C550 C 0.14024 0.29853 0.14321 0.0
H551 H 0.17305 0.25748 1.01741 0.0
H552 H 0.17287 0.31159 0.12171 0.0
C553 C 0.12158 0.27697 0.11733 0.0
C554 C 0.42053 0.77626 0.58873 0.0
C555 C 0.40469 0.77435 0.53839 0.0
H556 H 0.43096 0.75185 0.68879 0.0
C557 C 0.38897 0.73679 0.54532 0.0
H558 H 0.43267 0.80534 0.58524 0.0
C559 C 0.38769 0.70647 0.60575 0.0
C560 C 0.40216 0.71322 0.66022 0.0
H561 H 0.37629 0.73521 0.50821 0.0
H562 H 0.37433 0.68134 0.61224 0.0
C563 C 0.41934 0.746 0.64877 0.0
C564 C 0.16879 0.75825 0.93057 0.0
C565 C 0.15095 0.77159 0.96874 0.0
H566 H 0.18095 0.72032 0.84059 0.0
C567 C 0.13188 0.74845 0.9515 0.0
H568 H 0.18375 0.77543 0.94313 0.0
C569 C 0.13015 0.71845 0.8913 0.0
C570 C 0.14768 0.70938 0.84957 0.0
H571 H 0.11801 0.75694 0.98057 0.0
H572 H 0.11492 0.70481 0.87521 0.0
C573 C 0.16723 0.72679 0.87191 0.0
C574 C 0.38986 0.27944 0.46702 0.0
C575 C 0.40453 0.23914 0.47244 0.0
H576 H 0.37632 0.33801 0.40178 0.0
C577 C 0.41971 0.23431 0.42081 0.0
H578 H 0.37768 0.28328 0.50532 0.0
C579 C 0.41898 0.26538 0.36148 0.0
C580 C 0.40276 0.30152 0.35171 0.0
H581 H 0.43102 0.20309 0.42325 0.0
H582 H 0.43009 0.25773 0.32072 0.0
C583 C 0.38893 0.31033 0.40705 0.0
C584 C 0.92048 0.75268 0.89952 0.0
C585 C 0.90348 0.71899 0.88934 0.0
H586 H 0.93393 0.81269 0.9621 0.0
C587 C 0.88961 0.71149 0.94492 0.0
H588 H 0.93167 0.75914 0.85862 0.0
C589 C 0.89122 0.74183 1.0053 0.0
C590 C 0.90669 0.78021 1.01113 0.0
H591 H 0.87641 0.68564 0.93944 0.0
H592 H 0.87891 0.73957 0.04335 0.0
C593 C 0.92201 0.78296 0.95954 0.0
C594 C 0.63338 0.2575 0.4739 0.0
C595 C 0.6523 0.23304 0.48978 0.0
H596 H 0.61628 0.30124 0.39801 0.0
C597 C 0.67 0.24511 0.45008 0.0
H598 H 0.61968 0.2504 0.50434 0.0
C599 C 0.6683 0.27593 0.39084 0.0
C600 C 0.64875 0.2941 0.36965 0.0
H601 H 0.68487 0.22705 0.46161 0.0
H602 H 0.68182 0.28112 0.35817 0.0
C603 C 0.63149 0.28684 0.41317 0.0
C604 C 0.88197 0.31638 0.14778 0.0
C605 C 0.89425 0.30273 0.20555 0.0
H606 H 0.87036 0.29294 0.04783 0.0
C607 C 0.9062 0.2571 0.20284 0.0
H608 H 0.87253 0.35123 0.14865 0.0
C609 C 0.90443 0.22347 0.14675 0.0
C610 C 0.89152 0.2358 0.09036 0.0
H611 H 0.91559 0.24499 0.24666 0.0
H612 H 0.91223 0.18622 0.14955 0.0
C613 C 0.88086 0.28337 0.09 0.0
C614 C 0.66904 0.7522 0.58886 0.0
C615 C 0.65113 0.76633 0.55099 0.0
H616 H 0.68124 0.71514 0.6798 0.0
C617 C 0.63194 0.74456 0.56923 0.0
H618 H 0.6841 0.76831 0.57555 0.0
C619 C 0.63019 0.71584 0.63042 0.0
C620 C 0.64781 0.70657 0.67215 0.0
H621 H 0.61802 0.75342 0.5403 0.0
H622 H 0.6149 0.70348 0.64729 0.0
C623 C 0.66744 0.72198 0.64862 0.0
C624 C 0.60792 0.75663 0.16675 0.0
C625 C 0.62429 0.79238 0.17613 0.0
H626 H 0.59554 0.69453 0.10544 0.0
C627 C 0.63811 0.80057 0.12062 0.0
H628 H 0.5968 0.74947 0.20764 0.0
C629 C 0.637 0.7695 0.06082 0.0
C630 C 0.62214 0.7296 0.05576 0.0
H631 H 0.65083 0.82792 0.1256 0.0
H632 H 0.64914 0.7729 0.02234 0.0
C633 C 0.60699 0.72538 0.10761 0.0
C634 C 0.91064 0.27467 0.69538 0.0
C635 C 0.89886 0.229 0.70264 0.0
H636 H 0.91512 0.34459 0.63836 0.0
C637 C 0.8862 0.21286 0.64689 0.0
H638 H 0.92056 0.2885 0.73694 0.0
C639 C 0.88377 0.24461 0.58837 0.0
C640 C 0.89371 0.29303 0.58558 0.0
H641 H 0.87699 0.17776 0.65068 0.0
H642 H 0.87252 0.2338 0.54897 0.0
C643 C 0.90775 0.30677 0.63822 0.0
C644 C 0.60861 0.23638 0.8795 0.0
C645 C 0.62591 0.20411 0.86733 0.0
H646 H 0.59515 0.29496 0.94403 0.0
C647 C 0.64045 0.19719 0.92151 0.0
H648 H 0.5969 0.24228 0.83973 0.0
C649 C 0.63914 0.22697 0.98238 0.0
C650 C 0.62331 0.26417 0.99003 0.0
H651 H 0.65389 0.17236 0.9145 0.0
H652 H 0.65189 0.22542 0.01921 0.0
C653 C 0.60737 0.26608 0.94003 0.0
C654 C 0.85901 0.79094 0.41158 0.0
C655 C 0.87883 0.80754 0.39138 0.0
H656 H 0.84156 0.74432 0.48223 0.0
C657 C 0.89581 0.79944 0.43634 0.0
H658 H 0.84567 0.79677 0.3779 0.0
C659 C 0.89329 0.77119 0.49778 0.0
C660 C 0.87403 0.74833 0.51304 0.0
H661 H 0.91124 0.81262 0.42211 0.0
H662 H 0.90675 0.76387 0.52962 0.0
C663 C 0.85669 0.76106 0.47145 0.0
C664 C 0.39538 0.25395 0.95932 0.0
C665 C 0.37633 0.27719 0.97613 0.0
H666 H 0.41237 0.21119 0.8827 0.0
C667 C 0.35847 0.26401 0.93747 0.0
H668 H 0.40922 0.26198 0.989 0.0
C669 C 0.36006 0.23324 0.87825 0.0
C670 C 0.37963 0.21632 0.85608 0.0
H671 H 0.34352 0.28117 0.94978 0.0
H672 H 0.34635 0.22709 0.84637 0.0
C673 C 0.39714 0.22468 0.89859 0.0
C674 C 0.10779 0.72513 0.41342 0.0
C675 C 0.12277 0.73004 0.46611 0.0
H676 H 0.09781 0.74853 0.3126 0.0
C677 C 0.13734 0.77058 0.46199 0.0
H678 H 0.09656 0.69375 0.41492 0.0
C679 C 0.13845 0.80154 0.40219 0.0
C680 C 0.12492 0.79253 0.34579 0.0
H681 H 0.14935 0.77451 0.50119 0.0
H682 H 0.15101 0.82941 0.39796 0.0
C683 C 0.10872 0.75625 0.35423 0.0
C684 C 0.35706 0.75705 0.07567 0.0
C685 C 0.3748 0.74406 0.03662 0.0
H686 H 0.34521 0.79299 0.16762 0.0
C687 C 0.39391 0.76697 0.05397 0.0
H688 H 0.34206 0.74013 0.06311 0.0
C689 C 0.39584 0.79554 0.11537 0.0
C690 C 0.37847 0.80361 0.15821 0.0
H691 H 0.40767 0.75919 0.02411 0.0
H692 H 0.41114 0.80872 0.13149 0.0
C693 C 0.35883 0.78712 0.13561 0.0
C694 C 0.1133 0.25628 0.56672 0.0
C695 C 0.1303 0.26326 0.5227 0.0
H696 H 0.10233 0.22414 0.66149 0.0
C697 C 0.14851 0.23397 0.53393 0.0
H698 H 0.09925 0.27904 0.55959 0.0
C699 C 0.15058 0.20324 0.59361 0.0
C700 C 0.13441 0.20167 0.64233 0.0
H701 H 0.16199 0.23972 0.50126 0.0
H702 H 0.16547 0.18524 0.60483 0.0
C703 C 0.11527 0.22543 0.62567 0.0
C704 C 0.0162 0.2986 0.33326 0.0
C705 C 0.03338 0.2952 0.37844 0.0
H706 H 0.98302 0.30343 0.32331 0.0
C707 C 0.02988 0.2847 0.44863 0.0
H708 H 0.01852 0.3069 0.27887 0.0
C709 C 1.0095 0.2834 0.4743 0.0
C710 C 0.99232 0.29162 0.43003 0.0
H711 H 0.04281 0.28254 0.4847 0.0
H712 H 1.00724 0.27987 0.52962 0.0
C713 C 0.99584 0.2963 0.35866 0.0
C714 C 0.52756 0.72175 0.9429 0.0
C715 C 0.53215 0.70931 0.87394 0.0
H716 H 0.50369 0.7313 0.01908 0.0
C717 C 0.51565 0.70517 0.82603 0.0
H718 H 0.5399 0.72456 0.98114 0.0
C719 C 0.49493 0.70954 0.84748 0.0
C720 C 0.49027 0.71729 0.91764 0.0
H721 H 0.51876 0.69551 0.77249 0.0
H722 H 0.48264 0.70257 0.81008 0.0
C723 C 0.50681 0.72526 0.96462 0.0
C724 C 0.99566 0.70718 0.68972 0.0
C725 C 0.98964 0.71876 0.62155 0.0
H726 H 0.02093 0.68834 0.7581 0.0
C727 C 1.0052 0.72912 0.57228 0.0
H728 H 0.98409 0.69828 0.72857 0.0
C729 C 0.02633 0.72416 0.58943 0.0
C730 C 0.03224 0.7077 0.65586 0.0
H731 H 1.00098 0.73794 0.51923 0.0
H732 H 0.03788 0.72883 0.5492 0.0
C733 C 0.01676 0.70119 0.70648 0.0
C734 C 0.49575 0.30411 0.17661 0.0
C735 C 0.49176 0.29832 0.10553 0.0
H736 H 0.51888 0.31445 0.25561 0.0
C737 C 0.50871 0.29044 0.06062 0.0
H738 H 0.48314 0.31097 0.21254 0.0
C739 C 0.52924 0.29188 0.08549 0.0
C740 C 0.5332 0.30215 0.15562 0.0
H741 H 0.50612 0.28588 1.00553 0.0
H742 H 0.54195 0.28905 0.04898 0.0
C743 C 0.51625 0.30642 0.20123 0.0
C744 C 0.498 0.79388 0.44312 0.0
C745 C 0.49415 0.80484 0.37311 0.0
H746 H 0.52106 0.78546 0.52292 0.0
C747 C 0.51114 0.80804 0.3275 0.0
H748 H 0.48527 0.79184 0.47963 0.0
C749 C 0.53162 0.80388 0.35202 0.0
C750 C 0.53555 0.79728 0.423 0.0
H751 H 0.50861 0.81658 0.27322 0.0
H752 H 0.54429 0.80988 0.3161 0.0
C753 C 0.51852 0.79058 0.46789 0.0
C754 C 1.01207 0.24933 0.97358 0.0
C755 C 0.99511 0.23498 0.93131 0.0
H756 H 0.04526 0.24833 0.9874 0.0
C757 C 0.99901 0.21724 0.86396 0.0
H758 H 1.00945 0.26267 0.026 0.0
C759 C 0.01948 0.20804 0.84252 0.0
C760 C 0.03635 0.21757 0.88743 0.0
H761 H 0.98629 0.20509 0.8307 0.0
H762 H 0.02204 0.18961 0.79288 0.0
C763 C 0.03256 0.24119 0.95153 0.0
C764 C 0.51152 0.205 0.70218 0.0
C765 C 0.49513 0.21074 0.65419 0.0
H766 H 0.54446 0.19939 0.71828 0.0
C767 C 0.49991 0.22305 0.58535 0.0
H768 H 0.50825 0.19538 0.75562 0.0
C769 C 0.52071 0.22478 0.56376 0.0
C770 C 0.53709 0.21514 0.61078 0.0
H771 H 0.48764 0.22706 0.54707 0.0
H772 H 0.52394 0.23069 0.50936 0.0
C773 C 0.53229 0.20761 0.68087 0.0
C774 C 1.01312 0.80486 0.20987 0.0
C775 C 0.99523 0.80476 0.16745 0.0
H776 H 0.04639 0.80557 0.21538 0.0
C777 C 0.9977 0.79841 0.09581 0.0
H778 H 1.0117 0.80976 0.26534 0.0
C779 C 0.0177 0.79632 0.06695 0.0
C780 C 0.03564 0.79979 0.1091 0.0
H781 H 0.98429 0.79882 0.06164 0.0
H782 H 0.01913 0.7944 1.01118 0.0
C783 C 0.03307 0.8021 0.18119 0.0
C784 C 0.28134 0.40783 0.29106 0.0
C785 C 0.28189 0.38367 0.22597 0.0
H786 H 0.26261 0.43043 0.37725 0.0
C787 C 0.26287 0.37101 0.19339 0.0
H788 H 0.29559 0.4177 0.31814 0.0
C789 C 0.24388 0.37814 0.22746 0.0
C790 C 0.24351 0.39789 0.29514 0.0
H791 H 0.26273 0.35262 0.14298 0.0
H792 H 0.22977 0.3643 0.20277 0.0
C793 C 0.26237 0.41473 0.32524 0.0
C794 C 0.24355 0.63771 0.76285 0.0
C795 C 0.24401 0.61574 0.69634 0.0
H796 H 0.26121 0.66618 0.84887 0.0
C797 C 0.26335 0.59965 0.66951 0.0
H798 H 0.2291 0.65125 0.78518 0.0
C799 C 0.28189 0.60852 0.70608 0.0
C800 C 0.28152 0.63394 0.77034 0.0
H801 H 0.26429 0.58231 0.61856 0.0
H802 H 0.29651 0.59863 0.68168 0.0
C803 C 0.26207 0.64671 0.79927 0.0
C804 C 0.76227 0.59749 0.8685 0.0
C805 C 0.74327 0.6142 0.83922 0.0
H806 H 0.79556 0.59724 0.86191 0.0
C807 C 0.74358 0.63761 0.7736 0.0
H808 H 0.76259 0.57904 0.91886 0.0
C809 C 0.76251 0.64779 0.74083 0.0
C810 C 0.78158 0.6347 0.77262 0.0
H811 H 0.72938 0.6516 0.74957 0.0
H812 H 0.76225 0.6686 0.69212 0.0
C813 C 0.78122 0.60747 0.83552 0.0
C814 C 0.74132 0.38322 0.29719 0.0
C815 C 0.74298 0.39431 0.22621 0.0
H816 H 0.75715 0.3694 0.39279 0.0
C817 C 0.763 0.40397 0.19915 0.0
H818 H 0.72643 0.37472 0.32052 0.0
C819 C 0.78087 0.4001 0.24084 0.0
C820 C 0.77923 0.3866 0.31107 0.0
H821 H 0.76501 0.41289 0.14483 0.0
H822 H 0.79591 0.4052 0.21679 0.0
C823 C 0.75915 0.3796 0.33886 0.0
C824 C 0.76432 0.90911 0.19474 0.0
C825 C 0.78341 0.89569 0.22628 0.0
H826 H 0.73101 0.90845 0.20118 0.0
C827 C 0.78322 0.87769 0.29486 0.0
H828 H 0.76392 0.92329 0.14198 0.0
C829 C 0.7643 0.86924 0.32879 0.0
C830 C 0.74515 0.8789 0.29528 0.0
H831 H 0.79751 0.86636 0.32066 0.0
H832 H 0.76465 0.8523 0.38009 0.0
C833 C 0.7454 0.90104 0.22891 0.0
C834 C 0.76544 0.12958 0.71185 0.0
C835 C 0.74648 0.12547 0.74784 0.0
H836 H 0.79864 0.13665 0.71903 0.0
C837 C 0.74701 0.11533 0.81915 0.0
H838 H 0.76547 0.13749 0.65679 0.0
C839 C 0.76602 0.11542 0.85487 0.0
C840 C 0.78483 0.1248 0.81982 0.0
H841 H 0.73271 0.11259 0.84845 0.0
H842 H 0.76587 0.11215 0.91076 0.0
C843 C 0.78447 0.12885 0.74743 0.0
C844 C 0.28531 0.12095 0.76863 0.0
C845 C 0.28439 0.11493 0.69638 0.0
H846 H 0.26843 0.13001 0.86278 0.0
C847 C 0.26468 0.10794 0.66513 0.0
H848 H 0.29995 0.12714 0.79522 0.0
C849 C 0.24639 0.11036 0.70424 0.0
C850 C 0.24734 0.1197 0.77578 0.0
H851 H 0.26328 0.10282 0.60968 0.0
H852 H 0.23157 0.10811 0.67749 0.0
C853 C 0.26706 0.12312 0.80765 0.0
C854 C 0.26378 0.90914 0.3403 0.0
C855 C 0.28322 0.89423 0.31296 0.0
H856 H 0.2306 0.90915 0.32854 0.0
C857 C 0.28371 0.87275 0.24616 0.0
H858 H 0.26278 0.92604 0.3915 0.0
C859 C 0.26518 0.8634 0.20978 0.0
C860 C 0.24565 0.87531 0.23895 0.0
H861 H 0.29822 0.86008 0.2234 0.0
H862 H 0.26613 0.84463 0.15973 0.0
C863 C 0.24524 0.8999 0.3038 0.0
C864 C 0.15544 0.4804 0.45312 0.0
C865 C 0.14217 0.44691 0.48922 0.0
H866 H 0.16483 0.55962 0.43682 0.0
C867 C 0.13041 0.46676 0.54459 0.0
H868 H 0.16585 0.46561 0.4143 0.0
C869 C 0.13078 0.51942 0.56037 0.0
C870 C 0.14287 0.55335 0.52111 0.0
H871 H 0.1202 0.4419 0.57435 0.0
H872 H 0.12065 0.53404 0.60068 0.0
C873 C 0.15537 0.5337 0.46769 0.0
C874 C 0.37939 0.54668 0.04298 0.0
C875 C 0.36729 0.56309 0.98608 0.0
H876 H 0.38956 0.4831 0.10613 0.0
C877 C 0.35441 0.52706 0.95267 0.0
H878 H 0.38937 0.57398 0.07 0.0
C879 C 0.35401 0.47519 0.97506 0.0
C880 C 0.36647 0.45842 0.03127 0.0
H881 H 0.34455 0.53904 0.90997 0.0
H882 H 0.34425 0.44788 0.94731 0.0
C883 C 0.37914 0.4949 0.0649 0.0
C884 C 0.87657 0.55264 0.50668 0.0
C885 C 0.8656 0.56842 0.56601 0.0
H886 H 0.88745 0.48915 0.44526 0.0
C887 C 0.85468 0.53119 0.60416 0.0
H888 H 0.88518 0.5807 0.47631 0.0
C889 C 0.85551 0.47865 0.58482 0.0
C890 C 0.86705 0.46272 0.52653 0.0
H891 H 0.84559 0.5426 0.64868 0.0
H892 H 0.84768 0.45019 0.61674 0.0
C893 C 0.87744 0.50038 0.48755 0.0
C894 C 0.65365 0.53168 0.05027 0.0
C895 C 0.64069 0.5521 0.99833 0.0
H896 H 0.66475 0.46293 0.10047 0.0
C897 C 0.62857 0.51873 0.95803 0.0
H898 H 0.66321 0.55716 0.08165 0.0
C899 C 0.62863 0.46573 0.97139 0.0
C900 C 0.64083 0.44493 0.02546 0.0
H901 H 0.61823 0.53395 0.91843 0.0
H902 H 0.61836 0.44138 0.94083 0.0
C903 C 0.6541 0.47808 0.06249 0.0
C904 C 0.67262 0.9822 0.46626 0.0
C905 C 0.65954 0.94687 0.49975 0.0
H906 H 0.68341 0.06088 0.46083 0.0
C907 C 0.64767 0.96394 0.55649 0.0
H908 H 0.68229 0.96967 0.42361 0.0
C909 C 0.64839 0.01569 0.5783 0.0
C910 C 0.66131 0.05147 0.54475 0.0
H911 H 0.63753 0.93718 0.58351 0.0
H912 H 0.63813 0.02806 0.61939 0.0
C913 C 0.67349 0.03406 0.48856 0.0
C914 C 0.86832 0.98521 0.07966 0.0
C915 C 0.88389 0.95725 0.04529 0.0
H916 H 0.85363 0.05926 0.0945 0.0
C917 C 0.8946 0.98158 0.99076 0.0
H918 H 0.85892 0.96724 0.11853 0.0
C919 C 0.891 0.03354 0.9748 0.0
C920 C 0.87651 0.06237 1.0127 0.0
H921 H 0.90656 0.96119 0.96217 0.0
H922 H 0.90066 0.05198 0.93608 0.0
C923 C 0.86487 0.03761 0.06436 0.0
C924 C 0.37268 0.0407 0.47827 0.0
C925 C 0.38564 0.06196 0.52951 0.0
H926 H 0.3623 0.97138 0.42808 0.0
C927 C 0.39845 0.02945 0.56876 0.0
H928 H 0.36258 0.06554 0.44777 0.0
C929 C 0.39907 0.97653 0.55494 0.0
C930 C 0.38687 0.95492 0.50148 0.0
H931 H 0.40882 0.04536 0.60779 0.0
H932 H 0.40983 0.95292 0.5847 0.0
C933 C 0.37295 0.98716 0.46554 0.0
C934 C 0.14638 0.98502 0.06455 0.0
C935 C 0.16 0.95167 0.02977 0.0
H936 H 0.13333 0.06099 0.07142 0.0
C937 C 0.17172 0.97159 0.97401 0.0
H938 H 0.13647 0.97069 0.10545 0.0
C939 C 0.16953 0.02359 0.95297 0.0
C940 C 0.15545 0.05623 0.98701 0.0
H941 H 0.18222 0.94659 0.94559 0.0
H942 H 0.17896 0.03827 0.91105 0.0
C943 C 0.14427 0.0366 0.04382 0.0
C944 C 0.1584 0.1114 0.2979 0.0
C945 C 0.13988 0.12977 0.32808 0.0
H946 H 0.17416 0.04792 0.24922 0.0
C947 C 0.12296 0.09559 0.33463 0.0
H948 H 0.17173 0.13671 0.29178 0.0
C949 C 0.12438 0.04461 0.31006 0.0
C950 C 0.14271 0.0267 0.27821 0.0
H951 H 0.10847 0.10849 0.3574 0.0
H952 H 0.11095 0.01948 0.31522 0.0
C953 C 0.15978 0.06052 0.2731 0.0
C954 C 0.37419 0.94042 0.73819 0.0
C955 C 0.38519 0.97914 0.7741 0.0
H956 H 0.366 0.86019 0.7317 0.0
C957 C 0.3967 0.965 0.83343 0.0
H958 H 0.36519 0.94981 0.69232 0.0
C959 C 0.3972 0.91331 0.85618 0.0
C960 C 0.38611 0.87468 0.82034 0.0
H961 H 0.40535 0.99387 0.86242 0.0
H962 H 0.40633 0.90363 0.90165 0.0
C963 C 0.37458 0.88895 0.76114 0.0
C964 C 0.15858 0.93776 0.73545 0.0
C965 C 0.14164 0.97218 0.73257 0.0
H966 H 0.17032 0.86244 0.71072 0.0
C967 C 0.12316 0.95603 0.69953 0.0
H968 H 0.17307 0.94903 0.76013 0.0
C969 C 0.12155 0.90621 0.67104 0.0
C970 C 0.13844 0.87162 0.67457 0.0
H971 H 0.10983 0.98171 0.69615 0.0
H972 H 0.10698 0.89458 0.6472 0.0
C973 C 0.15703 0.88819 0.70653 0.0
C974 C 0.39844 0.10504 0.15435 0.0
C975 C 0.38698 0.14355 0.18899 0.0
H976 H 0.40682 0.02448 0.14903 0.0
C977 C 0.37496 0.12899 0.24661 0.0
H978 H 0.40794 0.11493 0.11009 0.0
C979 C 0.37449 0.0775 0.26936 0.0
C980 C 0.38593 0.03892 0.23492 0.0
H981 H 0.36605 0.15756 0.27504 0.0
H982 H 0.36505 0.06796 0.31387 0.0
C983 C 0.39785 0.05324 0.17692 0.0
C984 C 0.89706 0.91844 0.6871 0.0
C985 C 0.88552 0.88086 0.72302 0.0
H986 H 0.9054 0.99868 0.67831 0.0
C987 C 0.87297 0.89696 0.77867 0.0
H988 H 0.90693 0.90739 0.64422 0.0
C989 C 0.87217 0.94914 0.79855 0.0
C990 C 0.88386 0.98669 0.76315 0.0
H991 H 0.86393 0.86911 0.80787 0.0
H992 H 0.86251 0.95993 0.84207 0.0
C993 C 0.89622 0.97077 0.70691 0.0
C994 C 0.62049 0.095 0.19398 0.0
C995 C 0.63805 0.1275 0.19314 0.0
H996 H 0.60789 0.0211 0.22235 0.0
C997 C 0.65702 0.10839 0.21973 0.0
H998 H 0.60563 0.10854 0.17429 0.0
C999 C 0.65828 0.05852 0.24801 0.0
C1000 C 0.64064 0.02637 0.25004 0.0
H1001 H 0.67086 0.13241 0.22029 0.0
H1002 H 0.67307 0.04534 0.26873 0.0
C1003 C 0.62178 0.04497 0.22201 0.0
C1004 C 0.89931 0.06177 0.3592 0.0
C1005 C 0.88606 0.04614 0.30472 0.0
H1006 H 0.91017 0.12429 0.42352 0.0
C1007 C 0.87324 0.08374 0.27341 0.0
H1008 H 0.90941 0.03394 0.38461 0.0
C1009 C 0.87355 0.13539 0.29622 0.0
C1010 C 0.88676 0.15105 0.35076 0.0
H1011 H 0.86287 0.07329 0.23132 0.0
H1012 H 0.86354 0.16321 0.27036 0.0
C1013 C 0.89971 0.1136 0.38176 0.0
C1014 C 0.62219 0.90749 0.8513 0.0
C1015 C 0.63933 0.87364 0.85004 0.0
H1016 H 0.61021 0.98253 0.82524 0.0
C1017 C 0.65826 0.89154 0.82221 0.0
H1018 H 0.60737 0.89491 0.87203 0.0
C1019 C 0.65985 0.9416 0.79467 0.0
C1020 C 0.64258 0.97506 0.79465 0.0
H1021 H 0.67178 0.86645 0.82005 0.0
H1022 H 0.67456 0.95385 0.77286 0.0
C1023 C 0.6238 0.95765 0.82404 0.0
C1024 C 0.65152 0.62028 0.28218 0.0
C1025 C 0.63963 0.63474 0.34012 0.0
H1026 H 0.6613 0.55933 0.21456 0.0
C1027 C 0.6282 0.59627 0.37483 0.0
H1028 H 0.6604 0.64885 0.25368 0.0
C1029 C 0.62873 0.54452 0.35211 0.0
C1030 C 0.64056 0.53026 0.29386 0.0
H1031 H 0.6188 0.60613 0.41934 0.0
H1032 H 0.61983 0.51573 0.38012 0.0
C1033 C 0.65192 0.56885 0.25924 0.0
C1034 C 0.89933 0.46915 0.86797 0.0
C1035 C 0.88349 0.48472 0.82177 0.0
H1036 H 0.91287 0.40734 0.92717 0.0
C1037 C 0.86838 0.44818 0.80179 0.0
H1038 H 0.91117 0.49633 0.88485 0.0
C1039 C 0.86934 0.39705 0.82638 0.0
C1040 C 0.8854 0.38127 0.87166 0.0
H1041 H 0.85597 0.45884 0.7664 0.0
H1042 H 0.85768 0.36963 0.80873 0.0
C1043 C 0.90025 0.41812 0.89269 0.0
C1044 C 0.63055 0.40398 0.67153 0.0
C1045 C 0.64173 0.36542 0.7073 0.0
H1046 H 0.62219 0.48443 0.66551 0.0
C1047 C 0.65319 0.37977 0.76659 0.0
H1048 H 0.62147 0.39425 0.626 0.0
C1049 C 0.65343 0.43122 0.78972 0.0
C1050 C 0.64233 0.46986 0.75391 0.0
H1051 H 0.66182 0.35107 0.79599 0.0
H1052 H 0.66237 0.44066 0.83569 0.0
C1053 C 0.63091 0.45565 0.69446 0.0
C1054 C 0.86702 0.57269 0.27395 0.0
C1055 C 0.88386 0.53801 0.27043 0.0
H1056 H 0.85552 0.64883 0.25185 0.0
C1057 C 0.90235 0.55454 0.2382 0.0
H1058 H 0.85253 0.56123 0.29804 0.0
C1059 C 0.90412 0.60497 0.21162 0.0
C1060 C 0.88738 0.63995 0.21625 0.0
H1061 H 0.91562 0.52876 0.23431 0.0
H1062 H 0.91872 0.61681 0.18861 0.0
C1063 C 0.86873 0.62292 0.24697 0.0
C1064 C 0.36849 0.45033 0.73471 0.0
C1065 C 0.38601 0.48283 0.73839 0.0
H1066 H 0.35627 0.37638 0.70507 0.0
C1067 C 0.40503 0.46484 0.71136 0.0
H1068 H 0.35358 0.46303 0.75463 0.0
C1069 C 0.40659 0.4151 0.68262 0.0
C1070 C 0.38915 0.38224 0.68011 0.0
H1071 H 0.41883 0.489 0.71295 0.0
H1072 H 0.42157 0.40205 0.66371 0.0
C1073 C 0.37003 0.4007 0.70579 0.0
C1074 C 0.15322 0.62166 0.2315 0.0
C1075 C 0.14024 0.63702 0.17633 0.0
H1076 H 0.16342 0.56015 0.29774 0.0
C1077 C 0.12741 0.59964 0.14473 0.0
H1078 H 0.16321 0.64944 0.25751 0.0
C1079 C 0.12753 0.54811 0.16806 0.0
C1080 C 0.14039 0.53299 0.22372 0.0
H1081 H 0.11714 0.61026 0.10242 0.0
H1082 H 0.11748 0.52019 0.1426 0.0
C1083 C 0.15325 0.57041 0.25502 0.0
C1084 C 0.40549 0.60306 0.33858 0.0
C1085 C 0.38817 0.63637 0.33643 0.0
H1086 H 0.41783 0.52821 0.31369 0.0
C1087 C 0.36933 0.6177 0.30833 0.0
H1088 H 0.42023 0.61623 0.35958 0.0
C1089 C 0.36799 0.56743 0.28132 0.0
C1090 C 0.38542 0.5345 0.28213 0.0
H1091 H 0.35569 0.64236 0.30552 0.0
H1092 H 0.35334 0.5546 0.25922 0.0
C1093 C 0.40411 0.55266 0.31186 0.0
C1094 C 0.15512 0.38474 0.76696 0.0
C1095 C 0.14061 0.36933 0.81734 0.0
H1096 H 0.16683 0.44604 0.7034 0.0
C1097 C 0.12655 0.40637 0.84304 0.0
H1098 H 0.16604 0.35715 0.74534 0.0
C1099 C 0.1271 0.45774 0.81905 0.0
C1100 C 0.14153 0.47291 0.76823 0.0
H1101 H 0.11511 0.39566 0.88151 0.0
H1102 H 0.11613 0.48547 0.84008 0.0
C1103 C 0.15548 0.43574 0.7424 0.0
loop_
_geom_bond_atom_site_label_1
_geom_bond_atom_site_label_2
_geom_bond_distance
_geom_bond_site_symmetry_2
_ccdc_geom_bond_type
Zn0 N4 2.020 . S
Zn0 O8 2.019 . S
Zn0 N10 2.119 . S
Zn0 O18 1.975 . S
C1 N2 1.334 . S
C1 N5 1.336 . S
N2 C1 1.334 . S
N2 C3 1.334 . S
C3 N2 1.334 . S
C3 N4 1.336 . S
N4 Zn0 2.020 . S
N4 C3 1.336 . S
N4 N5 1.354 . S
N5 C1 1.336 . S
N5 N4 1.354 . S
N5 Zn9 2.020 . S
C6 O7 1.244 . S
C6 O30 1.257 . S
O7 C6 1.244 . S
O8 Zn0 2.019 . S
O8 C28 1.257 . S
Zn9 N5 2.020 . S
Zn9 O16 1.975 . S
Zn9 N25 2.119 . S
Zn9 O30 2.019 . S
N10 Zn0 2.119 . S
N10 C12 1.334 . S
N10 C13 1.328 . S
C11 C12 1.391 . S
C11 N14 1.329 . S
C11 H32 0.930 . S
C12 N10 1.334 . S
C12 C11 1.391 . S
C12 H19 0.930 . S
C13 N10 1.328 . S
C13 C15 1.392 . S
C13 H20 0.930 . S
N14 C11 1.329 . S
N14 C15 1.331 . S
C15 C13 1.392 . S
C15 N14 1.331 . S
O16 Zn9 1.975 . S
O16 C17 1.252 . S
C17 O16 1.252 . S
C17 O18 1.252 . S
O18 Zn0 1.975 . S
O18 C17 1.252 . S
H19 C12 0.930 . S
H20 C13 0.930 . S
C21 C22 1.392 . S
C21 N25 1.328 . S
C21 H27 0.930 . S
C22 C21 1.392 . S
C22 N26 1.331 . S
C23 C24 1.391 . S
C23 N26 1.329 . S
C23 H33 0.930 . S
C24 C23 1.391 . S
C24 N25 1.334 . S
C24 H31 0.930 . S
N25 Zn9 2.119 . S
N25 C21 1.328 . S
N25 C24 1.334 . S
N26 C22 1.331 . S
N26 C23 1.329 . S
H27 C21 0.930 . S
C28 O8 1.257 . S
C28 O29 1.244 . S
O29 C28 1.244 . S
O30 C6 1.257 . S
O30 Zn9 2.019 . S
H31 C24 0.930 . S
H32 C11 0.930 . S
H33 C23 0.930 . S
Zn34 N38 2.020 . S
Zn34 O42 2.019 . S
Zn34 N44 2.119 . S
Zn34 O52 1.975 . S
C35 N36 1.334 . S
C35 N39 1.336 . S
N36 C35 1.334 . S
N36 C37 1.334 . S
C37 N36 1.334 . S
C37 N38 1.336 . S
N38 Zn34 2.020 . S
N38 C37 1.336 . S
N38 N39 1.354 . S
N39 C35 1.336 . S
N39 N38 1.354 . S
N39 Zn43 2.020 . S
C40 O41 1.244 . S
C40 O64 1.257 . S
O41 C40 1.244 . S
O42 Zn34 2.019 . S
O42 C62 1.257 . S
Zn43 N39 2.020 . S
Zn43 O50 1.975 . S
Zn43 N59 2.119 . S
Zn43 O64 2.019 . S
N44 Zn34 2.119 . S
N44 C46 1.334 . S
N44 C47 1.328 . S
C45 C46 1.391 . S
C45 N48 1.329 . S
C45 H66 0.930 . S
C46 N44 1.334 . S
C46 C45 1.391 . S
C46 H53 0.930 . S
C47 N44 1.328 . S
C47 C49 1.392 . S
C47 H54 0.930 . S
N48 C45 1.329 . S
N48 C49 1.331 . S
C49 C47 1.392 . S
C49 N48 1.331 . S
O50 Zn43 1.975 . S
O50 C51 1.252 . S
C51 O50 1.252 . S
C51 O52 1.252 . S
O52 Zn34 1.975 . S
O52 C51 1.252 . S
H53 C46 0.930 . S
H54 C47 0.930 . S
C55 C56 1.392 . S
C55 N59 1.328 . S
C55 H61 0.930 . S
C56 C55 1.392 . S
C56 N60 1.331 . S
C57 C58 1.391 . S
C57 N60 1.329 . S
C57 H67 0.930 . S
C58 C57 1.391 . S
C58 N59 1.334 . S
C58 H65 0.930 . S
N59 Zn43 2.119 . S
N59 C55 1.328 . S
N59 C58 1.334 . S
N60 C56 1.331 . S
N60 C57 1.329 . S
H61 C55 0.930 . S
C62 O42 1.257 . S
C62 O63 1.244 . S
O63 C62 1.244 . S
O64 C40 1.257 . S
O64 Zn43 2.019 . S
H65 C58 0.930 . S
H66 C45 0.930 . S
H67 C57 0.930 . S
Zn68 N72 2.020 . S
Zn68 O76 2.019 . S
Zn68 N78 2.119 . S
Zn68 O86 1.975 . S
C69 N70 1.334 . S
C69 N73 1.336 . S
N70 C69 1.334 . S
N70 C71 1.334 . S
C71 N70 1.334 . S
C71 N72 1.336 . S
N72 Zn68 2.020 . S
N72 C71 1.336 . S
N72 N73 1.354 . S
N73 C69 1.336 . S
N73 N72 1.354 . S
N73 Zn77 2.020 . S
C74 O75 1.244 . S
C74 O98 1.257 . S
O75 C74 1.244 . S
O76 Zn68 2.019 . S
O76 C96 1.257 . S
Zn77 N73 2.020 . S
Zn77 O84 1.975 . S
Zn77 N93 2.119 . S
Zn77 O98 2.019 . S
N78 Zn68 2.119 . S
N78 C80 1.334 . S
N78 C81 1.328 . S
C79 C80 1.391 . S
C79 N82 1.329 . S
C79 H100 0.930 . S
C80 N78 1.334 . S
C80 C79 1.391 . S
C80 H87 0.930 . S
C81 N78 1.328 . S
C81 C83 1.392 . S
C81 H88 0.930 . S
N82 C79 1.329 . S
N82 C83 1.331 . S
C83 C81 1.392 . S
C83 N82 1.331 . S
O84 Zn77 1.975 . S
O84 C85 1.252 . S
C85 O84 1.252 . S
C85 O86 1.252 . S
O86 Zn68 1.975 . S
O86 C85 1.252 . S
H87 C80 0.930 . S
H88 C81 0.930 . S
C89 C90 1.392 . S
C89 N93 1.328 . S
C89 H95 0.930 . S
C90 C89 1.392 . S
C90 N94 1.331 . S
C91 C92 1.391 . S
C91 N94 1.329 . S
C91 H101 0.930 . S
C92 C91 1.391 . S
C92 N93 1.334 . S
C92 H99 0.930 . S
N93 Zn77 2.119 . S
N93 C89 1.328 . S
N93 C92 1.334 . S
N94 C90 1.331 . S
N94 C91 1.329 . S
H95 C89 0.930 . S
C96 O76 1.257 . S
C96 O97 1.244 . S
O97 C96 1.244 . S
O98 C74 1.257 . S
O98 Zn77 2.019 . S
H99 C92 0.930 . S
H100 C79 0.930 . S
H101 C91 0.930 . S
Zn102 N106 2.020 . S
Zn102 O110 2.019 . S
Zn102 N112 2.119 . S
Zn102 O120 1.975 . S
C103 N104 1.334 . S
C103 N107 1.336 . S
N104 C103 1.334 . S
N104 C105 1.334 . S
C105 N104 1.334 . S
C105 N106 1.336 . S
N106 Zn102 2.020 . S
N106 C105 1.336 . S
N106 N107 1.354 . S
N107 C103 1.336 . S
N107 N106 1.354 . S
N107 Zn111 2.020 . S
C108 O109 1.244 . S
C108 O132 1.257 . S
O109 C108 1.244 . S
O110 Zn102 2.019 . S
O110 C130 1.257 . S
Zn111 N107 2.020 . S
Zn111 O118 1.975 . S
Zn111 N127 2.119 . S
Zn111 O132 2.019 . S
N112 Zn102 2.119 . S
N112 C114 1.334 . S
N112 C115 1.328 . S
C113 C114 1.391 . S
C113 N116 1.329 . S
C113 H134 0.930 . S
C114 N112 1.334 . S
C114 C113 1.391 . S
C114 H121 0.930 . S
C115 N112 1.328 . S
C115 C117 1.392 . S
C115 H122 0.930 . S
N116 C113 1.329 . S
N116 C117 1.331 . S
C117 C115 1.392 . S
C117 N116 1.331 . S
O118 Zn111 1.975 . S
O118 C119 1.252 . S
C119 O118 1.252 . S
C119 O120 1.252 . S
O120 Zn102 1.975 . S
O120 C119 1.252 . S
H121 C114 0.930 . S
H122 C115 0.930 . S
C123 C124 1.392 . S
C123 N127 1.328 . S
C123 H129 0.930 . S
C124 C123 1.392 . S
C124 N128 1.331 . S
C125 C126 1.391 . S
C125 N128 1.329 . S
C125 H135 0.930 . S
C126 C125 1.391 . S
C126 N127 1.334 . S
C126 H133 0.930 . S
N127 Zn111 2.119 . S
N127 C123 1.328 . S
N127 C126 1.334 . S
N128 C124 1.331 . S
N128 C125 1.329 . S
H129 C123 0.930 . S
C130 O110 1.257 . S
C130 O131 1.244 . S
O131 C130 1.244 . S
O132 C108 1.257 . S
O132 Zn111 2.019 . S
H133 C126 0.930 . S
H134 C113 0.930 . S
H135 C125 0.930 . S
Zn136 N140 2.020 . S
Zn136 O144 2.019 . S
Zn136 N146 2.119 . S
Zn136 O154 1.975 . S
C137 N138 1.334 . S
C137 N141 1.336 . S
N138 C137 1.334 . S
N138 C139 1.334 . S
C139 N138 1.334 . S
C139 N140 1.336 . S
N140 Zn136 2.020 . S
N140 C139 1.336 . S
N140 N141 1.354 . S
N141 C137 1.336 . S
N141 N140 1.354 . S
N141 Zn145 2.020 . S
C142 O143 1.244 . S
C142 O166 1.257 . S
O143 C142 1.244 . S
O144 Zn136 2.019 . S
O144 C164 1.257 . S
Zn145 N141 2.020 . S
Zn145 O152 1.975 . S
Zn145 N161 2.119 . S
Zn145 O166 2.019 . S
N146 Zn136 2.119 . S
N146 C148 1.334 . S
N146 C149 1.328 . S
C147 C148 1.391 . S
C147 N150 1.329 . S
C147 H168 0.930 . S
C148 N146 1.334 . S
C148 C147 1.391 . S
C148 H155 0.930 . S
C149 N146 1.328 . S
C149 C151 1.392 . S
C149 H156 0.930 . S
N150 C147 1.329 . S
N150 C151 1.331 . S
C151 C149 1.392 . S
C151 N150 1.331 . S
O152 Zn145 1.975 . S
O152 C153 1.252 . S
C153 O152 1.252 . S
C153 O154 1.252 . S
O154 Zn136 1.975 . S
O154 C153 1.252 . S
H155 C148 0.930 . S
H156 C149 0.930 . S
C157 C158 1.392 . S
C157 N161 1.328 . S
C157 H163 0.930 . S
C158 C157 1.392 . S
C158 N162 1.331 . S
C159 C160 1.391 . S
C159 N162 1.329 . S
C159 H169 0.930 . S
C160 C159 1.391 . S
C160 N161 1.334 . S
C160 H167 0.930 . S
N161 Zn145 2.119 . S
N161 C157 1.328 . S
N161 C160 1.334 . S
N162 C158 1.331 . S
N162 C159 1.329 . S
H163 C157 0.930 . S
C164 O144 1.257 . S
C164 O165 1.244 . S
O165 C164 1.244 . S
O166 C142 1.257 . S
O166 Zn145 2.019 . S
H167 C160 0.930 . S
H168 C147 0.930 . S
H169 C159 0.930 . S
Zn170 N174 2.020 . S
Zn170 O178 2.019 . S
Zn170 N180 2.119 . S
Zn170 O188 1.975 . S
C171 N172 1.334 . S
C171 N175 1.336 . S
N172 C171 1.334 . S
N172 C173 1.334 . S
C173 N172 1.334 . S
C173 N174 1.336 . S
N174 Zn170 2.020 . S
N174 C173 1.336 . S
N174 N175 1.354 . S
N175 C171 1.336 . S
N175 N174 1.354 . S
N175 Zn179 2.020 . S
C176 O177 1.244 . S
C176 O200 1.257 . S
O177 C176 1.244 . S
O178 Zn170 2.019 . S
O178 C198 1.257 . S
Zn179 N175 2.020 . S
Zn179 O186 1.975 . S
Zn179 N195 2.119 . S
Zn179 O200 2.019 . S
N180 Zn170 2.119 . S
N180 C182 1.334 . S
N180 C183 1.328 . S
C181 C182 1.391 . S
C181 N184 1.329 . S
C181 H202 0.930 . S
C182 N180 1.334 . S
C182 C181 1.391 . S
C182 H189 0.930 . S
C183 N180 1.328 . S
C183 C185 1.392 . S
C183 H190 0.930 . S
N184 C181 1.329 . S
N184 C185 1.331 . S
C185 C183 1.392 . S
C185 N184 1.331 . S
O186 Zn179 1.975 . S
O186 C187 1.252 . S
C187 O186 1.252 . S
C187 O188 1.252 . S
O188 Zn170 1.975 . S
O188 C187 1.252 . S
H189 C182 0.930 . S
H190 C183 0.930 . S
C191 C192 1.392 . S
C191 N195 1.328 . S
C191 H197 0.930 . S
C192 C191 1.392 . S
C192 N196 1.331 . S
C193 C194 1.391 . S
C193 N196 1.329 . S
C193 H203 0.930 . S
C194 C193 1.391 . S
C194 N195 1.334 . S
C194 H201 0.930 . S
N195 Zn179 2.119 . S
N195 C191 1.328 . S
N195 C194 1.334 . S
N196 C192 1.331 . S
N196 C193 1.329 . S
H197 C191 0.930 . S
C198 O178 1.257 . S
C198 O199 1.244 . S
O199 C198 1.244 . S
O200 C176 1.257 . S
O200 Zn179 2.019 . S
H201 C194 0.930 . S
H202 C181 0.930 . S
H203 C193 0.930 . S
Zn204 N208 2.020 . S
Zn204 O212 2.019 . S
Zn204 N214 2.119 . S
Zn204 O222 1.975 . S
C205 N206 1.334 . S
C205 N209 1.336 . S
N206 C205 1.334 . S
N206 C207 1.334 . S
C207 N206 1.334 . S
C207 N208 1.336 . S
N208 Zn204 2.020 . S
N208 C207 1.336 . S
N208 N209 1.354 . S
N209 C205 1.336 . S
N209 N208 1.354 . S
N209 Zn213 2.020 . S
C210 O211 1.244 . S
C210 O234 1.257 . S
O211 C210 1.244 . S
O212 Zn204 2.019 . S
O212 C232 1.257 . S
Zn213 N209 2.020 . S
Zn213 O220 1.975 . S
Zn213 N229 2.119 . S
Zn213 O234 2.019 . S
N214 Zn204 2.119 . S
N214 C216 1.334 . S
N214 C217 1.328 . S
C215 C216 1.391 . S
C215 N218 1.329 . S
C215 H236 0.930 . S
C216 N214 1.334 . S
C216 C215 1.391 . S
C216 H223 0.930 . S
C217 N214 1.328 . S
C217 C219 1.392 . S
C217 H224 0.930 . S
N218 C215 1.329 . S
N218 C219 1.331 . S
C219 C217 1.392 . S
C219 N218 1.331 . S
O220 Zn213 1.975 . S
O220 C221 1.252 . S
C221 O220 1.252 . S
C221 O222 1.252 . S
O222 Zn204 1.975 . S
O222 C221 1.252 . S
H223 C216 0.930 . S
H224 C217 0.930 . S
C225 C226 1.392 . S
C225 N229 1.328 . S
C225 H231 0.930 . S
C226 C225 1.392 . S
C226 N230 1.331 . S
C227 C228 1.391 . S
C227 N230 1.329 . S
C227 H237 0.930 . S
C228 C227 1.391 . S
C228 N229 1.334 . S
C228 H235 0.930 . S
N229 Zn213 2.119 . S
N229 C225 1.328 . S
N229 C228 1.334 . S
N230 C226 1.331 . S
N230 C227 1.329 . S
H231 C225 0.930 . S
C232 O212 1.257 . S
C232 O233 1.244 . S
O233 C232 1.244 . S
O234 C210 1.257 . S
O234 Zn213 2.019 . S
H235 C228 0.930 . S
H236 C215 0.930 . S
H237 C227 0.930 . S
Zn238 N242 2.020 . S
Zn238 O246 2.019 . S
Zn238 N248 2.119 . S
Zn238 O256 1.975 . S
C239 N240 1.334 . S
C239 N243 1.336 . S
N240 C239 1.334 . S
N240 C241 1.334 . S
C241 N240 1.334 . S
C241 N242 1.336 . S
N242 Zn238 2.020 . S
N242 C241 1.336 . S
N242 N243 1.354 . S
N243 C239 1.336 . S
N243 N242 1.354 . S
N243 Zn247 2.020 . S
C244 O245 1.244 . S
C244 O268 1.257 . S
O245 C244 1.244 . S
O246 Zn238 2.019 . S
O246 C266 1.257 . S
Zn247 N243 2.020 . S
Zn247 O254 1.975 . S
Zn247 N263 2.119 . S
Zn247 O268 2.019 . S
N248 Zn238 2.119 . S
N248 C250 1.334 . S
N248 C251 1.328 . S
C249 C250 1.391 . S
C249 N252 1.329 . S
C249 H270 0.930 . S
C250 N248 1.334 . S
C250 C249 1.391 . S
C250 H257 0.930 . S
C251 N248 1.328 . S
C251 C253 1.392 . S
C251 H258 0.930 . S
N252 C249 1.329 . S
N252 C253 1.331 . S
C253 C251 1.392 . S
C253 N252 1.331 . S
O254 Zn247 1.975 . S
O254 C255 1.252 . S
C255 O254 1.252 . S
C255 O256 1.252 . S
O256 Zn238 1.975 . S
O256 C255 1.252 . S
H257 C250 0.930 . S
H258 C251 0.930 . S
C259 C260 1.392 . S
C259 N263 1.328 . S
C259 H265 0.930 . S
C260 C259 1.392 . S
C260 N264 1.331 . S
C261 C262 1.391 . S
C261 N264 1.329 . S
C261 H271 0.930 . S
C262 C261 1.391 . S
C262 N263 1.334 . S
C262 H269 0.930 . S
N263 Zn247 2.119 . S
N263 C259 1.328 . S
N263 C262 1.334 . S
N264 C260 1.331 . S
N264 C261 1.329 . S
H265 C259 0.930 . S
C266 O246 1.257 . S
C266 O267 1.244 . S
O267 C266 1.244 . S
O268 C244 1.257 . S
O268 Zn247 2.019 . S
H269 C262 0.930 . S
H270 C249 0.930 . S
H271 C261 0.930 . S
Zn272 N276 2.020 . S
Zn272 O280 2.019 . S
Zn272 N282 2.119 . S
Zn272 O290 1.975 . S
C273 N274 1.334 . S
C273 N277 1.336 . S
N274 C273 1.334 . S
N274 C275 1.334 . S
C275 N274 1.334 . S
C275 N276 1.336 . S
N276 Zn272 2.020 . S
N276 C275 1.336 . S
N276 N277 1.354 . S
N277 C273 1.336 . S
N277 N276 1.354 . S
N277 Zn281 2.020 . S
C278 O279 1.244 . S
C278 O302 1.257 . S
O279 C278 1.244 . S
O280 Zn272 2.019 . S
O280 C300 1.257 . S
Zn281 N277 2.020 . S
Zn281 O288 1.975 . S
Zn281 N297 2.119 . S
Zn281 O302 2.019 . S
N282 Zn272 2.119 . S
N282 C284 1.334 . S
N282 C285 1.328 . S
C283 C284 1.391 . S
C283 N286 1.329 . S
C283 H304 0.930 . S
C284 N282 1.334 . S
C284 C283 1.391 . S
C284 H291 0.930 . S
C285 N282 1.328 . S
C285 C287 1.392 . S
C285 H292 0.930 . S
N286 C283 1.329 . S
N286 C287 1.331 . S
C287 C285 1.392 . S
C287 N286 1.331 . S
O288 Zn281 1.975 . S
O288 C289 1.252 . S
C289 O288 1.252 . S
C289 O290 1.252 . S
O290 Zn272 1.975 . S
O290 C289 1.252 . S
H291 C284 0.930 . S
H292 C285 0.930 . S
C293 C294 1.392 . S
C293 N297 1.328 . S
C293 H299 0.930 . S
C294 C293 1.392 . S
C294 N298 1.331 . S
C295 C296 1.391 . S
C295 N298 1.329 . S
C295 H305 0.930 . S
C296 C295 1.391 . S
C296 N297 1.334 . S
C296 H303 0.930 . S
N297 Zn281 2.119 . S
N297 C293 1.328 . S
N297 C296 1.334 . S
N298 C294 1.331 . S
N298 C295 1.329 . S
H299 C293 0.930 . S
C300 O280 1.257 . S
C300 O301 1.244 . S
O301 C300 1.244 . S
O302 C278 1.257 . S
O302 Zn281 2.019 . S
H303 C296 0.930 . S
H304 C283 0.930 . S
H305 C295 0.930 . S
Zn306 N310 2.020 . S
Zn306 O314 2.019 . S
Zn306 N316 2.119 . S
Zn306 O324 1.975 . S
C307 N308 1.334 . S
C307 N311 1.336 . S
N308 C307 1.334 . S
N308 C309 1.334 . S
C309 N308 1.334 . S
C309 N310 1.336 . S
N310 Zn306 2.020 . S
N310 C309 1.336 . S
N310 N311 1.354 . S
N311 C307 1.336 . S
N311 N310 1.354 . S
N311 Zn315 2.020 . S
C312 O313 1.244 . S
C312 O336 1.257 . S
O313 C312 1.244 . S
O314 Zn306 2.019 . S
O314 C334 1.257 . S
Zn315 N311 2.020 . S
Zn315 O322 1.975 . S
Zn315 N331 2.119 . S
Zn315 O336 2.019 . S
N316 Zn306 2.119 . S
N316 C318 1.334 . S
N316 C319 1.328 . S
C317 C318 1.391 . S
C317 N320 1.329 . S
C317 H338 0.930 . S
C318 N316 1.334 . S
C318 C317 1.391 . S
C318 H325 0.930 . S
C319 N316 1.328 . S
C319 C321 1.392 . S
C319 H326 0.930 . S
N320 C317 1.329 . S
N320 C321 1.331 . S
C321 C319 1.392 . S
C321 N320 1.331 . S
O322 Zn315 1.975 . S
O322 C323 1.252 . S
C323 O322 1.252 . S
C323 O324 1.252 . S
O324 Zn306 1.975 . S
O324 C323 1.252 . S
H325 C318 0.930 . S
H326 C319 0.930 . S
C327 C328 1.392 . S
C327 N331 1.328 . S
C327 H333 0.930 . S
C328 C327 1.392 . S
C328 N332 1.331 . S
C329 C330 1.391 . S
C329 N332 1.329 . S
C329 H339 0.930 . S
C330 C329 1.391 . S
C330 N331 1.334 . S
C330 H337 0.930 . S
N331 Zn315 2.119 . S
N331 C327 1.328 . S
N331 C330 1.334 . S
N332 C328 1.331 . S
N332 C329 1.329 . S
H333 C327 0.930 . S
C334 O314 1.257 . S
C334 O335 1.244 . S
O335 C334 1.244 . S
O336 C312 1.257 . S
O336 Zn315 2.019 . S
H337 C330 0.930 . S
H338 C317 0.930 . S
H339 C329 0.930 . S
Zn340 N344 2.020 . S
Zn340 O348 2.019 . S
Zn340 N350 2.119 . S
Zn340 O358 1.975 . S
C341 N342 1.334 . S
C341 N345 1.336 . S
N342 C341 1.334 . S
N342 C343 1.334 . S
C343 N342 1.334 . S
C343 N344 1.336 . S
N344 Zn340 2.020 . S
N344 C343 1.336 . S
N344 N345 1.354 . S
N345 C341 1.336 . S
N345 N344 1.354 . S
N345 Zn349 2.020 . S
C346 O347 1.244 . S
C346 O370 1.257 . S
O347 C346 1.244 . S
O348 Zn340 2.019 . S
O348 C368 1.257 . S
Zn349 N345 2.020 . S
Zn349 O356 1.975 . S
Zn349 N365 2.119 . S
Zn349 O370 2.019 . S
N350 Zn340 2.119 . S
N350 C352 1.334 . S
N350 C353 1.328 . S
C351 C352 1.391 . S
C351 N354 1.329 . S
C351 H372 0.930 . S
C352 N350 1.334 . S
C352 C351 1.391 . S
C352 H359 0.930 . S
C353 N350 1.328 . S
C353 C355 1.392 . S
C353 H360 0.930 . S
N354 C351 1.329 . S
N354 C355 1.331 . S
C355 C353 1.392 . S
C355 N354 1.331 . S
O356 Zn349 1.975 . S
O356 C357 1.252 . S
C357 O356 1.252 . S
C357 O358 1.252 . S
O358 Zn340 1.975 . S
O358 C357 1.252 . S
H359 C352 0.930 . S
H360 C353 0.930 . S
C361 C362 1.392 . S
C361 N365 1.328 . S
C361 H367 0.930 . S
C362 C361 1.392 . S
C362 N366 1.331 . S
C363 C364 1.391 . S
C363 N366 1.329 . S
C363 H373 0.930 . S
C364 C363 1.391 . S
C364 N365 1.334 . S
C364 H371 0.930 . S
N365 Zn349 2.119 . S
N365 C361 1.328 . S
N365 C364 1.334 . S
N366 C362 1.331 . S
N366 C363 1.329 . S
H367 C361 0.930 . S
C368 O348 1.257 . S
C368 O369 1.244 . S
O369 C368 1.244 . S
O370 C346 1.257 . S
O370 Zn349 2.019 . S
H371 C364 0.930 . S
H372 C351 0.930 . S
H373 C363 0.930 . S
Zn374 N378 2.020 . S
Zn374 O382 2.019 . S
Zn374 N384 2.119 . S
Zn374 O392 1.975 . S
C375 N376 1.334 . S
C375 N379 1.336 . S
N376 C375 1.334 . S
N376 C377 1.334 . S
C377 N376 1.334 . S
C377 N378 1.336 . S
N378 Zn374 2.020 . S
N378 C377 1.336 . S
N378 N379 1.354 . S
N379 C375 1.336 . S
N379 N378 1.354 . S
N379 Zn383 2.020 . S
C380 O381 1.244 . S
C380 O404 1.257 . S
O381 C380 1.244 . S
O382 Zn374 2.019 . S
O382 C402 1.257 . S
Zn383 N379 2.020 . S
Zn383 O390 1.975 . S
Zn383 N399 2.119 . S
Zn383 O404 2.019 . S
N384 Zn374 2.119 . S
N384 C386 1.334 . S
N384 C387 1.328 . S
C385 C386 1.391 . S
C385 N388 1.329 . S
C385 H406 0.930 . S
C386 N384 1.334 . S
C386 C385 1.391 . S
C386 H393 0.930 . S
C387 N384 1.328 . S
C387 C389 1.392 . S
C387 H394 0.930 . S
N388 C385 1.329 . S
N388 C389 1.331 . S
C389 C387 1.392 . S
C389 N388 1.331 . S
O390 Zn383 1.975 . S
O390 C391 1.252 . S
C391 O390 1.252 . S
C391 O392 1.252 . S
O392 Zn374 1.975 . S
O392 C391 1.252 . S
H393 C386 0.930 . S
H394 C387 0.930 . S
C395 C396 1.392 . S
C395 N399 1.328 . S
C395 H401 0.930 . S
C396 C395 1.392 . S
C396 N400 1.331 . S
C397 C398 1.391 . S
C397 N400 1.329 . S
C397 H407 0.930 . S
C398 C397 1.391 . S
C398 N399 1.334 . S
C398 H405 0.930 . S
N399 Zn383 2.119 . S
N399 C395 1.328 . S
N399 C398 1.334 . S
N400 C396 1.331 . S
N400 C397 1.329 . S
H401 C395 0.930 . S
C402 O382 1.257 . S
C402 O403 1.244 . S
O403 C402 1.244 . S
O404 C380 1.257 . S
O404 Zn383 2.019 . S
H405 C398 0.930 . S
H406 C385 0.930 . S
H407 C397 0.930 . S
Zn408 N412 2.020 . S
Zn408 O416 2.019 . S
Zn408 N418 2.119 . S
Zn408 O426 1.975 . S
C409 N410 1.334 . S
C409 N413 1.336 . S
N410 C409 1.334 . S
N410 C411 1.334 . S
C411 N410 1.334 . S
C411 N412 1.336 . S
N412 Zn408 2.020 . S
N412 C411 1.336 . S
N412 N413 1.354 . S
N413 C409 1.336 . S
N413 N412 1.354 . S
N413 Zn417 2.020 . S
C414 O415 1.244 . S
C414 O438 1.257 . S
O415 C414 1.244 . S
O416 Zn408 2.019 . S
O416 C436 1.257 . S
Zn417 N413 2.020 . S
Zn417 O424 1.975 . S
Zn417 N433 2.119 . S
Zn417 O438 2.019 . S
N418 Zn408 2.119 . S
N418 C420 1.334 . S
N418 C421 1.328 . S
C419 C420 1.391 . S
C419 N422 1.329 . S
C419 H440 0.930 . S
C420 N418 1.334 . S
C420 C419 1.391 . S
C420 H427 0.930 . S
C421 N418 1.328 . S
C421 C423 1.392 . S
C421 H428 0.930 . S
N422 C419 1.329 . S
N422 C423 1.331 . S
C423 C421 1.392 . S
C423 N422 1.331 . S
O424 Zn417 1.975 . S
O424 C425 1.252 . S
C425 O424 1.252 . S
C425 O426 1.252 . S
O426 Zn408 1.975 . S
O426 C425 1.252 . S
H427 C420 0.930 . S
H428 C421 0.930 . S
C429 C430 1.392 . S
C429 N433 1.328 . S
C429 H435 0.930 . S
C430 C429 1.392 . S
C430 N434 1.331 . S
C431 C432 1.391 . S
C431 N434 1.329 . S
C431 H441 0.930 . S
C432 C431 1.391 . S
C432 N433 1.334 . S
C432 H439 0.930 . S
N433 Zn417 2.119 . S
N433 C429 1.328 . S
N433 C432 1.334 . S
N434 C430 1.331 . S
N434 C431 1.329 . S
H435 C429 0.930 . S
C436 O416 1.257 . S
C436 O437 1.244 . S
O437 C436 1.244 . S
O438 C414 1.257 . S
O438 Zn417 2.019 . S
H439 C432 0.930 . S
H440 C419 0.930 . S
H441 C431 0.930 . S
Zn442 N446 2.020 . S
Zn442 O450 2.019 . S
Zn442 N452 2.119 . S
Zn442 O460 1.975 . S
C443 N444 1.334 . S
C443 N447 1.336 . S
N444 C443 1.334 . S
N444 C445 1.334 . S
C445 N444 1.334 . S
C445 N446 1.336 . S
N446 Zn442 2.020 . S
N446 C445 1.336 . S
N446 N447 1.354 . S
N447 C443 1.336 . S
N447 N446 1.354 . S
N447 Zn451 2.020 . S
C448 O449 1.244 . S
C448 O472 1.257 . S
O449 C448 1.244 . S
O450 Zn442 2.019 . S
O450 C470 1.257 . S
Zn451 N447 2.020 . S
Zn451 O458 1.975 . S
Zn451 N467 2.119 . S
Zn451 O472 2.019 . S
N452 Zn442 2.119 . S
N452 C454 1.334 . S
N452 C455 1.328 . S
C453 C454 1.391 . S
C453 N456 1.329 . S
C453 H474 0.930 . S
C454 N452 1.334 . S
C454 C453 1.391 . S
C454 H461 0.930 . S
C455 N452 1.328 . S
C455 C457 1.392 . S
C455 H462 0.930 . S
N456 C453 1.329 . S
N456 C457 1.331 . S
C457 C455 1.392 . S
C457 N456 1.331 . S
O458 Zn451 1.975 . S
O458 C459 1.252 . S
C459 O458 1.252 . S
C459 O460 1.252 . S
O460 Zn442 1.975 . S
O460 C459 1.252 . S
H461 C454 0.930 . S
H462 C455 0.930 . S
C463 C464 1.392 . S
C463 N467 1.328 . S
C463 H469 0.930 . S
C464 C463 1.392 . S
C464 N468 1.331 . S
C465 C466 1.391 . S
C465 N468 1.329 . S
C465 H475 0.930 . S
C466 C465 1.391 . S
C466 N467 1.334 . S
C466 H473 0.930 . S
N467 Zn451 2.119 . S
N467 C463 1.328 . S
N467 C466 1.334 . S
N468 C464 1.331 . S
N468 C465 1.329 . S
H469 C463 0.930 . S
C470 O450 1.257 . S
C470 O471 1.244 . S
O471 C470 1.244 . S
O472 C448 1.257 . S
O472 Zn451 2.019 . S
H473 C466 0.930 . S
H474 C453 0.930 . S
H475 C465 0.930 . S
Zn476 N480 2.020 . S
Zn476 O484 2.019 . S
Zn476 N486 2.119 . S
Zn476 O494 1.975 . S
C477 N478 1.334 . S
C477 N481 1.336 . S
N478 C477 1.334 . S
N478 C479 1.334 . S
C479 N478 1.334 . S
C479 N480 1.336 . S
N480 Zn476 2.020 . S
N480 C479 1.336 . S
N480 N481 1.354 . S
N481 C477 1.336 . S
N481 N480 1.354 . S
N481 Zn485 2.020 . S
C482 O483 1.244 . S
C482 O506 1.257 . S
O483 C482 1.244 . S
O484 Zn476 2.019 . S
O484 C504 1.257 . S
Zn485 N481 2.020 . S
Zn485 O492 1.975 . S
Zn485 N501 2.119 . S
Zn485 O506 2.019 . S
N486 Zn476 2.119 . S
N486 C488 1.334 . S
N486 C489 1.328 . S
C487 C488 1.391 . S
C487 N490 1.329 . S
C487 H508 0.930 . S
C488 N486 1.334 . S
C488 C487 1.391 . S
C488 H495 0.930 . S
C489 N486 1.328 . S
C489 C491 1.392 . S
C489 H496 0.930 . S
N490 C487 1.329 . S
N490 C491 1.331 . S
C491 C489 1.392 . S
C491 N490 1.331 . S
O492 Zn485 1.975 . S
O492 C493 1.252 . S
C493 O492 1.252 . S
C493 O494 1.252 . S
O494 Zn476 1.975 . S
O494 C493 1.252 . S
H495 C488 0.930 . S
H496 C489 0.930 . S
C497 C498 1.392 . S
C497 N501 1.328 . S
C497 H503 0.930 . S
C498 C497 1.392 . S
C498 N502 1.331 . S
C499 C500 1.391 . S
C499 N502 1.329 . S
C499 H509 0.930 . S
C500 C499 1.391 . S
C500 N501 1.334 . S
C500 H507 0.930 . S
N501 Zn485 2.119 . S
N501 C497 1.328 . S
N501 C500 1.334 . S
N502 C498 1.331 . S
N502 C499 1.329 . S
H503 C497 0.930 . S
C504 O484 1.257 . S
C504 O505 1.244 . S
O505 C504 1.244 . S
O506 C482 1.257 . S
O506 Zn485 2.019 . S
H507 C500 0.930 . S
H508 C487 0.930 . S
H509 C499 0.930 . S
Zn510 N514 2.020 . S
Zn510 O518 2.019 . S
Zn510 N520 2.119 . S
Zn510 O528 1.975 . S
C511 N512 1.334 . S
C511 N515 1.336 . S
N512 C511 1.334 . S
N512 C513 1.334 . S
C513 N512 1.334 . S
C513 N514 1.336 . S
N514 Zn510 2.020 . S
N514 C513 1.336 . S
N514 N515 1.354 . S
N515 C511 1.336 . S
N515 N514 1.354 . S
N515 Zn519 2.020 . S
C516 O517 1.244 . S
C516 O540 1.257 . S
O517 C516 1.244 . S
O518 Zn510 2.019 . S
O518 C538 1.257 . S
Zn519 N515 2.020 . S
Zn519 O526 1.975 . S
Zn519 N535 2.119 . S
Zn519 O540 2.019 . S
N520 Zn510 2.119 . S
N520 C522 1.334 . S
N520 C523 1.328 . S
C521 C522 1.391 . S
C521 N524 1.329 . S
C521 H542 0.930 . S
C522 N520 1.334 . S
C522 C521 1.391 . S
C522 H529 0.930 . S
C523 N520 1.328 . S
C523 C525 1.392 . S
C523 H530 0.930 . S
N524 C521 1.329 . S
N524 C525 1.331 . S
C525 C523 1.392 . S
C525 N524 1.331 . S
O526 Zn519 1.975 . S
O526 C527 1.252 . S
C527 O526 1.252 . S
C527 O528 1.252 . S
O528 Zn510 1.975 . S
O528 C527 1.252 . S
H529 C522 0.930 . S
H530 C523 0.930 . S
C531 C532 1.392 . S
C531 N535 1.328 . S
C531 H537 0.930 . S
C532 C531 1.392 . S
C532 N536 1.331 . S
C533 C534 1.391 . S
C533 N536 1.329 . S
C533 H543 0.930 . S
C534 C533 1.391 . S
C534 N535 1.334 . S
C534 H541 0.930 . S
N535 Zn519 2.119 . S
N535 C531 1.328 . S
N535 C534 1.334 . S
N536 C532 1.331 . S
N536 C533 1.329 . S
H537 C531 0.930 . S
C538 O518 1.257 . S
C538 O539 1.244 . S
O539 C538 1.244 . S
O540 C516 1.257 . S
O540 Zn519 2.019 . S
H541 C534 0.930 . S
H542 C521 0.930 . S
H543 C533 0.930 . S
C544 C545 1.387 . S
C544 H548 0.950 . S
C544 C553 1.390 . S
C545 C544 1.387 . S
C545 C547 1.387 . S
H546 C553 0.950 . S
C547 C545 1.387 . S
C547 C549 1.390 . S
C547 H551 0.950 1_554 S
H548 C544 0.950 . S
C549 C547 1.390 . S
C549 C550 1.387 . S
C549 H552 0.950 . S
C550 C549 1.387 . S
C550 C553 1.387 . S
H551 C547 0.950 1_556 S
H552 C549 0.950 . S
C553 C544 1.390 . S
C553 H546 0.950 . S
C553 C550 1.387 . S
C554 C555 1.387 . S
C554 H558 0.950 . S
C554 C563 1.390 . S
C555 C554 1.387 . S
C555 C557 1.387 . S
H556 C563 0.950 . S
C557 C555 1.387 . S
C557 C559 1.390 . S
C557 H561 0.950 . S
H558 C554 0.950 . S
C559 C557 1.390 . S
C559 C560 1.387 . S
C559 H562 0.950 . S
C560 C559 1.387 . S
C560 C563 1.387 . S
H561 C557 0.950 . S
H562 C559 0.950 . S
C563 C554 1.390 . S
C563 H556 0.950 . S
C563 C560 1.387 . S
C564 C565 1.387 . S
C564 H568 0.950 . S
C564 C573 1.390 . S
C565 C564 1.387 . S
C565 C567 1.387 . S
H566 C573 0.950 . S
C567 C565 1.387 . S
C567 C569 1.390 . S
C567 H571 0.950 . S
H568 C564 0.950 . S
C569 C567 1.390 . S
C569 C570 1.387 . S
C569 H572 0.950 . S
C570 C569 1.387 . S
C570 C573 1.387 . S
H571 C567 0.950 . S
H572 C569 0.950 . S
C573 C564 1.390 . S
C573 H566 0.950 . S
C573 C570 1.387 . S
C574 C575 1.387 . S
C574 H578 0.950 . S
C574 C583 1.390 . S
C575 C574 1.387 . S
C575 C577 1.387 . S
H576 C583 0.950 . S
C577 C575 1.387 . S
C577 C579 1.390 . S
C577 H581 0.950 . S
H578 C574 0.950 . S
C579 C577 1.390 . S
C579 C580 1.387 . S
C579 H582 0.950 . S
C580 C579 1.387 . S
C580 C583 1.387 . S
H581 C577 0.950 . S
H582 C579 0.950 . S
C583 C574 1.390 . S
C583 H576 0.950 . S
C583 C580 1.387 . S
C584 C585 1.387 . S
C584 H588 0.950 . S
C584 C593 1.390 . S
C585 C584 1.387 . S
C585 C587 1.387 . S
H586 C593 0.950 1_554 S
C587 C585 1.387 . S
C587 C589 1.390 . S
C587 H591 0.950 . S
H588 C584 0.950 . S
C589 C587 1.390 . S
C589 C590 1.387 . S
C589 H592 0.950 . S
C590 C589 1.387 . S
C590 C593 1.387 . S
H591 C587 0.950 . S
H592 C589 0.950 . S
C593 C584 1.390 . S
C593 H586 0.950 1_556 S
C593 C590 1.387 . S
C594 C595 1.387 . S
C594 H598 0.950 . S
C594 C603 1.390 . S
C595 C594 1.387 . S
C595 C597 1.387 . S
H596 C603 0.950 . S
C597 C595 1.387 . S
C597 C599 1.390 . S
C597 H601 0.950 . S
H598 C594 0.950 . S
C599 C597 1.390 . S
C599 C600 1.387 . S
C599 H602 0.950 . S
C600 C599 1.387 . S
C600 C603 1.387 . S
H601 C597 0.950 . S
H602 C599 0.950 . S
C603 C594 1.390 . S
C603 H596 0.950 . S
C603 C600 1.387 . S
C604 C605 1.387 . S
C604 H608 0.950 . S
C604 C613 1.390 . S
C605 C604 1.387 . S
C605 C607 1.387 . S
H606 C613 0.950 . S
C607 C605 1.387 . S
C607 C609 1.390 . S
C607 H611 0.950 . S
H608 C604 0.950 . S
C609 C607 1.390 . S
C609 C610 1.387 . S
C609 H612 0.950 1_554 S
C610 C609 1.387 . S
C610 C613 1.387 . S
H611 C607 0.950 . S
H612 C609 0.950 1_556 S
C613 C604 1.390 . S
C613 H606 0.950 . S
C613 C610 1.387 . S
C614 C615 1.387 . S
C614 H618 0.950 . S
C614 C623 1.390 . S
C615 C614 1.387 . S
C615 C617 1.387 . S
H616 C623 0.950 . S
C617 C615 1.387 . S
C617 C619 1.390 . S
C617 H621 0.950 . S
H618 C614 0.950 . S
C619 C617 1.390 . S
C619 C620 1.387 . S
C619 H622 0.950 . S
C620 C619 1.387 . S
C620 C623 1.387 . S
H621 C617 0.950 . S
H622 C619 0.950 . S
C623 C614 1.390 . S
C623 H616 0.950 . S
C623 C620 1.387 . S
C624 C625 1.387 . S
C624 H628 0.950 . S
C624 C633 1.390 . S
C625 C624 1.387 . S
C625 C627 1.387 . S
H626 C633 0.950 1_556 S
C627 C625 1.387 . S
C627 C629 1.390 . S
C627 H631 0.950 . S
H628 C624 0.950 . S
C629 C627 1.390 . S
C629 C630 1.387 . S
C629 H632 0.950 . S
C630 C629 1.387 . S
C630 C633 1.387 . S
H631 C627 0.950 . S
H632 C629 0.950 . S
C633 C624 1.390 . S
C633 H626 0.950 1_554 S
C633 C630 1.387 . S
C634 C635 1.387 . S
C634 H638 0.950 . S
C634 C643 1.390 . S
C635 C634 1.387 . S
C635 C637 1.387 . S
H636 C643 0.950 . S
C637 C635 1.387 . S
C637 C639 1.390 . S
C637 H641 0.950 . S
H638 C634 0.950 . S
C639 C637 1.390 . S
C639 C640 1.387 . S
C639 H642 0.950 . S
C640 C639 1.387 . S
C640 C643 1.387 . S
H641 C637 0.950 . S
H642 C639 0.950 . S
C643 C634 1.390 . S
C643 H636 0.950 . S
C643 C640 1.387 . S
C644 C645 1.387 . S
C644 H648 0.950 . S
C644 C653 1.390 . S
C645 C644 1.387 . S
C645 C647 1.387 . S
H646 C653 0.950 . S
C647 C645 1.387 . S
C647 C649 1.390 . S
C647 H651 0.950 . S
H648 C644 0.950 . S
C649 C647 1.390 . S
C649 C650 1.387 . S
C649 H652 0.950 1_556 S
C650 C649 1.387 . S
C650 C653 1.387 . S
H651 C647 0.950 . S
H652 C649 0.950 1_554 S
C653 C644 1.390 . S
C653 H646 0.950 . S
C653 C650 1.387 . S
C654 C655 1.387 . S
C654 H658 0.950 . S
C654 C663 1.390 . S
C655 C654 1.387 . S
C655 C657 1.387 . S
H656 C663 0.950 . S
C657 C655 1.387 . S
C657 C659 1.390 . S
C657 H661 0.950 . S
H658 C654 0.950 . S
C659 C657 1.390 . S
C659 C660 1.387 . S
C659 H662 0.950 . S
C660 C659 1.387 . S
C660 C663 1.387 . S
H661 C657 0.950 . S
H662 C659 0.950 . S
C663 C654 1.390 . S
C663 H656 0.950 . S
C663 C660 1.387 . S
C664 C665 1.387 . S
C664 H668 0.950 . S
C664 C673 1.390 . S
C665 C664 1.387 . S
C665 C667 1.387 . S
H666 C673 0.950 . S
C667 C665 1.387 . S
C667 C669 1.390 . S
C667 H671 0.950 1_556 S
H668 C664 0.950 . S
C669 C667 1.390 . S
C669 C670 1.387 . S
C669 H672 0.950 . S
C670 C669 1.387 . S
C670 C673 1.387 . S
H671 C667 0.950 1_554 S
H672 C669 0.950 . S
C673 C664 1.390 . S
C673 H666 0.950 . S
C673 C670 1.387 . S
C674 C675 1.387 . S
C674 H678 0.950 . S
C674 C683 1.390 . S
C675 C674 1.387 . S
C675 C677 1.387 . S
H676 C683 0.950 . S
C677 C675 1.387 . S
C677 C679 1.390 . S
C677 H681 0.950 . S
H678 C674 0.950 . S
C679 C677 1.390 . S
C679 C680 1.387 . S
C679 H682 0.950 . S
C680 C679 1.387 . S
C680 C683 1.387 . S
H681 C677 0.950 . S
H682 C679 0.950 . S
C683 C674 1.390 . S
C683 H676 0.950 . S
C683 C680 1.387 . S
C684 C685 1.387 . S
C684 H688 0.950 1_554 S
C684 C693 1.390 . S
C685 C684 1.387 . S
C685 C687 1.387 . S
H686 C693 0.950 . S
C687 C685 1.387 . S
C687 C689 1.390 . S
C687 H691 0.950 . S
H688 C684 0.950 1_556 S
C689 C687 1.390 . S
C689 C690 1.387 . S
C689 H692 0.950 . S
C690 C689 1.387 . S
C690 C693 1.387 . S
H691 C687 0.950 . S
H692 C689 0.950 . S
C693 C684 1.390 . S
C693 H686 0.950 . S
C693 C690 1.387 . S
C694 C695 1.387 . S
C694 H698 0.950 . S
C694 C703 1.390 . S
C695 C694 1.387 . S
C695 C697 1.387 . S
H696 C703 0.950 . S
C697 C695 1.387 . S
C697 C699 1.390 . S
C697 H701 0.950 . S
H698 C694 0.950 . S
C699 C697 1.390 . S
C699 C700 1.387 . S
C699 H702 0.950 . S
C700 C699 1.387 . S
C700 C703 1.387 . S
H701 C697 0.950 . S
H702 C699 0.950 . S
C703 C694 1.390 . S
C703 H696 0.950 . S
C703 C700 1.387 . S
C704 C705 1.387 . S
C704 H708 0.950 . S
C704 C713 1.390 1_455 S
C705 C704 1.387 . S
C705 C707 1.387 . S
H706 C713 0.950 . S
C707 C705 1.387 . S
C707 C709 1.390 1_455 S
C707 H711 0.950 . S
H708 C704 0.950 . S
C709 C707 1.390 1_655 S
C709 C710 1.387 . S
C709 H712 0.950 . S
C710 C709 1.387 . S
C710 C713 1.387 . S
H711 C707 0.950 . S
H712 C709 0.950 . S
C713 C704 1.390 1_655 S
C713 H706 0.950 . S
C713 C710 1.387 . S
C714 C715 1.387 . S
C714 H718 0.950 . S
C714 C723 1.390 . S
C715 C714 1.387 . S
C715 C717 1.387 . S
H716 C723 0.950 . S
C717 C715 1.387 . S
C717 C719 1.390 . S
C717 H721 0.950 . S
H718 C714 0.950 . S
C719 C717 1.390 . S
C719 C720 1.387 . S
C719 H722 0.950 . S
C720 C719 1.387 . S
C720 C723 1.387 . S
H721 C717 0.950 . S
H722 C719 0.950 . S
C723 C714 1.390 . S
C723 H716 0.950 . S
C723 C720 1.387 . S
C724 C725 1.387 . S
C724 H728 0.950 . S
C724 C733 1.390 1_655 S
C725 C724 1.387 . S
C725 C727 1.387 . S
H726 C733 0.950 . S
C727 C725 1.387 . S
C727 C729 1.390 1_655 S
C727 H731 0.950 . S
H728 C724 0.950 . S
C729 C727 1.390 1_455 S
C729 C730 1.387 . S
C729 H732 0.950 . S
C730 C729 1.387 . S
C730 C733 1.387 . S
H731 C727 0.950 . S
H732 C729 0.950 . S
C733 C724 1.390 1_455 S
C733 H726 0.950 . S
C733 C730 1.387 . S
C734 C735 1.387 . S
C734 H738 0.950 . S
C734 C743 1.390 . S
C735 C734 1.387 . S
C735 C737 1.387 . S
H736 C743 0.950 . S
C737 C735 1.387 . S
C737 C739 1.390 . S
C737 H741 0.950 . S
H738 C734 0.950 . S
C739 C737 1.390 . S
C739 C740 1.387 . S
C739 H742 0.950 . S
C740 C739 1.387 . S
C740 C743 1.387 . S
H741 C737 0.950 . S
H742 C739 0.950 . S
C743 C734 1.390 . S
C743 H736 0.950 . S
C743 C740 1.387 . S
C744 C745 1.387 . S
C744 H748 0.950 . S
C744 C753 1.390 . S
C745 C744 1.387 . S
C745 C747 1.387 . S
H746 C753 0.950 . S
C747 C745 1.387 . S
C747 C749 1.390 . S
C747 H751 0.950 . S
H748 C744 0.950 . S
C749 C747 1.390 . S
C749 C750 1.387 . S
C749 H752 0.950 . S
C750 C749 1.387 . S
C750 C753 1.387 . S
H751 C747 0.950 . S
H752 C749 0.950 . S
C753 C744 1.390 . S
C753 H746 0.950 . S
C753 C750 1.387 . S
C754 C755 1.387 . S
C754 H758 0.950 . S
C754 C763 1.390 1_655 S
C755 C754 1.387 . S
C755 C757 1.387 . S
H756 C763 0.950 . S
C757 C755 1.387 . S
C757 C759 1.390 1_655 S
C757 H761 0.950 . S
H758 C754 0.950 . S
C759 C757 1.390 1_455 S
C759 C760 1.387 . S
C759 H762 0.950 . S
C760 C759 1.387 . S
C760 C763 1.387 . S
H761 C757 0.950 . S
H762 C759 0.950 . S
C763 C754 1.390 1_455 S
C763 H756 0.950 . S
C763 C760 1.387 . S
C764 C765 1.387 . S
C764 H768 0.950 . S
C764 C773 1.390 . S
C765 C764 1.387 . S
C765 C767 1.387 . S
H766 C773 0.950 . S
C767 C765 1.387 . S
C767 C769 1.390 . S
C767 H771 0.950 . S
H768 C764 0.950 . S
C769 C767 1.390 . S
C769 C770 1.387 . S
C769 H772 0.950 . S
C770 C769 1.387 . S
C770 C773 1.387 . S
H771 C767 0.950 . S
H772 C769 0.950 . S
C773 C764 1.390 . S
C773 H766 0.950 . S
C773 C770 1.387 . S
C774 C775 1.387 . S
C774 H778 0.950 . S
C774 C783 1.390 1_655 S
C775 C774 1.387 . S
C775 C777 1.387 . S
H776 C783 0.950 . S
C777 C775 1.387 . S
C777 C779 1.390 1_655 S
C777 H781 0.950 . S
H778 C774 0.950 . S
C779 C777 1.390 1_455 S
C779 C780 1.387 . S
C779 H782 0.950 . S
C780 C779 1.387 . S
C780 C783 1.387 . S
H781 C777 0.950 . S
H782 C779 0.950 . S
C783 C774 1.390 1_455 S
C783 H776 0.950 . S
C783 C780 1.387 . S
C784 C785 1.387 . S
C784 H788 0.950 . S
C784 C793 1.390 . S
C785 C784 1.387 . S
C785 C787 1.387 . S
H786 C793 0.950 . S
C787 C785 1.387 . S
C787 C789 1.390 . S
C787 H791 0.950 . S
H788 C784 0.950 . S
C789 C787 1.390 . S
C789 C790 1.387 . S
C789 H792 0.950 . S
C790 C789 1.387 . S
C790 C793 1.387 . S
H791 C787 0.950 . S
H792 C789 0.950 . S
C793 C784 1.390 . S
C793 H786 0.950 . S
C793 C790 1.387 . S
C794 C795 1.387 . S
C794 H798 0.950 . S
C794 C803 1.390 . S
C795 C794 1.387 . S
C795 C797 1.387 . S
H796 C803 0.950 . S
C797 C795 1.387 . S
C797 C799 1.390 . S
C797 H801 0.950 . S
H798 C794 0.950 . S
C799 C797 1.390 . S
C799 C800 1.387 . S
C799 H802 0.950 . S
C800 C799 1.387 . S
C800 C803 1.387 . S
H801 C797 0.950 . S
H802 C799 0.950 . S
C803 C794 1.390 . S
C803 H796 0.950 . S
C803 C800 1.387 . S
C804 C805 1.387 . S
C804 H808 0.950 . S
C804 C813 1.390 . S
C805 C804 1.387 . S
C805 C807 1.387 . S
H806 C813 0.950 . S
C807 C805 1.387 . S
C807 C809 1.390 . S
C807 H811 0.950 . S
H808 C804 0.950 . S
C809 C807 1.390 . S
C809 C810 1.387 . S
C809 H812 0.950 . S
C810 C809 1.387 . S
C810 C813 1.387 . S
H811 C807 0.950 . S
H812 C809 0.950 . S
C813 C804 1.390 . S
C813 H806 0.950 . S
C813 C810 1.387 . S
C814 C815 1.387 . S
C814 H818 0.950 . S
C814 C823 1.390 . S
C815 C814 1.387 . S
C815 C817 1.387 . S
H816 C823 0.950 . S
C817 C815 1.387 . S
C817 C819 1.390 . S
C817 H821 0.950 . S
H818 C814 0.950 . S
C819 C817 1.390 . S
C819 C820 1.387 . S
C819 H822 0.950 . S
C820 C819 1.387 . S
C820 C823 1.387 . S
H821 C817 0.950 . S
H822 C819 0.950 . S
C823 C814 1.390 . S
C823 H816 0.950 . S
C823 C820 1.387 . S
C824 C825 1.387 . S
C824 H828 0.950 . S
C824 C833 1.390 . S
C825 C824 1.387 . S
C825 C827 1.387 . S
H826 C833 0.950 . S
C827 C825 1.387 . S
C827 C829 1.390 . S
C827 H831 0.950 . S
H828 C824 0.950 . S
C829 C827 1.390 . S
C829 C830 1.387 . S
C829 H832 0.950 . S
C830 C829 1.387 . S
C830 C833 1.387 . S
H831 C827 0.950 . S
H832 C829 0.950 . S
C833 C824 1.390 . S
C833 H826 0.950 . S
C833 C830 1.387 . S
C834 C835 1.387 . S
C834 H838 0.950 . S
C834 C843 1.390 . S
C835 C834 1.387 . S
C835 C837 1.387 . S
H836 C843 0.950 . S
C837 C835 1.387 . S
C837 C839 1.390 . S
C837 H841 0.950 . S
H838 C834 0.950 . S
C839 C837 1.390 . S
C839 C840 1.387 . S
C839 H842 0.950 . S
C840 C839 1.387 . S
C840 C843 1.387 . S
H841 C837 0.950 . S
H842 C839 0.950 . S
C843 C834 1.390 . S
C843 H836 0.950 . S
C843 C840 1.387 . S
C844 C845 1.387 . S
C844 H848 0.950 . S
C844 C853 1.390 . S
C845 C844 1.387 . S
C845 C847 1.387 . S
H846 C853 0.950 . S
C847 C845 1.387 . S
C847 C849 1.390 . S
C847 H851 0.950 . S
H848 C844 0.950 . S
C849 C847 1.390 . S
C849 C850 1.387 . S
C849 H852 0.950 . S
C850 C849 1.387 . S
C850 C853 1.387 . S
H851 C847 0.950 . S
H852 C849 0.950 . S
C853 C844 1.390 . S
C853 H846 0.950 . S
C853 C850 1.387 . S
C854 C855 1.387 . S
C854 H858 0.950 . S
C854 C863 1.390 . S
C855 C854 1.387 . S
C855 C857 1.387 . S
H856 C863 0.950 . S
C857 C855 1.387 . S
C857 C859 1.390 . S
C857 H861 0.950 . S
H858 C854 0.950 . S
C859 C857 1.390 . S
C859 C860 1.387 . S
C859 H862 0.950 . S
C860 C859 1.387 . S
C860 C863 1.387 . S
H861 C857 0.950 . S
H862 C859 0.950 . S
C863 C854 1.390 . S
C863 H856 0.950 . S
C863 C860 1.387 . S
C864 C865 1.387 . S
C864 H868 0.950 . S
C864 C873 1.390 . S
C865 C864 1.387 . S
C865 C867 1.387 . S
H866 C873 0.950 . S
C867 C865 1.387 . S
C867 C869 1.390 . S
C867 H871 0.950 . S
H868 C864 0.950 . S
C869 C867 1.390 . S
C869 C870 1.387 . S
C869 H872 0.950 . S
C870 C869 1.387 . S
C870 C873 1.387 . S
H871 C867 0.950 . S
H872 C869 0.950 . S
C873 C864 1.390 . S
C873 H866 0.950 . S
C873 C870 1.387 . S
C874 C875 1.387 . S
C874 H878 0.950 . S
C874 C883 1.390 1_556 S
C875 C874 1.387 . S
C875 C877 1.387 . S
H876 C883 0.950 . S
C877 C875 1.387 . S
C877 C879 1.390 1_556 S
C877 H881 0.950 . S
H878 C874 0.950 . S
C879 C877 1.390 1_554 S
C879 C880 1.387 . S
C879 H882 0.950 . S
C880 C879 1.387 . S
C880 C883 1.387 . S
H881 C877 0.950 . S
H882 C879 0.950 . S
C883 C874 1.390 1_554 S
C883 H876 0.950 . S
C883 C880 1.387 . S
C884 C885 1.387 . S
C884 H888 0.950 . S
C884 C893 1.390 . S
C885 C884 1.387 . S
C885 C887 1.387 . S
H886 C893 0.950 . S
C887 C885 1.387 . S
C887 C889 1.390 . S
C887 H891 0.950 . S
H888 C884 0.950 . S
C889 C887 1.390 . S
C889 C890 1.387 . S
C889 H892 0.950 . S
C890 C889 1.387 . S
C890 C893 1.387 . S
H891 C887 0.950 . S
H892 C889 0.950 . S
C893 C884 1.390 . S
C893 H886 0.950 . S
C893 C890 1.387 . S
C894 C895 1.387 . S
C894 H898 0.950 . S
C894 C903 1.390 1_556 S
C895 C894 1.387 . S
C895 C897 1.387 . S
H896 C903 0.950 . S
C897 C895 1.387 . S
C897 C899 1.390 1_556 S
C897 H901 0.950 . S
H898 C894 0.950 . S
C899 C897 1.390 1_554 S
C899 C900 1.387 . S
C899 H902 0.950 . S
C900 C899 1.387 . S
C900 C903 1.387 . S
H901 C897 0.950 . S
H902 C899 0.950 . S
C903 C894 1.390 1_554 S
C903 H896 0.950 . S
C903 C900 1.387 . S
C904 C905 1.387 . S
C904 H908 0.950 . S
C904 C913 1.390 1_565 S
C905 C904 1.387 . S
C905 C907 1.387 . S
H906 C913 0.950 . S
C907 C905 1.387 . S
C907 C909 1.390 1_565 S
C907 H911 0.950 . S
H908 C904 0.950 . S
C909 C907 1.390 1_545 S
C909 C910 1.387 . S
C909 H912 0.950 . S
C910 C909 1.387 . S
C910 C913 1.387 . S
H911 C907 0.950 . S
H912 C909 0.950 . S
C913 C904 1.390 1_545 S
C913 H906 0.950 . S
C913 C910 1.387 . S
C914 C915 1.387 . S
C914 H918 0.950 . S
C914 C923 1.390 1_564 S
C915 C914 1.387 . S
C915 C917 1.387 . S
H916 C923 0.950 . S
C917 C915 1.387 . S
C917 C919 1.390 1_564 S
C917 H921 0.950 . S
H918 C914 0.950 . S
C919 C917 1.390 1_546 S
C919 C920 1.387 . S
C919 H922 0.950 . S
C920 C919 1.387 . S
C920 C923 1.387 . S
H921 C917 0.950 . S
H922 C919 0.950 . S
C923 C914 1.390 1_546 S
C923 H916 0.950 . S
C923 C920 1.387 . S
C924 C925 1.387 . S
C924 H928 0.950 . S
C924 C933 1.390 1_545 S
C925 C924 1.387 . S
C925 C927 1.387 . S
H926 C933 0.950 . S
C927 C925 1.387 . S
C927 C929 1.390 1_545 S
C927 H931 0.950 . S
H928 C924 0.950 . S
C929 C927 1.390 1_565 S
C929 C930 1.387 . S
C929 H932 0.950 . S
C930 C929 1.387 . S
C930 C933 1.387 . S
H931 C927 0.950 . S
H932 C929 0.950 . S
C933 C924 1.390 1_565 S
C933 H926 0.950 . S
C933 C930 1.387 . S
C934 C935 1.387 . S
C934 H938 0.950 . S
C934 C943 1.390 1_564 S
C935 C934 1.387 . S
C935 C937 1.387 . S
H936 C943 0.950 . S
C937 C935 1.387 . S
C937 C939 1.390 1_564 S
C937 H941 0.950 . S
H938 C934 0.950 . S
C939 C937 1.390 1_546 S
C939 C940 1.387 . S
C939 H942 0.950 . S
C940 C939 1.387 . S
C940 C943 1.387 . S
H941 C937 0.950 . S
H942 C939 0.950 . S
C943 C934 1.390 1_546 S
C943 H936 0.950 . S
C943 C940 1.387 . S
C944 C945 1.387 . S
C944 H948 0.950 . S
C944 C953 1.390 . S
C945 C944 1.387 . S
C945 C947 1.387 . S
H946 C953 0.950 . S
C947 C945 1.387 . S
C947 C949 1.390 . S
C947 H951 0.950 . S
H948 C944 0.950 . S
C949 C947 1.390 . S
C949 C950 1.387 . S
C949 H952 0.950 . S
C950 C949 1.387 . S
C950 C953 1.387 . S
H951 C947 0.950 . S
H952 C949 0.950 . S
C953 C944 1.390 . S
C953 H946 0.950 . S
C953 C950 1.387 . S
C954 C955 1.387 . S
C954 H958 0.950 . S
C954 C963 1.390 . S
C955 C954 1.387 . S
C955 C957 1.387 . S
H956 C963 0.950 . S
C957 C955 1.387 . S
C957 C959 1.390 . S
C957 H961 0.950 . S
H958 C954 0.950 . S
C959 C957 1.390 . S
C959 C960 1.387 . S
C959 H962 0.950 . S
C960 C959 1.387 . S
C960 C963 1.387 . S
H961 C957 0.950 . S
H962 C959 0.950 . S
C963 C954 1.390 . S
C963 H956 0.950 . S
C963 C960 1.387 . S
C964 C965 1.387 . S
C964 H968 0.950 . S
C964 C973 1.390 . S
C965 C964 1.387 . S
C965 C967 1.387 . S
H966 C973 0.950 . S
C967 C965 1.387 . S
C967 C969 1.390 . S
C967 H971 0.950 . S
H968 C964 0.950 . S
C969 C967 1.390 . S
C969 C970 1.387 . S
C969 H972 0.950 . S
C970 C969 1.387 . S
C970 C973 1.387 . S
H971 C967 0.950 . S
H972 C969 0.950 . S
C973 C964 1.390 . S
C973 H966 0.950 . S
C973 C970 1.387 . S
C974 C975 1.387 . S
C974 H978 0.950 . S
C974 C983 1.390 . S
C975 C974 1.387 . S
C975 C977 1.387 . S
H976 C983 0.950 . S
C977 C975 1.387 . S
C977 C979 1.390 . S
C977 H981 0.950 . S
H978 C974 0.950 . S
C979 C977 1.390 . S
C979 C980 1.387 . S
C979 H982 0.950 . S
C980 C979 1.387 . S
C980 C983 1.387 . S
H981 C977 0.950 . S
H982 C979 0.950 . S
C983 C974 1.390 . S
C983 H976 0.950 . S
C983 C980 1.387 . S
C984 C985 1.387 . S
C984 H988 0.950 . S
C984 C993 1.390 . S
C985 C984 1.387 . S
C985 C987 1.387 . S
H986 C993 0.950 . S
C987 C985 1.387 . S
C987 C989 1.390 . S
C987 H991 0.950 . S
H988 C984 0.950 . S
C989 C987 1.390 . S
C989 C990 1.387 . S
C989 H992 0.950 . S
C990 C989 1.387 . S
C990 C993 1.387 . S
H991 C987 0.950 . S
H992 C989 0.950 . S
C993 C984 1.390 . S
C993 H986 0.950 . S
C993 C990 1.387 . S
C994 C995 1.387 . S
C994 H998 0.950 . S
C994 C1003 1.390 . S
C995 C994 1.387 . S
C995 C997 1.387 . S
H996 C1003 0.950 . S
C997 C995 1.387 . S
C997 C999 1.390 . S
C997 H1001 0.950 . S
H998 C994 0.950 . S
C999 C997 1.390 . S
C999 C1000 1.387 . S
C999 H1002 0.950 . S
C1000 C999 1.387 . S
C1000 C1003 1.387 . S
H1001 C997 0.950 . S
H1002 C999 0.950 . S
C1003 C994 1.390 . S
C1003 H996 0.950 . S
C1003 C1000 1.387 . S
C1004 C1005 1.387 . S
C1004 H1008 0.950 . S
C1004 C1013 1.390 . S
C1005 C1004 1.387 . S
C1005 C1007 1.387 . S
H1006 C1013 0.950 . S
C1007 C1005 1.387 . S
C1007 C1009 1.390 . S
C1007 H1011 0.950 . S
H1008 C1004 0.950 . S
C1009 C1007 1.390 . S
C1009 C1010 1.387 . S
C1009 H1012 0.950 . S
C1010 C1009 1.387 . S
C1010 C1013 1.387 . S
H1011 C1007 0.950 . S
H1012 C1009 0.950 . S
C1013 C1004 1.390 . S
C1013 H1006 0.950 . S
C1013 C1010 1.387 . S
C1014 C1015 1.387 . S
C1014 H1018 0.950 . S
C1014 C1023 1.390 . S
C1015 C1014 1.387 . S
C1015 C1017 1.387 . S
H1016 C1023 0.950 . S
C1017 C1015 1.387 . S
C1017 C1019 1.390 . S
C1017 H1021 0.950 . S
H1018 C1014 0.950 . S
C1019 C1017 1.390 . S
C1019 C1020 1.387 . S
C1019 H1022 0.950 . S
C1020 C1019 1.387 . S
C1020 C1023 1.387 . S
H1021 C1017 0.950 . S
H1022 C1019 0.950 . S
C1023 C1014 1.390 . S
C1023 H1016 0.950 . S
C1023 C1020 1.387 . S
C1024 C1025 1.387 . S
C1024 H1028 0.950 . S
C1024 C1033 1.390 . S
C1025 C1024 1.387 . S
C1025 C1027 1.387 . S
H1026 C1033 0.950 . S
C1027 C1025 1.387 . S
C1027 C1029 1.390 . S
C1027 H1031 0.950 . S
H1028 C1024 0.950 . S
C1029 C1027 1.390 . S
C1029 C1030 1.387 . S
C1029 H1032 0.950 . S
C1030 C1029 1.387 . S
C1030 C1033 1.387 . S
H1031 C1027 0.950 . S
H1032 C1029 0.950 . S
C1033 C1024 1.390 . S
C1033 H1026 0.950 . S
C1033 C1030 1.387 . S
C1034 C1035 1.387 . S
C1034 H1038 0.950 . S
C1034 C1043 1.390 . S
C1035 C1034 1.387 . S
C1035 C1037 1.387 . S
H1036 C1043 0.950 . S
C1037 C1035 1.387 . S
C1037 C1039 1.390 . S
C1037 H1041 0.950 . S
H1038 C1034 0.950 . S
C1039 C1037 1.390 . S
C1039 C1040 1.387 . S
C1039 H1042 0.950 . S
C1040 C1039 1.387 . S
C1040 C1043 1.387 . S
H1041 C1037 0.950 . S
H1042 C1039 0.950 . S
C1043 C1034 1.390 . S
C1043 H1036 0.950 . S
C1043 C1040 1.387 . S
C1044 C1045 1.387 . S
C1044 H1048 0.950 . S
C1044 C1053 1.390 . S
C1045 C1044 1.387 . S
C1045 C1047 1.387 . S
H1046 C1053 0.950 . S
C1047 C1045 1.387 . S
C1047 C1049 1.390 . S
C1047 H1051 0.950 . S
H1048 C1044 0.950 . S
C1049 C1047 1.390 . S
C1049 C1050 1.387 . S
C1049 H1052 0.950 . S
C1050 C1049 1.387 . S
C1050 C1053 1.387 . S
H1051 C1047 0.950 . S
H1052 C1049 0.950 . S
C1053 C1044 1.390 . S
C1053 H1046 0.950 . S
C1053 C1050 1.387 . S
C1054 C1055 1.387 . S
C1054 H1058 0.950 . S
C1054 C1063 1.390 . S
C1055 C1054 1.387 . S
C1055 C1057 1.387 . S
H1056 C1063 0.950 . S
C1057 C1055 1.387 . S
C1057 C1059 1.390 . S
C1057 H1061 0.950 . S
H1058 C1054 0.950 . S
C1059 C1057 1.390 . S
C1059 C1060 1.387 . S
C1059 H1062 0.950 . S
C1060 C1059 1.387 . S
C1060 C1063 1.387 . S
H1061 C1057 0.950 . S
H1062 C1059 0.950 . S
C1063 C1054 1.390 . S
C1063 H1056 0.950 . S
C1063 C1060 1.387 . S
C1064 C1065 1.387 . S
C1064 H1068 0.950 . S
C1064 C1073 1.390 . S
C1065 C1064 1.387 . S
C1065 C1067 1.387 . S
H1066 C1073 0.950 . S
C1067 C1065 1.387 . S
C1067 C1069 1.390 . S
C1067 H1071 0.950 . S
H1068 C1064 0.950 . S
C1069 C1067 1.390 . S
C1069 C1070 1.387 . S
C1069 H1072 0.950 . S
C1070 C1069 1.387 . S
C1070 C1073 1.387 . S
H1071 C1067 0.950 . S
H1072 C1069 0.950 . S
C1073 C1064 1.390 . S
C1073 H1066 0.950 . S
C1073 C1070 1.387 . S
C1074 C1075 1.387 . S
C1074 H1078 0.950 . S
C1074 C1083 1.390 . S
C1075 C1074 1.387 . S
C1075 C1077 1.387 . S
H1076 C1083 0.950 . S
C1077 C1075 1.387 . S
C1077 C1079 1.390 . S
C1077 H1081 0.950 . S
H1078 C1074 0.950 . S
C1079 C1077 1.390 . S
C1079 C1080 1.387 . S
C1079 H1082 0.950 . S
C1080 C1079 1.387 . S
C1080 C1083 1.387 . S
H1081 C1077 0.950 . S
H1082 C1079 0.950 . S
C1083 C1074 1.390 . S
C1083 H1076 0.950 . S
C1083 C1080 1.387 . S
C1084 C1085 1.387 . S
C1084 H1088 0.950 . S
C1084 C1093 1.390 . S
C1085 C1084 1.387 . S
C1085 C1087 1.387 . S
H1086 C1093 0.950 . S
C1087 C1085 1.387 . S
C1087 C1089 1.390 . S
C1087 H1091 0.950 . S
H1088 C1084 0.950 . S
C1089 C1087 1.390 . S
C1089 C1090 1.387 . S
C1089 H1092 0.950 . S
C1090 C1089 1.387 . S
C1090 C1093 1.387 . S
H1091 C1087 0.950 . S
H1092 C1089 0.950 . S
C1093 C1084 1.390 . S
C1093 H1086 0.950 . S
C1093 C1090 1.387 . S
C1094 C1095 1.387 . S
C1094 H1098 0.950 . S
C1094 C1103 1.390 . S
C1095 C1094 1.387 . S
C1095 C1097 1.387 . S
H1096 C1103 0.950 . S
C1097 C1095 1.387 . S
C1097 C1099 1.390 . S
C1097 H1101 0.950 . S
H1098 C1094 0.950 . S
C1099 C1097 1.390 . S
C1099 C1100 1.387 . S
C1099 H1102 0.950 . S
C1100 C1099 1.387 . S
C1100 C1103 1.387 . S
H1101 C1097 0.950 . S
H1102 C1099 0.950 . S
C1103 C1094 1.390 . S
C1103 H1096 0.950 . S
C1103 C1100 1.387 . S
C545 C513 1.601 1_554 S
C550 C17 1.679 . S
C555 C477 1.601 . S
C560 C51 1.679 . S
C565 C443 1.599 1_556 S
C570 C85 1.682 . S
C575 C409 1.600 . S
C580 C119 1.682 . S
C585 C153 1.682 . S
C590 C375 1.600 1_556 S
C595 C341 1.598 . S
C600 C187 1.680 . S
C605 C221 1.680 . S
C610 C307 1.599 1_554 S
C615 C273 1.602 . S
C620 C255 1.680 . S
C625 C289 1.680 . S
C630 C241 1.599 1_554 S
C635 C323 1.680 . S
C640 C205 1.599 . S
C645 C357 1.680 . S
C650 C173 1.602 1_556 S
C655 C391 1.681 . S
C660 C137 1.600 . S
C665 C103 1.598 1_556 S
C670 C425 1.680 . S
C675 C69 1.600 . S
C680 C459 1.682 . S
C685 C35 1.602 1_554 S
C690 C493 1.679 . S
C695 C1 1.600 . S
C700 C527 1.682 . S
C705 C22 1.663 . S
C710 C226 1.666 . S
C715 C253 1.663 . S
C720 C56 1.666 . S
C725 C158 1.666 . S
C730 C90 1.663 . S
C735 C124 1.664 . S
C740 C185 1.666 . S
C745 C498 1.664 . S
C750 C294 1.665 . S
C755 C328 1.666 . S
C760 C525 1.663 . S
C765 C430 1.665 . S
C770 C362 1.663 . S
C775 C396 1.663 . S
C780 C464 1.666 . S
C785 C117 1.611 . S
C790 C15 1.611 . S
C795 C83 1.611 . S
C800 C49 1.611 . S
C805 C260 1.610 . S
C810 C151 1.610 . S
C815 C192 1.611 . S
C820 C219 1.611 . S
C825 C389 1.612 . S
C830 C287 1.612 . S
C835 C355 1.612 . S
C840 C321 1.612 . S
C845 C423 1.612 . S
C850 C532 1.612 . S
C855 C491 1.611 . S
C860 C457 1.611 . S
C865 C3 1.970 . S
C870 C71 1.970 . S
C875 C37 1.971 . S
C880 C105 1.971 . S
C885 C139 1.970 . S
C890 C207 1.970 . S
C895 C239 1.971 . S
C900 C171 1.971 . S
C905 C275 1.970 . S
C910 C343 1.970 . S
C915 C377 1.970 . S
C920 C309 1.970 . S
C925 C411 1.971 . S
C930 C479 1.971 . S
C935 C445 1.970 . S
C940 C511 1.970 . S
C945 C6 1.222 . S
C950 C470 1.256 1_545 S
C955 C436 1.256 1_565 S
C960 C40 1.222 . S
C965 C516 1.258 1_565 S
C970 C74 1.225 . S
C975 C108 1.222 . S
C980 C504 1.256 1_545 S
C985 C142 1.222 . S
C990 C334 1.256 1_565 S
C995 C198 1.223 . S
C1000 C300 1.256 1_545 S
C1005 C402 1.258 1_545 S
C1010 C210 1.225 . S
C1015 C266 1.222 . S
C1020 C368 1.257 1_565 S
C1025 C278 1.222 . S
C1030 C176 1.256 . S
C1035 C164 1.256 . S
C1040 C312 1.224 . S
C1045 C346 1.223 . S
C1050 C244 1.256 . S
C1055 C232 1.258 . S
C1060 C380 1.224 . S
C1065 C62 1.256 . S
C1070 C414 1.223 . S
C1075 C448 1.223 . S
C1080 C28 1.256 . S
C1085 C482 1.222 . S
C1090 C130 1.257 . S
C1095 C538 1.224 . S
C1100 C96 1.256 . S
