# Generated by pormake.
# Topology cag, (4)-cn, num edge types: 1
# Building blocks:
#     Node 0, Type 0, BuildingBlock: UXUYUI_clean_sbu_0, # of connection points: 4
#     Node 1, Type 0, BuildingBlock: UXUYUI_clean_sbu_0, # of connection points: 4
#     Node 2, Type 0, BuildingBlock: UXUYUI_clean_sbu_0, # of connection points: 4
#     Node 3, Type 0, BuildingBlock: UXUYUI_clean_sbu_0, # of connection points: 4
#     Node 4, Type 0, BuildingBlock: UXUYUI_clean_sbu_0, # of connection points: 4
#     Node 5, Type 0, BuildingBlock: UXUYUI_clean_sbu_0, # of connection points: 4
#     Node 6, Type 0, BuildingBlock: UXUYUI_clean_sbu_0, # of connection points: 4
#     Node 7, Type 0, BuildingBlock: UXUYUI_clean_sbu_0, # of connection points: 4
#     Node 8, Type 0, BuildingBlock: UXUYUI_clean_sbu_0, # of connection points: 4
#     Node 9, Type 0, BuildingBlock: UXUYUI_clean_sbu_0, # of connection points: 4
#     Node 10, Type 0, BuildingBlock: UXUYUI_clean_sbu_0, # of connection points: 4
#     Node 11, Type 0, BuildingBlock: UXUYUI_clean_sbu_0, # of connection points: 4
#     Node 12, Type 0, BuildingBlock: UXUYUI_clean_sbu_0, # of connection points: 4
#     Node 13, Type 0, BuildingBlock: UXUYUI_clean_sbu_0, # of connection points: 4
#     Node 14, Type 0, BuildingBlock: UXUYUI_clean_sbu_0, # of connection points: 4
#     Node 15, Type 0, BuildingBlock: UXUYUI_clean_sbu_0, # of connection points: 4
#     Edge 16, Type (0, 0), BuildingBlock: XIVTED_clean_linker_0, # of connection points: 2
#     Edge 17, Type (0, 0), BuildingBlock: XIVTED_clean_linker_0, # of connection points: 2
#     Edge 18, Type (0, 0), BuildingBlock: XIVTED_clean_linker_0, # of connection points: 2
#     Edge 19, Type (0, 0), BuildingBlock: XIVTED_clean_linker_0, # of connection points: 2
#     Edge 20, Type (0, 0), BuildingBlock: XIVTED_clean_linker_0, # of connection points: 2
#     Edge 21, Type (0, 0), BuildingBlock: XIVTED_clean_linker_0, # of connection points: 2
#     Edge 22, Type (0, 0), BuildingBlock: XIVTED_clean_linker_0, # of connection points: 2
#     Edge 23, Type (0, 0), BuildingBlock: XIVTED_clean_linker_0, # of connection points: 2
#     Edge 24, Type (0, 0), BuildingBlock: XIVTED_clean_linker_0, # of connection points: 2
#     Edge 25, Type (0, 0), BuildingBlock: XIVTED_clean_linker_0, # of connection points: 2
#     Edge 26, Type (0, 0), BuildingBlock: XIVTED_clean_linker_0, # of connection points: 2
#     Edge 27, Type (0, 0), BuildingBlock: XIVTED_clean_linker_0, # of connection points: 2
#     Edge 28, Type (0, 0), BuildingBlock: XIVTED_clean_linker_0, # of connection points: 2
#     Edge 29, Type (0, 0), BuildingBlock: XIVTED_clean_linker_0, # of connection points: 2
#     Edge 30, Type (0, 0), BuildingBlock: XIVTED_clean_linker_0, # of connection points: 2
#     Edge 31, Type (0, 0), BuildingBlock: XIVTED_clean_linker_0, # of connection points: 2
#     Edge 32, Type (0, 0), BuildingBlock: XIVTED_clean_linker_0, # of connection points: 2
#     Edge 33, Type (0, 0), BuildingBlock: XIVTED_clean_linker_0, # of connection points: 2
#     Edge 34, Type (0, 0), BuildingBlock: XIVTED_clean_linker_0, # of connection points: 2
#     Edge 35, Type (0, 0), BuildingBlock: XIVTED_clean_linker_0, # of connection points: 2
#     Edge 36, Type (0, 0), BuildingBlock: XIVTED_clean_linker_0, # of connection points: 2
#     Edge 37, Type (0, 0), BuildingBlock: XIVTED_clean_linker_0, # of connection points: 2
#     Edge 38, Type (0, 0), BuildingBlock: XIVTED_clean_linker_0, # of connection points: 2
#     Edge 39, Type (0, 0), BuildingBlock: XIVTED_clean_linker_0, # of connection points: 2
#     Edge 40, Type (0, 0), BuildingBlock: XIVTED_clean_linker_0, # of connection points: 2
#     Edge 41, Type (0, 0), BuildingBlock: XIVTED_clean_linker_0, # of connection points: 2
#     Edge 42, Type (0, 0), BuildingBlock: XIVTED_clean_linker_0, # of connection points: 2
#     Edge 43, Type (0, 0), BuildingBlock: XIVTED_clean_linker_0, # of connection points: 2
#     Edge 44, Type (0, 0), BuildingBlock: XIVTED_clean_linker_0, # of connection points: 2
#     Edge 45, Type (0, 0), BuildingBlock: XIVTED_clean_linker_0, # of connection points: 2
#     Edge 46, Type (0, 0), BuildingBlock: XIVTED_clean_linker_0, # of connection points: 2
#     Edge 47, Type (0, 0), BuildingBlock: XIVTED_clean_linker_0, # of connection points: 2
# Relax obj value: 0.065
# Max RMSD: 0.090
# Mean RMSD: 0.089
data_MOF--net-cag--node1-UXUYUI_clean_sbu_0--edge1-XIVTED_clean_linker_0
_symmetry_space_group_name_H-M    P1
_symmetry_Int_Tables_number       1
_symmetry_cell_setting            triclinic
loop_
_symmetry_equiv_pos_as_xyz
'x, y, z'
_cell_length_a     61.751354
_cell_length_b     73.206243
_cell_length_c     64.318316
_cell_angle_alpha  89.99392
_cell_angle_beta   89.997719
_cell_angle_gamma 90.009298
loop_
_atom_site_label
_atom_site_type_symbol
_atom_site_fract_x
_atom_site_fract_y
_atom_site_fract_z
_atom_type_partial_charge
Li0 Li 0.31103 0.14852 0.0775 0.0
Li1 Li 0.34376 0.13483 0.09317 0.0
Li2 Li 0.31421 0.1148 0.0795 0.0
Li3 Li 0.3102 0.13195 0.11201 0.0
C4 C 0.33486 0.13177 0.04324 0.0
N5 N 0.33884 0.13012 1.0005 0.0
C6 C 0.35441 0.13649 0.03371 0.0
C7 C 0.3174 0.12606 0.03105 0.0
C8 C 0.35608 0.13562 0.01207 0.0
C9 C 0.31971 0.12534 0.00947 0.0
C10 C 0.34079 0.1674 0.10998 0.0
C11 C 0.36904 0.17733 0.13325 0.0
N12 N 0.37278 0.192 0.12078 0.0
C13 C 0.34481 0.18262 0.09744 0.0
C14 C 0.35289 0.16476 0.12809 0.0
C15 C 0.36109 0.19489 0.10316 0.0
C16 C 0.2823 0.1775 0.07026 0.0
N17 N 0.29974 0.16867 0.06217 0.0
C18 C 0.30042 0.189 0.03308 0.0
C19 C 0.30899 0.17421 0.04404 0.0
C20 C 0.28241 0.19838 0.04105 0.0
C21 C 0.27337 0.19251 0.05995 0.0
H22 H 0.27535 0.17284 0.08477 0.0
H23 H 0.32313 0.1673 0.03813 0.0
C24 C 0.38554 0.12437 0.10627 0.0
N25 N 0.37446 0.13703 0.09506 0.0
C26 C 0.40811 0.12491 0.10714 0.0
C27 C 0.40751 0.15163 0.08507 0.0
C28 C 0.38492 0.15051 0.08455 0.0
C29 C 0.41941 0.13858 0.09632 0.0
H30 H 0.37687 0.11365 0.11426 0.0
H31 H 0.37574 0.16022 0.07546 0.0
C32 C 0.26958 0.12587 0.08079 0.0
N33 N 0.22908 0.11669 0.06576 0.0
C34 C 0.25513 0.116 0.0932 0.0
C35 C 0.26326 0.13135 0.06087 0.0
C36 C 0.23477 0.11141 0.08528 0.0
C37 C 0.24276 0.1265 0.05352 0.0
C38 C 0.33066 0.10108 0.12227 0.0
C39 C 0.32029 0.08415 0.12094 0.0
C40 C 0.34008 0.10651 0.14104 0.0
C41 C 0.31929 0.07299 0.13854 0.0
C42 C 0.3387 0.09497 0.1583 0.0
N43 N 0.32841 0.0786 0.1567 0.0
C44 C 0.32783 0.08556 0.0558 0.0
C45 C 0.29052 0.08334 0.06398 0.0
C46 C 0.32705 0.06911 0.04491 0.0
N47 N 0.30974 0.09237 0.06499 0.0
C48 C 0.289 0.06677 0.05326 0.0
C49 C 0.30747 0.0594 0.0436 0.0
H50 H 0.34294 0.09297 0.05697 0.0
H51 H 0.27643 0.08878 0.07168 0.0
C52 C 0.2996 0.14688 0.15122 0.0
N53 N 0.29741 0.13179 0.13908 0.0
C54 C 0.29119 0.14709 0.17139 0.0
C55 C 0.27831 0.11625 0.16616 0.0
C56 C 0.28675 0.11673 0.14603 0.0
C57 C 0.28055 0.13156 0.17915 0.0
H58 H 0.30802 0.15874 0.14529 0.0
H59 H 0.28501 0.10497 0.13603 0.0
O60 O 0.333 0.13257 0.06442 0.0
O61 O 0.32517 0.15509 0.10447 0.0
O62 O 0.28951 0.13059 0.08838 0.0
O63 O 0.33164 0.11225 0.10525 0.0
H64 H 0.36814 0.14082 0.04291 0.0
H65 H 0.30232 0.122 0.03817 0.0
H66 H 0.37109 0.1393 0.00448 0.0
H67 H 0.30632 0.12093 0.99985 0.0
H68 H 0.37863 0.1754 0.14716 0.0
H69 H 0.33559 0.18486 0.08337 0.0
H70 H 0.34995 0.15305 0.13796 0.0
H71 H 0.36446 0.20669 0.09356 0.0
H72 H 0.30806 0.19328 0.01873 0.0
H73 H 0.2594 0.19933 0.06655 0.0
H74 H 0.41662 0.11468 0.11615 0.0
H75 H 0.41557 0.16225 0.07627 0.0
H76 H 0.25962 0.11181 0.10871 0.0
H77 H 0.27395 0.1394 0.05123 0.0
H78 H 0.2235 0.10366 0.09466 0.0
H79 H 0.23771 0.1306 0.03811 0.0
H80 H 0.31296 0.07972 0.10652 0.0
H81 H 0.34816 0.11957 0.14232 0.0
H82 H 0.31123 0.05989 0.13777 0.0
H83 H 0.34577 0.09905 0.17297 0.0
H84 H 0.34163 0.06413 0.03748 0.0
H85 H 0.27365 0.05963 0.05291 0.0
H86 H 0.29337 0.15913 0.18094 0.0
H87 H 0.26997 0.10409 0.17146 0.0
Li88 Li 0.18474 0.88764 0.58019 0.0
Li89 Li 0.18976 0.87063 0.61343 0.0
Li90 Li 0.1889 0.8545 0.57931 0.0
Li91 Li 0.15704 0.86812 0.5932 0.0
C92 C 0.228 0.88299 0.59494 0.0
N93 N 0.26353 0.9035 0.60661 0.0
C94 C 0.22529 0.89863 0.60714 0.0
C95 C 0.24877 0.87776 0.58872 0.0
C96 C 0.24346 0.90881 0.61288 0.0
C97 C 0.26653 0.88833 0.59475 0.0
C98 C 0.15094 0.89612 0.61724 0.0
C99 C 0.12592 0.8931 0.64584 0.0
N100 N 0.11354 0.90664 0.63757 0.0
C101 C 0.13803 0.91007 0.60908 0.0
C102 C 0.14488 0.88759 0.6358 0.0
C103 C 0.11916 0.91516 0.61957 0.0
C104 C 0.17093 0.91752 0.55749 0.0
N105 N 0.18934 0.90978 0.565 0.0
C106 C 0.21081 0.93333 0.54949 0.0
C107 C 0.20912 0.91716 0.56094 0.0
C108 C 0.192 0.94175 0.5418 0.0
C109 C 0.17187 0.93357 0.54585 0.0
H110 H 0.15547 0.91106 0.56041 0.0
H111 H 0.22365 0.91047 0.56627 0.0
C112 C 0.2152 0.85658 0.64616 0.0
N113 N 0.20256 0.87087 0.64031 0.0
C114 C 0.22478 0.85634 0.66585 0.0
C115 C 0.20809 0.88552 0.67307 0.0
C116 C 0.19905 0.88527 0.65319 0.0
C117 C 0.22119 0.87092 0.67971 0.0
H118 H 0.21786 0.84538 0.63548 0.0
H119 H 0.18913 0.89657 0.64805 0.0
C120 C 0.17317 0.87081 0.54376 0.0
N121 N 0.18475 0.87325 0.50234 0.0
C122 C 0.15731 0.87016 0.52828 0.0
C123 C 0.19494 0.87273 0.53816 0.0
C124 C 0.16349 0.87141 0.50743 0.0
C125 C 0.20046 0.87393 0.51714 0.0
C126 C 0.16265 0.8325 0.60788 0.0
C127 C 0.15149 0.82523 0.5909 0.0
C128 C 0.16138 0.82389 0.62723 0.0
C129 C 0.13924 0.80935 0.59356 0.0
C130 C 0.14894 0.80805 0.62927 0.0
N131 N 0.13823 0.80117 0.61253 0.0
C132 C 0.21974 0.82697 0.57055 0.0
C133 C 0.1892 0.82688 0.54826 0.0
C134 C 0.22852 0.81194 0.5601 0.0
N135 N 0.20042 0.83409 0.56449 0.0
C136 C 0.19744 0.81198 0.53728 0.0
C137 C 0.21734 0.80422 0.54318 0.0
H138 H 0.22824 0.83292 0.58361 0.0
H139 H 0.17381 0.83268 0.54378 0.0
C140 C 0.11477 0.87333 0.57904 0.0
N141 N 0.12628 0.86567 0.59478 0.0
C142 C 0.09221 0.87238 0.57894 0.0
C143 C 0.09368 0.85578 0.6114 0.0
C144 C 0.11624 0.85704 0.61085 0.0
C145 C 0.08135 0.86347 0.59525 0.0
H146 H 0.12317 0.88035 0.56663 0.0
H147 H 0.12572 0.85125 0.62334 0.0
O148 O 0.21054 0.87261 0.58936 0.0
O149 O 0.1692 0.89061 0.60695 0.0
O150 O 0.1672 0.86973 0.56422 0.0
O151 O 0.17426 0.84828 0.60583 0.0
H152 H 0.20933 0.90295 0.612 0.0
H153 H 0.25112 0.86565 0.57932 0.0
H154 H 0.2416 0.92096 0.62229 0.0
H155 H 0.2827 0.88446 0.59003 0.0
H156 H 0.12097 0.88652 0.66013 0.0
H157 H 0.14248 0.91687 0.5948 0.0
H158 H 0.15449 0.87656 0.64216 0.0
H159 H 0.10897 0.92588 0.61339 0.0
H160 H 0.22668 0.93899 0.54634 0.0
H161 H 0.15695 0.93961 0.54026 0.0
H162 H 0.23504 0.84494 0.67005 0.0
H163 H 0.20454 0.89694 0.6832 0.0
H164 H 0.14038 0.86869 0.53234 0.0
H165 H 0.20749 0.87328 0.54983 0.0
H166 H 0.15137 0.87091 0.4953 0.0
H167 H 0.21723 0.87542 0.5126 0.0
H168 H 0.15193 0.83197 0.57595 0.0
H169 H 0.16981 0.82948 0.64056 0.0
H170 H 0.13043 0.8036 0.58058 0.0
H171 H 0.14776 0.80126 0.64416 0.0
H172 H 0.24374 0.8063 0.56545 0.0
H173 H 0.18836 0.80675 0.52417 0.0
H174 H 0.08336 0.87879 0.56637 0.0
H175 H 0.086 0.8487 0.62421 0.0
Li176 Li 0.31184 0.87198 0.89213 0.0
Li177 Li 0.31597 0.88663 0.92643 0.0
Li178 Li 0.34551 0.86645 0.91226 0.0
Li179 Li 0.31128 0.85402 0.92538 0.0
C180 C 0.34331 0.90097 0.88653 0.0
N181 N 0.36212 0.92335 0.85697 0.0
C182 C 0.33803 0.91953 0.88571 0.0
C183 C 0.35838 0.89387 0.87247 0.0
C184 C 0.34764 0.9306 0.8706 0.0
C185 C 0.36766 0.90538 0.85761 0.0
C186 C 0.27387 0.88448 0.91999 0.0
C187 C 0.24951 0.89817 0.94481 0.0
N188 N 0.24081 0.90852 0.92936 0.0
C189 C 0.26462 0.89517 0.90433 0.0
C190 C 0.2662 0.88589 0.94037 0.0
C191 C 0.24793 0.90726 0.90939 0.0
C192 C 0.28835 0.85864 0.85826 0.0
N193 N 0.29971 0.87345 0.86483 0.0
C194 C 0.29397 0.8884 0.83225 0.0
C195 C 0.30242 0.88828 0.85238 0.0
C196 C 0.28229 0.87322 0.82489 0.0
C197 C 0.27941 0.85824 0.83831 0.0
H198 H 0.28632 0.84707 0.86855 0.0
H199 H 0.31119 0.90003 0.85794 0.0
C200 C 0.3197 0.90899 0.96165 0.0
N201 N 0.31128 0.90843 0.94215 0.0
C202 C 0.31812 0.92484 0.97358 0.0
C203 C 0.29904 0.93933 0.94523 0.0
C204 C 0.30095 0.92313 0.93385 0.0
C205 C 0.30796 0.9404 0.96531 0.0
H206 H 0.32805 0.89723 0.96784 0.0
H207 H 0.29459 0.92243 0.91822 0.0
C208 C 0.33613 0.83713 0.88461 0.0
N209 N 0.35603 0.81463 0.85587 0.0
C210 C 0.3397 0.81871 0.88921 0.0
C211 C 0.34236 0.84401 0.86524 0.0
C212 C 0.34989 0.80758 0.87453 0.0
C213 C 0.35247 0.83245 0.85096 0.0
C214 C 0.3357 0.85806 0.95877 0.0
C215 C 0.35382 0.84695 0.96189 0.0
C216 C 0.31947 0.85876 0.9739 0.0
C217 C 0.35525 0.83652 0.98003 0.0
C218 C 0.32149 0.8481 0.9918 0.0
N219 N 0.33918 0.83728 0.99447 0.0
C220 C 0.38804 0.87922 0.9128 0.0
C221 C 0.38583 0.8471 0.90872 0.0
C222 C 0.4106 0.87854 0.91208 0.0
N223 N 0.37616 0.86369 0.91085 0.0
C224 C 0.4084 0.84576 0.90812 0.0
C225 C 0.42107 0.86165 0.90969 0.0
H226 H 0.37994 0.89218 0.91496 0.0
H227 H 0.37608 0.8349 0.90776 0.0
C228 C 0.27745 0.83339 0.94389 0.0
N229 N 0.29889 0.83345 0.93916 0.0
C230 C 0.26835 0.81865 0.9546 0.0
C231 C 0.30358 0.80427 0.95522 0.0
C232 C 0.31193 0.81922 0.94441 0.0
C233 C 0.28149 0.80383 0.9605 0.0
H234 H 0.2674 0.84481 0.93938 0.0
H235 H 0.32894 0.81963 0.94049 0.0
O236 O 0.33402 0.88997 0.90126 0.0
O237 O 0.29035 0.87268 0.91538 0.0
O238 O 0.3261 0.84818 0.89884 0.0
O239 O 0.33384 0.86814 0.94095 0.0
H240 H 0.32657 0.92533 0.89654 0.0
H241 H 0.36312 0.87969 0.87315 0.0
H242 H 0.3436 0.94496 0.86973 0.0
H243 H 0.37932 0.90004 0.84664 0.0
H244 H 0.24351 0.89949 0.96053 0.0
H245 H 0.27035 0.89423 0.88848 0.0
H246 H 0.27318 0.8777 0.95266 0.0
H247 H 0.24067 0.91568 0.89746 0.0
H248 H 0.29688 0.9002 0.82249 0.0
H249 H 0.2702 0.84637 0.83358 0.0
H250 H 0.32496 0.92492 0.98908 0.0
H251 H 0.29129 0.95103 0.93812 0.0
H252 H 0.33476 0.81307 0.904 0.0
H253 H 0.33924 0.85806 0.86115 0.0
H254 H 0.35287 0.79334 0.87795 0.0
H255 H 0.35741 0.83762 0.83594 0.0
H256 H 0.36655 0.84629 0.95038 0.0
H257 H 0.30535 0.86729 0.97171 0.0
H258 H 0.36912 0.82779 0.98261 0.0
H259 H 0.30897 0.84839 0.00356 0.0
H260 H 0.41975 0.89108 0.91375 0.0
H261 H 0.41585 0.83247 0.90626 0.0
H262 H 0.25119 0.8188 0.95801 0.0
H263 H 0.31442 0.79334 0.95969 0.0
Li264 Li 0.18978 0.14788 0.42498 0.0
Li265 Li 0.157 0.13462 0.41007 0.0
Li266 Li 0.1852 0.11434 0.42452 0.0
Li267 Li 0.19073 0.13029 0.39185 0.0
C268 C 0.17136 0.13201 0.46024 0.0
N269 N 0.17958 0.12972 0.50238 0.0
C270 C 0.15424 0.132 0.47443 0.0
C271 C 0.19267 0.13085 0.46746 0.0
C272 C 0.15872 0.13084 0.49568 0.0
C273 C 0.19649 0.1297 0.48882 0.0
C274 C 0.16232 0.16663 0.39041 0.0
C275 C 0.13874 0.17772 0.36333 0.0
N276 N 0.13387 0.19251 0.37524 0.0
C277 C 0.15728 0.18203 0.40229 0.0
C278 C 0.15318 0.16453 0.37069 0.0
C279 C 0.14278 0.19493 0.39438 0.0
C280 C 0.22109 0.17471 0.43414 0.0
N281 N 0.20128 0.16825 0.43966 0.0
C282 C 0.1981 0.19094 0.46621 0.0
C283 C 0.18964 0.17612 0.45521 0.0
C284 C 0.21862 0.19785 0.46098 0.0
C285 C 0.23012 0.18959 0.44463 0.0
H286 H 0.22987 0.16828 0.42156 0.0
H287 H 0.17374 0.17093 0.45902 0.0
C288 C 0.11447 0.1247 0.3982 0.0
N289 N 0.1264 0.13778 0.40786 0.0
C290 C 0.09196 0.12618 0.39722 0.0
C291 C 0.09433 0.15453 0.41631 0.0
C292 C 0.11681 0.15242 0.41705 0.0
C293 C 0.08154 0.14125 0.40635 0.0
H294 H 0.12233 0.11285 0.39168 0.0
H295 H 0.1266 0.16234 0.42521 0.0
C296 C 0.22929 0.11885 0.41197 0.0
N297 N 0.26606 0.09854 0.40394 0.0
C298 C 0.22754 0.10139 0.4034 0.0
C299 C 0.24973 0.12596 0.41659 0.0
C300 C 0.24631 0.09135 0.3994 0.0
C301 C 0.26814 0.11548 0.4124 0.0
C302 C 0.16561 0.10055 0.38172 0.0
C303 C 0.17196 0.08223 0.3825 0.0
C304 C 0.15623 0.10746 0.36358 0.0
C305 C 0.16913 0.07121 0.36498 0.0
C306 C 0.15367 0.09601 0.34639 0.0
N307 N 0.16015 0.07827 0.34743 0.0
C308 C 0.17125 0.08132 0.44067 0.0
C309 C 0.20772 0.08775 0.4495 0.0
C310 C 0.17211 0.06476 0.45133 0.0
N311 N 0.18894 0.09231 0.43977 0.0
C312 C 0.20933 0.07124 0.46033 0.0
C313 C 0.19139 0.05942 0.46124 0.0
H314 H 0.15644 0.08547 0.43301 0.0
H315 H 0.22146 0.09688 0.44885 0.0
C316 C 0.20757 0.14605 0.35557 0.0
N317 N 0.20401 0.12966 0.36488 0.0
C318 C 0.21645 0.14689 0.33561 0.0
C319 C 0.21811 0.11393 0.33522 0.0
C320 C 0.2094 0.11375 0.35525 0.0
C321 C 0.22166 0.13066 0.32502 0.0
H322 H 0.20344 0.15853 0.36363 0.0
H323 H 0.20671 0.10085 0.36292 0.0
O324 O 0.16714 0.13311 0.4394 0.0
O325 O 0.17635 0.15378 0.39796 0.0
O326 O 0.21112 0.12885 0.41627 0.0
O327 O 0.16834 0.11156 0.39872 0.0
H328 H 0.13765 0.13289 0.46907 0.0
H329 H 0.20615 0.13087 0.45673 0.0
H330 H 0.14563 0.13082 0.50686 0.0
H331 H 0.21289 0.12879 0.49463 0.0
H332 H 0.13147 0.17623 0.34813 0.0
H333 H 0.16432 0.18392 0.41753 0.0
H334 H 0.15725 0.15289 0.36112 0.0
H335 H 0.1386 0.20685 0.40347 0.0
H336 H 0.18854 0.19708 0.47847 0.0
H337 H 0.24604 0.19441 0.44019 0.0
H338 H 0.08281 0.11534 0.38987 0.0
H339 H 0.08708 0.16642 0.4235 0.0
H340 H 0.21185 0.0956 0.40006 0.0
H341 H 0.25137 0.13939 0.42344 0.0
H342 H 0.24517 0.07781 0.39275 0.0
H343 H 0.28406 0.12081 0.41591 0.0
H344 H 0.17911 0.07657 0.39644 0.0
H345 H 0.15099 0.12152 0.36279 0.0
H346 H 0.17409 0.05704 0.36533 0.0
H347 H 0.14653 0.10122 0.33222 0.0
H348 H 0.15772 0.05633 0.45198 0.0
H349 H 0.22455 0.06767 0.46763 0.0
H350 H 0.21929 0.16013 0.32864 0.0
H351 H 0.2216 0.10104 0.32768 0.0
Li352 Li 0.68756 0.88731 0.9245 0.0
Li353 Li 0.69312 0.85332 0.92704 0.0
Li354 Li 0.69239 0.87046 0.89274 0.0
Li355 Li 0.66 0.86631 0.91238 0.0
C356 C 0.72987 0.88207 0.92527 0.0
N357 N 0.76228 0.90185 0.94452 0.0
C358 C 0.7397 0.87537 0.9433 0.0
C359 C 0.73663 0.89876 0.91695 0.0
C360 C 0.75604 0.88559 0.95281 0.0
C361 C 0.75299 0.90858 0.92694 0.0
C362 C 0.65312 0.86942 0.95252 0.0
C363 C 0.62409 0.85408 0.97054 0.0
N364 N 0.61429 0.87047 0.97382 0.0
C365 C 0.6428 0.88611 0.95611 0.0
C366 C 0.64374 0.85326 0.95981 0.0
C367 C 0.62317 0.88635 0.9669 0.0
C368 C 0.68464 0.92552 0.93071 0.0
N369 N 0.69215 0.9097 0.93909 0.0
C370 C 0.70431 0.92556 0.96943 0.0
C371 C 0.70165 0.9094 0.95815 0.0
C372 C 0.69675 0.94217 0.96117 0.0
C373 C 0.68682 0.94197 0.94149 0.0
H374 H 0.67651 0.92532 0.91584 0.0
H375 H 0.707 0.89656 0.96468 0.0
C376 C 0.72092 0.8232 0.93318 0.0
N377 N 0.70595 0.83405 0.94253 0.0
C378 C 0.73016 0.80861 0.94404 0.0
C379 C 0.70849 0.81675 0.97394 0.0
C380 C 0.69985 0.83129 0.96259 0.0
C381 C 0.72378 0.80514 0.96464 0.0
H382 H 0.72548 0.82578 0.91721 0.0
H383 H 0.68826 0.84035 0.96977 0.0
C384 C 0.66886 0.89735 0.8801 0.0
N385 N 0.6674 0.91337 0.8412 0.0
C386 C 0.65271 0.8924 0.86593 0.0
C387 C 0.68423 0.91047 0.87448 0.0
C388 C 0.65224 0.90067 0.84636 0.0
C389 C 0.68324 0.91839 0.85474 0.0
C390 C 0.66507 0.8327 0.89525 0.0
C391 C 0.65074 0.83448 0.87854 0.0
C392 C 0.66557 0.81639 0.90656 0.0
C393 C 0.63711 0.81992 0.87345 0.0
C394 C 0.6517 0.80213 0.90096 0.0
N395 N 0.63787 0.80418 0.88467 0.0
C396 C 0.72578 0.87642 0.86273 0.0
C397 C 0.69269 0.86541 0.84901 0.0
C398 C 0.73494 0.87686 0.84284 0.0
N399 N 0.70497 0.87082 0.86543 0.0
C400 C 0.70112 0.8657 0.82889 0.0
C401 C 0.72256 0.87143 0.82555 0.0
H402 H 0.73533 0.88045 0.87603 0.0
H403 H 0.67623 0.86104 0.85146 0.0
C404 C 0.61753 0.87912 0.90774 0.0
N405 N 0.62894 0.8636 0.91152 0.0
C406 C 0.59496 0.87878 0.90713 0.0
C407 C 0.59607 0.84653 0.91495 0.0
C408 C 0.61865 0.84755 0.91557 0.0
C409 C 0.58387 0.86228 0.91054 0.0
H410 H 0.626 0.89189 0.90541 0.0
H411 H 0.62789 0.83553 0.91951 0.0
O412 O 0.71363 0.87238 0.91591 0.0
O413 O 0.67201 0.86887 0.94145 0.0
O414 O 0.66981 0.88921 0.89923 0.0
O415 O 0.67877 0.84669 0.90036 0.0
H416 H 0.73467 0.86249 0.94998 0.0
H417 H 0.72916 0.90417 0.90304 0.0
H418 H 0.76373 0.88061 0.96683 0.0
H419 H 0.75828 0.92158 0.92074 0.0
H420 H 0.61656 0.84167 0.97613 0.0
H421 H 0.64974 0.89873 0.95041 0.0
H422 H 0.65131 0.84019 0.95683 0.0
H423 H 0.61494 0.89916 0.96971 0.0
H424 H 0.7122 0.92502 0.98444 0.0
H425 H 0.68025 0.9543 0.93468 0.0
H426 H 0.74181 0.79991 0.93626 0.0
H427 H 0.70341 0.81471 0.98989 0.0
H428 H 0.64086 0.88209 0.86986 0.0
H429 H 0.69693 0.91438 0.88516 0.0
H430 H 0.6399 0.8969 0.83522 0.0
H431 H 0.6951 0.92849 0.85015 0.0
H432 H 0.64972 0.84711 0.86992 0.0
H433 H 0.6765 0.81473 0.91954 0.0
H434 H 0.62583 0.82117 0.86066 0.0
H435 H 0.65191 0.78945 0.90959 0.0
H436 H 0.75162 0.88113 0.84108 0.0
H437 H 0.69082 0.86168 0.81606 0.0
H438 H 0.5863 0.8914 0.90431 0.0
H439 H 0.5883 0.8335 0.91771 0.0
Li440 Li 0.81134 0.15047 0.42566 0.0
Li441 Li 0.81601 0.11621 0.42477 0.0
Li442 Li 0.84302 0.13617 0.41183 0.0
Li443 Li 0.81106 0.13276 0.3915 0.0
C444 C 0.85078 0.13749 0.45173 0.0
N445 N 0.88946 0.1429 0.47246 0.0
C446 C 0.86377 0.12259 0.45707 0.0
C447 C 0.85741 0.15515 0.45703 0.0
C448 C 0.88329 0.1256 0.4675 0.0
C449 C 0.87702 0.15759 0.46751 0.0
C450 C 0.77088 0.12974 0.42467 0.0
C451 C 0.73265 0.12322 0.42287 0.0
N452 N 0.73078 0.12717 0.44346 0.0
C453 C 0.76859 0.13373 0.4458 0.0
C454 C 0.75279 0.12447 0.41308 0.0
C455 C 0.74817 0.13235 0.45502 0.0
C456 C 0.78646 0.18273 0.4296 0.0
N457 N 0.79891 0.17054 0.44015 0.0
C458 C 0.79401 0.18713 0.4718 0.0
C459 C 0.8026 0.17234 0.46089 0.0
C460 C 0.78121 0.20002 0.46133 0.0
C461 C 0.77728 0.19763 0.43998 0.0
H462 H 0.78372 0.18088 0.41312 0.0
H463 H 0.81215 0.16222 0.46899 0.0
C464 C 0.82825 0.08187 0.43918 0.0
N465 N 0.81113 0.09355 0.43903 0.0
C466 C 0.82694 0.06522 0.44967 0.0
C467 C 0.79017 0.07259 0.4593 0.0
C468 C 0.79219 0.08912 0.44859 0.0
C469 C 0.80776 0.06044 0.46008 0.0
H470 H 0.84305 0.08559 0.43125 0.0
H471 H 0.77861 0.09831 0.448 0.0
C472 C 0.83941 0.16654 0.3878 0.0
N473 N 0.86798 0.1879 0.36545 0.0
C474 C 0.84999 0.15934 0.37044 0.0
C475 C 0.84317 0.18463 0.39371 0.0
C476 C 0.86444 0.17035 0.35937 0.0
C477 C 0.85772 0.1952 0.38222 0.0
C478 C 0.82603 0.09758 0.38899 0.0
C479 C 0.84107 0.08635 0.37896 0.0
C480 C 0.80417 0.09253 0.3893 0.0
C481 C 0.83401 0.07027 0.36943 0.0
C482 C 0.79777 0.07634 0.3796 0.0
N483 N 0.81269 0.06563 0.36995 0.0
C484 C 0.8854 0.12377 0.40447 0.0
C485 C 0.88393 0.15509 0.41361 0.0
C486 C 0.90794 0.12451 0.40307 0.0
N487 N 0.87388 0.13893 0.40963 0.0
C488 C 0.90646 0.15642 0.41254 0.0
C489 C 0.91876 0.14099 0.4072 0.0
H490 H 0.87708 0.11102 0.40173 0.0
H491 H 0.87451 0.16692 0.41794 0.0
C492 C 0.77961 0.14087 0.36083 0.0
N493 N 0.79881 0.13232 0.36431 0.0
C494 C 0.77053 0.14101 0.34091 0.0
C495 C 0.80114 0.1235 0.3286 0.0
C496 C 0.80972 0.12387 0.34866 0.0
C497 C 0.78131 0.13216 0.3245 0.0
H498 H 0.77141 0.14764 0.37354 0.0
H499 H 0.8252 0.11753 0.35171 0.0
O500 O 0.83177 0.13484 0.4412 0.0
O501 O 0.79062 0.13131 0.41521 0.0
O502 O 0.82538 0.15597 0.39895 0.0
O503 O 0.83285 0.11338 0.39836 0.0
H504 H 0.85893 0.10885 0.4531 0.0
H505 H 0.8478 0.16689 0.45268 0.0
H506 H 0.89356 0.11419 0.47162 0.0
H507 H 0.88243 0.17119 0.47156 0.0
H508 H 0.71851 0.11914 0.41411 0.0
H509 H 0.78249 0.13752 0.45506 0.0
H510 H 0.75431 0.12134 0.39669 0.0
H511 H 0.74617 0.13533 0.47138 0.0
H512 H 0.79712 0.18834 0.48832 0.0
H513 H 0.76755 0.20732 0.43136 0.0
H514 H 0.84099 0.05637 0.44997 0.0
H515 H 0.77494 0.06933 0.46678 0.0
H516 H 0.84729 0.14533 0.36575 0.0
H517 H 0.83504 0.19038 0.40712 0.0
H518 H 0.87288 0.16493 0.34599 0.0
H519 H 0.86089 0.2092 0.38665 0.0
H520 H 0.85802 0.09004 0.37848 0.0
H521 H 0.79223 0.10094 0.39691 0.0
H522 H 0.84549 0.06147 0.36161 0.0
H523 H 0.78092 0.07229 0.37974 0.0
H524 H 0.91682 0.11222 0.39921 0.0
H525 H 0.91416 0.16942 0.41575 0.0
H526 H 0.75516 0.14778 0.33842 0.0
H527 H 0.81014 0.11679 0.31632 0.0
Li528 Li 0.65815 0.13309 0.09116 0.0
Li529 Li 0.69284 0.1293 0.11182 0.0
Li530 Li 0.69199 0.14658 0.07713 0.0
Li531 Li 0.68679 0.11439 0.07924 0.0
C532 C 0.66956 0.16478 0.11771 0.0
N533 N 0.65472 0.19008 0.14623 0.0
C534 C 0.66407 0.15929 0.13785 0.0
C535 C 0.66756 0.18315 0.1121 0.0
C536 C 0.65659 0.17228 0.15204 0.0
C537 C 0.65999 0.19573 0.12673 0.0
C538 C 0.66757 0.09278 0.10578 0.0
C539 C 0.68031 0.06288 0.11575 0.0
N540 N 0.66349 0.05519 0.10527 0.0
C541 C 0.65036 0.08457 0.09521 0.0
C542 C 0.68266 0.08186 0.11619 0.0
C543 C 0.64861 0.06555 0.09509 0.0
C544 C 0.61588 0.12631 0.07794 0.0
N545 N 0.62727 0.13564 0.09259 0.0
C546 C 0.5944 0.1468 0.10767 0.0
C547 C 0.61701 0.14586 0.10725 0.0
C548 C 0.58224 0.13705 0.09293 0.0
C549 C 0.59329 0.12679 0.07783 0.0
H550 H 0.62439 0.11839 0.06634 0.0
H551 H 0.62622 0.15318 0.11875 0.0
C552 C 0.72189 0.1405 0.14334 0.0
N553 N 0.70509 0.12913 0.13896 0.0
C554 C 0.73066 0.14101 0.16338 0.0
C555 C 0.70479 0.11801 0.17389 0.0
C556 C 0.69638 0.11809 0.15375 0.0
C557 C 0.72213 0.1296 0.17893 0.0
H558 H 0.72836 0.14924 0.13128 0.0
H559 H 0.68266 0.10954 0.14998 0.0
C560 C 0.65798 0.14351 0.04999 0.0
N561 N 0.63452 0.16718 0.02518 0.0
C562 C 0.65348 0.13897 0.02932 0.0
C563 C 0.65054 0.16012 0.058 0.0
C564 C 0.6416 0.15112 0.01704 0.0
C565 C 0.6387 0.17188 0.04523 0.0
C566 C 0.72993 0.11966 0.07878 0.0
C567 C 0.73231 0.12009 0.05718 0.0
C568 C 0.74497 0.11022 0.09094 0.0
C569 C 0.74962 0.1108 0.04804 0.0
C570 C 0.76208 0.10112 0.0812 0.0
N571 N 0.76401 0.10158 0.06013 0.0
C572 C 0.713 0.1808 0.07332 0.0
C573 C 0.70424 0.16655 0.04131 0.0
C574 C 0.7217 0.19585 0.06285 0.0
N575 N 0.70433 0.16665 0.06245 0.0
C576 C 0.71253 0.18138 0.03023 0.0
C577 C 0.72133 0.19632 0.04101 0.0
H578 H 0.71304 0.18042 0.09013 0.0
H579 H 0.69772 0.15496 0.03301 0.0
C580 C 0.67984 0.0891 0.04715 0.0
N581 N 0.69205 0.09194 0.06443 0.0
C582 C 0.68191 0.07297 0.03578 0.0
C583 C 0.70894 0.06274 0.0603 0.0
C584 C 0.70646 0.07917 0.07112 0.0
C585 C 0.69655 0.05949 0.04236 0.0
H586 H 0.66818 0.09926 0.04239 0.0
H587 H 0.71579 0.08154 0.08505 0.0
O588 O 0.67732 0.15235 0.10369 0.0
O589 O 0.66977 0.11138 0.10575 0.0
O590 O 0.66974 0.13172 0.0621 0.0
O591 O 0.71302 0.12853 0.08801 0.0
H592 H 0.66519 0.14511 0.14237 0.0
H593 H 0.67178 0.18766 0.09659 0.0
H594 H 0.6522 0.16821 0.16765 0.0
H595 H 0.65833 0.20998 0.12258 0.0
H596 H 0.69195 0.05427 0.12361 0.0
H597 H 0.63858 0.09279 0.08703 0.0
H598 H 0.69631 0.08793 0.12413 0.0
H599 H 0.63543 0.05902 0.08686 0.0
H600 H 0.58654 0.15474 0.11971 0.0
H601 H 0.58459 0.11928 0.06598 0.0
H602 H 0.7441 0.15009 0.16663 0.0
H603 H 0.69751 0.10923 0.18551 0.0
H604 H 0.6592 0.12626 0.02276 0.0
H605 H 0.65376 0.16392 0.07389 0.0
H606 H 0.63804 0.14777 1.00101 0.0
H607 H 0.63285 0.18475 0.05128 0.0
H608 H 0.72075 0.12734 0.04759 0.0
H609 H 0.74334 0.10983 0.10769 0.0
H610 H 0.75159 0.1109 0.03133 0.0
H611 H 0.7738 0.09367 0.09038 0.0
H612 H 0.72828 0.20712 0.07173 0.0
H613 H 0.71228 0.18107 0.01339 0.0
H614 H 0.67176 0.07089 0.02224 0.0
H615 H 0.72046 0.05272 0.06587 0.0
Li616 Li 0.80913 0.87193 0.61183 0.0
Li617 Li 0.84301 0.86813 0.59238 0.0
Li618 Li 0.81468 0.88918 0.57985 0.0
Li619 Li 0.80929 0.85622 0.57758 0.0
C620 C 0.82706 0.90657 0.6162 0.0
N621 N 0.81741 0.9388 0.63653 0.0
C622 C 0.84365 0.91723 0.62461 0.0
C623 C 0.80555 0.91229 0.61813 0.0
C624 C 0.83844 0.93349 0.63484 0.0
C625 C 0.80101 0.92863 0.62845 0.0
C626 C 0.83331 0.8334 0.6105 0.0
C627 C 0.84935 0.80398 0.6036 0.0
N628 N 0.85297 0.80174 0.6243 0.0
C629 C 0.83691 0.8307 0.63173 0.0
C630 C 0.83933 0.81985 0.59632 0.0
C631 C 0.84699 0.81464 0.63839 0.0
C632 C 0.77624 0.86791 0.64222 0.0
N633 N 0.79744 0.87204 0.63914 0.0
C634 C 0.80282 0.87635 0.67561 0.0
C635 C 0.81076 0.87621 0.65528 0.0
C636 C 0.78096 0.87209 0.67937 0.0
C637 C 0.76761 0.86784 0.66231 0.0
H638 H 0.76606 0.86463 0.62906 0.0
H639 H 0.82761 0.87933 0.65234 0.0
C640 C 0.88557 0.8735 0.57918 0.0
N641 N 0.87365 0.86529 0.59428 0.0
C642 C 0.90812 0.87238 0.57943 0.0
C643 C 0.90585 0.85484 0.61117 0.0
C644 C 0.88329 0.85626 0.61027 0.0
C645 C 0.91857 0.86291 0.59555 0.0
H646 H 0.87755 0.88108 0.56697 0.0
H647 H 0.87356 0.85032 0.62244 0.0
C648 C 0.77193 0.87733 0.57401 0.0
N649 N 0.73897 0.88188 0.54542 0.0
C650 C 0.77668 0.87867 0.55282 0.0
C651 C 0.75043 0.87836 0.58067 0.0
C652 C 0.7598 0.88095 0.53861 0.0
C653 C 0.73399 0.88065 0.56598 0.0
C654 C 0.84087 0.86464 0.54619 0.0
C655 C 0.83737 0.87346 0.52721 0.0
C656 C 0.85385 0.84902 0.54689 0.0
C657 C 0.84671 0.86634 0.50916 0.0
C658 C 0.86293 0.84234 0.52851 0.0
N659 N 0.85918 0.85106 0.51018 0.0
C660 C 0.82884 0.9176 0.55497 0.0
C661 C 0.79253 0.92162 0.566 0.0
C662 C 0.82795 0.93364 0.54333 0.0
N663 N 0.81123 0.91182 0.56577 0.0
C664 C 0.79092 0.93782 0.55457 0.0
C665 C 0.80874 0.94392 0.54285 0.0
H666 H 0.84357 0.9096 0.55528 0.0
H667 H 0.77879 0.91678 0.57486 0.0
C668 C 0.78731 0.8228 0.57312 0.0
N669 N 0.79679 0.8365 0.56212 0.0
C670 C 0.77837 0.80775 0.56285 0.0
C671 C 0.78894 0.82126 0.53011 0.0
C672 C 0.79745 0.83611 0.54098 0.0
C673 C 0.77933 0.80679 0.54106 0.0
H674 H 0.78688 0.8235 0.58991 0.0
H675 H 0.8045 0.84731 0.53247 0.0
O676 O 0.83197 0.89061 0.6062 0.0
O677 O 0.82334 0.84899 0.60376 0.0
O678 O 0.78817 0.87515 0.58827 0.0
O679 O 0.83179 0.87145 0.56398 0.0
H680 H 0.86038 0.91297 0.62325 0.0
H681 H 0.79247 0.90421 0.61177 0.0
H682 H 0.85112 0.94188 0.64143 0.0
H683 H 0.78444 0.93321 0.63006 0.0
H684 H 0.85416 0.79341 0.59279 0.0
H685 H 0.83213 0.84097 0.64293 0.0
H686 H 0.83612 0.82146 0.57991 0.0
H687 H 0.85003 0.81244 0.65476 0.0
H688 H 0.81377 0.87945 0.68828 0.0
H689 H 0.75062 0.86468 0.66444 0.0
H690 H 0.91727 0.87918 0.56732 0.0
H691 H 0.91322 0.8474 0.62389 0.0
H692 H 0.7932 0.87807 0.54739 0.0
H693 H 0.74649 0.87742 0.59703 0.0
H694 H 0.76325 0.88201 0.52216 0.0
H695 H 0.71727 0.88147 0.57091 0.0
H696 H 0.82741 0.8856 0.52639 0.0
H697 H 0.8571 0.84226 0.56148 0.0
H698 H 0.84405 0.87297 0.49435 0.0
H699 H 0.87301 0.83026 0.52883 0.0
H700 H 0.84222 0.938 0.53488 0.0
H701 H 0.77577 0.94526 0.55456 0.0
H702 H 0.77117 0.79684 0.57187 0.0
H703 H 0.78965 0.82119 0.51328 0.0
Li704 Li 0.81196 0.64731 0.07948 0.0
Li705 Li 0.84386 0.63394 0.09364 0.0
Li706 Li 0.81656 0.61414 0.08063 0.0
Li707 Li 0.81138 0.63123 0.11395 0.0
C708 C 0.8277 0.63103 0.04413 0.0
N709 N 0.81566 0.62861 0.00283 0.0
C710 C 0.84333 0.63213 0.02846 0.0
C711 C 0.80592 0.6287 0.03876 0.0
C712 C 0.83692 0.63088 0.00768 0.0
C713 C 0.80017 0.6275 0.01781 0.0
C714 C 0.83931 0.66849 0.10968 0.0
C715 C 0.8557 0.68975 0.13356 0.0
N716 N 0.86622 0.69782 0.11741 0.0
C717 C 0.85021 0.677 0.0933 0.0
C718 C 0.842 0.67489 0.12997 0.0
C719 C 0.86378 0.69181 0.09753 0.0
C720 C 0.78069 0.67439 0.07057 0.0
N721 N 0.80018 0.66754 0.06463 0.0
C722 C 0.80309 0.68988 0.03765 0.0
C723 C 0.81147 0.67501 0.04859 0.0
C724 C 0.78299 0.69736 0.04342 0.0
C725 C 0.77177 0.68938 0.06018 0.0
H726 H 0.77217 0.66827 0.08351 0.0
H727 H 0.82703 0.66943 0.04426 0.0
C728 C 0.88615 0.63006 0.0789 0.0
N729 N 0.87471 0.63647 0.09539 0.0
C730 C 0.90874 0.63056 0.07903 0.0
C731 C 0.90747 0.64418 0.11322 0.0
C732 C 0.88487 0.64352 0.11236 0.0
C733 C 0.91975 0.63756 0.09642 0.0
H734 H 0.8777 0.62434 0.06571 0.0
H735 H 0.87549 0.64824 0.12547 0.0
C736 C 0.77324 0.61851 0.09552 0.0
N737 N 0.73795 0.59783 0.10746 0.0
C738 C 0.77616 0.60289 0.10771 0.0
C739 C 0.75239 0.62364 0.08944 0.0
C740 C 0.7581 0.59261 0.11359 0.0
C741 C 0.73475 0.61298 0.09561 0.0
C742 C 0.85016 0.60579 0.1179 0.0
C743 C 0.86347 0.59224 0.10948 0.0
C744 C 0.8556 0.61373 0.13697 0.0
C745 C 0.8821 0.58693 0.12023 0.0
C746 C 0.87433 0.60801 0.14727 0.0
N747 N 0.8871 0.59486 0.13874 0.0
C748 C 0.83068 0.58429 0.05797 0.0
C749 C 0.79255 0.58415 0.06181 0.0
C750 C 0.82994 0.56803 0.04667 0.0
N751 N 0.81222 0.59185 0.06558 0.0
C752 C 0.79106 0.56778 0.0507 0.0
C753 C 0.80995 0.5594 0.04307 0.0
H754 H 0.84602 0.59105 0.06051 0.0
H755 H 0.77795 0.59066 0.06724 0.0
C756 C 0.7862 0.64551 0.14679 0.0
N757 N 0.79847 0.63103 0.14084 0.0
C758 C 0.77659 0.64581 0.16647 0.0
C759 C 0.79251 0.61629 0.17349 0.0
C760 C 0.80156 0.61647 0.15361 0.0
C761 C 0.7798 0.6311 0.18024 0.0
H762 H 0.78385 0.65682 0.13619 0.0
H763 H 0.81117 0.60502 0.1484 0.0
O764 O 0.83389 0.63219 0.06454 0.0
O765 O 0.82618 0.65384 0.10594 0.0
O766 O 0.7906 0.62896 0.0898 0.0
O767 O 0.83205 0.61142 0.10745 0.0
H768 H 0.86025 0.63397 0.03231 0.0
H769 H 0.79353 0.62783 0.05057 0.0
H770 H 0.84886 0.63172 0.9954 0.0
H771 H 0.78339 0.6257 0.01345 0.0
H772 H 0.85801 0.69484 0.1492 0.0
H773 H 0.84848 0.67204 0.07755 0.0
H774 H 0.83368 0.66838 0.14281 0.0
H775 H 0.87242 0.69848 0.08503 0.0
H776 H 0.81222 0.69531 0.02468 0.0
H777 H 0.75642 0.69481 0.06545 0.0
H778 H 0.91744 0.62555 0.06557 0.0
H779 H 0.91519 0.64941 0.1271 0.0
H780 H 0.79218 0.59863 0.11244 0.0
H781 H 0.74989 0.63573 0.08005 0.0
H782 H 0.76012 0.58048 0.12298 0.0
H783 H 0.71852 0.61678 0.091 0.0
H784 H 0.8595 0.5859 0.0948 0.0
H785 H 0.84573 0.62448 0.14354 0.0
H786 H 0.89258 0.57651 0.11385 0.0
H787 H 0.8788 0.61414 0.16196 0.0
H788 H 0.84489 0.56244 0.0406 0.0
H789 H 0.77528 0.56168 0.04835 0.0
H790 H 0.76661 0.65737 0.17073 0.0
H791 H 0.79578 0.60475 0.18353 0.0
Li792 Li 0.68489 0.38884 0.57945 0.0
Li793 Li 0.68949 0.37185 0.61211 0.0
Li794 Li 0.68864 0.35511 0.5776 0.0
Li795 Li 0.6558 0.36832 0.59339 0.0
C796 C 0.7298 0.37891 0.58147 0.0
N797 N 0.77033 0.38979 0.56806 0.0
C798 C 0.74329 0.38899 0.59461 0.0
C799 C 0.73709 0.37407 0.56165 0.0
C800 C 0.76367 0.39445 0.58751 0.0
C801 C 0.75758 0.37977 0.55512 0.0
C802 C 0.6675 0.40244 0.62225 0.0
C803 C 0.65816 0.40843 0.65801 0.0
N804 N 0.66757 0.42518 0.65652 0.0
C805 C 0.67694 0.41976 0.62101 0.0
C806 C 0.65789 0.39676 0.64083 0.0
C807 C 0.67685 0.43104 0.63853 0.0
C808 C 0.67274 0.41674 0.55247 0.0
N809 N 0.68941 0.4112 0.56474 0.0
C810 C 0.71007 0.43758 0.55528 0.0
C811 C 0.70778 0.42134 0.56652 0.0
C812 C 0.69327 0.44341 0.54211 0.0
C813 C 0.67439 0.43278 0.54087 0.0
H814 H 0.6581 0.40867 0.5517 0.0
H815 H 0.72059 0.41697 0.57675 0.0
C816 C 0.7026 0.35624 0.65012 0.0
N817 N 0.70257 0.37205 0.63907 0.0
C818 C 0.71155 0.35568 0.67006 0.0
C819 C 0.72032 0.38771 0.6669 0.0
C820 C 0.71149 0.38757 0.64691 0.0
C821 C 0.72044 0.37161 0.67885 0.0
H822 H 0.69572 0.344 0.64343 0.0
H823 H 0.7116 0.39992 0.63773 0.0
C824 C 0.66487 0.37019 0.54332 0.0
N825 N 0.66179 0.36897 0.50049 0.0
C826 C 0.64574 0.36428 0.53385 0.0
C827 C 0.68235 0.37565 0.531 0.0
C828 C 0.64453 0.3637 0.51217 0.0
C829 C 0.6805 0.3749 0.50938 0.0
C830 C 0.66011 0.33587 0.61116 0.0
C831 C 0.65627 0.32021 0.59929 0.0
C832 C 0.64873 0.33855 0.62969 0.0
C833 C 0.64082 0.30759 0.60603 0.0
C834 C 0.63339 0.32562 0.63589 0.0
N835 N 0.62978 0.31055 0.62402 0.0
C836 C 0.71948 0.32806 0.56801 0.0
C837 C 0.68883 0.32795 0.54588 0.0
C838 C 0.72845 0.3133 0.55724 0.0
N839 N 0.70009 0.33512 0.56211 0.0
C840 C 0.69729 0.31336 0.53453 0.0
C841 C 0.71738 0.30575 0.54014 0.0
H842 H 0.72795 0.33386 0.58117 0.0
H843 H 0.6732 0.33345 0.54178 0.0
C844 C 0.61348 0.37818 0.60584 0.0
N845 N 0.62521 0.36541 0.59545 0.0
C846 C 0.59094 0.37682 0.60683 0.0
C847 C 0.59298 0.3491 0.58653 0.0
C848 C 0.61546 0.35109 0.58578 0.0
C849 C 0.58034 0.36216 0.59703 0.0
H850 H 0.62157 0.38964 0.61302 0.0
H851 H 0.62513 0.34131 0.5773 0.0
O852 O 0.70987 0.37333 0.58826 0.0
O853 O 0.66754 0.39117 0.6053 0.0
O854 O 0.6663 0.37078 0.56453 0.0
O855 O 0.67495 0.3485 0.60467 0.0
H856 H 0.73803 0.3927 0.61007 0.0
H857 H 0.72717 0.36584 0.55146 0.0
H858 H 0.77421 0.40239 0.59746 0.0
H859 H 0.76339 0.37617 0.53979 0.0
H860 H 0.65091 0.40417 0.67253 0.0
H861 H 0.68436 0.4244 0.60673 0.0
H862 H 0.65043 0.38343 0.64201 0.0
H863 H 0.68419 0.44444 0.63784 0.0
H864 H 0.72491 0.44536 0.5567 0.0
H865 H 0.66086 0.43695 0.53126 0.0
H866 H 0.71167 0.34282 0.67837 0.0
H867 H 0.72669 0.40041 0.67297 0.0
H868 H 0.632 0.36011 0.54316 0.0
H869 H 0.69708 0.38063 0.53805 0.0
H870 H 0.62986 0.35907 0.50464 0.0
H871 H 0.69391 0.3791 0.49967 0.0
H872 H 0.66499 0.31791 0.58494 0.0
H873 H 0.65164 0.35054 0.63911 0.0
H874 H 0.63757 0.29546 0.59695 0.0
H875 H 0.62437 0.32757 0.65013 0.0
H876 H 0.74374 0.30773 0.56249 0.0
H877 H 0.6882 0.30823 0.52138 0.0
H878 H 0.58194 0.38744 0.61473 0.0
H879 H 0.58562 0.33746 0.57892 0.0
Li880 Li 0.80951 0.37121 0.89168 0.0
Li881 Li 0.81354 0.38718 0.9241 0.0
Li882 Li 0.84281 0.36844 0.91102 0.0
Li883 Li 0.80941 0.35396 0.92609 0.0
C884 C 0.82958 0.40177 0.88153 0.0
N885 N 0.8269 0.42388 0.84679 0.0
C886 C 0.81809 0.41821 0.88238 0.0
C887 C 0.83972 0.39659 0.86301 0.0
C888 C 0.81695 0.4292 0.86466 0.0
C889 C 0.83814 0.40794 0.84561 0.0
C890 C 0.76976 0.37971 0.92248 0.0
C891 C 0.73985 0.37964 0.94659 0.0
N892 N 0.73183 0.39489 0.93729 0.0
C893 C 0.76121 0.39535 0.91312 0.0
C894 C 0.759 0.37174 0.93933 0.0
C895 C 0.74202 0.40284 0.92086 0.0
C896 C 0.79926 0.35578 0.85263 0.0
N897 N 0.79694 0.37107 0.86442 0.0
C898 C 0.77767 0.38596 0.83696 0.0
C899 C 0.78605 0.3859 0.85712 0.0
C900 C 0.78003 0.37043 0.82438 0.0
C901 C 0.79079 0.35512 0.83249 0.0
H902 H 0.80773 0.34407 0.85884 0.0
H903 H 0.78401 0.39777 0.86684 0.0
C904 C 0.82586 0.42175 0.93732 0.0
N905 N 0.80925 0.40966 0.9392 0.0
C906 C 0.82583 0.43802 0.94859 0.0
C907 C 0.79146 0.42933 0.96354 0.0
C908 C 0.79231 0.41307 0.95218 0.0
C909 C 0.80847 0.44197 0.96193 0.0
H910 H 0.83941 0.41855 0.92731 0.0
H911 H 0.77978 0.40301 0.95433 0.0
C912 C 0.84051 0.33605 0.89389 0.0
N913 N 0.87344 0.31216 0.88363 0.0
C914 C 0.84498 0.32107 0.90666 0.0
C915 C 0.85266 0.33881 0.87582 0.0
C916 C 0.86172 0.30916 0.90121 0.0
C917 C 0.86928 0.32661 0.87094 0.0
C918 C 0.83524 0.3782 0.95783 0.0
C919 C 0.85451 0.38794 0.96049 0.0
C920 C 0.81946 0.37852 0.97341 0.0
C921 C 0.85761 0.39798 0.97872 0.0
C922 C 0.82318 0.38874 0.9914 0.0
N923 N 0.84201 0.39819 0.99365 0.0
C924 C 0.88488 0.37797 0.8975 0.0
C925 C 0.8837 0.35341 0.92146 0.0
C926 C 0.90745 0.37717 0.89688 0.0
N927 N 0.87352 0.36617 0.90962 0.0
C928 C 0.90628 0.35207 0.92127 0.0
C929 C 0.91847 0.36417 0.90897 0.0
H930 H 0.87645 0.38821 0.88854 0.0
H931 H 0.87427 0.34444 0.9313 0.0
C932 C 0.78324 0.32277 0.93175 0.0
N933 N 0.79831 0.33361 0.94094 0.0
C934 C 0.7749 0.30764 0.94233 0.0
C935 C 0.79774 0.31519 0.9716 0.0
C936 C 0.80576 0.33006 0.9604 0.0
C937 C 0.78209 0.30368 0.9626 0.0
H938 H 0.77777 0.32586 0.91616 0.0
H939 H 0.81795 0.33879 0.96723 0.0
O940 O 0.83089 0.39079 0.89872 0.0
O941 O 0.78833 0.37199 0.91499 0.0
O942 O 0.82451 0.34808 0.89918 0.0
O943 O 0.83164 0.36874 0.93984 0.0
H944 H 0.80986 0.42234 0.89645 0.0
H945 H 0.84851 0.38385 0.862 0.0
H946 H 0.80805 0.44193 0.86508 0.0
H947 H 0.84582 0.40405 0.83116 0.0
H948 H 0.73137 0.37365 0.95964 0.0
H949 H 0.76942 0.40176 0.9002 0.0
H950 H 0.76541 0.35964 0.94676 0.0
H951 H 0.73526 0.41499 0.91383 0.0
H952 H 0.76921 0.39795 0.83135 0.0
H953 H 0.79296 0.34289 0.82324 0.0
H954 H 0.83925 0.44743 0.94687 0.0
H955 H 0.778 0.43172 0.97399 0.0
H956 H 0.83575 0.31877 0.92072 0.0
H957 H 0.8494 0.35035 0.86579 0.0
H958 H 0.86544 0.29756 0.911 0.0
H959 H 0.8789 0.32863 0.85707 0.0
H960 H 0.86682 0.38789 0.94851 0.0
H961 H 0.80434 0.37125 0.97144 0.0
H962 H 0.87238 0.40567 0.98096 0.0
H963 H 0.81104 0.38925 0.00351 0.0
H964 H 0.91616 0.38666 0.88704 0.0
H965 H 0.9141 0.34203 0.93108 0.0
H966 H 0.76317 0.29903 0.93456 0.0
H967 H 0.80361 0.3129 0.98725 0.0
Li968 Li 0.69102 0.64841 0.42759 0.0
Li969 Li 0.65619 0.63501 0.41362 0.0
Li970 Li 0.68492 0.61605 0.42531 0.0
Li971 Li 0.68989 0.63157 0.39305 0.0
C972 C 0.66671 0.62482 0.4603 0.0
N973 N 0.66439 0.60453 0.49646 0.0
C974 C 0.64858 0.61396 0.4643 0.0
C975 C 0.68362 0.62545 0.47474 0.0
C976 C 0.64773 0.60376 0.48265 0.0
C977 C 0.68214 0.61509 0.49293 0.0
C978 C 0.66781 0.67152 0.39677 0.0
C979 C 0.65889 0.69491 0.3718 0.0
N980 N 0.65345 0.70634 0.38763 0.0
C981 C 0.66217 0.6835 0.4128 0.0
C982 C 0.66622 0.67726 0.3761 0.0
C983 C 0.65493 0.70105 0.40786 0.0
C984 C 0.71944 0.67841 0.43292 0.0
N985 N 0.70342 0.66851 0.44203 0.0
C986 C 0.70397 0.6879 0.4719 0.0
C987 C 0.69554 0.673 0.46108 0.0
C988 C 0.72051 0.69852 0.46293 0.0
C989 C 0.72823 0.69356 0.44312 0.0
H990 H 0.72519 0.67463 0.41763 0.0
H991 H 0.68254 0.66507 0.46782 0.0
C992 C 0.614 0.62156 0.41411 0.0
N993 N 0.62536 0.63736 0.412 0.0
C994 C 0.59141 0.62166 0.41329 0.0
C995 C 0.59253 0.65432 0.40802 0.0
C996 C 0.61512 0.65357 0.4089 0.0
C997 C 0.58035 0.63822 0.41028 0.0
H998 H 0.62253 0.60883 0.41653 0.0
H999 H 0.62433 0.66595 0.40709 0.0
C1000 C 0.72842 0.61838 0.41574 0.0
N1001 N 0.76338 0.59489 0.41518 0.0
C1002 C 0.72796 0.60277 0.40326 0.0
C1003 C 0.74664 0.6221 0.4279 0.0
C1004 C 0.74581 0.59104 0.40321 0.0
C1005 C 0.76416 0.61004 0.42741 0.0
C1006 C 0.65561 0.60926 0.38228 0.0
C1007 C 0.65034 0.59131 0.3769 0.0
C1008 C 0.64847 0.62367 0.36976 0.0
C1009 C 0.63806 0.58805 0.35904 0.0
C1010 C 0.63622 0.61986 0.35204 0.0
N1011 N 0.63131 0.60228 0.34708 0.0
C1012 C 0.67496 0.58009 0.43612 0.0
C1013 C 0.70702 0.59071 0.45236 0.0
C1014 C 0.67662 0.56337 0.4464 0.0
N1015 N 0.69001 0.59334 0.43927 0.0
C1016 C 0.70933 0.57416 0.46297 0.0
C1017 C 0.69395 0.56022 0.4601 0.0
H1018 H 0.66138 0.58268 0.42594 0.0
H1019 H 0.71856 0.60157 0.45493 0.0
C1020 C 0.71225 0.64672 0.35889 0.0
N1021 N 0.70215 0.63139 0.36579 0.0
C1022 C 0.7211 0.64731 0.33889 0.0
C1023 C 0.70897 0.6163 0.33348 0.0
C1024 C 0.70064 0.61624 0.35365 0.0
C1025 C 0.7194 0.63198 0.32576 0.0
H1026 H 0.71344 0.65851 0.36897 0.0
H1027 H 0.69287 0.60408 0.35955 0.0
O1028 O 0.6681 0.63453 0.44218 0.0
O1029 O 0.67528 0.65438 0.40124 0.0
O1030 O 0.71099 0.62986 0.41633 0.0
O1031 O 0.6676 0.61255 0.3998 0.0
H1032 H 0.63537 0.61329 0.4533 0.0
H1033 H 0.69793 0.63357 0.47175 0.0
H1034 H 0.63385 0.59522 0.48589 0.0
H1035 H 0.69517 0.61534 0.50416 0.0
H1036 H 0.65754 0.69953 0.35588 0.0
H1037 H 0.66304 0.67921 0.42886 0.0
H1038 H 0.67059 0.66817 0.36351 0.0
H1039 H 0.65043 0.71045 0.4201 0.0
H1040 H 0.69767 0.69096 0.48722 0.0
H1041 H 0.74066 0.70147 0.43538 0.0
H1042 H 0.58271 0.60894 0.41535 0.0
H1043 H 0.5847 0.66735 0.40539 0.0
H1044 H 0.71384 0.5996 0.39398 0.0
H1045 H 0.74716 0.63412 0.4377 0.0
H1046 H 0.74565 0.57886 0.3937 0.0
H1047 H 0.77836 0.6127 0.43679 0.0
H1048 H 0.65575 0.57999 0.38641 0.0
H1049 H 0.65229 0.63764 0.37364 0.0
H1050 H 0.6339 0.57422 0.35468 0.0
H1051 H 0.6306 0.63088 0.34222 0.0
H1052 H 0.66414 0.5532 0.44401 0.0
H1053 H 0.72302 0.57231 0.47328 0.0
H1054 H 0.72934 0.6596 0.33389 0.0
H1055 H 0.70692 0.60422 0.32399 0.0
Li1056 Li 0.18542 0.38748 0.9243 0.0
Li1057 Li 0.1914 0.35544 0.92697 0.0
Li1058 Li 0.1917 0.37098 0.89238 0.0
Li1059 Li 0.15722 0.36757 0.91282 0.0
C1060 C 0.22878 0.37709 0.92953 0.0
N1061 N 0.2625 0.3835 0.95678 0.0
C1062 C 0.22492 0.37775 0.95093 0.0
C1063 C 0.24976 0.37974 0.92198 0.0
C1064 C 0.2422 0.38098 0.96445 0.0
C1065 C 0.2666 0.38296 0.93601 0.0
C1066 C 0.15719 0.35948 0.95487 0.0
C1067 C 0.13808 0.33158 0.96269 0.0
N1068 N 0.13376 0.33799 0.98209 0.0
C1069 C 0.15251 0.36582 0.97486 0.0
C1070 C 0.1499 0.34223 0.94869 0.0
C1071 C 0.14067 0.35474 0.98841 0.0
C1072 C 0.173 0.41548 0.95089 0.0
N1073 N 0.18947 0.4102 0.93825 0.0
C1074 C 0.20927 0.4374 0.94616 0.0
C1075 C 0.20742 0.42073 0.93568 0.0
C1076 C 0.1924 0.44326 0.95923 0.0
C1077 C 0.17411 0.43203 0.96155 0.0
H1078 H 0.1589 0.40684 0.95255 0.0
H1079 H 0.22019 0.41628 0.92535 0.0
C1080 C 0.21475 0.32264 0.93107 0.0
N1081 N 0.20431 0.3358 0.94209 0.0
C1082 C 0.22394 0.30766 0.94125 0.0
C1083 C 0.2116 0.32013 0.97394 0.0
C1084 C 0.20287 0.33494 0.96316 0.0
C1085 C 0.22228 0.30614 0.963 0.0
H1086 H 0.21585 0.32377 0.91434 0.0
H1087 H 0.19481 0.34569 0.97166 0.0
C1088 C 0.16798 0.40761 0.89574 0.0
N1089 N 0.16765 0.44529 0.89334 0.0
C1090 C 0.14991 0.41743 0.90252 0.0
C1091 C 0.18583 0.41693 0.88761 0.0
C1092 C 0.15008 0.43648 0.90123 0.0
C1093 C 0.18536 0.43599 0.88654 0.0
C1094 C 0.16887 0.3349 0.88839 0.0
C1095 C 0.16268 0.33915 0.86806 0.0
C1096 C 0.16724 0.3169 0.89548 0.0
C1097 C 0.15486 0.3253 0.85515 0.0
C1098 C 0.1593 0.30344 0.8821 0.0
N1099 N 0.15333 0.30788 0.86238 0.0
C1100 C 0.22207 0.36089 0.86151 0.0
C1101 C 0.19398 0.38048 0.84995 0.0
C1102 C 0.23099 0.36039 0.84153 0.0
N1103 N 0.2039 0.37082 0.86527 0.0
C1104 C 0.20233 0.38038 0.82978 0.0
C1105 C 0.22107 0.3702 0.82531 0.0
H1106 H 0.22953 0.35326 0.87401 0.0
H1107 H 0.17949 0.3882 0.85339 0.0
C1108 C 0.11529 0.37648 0.92418 0.0
N1109 N 0.12645 0.36482 0.91172 0.0
C1110 C 0.0927 0.37628 0.92443 0.0
C1111 C 0.09337 0.35177 0.8993 0.0
C1112 C 0.11599 0.35245 0.89953 0.0
C1113 C 0.08141 0.36392 0.91173 0.0
H1114 H 0.12402 0.38602 0.93392 0.0
H1115 H 0.12506 0.3432 0.88987 0.0
O1116 O 0.21212 0.37431 0.9159 0.0
O1117 O 0.16876 0.37025 0.9415 0.0
O1118 O 0.16845 0.389 0.89749 0.0
O1119 O 0.17678 0.34819 0.90125 0.0
H1120 H 0.20873 0.37598 0.95702 0.0
H1121 H 0.25296 0.37938 0.90543 0.0
H1122 H 0.23944 0.38154 0.98105 0.0
H1123 H 0.28292 0.38507 0.93038 0.0
H1124 H 0.13235 0.3182 0.95812 0.0
H1125 H 0.15804 0.37914 0.97986 0.0
H1126 H 0.15327 0.33713 0.93329 0.0
H1127 H 0.13697 0.35946 0.00395 0.0
H1128 H 0.22354 0.44573 0.94377 0.0
H1129 H 0.16086 0.43589 0.97166 0.0
H1130 H 0.23237 0.29746 0.93213 0.0
H1131 H 0.20962 0.31954 0.99065 0.0
H1132 H 0.13598 0.41043 0.90888 0.0
H1133 H 0.20005 0.40954 0.8825 0.0
H1134 H 0.13625 0.44426 0.90654 0.0
H1135 H 0.19911 0.44339 0.88042 0.0
H1136 H 0.1636 0.35304 0.86241 0.0
H1137 H 0.17203 0.31336 0.91116 0.0
H1138 H 0.14993 0.3284 0.8394 0.0
H1139 H 0.1579 0.28946 0.8874 0.0
H1140 H 0.24529 0.35218 0.83877 0.0
H1141 H 0.1943 0.38835 0.81788 0.0
H1142 H 0.08419 0.38567 0.93456 0.0
H1143 H 0.08534 0.3421 0.88915 0.0
Li1144 Li 0.30812 0.6484 0.42709 0.0
Li1145 Li 0.31341 0.61477 0.42526 0.0
Li1146 Li 0.34142 0.63557 0.41232 0.0
Li1147 Li 0.30801 0.63116 0.3933 0.0
C1148 C 0.34864 0.63174 0.45257 0.0
N1149 N 0.38748 0.62867 0.47363 0.0
C1150 C 0.35735 0.61451 0.45682 0.0
C1151 C 0.35964 0.6474 0.45915 0.0
C1152 C 0.377 0.61325 0.46747 0.0
C1153 C 0.37927 0.64556 0.46973 0.0
C1154 C 0.27113 0.61981 0.42619 0.0
C1155 C 0.24808 0.59327 0.42802 0.0
N1156 N 0.23906 0.59991 0.44577 0.0
C1157 C 0.26157 0.62642 0.4444 0.0
C1158 C 0.26427 0.60316 0.41785 0.0
C1159 C 0.24539 0.61614 0.45408 0.0
C1160 C 0.28069 0.67886 0.43324 0.0
N1161 N 0.29561 0.66789 0.44249 0.0
C1162 C 0.29391 0.68547 0.47374 0.0
C1163 C 0.30216 0.67078 0.46239 0.0
C1164 C 0.27858 0.69715 0.46459 0.0
C1165 C 0.27184 0.69361 0.44411 0.0
H1166 H 0.27585 0.67622 0.41736 0.0
H1167 H 0.31395 0.66175 0.46938 0.0
C1168 C 0.31542 0.57653 0.43161 0.0
N1169 N 0.30871 0.59255 0.44011 0.0
C1170 C 0.31337 0.56022 0.4427 0.0
C1171 C 0.29743 0.57717 0.47107 0.0
C1172 C 0.29996 0.59318 0.45949 0.0
C1173 C 0.30433 0.56037 0.46278 0.0
H1174 H 0.32288 0.57646 0.41642 0.0
H1175 H 0.29518 0.60616 0.46605 0.0
C1176 C 0.33111 0.67171 0.39742 0.0
N1177 N 0.34777 0.70641 0.39175 0.0
C1178 C 0.33406 0.67864 0.37736 0.0
C1179 C 0.33648 0.68251 0.41458 0.0
C1180 C 0.34257 0.69618 0.37482 0.0
C1181 C 0.34491 0.7 0.4114 0.0
C1182 C 0.3326 0.60428 0.38089 0.0
C1183 C 0.34967 0.60883 0.36758 0.0
C1184 C 0.31721 0.59143 0.37457 0.0
C1185 C 0.351 0.60047 0.3481 0.0
C1186 C 0.31909 0.5834 0.35495 0.0
N1187 N 0.3358 0.58805 0.34223 0.0
C1188 C 0.38337 0.6217 0.41174 0.0
C1189 C 0.38307 0.65387 0.40807 0.0
C1190 C 0.40596 0.62145 0.41121 0.0
N1191 N 0.37238 0.63774 0.41026 0.0
C1192 C 0.40568 0.65427 0.40744 0.0
C1193 C 0.41744 0.6379 0.40908 0.0
H1194 H 0.37452 0.60905 0.41355 0.0
H1195 H 0.37425 0.66649 0.40687 0.0
C1196 C 0.27488 0.62533 0.36309 0.0
N1197 N 0.29578 0.63056 0.36603 0.0
C1198 C 0.26608 0.62486 0.34306 0.0
C1199 C 0.30046 0.63522 0.32952 0.0
C1200 C 0.30856 0.63551 0.34977 0.0
C1201 C 0.27892 0.62989 0.32592 0.0
H1202 H 0.26499 0.62162 0.37629 0.0
H1203 H 0.32514 0.63954 0.35254 0.0
O1204 O 0.32973 0.63327 0.44161 0.0
O1205 O 0.2872 0.62956 0.41665 0.0
O1206 O 0.32238 0.65469 0.40014 0.0
O1207 O 0.3308 0.61255 0.39989 0.0
H1208 H 0.34921 0.60224 0.45169 0.0
H1209 H 0.3532 0.66084 0.456 0.0
H1210 H 0.38398 0.6 0.47075 0.0
H1211 H 0.38801 0.65757 0.4748 0.0
H1212 H 0.24271 0.5803 0.42182 0.0
H1213 H 0.26669 0.63928 0.45107 0.0
H1214 H 0.27155 0.59783 0.40381 0.0
H1215 H 0.23791 0.62104 0.46822 0.0
H1216 H 0.29933 0.68759 0.48958 0.0
H1217 H 0.26018 0.70237 0.43643 0.0
H1218 H 0.31939 0.54772 0.43581 0.0
H1219 H 0.2902 0.57799 0.48638 0.0
H1220 H 0.32979 0.67059 0.36388 0.0
H1221 H 0.33451 0.67739 0.43018 0.0
H1222 H 0.34499 0.70168 0.35938 0.0
H1223 H 0.34924 0.70845 0.42456 0.0
H1224 H 0.3616 0.61889 0.37211 0.0
H1225 H 0.30383 0.58783 0.38462 0.0
H1226 H 0.36406 0.60392 0.3376 0.0
H1227 H 0.30722 0.57351 0.34981 0.0
H1228 H 0.41432 0.60853 0.41282 0.0
H1229 H 0.41383 0.66725 0.40551 0.0
H1230 H 0.24932 0.6209 0.34107 0.0
H1231 H 0.31107 0.63895 0.3168 0.0
Li1232 Li 0.1583 0.63494 0.0919 0.0
Li1233 Li 0.19155 0.6313 0.11235 0.0
Li1234 Li 0.19135 0.648 0.07783 0.0
Li1235 Li 0.18806 0.61449 0.07915 0.0
C1236 C 0.1616 0.66636 0.11211 0.0
N1237 N 0.13052 0.68989 0.12748 0.0
C1238 C 0.15721 0.66686 0.13342 0.0
C1239 C 0.15039 0.67798 0.09866 0.0
C1240 C 0.14139 0.67882 0.14088 0.0
C1241 C 0.13467 0.68973 0.10672 0.0
C1242 C 0.17024 0.59768 0.11773 0.0
C1243 C 0.18776 0.57064 0.13098 0.0
N1244 N 0.17079 0.56789 0.14409 0.0
C1245 C 0.15287 0.59448 0.13117 0.0
C1246 C 0.18774 0.58559 0.11748 0.0
C1247 C 0.1535 0.57939 0.14445 0.0
C1248 C 0.11611 0.6361 0.07556 0.0
N1249 N 0.12757 0.63697 0.09357 0.0
C1250 C 0.09486 0.63888 0.11338 0.0
C1251 C 0.11746 0.63823 0.1123 0.0
C1252 C 0.08261 0.63784 0.095 0.0
C1253 C 0.09353 0.63652 0.07591 0.0
H1254 H 0.12449 0.63474 0.06091 0.0
H1255 H 0.12693 0.63839 0.12644 0.0
C1256 C 0.22412 0.63574 0.14291 0.0
N1257 N 0.20316 0.63077 0.13983 0.0
C1258 C 0.23296 0.63564 0.16291 0.0
C1259 C 0.19836 0.62561 0.17625 0.0
C1260 C 0.19021 0.62592 0.156 0.0
C1261 C 0.22004 0.6305 0.17994 0.0
H1262 H 0.23399 0.63983 0.12982 0.0
H1263 H 0.17342 0.62258 0.15324 0.0
C1264 C 0.16878 0.63791 0.04329 0.0
N1265 N 0.16661 0.64979 0.00257 0.0
C1266 C 0.17845 0.62771 0.02744 0.0
C1267 C 0.1578 0.65405 0.0384 0.0
C1268 C 0.17722 0.63397 0.00695 0.0
C1269 C 0.15696 0.65986 0.01773 0.0
C1270 C 0.23259 0.62226 0.08582 0.0
C1271 C 0.24526 0.62752 0.06883 0.0
C1272 C 0.24064 0.60941 0.09992 0.0
C1273 C 0.2656 0.61955 0.06599 0.0
C1274 C 0.26107 0.60176 0.09654 0.0
N1275 N 0.27301 0.60693 0.07977 0.0
C1276 C 0.20322 0.6849 0.07178 0.0
C1277 C 0.21155 0.6656 0.04335 0.0
C1278 C 0.21152 0.70003 0.06118 0.0
N1279 N 0.20326 0.66813 0.06272 0.0
C1280 C 0.21985 0.68034 0.03213 0.0
C1281 C 0.21993 0.69789 0.04101 0.0
H1282 H 0.19682 0.68653 0.08732 0.0
H1283 H 0.21172 0.65212 0.03655 0.0
C1284 C 0.17498 0.58077 0.06468 0.0
N1285 N 0.19253 0.59197 0.06483 0.0
C1286 C 0.17535 0.56447 0.05347 0.0
C1287 C 0.21199 0.57135 0.04284 0.0
C1288 C 0.21089 0.58757 0.05428 0.0
C1289 C 0.19394 0.55966 0.04213 0.0
H1290 H 0.16051 0.58469 0.07303 0.0
H1291 H 0.22447 0.59682 0.05417 0.0
O1292 O 0.17683 0.65458 0.10447 0.0
O1293 O 0.16988 0.61242 0.10467 0.0
O1294 O 0.16985 0.63201 0.06345 0.0
O1295 O 0.21269 0.63003 0.08891 0.0
H1296 H 0.16583 0.65803 0.14406 0.0
H1297 H 0.15377 0.6779 0.08217 0.0
H1298 H 0.13773 0.67928 0.15732 0.0
H1299 H 0.12579 0.69873 0.09646 0.0
H1300 H 0.20123 0.5612 0.13097 0.0
H1301 H 0.13912 0.60365 0.13144 0.0
H1302 H 0.20106 0.58761 0.10686 0.0
H1303 H 0.14023 0.57681 0.15504 0.0
H1304 H 0.08704 0.63964 0.12843 0.0
H1305 H 0.0847 0.63578 0.06139 0.0
H1306 H 0.24978 0.6394 0.16498 0.0
H1307 H 0.18767 0.62193 0.18892 0.0
H1308 H 0.18693 0.61516 0.03091 0.0
H1309 H 0.15005 0.66201 0.05043 0.0
H1310 H 0.18472 0.62626 0.99455 0.0
H1311 H 0.1486 0.67236 0.01374 0.0
H1312 H 0.23942 0.63756 0.05789 0.0
H1313 H 0.23135 0.60549 0.11344 0.0
H1314 H 0.2755 0.62342 0.05282 0.0
H1315 H 0.26747 0.59177 0.1073 0.0
H1316 H 0.21158 0.71319 0.06885 0.0
H1317 H 0.2259 0.678 0.01656 0.0
H1318 H 0.16116 0.55578 0.05362 0.0
H1319 H 0.22654 0.56831 0.0341 0.0
Li1320 Li 0.30773 0.37089 0.61165 0.0
Li1321 Li 0.34182 0.3668 0.59038 0.0
Li1322 Li 0.31302 0.38654 0.57849 0.0
Li1323 Li 0.30847 0.35435 0.577 0.0
C1324 C 0.33474 0.40691 0.6053 0.0
N1325 N 0.3428 0.44401 0.60515 0.0
C1326 C 0.3523 0.41389 0.59413 0.0
C1327 C 0.32135 0.41874 0.61649 0.0
C1328 C 0.35607 0.43271 0.59421 0.0
C1329 C 0.32569 0.43747 0.61621 0.0
C1330 C 0.33768 0.33691 0.61374 0.0
C1331 C 0.36663 0.31479 0.61317 0.0
N1332 N 0.36789 0.31567 0.63426 0.0
C1333 C 0.33917 0.33751 0.63542 0.0
C1334 C 0.35142 0.32537 0.60253 0.0
C1335 C 0.35457 0.32669 0.6455 0.0
C1336 C 0.27822 0.36106 0.6431 0.0
N1337 N 0.2961 0.37123 0.63896 0.0
C1338 C 0.29806 0.38104 0.67435 0.0
C1339 C 0.30614 0.38108 0.65406 0.0
C1340 C 0.27952 0.3707 0.67915 0.0
C1341 C 0.26958 0.36062 0.66317 0.0
H1342 H 0.27074 0.3532 0.63079 0.0
H1343 H 0.32053 0.38885 0.65037 0.0
C1344 C 0.38449 0.36475 0.57482 0.0
N1345 N 0.37251 0.36448 0.59253 0.0
C1346 C 0.40703 0.36357 0.57577 0.0
C1347 C 0.40456 0.36209 0.61322 0.0
C1348 C 0.38206 0.36347 0.61154 0.0
C1349 C 0.41741 0.36215 0.59516 0.0
H1350 H 0.37657 0.36621 0.55993 0.0
H1351 H 0.3722 0.36379 0.62542 0.0
C1352 C 0.27023 0.38396 0.58376 0.0
N1353 N 0.23608 0.40726 0.57549 0.0
C1354 C 0.26377 0.38717 0.56325 0.0
C1355 C 0.25926 0.39256 0.60007 0.0
C1356 C 0.2465 0.39902 0.55939 0.0
C1357 C 0.24204 0.40429 0.59556 0.0
C1358 C 0.33006 0.36021 0.54338 0.0
C1359 C 0.31696 0.36647 0.52713 0.0
C1360 C 0.34243 0.3444 0.54063 0.0
C1361 C 0.31643 0.35677 0.50843 0.0
C1362 C 0.34141 0.33506 0.52172 0.0
N1363 N 0.32854 0.34138 0.50615 0.0
C1364 C 0.32112 0.4123 0.5471 0.0
C1365 C 0.29543 0.42287 0.57164 0.0
C1366 C 0.31954 0.42857 0.53592 0.0
N1367 N 0.30885 0.40956 0.56438 0.0
C1368 C 0.29347 0.43944 0.56101 0.0
C1369 C 0.30549 0.44237 0.54277 0.0
H1370 H 0.33239 0.40191 0.5421 0.0
H1371 H 0.2864 0.42074 0.5858 0.0
C1372 C 0.30157 0.31679 0.56849 0.0
N1373 N 0.29603 0.33398 0.56249 0.0
C1374 C 0.29333 0.30162 0.55795 0.0
C1375 C 0.27364 0.32207 0.53533 0.0
C1376 C 0.2821 0.33683 0.54644 0.0
C1377 C 0.27927 0.30418 0.54103 0.0
H1378 H 0.31243 0.31483 0.58144 0.0
H1379 H 0.27769 0.35056 0.54209 0.0
O1380 O 0.33047 0.3886 0.60497 0.0
O1381 O 0.32284 0.34755 0.60358 0.0
O1382 O 0.28701 0.37233 0.58791 0.0
O1383 O 0.33054 0.36935 0.56195 0.0
H1384 H 0.36274 0.40488 0.58532 0.0
H1385 H 0.30755 0.41355 0.62502 0.0
H1386 H 0.36952 0.43833 0.58554 0.0
H1387 H 0.31539 0.44681 0.62468 0.0
H1388 H 0.37746 0.3059 0.60467 0.0
H1389 H 0.32864 0.34627 0.64439 0.0
H1390 H 0.3505 0.32471 0.58577 0.0
H1391 H 0.35596 0.32707 0.66226 0.0
H1392 H 0.30615 0.38915 0.68609 0.0
H1393 H 0.25548 0.35224 0.66619 0.0
H1394 H 0.41621 0.36417 0.56144 0.0
H1395 H 0.41175 0.36092 0.62851 0.0
H1396 H 0.27225 0.38088 0.55043 0.0
H1397 H 0.26407 0.39032 0.61603 0.0
H1398 H 0.24144 0.40172 0.54358 0.0
H1399 H 0.23345 0.41107 0.60802 0.0
H1400 H 0.30701 0.37851 0.52902 0.0
H1401 H 0.35262 0.33933 0.55301 0.0
H1402 H 0.30627 0.3614 0.49579 0.0
H1403 H 0.35083 0.32277 0.51944 0.0
H1404 H 0.32953 0.43045 0.52224 0.0
H1405 H 0.28252 0.44978 0.56689 0.0
H1406 H 0.29817 0.28806 0.5628 0.0
H1407 H 0.26261 0.32464 0.52257 0.0
H1408 H 0.27055 0.23157 0.05703 0.0
H1409 H 0.22407 0.27032 0.94997 0.0
H1410 H 0.27354 0.2014 0.99949 0.0
H1411 H 0.24125 0.30501 0.00176 0.0
H1412 H 0.23881 0.24416 0.96876 0.0
H1413 H 0.25592 0.25781 0.03804 0.0
C1414 C 0.26801 0.23045 0.04041 0.0
C1415 C 0.27328 0.2143 0.0298 0.0
C1416 C 0.23937 0.25752 0.97596 0.0
C1417 C 0.25657 0.24424 0.008 0.0
C1418 C 0.23108 0.27253 0.96519 0.0
C1419 C 0.23138 0.29003 0.97421 0.0
C1420 C 0.24785 0.25991 0.99602 0.0
C1421 C 0.24026 0.29181 0.99425 0.0
C1422 C 0.2598 0.24546 0.02957 0.0
C1423 C 0.26987 0.21365 0.00823 0.0
N1424 N 0.24805 0.27696 0.00448 0.0
N1425 N 0.26164 0.22837 0.99805 0.0
H1426 H 0.30085 0.72173 0.48852 0.0
H1427 H 0.19513 0.7752 0.52631 0.0
H1428 H 0.23642 0.70863 0.4673 0.0
H1429 H 0.25993 0.7964 0.53397 0.0
H1430 H 0.20994 0.74939 0.50701 0.0
H1431 H 0.2861 0.74768 0.50788 0.0
C1432 C 0.28358 0.72427 0.48802 0.0
C1433 C 0.26983 0.71299 0.4763 0.0
C1434 C 0.2209 0.75971 0.5129 0.0
C1435 C 0.25285 0.74268 0.49838 0.0
C1436 C 0.21246 0.77455 0.52385 0.0
C1437 C 0.22625 0.78815 0.53176 0.0
C1438 C 0.24336 0.75829 0.50995 0.0
C1439 C 0.24864 0.78619 0.52845 0.0
C1440 C 0.2752 0.73915 0.49896 0.0
C1441 C 0.24762 0.71707 0.47598 0.0
N1442 N 0.25648 0.77155 0.51783 0.0
N1443 N 0.23981 0.73152 0.48693 0.0
H1444 H 0.29148 0.76743 0.95637 0.0
H1445 H 0.20505 0.73332 0.04046 0.0
H1446 H 0.25044 0.80412 0.99119 0.0
H1447 H 0.25512 0.69883 0.01483 0.0
H1448 H 0.21993 0.75913 0.02109 0.0
H1449 H 0.27672 0.74183 0.97607 0.0
C1450 C 0.27946 0.77016 0.96823 0.0
C1451 C 0.27228 0.78804 0.97213 0.0
C1452 C 0.22766 0.74591 0.01973 0.0
C1453 C 0.25503 0.75862 0.99458 0.0
C1454 C 0.21925 0.73116 0.03089 0.0
C1455 C 0.22881 0.71379 0.02933 0.0
C1456 C 0.24571 0.74331 0.00679 0.0
C1457 C 0.24694 0.71183 0.01631 0.0
C1458 C 0.27096 0.75548 0.97942 0.0
C1459 C 0.25629 0.79058 0.98742 0.0
N1460 N 0.25476 0.72638 0.00554 0.0
N1461 N 0.24822 0.77605 0.99807 0.0
H1462 H 0.26332 0.27211 0.5568 0.0
H1463 H 0.24025 0.22752 0.44526 0.0
H1464 H 0.27527 0.30004 0.49884 0.0
H1465 H 0.21823 0.20397 0.50302 0.0
H1466 H 0.25538 0.25329 0.46465 0.0
H1467 H 0.24891 0.24609 0.53737 0.0
C1468 C 0.26301 0.27272 0.53997 0.0
C1469 C 0.27049 0.28828 0.52942 0.0
C1470 C 0.24721 0.2425 0.47308 0.0
C1471 C 0.25394 0.25857 0.50708 0.0
C1472 C 0.2387 0.22773 0.46203 0.0
C1473 C 0.22794 0.21357 0.47253 0.0
C1474 C 0.24512 0.24307 0.49482 0.0
C1475 C 0.22617 0.21468 0.49426 0.0
C1476 C 0.25466 0.25791 0.52889 0.0
C1477 C 0.26945 0.28841 0.50761 0.0
N1478 N 0.23471 0.22913 0.50468 0.0
N1479 N 0.26139 0.27377 0.49716 0.0
H1480 H 0.74034 0.70469 0.03404 0.0
H1481 H 0.76609 0.79398 0.96694 0.0
H1482 H 0.80481 0.72671 0.02675 0.0
H1483 H 0.70203 0.78042 0.98881 0.0
H1484 H 0.78054 0.76781 0.98618 0.0
H1485 H 0.72593 0.73101 0.01528 0.0
C1486 C 0.75149 0.71508 0.02866 0.0
C1487 C 0.77389 0.71338 0.03206 0.0
C1488 C 0.76333 0.77059 0.98681 0.0
C1489 C 0.75742 0.74344 0.01013 0.0
C1490 C 0.75507 0.78545 0.97573 0.0
C1491 C 0.73283 0.78939 0.9763 0.0
C1492 C 0.74923 0.75944 0.99834 0.0
C1493 C 0.71931 0.77799 0.98812 0.0
C1494 C 0.74323 0.73007 0.01783 0.0
C1495 C 0.78749 0.72718 0.02425 0.0
N1496 N 0.7277 0.76349 0.99859 0.0
N1497 N 0.77906 0.74157 0.01362 0.0
H1498 H 0.80202 0.22287 0.48836 0.0
H1499 H 0.6957 0.27706 0.52178 0.0
H1500 H 0.73968 0.21316 0.46018 0.0
H1501 H 0.76019 0.29835 0.53147 0.0
H1502 H 0.71115 0.25176 0.50207 0.0
H1503 H 0.78656 0.24868 0.50749 0.0
C1504 C 0.78506 0.22616 0.48625 0.0
C1505 C 0.77209 0.21588 0.47268 0.0
C1506 C 0.72188 0.26201 0.50849 0.0
C1507 C 0.75431 0.2453 0.49455 0.0
C1508 C 0.71308 0.27656 0.51968 0.0
C1509 C 0.7266 0.29004 0.52833 0.0
C1510 C 0.74441 0.2607 0.50611 0.0
C1511 C 0.74908 0.28823 0.52544 0.0
C1512 C 0.77628 0.24093 0.49707 0.0
C1513 C 0.75027 0.22083 0.47037 0.0
N1514 N 0.75726 0.27383 0.51465 0.0
N1515 N 0.74201 0.23512 0.4813 0.0
H1516 H 0.8036 0.28086 0.98965 0.0
H1517 H 0.70308 0.21412 0.00796 0.0
H1518 H 0.74061 0.28987 0.96229 0.0
H1519 H 0.7593 0.21482 0.04776 0.0
H1520 H 0.71782 0.24018 0.98879 0.0
H1521 H 0.78878 0.25508 0.00904 0.0
C1522 C 0.78662 0.27755 0.98779 0.0
C1523 C 0.77336 0.2877 0.97429 0.0
C1524 C 0.72691 0.23466 0.00174 0.0
C1525 C 0.7564 0.25784 0.99623 0.0
C1526 C 0.71857 0.21973 0.01261 0.0
C1527 C 0.73 0.21229 0.02947 0.0
C1528 C 0.74696 0.2421 0.00761 0.0
C1529 C 0.74987 0.22024 0.03498 0.0
C1530 C 0.77821 0.26273 0.99881 0.0
C1531 C 0.75159 0.28236 0.97223 0.0
N1532 N 0.75778 0.23465 0.02401 0.0
N1533 N 0.74383 0.2678 0.98303 0.0
H1534 H 0.74054 0.78943 0.5473 0.0
H1535 H 0.76257 0.71108 0.46345 0.0
H1536 H 0.79795 0.78771 0.50913 0.0
H1537 H 0.69904 0.72292 0.48815 0.0
H1538 H 0.77685 0.73747 0.48219 0.0
H1539 H 0.72621 0.7631 0.52826 0.0
C1540 C 0.75016 0.78345 0.53497 0.0
C1541 C 0.77045 0.79077 0.52976 0.0
C1542 C 0.75978 0.73428 0.48346 0.0
C1543 C 0.75417 0.76067 0.50793 0.0
C1544 C 0.75155 0.71925 0.47267 0.0
C1545 C 0.7295 0.71465 0.47416 0.0
C1546 C 0.74595 0.74474 0.49604 0.0
C1547 C 0.7162 0.72564 0.48675 0.0
C1548 C 0.74192 0.7685 0.52403 0.0
C1549 C 0.78214 0.7826 0.51351 0.0
N1550 N 0.72463 0.74011 0.49724 0.0
N1551 N 0.77388 0.76794 0.50323 0.0
H1552 H 0.27509 0.04612 0.01835 0.0
H1553 H 0.34004 0.95492 0.98961 0.0
H1554 H 0.33771 0.03202 0.04351 0.0
H1555 H 0.27505 0.96572 0.96813 0.0
H1556 H 0.33931 0.98338 0.00915 0.0
H1557 H 0.27453 0.01698 0.99968 0.0
C1558 C 0.28866 0.03687 0.02006 0.0
C1559 C 0.30653 0.04161 0.03245 0.0
C1560 C 0.32516 0.97953 1.00022 0.0
C1561 C 0.30609 0.00832 0.01094 0.0
C1562 C 0.3255 0.96318 0.98914 0.0
C1563 C 0.30751 0.95779 0.97728 0.0
C1564 C 0.30672 0.99073 0.99945 0.0
C1565 C 0.28936 0.96937 0.9769 0.0
C1566 C 0.28837 0.02028 0.00931 0.0
C1567 C 0.32376 0.02915 0.03386 0.0
N1568 N 0.28943 0.98529 0.98783 0.0
N1569 N 0.32311 0.01314 0.02323 0.0
H1570 H 0.21707 0.97199 0.5493 0.0
H1571 H 0.17343 0.02663 0.44991 0.0
H1572 H 0.16986 0.95053 0.50629 0.0
H1573 H 0.21221 0.05157 0.49803 0.0
H1574 H 0.17433 0.9979 0.46904 0.0
H1575 H 0.21811 1.00041 0.52923 0.0
C1576 C 0.20704 0.97322 0.53556 0.0
C1577 C 0.19329 0.95889 0.52951 0.0
C1578 C 0.18267 0.00964 0.47542 0.0
C1579 C 0.19433 0.99138 0.50654 0.0
C1580 C 0.18207 0.02611 0.46455 0.0
C1581 C 0.19261 0.04165 0.47242 0.0
C1582 C 0.19398 0.00858 0.49432 0.0
C1583 C 0.20399 0.03995 0.49125 0.0
C1584 C 0.20755 0.98947 0.52418 0.0
C1585 C 0.18047 0.9613 0.51169 0.0
N1586 N 0.20432 0.02373 0.50157 0.0
N1587 N 0.18132 0.97721 0.50085 0.0
H1588 H 0.70529 0.9767 0.94645 0.0
H1589 H 0.69889 0.02475 0.05815 0.0
H1590 H 0.69238 0.94733 0.00335 0.0
H1591 H 0.6984 0.05444 1.0002 0.0
H1592 H 0.70055 0.99607 0.03864 0.0
H1593 H 0.70647 0.00515 0.96621 0.0
C1594 C 0.70264 0.9762 0.96308 0.0
C1595 C 0.69859 0.95951 0.97317 0.0
C1596 C 0.70013 0.00886 0.0302 0.0
C1597 C 0.70027 0.99212 0.99599 0.0
C1598 C 0.69933 0.02523 0.04132 0.0
C1599 C 0.69845 0.04201 0.03078 0.0
C1600 C 0.70021 0.00925 0.00836 0.0
C1601 C 0.69879 0.04181 0.00895 0.0
C1602 C 0.70343 0.99246 0.97437 0.0
C1603 C 0.69579 0.95976 0.99487 0.0
N1604 N 0.69965 0.0257 0.99847 0.0
N1605 N 0.69664 0.97579 0.00552 0.0
H1606 H 0.78846 0.0544 0.49794 0.0
H1607 H 0.825 0.94957 0.50376 0.0
H1608 H 0.82382 0.02678 0.44933 0.0
H1609 H 0.78935 0.97665 0.55256 0.0
H1610 H 0.82383 0.97759 0.48329 0.0
H1611 H 0.78736 0.02587 0.51766 0.0
C1612 C 0.79583 0.04231 0.49131 0.0
C1613 C 0.80631 0.04304 0.47194 0.0
C1614 C 0.81621 0.97743 0.49846 0.0
C1615 C 0.80533 0.01034 0.49459 0.0
C1616 C 0.81699 0.96144 0.51022 0.0
C1617 C 0.80739 0.96077 0.53 0.0
C1618 C 0.80579 0.99295 0.50648 0.0
C1619 C 0.79684 0.97649 0.53735 0.0
C1620 C 0.79531 0.02604 0.50265 0.0
C1621 C 0.81585 0.02696 0.46431 0.0
N1622 N 0.7964 0.99196 0.52562 0.0
N1623 N 0.81516 0.01132 0.47566 0.0
H1624 H 0.84182 0.4564 0.9845 0.0
H1625 H 0.77891 0.54784 0.01522 0.0
H1626 H 0.77515 0.46618 0.96787 0.0
H1627 H 0.83863 0.53073 0.04426 0.0
H1628 H 0.77794 0.51899 0.99611 0.0
H1629 H 0.84187 0.48476 0.00456 0.0
C1630 C 0.82721 0.46458 0.98502 0.0
C1631 C 0.80848 0.45898 0.97445 0.0
C1632 C 0.79121 0.52156 0.00671 0.0
C1633 C 0.80838 0.49145 0.99741 0.0
C1634 C 0.79174 0.53801 0.01773 0.0
C1635 C 0.80892 0.54183 0.0314 0.0
C1636 C 0.80805 0.50886 0.00922 0.0
C1637 C 0.82527 0.52861 0.03365 0.0
C1638 C 0.8272 0.4807 0.99657 0.0
C1639 C 0.78989 0.46996 0.9759 0.0
N1640 N 0.82446 0.51279 0.02264 0.0
N1641 N 0.79035 0.48573 0.98707 0.0
H1642 H 0.70969 0.47651 0.55459 0.0
H1643 H 0.68533 0.52568 0.44578 0.0
H1644 H 0.68128 0.4493 0.50169 0.0
H1645 H 0.70631 0.55464 0.50067 0.0
H1646 H 0.68638 0.49716 0.46536 0.0
H1647 H 0.71151 0.50478 0.53433 0.0
C1648 C 0.704 0.47644 0.53866 0.0
C1649 C 0.69523 0.46053 0.52985 0.0
C1650 C 0.69081 0.50974 0.47313 0.0
C1651 C 0.69713 0.49286 0.50663 0.0
C1652 C 0.69012 0.52607 0.46197 0.0
C1653 C 0.69561 0.54265 0.4716 0.0
C1654 C 0.69709 0.5099 0.49411 0.0
C1655 C 0.70214 0.54219 0.49253 0.0
C1656 C 0.70492 0.49261 0.52715 0.0
C1657 C 0.68787 0.4613 0.50921 0.0
N1658 N 0.70262 0.5261 0.50309 0.0
N1659 N 0.68897 0.47718 0.49833 0.0
H1660 H 0.16127 0.54623 0.01776 0.0
H1661 H 0.22736 0.45831 0.97938 0.0
H1662 H 0.22702 0.53493 0.03657 0.0
H1663 H 0.16031 0.46861 0.96454 0.0
H1664 H 0.22845 0.48707 0.99881 0.0
H1665 H 0.16138 0.51842 0.99696 0.0
C1666 C 0.17571 0.53783 0.01764 0.0
C1667 C 0.19411 0.54287 0.02911 0.0
C1668 C 0.21352 0.48304 0.99127 0.0
C1669 C 0.19445 0.51102 0.00499 0.0
C1670 C 0.21293 0.46668 0.98007 0.0
C1671 C 0.19368 0.46098 0.97041 0.0
C1672 C 0.19476 0.49382 0.99274 0.0
C1673 C 0.1754 0.4723 0.97202 0.0
C1674 C 0.17581 0.52199 0.00563 0.0
C1675 C 0.21252 0.53165 0.02789 0.0
N1676 N 0.17639 0.48813 0.98297 0.0
N1677 N 0.2122 0.51621 0.0161 0.0
H1678 H 0.31044 0.55577 0.50484 0.0
H1679 H 0.30245 0.44694 0.50066 0.0
H1680 H 0.29488 0.52568 0.44905 0.0
H1681 H 0.30449 0.47737 0.55807 0.0
H1682 H 0.30091 0.47568 0.48138 0.0
H1683 H 0.30911 0.52731 0.52457 0.0
C1684 C 0.30651 0.54325 0.49673 0.0
C1685 C 0.3028 0.54321 0.47516 0.0
C1686 C 0.30159 0.47609 0.4982 0.0
C1687 C 0.30169 0.51043 0.49771 0.0
C1688 C 0.30259 0.45969 0.50921 0.0
C1689 C 0.30367 0.45976 0.531 0.0
C1690 C 0.30187 0.49275 0.50903 0.0
C1691 C 0.30351 0.47668 0.54128 0.0
C1692 C 0.30589 0.52696 0.50802 0.0
C1693 C 0.29823 0.52641 0.46554 0.0
N1694 N 0.30277 0.4925 0.5302 0.0
N1695 N 0.29791 0.51072 0.47685 0.0
H1696 H 0.5545 0.10831 0.08724 0.0
H1697 H 0.44663 0.16816 0.0995 0.0
H1698 H 0.55516 0.16619 0.1 0.0
H1699 H 0.44702 0.10952 0.09262 0.0
H1700 H 0.48628 0.16804 0.09869 0.0
H1701 H 0.515 0.10881 0.08807 0.0
C1702 C 0.54633 0.12116 0.0901 0.0
C1703 C 0.55818 0.13725 0.09349 0.0
C1704 C 0.47768 0.1552 0.09741 0.0
C1705 C 0.51285 0.13789 0.09466 0.0
C1706 C 0.45505 0.15527 0.09777 0.0
C1707 C 0.44347 0.13882 0.09618 0.0
C1708 C 0.48883 0.13857 0.09531 0.0
C1709 C 0.45524 0.1225 0.09419 0.0
C1710 C 0.52376 0.12141 0.0907 0.0
C1711 C 0.54669 0.15343 0.09749 0.0
N1712 N 0.47723 0.1228 0.09376 0.0
N1713 N 0.52467 0.15335 0.0979 0.0
H1714 H 0.94543 0.86609 0.62941 0.0
H1715 H 0.05423 0.85685 0.56238 0.0
H1716 H 0.9465 0.85724 0.56307 0.0
H1717 H 0.05367 0.86742 0.6284 0.0
H1718 H 0.01473 0.85589 0.56264 0.0
H1719 H 0.98501 0.8652 0.62974 0.0
C1720 C 0.95397 0.86381 0.61494 0.0
C1721 C 0.9426 0.8618 0.59617 0.0
C1722 C 0.02322 0.85839 0.57709 0.0
C1723 C 0.98795 0.86096 0.5964 0.0
C1724 C 0.0458 0.85904 0.57693 0.0
C1725 C 0.05732 0.86231 0.59538 0.0
C1726 C 0.01199 0.86104 0.59584 0.0
C1727 C 0.04549 0.86469 0.61384 0.0
C1728 C 0.97658 0.86341 0.61512 0.0
C1729 C 0.95457 0.85913 0.57786 0.0
N1730 N 0.02349 0.86407 0.61359 0.0
N1731 N 0.97656 0.85881 0.57844 0.0
H1732 H 0.44773 0.83719 0.92943 0.0
H1733 H 0.55678 0.88078 0.88403 0.0
H1734 H 0.44906 0.884 0.88868 0.0
H1735 H 0.55588 0.8422 0.93484 0.0
H1736 H 0.51731 0.88016 0.88331 0.0
H1737 H 0.48738 0.8366 0.92906 0.0
C1738 C 0.45636 0.84725 0.92028 0.0
C1739 C 0.44508 0.8607 0.90912 0.0
C1740 C 0.52575 0.87182 0.89461 0.0
C1741 C 0.49041 0.86016 0.9087 0.0
C1742 C 0.54833 0.87224 0.89513 0.0
C1743 C 0.55979 0.86161 0.90961 0.0
C1744 C 0.51443 0.86059 0.90858 0.0
C1745 C 0.54783 0.85048 0.92324 0.0
C1746 C 0.47898 0.84698 0.92019 0.0
C1747 C 0.45711 0.87353 0.89772 0.0
N1748 N 0.52583 0.85027 0.92239 0.0
N1749 N 0.47909 0.87293 0.89778 0.0
H1750 H 0.05455 0.15392 0.43718 0.0
H1751 H 0.94568 0.12638 0.37773 0.0
H1752 H 0.05349 0.13175 0.37496 0.0
H1753 H 0.94645 0.15771 0.43454 0.0
H1754 H 0.98525 0.12734 0.37699 0.0
H1755 H 0.01505 0.15499 0.43685 0.0
C1756 C 0.04608 0.14945 0.42335 0.0
C1757 C 0.05748 0.14269 0.40608 0.0
C1758 C 0.97678 0.13408 0.38958 0.0
C1759 C 0.0121 0.14356 0.4058 0.0
C1760 C 0.9542 0.13344 0.39007 0.0
C1761 C 0.94276 0.14195 0.40624 0.0
C1762 C 0.98806 0.14316 0.40547 0.0
C1763 C 0.95461 0.15111 0.42168 0.0
C1764 C 0.02347 0.14996 0.42324 0.0
C1765 C 0.04546 0.13677 0.38878 0.0
N1766 N 0.97662 0.15139 0.42098 0.0
N1767 N 0.02347 0.13727 0.38912 0.0
H1768 H 0.05524 0.61533 0.07364 0.0
H1769 H 0.94679 0.66363 0.1132 0.0
H1770 H 0.05535 0.65956 0.11796 0.0
H1771 H 0.94788 0.61174 0.08125 0.0
H1772 H 0.98638 0.66352 0.11371 0.0
H1773 H 0.01571 0.61517 0.07443 0.0
C1774 C 0.04692 0.62507 0.08347 0.0
C1775 C 0.05859 0.63753 0.09568 0.0
C1776 C 0.97792 0.65216 0.10663 0.0
C1777 C 0.01328 0.63738 0.09675 0.0
C1778 C 0.95529 0.65215 0.10641 0.0
C1779 C 0.94387 0.6377 0.09708 0.0
C1780 C 0.98926 0.63768 0.09734 0.0
C1781 C 0.95588 0.62337 0.08825 0.0
C1782 C 0.02435 0.62489 0.08403 0.0
C1783 C 0.04697 0.64965 0.1084 0.0
N1784 N 0.97787 0.62376 0.08854 0.0
N1785 N 0.02493 0.64934 0.10852 0.0
H1786 H 0.55338 0.35036 0.56576 0.0
H1787 H 0.44428 0.37764 0.62441 0.0
H1788 H 0.55217 0.37112 0.62862 0.0
H1789 H 0.44562 0.34447 0.56889 0.0
H1790 H 0.48376 0.3765 0.62565 0.0
H1791 H 0.51392 0.34918 0.56601 0.0
C1792 C 0.54489 0.35449 0.57972 0.0
C1793 C 0.55626 0.36085 0.59721 0.0
C1794 C 0.47539 0.36941 0.61325 0.0
C1795 C 0.51087 0.35989 0.59738 0.0
C1796 C 0.4528 0.36996 0.61258 0.0
C1797 C 0.44147 0.36116 0.59648 0.0
C1798 C 0.48684 0.36013 0.59763 0.0
C1799 C 0.45357 0.35174 0.58139 0.0
C1800 C 0.5223 0.35391 0.57978 0.0
C1801 C 0.54418 0.36639 0.61464 0.0
N1802 N 0.47556 0.35154 0.58229 0.0
N1803 N 0.52218 0.36586 0.61424 0.0
H1804 H 0.05419 0.39346 0.91207 0.0
H1805 H 0.94517 0.33411 0.90905 0.0
H1806 H 0.05369 0.33452 0.91011 0.0
H1807 H 0.94665 0.39306 0.90959 0.0
H1808 H 0.98481 0.33379 0.90976 0.0
H1809 H 0.01471 0.3934 0.9115 0.0
C1810 C 0.04578 0.38048 0.91165 0.0
C1811 C 0.05733 0.36396 0.91123 0.0
C1812 C 0.97645 0.34679 0.90969 0.0
C1813 C 0.01196 0.3638 0.91032 0.0
C1814 C 0.95382 0.34698 0.90939 0.0
C1815 C 0.94254 0.36364 0.9092 0.0
C1816 C 0.98791 0.36337 0.90989 0.0
C1817 C 0.95463 0.37989 0.9094 0.0
C1818 C 0.0232 0.38046 0.91119 0.0
C1819 C 0.04549 0.34759 0.91026 0.0
N1820 N 0.97661 0.37934 0.90976 0.0
N1821 N 0.02347 0.34792 0.90989 0.0
H1822 H 0.55315 0.66363 0.42765 0.0
H1823 H 0.4447 0.61357 0.38985 0.0
H1824 H 0.55267 0.61386 0.39167 0.0
H1825 H 0.44514 0.66242 0.42743 0.0
H1826 H 0.48424 0.61372 0.38987 0.0
H1827 H 0.5136 0.6639 0.4269 0.0
C1828 C 0.54474 0.65282 0.41946 0.0
C1829 C 0.55629 0.63869 0.40971 0.0
C1830 C 0.47569 0.62443 0.3981 0.0
C1831 C 0.51093 0.63882 0.40898 0.0
C1832 C 0.45309 0.62429 0.39819 0.0
C1833 C 0.44152 0.63799 0.40869 0.0
C1834 C 0.48689 0.63836 0.40858 0.0
C1835 C 0.45334 0.65171 0.41892 0.0
C1836 C 0.52214 0.65293 0.41915 0.0
C1837 C 0.54447 0.62489 0.39963 0.0
N1838 N 0.47534 0.65152 0.41863 0.0
N1839 N 0.52247 0.62531 0.39952 0.0
H1840 H 0.28404 0.1042 0.20798 0.0
H1841 H 0.21139 0.15443 0.29337 0.0
H1842 H 0.25763 0.15824 0.19939 0.0
H1843 H 0.25207 0.10799 0.30723 0.0
H1844 H 0.22594 0.1549 0.25811 0.0
H1845 H 0.26982 0.10398 0.2435 0.0
C1846 C 0.27515 0.11598 0.21355 0.0
C1847 C 0.27199 0.13126 0.20072 0.0
C1848 C 0.2317 0.14464 0.2689 0.0
C1849 C 0.25574 0.13112 0.24135 0.0
C1850 C 0.2235 0.14442 0.28912 0.0
C1851 C 0.2305 0.13117 0.30346 0.0
C1852 C 0.2469 0.13143 0.2628 0.0
C1853 C 0.24589 0.1183 0.29673 0.0
C1854 C 0.26717 0.1159 0.23386 0.0
C1855 C 0.2606 0.14625 0.20882 0.0
N1856 N 0.2535 0.11872 0.27691 0.0
N1857 N 0.2528 0.14577 0.22858 0.0
H1858 H 0.26537 0.90191 0.80244 0.0
H1859 H 0.22799 0.84161 0.70579 0.0
H1860 H 0.27848 0.84406 0.79804 0.0
H1861 H 0.23641 0.90013 0.70239 0.0
H1862 H 0.24328 0.84203 0.7408 0.0
H1863 H 0.25131 0.90133 0.76702 0.0
C1864 C 0.26547 0.88909 0.79405 0.0
C1865 C 0.27326 0.87302 0.80338 0.0
C1866 C 0.24181 0.85475 0.73233 0.0
C1867 C 0.25665 0.87224 0.76282 0.0
C1868 C 0.23319 0.85454 0.71226 0.0
C1869 C 0.23082 0.87087 0.70098 0.0
C1870 C 0.2479 0.87143 0.74136 0.0
C1871 C 0.23748 0.88722 0.71052 0.0
C1872 C 0.25731 0.88878 0.77382 0.0
C1873 C 0.27238 0.85676 0.79174 0.0
N1874 N 0.2456 0.88709 0.73015 0.0
N1875 N 0.26418 0.85678 0.77212 0.0
H1876 H 0.74996 0.89678 0.80805 0.0
H1877 H 0.75259 0.84761 0.69675 0.0
H1878 H 0.71637 0.8465 0.79422 0.0
H1879 H 0.7895 0.89605 0.71122 0.0
H1880 H 0.73855 0.84745 0.73223 0.0
H1881 H 0.76448 0.89694 0.77269 0.0
C1882 C 0.74573 0.88571 0.79766 0.0
C1883 C 0.73184 0.87163 0.80418 0.0
C1884 C 0.74973 0.85812 0.72767 0.0
C1885 C 0.74822 0.87186 0.76351 0.0
C1886 C 0.75765 0.85829 0.70734 0.0
C1887 C 0.77224 0.87188 0.70093 0.0
C1888 C 0.75638 0.87166 0.74177 0.0
C1889 C 0.77848 0.88518 0.71551 0.0
C1890 C 0.75394 0.88587 0.7774 0.0
C1891 C 0.72671 0.8578 0.78985 0.0
N1892 N 0.7705 0.88475 0.73522 0.0
N1893 N 0.73486 0.85829 0.77023 0.0
H1894 H 0.7633 0.1607 0.30296 0.0
H1895 H 0.73183 0.10038 0.20377 0.0
H1896 H 0.7784 0.10336 0.29752 0.0
H1897 H 0.73269 0.1593 0.20286 0.0
H1898 H 0.74589 0.10098 0.23932 0.0
H1899 H 0.74884 0.16022 0.26749 0.0
C1900 C 0.76344 0.14799 0.29434 0.0
C1901 C 0.77208 0.13205 0.30319 0.0
C1902 C 0.74306 0.11378 0.23133 0.0
C1903 C 0.75563 0.13141 0.26262 0.0
C1904 C 0.73493 0.11345 0.21109 0.0
C1905 C 0.73109 0.12982 0.20035 0.0
C1906 C 0.74716 0.13061 0.24104 0.0
C1907 C 0.73562 0.14636 0.21051 0.0
C1908 C 0.75534 0.14775 0.27406 0.0
C1909 C 0.77209 0.116 0.29123 0.0
N1910 N 0.74331 0.14634 0.23033 0.0
N1911 N 0.76393 0.11608 0.2716 0.0
H1912 H 0.7214 0.66095 0.29837 0.0
H1913 H 0.76421 0.60198 0.20289 0.0
H1914 H 0.73789 0.60376 0.30366 0.0
H1915 H 0.77318 0.66045 0.20639 0.0
H1916 H 0.74986 0.60231 0.23821 0.0
H1917 H 0.73597 0.66097 0.26305 0.0
C1918 C 0.72819 0.64842 0.29226 0.0
C1919 C 0.72834 0.63231 0.3042 0.0
C1920 C 0.755 0.61505 0.23121 0.0
C1921 C 0.74454 0.63222 0.26345 0.0
C1922 C 0.76333 0.61489 0.21104 0.0
C1923 C 0.77016 0.6312 0.20153 0.0
C1924 C 0.75313 0.63165 0.24194 0.0
C1925 C 0.76792 0.64754 0.21284 0.0
C1926 C 0.73638 0.64845 0.27201 0.0
C1927 C 0.73696 0.61644 0.29506 0.0
N1928 N 0.75957 0.64735 0.23241 0.0
N1929 N 0.7446 0.61678 0.27525 0.0
H1930 H 0.75524 0.39109 0.69404 0.0
H1931 H 0.75548 0.34396 0.80576 0.0
H1932 H 0.70689 0.35172 0.71284 0.0
H1933 H 0.78483 0.39646 0.79423 0.0
H1934 H 0.74109 0.34405 0.77022 0.0
H1935 H 0.7696 0.39095 0.72939 0.0
C1936 C 0.7475 0.3825 0.70555 0.0
C1937 C 0.72969 0.37144 0.70029 0.0
C1938 C 0.75066 0.35555 0.77549 0.0
C1939 C 0.74655 0.37091 0.74077 0.0
C1940 C 0.75896 0.35545 0.79569 0.0
C1941 C 0.77131 0.37024 0.80291 0.0
C1942 C 0.75504 0.3704 0.76232 0.0
C1943 C 0.77521 0.38487 0.78931 0.0
C1944 C 0.75583 0.38236 0.72572 0.0
C1945 C 0.72083 0.36026 0.71592 0.0
N1946 N 0.76721 0.38454 0.76962 0.0
N1947 N 0.72939 0.36024 0.73539 0.0
H1948 H 0.23692 0.37091 0.6914 0.0
H1949 H 0.26379 0.37084 0.81328 0.0
H1950 H 0.30192 0.36973 0.71607 0.0
H1951 H 0.19894 0.36864 0.78833 0.0
H1952 H 0.27811 0.37053 0.77785 0.0
H1953 H 0.22276 0.37024 0.72682 0.0
C1954 C 0.24824 0.3704 0.70424 0.0
C1955 C 0.27068 0.37037 0.70068 0.0
C1956 C 0.26075 0.3701 0.78013 0.0
C1957 C 0.25451 0.36982 0.74141 0.0
C1958 C 0.25254 0.37017 0.80038 0.0
C1959 C 0.23009 0.36981 0.80385 0.0
C1960 C 0.24642 0.36966 0.76317 0.0
C1961 C 0.21634 0.36923 0.78645 0.0
C1962 C 0.24012 0.37012 0.7245 0.0
C1963 C 0.28452 0.37002 0.71803 0.0
N1964 N 0.22471 0.36919 0.76691 0.0
N1965 N 0.27622 0.36976 0.73761 0.0
H1966 H 0.25154 0.60471 0.30819 0.0
H1967 H 0.24758 0.65541 0.19779 0.0
H1968 H 0.28576 0.65474 0.29465 0.0
H1969 H 0.21285 0.6056 0.21115 0.0
H1970 H 0.26197 0.65518 0.23314 0.0
H1971 H 0.23707 0.60481 0.27281 0.0
C1972 C 0.25592 0.61578 0.29783 0.0
C1973 C 0.26992 0.62974 0.30446 0.0
C1974 C 0.25121 0.64429 0.22835 0.0
C1975 C 0.25357 0.62982 0.26379 0.0
C1976 C 0.24308 0.64435 0.2081 0.0
C1977 C 0.22898 0.63048 0.20142 0.0
C1978 C 0.24525 0.63026 0.24211 0.0
C1979 C 0.22344 0.61669 0.21566 0.0
C1980 C 0.24775 0.61576 0.27758 0.0
C1981 C 0.27528 0.64356 0.29019 0.0
N1982 N 0.2316 0.61692 0.2353 0.0
N1983 N 0.2671 0.64325 0.27058 0.0
loop_
_geom_bond_atom_site_label_1
_geom_bond_atom_site_label_2
_geom_bond_distance
_geom_bond_site_symmetry_2
_ccdc_geom_bond_type
Li0 N17 1.990 . S
Li0 O60 1.956 . S
Li0 O61 1.970 . S
Li0 O62 1.961 . S
Li1 N25 1.990 . S
Li1 O60 1.970 . S
Li1 O61 1.956 . S
Li1 O63 1.961 . S
Li2 N47 1.990 . S
Li2 O60 1.961 . S
Li2 O62 1.956 . S
Li2 O63 1.970 . S
Li3 N53 1.990 . S
Li3 O61 1.961 . S
Li3 O62 1.970 . S
Li3 O63 1.956 . S
C4 C6 1.348 . S
C4 C7 1.356 . S
C4 O60 1.325 . S
N5 C8 1.314 . S
N5 C9 1.279 . S
C6 C4 1.348 . S
C6 C8 1.353 . S
C6 H64 0.929 . S
C7 C4 1.356 . S
C7 C9 1.358 . S
C7 H65 0.930 . S
C8 N5 1.314 . S
C8 C6 1.353 . S
C8 H66 0.930 . S
C9 N5 1.279 . S
C9 C7 1.358 . S
C9 H67 0.930 1_554 S
C10 C13 1.348 . S
C10 C14 1.356 . S
C10 O61 1.325 . S
C11 N12 1.279 . S
C11 C14 1.358 . S
C11 H68 0.930 . S
N12 C11 1.279 . S
N12 C15 1.314 . S
C13 C10 1.348 . S
C13 C15 1.353 . S
C13 H69 0.929 . S
C14 C10 1.356 . S
C14 C11 1.358 . S
C14 H70 0.930 . S
C15 N12 1.314 . S
C15 C13 1.353 . S
C15 H71 0.930 . S
C16 N17 1.314 . S
C16 C21 1.353 . S
C16 H22 0.930 . S
N17 Li0 1.990 . S
N17 C16 1.314 . S
N17 C19 1.279 . S
C18 C19 1.358 . S
C18 C20 1.356 . S
C18 H72 0.930 . S
C19 N17 1.279 . S
C19 C18 1.358 . S
C19 H23 0.930 . S
C20 C18 1.356 . S
C20 C21 1.348 . S
C21 C16 1.353 . S
C21 C20 1.348 . S
C21 H73 0.929 . S
H22 C16 0.930 . S
H23 C19 0.930 . S
C24 N25 1.314 . S
C24 C26 1.353 . S
C24 H30 0.930 . S
N25 Li1 1.990 . S
N25 C24 1.314 . S
N25 C28 1.279 . S
C26 C24 1.353 . S
C26 C29 1.348 . S
C26 H74 0.929 . S
C27 C28 1.358 . S
C27 C29 1.356 . S
C27 H75 0.930 . S
C28 N25 1.279 . S
C28 C27 1.358 . S
C28 H31 0.930 . S
C29 C26 1.348 . S
C29 C27 1.356 . S
H30 C24 0.930 . S
H31 C28 0.930 . S
C32 C34 1.348 . S
C32 C35 1.356 . S
C32 O62 1.325 . S
N33 C36 1.314 . S
N33 C37 1.279 . S
C34 C32 1.348 . S
C34 C36 1.353 . S
C34 H76 0.929 . S
C35 C32 1.356 . S
C35 C37 1.358 . S
C35 H77 0.930 . S
C36 N33 1.314 . S
C36 C34 1.353 . S
C36 H78 0.930 . S
C37 N33 1.279 . S
C37 C35 1.358 . S
C37 H79 0.930 . S
C38 C39 1.348 . S
C38 C40 1.356 . S
C38 O63 1.325 . S
C39 C38 1.348 . S
C39 C41 1.353 . S
C39 H80 0.929 . S
C40 C38 1.356 . S
C40 C42 1.358 . S
C40 H81 0.930 . S
C41 C39 1.353 . S
C41 N43 1.314 . S
C41 H82 0.930 . S
C42 C40 1.358 . S
C42 N43 1.279 . S
C42 H83 0.930 . S
N43 C41 1.314 . S
N43 C42 1.279 . S
C44 C46 1.353 . S
C44 N47 1.314 . S
C44 H50 0.930 . S
C45 N47 1.279 . S
C45 C48 1.358 . S
C45 H51 0.930 . S
C46 C44 1.353 . S
C46 C49 1.348 . S
C46 H84 0.929 . S
N47 Li2 1.990 . S
N47 C44 1.314 . S
N47 C45 1.279 . S
C48 C45 1.358 . S
C48 C49 1.356 . S
C48 H85 0.930 . S
C49 C46 1.348 . S
C49 C48 1.356 . S
H50 C44 0.930 . S
H51 C45 0.930 . S
C52 N53 1.314 . S
C52 C54 1.353 . S
C52 H58 0.930 . S
N53 Li3 1.990 . S
N53 C52 1.314 . S
N53 C56 1.279 . S
C54 C52 1.353 . S
C54 C57 1.348 . S
C54 H86 0.929 . S
C55 C56 1.358 . S
C55 C57 1.356 . S
C55 H87 0.930 . S
C56 N53 1.279 . S
C56 C55 1.358 . S
C56 H59 0.930 . S
C57 C54 1.348 . S
C57 C55 1.356 . S
H58 C52 0.930 . S
H59 C56 0.930 . S
O60 Li0 1.956 . S
O60 Li1 1.970 . S
O60 Li2 1.961 . S
O60 C4 1.325 . S
O61 Li0 1.970 . S
O61 Li1 1.956 . S
O61 Li3 1.961 . S
O61 C10 1.325 . S
O62 Li0 1.961 . S
O62 Li2 1.956 . S
O62 Li3 1.970 . S
O62 C32 1.325 . S
O63 Li1 1.961 . S
O63 Li2 1.970 . S
O63 Li3 1.956 . S
O63 C38 1.325 . S
H64 C6 0.929 . S
H65 C7 0.930 . S
H66 C8 0.930 . S
H67 C9 0.930 1_556 S
H68 C11 0.930 . S
H69 C13 0.929 . S
H70 C14 0.930 . S
H71 C15 0.930 . S
H72 C18 0.930 . S
H73 C21 0.929 . S
H74 C26 0.929 . S
H75 C27 0.930 . S
H76 C34 0.929 . S
H77 C35 0.930 . S
H78 C36 0.930 . S
H79 C37 0.930 . S
H80 C39 0.929 . S
H81 C40 0.930 . S
H82 C41 0.930 . S
H83 C42 0.930 . S
H84 C46 0.929 . S
H85 C48 0.930 . S
H86 C54 0.929 . S
H87 C55 0.930 . S
Li88 N105 1.990 . S
Li88 O148 1.956 . S
Li88 O149 1.970 . S
Li88 O150 1.961 . S
Li89 N113 1.990 . S
Li89 O148 1.970 . S
Li89 O149 1.956 . S
Li89 O151 1.961 . S
Li90 N135 1.990 . S
Li90 O148 1.961 . S
Li90 O150 1.956 . S
Li90 O151 1.970 . S
Li91 N141 1.990 . S
Li91 O149 1.961 . S
Li91 O150 1.970 . S
Li91 O151 1.956 . S
C92 C94 1.348 . S
C92 C95 1.356 . S
C92 O148 1.325 . S
N93 C96 1.314 . S
N93 C97 1.279 . S
C94 C92 1.348 . S
C94 C96 1.353 . S
C94 H152 0.929 . S
C95 C92 1.356 . S
C95 C97 1.358 . S
C95 H153 0.930 . S
C96 N93 1.314 . S
C96 C94 1.353 . S
C96 H154 0.930 . S
C97 N93 1.279 . S
C97 C95 1.358 . S
C97 H155 0.930 . S
C98 C101 1.348 . S
C98 C102 1.356 . S
C98 O149 1.325 . S
C99 N100 1.279 . S
C99 C102 1.358 . S
C99 H156 0.930 . S
N100 C99 1.279 . S
N100 C103 1.314 . S
C101 C98 1.348 . S
C101 C103 1.353 . S
C101 H157 0.929 . S
C102 C98 1.356 . S
C102 C99 1.358 . S
C102 H158 0.930 . S
C103 N100 1.314 . S
C103 C101 1.353 . S
C103 H159 0.930 . S
C104 N105 1.314 . S
C104 C109 1.353 . S
C104 H110 0.930 . S
N105 Li88 1.990 . S
N105 C104 1.314 . S
N105 C107 1.279 . S
C106 C107 1.358 . S
C106 C108 1.356 . S
C106 H160 0.930 . S
C107 N105 1.279 . S
C107 C106 1.358 . S
C107 H111 0.930 . S
C108 C106 1.356 . S
C108 C109 1.348 . S
C109 C104 1.353 . S
C109 C108 1.348 . S
C109 H161 0.929 . S
H110 C104 0.930 . S
H111 C107 0.930 . S
C112 N113 1.314 . S
C112 C114 1.353 . S
C112 H118 0.930 . S
N113 Li89 1.990 . S
N113 C112 1.314 . S
N113 C116 1.279 . S
C114 C112 1.353 . S
C114 C117 1.348 . S
C114 H162 0.929 . S
C115 C116 1.358 . S
C115 C117 1.356 . S
C115 H163 0.930 . S
C116 N113 1.279 . S
C116 C115 1.358 . S
C116 H119 0.930 . S
C117 C114 1.348 . S
C117 C115 1.356 . S
H118 C112 0.930 . S
H119 C116 0.930 . S
C120 C122 1.348 . S
C120 C123 1.356 . S
C120 O150 1.325 . S
N121 C124 1.314 . S
N121 C125 1.279 . S
C122 C120 1.348 . S
C122 C124 1.353 . S
C122 H164 0.929 . S
C123 C120 1.356 . S
C123 C125 1.358 . S
C123 H165 0.930 . S
C124 N121 1.314 . S
C124 C122 1.353 . S
C124 H166 0.930 . S
C125 N121 1.279 . S
C125 C123 1.358 . S
C125 H167 0.930 . S
C126 C127 1.348 . S
C126 C128 1.356 . S
C126 O151 1.325 . S
C127 C126 1.348 . S
C127 C129 1.353 . S
C127 H168 0.929 . S
C128 C126 1.356 . S
C128 C130 1.358 . S
C128 H169 0.930 . S
C129 C127 1.353 . S
C129 N131 1.314 . S
C129 H170 0.930 . S
C130 C128 1.358 . S
C130 N131 1.279 . S
C130 H171 0.930 . S
N131 C129 1.314 . S
N131 C130 1.279 . S
C132 C134 1.353 . S
C132 N135 1.314 . S
C132 H138 0.930 . S
C133 N135 1.279 . S
C133 C136 1.358 . S
C133 H139 0.930 . S
C134 C132 1.353 . S
C134 C137 1.348 . S
C134 H172 0.929 . S
N135 Li90 1.990 . S
N135 C132 1.314 . S
N135 C133 1.279 . S
C136 C133 1.358 . S
C136 C137 1.356 . S
C136 H173 0.930 . S
C137 C134 1.348 . S
C137 C136 1.356 . S
H138 C132 0.930 . S
H139 C133 0.930 . S
C140 N141 1.314 . S
C140 C142 1.353 . S
C140 H146 0.930 . S
N141 Li91 1.990 . S
N141 C140 1.314 . S
N141 C144 1.279 . S
C142 C140 1.353 . S
C142 C145 1.348 . S
C142 H174 0.929 . S
C143 C144 1.358 . S
C143 C145 1.356 . S
C143 H175 0.930 . S
C144 N141 1.279 . S
C144 C143 1.358 . S
C144 H147 0.930 . S
C145 C142 1.348 . S
C145 C143 1.356 . S
H146 C140 0.930 . S
H147 C144 0.930 . S
O148 Li88 1.956 . S
O148 Li89 1.970 . S
O148 Li90 1.961 . S
O148 C92 1.325 . S
O149 Li88 1.970 . S
O149 Li89 1.956 . S
O149 Li91 1.961 . S
O149 C98 1.325 . S
O150 Li88 1.961 . S
O150 Li90 1.956 . S
O150 Li91 1.970 . S
O150 C120 1.325 . S
O151 Li89 1.961 . S
O151 Li90 1.970 . S
O151 Li91 1.956 . S
O151 C126 1.325 . S
H152 C94 0.929 . S
H153 C95 0.930 . S
H154 C96 0.930 . S
H155 C97 0.930 . S
H156 C99 0.930 . S
H157 C101 0.929 . S
H158 C102 0.930 . S
H159 C103 0.930 . S
H160 C106 0.930 . S
H161 C109 0.929 . S
H162 C114 0.929 . S
H163 C115 0.930 . S
H164 C122 0.929 . S
H165 C123 0.930 . S
H166 C124 0.930 . S
H167 C125 0.930 . S
H168 C127 0.929 . S
H169 C128 0.930 . S
H170 C129 0.930 . S
H171 C130 0.930 . S
H172 C134 0.929 . S
H173 C136 0.930 . S
H174 C142 0.929 . S
H175 C143 0.930 . S
Li176 N193 1.990 . S
Li176 O236 1.956 . S
Li176 O237 1.970 . S
Li176 O238 1.961 . S
Li177 N201 1.990 . S
Li177 O236 1.970 . S
Li177 O237 1.956 . S
Li177 O239 1.961 . S
Li178 N223 1.990 . S
Li178 O236 1.961 . S
Li178 O238 1.956 . S
Li178 O239 1.970 . S
Li179 N229 1.990 . S
Li179 O237 1.961 . S
Li179 O238 1.970 . S
Li179 O239 1.956 . S
C180 C182 1.348 . S
C180 C183 1.356 . S
C180 O236 1.325 . S
N181 C184 1.314 . S
N181 C185 1.279 . S
C182 C180 1.348 . S
C182 C184 1.353 . S
C182 H240 0.929 . S
C183 C180 1.356 . S
C183 C185 1.358 . S
C183 H241 0.930 . S
C184 N181 1.314 . S
C184 C182 1.353 . S
C184 H242 0.930 . S
C185 N181 1.279 . S
C185 C183 1.358 . S
C185 H243 0.930 . S
C186 C189 1.348 . S
C186 C190 1.356 . S
C186 O237 1.325 . S
C187 N188 1.279 . S
C187 C190 1.358 . S
C187 H244 0.930 . S
N188 C187 1.279 . S
N188 C191 1.314 . S
C189 C186 1.348 . S
C189 C191 1.353 . S
C189 H245 0.929 . S
C190 C186 1.356 . S
C190 C187 1.358 . S
C190 H246 0.930 . S
C191 N188 1.314 . S
C191 C189 1.353 . S
C191 H247 0.930 . S
C192 N193 1.314 . S
C192 C197 1.353 . S
C192 H198 0.930 . S
N193 Li176 1.990 . S
N193 C192 1.314 . S
N193 C195 1.279 . S
C194 C195 1.358 . S
C194 C196 1.356 . S
C194 H248 0.930 . S
C195 N193 1.279 . S
C195 C194 1.358 . S
C195 H199 0.930 . S
C196 C194 1.356 . S
C196 C197 1.348 . S
C197 C192 1.353 . S
C197 C196 1.348 . S
C197 H249 0.929 . S
H198 C192 0.930 . S
H199 C195 0.930 . S
C200 N201 1.314 . S
C200 C202 1.353 . S
C200 H206 0.930 . S
N201 Li177 1.990 . S
N201 C200 1.314 . S
N201 C204 1.279 . S
C202 C200 1.353 . S
C202 C205 1.348 . S
C202 H250 0.929 . S
C203 C204 1.358 . S
C203 C205 1.356 . S
C203 H251 0.930 . S
C204 N201 1.279 . S
C204 C203 1.358 . S
C204 H207 0.930 . S
C205 C202 1.348 . S
C205 C203 1.356 . S
H206 C200 0.930 . S
H207 C204 0.930 . S
C208 C210 1.348 . S
C208 C211 1.356 . S
C208 O238 1.325 . S
N209 C212 1.314 . S
N209 C213 1.279 . S
C210 C208 1.348 . S
C210 C212 1.353 . S
C210 H252 0.929 . S
C211 C208 1.356 . S
C211 C213 1.358 . S
C211 H253 0.930 . S
C212 N209 1.314 . S
C212 C210 1.353 . S
C212 H254 0.930 . S
C213 N209 1.279 . S
C213 C211 1.358 . S
C213 H255 0.930 . S
C214 C215 1.348 . S
C214 C216 1.356 . S
C214 O239 1.325 . S
C215 C214 1.348 . S
C215 C217 1.353 . S
C215 H256 0.929 . S
C216 C214 1.356 . S
C216 C218 1.358 . S
C216 H257 0.930 . S
C217 C215 1.353 . S
C217 N219 1.314 . S
C217 H258 0.930 . S
C218 C216 1.358 . S
C218 N219 1.279 . S
C218 H259 0.930 1_556 S
N219 C217 1.314 . S
N219 C218 1.279 . S
C220 C222 1.353 . S
C220 N223 1.314 . S
C220 H226 0.930 . S
C221 N223 1.279 . S
C221 C224 1.358 . S
C221 H227 0.930 . S
C222 C220 1.353 . S
C222 C225 1.348 . S
C222 H260 0.929 . S
N223 Li178 1.990 . S
N223 C220 1.314 . S
N223 C221 1.279 . S
C224 C221 1.358 . S
C224 C225 1.356 . S
C224 H261 0.930 . S
C225 C222 1.348 . S
C225 C224 1.356 . S
H226 C220 0.930 . S
H227 C221 0.930 . S
C228 N229 1.314 . S
C228 C230 1.353 . S
C228 H234 0.930 . S
N229 Li179 1.990 . S
N229 C228 1.314 . S
N229 C232 1.279 . S
C230 C228 1.353 . S
C230 C233 1.348 . S
C230 H262 0.929 . S
C231 C232 1.358 . S
C231 C233 1.356 . S
C231 H263 0.930 . S
C232 N229 1.279 . S
C232 C231 1.358 . S
C232 H235 0.930 . S
C233 C230 1.348 . S
C233 C231 1.356 . S
H234 C228 0.930 . S
H235 C232 0.930 . S
O236 Li176 1.956 . S
O236 Li177 1.970 . S
O236 Li178 1.961 . S
O236 C180 1.325 . S
O237 Li176 1.970 . S
O237 Li177 1.956 . S
O237 Li179 1.961 . S
O237 C186 1.325 . S
O238 Li176 1.961 . S
O238 Li178 1.956 . S
O238 Li179 1.970 . S
O238 C208 1.325 . S
O239 Li177 1.961 . S
O239 Li178 1.970 . S
O239 Li179 1.956 . S
O239 C214 1.325 . S
H240 C182 0.929 . S
H241 C183 0.930 . S
H242 C184 0.930 . S
H243 C185 0.930 . S
H244 C187 0.930 . S
H245 C189 0.929 . S
H246 C190 0.930 . S
H247 C191 0.930 . S
H248 C194 0.930 . S
H249 C197 0.929 . S
H250 C202 0.929 . S
H251 C203 0.930 . S
H252 C210 0.929 . S
H253 C211 0.930 . S
H254 C212 0.930 . S
H255 C213 0.930 . S
H256 C215 0.929 . S
H257 C216 0.930 . S
H258 C217 0.930 . S
H259 C218 0.930 1_554 S
H260 C222 0.929 . S
H261 C224 0.930 . S
H262 C230 0.929 . S
H263 C231 0.930 . S
Li264 N281 1.990 . S
Li264 O324 1.956 . S
Li264 O325 1.970 . S
Li264 O326 1.961 . S
Li265 N289 1.990 . S
Li265 O324 1.970 . S
Li265 O325 1.956 . S
Li265 O327 1.961 . S
Li266 N311 1.990 . S
Li266 O324 1.961 . S
Li266 O326 1.956 . S
Li266 O327 1.970 . S
Li267 N317 1.990 . S
Li267 O325 1.961 . S
Li267 O326 1.970 . S
Li267 O327 1.956 . S
C268 C270 1.348 . S
C268 C271 1.356 . S
C268 O324 1.325 . S
N269 C272 1.314 . S
N269 C273 1.279 . S
C270 C268 1.348 . S
C270 C272 1.353 . S
C270 H328 0.929 . S
C271 C268 1.356 . S
C271 C273 1.358 . S
C271 H329 0.930 . S
C272 N269 1.314 . S
C272 C270 1.353 . S
C272 H330 0.930 . S
C273 N269 1.279 . S
C273 C271 1.358 . S
C273 H331 0.930 . S
C274 C277 1.348 . S
C274 C278 1.356 . S
C274 O325 1.325 . S
C275 N276 1.279 . S
C275 C278 1.358 . S
C275 H332 0.930 . S
N276 C275 1.279 . S
N276 C279 1.314 . S
C277 C274 1.348 . S
C277 C279 1.353 . S
C277 H333 0.929 . S
C278 C274 1.356 . S
C278 C275 1.358 . S
C278 H334 0.930 . S
C279 N276 1.314 . S
C279 C277 1.353 . S
C279 H335 0.930 . S
C280 N281 1.314 . S
C280 C285 1.353 . S
C280 H286 0.930 . S
N281 Li264 1.990 . S
N281 C280 1.314 . S
N281 C283 1.279 . S
C282 C283 1.358 . S
C282 C284 1.356 . S
C282 H336 0.930 . S
C283 N281 1.279 . S
C283 C282 1.358 . S
C283 H287 0.930 . S
C284 C282 1.356 . S
C284 C285 1.348 . S
C285 C280 1.353 . S
C285 C284 1.348 . S
C285 H337 0.929 . S
H286 C280 0.930 . S
H287 C283 0.930 . S
C288 N289 1.314 . S
C288 C290 1.353 . S
C288 H294 0.930 . S
N289 Li265 1.990 . S
N289 C288 1.314 . S
N289 C292 1.279 . S
C290 C288 1.353 . S
C290 C293 1.348 . S
C290 H338 0.929 . S
C291 C292 1.358 . S
C291 C293 1.356 . S
C291 H339 0.930 . S
C292 N289 1.279 . S
C292 C291 1.358 . S
C292 H295 0.930 . S
C293 C290 1.348 . S
C293 C291 1.356 . S
H294 C288 0.930 . S
H295 C292 0.930 . S
C296 C298 1.348 . S
C296 C299 1.356 . S
C296 O326 1.325 . S
N297 C300 1.314 . S
N297 C301 1.279 . S
C298 C296 1.348 . S
C298 C300 1.353 . S
C298 H340 0.929 . S
C299 C296 1.356 . S
C299 C301 1.358 . S
C299 H341 0.930 . S
C300 N297 1.314 . S
C300 C298 1.353 . S
C300 H342 0.930 . S
C301 N297 1.279 . S
C301 C299 1.358 . S
C301 H343 0.930 . S
C302 C303 1.348 . S
C302 C304 1.356 . S
C302 O327 1.325 . S
C303 C302 1.348 . S
C303 C305 1.353 . S
C303 H344 0.929 . S
C304 C302 1.356 . S
C304 C306 1.358 . S
C304 H345 0.930 . S
C305 C303 1.353 . S
C305 N307 1.314 . S
C305 H346 0.930 . S
C306 C304 1.358 . S
C306 N307 1.279 . S
C306 H347 0.930 . S
N307 C305 1.314 . S
N307 C306 1.279 . S
C308 C310 1.353 . S
C308 N311 1.314 . S
C308 H314 0.930 . S
C309 N311 1.279 . S
C309 C312 1.358 . S
C309 H315 0.930 . S
C310 C308 1.353 . S
C310 C313 1.348 . S
C310 H348 0.929 . S
N311 Li266 1.990 . S
N311 C308 1.314 . S
N311 C309 1.279 . S
C312 C309 1.358 . S
C312 C313 1.356 . S
C312 H349 0.930 . S
C313 C310 1.348 . S
C313 C312 1.356 . S
H314 C308 0.930 . S
H315 C309 0.930 . S
C316 N317 1.314 . S
C316 C318 1.353 . S
C316 H322 0.930 . S
N317 Li267 1.990 . S
N317 C316 1.314 . S
N317 C320 1.279 . S
C318 C316 1.353 . S
C318 C321 1.348 . S
C318 H350 0.929 . S
C319 C320 1.358 . S
C319 C321 1.356 . S
C319 H351 0.930 . S
C320 N317 1.279 . S
C320 C319 1.358 . S
C320 H323 0.930 . S
C321 C318 1.348 . S
C321 C319 1.356 . S
H322 C316 0.930 . S
H323 C320 0.930 . S
O324 Li264 1.956 . S
O324 Li265 1.970 . S
O324 Li266 1.961 . S
O324 C268 1.325 . S
O325 Li264 1.970 . S
O325 Li265 1.956 . S
O325 Li267 1.961 . S
O325 C274 1.325 . S
O326 Li264 1.961 . S
O326 Li266 1.956 . S
O326 Li267 1.970 . S
O326 C296 1.325 . S
O327 Li265 1.961 . S
O327 Li266 1.970 . S
O327 Li267 1.956 . S
O327 C302 1.325 . S
H328 C270 0.929 . S
H329 C271 0.930 . S
H330 C272 0.930 . S
H331 C273 0.930 . S
H332 C275 0.930 . S
H333 C277 0.929 . S
H334 C278 0.930 . S
H335 C279 0.930 . S
H336 C282 0.930 . S
H337 C285 0.929 . S
H338 C290 0.929 . S
H339 C291 0.930 . S
H340 C298 0.929 . S
H341 C299 0.930 . S
H342 C300 0.930 . S
H343 C301 0.930 . S
H344 C303 0.929 . S
H345 C304 0.930 . S
H346 C305 0.930 . S
H347 C306 0.930 . S
H348 C310 0.929 . S
H349 C312 0.930 . S
H350 C318 0.929 . S
H351 C319 0.930 . S
Li352 N369 1.990 . S
Li352 O412 1.956 . S
Li352 O413 1.970 . S
Li352 O414 1.961 . S
Li353 N377 1.990 . S
Li353 O412 1.970 . S
Li353 O413 1.956 . S
Li353 O415 1.961 . S
Li354 N399 1.990 . S
Li354 O412 1.961 . S
Li354 O414 1.956 . S
Li354 O415 1.970 . S
Li355 N405 1.990 . S
Li355 O413 1.961 . S
Li355 O414 1.970 . S
Li355 O415 1.956 . S
C356 C358 1.348 . S
C356 C359 1.356 . S
C356 O412 1.325 . S
N357 C360 1.314 . S
N357 C361 1.279 . S
C358 C356 1.348 . S
C358 C360 1.353 . S
C358 H416 0.929 . S
C359 C356 1.356 . S
C359 C361 1.358 . S
C359 H417 0.930 . S
C360 N357 1.314 . S
C360 C358 1.353 . S
C360 H418 0.930 . S
C361 N357 1.279 . S
C361 C359 1.358 . S
C361 H419 0.930 . S
C362 C365 1.348 . S
C362 C366 1.356 . S
C362 O413 1.325 . S
C363 N364 1.279 . S
C363 C366 1.358 . S
C363 H420 0.930 . S
N364 C363 1.279 . S
N364 C367 1.314 . S
C365 C362 1.348 . S
C365 C367 1.353 . S
C365 H421 0.929 . S
C366 C362 1.356 . S
C366 C363 1.358 . S
C366 H422 0.930 . S
C367 N364 1.314 . S
C367 C365 1.353 . S
C367 H423 0.942 . S
C368 N369 1.314 . S
C368 C373 1.353 . S
C368 H374 0.930 . S
N369 Li352 1.990 . S
N369 C368 1.314 . S
N369 C371 1.279 . S
C370 C371 1.358 . S
C370 C372 1.356 . S
C370 H424 0.930 . S
C371 N369 1.279 . S
C371 C370 1.358 . S
C371 H375 0.930 . S
C372 C370 1.356 . S
C372 C373 1.348 . S
C373 C368 1.353 . S
C373 C372 1.348 . S
C373 H425 0.929 . S
H374 C368 0.930 . S
H375 C371 0.930 . S
C376 N377 1.314 . S
C376 C378 1.353 . S
C376 H382 0.930 . S
N377 Li353 1.990 . S
N377 C376 1.314 . S
N377 C380 1.279 . S
C378 C376 1.353 . S
C378 C381 1.348 . S
C378 H426 0.929 . S
C379 C380 1.358 . S
C379 C381 1.356 . S
C379 H427 0.930 . S
C380 N377 1.279 . S
C380 C379 1.358 . S
C380 H383 0.930 . S
C381 C378 1.348 . S
C381 C379 1.356 . S
H382 C376 0.930 . S
H383 C380 0.930 . S
C384 C386 1.348 . S
C384 C387 1.356 . S
C384 O414 1.325 . S
N385 C388 1.314 . S
N385 C389 1.279 . S
C386 C384 1.348 . S
C386 C388 1.353 . S
C386 H428 0.929 . S
C387 C384 1.356 . S
C387 C389 1.358 . S
C387 H429 0.930 . S
C388 N385 1.314 . S
C388 C386 1.353 . S
C388 H430 0.930 . S
C389 N385 1.279 . S
C389 C387 1.358 . S
C389 H431 0.930 . S
C390 C391 1.348 . S
C390 C392 1.356 . S
C390 O415 1.325 . S
C391 C390 1.348 . S
C391 C393 1.353 . S
C391 H432 0.929 . S
C392 C390 1.356 . S
C392 C394 1.358 . S
C392 H433 0.930 . S
C393 C391 1.353 . S
C393 N395 1.314 . S
C393 H434 0.930 . S
C394 C392 1.358 . S
C394 N395 1.279 . S
C394 H435 0.930 . S
N395 C393 1.314 . S
N395 C394 1.279 . S
C396 C398 1.353 . S
C396 N399 1.314 . S
C396 H402 0.930 . S
C397 N399 1.279 . S
C397 C400 1.358 . S
C397 H403 0.930 . S
C398 C396 1.353 . S
C398 C401 1.348 . S
C398 H436 0.929 . S
N399 Li354 1.990 . S
N399 C396 1.314 . S
N399 C397 1.279 . S
C400 C397 1.358 . S
C400 C401 1.356 . S
C400 H437 0.930 . S
C401 C398 1.348 . S
C401 C400 1.356 . S
H402 C396 0.930 . S
H403 C397 0.930 . S
C404 N405 1.314 . S
C404 C406 1.353 . S
C404 H410 0.930 . S
N405 Li355 1.990 . S
N405 C404 1.314 . S
N405 C408 1.279 . S
C406 C404 1.353 . S
C406 C409 1.348 . S
C406 H438 0.929 . S
C407 C408 1.358 . S
C407 C409 1.356 . S
C407 H439 0.930 . S
C408 N405 1.279 . S
C408 C407 1.358 . S
C408 H411 0.930 . S
C409 C406 1.348 . S
C409 C407 1.356 . S
H410 C404 0.930 . S
H411 C408 0.930 . S
O412 Li352 1.956 . S
O412 Li353 1.970 . S
O412 Li354 1.961 . S
O412 C356 1.325 . S
O413 Li352 1.970 . S
O413 Li353 1.956 . S
O413 Li355 1.961 . S
O413 C362 1.325 . S
O414 Li352 1.961 . S
O414 Li354 1.956 . S
O414 Li355 1.970 . S
O414 C384 1.325 . S
O415 Li353 1.961 . S
O415 Li354 1.970 . S
O415 Li355 1.956 . S
O415 C390 1.325 . S
H416 C358 0.929 . S
H417 C359 0.930 . S
H418 C360 0.930 . S
H419 C361 0.930 . S
H420 C363 0.930 . S
H421 C365 0.929 . S
H422 C366 0.930 . S
H423 C367 0.942 . S
H424 C370 0.930 . S
H425 C373 0.929 . S
H426 C378 0.929 . S
H427 C379 0.930 . S
H428 C386 0.929 . S
H429 C387 0.930 . S
H430 C388 0.930 . S
H431 C389 0.930 . S
H432 C391 0.929 . S
H433 C392 0.930 . S
H434 C393 0.930 . S
H435 C394 0.930 . S
H436 C398 0.929 . S
H437 C400 0.930 . S
H438 C406 0.929 . S
H439 C407 0.930 . S
Li440 N457 1.990 . S
Li440 O500 1.956 . S
Li440 O501 1.970 . S
Li440 O502 1.961 . S
Li441 N465 1.990 . S
Li441 O500 1.970 . S
Li441 O501 1.956 . S
Li441 O503 1.961 . S
Li442 N487 1.990 . S
Li442 O500 1.961 . S
Li442 O502 1.956 . S
Li442 O503 1.970 . S
Li443 N493 1.990 . S
Li443 O501 1.961 . S
Li443 O502 1.970 . S
Li443 O503 1.956 . S
C444 C446 1.348 . S
C444 C447 1.356 . S
C444 O500 1.325 . S
N445 C448 1.314 . S
N445 C449 1.279 . S
C446 C444 1.348 . S
C446 C448 1.353 . S
C446 H504 0.929 . S
C447 C444 1.356 . S
C447 C449 1.358 . S
C447 H505 0.930 . S
C448 N445 1.314 . S
C448 C446 1.353 . S
C448 H506 0.930 . S
C449 N445 1.279 . S
C449 C447 1.358 . S
C449 H507 0.930 . S
C450 C453 1.348 . S
C450 C454 1.356 . S
C450 O501 1.325 . S
C451 N452 1.279 . S
C451 C454 1.358 . S
C451 H508 0.930 . S
N452 C451 1.279 . S
N452 C455 1.314 . S
C453 C450 1.348 . S
C453 C455 1.353 . S
C453 H509 0.929 . S
C454 C450 1.356 . S
C454 C451 1.358 . S
C454 H510 0.930 . S
C455 N452 1.314 . S
C455 C453 1.353 . S
C455 H511 0.930 . S
C456 N457 1.314 . S
C456 C461 1.353 . S
C456 H462 0.930 . S
N457 Li440 1.990 . S
N457 C456 1.314 . S
N457 C459 1.279 . S
C458 C459 1.358 . S
C458 C460 1.356 . S
C458 H512 0.930 . S
C459 N457 1.279 . S
C459 C458 1.358 . S
C459 H463 0.930 . S
C460 C458 1.356 . S
C460 C461 1.348 . S
C461 C456 1.353 . S
C461 C460 1.348 . S
C461 H513 0.929 . S
H462 C456 0.930 . S
H463 C459 0.930 . S
C464 N465 1.314 . S
C464 C466 1.353 . S
C464 H470 0.930 . S
N465 Li441 1.990 . S
N465 C464 1.314 . S
N465 C468 1.279 . S
C466 C464 1.353 . S
C466 C469 1.348 . S
C466 H514 0.929 . S
C467 C468 1.358 . S
C467 C469 1.356 . S
C467 H515 0.930 . S
C468 N465 1.279 . S
C468 C467 1.358 . S
C468 H471 0.930 . S
C469 C466 1.348 . S
C469 C467 1.356 . S
H470 C464 0.930 . S
H471 C468 0.930 . S
C472 C474 1.348 . S
C472 C475 1.356 . S
C472 O502 1.325 . S
N473 C476 1.314 . S
N473 C477 1.279 . S
C474 C472 1.348 . S
C474 C476 1.353 . S
C474 H516 0.929 . S
C475 C472 1.356 . S
C475 C477 1.358 . S
C475 H517 0.930 . S
C476 N473 1.314 . S
C476 C474 1.353 . S
C476 H518 0.930 . S
C477 N473 1.279 . S
C477 C475 1.358 . S
C477 H519 0.930 . S
C478 C479 1.348 . S
C478 C480 1.356 . S
C478 O503 1.325 . S
C479 C478 1.348 . S
C479 C481 1.353 . S
C479 H520 0.929 . S
C480 C478 1.356 . S
C480 C482 1.358 . S
C480 H521 0.930 . S
C481 C479 1.353 . S
C481 N483 1.314 . S
C481 H522 0.930 . S
C482 C480 1.358 . S
C482 N483 1.279 . S
C482 H523 0.930 . S
N483 C481 1.314 . S
N483 C482 1.279 . S
C484 C486 1.353 . S
C484 N487 1.314 . S
C484 H490 0.930 . S
C485 N487 1.279 . S
C485 C488 1.358 . S
C485 H491 0.930 . S
C486 C484 1.353 . S
C486 C489 1.348 . S
C486 H524 0.929 . S
N487 Li442 1.990 . S
N487 C484 1.314 . S
N487 C485 1.279 . S
C488 C485 1.358 . S
C488 C489 1.356 . S
C488 H525 0.930 . S
C489 C486 1.348 . S
C489 C488 1.356 . S
H490 C484 0.930 . S
H491 C485 0.930 . S
C492 N493 1.314 . S
C492 C494 1.353 . S
C492 H498 0.930 . S
N493 Li443 1.990 . S
N493 C492 1.314 . S
N493 C496 1.279 . S
C494 C492 1.353 . S
C494 C497 1.348 . S
C494 H526 0.929 . S
C495 C496 1.358 . S
C495 C497 1.356 . S
C495 H527 0.930 . S
C496 N493 1.279 . S
C496 C495 1.358 . S
C496 H499 0.930 . S
C497 C494 1.348 . S
C497 C495 1.356 . S
H498 C492 0.930 . S
H499 C496 0.930 . S
O500 Li440 1.956 . S
O500 Li441 1.970 . S
O500 Li442 1.961 . S
O500 C444 1.325 . S
O501 Li440 1.970 . S
O501 Li441 1.956 . S
O501 Li443 1.961 . S
O501 C450 1.325 . S
O502 Li440 1.961 . S
O502 Li442 1.956 . S
O502 Li443 1.970 . S
O502 C472 1.325 . S
O503 Li441 1.961 . S
O503 Li442 1.970 . S
O503 Li443 1.956 . S
O503 C478 1.325 . S
H504 C446 0.929 . S
H505 C447 0.930 . S
H506 C448 0.930 . S
H507 C449 0.930 . S
H508 C451 0.930 . S
H509 C453 0.929 . S
H510 C454 0.930 . S
H511 C455 0.930 . S
H512 C458 0.930 . S
H513 C461 0.929 . S
H514 C466 0.929 . S
H515 C467 0.930 . S
H516 C474 0.929 . S
H517 C475 0.930 . S
H518 C476 0.930 . S
H519 C477 0.930 . S
H520 C479 0.929 . S
H521 C480 0.930 . S
H522 C481 0.930 . S
H523 C482 0.930 . S
H524 C486 0.929 . S
H525 C488 0.930 . S
H526 C494 0.929 . S
H527 C495 0.930 . S
Li528 N545 1.990 . S
Li528 O588 1.956 . S
Li528 O589 1.970 . S
Li528 O590 1.961 . S
Li529 N553 1.990 . S
Li529 O588 1.970 . S
Li529 O589 1.956 . S
Li529 O591 1.961 . S
Li530 N575 1.990 . S
Li530 O588 1.961 . S
Li530 O590 1.956 . S
Li530 O591 1.970 . S
Li531 N581 1.990 . S
Li531 O589 1.961 . S
Li531 O590 1.970 . S
Li531 O591 1.956 . S
C532 C534 1.348 . S
C532 C535 1.356 . S
C532 O588 1.325 . S
N533 C536 1.314 . S
N533 C537 1.279 . S
C534 C532 1.348 . S
C534 C536 1.353 . S
C534 H592 0.929 . S
C535 C532 1.356 . S
C535 C537 1.358 . S
C535 H593 0.930 . S
C536 N533 1.314 . S
C536 C534 1.353 . S
C536 H594 0.930 . S
C537 N533 1.279 . S
C537 C535 1.358 . S
C537 H595 0.930 . S
C538 C541 1.348 . S
C538 C542 1.356 . S
C538 O589 1.325 . S
C539 N540 1.279 . S
C539 C542 1.358 . S
C539 H596 0.930 . S
N540 C539 1.279 . S
N540 C543 1.314 . S
C541 C538 1.348 . S
C541 C543 1.353 . S
C541 H597 0.929 . S
C542 C538 1.356 . S
C542 C539 1.358 . S
C542 H598 0.930 . S
C543 N540 1.314 . S
C543 C541 1.353 . S
C543 H599 0.930 . S
C544 N545 1.314 . S
C544 C549 1.353 . S
C544 H550 0.930 . S
N545 Li528 1.990 . S
N545 C544 1.314 . S
N545 C547 1.279 . S
C546 C547 1.358 . S
C546 C548 1.356 . S
C546 H600 0.930 . S
C547 N545 1.279 . S
C547 C546 1.358 . S
C547 H551 0.930 . S
C548 C546 1.356 . S
C548 C549 1.348 . S
C549 C544 1.353 . S
C549 C548 1.348 . S
C549 H601 0.929 . S
H550 C544 0.930 . S
H551 C547 0.930 . S
C552 N553 1.314 . S
C552 C554 1.353 . S
C552 H558 0.930 . S
N553 Li529 1.990 . S
N553 C552 1.314 . S
N553 C556 1.279 . S
C554 C552 1.353 . S
C554 C557 1.348 . S
C554 H602 0.929 . S
C555 C556 1.358 . S
C555 C557 1.356 . S
C555 H603 0.930 . S
C556 N553 1.279 . S
C556 C555 1.358 . S
C556 H559 0.930 . S
C557 C554 1.348 . S
C557 C555 1.356 . S
H558 C552 0.930 . S
H559 C556 0.930 . S
C560 C562 1.348 . S
C560 C563 1.356 . S
C560 O590 1.325 . S
N561 C564 1.314 . S
N561 C565 1.279 . S
C562 C560 1.348 . S
C562 C564 1.353 . S
C562 H604 0.929 . S
C563 C560 1.356 . S
C563 C565 1.358 . S
C563 H605 0.930 . S
C564 N561 1.314 . S
C564 C562 1.353 . S
C564 H606 0.942 . S
C565 N561 1.279 . S
C565 C563 1.358 . S
C565 H607 0.930 . S
C566 C567 1.348 . S
C566 C568 1.356 . S
C566 O591 1.325 . S
C567 C566 1.348 . S
C567 C569 1.353 . S
C567 H608 0.929 . S
C568 C566 1.356 . S
C568 C570 1.358 . S
C568 H609 0.930 . S
C569 C567 1.353 . S
C569 N571 1.314 . S
C569 H610 0.930 . S
C570 C568 1.358 . S
C570 N571 1.279 . S
C570 H611 0.930 . S
N571 C569 1.314 . S
N571 C570 1.279 . S
C572 C574 1.353 . S
C572 N575 1.314 . S
C572 H578 0.930 . S
C573 N575 1.279 . S
C573 C576 1.358 . S
C573 H579 0.930 . S
C574 C572 1.353 . S
C574 C577 1.348 . S
C574 H612 0.929 . S
N575 Li530 1.990 . S
N575 C572 1.314 . S
N575 C573 1.279 . S
C576 C573 1.358 . S
C576 C577 1.356 . S
C576 H613 0.930 . S
C577 C574 1.348 . S
C577 C576 1.356 . S
H578 C572 0.930 . S
H579 C573 0.930 . S
C580 N581 1.314 . S
C580 C582 1.353 . S
C580 H586 0.930 . S
N581 Li531 1.990 . S
N581 C580 1.314 . S
N581 C584 1.279 . S
C582 C580 1.353 . S
C582 C585 1.348 . S
C582 H614 0.929 . S
C583 C584 1.358 . S
C583 C585 1.356 . S
C583 H615 0.930 . S
C584 N581 1.279 . S
C584 C583 1.358 . S
C584 H587 0.930 . S
C585 C582 1.348 . S
C585 C583 1.356 . S
H586 C580 0.930 . S
H587 C584 0.930 . S
O588 Li528 1.956 . S
O588 Li529 1.970 . S
O588 Li530 1.961 . S
O588 C532 1.325 . S
O589 Li528 1.970 . S
O589 Li529 1.956 . S
O589 Li531 1.961 . S
O589 C538 1.325 . S
O590 Li528 1.961 . S
O590 Li530 1.956 . S
O590 Li531 1.970 . S
O590 C560 1.325 . S
O591 Li529 1.961 . S
O591 Li530 1.970 . S
O591 Li531 1.956 . S
O591 C566 1.325 . S
H592 C534 0.929 . S
H593 C535 0.930 . S
H594 C536 0.930 . S
H595 C537 0.930 . S
H596 C539 0.930 . S
H597 C541 0.929 . S
H598 C542 0.930 . S
H599 C543 0.930 . S
H600 C546 0.930 . S
H601 C549 0.929 . S
H602 C554 0.929 . S
H603 C555 0.930 . S
H604 C562 0.929 . S
H605 C563 0.930 . S
H606 C564 0.942 . S
H607 C565 0.930 . S
H608 C567 0.929 . S
H609 C568 0.930 . S
H610 C569 0.930 . S
H611 C570 0.930 . S
H612 C574 0.929 . S
H613 C576 0.930 . S
H614 C582 0.929 . S
H615 C583 0.930 . S
Li616 N633 1.990 . S
Li616 O676 1.956 . S
Li616 O677 1.970 . S
Li616 O678 1.961 . S
Li617 N641 1.990 . S
Li617 O676 1.970 . S
Li617 O677 1.956 . S
Li617 O679 1.961 . S
Li618 N663 1.990 . S
Li618 O676 1.961 . S
Li618 O678 1.956 . S
Li618 O679 1.970 . S
Li619 N669 1.990 . S
Li619 O677 1.961 . S
Li619 O678 1.970 . S
Li619 O679 1.956 . S
C620 C622 1.348 . S
C620 C623 1.356 . S
C620 O676 1.325 . S
N621 C624 1.314 . S
N621 C625 1.279 . S
C622 C620 1.348 . S
C622 C624 1.353 . S
C622 H680 0.929 . S
C623 C620 1.356 . S
C623 C625 1.358 . S
C623 H681 0.930 . S
C624 N621 1.314 . S
C624 C622 1.353 . S
C624 H682 0.930 . S
C625 N621 1.279 . S
C625 C623 1.358 . S
C625 H683 0.930 . S
C626 C629 1.348 . S
C626 C630 1.356 . S
C626 O677 1.325 . S
C627 N628 1.279 . S
C627 C630 1.358 . S
C627 H684 0.930 . S
N628 C627 1.279 . S
N628 C631 1.314 . S
C629 C626 1.348 . S
C629 C631 1.353 . S
C629 H685 0.929 . S
C630 C626 1.356 . S
C630 C627 1.358 . S
C630 H686 0.930 . S
C631 N628 1.314 . S
C631 C629 1.353 . S
C631 H687 0.930 . S
C632 N633 1.314 . S
C632 C637 1.353 . S
C632 H638 0.930 . S
N633 Li616 1.990 . S
N633 C632 1.314 . S
N633 C635 1.279 . S
C634 C635 1.358 . S
C634 C636 1.356 . S
C634 H688 0.930 . S
C635 N633 1.279 . S
C635 C634 1.358 . S
C635 H639 0.930 . S
C636 C634 1.356 . S
C636 C637 1.348 . S
C637 C632 1.353 . S
C637 C636 1.348 . S
C637 H689 0.929 . S
H638 C632 0.930 . S
H639 C635 0.930 . S
C640 N641 1.314 . S
C640 C642 1.353 . S
C640 H646 0.930 . S
N641 Li617 1.990 . S
N641 C640 1.314 . S
N641 C644 1.279 . S
C642 C640 1.353 . S
C642 C645 1.348 . S
C642 H690 0.929 . S
C643 C644 1.358 . S
C643 C645 1.356 . S
C643 H691 0.930 . S
C644 N641 1.279 . S
C644 C643 1.358 . S
C644 H647 0.930 . S
C645 C642 1.348 . S
C645 C643 1.356 . S
H646 C640 0.930 . S
H647 C644 0.930 . S
C648 C650 1.348 . S
C648 C651 1.356 . S
C648 O678 1.325 . S
N649 C652 1.314 . S
N649 C653 1.279 . S
C650 C648 1.348 . S
C650 C652 1.353 . S
C650 H692 0.929 . S
C651 C648 1.356 . S
C651 C653 1.358 . S
C651 H693 0.930 . S
C652 N649 1.314 . S
C652 C650 1.353 . S
C652 H694 0.930 . S
C653 N649 1.279 . S
C653 C651 1.358 . S
C653 H695 0.930 . S
C654 C655 1.348 . S
C654 C656 1.356 . S
C654 O679 1.325 . S
C655 C654 1.348 . S
C655 C657 1.353 . S
C655 H696 0.929 . S
C656 C654 1.356 . S
C656 C658 1.358 . S
C656 H697 0.930 . S
C657 C655 1.353 . S
C657 N659 1.314 . S
C657 H698 0.930 . S
C658 C656 1.358 . S
C658 N659 1.279 . S
C658 H699 0.930 . S
N659 C657 1.314 . S
N659 C658 1.279 . S
C660 C662 1.353 . S
C660 N663 1.314 . S
C660 H666 0.930 . S
C661 N663 1.279 . S
C661 C664 1.358 . S
C661 H667 0.930 . S
C662 C660 1.353 . S
C662 C665 1.348 . S
C662 H700 0.929 . S
N663 Li618 1.990 . S
N663 C660 1.314 . S
N663 C661 1.279 . S
C664 C661 1.358 . S
C664 C665 1.356 . S
C664 H701 0.930 . S
C665 C662 1.348 . S
C665 C664 1.356 . S
H666 C660 0.930 . S
H667 C661 0.930 . S
C668 N669 1.314 . S
C668 C670 1.353 . S
C668 H674 0.930 . S
N669 Li619 1.990 . S
N669 C668 1.314 . S
N669 C672 1.279 . S
C670 C668 1.353 . S
C670 C673 1.348 . S
C670 H702 0.929 . S
C671 C672 1.358 . S
C671 C673 1.356 . S
C671 H703 0.930 . S
C672 N669 1.279 . S
C672 C671 1.358 . S
C672 H675 0.930 . S
C673 C670 1.348 . S
C673 C671 1.356 . S
H674 C668 0.930 . S
H675 C672 0.930 . S
O676 Li616 1.956 . S
O676 Li617 1.970 . S
O676 Li618 1.961 . S
O676 C620 1.325 . S
O677 Li616 1.970 . S
O677 Li617 1.956 . S
O677 Li619 1.961 . S
O677 C626 1.325 . S
O678 Li616 1.961 . S
O678 Li618 1.956 . S
O678 Li619 1.970 . S
O678 C648 1.325 . S
O679 Li617 1.961 . S
O679 Li618 1.970 . S
O679 Li619 1.956 . S
O679 C654 1.325 . S
H680 C622 0.929 . S
H681 C623 0.930 . S
H682 C624 0.930 . S
H683 C625 0.930 . S
H684 C627 0.930 . S
H685 C629 0.929 . S
H686 C630 0.930 . S
H687 C631 0.930 . S
H688 C634 0.930 . S
H689 C637 0.929 . S
H690 C642 0.929 . S
H691 C643 0.930 . S
H692 C650 0.929 . S
H693 C651 0.930 . S
H694 C652 0.930 . S
H695 C653 0.930 . S
H696 C655 0.929 . S
H697 C656 0.930 . S
H698 C657 0.930 . S
H699 C658 0.930 . S
H700 C662 0.929 . S
H701 C664 0.930 . S
H702 C670 0.929 . S
H703 C671 0.930 . S
Li704 N721 1.990 . S
Li704 O764 1.956 . S
Li704 O765 1.970 . S
Li704 O766 1.961 . S
Li705 N729 1.990 . S
Li705 O764 1.970 . S
Li705 O765 1.956 . S
Li705 O767 1.961 . S
Li706 N751 1.990 . S
Li706 O764 1.961 . S
Li706 O766 1.956 . S
Li706 O767 1.970 . S
Li707 N757 1.990 . S
Li707 O765 1.961 . S
Li707 O766 1.970 . S
Li707 O767 1.956 . S
C708 C710 1.348 . S
C708 C711 1.356 . S
C708 O764 1.325 . S
N709 C712 1.314 . S
N709 C713 1.279 . S
C710 C708 1.348 . S
C710 C712 1.353 . S
C710 H768 0.929 . S
C711 C708 1.356 . S
C711 C713 1.358 . S
C711 H769 0.930 . S
C712 N709 1.314 . S
C712 C710 1.353 . S
C712 H770 0.930 . S
C713 N709 1.279 . S
C713 C711 1.358 . S
C713 H771 0.930 1_554 S
C714 C717 1.348 . S
C714 C718 1.356 . S
C714 O765 1.325 . S
C715 N716 1.279 . S
C715 C718 1.358 . S
C715 H772 0.930 . S
N716 C715 1.279 . S
N716 C719 1.314 . S
C717 C714 1.348 . S
C717 C719 1.353 . S
C717 H773 0.929 . S
C718 C714 1.356 . S
C718 C715 1.358 . S
C718 H774 0.930 . S
C719 N716 1.314 . S
C719 C717 1.353 . S
C719 H775 0.930 . S
C720 N721 1.314 . S
C720 C725 1.353 . S
C720 H726 0.930 . S
N721 Li704 1.990 . S
N721 C720 1.314 . S
N721 C723 1.279 . S
C722 C723 1.358 . S
C722 C724 1.356 . S
C722 H776 0.930 . S
C723 N721 1.279 . S
C723 C722 1.358 . S
C723 H727 0.930 . S
C724 C722 1.356 . S
C724 C725 1.348 . S
C725 C720 1.353 . S
C725 C724 1.348 . S
C725 H777 0.929 . S
H726 C720 0.930 . S
H727 C723 0.930 . S
C728 N729 1.314 . S
C728 C730 1.353 . S
C728 H734 0.930 . S
N729 Li705 1.990 . S
N729 C728 1.314 . S
N729 C732 1.279 . S
C730 C728 1.353 . S
C730 C733 1.348 . S
C730 H778 0.929 . S
C731 C732 1.358 . S
C731 C733 1.356 . S
C731 H779 0.930 . S
C732 N729 1.279 . S
C732 C731 1.358 . S
C732 H735 0.930 . S
C733 C730 1.348 . S
C733 C731 1.356 . S
H734 C728 0.930 . S
H735 C732 0.930 . S
C736 C738 1.348 . S
C736 C739 1.356 . S
C736 O766 1.325 . S
N737 C740 1.314 . S
N737 C741 1.279 . S
C738 C736 1.348 . S
C738 C740 1.353 . S
C738 H780 0.929 . S
C739 C736 1.356 . S
C739 C741 1.358 . S
C739 H781 0.930 . S
C740 N737 1.314 . S
C740 C738 1.353 . S
C740 H782 0.930 . S
C741 N737 1.279 . S
C741 C739 1.358 . S
C741 H783 0.930 . S
C742 C743 1.348 . S
C742 C744 1.356 . S
C742 O767 1.325 . S
C743 C742 1.348 . S
C743 C745 1.353 . S
C743 H784 0.929 . S
C744 C742 1.356 . S
C744 C746 1.358 . S
C744 H785 0.930 . S
C745 C743 1.353 . S
C745 N747 1.314 . S
C745 H786 0.930 . S
C746 C744 1.358 . S
C746 N747 1.279 . S
C746 H787 0.930 . S
N747 C745 1.314 . S
N747 C746 1.279 . S
C748 C750 1.353 . S
C748 N751 1.314 . S
C748 H754 0.930 . S
C749 N751 1.279 . S
C749 C752 1.358 . S
C749 H755 0.930 . S
C750 C748 1.353 . S
C750 C753 1.348 . S
C750 H788 0.929 . S
N751 Li706 1.990 . S
N751 C748 1.314 . S
N751 C749 1.279 . S
C752 C749 1.358 . S
C752 C753 1.356 . S
C752 H789 0.930 . S
C753 C750 1.348 . S
C753 C752 1.356 . S
H754 C748 0.930 . S
H755 C749 0.930 . S
C756 N757 1.314 . S
C756 C758 1.353 . S
C756 H762 0.930 . S
N757 Li707 1.990 . S
N757 C756 1.314 . S
N757 C760 1.279 . S
C758 C756 1.353 . S
C758 C761 1.348 . S
C758 H790 0.929 . S
C759 C760 1.358 . S
C759 C761 1.356 . S
C759 H791 0.930 . S
C760 N757 1.279 . S
C760 C759 1.358 . S
C760 H763 0.930 . S
C761 C758 1.348 . S
C761 C759 1.356 . S
H762 C756 0.930 . S
H763 C760 0.930 . S
O764 Li704 1.956 . S
O764 Li705 1.970 . S
O764 Li706 1.961 . S
O764 C708 1.325 . S
O765 Li704 1.970 . S
O765 Li705 1.956 . S
O765 Li707 1.961 . S
O765 C714 1.325 . S
O766 Li704 1.961 . S
O766 Li706 1.956 . S
O766 Li707 1.970 . S
O766 C736 1.325 . S
O767 Li705 1.961 . S
O767 Li706 1.970 . S
O767 Li707 1.956 . S
O767 C742 1.325 . S
H768 C710 0.929 . S
H769 C711 0.930 . S
H770 C712 0.930 . S
H771 C713 0.930 1_556 S
H772 C715 0.930 . S
H773 C717 0.929 . S
H774 C718 0.930 . S
H775 C719 0.930 . S
H776 C722 0.930 . S
H777 C725 0.929 . S
H778 C730 0.929 . S
H779 C731 0.930 . S
H780 C738 0.929 . S
H781 C739 0.930 . S
H782 C740 0.930 . S
H783 C741 0.930 . S
H784 C743 0.929 . S
H785 C744 0.930 . S
H786 C745 0.930 . S
H787 C746 0.930 . S
H788 C750 0.929 . S
H789 C752 0.930 . S
H790 C758 0.929 . S
H791 C759 0.930 . S
Li792 N809 1.990 . S
Li792 O852 1.956 . S
Li792 O853 1.970 . S
Li792 O854 1.961 . S
Li793 N817 1.990 . S
Li793 O852 1.970 . S
Li793 O853 1.956 . S
Li793 O855 1.961 . S
Li794 N839 1.990 . S
Li794 O852 1.961 . S
Li794 O854 1.956 . S
Li794 O855 1.970 . S
Li795 N845 1.990 . S
Li795 O853 1.961 . S
Li795 O854 1.970 . S
Li795 O855 1.956 . S
C796 C798 1.348 . S
C796 C799 1.356 . S
C796 O852 1.325 . S
N797 C800 1.314 . S
N797 C801 1.279 . S
C798 C796 1.348 . S
C798 C800 1.353 . S
C798 H856 0.929 . S
C799 C796 1.356 . S
C799 C801 1.358 . S
C799 H857 0.930 . S
C800 N797 1.314 . S
C800 C798 1.353 . S
C800 H858 0.930 . S
C801 N797 1.279 . S
C801 C799 1.358 . S
C801 H859 0.930 . S
C802 C805 1.348 . S
C802 C806 1.356 . S
C802 O853 1.325 . S
C803 N804 1.279 . S
C803 C806 1.358 . S
C803 H860 0.930 . S
N804 C803 1.279 . S
N804 C807 1.314 . S
C805 C802 1.348 . S
C805 C807 1.353 . S
C805 H861 0.929 . S
C806 C802 1.356 . S
C806 C803 1.358 . S
C806 H862 0.930 . S
C807 N804 1.314 . S
C807 C805 1.353 . S
C807 H863 0.930 . S
C808 N809 1.314 . S
C808 C813 1.353 . S
C808 H814 0.930 . S
N809 Li792 1.990 . S
N809 C808 1.314 . S
N809 C811 1.279 . S
C810 C811 1.358 . S
C810 C812 1.356 . S
C810 H864 0.930 . S
C811 N809 1.279 . S
C811 C810 1.358 . S
C811 H815 0.930 . S
C812 C810 1.356 . S
C812 C813 1.348 . S
C813 C808 1.353 . S
C813 C812 1.348 . S
C813 H865 0.929 . S
H814 C808 0.930 . S
H815 C811 0.930 . S
C816 N817 1.314 . S
C816 C818 1.353 . S
C816 H822 0.930 . S
N817 Li793 1.990 . S
N817 C816 1.314 . S
N817 C820 1.279 . S
C818 C816 1.353 . S
C818 C821 1.348 . S
C818 H866 0.929 . S
C819 C820 1.358 . S
C819 C821 1.356 . S
C819 H867 0.930 . S
C820 N817 1.279 . S
C820 C819 1.358 . S
C820 H823 0.930 . S
C821 C818 1.348 . S
C821 C819 1.356 . S
H822 C816 0.930 . S
H823 C820 0.930 . S
C824 C826 1.348 . S
C824 C827 1.356 . S
C824 O854 1.325 . S
N825 C828 1.314 . S
N825 C829 1.279 . S
C826 C824 1.348 . S
C826 C828 1.353 . S
C826 H868 0.929 . S
C827 C824 1.356 . S
C827 C829 1.358 . S
C827 H869 0.930 . S
C828 N825 1.314 . S
C828 C826 1.353 . S
C828 H870 0.930 . S
C829 N825 1.279 . S
C829 C827 1.358 . S
C829 H871 0.930 . S
C830 C831 1.348 . S
C830 C832 1.356 . S
C830 O855 1.325 . S
C831 C830 1.348 . S
C831 C833 1.353 . S
C831 H872 0.929 . S
C832 C830 1.356 . S
C832 C834 1.358 . S
C832 H873 0.930 . S
C833 C831 1.353 . S
C833 N835 1.314 . S
C833 H874 0.930 . S
C834 C832 1.358 . S
C834 N835 1.279 . S
C834 H875 0.930 . S
N835 C833 1.314 . S
N835 C834 1.279 . S
C836 C838 1.353 . S
C836 N839 1.314 . S
C836 H842 0.930 . S
C837 N839 1.279 . S
C837 C840 1.358 . S
C837 H843 0.930 . S
C838 C836 1.353 . S
C838 C841 1.348 . S
C838 H876 0.929 . S
N839 Li794 1.990 . S
N839 C836 1.314 . S
N839 C837 1.279 . S
C840 C837 1.358 . S
C840 C841 1.356 . S
C840 H877 0.930 . S
C841 C838 1.348 . S
C841 C840 1.356 . S
H842 C836 0.930 . S
H843 C837 0.930 . S
C844 N845 1.314 . S
C844 C846 1.353 . S
C844 H850 0.930 . S
N845 Li795 1.990 . S
N845 C844 1.314 . S
N845 C848 1.279 . S
C846 C844 1.353 . S
C846 C849 1.348 . S
C846 H878 0.929 . S
C847 C848 1.358 . S
C847 C849 1.356 . S
C847 H879 0.930 . S
C848 N845 1.279 . S
C848 C847 1.358 . S
C848 H851 0.930 . S
C849 C846 1.348 . S
C849 C847 1.356 . S
H850 C844 0.930 . S
H851 C848 0.930 . S
O852 Li792 1.956 . S
O852 Li793 1.970 . S
O852 Li794 1.961 . S
O852 C796 1.325 . S
O853 Li792 1.970 . S
O853 Li793 1.956 . S
O853 Li795 1.961 . S
O853 C802 1.325 . S
O854 Li792 1.961 . S
O854 Li794 1.956 . S
O854 Li795 1.970 . S
O854 C824 1.325 . S
O855 Li793 1.961 . S
O855 Li794 1.970 . S
O855 Li795 1.956 . S
O855 C830 1.325 . S
H856 C798 0.929 . S
H857 C799 0.930 . S
H858 C800 0.930 . S
H859 C801 0.930 . S
H860 C803 0.930 . S
H861 C805 0.929 . S
H862 C806 0.930 . S
H863 C807 0.930 . S
H864 C810 0.930 . S
H865 C813 0.929 . S
H866 C818 0.929 . S
H867 C819 0.930 . S
H868 C826 0.929 . S
H869 C827 0.930 . S
H870 C828 0.930 . S
H871 C829 0.930 . S
H872 C831 0.929 . S
H873 C832 0.930 . S
H874 C833 0.930 . S
H875 C834 0.930 . S
H876 C838 0.929 . S
H877 C840 0.930 . S
H878 C846 0.929 . S
H879 C847 0.930 . S
Li880 N897 1.990 . S
Li880 O940 1.956 . S
Li880 O941 1.970 . S
Li880 O942 1.961 . S
Li881 N905 1.990 . S
Li881 O940 1.970 . S
Li881 O941 1.956 . S
Li881 O943 1.961 . S
Li882 N927 1.990 . S
Li882 O940 1.961 . S
Li882 O942 1.956 . S
Li882 O943 1.970 . S
Li883 N933 1.990 . S
Li883 O941 1.961 . S
Li883 O942 1.970 . S
Li883 O943 1.956 . S
C884 C886 1.348 . S
C884 C887 1.356 . S
C884 O940 1.325 . S
N885 C888 1.314 . S
N885 C889 1.279 . S
C886 C884 1.348 . S
C886 C888 1.353 . S
C886 H944 0.929 . S
C887 C884 1.356 . S
C887 C889 1.358 . S
C887 H945 0.930 . S
C888 N885 1.314 . S
C888 C886 1.353 . S
C888 H946 0.930 . S
C889 N885 1.279 . S
C889 C887 1.358 . S
C889 H947 0.930 . S
C890 C893 1.348 . S
C890 C894 1.356 . S
C890 O941 1.325 . S
C891 N892 1.279 . S
C891 C894 1.358 . S
C891 H948 0.930 . S
N892 C891 1.279 . S
N892 C895 1.314 . S
C893 C890 1.348 . S
C893 C895 1.353 . S
C893 H949 0.929 . S
C894 C890 1.356 . S
C894 C891 1.358 . S
C894 H950 0.930 . S
C895 N892 1.314 . S
C895 C893 1.353 . S
C895 H951 0.930 . S
C896 N897 1.314 . S
C896 C901 1.353 . S
C896 H902 0.930 . S
N897 Li880 1.990 . S
N897 C896 1.314 . S
N897 C899 1.279 . S
C898 C899 1.358 . S
C898 C900 1.356 . S
C898 H952 0.930 . S
C899 N897 1.279 . S
C899 C898 1.358 . S
C899 H903 0.930 . S
C900 C898 1.356 . S
C900 C901 1.348 . S
C901 C896 1.353 . S
C901 C900 1.348 . S
C901 H953 0.929 . S
H902 C896 0.930 . S
H903 C899 0.930 . S
C904 N905 1.314 . S
C904 C906 1.353 . S
C904 H910 0.930 . S
N905 Li881 1.990 . S
N905 C904 1.314 . S
N905 C908 1.279 . S
C906 C904 1.353 . S
C906 C909 1.348 . S
C906 H954 0.929 . S
C907 C908 1.358 . S
C907 C909 1.356 . S
C907 H955 0.930 . S
C908 N905 1.279 . S
C908 C907 1.358 . S
C908 H911 0.930 . S
C909 C906 1.348 . S
C909 C907 1.356 . S
H910 C904 0.930 . S
H911 C908 0.930 . S
C912 C914 1.348 . S
C912 C915 1.356 . S
C912 O942 1.325 . S
N913 C916 1.314 . S
N913 C917 1.279 . S
C914 C912 1.348 . S
C914 C916 1.353 . S
C914 H956 0.929 . S
C915 C912 1.356 . S
C915 C917 1.358 . S
C915 H957 0.930 . S
C916 N913 1.314 . S
C916 C914 1.353 . S
C916 H958 0.930 . S
C917 N913 1.279 . S
C917 C915 1.358 . S
C917 H959 0.930 . S
C918 C919 1.348 . S
C918 C920 1.356 . S
C918 O943 1.325 . S
C919 C918 1.348 . S
C919 C921 1.353 . S
C919 H960 0.929 . S
C920 C918 1.356 . S
C920 C922 1.358 . S
C920 H961 0.930 . S
C921 C919 1.353 . S
C921 N923 1.314 . S
C921 H962 0.930 . S
C922 C920 1.358 . S
C922 N923 1.279 . S
C922 H963 0.930 1_556 S
N923 C921 1.314 . S
N923 C922 1.279 . S
C924 C926 1.353 . S
C924 N927 1.314 . S
C924 H930 0.930 . S
C925 N927 1.279 . S
C925 C928 1.358 . S
C925 H931 0.930 . S
C926 C924 1.353 . S
C926 C929 1.348 . S
C926 H964 0.929 . S
N927 Li882 1.990 . S
N927 C924 1.314 . S
N927 C925 1.279 . S
C928 C925 1.358 . S
C928 C929 1.356 . S
C928 H965 0.930 . S
C929 C926 1.348 . S
C929 C928 1.356 . S
H930 C924 0.930 . S
H931 C925 0.930 . S
C932 N933 1.314 . S
C932 C934 1.353 . S
C932 H938 0.930 . S
N933 Li883 1.990 . S
N933 C932 1.314 . S
N933 C936 1.279 . S
C934 C932 1.353 . S
C934 C937 1.348 . S
C934 H966 0.929 . S
C935 C936 1.358 . S
C935 C937 1.356 . S
C935 H967 0.930 . S
C936 N933 1.279 . S
C936 C935 1.358 . S
C936 H939 0.930 . S
C937 C934 1.348 . S
C937 C935 1.356 . S
H938 C932 0.930 . S
H939 C936 0.930 . S
O940 Li880 1.956 . S
O940 Li881 1.970 . S
O940 Li882 1.961 . S
O940 C884 1.325 . S
O941 Li880 1.970 . S
O941 Li881 1.956 . S
O941 Li883 1.961 . S
O941 C890 1.325 . S
O942 Li880 1.961 . S
O942 Li882 1.956 . S
O942 Li883 1.970 . S
O942 C912 1.325 . S
O943 Li881 1.961 . S
O943 Li882 1.970 . S
O943 Li883 1.956 . S
O943 C918 1.325 . S
H944 C886 0.929 . S
H945 C887 0.930 . S
H946 C888 0.930 . S
H947 C889 0.930 . S
H948 C891 0.930 . S
H949 C893 0.929 . S
H950 C894 0.930 . S
H951 C895 0.930 . S
H952 C898 0.930 . S
H953 C901 0.929 . S
H954 C906 0.929 . S
H955 C907 0.930 . S
H956 C914 0.929 . S
H957 C915 0.930 . S
H958 C916 0.930 . S
H959 C917 0.930 . S
H960 C919 0.929 . S
H961 C920 0.930 . S
H962 C921 0.930 . S
H963 C922 0.930 1_554 S
H964 C926 0.929 . S
H965 C928 0.930 . S
H966 C934 0.929 . S
H967 C935 0.930 . S
Li968 N985 1.990 . S
Li968 O1028 1.956 . S
Li968 O1029 1.970 . S
Li968 O1030 1.961 . S
Li969 N993 1.990 . S
Li969 O1028 1.970 . S
Li969 O1029 1.956 . S
Li969 O1031 1.961 . S
Li970 N1015 1.990 . S
Li970 O1028 1.961 . S
Li970 O1030 1.956 . S
Li970 O1031 1.970 . S
Li971 N1021 1.990 . S
Li971 O1029 1.961 . S
Li971 O1030 1.970 . S
Li971 O1031 1.956 . S
C972 C974 1.348 . S
C972 C975 1.356 . S
C972 O1028 1.325 . S
N973 C976 1.314 . S
N973 C977 1.279 . S
C974 C972 1.348 . S
C974 C976 1.353 . S
C974 H1032 0.929 . S
C975 C972 1.356 . S
C975 C977 1.358 . S
C975 H1033 0.930 . S
C976 N973 1.314 . S
C976 C974 1.353 . S
C976 H1034 0.930 . S
C977 N973 1.279 . S
C977 C975 1.358 . S
C977 H1035 0.930 . S
C978 C981 1.348 . S
C978 C982 1.356 . S
C978 O1029 1.325 . S
C979 N980 1.279 . S
C979 C982 1.358 . S
C979 H1036 0.930 . S
N980 C979 1.279 . S
N980 C983 1.314 . S
C981 C978 1.348 . S
C981 C983 1.353 . S
C981 H1037 0.929 . S
C982 C978 1.356 . S
C982 C979 1.358 . S
C982 H1038 0.930 . S
C983 N980 1.314 . S
C983 C981 1.353 . S
C983 H1039 0.930 . S
C984 N985 1.314 . S
C984 C989 1.353 . S
C984 H990 0.930 . S
N985 Li968 1.990 . S
N985 C984 1.314 . S
N985 C987 1.279 . S
C986 C987 1.358 . S
C986 C988 1.356 . S
C986 H1040 0.930 . S
C987 N985 1.279 . S
C987 C986 1.358 . S
C987 H991 0.930 . S
C988 C986 1.356 . S
C988 C989 1.348 . S
C989 C984 1.353 . S
C989 C988 1.348 . S
C989 H1041 0.929 . S
H990 C984 0.930 . S
H991 C987 0.930 . S
C992 N993 1.314 . S
C992 C994 1.353 . S
C992 H998 0.930 . S
N993 Li969 1.990 . S
N993 C992 1.314 . S
N993 C996 1.279 . S
C994 C992 1.353 . S
C994 C997 1.348 . S
C994 H1042 0.929 . S
C995 C996 1.358 . S
C995 C997 1.356 . S
C995 H1043 0.930 . S
C996 N993 1.279 . S
C996 C995 1.358 . S
C996 H999 0.930 . S
C997 C994 1.348 . S
C997 C995 1.356 . S
H998 C992 0.930 . S
H999 C996 0.930 . S
C1000 C1002 1.348 . S
C1000 C1003 1.356 . S
C1000 O1030 1.325 . S
N1001 C1004 1.314 . S
N1001 C1005 1.279 . S
C1002 C1000 1.348 . S
C1002 C1004 1.353 . S
C1002 H1044 0.929 . S
C1003 C1000 1.356 . S
C1003 C1005 1.358 . S
C1003 H1045 0.930 . S
C1004 N1001 1.314 . S
C1004 C1002 1.353 . S
C1004 H1046 0.930 . S
C1005 N1001 1.279 . S
C1005 C1003 1.358 . S
C1005 H1047 0.930 . S
C1006 C1007 1.348 . S
C1006 C1008 1.356 . S
C1006 O1031 1.325 . S
C1007 C1006 1.348 . S
C1007 C1009 1.353 . S
C1007 H1048 0.929 . S
C1008 C1006 1.356 . S
C1008 C1010 1.358 . S
C1008 H1049 0.930 . S
C1009 C1007 1.353 . S
C1009 N1011 1.314 . S
C1009 H1050 0.930 . S
C1010 C1008 1.358 . S
C1010 N1011 1.279 . S
C1010 H1051 0.930 . S
N1011 C1009 1.314 . S
N1011 C1010 1.279 . S
C1012 C1014 1.353 . S
C1012 N1015 1.314 . S
C1012 H1018 0.930 . S
C1013 N1015 1.279 . S
C1013 C1016 1.358 . S
C1013 H1019 0.930 . S
C1014 C1012 1.353 . S
C1014 C1017 1.348 . S
C1014 H1052 0.929 . S
N1015 Li970 1.990 . S
N1015 C1012 1.314 . S
N1015 C1013 1.279 . S
C1016 C1013 1.358 . S
C1016 C1017 1.356 . S
C1016 H1053 0.930 . S
C1017 C1014 1.348 . S
C1017 C1016 1.356 . S
H1018 C1012 0.930 . S
H1019 C1013 0.930 . S
C1020 N1021 1.314 . S
C1020 C1022 1.353 . S
C1020 H1026 0.930 . S
N1021 Li971 1.990 . S
N1021 C1020 1.314 . S
N1021 C1024 1.279 . S
C1022 C1020 1.353 . S
C1022 C1025 1.348 . S
C1022 H1054 0.929 . S
C1023 C1024 1.358 . S
C1023 C1025 1.356 . S
C1023 H1055 0.930 . S
C1024 N1021 1.279 . S
C1024 C1023 1.358 . S
C1024 H1027 0.930 . S
C1025 C1022 1.348 . S
C1025 C1023 1.356 . S
H1026 C1020 0.930 . S
H1027 C1024 0.930 . S
O1028 Li968 1.956 . S
O1028 Li969 1.970 . S
O1028 Li970 1.961 . S
O1028 C972 1.325 . S
O1029 Li968 1.970 . S
O1029 Li969 1.956 . S
O1029 Li971 1.961 . S
O1029 C978 1.325 . S
O1030 Li968 1.961 . S
O1030 Li970 1.956 . S
O1030 Li971 1.970 . S
O1030 C1000 1.325 . S
O1031 Li969 1.961 . S
O1031 Li970 1.970 . S
O1031 Li971 1.956 . S
O1031 C1006 1.325 . S
H1032 C974 0.929 . S
H1033 C975 0.930 . S
H1034 C976 0.930 . S
H1035 C977 0.930 . S
H1036 C979 0.930 . S
H1037 C981 0.929 . S
H1038 C982 0.930 . S
H1039 C983 0.930 . S
H1040 C986 0.930 . S
H1041 C989 0.929 . S
H1042 C994 0.929 . S
H1043 C995 0.930 . S
H1044 C1002 0.929 . S
H1045 C1003 0.930 . S
H1046 C1004 0.930 . S
H1047 C1005 0.930 . S
H1048 C1007 0.929 . S
H1049 C1008 0.930 . S
H1050 C1009 0.930 . S
H1051 C1010 0.930 . S
H1052 C1014 0.929 . S
H1053 C1016 0.930 . S
H1054 C1022 0.929 . S
H1055 C1023 0.930 . S
Li1056 N1073 1.990 . S
Li1056 O1116 1.956 . S
Li1056 O1117 1.970 . S
Li1056 O1118 1.961 . S
Li1057 N1081 1.990 . S
Li1057 O1116 1.970 . S
Li1057 O1117 1.956 . S
Li1057 O1119 1.961 . S
Li1058 N1103 1.990 . S
Li1058 O1116 1.961 . S
Li1058 O1118 1.956 . S
Li1058 O1119 1.970 . S
Li1059 N1109 1.990 . S
Li1059 O1117 1.961 . S
Li1059 O1118 1.970 . S
Li1059 O1119 1.956 . S
C1060 C1062 1.348 . S
C1060 C1063 1.356 . S
C1060 O1116 1.325 . S
N1061 C1064 1.314 . S
N1061 C1065 1.279 . S
C1062 C1060 1.348 . S
C1062 C1064 1.353 . S
C1062 H1120 0.929 . S
C1063 C1060 1.356 . S
C1063 C1065 1.358 . S
C1063 H1121 0.930 . S
C1064 N1061 1.314 . S
C1064 C1062 1.353 . S
C1064 H1122 0.930 . S
C1065 N1061 1.279 . S
C1065 C1063 1.358 . S
C1065 H1123 0.930 . S
C1066 C1069 1.348 . S
C1066 C1070 1.356 . S
C1066 O1117 1.325 . S
C1067 N1068 1.279 . S
C1067 C1070 1.358 . S
C1067 H1124 0.930 . S
N1068 C1067 1.279 . S
N1068 C1071 1.314 . S
C1069 C1066 1.348 . S
C1069 C1071 1.353 . S
C1069 H1125 0.929 . S
C1070 C1066 1.356 . S
C1070 C1067 1.358 . S
C1070 H1126 0.930 . S
C1071 N1068 1.314 . S
C1071 C1069 1.353 . S
C1071 H1127 0.942 . S
C1072 N1073 1.314 . S
C1072 C1077 1.353 . S
C1072 H1078 0.930 . S
N1073 Li1056 1.990 . S
N1073 C1072 1.314 . S
N1073 C1075 1.279 . S
C1074 C1075 1.358 . S
C1074 C1076 1.356 . S
C1074 H1128 0.930 . S
C1075 N1073 1.279 . S
C1075 C1074 1.358 . S
C1075 H1079 0.930 . S
C1076 C1074 1.356 . S
C1076 C1077 1.348 . S
C1077 C1072 1.353 . S
C1077 C1076 1.348 . S
C1077 H1129 0.929 . S
H1078 C1072 0.930 . S
H1079 C1075 0.930 . S
C1080 N1081 1.314 . S
C1080 C1082 1.353 . S
C1080 H1086 0.930 . S
N1081 Li1057 1.990 . S
N1081 C1080 1.314 . S
N1081 C1084 1.279 . S
C1082 C1080 1.353 . S
C1082 C1085 1.348 . S
C1082 H1130 0.929 . S
C1083 C1084 1.358 . S
C1083 C1085 1.356 . S
C1083 H1131 0.930 . S
C1084 N1081 1.279 . S
C1084 C1083 1.358 . S
C1084 H1087 0.930 . S
C1085 C1082 1.348 . S
C1085 C1083 1.356 . S
H1086 C1080 0.930 . S
H1087 C1084 0.930 . S
C1088 C1090 1.348 . S
C1088 C1091 1.356 . S
C1088 O1118 1.325 . S
N1089 C1092 1.314 . S
N1089 C1093 1.279 . S
C1090 C1088 1.348 . S
C1090 C1092 1.353 . S
C1090 H1132 0.929 . S
C1091 C1088 1.356 . S
C1091 C1093 1.358 . S
C1091 H1133 0.930 . S
C1092 N1089 1.314 . S
C1092 C1090 1.353 . S
C1092 H1134 0.930 . S
C1093 N1089 1.279 . S
C1093 C1091 1.358 . S
C1093 H1135 0.930 . S
C1094 C1095 1.348 . S
C1094 C1096 1.356 . S
C1094 O1119 1.325 . S
C1095 C1094 1.348 . S
C1095 C1097 1.353 . S
C1095 H1136 0.929 . S
C1096 C1094 1.356 . S
C1096 C1098 1.358 . S
C1096 H1137 0.930 . S
C1097 C1095 1.353 . S
C1097 N1099 1.314 . S
C1097 H1138 0.930 . S
C1098 C1096 1.358 . S
C1098 N1099 1.279 . S
C1098 H1139 0.930 . S
N1099 C1097 1.314 . S
N1099 C1098 1.279 . S
C1100 C1102 1.353 . S
C1100 N1103 1.314 . S
C1100 H1106 0.930 . S
C1101 N1103 1.279 . S
C1101 C1104 1.358 . S
C1101 H1107 0.930 . S
C1102 C1100 1.353 . S
C1102 C1105 1.348 . S
C1102 H1140 0.929 . S
N1103 Li1058 1.990 . S
N1103 C1100 1.314 . S
N1103 C1101 1.279 . S
C1104 C1101 1.358 . S
C1104 C1105 1.356 . S
C1104 H1141 0.930 . S
C1105 C1102 1.348 . S
C1105 C1104 1.356 . S
H1106 C1100 0.930 . S
H1107 C1101 0.930 . S
C1108 N1109 1.314 . S
C1108 C1110 1.353 . S
C1108 H1114 0.930 . S
N1109 Li1059 1.990 . S
N1109 C1108 1.314 . S
N1109 C1112 1.279 . S
C1110 C1108 1.353 . S
C1110 C1113 1.348 . S
C1110 H1142 0.929 . S
C1111 C1112 1.358 . S
C1111 C1113 1.356 . S
C1111 H1143 0.930 . S
C1112 N1109 1.279 . S
C1112 C1111 1.358 . S
C1112 H1115 0.930 . S
C1113 C1110 1.348 . S
C1113 C1111 1.356 . S
H1114 C1108 0.930 . S
H1115 C1112 0.930 . S
O1116 Li1056 1.956 . S
O1116 Li1057 1.970 . S
O1116 Li1058 1.961 . S
O1116 C1060 1.325 . S
O1117 Li1056 1.970 . S
O1117 Li1057 1.956 . S
O1117 Li1059 1.961 . S
O1117 C1066 1.325 . S
O1118 Li1056 1.961 . S
O1118 Li1058 1.956 . S
O1118 Li1059 1.970 . S
O1118 C1088 1.325 . S
O1119 Li1057 1.961 . S
O1119 Li1058 1.970 . S
O1119 Li1059 1.956 . S
O1119 C1094 1.325 . S
H1120 C1062 0.929 . S
H1121 C1063 0.930 . S
H1122 C1064 0.930 . S
H1123 C1065 0.930 . S
H1124 C1067 0.930 . S
H1125 C1069 0.929 . S
H1126 C1070 0.930 . S
H1127 C1071 0.942 . S
H1128 C1074 0.930 . S
H1129 C1077 0.929 . S
H1130 C1082 0.929 . S
H1131 C1083 0.930 . S
H1132 C1090 0.929 . S
H1133 C1091 0.930 . S
H1134 C1092 0.930 . S
H1135 C1093 0.930 . S
H1136 C1095 0.929 . S
H1137 C1096 0.930 . S
H1138 C1097 0.930 . S
H1139 C1098 0.930 . S
H1140 C1102 0.929 . S
H1141 C1104 0.930 . S
H1142 C1110 0.929 . S
H1143 C1111 0.930 . S
Li1144 N1161 1.990 . S
Li1144 O1204 1.956 . S
Li1144 O1205 1.970 . S
Li1144 O1206 1.961 . S
Li1145 N1169 1.990 . S
Li1145 O1204 1.970 . S
Li1145 O1205 1.956 . S
Li1145 O1207 1.961 . S
Li1146 N1191 1.990 . S
Li1146 O1204 1.961 . S
Li1146 O1206 1.956 . S
Li1146 O1207 1.970 . S
Li1147 N1197 1.990 . S
Li1147 O1205 1.961 . S
Li1147 O1206 1.970 . S
Li1147 O1207 1.956 . S
C1148 C1150 1.348 . S
C1148 C1151 1.356 . S
C1148 O1204 1.325 . S
N1149 C1152 1.314 . S
N1149 C1153 1.279 . S
C1150 C1148 1.348 . S
C1150 C1152 1.353 . S
C1150 H1208 0.929 . S
C1151 C1148 1.356 . S
C1151 C1153 1.358 . S
C1151 H1209 0.930 . S
C1152 N1149 1.314 . S
C1152 C1150 1.353 . S
C1152 H1210 0.930 . S
C1153 N1149 1.279 . S
C1153 C1151 1.358 . S
C1153 H1211 0.930 . S
C1154 C1157 1.348 . S
C1154 C1158 1.356 . S
C1154 O1205 1.325 . S
C1155 N1156 1.279 . S
C1155 C1158 1.358 . S
C1155 H1212 0.930 . S
N1156 C1155 1.279 . S
N1156 C1159 1.314 . S
C1157 C1154 1.348 . S
C1157 C1159 1.353 . S
C1157 H1213 0.929 . S
C1158 C1154 1.356 . S
C1158 C1155 1.358 . S
C1158 H1214 0.930 . S
C1159 N1156 1.314 . S
C1159 C1157 1.353 . S
C1159 H1215 0.930 . S
C1160 N1161 1.314 . S
C1160 C1165 1.353 . S
C1160 H1166 0.930 . S
N1161 Li1144 1.990 . S
N1161 C1160 1.314 . S
N1161 C1163 1.279 . S
C1162 C1163 1.358 . S
C1162 C1164 1.356 . S
C1162 H1216 0.930 . S
C1163 N1161 1.279 . S
C1163 C1162 1.358 . S
C1163 H1167 0.930 . S
C1164 C1162 1.356 . S
C1164 C1165 1.348 . S
C1165 C1160 1.353 . S
C1165 C1164 1.348 . S
C1165 H1217 0.929 . S
H1166 C1160 0.930 . S
H1167 C1163 0.930 . S
C1168 N1169 1.314 . S
C1168 C1170 1.353 . S
C1168 H1174 0.930 . S
N1169 Li1145 1.990 . S
N1169 C1168 1.314 . S
N1169 C1172 1.279 . S
C1170 C1168 1.353 . S
C1170 C1173 1.348 . S
C1170 H1218 0.929 . S
C1171 C1172 1.358 . S
C1171 C1173 1.356 . S
C1171 H1219 0.930 . S
C1172 N1169 1.279 . S
C1172 C1171 1.358 . S
C1172 H1175 0.930 . S
C1173 C1170 1.348 . S
C1173 C1171 1.356 . S
H1174 C1168 0.930 . S
H1175 C1172 0.930 . S
C1176 C1178 1.348 . S
C1176 C1179 1.356 . S
C1176 O1206 1.325 . S
N1177 C1180 1.314 . S
N1177 C1181 1.279 . S
C1178 C1176 1.348 . S
C1178 C1180 1.353 . S
C1178 H1220 0.929 . S
C1179 C1176 1.356 . S
C1179 C1181 1.358 . S
C1179 H1221 0.930 . S
C1180 N1177 1.314 . S
C1180 C1178 1.353 . S
C1180 H1222 0.930 . S
C1181 N1177 1.279 . S
C1181 C1179 1.358 . S
C1181 H1223 0.930 . S
C1182 C1183 1.348 . S
C1182 C1184 1.356 . S
C1182 O1207 1.325 . S
C1183 C1182 1.348 . S
C1183 C1185 1.353 . S
C1183 H1224 0.929 . S
C1184 C1182 1.356 . S
C1184 C1186 1.358 . S
C1184 H1225 0.930 . S
C1185 C1183 1.353 . S
C1185 N1187 1.314 . S
C1185 H1226 0.930 . S
C1186 C1184 1.358 . S
C1186 N1187 1.279 . S
C1186 H1227 0.930 . S
N1187 C1185 1.314 . S
N1187 C1186 1.279 . S
C1188 C1190 1.353 . S
C1188 N1191 1.314 . S
C1188 H1194 0.930 . S
C1189 N1191 1.279 . S
C1189 C1192 1.358 . S
C1189 H1195 0.930 . S
C1190 C1188 1.353 . S
C1190 C1193 1.348 . S
C1190 H1228 0.929 . S
N1191 Li1146 1.990 . S
N1191 C1188 1.314 . S
N1191 C1189 1.279 . S
C1192 C1189 1.358 . S
C1192 C1193 1.356 . S
C1192 H1229 0.930 . S
C1193 C1190 1.348 . S
C1193 C1192 1.356 . S
H1194 C1188 0.930 . S
H1195 C1189 0.930 . S
C1196 N1197 1.314 . S
C1196 C1198 1.353 . S
C1196 H1202 0.930 . S
N1197 Li1147 1.990 . S
N1197 C1196 1.314 . S
N1197 C1200 1.279 . S
C1198 C1196 1.353 . S
C1198 C1201 1.348 . S
C1198 H1230 0.929 . S
C1199 C1200 1.358 . S
C1199 C1201 1.356 . S
C1199 H1231 0.930 . S
C1200 N1197 1.279 . S
C1200 C1199 1.358 . S
C1200 H1203 0.930 . S
C1201 C1198 1.348 . S
C1201 C1199 1.356 . S
H1202 C1196 0.930 . S
H1203 C1200 0.930 . S
O1204 Li1144 1.956 . S
O1204 Li1145 1.970 . S
O1204 Li1146 1.961 . S
O1204 C1148 1.325 . S
O1205 Li1144 1.970 . S
O1205 Li1145 1.956 . S
O1205 Li1147 1.961 . S
O1205 C1154 1.325 . S
O1206 Li1144 1.961 . S
O1206 Li1146 1.956 . S
O1206 Li1147 1.970 . S
O1206 C1176 1.325 . S
O1207 Li1145 1.961 . S
O1207 Li1146 1.970 . S
O1207 Li1147 1.956 . S
O1207 C1182 1.325 . S
H1208 C1150 0.929 . S
H1209 C1151 0.930 . S
H1210 C1152 0.930 . S
H1211 C1153 0.930 . S
H1212 C1155 0.930 . S
H1213 C1157 0.929 . S
H1214 C1158 0.930 . S
H1215 C1159 0.930 . S
H1216 C1162 0.930 . S
H1217 C1165 0.929 . S
H1218 C1170 0.929 . S
H1219 C1171 0.930 . S
H1220 C1178 0.929 . S
H1221 C1179 0.930 . S
H1222 C1180 0.930 . S
H1223 C1181 0.930 . S
H1224 C1183 0.929 . S
H1225 C1184 0.930 . S
H1226 C1185 0.930 . S
H1227 C1186 0.930 . S
H1228 C1190 0.929 . S
H1229 C1192 0.930 . S
H1230 C1198 0.929 . S
H1231 C1199 0.930 . S
Li1232 N1249 1.990 . S
Li1232 O1292 1.956 . S
Li1232 O1293 1.970 . S
Li1232 O1294 1.961 . S
Li1233 N1257 1.990 . S
Li1233 O1292 1.970 . S
Li1233 O1293 1.956 . S
Li1233 O1295 1.961 . S
Li1234 N1279 1.990 . S
Li1234 O1292 1.961 . S
Li1234 O1294 1.956 . S
Li1234 O1295 1.970 . S
Li1235 N1285 1.990 . S
Li1235 O1293 1.961 . S
Li1235 O1294 1.970 . S
Li1235 O1295 1.956 . S
C1236 C1238 1.348 . S
C1236 C1239 1.356 . S
C1236 O1292 1.325 . S
N1237 C1240 1.314 . S
N1237 C1241 1.279 . S
C1238 C1236 1.348 . S
C1238 C1240 1.353 . S
C1238 H1296 0.929 . S
C1239 C1236 1.356 . S
C1239 C1241 1.358 . S
C1239 H1297 0.930 . S
C1240 N1237 1.314 . S
C1240 C1238 1.353 . S
C1240 H1298 0.930 . S
C1241 N1237 1.279 . S
C1241 C1239 1.358 . S
C1241 H1299 0.930 . S
C1242 C1245 1.348 . S
C1242 C1246 1.356 . S
C1242 O1293 1.325 . S
C1243 N1244 1.279 . S
C1243 C1246 1.358 . S
C1243 H1300 0.930 . S
N1244 C1243 1.279 . S
N1244 C1247 1.314 . S
C1245 C1242 1.348 . S
C1245 C1247 1.353 . S
C1245 H1301 0.929 . S
C1246 C1242 1.356 . S
C1246 C1243 1.358 . S
C1246 H1302 0.930 . S
C1247 N1244 1.314 . S
C1247 C1245 1.353 . S
C1247 H1303 0.930 . S
C1248 N1249 1.314 . S
C1248 C1253 1.353 . S
C1248 H1254 0.930 . S
N1249 Li1232 1.990 . S
N1249 C1248 1.314 . S
N1249 C1251 1.279 . S
C1250 C1251 1.358 . S
C1250 C1252 1.356 . S
C1250 H1304 0.930 . S
C1251 N1249 1.279 . S
C1251 C1250 1.358 . S
C1251 H1255 0.930 . S
C1252 C1250 1.356 . S
C1252 C1253 1.348 . S
C1253 C1248 1.353 . S
C1253 C1252 1.348 . S
C1253 H1305 0.929 . S
H1254 C1248 0.930 . S
H1255 C1251 0.930 . S
C1256 N1257 1.314 . S
C1256 C1258 1.353 . S
C1256 H1262 0.930 . S
N1257 Li1233 1.990 . S
N1257 C1256 1.314 . S
N1257 C1260 1.279 . S
C1258 C1256 1.353 . S
C1258 C1261 1.348 . S
C1258 H1306 0.929 . S
C1259 C1260 1.358 . S
C1259 C1261 1.356 . S
C1259 H1307 0.930 . S
C1260 N1257 1.279 . S
C1260 C1259 1.358 . S
C1260 H1263 0.930 . S
C1261 C1258 1.348 . S
C1261 C1259 1.356 . S
H1262 C1256 0.930 . S
H1263 C1260 0.930 . S
C1264 C1266 1.348 . S
C1264 C1267 1.356 . S
C1264 O1294 1.325 . S
N1265 C1268 1.314 . S
N1265 C1269 1.279 . S
C1266 C1264 1.348 . S
C1266 C1268 1.353 . S
C1266 H1308 0.929 . S
C1267 C1264 1.356 . S
C1267 C1269 1.358 . S
C1267 H1309 0.930 . S
C1268 N1265 1.314 . S
C1268 C1266 1.353 . S
C1268 H1310 0.942 . S
C1269 N1265 1.279 . S
C1269 C1267 1.358 . S
C1269 H1311 0.930 . S
C1270 C1271 1.348 . S
C1270 C1272 1.356 . S
C1270 O1295 1.325 . S
C1271 C1270 1.348 . S
C1271 C1273 1.353 . S
C1271 H1312 0.929 . S
C1272 C1270 1.356 . S
C1272 C1274 1.358 . S
C1272 H1313 0.930 . S
C1273 C1271 1.353 . S
C1273 N1275 1.314 . S
C1273 H1314 0.930 . S
C1274 C1272 1.358 . S
C1274 N1275 1.279 . S
C1274 H1315 0.930 . S
N1275 C1273 1.314 . S
N1275 C1274 1.279 . S
C1276 C1278 1.353 . S
C1276 N1279 1.314 . S
C1276 H1282 0.930 . S
C1277 N1279 1.279 . S
C1277 C1280 1.358 . S
C1277 H1283 0.930 . S
C1278 C1276 1.353 . S
C1278 C1281 1.348 . S
C1278 H1316 0.929 . S
N1279 Li1234 1.990 . S
N1279 C1276 1.314 . S
N1279 C1277 1.279 . S
C1280 C1277 1.358 . S
C1280 C1281 1.356 . S
C1280 H1317 0.930 . S
C1281 C1278 1.348 . S
C1281 C1280 1.356 . S
H1282 C1276 0.930 . S
H1283 C1277 0.930 . S
C1284 N1285 1.314 . S
C1284 C1286 1.353 . S
C1284 H1290 0.930 . S
N1285 Li1235 1.990 . S
N1285 C1284 1.314 . S
N1285 C1288 1.279 . S
C1286 C1284 1.353 . S
C1286 C1289 1.348 . S
C1286 H1318 0.929 . S
C1287 C1288 1.358 . S
C1287 C1289 1.356 . S
C1287 H1319 0.930 . S
C1288 N1285 1.279 . S
C1288 C1287 1.358 . S
C1288 H1291 0.930 . S
C1289 C1286 1.348 . S
C1289 C1287 1.356 . S
H1290 C1284 0.930 . S
H1291 C1288 0.930 . S
O1292 Li1232 1.956 . S
O1292 Li1233 1.970 . S
O1292 Li1234 1.961 . S
O1292 C1236 1.325 . S
O1293 Li1232 1.970 . S
O1293 Li1233 1.956 . S
O1293 Li1235 1.961 . S
O1293 C1242 1.325 . S
O1294 Li1232 1.961 . S
O1294 Li1234 1.956 . S
O1294 Li1235 1.970 . S
O1294 C1264 1.325 . S
O1295 Li1233 1.961 . S
O1295 Li1234 1.970 . S
O1295 Li1235 1.956 . S
O1295 C1270 1.325 . S
H1296 C1238 0.929 . S
H1297 C1239 0.930 . S
H1298 C1240 0.930 . S
H1299 C1241 0.930 . S
H1300 C1243 0.930 . S
H1301 C1245 0.929 . S
H1302 C1246 0.930 . S
H1303 C1247 0.930 . S
H1304 C1250 0.930 . S
H1305 C1253 0.929 . S
H1306 C1258 0.929 . S
H1307 C1259 0.930 . S
H1308 C1266 0.929 . S
H1309 C1267 0.930 . S
H1310 C1268 0.942 . S
H1311 C1269 0.930 . S
H1312 C1271 0.929 . S
H1313 C1272 0.930 . S
H1314 C1273 0.930 . S
H1315 C1274 0.930 . S
H1316 C1278 0.929 . S
H1317 C1280 0.930 . S
H1318 C1286 0.929 . S
H1319 C1287 0.930 . S
Li1320 N1337 1.990 . S
Li1320 O1380 1.956 . S
Li1320 O1381 1.970 . S
Li1320 O1382 1.961 . S
Li1321 N1345 1.990 . S
Li1321 O1380 1.970 . S
Li1321 O1381 1.956 . S
Li1321 O1383 1.961 . S
Li1322 N1367 1.990 . S
Li1322 O1380 1.961 . S
Li1322 O1382 1.956 . S
Li1322 O1383 1.970 . S
Li1323 N1373 1.990 . S
Li1323 O1381 1.961 . S
Li1323 O1382 1.970 . S
Li1323 O1383 1.956 . S
C1324 C1326 1.348 . S
C1324 C1327 1.356 . S
C1324 O1380 1.325 . S
N1325 C1328 1.314 . S
N1325 C1329 1.279 . S
C1326 C1324 1.348 . S
C1326 C1328 1.353 . S
C1326 H1384 0.929 . S
C1327 C1324 1.356 . S
C1327 C1329 1.358 . S
C1327 H1385 0.930 . S
C1328 N1325 1.314 . S
C1328 C1326 1.353 . S
C1328 H1386 0.930 . S
C1329 N1325 1.279 . S
C1329 C1327 1.358 . S
C1329 H1387 0.930 . S
C1330 C1333 1.348 . S
C1330 C1334 1.356 . S
C1330 O1381 1.325 . S
C1331 N1332 1.279 . S
C1331 C1334 1.358 . S
C1331 H1388 0.930 . S
N1332 C1331 1.279 . S
N1332 C1335 1.314 . S
C1333 C1330 1.348 . S
C1333 C1335 1.353 . S
C1333 H1389 0.929 . S
C1334 C1330 1.356 . S
C1334 C1331 1.358 . S
C1334 H1390 0.930 . S
C1335 N1332 1.314 . S
C1335 C1333 1.353 . S
C1335 H1391 0.930 . S
C1336 N1337 1.314 . S
C1336 C1341 1.353 . S
C1336 H1342 0.930 . S
N1337 Li1320 1.990 . S
N1337 C1336 1.314 . S
N1337 C1339 1.279 . S
C1338 C1339 1.358 . S
C1338 C1340 1.356 . S
C1338 H1392 0.930 . S
C1339 N1337 1.279 . S
C1339 C1338 1.358 . S
C1339 H1343 0.930 . S
C1340 C1338 1.356 . S
C1340 C1341 1.348 . S
C1341 C1336 1.353 . S
C1341 C1340 1.348 . S
C1341 H1393 0.929 . S
H1342 C1336 0.930 . S
H1343 C1339 0.930 . S
C1344 N1345 1.314 . S
C1344 C1346 1.353 . S
C1344 H1350 0.930 . S
N1345 Li1321 1.990 . S
N1345 C1344 1.314 . S
N1345 C1348 1.279 . S
C1346 C1344 1.353 . S
C1346 C1349 1.348 . S
C1346 H1394 0.929 . S
C1347 C1348 1.358 . S
C1347 C1349 1.356 . S
C1347 H1395 0.930 . S
C1348 N1345 1.279 . S
C1348 C1347 1.358 . S
C1348 H1351 0.930 . S
C1349 C1346 1.348 . S
C1349 C1347 1.356 . S
H1350 C1344 0.930 . S
H1351 C1348 0.930 . S
C1352 C1354 1.348 . S
C1352 C1355 1.356 . S
C1352 O1382 1.325 . S
N1353 C1356 1.314 . S
N1353 C1357 1.279 . S
C1354 C1352 1.348 . S
C1354 C1356 1.353 . S
C1354 H1396 0.929 . S
C1355 C1352 1.356 . S
C1355 C1357 1.358 . S
C1355 H1397 0.930 . S
C1356 N1353 1.314 . S
C1356 C1354 1.353 . S
C1356 H1398 0.930 . S
C1357 N1353 1.279 . S
C1357 C1355 1.358 . S
C1357 H1399 0.930 . S
C1358 C1359 1.348 . S
C1358 C1360 1.356 . S
C1358 O1383 1.325 . S
C1359 C1358 1.348 . S
C1359 C1361 1.353 . S
C1359 H1400 0.929 . S
C1360 C1358 1.356 . S
C1360 C1362 1.358 . S
C1360 H1401 0.930 . S
C1361 C1359 1.353 . S
C1361 N1363 1.314 . S
C1361 H1402 0.930 . S
C1362 C1360 1.358 . S
C1362 N1363 1.279 . S
C1362 H1403 0.930 . S
N1363 C1361 1.314 . S
N1363 C1362 1.279 . S
C1364 C1366 1.353 . S
C1364 N1367 1.314 . S
C1364 H1370 0.930 . S
C1365 N1367 1.279 . S
C1365 C1368 1.358 . S
C1365 H1371 0.930 . S
C1366 C1364 1.353 . S
C1366 C1369 1.348 . S
C1366 H1404 0.929 . S
N1367 Li1322 1.990 . S
N1367 C1364 1.314 . S
N1367 C1365 1.279 . S
C1368 C1365 1.358 . S
C1368 C1369 1.356 . S
C1368 H1405 0.930 . S
C1369 C1366 1.348 . S
C1369 C1368 1.356 . S
H1370 C1364 0.930 . S
H1371 C1365 0.930 . S
C1372 N1373 1.314 . S
C1372 C1374 1.353 . S
C1372 H1378 0.930 . S
N1373 Li1323 1.990 . S
N1373 C1372 1.314 . S
N1373 C1376 1.279 . S
C1374 C1372 1.353 . S
C1374 C1377 1.348 . S
C1374 H1406 0.929 . S
C1375 C1376 1.358 . S
C1375 C1377 1.356 . S
C1375 H1407 0.930 . S
C1376 N1373 1.279 . S
C1376 C1375 1.358 . S
C1376 H1379 0.930 . S
C1377 C1374 1.348 . S
C1377 C1375 1.356 . S
H1378 C1372 0.930 . S
H1379 C1376 0.930 . S
O1380 Li1320 1.956 . S
O1380 Li1321 1.970 . S
O1380 Li1322 1.961 . S
O1380 C1324 1.325 . S
O1381 Li1320 1.970 . S
O1381 Li1321 1.956 . S
O1381 Li1323 1.961 . S
O1381 C1330 1.325 . S
O1382 Li1320 1.961 . S
O1382 Li1322 1.956 . S
O1382 Li1323 1.970 . S
O1382 C1352 1.325 . S
O1383 Li1321 1.961 . S
O1383 Li1322 1.970 . S
O1383 Li1323 1.956 . S
O1383 C1358 1.325 . S
H1384 C1326 0.929 . S
H1385 C1327 0.930 . S
H1386 C1328 0.930 . S
H1387 C1329 0.930 . S
H1388 C1331 0.930 . S
H1389 C1333 0.929 . S
H1390 C1334 0.930 . S
H1391 C1335 0.930 . S
H1392 C1338 0.930 . S
H1393 C1341 0.929 . S
H1394 C1346 0.929 . S
H1395 C1347 0.930 . S
H1396 C1354 0.929 . S
H1397 C1355 0.930 . S
H1398 C1356 0.930 . S
H1399 C1357 0.930 . S
H1400 C1359 0.929 . S
H1401 C1360 0.930 . S
H1402 C1361 0.930 . S
H1403 C1362 0.930 . S
H1404 C1366 0.929 . S
H1405 C1368 0.930 . S
H1406 C1374 0.929 . S
H1407 C1375 0.930 . S
H1408 C1414 0.930 . S
H1409 C1418 0.930 . S
H1410 C1423 0.941 . S
H1411 C1421 0.930 . S
H1412 C1416 0.929 . S
H1413 C1422 0.929 . S
C1414 H1408 0.930 . S
C1414 C1415 1.367 . S
C1414 C1422 1.378 . S
C1415 C1414 1.367 . S
C1415 C1423 1.433 . S
C1416 H1412 0.929 . S
C1416 C1418 1.378 . S
C1416 C1420 1.350 . S
C1417 C1420 1.463 1_554 S
C1417 C1422 1.350 . S
C1417 N1425 1.427 1_554 S
C1418 H1409 0.930 . S
C1418 C1416 1.378 . S
C1418 C1419 1.367 . S
C1419 C1418 1.367 . S
C1419 C1421 1.433 . S
C1420 C1416 1.350 . S
C1420 C1417 1.463 1_556 S
C1420 N1424 1.427 1_556 S
C1421 H1411 0.930 . S
C1421 C1419 1.433 . S
C1421 N1424 1.384 1_556 S
C1422 H1413 0.929 . S
C1422 C1414 1.378 . S
C1422 C1417 1.350 . S
C1423 H1410 0.941 . S
C1423 C1415 1.433 . S
C1423 N1425 1.384 1_554 S
N1424 C1420 1.427 1_554 S
N1424 C1421 1.384 1_554 S
N1425 C1417 1.427 1_556 S
N1425 C1423 1.384 1_556 S
H1426 C1432 0.930 . S
H1427 C1436 0.930 . S
H1428 C1441 0.929 . S
H1429 C1439 0.929 . S
H1430 C1434 0.929 . S
H1431 C1440 0.929 . S
C1432 H1426 0.930 . S
C1432 C1433 1.367 . S
C1432 C1440 1.378 . S
C1433 C1432 1.367 . S
C1433 C1441 1.433 . S
C1434 H1430 0.929 . S
C1434 C1436 1.378 . S
C1434 C1438 1.350 . S
C1435 C1438 1.463 . S
C1435 C1440 1.350 . S
C1435 N1443 1.427 . S
C1436 H1427 0.930 . S
C1436 C1434 1.378 . S
C1436 C1437 1.367 . S
C1437 C1436 1.367 . S
C1437 C1439 1.433 . S
C1438 C1434 1.350 . S
C1438 C1435 1.463 . S
C1438 N1442 1.427 . S
C1439 H1429 0.929 . S
C1439 C1437 1.433 . S
C1439 N1442 1.384 . S
C1440 H1431 0.929 . S
C1440 C1432 1.378 . S
C1440 C1435 1.350 . S
C1441 H1428 0.929 . S
C1441 C1433 1.433 . S
C1441 N1443 1.384 . S
N1442 C1438 1.427 . S
N1442 C1439 1.384 . S
N1443 C1435 1.427 . S
N1443 C1441 1.384 . S
H1444 C1450 0.930 . S
H1445 C1454 0.930 . S
H1446 C1459 0.929 . S
H1447 C1457 0.929 . S
H1448 C1452 0.929 . S
H1449 C1458 0.929 . S
C1450 H1444 0.930 . S
C1450 C1451 1.367 . S
C1450 C1458 1.378 . S
C1451 C1450 1.367 . S
C1451 C1459 1.433 . S
C1452 H1448 0.929 . S
C1452 C1454 1.378 . S
C1452 C1456 1.350 . S
C1453 C1456 1.463 1_556 S
C1453 C1458 1.350 . S
C1453 N1461 1.427 . S
C1454 H1445 0.930 . S
C1454 C1452 1.378 . S
C1454 C1455 1.367 . S
C1455 C1454 1.367 . S
C1455 C1457 1.433 . S
C1456 C1452 1.350 . S
C1456 C1453 1.463 1_554 S
C1456 N1460 1.427 . S
C1457 H1447 0.929 . S
C1457 C1455 1.433 . S
C1457 N1460 1.384 . S
C1458 H1449 0.929 . S
C1458 C1450 1.378 . S
C1458 C1453 1.350 . S
C1459 H1446 0.929 . S
C1459 C1451 1.433 . S
C1459 N1461 1.384 . S
N1460 C1456 1.427 . S
N1460 C1457 1.384 . S
N1461 C1453 1.427 . S
N1461 C1459 1.384 . S
H1462 C1468 0.930 . S
H1463 C1472 0.930 . S
H1464 C1477 0.929 . S
H1465 C1475 0.929 . S
H1466 C1470 0.929 . S
H1467 C1476 0.929 . S
C1468 H1462 0.930 . S
C1468 C1469 1.367 . S
C1468 C1476 1.378 . S
C1469 C1468 1.367 . S
C1469 C1477 1.433 . S
C1470 H1466 0.929 . S
C1470 C1472 1.378 . S
C1470 C1474 1.350 . S
C1471 C1474 1.463 . S
C1471 C1476 1.350 . S
C1471 N1479 1.427 . S
C1472 H1463 0.930 . S
C1472 C1470 1.378 . S
C1472 C1473 1.367 . S
C1473 C1472 1.367 . S
C1473 C1475 1.433 . S
C1474 C1470 1.350 . S
C1474 C1471 1.463 . S
C1474 N1478 1.427 . S
C1475 H1465 0.929 . S
C1475 C1473 1.433 . S
C1475 N1478 1.384 . S
C1476 H1467 0.929 . S
C1476 C1468 1.378 . S
C1476 C1471 1.350 . S
C1477 H1464 0.929 . S
C1477 C1469 1.433 . S
C1477 N1479 1.384 . S
N1478 C1474 1.427 . S
N1478 C1475 1.384 . S
N1479 C1471 1.427 . S
N1479 C1477 1.384 . S
H1480 C1486 0.930 . S
H1481 C1490 0.930 . S
H1482 C1495 0.929 . S
H1483 C1493 0.929 . S
H1484 C1488 0.929 . S
H1485 C1494 0.929 . S
C1486 H1480 0.930 . S
C1486 C1487 1.367 . S
C1486 C1494 1.378 . S
C1487 C1486 1.367 . S
C1487 C1495 1.433 . S
C1488 H1484 0.929 . S
C1488 C1490 1.378 . S
C1488 C1492 1.350 . S
C1489 C1492 1.463 1_554 S
C1489 C1494 1.350 . S
C1489 N1497 1.427 . S
C1490 H1481 0.930 . S
C1490 C1488 1.378 . S
C1490 C1491 1.367 . S
C1491 C1490 1.367 . S
C1491 C1493 1.433 . S
C1492 C1488 1.350 . S
C1492 C1489 1.463 1_556 S
C1492 N1496 1.427 . S
C1493 H1483 0.929 . S
C1493 C1491 1.433 . S
C1493 N1496 1.384 . S
C1494 H1485 0.929 . S
C1494 C1486 1.378 . S
C1494 C1489 1.350 . S
C1495 H1482 0.929 . S
C1495 C1487 1.433 . S
C1495 N1497 1.384 . S
N1496 C1492 1.427 . S
N1496 C1493 1.384 . S
N1497 C1489 1.427 . S
N1497 C1495 1.384 . S
H1498 C1504 0.930 . S
H1499 C1508 0.930 . S
H1500 C1513 0.929 . S
H1501 C1511 0.929 . S
H1502 C1506 0.929 . S
H1503 C1512 0.929 . S
C1504 H1498 0.930 . S
C1504 C1505 1.367 . S
C1504 C1512 1.378 . S
C1505 C1504 1.367 . S
C1505 C1513 1.433 . S
C1506 H1502 0.929 . S
C1506 C1508 1.378 . S
C1506 C1510 1.350 . S
C1507 C1510 1.463 . S
C1507 C1512 1.350 . S
C1507 N1515 1.427 . S
C1508 H1499 0.930 . S
C1508 C1506 1.378 . S
C1508 C1509 1.367 . S
C1509 C1508 1.367 . S
C1509 C1511 1.433 . S
C1510 C1506 1.350 . S
C1510 C1507 1.463 . S
C1510 N1514 1.427 . S
C1511 H1501 0.929 . S
C1511 C1509 1.433 . S
C1511 N1514 1.384 . S
C1512 H1503 0.929 . S
C1512 C1504 1.378 . S
C1512 C1507 1.350 . S
C1513 H1500 0.929 . S
C1513 C1505 1.433 . S
C1513 N1515 1.384 . S
N1514 C1510 1.427 . S
N1514 C1511 1.384 . S
N1515 C1507 1.427 . S
N1515 C1513 1.384 . S
H1516 C1522 0.930 . S
H1517 C1526 0.930 . S
H1518 C1531 0.929 . S
H1519 C1529 0.929 . S
H1520 C1524 0.929 . S
H1521 C1530 0.929 . S
C1522 H1516 0.930 . S
C1522 C1523 1.367 . S
C1522 C1530 1.378 . S
C1523 C1522 1.367 . S
C1523 C1531 1.433 . S
C1524 H1520 0.929 . S
C1524 C1526 1.378 . S
C1524 C1528 1.350 . S
C1525 C1528 1.463 1_556 S
C1525 C1530 1.350 . S
C1525 N1533 1.427 . S
C1526 H1517 0.930 . S
C1526 C1524 1.378 . S
C1526 C1527 1.367 . S
C1527 C1526 1.367 . S
C1527 C1529 1.433 . S
C1528 C1524 1.350 . S
C1528 C1525 1.463 1_554 S
C1528 N1532 1.427 . S
C1529 H1519 0.929 . S
C1529 C1527 1.433 . S
C1529 N1532 1.384 . S
C1530 H1521 0.929 . S
C1530 C1522 1.378 . S
C1530 C1525 1.350 . S
C1531 H1518 0.929 . S
C1531 C1523 1.433 . S
C1531 N1533 1.384 . S
N1532 C1528 1.427 . S
N1532 C1529 1.384 . S
N1533 C1525 1.427 . S
N1533 C1531 1.384 . S
H1534 C1540 0.930 . S
H1535 C1544 0.930 . S
H1536 C1549 0.929 . S
H1537 C1547 0.929 . S
H1538 C1542 0.929 . S
H1539 C1548 0.929 . S
C1540 H1534 0.930 . S
C1540 C1541 1.367 . S
C1540 C1548 1.378 . S
C1541 C1540 1.367 . S
C1541 C1549 1.433 . S
C1542 H1538 0.929 . S
C1542 C1544 1.378 . S
C1542 C1546 1.350 . S
C1543 C1546 1.463 . S
C1543 C1548 1.350 . S
C1543 N1551 1.427 . S
C1544 H1535 0.930 . S
C1544 C1542 1.378 . S
C1544 C1545 1.367 . S
C1545 C1544 1.367 . S
C1545 C1547 1.433 . S
C1546 C1542 1.350 . S
C1546 C1543 1.463 . S
C1546 N1550 1.427 . S
C1547 H1537 0.929 . S
C1547 C1545 1.433 . S
C1547 N1550 1.384 . S
C1548 H1539 0.929 . S
C1548 C1540 1.378 . S
C1548 C1543 1.350 . S
C1549 H1536 0.929 . S
C1549 C1541 1.433 . S
C1549 N1551 1.384 . S
N1550 C1546 1.427 . S
N1550 C1547 1.384 . S
N1551 C1543 1.427 . S
N1551 C1549 1.384 . S
H1552 C1558 0.930 . S
H1553 C1562 0.930 . S
H1554 C1567 0.929 . S
H1555 C1565 0.929 . S
H1556 C1560 0.929 . S
H1557 C1566 0.929 . S
C1558 H1552 0.930 . S
C1558 C1559 1.367 . S
C1558 C1566 1.378 . S
C1559 C1558 1.367 . S
C1559 C1567 1.433 . S
C1560 H1556 0.929 . S
C1560 C1562 1.378 . S
C1560 C1564 1.350 . S
C1561 C1564 1.463 1_544 S
C1561 C1566 1.350 . S
C1561 N1569 1.427 . S
C1562 H1553 0.930 . S
C1562 C1560 1.378 . S
C1562 C1563 1.367 . S
C1563 C1562 1.367 . S
C1563 C1565 1.433 . S
C1564 C1560 1.350 . S
C1564 C1561 1.463 1_566 S
C1564 N1568 1.427 . S
C1565 H1555 0.929 . S
C1565 C1563 1.433 . S
C1565 N1568 1.384 . S
C1566 H1557 0.929 . S
C1566 C1558 1.378 . S
C1566 C1561 1.350 . S
C1567 H1554 0.929 . S
C1567 C1559 1.433 . S
C1567 N1569 1.384 . S
N1568 C1564 1.427 . S
N1568 C1565 1.384 . S
N1569 C1561 1.427 . S
N1569 C1567 1.384 . S
H1570 C1576 0.930 . S
H1571 C1580 0.930 . S
H1572 C1585 0.929 . S
H1573 C1583 0.929 . S
H1574 C1578 0.929 1_565 S
H1575 C1584 0.929 1_545 S
C1576 H1570 0.930 . S
C1576 C1577 1.367 . S
C1576 C1584 1.378 . S
C1577 C1576 1.367 . S
C1577 C1585 1.433 . S
C1578 H1574 0.929 1_545 S
C1578 C1580 1.378 . S
C1578 C1582 1.350 . S
C1579 C1582 1.463 1_565 S
C1579 C1584 1.350 . S
C1579 N1587 1.427 . S
C1580 H1571 0.930 . S
C1580 C1578 1.378 . S
C1580 C1581 1.367 . S
C1581 C1580 1.367 . S
C1581 C1583 1.433 . S
C1582 C1578 1.350 . S
C1582 C1579 1.463 1_545 S
C1582 N1586 1.427 . S
C1583 H1573 0.929 . S
C1583 C1581 1.433 . S
C1583 N1586 1.384 . S
C1584 H1575 0.929 1_565 S
C1584 C1576 1.378 . S
C1584 C1579 1.350 . S
C1585 H1572 0.929 . S
C1585 C1577 1.433 . S
C1585 N1587 1.384 . S
N1586 C1582 1.427 . S
N1586 C1583 1.384 . S
N1587 C1579 1.427 . S
N1587 C1585 1.384 . S
H1588 C1594 0.930 . S
H1589 C1598 0.930 . S
H1590 C1603 0.929 . S
H1591 C1601 0.929 . S
H1592 C1596 0.960 . S
H1593 C1602 0.960 . S
C1594 H1588 0.930 . S
C1594 C1595 1.367 . S
C1594 C1602 1.378 . S
C1595 C1594 1.367 . S
C1595 C1603 1.433 . S
C1596 H1592 0.960 . S
C1596 C1598 1.378 . S
C1596 C1600 1.350 . S
C1597 C1600 1.463 1_566 S
C1597 C1602 1.350 . S
C1597 N1605 1.427 . S
C1598 H1589 0.930 . S
C1598 C1596 1.378 . S
C1598 C1599 1.367 . S
C1599 C1598 1.367 . S
C1599 C1601 1.433 . S
C1600 C1596 1.350 . S
C1600 C1597 1.463 1_544 S
C1600 N1604 1.427 . S
C1601 H1591 0.929 . S
C1601 C1599 1.433 . S
C1601 N1604 1.384 . S
C1602 H1593 0.960 . S
C1602 C1594 1.378 . S
C1602 C1597 1.350 . S
C1603 H1590 0.929 . S
C1603 C1595 1.433 . S
C1603 N1605 1.384 . S
N1604 C1600 1.427 . S
N1604 C1601 1.384 . S
N1605 C1597 1.427 . S
N1605 C1603 1.384 . S
H1606 C1612 0.930 . S
H1607 C1616 0.930 . S
H1608 C1621 0.929 . S
H1609 C1619 0.929 . S
H1610 C1614 0.929 . S
H1611 C1620 0.929 . S
C1612 H1606 0.930 . S
C1612 C1613 1.367 . S
C1612 C1620 1.378 . S
C1613 C1612 1.367 . S
C1613 C1621 1.433 . S
C1614 H1610 0.929 . S
C1614 C1616 1.378 . S
C1614 C1618 1.350 . S
C1615 C1618 1.463 1_545 S
C1615 C1620 1.350 . S
C1615 N1623 1.427 . S
C1616 H1607 0.930 . S
C1616 C1614 1.378 . S
C1616 C1617 1.367 . S
C1617 C1616 1.367 . S
C1617 C1619 1.433 . S
C1618 C1614 1.350 . S
C1618 C1615 1.463 1_565 S
C1618 N1622 1.427 . S
C1619 H1609 0.929 . S
C1619 C1617 1.433 . S
C1619 N1622 1.384 . S
C1620 H1611 0.929 . S
C1620 C1612 1.378 . S
C1620 C1615 1.350 . S
C1621 H1608 0.929 . S
C1621 C1613 1.433 . S
C1621 N1623 1.384 . S
N1622 C1618 1.427 . S
N1622 C1619 1.384 . S
N1623 C1615 1.427 . S
N1623 C1621 1.384 . S
H1624 C1630 0.930 . S
H1625 C1634 0.930 . S
H1626 C1639 0.929 . S
H1627 C1637 0.929 . S
H1628 C1632 0.970 . S
H1629 C1638 0.970 . S
C1630 H1624 0.930 . S
C1630 C1631 1.367 . S
C1630 C1638 1.352 1_556 S
C1631 C1630 1.367 . S
C1631 C1639 1.433 . S
C1632 H1628 0.970 . S
C1632 C1634 1.352 1_556 S
C1632 C1636 1.336 1_556 S
C1633 C1636 1.463 1_556 S
C1633 C1638 1.336 1_556 S
C1633 N1641 1.427 . S
C1634 H1625 0.930 . S
C1634 C1632 1.352 1_554 S
C1634 C1635 1.367 . S
C1635 C1634 1.367 . S
C1635 C1637 1.433 . S
C1636 C1632 1.336 1_554 S
C1636 C1633 1.463 1_554 S
C1636 N1640 1.427 . S
C1637 H1627 0.929 . S
C1637 C1635 1.433 . S
C1637 N1640 1.384 . S
C1638 H1629 0.970 . S
C1638 C1630 1.352 1_554 S
C1638 C1633 1.336 1_554 S
C1639 H1626 0.929 . S
C1639 C1631 1.433 . S
C1639 N1641 1.384 . S
N1640 C1636 1.427 . S
N1640 C1637 1.384 . S
N1641 C1633 1.427 . S
N1641 C1639 1.384 . S
H1642 C1648 0.930 . S
H1643 C1652 0.930 . S
H1644 C1657 0.929 . S
H1645 C1655 0.929 . S
H1646 C1650 0.929 . S
H1647 C1656 0.929 . S
C1648 H1642 0.930 . S
C1648 C1649 1.367 . S
C1648 C1656 1.378 . S
C1649 C1648 1.367 . S
C1649 C1657 1.433 . S
C1650 H1646 0.929 . S
C1650 C1652 1.378 . S
C1650 C1654 1.350 . S
C1651 C1654 1.463 . S
C1651 C1656 1.350 . S
C1651 N1659 1.427 . S
C1652 H1643 0.930 . S
C1652 C1650 1.378 . S
C1652 C1653 1.367 . S
C1653 C1652 1.367 . S
C1653 C1655 1.433 . S
C1654 C1650 1.350 . S
C1654 C1651 1.463 . S
C1654 N1658 1.427 . S
C1655 H1645 0.929 . S
C1655 C1653 1.433 . S
C1655 N1658 1.384 . S
C1656 H1647 0.929 . S
C1656 C1648 1.378 . S
C1656 C1651 1.350 . S
C1657 H1644 0.929 . S
C1657 C1649 1.433 . S
C1657 N1659 1.384 . S
N1658 C1654 1.427 . S
N1658 C1655 1.384 . S
N1659 C1651 1.427 . S
N1659 C1657 1.384 . S
H1660 C1666 0.930 . S
H1661 C1670 0.930 . S
H1662 C1675 0.929 . S
H1663 C1673 0.929 . S
H1664 C1668 0.929 . S
H1665 C1674 0.929 . S
C1666 H1660 0.930 . S
C1666 C1667 1.367 . S
C1666 C1674 1.378 1_554 S
C1667 C1666 1.367 . S
C1667 C1675 1.433 . S
C1668 H1664 0.929 . S
C1668 C1670 1.378 1_554 S
C1668 C1672 1.350 1_554 S
C1669 C1672 1.463 1_554 S
C1669 C1674 1.350 1_554 S
C1669 N1677 1.427 . S
C1670 H1661 0.930 . S
C1670 C1668 1.378 1_556 S
C1670 C1671 1.367 . S
C1671 C1670 1.367 . S
C1671 C1673 1.433 . S
C1672 C1668 1.350 1_556 S
C1672 C1669 1.463 1_556 S
C1672 N1676 1.427 . S
C1673 H1663 0.929 . S
C1673 C1671 1.433 . S
C1673 N1676 1.384 . S
C1674 H1665 0.929 . S
C1674 C1666 1.378 1_556 S
C1674 C1669 1.350 1_556 S
C1675 H1662 0.929 . S
C1675 C1667 1.433 . S
C1675 N1677 1.384 . S
N1676 C1672 1.427 . S
N1676 C1673 1.384 . S
N1677 C1669 1.427 . S
N1677 C1675 1.384 . S
H1678 C1684 0.930 . S
H1679 C1688 0.930 . S
H1680 C1693 0.929 . S
H1681 C1691 0.929 . S
H1682 C1686 0.929 . S
H1683 C1692 0.929 . S
C1684 H1678 0.930 . S
C1684 C1685 1.367 . S
C1684 C1692 1.378 . S
C1685 C1684 1.367 . S
C1685 C1693 1.433 . S
C1686 H1682 0.929 . S
C1686 C1688 1.378 . S
C1686 C1690 1.350 . S
C1687 C1690 1.463 . S
C1687 C1692 1.350 . S
C1687 N1695 1.427 . S
C1688 H1679 0.930 . S
C1688 C1686 1.378 . S
C1688 C1689 1.367 . S
C1689 C1688 1.367 . S
C1689 C1691 1.433 . S
C1690 C1686 1.350 . S
C1690 C1687 1.463 . S
C1690 N1694 1.427 . S
C1691 H1681 0.929 . S
C1691 C1689 1.433 . S
C1691 N1694 1.384 . S
C1692 H1683 0.929 . S
C1692 C1684 1.378 . S
C1692 C1687 1.350 . S
C1693 H1680 0.929 . S
C1693 C1685 1.433 . S
C1693 N1695 1.384 . S
N1694 C1690 1.427 . S
N1694 C1691 1.384 . S
N1695 C1687 1.427 . S
N1695 C1693 1.384 . S
H1696 C1702 0.930 . S
H1697 C1706 0.930 . S
H1698 C1711 0.929 . S
H1699 C1709 0.929 . S
H1700 C1704 0.929 . S
H1701 C1710 0.929 . S
C1702 H1696 0.930 . S
C1702 C1703 1.367 . S
C1702 C1710 1.378 . S
C1703 C1702 1.367 . S
C1703 C1711 1.433 . S
C1704 H1700 0.929 . S
C1704 C1706 1.378 . S
C1704 C1708 1.350 . S
C1705 C1708 1.463 . S
C1705 C1710 1.350 . S
C1705 N1713 1.427 . S
C1706 H1697 0.930 . S
C1706 C1704 1.378 . S
C1706 C1707 1.367 . S
C1707 C1706 1.367 . S
C1707 C1709 1.433 . S
C1708 C1704 1.350 . S
C1708 C1705 1.463 . S
C1708 N1712 1.427 . S
C1709 H1699 0.929 . S
C1709 C1707 1.433 . S
C1709 N1712 1.384 . S
C1710 H1701 0.929 . S
C1710 C1702 1.378 . S
C1710 C1705 1.350 . S
C1711 H1698 0.929 . S
C1711 C1703 1.433 . S
C1711 N1713 1.384 . S
N1712 C1708 1.427 . S
N1712 C1709 1.384 . S
N1713 C1705 1.427 . S
N1713 C1711 1.384 . S
H1714 C1720 0.930 . S
H1715 C1724 0.930 . S
H1716 C1729 0.929 . S
H1717 C1727 0.929 . S
H1718 C1722 0.929 . S
H1719 C1728 0.929 . S
C1720 H1714 0.930 . S
C1720 C1721 1.367 . S
C1720 C1728 1.378 . S
C1721 C1720 1.367 . S
C1721 C1729 1.433 . S
C1722 H1718 0.929 . S
C1722 C1724 1.378 . S
C1722 C1726 1.350 . S
C1723 C1726 1.463 1_655 S
C1723 C1728 1.350 . S
C1723 N1731 1.427 . S
C1724 H1715 0.930 . S
C1724 C1722 1.378 . S
C1724 C1725 1.367 . S
C1725 C1724 1.367 . S
C1725 C1727 1.433 . S
C1726 C1722 1.350 . S
C1726 C1723 1.463 1_455 S
C1726 N1730 1.427 . S
C1727 H1717 0.929 . S
C1727 C1725 1.433 . S
C1727 N1730 1.384 . S
C1728 H1719 0.929 . S
C1728 C1720 1.378 . S
C1728 C1723 1.350 . S
C1729 H1716 0.929 . S
C1729 C1721 1.433 . S
C1729 N1731 1.384 . S
N1730 C1726 1.427 . S
N1730 C1727 1.384 . S
N1731 C1723 1.427 . S
N1731 C1729 1.384 . S
H1732 C1738 0.930 . S
H1733 C1742 0.930 . S
H1734 C1747 0.929 . S
H1735 C1745 0.929 . S
H1736 C1740 0.929 . S
H1737 C1746 0.929 . S
C1738 H1732 0.930 . S
C1738 C1739 1.367 . S
C1738 C1746 1.378 . S
C1739 C1738 1.367 . S
C1739 C1747 1.433 . S
C1740 H1736 0.929 . S
C1740 C1742 1.378 . S
C1740 C1744 1.350 . S
C1741 C1744 1.463 . S
C1741 C1746 1.350 . S
C1741 N1749 1.427 . S
C1742 H1733 0.930 . S
C1742 C1740 1.378 . S
C1742 C1743 1.367 . S
C1743 C1742 1.367 . S
C1743 C1745 1.433 . S
C1744 C1740 1.350 . S
C1744 C1741 1.463 . S
C1744 N1748 1.427 . S
C1745 H1735 0.929 . S
C1745 C1743 1.433 . S
C1745 N1748 1.384 . S
C1746 H1737 0.929 . S
C1746 C1738 1.378 . S
C1746 C1741 1.350 . S
C1747 H1734 0.929 . S
C1747 C1739 1.433 . S
C1747 N1749 1.384 . S
N1748 C1744 1.427 . S
N1748 C1745 1.384 . S
N1749 C1741 1.427 . S
N1749 C1747 1.384 . S
H1750 C1756 0.930 . S
H1751 C1760 0.930 . S
H1752 C1765 0.929 . S
H1753 C1763 0.929 . S
H1754 C1758 0.929 . S
H1755 C1764 0.929 . S
C1756 H1750 0.930 . S
C1756 C1757 1.367 . S
C1756 C1764 1.378 . S
C1757 C1756 1.367 . S
C1757 C1765 1.433 . S
C1758 H1754 0.929 . S
C1758 C1760 1.378 . S
C1758 C1762 1.350 . S
C1759 C1762 1.463 1_455 S
C1759 C1764 1.350 . S
C1759 N1767 1.427 . S
C1760 H1751 0.930 . S
C1760 C1758 1.378 . S
C1760 C1761 1.367 . S
C1761 C1760 1.367 . S
C1761 C1763 1.433 . S
C1762 C1758 1.350 . S
C1762 C1759 1.463 1_655 S
C1762 N1766 1.427 . S
C1763 H1753 0.929 . S
C1763 C1761 1.433 . S
C1763 N1766 1.384 . S
C1764 H1755 0.929 . S
C1764 C1756 1.378 . S
C1764 C1759 1.350 . S
C1765 H1752 0.929 . S
C1765 C1757 1.433 . S
C1765 N1767 1.384 . S
N1766 C1762 1.427 . S
N1766 C1763 1.384 . S
N1767 C1759 1.427 . S
N1767 C1765 1.384 . S
H1768 C1774 0.930 . S
H1769 C1778 0.930 . S
H1770 C1783 0.929 . S
H1771 C1781 0.929 . S
H1772 C1776 0.929 . S
H1773 C1782 0.929 . S
C1774 H1768 0.930 . S
C1774 C1775 1.367 . S
C1774 C1782 1.378 . S
C1775 C1774 1.367 . S
C1775 C1783 1.433 . S
C1776 H1772 0.929 . S
C1776 C1778 1.378 . S
C1776 C1780 1.350 . S
C1777 C1780 1.463 1_455 S
C1777 C1782 1.350 . S
C1777 N1785 1.427 . S
C1778 H1769 0.930 . S
C1778 C1776 1.378 . S
C1778 C1779 1.367 . S
C1779 C1778 1.367 . S
C1779 C1781 1.433 . S
C1780 C1776 1.350 . S
C1780 C1777 1.463 1_655 S
C1780 N1784 1.427 . S
C1781 H1771 0.929 . S
C1781 C1779 1.433 . S
C1781 N1784 1.384 . S
C1782 H1773 0.929 . S
C1782 C1774 1.378 . S
C1782 C1777 1.350 . S
C1783 H1770 0.929 . S
C1783 C1775 1.433 . S
C1783 N1785 1.384 . S
N1784 C1780 1.427 . S
N1784 C1781 1.384 . S
N1785 C1777 1.427 . S
N1785 C1783 1.384 . S
H1786 C1792 0.930 . S
H1787 C1796 0.930 . S
H1788 C1801 0.929 . S
H1789 C1799 0.929 . S
H1790 C1794 0.929 . S
H1791 C1800 0.929 . S
C1792 H1786 0.930 . S
C1792 C1793 1.367 . S
C1792 C1800 1.378 . S
C1793 C1792 1.367 . S
C1793 C1801 1.433 . S
C1794 H1790 0.929 . S
C1794 C1796 1.378 . S
C1794 C1798 1.350 . S
C1795 C1798 1.463 . S
C1795 C1800 1.350 . S
C1795 N1803 1.427 . S
C1796 H1787 0.930 . S
C1796 C1794 1.378 . S
C1796 C1797 1.367 . S
C1797 C1796 1.367 . S
C1797 C1799 1.433 . S
C1798 C1794 1.350 . S
C1798 C1795 1.463 . S
C1798 N1802 1.427 . S
C1799 H1789 0.929 . S
C1799 C1797 1.433 . S
C1799 N1802 1.384 . S
C1800 H1791 0.929 . S
C1800 C1792 1.378 . S
C1800 C1795 1.350 . S
C1801 H1788 0.929 . S
C1801 C1793 1.433 . S
C1801 N1803 1.384 . S
N1802 C1798 1.427 . S
N1802 C1799 1.384 . S
N1803 C1795 1.427 . S
N1803 C1801 1.384 . S
H1804 C1810 0.930 . S
H1805 C1814 0.930 . S
H1806 C1819 0.929 . S
H1807 C1817 0.929 . S
H1808 C1812 0.929 . S
H1809 C1818 0.929 . S
C1810 H1804 0.930 . S
C1810 C1811 1.367 . S
C1810 C1818 1.378 . S
C1811 C1810 1.367 . S
C1811 C1819 1.433 . S
C1812 H1808 0.929 . S
C1812 C1814 1.378 . S
C1812 C1816 1.350 . S
C1813 C1816 1.463 1_455 S
C1813 C1818 1.350 . S
C1813 N1821 1.427 . S
C1814 H1805 0.930 . S
C1814 C1812 1.378 . S
C1814 C1815 1.367 . S
C1815 C1814 1.367 . S
C1815 C1817 1.433 . S
C1816 C1812 1.350 . S
C1816 C1813 1.463 1_655 S
C1816 N1820 1.427 . S
C1817 H1807 0.929 . S
C1817 C1815 1.433 . S
C1817 N1820 1.384 . S
C1818 H1809 0.929 . S
C1818 C1810 1.378 . S
C1818 C1813 1.350 . S
C1819 H1806 0.929 . S
C1819 C1811 1.433 . S
C1819 N1821 1.384 . S
N1820 C1816 1.427 . S
N1820 C1817 1.384 . S
N1821 C1813 1.427 . S
N1821 C1819 1.384 . S
H1822 C1828 0.930 . S
H1823 C1832 0.930 . S
H1824 C1837 0.929 . S
H1825 C1835 0.929 . S
H1826 C1830 0.929 . S
H1827 C1836 0.929 . S
C1828 H1822 0.930 . S
C1828 C1829 1.367 . S
C1828 C1836 1.378 . S
C1829 C1828 1.367 . S
C1829 C1837 1.433 . S
C1830 H1826 0.929 . S
C1830 C1832 1.378 . S
C1830 C1834 1.350 . S
C1831 C1834 1.463 . S
C1831 C1836 1.350 . S
C1831 N1839 1.427 . S
C1832 H1823 0.930 . S
C1832 C1830 1.378 . S
C1832 C1833 1.367 . S
C1833 C1832 1.367 . S
C1833 C1835 1.433 . S
C1834 C1830 1.350 . S
C1834 C1831 1.463 . S
C1834 N1838 1.427 . S
C1835 H1825 0.929 . S
C1835 C1833 1.433 . S
C1835 N1838 1.384 . S
C1836 H1827 0.929 . S
C1836 C1828 1.378 . S
C1836 C1831 1.350 . S
C1837 H1824 0.929 . S
C1837 C1829 1.433 . S
C1837 N1839 1.384 . S
N1838 C1834 1.427 . S
N1838 C1835 1.384 . S
N1839 C1831 1.427 . S
N1839 C1837 1.384 . S
H1840 C1846 0.930 . S
H1841 C1850 0.930 . S
H1842 C1855 0.929 . S
H1843 C1853 0.929 . S
H1844 C1848 0.929 . S
H1845 C1854 0.929 . S
C1846 H1840 0.930 . S
C1846 C1847 1.367 . S
C1846 C1854 1.378 . S
C1847 C1846 1.367 . S
C1847 C1855 1.433 . S
C1848 H1844 0.929 . S
C1848 C1850 1.378 . S
C1848 C1852 1.350 . S
C1849 C1852 1.463 . S
C1849 C1854 1.350 . S
C1849 N1857 1.427 . S
C1850 H1841 0.930 . S
C1850 C1848 1.378 . S
C1850 C1851 1.367 . S
C1851 C1850 1.367 . S
C1851 C1853 1.433 . S
C1852 C1848 1.350 . S
C1852 C1849 1.463 . S
C1852 N1856 1.427 . S
C1853 H1843 0.929 . S
C1853 C1851 1.433 . S
C1853 N1856 1.384 . S
C1854 H1845 0.929 . S
C1854 C1846 1.378 . S
C1854 C1849 1.350 . S
C1855 H1842 0.929 . S
C1855 C1847 1.433 . S
C1855 N1857 1.384 . S
N1856 C1852 1.427 . S
N1856 C1853 1.384 . S
N1857 C1849 1.427 . S
N1857 C1855 1.384 . S
H1858 C1864 0.930 . S
H1859 C1868 0.930 . S
H1860 C1873 0.929 . S
H1861 C1871 0.929 . S
H1862 C1866 0.929 . S
H1863 C1872 0.929 . S
C1864 H1858 0.930 . S
C1864 C1865 1.367 . S
C1864 C1872 1.378 . S
C1865 C1864 1.367 . S
C1865 C1873 1.433 . S
C1866 H1862 0.929 . S
C1866 C1868 1.378 . S
C1866 C1870 1.350 . S
C1867 C1870 1.463 . S
C1867 C1872 1.350 . S
C1867 N1875 1.427 . S
C1868 H1859 0.930 . S
C1868 C1866 1.378 . S
C1868 C1869 1.367 . S
C1869 C1868 1.367 . S
C1869 C1871 1.433 . S
C1870 C1866 1.350 . S
C1870 C1867 1.463 . S
C1870 N1874 1.427 . S
C1871 H1861 0.929 . S
C1871 C1869 1.433 . S
C1871 N1874 1.384 . S
C1872 H1863 0.929 . S
C1872 C1864 1.378 . S
C1872 C1867 1.350 . S
C1873 H1860 0.929 . S
C1873 C1865 1.433 . S
C1873 N1875 1.384 . S
N1874 C1870 1.427 . S
N1874 C1871 1.384 . S
N1875 C1867 1.427 . S
N1875 C1873 1.384 . S
H1876 C1882 0.930 . S
H1877 C1886 0.930 . S
H1878 C1891 0.929 . S
H1879 C1889 0.929 . S
H1880 C1884 0.929 . S
H1881 C1890 0.929 . S
C1882 H1876 0.930 . S
C1882 C1883 1.367 . S
C1882 C1890 1.378 . S
C1883 C1882 1.367 . S
C1883 C1891 1.433 . S
C1884 H1880 0.929 . S
C1884 C1886 1.378 . S
C1884 C1888 1.350 . S
C1885 C1888 1.463 . S
C1885 C1890 1.350 . S
C1885 N1893 1.427 . S
C1886 H1877 0.930 . S
C1886 C1884 1.378 . S
C1886 C1887 1.367 . S
C1887 C1886 1.367 . S
C1887 C1889 1.433 . S
C1888 C1884 1.350 . S
C1888 C1885 1.463 . S
C1888 N1892 1.427 . S
C1889 H1879 0.929 . S
C1889 C1887 1.433 . S
C1889 N1892 1.384 . S
C1890 H1881 0.929 . S
C1890 C1882 1.378 . S
C1890 C1885 1.350 . S
C1891 H1878 0.929 . S
C1891 C1883 1.433 . S
C1891 N1893 1.384 . S
N1892 C1888 1.427 . S
N1892 C1889 1.384 . S
N1893 C1885 1.427 . S
N1893 C1891 1.384 . S
H1894 C1900 0.930 . S
H1895 C1904 0.930 . S
H1896 C1909 0.929 . S
H1897 C1907 0.929 . S
H1898 C1902 0.929 . S
H1899 C1908 0.929 . S
C1900 H1894 0.930 . S
C1900 C1901 1.367 . S
C1900 C1908 1.378 . S
C1901 C1900 1.367 . S
C1901 C1909 1.433 . S
C1902 H1898 0.929 . S
C1902 C1904 1.378 . S
C1902 C1906 1.350 . S
C1903 C1906 1.463 . S
C1903 C1908 1.350 . S
C1903 N1911 1.427 . S
C1904 H1895 0.930 . S
C1904 C1902 1.378 . S
C1904 C1905 1.367 . S
C1905 C1904 1.367 . S
C1905 C1907 1.433 . S
C1906 C1902 1.350 . S
C1906 C1903 1.463 . S
C1906 N1910 1.427 . S
C1907 H1897 0.929 . S
C1907 C1905 1.433 . S
C1907 N1910 1.384 . S
C1908 H1899 0.929 . S
C1908 C1900 1.378 . S
C1908 C1903 1.350 . S
C1909 H1896 0.929 . S
C1909 C1901 1.433 . S
C1909 N1911 1.384 . S
N1910 C1906 1.427 . S
N1910 C1907 1.384 . S
N1911 C1903 1.427 . S
N1911 C1909 1.384 . S
H1912 C1918 0.930 . S
H1913 C1922 0.930 . S
H1914 C1927 0.929 . S
H1915 C1925 0.929 . S
H1916 C1920 0.929 . S
H1917 C1926 0.929 . S
C1918 H1912 0.930 . S
C1918 C1919 1.367 . S
C1918 C1926 1.378 . S
C1919 C1918 1.367 . S
C1919 C1927 1.433 . S
C1920 H1916 0.929 . S
C1920 C1922 1.378 . S
C1920 C1924 1.350 . S
C1921 C1924 1.463 . S
C1921 C1926 1.350 . S
C1921 N1929 1.427 . S
C1922 H1913 0.930 . S
C1922 C1920 1.378 . S
C1922 C1923 1.367 . S
C1923 C1922 1.367 . S
C1923 C1925 1.433 . S
C1924 C1920 1.350 . S
C1924 C1921 1.463 . S
C1924 N1928 1.427 . S
C1925 H1915 0.929 . S
C1925 C1923 1.433 . S
C1925 N1928 1.384 . S
C1926 H1917 0.929 . S
C1926 C1918 1.378 . S
C1926 C1921 1.350 . S
C1927 H1914 0.929 . S
C1927 C1919 1.433 . S
C1927 N1929 1.384 . S
N1928 C1924 1.427 . S
N1928 C1925 1.384 . S
N1929 C1921 1.427 . S
N1929 C1927 1.384 . S
H1930 C1936 0.930 . S
H1931 C1940 0.930 . S
H1932 C1945 0.929 . S
H1933 C1943 0.929 . S
H1934 C1938 0.929 . S
H1935 C1944 0.929 . S
C1936 H1930 0.930 . S
C1936 C1937 1.367 . S
C1936 C1944 1.378 . S
C1937 C1936 1.367 . S
C1937 C1945 1.433 . S
C1938 H1934 0.929 . S
C1938 C1940 1.378 . S
C1938 C1942 1.350 . S
C1939 C1942 1.463 . S
C1939 C1944 1.350 . S
C1939 N1947 1.427 . S
C1940 H1931 0.930 . S
C1940 C1938 1.378 . S
C1940 C1941 1.367 . S
C1941 C1940 1.367 . S
C1941 C1943 1.433 . S
C1942 C1938 1.350 . S
C1942 C1939 1.463 . S
C1942 N1946 1.427 . S
C1943 H1933 0.929 . S
C1943 C1941 1.433 . S
C1943 N1946 1.384 . S
C1944 H1935 0.929 . S
C1944 C1936 1.378 . S
C1944 C1939 1.350 . S
C1945 H1932 0.929 . S
C1945 C1937 1.433 . S
C1945 N1947 1.384 . S
N1946 C1942 1.427 . S
N1946 C1943 1.384 . S
N1947 C1939 1.427 . S
N1947 C1945 1.384 . S
H1948 C1954 0.930 . S
H1949 C1958 0.930 . S
H1950 C1963 0.929 . S
H1951 C1961 0.929 . S
H1952 C1956 0.929 . S
H1953 C1962 0.929 . S
C1954 H1948 0.930 . S
C1954 C1955 1.367 . S
C1954 C1962 1.378 . S
C1955 C1954 1.367 . S
C1955 C1963 1.433 . S
C1956 H1952 0.929 . S
C1956 C1958 1.378 . S
C1956 C1960 1.350 . S
C1957 C1960 1.463 . S
C1957 C1962 1.350 . S
C1957 N1965 1.427 . S
C1958 H1949 0.930 . S
C1958 C1956 1.378 . S
C1958 C1959 1.367 . S
C1959 C1958 1.367 . S
C1959 C1961 1.433 . S
C1960 C1956 1.350 . S
C1960 C1957 1.463 . S
C1960 N1964 1.427 . S
C1961 H1951 0.929 . S
C1961 C1959 1.433 . S
C1961 N1964 1.384 . S
C1962 H1953 0.929 . S
C1962 C1954 1.378 . S
C1962 C1957 1.350 . S
C1963 H1950 0.929 . S
C1963 C1955 1.433 . S
C1963 N1965 1.384 . S
N1964 C1960 1.427 . S
N1964 C1961 1.384 . S
N1965 C1957 1.427 . S
N1965 C1963 1.384 . S
H1966 C1972 0.930 . S
H1967 C1976 0.930 . S
H1968 C1981 0.929 . S
H1969 C1979 0.929 . S
H1970 C1974 0.929 . S
H1971 C1980 0.929 . S
C1972 H1966 0.930 . S
C1972 C1973 1.367 . S
C1972 C1980 1.378 . S
C1973 C1972 1.367 . S
C1973 C1981 1.433 . S
C1974 H1970 0.929 . S
C1974 C1976 1.378 . S
C1974 C1978 1.350 . S
C1975 C1978 1.463 . S
C1975 C1980 1.350 . S
C1975 N1983 1.427 . S
C1976 H1967 0.930 . S
C1976 C1974 1.378 . S
C1976 C1977 1.367 . S
C1977 C1976 1.367 . S
C1977 C1979 1.433 . S
C1978 C1974 1.350 . S
C1978 C1975 1.463 . S
C1978 N1982 1.427 . S
C1979 H1969 0.929 . S
C1979 C1977 1.433 . S
C1979 N1982 1.384 . S
C1980 H1971 0.929 . S
C1980 C1972 1.378 . S
C1980 C1975 1.350 . S
C1981 H1968 0.929 . S
C1981 C1973 1.433 . S
C1981 N1983 1.384 . S
N1982 C1978 1.427 . S
N1982 C1979 1.384 . S
N1983 C1975 1.427 . S
N1983 C1981 1.384 . S
C1415 C20 1.327 . S
C1419 C1085 1.325 . S
C1433 C1164 1.323 . S
C1437 C137 1.325 . S
C1451 C233 1.326 . S
C1455 C1281 1.324 . S
C1469 C1377 1.327 . S
C1473 C284 1.328 . S
C1487 C724 1.328 . S
C1491 C381 1.327 . S
C1505 C460 1.323 . S
C1509 C841 1.325 . S
C1523 C937 1.325 . S
C1527 C577 1.323 . S
C1541 C673 1.327 . S
C1545 C988 1.328 . S
C1559 C49 1.488 . S
C1563 C205 1.483 . S
C1577 C108 1.488 . S
C1581 C313 1.486 . S
C1595 C372 1.480 . S
C1599 C585 1.484 . S
C1613 C469 1.482 . S
C1617 C665 1.480 . S
C1631 C909 1.483 . S
C1635 C753 1.486 . S
C1649 C812 1.488 . S
C1653 C1017 1.486 . S
C1667 C1289 1.480 . S
C1671 C1076 1.482 . S
C1685 C1173 1.482 . S
C1689 C1369 1.480 . S
C1703 C548 1.518 . S
C1707 C29 1.521 . S
C1721 C645 1.521 . S
C1725 C145 1.518 . S
C1739 C225 1.520 . S
C1743 C409 1.519 . S
C1757 C293 1.521 . S
C1761 C489 1.519 . S
C1775 C1252 1.518 . S
C1779 C733 1.521 . S
C1793 C849 1.520 . S
C1797 C1349 1.519 . S
C1811 C1113 1.518 . S
C1815 C929 1.521 . S
C1829 C997 1.521 . S
C1833 C1193 1.518 . S
C1847 C57 1.322 . S
C1851 C321 1.322 . S
C1865 C196 1.324 . S
C1869 C117 1.323 . S
C1883 C401 1.308 . S
C1887 C636 1.308 . S
C1901 C497 1.308 . S
C1905 C557 1.307 . S
C1919 C1025 1.323 . S
C1923 C761 1.324 . S
C1937 C821 1.325 . S
C1941 C900 1.325 . S
C1955 C1340 1.308 . S
C1959 C1105 1.309 . S
C1973 C1201 1.308 . S
C1977 C1261 1.308 . S
