# Generated by pormake.
# Topology crb, (4)-cn, num edge types: 1
# Building blocks:
#     Node 0, Type 0, BuildingBlock: AZAVOO_clean_sbu_0, # of connection points: 4
#     Node 1, Type 0, BuildingBlock: AZAVOO_clean_sbu_0, # of connection points: 4
#     Node 2, Type 0, BuildingBlock: AZAVOO_clean_sbu_0, # of connection points: 4
#     Node 3, Type 0, BuildingBlock: AZAVOO_clean_sbu_0, # of connection points: 4
#     Node 4, Type 0, BuildingBlock: AZAVOO_clean_sbu_0, # of connection points: 4
#     Node 5, Type 0, BuildingBlock: AZAVOO_clean_sbu_0, # of connection points: 4
#     Node 6, Type 0, BuildingBlock: AZAVOO_clean_sbu_0, # of connection points: 4
#     Node 7, Type 0, BuildingBlock: AZAVOO_clean_sbu_0, # of connection points: 4
#     Edge 8, Type (0, 0), BuildingBlock: TEMPAE_clean_linker_10, # of connection points: 2
#     Edge 9, Type (0, 0), BuildingBlock: TEMPAE_clean_linker_10, # of connection points: 2
#     Edge 10, Type (0, 0), BuildingBlock: TEMPAE_clean_linker_10, # of connection points: 2
#     Edge 11, Type (0, 0), BuildingBlock: TEMPAE_clean_linker_10, # of connection points: 2
#     Edge 12, Type (0, 0), BuildingBlock: TEMPAE_clean_linker_10, # of connection points: 2
#     Edge 13, Type (0, 0), BuildingBlock: TEMPAE_clean_linker_10, # of connection points: 2
#     Edge 14, Type (0, 0), BuildingBlock: TEMPAE_clean_linker_10, # of connection points: 2
#     Edge 15, Type (0, 0), BuildingBlock: TEMPAE_clean_linker_10, # of connection points: 2
#     Edge 16, Type (0, 0), BuildingBlock: TEMPAE_clean_linker_10, # of connection points: 2
#     Edge 17, Type (0, 0), BuildingBlock: TEMPAE_clean_linker_10, # of connection points: 2
#     Edge 18, Type (0, 0), BuildingBlock: TEMPAE_clean_linker_10, # of connection points: 2
#     Edge 19, Type (0, 0), BuildingBlock: TEMPAE_clean_linker_10, # of connection points: 2
#     Edge 20, Type (0, 0), BuildingBlock: TEMPAE_clean_linker_10, # of connection points: 2
#     Edge 21, Type (0, 0), BuildingBlock: TEMPAE_clean_linker_10, # of connection points: 2
#     Edge 22, Type (0, 0), BuildingBlock: TEMPAE_clean_linker_10, # of connection points: 2
#     Edge 23, Type (0, 0), BuildingBlock: TEMPAE_clean_linker_10, # of connection points: 2
# Relax obj value: 0.038
# Max RMSD: 0.066
# Mean RMSD: 0.066
data_MOF--net-crb--node1-AZAVOO_clean_sbu_0--edge1-TEMPAE_clean_linker_10
_symmetry_space_group_name_H-M    P1
_symmetry_Int_Tables_number       1
_symmetry_cell_setting            triclinic
loop_
_symmetry_equiv_pos_as_xyz
'x, y, z'
_cell_length_a     45.88447
_cell_length_b     38.105672
_cell_length_c     25.918976
_cell_angle_alpha  90.059226
_cell_angle_beta   90.070805
_cell_angle_gamma 89.793554
loop_
_atom_site_label
_atom_site_type_symbol
_atom_site_fract_x
_atom_site_fract_y
_atom_site_fract_z
_atom_type_partial_charge
Mg0 Mg 0.33164 0.30875 0.92395 0.0
O1 O 0.32258 0.36687 0.94294 0.0
O2 O 0.27411 0.37349 0.94757 0.0
Mg3 Mg 0.25221 0.32212 0.92471 0.0
C4 C 0.29992 0.38557 0.95145 0.0
C5 C 0.39827 0.29705 0.92323 0.0
O6 O 0.38972 0.27778 0.88399 0.0
O7 O 0.31775 0.29193 0.00492 0.0
O8 O 0.26923 0.2988 -0.00021 0.0
O9 O 0.32993 0.31915 0.8385 0.0
O10 O 0.29216 0.30475 0.88624 0.0
C11 C 0.29221 0.28969 0.02423 0.0
C12 C 0.30231 0.3125 0.84166 0.0
O13 O 0.37925 0.3144 0.94831 0.0
Mg14 Mg 0.66816 0.28489 0.08666 0.0
O15 O 0.67903 0.34307 0.0758 0.0
O16 O 0.72572 0.35087 0.09811 0.0
Mg17 Mg 0.74477 0.29806 0.12456 0.0
C18 C 0.70132 0.36267 0.08163 0.0
C19 C 0.60384 0.27392 0.05867 0.0
O20 O 0.60807 0.25159 0.09658 0.0
O21 O 0.69382 0.27215 0.01342 0.0
O22 O 0.73972 0.27554 0.04325 0.0
O23 O 0.65672 0.2927 0.1706 0.0
O24 O 0.70076 0.28055 0.14125 0.0
C25 C 0.72133 0.26833 0.00779 0.0
C26 C 0.68421 0.28795 0.1795 0.0
O27 O 0.62522 0.29226 0.0433 0.0
Mg28 Mg 0.67709 0.69357 0.94569 0.0
O29 O 0.68547 0.63541 0.96537 0.0
O30 O 0.7337 0.62654 0.96424 0.0
Mg31 Mg 0.75626 0.67869 0.94865 0.0
C32 C 0.70771 0.61536 0.96983 0.0
C33 C 0.61094 0.70214 0.93512 0.0
O34 O 0.62104 0.71728 0.8933 0.0
O35 O 0.68985 0.70975 0.02724 0.0
O36 O 0.73814 0.70064 0.02454 0.0
O37 O 0.67968 0.683 0.86049 0.0
O38 O 0.71711 0.69746 0.90926 0.0
C39 C 0.71507 0.71048 0.04814 0.0
C40 C 0.70728 0.68953 0.86443 0.0
O41 O 0.62897 0.68841 0.96655 0.0
Mg42 Mg 0.33617 0.71676 0.06261 0.0
O43 O 0.32571 0.65826 0.05386 0.0
O44 O 0.27796 0.65238 0.0696 0.0
Mg45 Mg 0.25981 0.70443 0.10094 0.0
C46 C 0.3026 0.63974 0.05589 0.0
C47 C 0.3995 0.72971 0.03398 0.0
O48 O 0.39369 0.7539 0.06867 0.0
O49 O 0.30988 0.7291 0.98931 0.0
O50 O 0.2643 0.72833 0.02081 0.0
O51 O 0.34854 0.71041 0.14606 0.0
O52 O 0.30406 0.72143 0.11761 0.0
C53 C 0.28247 0.73465 0.98475 0.0
C54 C 0.32114 0.71514 0.15568 0.0
O55 O 0.37914 0.70932 0.01977 0.0
Mg56 Mg 0.82735 0.80756 0.4457 0.0
O57 O 0.81863 0.86558 0.46569 0.0
O58 O 0.7703 0.87209 0.47354 0.0
Mg59 Mg 0.74804 0.82057 0.45226 0.0
C60 C 0.79615 0.88424 0.47573 0.0
C61 C 0.8938 0.8033 0.43138 0.0
O62 O 0.88386 0.79142 0.38714 0.0
O63 O 0.81558 0.79038 0.52763 0.0
O64 O 0.76699 0.79714 0.52599 0.0
O65 O 0.82379 0.81851 0.36088 0.0
O66 O 0.78702 0.80338 0.41059 0.0
C67 C 0.79051 0.78803 0.54877 0.0
C68 C 0.79631 0.81151 0.36552 0.0
O69 O 0.87562 0.8133 0.46542 0.0
Mg70 Mg 0.16791 0.79135 0.56215 0.0
O71 O 0.17809 0.84982 0.55318 0.0
O72 O 0.22438 0.85828 0.57739 0.0
Mg73 Mg 0.24365 0.80564 0.60405 0.0
C74 C 0.20005 0.86977 0.56014 0.0
C75 C 0.1058 0.7757 0.52632 0.0
O76 O 0.11219 0.74885 0.5561 0.0
O77 O 0.1948 0.77993 0.48981 0.0
O78 O 0.24015 0.78359 0.52211 0.0
O79 O 0.15495 0.79771 0.64542 0.0
O80 O 0.19968 0.78693 0.61816 0.0
C81 C 0.22243 0.77647 0.48554 0.0
C82 C 0.18232 0.79329 0.65571 0.0
O83 O 0.12531 0.7986 0.51804 0.0
Mg84 Mg 0.17599 0.20048 0.42328 0.0
O85 O 0.18429 0.14219 0.44208 0.0
O86 O 0.23241 0.13271 0.43914 0.0
Mg87 Mg 0.25519 0.18459 0.42294 0.0
C88 C 0.2064 0.12184 0.44565 0.0
C89 C 0.11498 0.21654 0.47409 0.0
O90 O 0.13015 0.24172 0.49585 0.0
O91 O 0.19002 0.21602 0.50467 0.0
O92 O 0.23821 0.20637 0.49952 0.0
O93 O 0.1777 0.19034 0.33788 0.0
O94 O 0.21567 0.2042 0.38572 0.0
C95 C 0.21559 0.21634 0.5243 0.0
C96 C 0.20539 0.19649 0.34114 0.0
O97 O 0.12782 0.1949 0.44437 0.0
Mg98 Mg 0.8397 0.21427 0.58696 0.0
O99 O 0.82729 0.15641 0.57682 0.0
O100 O 0.77916 0.15261 0.59018 0.0
Mg101 Mg 0.76218 0.20549 0.62044 0.0
C102 C 0.80361 0.13891 0.57763 0.0
C103 C 0.89722 0.22809 0.52361 0.0
O104 O 0.88466 0.25873 0.51639 0.0
O105 O 0.81543 0.2283 0.51191 0.0
O106 O 0.76931 0.22912 0.54089 0.0
O107 O 0.84998 0.20654 0.67101 0.0
O108 O 0.80658 0.22028 0.63999 0.0
C109 C 0.78826 0.23494 0.50594 0.0
C110 C 0.82258 0.2125 0.67893 0.0
O111 O 0.88347 0.20434 0.54778 0.0
C112 C 0.32049 0.44555 0.93956 0.0
C113 C 0.3034 0.42224 0.96808 0.0
C114 C 0.32191 0.48123 0.95316 0.0
C115 C 0.30676 0.49335 -0.00259 0.0
C116 C 0.29054 0.46939 0.02755 0.0
C117 C 0.28857 0.43425 0.01187 0.0
C118 C 0.33862 0.50617 0.9191 0.0
C119 C 0.27491 0.48094 0.07596 0.0
C120 C 0.3276 0.58141 0.05594 0.0
C121 C 0.30416 0.60255 0.04035 0.0
C122 C 0.32876 0.5457 0.0424 0.0
C123 C 0.30653 0.53133 0.01091 0.0
C124 C 0.28331 0.553 -0.00622 0.0
C125 C 0.28212 0.58819 0.00957 0.0
C126 C 0.35329 0.52318 0.06293 0.0
C127 C 0.25968 0.539 0.95883 0.0
H128 H 0.33176 0.43613 0.90547 0.0
H129 H 0.27556 0.41599 0.03408 0.0
H130 H 0.32347 0.52605 0.90278 0.0
H131 H 0.35517 0.5205 0.94202 0.0
H132 H 0.34975 0.49244 0.88679 0.0
H133 H 0.26564 0.45845 0.09759 0.0
H134 H 0.29008 0.49535 0.1017 0.0
H135 H 0.2569 0.49919 0.06587 0.0
H136 H 0.34456 0.59257 0.07997 0.0
H137 H 0.26419 0.60473 -0.00297 0.0
H138 H 0.36537 0.51082 0.0306 0.0
H139 H 0.34423 0.50164 0.08676 0.0
H140 H 0.36889 0.53841 0.08682 0.0
H141 H 0.26953 0.52631 0.92442 0.0
H142 H 0.24448 0.55993 0.94571 0.0
H143 H 0.24692 0.51869 0.97935 0.0
C144 C 0.43842 0.31614 0.98272 0.0
C145 C 0.42926 0.29671 0.93966 0.0
C146 C 0.46734 0.31423 0.00039 0.0
C147 C 0.4876 0.29233 0.97447 0.0
C148 C 0.47869 0.2734 0.93019 0.0
C149 C 0.44967 0.27585 0.91331 0.0
C150 C 0.47604 0.33492 0.04765 0.0
C151 C 0.49961 0.24975 0.9015 0.0
C152 C 0.56876 0.30463 -0.00072 0.0
C153 C 0.57437 0.27835 0.03592 0.0
C154 C 0.54062 0.30955 0.97889 0.0
C155 C 0.51761 0.28759 -0.00461 0.0
C156 C 0.52321 0.26086 0.032 0.0
C157 C 0.55147 0.25661 0.05184 0.0
C158 C 0.53547 0.33837 0.93997 0.0
C159 C 0.49931 0.23676 0.05039 0.0
H160 H 0.42285 0.33243 0.00323 0.0
H161 H 0.44287 0.26082 0.87991 0.0
H162 H 0.4821 0.31665 0.07923 0.0
H163 H 0.49546 0.35118 0.03922 0.0
H164 H 0.45823 0.35235 0.06151 0.0
H165 H 0.48972 0.23835 0.86613 0.0
H166 H 0.51942 0.26452 0.89042 0.0
H167 H 0.50669 0.22795 0.92702 0.0
H168 H 0.5863 0.3216 0.98683 0.0
H169 H 0.55556 0.2362 0.08005 0.0
H170 H 0.51889 0.35707 0.95485 0.0
H171 H 0.52675 0.32711 0.90364 0.0
H172 H 0.55568 0.35311 0.93101 0.0
H173 H 0.48162 0.25235 0.06855 0.0
H174 H 0.50731 0.21712 0.07877 0.0
H175 H 0.48966 0.22262 0.0171 0.0
C176 C 0.68087 0.41053 0.02641 0.0
C177 C 0.69917 0.40007 0.06699 0.0
C178 C 0.68021 0.44555 0.0096 0.0
C179 C 0.69767 0.47084 0.03497 0.0
C180 C 0.71532 0.46062 0.07729 0.0
C181 C 0.71619 0.42525 0.09228 0.0
C182 C 0.6617 0.4552 0.96351 0.0
C183 C 0.73366 0.48696 0.10621 0.0
C184 C 0.72321 0.55267 0.96533 0.0
C185 C 0.70359 0.57808 0.98353 0.0
C186 C 0.72081 0.51745 0.98032 0.0
C187 C 0.69879 0.50758 0.01563 0.0
C188 C 0.6787 0.53307 0.03373 0.0
C189 C 0.68108 0.56799 0.01684 0.0
C190 C 0.74216 0.4909 0.95899 0.0
C191 C 0.65538 0.52374 0.07234 0.0
H192 H 0.66784 0.39104 0.00653 0.0
H193 H 0.73016 0.41728 0.12398 0.0
H194 H 0.64673 0.4771 0.97338 0.0
H195 H 0.67591 0.46444 0.9317 0.0
H196 H 0.64858 0.43274 0.94927 0.0
H197 H 0.74423 0.47536 0.14084 0.0
H198 H 0.75091 0.49731 0.0805 0.0
H199 H 0.72003 0.50958 0.11852 0.0
H200 H 0.74048 0.56039 0.93923 0.0
H201 H 0.66605 0.58768 0.0313 0.0
H202 H 0.73028 0.46833 0.94206 0.0
H203 H 0.75605 0.48054 0.99058 0.0
H204 H 0.75651 0.50231 0.92892 0.0
H205 H 0.64185 0.50188 0.05751 0.0
H206 H 0.6409 0.54635 0.08137 0.0
H207 H 0.66571 0.51456 0.10866 0.0
C208 C 0.4375 0.69555 0.98532 0.0
C209 C 0.42975 0.7249 0.0151 0.0
C210 C 0.46656 0.68985 0.9702 0.0
C211 C 0.48829 0.71418 0.98496 0.0
C212 C 0.48048 0.74417 0.01418 0.0
C213 C 0.45136 0.74911 0.02896 0.0
C214 C 0.47408 0.65756 0.93909 0.0
C215 C 0.50296 0.7709 0.03035 0.0
C216 C 0.56823 0.68789 -0.00831 0.0
C217 C 0.57925 0.70294 0.9464 0.0
C218 C 0.53847 0.6904 0.00397 0.0
C219 C 0.51931 0.70846 0.97021 0.0
C220 C 0.53016 0.72286 0.92379 0.0
C221 C 0.55997 0.7199 0.91243 0.0
C222 C 0.52768 0.67456 0.05375 0.0
C223 C 0.51046 0.74235 0.88683 0.0
H224 H 0.42096 0.67666 0.97458 0.0
H225 H 0.44559 0.77193 0.05182 0.0
H226 H 0.48477 0.66521 0.90244 0.0
H227 H 0.48983 0.64104 0.96079 0.0
H228 H 0.45458 0.64151 0.92991 0.0
H229 H 0.49323 0.79311 0.05224 0.0
H230 H 0.51981 0.7582 0.05481 0.0
H231 H 0.51416 0.78154 -0.00414 0.0
H232 H 0.58293 0.67462 0.01806 0.0
H233 H 0.56823 0.73151 0.87723 0.0
H234 H 0.50904 0.65685 0.04603 0.0
H235 H 0.51972 0.69567 0.07973 0.0
H236 H 0.54495 0.6595 0.07417 0.0
H237 H 0.49152 0.72582 0.87621 0.0
H238 H 0.52194 0.75021 0.85097 0.0
H239 H 0.50178 0.76632 0.90579 0.0
C240 C 0.81775 0.94369 0.46349 0.0
C241 C 0.79995 0.92102 0.49179 0.0
C242 C 0.81972 0.9794 0.47666 0.0
C243 C 0.80441 0.99221 0.5203 0.0
C244 C 0.78738 0.96892 0.55017 0.0
C245 C 0.78489 0.93374 0.5349 0.0
C246 C 0.8373 0.00363 0.44286 0.0
C247 C 0.77153 0.98122 0.59796 0.0
C248 C 0.82702 0.07964 0.57876 0.0
C249 C 0.80432 0.10164 0.56232 0.0
C250 C 0.82734 0.04386 0.56555 0.0
C251 C 0.80502 0.03023 0.53355 0.0
C252 C 0.78255 0.05271 0.51558 0.0
C253 C 0.78218 0.08801 0.53103 0.0
C254 C 0.85107 0.02049 0.58696 0.0
C255 C 0.75887 0.03949 0.48008 0.0
H256 H 0.82921 0.93375 0.42993 0.0
H257 H 0.77133 0.916 0.557 0.0
H258 H 0.8228 0.02407 0.42621 0.0
H259 H 0.85409 0.01733 0.46608 0.0
H260 H 0.84826 0.98944 0.4108 0.0
H261 H 0.76142 0.95917 0.61939 0.0
H262 H 0.78681 0.99509 0.62415 0.0
H263 H 0.75415 1.00014 0.58718 0.0
H264 H 0.84405 0.09023 0.60321 0.0
H265 H 0.76481 0.10519 0.51785 0.0
H266 H 0.86314 0.00761 0.55508 0.0
H267 H 0.84122 0.99936 0.61061 0.0
H268 H 0.86682 0.03519 0.61126 0.0
H269 H 0.76869 0.02634 0.44602 0.0
H270 H 0.74433 0.06094 0.46642 0.0
H271 H 0.74542 0.01973 0.50038 0.0
C272 C 0.05496 0.75399 0.51387 0.0
C273 C 0.07563 0.7806 0.50702 0.0
C274 C 0.02576 0.75895 0.49944 0.0
C275 C 0.01692 0.79139 0.4778 0.0
C276 C 0.03777 0.81814 0.46977 0.0
C277 C 0.06692 0.81239 0.48433 0.0
C278 C 0.00425 0.72963 0.50818 0.0
C279 C 0.02915 0.85307 0.44683 0.0
C280 C 0.94518 0.79082 0.40456 0.0
C281 C 0.92555 0.80283 0.44221 0.0
C282 C 0.97511 0.78793 0.41511 0.0
C283 C 0.98571 0.79729 0.46451 0.0
C284 C 0.96617 0.81043 0.5022 0.0
C285 C 0.93632 0.81305 0.4906 0.0
C286 C 0.99524 0.77386 0.37388 0.0
C287 C 0.97667 0.8208 0.55528 0.0
H288 H 0.0615 0.7293 0.53116 0.0
H289 H 0.08274 0.83313 0.47901 0.0
H290 H 0.9871 0.7384 0.53549 0.0
H291 H 0.99328 0.72274 0.4714 0.0
H292 H 0.01479 0.70565 0.524 0.0
H293 H 0.04814 0.87069 0.44146 0.0
H294 H 0.01839 0.84911 0.40894 0.0
H295 H 0.01315 0.86635 0.47237 0.0
H296 H 0.93712 0.78301 0.36696 0.0
H297 H 0.92135 0.82247 0.51987 0.0
H298 H 0.00466 0.74842 0.38653 0.0
H299 H 0.01366 0.79215 0.36774 0.0
H300 H 0.98387 0.7698 0.33649 0.0
H301 H 0.9854 0.79739 0.57558 0.0
H302 H 0.95903 0.83247 0.57916 0.0
H303 H 0.9947 0.84 0.55221 0.0
C304 C 0.22157 0.05902 0.4416 0.0
C305 C 0.20213 0.08465 0.45972 0.0
C306 C 0.21913 0.02392 0.45715 0.0
C307 C 0.19722 0.0144 0.49288 0.0
C308 C 0.17728 0.0401 0.51085 0.0
C309 C 0.17973 0.07489 0.49345 0.0
C310 C 0.24032 0.99713 0.43598 0.0
C311 C 0.15407 0.03113 0.54985 0.0
C312 C 0.17925 0.91746 0.50498 0.0
C313 C 0.19769 0.90717 0.54547 0.0
C314 C 0.17851 0.9524 0.48786 0.0
C315 C 0.19606 0.9778 0.51277 0.0
C316 C 0.21383 0.96779 0.55505 0.0
C317 C 0.21474 0.93249 0.57041 0.0
C318 C 0.15984 0.96185 0.44187 0.0
C319 C 0.2323 0.99426 0.58345 0.0
H320 H 0.23877 0.06647 0.41518 0.0
H321 H 0.16483 0.09475 0.50786 0.0
H322 H 0.25428 0.98692 0.46758 0.0
H323 H 0.22832 0.9745 0.41949 0.0
H324 H 0.25462 0.00828 0.40561 0.0
H325 H 0.13965 0.05385 0.55862 0.0
H326 H 0.14046 0.00918 0.53554 0.0
H327 H 0.1645 0.02222 0.58623 0.0
H328 H 0.16619 0.89789 0.48534 0.0
H329 H 0.22883 0.92468 0.60203 0.0
H330 H 0.17395 0.97071 0.40971 0.0
H331 H 0.14503 0.98394 0.45157 0.0
H332 H 0.14654 0.93937 0.42821 0.0
H333 H 0.24952 0.00436 0.55745 0.0
H334 H 0.24292 0.98284 0.61816 0.0
H335 H 0.21876 0.017 0.59553 0.0
C336 C 0.94416 0.19486 0.53202 0.0
C337 C 0.92839 0.22289 0.51044 0.0
C338 C 0.9744 0.19181 0.52491 0.0
C339 C 0.98919 0.21708 0.49483 0.0
C340 C 0.97321 0.24455 0.47107 0.0
C341 C 0.94304 0.24728 0.47948 0.0
C342 C 0.99068 0.16235 0.55133 0.0
C343 C 0.98812 0.27165 0.43795 0.0
C344 C 0.06947 0.23424 0.52056 0.0
C345 C 0.08293 0.21512 0.4809 0.0
C346 C 0.03903 0.23459 0.52599 0.0
C347 C 0.02156 0.21584 0.49038 0.0
C348 C 0.03501 0.19627 0.45045 0.0
C349 C 0.06555 0.19591 0.44644 0.0
C350 C 0.02555 0.25529 0.56964 0.0
C351 C 0.01711 0.17632 0.41136 0.0
H352 H 0.93307 0.17594 0.55616 0.0
H353 H 0.931 0.26888 0.46245 0.0
H354 H 0.00385 0.14742 0.5229 0.0
H355 H 0.00601 0.1734 0.58017 0.0
H356 H 0.9758 0.14387 0.57128 0.0
H357 H 0.97234 0.28973 0.41908 0.0
H358 H 1.00322 0.28743 0.46198 0.0
H359 H 1.00136 0.2586 0.40766 0.0
H360 H 0.08276 0.24901 0.54746 0.0
H361 H 0.07577 0.18125 0.41546 0.0
H362 H 0.01152 0.23798 0.59332 0.0
H363 H 0.01144 0.27641 0.55386 0.0
H364 H 0.04221 0.26741 0.59512 0.0
H365 H 1.00291 0.15708 0.43114 0.0
H366 H 0.03091 0.16208 0.38297 0.0
H367 H 1.00265 0.19474 0.39017 0.0
C368 C 0.25272 0.21176 0.30033 0.0
C369 C 0.22428 0.19869 0.29516 0.0
C370 C 0.26885 0.22195 0.25711 0.0
C371 C 0.25631 0.2187 0.20757 0.0
C372 C 0.22889 0.20215 0.20171 0.0
C373 C 0.21305 0.1925 0.24574 0.0
C374 C 0.29799 0.23946 0.26506 0.0
C375 C 0.21516 0.19741 0.14923 0.0
C376 C 0.26865 0.29029 0.10959 0.0
C377 C 0.28802 0.27414 0.07536 0.0
C378 C 0.2593 0.27297 0.15405 0.0
C379 C 0.26904 0.23827 0.16367 0.0
C380 C 0.28967 0.22237 0.13034 0.0
C381 C 0.29918 0.24075 0.08653 0.0
C382 C 0.23793 0.29127 0.18941 0.0
C383 C 0.30026 0.18532 0.13907 0.0
H384 H 0.26172 0.21651 0.33833 0.0
H385 H 0.19124 0.18203 0.24145 0.0
H386 H 0.31405 0.23037 0.23599 0.0
H387 H 0.29539 0.26824 0.26027 0.0
H388 H 0.30694 0.23437 0.30421 0.0
H389 H 0.19644 0.17903 0.1504 0.0
H390 H 0.20721 0.22317 0.13493 0.0
H391 H 0.23143 0.18743 0.12113 0.0
H392 H 0.26005 0.31612 0.10056 0.0
H393 H 0.3138 0.22815 0.05933 0.0
H394 H 0.24589 0.29045 0.22982 0.0
H395 H 0.21666 0.27752 0.18825 0.0
H396 H 0.2343 0.31912 0.17841 0.0
H397 H 0.30629 0.18118 0.18007 0.0
H398 H 0.31933 0.17878 0.11445 0.0
H399 H 0.28242 0.16674 0.12987 0.0
C400 C 0.72256 0.30827 0.23965 0.0
C401 C 0.69679 0.28951 0.23144 0.0
C402 C 0.73867 0.30393 0.28518 0.0
C403 C 0.72904 0.27953 0.3225 0.0
C404 C 0.70224 0.26176 0.31532 0.0
C405 C 0.6862 0.26732 0.26991 0.0
C406 C 0.76657 0.32425 0.29227 0.0
C407 C 0.69139 0.2353 0.35408 0.0
C408 C 0.78379 0.23415 0.4101 0.0
C409 C 0.77737 0.24996 0.45743 0.0
C410 C 0.76876 0.24428 0.36523 0.0
C411 C 0.74749 0.27135 0.36803 0.0
C412 C 0.74251 0.28893 0.41524 0.0
C413 C 0.75722 0.27764 0.45958 0.0
C414 C 0.77438 0.22466 0.31558 0.0
C415 C 0.72071 0.31858 0.41947 0.0
H416 H 0.73053 0.32563 0.20977 0.0
H417 H 0.66645 0.25249 0.26293 0.0
H418 H 0.76713 0.33668 0.33099 0.0
H419 H 0.78547 0.30609 0.28987 0.0
H420 H 0.76923 0.34497 0.26253 0.0
H421 H 0.66969 0.22461 0.34352 0.0
H422 H 0.70713 0.21319 0.35685 0.0
H423 H 0.68986 0.24742 0.3929 0.0
H424 H 0.79917 0.21249 0.4088 0.0
H425 H 0.75242 0.28989 0.49641 0.0
H426 H 0.77957 0.2433 0.2841 0.0
H427 H 0.75442 0.21028 0.30399 0.0
H428 H 0.79259 0.20553 0.31926 0.0
H429 H 0.72424 0.33805 0.38832 0.0
H430 H 0.72204 0.33222 0.4573 0.0
H431 H 0.69832 0.30815 0.41478 0.0
C432 C 0.74992 0.79124 0.32584 0.0
C433 C 0.77706 0.8077 0.32017 0.0
C434 C 0.73447 0.77904 0.28281 0.0
C435 C 0.74627 0.78394 0.23302 0.0
C436 C 0.77201 0.80394 0.22679 0.0
C437 C 0.78728 0.81537 0.27059 0.0
C438 C 0.70714 0.75783 0.29117 0.0
C439 C 0.7848 0.81059 0.17409 0.0
C440 C 0.73964 0.71221 0.13311 0.0
C441 C 0.71878 0.72622 0.0995 0.0
C442 C 0.74761 0.73006 0.1781 0.0
C443 C 0.7349 0.76319 0.18896 0.0
C444 C 0.71283 0.77676 0.15631 0.0
C445 C 0.70478 0.75784 0.112 0.0
C446 C 0.77062 0.71414 0.21275 0.0
C447 C 0.69908 0.81215 0.1663 0.0
H448 H 0.74171 0.7854 0.36405 0.0
H449 H 0.80805 0.82847 0.26596 0.0
H450 H 0.69017 0.76475 0.2624 0.0
H451 H 0.7123 0.72955 0.28622 0.0
H452 H 0.69807 0.76174 0.3305 0.0
H453 H 0.80183 0.83124 0.17513 0.0
H454 H 0.79481 0.78603 0.15925 0.0
H455 H 0.76752 0.81861 0.14648 0.0
H456 H 0.75036 0.68768 0.12334 0.0
H457 H 0.6889 0.76885 0.08551 0.0
H458 H 0.76292 0.71369 0.2533 0.0
H459 H 0.79062 0.7304 0.21156 0.0
H460 H 0.77646 0.68695 0.20109 0.0
H461 H 0.69295 0.81499 0.20748 0.0
H462 H 0.67941 0.81652 0.14207 0.0
H463 H 0.71511 0.83303 0.1575 0.0
C464 C 0.22773 0.77727 0.38994 0.0
C465 C 0.2349 0.76251 0.43763 0.0
C466 C 0.24228 0.76651 0.34498 0.0
C467 C 0.26365 0.7396 0.348 0.0
C468 C 0.2698 0.72344 0.39588 0.0
C469 C 0.25571 0.73559 0.44036 0.0
C470 C 0.23567 0.7849 0.29472 0.0
C471 C 0.29164 0.69384 0.40031 0.0
C472 C 0.28365 0.69847 0.21974 0.0
C473 C 0.30961 0.71595 0.2083 0.0
C474 C 0.26919 0.70446 0.26654 0.0
C475 C 0.28051 0.72953 0.30147 0.0
C476 C 0.30734 0.7463 0.29073 0.0
C477 C 0.32186 0.73881 0.24443 0.0
C478 C 0.24128 0.68504 0.27763 0.0
C479 C 0.31977 0.77375 0.32654 0.0
H480 H 0.21176 0.79829 0.38824 0.0
H481 H 0.261 0.72408 0.47748 0.0
H482 H 0.25569 0.79772 0.28001 0.0
H483 H 0.22865 0.76561 0.2652 0.0
H484 H 0.21834 0.80515 0.29891 0.0
H485 H 0.29183 0.68196 0.43943 0.0
H486 H 0.28668 0.67305 0.37162 0.0
H487 H 0.31382 0.7037 0.39173 0.0
H488 H 0.27434 0.68069 0.19155 0.0
H489 H 0.34173 0.75268 0.23487 0.0
H490 H 0.22257 0.70352 0.27584 0.0
H491 H 0.24182 0.67384 0.31712 0.0
H492 H 0.23738 0.66349 0.24958 0.0
H493 H 0.30446 0.79631 0.32917 0.0
H494 H 0.34126 0.78355 0.31325 0.0
H495 H 0.32233 0.76294 0.36598 0.0
C496 C 0.18249 0.76996 0.74461 0.0
C497 C 0.19373 0.79346 0.70847 0.0
C498 C 0.1975 0.76322 0.79074 0.0
C499 C 0.22384 0.78124 0.80115 0.0
C500 C 0.23405 0.80692 0.76626 0.0
C501 C 0.21907 0.81231 0.71978 0.0
C502 C 0.18616 0.73526 0.82668 0.0
C503 C 0.26143 0.82757 0.77692 0.0
C504 C 0.24944 0.7759 0.93967 0.0
C505 C 0.27058 0.74935 0.93676 0.0
C506 C 0.23504 0.7878 0.89535 0.0
C507 C 0.24133 0.7719 0.84734 0.0
C508 C 0.26329 0.74569 0.84399 0.0
C509 C 0.27803 0.73505 0.88887 0.0
C510 C 0.21249 0.8166 0.90019 0.0
C511 C 0.2702 0.72773 0.79349 0.0
H512 H 0.16311 0.75505 0.73516 0.0
H513 H 0.22758 0.8306 0.6916 0.0
H514 H 0.20213 0.71336 0.82891 0.0
H515 H 0.18361 0.74597 0.86622 0.0
H516 H 0.16487 0.72457 0.8138 0.0
H517 H 0.26443 0.84933 0.74896 0.0
H518 H 0.26086 0.83868 0.8165 0.0
H519 H 0.28066 0.80993 0.77463 0.0
H520 H 0.24389 0.78706 0.97691 0.0
H521 H 0.29423 0.7143 0.88696 0.0
H522 H 0.1905 0.80581 0.89243 0.0
H523 H 0.21654 0.83741 0.87119 0.0
H524 H 0.21243 0.82868 0.93922 0.0
H525 H 0.25059 0.71373 0.77926 0.0
H526 H 0.28836 0.70853 0.79721 0.0
H527 H 0.27614 0.74742 0.76387 0.0
C528 C 0.29453 0.31576 0.74615 0.0
C529 C 0.28351 0.3093 0.79557 0.0
C530 C 0.27896 0.30532 0.7021 0.0
C531 C 0.25207 0.28756 0.70793 0.0
C532 C 0.23973 0.28376 0.7575 0.0
C533 C 0.25552 0.29489 0.80071 0.0
C534 C 0.2924 0.31071 0.6496 0.0
C535 C 0.21122 0.26484 0.76546 0.0
C536 C 0.20855 0.26473 0.58765 0.0
C537 C 0.22036 0.23181 0.57548 0.0
C538 C 0.21818 0.28322 0.63137 0.0
C539 C 0.23957 0.26788 0.66378 0.0
C540 C 0.25007 0.23362 0.65319 0.0
C541 C 0.24062 0.21622 0.60873 0.0
C542 C 0.20682 0.31985 0.64102 0.0
C543 C 0.27223 0.21586 0.68765 0.0
H544 H 0.31599 0.32722 0.74188 0.0
H545 H 0.2467 0.28988 0.83872 0.0
H546 H 0.30099 0.28532 0.63501 0.0
H547 H 0.27578 0.32013 0.62167 0.0
H548 H 0.31061 0.32983 0.65084 0.0
H549 H 0.20236 0.26911 0.80486 0.0
H550 H 0.19471 0.27348 0.73686 0.0
H551 H 0.21469 0.23625 0.75986 0.0
H552 H 0.19322 0.27696 0.56127 0.0
H553 H 0.24972 0.19074 0.59904 0.0
H554 H 0.22428 0.33907 0.63252 0.0
H555 H 0.20068 0.32333 0.68209 0.0
H556 H 0.18764 0.32613 0.61647 0.0
H557 H 0.29313 0.23039 0.68622 0.0
H558 H 0.27644 0.18823 0.67604 0.0
H559 H 0.26464 0.21612 0.72828 0.0
C560 C 0.72675 0.27076 0.91244 0.0
C561 C 0.73295 0.25429 0.95933 0.0
C562 C 0.74134 0.26052 0.86726 0.0
C563 C 0.76175 0.2325 0.86924 0.0
C564 C 0.76668 0.21452 0.91614 0.0
C565 C 0.75259 0.22611 0.96093 0.0
C566 C 0.73601 0.28079 0.8181 0.0
C567 C 0.78746 0.18378 0.91936 0.0
C568 C 0.78324 0.19534 0.73915 0.0
C569 C 0.80982 0.21225 0.73067 0.0
C570 C 0.76799 0.2002 0.78543 0.0
C571 C 0.77923 0.22351 0.82297 0.0
C572 C 0.80665 0.23965 0.81519 0.0
C573 C 0.82189 0.23333 0.76924 0.0
C574 C 0.73941 0.18146 0.79328 0.0
C575 C 0.81907 0.26519 0.85393 0.0
H576 H 0.71172 0.29278 0.91169 0.0
H577 H 0.75716 0.2134 -0.0025 0.0
H578 H 0.75652 0.2936 0.80568 0.0
H579 H 0.72929 0.26275 0.78671 0.0
H580 H 0.71895 0.3013 0.8228 0.0
H581 H 0.78627 0.17024 0.95725 0.0
H582 H 0.78267 0.16451 0.88839 0.0
H583 H 0.81013 0.19297 0.91355 0.0
H584 H 0.77413 0.17885 0.70913 0.0
H585 H 0.8423 0.24672 0.76203 0.0
H586 H 0.72122 0.20069 0.79205 0.0
H587 H 0.73893 0.16875 0.83177 0.0
H588 H 0.7355 0.16119 0.76326 0.0
H589 H 0.80422 0.2881 0.85782 0.0
H590 H 0.84098 0.2748 0.8426 0.0
H591 H 0.82076 0.25272 0.89245 0.0
C592 C 0.71538 0.68649 0.76912 0.0
C593 C 0.72638 0.69242 0.81877 0.0
C594 C 0.73108 0.69714 0.72545 0.0
C595 C 0.75814 0.71443 0.73188 0.0
C596 C 0.77057 0.71734 0.78158 0.0
C597 C 0.75458 0.70614 0.82445 0.0
C598 C 0.71748 0.69274 0.6728 0.0
C599 C 0.79936 0.73553 0.79015 0.0
C600 C 0.79963 0.73911 0.61039 0.0
C601 C 0.78749 0.77213 0.60001 0.0
C602 C 0.7911 0.72013 0.65431 0.0
C603 C 0.77042 0.73503 0.68853 0.0
C604 C 0.75983 0.76948 0.67984 0.0
C605 C 0.76824 0.78742 0.6353 0.0
C606 C 0.80268 0.68341 0.66209 0.0
C607 C 0.73837 0.78676 0.71614 0.0
H608 H 0.69378 0.67551 0.76441 0.0
H609 H 0.76342 0.71062 0.86265 0.0
H610 H 0.70908 0.71847 0.6592 0.0
H611 H 0.73394 0.68354 0.64448 0.0
H612 H 0.6991 0.67385 0.67338 0.0
H613 H 0.80849 0.72986 0.82899 0.0
H614 H 0.81553 0.72755 0.76057 0.0
H615 H 0.79615 0.76432 0.78672 0.0
H616 H 0.81421 0.72717 0.58249 0.0
H617 H 0.75891 0.813 0.62699 0.0
H618 H 0.78539 0.66426 0.65214 0.0
H619 H 0.80873 0.67893 0.70301 0.0
H620 H 0.82197 0.67798 0.63743 0.0
H621 H 0.71734 0.77248 0.71495 0.0
H622 H 0.73419 0.81465 0.70601 0.0
H623 H 0.74659 0.7856 0.75638 0.0
loop_
_geom_bond_atom_site_label_1
_geom_bond_atom_site_label_2
_geom_bond_distance
_geom_bond_site_symmetry_2
_ccdc_geom_bond_type
Mg0 O1 2.028 . S
Mg0 O7 1.986 . S
Mg0 O9 2.114 1_554 S
Mg0 O10 2.251 1_554 S
Mg0 O13 2.010 . S
O1 Mg0 2.028 . S
O1 C4 1.250 . S
O2 Mg3 2.028 . S
O2 C4 1.248 . S
Mg3 O2 2.028 . S
Mg3 O8 2.032 . S
Mg3 O10 2.079 1_554 S
C4 O1 1.250 . S
C4 O2 1.248 . S
C5 O6 1.264 . S
C5 O13 1.249 . S
O6 C5 1.264 . S
O7 Mg0 1.986 . S
O7 C11 1.246 . S
O8 Mg3 2.032 . S
O8 C11 1.259 . S
O9 Mg0 2.114 1_556 S
O9 C12 1.252 . S
O10 Mg0 2.251 1_556 S
O10 Mg3 2.079 1_556 S
O10 C12 1.273 . S
C11 O7 1.246 . S
C11 O8 1.259 . S
C12 O9 1.252 . S
C12 O10 1.273 . S
O13 Mg0 2.010 . S
O13 C5 1.249 . S
Mg14 O15 2.028 . S
Mg14 O21 1.986 1_554 S
Mg14 O23 2.114 . S
Mg14 O24 2.251 . S
Mg14 O27 2.010 . S
O15 Mg14 2.028 . S
O15 C18 1.250 . S
O16 Mg17 2.028 . S
O16 C18 1.248 . S
Mg17 O16 2.028 . S
Mg17 O22 2.032 1_554 S
Mg17 O24 2.079 . S
C18 O15 1.250 . S
C18 O16 1.248 . S
C19 O20 1.264 . S
C19 O27 1.249 . S
O20 C19 1.264 . S
O21 Mg14 1.986 1_556 S
O21 C25 1.246 . S
O22 Mg17 2.032 1_556 S
O22 C25 1.259 . S
O23 Mg14 2.114 . S
O23 C26 1.252 . S
O24 Mg14 2.251 . S
O24 Mg17 2.079 . S
O24 C26 1.273 . S
C25 O21 1.246 . S
C25 O22 1.259 . S
C26 O23 1.252 . S
C26 O24 1.273 . S
O27 Mg14 2.010 . S
O27 C19 1.249 . S
Mg28 O29 2.028 . S
Mg28 O35 1.986 . S
Mg28 O37 2.114 1_554 S
Mg28 O38 2.251 1_554 S
Mg28 O41 2.010 . S
O29 Mg28 2.028 . S
O29 C32 1.250 . S
O30 Mg31 2.028 . S
O30 C32 1.248 . S
Mg31 O30 2.028 . S
Mg31 O36 2.032 . S
Mg31 O38 2.079 1_554 S
C32 O29 1.250 . S
C32 O30 1.248 . S
C33 O34 1.264 . S
C33 O41 1.249 . S
O34 C33 1.264 . S
O35 Mg28 1.986 . S
O35 C39 1.246 . S
O36 Mg31 2.032 . S
O36 C39 1.259 . S
O37 Mg28 2.114 1_556 S
O37 C40 1.252 . S
O38 Mg28 2.251 1_556 S
O38 Mg31 2.079 1_556 S
O38 C40 1.273 . S
C39 O35 1.246 . S
C39 O36 1.259 . S
C40 O37 1.252 . S
C40 O38 1.273 . S
O41 Mg28 2.010 . S
O41 C33 1.249 . S
Mg42 O43 2.028 . S
Mg42 O49 1.986 1_554 S
Mg42 O51 2.114 . S
Mg42 O52 2.251 . S
Mg42 O55 2.010 . S
O43 Mg42 2.028 . S
O43 C46 1.250 . S
O44 Mg45 2.028 . S
O44 C46 1.248 . S
Mg45 O44 2.028 . S
Mg45 O50 2.032 1_554 S
Mg45 O52 2.079 . S
C46 O43 1.250 . S
C46 O44 1.248 . S
C47 O48 1.264 . S
C47 O55 1.249 . S
O48 C47 1.264 . S
O49 Mg42 1.986 1_556 S
O49 C53 1.246 . S
O50 Mg45 2.032 1_556 S
O50 C53 1.259 . S
O51 Mg42 2.114 . S
O51 C54 1.252 . S
O52 Mg42 2.251 . S
O52 Mg45 2.079 . S
O52 C54 1.273 . S
C53 O49 1.246 . S
C53 O50 1.259 . S
C54 O51 1.252 . S
C54 O52 1.273 . S
O55 Mg42 2.010 . S
O55 C47 1.249 . S
Mg56 O57 2.028 . S
Mg56 O63 1.986 . S
Mg56 O65 2.114 . S
Mg56 O66 2.251 . S
Mg56 O69 2.010 . S
O57 Mg56 2.028 . S
O57 C60 1.250 . S
O58 Mg59 2.028 . S
O58 C60 1.248 . S
Mg59 O58 2.028 . S
Mg59 O64 2.032 . S
Mg59 O66 2.079 . S
C60 O57 1.250 . S
C60 O58 1.248 . S
C61 O62 1.264 . S
C61 O69 1.249 . S
O62 C61 1.264 . S
O63 Mg56 1.986 . S
O63 C67 1.246 . S
O64 Mg59 2.032 . S
O64 C67 1.259 . S
O65 Mg56 2.114 . S
O65 C68 1.252 . S
O66 Mg56 2.251 . S
O66 Mg59 2.079 . S
O66 C68 1.273 . S
C67 O63 1.246 . S
C67 O64 1.259 . S
C68 O65 1.252 . S
C68 O66 1.273 . S
O69 Mg56 2.010 . S
O69 C61 1.249 . S
Mg70 O71 2.028 . S
Mg70 O77 1.986 . S
Mg70 O79 2.114 . S
Mg70 O80 2.251 . S
Mg70 O83 2.010 . S
O71 Mg70 2.028 . S
O71 C74 1.250 . S
O72 Mg73 2.028 . S
O72 C74 1.248 . S
Mg73 O72 2.028 . S
Mg73 O78 2.032 . S
Mg73 O80 2.079 . S
C74 O71 1.250 . S
C74 O72 1.248 . S
C75 O76 1.264 . S
C75 O83 1.249 . S
O76 C75 1.264 . S
O77 Mg70 1.986 . S
O77 C81 1.246 . S
O78 Mg73 2.032 . S
O78 C81 1.259 . S
O79 Mg70 2.114 . S
O79 C82 1.252 . S
O80 Mg70 2.251 . S
O80 Mg73 2.079 . S
O80 C82 1.273 . S
C81 O77 1.246 . S
C81 O78 1.259 . S
C82 O79 1.252 . S
C82 O80 1.273 . S
O83 Mg70 2.010 . S
O83 C75 1.249 . S
Mg84 O85 2.028 . S
Mg84 O91 1.986 . S
Mg84 O93 2.114 . S
Mg84 O94 2.251 . S
Mg84 O97 2.010 . S
O85 Mg84 2.028 . S
O85 C88 1.250 . S
O86 Mg87 2.028 . S
O86 C88 1.248 . S
Mg87 O86 2.028 . S
Mg87 O92 2.032 . S
Mg87 O94 2.079 . S
C88 O85 1.250 . S
C88 O86 1.248 . S
C89 O90 1.264 . S
C89 O97 1.249 . S
O90 C89 1.264 . S
O91 Mg84 1.986 . S
O91 C95 1.246 . S
O92 Mg87 2.032 . S
O92 C95 1.259 . S
O93 Mg84 2.114 . S
O93 C96 1.252 . S
O94 Mg84 2.251 . S
O94 Mg87 2.079 . S
O94 C96 1.273 . S
C95 O91 1.246 . S
C95 O92 1.259 . S
C96 O93 1.252 . S
C96 O94 1.273 . S
O97 Mg84 2.010 . S
O97 C89 1.249 . S
Mg98 O99 2.028 . S
Mg98 O105 1.986 . S
Mg98 O107 2.114 . S
Mg98 O108 2.251 . S
Mg98 O111 2.010 . S
O99 Mg98 2.028 . S
O99 C102 1.250 . S
O100 Mg101 2.028 . S
O100 C102 1.248 . S
Mg101 O100 2.028 . S
Mg101 O106 2.032 . S
Mg101 O108 2.079 . S
C102 O99 1.250 . S
C102 O100 1.248 . S
C103 O104 1.264 . S
C103 O111 1.249 . S
O104 C103 1.264 . S
O105 Mg98 1.986 . S
O105 C109 1.246 . S
O106 Mg101 2.032 . S
O106 C109 1.259 . S
O107 Mg98 2.114 . S
O107 C110 1.252 . S
O108 Mg98 2.251 . S
O108 Mg101 2.079 . S
O108 C110 1.273 . S
C109 O105 1.246 . S
C109 O106 1.259 . S
C110 O107 1.252 . S
C110 O108 1.273 . S
O111 Mg98 2.010 . S
O111 C103 1.249 . S
C112 C113 1.391 1_556 S
C112 C114 1.394 . S
C112 H128 0.931 . S
C113 C112 1.391 1_554 S
C113 C117 1.376 . S
C114 C112 1.394 . S
C114 C115 1.369 1_556 S
C114 C118 1.531 . S
C115 C114 1.369 1_554 S
C115 C116 1.410 . S
C115 C123 1.503 . S
C116 C115 1.410 . S
C116 C117 1.392 . S
C116 C119 1.511 . S
C117 C113 1.376 . S
C117 C116 1.392 . S
C117 H129 0.929 . S
C118 C114 1.531 . S
C118 H130 0.960 . S
C118 H131 0.962 . S
C118 H132 0.960 . S
C119 C116 1.511 . S
C119 H133 0.961 . S
C119 H134 0.961 . S
C119 H135 0.961 . S
C120 C121 1.370 . S
C120 C122 1.363 . S
C120 H136 0.931 . S
C121 C120 1.370 . S
C121 C125 1.408 1_554 S
C122 C120 1.363 . S
C122 C123 1.370 . S
C122 C126 1.524 . S
C123 C115 1.503 . S
C123 C122 1.370 . S
C123 C124 1.403 1_554 S
C124 C123 1.403 1_556 S
C124 C125 1.404 . S
C124 C127 1.539 . S
C125 C121 1.408 1_556 S
C125 C124 1.404 . S
C125 H137 0.930 . S
C126 C122 1.524 . S
C126 H138 0.956 . S
C126 H139 0.961 . S
C126 H140 0.961 . S
C127 C124 1.539 . S
C127 H141 0.958 . S
C127 H142 0.961 . S
C127 H143 0.960 . S
H128 C112 0.931 . S
H129 C117 0.929 . S
H130 C118 0.960 . S
H131 C118 0.962 . S
H132 C118 0.960 . S
H133 C119 0.961 . S
H134 C119 0.961 . S
H135 C119 0.961 . S
H136 C120 0.931 . S
H137 C125 0.930 . S
H138 C126 0.956 . S
H139 C126 0.961 . S
H140 C126 0.961 . S
H141 C127 0.958 . S
H142 C127 0.961 . S
H143 C127 0.960 . S
C144 C145 1.391 . S
C144 C146 1.394 . S
C144 H160 0.931 . S
C145 C144 1.391 . S
C145 C149 1.376 1_554 S
C146 C144 1.394 . S
C146 C147 1.369 . S
C146 C150 1.531 . S
C147 C146 1.369 . S
C147 C148 1.410 1_554 S
C147 C155 1.503 . S
C148 C147 1.410 1_556 S
C148 C149 1.392 . S
C148 C151 1.511 . S
C149 C145 1.376 1_556 S
C149 C148 1.392 . S
C149 H161 0.929 . S
C150 C146 1.531 . S
C150 H162 0.960 . S
C150 H163 0.962 . S
C150 H164 0.960 . S
C151 C148 1.511 . S
C151 H165 0.961 . S
C151 H166 0.961 . S
C151 H167 0.961 . S
C152 C153 1.370 . S
C152 C154 1.363 . S
C152 H168 0.931 . S
C153 C152 1.370 . S
C153 C157 1.408 . S
C154 C152 1.363 . S
C154 C155 1.370 . S
C154 C158 1.524 . S
C155 C147 1.503 . S
C155 C154 1.370 . S
C155 C156 1.403 . S
C156 C155 1.403 . S
C156 C157 1.404 . S
C156 C159 1.539 . S
C157 C153 1.408 . S
C157 C156 1.404 . S
C157 H169 0.930 . S
C158 C154 1.524 . S
C158 H170 0.956 . S
C158 H171 0.961 1_554 S
C158 H172 0.961 . S
C159 C156 1.539 . S
C159 H173 0.958 . S
C159 H174 0.961 1_554 S
C159 H175 0.960 1_554 S
H160 C144 0.931 . S
H161 C149 0.929 . S
H162 C150 0.960 . S
H163 C150 0.962 . S
H164 C150 0.960 . S
H165 C151 0.961 . S
H166 C151 0.961 . S
H167 C151 0.961 . S
H168 C152 0.931 . S
H169 C157 0.930 . S
H170 C158 0.956 . S
H171 C158 0.961 1_556 S
H172 C158 0.961 . S
H173 C159 0.958 . S
H174 C159 0.961 1_556 S
H175 C159 0.960 1_556 S
C176 C177 1.391 1_556 S
C176 C178 1.394 . S
C176 H192 0.931 . S
C177 C176 1.391 1_554 S
C177 C181 1.376 . S
C178 C176 1.394 . S
C178 C179 1.369 1_556 S
C178 C182 1.531 . S
C179 C178 1.369 1_554 S
C179 C180 1.410 . S
C179 C187 1.503 . S
C180 C179 1.410 . S
C180 C181 1.392 . S
C180 C183 1.511 . S
C181 C177 1.376 . S
C181 C180 1.392 . S
C181 H193 0.929 . S
C182 C178 1.531 . S
C182 H194 0.960 . S
C182 H195 0.962 . S
C182 H196 0.960 . S
C183 C180 1.511 . S
C183 H197 0.961 . S
C183 H198 0.961 . S
C183 H199 0.961 . S
C184 C185 1.370 . S
C184 C186 1.363 . S
C184 H200 0.931 . S
C185 C184 1.370 . S
C185 C189 1.408 . S
C186 C184 1.363 . S
C186 C187 1.370 . S
C186 C190 1.523 1_554 S
C187 C179 1.503 . S
C187 C186 1.370 . S
C187 C188 1.403 . S
C188 C187 1.403 . S
C188 C189 1.404 . S
C188 C191 1.539 . S
C189 C185 1.408 . S
C189 C188 1.404 . S
C189 H201 0.930 . S
C190 C186 1.523 1_556 S
C190 H202 0.965 . S
C190 H203 0.953 1_556 S
C190 H204 0.961 . S
C191 C188 1.539 . S
C191 H205 0.958 . S
C191 H206 0.961 . S
C191 H207 0.960 . S
H192 C176 0.931 . S
H193 C181 0.929 . S
H194 C182 0.960 . S
H195 C182 0.962 . S
H196 C182 0.960 . S
H197 C183 0.961 . S
H198 C183 0.961 . S
H199 C183 0.961 . S
H200 C184 0.931 . S
H201 C189 0.930 . S
H202 C190 0.965 . S
H203 C190 0.953 1_554 S
H204 C190 0.961 . S
H205 C191 0.958 . S
H206 C191 0.961 . S
H207 C191 0.960 . S
C208 C209 1.391 1_556 S
C208 C210 1.394 . S
C208 H224 0.931 . S
C209 C208 1.391 1_554 S
C209 C213 1.376 . S
C210 C208 1.394 . S
C210 C211 1.369 1_556 S
C210 C214 1.531 . S
C211 C210 1.369 1_554 S
C211 C212 1.410 . S
C211 C219 1.503 . S
C212 C211 1.410 . S
C212 C213 1.392 . S
C212 C215 1.511 . S
C213 C209 1.376 . S
C213 C212 1.392 . S
C213 H225 0.929 . S
C214 C210 1.531 . S
C214 H226 0.960 . S
C214 H227 0.962 . S
C214 H228 0.960 . S
C215 C212 1.511 . S
C215 H229 0.961 . S
C215 H230 0.961 . S
C215 H231 0.961 . S
C216 C217 1.370 . S
C216 C218 1.363 . S
C216 H232 0.931 . S
C217 C216 1.370 . S
C217 C221 1.408 . S
C218 C216 1.363 . S
C218 C219 1.370 . S
C218 C222 1.524 . S
C219 C211 1.503 . S
C219 C218 1.370 . S
C219 C220 1.405 . S
C220 C219 1.405 . S
C220 C221 1.404 . S
C220 C223 1.537 1_554 S
C221 C217 1.408 . S
C221 C220 1.404 . S
C221 H233 0.930 1_554 S
C222 C218 1.524 . S
C222 H234 0.956 . S
C222 H235 0.961 . S
C222 H236 0.961 . S
C223 C220 1.537 1_556 S
C223 H237 0.958 . S
C223 H238 0.961 . S
C223 H239 0.960 1_556 S
H224 C208 0.931 . S
H225 C213 0.929 . S
H226 C214 0.960 . S
H227 C214 0.962 . S
H228 C214 0.960 . S
H229 C215 0.961 . S
H230 C215 0.961 . S
H231 C215 0.961 . S
H232 C216 0.931 . S
H233 C221 0.930 1_556 S
H234 C222 0.956 . S
H235 C222 0.961 . S
H236 C222 0.961 . S
H237 C223 0.958 . S
H238 C223 0.961 . S
H239 C223 0.960 1_554 S
C240 C241 1.391 . S
C240 C242 1.394 . S
C240 H256 0.931 . S
C241 C240 1.391 . S
C241 C245 1.376 . S
C242 C240 1.394 . S
C242 C243 1.369 . S
C242 C246 1.531 . S
C243 C242 1.369 . S
C243 C244 1.410 . S
C243 C251 1.503 1_565 S
C244 C243 1.410 . S
C244 C245 1.392 . S
C244 C247 1.511 . S
C245 C241 1.376 . S
C245 C244 1.392 . S
C245 H257 0.929 . S
C246 C242 1.531 . S
C246 H258 0.960 1_565 S
C246 H259 0.962 . S
C246 H260 0.960 . S
C247 C244 1.511 . S
C247 H261 0.961 . S
C247 H262 0.961 1_565 S
C247 H263 0.961 . S
C248 C249 1.370 . S
C248 C250 1.363 . S
C248 H264 0.931 . S
C249 C248 1.370 . S
C249 C253 1.408 . S
C250 C248 1.363 . S
C250 C251 1.370 . S
C250 C254 1.524 . S
C251 C243 1.503 1_545 S
C251 C250 1.370 . S
C251 C252 1.403 . S
C252 C251 1.403 . S
C252 C253 1.404 . S
C252 C255 1.539 . S
C253 C249 1.408 . S
C253 C252 1.404 . S
C253 H265 0.930 . S
C254 C250 1.524 . S
C254 H266 0.956 . S
C254 H267 0.961 1_545 S
C254 H268 0.961 . S
C255 C252 1.539 . S
C255 H269 0.958 . S
C255 H270 0.961 . S
C255 H271 0.960 1_545 S
H256 C240 0.931 . S
H257 C245 0.929 . S
H258 C246 0.960 1_545 S
H259 C246 0.962 . S
H260 C246 0.960 . S
H261 C247 0.961 . S
H262 C247 0.961 1_545 S
H263 C247 0.961 . S
H264 C248 0.931 . S
H265 C253 0.930 . S
H266 C254 0.956 . S
H267 C254 0.961 1_565 S
H268 C254 0.961 . S
H269 C255 0.958 . S
H270 C255 0.961 . S
H271 C255 0.960 1_565 S
C272 C273 1.391 . S
C272 C274 1.394 . S
C272 H288 0.931 . S
C273 C272 1.391 . S
C273 C277 1.376 . S
C274 C272 1.394 . S
C274 C275 1.369 . S
C274 C278 1.531 . S
C275 C274 1.369 . S
C275 C276 1.410 . S
C275 C283 1.503 1_455 S
C276 C275 1.410 . S
C276 C277 1.392 . S
C276 C279 1.511 . S
C277 C273 1.376 . S
C277 C276 1.392 . S
C277 H289 0.929 . S
C278 C274 1.531 . S
C278 H290 0.960 1_455 S
C278 H291 0.962 . S
C278 H292 0.960 . S
C279 C276 1.511 . S
C279 H293 0.961 . S
C279 H294 0.961 1_455 S
C279 H295 0.961 . S
C280 C281 1.370 . S
C280 C282 1.363 . S
C280 H296 0.931 . S
C281 C280 1.370 . S
C281 C285 1.408 . S
C282 C280 1.363 . S
C282 C283 1.370 . S
C282 C286 1.524 . S
C283 C275 1.503 1_655 S
C283 C282 1.370 . S
C283 C284 1.403 . S
C284 C283 1.403 . S
C284 C285 1.404 . S
C284 C287 1.539 . S
C285 C281 1.408 . S
C285 C284 1.404 . S
C285 H297 0.930 . S
C286 C282 1.524 . S
C286 H298 0.956 . S
C286 H299 0.961 1_655 S
C286 H300 0.961 . S
C287 C284 1.539 . S
C287 H301 0.958 . S
C287 H302 0.961 . S
C287 H303 0.935 1_655 S
H288 C272 0.931 . S
H289 C277 0.929 . S
H290 C278 0.960 1_655 S
H291 C278 0.962 . S
H292 C278 0.960 . S
H293 C279 0.961 . S
H294 C279 0.961 1_655 S
H295 C279 0.961 . S
H296 C280 0.931 . S
H297 C285 0.930 . S
H298 C286 0.956 . S
H299 C286 0.961 1_455 S
H300 C286 0.961 . S
H301 C287 0.958 . S
H302 C287 0.961 . S
H303 C287 0.935 1_455 S
C304 C305 1.391 . S
C304 C306 1.394 . S
C304 H320 0.931 . S
C305 C304 1.391 . S
C305 C309 1.376 . S
C306 C304 1.394 . S
C306 C307 1.369 . S
C306 C310 1.531 . S
C307 C306 1.369 . S
C307 C308 1.410 . S
C307 C315 1.503 1_545 S
C308 C307 1.410 . S
C308 C309 1.392 . S
C308 C311 1.511 . S
C309 C305 1.376 . S
C309 C308 1.392 . S
C309 H321 0.929 . S
C310 C306 1.531 . S
C310 H322 0.960 1_545 S
C310 H323 0.962 . S
C310 H324 0.960 . S
C311 C308 1.511 . S
C311 H325 0.961 . S
C311 H326 0.961 1_545 S
C311 H327 0.961 . S
C312 C313 1.370 . S
C312 C314 1.363 . S
C312 H328 0.931 . S
C313 C312 1.370 . S
C313 C317 1.408 . S
C314 C312 1.363 . S
C314 C315 1.370 . S
C314 C318 1.524 . S
C315 C307 1.503 1_565 S
C315 C314 1.370 . S
C315 C316 1.403 . S
C316 C315 1.403 . S
C316 C317 1.404 . S
C316 C319 1.539 . S
C317 C313 1.408 . S
C317 C316 1.404 . S
C317 H329 0.930 . S
C318 C314 1.524 . S
C318 H330 0.956 . S
C318 H331 0.961 1_565 S
C318 H332 0.961 . S
C319 C316 1.539 . S
C319 H333 0.958 . S
C319 H334 0.961 . S
C319 H335 0.969 . S
H320 C304 0.931 . S
H321 C309 0.929 . S
H322 C310 0.960 1_565 S
H323 C310 0.962 . S
H324 C310 0.960 . S
H325 C311 0.961 . S
H326 C311 0.961 1_565 S
H327 C311 0.961 . S
H328 C312 0.931 . S
H329 C317 0.930 . S
H330 C318 0.956 . S
H331 C318 0.961 1_545 S
H332 C318 0.961 . S
H333 C319 0.958 . S
H334 C319 0.961 . S
H335 C319 0.969 . S
C336 C337 1.391 . S
C336 C338 1.394 . S
C336 H352 0.931 . S
C337 C336 1.391 . S
C337 C341 1.376 . S
C338 C336 1.394 . S
C338 C339 1.369 . S
C338 C342 1.531 . S
C339 C338 1.369 . S
C339 C340 1.410 . S
C339 C347 1.503 1_655 S
C340 C339 1.410 . S
C340 C341 1.392 . S
C340 C343 1.511 . S
C341 C337 1.376 . S
C341 C340 1.392 . S
C341 H353 0.929 . S
C342 C338 1.531 . S
C342 H354 0.960 1_655 S
C342 H355 0.962 . S
C342 H356 0.960 . S
C343 C340 1.511 . S
C343 H357 0.961 . S
C343 H358 0.961 1_655 S
C343 H359 0.961 . S
C344 C345 1.370 . S
C344 C346 1.363 . S
C344 H360 0.931 . S
C345 C344 1.370 . S
C345 C349 1.408 . S
C346 C344 1.363 . S
C346 C347 1.370 . S
C346 C350 1.524 . S
C347 C339 1.503 1_455 S
C347 C346 1.370 . S
C347 C348 1.403 . S
C348 C347 1.403 . S
C348 C349 1.404 . S
C348 C351 1.539 . S
C349 C345 1.408 . S
C349 C348 1.404 . S
C349 H361 0.930 . S
C350 C346 1.524 . S
C350 H362 0.959 . S
C350 H363 0.961 1_455 S
C350 H364 0.961 . S
C351 C348 1.539 . S
C351 H365 0.958 . S
C351 H366 0.961 . S
C351 H367 0.960 . S
H352 C336 0.931 . S
H353 C341 0.929 . S
H354 C342 0.960 1_455 S
H355 C342 0.962 . S
H356 C342 0.960 . S
H357 C343 0.961 . S
H358 C343 0.961 1_455 S
H359 C343 0.961 . S
H360 C344 0.931 . S
H361 C349 0.930 . S
H362 C350 0.959 . S
H363 C350 0.961 1_655 S
H364 C350 0.961 . S
H365 C351 0.958 . S
H366 C351 0.961 . S
H367 C351 0.960 . S
C368 C369 1.391 . S
C368 C370 1.394 . S
C368 H384 0.931 . S
C369 C368 1.391 . S
C369 C373 1.376 . S
C370 C368 1.394 . S
C370 C371 1.369 . S
C370 C374 1.531 . S
C371 C370 1.369 . S
C371 C372 1.410 . S
C371 C379 1.503 . S
C372 C371 1.410 . S
C372 C373 1.392 . S
C372 C375 1.511 . S
C373 C369 1.376 . S
C373 C372 1.392 . S
C373 H385 0.929 . S
C374 C370 1.531 . S
C374 H386 0.960 . S
C374 H387 0.962 . S
C374 H388 0.960 . S
C375 C372 1.511 . S
C375 H389 0.961 . S
C375 H390 0.961 . S
C375 H391 0.961 . S
C376 C377 1.370 . S
C376 C378 1.363 . S
C376 H392 0.931 . S
C377 C376 1.370 . S
C377 C381 1.408 . S
C378 C376 1.363 . S
C378 C379 1.370 . S
C378 C382 1.524 . S
C379 C371 1.503 . S
C379 C378 1.370 . S
C379 C380 1.403 . S
C380 C379 1.403 . S
C380 C381 1.404 . S
C380 C383 1.539 . S
C381 C377 1.408 . S
C381 C380 1.404 . S
C381 H393 0.930 . S
C382 C378 1.524 . S
C382 H394 0.956 . S
C382 H395 0.961 . S
C382 H396 0.961 . S
C383 C380 1.539 . S
C383 H397 0.958 . S
C383 H398 0.961 . S
C383 H399 0.960 . S
H384 C368 0.931 . S
H385 C373 0.929 . S
H386 C374 0.960 . S
H387 C374 0.962 . S
H388 C374 0.960 . S
H389 C375 0.961 . S
H390 C375 0.961 . S
H391 C375 0.961 . S
H392 C376 0.931 . S
H393 C381 0.930 . S
H394 C382 0.956 . S
H395 C382 0.961 . S
H396 C382 0.961 . S
H397 C383 0.958 . S
H398 C383 0.961 . S
H399 C383 0.960 . S
C400 C401 1.391 . S
C400 C402 1.394 . S
C400 H416 0.931 . S
C401 C400 1.391 . S
C401 C405 1.376 . S
C402 C400 1.394 . S
C402 C403 1.369 . S
C402 C406 1.531 . S
C403 C402 1.369 . S
C403 C404 1.410 . S
C403 C411 1.503 . S
C404 C403 1.410 . S
C404 C405 1.392 . S
C404 C407 1.511 . S
C405 C401 1.376 . S
C405 C404 1.392 . S
C405 H417 0.929 . S
C406 C402 1.531 . S
C406 H418 0.960 . S
C406 H419 0.962 . S
C406 H420 0.960 . S
C407 C404 1.511 . S
C407 H421 0.961 . S
C407 H422 0.961 . S
C407 H423 0.961 . S
C408 C409 1.370 . S
C408 C410 1.363 . S
C408 H424 0.931 . S
C409 C408 1.370 . S
C409 C413 1.408 . S
C410 C408 1.363 . S
C410 C411 1.370 . S
C410 C414 1.524 . S
C411 C403 1.503 . S
C411 C410 1.370 . S
C411 C412 1.403 . S
C412 C411 1.403 . S
C412 C413 1.404 . S
C412 C415 1.539 . S
C413 C409 1.408 . S
C413 C412 1.404 . S
C413 H425 0.930 . S
C414 C410 1.524 . S
C414 H426 0.956 . S
C414 H427 0.961 . S
C414 H428 0.961 . S
C415 C412 1.539 . S
C415 H429 0.958 . S
C415 H430 0.961 . S
C415 H431 0.960 . S
H416 C400 0.931 . S
H417 C405 0.929 . S
H418 C406 0.960 . S
H419 C406 0.962 . S
H420 C406 0.960 . S
H421 C407 0.961 . S
H422 C407 0.961 . S
H423 C407 0.961 . S
H424 C408 0.931 . S
H425 C413 0.930 . S
H426 C414 0.956 . S
H427 C414 0.961 . S
H428 C414 0.961 . S
H429 C415 0.958 . S
H430 C415 0.961 . S
H431 C415 0.960 . S
C432 C433 1.391 . S
C432 C434 1.394 . S
C432 H448 0.931 . S
C433 C432 1.391 . S
C433 C437 1.376 . S
C434 C432 1.394 . S
C434 C435 1.369 . S
C434 C438 1.531 . S
C435 C434 1.369 . S
C435 C436 1.410 . S
C435 C443 1.503 . S
C436 C435 1.410 . S
C436 C437 1.392 . S
C436 C439 1.511 . S
C437 C433 1.376 . S
C437 C436 1.392 . S
C437 H449 0.929 . S
C438 C434 1.531 . S
C438 H450 0.960 . S
C438 H451 0.962 . S
C438 H452 0.960 . S
C439 C436 1.511 . S
C439 H453 0.961 . S
C439 H454 0.961 . S
C439 H455 0.961 . S
C440 C441 1.370 . S
C440 C442 1.363 . S
C440 H456 0.931 . S
C441 C440 1.370 . S
C441 C445 1.408 . S
C442 C440 1.363 . S
C442 C443 1.370 . S
C442 C446 1.524 . S
C443 C435 1.503 . S
C443 C442 1.370 . S
C443 C444 1.403 . S
C444 C443 1.403 . S
C444 C445 1.404 . S
C444 C447 1.539 . S
C445 C441 1.408 . S
C445 C444 1.404 . S
C445 H457 0.930 . S
C446 C442 1.524 . S
C446 H458 0.956 . S
C446 H459 0.961 . S
C446 H460 0.961 . S
C447 C444 1.539 . S
C447 H461 0.958 . S
C447 H462 0.961 . S
C447 H463 0.960 . S
H448 C432 0.931 . S
H449 C437 0.929 . S
H450 C438 0.960 . S
H451 C438 0.962 . S
H452 C438 0.960 . S
H453 C439 0.961 . S
H454 C439 0.961 . S
H455 C439 0.961 . S
H456 C440 0.931 . S
H457 C445 0.930 . S
H458 C446 0.956 . S
H459 C446 0.961 . S
H460 C446 0.961 . S
H461 C447 0.958 . S
H462 C447 0.961 . S
H463 C447 0.960 . S
C464 C465 1.391 . S
C464 C466 1.394 . S
C464 H480 0.931 . S
C465 C464 1.391 . S
C465 C469 1.376 . S
C466 C464 1.394 . S
C466 C467 1.369 . S
C466 C470 1.531 . S
C467 C466 1.369 . S
C467 C468 1.410 . S
C467 C475 1.503 . S
C468 C467 1.410 . S
C468 C469 1.392 . S
C468 C471 1.511 . S
C469 C465 1.376 . S
C469 C468 1.392 . S
C469 H481 0.929 . S
C470 C466 1.531 . S
C470 H482 0.960 . S
C470 H483 0.962 . S
C470 H484 0.960 . S
C471 C468 1.511 . S
C471 H485 0.961 . S
C471 H486 0.961 . S
C471 H487 0.961 . S
C472 C473 1.370 . S
C472 C474 1.363 . S
C472 H488 0.931 . S
C473 C472 1.370 . S
C473 C477 1.408 . S
C474 C472 1.363 . S
C474 C475 1.370 . S
C474 C478 1.524 . S
C475 C467 1.503 . S
C475 C474 1.370 . S
C475 C476 1.403 . S
C476 C475 1.403 . S
C476 C477 1.404 . S
C476 C479 1.539 . S
C477 C473 1.408 . S
C477 C476 1.404 . S
C477 H489 0.930 . S
C478 C474 1.524 . S
C478 H490 0.956 . S
C478 H491 0.961 . S
C478 H492 0.961 . S
C479 C476 1.539 . S
C479 H493 0.958 . S
C479 H494 0.961 . S
C479 H495 0.960 . S
H480 C464 0.931 . S
H481 C469 0.929 . S
H482 C470 0.960 . S
H483 C470 0.962 . S
H484 C470 0.960 . S
H485 C471 0.961 . S
H486 C471 0.961 . S
H487 C471 0.961 . S
H488 C472 0.931 . S
H489 C477 0.930 . S
H490 C478 0.956 . S
H491 C478 0.961 . S
H492 C478 0.961 . S
H493 C479 0.958 . S
H494 C479 0.961 . S
H495 C479 0.960 . S
C496 C497 1.391 . S
C496 C498 1.394 . S
C496 H512 0.931 . S
C497 C496 1.391 . S
C497 C501 1.376 . S
C498 C496 1.394 . S
C498 C499 1.369 . S
C498 C502 1.531 . S
C499 C498 1.369 . S
C499 C500 1.410 . S
C499 C507 1.503 . S
C500 C499 1.410 . S
C500 C501 1.392 . S
C500 C503 1.511 . S
C501 C497 1.376 . S
C501 C500 1.392 . S
C501 H513 0.929 . S
C502 C498 1.531 . S
C502 H514 0.960 . S
C502 H515 0.962 . S
C502 H516 0.960 . S
C503 C500 1.511 . S
C503 H517 0.961 . S
C503 H518 0.961 . S
C503 H519 0.961 . S
C504 C505 1.370 . S
C504 C506 1.363 . S
C504 H520 0.931 . S
C505 C504 1.370 . S
C505 C509 1.408 . S
C506 C504 1.363 . S
C506 C507 1.370 . S
C506 C510 1.524 . S
C507 C499 1.503 . S
C507 C506 1.370 . S
C507 C508 1.403 . S
C508 C507 1.403 . S
C508 C509 1.404 . S
C508 C511 1.539 . S
C509 C505 1.408 . S
C509 C508 1.404 . S
C509 H521 0.930 . S
C510 C506 1.524 . S
C510 H522 0.956 . S
C510 H523 0.961 . S
C510 H524 0.961 . S
C511 C508 1.539 . S
C511 H525 0.958 . S
C511 H526 0.961 . S
C511 H527 0.960 . S
H512 C496 0.931 . S
H513 C501 0.929 . S
H514 C502 0.960 . S
H515 C502 0.962 . S
H516 C502 0.960 . S
H517 C503 0.961 . S
H518 C503 0.961 . S
H519 C503 0.961 . S
H520 C504 0.931 . S
H521 C509 0.930 . S
H522 C510 0.956 . S
H523 C510 0.961 . S
H524 C510 0.961 . S
H525 C511 0.958 . S
H526 C511 0.961 . S
H527 C511 0.960 . S
C528 C529 1.391 . S
C528 C530 1.394 . S
C528 H544 0.931 . S
C529 C528 1.391 . S
C529 C533 1.376 . S
C530 C528 1.394 . S
C530 C531 1.369 . S
C530 C534 1.531 . S
C531 C530 1.369 . S
C531 C532 1.410 . S
C531 C539 1.503 . S
C532 C531 1.410 . S
C532 C533 1.392 . S
C532 C535 1.511 . S
C533 C529 1.376 . S
C533 C532 1.392 . S
C533 H545 0.929 . S
C534 C530 1.531 . S
C534 H546 0.960 . S
C534 H547 0.962 . S
C534 H548 0.960 . S
C535 C532 1.511 . S
C535 H549 0.961 . S
C535 H550 0.961 . S
C535 H551 0.961 . S
C536 C537 1.370 . S
C536 C538 1.363 . S
C536 H552 0.931 . S
C537 C536 1.370 . S
C537 C541 1.408 . S
C538 C536 1.363 . S
C538 C539 1.370 . S
C538 C542 1.524 . S
C539 C531 1.503 . S
C539 C538 1.370 . S
C539 C540 1.403 . S
C540 C539 1.403 . S
C540 C541 1.404 . S
C540 C543 1.539 . S
C541 C537 1.408 . S
C541 C540 1.404 . S
C541 H553 0.930 . S
C542 C538 1.524 . S
C542 H554 0.956 . S
C542 H555 0.961 . S
C542 H556 0.961 . S
C543 C540 1.539 . S
C543 H557 0.958 . S
C543 H558 0.961 . S
C543 H559 0.960 . S
H544 C528 0.931 . S
H545 C533 0.929 . S
H546 C534 0.960 . S
H547 C534 0.962 . S
H548 C534 0.960 . S
H549 C535 0.961 . S
H550 C535 0.961 . S
H551 C535 0.961 . S
H552 C536 0.931 . S
H553 C541 0.930 . S
H554 C542 0.956 . S
H555 C542 0.961 . S
H556 C542 0.961 . S
H557 C543 0.958 . S
H558 C543 0.961 . S
H559 C543 0.960 . S
C560 C561 1.391 . S
C560 C562 1.394 . S
C560 H576 0.931 . S
C561 C560 1.391 . S
C561 C565 1.376 . S
C562 C560 1.394 . S
C562 C563 1.369 . S
C562 C566 1.531 . S
C563 C562 1.369 . S
C563 C564 1.410 . S
C563 C571 1.503 . S
C564 C563 1.410 . S
C564 C565 1.392 . S
C564 C567 1.511 . S
C565 C561 1.376 . S
C565 C564 1.392 . S
C565 H577 0.929 . S
C566 C562 1.531 . S
C566 H578 0.960 . S
C566 H579 0.962 . S
C566 H580 0.960 . S
C567 C564 1.511 . S
C567 H581 0.961 . S
C567 H582 0.961 . S
C567 H583 0.961 . S
C568 C569 1.370 . S
C568 C570 1.363 . S
C568 H584 0.931 . S
C569 C568 1.370 . S
C569 C573 1.408 . S
C570 C568 1.363 . S
C570 C571 1.370 . S
C570 C574 1.524 . S
C571 C563 1.503 . S
C571 C570 1.370 . S
C571 C572 1.403 . S
C572 C571 1.403 . S
C572 C573 1.404 . S
C572 C575 1.539 . S
C573 C569 1.408 . S
C573 C572 1.404 . S
C573 H585 0.930 . S
C574 C570 1.524 . S
C574 H586 0.956 . S
C574 H587 0.961 . S
C574 H588 0.961 . S
C575 C572 1.539 . S
C575 H589 0.958 . S
C575 H590 0.961 . S
C575 H591 0.960 . S
H576 C560 0.931 . S
H577 C565 0.929 . S
H578 C566 0.960 . S
H579 C566 0.962 . S
H580 C566 0.960 . S
H581 C567 0.961 . S
H582 C567 0.961 . S
H583 C567 0.961 . S
H584 C568 0.931 . S
H585 C573 0.930 . S
H586 C574 0.956 . S
H587 C574 0.961 . S
H588 C574 0.961 . S
H589 C575 0.958 . S
H590 C575 0.961 . S
H591 C575 0.960 . S
C592 C593 1.391 . S
C592 C594 1.394 . S
C592 H608 0.931 . S
C593 C592 1.391 . S
C593 C597 1.376 . S
C594 C592 1.394 . S
C594 C595 1.369 . S
C594 C598 1.531 . S
C595 C594 1.369 . S
C595 C596 1.410 . S
C595 C603 1.503 . S
C596 C595 1.410 . S
C596 C597 1.392 . S
C596 C599 1.511 . S
C597 C593 1.376 . S
C597 C596 1.392 . S
C597 H609 0.929 . S
C598 C594 1.531 . S
C598 H610 0.960 . S
C598 H611 0.962 . S
C598 H612 0.960 . S
C599 C596 1.511 . S
C599 H613 0.961 . S
C599 H614 0.961 . S
C599 H615 0.961 . S
C600 C601 1.370 . S
C600 C602 1.363 . S
C600 H616 0.931 . S
C601 C600 1.370 . S
C601 C605 1.408 . S
C602 C600 1.363 . S
C602 C603 1.370 . S
C602 C606 1.524 . S
C603 C595 1.503 . S
C603 C602 1.370 . S
C603 C604 1.403 . S
C604 C603 1.403 . S
C604 C605 1.404 . S
C604 C607 1.539 . S
C605 C601 1.408 . S
C605 C604 1.404 . S
C605 H617 0.930 . S
C606 C602 1.524 . S
C606 H618 0.956 . S
C606 H619 0.961 . S
C606 H620 0.961 . S
C607 C604 1.539 . S
C607 H621 0.958 . S
C607 H622 0.961 . S
C607 H623 0.960 . S
H608 C592 0.931 . S
H609 C597 0.929 . S
H610 C598 0.960 . S
H611 C598 0.962 . S
H612 C598 0.960 . S
H613 C599 0.961 . S
H614 C599 0.961 . S
H615 C599 0.961 . S
H616 C600 0.931 . S
H617 C605 0.930 . S
H618 C606 0.956 . S
H619 C606 0.961 . S
H620 C606 0.961 . S
H621 C607 0.958 . S
H622 C607 0.961 . S
H623 C607 0.960 . S
C113 C4 1.445 . S
C121 C46 1.456 . S
C145 C5 1.231 . S
C153 C19 1.270 . S
C177 C18 1.479 . S
C185 C32 1.471 . S
C209 C47 1.235 . S
C217 C33 1.269 . S
C241 C60 1.449 . S
C249 C102 1.458 . S
C273 C75 1.252 . S
C281 C61 1.282 . S
C305 C88 1.440 . S
C313 C74 1.455 . S
C337 C103 1.326 . S
C345 C89 1.303 . S
C369 C96 1.413 . S
C377 C11 1.388 . S
C401 C26 1.413 . S
C409 C109 1.394 . S
C433 C68 1.415 . S
C441 C39 1.402 . S
C465 C81 1.376 . S
C473 C54 1.421 . S
C497 C82 1.419 . S
C505 C53 1.404 . S
C529 C12 1.420 . S
C537 C95 1.398 . S
C561 C25 1.370 . S
C569 C110 1.420 . S
C593 C40 1.419 . S
C601 C67 1.394 . S
