# Generated by pormake.
# Topology wny, (7)-cn, num edge types: 1
# Building blocks:
#     Node 0, Type 0, BuildingBlock: HICVOG_clean_sbu_0, # of connection points: 7
#     Node 1, Type 0, BuildingBlock: HICVOG_clean_sbu_0, # of connection points: 7
#     Node 2, Type 0, BuildingBlock: HICVOG_clean_sbu_0, # of connection points: 7
#     Node 3, Type 0, BuildingBlock: HICVOG_clean_sbu_0, # of connection points: 7
#     Node 4, Type 0, BuildingBlock: HICVOG_clean_sbu_0, # of connection points: 7
#     Node 5, Type 0, BuildingBlock: HICVOG_clean_sbu_0, # of connection points: 7
#     Node 6, Type 0, BuildingBlock: HICVOG_clean_sbu_0, # of connection points: 7
#     Node 7, Type 0, BuildingBlock: HICVOG_clean_sbu_0, # of connection points: 7
#     Node 8, Type 0, BuildingBlock: HICVOG_clean_sbu_0, # of connection points: 7
#     Node 9, Type 0, BuildingBlock: HICVOG_clean_sbu_0, # of connection points: 7
#     Node 10, Type 0, BuildingBlock: HICVOG_clean_sbu_0, # of connection points: 7
#     Node 11, Type 0, BuildingBlock: HICVOG_clean_sbu_0, # of connection points: 7
#     Node 12, Type 0, BuildingBlock: HICVOG_clean_sbu_0, # of connection points: 7
#     Node 13, Type 0, BuildingBlock: HICVOG_clean_sbu_0, # of connection points: 7
#     Node 14, Type 0, BuildingBlock: HICVOG_clean_sbu_0, # of connection points: 7
#     Node 15, Type 0, BuildingBlock: HICVOG_clean_sbu_0, # of connection points: 7
#     Node 16, Type 0, BuildingBlock: HICVOG_clean_sbu_0, # of connection points: 7
#     Node 17, Type 0, BuildingBlock: HICVOG_clean_sbu_0, # of connection points: 7
#     Node 18, Type 0, BuildingBlock: HICVOG_clean_sbu_0, # of connection points: 7
#     Node 19, Type 0, BuildingBlock: HICVOG_clean_sbu_0, # of connection points: 7
#     Node 20, Type 0, BuildingBlock: HICVOG_clean_sbu_0, # of connection points: 7
#     Node 21, Type 0, BuildingBlock: HICVOG_clean_sbu_0, # of connection points: 7
#     Node 22, Type 0, BuildingBlock: HICVOG_clean_sbu_0, # of connection points: 7
#     Node 23, Type 0, BuildingBlock: HICVOG_clean_sbu_0, # of connection points: 7
#     Node 24, Type 0, BuildingBlock: HICVOG_clean_sbu_0, # of connection points: 7
#     Node 25, Type 0, BuildingBlock: HICVOG_clean_sbu_0, # of connection points: 7
#     Node 26, Type 0, BuildingBlock: HICVOG_clean_sbu_0, # of connection points: 7
#     Node 27, Type 0, BuildingBlock: HICVOG_clean_sbu_0, # of connection points: 7
#     Node 28, Type 0, BuildingBlock: HICVOG_clean_sbu_0, # of connection points: 7
#     Node 29, Type 0, BuildingBlock: HICVOG_clean_sbu_0, # of connection points: 7
#     Node 30, Type 0, BuildingBlock: HICVOG_clean_sbu_0, # of connection points: 7
#     Node 31, Type 0, BuildingBlock: HICVOG_clean_sbu_0, # of connection points: 7
#     Node 32, Type 0, BuildingBlock: HICVOG_clean_sbu_0, # of connection points: 7
#     Node 33, Type 0, BuildingBlock: HICVOG_clean_sbu_0, # of connection points: 7
#     Node 34, Type 0, BuildingBlock: HICVOG_clean_sbu_0, # of connection points: 7
#     Node 35, Type 0, BuildingBlock: HICVOG_clean_sbu_0, # of connection points: 7
#     Edge 36, Type (0, 0), None
#     Edge 37, Type (0, 0), None
#     Edge 38, Type (0, 0), None
#     Edge 39, Type (0, 0), None
#     Edge 40, Type (0, 0), None
#     Edge 41, Type (0, 0), None
#     Edge 42, Type (0, 0), None
#     Edge 43, Type (0, 0), None
#     Edge 44, Type (0, 0), None
#     Edge 45, Type (0, 0), None
#     Edge 46, Type (0, 0), None
#     Edge 47, Type (0, 0), None
#     Edge 48, Type (0, 0), None
#     Edge 49, Type (0, 0), None
#     Edge 50, Type (0, 0), None
#     Edge 51, Type (0, 0), None
#     Edge 52, Type (0, 0), None
#     Edge 53, Type (0, 0), None
#     Edge 54, Type (0, 0), None
#     Edge 55, Type (0, 0), None
#     Edge 56, Type (0, 0), None
#     Edge 57, Type (0, 0), None
#     Edge 58, Type (0, 0), None
#     Edge 59, Type (0, 0), None
#     Edge 60, Type (0, 0), None
#     Edge 61, Type (0, 0), None
#     Edge 62, Type (0, 0), None
#     Edge 63, Type (0, 0), None
#     Edge 64, Type (0, 0), None
#     Edge 65, Type (0, 0), None
#     Edge 66, Type (0, 0), None
#     Edge 67, Type (0, 0), None
#     Edge 68, Type (0, 0), None
#     Edge 69, Type (0, 0), None
#     Edge 70, Type (0, 0), None
#     Edge 71, Type (0, 0), None
#     Edge 72, Type (0, 0), None
#     Edge 73, Type (0, 0), None
#     Edge 74, Type (0, 0), None
#     Edge 75, Type (0, 0), None
#     Edge 76, Type (0, 0), None
#     Edge 77, Type (0, 0), None
#     Edge 78, Type (0, 0), None
#     Edge 79, Type (0, 0), None
#     Edge 80, Type (0, 0), None
#     Edge 81, Type (0, 0), None
#     Edge 82, Type (0, 0), None
#     Edge 83, Type (0, 0), None
#     Edge 84, Type (0, 0), None
#     Edge 85, Type (0, 0), None
#     Edge 86, Type (0, 0), None
#     Edge 87, Type (0, 0), None
#     Edge 88, Type (0, 0), None
#     Edge 89, Type (0, 0), None
#     Edge 90, Type (0, 0), None
#     Edge 91, Type (0, 0), None
#     Edge 92, Type (0, 0), None
#     Edge 93, Type (0, 0), None
#     Edge 94, Type (0, 0), None
#     Edge 95, Type (0, 0), None
#     Edge 96, Type (0, 0), None
#     Edge 97, Type (0, 0), None
#     Edge 98, Type (0, 0), None
#     Edge 99, Type (0, 0), None
#     Edge 100, Type (0, 0), None
#     Edge 101, Type (0, 0), None
#     Edge 102, Type (0, 0), None
#     Edge 103, Type (0, 0), None
#     Edge 104, Type (0, 0), None
#     Edge 105, Type (0, 0), None
#     Edge 106, Type (0, 0), None
#     Edge 107, Type (0, 0), None
#     Edge 108, Type (0, 0), None
#     Edge 109, Type (0, 0), None
#     Edge 110, Type (0, 0), None
#     Edge 111, Type (0, 0), None
#     Edge 112, Type (0, 0), None
#     Edge 113, Type (0, 0), None
#     Edge 114, Type (0, 0), None
#     Edge 115, Type (0, 0), None
#     Edge 116, Type (0, 0), None
#     Edge 117, Type (0, 0), None
#     Edge 118, Type (0, 0), None
#     Edge 119, Type (0, 0), None
#     Edge 120, Type (0, 0), None
#     Edge 121, Type (0, 0), None
#     Edge 122, Type (0, 0), None
#     Edge 123, Type (0, 0), None
#     Edge 124, Type (0, 0), None
#     Edge 125, Type (0, 0), None
#     Edge 126, Type (0, 0), None
#     Edge 127, Type (0, 0), None
#     Edge 128, Type (0, 0), None
#     Edge 129, Type (0, 0), None
#     Edge 130, Type (0, 0), None
#     Edge 131, Type (0, 0), None
#     Edge 132, Type (0, 0), None
#     Edge 133, Type (0, 0), None
#     Edge 134, Type (0, 0), None
#     Edge 135, Type (0, 0), None
#     Edge 136, Type (0, 0), None
#     Edge 137, Type (0, 0), None
#     Edge 138, Type (0, 0), None
#     Edge 139, Type (0, 0), None
#     Edge 140, Type (0, 0), None
#     Edge 141, Type (0, 0), None
#     Edge 142, Type (0, 0), None
#     Edge 143, Type (0, 0), None
#     Edge 144, Type (0, 0), None
#     Edge 145, Type (0, 0), None
#     Edge 146, Type (0, 0), None
#     Edge 147, Type (0, 0), None
#     Edge 148, Type (0, 0), None
#     Edge 149, Type (0, 0), None
#     Edge 150, Type (0, 0), None
#     Edge 151, Type (0, 0), None
#     Edge 152, Type (0, 0), None
#     Edge 153, Type (0, 0), None
#     Edge 154, Type (0, 0), None
#     Edge 155, Type (0, 0), None
#     Edge 156, Type (0, 0), None
#     Edge 157, Type (0, 0), None
#     Edge 158, Type (0, 0), None
#     Edge 159, Type (0, 0), None
#     Edge 160, Type (0, 0), None
#     Edge 161, Type (0, 0), None
# Relax obj value: 0.228
# Max RMSD: 0.227
# Mean RMSD: 0.227
data_MOF--net-wny--node1-HICVOG_clean_sbu_0--edge1-none
_symmetry_space_group_name_H-M    P1
_symmetry_Int_Tables_number       1
_symmetry_cell_setting            triclinic
loop_
_symmetry_equiv_pos_as_xyz
'x, y, z'
_cell_length_a     19.849266
_cell_length_b     19.955467
_cell_length_c     69.270064
_cell_angle_alpha  90.498054
_cell_angle_beta   89.502908
_cell_angle_gamma 121.48354
loop_
_atom_site_label
_atom_site_type_symbol
_atom_site_fract_x
_atom_site_fract_y
_atom_site_fract_z
_atom_type_partial_charge
Zn0 Zn 0.15644 0.26082 0.16351 0.0
C1 C 1.00595 0.0718 0.19597 0.0
N2 N 0.07839 0.0822 0.19874 0.0
C3 C 0.11428 0.10895 0.1815 0.0
N4 N 0.0837 0.14905 0.17352 0.0
N5 N 1.01493 0.12377 0.18243 0.0
C6 C 0.87179 0.15353 0.18697 0.0
O7 O 0.91808 0.17399 0.17173 0.0
O8 O 0.27465 0.31405 0.17205 0.0
Zn9 Zn 1.00853 0.19232 0.20022 0.0
N10 N 0.16959 0.25223 0.13609 0.0
C11 C 0.21299 0.20382 0.11035 0.0
C12 C 0.19138 0.20167 0.12968 0.0
C13 C 0.1688 0.305 0.12399 0.0
N14 N 0.21223 0.2566 0.09824 0.0
C15 C 0.19072 0.30767 0.10451 0.0
O16 O 0.03675 0.29488 0.19166 0.0
C17 C 0.073 0.34664 0.17909 0.0
O18 O 0.11829 0.3412 0.16679 0.0
H19 H 0.19446 0.16191 0.13963 0.0
H20 H 0.15341 0.34591 0.12971 0.0
C21 C 1.01659 0.17041 0.24002 0.0
C22 C 0.05311 0.18091 0.25793 0.0
C23 C 0.17856 0.25233 0.24255 0.0
C24 C 0.14174 0.24266 0.22481 0.0
N25 N 0.06159 0.20224 0.22403 0.0
N26 N 0.1335 0.222 0.2587 0.0
H27 H 0.95296 0.13916 0.23872 0.0
C28 C 0.32675 0.38169 0.17882 0.0
O29 O 0.30609 0.43124 0.18464 0.0
O30 O 0.89658 0.14891 0.20345 0.0
H31 H 0.1764 0.26752 0.21181 0.0
H32 H 0.2316 0.16487 0.10507 0.0
H33 H 0.24231 0.28444 0.24354 0.0
Zn34 Zn 0.77142 0.91956 0.17079 0.0
C35 C 0.94959 0.89545 0.18413 0.0
N36 N 0.97182 0.94309 0.19953 0.0
C37 C 0.9429 0.99054 0.19593 0.0
N38 N 0.88191 0.95315 0.18265 0.0
N39 N 0.88061 0.88757 0.17892 0.0
C40 C 0.81013 0.69628 0.18656 0.0
O41 O 0.79876 0.72777 0.17135 0.0
O42 O 0.70249 0.96561 0.181 0.0
Zn43 Zn 0.8174 0.82424 0.20165 0.0
N44 N 0.78346 0.94489 0.1429 0.0
C45 C 0.85229 0.02785 0.11615 0.0
C46 C 0.84769 1.01094 0.13587 0.0
C47 C 0.72355 0.8951 0.13081 0.0
N48 N 0.79276 0.97788 0.10413 0.0
C49 C 0.72784 0.91123 0.11081 0.0
O50 O 0.70195 0.77058 0.20005 0.0
C51 C 0.67245 0.74502 0.18373 0.0
O52 O 0.69693 0.79332 0.16964 0.0
H53 H 0.8947 0.05034 0.14551 0.0
H54 H 0.6727 0.84338 0.13681 0.0
C55 C 0.86499 0.86643 0.24234 0.0
C56 C 0.86031 0.89836 0.26026 0.0
C57 C 0.79907 0.95806 0.24461 0.0
C58 C 0.80382 0.92652 0.22703 0.0
N59 N 0.8361 0.88095 0.22617 0.0
N60 N 0.82654 0.94259 0.26076 0.0
H61 H 0.88797 0.82786 0.24134 0.0
C62 C 0.64969 0.9542 0.19365 0.0
O63 O 0.62985 0.90143 0.2072 0.0
O64 O 0.82941 0.73277 0.20263 0.0
H65 H 0.77951 0.93598 0.21417 0.0
H66 H 0.90312 0.08043 0.11043 0.0
H67 H 0.77258 0.99358 0.24549 0.0
Zn68 Zn 0.12817 0.86807 0.1657 0.0
C69 C 0.10687 0.0438 0.17107 0.0
N70 N 0.03533 0.99345 0.16302 0.0
C71 C 1.01326 0.9214 0.17029 0.0
N72 N 0.0798 0.92546 0.17683 0.0
N73 N 0.13306 1.00046 0.17916 0.0
C74 C 0.321 0.14951 0.1816 0.0
O75 O 0.29662 0.09165 0.1691 0.0
O76 O 0.05329 0.75306 0.16919 0.0
Zn77 Zn 0.20348 0.03035 0.20007 0.0
N78 N 0.14281 0.88736 0.13819 0.0
C79 C 0.17662 0.97353 0.1115 0.0
C80 C 0.16131 0.95835 0.13113 0.0
C81 C 0.14061 0.83127 0.12642 0.0
N82 N 0.17443 0.91771 0.09977 0.0
C83 C 0.15721 0.84667 0.10662 0.0
O84 O 0.27417 0.9907 0.1977 0.0
C85 C 0.28856 0.94619 0.18783 0.0
O86 O 0.23991 0.89852 0.17534 0.0
H87 H 0.1657 1.00343 0.14064 0.0
H88 H 0.12753 0.77604 0.13256 0.0
C89 C 0.17944 0.04627 0.24074 0.0
C90 C 0.15132 1.01443 0.25922 0.0
C91 C 0.0684 0.88901 0.24493 0.0
C92 C 0.09719 0.92045 0.22674 0.0
N93 N 0.1525 0.9981 0.225 0.0
N94 N 0.0968 0.93635 0.26071 0.0
H95 H 0.22543 0.10733 0.23897 0.0
C96 C 0.07016 0.70221 0.17401 0.0
O97 O 0.14331 0.72357 0.17796 0.0
O98 O 0.28218 0.1409 0.19707 0.0
H99 H 0.07819 0.88259 0.21417 0.0
H100 H 0.19111 0.02952 0.10564 0.0
H101 H 1.02527 0.82704 0.24657 0.0
Zn102 Zn 0.2984 0.18779 0.36967 0.0
C103 C 0.10349 0.99256 0.34979 0.0
N104 N 0.07847 0.039 0.34282 0.0
C105 C 0.12707 0.11118 0.35078 0.0
N106 N 0.19166 0.11286 0.35805 0.0
N107 N 0.17862 0.04135 0.35544 0.0
C108 C 0.20885 0.90005 0.34845 0.0
O109 O 0.23601 0.94668 0.36357 0.0
O110 O 0.35817 0.30307 0.35897 0.0
Zn111 Zn 0.23742 0.03812 0.33387 0.0
N112 N 0.28803 0.2026 0.39747 0.0
C113 C 0.23584 0.24369 0.42293 0.0
C114 C 0.23791 0.22579 0.40346 0.0
C115 C 0.33713 0.19776 0.4103 0.0
N116 N 0.28482 0.2389 0.4357 0.0
C117 C 0.33611 0.21659 0.43002 0.0
O118 O 0.35227 0.09722 0.33756 0.0
C119 C 0.38269 0.10358 0.35391 0.0
O120 O 0.3669 0.13485 0.36809 0.0
H121 H 0.20118 0.2321 0.3931 0.0
H122 H 0.37785 0.1811 0.40506 0.0
C123 C 0.18475 0.02955 0.29457 0.0
C124 C 0.18222 0.06276 0.27693 0.0
C125 C 0.2408 0.18769 0.29217 0.0
C126 C 0.2442 0.15473 0.30952 0.0
N127 N 0.21681 0.07657 0.31036 0.0
N128 N 0.21081 0.14127 0.27627 0.0
H129 H 0.16484 0.96781 0.29557 0.0
C130 C 0.40344 0.34937 0.34564 0.0
O131 O 0.42401 0.32176 0.33095 0.0
O132 O 0.20517 0.92674 0.33217 0.0
H133 H 0.27046 0.19143 0.32213 0.0
H134 H 0.19621 0.26233 0.42782 0.0
H135 H 0.26305 0.24995 0.29125 0.0
Zn136 Zn 1.02712 0.2016 0.33406 0.0
C137 C 0.98361 0.04724 0.37618 0.0
N138 N 0.06137 0.10184 0.3789 0.0
C139 C 0.08448 0.13759 0.36163 0.0
N140 N 1.01925 0.12909 0.35318 0.0
N141 N 0.95566 0.07608 0.36276 0.0
C142 C 0.72619 0.0786 0.35853 0.0
O143 O 0.74406 0.14825 0.36479 0.0
O144 O 0.13876 0.29001 0.33428 0.0
Zn145 Zn 0.88718 0.11796 0.37079 0.0
N146 N 0.99149 0.1519 0.30981 0.0
C147 C 0.87827 0.07768 0.29033 0.0
C148 C 0.91216 0.10254 0.30843 0.0
C149 C 0.03921 0.17622 0.29403 0.0
N150 N 0.92542 0.10286 0.27445 0.0
C151 C 1.00529 0.15113 0.27572 0.0
O152 O 0.94004 0.24106 0.36885 0.0
C153 C 0.96416 0.28585 0.3541 0.0
O154 O 0.97166 0.25994 0.33806 0.0
H155 H 0.87547 0.08616 0.32124 0.0
H156 H 0.10171 0.21832 0.29574 0.0
C157 C 0.86287 0.14991 0.40896 0.0
C158 C 0.8375 0.13351 0.42822 0.0
C159 C 0.80804 1.00284 0.42371 0.0
C160 C 0.83336 1.01972 0.40454 0.0
N161 N 0.86067 0.09311 0.39763 0.0
N162 N 0.81075 0.05999 0.43511 0.0
H163 H 0.88324 0.20706 0.40285 0.0
C164 C 0.15958 0.32686 0.35032 0.0
O165 O 0.11137 0.30087 0.3652 0.0
O166 O 0.77861 0.05969 0.3583 0.0
H167 H 0.83022 0.97459 0.39521 0.0
H168 H 0.81492 0.03999 0.28885 0.0
H169 H 0.78601 0.94473 0.42946 0.0
Zn170 Zn 0.91839 0.76516 0.36354 0.0
C171 C 0.9735 0.97014 0.37416 0.0
N172 N 0.0383 0.96668 0.37865 0.0
C173 C 0.04846 0.93237 0.36295 0.0
N174 N 0.97539 0.88243 0.35594 0.0
N175 N 0.9341 0.91617 0.35968 0.0
C176 C 0.73576 0.87835 0.35467 0.0
O177 O 0.76296 0.86033 0.36964 0.0
O178 O 0.9793 0.70783 0.3579 0.0
Zn179 Zn 0.85699 0.88357 0.33907 0.0
N180 N 0.89722 0.75953 0.39152 0.0
C181 C 0.8402 0.79622 0.41677 0.0
C182 C 0.86271 0.79957 0.3976 0.0
C183 C 0.90716 0.71281 0.40403 0.0
N184 N 0.85036 0.75034 0.4292 0.0
C185 C 0.88254 0.70755 0.42351 0.0
O186 O 0.77457 0.7717 0.34166 0.0
C187 C 0.75519 0.70315 0.34633 0.0
O188 O 0.80584 0.68925 0.35316 0.0
H189 H 0.85078 0.83242 0.38754 0.0
H190 H 0.93218 0.67914 0.3988 0.0
C191 C 0.87089 0.9002 0.29687 0.0
C192 C 0.89026 0.88408 0.27837 0.0
C193 C 0.96443 0.83674 0.29321 0.0
C194 C 0.94432 0.85159 0.31133 0.0
N195 N 0.89885 0.88411 0.31302 0.0
N196 N 0.93655 0.85266 0.27724 0.0
H197 H 0.83055 0.92093 0.29849 0.0
C198 C 0.96904 0.65678 0.34495 0.0
O199 O 0.91828 0.63966 0.33096 0.0
O200 O 0.78338 0.92071 0.34133 0.0
H201 H 0.96149 0.83249 0.32379 0.0
H202 H 0.81322 0.8285 0.42167 0.0
H203 H 1.00015 0.81053 0.29183 0.0
Zn204 Zn 0.051 0.86207 0.83694 0.0
C205 C 0.95426 0.96341 0.8565 0.0
N206 N 0.9794 0.98227 0.8381 0.0
C207 C 0.05169 0.99082 0.83841 0.0
N208 N 0.0497 0.94285 0.85217 0.0
N209 N 0.98884 0.92535 0.86379 0.0
C210 C 0.76311 0.69123 0.85457 0.0
O211 O 0.79273 0.66366 0.84203 0.0
O212 O 0.1593 0.88355 0.83614 0.0
Zn213 Zn 0.92579 0.81799 0.87631 0.0
N214 N 1.0115 0.85988 0.81183 0.0
C215 C 0.90107 0.81752 0.79134 0.0
C216 C 0.93214 0.82495 0.8097 0.0
C217 C 0.06153 0.88924 0.79657 0.0
N218 N 0.95088 0.8453 0.77595 0.0
C219 C 1.03059 0.88158 0.77804 0.0
O220 O 0.98673 0.75871 0.87657 0.0
C221 C 1.00464 0.735 0.86142 0.0
O222 O 0.98899 0.75165 0.84524 0.0
H223 H 0.89364 0.80245 0.82218 0.0
H224 H 0.12431 0.91628 0.79895 0.0
C225 C 0.88745 0.76266 0.91403 0.0
C226 C 0.86844 0.75956 0.93375 0.0
C227 C 0.89182 0.88872 0.93142 0.0
C228 C 0.91104 0.89129 0.91183 0.0
N229 N 0.90859 0.82809 0.90356 0.0
N230 N 0.87116 0.82324 0.94192 0.0
H231 H 0.88483 0.71303 0.90683 0.0
C232 C 0.18656 0.88658 0.85282 0.0
O233 O 0.14828 0.88785 0.86823 0.0
O234 O 0.80872 0.74658 0.8663 0.0
H235 H 0.92672 0.94257 0.90328 0.0
H236 H 0.838 0.78935 0.78928 0.0
H237 H 0.89328 0.93846 0.93822 0.0
Zn238 Zn 0.25812 0.23459 0.83196 0.0
C239 C 0.11434 0.07123 0.83731 0.0
N240 N 0.08803 0.12118 0.83437 0.0
C241 C 0.11872 0.17197 0.84915 0.0
N242 N 0.18656 0.17473 0.85339 0.0
N243 N 0.18063 0.10753 0.84881 0.0
C244 C 0.40575 0.08972 0.84493 0.0
O245 O 0.4498 0.1621 0.83869 0.0
O246 O 0.2294 0.31004 0.82455 0.0
Zn247 Zn 0.27906 0.12436 0.86286 0.0
N248 N 0.25425 0.17437 0.8095 0.0
C249 C 0.30591 0.10707 0.79238 0.0
C250 C 0.29667 0.13882 0.80948 0.0
C251 C 0.2183 0.17739 0.79323 0.0
N252 N 0.27219 0.11236 0.77594 0.0
C253 C 0.2275 0.14577 0.77587 0.0
O254 O 0.36131 0.24765 0.86671 0.0
C255 C 0.39231 0.30988 0.8563 0.0
O256 O 0.36864 0.30676 0.83933 0.0
H257 H 0.32499 0.13785 0.82252 0.0
H258 H 0.18587 0.20727 0.79372 0.0
C259 C 0.31338 0.12543 0.90222 0.0
C260 C 0.3002 0.10971 0.92213 0.0
C261 C 0.16351 1.02377 0.91571 0.0
C262 C 0.17714 0.04083 0.896 0.0
N263 N 0.25184 0.09148 0.88966 0.0
N264 N 0.22496 0.05883 0.92829 0.0
H265 H 0.372 0.16574 0.89664 0.0
C266 C 0.2397 0.35183 0.83937 0.0
O267 O 0.26157 0.3366 0.85576 0.0
O268 O 0.33936 0.06785 0.85335 0.0
H269 H 0.1287 1.01453 0.88593 0.0
H270 H 0.34074 0.0797 0.79207 0.0
H271 H 0.1043 0.9836 0.92098 0.0
Zn272 Zn 0.86646 0.04105 0.83664 0.0
C273 C 0.06033 0.15423 0.86406 0.0
N274 N 0.03932 0.08441 0.8726 0.0
C275 C 0.96564 0.03262 0.86598 0.0
N276 N 0.93802 0.07479 0.85763 0.0
N277 N 0.99243 0.15022 0.85835 0.0
C278 C 0.98796 0.38151 0.85279 0.0
O279 O 0.93356 0.37391 0.86503 0.0
O280 O 0.79701 0.92908 0.83944 0.0
Zn281 Zn 0.94612 0.21862 0.86482 0.0
N282 N 0.91711 0.07653 0.81169 0.0
C283 C 0.99654 0.18723 0.79174 0.0
C284 C 0.96684 0.1554 0.80985 0.0
C285 C 0.89636 0.02769 0.79609 0.0
N286 N 0.97412 0.139 0.77612 0.0
C287 C 0.92506 0.05982 0.77766 0.0
O288 O 0.82279 0.16565 0.86039 0.0
C289 C 0.77038 0.11128 0.84956 0.0
O290 O 0.78625 0.06922 0.83911 0.0
H291 H 0.98115 0.19353 0.82228 0.0
H292 H 0.8551 0.96533 0.79792 0.0
C293 C 0.90069 0.22696 0.9041 0.0
C294 C 0.91379 0.24787 0.92382 0.0
C295 C 0.05133 0.3029 0.91863 0.0
C296 C 0.03788 0.28237 0.89913 0.0
N297 N 0.96291 0.24455 0.89224 0.0
N298 N 0.98935 0.28533 0.93048 0.0
H299 H 0.84173 0.19713 0.89817 0.0
C300 C 0.75957 0.91639 0.85532 0.0
O301 O 0.7793 0.97341 0.86784 0.0
O302 O 1.0009 0.32516 0.85057 0.0
H303 H 0.08676 0.29658 0.8895 0.0
H304 H 0.03567 0.24997 0.79002 0.0
H305 H 0.11059 0.33237 0.92434 0.0
Zn306 Zn 0.79823 0.88087 0.66538 0.0
C307 C 0.99417 0.07237 0.68592 0.0
N308 N 1.01772 1.02512 0.69316 0.0
C309 C 0.96844 0.95301 0.68528 0.0
N310 N 0.90482 0.95264 0.67766 0.0
N311 N 0.91877 1.02441 0.68036 0.0
C312 C 0.88295 0.16206 0.68626 0.0
O313 O 0.85662 0.11465 0.67127 0.0
O314 O 0.74023 0.76604 0.6753 0.0
Zn315 Zn 0.85767 0.02703 0.70172 0.0
N316 N 0.80924 0.86803 0.63754 0.0
C317 C 0.86247 0.82933 0.61181 0.0
C318 C 0.86065 0.84683 0.63132 0.0
C319 C 0.75842 0.87097 0.62493 0.0
N320 N 0.81172 0.83218 0.59925 0.0
C321 C 0.759 0.85226 0.60519 0.0
O322 O 0.74258 0.96498 0.69831 0.0
C323 C 0.71229 0.96148 0.68213 0.0
O324 O 0.72904 0.93322 0.66747 0.0
H325 H 0.89837 0.84142 0.64153 0.0
H326 H 0.71651 0.88572 0.63038 0.0
C327 C 0.90114 0.04079 0.7418 0.0
C328 C 0.90167 1.01024 0.76001 0.0
C329 C 0.85637 0.88587 0.7454 0.0
C330 C 0.85588 0.91642 0.72742 0.0
N331 N 0.87796 0.9931 0.72597 0.0
N332 N 0.87863 0.93315 0.76125 0.0
H333 H 0.91522 0.10069 0.74031 0.0
C334 C 0.68086 0.71441 0.68513 0.0
O335 O 0.63532 0.73325 0.69453 0.0
O336 O 0.88701 0.13682 0.7027 0.0
H337 H 0.8351 0.87864 0.71482 0.0
H338 H 0.90315 0.81231 0.60673 0.0
H339 H 0.83782 0.82462 0.7468 0.0
Zn340 Zn 0.20747 0.94151 0.66642 0.0
C341 C 1.01046 0.92448 0.67494 0.0
N342 N 1.03426 0.95882 0.65752 0.0
C343 C 0.11219 1.01282 0.66019 0.0
N344 N 0.13917 0.98425 0.67389 0.0
N345 N 0.0754 0.93275 0.68364 0.0
C346 C 0.94194 0.73368 0.68568 0.0
O347 O 0.99089 0.76289 0.67101 0.0
O348 O 0.31535 1.00176 0.67899 0.0
Zn349 Zn 0.06907 0.86061 0.70278 0.0
N350 N 0.23479 0.96611 0.63964 0.0
C351 C 0.29256 0.05865 0.61414 0.0
C352 C 0.26649 0.0409 0.63322 0.0
C353 C 0.22885 0.90861 0.6279 0.0
N354 N 0.28639 1.00096 0.60234 0.0
C355 C 0.25527 0.926 0.60872 0.0
O356 O 0.12834 0.80543 0.69984 0.0
C357 C 0.1331 0.77585 0.68413 0.0
O358 O 0.15532 0.81799 0.66889 0.0
H359 H 0.27254 0.08639 0.64293 0.0
H360 H 0.20483 0.85022 0.63364 0.0
C361 C 0.05189 0.88777 0.74228 0.0
C362 C 0.0827 0.90904 0.76097 0.0
C363 C 0.21274 0.97385 0.74794 0.0
C364 C 0.18191 0.95295 0.72945 0.0
N365 N 0.10241 0.90956 0.72711 0.0
N366 N 0.16256 0.95112 0.76325 0.0
H367 H 0.98912 0.85002 0.73979 0.0
C368 C 0.36855 0.98401 0.67863 0.0
O369 O 0.35164 0.91476 0.67229 0.0
O370 O 0.95952 0.76968 0.70185 0.0
H371 H 0.22074 0.96711 0.71711 0.0
H372 H 0.31805 0.11788 0.60878 0.0
H373 H 0.27595 1.00647 0.75016 0.0
Zn374 Zn 0.18238 0.29695 0.67222 0.0
C375 C 0.12361 0.09051 0.66182 0.0
N376 N 0.05953 0.09492 0.6571 0.0
C377 C 0.0501 0.13098 0.67254 0.0
N378 N 0.12343 0.18027 0.67951 0.0
N379 N 0.16358 0.14511 0.67614 0.0
C380 C 0.36077 0.18746 0.68168 0.0
O381 O 0.33311 0.20972 0.66765 0.0
O382 O 0.12191 0.3548 0.67779 0.0
Zn383 Zn 0.23585 0.17157 0.6978 0.0
N384 N 0.20381 0.30381 0.6442 0.0
C385 C 0.25494 0.26431 0.61815 0.0
C386 C 0.23455 0.26109 0.63749 0.0
C387 C 0.19453 0.35204 0.63206 0.0
N388 N 0.24546 0.31175 0.6061 0.0
C389 C 0.21621 0.35648 0.61236 0.0
O390 O 0.31799 0.28577 0.69884 0.0
C391 C 0.33923 0.35451 0.69368 0.0
O392 O 0.29348 0.36772 0.68387 0.0
H393 H 0.24435 0.22544 0.64712 0.0
H394 H 0.17153 0.38693 0.63771 0.0
C395 C 0.2176 0.14379 0.73933 0.0
C396 C 0.1909 0.15049 0.75782 0.0
C397 C 0.1009 0.17822 0.74317 0.0
C398 C 0.12785 0.17255 0.72509 0.0
N399 N 0.18515 0.15471 0.72327 0.0
N400 N 0.13293 0.16733 0.75907 0.0
H401 H 0.26692 0.13532 0.73772 0.0
C402 C 0.13291 0.40858 0.68997 0.0
O403 O 0.1868 0.43118 0.70343 0.0
O404 O 0.31335 0.13995 0.69437 0.0
H405 H 0.10593 0.18767 0.71289 0.0
H406 H 0.27908 0.23006 0.61276 0.0
H407 H 0.05741 0.195 0.74451 0.0
Zn408 Zn 0.8638 0.62533 0.4978 0.0
C409 C 0.67088 0.43311 0.51868 0.0
N410 N 0.71841 0.4109 0.52652 0.0
C411 C 0.79075 0.45861 0.51841 0.0
N412 N 0.79111 0.52056 0.51008 0.0
N413 N 0.71909 0.50711 0.51239 0.0
C414 C 0.58539 0.54464 0.51942 0.0
O415 O 0.63362 0.57296 0.50457 0.0
O416 O 0.97957 0.68295 0.50702 0.0
Zn417 Zn 0.72048 0.56949 0.5337 0.0
N418 N 0.8756 0.61032 0.47042 0.0
C419 C 0.91869 0.55869 0.44534 0.0
C420 C 0.90043 0.56132 0.46475 0.0
C421 C 0.86921 0.65745 0.45744 0.0
N422 N 0.91251 0.60596 0.43237 0.0
C423 C 0.88838 0.65584 0.43785 0.0
O424 O 0.78026 0.68399 0.53019 0.0
C425 C 0.78647 0.71524 0.51402 0.0
O426 O 0.81372 0.69675 0.49944 0.0
H427 H 0.90833 0.52646 0.47532 0.0
H428 H 0.85166 0.69752 0.46253 0.0
C429 C 0.71345 0.52197 0.57301 0.0
C430 C 0.74728 0.52069 0.59065 0.0
C431 C 0.87156 0.57319 0.57495 0.0
C432 C 0.83804 0.57563 0.55761 0.0
N433 N 0.75983 0.55015 0.557 0.0
N434 N 0.82572 0.54661 0.59105 0.0
H435 H 0.65197 0.50446 0.57213 0.0
C436 C 1.03163 0.7456 0.51569 0.0
O437 O 1.01241 0.7929 0.52389 0.0
O438 O 0.61031 0.5394 0.53581 0.0
H439 H 0.87443 0.59986 0.54483 0.0
H440 H 0.93917 0.52051 0.44066 0.0
H441 H 0.93384 0.59373 0.57573 0.0
Zn442 Zn 0.44637 0.24511 0.50478 0.0
C443 C 0.65162 0.30009 0.49636 0.0
N444 N 0.64645 0.36254 0.49066 0.0
C445 C 0.61135 0.37519 0.50581 0.0
N446 N 0.56212 0.30378 0.51353 0.0
N447 N 0.59774 0.26356 0.51108 0.0
C448 C 0.56118 0.0728 0.51731 0.0
O449 O 0.53696 0.09974 0.50352 0.0
O450 O 0.38815 0.30483 0.51032 0.0
Zn451 Zn 0.56848 0.19355 0.53332 0.0
N452 N 0.44194 0.22597 0.47645 0.0
C453 C 0.4829 0.17487 0.4507 0.0
C454 C 0.48513 0.19523 0.47004 0.0
C455 C 0.39349 0.23439 0.46403 0.0
N456 N 0.43532 0.18349 0.4384 0.0
C457 C 0.38954 0.21208 0.44434 0.0
O458 O 0.45468 0.11035 0.53242 0.0
C459 C 0.38711 0.08798 0.52583 0.0
O460 O 0.375 0.13317 0.51553 0.0
H461 H 0.51985 0.18474 0.47995 0.0
H462 H 0.35748 0.25653 0.46947 0.0
C463 C 0.59494 0.21972 0.57549 0.0
C464 C 0.58505 0.24738 0.59362 0.0
C465 C 0.53838 0.3193 0.57738 0.0
C466 C 0.54818 0.29208 0.55969 0.0
N467 N 0.57699 0.24337 0.55884 0.0
N468 N 0.55661 0.2962 0.59383 0.0
H469 H 0.61274 0.17702 0.57463 0.0
C470 C 0.33833 0.29825 0.52326 0.0
O471 O 0.32032 0.24957 0.53772 0.0
O472 O 0.60315 0.1182 0.53102 0.0
H473 H 0.52847 0.30679 0.54691 0.0
H474 H 0.51763 0.15083 0.44556 0.0
H475 H 0.51453 0.35718 0.57807 0.0
Zn476 Zn 0.8118 0.22581 0.49924 0.0
C477 C 0.81819 0.41516 0.50847 0.0
N478 N 0.78276 0.38885 0.49127 0.0
C479 C 0.72992 0.31151 0.4946 0.0
N480 N 0.76126 0.2872 0.50836 0.0
N481 N 0.81131 0.35258 0.51783 0.0
C482 C 1.00784 0.49477 0.51956 0.0
O483 O 0.98179 0.43928 0.50637 0.0
O484 O 0.74129 0.107 0.50381 0.0
Zn485 Zn 0.88579 0.37055 0.53756 0.0
N486 N 0.82903 0.24168 0.47183 0.0
C487 C 0.88968 0.33115 0.44583 0.0
C488 C 0.86708 0.31661 0.46512 0.0
C489 C 0.81642 0.18093 0.46022 0.0
N490 N 0.87739 0.27072 0.43426 0.0
C491 C 0.84228 0.19574 0.44094 0.0
O492 O 0.95746 0.33132 0.53416 0.0
C493 C 0.97428 0.29815 0.52108 0.0
O494 O 0.92642 0.26103 0.50739 0.0
H495 H 0.88289 0.36506 0.47483 0.0
H496 H 0.79008 0.12267 0.46626 0.0
C497 C 0.86415 0.38388 0.57797 0.0
C498 C 0.84247 0.35153 0.59654 0.0
C499 C 0.76994 0.22386 0.58266 0.0
C500 C 0.7914 0.25621 0.5643 0.0
N501 N 0.83871 0.33526 0.56238 0.0
N502 N 0.79633 0.27207 0.59832 0.0
H503 H 0.90512 0.4461 0.5759 0.0
C504 C 0.76244 0.05819 0.50793 0.0
O505 O 0.83721 0.0833 0.5109 0.0
O506 O 0.96993 0.48304 0.53541 0.0
H507 H 0.77402 0.21859 0.55167 0.0
H508 H 0.91968 0.3903 0.44024 0.0
H509 H 0.73381 0.16087 0.5845 0.0
Zn510 Zn 0.93578 0.37986 0.66978 0.0
C511 C 0.82805 0.45318 0.68593 0.0
N512 N 0.78016 0.38147 0.6777 0.0
C513 C 0.80323 0.33424 0.68517 0.0
N514 N 0.87754 0.3822 0.6915 0.0
N515 N 0.89168 0.45419 0.69375 0.0
C516 C 0.10139 0.68937 0.68364 0.0
O517 O 0.11573 0.65744 0.66876 0.0
O518 O 0.90286 0.26895 0.66769 0.0
Zn519 Zn 0.99802 0.52601 0.70626 0.0
N520 N 0.91357 0.41842 0.64689 0.0
C521 C 0.93451 0.52773 0.6285 0.0
C522 C 0.94086 0.49648 0.6458 0.0
C523 C 0.87911 0.36988 0.63153 0.0
N524 N 0.90211 0.4797 0.61295 0.0
C525 C 0.87382 0.40128 0.61396 0.0
O526 O 0.06944 0.47587 0.70284 0.0
C527 C 0.08461 0.4453 0.68835 0.0
O528 O 0.05081 0.43671 0.67241 0.0
H529 H 0.96896 0.53422 0.65815 0.0
H530 H 0.85966 0.30835 0.63282 0.0
C531 C 0.04185 0.57096 0.7468 0.0
C532 C 1.03018 0.56194 0.76707 0.0
C533 C 0.89834 0.45766 0.76164 0.0
C534 C 0.91081 0.46594 0.74173 0.0
N535 N 0.98184 0.52273 0.73456 0.0
N536 N 0.95805 0.50531 0.77379 0.0
H537 H 0.09847 0.61445 0.74076 0.0
C538 C 0.90934 0.24368 0.6839 0.0
O539 O 0.93919 0.2915 0.69874 0.0
O540 O 0.05785 0.64586 0.69765 0.0
H541 H 0.86464 0.426 0.73208 0.0
H542 H 0.95645 0.58985 0.6273 0.0
H543 H 0.84186 0.41265 0.76742 0.0
Zn544 Zn 0.59222 0.4709 0.70739 0.0
C545 C 0.78368 0.47847 0.69641 0.0
N546 N 0.75888 0.44274 0.71361 0.0
C547 C 0.68087 0.38994 0.71067 0.0
N548 N 0.65489 0.42161 0.69743 0.0
N549 N 0.71956 0.47109 0.68752 0.0
C550 C 0.8665 0.66174 0.68317 0.0
O551 O 0.81407 0.63892 0.69715 0.0
O552 O 0.47201 0.3984 0.70274 0.0
Zn553 Zn 0.73471 0.543 0.66744 0.0
N554 N 0.61142 0.49001 0.7351 0.0
C555 C 0.7079 0.55144 0.75985 0.0
C556 C 0.68823 0.52787 0.74072 0.0
C557 C 0.55351 0.47844 0.74782 0.0
N558 N 0.65042 0.53999 0.77251 0.0
C559 C 0.57344 0.50495 0.76711 0.0
O560 O 0.70019 0.61728 0.67246 0.0
C561 C 0.66465 0.63295 0.68517 0.0
O562 O 0.62541 0.58441 0.69861 0.0
H563 H 0.73434 0.5425 0.73025 0.0
H564 H 0.49343 0.45192 0.74274 0.0
C565 C 0.7367 0.51633 0.62689 0.0
C566 C 0.7003 0.49529 0.60871 0.0
C567 C 0.57462 0.43072 0.62414 0.0
C568 C 0.61101 0.45169 0.6421 0.0
N569 N 0.69107 0.49487 0.64307 0.0
N570 N 0.62 0.45386 0.60793 0.0
H571 H 0.80015 0.55347 0.62823 0.0
C572 C 0.42235 0.41711 0.69734 0.0
O573 O 0.44667 0.49074 0.6936 0.0
O574 O 0.84915 0.62313 0.66735 0.0
H575 H 0.57597 0.43732 0.65517 0.0
H576 H 0.76881 0.58105 0.76447 0.0
H577 H 0.51089 0.39766 0.62304 0.0
Zn578 Zn 0.55653 0.22583 0.67264 0.0
C579 C 0.74551 0.27376 0.6978 0.0
N580 N 0.73344 0.30727 0.71337 0.0
C581 C 0.67016 0.31247 0.70826 0.0
N582 N 0.63283 0.26003 0.69337 0.0
N583 N 0.67359 0.2254 0.69004 0.0
C584 C 0.66672 1.00096 0.6805 0.0
O585 O 0.6168 0.98356 0.66629 0.0
O586 O 0.49297 0.27449 0.67261 0.0
Zn587 Zn 0.6144 0.10874 0.69793 0.0
N588 N 0.5976 0.21768 0.64715 0.0
C589 C 0.64622 0.14952 0.62891 0.0
C590 C 0.62788 0.17023 0.64655 0.0
C591 C 0.58388 0.24428 0.63041 0.0
N592 N 0.63186 0.17529 0.61231 0.0
C593 C 0.60143 0.22249 0.61235 0.0
O594 O 0.50422 0.03411 0.6866 0.0
C595 C 0.45135 0.04757 0.68125 0.0
O596 O 0.46841 0.11592 0.67692 0.0
H597 H 0.63425 0.14508 0.65962 0.0
H598 H 0.55627 0.27873 0.63117 0.0
C599 C 0.59186 0.05193 0.73842 0.0
C600 C 0.56262 0.04535 0.7575 0.0
C601 C 0.52744 0.13895 0.75005 0.0
C602 C 0.55394 0.14324 0.73121 0.0
N603 N 0.58772 0.10182 0.72572 0.0
N604 N 0.53211 0.09018 0.76266 0.0
H605 H 0.61555 1.01657 0.73359 0.0
C606 C 0.44446 0.23703 0.6862 0.0
O607 O 0.47021 0.22237 0.70202 0.0
O608 O 0.67592 0.05192 0.69333 0.0
H609 H 0.54507 0.1775 0.72088 0.0
H610 H 0.66978 0.11137 0.62837 0.0
H611 H 0.50119 0.17247 0.75449 0.0
Zn612 Zn 0.66794 0.13596 0.17062 0.0
C613 C 0.60233 0.25484 0.18393 0.0
N614 N 0.67369 0.29935 0.17515 0.0
C615 C 0.72134 0.27811 0.18343 0.0
N616 N 0.67354 0.20596 0.19067 0.0
N617 N 0.60241 0.19445 0.19328 0.0
C618 C 0.36994 0.96309 0.18938 0.0
O619 O 0.38862 0.91093 0.18467 0.0
O620 O 0.77336 0.15374 0.16884 0.0
Zn621 Zn 0.53379 0.09111 0.20663 0.0
N622 N 0.63323 0.15607 0.1468 0.0
C623 C 0.52606 0.1394 0.12797 0.0
C624 C 0.55557 0.13203 0.14544 0.0
C625 C 0.68313 0.18789 0.13148 0.0
N626 N 0.57533 0.16946 0.11253 0.0
C627 C 0.65338 0.19418 0.11371 0.0
O628 O 0.58677 1.02197 0.20658 0.0
C629 C 0.60701 0.99732 0.19187 0.0
O630 O 0.60321 1.02139 0.17537 0.0
H631 H 0.51682 0.10617 0.15779 0.0
H632 H 0.74435 0.20515 0.13303 0.0
C633 C 0.52748 0.06213 0.24666 0.0
C634 C 0.50934 0.0645 0.26623 0.0
C635 C 0.47772 0.1607 0.25866 0.0
C636 C 0.49539 0.15751 0.23921 0.0
N637 N 0.5202 0.10841 0.23363 0.0
N638 N 0.48488 0.11417 0.2717 0.0
H639 H 0.54528 1.02221 0.24165 0.0
C640 C 0.79674 0.14661 0.18525 0.0
O641 O 0.75457 0.1366 0.20083 0.0
O642 O 0.42121 0.02974 0.19654 0.0
H643 H 0.48752 0.19227 0.2286 0.0
H644 H 0.46431 0.12031 0.12658 0.0
H645 H 0.45742 0.19907 0.26333 0.0
Zn646 Zn 0.8268 0.51855 0.16736 0.0
C647 C 0.78034 0.33784 0.19587 0.0
N648 N 0.74549 0.35341 0.2106 0.0
C649 C 0.74163 0.41578 0.20417 0.0
N650 N 0.79507 0.44869 0.18926 0.0
N651 N 0.82939 0.40712 0.18734 0.0
C652 C 0.05233 0.40775 0.17854 0.0
O653 O 0.08995 0.46913 0.16723 0.0
O654 O 0.77948 0.58273 0.16889 0.0
Zn655 Zn 0.94401 0.46266 0.1958 0.0
N656 N 0.8279 0.47134 0.14204 0.0
C657 C 0.88399 0.40849 0.12446 0.0
C658 C 0.86682 0.43183 0.14188 0.0
C659 C 0.80682 0.48948 0.12502 0.0
N660 N 0.86293 0.42643 0.10761 0.0
C661 C 0.82427 0.46591 0.10717 0.0
O662 O 1.01628 0.57129 0.18482 0.0
C663 C 1.00559 0.62069 0.17612 0.0
O664 O 0.93839 0.60355 0.17017 0.0
H665 H 0.88864 0.422 0.15507 0.0
H666 H 0.78065 0.52523 0.1254 0.0
C667 C 0.999 0.47568 0.23661 0.0
C668 C 1.00422 0.50049 0.25613 0.0
C669 C 0.91254 0.53942 0.24932 0.0
C670 C 0.90937 0.51697 0.23013 0.0
N671 N 0.95077 0.48386 0.22405 0.0
N672 N 0.95976 0.53095 0.26176 0.0
H673 H 1.03399 0.45204 0.23139 0.0
C674 C 0.80452 0.62177 0.18456 0.0
O675 O 0.83786 0.60168 0.19766 0.0
O676 O 0.99563 0.39868 0.18948 0.0
H677 H 0.87566 0.52801 0.22003 0.0
H678 H 0.91565 0.37783 0.12431 0.0
H679 H 0.87907 0.5652 0.2542 0.0
Zn680 Zn 0.51256 0.34679 0.16208 0.0
C681 C 0.66438 0.40757 0.20595 0.0
N682 N 0.61083 0.33104 0.21003 0.0
C683 C 0.57641 0.30213 0.19285 0.0
N684 N 0.58424 0.36388 0.18265 0.0
N685 N 0.63316 0.43081 0.19177 0.0
C686 C 0.62596 0.65763 0.18112 0.0
O687 O 0.57587 0.62536 0.16682 0.0
O688 O 0.43363 0.23352 0.16271 0.0
Zn689 Zn 0.57711 0.49193 0.19926 0.0
N690 N 0.56362 0.38498 0.13797 0.0
C691 C 0.63017 0.49465 0.11712 0.0
C692 C 0.60846 0.46404 0.13565 0.0
C693 C 0.541 0.33489 0.12274 0.0
N694 N 0.60563 0.44475 0.10177 0.0
C695 C 0.56201 0.36536 0.10406 0.0
O696 O 0.45885 0.44486 0.19174 0.0
C697 C 0.41152 0.40597 0.17807 0.0
O698 O 0.43259 0.37821 0.16451 0.0
H699 H 0.62348 0.5027 0.14802 0.0
H700 H 0.50173 0.27261 0.12516 0.0
C701 C 0.57361 0.54077 0.2389 0.0
C702 C 0.54845 0.52519 0.25834 0.0
C703 C 0.50126 0.39005 0.253 0.0
C704 C 0.52334 0.40534 0.23369 0.0
N705 N 0.56098 0.48037 0.22707 0.0
N706 N 0.51379 0.44996 0.26479 0.0
H707 H 0.5998 0.5993 0.23302 0.0
C708 C 0.39451 0.22175 0.17831 0.0
O709 O 0.41974 0.27659 0.19164 0.0
O710 O 0.63445 0.61399 0.1933 0.0
H711 H 0.50765 0.35723 0.22387 0.0
H712 H 0.66456 0.5575 0.11489 0.0
H713 H 0.47173 0.33065 0.25844 0.0
Zn714 Zn 0.40211 0.18887 0.99636 0.0
C715 C 0.59705 0.38161 1.01654 0.0
N716 N 0.62075 0.33635 0.02489 0.0
C717 C 0.57388 0.2636 1.01717 0.0
N718 N 0.50986 0.26082 1.00877 0.0
N719 N 0.52199 0.33224 1.01075 0.0
C720 C 0.45345 0.45063 0.021 0.0
O721 O 0.44133 0.41134 1.00482 0.0
O722 O 0.34008 0.07098 1.00512 0.0
Zn723 Zn 0.45681 0.32585 0.03234 0.0
N724 N 0.41715 0.18752 0.96839 0.0
C725 C 0.5037 0.23887 0.94128 0.0
C726 C 0.49093 0.23516 0.96113 0.0
C727 C 0.35444 0.14476 0.95636 0.0
N728 N 0.44149 0.19688 0.92933 0.0
C729 C 0.3665 0.15005 0.93615 0.0
O730 O 0.34012 0.26113 0.02979 0.0
C731 C 0.30966 0.26084 1.01387 0.0
O732 O 0.33005 0.23859 0.99871 0.0
H733 H 0.53915 0.27157 0.97063 0.0
H734 H 0.29585 0.10911 0.96248 0.0
C735 C 0.52045 0.34133 0.06955 0.0
C736 C 0.53029 0.31327 0.08709 0.0
C737 C 0.46899 0.18475 0.07369 0.0
C738 C 0.45781 0.21269 0.05642 0.0
N739 N 0.48319 0.29018 0.05483 0.0
N740 N 0.50388 0.23539 0.08868 0.0
H741 H 0.53824 0.40228 0.06784 0.0
C742 C 0.29148 0.02799 0.01842 0.0
O743 O 0.27302 0.06019 0.03247 0.0
O744 O 0.47258 0.42968 0.03617 0.0
H745 H 0.4278 0.17298 0.04449 0.0
H746 H 0.56238 0.27632 0.93538 0.0
H747 H 0.44873 0.12317 0.07533 0.0
Zn748 Zn 0.80939 0.23957 0.99714 0.0
C749 C 0.61931 0.23614 1.00788 0.0
N750 N 0.64171 0.26399 0.98988 0.0
C751 C 0.71967 0.31849 0.99202 0.0
N752 N 0.74816 0.29243 1.00606 0.0
N753 N 0.68513 0.24788 1.01706 0.0
C754 C 0.53721 0.06612 0.02336 0.0
O755 O 0.59016 0.08292 1.00978 0.0
O756 O 0.93195 0.30394 1.00131 0.0
Zn757 Zn 0.6722 0.1787 0.03791 0.0
N758 N 0.79637 0.22495 0.96915 0.0
C759 C 0.70886 0.16673 0.94256 0.0
C760 C 0.72145 0.18398 0.96222 0.0
C761 C 0.85955 0.24744 0.95718 0.0
N762 N 0.77166 0.1889 0.93065 0.0
C763 C 0.84721 0.22846 0.93732 0.0
O764 O 0.70153 0.09889 0.03369 0.0
C765 C 0.73037 0.0783 0.02026 0.0
O766 O 0.7671 0.12395 1.00611 0.0
H767 H 0.67175 0.16333 0.97196 0.0
H768 H 0.91843 0.27778 0.96317 0.0
C769 C 0.67007 0.20651 0.07776 0.0
C770 C 0.70369 0.22267 0.09622 0.0
C771 C 0.8313 0.28394 0.08185 0.0
C772 C 0.79745 0.26727 0.06356 0.0
N773 N 0.71762 0.2282 0.06196 0.0
N774 N 0.78372 0.26038 0.0977 0.0
H775 H 0.60678 0.1716 0.07586 0.0
C776 C 0.97605 0.28619 1.01065 0.0
O777 O 0.94371 0.22336 0.02156 0.0
O778 O 0.55675 0.10463 0.03918 0.0
H779 H 0.83398 0.28118 0.05077 0.0
H780 H 0.64948 0.13447 0.93686 0.0
H781 H 0.89472 0.31364 0.08346 0.0
Zn782 Zn 0.78121 0.60156 1.00245 0.0
C783 C 0.72847 0.39524 0.99317 0.0
N784 N 0.66368 0.39802 0.98813 0.0
C785 C 0.65415 0.43688 1.00291 0.0
N786 N 0.72711 0.4862 1.00999 0.0
N787 N 0.76828 0.45187 1.00699 0.0
C788 C 0.96208 0.47911 1.00817 0.0
O789 O 0.93934 0.51041 0.99512 0.0
O790 O 0.70661 0.64265 1.0073 0.0
Zn791 Zn 0.84791 0.48673 0.02685 0.0
N792 N 0.80985 0.61459 0.97479 0.0
C793 C 0.8555 0.5741 0.94778 0.0
C794 C 0.82942 0.56452 0.96679 0.0
C795 C 0.82046 0.67784 0.96458 0.0
N796 N 0.86533 0.63621 0.93764 0.0
C797 C 0.84977 0.68959 0.94543 0.0
O798 O 0.92841 0.59829 0.02313 0.0
C799 C 0.9428 0.66645 0.01962 0.0
O800 O 0.88844 0.67863 1.01478 0.0
H801 H 0.82817 0.51922 0.97519 0.0
H802 H 0.80839 0.71939 0.97146 0.0
C803 C 0.82571 0.46674 0.07013 0.0
C804 C 0.80497 0.48627 0.08815 0.0
C805 C 0.75175 0.55107 0.07133 0.0
C806 C 0.77312 0.53287 0.05381 0.0
N807 N 0.80868 0.49012 0.05326 0.0
N808 N 0.76868 0.52808 0.08798 0.0
H809 H 0.8579 0.43672 0.06954 0.0
C810 C 0.7229 0.70913 1.0142 0.0
O811 O 0.79528 0.76073 0.01964 0.0
O812 O 0.92022 0.44806 0.02329 0.0
H813 H 0.76489 0.55674 0.04079 0.0
H814 H 0.87038 0.5339 0.94131 0.0
H815 H 0.72377 0.58527 0.07175 0.0
Zn816 Zn 0.52071 0.95417 0.83148 0.0
C817 C 0.3787 0.76933 0.86644 0.0
N818 N 0.44926 0.77607 0.86984 0.0
C819 C 0.49064 0.80787 0.85342 0.0
N820 N 0.46056 0.84866 0.84505 0.0
N821 N 0.39249 0.82662 0.85395 0.0
C822 C 0.25729 0.88357 0.85491 0.0
O823 O 0.29734 0.88582 0.8395 0.0
O824 O 0.63622 1.02396 0.84123 0.0
Zn825 Zn 0.39101 0.90503 0.87029 0.0
N826 N 0.53661 0.93898 0.80425 0.0
C827 C 0.57204 0.87978 0.77933 0.0
C828 C 0.55251 0.88324 0.79861 0.0
C829 C 0.54024 0.99184 0.79134 0.0
N830 N 0.57563 0.93263 0.76644 0.0
C831 C 0.56035 0.98914 0.77187 0.0
O832 O 0.44779 1.01791 0.86283 0.0
C833 C 0.44069 0.03956 0.8463 0.0
O834 O 0.46164 1.01642 0.83147 0.0
H835 H 0.55192 0.84308 0.80905 0.0
H836 H 0.52926 0.03674 0.79638 0.0
C837 C 0.37991 0.8602 0.90961 0.0
C838 C 0.40937 0.86355 0.92813 0.0
C839 C 0.53962 0.94988 0.91654 0.0
C840 C 0.50992 0.94699 0.8982 0.0
N841 N 0.4307 0.90301 0.89523 0.0
N842 N 0.48867 0.909 0.93112 0.0
H843 H 0.31715 0.82631 0.90669 0.0
C844 C 0.68634 0.08888 0.84951 0.0
O845 O 0.66438 0.13591 0.85653 0.0
O846 O 0.28218 0.88177 0.87158 0.0
H847 H 0.54932 0.98021 0.88644 0.0
H848 H 0.58505 0.83581 0.77468 0.0
H849 H 0.60243 0.98516 0.91926 0.0
Zn850 Zn 0.14684 0.63742 0.84166 0.0
C851 C 0.32905 0.60489 0.84769 0.0
N852 N 0.34087 0.63853 0.86522 0.0
C853 C 0.31471 0.68934 0.86357 0.0
N854 N 0.26373 0.66622 0.84812 0.0
N855 N 0.27034 0.60992 0.83976 0.0
C856 C 0.22286 0.41302 0.83896 0.0
O857 O 0.20735 0.43483 0.82259 0.0
O858 O 0.10451 0.70895 0.8511 0.0
Zn859 Zn 0.19011 0.52005 0.85274 0.0
N860 N 0.14749 0.64563 0.81325 0.0
C861 C 0.22487 0.71971 0.78619 0.0
C862 C 0.21614 0.70621 0.806 0.0
C863 C 0.08619 0.59809 0.80123 0.0
N864 N 0.16434 0.67241 0.77423 0.0
C865 C 0.09462 0.61165 0.78102 0.0
O866 O 0.10043 0.46408 0.83498 0.0
C867 C 0.04331 0.45874 0.84393 0.0
O868 O 0.05157 0.52258 0.8503 0.0
H869 H 0.26396 0.74411 0.81563 0.0
H870 H 1.0319 0.55057 0.80733 0.0
C871 C 0.19044 0.5135 0.89548 0.0
C872 C 0.1845 0.5358 0.91463 0.0
C873 C 0.14029 0.61647 0.90239 0.0
C874 C 0.14874 0.59644 0.88367 0.0
N875 N 0.17156 0.54375 0.88021 0.0
N876 N 0.15852 0.58606 0.91736 0.0
H877 H 0.2117 0.4742 0.89276 0.0
C878 C 0.04446 0.68963 0.86208 0.0
O879 O 1.00904 0.62179 0.87098 0.0
O880 O 0.22262 0.44503 0.85474 0.0
H881 H 0.14028 0.62617 0.87219 0.0
H882 H 0.27945 0.7677 0.78033 0.0
H883 H 0.12174 0.65801 0.90502 0.0
Zn884 Zn 0.50527 0.55756 0.83959 0.0
C885 C 0.49294 0.74789 0.84256 0.0
N886 N 0.43019 0.70448 0.83095 0.0
C887 C 0.39997 0.62933 0.83695 0.0
N888 N 0.45789 0.62494 0.84624 0.0
N889 N 0.51069 0.69787 0.85124 0.0
C890 C 0.69071 0.84075 0.85874 0.0
O891 O 0.6671 0.78808 0.84491 0.0
O892 O 0.46747 0.45164 0.85464 0.0
Zn893 Zn 0.57501 0.71256 0.87325 0.0
N894 N 0.4796 0.52428 0.81269 0.0
C895 C 0.38235 0.46533 0.78805 0.0
C896 C 0.40381 0.49341 0.80688 0.0
C897 C 0.53515 0.528 0.80031 0.0
N898 N 0.43772 0.46925 0.77568 0.0
C899 C 0.51403 0.49983 0.78121 0.0
O900 O 0.65052 0.67425 0.87077 0.0
C901 C 0.6761 0.65785 0.85574 0.0
O902 O 0.63002 0.6216 0.84151 0.0
H903 H 0.36042 0.49021 0.81688 0.0
H904 H 0.59491 0.55229 0.8054 0.0
C905 C 0.51707 0.70412 0.91246 0.0
C906 C 0.47651 0.6617 0.92914 0.0
C907 C 0.42517 0.5427 0.91137 0.0
C908 C 0.46558 0.58479 0.895 0.0
N909 N 0.51134 0.66435 0.89591 0.0
N910 N 0.43218 0.58194 0.92806 0.0
H911 H 0.55538 0.76744 0.91278 0.0
C912 C 0.4467 0.38941 0.86456 0.0
O913 O 0.47286 0.39648 0.88226 0.0
O914 O 0.65209 0.82525 0.87452 0.0
H915 H 0.4627 0.55429 0.88177 0.0
H916 H 0.32205 0.44048 0.7833 0.0
H917 H 0.3896 0.47921 0.91092 0.0
Zn918 Zn 0.48152 0.65171 1.00681 0.0
C919 C 0.43233 0.78308 0.03363 0.0
N920 N 0.38512 0.72803 0.04668 0.0
C921 C 0.38337 0.6619 0.04063 0.0
N922 N 0.44744 0.68621 0.02868 0.0
N923 N 0.48518 0.76391 0.02783 0.0
C924 C 0.7091 0.99502 0.0203 0.0
O925 O 0.74381 0.97063 1.00841 0.0
O926 O 0.42685 0.53872 1.00603 0.0
Zn927 Zn 0.60003 0.82627 0.03701 0.0
N928 N 0.48299 0.70198 0.98248 0.0
C929 C 0.52933 0.82081 0.96499 0.0
C930 C 0.51456 0.78117 0.98239 0.0
C931 C 0.46713 0.66126 0.96555 0.0
N932 N 0.51498 0.78053 0.94817 0.0
C933 C 0.48473 0.70171 0.94784 0.0
O934 O 0.67045 0.78619 0.02615 0.0
C935 C 0.65903 0.72588 1.01669 0.0
O936 O 0.59204 0.6763 1.00983 0.0
H937 H 0.5322 0.81476 0.99558 0.0
H938 H 0.44592 0.59911 0.96595 0.0
C939 C 0.66304 0.87103 0.07723 0.0
C940 C 0.66416 0.8555 0.09721 0.0
C941 C 0.54819 0.73001 0.09262 0.0
C942 C 0.5485 0.74498 0.07303 0.0
N943 N 0.60451 0.81536 0.06557 0.0
N944 N 0.60565 0.78507 0.10414 0.0
H945 H 0.7087 0.92586 0.071 0.0
C946 C 0.44898 0.52008 0.02114 0.0
O947 O 0.4819 0.57056 0.0354 0.0
O948 O 0.65292 0.94597 0.03137 0.0
H949 H 0.50514 0.6997 0.06377 0.0
H950 H 0.55485 0.88376 0.96484 0.0
H951 H 0.50333 0.67421 0.0986 0.0
Zn952 Zn 0.18725 0.77611 0.03415 0.0
C953 C 0.3847 0.78632 0.0184 0.0
N954 N 0.34292 0.71788 1.00842 0.0
C955 C 0.26633 0.68844 1.01363 0.0
N956 N 0.26144 0.7474 0.02257 0.0
N957 N 0.33369 0.80934 0.02286 0.0
C958 C 0.45848 1.00098 0.02012 0.0
O959 O 0.40741 0.97218 0.03441 0.0
O960 O 0.07804 0.71333 0.02294 0.0
Zn961 Zn 0.33781 0.87366 1.00184 0.0
N962 N 0.1719 0.75053 0.0613 0.0
C963 C 0.13359 0.6604 0.0873 0.0
C964 C 0.15053 0.67789 0.06773 0.0
C965 C 0.17522 0.80571 0.07354 0.0
N966 N 0.13682 0.71563 0.09953 0.0
C967 C 0.15681 0.78818 0.09318 0.0
O968 O 0.26453 0.91252 1.00221 0.0
C969 C 0.25711 0.94146 1.01771 0.0
O970 O 0.23239 0.89852 0.03277 0.0
H971 H 0.14469 0.63347 0.05769 0.0
H972 H 0.19015 0.86211 0.06785 0.0
C973 C 0.37472 0.85355 0.96319 0.0
C974 C 0.35513 0.82308 0.94438 0.0
C975 C 0.22729 0.7259 0.9553 0.0
C976 C 0.24602 0.75817 0.97379 0.0
N977 N 0.31952 0.8208 0.97739 0.0
N978 N 0.28177 0.75961 0.94098 0.0
H979 H 0.43117 0.90591 0.96631 0.0
C980 C 1.02472 0.73077 0.02251 0.0
O981 O 0.04101 0.80112 0.02768 0.0
O982 O 0.44189 0.96751 1.0037 0.0
H983 H 0.20141 0.73537 0.98501 0.0
H984 H 0.11647 0.60293 0.09267 0.0
H985 H 0.16885 0.67663 0.95217 0.0
Zn986 Zn 0.16773 0.492 0.99131 0.0
C987 C 0.3048 0.5921 0.03865 0.0
N988 N 0.25089 0.61415 0.03975 0.0
C989 C 0.22965 0.61125 0.02127 0.0
N990 N 0.24178 0.55759 1.01206 0.0
N991 N 0.28301 0.53936 0.02374 0.0
C992 C 0.26469 0.3021 1.01284 0.0
O993 O 0.21606 0.2875 0.99849 0.0
O994 O 0.08068 0.51442 0.99115 0.0
Zn995 Zn 0.22331 0.42183 0.03175 0.0
N996 N 0.21496 0.50088 0.9662 0.0
C997 C 0.27632 0.45252 0.94542 0.0
C998 C 0.2581 0.46637 0.96396 0.0
C999 C 0.18992 0.52284 0.95063 0.0
N1000 N 0.25167 0.47476 0.92982 0.0
C1001 C 0.20912 0.51013 0.93183 0.0
O1002 O 0.10493 0.35457 0.02481 0.0
C1003 C 0.06356 0.33818 1.00965 0.0
O1004 O 0.09448 0.3755 0.99426 0.0
H1005 H 0.27455 0.44607 0.97647 0.0
H1006 H 0.15212 0.54622 0.95294 0.0
C1007 C 0.21663 0.37277 0.07177 0.0
C1008 C 0.18855 0.3635 0.09095 0.0
C1009 C 0.14304 0.44984 0.08455 0.0
C1010 C 0.16761 0.45593 0.06547 0.0
N1011 N 0.20627 0.4197 0.05952 0.0
N1012 N 0.15356 0.40354 0.09676 0.0
H1013 H 0.24293 0.34049 0.06638 0.0
C1014 C 0.04016 0.49004 1.00668 0.0
O1015 O 0.06876 0.47393 0.02172 0.0
O1016 O 0.27558 0.3539 0.0257 0.0
H1017 H 0.15236 0.48621 0.05525 0.0
H1018 H 0.30926 0.42361 0.94345 0.0
H1019 H 0.11266 0.47877 0.08943 0.0
Zn1020 Zn 0.36874 0.49316 0.50211 0.0
C1021 C 0.2978 0.60362 0.51743 0.0
N1022 N 0.3703 0.65149 0.5094 0.0
C1023 C 0.41774 0.62914 0.51723 0.0
N1024 N 0.36938 0.55511 0.52345 0.0
N1025 N 0.29723 0.54138 0.52568 0.0
C1026 C 0.05701 0.31705 0.52067 0.0
O1027 O 0.07644 0.27051 0.51212 0.0
O1028 O 0.47879 0.52288 0.50039 0.0
Zn1029 Zn 0.22543 0.43697 0.53823 0.0
N1030 N 0.3315 0.51342 0.47854 0.0
C1031 C 0.22172 0.49118 0.45985 0.0
C1032 C 0.25353 0.48854 0.47747 0.0
C1033 C 0.37929 0.54136 0.46275 0.0
N1034 N 0.26896 0.51744 0.44398 0.0
C1035 C 0.34722 0.54291 0.44486 0.0
O1036 O 0.27497 0.36525 0.5362 0.0
C1037 C 0.30218 0.34691 0.52159 0.0
O1038 O 0.30869 0.37853 0.50546 0.0
H1039 H 0.21599 0.46453 0.49007 0.0
H1040 H 0.44056 0.55845 0.46401 0.0
C1041 C 0.22487 0.40572 0.5785 0.0
C1042 C 0.20922 0.40843 0.5983 0.0
C1043 C 0.179 0.50622 0.59153 0.0
C1044 C 0.19366 0.50241 0.5719 0.0
N1045 N 0.2168 0.45258 0.56577 0.0
N1046 N 0.18679 0.45917 0.60424 0.0
H1047 H 0.24111 0.36507 0.57308 0.0
C1048 C 0.50349 0.51765 0.51682 0.0
O1049 O 0.45511 0.48944 0.53164 0.0
O1050 O 0.10908 0.37942 0.52944 0.0
H1051 H 0.18452 0.53719 0.56158 0.0
H1052 H 0.15963 0.47102 0.4587 0.0
H1053 H 0.16008 0.54521 0.5966 0.0
Zn1054 Zn 0.51995 0.8686 0.50298 0.0
C1055 C 0.47698 0.68674 0.5302 0.0
N1056 N 0.44152 0.6989 0.54536 0.0
C1057 C 0.43644 0.76148 0.53976 0.0
N1058 N 0.49052 0.79832 0.52509 0.0
N1059 N 0.52633 0.75832 0.52258 0.0
C1060 C 0.74996 0.76356 0.51234 0.0
O1061 O 0.76752 0.81194 0.49783 0.0
O1062 O 0.4843 0.94319 0.50516 0.0
Zn1063 Zn 0.64253 0.8171 0.53102 0.0
N1064 N 0.51275 0.81892 0.47756 0.0
C1065 C 0.55401 0.74479 0.45917 0.0
C1066 C 0.54343 0.77179 0.4768 0.0
C1067 C 0.494 0.84151 0.46087 0.0
N1068 N 0.53514 0.76697 0.44268 0.0
C1069 C 0.50513 0.81445 0.44279 0.0
O1070 O 0.71406 0.92872 0.52022 0.0
C1071 C 0.70136 0.97435 0.5103 0.0
O1072 O 0.63345 0.95218 0.504 0.0
H1073 H 0.56418 0.75832 0.48959 0.0
H1074 H 0.47483 0.88315 0.46165 0.0
C1075 C 0.69846 0.83108 0.5715 0.0
C1076 C 0.70345 0.85432 0.59113 0.0
C1077 C 0.60714 0.88794 0.58515 0.0
C1078 C 0.60395 0.86679 0.56584 0.0
N1079 N 0.64807 0.83729 0.55928 0.0
N1080 N 0.65665 0.88148 0.59725 0.0
H1081 H 0.73523 0.81004 0.56592 0.0
C1082 C 0.52585 0.98852 0.51893 0.0
O1083 O 0.5499 0.9616 0.53277 0.0
O1084 O 0.70055 0.75724 0.52537 0.0
H1085 H 0.56787 0.8759 0.55607 0.0
H1086 H 0.5792 0.70807 0.45856 0.0
H1087 H 0.57168 0.91098 0.59041 0.0
Zn1088 Zn 0.20326 0.6931 0.49838 0.0
C1089 C 0.35814 0.75006 0.54146 0.0
N1090 N 0.30516 0.67267 0.54466 0.0
C1091 C 0.27015 0.64689 0.5274 0.0
N1092 N 0.27731 0.70984 0.51815 0.0
N1093 N 0.32723 0.77498 0.52774 0.0
C1094 C 0.32602 1.00406 0.52818 0.0
O1095 O 0.25149 0.97863 0.52475 0.0
O1096 O 0.11888 0.58042 0.50018 0.0
Zn1097 Zn 0.27677 0.83627 0.537 0.0
N1098 N 0.25093 0.72984 0.47365 0.0
C1099 C 0.31913 0.84175 0.45348 0.0
C1100 C 0.29732 0.80903 0.47182 0.0
C1101 C 0.22677 0.68151 0.45802 0.0
N1102 N 0.29384 0.79378 0.43777 0.0
C1103 C 0.24864 0.71424 0.43949 0.0
O1104 O 0.16216 0.80127 0.52895 0.0
C1105 C 0.11442 0.7647 0.5152 0.0
O1106 O 0.13144 0.7322 0.50199 0.0
H1107 H 0.3138 0.84641 0.48447 0.0
H1108 H 0.1867 0.61907 0.46002 0.0
C1109 C 0.27379 0.87948 0.57632 0.0
C1110 C 0.24764 0.86368 0.59558 0.0
C1111 C 0.19591 0.72786 0.58992 0.0
C1112 C 0.21923 0.74356 0.57068 0.0
N1113 N 0.25929 0.81905 0.56436 0.0
N1114 N 0.21009 0.78799 0.60184 0.0
H1115 H 0.30198 0.93839 0.57058 0.0
C1116 C 0.08093 0.56838 0.51603 0.0
O1117 O 0.10716 0.6235 0.52932 0.0
O1118 O 0.3471 0.95543 0.53261 0.0
H1119 H 0.20252 0.69566 0.56072 0.0
H1120 H 0.3547 0.90481 0.45171 0.0
H1121 H 0.16403 0.66819 0.59518 0.0
Zn1122 Zn 0.09713 0.53182 0.33073 0.0
C1123 C 0.29097 0.72677 0.35128 0.0
N1124 N 0.31496 0.68002 0.35861 0.0
C1125 C 0.26825 0.6085 0.35018 0.0
N1126 N 0.20475 0.60714 0.34216 0.0
N1127 N 0.21725 0.6785 0.34467 0.0
C1128 C 0.18259 0.81809 0.35055 0.0
O1129 O 0.15778 0.77174 0.33536 0.0
O1130 O 0.03699 0.41682 0.34177 0.0
Zn1131 Zn 0.15657 0.68128 0.36574 0.0
N1132 N 0.10732 0.51503 0.30306 0.0
C1133 C 0.16 0.473 0.27792 0.0
C1134 C 0.15831 0.49264 0.29728 0.0
C1135 C 0.05724 0.51767 0.29015 0.0
N1136 N 0.11004 0.47566 0.26506 0.0
C1137 C 0.05807 0.49735 0.27055 0.0
O1138 O 0.04185 0.61701 0.36276 0.0
C1139 C 1.01256 0.61502 0.34656 0.0
O1140 O 1.0286 0.58581 0.33196 0.0
H1141 H 0.19608 0.48836 0.30772 0.0
H1142 H 1.01597 0.53386 0.29525 0.0
C1143 C 0.21284 0.69507 0.40441 0.0
C1144 C 0.21884 0.66448 0.42205 0.0
C1145 C 0.16195 0.53821 0.40757 0.0
C1146 C 0.15483 0.56855 0.39021 0.0
N1147 N 0.17993 0.6461 0.38904 0.0
N1148 N 0.19282 0.58657 0.4231 0.0
H1149 H 0.23058 0.75615 0.40306 0.0
C1150 C 0.99351 0.37143 0.35546 0.0
O1151 O 0.97612 0.40034 0.37046 0.0
O1152 O 0.18533 0.79156 0.36695 0.0
H1153 H 0.12786 0.53042 0.37786 0.0
H1154 H 0.20023 0.45488 0.2732 0.0
H1155 H 0.14178 0.4765 0.40881 0.0
Zn1156 Zn 0.5102 0.60298 0.33007 0.0
C1157 C 0.3139 0.58457 0.33971 0.0
N1158 N 0.33823 0.62113 0.32254 0.0
C1159 C 0.4157 0.67571 0.32563 0.0
N1160 N 0.4428 0.64595 0.33899 0.0
N1161 N 0.37881 0.59366 0.34862 0.0
C1162 C 0.23668 0.39765 0.35233 0.0
O1163 O 0.28507 0.42273 0.33749 0.0
O1164 O 0.62068 0.66127 0.34188 0.0
Zn1165 Zn 0.37055 0.52138 0.36811 0.0
N1166 N 0.53379 0.62636 0.30276 0.0
C1167 C 0.58537 0.7177 0.27682 0.0
C1168 C 0.56141 0.70015 0.29607 0.0
C1169 C 0.5299 0.56963 0.29099 0.0
N1170 N 0.5812 0.66085 0.26504 0.0
C1171 C 0.55412 0.58682 0.27157 0.0
O1172 O 0.42096 0.45872 0.36314 0.0
C1173 C 0.43152 0.43457 0.34713 0.0
O1174 O 0.45767 0.48024 0.33254 0.0
H1175 H 0.56598 0.74528 0.30565 0.0
H1176 H 0.50929 0.51202 0.29686 0.0
C1177 C 0.36176 0.54743 0.40864 0.0
C1178 C 0.39603 0.5686 0.42708 0.0
C1179 C 0.52345 0.63457 0.41253 0.0
C1180 C 0.48923 0.61354 0.39433 0.0
N1181 N 0.40936 0.56949 0.39279 0.0
N1182 N 0.4762 0.61074 0.42841 0.0
H1183 H 0.29852 0.50979 0.40689 0.0
C1184 C 0.67185 0.64096 0.34328 0.0
O1185 O 0.65261 0.56885 0.33906 0.0
O1186 O 0.25786 0.43481 0.36833 0.0
H1187 H 0.52586 0.62844 0.38153 0.0
H1188 H 0.60767 0.77624 0.27132 0.0
H1189 H 0.58701 0.66821 0.41407 0.0
Zn1190 Zn 0.47865 0.95415 0.33997 0.0
C1191 C 0.42525 0.75244 0.32806 0.0
N1192 N 0.36115 0.75645 0.32316 0.0
C1193 C 0.34845 0.78852 0.33895 0.0
N1194 N 0.42002 0.83688 0.34689 0.0
N1195 N 0.46217 0.80417 0.34309 0.0
C1196 C 0.65187 0.82847 0.35032 0.0
O1197 O 0.62584 0.84304 0.33455 0.0
O1198 O 0.41648 1.00973 0.34446 0.0
Zn1199 Zn 0.53791 0.83768 0.36393 0.0
N1200 N 0.5033 0.96177 0.31238 0.0
C1201 C 0.56766 0.9321 0.28756 0.0
C1202 C 0.54273 0.92624 0.3066 0.0
C1203 C 0.49077 1.00655 0.29983 0.0
N1204 N 0.55484 0.976 0.27507 0.0
C1205 C 0.51772 1.0144 0.28056 0.0
O1206 O 0.62574 0.94712 0.35988 0.0
C1207 C 0.64299 1.01571 0.35591 0.0
O1208 O 0.58989 0.0296 0.35103 0.0
H1209 H 0.55652 0.89518 0.31683 0.0
H1210 H 0.46179 0.03671 0.30491 0.0
C1211 C 0.50801 0.81817 0.40605 0.0
C1212 C 0.48923 0.83932 0.42403 0.0
C1213 C 0.4459 0.91317 0.40733 0.0
C1214 C 0.46579 0.89341 0.38977 0.0
N1215 N 0.49578 0.84567 0.38928 0.0
N1216 N 0.45883 0.88653 0.42397 0.0
H1217 H 0.53547 0.78357 0.40539 0.0
C1218 C 0.42828 0.06461 0.3563 0.0
O1219 O 0.48199 0.08754 0.36981 0.0
O1220 O 0.60352 0.79106 0.36396 0.0
H1221 H 0.46076 0.91948 0.37672 0.0
H1222 H 0.59856 0.90343 0.28283 0.0
H1223 H 0.42243 0.9514 0.40778 0.0
loop_
_geom_bond_atom_site_label_1
_geom_bond_atom_site_label_2
_geom_bond_distance
_geom_bond_site_symmetry_2
_ccdc_geom_bond_type
Zn0 N4 2.020 . S
Zn0 O8 2.019 . S
Zn0 N10 2.119 . S
Zn0 O18 1.975 . S
C1 N2 1.334 . S
C1 N5 1.336 . S
N2 C1 1.334 . S
N2 C3 1.334 . S
C3 N2 1.334 . S
C3 N4 1.336 . S
N4 Zn0 2.020 . S
N4 C3 1.336 . S
N4 N5 1.354 . S
N5 C1 1.336 . S
N5 N4 1.354 . S
N5 Zn9 2.020 1_455 S
C6 O7 1.244 . S
C6 O30 1.257 . S
O7 C6 1.244 . S
O8 Zn0 2.019 . S
O8 C28 1.257 . S
Zn9 N5 2.020 1_655 S
Zn9 O16 1.975 1_655 S
Zn9 N25 2.119 1_655 S
Zn9 O30 2.019 . S
N10 Zn0 2.119 . S
N10 C12 1.334 . S
N10 C13 1.328 . S
C11 C12 1.391 . S
C11 N14 1.329 . S
C11 H32 0.930 . S
C12 N10 1.334 . S
C12 C11 1.391 . S
C12 H19 0.930 . S
C13 N10 1.328 . S
C13 C15 1.392 . S
C13 H20 0.930 . S
N14 C11 1.329 . S
N14 C15 1.331 . S
C15 C13 1.392 . S
C15 N14 1.331 . S
O16 Zn9 1.975 1_455 S
O16 C17 1.252 . S
C17 O16 1.252 . S
C17 O18 1.252 . S
O18 Zn0 1.975 . S
O18 C17 1.252 . S
H19 C12 0.930 . S
H20 C13 0.930 . S
C21 C22 1.392 . S
C21 N25 1.328 1_655 S
C21 H27 0.930 . S
C22 C21 1.392 . S
C22 N26 1.331 1_655 S
C23 C24 1.391 . S
C23 N26 1.329 . S
C23 H33 0.930 . S
C24 C23 1.391 . S
C24 N25 1.334 . S
C24 H31 0.930 . S
N25 Zn9 2.119 1_455 S
N25 C21 1.328 1_455 S
N25 C24 1.334 . S
N26 C22 1.331 1_455 S
N26 C23 1.329 . S
H27 C21 0.930 . S
C28 O8 1.257 . S
C28 O29 1.244 . S
O29 C28 1.244 . S
O30 C6 1.257 . S
O30 Zn9 2.019 . S
H31 C24 0.930 . S
H32 C11 0.930 . S
H33 C23 0.930 . S
Zn34 N38 2.020 . S
Zn34 O42 2.019 . S
Zn34 N44 2.119 . S
Zn34 O52 1.975 . S
C35 N36 1.336 . S
C35 N39 1.336 . S
N36 C35 1.336 . S
N36 C37 1.333 . S
C37 N36 1.333 . S
C37 N38 1.336 . S
N38 Zn34 2.020 . S
N38 C37 1.336 . S
N38 N39 1.354 . S
N39 C35 1.336 . S
N39 N38 1.354 . S
N39 Zn43 2.020 . S
C40 O41 1.244 . S
C40 O64 1.257 . S
O41 C40 1.244 . S
O42 Zn34 2.019 . S
O42 C62 1.257 . S
Zn43 N39 2.020 . S
Zn43 O50 1.975 . S
Zn43 N59 2.119 . S
Zn43 O64 2.019 . S
N44 Zn34 2.119 . S
N44 C46 1.334 . S
N44 C47 1.328 . S
C45 C46 1.391 . S
C45 N48 1.329 . S
C45 H66 0.930 . S
C46 N44 1.334 . S
C46 C45 1.391 . S
C46 H53 0.930 . S
C47 N44 1.328 . S
C47 C49 1.392 . S
C47 H54 0.930 . S
N48 C45 1.329 . S
N48 C49 1.331 . S
C49 C47 1.392 . S
C49 N48 1.331 . S
O50 Zn43 1.975 . S
O50 C51 1.252 . S
C51 O50 1.252 . S
C51 O52 1.252 . S
O52 Zn34 1.975 . S
O52 C51 1.252 . S
H53 C46 0.930 . S
H54 C47 0.930 . S
C55 C56 1.392 . S
C55 N59 1.328 . S
C55 H61 0.930 . S
C56 C55 1.392 . S
C56 N60 1.331 . S
C57 C58 1.391 . S
C57 N60 1.329 . S
C57 H67 0.930 . S
C58 C57 1.391 . S
C58 N59 1.334 . S
C58 H65 0.930 . S
N59 Zn43 2.119 . S
N59 C55 1.328 . S
N59 C58 1.334 . S
N60 C56 1.331 . S
N60 C57 1.329 . S
H61 C55 0.930 . S
C62 O42 1.257 . S
C62 O63 1.244 . S
O63 C62 1.244 . S
O64 C40 1.257 . S
O64 Zn43 2.019 . S
H65 C58 0.930 . S
H66 C45 0.930 . S
H67 C57 0.930 . S
Zn68 N72 2.020 . S
Zn68 O76 2.019 . S
Zn68 N78 2.119 . S
Zn68 O86 1.975 . S
C69 N70 1.333 . S
C69 N73 1.336 . S
N70 C69 1.333 . S
N70 C71 1.333 . S
C71 N70 1.333 . S
C71 N72 1.336 . S
N72 Zn68 2.020 . S
N72 C71 1.336 . S
N72 N73 1.354 . S
N73 C69 1.336 . S
N73 N72 1.354 . S
N73 Zn77 2.020 1_565 S
C74 O75 1.244 . S
C74 O98 1.257 . S
O75 C74 1.244 . S
O76 Zn68 2.019 . S
O76 C96 1.257 . S
Zn77 N73 2.020 1_545 S
Zn77 O84 1.975 1_545 S
Zn77 N93 2.119 1_545 S
Zn77 O98 2.019 . S
N78 Zn68 2.119 . S
N78 C80 1.334 . S
N78 C81 1.328 . S
C79 C80 1.391 . S
C79 N82 1.329 . S
C79 H100 0.930 . S
C80 N78 1.334 . S
C80 C79 1.391 . S
C80 H87 0.930 . S
C81 N78 1.328 . S
C81 C83 1.392 . S
C81 H88 0.930 . S
N82 C79 1.329 . S
N82 C83 1.331 . S
C83 C81 1.392 . S
C83 N82 1.331 . S
O84 Zn77 1.975 1_565 S
O84 C85 1.252 . S
C85 O84 1.252 . S
C85 O86 1.252 . S
O86 Zn68 1.975 . S
O86 C85 1.252 . S
H87 C80 0.930 . S
H88 C81 0.930 . S
C89 C90 1.392 . S
C89 N93 1.328 1_545 S
C89 H95 0.930 . S
C90 C89 1.392 . S
C90 N94 1.331 1_545 S
C91 C92 1.391 . S
C91 N94 1.329 . S
C91 H101 0.930 . S
C92 C91 1.391 . S
C92 N93 1.334 . S
C92 H99 0.930 . S
N93 Zn77 2.119 1_565 S
N93 C89 1.328 1_565 S
N93 C92 1.334 . S
N94 C90 1.331 1_565 S
N94 C91 1.329 . S
H95 C89 0.930 . S
C96 O76 1.257 . S
C96 O97 1.244 . S
O97 C96 1.244 . S
O98 C74 1.257 . S
O98 Zn77 2.019 . S
H99 C92 0.930 . S
H100 C79 0.930 . S
H101 C91 0.930 . S
Zn102 N106 2.020 . S
Zn102 O110 2.019 . S
Zn102 N112 2.119 . S
Zn102 O120 1.975 . S
C103 N104 1.334 . S
C103 N107 1.336 . S
N104 C103 1.334 . S
N104 C105 1.334 . S
C105 N104 1.334 . S
C105 N106 1.336 . S
N106 Zn102 2.020 . S
N106 C105 1.336 . S
N106 N107 1.354 . S
N107 C103 1.336 . S
N107 N106 1.354 . S
N107 Zn111 2.020 1_545 S
C108 O109 1.244 . S
C108 O132 1.257 . S
O109 C108 1.244 . S
O110 Zn102 2.019 . S
O110 C130 1.257 . S
Zn111 N107 2.020 1_565 S
Zn111 O118 1.975 1_565 S
Zn111 N127 2.119 1_565 S
Zn111 O132 2.019 . S
N112 Zn102 2.119 . S
N112 C114 1.334 . S
N112 C115 1.328 . S
C113 C114 1.391 . S
C113 N116 1.329 . S
C113 H134 0.930 . S
C114 N112 1.334 . S
C114 C113 1.391 . S
C114 H121 0.930 . S
C115 N112 1.328 . S
C115 C117 1.392 . S
C115 H122 0.930 . S
N116 C113 1.329 . S
N116 C117 1.331 . S
C117 C115 1.392 . S
C117 N116 1.331 . S
O118 Zn111 1.975 1_545 S
O118 C119 1.252 . S
C119 O118 1.252 . S
C119 O120 1.252 . S
O120 Zn102 1.975 . S
O120 C119 1.252 . S
H121 C114 0.930 . S
H122 C115 0.930 . S
C123 C124 1.392 . S
C123 N127 1.328 1_565 S
C123 H129 0.930 . S
C124 C123 1.392 . S
C124 N128 1.331 1_565 S
C125 C126 1.391 . S
C125 N128 1.329 . S
C125 H135 0.930 . S
C126 C125 1.391 . S
C126 N127 1.334 . S
C126 H133 0.930 . S
N127 Zn111 2.119 1_545 S
N127 C123 1.328 1_545 S
N127 C126 1.334 . S
N128 C124 1.331 1_545 S
N128 C125 1.329 . S
H129 C123 0.930 . S
C130 O110 1.257 . S
C130 O131 1.244 . S
O131 C130 1.244 . S
O132 C108 1.257 . S
O132 Zn111 2.019 . S
H133 C126 0.930 . S
H134 C113 0.930 . S
H135 C125 0.930 . S
Zn136 N140 2.020 1_455 S
Zn136 O144 2.019 . S
Zn136 N146 2.119 1_455 S
Zn136 O154 1.975 1_455 S
C137 N138 1.334 . S
C137 N141 1.336 . S
N138 C137 1.334 . S
N138 C139 1.333 . S
C139 N138 1.333 . S
C139 N140 1.336 . S
N140 Zn136 2.020 1_655 S
N140 C139 1.336 . S
N140 N141 1.354 . S
N141 C137 1.336 . S
N141 N140 1.354 . S
N141 Zn145 2.020 . S
C142 O143 1.244 . S
C142 O166 1.257 . S
O143 C142 1.244 . S
O144 Zn136 2.019 . S
O144 C164 1.257 . S
Zn145 N141 2.020 . S
Zn145 O152 1.975 . S
Zn145 N161 2.119 . S
Zn145 O166 2.019 . S
N146 Zn136 2.119 1_655 S
N146 C148 1.334 . S
N146 C149 1.328 1_655 S
C147 C148 1.391 . S
C147 N150 1.329 . S
C147 H168 0.930 . S
C148 N146 1.334 . S
C148 C147 1.391 . S
C148 H155 0.930 . S
C149 N146 1.328 1_455 S
C149 C151 1.392 . S
C149 H156 0.930 . S
N150 C147 1.329 . S
N150 C151 1.331 1_655 S
C151 C149 1.392 . S
C151 N150 1.331 1_455 S
O152 Zn145 1.975 . S
O152 C153 1.252 . S
C153 O152 1.252 . S
C153 O154 1.252 . S
O154 Zn136 1.975 1_655 S
O154 C153 1.252 . S
H155 C148 0.930 . S
H156 C149 0.930 . S
C157 C158 1.392 . S
C157 N161 1.328 . S
C157 H163 0.930 . S
C158 C157 1.392 . S
C158 N162 1.331 . S
C159 C160 1.391 . S
C159 N162 1.329 . S
C159 H169 0.930 . S
C160 C159 1.391 . S
C160 N161 1.334 . S
C160 H167 0.930 . S
N161 Zn145 2.119 . S
N161 C157 1.328 . S
N161 C160 1.334 . S
N162 C158 1.331 . S
N162 C159 1.329 . S
H163 C157 0.930 . S
C164 O144 1.257 . S
C164 O165 1.244 . S
O165 C164 1.244 . S
O166 C142 1.257 . S
O166 Zn145 2.019 . S
H167 C160 0.930 . S
H168 C147 0.930 . S
H169 C159 0.930 . S
Zn170 N174 2.020 . S
Zn170 O178 2.019 . S
Zn170 N180 2.119 . S
Zn170 O188 1.975 . S
C171 N172 1.336 . S
C171 N175 1.336 . S
N172 C171 1.336 . S
N172 C173 1.333 . S
C173 N172 1.333 . S
C173 N174 1.336 . S
N174 Zn170 2.020 . S
N174 C173 1.336 . S
N174 N175 1.354 . S
N175 C171 1.336 . S
N175 N174 1.354 . S
N175 Zn179 2.020 . S
C176 O177 1.244 . S
C176 O200 1.257 . S
O177 C176 1.244 . S
O178 Zn170 2.019 . S
O178 C198 1.257 . S
Zn179 N175 2.020 . S
Zn179 O186 1.975 . S
Zn179 N195 2.119 . S
Zn179 O200 2.019 . S
N180 Zn170 2.119 . S
N180 C182 1.334 . S
N180 C183 1.328 . S
C181 C182 1.391 . S
C181 N184 1.329 . S
C181 H202 0.930 . S
C182 N180 1.334 . S
C182 C181 1.391 . S
C182 H189 0.930 . S
C183 N180 1.328 . S
C183 C185 1.392 . S
C183 H190 0.930 . S
N184 C181 1.329 . S
N184 C185 1.331 . S
C185 C183 1.392 . S
C185 N184 1.331 . S
O186 Zn179 1.975 . S
O186 C187 1.252 . S
C187 O186 1.252 . S
C187 O188 1.252 . S
O188 Zn170 1.975 . S
O188 C187 1.252 . S
H189 C182 0.930 . S
H190 C183 0.930 . S
C191 C192 1.392 . S
C191 N195 1.328 . S
C191 H197 0.930 . S
C192 C191 1.392 . S
C192 N196 1.331 . S
C193 C194 1.391 . S
C193 N196 1.329 . S
C193 H203 0.930 . S
C194 C193 1.391 . S
C194 N195 1.334 . S
C194 H201 0.930 . S
N195 Zn179 2.119 . S
N195 C191 1.328 . S
N195 C194 1.334 . S
N196 C192 1.331 . S
N196 C193 1.329 . S
H197 C191 0.930 . S
C198 O178 1.257 . S
C198 O199 1.244 . S
O199 C198 1.244 . S
O200 C176 1.257 . S
O200 Zn179 2.019 . S
H201 C194 0.930 . S
H202 C181 0.930 . S
H203 C193 0.930 . S
Zn204 N208 2.020 1_455 S
Zn204 O212 2.019 . S
Zn204 N214 2.119 1_455 S
Zn204 O222 1.975 1_455 S
C205 N206 1.334 . S
C205 N209 1.336 . S
N206 C205 1.334 . S
N206 C207 1.334 . S
C207 N206 1.334 . S
C207 N208 1.336 . S
N208 Zn204 2.020 1_655 S
N208 C207 1.336 . S
N208 N209 1.354 . S
N209 C205 1.336 . S
N209 N208 1.354 . S
N209 Zn213 2.020 . S
C210 O211 1.244 . S
C210 O234 1.257 . S
O211 C210 1.244 . S
O212 Zn204 2.019 . S
O212 C232 1.257 . S
Zn213 N209 2.020 . S
Zn213 O220 1.975 . S
Zn213 N229 2.119 . S
Zn213 O234 2.019 . S
N214 Zn204 2.119 1_655 S
N214 C216 1.334 . S
N214 C217 1.328 1_655 S
C215 C216 1.391 . S
C215 N218 1.329 . S
C215 H236 0.930 . S
C216 N214 1.334 . S
C216 C215 1.391 . S
C216 H223 0.930 . S
C217 N214 1.328 1_455 S
C217 C219 1.392 . S
C217 H224 0.930 . S
N218 C215 1.329 . S
N218 C219 1.331 1_655 S
C219 C217 1.392 . S
C219 N218 1.331 1_455 S
O220 Zn213 1.975 . S
O220 C221 1.252 . S
C221 O220 1.252 . S
C221 O222 1.252 . S
O222 Zn204 1.975 1_655 S
O222 C221 1.252 . S
H223 C216 0.930 . S
H224 C217 0.930 . S
C225 C226 1.392 . S
C225 N229 1.328 . S
C225 H231 0.930 . S
C226 C225 1.392 . S
C226 N230 1.331 . S
C227 C228 1.391 . S
C227 N230 1.329 . S
C227 H237 0.930 . S
C228 C227 1.391 . S
C228 N229 1.334 . S
C228 H235 0.930 . S
N229 Zn213 2.119 . S
N229 C225 1.328 . S
N229 C228 1.334 . S
N230 C226 1.331 . S
N230 C227 1.329 . S
H231 C225 0.930 . S
C232 O212 1.257 . S
C232 O233 1.244 . S
O233 C232 1.244 . S
O234 C210 1.257 . S
O234 Zn213 2.019 . S
H235 C228 0.930 . S
H236 C215 0.930 . S
H237 C227 0.930 . S
Zn238 N242 2.020 . S
Zn238 O246 2.019 . S
Zn238 N248 2.119 . S
Zn238 O256 1.975 . S
C239 N240 1.333 . S
C239 N243 1.336 . S
N240 C239 1.333 . S
N240 C241 1.336 . S
C241 N240 1.336 . S
C241 N242 1.336 . S
N242 Zn238 2.020 . S
N242 C241 1.336 . S
N242 N243 1.354 . S
N243 C239 1.336 . S
N243 N242 1.354 . S
N243 Zn247 2.020 . S
C244 O245 1.244 . S
C244 O268 1.257 . S
O245 C244 1.244 . S
O246 Zn238 2.019 . S
O246 C266 1.257 . S
Zn247 N243 2.020 . S
Zn247 O254 1.975 . S
Zn247 N263 2.119 . S
Zn247 O268 2.019 . S
N248 Zn238 2.119 . S
N248 C250 1.334 . S
N248 C251 1.328 . S
C249 C250 1.391 . S
C249 N252 1.329 . S
C249 H270 0.930 . S
C250 N248 1.334 . S
C250 C249 1.391 . S
C250 H257 0.930 . S
C251 N248 1.328 . S
C251 C253 1.392 . S
C251 H258 0.930 . S
N252 C249 1.329 . S
N252 C253 1.331 . S
C253 C251 1.392 . S
C253 N252 1.331 . S
O254 Zn247 1.975 . S
O254 C255 1.252 . S
C255 O254 1.252 . S
C255 O256 1.252 . S
O256 Zn238 1.975 . S
O256 C255 1.252 . S
H257 C250 0.930 . S
H258 C251 0.930 . S
C259 C260 1.392 . S
C259 N263 1.328 . S
C259 H265 0.930 . S
C260 C259 1.392 . S
C260 N264 1.331 . S
C261 C262 1.391 . S
C261 N264 1.329 . S
C261 H271 0.930 . S
C262 C261 1.391 . S
C262 N263 1.334 . S
C262 H269 0.930 . S
N263 Zn247 2.119 . S
N263 C259 1.328 . S
N263 C262 1.334 . S
N264 C260 1.331 . S
N264 C261 1.329 . S
H265 C259 0.930 . S
C266 O246 1.257 . S
C266 O267 1.244 . S
O267 C266 1.244 . S
O268 C244 1.257 . S
O268 Zn247 2.019 . S
H269 C262 0.930 . S
H270 C249 0.930 . S
H271 C261 0.930 . S
Zn272 N276 2.020 1_565 S
Zn272 O280 2.019 . S
Zn272 N282 2.119 1_565 S
Zn272 O290 1.975 1_565 S
C273 N274 1.333 . S
C273 N277 1.336 . S
N274 C273 1.333 . S
N274 C275 1.333 . S
C275 N274 1.333 . S
C275 N276 1.336 . S
N276 Zn272 2.020 1_545 S
N276 C275 1.336 . S
N276 N277 1.354 . S
N277 C273 1.336 . S
N277 N276 1.354 . S
N277 Zn281 2.020 . S
C278 O279 1.244 . S
C278 O302 1.257 . S
O279 C278 1.244 . S
O280 Zn272 2.019 . S
O280 C300 1.257 . S
Zn281 N277 2.020 . S
Zn281 O288 1.975 . S
Zn281 N297 2.119 . S
Zn281 O302 2.019 . S
N282 Zn272 2.119 1_545 S
N282 C284 1.334 . S
N282 C285 1.328 1_545 S
C283 C284 1.391 . S
C283 N286 1.329 . S
C283 H304 0.930 . S
C284 N282 1.334 . S
C284 C283 1.391 . S
C284 H291 0.930 . S
C285 N282 1.328 1_565 S
C285 C287 1.392 . S
C285 H292 0.930 . S
N286 C283 1.329 . S
N286 C287 1.331 1_545 S
C287 C285 1.392 . S
C287 N286 1.331 1_565 S
O288 Zn281 1.975 . S
O288 C289 1.252 . S
C289 O288 1.252 . S
C289 O290 1.252 . S
O290 Zn272 1.975 1_545 S
O290 C289 1.252 . S
H291 C284 0.930 . S
H292 C285 0.930 . S
C293 C294 1.392 . S
C293 N297 1.328 . S
C293 H299 0.930 . S
C294 C293 1.392 . S
C294 N298 1.331 . S
C295 C296 1.391 . S
C295 N298 1.329 . S
C295 H305 0.930 . S
C296 C295 1.391 . S
C296 N297 1.334 . S
C296 H303 0.930 . S
N297 Zn281 2.119 . S
N297 C293 1.328 . S
N297 C296 1.334 . S
N298 C294 1.331 . S
N298 C295 1.329 . S
H299 C293 0.930 . S
C300 O280 1.257 . S
C300 O301 1.244 . S
O301 C300 1.244 . S
O302 C278 1.257 . S
O302 Zn281 2.019 . S
H303 C296 0.930 . S
H304 C283 0.930 . S
H305 C295 0.930 . S
Zn306 N310 2.020 . S
Zn306 O314 2.019 . S
Zn306 N316 2.119 . S
Zn306 O324 1.975 . S
C307 N308 1.334 . S
C307 N311 1.336 . S
N308 C307 1.334 . S
N308 C309 1.334 . S
C309 N308 1.334 . S
C309 N310 1.336 . S
N310 Zn306 2.020 . S
N310 C309 1.336 . S
N310 N311 1.354 . S
N311 C307 1.336 . S
N311 N310 1.354 . S
N311 Zn315 2.020 1_565 S
C312 O313 1.244 . S
C312 O336 1.257 . S
O313 C312 1.244 . S
O314 Zn306 2.019 . S
O314 C334 1.257 . S
Zn315 N311 2.020 1_545 S
Zn315 O322 1.975 1_545 S
Zn315 N331 2.119 1_545 S
Zn315 O336 2.019 . S
N316 Zn306 2.119 . S
N316 C318 1.334 . S
N316 C319 1.328 . S
C317 C318 1.391 . S
C317 N320 1.329 . S
C317 H338 0.930 . S
C318 N316 1.334 . S
C318 C317 1.391 . S
C318 H325 0.930 . S
C319 N316 1.328 . S
C319 C321 1.392 . S
C319 H326 0.930 . S
N320 C317 1.329 . S
N320 C321 1.331 . S
C321 C319 1.392 . S
C321 N320 1.331 . S
O322 Zn315 1.975 1_565 S
O322 C323 1.252 . S
C323 O322 1.252 . S
C323 O324 1.252 . S
O324 Zn306 1.975 . S
O324 C323 1.252 . S
H325 C318 0.930 . S
H326 C319 0.930 . S
C327 C328 1.392 . S
C327 N331 1.328 1_545 S
C327 H333 0.930 . S
C328 C327 1.392 . S
C328 N332 1.331 1_545 S
C329 C330 1.391 . S
C329 N332 1.329 . S
C329 H339 0.930 . S
C330 C329 1.391 . S
C330 N331 1.334 . S
C330 H337 0.930 . S
N331 Zn315 2.119 1_565 S
N331 C327 1.328 1_565 S
N331 C330 1.334 . S
N332 C328 1.331 1_565 S
N332 C329 1.329 . S
H333 C327 0.930 . S
C334 O314 1.257 . S
C334 O335 1.244 . S
O335 C334 1.244 . S
O336 C312 1.257 . S
O336 Zn315 2.019 . S
H337 C330 0.930 . S
H338 C317 0.930 . S
H339 C329 0.930 . S
Zn340 N344 2.020 . S
Zn340 O348 2.019 . S
Zn340 N350 2.119 . S
Zn340 O358 1.975 . S
C341 N342 1.333 . S
C341 N345 1.336 . S
N342 C341 1.333 . S
N342 C343 1.334 . S
C343 N342 1.334 . S
C343 N344 1.336 . S
N344 Zn340 2.020 . S
N344 C343 1.336 . S
N344 N345 1.354 . S
N345 C341 1.336 . S
N345 N344 1.354 . S
N345 Zn349 2.020 1_455 S
C346 O347 1.244 . S
C346 O370 1.257 . S
O347 C346 1.244 . S
O348 Zn340 2.019 . S
O348 C368 1.257 . S
Zn349 N345 2.020 1_655 S
Zn349 O356 1.975 1_655 S
Zn349 N365 2.119 1_655 S
Zn349 O370 2.019 . S
N350 Zn340 2.119 . S
N350 C352 1.334 . S
N350 C353 1.328 . S
C351 C352 1.391 . S
C351 N354 1.329 . S
C351 H372 0.930 . S
C352 N350 1.334 . S
C352 C351 1.391 . S
C352 H359 0.930 . S
C353 N350 1.328 . S
C353 C355 1.392 . S
C353 H360 0.930 . S
N354 C351 1.329 . S
N354 C355 1.331 . S
C355 C353 1.392 . S
C355 N354 1.331 . S
O356 Zn349 1.975 1_455 S
O356 C357 1.252 . S
C357 O356 1.252 . S
C357 O358 1.252 . S
O358 Zn340 1.975 . S
O358 C357 1.252 . S
H359 C352 0.930 . S
H360 C353 0.930 . S
C361 C362 1.392 . S
C361 N365 1.328 1_655 S
C361 H367 0.930 . S
C362 C361 1.392 . S
C362 N366 1.331 1_655 S
C363 C364 1.391 . S
C363 N366 1.329 . S
C363 H373 0.930 . S
C364 C363 1.391 . S
C364 N365 1.334 . S
C364 H371 0.930 . S
N365 Zn349 2.119 1_455 S
N365 C361 1.328 1_455 S
N365 C364 1.334 . S
N366 C362 1.331 1_455 S
N366 C363 1.329 . S
H367 C361 0.930 . S
C368 O348 1.257 . S
C368 O369 1.244 . S
O369 C368 1.244 . S
O370 C346 1.257 . S
O370 Zn349 2.019 . S
H371 C364 0.930 . S
H372 C351 0.930 . S
H373 C363 0.930 . S
Zn374 N378 2.020 . S
Zn374 O382 2.019 . S
Zn374 N384 2.119 . S
Zn374 O392 1.975 . S
C375 N376 1.336 . S
C375 N379 1.336 . S
N376 C375 1.336 . S
N376 C377 1.333 . S
C377 N376 1.333 . S
C377 N378 1.336 . S
N378 Zn374 2.020 . S
N378 C377 1.336 . S
N378 N379 1.354 . S
N379 C375 1.336 . S
N379 N378 1.354 . S
N379 Zn383 2.020 . S
C380 O381 1.244 . S
C380 O404 1.257 . S
O381 C380 1.244 . S
O382 Zn374 2.019 . S
O382 C402 1.257 . S
Zn383 N379 2.020 . S
Zn383 O390 1.975 . S
Zn383 N399 2.119 . S
Zn383 O404 2.019 . S
N384 Zn374 2.119 . S
N384 C386 1.334 . S
N384 C387 1.328 . S
C385 C386 1.391 . S
C385 N388 1.329 . S
C385 H406 0.930 . S
C386 N384 1.334 . S
C386 C385 1.391 . S
C386 H393 0.930 . S
C387 N384 1.328 . S
C387 C389 1.392 . S
C387 H394 0.930 . S
N388 C385 1.329 . S
N388 C389 1.331 . S
C389 C387 1.392 . S
C389 N388 1.331 . S
O390 Zn383 1.975 . S
O390 C391 1.252 . S
C391 O390 1.252 . S
C391 O392 1.252 . S
O392 Zn374 1.975 . S
O392 C391 1.252 . S
H393 C386 0.930 . S
H394 C387 0.930 . S
C395 C396 1.392 . S
C395 N399 1.328 . S
C395 H401 0.930 . S
C396 C395 1.392 . S
C396 N400 1.331 . S
C397 C398 1.391 . S
C397 N400 1.329 . S
C397 H407 0.930 . S
C398 C397 1.391 . S
C398 N399 1.334 . S
C398 H405 0.930 . S
N399 Zn383 2.119 . S
N399 C395 1.328 . S
N399 C398 1.334 . S
N400 C396 1.331 . S
N400 C397 1.329 . S
H401 C395 0.930 . S
C402 O382 1.257 . S
C402 O403 1.244 . S
O403 C402 1.244 . S
O404 C380 1.257 . S
O404 Zn383 2.019 . S
H405 C398 0.930 . S
H406 C385 0.930 . S
H407 C397 0.930 . S
Zn408 N412 2.020 . S
Zn408 O416 2.019 . S
Zn408 N418 2.119 . S
Zn408 O426 1.975 . S
C409 N410 1.334 . S
C409 N413 1.336 . S
N410 C409 1.334 . S
N410 C411 1.334 . S
C411 N410 1.334 . S
C411 N412 1.336 . S
N412 Zn408 2.020 . S
N412 C411 1.336 . S
N412 N413 1.354 . S
N413 C409 1.336 . S
N413 N412 1.354 . S
N413 Zn417 2.020 . S
C414 O415 1.244 . S
C414 O438 1.257 . S
O415 C414 1.244 . S
O416 Zn408 2.019 . S
O416 C436 1.257 . S
Zn417 N413 2.020 . S
Zn417 O424 1.975 . S
Zn417 N433 2.119 . S
Zn417 O438 2.019 . S
N418 Zn408 2.119 . S
N418 C420 1.334 . S
N418 C421 1.328 . S
C419 C420 1.391 . S
C419 N422 1.329 . S
C419 H440 0.930 . S
C420 N418 1.334 . S
C420 C419 1.391 . S
C420 H427 0.930 . S
C421 N418 1.328 . S
C421 C423 1.392 . S
C421 H428 0.930 . S
N422 C419 1.329 . S
N422 C423 1.331 . S
C423 C421 1.392 . S
C423 N422 1.331 . S
O424 Zn417 1.975 . S
O424 C425 1.252 . S
C425 O424 1.252 . S
C425 O426 1.252 . S
O426 Zn408 1.975 . S
O426 C425 1.252 . S
H427 C420 0.930 . S
H428 C421 0.930 . S
C429 C430 1.392 . S
C429 N433 1.328 . S
C429 H435 0.930 . S
C430 C429 1.392 . S
C430 N434 1.331 . S
C431 C432 1.391 . S
C431 N434 1.329 . S
C431 H441 0.930 . S
C432 C431 1.391 . S
C432 N433 1.334 . S
C432 H439 0.930 . S
N433 Zn417 2.119 . S
N433 C429 1.328 . S
N433 C432 1.334 . S
N434 C430 1.331 . S
N434 C431 1.329 . S
H435 C429 0.930 . S
C436 O416 1.257 . S
C436 O437 1.244 . S
O437 C436 1.244 . S
O438 C414 1.257 . S
O438 Zn417 2.019 . S
H439 C432 0.930 . S
H440 C419 0.930 . S
H441 C431 0.930 . S
Zn442 N446 2.020 . S
Zn442 O450 2.019 . S
Zn442 N452 2.119 . S
Zn442 O460 1.975 . S
C443 N444 1.334 . S
C443 N447 1.336 . S
N444 C443 1.334 . S
N444 C445 1.334 . S
C445 N444 1.334 . S
C445 N446 1.336 . S
N446 Zn442 2.020 . S
N446 C445 1.336 . S
N446 N447 1.354 . S
N447 C443 1.336 . S
N447 N446 1.354 . S
N447 Zn451 2.020 . S
C448 O449 1.244 . S
C448 O472 1.257 . S
O449 C448 1.244 . S
O450 Zn442 2.019 . S
O450 C470 1.257 . S
Zn451 N447 2.020 . S
Zn451 O458 1.975 . S
Zn451 N467 2.119 . S
Zn451 O472 2.019 . S
N452 Zn442 2.119 . S
N452 C454 1.334 . S
N452 C455 1.328 . S
C453 C454 1.391 . S
C453 N456 1.329 . S
C453 H474 0.930 . S
C454 N452 1.334 . S
C454 C453 1.391 . S
C454 H461 0.930 . S
C455 N452 1.328 . S
C455 C457 1.392 . S
C455 H462 0.930 . S
N456 C453 1.329 . S
N456 C457 1.331 . S
C457 C455 1.392 . S
C457 N456 1.331 . S
O458 Zn451 1.975 . S
O458 C459 1.252 . S
C459 O458 1.252 . S
C459 O460 1.252 . S
O460 Zn442 1.975 . S
O460 C459 1.252 . S
H461 C454 0.930 . S
H462 C455 0.930 . S
C463 C464 1.392 . S
C463 N467 1.328 . S
C463 H469 0.930 . S
C464 C463 1.392 . S
C464 N468 1.331 . S
C465 C466 1.391 . S
C465 N468 1.329 . S
C465 H475 0.930 . S
C466 C465 1.391 . S
C466 N467 1.334 . S
C466 H473 0.930 . S
N467 Zn451 2.119 . S
N467 C463 1.328 . S
N467 C466 1.334 . S
N468 C464 1.331 . S
N468 C465 1.329 . S
H469 C463 0.930 . S
C470 O450 1.257 . S
C470 O471 1.244 . S
O471 C470 1.244 . S
O472 C448 1.257 . S
O472 Zn451 2.019 . S
H473 C466 0.930 . S
H474 C453 0.930 . S
H475 C465 0.930 . S
Zn476 N480 2.020 . S
Zn476 O484 2.019 . S
Zn476 N486 2.119 . S
Zn476 O494 1.975 . S
C477 N478 1.334 . S
C477 N481 1.336 . S
N478 C477 1.334 . S
N478 C479 1.334 . S
C479 N478 1.334 . S
C479 N480 1.336 . S
N480 Zn476 2.020 . S
N480 C479 1.336 . S
N480 N481 1.354 . S
N481 C477 1.336 . S
N481 N480 1.354 . S
N481 Zn485 2.020 . S
C482 O483 1.244 . S
C482 O506 1.257 . S
O483 C482 1.244 . S
O484 Zn476 2.019 . S
O484 C504 1.257 . S
Zn485 N481 2.020 . S
Zn485 O492 1.975 . S
Zn485 N501 2.119 . S
Zn485 O506 2.019 . S
N486 Zn476 2.119 . S
N486 C488 1.334 . S
N486 C489 1.328 . S
C487 C488 1.391 . S
C487 N490 1.329 . S
C487 H508 0.930 . S
C488 N486 1.334 . S
C488 C487 1.391 . S
C488 H495 0.930 . S
C489 N486 1.328 . S
C489 C491 1.392 . S
C489 H496 0.930 . S
N490 C487 1.329 . S
N490 C491 1.331 . S
C491 C489 1.392 . S
C491 N490 1.331 . S
O492 Zn485 1.975 . S
O492 C493 1.252 . S
C493 O492 1.252 . S
C493 O494 1.252 . S
O494 Zn476 1.975 . S
O494 C493 1.252 . S
H495 C488 0.930 . S
H496 C489 0.930 . S
C497 C498 1.392 . S
C497 N501 1.328 . S
C497 H503 0.930 . S
C498 C497 1.392 . S
C498 N502 1.331 . S
C499 C500 1.391 . S
C499 N502 1.329 . S
C499 H509 0.930 . S
C500 C499 1.391 . S
C500 N501 1.334 . S
C500 H507 0.930 . S
N501 Zn485 2.119 . S
N501 C497 1.328 . S
N501 C500 1.334 . S
N502 C498 1.331 . S
N502 C499 1.329 . S
H503 C497 0.930 . S
C504 O484 1.257 . S
C504 O505 1.244 . S
O505 C504 1.244 . S
O506 C482 1.257 . S
O506 Zn485 2.019 . S
H507 C500 0.930 . S
H508 C487 0.930 . S
H509 C499 0.930 . S
Zn510 N514 2.020 . S
Zn510 O518 2.019 . S
Zn510 N520 2.119 . S
Zn510 O528 1.975 . S
C511 N512 1.334 . S
C511 N515 1.336 . S
N512 C511 1.334 . S
N512 C513 1.334 . S
C513 N512 1.334 . S
C513 N514 1.336 . S
N514 Zn510 2.020 . S
N514 C513 1.336 . S
N514 N515 1.354 . S
N515 C511 1.336 . S
N515 N514 1.354 . S
N515 Zn519 2.020 . S
C516 O517 1.244 1_455 S
C516 O540 1.257 . S
O517 C516 1.244 1_655 S
O518 Zn510 2.019 . S
O518 C538 1.257 . S
Zn519 N515 2.020 . S
Zn519 O526 1.975 1_655 S
Zn519 N535 2.119 . S
Zn519 O540 2.019 1_655 S
N520 Zn510 2.119 . S
N520 C522 1.334 . S
N520 C523 1.328 . S
C521 C522 1.391 . S
C521 N524 1.329 . S
C521 H542 0.930 . S
C522 N520 1.334 . S
C522 C521 1.391 . S
C522 H529 0.930 . S
C523 N520 1.328 . S
C523 C525 1.392 . S
C523 H530 0.930 . S
N524 C521 1.329 . S
N524 C525 1.331 . S
C525 C523 1.392 . S
C525 N524 1.331 . S
O526 Zn519 1.975 1_455 S
O526 C527 1.252 . S
C527 O526 1.252 . S
C527 O528 1.252 1_455 S
O528 Zn510 1.975 . S
O528 C527 1.252 1_655 S
H529 C522 0.930 . S
H530 C523 0.930 . S
C531 C532 1.392 . S
C531 N535 1.328 . S
C531 H537 0.930 1_655 S
C532 C531 1.392 . S
C532 N536 1.331 . S
C533 C534 1.391 . S
C533 N536 1.329 . S
C533 H543 0.930 . S
C534 C533 1.391 . S
C534 N535 1.334 . S
C534 H541 0.930 . S
N535 Zn519 2.119 . S
N535 C531 1.328 . S
N535 C534 1.334 . S
N536 C532 1.331 . S
N536 C533 1.329 . S
H537 C531 0.930 1_455 S
C538 O518 1.257 . S
C538 O539 1.244 . S
O539 C538 1.244 . S
O540 C516 1.257 . S
O540 Zn519 2.019 1_455 S
H541 C534 0.930 . S
H542 C521 0.930 . S
H543 C533 0.930 . S
Zn544 N548 2.020 . S
Zn544 O552 2.019 . S
Zn544 N554 2.119 . S
Zn544 O562 1.975 . S
C545 N546 1.334 . S
C545 N549 1.336 . S
N546 C545 1.334 . S
N546 C547 1.334 . S
C547 N546 1.334 . S
C547 N548 1.336 . S
N548 Zn544 2.020 . S
N548 C547 1.336 . S
N548 N549 1.354 . S
N549 C545 1.336 . S
N549 N548 1.354 . S
N549 Zn553 2.020 . S
C550 O551 1.244 . S
C550 O574 1.257 . S
O551 C550 1.244 . S
O552 Zn544 2.019 . S
O552 C572 1.257 . S
Zn553 N549 2.020 . S
Zn553 O560 1.975 . S
Zn553 N569 2.119 . S
Zn553 O574 2.019 . S
N554 Zn544 2.119 . S
N554 C556 1.334 . S
N554 C557 1.328 . S
C555 C556 1.391 . S
C555 N558 1.329 . S
C555 H576 0.930 . S
C556 N554 1.334 . S
C556 C555 1.391 . S
C556 H563 0.930 . S
C557 N554 1.328 . S
C557 C559 1.392 . S
C557 H564 0.930 . S
N558 C555 1.329 . S
N558 C559 1.331 . S
C559 C557 1.392 . S
C559 N558 1.331 . S
O560 Zn553 1.975 . S
O560 C561 1.252 . S
C561 O560 1.252 . S
C561 O562 1.252 . S
O562 Zn544 1.975 . S
O562 C561 1.252 . S
H563 C556 0.930 . S
H564 C557 0.930 . S
C565 C566 1.392 . S
C565 N569 1.328 . S
C565 H571 0.930 . S
C566 C565 1.392 . S
C566 N570 1.331 . S
C567 C568 1.391 . S
C567 N570 1.329 . S
C567 H577 0.930 . S
C568 C567 1.391 . S
C568 N569 1.334 . S
C568 H575 0.930 . S
N569 Zn553 2.119 . S
N569 C565 1.328 . S
N569 C568 1.334 . S
N570 C566 1.331 . S
N570 C567 1.329 . S
H571 C565 0.930 . S
C572 O552 1.257 . S
C572 O573 1.244 . S
O573 C572 1.244 . S
O574 C550 1.257 . S
O574 Zn553 2.019 . S
H575 C568 0.930 . S
H576 C555 0.930 . S
H577 C567 0.930 . S
Zn578 N582 2.020 . S
Zn578 O586 2.019 . S
Zn578 N588 2.119 . S
Zn578 O596 1.975 . S
C579 N580 1.334 . S
C579 N583 1.336 . S
N580 C579 1.334 . S
N580 C581 1.334 . S
C581 N580 1.334 . S
C581 N582 1.336 . S
N582 Zn578 2.020 . S
N582 C581 1.336 . S
N582 N583 1.354 . S
N583 C579 1.336 . S
N583 N582 1.354 . S
N583 Zn587 2.020 . S
C584 O585 1.244 1_565 S
C584 O608 1.257 . S
O585 C584 1.244 1_545 S
O586 Zn578 2.019 . S
O586 C606 1.257 . S
Zn587 N583 2.020 . S
Zn587 O594 1.975 1_545 S
Zn587 N603 2.119 . S
Zn587 O608 2.019 1_545 S
N588 Zn578 2.119 . S
N588 C590 1.334 . S
N588 C591 1.328 . S
C589 C590 1.391 . S
C589 N592 1.329 . S
C589 H610 0.930 . S
C590 N588 1.334 . S
C590 C589 1.391 . S
C590 H597 0.930 . S
C591 N588 1.328 . S
C591 C593 1.392 . S
C591 H598 0.930 . S
N592 C589 1.329 . S
N592 C593 1.331 . S
C593 C591 1.392 . S
C593 N592 1.331 . S
O594 Zn587 1.975 1_565 S
O594 C595 1.252 . S
C595 O594 1.252 . S
C595 O596 1.252 1_565 S
O596 Zn578 1.975 . S
O596 C595 1.252 1_545 S
H597 C590 0.930 . S
H598 C591 0.930 . S
C599 C600 1.392 . S
C599 N603 1.328 . S
C599 H605 0.930 1_545 S
C600 C599 1.392 . S
C600 N604 1.331 . S
C601 C602 1.391 . S
C601 N604 1.329 . S
C601 H611 0.930 . S
C602 C601 1.391 . S
C602 N603 1.334 . S
C602 H609 0.930 . S
N603 Zn587 2.119 . S
N603 C599 1.328 . S
N603 C602 1.334 . S
N604 C600 1.331 . S
N604 C601 1.329 . S
H605 C599 0.930 1_565 S
C606 O586 1.257 . S
C606 O607 1.244 . S
O607 C606 1.244 . S
O608 C584 1.257 . S
O608 Zn587 2.019 1_565 S
H609 C602 0.930 . S
H610 C589 0.930 . S
H611 C601 0.930 . S
Zn612 N616 2.020 . S
Zn612 O620 2.019 . S
Zn612 N622 2.119 . S
Zn612 O630 1.975 . S
C613 N614 1.334 . S
C613 N617 1.336 . S
N614 C613 1.334 . S
N614 C615 1.334 . S
C615 N614 1.334 . S
C615 N616 1.336 . S
N616 Zn612 2.020 . S
N616 C615 1.336 . S
N616 N617 1.354 . S
N617 C613 1.336 . S
N617 N616 1.354 . S
N617 Zn621 2.020 . S
C618 O619 1.244 1_565 S
C618 O642 1.257 . S
O619 C618 1.244 1_545 S
O620 Zn612 2.019 . S
O620 C640 1.257 . S
Zn621 N617 2.020 . S
Zn621 O628 1.975 1_545 S
Zn621 N637 2.119 . S
Zn621 O642 2.019 1_545 S
N622 Zn612 2.119 . S
N622 C624 1.334 . S
N622 C625 1.328 . S
C623 C624 1.391 . S
C623 N626 1.329 . S
C623 H644 0.930 . S
C624 N622 1.334 . S
C624 C623 1.391 . S
C624 H631 0.930 . S
C625 N622 1.328 . S
C625 C627 1.392 . S
C625 H632 0.930 . S
N626 C623 1.329 . S
N626 C627 1.331 . S
C627 C625 1.392 . S
C627 N626 1.331 . S
O628 Zn621 1.975 1_565 S
O628 C629 1.252 . S
C629 O628 1.252 . S
C629 O630 1.252 1_565 S
O630 Zn612 1.975 . S
O630 C629 1.252 1_545 S
H631 C624 0.930 . S
H632 C625 0.930 . S
C633 C634 1.392 . S
C633 N637 1.328 . S
C633 H639 0.930 1_545 S
C634 C633 1.392 . S
C634 N638 1.331 . S
C635 C636 1.391 . S
C635 N638 1.329 . S
C635 H645 0.930 . S
C636 C635 1.391 . S
C636 N637 1.334 . S
C636 H643 0.930 . S
N637 Zn621 2.119 . S
N637 C633 1.328 . S
N637 C636 1.334 . S
N638 C634 1.331 . S
N638 C635 1.329 . S
H639 C633 0.930 1_565 S
C640 O620 1.257 . S
C640 O641 1.244 . S
O641 C640 1.244 . S
O642 C618 1.257 . S
O642 Zn621 2.019 1_565 S
H643 C636 0.930 . S
H644 C623 0.930 . S
H645 C635 0.930 . S
Zn646 N650 2.020 . S
Zn646 O654 2.019 . S
Zn646 N656 2.119 . S
Zn646 O664 1.975 . S
C647 N648 1.334 . S
C647 N651 1.336 . S
N648 C647 1.334 . S
N648 C649 1.334 . S
C649 N648 1.334 . S
C649 N650 1.336 . S
N650 Zn646 2.020 . S
N650 C649 1.336 . S
N650 N651 1.354 . S
N651 C647 1.336 . S
N651 N650 1.354 . S
N651 Zn655 2.020 . S
C652 O653 1.244 1_455 S
C652 O676 1.257 . S
O653 C652 1.244 1_655 S
O654 Zn646 2.019 . S
O654 C674 1.257 . S
Zn655 N651 2.020 . S
Zn655 O662 1.975 1_655 S
Zn655 N671 2.119 . S
Zn655 O676 2.019 1_655 S
N656 Zn646 2.119 . S
N656 C658 1.334 . S
N656 C659 1.328 . S
C657 C658 1.391 . S
C657 N660 1.329 . S
C657 H678 0.930 . S
C658 N656 1.334 . S
C658 C657 1.391 . S
C658 H665 0.930 . S
C659 N656 1.328 . S
C659 C661 1.392 . S
C659 H666 0.930 . S
N660 C657 1.329 . S
N660 C661 1.331 . S
C661 C659 1.392 . S
C661 N660 1.331 . S
O662 Zn655 1.975 1_455 S
O662 C663 1.252 . S
C663 O662 1.252 . S
C663 O664 1.252 1_455 S
O664 Zn646 1.975 . S
O664 C663 1.252 1_655 S
H665 C658 0.930 . S
H666 C659 0.930 . S
C667 C668 1.392 . S
C667 N671 1.328 . S
C667 H673 0.930 1_655 S
C668 C667 1.392 . S
C668 N672 1.331 . S
C669 C670 1.391 . S
C669 N672 1.329 . S
C669 H679 0.930 . S
C670 C669 1.391 . S
C670 N671 1.334 . S
C670 H677 0.930 . S
N671 Zn655 2.119 . S
N671 C667 1.328 . S
N671 C670 1.334 . S
N672 C668 1.331 . S
N672 C669 1.329 . S
H673 C667 0.930 1_455 S
C674 O654 1.257 . S
C674 O675 1.244 . S
O675 C674 1.244 . S
O676 C652 1.257 . S
O676 Zn655 2.019 1_455 S
H677 C670 0.930 . S
H678 C657 0.930 . S
H679 C669 0.930 . S
Zn680 N684 2.020 . S
Zn680 O688 2.019 . S
Zn680 N690 2.119 . S
Zn680 O698 1.975 . S
C681 N682 1.334 . S
C681 N685 1.336 . S
N682 C681 1.334 . S
N682 C683 1.334 . S
C683 N682 1.334 . S
C683 N684 1.336 . S
N684 Zn680 2.020 . S
N684 C683 1.336 . S
N684 N685 1.354 . S
N685 C681 1.336 . S
N685 N684 1.354 . S
N685 Zn689 2.020 . S
C686 O687 1.244 . S
C686 O710 1.257 . S
O687 C686 1.244 . S
O688 Zn680 2.019 . S
O688 C708 1.257 . S
Zn689 N685 2.020 . S
Zn689 O696 1.975 . S
Zn689 N705 2.119 . S
Zn689 O710 2.019 . S
N690 Zn680 2.119 . S
N690 C692 1.334 . S
N690 C693 1.328 . S
C691 C692 1.391 . S
C691 N694 1.329 . S
C691 H712 0.930 . S
C692 N690 1.334 . S
C692 C691 1.391 . S
C692 H699 0.930 . S
C693 N690 1.328 . S
C693 C695 1.392 . S
C693 H700 0.930 . S
N694 C691 1.329 . S
N694 C695 1.331 . S
C695 C693 1.392 . S
C695 N694 1.331 . S
O696 Zn689 1.975 . S
O696 C697 1.252 . S
C697 O696 1.252 . S
C697 O698 1.252 . S
O698 Zn680 1.975 . S
O698 C697 1.252 . S
H699 C692 0.930 . S
H700 C693 0.930 . S
C701 C702 1.392 . S
C701 N705 1.328 . S
C701 H707 0.930 . S
C702 C701 1.392 . S
C702 N706 1.331 . S
C703 C704 1.391 . S
C703 N706 1.329 . S
C703 H713 0.930 . S
C704 C703 1.391 . S
C704 N705 1.334 . S
C704 H711 0.930 . S
N705 Zn689 2.119 . S
N705 C701 1.328 . S
N705 C704 1.334 . S
N706 C702 1.331 . S
N706 C703 1.329 . S
H707 C701 0.930 . S
C708 O688 1.257 . S
C708 O709 1.244 . S
O709 C708 1.244 . S
O710 C686 1.257 . S
O710 Zn689 2.019 . S
H711 C704 0.930 . S
H712 C691 0.930 . S
H713 C703 0.930 . S
Zn714 N718 2.020 . S
Zn714 O722 2.019 . S
Zn714 N724 2.119 . S
Zn714 O732 1.975 . S
C715 N716 1.334 1_554 S
C715 N719 1.336 . S
N716 C715 1.334 1_556 S
N716 C717 1.334 . S
C717 N716 1.334 . S
C717 N718 1.336 . S
N718 Zn714 2.020 . S
N718 C717 1.336 . S
N718 N719 1.354 1_556 S
N719 C715 1.336 . S
N719 N718 1.354 1_554 S
N719 Zn723 2.020 . S
C720 O721 1.244 1_554 S
C720 O744 1.257 . S
O721 C720 1.244 1_556 S
O722 Zn714 2.019 . S
O722 C742 1.257 . S
Zn723 N719 2.020 . S
Zn723 O730 1.975 . S
Zn723 N739 2.119 . S
Zn723 O744 2.019 . S
N724 Zn714 2.119 . S
N724 C726 1.334 . S
N724 C727 1.328 . S
C725 C726 1.391 . S
C725 N728 1.329 . S
C725 H746 0.930 . S
C726 N724 1.334 . S
C726 C725 1.391 . S
C726 H733 0.930 . S
C727 N724 1.328 . S
C727 C729 1.392 . S
C727 H734 0.930 . S
N728 C725 1.329 . S
N728 C729 1.331 . S
C729 C727 1.392 . S
C729 N728 1.331 . S
O730 Zn723 1.975 . S
O730 C731 1.255 . S
C731 O730 1.255 . S
C731 O732 1.248 1_554 S
O732 Zn714 1.975 . S
O732 C731 1.248 1_556 S
H733 C726 0.930 . S
H734 C727 0.930 . S
C735 C736 1.392 . S
C735 N739 1.328 . S
C735 H741 0.930 . S
C736 C735 1.392 . S
C736 N740 1.331 . S
C737 C738 1.391 . S
C737 N740 1.329 . S
C737 H747 0.930 . S
C738 C737 1.391 . S
C738 N739 1.334 . S
C738 H745 0.930 . S
N739 Zn723 2.119 . S
N739 C735 1.328 . S
N739 C738 1.334 . S
N740 C736 1.331 . S
N740 C737 1.329 . S
H741 C735 0.930 . S
C742 O722 1.257 . S
C742 O743 1.244 1_556 S
O743 C742 1.244 1_554 S
O744 C720 1.257 . S
O744 Zn723 2.019 . S
H745 C738 0.930 . S
H746 C725 0.930 . S
H747 C737 0.930 . S
Zn748 N752 2.020 . S
Zn748 O756 2.019 . S
Zn748 N758 2.119 . S
Zn748 O766 1.975 . S
C749 N750 1.334 1_554 S
C749 N753 1.336 . S
N750 C749 1.334 1_556 S
N750 C751 1.334 . S
C751 N750 1.334 . S
C751 N752 1.336 . S
N752 Zn748 2.020 . S
N752 C751 1.336 . S
N752 N753 1.354 1_556 S
N753 C749 1.336 . S
N753 N752 1.354 1_554 S
N753 Zn757 2.020 . S
C754 O755 1.244 1_554 S
C754 O778 1.257 . S
O755 C754 1.244 1_556 S
O756 Zn748 2.019 . S
O756 C776 1.257 . S
Zn757 N753 2.020 . S
Zn757 O764 1.975 . S
Zn757 N773 2.119 . S
Zn757 O778 2.019 . S
N758 Zn748 2.119 . S
N758 C760 1.334 . S
N758 C761 1.328 . S
C759 C760 1.391 . S
C759 N762 1.329 . S
C759 H780 0.930 . S
C760 N758 1.334 . S
C760 C759 1.391 . S
C760 H767 0.930 . S
C761 N758 1.328 . S
C761 C763 1.392 . S
C761 H768 0.930 . S
N762 C759 1.329 . S
N762 C763 1.331 . S
C763 C761 1.392 . S
C763 N762 1.331 . S
O764 Zn757 1.975 . S
O764 C765 1.255 . S
C765 O764 1.255 . S
C765 O766 1.248 1_554 S
O766 Zn748 1.975 . S
O766 C765 1.248 1_556 S
H767 C760 0.930 . S
H768 C761 0.930 . S
C769 C770 1.392 . S
C769 N773 1.328 . S
C769 H775 0.930 . S
C770 C769 1.392 . S
C770 N774 1.331 . S
C771 C772 1.391 . S
C771 N774 1.329 . S
C771 H781 0.930 . S
C772 C771 1.391 . S
C772 N773 1.334 . S
C772 H779 0.930 . S
N773 Zn757 2.119 . S
N773 C769 1.328 . S
N773 C772 1.334 . S
N774 C770 1.331 . S
N774 C771 1.329 . S
H775 C769 0.930 . S
C776 O756 1.257 . S
C776 O777 1.244 1_556 S
O777 C776 1.244 1_554 S
O778 C754 1.257 . S
O778 Zn757 2.019 . S
H779 C772 0.930 . S
H780 C759 0.930 . S
H781 C771 0.930 . S
Zn782 N786 2.020 . S
Zn782 O790 2.019 . S
Zn782 N792 2.119 . S
Zn782 O800 1.975 . S
C783 N784 1.334 1_554 S
C783 N787 1.336 . S
N784 C783 1.334 1_556 S
N784 C785 1.334 . S
C785 N784 1.334 . S
C785 N786 1.336 . S
N786 Zn782 2.020 . S
N786 C785 1.336 . S
N786 N787 1.354 1_556 S
N787 C783 1.336 . S
N787 N786 1.354 1_554 S
N787 Zn791 2.020 . S
C788 O789 1.244 1_554 S
C788 O812 1.257 . S
O789 C788 1.244 1_556 S
O790 Zn782 2.019 . S
O790 C810 1.257 . S
Zn791 N787 2.020 . S
Zn791 O798 1.975 . S
Zn791 N807 2.119 . S
Zn791 O812 2.019 . S
N792 Zn782 2.119 . S
N792 C794 1.334 . S
N792 C795 1.328 . S
C793 C794 1.391 . S
C793 N796 1.329 . S
C793 H814 0.930 . S
C794 N792 1.334 . S
C794 C793 1.391 . S
C794 H801 0.930 . S
C795 N792 1.328 . S
C795 C797 1.392 . S
C795 H802 0.930 . S
N796 C793 1.329 . S
N796 C797 1.331 . S
C797 C795 1.392 . S
C797 N796 1.331 . S
O798 Zn791 1.975 . S
O798 C799 1.255 . S
C799 O798 1.255 . S
C799 O800 1.248 1_554 S
O800 Zn782 1.975 . S
O800 C799 1.248 1_556 S
H801 C794 0.930 . S
H802 C795 0.930 . S
C803 C804 1.392 . S
C803 N807 1.328 . S
C803 H809 0.930 . S
C804 C803 1.392 . S
C804 N808 1.331 . S
C805 C806 1.391 . S
C805 N808 1.329 . S
C805 H815 0.930 . S
C806 C805 1.391 . S
C806 N807 1.334 . S
C806 H813 0.930 . S
N807 Zn791 2.119 . S
N807 C803 1.328 . S
N807 C806 1.334 . S
N808 C804 1.331 . S
N808 C805 1.329 . S
H809 C803 0.930 . S
C810 O790 1.257 . S
C810 O811 1.244 1_556 S
O811 C810 1.244 1_554 S
O812 C788 1.257 . S
O812 Zn791 2.019 . S
H813 C806 0.930 . S
H814 C793 0.930 . S
H815 C805 0.930 . S
Zn816 N820 2.020 . S
Zn816 O824 2.019 1_565 S
Zn816 N826 2.119 . S
Zn816 O834 1.975 1_565 S
C817 N818 1.334 . S
C817 N821 1.336 . S
N818 C817 1.334 . S
N818 C819 1.334 . S
C819 N818 1.334 . S
C819 N820 1.336 . S
N820 Zn816 2.020 . S
N820 C819 1.336 . S
N820 N821 1.354 . S
N821 C817 1.336 . S
N821 N820 1.354 . S
N821 Zn825 2.020 . S
C822 O823 1.244 . S
C822 O846 1.257 . S
O823 C822 1.244 . S
O824 Zn816 2.019 1_545 S
O824 C844 1.257 . S
Zn825 N821 2.020 . S
Zn825 O832 1.975 . S
Zn825 N841 2.119 . S
Zn825 O846 2.019 . S
N826 Zn816 2.119 . S
N826 C828 1.334 . S
N826 C829 1.328 . S
C827 C828 1.391 . S
C827 N830 1.329 . S
C827 H848 0.930 . S
C828 N826 1.334 . S
C828 C827 1.391 . S
C828 H835 0.930 . S
C829 N826 1.328 . S
C829 C831 1.392 . S
C829 H836 0.930 1_565 S
N830 C827 1.329 . S
N830 C831 1.331 . S
C831 C829 1.392 . S
C831 N830 1.331 . S
O832 Zn825 1.975 . S
O832 C833 1.252 1_565 S
C833 O832 1.252 1_545 S
C833 O834 1.252 . S
O834 Zn816 1.975 1_545 S
O834 C833 1.252 . S
H835 C828 0.930 . S
H836 C829 0.930 1_545 S
C837 C838 1.392 . S
C837 N841 1.328 . S
C837 H843 0.930 . S
C838 C837 1.392 . S
C838 N842 1.331 . S
C839 C840 1.391 . S
C839 N842 1.329 . S
C839 H849 0.930 . S
C840 C839 1.391 . S
C840 N841 1.334 . S
C840 H847 0.930 . S
N841 Zn825 2.119 . S
N841 C837 1.328 . S
N841 C840 1.334 . S
N842 C838 1.331 . S
N842 C839 1.329 . S
H843 C837 0.930 . S
C844 O824 1.257 . S
C844 O845 1.244 1_545 S
O845 C844 1.244 1_565 S
O846 C822 1.257 . S
O846 Zn825 2.019 . S
H847 C840 0.930 . S
H848 C827 0.930 . S
H849 C839 0.930 . S
Zn850 N854 2.020 . S
Zn850 O858 2.019 1_455 S
Zn850 N860 2.119 . S
Zn850 O868 1.975 1_455 S
C851 N852 1.334 . S
C851 N855 1.336 . S
N852 C851 1.334 . S
N852 C853 1.334 . S
C853 N852 1.334 . S
C853 N854 1.336 . S
N854 Zn850 2.020 . S
N854 C853 1.336 . S
N854 N855 1.354 . S
N855 C851 1.336 . S
N855 N854 1.354 . S
N855 Zn859 2.020 . S
C856 O857 1.244 . S
C856 O880 1.257 . S
O857 C856 1.244 . S
O858 Zn850 2.019 1_655 S
O858 C878 1.257 . S
Zn859 N855 2.020 . S
Zn859 O866 1.975 . S
Zn859 N875 2.119 . S
Zn859 O880 2.019 . S
N860 Zn850 2.119 . S
N860 C862 1.334 . S
N860 C863 1.328 . S
C861 C862 1.391 . S
C861 N864 1.329 . S
C861 H882 0.930 . S
C862 N860 1.334 . S
C862 C861 1.391 . S
C862 H869 0.930 . S
C863 N860 1.328 . S
C863 C865 1.392 . S
C863 H870 0.930 1_455 S
N864 C861 1.329 . S
N864 C865 1.331 . S
C865 C863 1.392 . S
C865 N864 1.331 . S
O866 Zn859 1.975 . S
O866 C867 1.252 1_455 S
C867 O866 1.252 1_655 S
C867 O868 1.252 . S
O868 Zn850 1.975 1_655 S
O868 C867 1.252 . S
H869 C862 0.930 . S
H870 C863 0.930 1_655 S
C871 C872 1.392 . S
C871 N875 1.328 . S
C871 H877 0.930 . S
C872 C871 1.392 . S
C872 N876 1.331 . S
C873 C874 1.391 . S
C873 N876 1.329 . S
C873 H883 0.930 . S
C874 C873 1.391 . S
C874 N875 1.334 . S
C874 H881 0.930 . S
N875 Zn859 2.119 . S
N875 C871 1.328 . S
N875 C874 1.334 . S
N876 C872 1.331 . S
N876 C873 1.329 . S
H877 C871 0.930 . S
C878 O858 1.257 . S
C878 O879 1.244 1_655 S
O879 C878 1.244 1_455 S
O880 C856 1.257 . S
O880 Zn859 2.019 . S
H881 C874 0.930 . S
H882 C861 0.930 . S
H883 C873 0.930 . S
Zn884 N888 2.020 . S
Zn884 O892 2.019 . S
Zn884 N894 2.119 . S
Zn884 O902 1.975 . S
C885 N886 1.334 . S
C885 N889 1.336 . S
N886 C885 1.334 . S
N886 C887 1.334 . S
C887 N886 1.334 . S
C887 N888 1.336 . S
N888 Zn884 2.020 . S
N888 C887 1.336 . S
N888 N889 1.354 . S
N889 C885 1.336 . S
N889 N888 1.354 . S
N889 Zn893 2.020 . S
C890 O891 1.244 . S
C890 O914 1.257 . S
O891 C890 1.244 . S
O892 Zn884 2.019 . S
O892 C912 1.257 . S
Zn893 N889 2.020 . S
Zn893 O900 1.975 . S
Zn893 N909 2.119 . S
Zn893 O914 2.019 . S
N894 Zn884 2.119 . S
N894 C896 1.334 . S
N894 C897 1.328 . S
C895 C896 1.391 . S
C895 N898 1.329 . S
C895 H916 0.930 . S
C896 N894 1.334 . S
C896 C895 1.391 . S
C896 H903 0.930 . S
C897 N894 1.328 . S
C897 C899 1.392 . S
C897 H904 0.930 . S
N898 C895 1.329 . S
N898 C899 1.331 . S
C899 C897 1.392 . S
C899 N898 1.331 . S
O900 Zn893 1.975 . S
O900 C901 1.252 . S
C901 O900 1.252 . S
C901 O902 1.252 . S
O902 Zn884 1.975 . S
O902 C901 1.252 . S
H903 C896 0.930 . S
H904 C897 0.930 . S
C905 C906 1.392 . S
C905 N909 1.328 . S
C905 H911 0.930 . S
C906 C905 1.392 . S
C906 N910 1.331 . S
C907 C908 1.391 . S
C907 N910 1.329 . S
C907 H917 0.930 . S
C908 C907 1.391 . S
C908 N909 1.334 . S
C908 H915 0.930 . S
N909 Zn893 2.119 . S
N909 C905 1.328 . S
N909 C908 1.334 . S
N910 C906 1.331 . S
N910 C907 1.329 . S
H911 C905 0.930 . S
C912 O892 1.257 . S
C912 O913 1.244 . S
O913 C912 1.244 . S
O914 C890 1.257 . S
O914 Zn893 2.019 . S
H915 C908 0.930 . S
H916 C895 0.930 . S
H917 C907 0.930 . S
Zn918 N922 2.020 . S
Zn918 O926 2.019 . S
Zn918 N928 2.119 . S
Zn918 O936 1.975 . S
C919 N920 1.334 . S
C919 N923 1.336 . S
N920 C919 1.334 . S
N920 C921 1.334 1_554 S
C921 N920 1.334 1_556 S
C921 N922 1.336 . S
N922 Zn918 2.020 . S
N922 C921 1.336 . S
N922 N923 1.354 1_556 S
N923 C919 1.336 . S
N923 N922 1.354 1_554 S
N923 Zn927 2.020 . S
C924 O925 1.244 1_554 S
C924 O948 1.257 . S
O925 C924 1.244 1_556 S
O926 Zn918 2.019 . S
O926 C946 1.257 . S
Zn927 N923 2.020 . S
Zn927 O934 1.975 . S
Zn927 N943 2.119 . S
Zn927 O948 2.019 . S
N928 Zn918 2.119 . S
N928 C930 1.334 . S
N928 C931 1.328 . S
C929 C930 1.391 . S
C929 N932 1.329 . S
C929 H950 0.930 . S
C930 N928 1.334 . S
C930 C929 1.391 . S
C930 H937 0.930 . S
C931 N928 1.328 . S
C931 C933 1.392 . S
C931 H938 0.930 . S
N932 C929 1.329 . S
N932 C933 1.331 . S
C933 C931 1.392 . S
C933 N932 1.331 . S
O934 Zn927 1.975 . S
O934 C935 1.248 1_554 S
C935 O934 1.248 1_556 S
C935 O936 1.255 . S
O936 Zn918 1.975 . S
O936 C935 1.255 . S
H937 C930 0.930 . S
H938 C931 0.930 . S
C939 C940 1.392 . S
C939 N943 1.328 . S
C939 H945 0.930 . S
C940 C939 1.392 . S
C940 N944 1.331 . S
C941 C942 1.391 . S
C941 N944 1.329 . S
C941 H951 0.930 . S
C942 C941 1.391 . S
C942 N943 1.334 . S
C942 H949 0.930 . S
N943 Zn927 2.119 . S
N943 C939 1.328 . S
N943 C942 1.334 . S
N944 C940 1.331 . S
N944 C941 1.329 . S
H945 C939 0.930 . S
C946 O926 1.257 . S
C946 O947 1.244 1_556 S
O947 C946 1.244 1_554 S
O948 C924 1.257 . S
O948 Zn927 2.019 . S
H949 C942 0.930 . S
H950 C929 0.930 . S
H951 C941 0.930 . S
Zn952 N956 2.020 . S
Zn952 O960 2.019 . S
Zn952 N962 2.119 . S
Zn952 O970 1.975 . S
C953 N954 1.334 1_556 S
C953 N957 1.336 . S
N954 C953 1.334 1_554 S
N954 C955 1.334 . S
C955 N954 1.334 . S
C955 N956 1.336 . S
N956 Zn952 2.020 . S
N956 C955 1.336 . S
N956 N957 1.354 1_554 S
N957 C953 1.336 . S
N957 N956 1.354 1_556 S
N957 Zn961 2.020 . S
C958 O959 1.244 1_556 S
C958 O982 1.257 . S
O959 C958 1.244 1_554 S
O960 Zn952 2.019 . S
O960 C980 1.257 . S
Zn961 N957 2.020 . S
Zn961 O968 1.975 . S
Zn961 N977 2.119 . S
Zn961 O982 2.019 . S
N962 Zn952 2.119 . S
N962 C964 1.334 . S
N962 C965 1.328 . S
C963 C964 1.391 . S
C963 N966 1.329 . S
C963 H984 0.930 . S
C964 N962 1.334 . S
C964 C963 1.391 . S
C964 H971 0.930 . S
C965 N962 1.328 . S
C965 C967 1.392 . S
C965 H972 0.930 . S
N966 C963 1.329 . S
N966 C967 1.331 . S
C967 C965 1.392 . S
C967 N966 1.331 . S
O968 Zn961 1.975 . S
O968 C969 1.255 . S
C969 O968 1.255 . S
C969 O970 1.248 1_556 S
O970 Zn952 1.975 . S
O970 C969 1.248 1_554 S
H971 C964 0.930 . S
H972 C965 0.930 . S
C973 C974 1.392 . S
C973 N977 1.328 . S
C973 H979 0.930 . S
C974 C973 1.392 . S
C974 N978 1.331 . S
C975 C976 1.391 . S
C975 N978 1.329 . S
C975 H985 0.930 . S
C976 C975 1.391 . S
C976 N977 1.334 . S
C976 H983 0.930 . S
N977 Zn961 2.119 . S
N977 C973 1.328 . S
N977 C976 1.334 . S
N978 C974 1.331 . S
N978 C975 1.329 . S
H979 C973 0.930 . S
C980 O960 1.257 . S
C980 O981 1.244 1_554 S
O981 C980 1.244 1_556 S
O982 C958 1.257 . S
O982 Zn961 2.019 . S
H983 C976 0.930 . S
H984 C963 0.930 . S
H985 C975 0.930 . S
Zn986 N990 2.020 . S
Zn986 O994 2.019 . S
Zn986 N996 2.119 . S
Zn986 O1004 1.975 . S
C987 N988 1.334 . S
C987 N991 1.336 . S
N988 C987 1.334 . S
N988 C989 1.334 1_554 S
C989 N988 1.334 1_556 S
C989 N990 1.336 . S
N990 Zn986 2.020 . S
N990 C989 1.336 . S
N990 N991 1.354 1_556 S
N991 C987 1.336 . S
N991 N990 1.354 1_554 S
N991 Zn995 2.020 . S
C992 O993 1.244 1_554 S
C992 O1016 1.257 . S
O993 C992 1.244 1_556 S
O994 Zn986 2.019 . S
O994 C1014 1.257 . S
Zn995 N991 2.020 . S
Zn995 O1002 1.975 . S
Zn995 N1011 2.119 . S
Zn995 O1016 2.019 . S
N996 Zn986 2.119 . S
N996 C998 1.334 . S
N996 C999 1.328 . S
C997 C998 1.391 . S
C997 N1000 1.329 . S
C997 H1018 0.930 . S
C998 N996 1.334 . S
C998 C997 1.391 . S
C998 H1005 0.930 . S
C999 N996 1.328 . S
C999 C1001 1.392 . S
C999 H1006 0.930 . S
N1000 C997 1.329 . S
N1000 C1001 1.331 . S
C1001 C999 1.392 . S
C1001 N1000 1.331 . S
O1002 Zn995 1.975 . S
O1002 C1003 1.248 1_554 S
C1003 O1002 1.248 1_556 S
C1003 O1004 1.255 . S
O1004 Zn986 1.975 . S
O1004 C1003 1.255 . S
H1005 C998 0.930 . S
H1006 C999 0.930 . S
C1007 C1008 1.392 . S
C1007 N1011 1.328 . S
C1007 H1013 0.930 . S
C1008 C1007 1.392 . S
C1008 N1012 1.331 . S
C1009 C1010 1.391 . S
C1009 N1012 1.329 . S
C1009 H1019 0.930 . S
C1010 C1009 1.391 . S
C1010 N1011 1.334 . S
C1010 H1017 0.930 . S
N1011 Zn995 2.119 . S
N1011 C1007 1.328 . S
N1011 C1010 1.334 . S
N1012 C1008 1.331 . S
N1012 C1009 1.329 . S
H1013 C1007 0.930 . S
C1014 O994 1.257 . S
C1014 O1015 1.244 1_556 S
O1015 C1014 1.244 1_554 S
O1016 C992 1.257 . S
O1016 Zn995 2.019 . S
H1017 C1010 0.930 . S
H1018 C997 0.930 . S
H1019 C1009 0.930 . S
Zn1020 N1024 2.020 . S
Zn1020 O1028 2.019 . S
Zn1020 N1030 2.119 . S
Zn1020 O1038 1.975 . S
C1021 N1022 1.334 . S
C1021 N1025 1.336 . S
N1022 C1021 1.334 . S
N1022 C1023 1.334 . S
C1023 N1022 1.334 . S
C1023 N1024 1.336 . S
N1024 Zn1020 2.020 . S
N1024 C1023 1.336 . S
N1024 N1025 1.354 . S
N1025 C1021 1.336 . S
N1025 N1024 1.354 . S
N1025 Zn1029 2.020 . S
C1026 O1027 1.244 . S
C1026 O1050 1.257 . S
O1027 C1026 1.244 . S
O1028 Zn1020 2.019 . S
O1028 C1048 1.257 . S
Zn1029 N1025 2.020 . S
Zn1029 O1036 1.975 . S
Zn1029 N1045 2.119 . S
Zn1029 O1050 2.019 . S
N1030 Zn1020 2.119 . S
N1030 C1032 1.334 . S
N1030 C1033 1.328 . S
C1031 C1032 1.391 . S
C1031 N1034 1.329 . S
C1031 H1052 0.930 . S
C1032 N1030 1.334 . S
C1032 C1031 1.391 . S
C1032 H1039 0.930 . S
C1033 N1030 1.328 . S
C1033 C1035 1.392 . S
C1033 H1040 0.930 . S
N1034 C1031 1.329 . S
N1034 C1035 1.331 . S
C1035 C1033 1.392 . S
C1035 N1034 1.331 . S
O1036 Zn1029 1.975 . S
O1036 C1037 1.252 . S
C1037 O1036 1.252 . S
C1037 O1038 1.252 . S
O1038 Zn1020 1.975 . S
O1038 C1037 1.252 . S
H1039 C1032 0.930 . S
H1040 C1033 0.930 . S
C1041 C1042 1.392 . S
C1041 N1045 1.328 . S
C1041 H1047 0.930 . S
C1042 C1041 1.392 . S
C1042 N1046 1.331 . S
C1043 C1044 1.391 . S
C1043 N1046 1.329 . S
C1043 H1053 0.930 . S
C1044 C1043 1.391 . S
C1044 N1045 1.334 . S
C1044 H1051 0.930 . S
N1045 Zn1029 2.119 . S
N1045 C1041 1.328 . S
N1045 C1044 1.334 . S
N1046 C1042 1.331 . S
N1046 C1043 1.329 . S
H1047 C1041 0.930 . S
C1048 O1028 1.257 . S
C1048 O1049 1.244 . S
O1049 C1048 1.244 . S
O1050 C1026 1.257 . S
O1050 Zn1029 2.019 . S
H1051 C1044 0.930 . S
H1052 C1031 0.930 . S
H1053 C1043 0.930 . S
Zn1054 N1058 2.020 . S
Zn1054 O1062 2.019 . S
Zn1054 N1064 2.119 . S
Zn1054 O1072 1.975 . S
C1055 N1056 1.334 . S
C1055 N1059 1.336 . S
N1056 C1055 1.334 . S
N1056 C1057 1.334 . S
C1057 N1056 1.334 . S
C1057 N1058 1.336 . S
N1058 Zn1054 2.020 . S
N1058 C1057 1.336 . S
N1058 N1059 1.354 . S
N1059 C1055 1.336 . S
N1059 N1058 1.354 . S
N1059 Zn1063 2.020 . S
C1060 O1061 1.244 . S
C1060 O1084 1.257 . S
O1061 C1060 1.244 . S
O1062 Zn1054 2.019 . S
O1062 C1082 1.257 . S
Zn1063 N1059 2.020 . S
Zn1063 O1070 1.975 . S
Zn1063 N1079 2.119 . S
Zn1063 O1084 2.019 . S
N1064 Zn1054 2.119 . S
N1064 C1066 1.334 . S
N1064 C1067 1.328 . S
C1065 C1066 1.391 . S
C1065 N1068 1.329 . S
C1065 H1086 0.930 . S
C1066 N1064 1.334 . S
C1066 C1065 1.391 . S
C1066 H1073 0.930 . S
C1067 N1064 1.328 . S
C1067 C1069 1.392 . S
C1067 H1074 0.930 . S
N1068 C1065 1.329 . S
N1068 C1069 1.331 . S
C1069 C1067 1.392 . S
C1069 N1068 1.331 . S
O1070 Zn1063 1.975 . S
O1070 C1071 1.252 . S
C1071 O1070 1.252 . S
C1071 O1072 1.252 . S
O1072 Zn1054 1.975 . S
O1072 C1071 1.252 . S
H1073 C1066 0.930 . S
H1074 C1067 0.930 . S
C1075 C1076 1.392 . S
C1075 N1079 1.328 . S
C1075 H1081 0.930 . S
C1076 C1075 1.392 . S
C1076 N1080 1.331 . S
C1077 C1078 1.391 . S
C1077 N1080 1.329 . S
C1077 H1087 0.930 . S
C1078 C1077 1.391 . S
C1078 N1079 1.334 . S
C1078 H1085 0.930 . S
N1079 Zn1063 2.119 . S
N1079 C1075 1.328 . S
N1079 C1078 1.334 . S
N1080 C1076 1.331 . S
N1080 C1077 1.329 . S
H1081 C1075 0.930 . S
C1082 O1062 1.257 . S
C1082 O1083 1.244 . S
O1083 C1082 1.244 . S
O1084 C1060 1.257 . S
O1084 Zn1063 2.019 . S
H1085 C1078 0.930 . S
H1086 C1065 0.930 . S
H1087 C1077 0.930 . S
Zn1088 N1092 2.020 . S
Zn1088 O1096 2.019 . S
Zn1088 N1098 2.119 . S
Zn1088 O1106 1.975 . S
C1089 N1090 1.334 . S
C1089 N1093 1.336 . S
N1090 C1089 1.334 . S
N1090 C1091 1.334 . S
C1091 N1090 1.334 . S
C1091 N1092 1.336 . S
N1092 Zn1088 2.020 . S
N1092 C1091 1.336 . S
N1092 N1093 1.354 . S
N1093 C1089 1.336 . S
N1093 N1092 1.354 . S
N1093 Zn1097 2.020 . S
C1094 O1095 1.244 . S
C1094 O1118 1.257 . S
O1095 C1094 1.244 . S
O1096 Zn1088 2.019 . S
O1096 C1116 1.257 . S
Zn1097 N1093 2.020 . S
Zn1097 O1104 1.975 . S
Zn1097 N1113 2.119 . S
Zn1097 O1118 2.019 . S
N1098 Zn1088 2.119 . S
N1098 C1100 1.334 . S
N1098 C1101 1.328 . S
C1099 C1100 1.391 . S
C1099 N1102 1.329 . S
C1099 H1120 0.930 . S
C1100 N1098 1.334 . S
C1100 C1099 1.391 . S
C1100 H1107 0.930 . S
C1101 N1098 1.328 . S
C1101 C1103 1.392 . S
C1101 H1108 0.930 . S
N1102 C1099 1.329 . S
N1102 C1103 1.331 . S
C1103 C1101 1.392 . S
C1103 N1102 1.331 . S
O1104 Zn1097 1.975 . S
O1104 C1105 1.252 . S
C1105 O1104 1.252 . S
C1105 O1106 1.252 . S
O1106 Zn1088 1.975 . S
O1106 C1105 1.252 . S
H1107 C1100 0.930 . S
H1108 C1101 0.930 . S
C1109 C1110 1.392 . S
C1109 N1113 1.328 . S
C1109 H1115 0.930 . S
C1110 C1109 1.392 . S
C1110 N1114 1.331 . S
C1111 C1112 1.391 . S
C1111 N1114 1.329 . S
C1111 H1121 0.930 . S
C1112 C1111 1.391 . S
C1112 N1113 1.334 . S
C1112 H1119 0.930 . S
N1113 Zn1097 2.119 . S
N1113 C1109 1.328 . S
N1113 C1112 1.334 . S
N1114 C1110 1.331 . S
N1114 C1111 1.329 . S
H1115 C1109 0.930 . S
C1116 O1096 1.257 . S
C1116 O1117 1.244 . S
O1117 C1116 1.244 . S
O1118 C1094 1.257 . S
O1118 Zn1097 2.019 . S
H1119 C1112 0.930 . S
H1120 C1099 0.930 . S
H1121 C1111 0.930 . S
Zn1122 N1126 2.020 . S
Zn1122 O1130 2.019 1_455 S
Zn1122 N1132 2.119 . S
Zn1122 O1140 1.975 1_455 S
C1123 N1124 1.334 . S
C1123 N1127 1.336 . S
N1124 C1123 1.334 . S
N1124 C1125 1.334 . S
C1125 N1124 1.334 . S
C1125 N1126 1.336 . S
N1126 Zn1122 2.020 . S
N1126 C1125 1.336 . S
N1126 N1127 1.354 . S
N1127 C1123 1.336 . S
N1127 N1126 1.354 . S
N1127 Zn1131 2.020 . S
C1128 O1129 1.244 . S
C1128 O1152 1.257 . S
O1129 C1128 1.244 . S
O1130 Zn1122 2.019 1_655 S
O1130 C1150 1.257 . S
Zn1131 N1127 2.020 . S
Zn1131 O1138 1.975 . S
Zn1131 N1147 2.119 . S
Zn1131 O1152 2.019 . S
N1132 Zn1122 2.119 . S
N1132 C1134 1.334 . S
N1132 C1135 1.328 . S
C1133 C1134 1.391 . S
C1133 N1136 1.329 . S
C1133 H1154 0.930 . S
C1134 N1132 1.334 . S
C1134 C1133 1.391 . S
C1134 H1141 0.930 . S
C1135 N1132 1.328 . S
C1135 C1137 1.392 . S
C1135 H1142 0.930 1_455 S
N1136 C1133 1.329 . S
N1136 C1137 1.331 . S
C1137 C1135 1.392 . S
C1137 N1136 1.331 . S
O1138 Zn1131 1.975 . S
O1138 C1139 1.252 1_455 S
C1139 O1138 1.252 1_655 S
C1139 O1140 1.252 . S
O1140 Zn1122 1.975 1_655 S
O1140 C1139 1.252 . S
H1141 C1134 0.930 . S
H1142 C1135 0.930 1_655 S
C1143 C1144 1.392 . S
C1143 N1147 1.328 . S
C1143 H1149 0.930 . S
C1144 C1143 1.392 . S
C1144 N1148 1.331 . S
C1145 C1146 1.391 . S
C1145 N1148 1.329 . S
C1145 H1155 0.930 . S
C1146 C1145 1.391 . S
C1146 N1147 1.334 . S
C1146 H1153 0.930 . S
N1147 Zn1131 2.119 . S
N1147 C1143 1.328 . S
N1147 C1146 1.334 . S
N1148 C1144 1.331 . S
N1148 C1145 1.329 . S
H1149 C1143 0.930 . S
C1150 O1130 1.257 . S
C1150 O1151 1.244 1_655 S
O1151 C1150 1.244 1_455 S
O1152 C1128 1.257 . S
O1152 Zn1131 2.019 . S
H1153 C1146 0.930 . S
H1154 C1133 0.930 . S
H1155 C1145 0.930 . S
Zn1156 N1160 2.020 . S
Zn1156 O1164 2.019 . S
Zn1156 N1166 2.119 . S
Zn1156 O1174 1.975 . S
C1157 N1158 1.334 . S
C1157 N1161 1.336 . S
N1158 C1157 1.334 . S
N1158 C1159 1.334 . S
C1159 N1158 1.334 . S
C1159 N1160 1.336 . S
N1160 Zn1156 2.020 . S
N1160 C1159 1.336 . S
N1160 N1161 1.354 . S
N1161 C1157 1.336 . S
N1161 N1160 1.354 . S
N1161 Zn1165 2.020 . S
C1162 O1163 1.244 . S
C1162 O1186 1.257 . S
O1163 C1162 1.244 . S
O1164 Zn1156 2.019 . S
O1164 C1184 1.257 . S
Zn1165 N1161 2.020 . S
Zn1165 O1172 1.975 . S
Zn1165 N1181 2.119 . S
Zn1165 O1186 2.019 . S
N1166 Zn1156 2.119 . S
N1166 C1168 1.334 . S
N1166 C1169 1.328 . S
C1167 C1168 1.391 . S
C1167 N1170 1.329 . S
C1167 H1188 0.930 . S
C1168 N1166 1.334 . S
C1168 C1167 1.391 . S
C1168 H1175 0.930 . S
C1169 N1166 1.328 . S
C1169 C1171 1.392 . S
C1169 H1176 0.930 . S
N1170 C1167 1.329 . S
N1170 C1171 1.331 . S
C1171 C1169 1.392 . S
C1171 N1170 1.331 . S
O1172 Zn1165 1.975 . S
O1172 C1173 1.252 . S
C1173 O1172 1.252 . S
C1173 O1174 1.252 . S
O1174 Zn1156 1.975 . S
O1174 C1173 1.252 . S
H1175 C1168 0.930 . S
H1176 C1169 0.930 . S
C1177 C1178 1.392 . S
C1177 N1181 1.328 . S
C1177 H1183 0.930 . S
C1178 C1177 1.392 . S
C1178 N1182 1.331 . S
C1179 C1180 1.391 . S
C1179 N1182 1.329 . S
C1179 H1189 0.930 . S
C1180 C1179 1.391 . S
C1180 N1181 1.334 . S
C1180 H1187 0.930 . S
N1181 Zn1165 2.119 . S
N1181 C1177 1.328 . S
N1181 C1180 1.334 . S
N1182 C1178 1.331 . S
N1182 C1179 1.329 . S
H1183 C1177 0.930 . S
C1184 O1164 1.257 . S
C1184 O1185 1.244 . S
O1185 C1184 1.244 . S
O1186 C1162 1.257 . S
O1186 Zn1165 2.019 . S
H1187 C1180 0.930 . S
H1188 C1167 0.930 . S
H1189 C1179 0.930 . S
Zn1190 N1194 2.020 . S
Zn1190 O1198 2.019 1_565 S
Zn1190 N1200 2.119 . S
Zn1190 O1208 1.975 1_565 S
C1191 N1192 1.334 . S
C1191 N1195 1.336 . S
N1192 C1191 1.334 . S
N1192 C1193 1.334 . S
C1193 N1192 1.334 . S
C1193 N1194 1.336 . S
N1194 Zn1190 2.020 . S
N1194 C1193 1.336 . S
N1194 N1195 1.354 . S
N1195 C1191 1.336 . S
N1195 N1194 1.354 . S
N1195 Zn1199 2.020 . S
C1196 O1197 1.244 . S
C1196 O1220 1.257 . S
O1197 C1196 1.244 . S
O1198 Zn1190 2.019 1_545 S
O1198 C1218 1.257 . S
Zn1199 N1195 2.020 . S
Zn1199 O1206 1.975 . S
Zn1199 N1215 2.119 . S
Zn1199 O1220 2.019 . S
N1200 Zn1190 2.119 . S
N1200 C1202 1.334 . S
N1200 C1203 1.328 . S
C1201 C1202 1.391 . S
C1201 N1204 1.329 . S
C1201 H1222 0.930 . S
C1202 N1200 1.334 . S
C1202 C1201 1.391 . S
C1202 H1209 0.930 . S
C1203 N1200 1.328 . S
C1203 C1205 1.392 . S
C1203 H1210 0.930 1_565 S
N1204 C1201 1.329 . S
N1204 C1205 1.331 . S
C1205 C1203 1.392 . S
C1205 N1204 1.331 . S
O1206 Zn1199 1.975 . S
O1206 C1207 1.252 1_565 S
C1207 O1206 1.252 1_545 S
C1207 O1208 1.252 . S
O1208 Zn1190 1.975 1_545 S
O1208 C1207 1.252 . S
H1209 C1202 0.930 . S
H1210 C1203 0.930 1_545 S
C1211 C1212 1.392 . S
C1211 N1215 1.328 . S
C1211 H1217 0.930 . S
C1212 C1211 1.392 . S
C1212 N1216 1.331 . S
C1213 C1214 1.391 . S
C1213 N1216 1.329 . S
C1213 H1223 0.930 . S
C1214 C1213 1.391 . S
C1214 N1215 1.334 . S
C1214 H1221 0.930 . S
N1215 Zn1199 2.119 . S
N1215 C1211 1.328 . S
N1215 C1214 1.334 . S
N1216 C1212 1.331 . S
N1216 C1213 1.329 . S
H1217 C1211 0.930 . S
C1218 O1198 1.257 . S
C1218 O1219 1.244 1_545 S
O1219 C1218 1.244 1_565 S
O1220 C1196 1.257 . S
O1220 Zn1199 2.019 . S
H1221 C1214 0.930 . S
H1222 C1201 0.930 . S
H1223 C1213 0.930 . S
C6 C640 0.815 . S
C674 C40 0.816 . S
C708 C74 0.815 . S
C1128 C108 0.815 . S
C164 C1162 0.815 . S
C1196 C176 0.816 . S
C822 C232 0.815 . S
C266 C856 0.816 . S
C300 C890 0.815 . S
C312 C538 0.815 . S
C550 C346 0.815 . S
C380 C606 0.816 . S
C1048 C414 0.815 . S
C448 C1082 0.816 1_545 S
C1116 C482 0.815 1_455 S
C946 C720 0.815 1_556 S
C958 C754 0.815 1_566 S
C1014 C788 0.816 1_456 S
C22 C151 1.744 1_655 S
C56 C192 1.744 . S
C124 C90 1.744 1_565 S
C219 C362 1.744 1_455 S
C253 C396 1.744 . S
C287 C328 1.744 1_565 S
C566 C430 1.744 . S
C464 C593 1.744 . S
C525 C498 1.744 . S
C627 C770 1.744 . S
C661 C804 1.744 . S
C695 C736 1.744 . S
C838 C974 1.744 . S
C872 C1001 1.744 . S
C906 C933 1.744 . S
C1035 C1178 1.744 . S
C1212 C1069 1.744 . S
C1144 C1103 1.744 . S
C15 C1008 1.475 . S
C940 C49 1.475 . S
C967 C83 1.475 . S
C117 C457 1.476 . S
C491 C158 1.476 . S
C423 C185 1.475 . S
C226 C797 1.475 . S
C260 C729 1.475 . S
C294 C763 1.475 . S
C1076 C321 1.476 . S
C355 C1110 1.476 . S
C1042 C389 1.475 . S
C865 C532 1.475 1_455 S
C559 C899 1.475 . S
C600 C831 1.475 1_545 S
C1205 C634 1.475 1_565 S
C668 C1137 1.475 1_655 S
C702 C1171 1.475 . S
C69 C3 2.687 1_565 S
C37 C1 2.686 1_665 S
C35 C71 2.687 1_655 S
C139 C105 2.687 1_655 S
C171 C137 2.687 1_565 S
C173 C103 2.686 1_665 S
C275 C205 2.687 1_545 S
C239 C207 2.686 1_445 S
C273 C241 2.687 1_655 S
C341 C309 2.687 1_455 S
C343 C375 2.687 1_565 S
C377 C307 2.686 1_445 S
C477 C411 2.687 . S
C409 C445 2.687 . S
C443 C479 2.687 . S
C511 C545 2.687 . S
C581 C547 2.687 . S
C513 C579 2.687 . S
C613 C683 2.687 . S
C647 C615 2.686 . S
C649 C681 2.687 . S
C717 C749 2.687 1_556 S
C751 C783 2.687 1_556 S
C715 C785 2.687 1_554 S
C819 C885 2.687 . S
C817 C853 2.686 . S
C887 C851 2.687 . S
C919 C953 2.687 1_554 S
C989 C955 2.687 1_556 S
C987 C921 2.687 1_554 S
C1021 C1091 2.687 . S
C1055 C1023 2.687 . S
C1089 C1057 2.687 . S
C1157 C1125 2.687 . S
C1191 C1159 2.687 . S
C1123 C1193 2.687 . S
C28 C697 1.596 . S
C629 C62 1.596 . S
C96 C663 1.596 . S
C1173 C130 1.595 . S
C142 C1207 1.596 . S
C1139 C198 1.596 . S
C210 C901 1.596 . S
C833 C244 1.596 . S
C278 C867 1.596 . S
C334 C561 1.595 . S
C368 C595 1.596 . S
C527 C402 1.596 . S
C1105 C436 1.596 1_455 S
C1037 C470 1.596 . S
C1071 C504 1.596 1_565 S
C357 C516 1.595 . S
C572 C391 1.596 . S
C584 C323 1.596 . S
C618 C85 1.595 . S
C17 C652 1.596 . S
C51 C686 1.596 . S
C969 C742 1.605 1_565 S
C776 C1003 1.605 1_655 S
C935 C810 1.605 . S
C289 C844 1.595 . S
C221 C878 1.596 . S
C255 C912 1.596 . S
C924 C765 1.605 1_565 S
C799 C980 1.605 1_655 S
C992 C731 1.605 . S
C493 C1026 1.596 1_655 S
C1060 C425 1.596 . S
C459 C1094 1.596 1_545 S
C1150 C153 1.595 . S
C187 C1184 1.596 . S
C119 C1218 1.596 . S
