# Generated by pormake.
# Topology crs, (6)-cn, num edge types: 1
# Building blocks:
#     Node 0, Type 0, BuildingBlock: MIFKUJ_clean_sbu_0, # of connection points: 6
#     Node 1, Type 0, BuildingBlock: MIFKUJ_clean_sbu_0, # of connection points: 6
#     Node 2, Type 0, BuildingBlock: MIFKUJ_clean_sbu_0, # of connection points: 6
#     Node 3, Type 0, BuildingBlock: MIFKUJ_clean_sbu_0, # of connection points: 6
#     Node 4, Type 0, BuildingBlock: MIFKUJ_clean_sbu_0, # of connection points: 6
#     Node 5, Type 0, BuildingBlock: MIFKUJ_clean_sbu_0, # of connection points: 6
#     Node 6, Type 0, BuildingBlock: MIFKUJ_clean_sbu_0, # of connection points: 6
#     Node 7, Type 0, BuildingBlock: MIFKUJ_clean_sbu_0, # of connection points: 6
#     Node 8, Type 0, BuildingBlock: MIFKUJ_clean_sbu_0, # of connection points: 6
#     Node 9, Type 0, BuildingBlock: MIFKUJ_clean_sbu_0, # of connection points: 6
#     Node 10, Type 0, BuildingBlock: MIFKUJ_clean_sbu_0, # of connection points: 6
#     Node 11, Type 0, BuildingBlock: MIFKUJ_clean_sbu_0, # of connection points: 6
#     Node 12, Type 0, BuildingBlock: MIFKUJ_clean_sbu_0, # of connection points: 6
#     Node 13, Type 0, BuildingBlock: MIFKUJ_clean_sbu_0, # of connection points: 6
#     Node 14, Type 0, BuildingBlock: MIFKUJ_clean_sbu_0, # of connection points: 6
#     Node 15, Type 0, BuildingBlock: MIFKUJ_clean_sbu_0, # of connection points: 6
#     Edge 16, Type (0, 0), BuildingBlock: XUDNAN_clean_linker_2, # of connection points: 2
#     Edge 17, Type (0, 0), BuildingBlock: XUDNAN_clean_linker_2, # of connection points: 2
#     Edge 18, Type (0, 0), BuildingBlock: XUDNAN_clean_linker_2, # of connection points: 2
#     Edge 19, Type (0, 0), BuildingBlock: XUDNAN_clean_linker_2, # of connection points: 2
#     Edge 20, Type (0, 0), BuildingBlock: XUDNAN_clean_linker_2, # of connection points: 2
#     Edge 21, Type (0, 0), BuildingBlock: XUDNAN_clean_linker_2, # of connection points: 2
#     Edge 22, Type (0, 0), BuildingBlock: XUDNAN_clean_linker_2, # of connection points: 2
#     Edge 23, Type (0, 0), BuildingBlock: XUDNAN_clean_linker_2, # of connection points: 2
#     Edge 24, Type (0, 0), BuildingBlock: XUDNAN_clean_linker_2, # of connection points: 2
#     Edge 25, Type (0, 0), BuildingBlock: XUDNAN_clean_linker_2, # of connection points: 2
#     Edge 26, Type (0, 0), BuildingBlock: XUDNAN_clean_linker_2, # of connection points: 2
#     Edge 27, Type (0, 0), BuildingBlock: XUDNAN_clean_linker_2, # of connection points: 2
#     Edge 28, Type (0, 0), BuildingBlock: XUDNAN_clean_linker_2, # of connection points: 2
#     Edge 29, Type (0, 0), BuildingBlock: XUDNAN_clean_linker_2, # of connection points: 2
#     Edge 30, Type (0, 0), BuildingBlock: XUDNAN_clean_linker_2, # of connection points: 2
#     Edge 31, Type (0, 0), BuildingBlock: XUDNAN_clean_linker_2, # of connection points: 2
#     Edge 32, Type (0, 0), BuildingBlock: XUDNAN_clean_linker_2, # of connection points: 2
#     Edge 33, Type (0, 0), BuildingBlock: XUDNAN_clean_linker_2, # of connection points: 2
#     Edge 34, Type (0, 0), BuildingBlock: XUDNAN_clean_linker_2, # of connection points: 2
#     Edge 35, Type (0, 0), BuildingBlock: XUDNAN_clean_linker_2, # of connection points: 2
#     Edge 36, Type (0, 0), BuildingBlock: XUDNAN_clean_linker_2, # of connection points: 2
#     Edge 37, Type (0, 0), BuildingBlock: XUDNAN_clean_linker_2, # of connection points: 2
#     Edge 38, Type (0, 0), BuildingBlock: XUDNAN_clean_linker_2, # of connection points: 2
#     Edge 39, Type (0, 0), BuildingBlock: XUDNAN_clean_linker_2, # of connection points: 2
#     Edge 40, Type (0, 0), BuildingBlock: XUDNAN_clean_linker_2, # of connection points: 2
#     Edge 41, Type (0, 0), BuildingBlock: XUDNAN_clean_linker_2, # of connection points: 2
#     Edge 42, Type (0, 0), BuildingBlock: XUDNAN_clean_linker_2, # of connection points: 2
#     Edge 43, Type (0, 0), BuildingBlock: XUDNAN_clean_linker_2, # of connection points: 2
#     Edge 44, Type (0, 0), BuildingBlock: XUDNAN_clean_linker_2, # of connection points: 2
#     Edge 45, Type (0, 0), BuildingBlock: XUDNAN_clean_linker_2, # of connection points: 2
#     Edge 46, Type (0, 0), BuildingBlock: XUDNAN_clean_linker_2, # of connection points: 2
#     Edge 47, Type (0, 0), BuildingBlock: XUDNAN_clean_linker_2, # of connection points: 2
#     Edge 48, Type (0, 0), BuildingBlock: XUDNAN_clean_linker_2, # of connection points: 2
#     Edge 49, Type (0, 0), BuildingBlock: XUDNAN_clean_linker_2, # of connection points: 2
#     Edge 50, Type (0, 0), BuildingBlock: XUDNAN_clean_linker_2, # of connection points: 2
#     Edge 51, Type (0, 0), BuildingBlock: XUDNAN_clean_linker_2, # of connection points: 2
#     Edge 52, Type (0, 0), BuildingBlock: XUDNAN_clean_linker_2, # of connection points: 2
#     Edge 53, Type (0, 0), BuildingBlock: XUDNAN_clean_linker_2, # of connection points: 2
#     Edge 54, Type (0, 0), BuildingBlock: XUDNAN_clean_linker_2, # of connection points: 2
#     Edge 55, Type (0, 0), BuildingBlock: XUDNAN_clean_linker_2, # of connection points: 2
#     Edge 56, Type (0, 0), BuildingBlock: XUDNAN_clean_linker_2, # of connection points: 2
#     Edge 57, Type (0, 0), BuildingBlock: XUDNAN_clean_linker_2, # of connection points: 2
#     Edge 58, Type (0, 0), BuildingBlock: XUDNAN_clean_linker_2, # of connection points: 2
#     Edge 59, Type (0, 0), BuildingBlock: XUDNAN_clean_linker_2, # of connection points: 2
#     Edge 60, Type (0, 0), BuildingBlock: XUDNAN_clean_linker_2, # of connection points: 2
#     Edge 61, Type (0, 0), BuildingBlock: XUDNAN_clean_linker_2, # of connection points: 2
#     Edge 62, Type (0, 0), BuildingBlock: XUDNAN_clean_linker_2, # of connection points: 2
#     Edge 63, Type (0, 0), BuildingBlock: XUDNAN_clean_linker_2, # of connection points: 2
# Relax obj value: 0.320
# Max RMSD: 0.288
# Mean RMSD: 0.246
data_MOF--net-crs--node1-MIFKUJ_clean_sbu_0--edge1-XUDNAN_clean_linker_2
_symmetry_space_group_name_H-M    P1
_symmetry_Int_Tables_number       1
_symmetry_cell_setting            triclinic
loop_
_symmetry_equiv_pos_as_xyz
'x, y, z'
_cell_length_a     44.247459
_cell_length_b     44.235645
_cell_length_c     45.073537
_cell_angle_alpha  89.88901
_cell_angle_beta   90.009928
_cell_angle_gamma 78.470052
loop_
_atom_site_label
_atom_site_type_symbol
_atom_site_fract_x
_atom_site_fract_y
_atom_site_fract_z
_atom_type_partial_charge
Zn0 Zn 0.02214 0.00823 0.0028 0.0
Zn1 Zn 0.97077 0.98218 0.02584 0.0
C2 C -0.00031 0.07079 0.01604 0.0
O3 O 0.00241 0.07155 0.98703 0.0
C4 C -0.01135 0.92274 0.9966 0.0
O5 O 0.97719 0.91226 0.02051 0.0
O6 O 0.05753 0.02173 0.98311 0.0
O7 O 0.03901 0.97138 0.0281 0.0
O8 O 0.00042 0.98151 0.05957 0.0
C9 C 0.07399 0.03307 0.0014 0.0
O10 O 0.07023 0.02875 0.0299 0.0
O11 O 0.00556 0.04482 0.02924 0.0
C12 C 0.91566 0.9644 0.01693 0.0
O13 O 0.92355 0.97264 0.9905 0.0
O14 O 0.93281 0.96737 0.03892 0.0
O15 O 0.95536 0.0224 0.00436 0.0
O16 O -0.00909 0.0059 0.9712 0.0
O17 O -0.01003 0.9511 0.99507 0.0
C18 C 0.02886 0.9712 0.05445 0.0
C19 C 0.96385 0.02017 0.97741 0.0
Zn20 Zn 0.97195 0.24126 0.24661 0.0
Zn21 Zn 0.00479 0.27174 0.20348 0.0
C22 C -0.00401 0.27435 0.29361 0.0
O23 O 0.00641 0.24645 0.30405 0.0
C24 C -0.01497 0.24689 0.15095 0.0
O25 O 0.97699 0.27658 0.14534 0.0
O26 O 0.95037 0.22065 0.27729 0.0
O27 O 0.94095 0.25902 0.21528 0.0
O28 O 0.96356 0.29887 0.21346 0.0
C29 C 0.92784 0.23815 0.28995 0.0
O30 O 0.9188 0.26651 0.28011 0.0
O31 O 0.9818 0.27757 0.26898 0.0
C32 C 0.05825 0.2873 0.17733 0.0
O33 O 0.0714 0.26354 0.19345 0.0
O34 O 0.02916 0.29644 0.1787 0.0
O35 O 0.03328 0.25166 0.23618 0.0
O36 O 0.0112 0.21164 0.23572 0.0
O37 O -0.00283 0.23828 0.17589 0.0
C38 C 0.9391 0.2879 0.21203 0.0
C39 C 0.03522 0.22282 0.23938 0.0
Zn40 Zn 0.76286 0.25284 0.50571 0.0
Zn41 Zn 0.73111 0.21175 0.47428 0.0
C42 C 0.82033 0.22142 0.47681 0.0
O43 O 0.83057 0.21172 0.50321 0.0
C44 C 0.67412 0.24216 0.50114 0.0
O45 O 0.6645 0.24656 0.4736 0.0
O46 O 0.78423 0.28156 0.52795 0.0
O47 O 0.72675 0.27876 0.48443 0.0
O48 O 0.73478 0.24663 0.44675 0.0
C49 C 0.79426 0.29999 0.51067 0.0
O50 O 0.78668 0.30057 0.48246 0.0
O51 O 0.7931 0.23689 0.4737 0.0
C52 C 0.69855 0.16572 0.47331 0.0
O53 O 0.71094 0.16393 0.49992 0.0
O54 O 0.70703 0.18359 0.45435 0.0
O55 O 0.76802 0.18593 0.49516 0.0
O56 O 0.75816 0.21794 0.53273 0.0
O57 O 0.70189 0.22933 0.50639 0.0
C58 C 0.72572 0.27386 0.45666 0.0
C59 C 0.76818 0.19086 0.52298 0.0
Zn60 Zn 0.77039 0.02858 0.77227 0.0
Zn61 Zn 0.73585 0.01514 0.71962 0.0
C62 C 0.73857 -0.00088 0.81547 0.0
O63 O 0.73921 0.02486 0.82974 0.0
C64 C 0.77285 0.03459 0.67542 0.0
O65 O 0.77577 0.00515 0.66916 0.0
O66 O 0.79686 0.03996 0.80452 0.0
O67 O 0.79878 0.01051 0.73965 0.0
O68 O 0.76825 0.97818 0.73082 0.0
C69 C 0.81943 0.01973 0.81366 0.0
O70 O 0.82511 0.9924 0.8011 0.0
O71 O 0.75011 0.99543 0.7896 0.0
C72 C 0.69681 0.02415 0.67066 0.0
O73 O 0.69991 0.0525 0.67627 0.0
O74 O 0.70942 0.00237 0.68774 0.0
O75 O 0.70626 0.03687 0.75036 0.0
O76 O 0.7384 0.06603 0.7641 0.0
O77 O 0.75743 0.04527 0.69826 0.0
C78 C 0.79517 0.98409 0.73134 0.0
C79 C 0.71106 0.06163 0.76191 0.0
Zn80 Zn 0.48373 0.76287 0.2993 0.0
Zn81 Zn 0.5353 0.76654 0.25569 0.0
C82 C 0.49633 0.80117 0.34804 0.0
O83 O 0.49389 0.777 0.36417 0.0
C84 C 0.50806 0.73758 0.21014 0.0
O85 O 0.51355 0.762 0.19615 0.0
O86 O 0.44767 0.75281 0.32139 0.0
O87 O 0.46837 0.77767 0.25893 0.0
O88 O 0.50327 0.80659 0.25651 0.0
C89 C 0.42817 0.73878 0.30986 0.0
O90 O 0.43134 0.73011 0.28198 0.0
O91 O 0.49436 0.79961 0.32001 0.0
C92 C 0.58667 0.74487 0.21955 0.0
O93 O 0.58423 0.71989 0.23443 0.0
O94 O 0.5686 0.77017 0.226 0.0
O95 O 0.55646 0.74848 0.29319 0.0
O96 O 0.51779 0.72576 0.30337 0.0
O97 O 0.51506 0.73401 0.23744 0.0
C98 C 0.47611 0.80263 0.25104 0.0
C99 C 0.54634 0.7263 0.30488 0.0
Zn100 Zn 0.2038 0.75155 0.48256 0.0
Zn101 Zn 0.253 0.79237 0.50116 0.0
C102 C 0.23061 0.69937 0.51872 0.0
O103 O 0.22767 0.68449 0.49401 0.0
C104 C 0.2219 0.85103 0.47448 0.0
O105 O 0.21005 0.85676 0.50108 0.0
O106 O 0.16967 0.72985 0.47071 0.0
O107 O 0.18414 0.79442 0.49521 0.0
O108 O 0.21832 0.79236 0.53057 0.0
C109 C 0.14776 0.73182 0.48928 0.0
O110 O 0.14888 0.74714 0.51398 0.0
O111 O 0.22332 0.72863 0.51878 0.0
C112 C 0.28644 0.82564 0.54136 0.0
O113 O 0.25928 0.84313 0.54647 0.0
O114 O 0.28864 0.80318 0.52346 0.0
O115 O 0.27193 0.75305 0.47962 0.0
O116 O 0.23397 0.74901 0.44924 0.0
O117 O 0.2402 0.82545 0.46964 0.0
C118 C 0.19036 0.79889 0.52213 0.0
C119 C 0.26263 0.74583 0.4544 0.0
Zn120 Zn 0.26364 0.52279 0.77586 0.0
Zn121 Zn 0.22589 0.51454 0.72277 0.0
C122 C 0.23553 0.48863 0.81607 0.0
O123 O 0.23394 0.51486 0.8302 0.0
C124 C 0.25111 0.54792 0.67871 0.0
O125 O 0.25558 0.52037 0.66663 0.0
O126 O 0.2932 0.52776 0.80874 0.0
O127 O 0.29003 0.5116 0.73976 0.0
O128 O 0.26122 0.47877 0.72793 0.0
C129 C 0.3116 0.50271 0.81551 0.0
O130 O 0.3107 0.47779 0.79999 0.0
O131 O 0.24642 0.48615 0.78988 0.0
C132 C 0.1805 0.52166 0.67645 0.0
O133 O 0.17643 0.55088 0.68397 0.0
O134 O 0.19948 0.50171 0.691 0.0
O135 O 0.1988 0.52826 0.75792 0.0
O136 O 0.22836 0.55925 0.77417 0.0
O137 O 0.24019 0.55133 0.70487 0.0
C138 C 0.28766 0.48555 0.72942 0.0
C139 C 0.20192 0.55228 0.77203 0.0
Zn140 Zn 0.97473 0.54743 0.52071 0.0
Zn141 Zn -0.01286 0.45297 0.50472 0.0
C142 C 0.93323 0.58277 0.56149 0.0
O143 O 0.91652 0.58821 0.53725 0.0
C144 C 0.01374 0.41854 0.45268 0.0
O145 O 0.03767 0.40884 0.46993 0.0
O146 O -0.00837 0.58246 0.50384 0.0
O147 O 0.01069 0.50944 0.52649 0.0
O148 O 0.02723 0.45891 0.52142 0.0
C149 C 0.01742 0.58028 0.49083 0.0
O150 O 0.03454 0.55287 0.48597 0.0
O151 O 0.95857 0.56332 0.56046 0.0
C152 C 0.97181 0.39726 0.52524 0.0
O153 O -0.00607 0.38567 0.50668 0.0
O154 O 0.96616 0.42606 0.53013 0.0
O155 O 0.96325 0.49472 0.50474 0.0
O156 O 0.93919 0.54015 0.49398 0.0
O157 O -0.00925 0.43759 0.46272 0.0
C158 C 0.03189 0.48529 0.52944 0.0
C159 C 0.94179 0.51144 0.49047 0.0
Zn160 Zn 0.21186 0.24046 0.97514 0.0
Zn161 Zn 0.26133 0.26962 0.99316 0.0
C162 C 0.23061 0.18387 0.00877 0.0
O163 O 0.22316 0.17138 0.98409 0.0
C164 C 0.23644 0.32634 0.96218 0.0
O165 O 0.23825 0.3382 0.98868 0.0
O166 O 0.17733 0.22215 0.96 0.0
O167 O 0.19336 0.28247 0.99122 0.0
O168 O 0.22923 0.27285 0.02527 0.0
C169 C 0.15666 0.21918 0.97866 0.0
O170 O 0.157 0.23203 0.0049 0.0
O171 O 0.22879 0.2129 0.0098 0.0
C172 C 0.31159 0.30043 0.992 0.0
O173 O 0.30729 0.29831 0.9633 0.0
O174 O 0.29533 0.28824 0.00988 0.0
O175 O 0.28081 0.22853 0.97558 0.0
O176 O 0.24341 0.23559 0.94286 0.0
O177 O 0.24393 0.29729 0.95896 0.0
C178 C 0.20186 0.28521 0.0178 0.0
C179 C 0.27126 0.22438 0.9496 0.0
Zn180 Zn 0.27334 0.02052 0.28063 0.0
Zn181 Zn 0.23737 0.00581 0.22592 0.0
C182 C 0.22845 0.00119 0.31747 0.0
O183 O 0.2242 0.03052 0.32464 0.0
C184 C 0.25129 0.03109 0.16901 0.0
O185 O 0.24627 0.00481 0.15859 0.0
O186 O 0.29341 0.03122 0.31786 0.0
O187 O 0.30664 -0.00238 0.2545 0.0
O188 O 0.2742 0.97163 0.23462 0.0
C189 C 0.30193 0.00853 0.33529 0.0
O190 O 0.30105 0.98052 0.32624 0.0
O191 O 0.2469 0.99122 0.29639 0.0
C192 C 0.18345 0.00311 0.19419 0.0
O193 O 0.18092 0.03316 0.19533 0.0
O194 O 0.2067 0.98551 0.20557 0.0
O195 O 0.21194 0.0327 0.25667 0.0
O196 O 0.24733 0.05975 0.26494 0.0
O197 O 0.25012 0.0357 0.19685 0.0
C198 C 0.30165 0.97397 0.24098 0.0
C199 C 0.21914 0.05862 0.26151 0.0
Zn200 Zn 0.46415 0.24855 0.77146 0.0
Zn201 Zn 0.50724 0.26217 0.72753 0.0
C202 C 0.49282 0.27139 0.82382 0.0
O203 O 0.49916 0.2426 0.83288 0.0
C204 C 0.47738 0.22948 0.68382 0.0
O205 O 0.48119 0.25224 0.66636 0.0
O206 O 0.43139 0.23037 0.79153 0.0
O207 O 0.44137 0.27729 0.73902 0.0
O208 O 0.47993 0.30128 0.73663 0.0
C209 C 0.43693 0.20929 0.81112 0.0
O210 O 0.46547 0.19808 0.81923 0.0
O211 O 0.47824 0.27826 0.79966 0.0
C212 C 0.55649 0.2517 0.68542 0.0
O213 O 0.56479 0.22548 0.69979 0.0
O214 O 0.5336 0.27144 0.69452 0.0
O215 O 0.53331 0.24513 0.7614 0.0
O216 O 0.50157 0.21314 0.76621 0.0
O217 O 0.48515 0.22989 0.71094 0.0
C218 C 0.45138 0.30196 0.73447 0.0
C219 C 0.52819 0.21933 0.76989 0.0
Zn220 Zn 0.96658 0.75575 0.77794 0.0
Zn221 Zn 0.01539 0.76267 0.73061 0.0
C222 C -0.01611 0.77898 0.83315 0.0
O223 O 0.97636 0.75351 0.84301 0.0
C224 C 0.97209 0.7416 0.69056 0.0
O225 O 0.96814 0.76984 0.68005 0.0
O226 O 0.93161 0.74264 0.79921 0.0
O227 O 0.94786 0.78106 0.74324 0.0
O228 O -0.01228 0.80329 0.7384 0.0
C229 C 0.90903 0.76222 0.80939 0.0
O230 O 0.9079 0.79177 0.80478 0.0
O231 O 0.98251 0.78459 0.80549 0.0
C232 C 0.05223 0.7562 0.67674 0.0
O233 O 0.03894 0.73272 0.67173 0.0
O234 O 0.0465 0.77158 0.70057 0.0
O235 O 0.0377 0.74179 0.76587 0.0
O236 O -0.0004 0.71749 0.77339 0.0
O237 O -0.00904 0.73346 0.71175 0.0
C238 C 0.95892 0.80452 0.73647 0.0
C239 C 0.028 0.71856 0.77572 0.0
Zn240 Zn 0.75071 0.49316 0.29849 0.0
Zn241 Zn 0.70367 0.49499 0.25389 0.0
C242 C 0.72254 0.46059 0.34296 0.0
O243 O 0.72898 0.48218 0.36045 0.0
C244 C 0.73792 0.52174 0.21159 0.0
O245 O 0.73484 0.49668 0.19727 0.0
O246 O 0.78563 0.49411 0.32653 0.0
O247 O 0.77066 0.47518 0.26077 0.0
O248 O 0.73164 0.45268 0.25234 0.0
C249 C 0.80217 0.46853 0.33466 0.0
O250 O 0.79625 0.4427 0.32398 0.0
O251 O 0.72849 0.46151 0.31545 0.0
C252 C 0.65383 0.52324 0.21783 0.0
O253 O 0.65996 0.5474 0.23174 0.0
O254 O 0.66921 0.49658 0.22441 0.0
O255 O 0.68393 0.51148 0.29249 0.0
O256 O 0.72245 0.53515 0.29887 0.0
O257 O 0.72705 0.52609 0.23764 0.0
C258 C 0.76038 0.45244 0.25057 0.0
C259 C 0.69409 0.5345 0.30215 0.0
Zn260 Zn 0.7398 0.70342 0.01643 0.0
Zn261 Zn 0.71995 0.79618 0.98931 0.0
C262 C 0.77161 0.66073 0.05752 0.0
O263 O 0.77614 0.64446 0.03298 0.0
C264 C 0.6902 0.84707 0.95488 0.0
O265 O 0.6874 0.85946 0.98147 0.0
O266 O 0.71534 0.67352 0.00097 0.0
O267 O 0.7146 0.74516 0.01827 0.0
O268 O 0.68801 0.7911 0.02139 0.0
C269 C 0.69441 0.68168 0.98167 0.0
O270 O 0.68767 0.71054 0.97278 0.0
O271 O 0.75802 0.6888 0.0559 0.0
C272 C 0.76219 0.83625 0.989 0.0
O273 O 0.7605 0.83097 0.96046 0.0
O274 O 0.74637 0.82354 0.00688 0.0
O275 O 0.75067 0.75614 0.97703 0.0
O276 O 0.77052 0.70679 0.98522 0.0
O277 O 0.70069 0.81824 0.95262 0.0
C278 C 0.69352 0.76375 0.03129 0.0
C279 C 0.76937 0.73126 0.96991 0.0
Zn280 Zn 0.45373 0.9945 0.5383 0.0
Zn281 Zn 0.48158 0.03847 0.50263 0.0
C282 C 0.38977 0.02038 0.52592 0.0
O283 O 0.38487 0.01008 0.55248 0.0
C284 C 0.53412 -0.00258 0.5396 0.0
O285 O 0.51758 0.97917 0.55175 0.0
O286 O 0.43746 0.96256 0.5615 0.0
O287 O 0.48127 0.97117 0.50643 0.0
O288 O 0.46821 0.00875 0.4742 0.0
C289 C 0.45096 0.93445 0.56339 0.0
O290 O 0.47898 0.92594 0.5527 0.0
O291 O 0.41719 0.01736 0.51636 0.0
C292 C 0.50923 0.08806 0.49548 0.0
O293 O 0.50607 0.08571 0.52432 0.0
O294 O 0.49689 0.07083 0.47875 0.0
O295 O 0.45279 0.06129 0.5337 0.0
O296 O 0.46708 0.02456 0.56655 0.0
O297 O 0.52179 0.0188 0.52199 0.0
C298 C 0.47706 0.98018 0.47968 0.0
C299 C 0.45792 0.05299 0.56055 0.0
Zn300 Zn 0.48425 0.56765 0.00933 0.0
Zn301 Zn 0.49128 0.47145 0.00938 0.0
C302 C 0.4605 0.59008 0.06613 0.0
O303 O 0.45778 0.56129 0.06998 0.0
C304 C 0.51842 0.41761 0.97703 0.0
O305 O 0.51525 0.40453 0.00273 0.0
O306 O 0.51594 0.5832 0.98544 0.0
O307 O 0.5059 0.52775 0.02881 0.0
O308 O 0.5216 0.47948 0.04076 0.0
C309 C 0.53691 0.56445 0.97194 0.0
O310 O 0.53653 0.53483 0.97248 0.0
O311 O 0.46937 0.59835 0.04113 0.0
C312 C 0.43269 0.45749 0.02763 0.0
O313 O 0.42097 0.48533 0.01789 0.0
O314 O 0.46167 0.44775 0.02729 0.0
O315 O 0.46903 0.51249 0.99391 0.0
O316 O 0.45008 0.55977 0.9817 0.0
O317 O 0.51166 0.44682 0.97505 0.0
C318 C 0.52242 0.5077 0.04528 0.0
C319 C 0.45003 0.53126 0.97844 0.0
H320 H 0.01026 0.08031 0.07513 0.0
H321 H 0.97331 0.12729 0.99438 0.0
H322 H 0.9636 0.17695 0.02091 0.0
H323 H 0.95757 0.12788 0.12653 0.0
H324 H -0.01332 0.12791 0.15451 0.0
H325 H -0.01051 0.09556 0.12971 0.0
H326 H 0.04426 0.10199 0.11326 0.0
H327 H 0.04144 0.13366 0.13882 0.0
H328 H 0.0496 0.13914 0.10029 0.0
H329 H 0.95904 0.22143 0.05526 0.0
H330 H 0.96141 0.25873 0.09526 0.0
H331 H 0.00214 0.18355 0.15397 0.0
C332 C -0.00032 0.10101 0.06321 0.0
C333 C -0.0078 0.09996 0.03278 0.0
C334 C 0.97906 0.12758 0.01772 0.0
C335 C 0.97343 0.15588 0.03259 0.0
C336 C 0.98123 0.15621 0.06249 0.0
C337 C -0.00583 0.12959 0.07767 0.0
C338 C 0.00144 0.13669 0.10949 0.0
C339 C 0.98267 0.12108 0.13135 0.0
C340 C 0.03624 0.1273 0.11581 0.0
C341 C -0.00926 0.17146 0.10966 0.0
C342 C 0.97899 0.18214 0.08235 0.0
C343 C 0.96811 0.21338 0.07679 0.0
C344 C 0.96955 0.23439 0.09969 0.0
C345 C 0.98193 0.2241 0.12776 0.0
C346 C -0.00758 0.19214 0.1328 0.0
H347 H 0.81864 0.26124 0.43108 0.0
H348 H 0.86859 0.17349 0.46477 0.0
H349 H 0.90142 0.16722 0.4196 0.0
H350 H 0.8174 0.24219 0.35533 0.0
H351 H 0.8237 0.279 0.34235 0.0
H352 H 0.80472 0.27639 0.37731 0.0
H353 H 0.84525 0.30162 0.40407 0.0
H354 H 0.86422 0.30469 0.36917 0.0
H355 H 0.88567 0.28504 0.39997 0.0
H356 H 0.92695 0.17018 0.36938 0.0
H357 H 0.94641 0.18399 0.32079 0.0
H358 H 0.87999 0.27073 0.32203 0.0
C359 C 0.83641 0.24061 0.4289 0.0
C360 C 0.84093 0.21755 0.45098 0.0
C361 C 0.86483 0.19127 0.44786 0.0
C362 C 0.88343 0.18754 0.42233 0.0
C363 C 0.87801 0.2106 0.40067 0.0
C364 C 0.85539 0.23684 0.40402 0.0
C365 C 0.8547 0.25879 0.37823 0.0
C366 C 0.82327 0.2644 0.36237 0.0
C367 C 0.86296 0.28933 0.38847 0.0
C368 C 0.87987 0.24039 0.35921 0.0
C369 C 0.89312 0.21269 0.37247 0.0
C370 C 0.91684 0.19186 0.35887 0.0
C371 C 0.92761 0.19983 0.33122 0.0
C372 C 0.91467 0.2284 0.3176 0.0
C373 C 0.89033 0.24869 0.33178 0.0
H374 H 0.75394 0.09732 0.67089 0.0
H375 H 0.8126 0.01846 0.62927 0.0
H376 H 0.82203 0.05145 0.58748 0.0
H377 H 0.71738 0.12707 0.60697 0.0
H378 H 0.71458 0.16713 0.61613 0.0
H379 H 0.71627 0.13906 0.64524 0.0
H380 H 0.76386 0.15623 0.66805 0.0
H381 H 0.76188 0.18496 0.63932 0.0
H382 H 0.79711 0.15708 0.64518 0.0
H383 H 0.81892 0.09085 0.54708 0.0
H384 H 0.80598 0.13498 0.51237 0.0
H385 H 0.75007 0.18824 0.58059 0.0
C386 C 0.76962 0.08723 0.6535 0.0
C387 C 0.78269 0.05539 0.65339 0.0
C388 C 0.80241 0.04285 0.62982 0.0
C389 C 0.80795 0.0614 0.60601 0.0
C390 C 0.79376 0.09247 0.60619 0.0
C391 C 0.7753 0.10541 0.62949 0.0
C392 C 0.76052 0.13867 0.62304 0.0
C393 C 0.7251 0.14321 0.62284 0.0
C394 C 0.77152 0.16053 0.64522 0.0
C395 C 0.77302 0.1422 0.59225 0.0
C396 C 0.79222 0.11534 0.58293 0.0
C397 C 0.80445 0.11224 0.55433 0.0
C398 C 0.79686 0.1373 0.53474 0.0
C399 C 0.77739 0.16505 0.54396 0.0
C400 C 0.76561 0.16753 0.57317 0.0
H401 H 0.9586 0.98608 0.92861 0.0
H402 H 0.91637 0.07001 0.97439 0.0
H403 H 0.87546 0.08043 0.93592 0.0
H404 H 0.94201 0.01144 0.85321 0.0
H405 H 0.93307 0.97525 0.8416 0.0
H406 H 0.9601 0.97605 0.87132 0.0
H407 H 0.92768 0.94804 0.9058 0.0
H408 H 0.90041 0.9472 0.87631 0.0
H409 H 0.8874 0.96436 0.91147 0.0
H410 H 0.83932 0.08104 0.89266 0.0
H411 H 0.80844 0.07051 0.84966 0.0
H412 H 0.87296 0.98412 0.8346 0.0
C413 C 0.94108 0.00699 0.93012 0.0
C414 C 0.94073 0.02769 0.95388 0.0
C415 C 0.91696 0.05418 0.956 0.0
C416 C 0.89377 0.06022 0.93433 0.0
C417 C 0.89456 0.03913 0.91123 0.0
C418 C 0.91741 0.01288 0.90922 0.0
C419 C 0.91175 0.99263 0.88368 0.0
C420 C 0.93831 0.98863 0.86112 0.0
C421 C 0.90649 0.96121 0.895 0.0
C422 C 0.88245 0.01193 0.87115 0.0
C423 C 0.87297 0.0387 0.88726 0.0
C424 C 0.84648 0.06015 0.87988 0.0
C425 C 0.82915 0.05398 0.8554 0.0
C426 C 0.83832 0.0265 0.83881 0.0
C427 C 0.86534 0.00531 0.84685 0.0
H428 H 0.0901 0.97221 0.05267 0.0
H429 H 0.01721 0.95795 0.11225 0.0
H430 H 0.05261 0.95695 0.15487 0.0
H431 H 0.15768 0.92918 0.09544 0.0
H432 H 0.18011 0.95789 0.08683 0.0
H433 H 0.15172 0.95001 0.06082 0.0
H434 H 0.12615 0.00787 0.06079 0.0
H435 H 0.15358 0.01611 0.08739 0.0
H436 H 0.11289 0.02654 0.09526 0.0
H437 H 0.09328 0.96466 0.1912 0.0
H438 H 0.13538 0.98228 0.21836 0.0
H439 H 0.17939 -0.00413 0.13499 0.0
C440 C 0.08182 0.96791 0.07457 0.0
C441 C 0.05099 0.96497 0.07921 0.0
C442 C 0.04084 0.96006 0.10826 0.0
C443 C 0.06079 0.95938 0.13255 0.0
C444 C 0.09065 0.96387 0.12731 0.0
C445 C 0.10111 0.96805 0.09899 0.0
C446 C 0.13238 0.97698 0.09948 0.0
C447 C 0.15692 0.95201 0.08478 0.0
C448 C 0.13113 0.00876 0.08489 0.0
C449 C 0.13746 0.97814 0.13255 0.0
C450 C 0.11352 0.96979 0.14826 0.0
C451 C 0.11236 0.97077 0.17917 0.0
C452 C 0.13617 0.98082 0.19437 0.0
C453 C 0.16028 0.99007 0.17849 0.0
C454 C 0.16116 0.98848 0.14737 0.0
H455 H 0.04442 0.36204 0.43405 0.0
H456 H 0.97593 0.44163 0.4066 0.0
H457 H 0.96756 0.4149 0.36012 0.0
H458 H 0.07566 0.33778 0.35998 0.0
H459 H 0.07927 0.29742 0.36867 0.0
H460 H 0.083 0.32448 0.39763 0.0
H461 H 0.03976 0.30636 0.42748 0.0
H462 H 0.03576 0.27942 0.39861 0.0
H463 H 0.00271 0.30765 0.41031 0.0
H464 H 0.96434 0.37825 0.31826 0.0
H465 H 0.96404 0.33348 0.28574 0.0
H466 H 0.0325 0.27691 0.34218 0.0
C467 C 0.02833 0.37418 0.41786 0.0
C468 C 0.01125 0.40408 0.42358 0.0
C469 C -0.01046 0.41883 0.40239 0.0
C470 C -0.01532 0.40387 0.37594 0.0
C471 C 0.00154 0.37412 0.37119 0.0
C472 C 0.02282 0.35938 0.39162 0.0
C473 C 0.03556 0.32633 0.38271 0.0
C474 C 0.07044 0.32121 0.3769 0.0
C475 C 0.02798 0.30362 0.40617 0.0
C476 C 0.01783 0.32462 0.35428 0.0
C477 C -0.0013 0.35255 0.34775 0.0
C478 C 0.97941 0.35634 0.32302 0.0
C479 C 0.97944 0.33077 0.30468 0.0
C480 C -0.00171 0.30173 0.31146 0.0
C481 C 0.01791 0.29882 0.33641 0.0
H482 H 0.68016 0.21602 0.55587 0.0
H483 H 0.61915 0.28362 0.50214 0.0
H484 H 0.58301 0.29488 0.54452 0.0
H485 H 0.62025 0.18598 0.5928 0.0
H486 H 0.64189 0.17958 0.62687 0.0
H487 H 0.66177 0.17833 0.5919 0.0
H488 H 0.69059 0.22102 0.61199 0.0
H489 H 0.66988 0.2211 0.64643 0.0
H490 H 0.66791 0.25648 0.62594 0.0
H491 H 0.55453 0.29924 0.59297 0.0
H492 H 0.53294 0.29342 0.64258 0.0
H493 H 0.61179 0.22087 0.66342 0.0
C494 C 0.65933 0.23343 0.55309 0.0
C495 C 0.6525 0.24935 0.52601 0.0
C496 C 0.62475 0.27138 0.52289 0.0
C497 C 0.60421 0.27793 0.54679 0.0
C498 C 0.61176 0.2619 0.5733 0.0
C499 C 0.63847 0.23986 0.57644 0.0
C500 C 0.64069 0.22497 0.60678 0.0
C501 C 0.64118 0.19016 0.60444 0.0
C502 C 0.66894 0.23125 0.62379 0.0
C503 C 0.61097 0.2421 0.62034 0.0
C504 C 0.59482 0.26356 0.60079 0.0
C505 C 0.56689 0.28247 0.60844 0.0
C506 C 0.55493 0.27908 0.63671 0.0
C507 C 0.57074 0.25666 0.65679 0.0
C508 C 0.59919 0.23811 0.64849 0.0
H509 H 0.72056 -0.00339 0.87329 0.0
H510 H 0.73015 0.94451 0.79116 0.0
H511 H 0.71319 0.90138 0.81691 0.0
H512 H 0.75085 0.93363 0.91941 0.0
H513 H 0.72563 0.94672 0.95014 0.0
H514 H 0.73573 0.97425 0.92446 0.0
H515 H 0.67761 -0.00412 0.91443 0.0
H516 H 0.66739 0.9682 0.93998 0.0
H517 H 0.65327 0.97009 0.90237 0.0
H518 H 0.69974 0.86212 0.85295 0.0
H519 H 0.69162 0.83015 0.89619 0.0
H520 H 0.68988 0.9088 0.95402 0.0
C521 C 0.71857 0.97639 0.86053 0.0
C522 C 0.72648 0.97403 0.83016 0.0
C523 C 0.72409 0.94689 0.81443 0.0
C524 C 0.7144 0.9223 0.82885 0.0
C525 C 0.70711 0.92526 0.85894 0.0
C526 C 0.70908 0.95166 0.87456 0.0
C527 C 0.70211 0.94835 0.90713 0.0
C528 C 0.73025 0.95089 0.92641 0.0
C529 C 0.67338 0.97204 0.91652 0.0
C530 C 0.69603 0.9159 0.90748 0.0
C531 C 0.69899 0.90291 0.8795 0.0
C532 C 0.69683 0.87225 0.87486 0.0
C533 C 0.69216 0.85428 0.89953 0.0
C534 C 0.68963 0.86707 0.92844 0.0
C535 C 0.69092 0.89848 0.93218 0.0
H536 H 0.20531 0.27299 0.07701 0.0
H537 H 0.14578 0.32357 0.00955 0.0
H538 H 0.10439 0.33784 0.04678 0.0
H539 H 0.15069 0.23891 0.10743 0.0
H540 H 0.16356 0.23954 0.14533 0.0
H541 H 0.1905 0.23937 0.11552 0.0
H542 H 0.2049 0.28938 0.13598 0.0
H543 H 0.17798 0.28967 0.16605 0.0
H544 H 0.17501 0.32294 0.14227 0.0
H545 H 0.06737 0.33997 0.0891 0.0
H546 H 0.03714 0.32734 0.13181 0.0
H547 H 0.1207 0.27403 0.17091 0.0
C548 C 0.18397 0.28803 0.07032 0.0
C549 C 0.17879 0.29752 0.04055 0.0
C550 C 0.15021 0.31626 0.03236 0.0
C551 C 0.12667 0.32462 0.05338 0.0
C552 C 0.13215 0.31403 0.08242 0.0
C553 C 0.16017 0.29616 0.09089 0.0
C554 C 0.15888 0.28392 0.12211 0.0
C555 C 0.16633 0.24835 0.1226 0.0
C556 C 0.18048 0.29729 0.14282 0.0
C557 C 0.12541 0.29658 0.12946 0.0
C558 C 0.11053 0.31451 0.10662 0.0
C559 C 0.07889 0.32646 0.10737 0.0
C560 C 0.0619 0.31916 0.13171 0.0
C561 C 0.07659 0.29971 0.15467 0.0
C562 C 0.10886 0.28916 0.15383 0.0
H563 H 0.72048 0.44479 0.40159 0.0
H564 H 0.70546 0.4131 0.31271 0.0
H565 H 0.69825 0.36331 0.33325 0.0
H566 H 0.76553 0.37705 0.42593 0.0
H567 H 0.75098 0.37895 0.46337 0.0
H568 H 0.74977 0.41387 0.44254 0.0
H569 H 0.69075 0.4295 0.45103 0.0
H570 H 0.69181 0.39467 0.47218 0.0
H571 H 0.66626 0.40317 0.44079 0.0
H572 H 0.70059 0.3147 0.36228 0.0
H573 H 0.71018 0.27151 0.3981 0.0
H574 H 0.7227 0.33506 0.46814 0.0
C575 C 0.71472 0.42776 0.38652 0.0
C576 C 0.71339 0.43288 0.35557 0.0
C577 C 0.70647 0.40973 0.33653 0.0
C578 C 0.70227 0.38138 0.34799 0.0
C579 C 0.70481 0.37666 0.37853 0.0
C580 C 0.71054 0.39932 0.39758 0.0
C581 C 0.71499 0.38746 0.42914 0.0
C582 C 0.74723 0.38945 0.44091 0.0
C583 C 0.68942 0.40473 0.44948 0.0
C584 C 0.71193 0.35432 0.42467 0.0
C585 C 0.7058 0.3486 0.39538 0.0
C586 C 0.70472 0.31903 0.3854 0.0
C587 C 0.71033 0.29463 0.40586 0.0
C588 C 0.71689 0.29999 0.43592 0.0
C589 C 0.71713 0.33034 0.44544 0.0
H590 H 0.56501 0.9643 0.58574 0.0
H591 H 0.57441 0.03073 0.51697 0.0
H592 H 0.62289 0.03819 0.53948 0.0
H593 H 0.58569 0.00364 0.64285 0.0
H594 H 0.6075 0.97164 0.66349 0.0
H595 H 0.57763 0.9655 0.6386 0.0
H596 H 0.61651 0.92394 0.61031 0.0
H597 H 0.64659 0.92955 0.63549 0.0
H598 H 0.65161 0.93324 0.59606 0.0
H599 H 0.66218 0.04775 0.57461 0.0
H600 H 0.69373 0.05466 0.61826 0.0
H601 H 0.66139 0.98069 0.66374 0.0
C602 C 0.5779 0.97951 0.57481 0.0
C603 C 0.5659 -0.00305 0.5497 0.0
C604 C 0.58311 0.0171 0.53628 0.0
C605 C 0.61078 0.02145 0.54882 0.0
C606 C 0.62119 0.00513 0.57447 0.0
C607 C 0.6057 0.98405 0.58703 0.0
C608 C 0.61999 0.97219 0.61642 0.0
C609 C 0.59629 0.97866 0.64182 0.0
C610 C 0.63455 0.93768 0.61444 0.0
C611 C 0.64448 0.9915 0.61932 0.0
C612 C 0.64504 0.01 0.59463 0.0
C613 C 0.66278 0.03268 0.59364 0.0
C614 C 0.68033 0.03665 0.6186 0.0
C615 C 0.68006 0.01794 0.64403 0.0
C616 C 0.66247 0.99468 0.64418 0.0
H617 H 0.9783 0.8643 0.98868 0.0
H618 H 0.0124 0.93768 0.94369 0.0
H619 H 0.01797 0.90731 0.89744 0.0
H620 H 0.02677 0.79937 0.95037 0.0
H621 H -0.00366 0.77774 0.94866 0.0
H622 H -0.00245 0.80417 0.97881 0.0
H623 H 0.94182 0.83251 0.96623 0.0
H624 H 0.94047 0.80627 0.93603 0.0
H625 H 0.93308 0.84725 0.92925 0.0
H626 H 0.01621 0.87065 0.85526 0.0
H627 H 0.00775 0.83007 0.82041 0.0
H628 H 0.97506 0.78078 0.89321 0.0
C629 C -0.0124 0.87372 0.96931 0.0
C630 C -0.00476 0.90321 0.9699 0.0
C631 C 0.00667 0.91499 0.94385 0.0
C632 C 0.00989 0.89794 0.91745 0.0
C633 C 0.00167 0.86914 0.91752 0.0
C634 C -0.00915 0.85708 0.94279 0.0
C635 C 0.98189 0.82644 0.93656 0.0
C636 C 0.00184 0.80039 0.95468 0.0
C637 C 0.94727 0.82824 0.94236 0.0
C638 C -0.01072 0.82319 0.90381 0.0
C639 C 0.00066 0.84804 0.89323 0.0
C640 C 0.00767 0.85089 0.86334 0.0
C641 C 0.00275 0.82776 0.84373 0.0
C642 C -0.00898 0.80215 0.85415 0.0
C643 C -0.01548 0.79981 0.88464 0.0
H644 H 0.08485 0.08052 0.03507 0.0
H645 H 0.09429 0.04372 0.9456 0.0
H646 H 0.11199 0.09057 0.92853 0.0
H647 H 0.05465 0.15906 0.01316 0.0
H648 H 0.07378 0.17464 0.04311 0.0
H649 H 0.06258 0.13786 0.04732 0.0
H650 H 0.11962 0.11249 0.06051 0.0
H651 H 0.13018 0.14949 0.05637 0.0
H652 H 0.14986 0.11706 0.03508 0.0
H653 H 0.12968 0.14092 0.92196 0.0
H654 H 0.14957 0.18899 0.92693 0.0
H655 H 0.12481 0.19345 0.02025 0.0
C656 C 0.09118 0.08197 0.01197 0.0
C657 C 0.08869 0.05838 0.99167 0.0
C658 C 0.0964 0.06151 0.9615 0.0
C659 C 0.10618 0.08808 0.95161 0.0
C660 C 0.10749 0.11134 0.97212 0.0
C661 C 0.10028 0.10845 0.00166 0.0
C662 C 0.10323 0.13672 0.01926 0.0
C663 C 0.0717 0.15305 0.03143 0.0
C664 C 0.12714 0.12843 0.04429 0.0
C665 C 0.11446 0.1556 0.99521 0.0
C666 C 0.11641 0.14077 0.96809 0.0
C667 C 0.12801 0.15289 0.943 0.0
C668 C 0.13916 0.18023 0.94602 0.0
C669 C 0.13866 0.19496 0.97396 0.0
C670 C 0.1251 0.18301 -0.00149 0.0
H671 H 0.69581 0.59504 0.29264 0.0
H672 H 0.64233 0.5349 0.33477 0.0
H673 H 0.60222 0.58021 0.34806 0.0
H674 H 0.67208 0.66394 0.34255 0.0
H675 H 0.66994 0.6904 0.31181 0.0
H676 H 0.69737 0.65428 0.31114 0.0
H677 H 0.67494 0.64069 0.26088 0.0
H678 H 0.64752 0.67663 0.26141 0.0
H679 H 0.63427 0.64082 0.25804 0.0
H680 H 0.56527 0.63015 0.35069 0.0
H681 H 0.53226 0.68066 0.33969 0.0
H682 H 0.60859 0.7089 0.29427 0.0
C683 C 0.67615 0.59163 0.30562 0.0
C684 C 0.67226 0.56168 0.31323 0.0
C685 C 0.64573 0.55778 0.32906 0.0
C686 C 0.62298 0.58337 0.33683 0.0
C687 C 0.62706 0.61263 0.32837 0.0
C688 C 0.65293 0.61693 0.31301 0.0
C689 C 0.64963 0.65013 0.30284 0.0
C690 C 0.67369 0.6656 0.318 0.0
C691 C 0.6517 0.65217 0.26879 0.0
C692 C 0.6174 0.66352 0.31387 0.0
C693 C 0.60512 0.64164 0.32913 0.0
C694 C 0.57478 0.64763 0.33923 0.0
C695 C 0.55618 0.67639 0.33279 0.0
C696 C 0.56787 0.69874 0.31618 0.0
C697 C 0.59917 0.6925 0.30745 0.0
H698 H 0.29284 0.8809 0.56493 0.0
H699 H 0.34415 0.78931 0.54379 0.0
H700 H 0.39265 0.80532 0.55728 0.0
H701 H 0.34223 0.91974 0.53182 0.0
H702 H 0.33843 0.95074 0.5583 0.0
H703 H 0.30753 0.93037 0.55355 0.0
H704 H 0.30923 0.91752 0.6098 0.0
H705 H 0.34032 0.93793 0.61462 0.0
H706 H 0.34499 0.89833 0.62649 0.0
H707 H 0.43569 0.83332 0.56441 0.0
H708 H 0.46949 0.87141 0.56278 0.0
H709 H 0.39028 0.94478 0.57941 0.0
C710 C 0.31416 0.86391 0.56417 0.0
C711 C 0.31473 0.83382 0.55354 0.0
C712 C 0.34319 0.81248 0.552 0.0
C713 C 0.37084 0.8213 0.5598 0.0
C714 C 0.36963 0.85149 0.56925 0.0
C715 C 0.34198 0.87245 0.57162 0.0
C716 C 0.34722 0.90451 0.5783 0.0
C717 C 0.33303 0.92767 0.55404 0.0
C718 C 0.3347 0.91519 0.60915 0.0
C719 C 0.3821 0.89863 0.57776 0.0
C720 C 0.39465 0.86779 0.57321 0.0
C721 C 0.4262 0.85741 0.56868 0.0
C722 C 0.44524 0.87924 0.56777 0.0
C723 C 0.43256 0.91107 0.57105 0.0
C724 C 0.40078 0.92059 0.57725 0.0
H725 H 0.09028 0.7128 0.78257 0.0
H726 H 0.01601 0.66252 0.79199 0.0
H727 H 0.05403 0.61487 0.8022 0.0
H728 H 0.13744 0.66026 0.74259 0.0
H729 H 0.17337 0.66491 0.75903 0.0
H730 H 0.14067 0.69629 0.75972 0.0
H731 H 0.14444 0.69919 0.817 0.0
H732 H 0.17747 0.6678 0.81649 0.0
H733 H 0.14444 0.66512 0.83901 0.0
H734 H 0.09895 0.5718 0.80029 0.0
H735 H 0.14784 0.53647 0.78803 0.0
H736 H 0.19352 0.61429 0.78135 0.0
C737 C 0.08196 0.69197 0.78771 0.0
C738 C 0.05024 0.69131 0.78635 0.0
C739 C 0.04023 0.66357 0.79291 0.0
C740 C 0.06166 0.63641 0.79892 0.0
C741 C 0.09289 0.63755 0.79884 0.0
C742 C 0.10304 0.66472 0.79387 0.0
C743 C 0.13782 0.65907 0.79131 0.0
C744 C 0.14788 0.67081 0.76139 0.0
C745 C 0.15187 0.67366 0.81752 0.0
C746 C 0.14542 0.62424 0.79321 0.0
C747 C 0.11925 0.61234 0.79831 0.0
C748 C 0.11975 0.58078 0.79718 0.0
C749 C 0.14754 0.56094 0.78998 0.0
C750 C 0.17435 0.57277 0.78397 0.0
C751 C 0.17348 0.60467 0.78656 0.0
H752 H 0.84204 0.30949 0.47732 0.0
H753 H 0.80316 0.32344 0.56572 0.0
H754 H 0.84691 0.34745 0.58108 0.0
H755 H 0.92094 0.28819 0.50085 0.0
H756 H 0.93535 0.30676 0.46976 0.0
H757 H 0.90065 0.29164 0.46592 0.0
H758 H 0.87061 0.34523 0.44868 0.0
H759 H 0.90526 0.36041 0.45199 0.0
H760 H 0.87092 0.37858 0.47155 0.0
H761 H 0.89307 0.37408 0.58457 0.0
H762 H 0.9389 0.39774 0.57683 0.0
H763 H 0.94928 0.35981 0.48802 0.0
C764 C 0.84255 0.31786 0.49986 0.0
C765 C 0.81914 0.31523 0.52028 0.0
C766 C 0.82092 0.32561 0.54978 0.0
C767 C 0.84564 0.33914 0.55864 0.0
C768 C 0.86853 0.34124 0.53787 0.0
C769 C 0.86727 0.33054 0.50919 0.0
C770 C 0.89481 0.33476 0.49112 0.0
C771 C 0.91408 0.30347 0.48136 0.0
C772 C 0.88479 0.35601 0.46427 0.0
C773 C 0.91166 0.35009 0.5139 0.0
C774 C 0.89611 0.35399 0.54069 0.0
C775 C 0.90584 0.37048 0.56397 0.0
C776 C 0.93181 0.38375 0.55947 0.0
C777 C 0.94792 0.37969 0.53221 0.0
C778 C 0.93803 0.36217 0.50949 0.0
H779 H 0.36155 0.96427 0.26139 0.0
H780 H 0.29993 0.92498 0.20484 0.0
H781 H 0.34129 0.87978 0.19571 0.0
H782 H 0.43378 0.93402 0.21873 0.0
H783 H 0.45665 0.92645 0.25201 0.0
H784 H 0.42368 0.95787 0.25103 0.0
H785 H 0.40096 0.93536 0.29716 0.0
H786 H 0.43383 0.90402 0.29828 0.0
H787 H 0.39548 0.89606 0.29632 0.0
H788 H 0.38588 0.83622 0.198 0.0
H789 H 0.43151 0.79673 0.21173 0.0
H790 H 0.46572 0.86393 0.26532 0.0
C791 C 0.357 0.94649 0.24654 0.0
C792 C 0.32749 0.94822 0.23377 0.0
C793 C 0.3223 0.92419 0.21491 0.0
C794 C 0.34572 0.89848 0.20942 0.0
C795 C 0.37433 0.89718 0.22277 0.0
C796 C 0.38019 0.92055 0.24084 0.0
C797 C 0.41216 0.91211 0.25443 0.0
C798 C 0.43279 0.93391 0.24338 0.0
C799 C 0.41049 0.91186 0.28856 0.0
C800 C 0.42277 0.87986 0.24212 0.0
C801 C 0.40068 0.87192 0.2236 0.0
C802 C 0.40368 0.84236 0.21187 0.0
C803 C 0.42958 0.8201 0.21981 0.0
C804 C 0.4522 0.82759 0.23908 0.0
C805 C 0.44916 0.85801 0.24978 0.0
H806 H 0.29191 0.42317 0.7245 0.0
H807 H 0.34653 0.49454 0.72339 0.0
H808 H 0.39402 0.45461 0.71975 0.0
H809 H 0.34033 0.37276 0.77087 0.0
H810 H 0.33535 0.33778 0.75276 0.0
H811 H 0.30524 0.37173 0.75089 0.0
H812 H 0.30635 0.36938 0.69345 0.0
H813 H 0.33635 0.3352 0.6951 0.0
H814 H 0.34224 0.3683 0.67417 0.0
H815 H 0.43504 0.40805 0.72048 0.0
H816 H 0.46835 0.35713 0.72675 0.0
H817 H 0.38772 0.31485 0.72914 0.0
C818 C 0.31382 0.43041 0.72272 0.0
C819 C 0.31561 0.46193 0.72395 0.0
C820 C 0.3447 0.47051 0.72231 0.0
C821 C 0.37175 0.44803 0.72015 0.0
C822 C 0.36923 0.41715 0.71963 0.0
C823 C 0.34108 0.40824 0.72081 0.0
C824 C 0.34508 0.37341 0.72242 0.0
C825 C 0.33065 0.36335 0.75094 0.0
C826 C 0.33171 0.36083 0.69463 0.0
C827 C 0.37993 0.36423 0.723 0.0
C828 C 0.39325 0.38989 0.72081 0.0
C829 C 0.42495 0.38773 0.72188 0.0
C830 C 0.44365 0.35859 0.72553 0.0
C831 C 0.43065 0.33188 0.72841 0.0
C832 C 0.39832 0.33477 0.72681 0.0
H833 H 0.19467 0.78602 0.58172 0.0
H834 H 0.12903 0.82021 0.51192 0.0
H835 H 0.08614 0.81674 0.54585 0.0
H836 H 0.158 0.73119 0.60883 0.0
H837 H 0.16554 0.73607 0.64766 0.0
H838 H 0.19134 0.74597 0.62013 0.0
H839 H 0.18422 0.80143 0.64069 0.0
H840 H 0.15901 0.79171 0.66902 0.0
H841 H 0.14591 0.8243 0.64497 0.0
H842 H 0.0514 0.80113 0.58366 0.0
H843 H 0.02604 0.78048 0.62591 0.0
H844 H 0.11336 0.75898 0.67253 0.0
C845 C 0.17126 0.79388 0.57391 0.0
C846 C 0.16514 0.80332 0.54416 0.0
C847 C 0.1342 0.81291 0.53463 0.0
C848 C 0.1097 0.81098 0.55372 0.0
C849 C 0.11654 0.80004 0.58244 0.0
C850 C 0.1465 0.79231 0.59278 0.0
C851 C 0.14757 0.7793 0.62401 0.0
C852 C 0.16673 0.74617 0.6252 0.0
C853 C 0.1599 0.80046 0.64598 0.0
C854 C 0.11362 0.77987 0.62914 0.0
C855 C 0.09617 0.79195 0.60484 0.0
C856 C 0.06465 0.7924 0.60313 0.0
C857 C 0.0505 0.78049 0.62704 0.0
C858 C 0.06782 0.76868 0.6523 0.0
C859 C 0.09968 0.76852 0.65354 0.0
H860 H 0.25394 0.94025 0.32751 0.0
H861 H 0.17929 0.01413 0.35485 0.0
H862 H 0.16636 0.98135 0.39542 0.0
H863 H 0.21681 0.87419 0.34782 0.0
H864 H 0.2527 0.85153 0.36116 0.0
H865 H 0.25277 0.87879 0.33139 0.0
H866 H 0.29019 0.90507 0.3615 0.0
H867 H 0.28996 0.87825 0.39151 0.0
H868 H 0.27948 0.91916 0.39829 0.0
H869 H 0.16566 0.94358 0.43644 0.0
H870 H 0.17618 0.90264 0.47445 0.0
H871 H 0.25182 0.85317 0.42119 0.0
C872 C 0.23414 0.94907 0.34134 0.0
C873 C 0.21728 0.97957 0.33779 0.0
C874 C 0.19228 0.99072 0.35703 0.0
C875 C 0.18478 0.97228 0.38013 0.0
C876 C 0.20255 0.94273 0.38373 0.0
C877 C 0.22659 0.93106 0.36476 0.0
C878 C 0.24396 0.8998 0.3753 0.0
C879 C 0.24139 0.87458 0.35256 0.0
C880 C 0.2779 0.90064 0.38205 0.0
C881 C 0.22629 0.896 0.40342 0.0
C882 C 0.20237 0.92095 0.40774 0.0
C883 C 0.18401 0.92369 0.43307 0.0
C884 C 0.19026 0.90037 0.45462 0.0
C885 C 0.21469 0.8746 0.45075 0.0
C886 C 0.23269 0.87234 0.42461 0.0
H887 H -0.00761 0.67934 0.68653 0.0
H888 H 0.91671 0.75349 0.66199 0.0
H889 H 0.89252 0.71655 0.63409 0.0
H890 H 0.00111 0.64632 0.61826 0.0
H891 H 0.01108 0.60683 0.63071 0.0
H892 H 0.01859 0.63722 0.65417 0.0
H893 H -0.0134 0.61868 0.6962 0.0
H894 H 0.97888 0.58822 0.6726 0.0
H895 H 0.94738 0.61509 0.68909 0.0
H896 H 0.8805 0.67399 0.60341 0.0
H897 H 0.88421 0.63085 0.56827 0.0
H898 H 0.9688 0.58445 0.61101 0.0
C899 C 0.9702 0.68752 0.6761 0.0
C900 C 0.95614 0.71908 0.67663 0.0
C901 C 0.9277 0.7293 0.6619 0.0
C902 C 0.91369 0.70845 0.64625 0.0
C903 C 0.92849 0.67752 0.64549 0.0
C904 C 0.95622 0.66708 0.65993 0.0
C905 C 0.96977 0.63391 0.65188 0.0
C906 C 0.00202 0.63093 0.63791 0.0
C907 C 0.9707 0.61272 0.67907 0.0
C908 C 0.9462 0.62789 0.62944 0.0
C909 C 0.92207 0.65298 0.62682 0.0
C910 C 0.89898 0.65399 0.6056 0.0
C911 C 0.90131 0.62935 0.58569 0.0
C912 C 0.92684 0.6043 0.58683 0.0
C913 C 0.9488 0.60307 0.6098 0.0
H914 H 0.32271 0.75215 0.45343 0.0
H915 H 0.25321 0.72079 0.40026 0.0
H916 H 0.2897 0.7115 0.35812 0.0
H917 H 0.34927 0.79406 0.39732 0.0
H918 H 0.38913 0.78516 0.40868 0.0
H919 H 0.35913 0.78547 0.43565 0.0
H920 H 0.38342 0.72933 0.4509 0.0
H921 H 0.41371 0.72889 0.42409 0.0
H922 H 0.39062 0.69964 0.42297 0.0
H923 H 0.33278 0.70949 0.32061 0.0
H924 H 0.37821 0.71571 0.29096 0.0
H925 H 0.41812 0.74984 0.36899 0.0
C926 C 0.31534 0.74261 0.43319 0.0
C927 C 0.28521 0.73692 0.43022 0.0
C928 C 0.27627 0.72515 0.40308 0.0
C929 C 0.29684 0.71976 0.37905 0.0
C930 C 0.32618 0.72632 0.38256 0.0
C931 C 0.33539 0.73743 0.40901 0.0
C932 C 0.36714 0.74498 0.4065 0.0
C933 C 0.36608 0.77946 0.41237 0.0
C934 C 0.39008 0.72448 0.42735 0.0
C935 C 0.37422 0.73687 0.37436 0.0
C936 C 0.35053 0.72583 0.36094 0.0
C937 C 0.35158 0.71787 0.33098 0.0
C938 C 0.37745 0.72151 0.31432 0.0
C939 C 0.4017 0.73328 0.32764 0.0
C940 C 0.40002 0.74074 0.35812 0.0
H941 H 0.24361 0.03296 0.10864 0.0
H942 H 0.26466 0.08719 0.18324 0.0
H943 H 0.26463 0.13142 0.14973 0.0
H944 H 0.28912 0.0649 0.05288 0.0
H945 H 0.26091 0.06436 0.02413 0.0
H946 H 0.26535 0.03621 0.05359 0.0
H947 H 0.20718 0.05264 0.06598 0.0
H948 H 0.20263 0.08087 0.03669 0.0
H949 H 0.19127 0.09254 0.07404 0.0
H950 H 0.25866 0.17089 0.10871 0.0
H951 H 0.24798 0.20232 0.06314 0.0
H952 H 0.23053 0.12226 0.01555 0.0
C953 C 0.24883 0.05392 0.11787 0.0
C954 C 0.25434 0.05653 0.14855 0.0
C955 C 0.26052 0.08458 0.15979 0.0
C956 C 0.26056 0.10984 0.14093 0.0
C957 C 0.25444 0.10668 0.1109 0.0
C958 C 0.24884 0.07937 0.09941 0.0
C959 C 0.24129 0.08246 0.06664 0.0
C960 C 0.26563 0.06069 0.04823 0.0
C961 C 0.20865 0.0768 0.06049 0.0
C962 C 0.24311 0.11589 0.06156 0.0
C963 C 0.25088 0.12942 0.08731 0.0
C964 C 0.25289 0.16045 0.08833 0.0
C965 C 0.24677 0.17812 0.06232 0.0
C966 C 0.23868 0.16472 0.03568 0.0
C967 C 0.23701 0.13313 0.03542 0.0
H968 H 0.78126 0.77978 0.93646 0.0
H969 H 0.80365 0.67999 0.94418 0.0
H970 H 0.83801 0.67733 0.90099 0.0
H971 H 0.78355 0.7838 0.85544 0.0
H972 H 0.80135 0.81706 0.85512 0.0
H973 H 0.77637 0.81135 0.88532 0.0
H974 H 0.81985 0.81435 0.92301 0.0
H975 H 0.84485 0.82033 0.89302 0.0
H976 H 0.85694 0.78903 0.91877 0.0
H977 H 0.87145 0.68502 0.85897 0.0
H978 H 0.90497 0.70286 0.82208 0.0
H979 H 0.86248 0.798 0.84178 0.0
C980 C 0.79327 0.75744 0.92899 0.0
C981 C 0.78979 0.73018 0.94381 0.0
C982 C 0.806 0.70127 0.93333 0.0
C983 C 0.82545 0.69946 0.90868 0.0
C984 C 0.82853 0.72676 0.89474 0.0
C985 C 0.81309 0.75525 0.90455 0.0
C986 C 0.82209 0.78111 0.88661 0.0
C987 C 0.79417 0.7994 0.86961 0.0
C988 C 0.83682 0.80244 0.90654 0.0
C989 C 0.84552 0.76259 0.86565 0.0
C990 C 0.84844 0.73129 0.87051 0.0
C991 C 0.86931 0.70945 0.85478 0.0
C992 C 0.88827 0.71984 0.83388 0.0
C993 C 0.8864 0.75181 0.82905 0.0
C994 C 0.86431 0.77341 0.84481 0.0
H995 H 0.26172 0.54893 0.61912 0.0
H996 H 0.24476 0.60842 0.69628 0.0
H997 H 0.24269 0.65406 0.66391 0.0
H998 H 0.30796 0.59461 0.57642 0.0
H999 H 0.29075 0.58669 0.54178 0.0
H1000 H 0.29494 0.55884 0.5715 0.0
H1001 H 0.23628 0.55932 0.56926 0.0
H1002 H 0.23186 0.58723 0.53972 0.0
H1003 H 0.20921 0.59542 0.57304 0.0
H1004 H 0.23772 0.69343 0.62221 0.0
H1005 H 0.22959 0.72281 0.57519 0.0
H1006 H 0.24875 0.63695 0.52582 0.0
C1007 C 0.25835 0.57146 0.6294 0.0
C1008 C 0.2537 0.57506 0.6603 0.0
C1009 C 0.24864 0.60507 0.67269 0.0
C1010 C 0.24745 0.63112 0.65447 0.0
C1011 C 0.25139 0.62674 0.62396 0.0
C1012 C 0.25684 0.5976 0.61157 0.0
C1013 C 0.25772 0.59906 0.57805 0.0
C1014 C 0.28975 0.5839 0.56625 0.0
C1015 C 0.23225 0.5844 0.56422 0.0
C1016 C 0.25133 0.63361 0.57338 0.0
C1017 C 0.24808 0.64925 0.60008 0.0
C1018 C 0.24063 0.68139 0.6012 0.0
C1019 C 0.23607 0.69788 0.57436 0.0
C1020 C 0.23869 0.68218 0.54679 0.0
C1021 C 0.24683 0.64966 0.54647 0.0
H1022 H 0.33912 0.04353 0.36048 0.0
H1023 H 0.27417 0.98496 0.38069 0.0
H1024 H 0.28138 0.99257 0.4343 0.0
H1025 H 0.3917 0.01129 0.41352 0.0
H1026 H 0.4045 0.0463 0.42281 0.0
H1027 H 0.38893 0.04197 0.38665 0.0
H1028 H 0.34853 0.09262 0.39455 0.0
H1029 H 0.36379 0.09668 0.4311 0.0
H1030 H 0.32342 0.09627 0.42639 0.0
H1031 H 0.29979 0.00119 0.48477 0.0
H1032 H 0.3342 0.00249 0.52756 0.0
H1033 H 0.3896 0.05292 0.4748 0.0
C1034 C 0.32593 0.03306 0.37635 0.0
C1035 C 0.30591 0.01402 0.36687 0.0
C1036 C 0.28959 -0.00029 0.38786 0.0
C1037 C 0.29323 0.00423 0.41825 0.0
C1038 C 0.31349 0.02287 0.42713 0.0
C1039 C 0.32995 0.03668 0.4068 0.0
C1040 C 0.35413 0.05099 0.42199 0.0
C1041 C 0.38672 0.03677 0.41058 0.0
C1042 C 0.34702 0.08624 0.41829 0.0
C1043 C 0.34961 0.04185 0.4538 0.0
C1044 C 0.3253 0.02667 0.45645 0.0
C1045 C 0.31854 0.01351 0.48315 0.0
C1046 C 0.33813 0.01446 0.50739 0.0
C1047 C 0.36447 0.0278 0.50434 0.0
C1048 C 0.36937 0.04289 0.4777 0.0
H1049 H 0.79762 0.86699 0.95566 0.0
H1050 H 0.77212 0.85173 0.04669 0.0
H1051 H 0.80693 0.88531 0.06422 0.0
H1052 H 0.87689 0.86501 0.96977 0.0
H1053 H 0.87976 0.89434 0.94271 0.0
H1054 H 0.85198 0.87009 0.93774 0.0
H1055 H 0.80849 0.9187 0.93384 0.0
H1056 H 0.83591 0.94326 0.93932 0.0
H1057 H 0.80295 0.94655 0.96349 0.0
H1058 H 0.84695 0.91849 0.07162 0.0
H1059 H 0.8882 0.9489 0.06803 0.0
H1060 H 0.88537 0.94255 0.97199 0.0
C1061 C 0.79915 0.87079 0.9793 0.0
C1062 C 0.78221 0.85677 -0.00016 0.0
C1063 C 0.78494 0.86229 0.03057 0.0
C1064 C 0.8046 0.88134 0.04073 0.0
C1065 C 0.82114 0.89466 0.01982 0.0
C1066 C 0.81853 0.88964 0.98975 0.0
C1067 C 0.83935 0.90581 0.97178 0.0
C1068 C 0.86341 0.88242 0.9545 0.0
C1069 C 0.82054 0.93003 0.95089 0.0
C1070 C 0.85416 0.92074 0.99644 0.0
C1071 C 0.84354 0.91405 0.02403 0.0
C1072 C 0.85522 0.92416 0.05013 0.0
C1073 C 0.8786 0.94136 0.0479 0.0
C1074 C 0.88974 0.94828 0.01977 0.0
C1075 C 0.87703 0.93806 0.99384 0.0
H1076 H 0.6579 0.15775 0.51573 0.0
H1077 H 0.67388 0.14947 0.4209 0.0
H1078 H 0.62389 0.13257 0.41479 0.0
H1079 H 0.62405 0.09347 0.52576 0.0
H1080 H 0.5963 0.11176 0.55274 0.0
H1081 H 0.6326 0.1238 0.549 0.0
H1082 H 0.60438 0.18034 0.53951 0.0
H1083 H 0.56791 0.1686 0.54394 0.0
H1084 H 0.57572 0.18837 0.51066 0.0
H1085 H 0.57321 0.11319 0.42059 0.0
H1086 H 0.52756 0.09326 0.43745 0.0
H1087 H 0.54482 0.11907 0.52782 0.0
C1088 C 0.65112 0.1521 0.49365 0.0
C1089 C 0.66989 0.15427 0.46881 0.0
C1090 C 0.65981 0.14757 0.44021 0.0
C1091 C 0.63147 0.13815 0.43657 0.0
C1092 C 0.6134 0.1364 0.46168 0.0
C1093 C 0.62286 0.14347 0.4896 0.0
C1094 C 0.59966 0.13992 0.51318 0.0
C1095 C 0.614 0.1158 0.53653 0.0
C1096 C 0.58611 0.17116 0.52768 0.0
C1097 C 0.57595 0.12865 0.49441 0.0
C1098 C 0.58403 0.12686 0.46474 0.0
C1099 C 0.56646 0.11493 0.44369 0.0
C1100 C 0.54053 0.10377 0.45344 0.0
C1101 C 0.53254 0.10473 0.48392 0.0
C1102 C 0.55004 0.11824 0.50432 0.0
H1103 H 0.82286 0.44547 0.24462 0.0
H1104 H 0.74743 0.39751 0.2311 0.0
H1105 H 0.78483 0.35078 0.21582 0.0
H1106 H 0.87111 0.4102 0.183 0.0
H1107 H 0.90628 0.40845 0.20369 0.0
H1108 H 0.87328 0.43862 0.21112 0.0
H1109 H 0.87523 0.42266 0.2666 0.0
H1110 H 0.90813 0.39244 0.25938 0.0
H1111 H 0.87416 0.38335 0.27636 0.0
H1112 H 0.8313 0.30785 0.20638 0.0
H1113 H 0.88244 0.27308 0.20258 0.0
H1114 H 0.92661 0.35014 0.2214 0.0
C1115 C 0.81406 0.42534 0.23801 0.0
C1116 C 0.78218 0.4252 0.23898 0.0
C1117 C 0.77175 0.39822 0.2304 0.0
C1118 C 0.79282 0.37157 0.22169 0.0
C1119 C 0.82417 0.37238 0.22148 0.0
C1120 C 0.83468 0.39868 0.22925 0.0
C1121 C 0.86953 0.3933 0.22865 0.0
C1122 C 0.8807 0.41386 0.20521 0.0
C1123 C 0.88251 0.39822 0.25958 0.0
C1124 C 0.8771 0.3597 0.21975 0.0
C1125 C 0.8507 0.34798 0.21564 0.0
C1126 C 0.8521 0.31692 0.20912 0.0
C1127 C 0.88124 0.29734 0.20703 0.0
C1128 C 0.90854 0.30894 0.21137 0.0
C1129 C 0.90625 0.34063 0.2174 0.0
H1130 H 0.07375 0.58476 0.46746 0.0
H1131 H -0.01119 0.63972 0.50232 0.0
H1132 H 0.01138 0.68615 0.49969 0.0
H1133 H 0.12345 0.61933 0.50729 0.0
H1134 H 0.15185 0.61865 0.47849 0.0
H1135 H 0.12774 0.5904 0.47864 0.0
H1136 H 0.10924 0.60633 0.42526 0.0
H1137 H 0.13355 0.63453 0.42478 0.0
H1138 H 0.09287 0.64618 0.41725 0.0
H1139 H 0.0454 0.72424 0.50163 0.0
H1140 H 0.088 0.75272 0.50423 0.0
H1141 H 0.15018 0.67469 0.4653 0.0
C1142 C 0.0596 0.6067 0.47376 0.0
C1143 C 0.02952 0.60856 0.48509 0.0
C1144 C 0.0119 0.63766 0.4935 0.0
C1145 C 0.02448 0.66424 0.49204 0.0
C1146 C 0.05452 0.66146 0.48166 0.0
C1147 C 0.07174 0.63356 0.47221 0.0
C1148 C 0.10426 0.63653 0.46412 0.0
C1149 C 0.12822 0.61496 0.48329 0.0
C1150 C 0.11033 0.63054 0.43087 0.0
C1151 C 0.10298 0.67011 0.4717 0.0
C1152 C 0.07398 0.68407 0.48164 0.0
C1153 C 0.06794 0.71391 0.49306 0.0
C1154 C 0.09224 0.72984 0.49457 0.0
C1155 C 0.122 0.71602 0.48436 0.0
C1156 C 0.12731 0.68603 0.47231 0.0
H1157 H 0.64945 0.06502 0.75175 0.0
H1158 H 0.7142 0.11164 0.79622 0.0
H1159 H 0.67128 0.15322 0.8113 0.0
H1160 H 0.60549 0.12909 0.72062 0.0
H1161 H 0.56877 0.1178 0.72479 0.0
H1162 H 0.60347 0.08882 0.72247 0.0
H1163 H 0.59023 0.06565 0.77256 0.0
H1164 H 0.5554 0.09476 0.77506 0.0
H1165 H 0.58312 0.08999 0.80487 0.0
H1166 H 0.6241 0.1931 0.8143 0.0
H1167 H 0.57538 0.22962 0.80392 0.0
H1168 H 0.54015 0.15752 0.75859 0.0
C1169 C 0.65447 0.08358 0.76534 0.0
C1170 C 0.6851 0.08513 0.77286 0.0
C1171 C 0.69088 0.11004 0.79015 0.0
C1172 C 0.66663 0.13362 0.79907 0.0
C1173 C 0.63676 0.13179 0.79074 0.0
C1174 C 0.6305 0.10737 0.77436 0.0
C1175 C 0.59688 0.11282 0.76529 0.0
C1176 C 0.59348 0.11211 0.73129 0.0
C1177 C 0.58044 0.08941 0.78035 0.0
C1178 C 0.58569 0.14494 0.77757 0.0
C1179 C 0.60895 0.1551 0.79277 0.0
C1180 C 0.60545 0.18521 0.80315 0.0
C1181 C 0.57783 0.20579 0.79705 0.0
C1182 C 0.55416 0.19609 0.7808 0.0
C1183 C 0.55768 0.16509 0.77181 0.0
H1184 H 0.76701 0.5173 0.15808 0.0
H1185 H 0.73644 0.58112 0.23002 0.0
H1186 H 0.7508 0.62333 0.20067 0.0
H1187 H 0.83178 0.5543 0.13152 0.0
H1188 H 0.82381 0.54652 0.09337 0.0
H1189 H 0.81678 0.5205 0.12223 0.0
H1190 H 0.76008 0.5266 0.10463 0.0
H1191 H 0.76687 0.55257 0.07588 0.0
H1192 H 0.73621 0.56467 0.10222 0.0
H1193 H 0.75954 0.65979 0.16027 0.0
H1194 H 0.76236 0.68702 0.11279 0.0
H1195 H 0.78858 0.59896 0.06793 0.0
C1196 C 0.76416 0.53996 0.16803 0.0
C1197 C 0.75069 0.54594 0.1963 0.0
C1198 C 0.74697 0.57597 0.20844 0.0
C1199 C 0.75513 0.60008 0.19196 0.0
C1200 C 0.76744 0.5936 0.16366 0.0
C1201 C 0.7723 0.56414 0.15197 0.0
C1202 C 0.78262 0.5637 0.11998 0.0
C1203 C 0.81572 0.54516 0.11659 0.0
C1204 C 0.76009 0.55117 0.0995 0.0
C1205 C 0.78122 0.59774 0.11494 0.0
C1206 C 0.77294 0.61461 0.14049 0.0
C1207 C 0.76682 0.64678 0.14033 0.0
C1208 C 0.76845 0.66205 0.11323 0.0
C1209 C 0.77594 0.6451 0.08668 0.0
C1210 C 0.78338 0.61259 0.08789 0.0
H1211 H 0.90818 0.54182 0.44464 0.0
H1212 H 0.93301 0.45208 0.48676 0.0
H1213 H 0.90294 0.43017 0.44929 0.0
H1214 H 0.83094 0.53784 0.42819 0.0
H1215 H 0.83024 0.55738 0.39298 0.0
H1216 H 0.85551 0.56523 0.422 0.0
H1217 H 0.9023 0.55095 0.38649 0.0
H1218 H 0.87716 0.5429 0.35738 0.0
H1219 H 0.90978 0.51381 0.36858 0.0
H1220 H 0.86872 0.4186 0.40787 0.0
H1221 H 0.831 0.41885 0.36737 0.0
H1222 H 0.82758 0.51661 0.35343 0.0
C1223 C 0.90738 0.51754 0.44592 0.0
C1224 C 0.92337 0.49849 0.46832 0.0
C1225 C 0.92155 0.4669 0.46939 0.0
C1226 C 0.90444 0.45428 0.44824 0.0
C1227 C 0.88917 0.47366 0.42625 0.0
C1228 C 0.89039 0.50463 0.42502 0.0
C1229 C 0.871 0.52076 0.39983 0.0
C1230 C 0.8454 0.54683 0.41146 0.0
C1231 C 0.89127 0.53281 0.3767 0.0
C1232 C 0.85793 0.49426 0.38764 0.0
C1233 C 0.86905 0.46716 0.40284 0.0
C1234 C 0.85994 0.43966 0.39573 0.0
C1235 C 0.83856 0.44002 0.37268 0.0
C1236 C 0.82632 0.46778 0.35736 0.0
C1237 C 0.83645 0.49508 0.36482 0.0
H1238 H 0.1339 0.55678 0.64374 0.0
H1239 H 0.19109 0.46497 0.65026 0.0
H1240 H 0.16376 0.44829 0.60764 0.0
H1241 H 0.06535 0.53407 0.62962 0.0
H1242 H 0.05043 0.56411 0.60332 0.0
H1243 H 0.07746 0.57062 0.63119 0.0
H1244 H 0.11361 0.58441 0.5903 0.0
H1245 H 0.0866 0.57792 0.56221 0.0
H1246 H 0.12611 0.55748 0.5607 0.0
H1247 H 0.12744 0.43972 0.56859 0.0
H1248 H 0.08205 0.43883 0.53738 0.0
H1249 H 0.04752 0.53594 0.55591 0.0
C1250 C 0.141 0.53332 0.63587 0.0
C1251 C 0.1646 0.51216 0.65033 0.0
C1252 C 0.17301 0.48156 0.6396 0.0
C1253 C 0.15783 0.47193 0.61522 0.0
C1254 C 0.13444 0.4932 0.60169 0.0
C1255 C 0.12601 0.52328 0.61155 0.0
C1256 C 0.09812 0.54059 0.59478 0.0
C1257 C 0.07126 0.55305 0.616 0.0
C1258 C 0.10663 0.56664 0.57588 0.0
C1259 C 0.09112 0.51493 0.57536 0.0
C1260 C 0.11292 0.48809 0.5791 0.0
C1261 C 0.11042 0.46068 0.56513 0.0
C1262 C 0.08446 0.46039 0.54752 0.0
C1263 C 0.06115 0.48727 0.54433 0.0
C1264 C 0.06505 0.51509 0.55777 0.0
H1265 H 0.59371 0.79076 0.18027 0.0
H1266 H 0.62491 0.69306 0.19866 0.0
H1267 H 0.65443 0.6872 0.15196 0.0
H1268 H 0.58397 0.78387 0.10253 0.0
H1269 H 0.59792 0.81825 0.09304 0.0
H1270 H 0.57997 0.81535 0.12852 0.0
H1271 H 0.62844 0.82627 0.15539 0.0
H1272 H 0.64636 0.8297 0.12 0.0
H1273 H 0.66568 0.80272 0.14724 0.0
H1274 H 0.67789 0.69113 0.10191 0.0
H1275 H 0.69824 0.70572 0.05427 0.0
H1276 H 0.65385 0.80119 0.06903 0.0
C1277 C 0.60705 0.76821 0.17467 0.0
C1278 C 0.60689 0.74236 0.19313 0.0
C1279 C 0.62459 0.71323 0.1849 0.0
C1280 C 0.64138 0.70961 0.15835 0.0
C1281 C 0.64041 0.73538 0.14032 0.0
C1282 C 0.62408 0.7642 0.14827 0.0
C1283 C 0.62698 0.78811 0.12486 0.0
C1284 C 0.59533 0.80222 0.11145 0.0
C1285 C 0.64282 0.81317 0.13764 0.0
C1286 C 0.6474 0.76818 0.10248 0.0
C1287 C 0.65466 0.7378 0.11175 0.0
C1288 C 0.67271 0.71493 0.0946 0.0
C1289 C 0.68428 0.72348 0.06759 0.0
C1290 C 0.67821 0.75467 0.05815 0.0
C1291 C 0.65905 0.77717 0.07567 0.0
H1292 H 0.63474 0.47832 0.18505 0.0
H1293 H 0.62237 0.57771 0.19446 0.0
H1294 H 0.58755 0.58482 0.1511 0.0
H1295 H 0.6363 0.4764 0.10638 0.0
H1296 H 0.61526 0.44561 0.10332 0.0
H1297 H 0.63837 0.4483 0.13572 0.0
H1298 H 0.59078 0.44913 0.1695 0.0
H1299 H 0.56758 0.44609 0.13721 0.0
H1300 H 0.55603 0.47745 0.1629 0.0
H1301 H 0.55581 0.58095 0.10506 0.0
H1302 H 0.52733 0.5662 0.06204 0.0
H1303 H 0.55968 0.46952 0.0839 0.0
C1304 C 0.62455 0.50159 0.17816 0.0
C1305 C 0.63133 0.52744 0.19314 0.0
C1306 C 0.6175 0.55752 0.18337 0.0
C1307 C 0.59774 0.56182 0.15871 0.0
C1308 C 0.59192 0.53582 0.14417 0.0
C1309 C 0.6047 0.50631 0.15371 0.0
C1310 C 0.59486 0.48221 0.1342 0.0
C1311 C 0.62287 0.46194 0.11901 0.0
C1312 C 0.5762 0.46257 0.15202 0.0
C1313 C 0.57475 0.50275 0.11204 0.0
C1314 C 0.57338 0.53361 0.11807 0.0
C1315 C 0.55655 0.55684 0.10028 0.0
C1316 C 0.54042 0.54825 0.07591 0.0
C1317 C 0.541 0.51673 0.06977 0.0
C1318 C 0.55864 0.49381 0.08803 0.0
H1319 H 0.38782 0.44828 0.99026 0.0
H1320 H 0.43533 0.41455 0.07147 0.0
H1321 H 0.40714 0.3714 0.07281 0.0
H1322 H 0.31361 0.42505 0.0048 0.0
H1323 H 0.31009 0.41334 0.96689 0.0
H1324 H 0.33002 0.44405 0.97521 0.0
H1325 H 0.3781 0.4147 0.94728 0.0
H1326 H 0.35862 0.38365 0.93924 0.0
H1327 H 0.39521 0.37583 0.95825 0.0
H1328 H 0.37514 0.33103 0.06387 0.0
H1329 H 0.34392 0.2949 0.04406 0.0
H1330 H 0.32248 0.35254 0.96589 0.0
C1331 C 0.39137 0.43239 0.00886 0.0
C1332 C 0.41287 0.43496 0.03128 0.0
C1333 C 0.41833 0.41306 0.05452 0.0
C1334 C 0.40252 0.38858 0.05539 0.0
C1335 C 0.38198 0.38616 0.03246 0.0
C1336 C 0.37652 0.40741 0.00954 0.0
C1337 C 0.35613 0.39781 0.98589 0.0
C1338 C 0.32565 0.42148 0.98305 0.0
C1339 C 0.37304 0.39269 0.95591 0.0
C1340 C 0.35104 0.36777 -0.00099 0.0
C1341 C 0.36566 0.36168 0.02609 0.0
C1342 C 0.36367 0.33549 0.04264 0.0
C1343 C 0.34603 0.31512 0.03124 0.0
C1344 C 0.33134 0.32082 0.00334 0.0
C1345 C 0.33405 0.34737 0.98703 0.0
H1346 H 0.05017 0.15954 0.2377 0.0
H1347 H 0.0883 0.24058 0.25662 0.0
H1348 H 0.13908 0.20724 0.26642 0.0
H1349 H 0.09412 0.10911 0.29306 0.0
H1350 H 0.09931 0.07558 0.26951 0.0
H1351 H 0.06557 0.10574 0.26538 0.0
H1352 H 0.07844 0.11106 0.20972 0.0
H1353 H 0.11221 0.08096 0.21371 0.0
H1354 H 0.11576 0.11817 0.19941 0.0
H1355 H 0.18622 0.16524 0.27227 0.0
H1356 H 0.22631 0.11754 0.27345 0.0
H1357 H 0.15732 0.06407 0.25071 0.0
C1358 C 0.06911 0.17027 0.24422 0.0
C1359 C 0.06525 0.20267 0.24647 0.0
C1360 C 0.09071 0.21581 0.25473 0.0
C1361 C 0.11964 0.19707 0.2604 0.0
C1362 C 0.12274 0.16524 0.25771 0.0
C1363 C 0.09818 0.15192 0.24983 0.0
C1364 C 0.10792 0.11719 0.24745 0.0
C1365 C 0.09071 0.10096 0.27021 0.0
C1366 C 0.10331 0.10621 0.21569 0.0
C1367 C 0.14181 0.1131 0.25509 0.0
C1368 C 0.1499 0.14106 0.26102 0.0
C1369 C 0.18013 0.14317 0.26784 0.0
C1370 C 0.20274 0.11596 0.26844 0.0
C1371 C 0.19498 0.08706 0.26224 0.0
C1372 C 0.16401 0.08575 0.25571 0.0
H1373 H 0.2263 0.38937 0.96073 0.0
H1374 H 0.233 0.30906 0.90406 0.0
H1375 H 0.22808 0.34275 0.85984 0.0
H1376 H 0.17144 0.44339 0.91416 0.0
H1377 H 0.19015 0.47508 0.92225 0.0
H1378 H 0.19049 0.44497 0.94932 0.0
H1379 H 0.2502 0.43549 0.95133 0.0
H1380 H 0.25013 0.46538 0.92424 0.0
H1381 H 0.27201 0.42707 0.91752 0.0
H1382 H 0.22851 0.38468 0.82179 0.0
H1383 H 0.23318 0.43148 0.7934 0.0
H1384 H 0.2251 0.48391 0.87531 0.0
C1385 C 0.226 0.37888 0.93907 0.0
C1386 C 0.22986 0.34661 0.93588 0.0
C1387 C 0.22989 0.33378 0.90707 0.0
C1388 C 0.22708 0.35272 0.88181 0.0
C1389 C 0.22401 0.38443 0.88574 0.0
C1390 C 0.22322 0.39741 0.91368 0.0
C1391 C 0.22197 0.43177 0.91196 0.0
C1392 C 0.19171 0.44987 0.92521 0.0
C1393 C 0.25026 0.44041 0.92715 0.0
C1394 C 0.22289 0.43602 0.8787 0.0
C1395 C 0.22389 0.40853 0.86388 0.0
C1396 C 0.22716 0.40645 0.83313 0.0
C1397 C 0.22984 0.43312 0.81719 0.0
C1398 C 0.2292 0.46139 0.8321 0.0
C1399 C 0.22512 0.4628 0.86317 0.0
H1400 H 0.33439 0.21003 0.95285 0.0
H1401 H 0.25753 0.20957 0.89311 0.0
H1402 H 0.2938 0.19598 0.85159 0.0
H1403 H 0.37478 0.24723 0.90738 0.0
H1404 H 0.41281 0.22635 0.91699 0.0
H1405 H 0.38186 0.22903 0.94322 0.0
H1406 H 0.3914 0.16941 0.94696 0.0
H1407 H 0.42269 0.16648 0.92081 0.0
H1408 H 0.39149 0.14678 0.91373 0.0
H1409 H 0.33608 0.19434 0.81554 0.0
H1410 H 0.38243 0.20129 0.78783 0.0
H1411 H 0.43277 0.1999 0.87042 0.0
C1412 C 0.32527 0.20593 0.93126 0.0
C1413 C 0.29316 0.21086 0.9262 0.0
C1414 C 0.28206 0.20594 0.8975 0.0
C1415 C 0.3025 0.19804 0.87378 0.0
C1416 C 0.33398 0.19471 0.87921 0.0
C1417 C 0.34541 0.19798 0.90733 0.0
C1418 C 0.37984 0.19682 0.90657 0.0
C1419 C 0.38776 0.22662 0.91927 0.0
C1420 C 0.39739 0.16816 0.92299 0.0
C1421 C 0.38561 0.19426 0.87348 0.0
C1422 C 0.3589 0.19266 0.85812 0.0
C1423 C 0.3574 0.19451 0.82726 0.0
C1424 C 0.38369 0.19862 0.81172 0.0
C1425 C 0.4111 0.20048 0.82709 0.0
C1426 C 0.41231 0.19744 0.85822 0.0
H1427 H 0.40417 0.56652 0.94533 0.0
H1428 H 0.45007 0.4717 0.96184 0.0
H1429 H 0.4176 0.45397 0.92374 0.0
H1430 H 0.32732 0.55048 0.93094 0.0
H1431 H 0.319 0.57932 0.90218 0.0
H1432 H 0.34424 0.5843 0.93238 0.0
H1433 H 0.38694 0.59027 0.89473 0.0
H1434 H 0.36194 0.58516 0.86445 0.0
H1435 H 0.39943 0.56036 0.86774 0.0
H1436 H 0.38275 0.44692 0.88168 0.0
H1437 H 0.34716 0.45073 0.83917 0.0
H1438 H 0.3238 0.55023 0.84987 0.0
C1439 C 0.40718 0.542 0.94116 0.0
C1440 C 0.42953 0.52048 0.95669 0.0
C1441 C 0.43294 0.48861 0.95039 0.0
C1442 C 0.41461 0.4783 0.92878 0.0
C1443 C 0.39303 0.50018 0.91364 0.0
C1444 C 0.38912 0.53134 0.91963 0.0
C1445 C 0.36513 0.55016 0.89939 0.0
C1446 C 0.33727 0.56706 0.9173 0.0
C1447 C 0.37922 0.57281 0.88046 0.0
C1448 C 0.35668 0.52477 0.8806 0.0
C1449 C 0.3729 0.49611 0.88934 0.0
C1450 C 0.36977 0.46921 0.87476 0.0
C1451 C 0.34957 0.47166 0.85055 0.0
C1452 C 0.33273 0.50081 0.84115 0.0
C1453 C 0.33627 0.52764 0.85657 0.0
H1454 H 0.63464 0.69293 0.96337 0.0
H1455 H 0.71446 0.61954 0.97659 0.0
H1456 H 0.68333 0.58097 0.96355 0.0
H1457 H 0.58509 0.65803 -6e-05 0.0
H1458 H 0.55184 0.67141 0.97682 0.0
H1459 H 0.58177 0.69333 0.979 0.0
H1460 H 0.58804 0.69057 0.9218 0.0
H1461 H 0.558 0.66847 0.91947 0.0
H1462 H 0.59539 0.65356 0.90363 0.0
H1463 H 0.64256 0.55042 0.95702 0.0
H1464 H 0.59488 0.53028 0.96344 0.0
H1465 H 0.54082 0.62338 0.95752 0.0
C1466 C 0.64574 0.6688 0.9624 0.0
C1467 C 0.67689 0.6591 0.97057 0.0
C1468 C 0.69057 0.62733 0.9702 0.0
C1469 C 0.67316 0.60532 0.96253 0.0
C1470 C 0.64213 0.61551 0.95543 0.0
C1471 C 0.62849 0.64654 0.95542 0.0
C1472 C 0.59383 0.65119 0.95222 0.0
C1473 C 0.57719 0.66954 0.97857 0.0
C1474 C 0.58319 0.66687 0.92251 0.0
C1475 C 0.58994 0.61799 0.95248 0.0
C1476 C 0.61812 0.59774 0.95308 0.0
C1477 C 0.62036 0.56599 0.956 0.0
C1478 C 0.59314 0.55475 0.95962 0.0
C1479 C 0.56426 0.57534 0.96105 0.0
C1480 C 0.56264 0.60716 0.95631 0.0
H1481 H 0.89601 0.81615 0.73401 0.0
H1482 H 0.97542 0.85784 0.7179 0.0
H1483 H 0.94073 0.90753 0.7071 0.0
H1484 H 0.84349 0.86311 0.67784 0.0
H1485 H 0.81059 0.86532 0.7019 0.0
H1486 H 0.84138 0.83178 0.7029 0.0
H1487 H 0.84752 0.83926 0.75947 0.0
H1488 H 0.81699 0.87281 0.75864 0.0
H1489 H 0.85434 0.87564 0.77302 0.0
H1490 H 0.89872 0.95374 0.70638 0.0
H1491 H 0.8518 0.99344 0.71478 0.0
H1492 H 0.79952 0.92175 0.73047 0.0
C1493 C 0.9061 0.83551 0.72743 0.0
C1494 C 0.93835 0.83321 0.72682 0.0
C1495 C 0.95073 0.85914 0.71853 0.0
C1496 C 0.93122 0.8874 0.71217 0.0
C1497 C 0.89951 0.88915 0.71387 0.0
C1498 C 0.88699 0.86384 0.72101 0.0
C1499 C 0.85235 0.87258 0.72446 0.0
C1500 C 0.83599 0.85729 0.70033 0.0
C1501 C 0.84223 0.86461 0.75575 0.0
C1502 C 0.84756 0.90704 0.71974 0.0
C1503 C 0.87499 0.91605 0.71314 0.0
C1504 C 0.87697 0.94698 0.71084 0.0
C1505 C 0.85029 0.96932 0.71586 0.0
C1506 C 0.82215 0.96052 0.72313 0.0
C1507 C 0.82065 0.92902 0.72438 0.0
H1508 H 0.46536 0.21827 0.62558 0.0
H1509 H 0.47011 0.17727 0.71351 0.0
H1510 H 0.4614 0.12857 0.69178 0.0
H1511 H 0.40604 0.17868 0.59531 0.0
H1512 H 0.42398 0.17413 0.55926 0.0
H1513 H 0.42739 0.2067 0.58207 0.0
H1514 H 0.48698 0.19166 0.57808 0.0
H1515 H 0.48377 0.15896 0.5555 0.0
H1516 H 0.50637 0.15348 0.58904 0.0
H1517 H 0.45816 0.08265 0.66001 0.0
H1518 H 0.45808 0.0438 0.62069 0.0
H1519 H 0.45359 0.1153 0.5538 0.0
C1520 C 0.46389 0.1993 0.64037 0.0
C1521 C 0.46832 0.20167 0.67128 0.0
C1522 C 0.46666 0.1761 0.68978 0.0
C1523 C 0.46172 0.14831 0.67764 0.0
C1524 C 0.45823 0.14651 0.64701 0.0
C1525 C 0.45894 0.17143 0.62865 0.0
C1526 C 0.45629 0.16297 0.59633 0.0
C1527 C 0.42665 0.18174 0.58243 0.0
C1528 C 0.48506 0.16701 0.57872 0.0
C1529 C 0.45461 0.12926 0.59937 0.0
C1530 C 0.45574 0.12019 0.62876 0.0
C1531 C 0.45674 0.0896 0.63693 0.0
C1532 C 0.45677 0.06768 0.61445 0.0
C1533 C 0.45566 0.07651 0.58418 0.0
C1534 C 0.45409 0.10783 0.57672 0.0
H1535 H 0.50851 0.26941 0.88263 0.0
H1536 H 0.4981 0.3288 0.80501 0.0
H1537 H 0.51143 0.37082 0.8351 0.0
H1538 H 0.47233 0.32553 0.9316 0.0
H1539 H 0.49681 0.31224 0.96288 0.0
H1540 H 0.49115 0.28552 0.93441 0.0
H1541 H 0.55033 0.27032 0.92671 0.0
H1542 H 0.55614 0.29721 0.95513 0.0
H1543 H 0.5719 0.29986 0.91856 0.0
H1544 H 0.52077 0.40769 0.87415 0.0
H1545 H 0.52179 0.4379 0.91991 0.0
H1546 H 0.52517 0.35489 0.97244 0.0
C1547 C 0.50972 0.29104 0.87185 0.0
C1548 C 0.50248 0.29583 0.84149 0.0
C1549 C 0.50359 0.32466 0.82827 0.0
C1550 C 0.51136 0.34858 0.84512 0.0
C1551 C 0.51795 0.34328 0.87512 0.0
C1552 C 0.5171 0.31527 0.88842 0.0
C1553 C 0.52188 0.3166 0.92162 0.0
C1554 C 0.49387 0.30957 0.93861 0.0
C1555 C 0.55185 0.2947 0.93105 0.0
C1556 C 0.52451 0.35002 0.92502 0.0
C1557 C 0.52281 0.36483 0.89787 0.0
C1558 C 0.52256 0.39628 0.89552 0.0
C1559 C 0.52315 0.41324 0.92166 0.0
C1560 C 0.52364 0.39875 0.94978 0.0
C1561 C 0.5252 0.36657 0.95131 0.0
H1562 H 0.50221 0.81266 0.40736 0.0
H1563 H 0.49176 0.85747 0.32109 0.0
H1564 H 0.48803 0.90805 0.34526 0.0
H1565 H 0.44875 0.8684 0.44534 0.0
H1566 H 0.47051 0.86607 0.47937 0.0
H1567 H 0.47487 0.8331 0.45527 0.0
H1568 H 0.53384 0.83063 0.45262 0.0
H1569 H 0.52969 0.86348 0.47694 0.0
H1570 H 0.54802 0.86435 0.44132 0.0
H1571 H 0.48125 0.95409 0.37906 0.0
H1572 H 0.47436 0.99198 0.4199 0.0
H1573 H 0.49014 0.91702 0.48398 0.0
C1574 C 0.49963 0.83304 0.3935 0.0
C1575 C 0.49736 0.83105 0.36233 0.0
C1576 C 0.49377 0.85834 0.34501 0.0
C1577 C 0.49157 0.88722 0.35854 0.0
C1578 C 0.49331 0.88841 0.38936 0.0
C1579 C 0.49757 0.86203 0.40661 0.0
C1580 C 0.49768 0.86972 0.43934 0.0
C1581 C 0.47138 0.85867 0.45578 0.0
C1582 C 0.52919 0.85625 0.45337 0.0
C1583 C 0.49212 0.90458 0.43782 0.0
C1584 C 0.48977 0.91492 0.4088 0.0
C1585 C 0.48343 0.94627 0.40187 0.0
C1586 C 0.47948 0.96761 0.42523 0.0
C1587 C 0.48191 0.9575 0.45516 0.0
C1588 C 0.48844 0.92553 0.46137 0.0
H1589 H 0.47308 0.648 0.06639 0.0
H1590 H 0.44663 0.57893 0.12401 0.0
H1591 H 0.45216 0.61123 0.16761 0.0
H1592 H 0.53127 0.66373 0.11171 0.0
H1593 H 0.52464 0.7044 0.10342 0.0
H1594 H 0.51468 0.67795 0.0766 0.0
H1595 H 0.45842 0.709 0.07491 0.0
H1596 H 0.46825 0.73584 0.1015 0.0
H1597 H 0.43677 0.71659 0.1089 0.0
H1598 H 0.46611 0.64869 0.20518 0.0
H1599 H 0.48537 0.68908 0.23321 0.0
H1600 H 0.50248 0.73279 0.15029 0.0
C1601 C 0.46766 0.63993 0.08807 0.0
C1602 C 0.45921 0.61102 0.09178 0.0
C1603 C 0.45291 0.60112 0.12063 0.0
C1604 C 0.45603 0.61928 0.14552 0.0
C1605 C 0.46532 0.64726 0.1411 0.0
C1606 C 0.47079 0.65762 0.11304 0.0
C1607 C 0.48271 0.68731 0.11423 0.0
C1608 C 0.51525 0.68307 0.1007 0.0
C1609 C 0.46018 0.71375 0.09899 0.0
C1610 C 0.48342 0.69195 0.14738 0.0
C1611 C 0.47328 0.6687 0.16258 0.0
C1612 C 0.47367 0.66725 0.19349 0.0
C1613 C 0.48474 0.69018 0.20921 0.0
C1614 C 0.49519 0.71414 0.19391 0.0
C1615 C 0.49423 0.71504 0.16264 0.0
loop_
_geom_bond_atom_site_label_1
_geom_bond_atom_site_label_2
_geom_bond_distance
_geom_bond_site_symmetry_2
_ccdc_geom_bond_type
Zn0 O6 1.969 1_554 S
Zn0 O7 1.965 . S
Zn0 O11 2.024 1_455 S
Zn0 O16 1.969 1_454 S
Zn1 O8 1.969 1_656 S
Zn1 O14 1.969 1_556 S
Zn1 O15 1.965 1_565 S
Zn1 O17 2.024 1_655 S
C2 O3 1.229 . S
C2 O11 1.058 . S
O3 C2 1.229 . S
C4 O5 1.229 . S
C4 O17 1.058 . S
O5 C4 1.229 . S
O6 Zn0 1.969 1_556 S
O6 C9 1.267 . S
O7 Zn0 1.965 . S
O7 C18 1.260 1_545 S
O8 Zn1 1.969 1_454 S
O8 C18 1.258 . S
C9 O6 1.267 . S
C9 O10 1.228 1_556 S
O10 C9 1.228 1_554 S
O11 Zn0 2.024 1_655 S
O11 C2 1.058 . S
C12 O13 1.228 1_554 S
C12 O14 1.267 . S
O13 C12 1.228 1_556 S
O14 Zn1 1.969 1_554 S
O14 C12 1.267 . S
O15 Zn1 1.965 1_545 S
O15 C19 1.260 . S
O16 Zn0 1.969 1_656 S
O16 C19 1.258 . S
O17 Zn1 2.024 1_455 S
O17 C4 1.058 . S
C18 O7 1.260 1_565 S
C18 O8 1.258 . S
C19 O15 1.260 . S
C19 O16 1.258 . S
Zn20 O26 1.969 1_455 S
Zn20 O27 1.965 1_455 S
Zn20 O31 2.024 . S
Zn20 O36 1.969 . S
Zn21 O28 1.969 1_455 S
Zn21 O34 1.969 . S
Zn21 O35 1.965 . S
Zn21 O37 2.024 . S
C22 O23 1.229 . S
C22 O31 1.058 . S
O23 C22 1.229 . S
C24 O25 1.229 . S
C24 O37 1.058 . S
O25 C24 1.229 . S
O26 Zn20 1.969 1_655 S
O26 C29 1.267 . S
O27 Zn20 1.965 1_655 S
O27 C38 1.260 . S
O28 Zn21 1.969 1_655 S
O28 C38 1.258 . S
C29 O26 1.267 . S
C29 O30 1.228 . S
O30 C29 1.228 . S
O31 Zn20 2.024 . S
O31 C22 1.058 . S
C32 O33 1.228 . S
C32 O34 1.267 . S
O33 C32 1.228 . S
O34 Zn21 1.969 . S
O34 C32 1.267 . S
O35 Zn21 1.965 . S
O35 C39 1.260 . S
O36 Zn20 1.969 . S
O36 C39 1.258 . S
O37 Zn21 2.024 . S
O37 C24 1.058 . S
C38 O27 1.260 . S
C38 O28 1.258 . S
C39 O35 1.260 . S
C39 O36 1.258 . S
Zn40 O46 1.969 . S
Zn40 O47 1.965 . S
Zn40 O51 2.024 . S
Zn40 O56 1.969 . S
Zn41 O48 1.969 . S
Zn41 O54 1.969 . S
Zn41 O55 1.965 . S
Zn41 O57 2.024 . S
C42 O43 1.229 . S
C42 O51 1.058 . S
O43 C42 1.229 . S
C44 O45 1.229 . S
C44 O57 1.058 . S
O45 C44 1.229 . S
O46 Zn40 1.969 . S
O46 C49 1.267 . S
O47 Zn40 1.965 . S
O47 C58 1.260 . S
O48 Zn41 1.969 . S
O48 C58 1.258 . S
C49 O46 1.267 . S
C49 O50 1.228 . S
O50 C49 1.228 . S
O51 Zn40 2.024 . S
O51 C42 1.058 . S
C52 O53 1.228 . S
C52 O54 1.267 . S
O53 C52 1.228 . S
O54 Zn41 1.969 . S
O54 C52 1.267 . S
O55 Zn41 1.965 . S
O55 C59 1.260 . S
O56 Zn40 1.969 . S
O56 C59 1.258 . S
O57 Zn41 2.024 . S
O57 C44 1.058 . S
C58 O47 1.260 . S
C58 O48 1.258 . S
C59 O55 1.260 . S
C59 O56 1.258 . S
Zn60 O66 1.969 . S
Zn60 O67 1.965 . S
Zn60 O71 2.024 1_545 S
Zn60 O76 1.969 . S
Zn61 O68 1.969 . S
Zn61 O74 1.969 . S
Zn61 O75 1.965 . S
Zn61 O77 2.024 . S
C62 O63 1.229 1_565 S
C62 O71 1.058 . S
O63 C62 1.229 1_545 S
C64 O65 1.229 . S
C64 O77 1.058 . S
O65 C64 1.229 . S
O66 Zn60 1.969 . S
O66 C69 1.267 . S
O67 Zn60 1.965 . S
O67 C78 1.260 . S
O68 Zn61 1.969 . S
O68 C78 1.258 . S
C69 O66 1.267 . S
C69 O70 1.228 . S
O70 C69 1.228 . S
O71 Zn60 2.024 1_565 S
O71 C62 1.058 . S
C72 O73 1.228 . S
C72 O74 1.267 . S
O73 C72 1.228 . S
O74 Zn61 1.969 . S
O74 C72 1.267 . S
O75 Zn61 1.965 . S
O75 C79 1.260 . S
O76 Zn60 1.969 . S
O76 C79 1.258 . S
O77 Zn61 2.024 . S
O77 C64 1.058 . S
C78 O67 1.260 . S
C78 O68 1.258 . S
C79 O75 1.260 . S
C79 O76 1.258 . S
Zn80 O86 1.969 . S
Zn80 O87 1.965 . S
Zn80 O91 2.024 . S
Zn80 O96 1.969 . S
Zn81 O88 1.969 . S
Zn81 O94 1.969 . S
Zn81 O95 1.965 . S
Zn81 O97 2.024 . S
C82 O83 1.229 . S
C82 O91 1.058 . S
O83 C82 1.229 . S
C84 O85 1.229 . S
C84 O97 1.058 . S
O85 C84 1.229 . S
O86 Zn80 1.969 . S
O86 C89 1.267 . S
O87 Zn80 1.965 . S
O87 C98 1.260 . S
O88 Zn81 1.969 . S
O88 C98 1.258 . S
C89 O86 1.267 . S
C89 O90 1.228 . S
O90 C89 1.228 . S
O91 Zn80 2.024 . S
O91 C82 1.058 . S
C92 O93 1.228 . S
C92 O94 1.267 . S
O93 C92 1.228 . S
O94 Zn81 1.969 . S
O94 C92 1.267 . S
O95 Zn81 1.965 . S
O95 C99 1.260 . S
O96 Zn80 1.969 . S
O96 C99 1.258 . S
O97 Zn81 2.024 . S
O97 C84 1.058 . S
C98 O87 1.260 . S
C98 O88 1.258 . S
C99 O95 1.260 . S
C99 O96 1.258 . S
Zn100 O106 1.969 . S
Zn100 O107 1.965 . S
Zn100 O111 2.024 . S
Zn100 O116 1.969 . S
Zn101 O108 1.969 . S
Zn101 O114 1.969 . S
Zn101 O115 1.965 . S
Zn101 O117 2.024 . S
C102 O103 1.229 . S
C102 O111 1.058 . S
O103 C102 1.229 . S
C104 O105 1.229 . S
C104 O117 1.058 . S
O105 C104 1.229 . S
O106 Zn100 1.969 . S
O106 C109 1.267 . S
O107 Zn100 1.965 . S
O107 C118 1.260 . S
O108 Zn101 1.969 . S
O108 C118 1.258 . S
C109 O106 1.267 . S
C109 O110 1.228 . S
O110 C109 1.228 . S
O111 Zn100 2.024 . S
O111 C102 1.058 . S
C112 O113 1.228 . S
C112 O114 1.267 . S
O113 C112 1.228 . S
O114 Zn101 1.969 . S
O114 C112 1.267 . S
O115 Zn101 1.965 . S
O115 C119 1.260 . S
O116 Zn100 1.969 . S
O116 C119 1.258 . S
O117 Zn101 2.024 . S
O117 C104 1.058 . S
C118 O107 1.260 . S
C118 O108 1.258 . S
C119 O115 1.260 . S
C119 O116 1.258 . S
Zn120 O126 1.969 . S
Zn120 O127 1.965 . S
Zn120 O131 2.024 . S
Zn120 O136 1.969 . S
Zn121 O128 1.969 . S
Zn121 O134 1.969 . S
Zn121 O135 1.965 . S
Zn121 O137 2.024 . S
C122 O123 1.229 . S
C122 O131 1.058 . S
O123 C122 1.229 . S
C124 O125 1.229 . S
C124 O137 1.058 . S
O125 C124 1.229 . S
O126 Zn120 1.969 . S
O126 C129 1.267 . S
O127 Zn120 1.965 . S
O127 C138 1.260 . S
O128 Zn121 1.969 . S
O128 C138 1.258 . S
C129 O126 1.267 . S
C129 O130 1.228 . S
O130 C129 1.228 . S
O131 Zn120 2.024 . S
O131 C122 1.058 . S
C132 O133 1.228 . S
C132 O134 1.267 . S
O133 C132 1.228 . S
O134 Zn121 1.969 . S
O134 C132 1.267 . S
O135 Zn121 1.965 . S
O135 C139 1.260 . S
O136 Zn120 1.969 . S
O136 C139 1.258 . S
O137 Zn121 2.024 . S
O137 C124 1.058 . S
C138 O127 1.260 . S
C138 O128 1.258 . S
C139 O135 1.260 . S
C139 O136 1.258 . S
Zn140 O146 1.969 . S
Zn140 O147 1.965 . S
Zn140 O151 2.024 . S
Zn140 O156 1.969 1_455 S
Zn141 O148 1.969 . S
Zn141 O154 1.969 1_455 S
Zn141 O155 1.965 1_455 S
Zn141 O157 2.024 . S
C142 O143 1.229 . S
C142 O151 1.058 1_655 S
O143 C142 1.229 . S
C144 O145 1.229 . S
C144 O157 1.058 . S
O145 C144 1.229 . S
O146 Zn140 1.969 . S
O146 C149 1.267 . S
O147 Zn140 1.965 . S
O147 C158 1.260 . S
O148 Zn141 1.969 . S
O148 C158 1.258 . S
C149 O146 1.267 . S
C149 O150 1.228 . S
O150 C149 1.228 . S
O151 Zn140 2.024 . S
O151 C142 1.058 1_455 S
C152 O153 1.228 . S
C152 O154 1.267 . S
O153 C152 1.228 . S
O154 Zn141 1.969 1_655 S
O154 C152 1.267 . S
O155 Zn141 1.965 1_655 S
O155 C159 1.260 . S
O156 Zn140 1.969 1_655 S
O156 C159 1.258 . S
O157 Zn141 2.024 . S
O157 C144 1.058 . S
C158 O147 1.260 . S
C158 O148 1.258 . S
C159 O155 1.260 . S
C159 O156 1.258 . S
Zn160 O166 1.969 1_554 S
Zn160 O167 1.965 . S
Zn160 O171 2.024 . S
Zn160 O176 1.969 1_554 S
Zn161 O168 1.969 1_556 S
Zn161 O174 1.969 1_556 S
Zn161 O175 1.965 . S
Zn161 O177 2.024 . S
C162 O163 1.229 . S
C162 O171 1.058 . S
O163 C162 1.229 . S
C164 O165 1.229 . S
C164 O177 1.058 . S
O165 C164 1.229 . S
O166 Zn160 1.969 1_556 S
O166 C169 1.267 . S
O167 Zn160 1.965 . S
O167 C178 1.260 . S
O168 Zn161 1.969 1_554 S
O168 C178 1.258 . S
C169 O166 1.267 . S
C169 O170 1.228 1_556 S
O170 C169 1.228 1_554 S
O171 Zn160 2.024 . S
O171 C162 1.058 . S
C172 O173 1.228 1_554 S
C172 O174 1.267 . S
O173 C172 1.228 1_556 S
O174 Zn161 1.969 1_554 S
O174 C172 1.267 . S
O175 Zn161 1.965 . S
O175 C179 1.260 . S
O176 Zn160 1.969 1_556 S
O176 C179 1.258 . S
O177 Zn161 2.024 . S
O177 C164 1.058 . S
C178 O167 1.260 . S
C178 O168 1.258 . S
C179 O175 1.260 . S
C179 O176 1.258 . S
Zn180 O186 1.969 1_565 S
Zn180 O187 1.965 . S
Zn180 O191 2.024 . S
Zn180 O196 1.969 1_565 S
Zn181 O188 1.969 1_545 S
Zn181 O194 1.969 1_545 S
Zn181 O195 1.965 . S
Zn181 O197 2.024 . S
C182 O183 1.229 . S
C182 O191 1.058 . S
O183 C182 1.229 . S
C184 O185 1.229 . S
C184 O197 1.058 . S
O185 C184 1.229 . S
O186 Zn180 1.969 1_545 S
O186 C189 1.284 . S
O187 Zn180 1.965 . S
O187 C198 1.260 . S
O188 Zn181 1.969 1_565 S
O188 C198 1.258 . S
C189 O186 1.284 . S
C189 O190 1.193 1_545 S
O190 C189 1.193 1_565 S
O191 Zn180 2.024 . S
O191 C182 1.058 . S
C192 O193 1.218 1_565 S
C192 O194 1.272 . S
O193 C192 1.218 1_545 S
O194 Zn181 1.969 1_565 S
O194 C192 1.272 . S
O195 Zn181 1.965 . S
O195 C199 1.260 . S
O196 Zn180 1.969 1_545 S
O196 C199 1.258 . S
O197 Zn181 2.024 . S
O197 C184 1.058 . S
C198 O187 1.260 . S
C198 O188 1.258 . S
C199 O195 1.260 . S
C199 O196 1.258 . S
Zn200 O206 1.969 . S
Zn200 O207 1.965 . S
Zn200 O211 2.024 . S
Zn200 O216 1.969 . S
Zn201 O208 1.969 . S
Zn201 O214 1.969 . S
Zn201 O215 1.965 . S
Zn201 O217 2.024 . S
C202 O203 1.229 . S
C202 O211 1.058 . S
O203 C202 1.229 . S
C204 O205 1.229 . S
C204 O217 1.058 . S
O205 C204 1.229 . S
O206 Zn200 1.969 . S
O206 C209 1.267 . S
O207 Zn200 1.965 . S
O207 C218 1.260 . S
O208 Zn201 1.969 . S
O208 C218 1.258 . S
C209 O206 1.267 . S
C209 O210 1.228 . S
O210 C209 1.228 . S
O211 Zn200 2.024 . S
O211 C202 1.058 . S
C212 O213 1.228 . S
C212 O214 1.267 . S
O213 C212 1.228 . S
O214 Zn201 1.969 . S
O214 C212 1.267 . S
O215 Zn201 1.965 . S
O215 C219 1.260 . S
O216 Zn200 1.969 . S
O216 C219 1.258 . S
O217 Zn201 2.024 . S
O217 C204 1.058 . S
C218 O207 1.260 . S
C218 O208 1.258 . S
C219 O215 1.260 . S
C219 O216 1.258 . S
Zn220 O226 1.969 . S
Zn220 O227 1.965 . S
Zn220 O231 2.024 1_655 S
Zn220 O236 1.969 1_655 S
Zn221 O228 1.969 1_455 S
Zn221 O234 1.969 . S
Zn221 O235 1.965 . S
Zn221 O237 2.024 1_455 S
C222 O223 1.229 . S
C222 O231 1.058 . S
O223 C222 1.229 . S
C224 O225 1.229 . S
C224 O237 1.058 . S
O225 C224 1.229 . S
O226 Zn220 1.969 . S
O226 C229 1.267 . S
O227 Zn220 1.965 . S
O227 C238 1.260 . S
O228 Zn221 1.969 1_655 S
O228 C238 1.258 . S
C229 O226 1.267 . S
C229 O230 1.228 . S
O230 C229 1.228 . S
O231 Zn220 2.024 1_455 S
O231 C222 1.058 . S
C232 O233 1.228 . S
C232 O234 1.267 . S
O233 C232 1.228 . S
O234 Zn221 1.969 . S
O234 C232 1.267 . S
O235 Zn221 1.965 . S
O235 C239 1.260 . S
O236 Zn220 1.969 1_455 S
O236 C239 1.258 . S
O237 Zn221 2.024 1_655 S
O237 C224 1.058 . S
C238 O227 1.260 . S
C238 O228 1.258 . S
C239 O235 1.260 . S
C239 O236 1.258 . S
Zn240 O246 1.969 . S
Zn240 O247 1.965 . S
Zn240 O251 2.024 . S
Zn240 O256 1.969 . S
Zn241 O248 1.969 . S
Zn241 O254 1.969 . S
Zn241 O255 1.965 . S
Zn241 O257 2.024 . S
C242 O243 1.229 . S
C242 O251 1.058 . S
O243 C242 1.229 . S
C244 O245 1.229 . S
C244 O257 1.058 . S
O245 C244 1.229 . S
O246 Zn240 1.969 . S
O246 C249 1.267 . S
O247 Zn240 1.965 . S
O247 C258 1.260 . S
O248 Zn241 1.969 . S
O248 C258 1.258 . S
C249 O246 1.267 . S
C249 O250 1.228 . S
O250 C249 1.228 . S
O251 Zn240 2.024 . S
O251 C242 1.058 . S
C252 O253 1.228 . S
C252 O254 1.267 . S
O253 C252 1.228 . S
O254 Zn241 1.969 . S
O254 C252 1.267 . S
O255 Zn241 1.965 . S
O255 C259 1.260 . S
O256 Zn240 1.969 . S
O256 C259 1.258 . S
O257 Zn241 2.024 . S
O257 C244 1.058 . S
C258 O247 1.260 . S
C258 O248 1.258 . S
C259 O255 1.260 . S
C259 O256 1.258 . S
Zn260 O266 1.969 1_554 S
Zn260 O267 1.965 . S
Zn260 O271 2.024 . S
Zn260 O276 1.969 1_554 S
Zn261 O268 1.969 . S
Zn261 O274 1.969 . S
Zn261 O275 1.965 1_554 S
Zn261 O277 2.024 1_554 S
C262 O263 1.229 . S
C262 O271 1.058 . S
O263 C262 1.229 . S
C264 O265 1.229 . S
C264 O277 1.058 . S
O265 C264 1.229 . S
O266 Zn260 1.969 1_556 S
O266 C269 1.267 1_556 S
O267 Zn260 1.965 . S
O267 C278 1.260 . S
O268 Zn261 1.969 . S
O268 C278 1.258 . S
C269 O266 1.267 1_554 S
C269 O270 1.228 . S
O270 C269 1.228 . S
O271 Zn260 2.024 . S
O271 C262 1.058 . S
C272 O273 1.228 1_554 S
C272 O274 1.267 . S
O273 C272 1.228 1_556 S
O274 Zn261 1.969 . S
O274 C272 1.267 . S
O275 Zn261 1.965 1_556 S
O275 C279 1.260 . S
O276 Zn260 1.969 1_556 S
O276 C279 1.258 . S
O277 Zn261 2.024 1_556 S
O277 C264 1.058 . S
C278 O267 1.260 . S
C278 O268 1.258 . S
C279 O275 1.260 . S
C279 O276 1.258 . S
Zn280 O286 1.969 1_545 S
Zn280 O287 1.965 1_545 S
Zn280 O291 2.024 . S
Zn280 O296 1.969 . S
Zn281 O288 1.982 . S
Zn281 O294 1.969 . S
Zn281 O295 1.965 . S
Zn281 O297 2.024 . S
C282 O283 1.229 . S
C282 O291 1.058 . S
O283 C282 1.229 . S
C284 O285 1.229 . S
C284 O297 1.058 . S
O285 C284 1.229 . S
O286 Zn280 1.969 1_565 S
O286 C289 1.267 . S
O287 Zn280 1.965 1_565 S
O287 C298 1.260 . S
O288 Zn281 1.982 . S
O288 C298 1.248 1_545 S
C289 O286 1.267 . S
C289 O290 1.228 . S
O290 C289 1.228 . S
O291 Zn280 2.024 . S
O291 C282 1.058 . S
C292 O293 1.228 . S
C292 O294 1.267 . S
O293 C292 1.228 . S
O294 Zn281 1.969 . S
O294 C292 1.267 . S
O295 Zn281 1.965 . S
O295 C299 1.260 . S
O296 Zn280 1.969 . S
O296 C299 1.258 . S
O297 Zn281 2.024 . S
O297 C284 1.058 . S
C298 O287 1.260 . S
C298 O288 1.248 1_565 S
C299 O295 1.260 . S
C299 O296 1.258 . S
Zn300 O306 1.969 1_554 S
Zn300 O307 1.965 . S
Zn300 O311 2.024 . S
Zn300 O316 1.969 1_554 S
Zn301 O308 1.969 . S
Zn301 O314 1.969 . S
Zn301 O315 1.965 1_554 S
Zn301 O317 2.024 1_554 S
C302 O303 1.229 . S
C302 O311 1.058 . S
O303 C302 1.229 . S
C304 O305 1.229 . S
C304 O317 1.058 . S
O305 C304 1.229 . S
O306 Zn300 1.969 1_556 S
O306 C309 1.267 1_556 S
O307 Zn300 1.965 . S
O307 C318 1.260 . S
O308 Zn301 1.969 . S
O308 C318 1.258 . S
C309 O306 1.267 1_554 S
C309 O310 1.228 . S
O310 C309 1.228 . S
O311 Zn300 2.024 . S
O311 C302 1.058 . S
C312 O313 1.228 1_554 S
C312 O314 1.267 . S
O313 C312 1.228 1_556 S
O314 Zn301 1.969 . S
O314 C312 1.267 . S
O315 Zn301 1.965 1_556 S
O315 C319 1.260 . S
O316 Zn300 1.969 1_556 S
O316 C319 1.258 . S
O317 Zn301 2.024 1_556 S
O317 C304 1.058 . S
C318 O307 1.260 . S
C318 O308 1.258 . S
C319 O315 1.260 . S
C319 O316 1.258 . S
H320 C332 0.930 . S
H321 C334 0.930 . S
H322 C335 0.930 . S
H323 C339 0.959 . S
H324 C339 0.959 . S
H325 C339 0.961 . S
H326 C340 0.960 . S
H327 C340 0.961 . S
H328 C340 0.959 1_455 S
H329 C343 0.929 . S
H330 C344 0.931 . S
H331 C346 0.930 . S
C332 H320 0.930 . S
C332 C333 1.399 . S
C332 C337 1.399 . S
C333 C332 1.399 . S
C333 C334 1.376 1_655 S
C334 H321 0.930 . S
C334 C333 1.376 1_455 S
C334 C335 1.388 . S
C335 H322 0.930 . S
C335 C334 1.388 . S
C335 C336 1.390 . S
C336 C335 1.390 . S
C336 C337 1.394 1_455 S
C336 C342 1.465 . S
C337 C332 1.399 . S
C337 C336 1.394 1_655 S
C337 C338 1.516 . S
C338 C337 1.516 . S
C338 C339 1.502 . S
C338 C340 1.561 . S
C338 C341 1.526 . S
C339 H323 0.959 . S
C339 H324 0.959 . S
C339 H325 0.961 . S
C339 C338 1.502 . S
C340 H326 0.960 . S
C340 H327 0.961 . S
C340 H328 0.959 1_655 S
C340 C338 1.561 . S
C341 C338 1.526 . S
C341 C342 1.396 1_655 S
C341 C346 1.390 . S
C342 C336 1.465 . S
C342 C341 1.396 1_455 S
C342 C343 1.399 . S
C343 H329 0.929 . S
C343 C342 1.399 . S
C343 C344 1.385 . S
C344 H330 0.931 . S
C344 C343 1.385 . S
C344 C345 1.389 . S
C345 C344 1.389 . S
C345 C346 1.387 1_455 S
C346 H331 0.930 . S
C346 C341 1.390 . S
C346 C345 1.387 1_655 S
H347 C359 0.930 . S
H348 C361 0.930 . S
H349 C362 0.930 . S
H350 C366 0.959 . S
H351 C366 0.959 . S
H352 C366 0.961 . S
H353 C367 0.960 . S
H354 C367 0.961 . S
H355 C367 0.959 . S
H356 C370 0.929 . S
H357 C371 0.931 . S
H358 C373 0.930 . S
C359 H347 0.930 . S
C359 C360 1.399 . S
C359 C364 1.399 . S
C360 C359 1.399 . S
C360 C361 1.376 . S
C361 H348 0.930 . S
C361 C360 1.376 . S
C361 C362 1.388 . S
C362 H349 0.930 . S
C362 C361 1.388 . S
C362 C363 1.390 . S
C363 C362 1.390 . S
C363 C364 1.394 . S
C363 C369 1.465 . S
C364 C359 1.399 . S
C364 C363 1.394 . S
C364 C365 1.516 . S
C365 C364 1.516 . S
C365 C366 1.502 . S
C365 C367 1.561 . S
C365 C368 1.526 . S
C366 H350 0.959 . S
C366 H351 0.959 . S
C366 H352 0.961 . S
C366 C365 1.502 . S
C367 H353 0.960 . S
C367 H354 0.961 . S
C367 H355 0.959 . S
C367 C365 1.561 . S
C368 C365 1.526 . S
C368 C369 1.396 . S
C368 C373 1.390 . S
C369 C363 1.465 . S
C369 C368 1.396 . S
C369 C370 1.399 . S
C370 H356 0.929 . S
C370 C369 1.399 . S
C370 C371 1.385 . S
C371 H357 0.931 . S
C371 C370 1.385 . S
C371 C372 1.389 . S
C372 C371 1.389 . S
C372 C373 1.387 . S
C373 H358 0.930 . S
C373 C368 1.390 . S
C373 C372 1.387 . S
H374 C386 0.930 . S
H375 C388 0.930 . S
H376 C389 0.930 . S
H377 C393 0.959 . S
H378 C393 0.959 . S
H379 C393 0.961 . S
H380 C394 0.960 . S
H381 C394 0.961 . S
H382 C394 0.959 . S
H383 C397 0.929 . S
H384 C398 0.931 . S
H385 C400 0.930 . S
C386 H374 0.930 . S
C386 C387 1.399 . S
C386 C391 1.399 . S
C387 C386 1.399 . S
C387 C388 1.376 . S
C388 H375 0.930 . S
C388 C387 1.376 . S
C388 C389 1.388 . S
C389 H376 0.930 . S
C389 C388 1.388 . S
C389 C390 1.390 . S
C390 C389 1.390 . S
C390 C391 1.394 . S
C390 C396 1.465 . S
C391 C386 1.399 . S
C391 C390 1.394 . S
C391 C392 1.516 . S
C392 C391 1.516 . S
C392 C393 1.502 . S
C392 C394 1.561 . S
C392 C395 1.526 . S
C393 H377 0.959 . S
C393 H378 0.959 . S
C393 H379 0.961 . S
C393 C392 1.502 . S
C394 H380 0.960 . S
C394 H381 0.961 . S
C394 H382 0.959 . S
C394 C392 1.561 . S
C395 C392 1.526 . S
C395 C396 1.396 . S
C395 C400 1.390 . S
C396 C390 1.465 . S
C396 C395 1.396 . S
C396 C397 1.399 . S
C397 H383 0.929 . S
C397 C396 1.399 . S
C397 C398 1.385 . S
C398 H384 0.931 . S
C398 C397 1.385 . S
C398 C399 1.389 . S
C399 C398 1.389 . S
C399 C400 1.387 . S
C400 H385 0.930 . S
C400 C395 1.390 . S
C400 C399 1.387 . S
H401 C413 0.930 1_565 S
H402 C415 0.930 . S
H403 C416 0.930 . S
H404 C420 0.959 1_545 S
H405 C420 0.959 . S
H406 C420 0.961 . S
H407 C421 0.960 . S
H408 C421 0.961 . S
H409 C421 0.959 . S
H410 C424 0.929 . S
H411 C425 0.931 . S
H412 C427 0.909 1_565 S
C413 H401 0.930 1_545 S
C413 C414 1.399 . S
C413 C418 1.399 . S
C414 C413 1.399 . S
C414 C415 1.376 . S
C415 H402 0.930 . S
C415 C414 1.376 . S
C415 C416 1.388 . S
C416 H403 0.930 . S
C416 C415 1.388 . S
C416 C417 1.390 . S
C417 C416 1.390 . S
C417 C418 1.394 . S
C417 C423 1.465 . S
C418 C413 1.399 . S
C418 C417 1.394 . S
C418 C419 1.516 . S
C419 C418 1.516 . S
C419 C420 1.502 1_545 S
C419 C421 1.561 1_545 S
C419 C422 1.526 . S
C420 H404 0.959 1_565 S
C420 H405 0.959 . S
C420 H406 0.961 . S
C420 C419 1.502 1_565 S
C421 H407 0.960 . S
C421 H408 0.961 . S
C421 H409 0.959 . S
C421 C419 1.561 1_565 S
C422 C419 1.526 . S
C422 C423 1.396 . S
C422 C427 1.390 . S
C423 C417 1.465 . S
C423 C422 1.396 . S
C423 C424 1.399 . S
C424 H410 0.929 . S
C424 C423 1.399 . S
C424 C425 1.385 . S
C425 H411 0.931 . S
C425 C424 1.385 . S
C425 C426 1.389 . S
C426 C425 1.389 . S
C426 C427 1.387 . S
C427 H412 0.909 1_545 S
C427 C422 1.390 . S
C427 C426 1.387 . S
H428 C440 0.930 . S
H429 C442 0.930 . S
H430 C443 0.930 . S
H431 C447 0.959 . S
H432 C447 0.959 . S
H433 C447 0.961 . S
H434 C448 0.960 . S
H435 C448 0.961 . S
H436 C448 0.959 . S
H437 C451 0.929 . S
H438 C452 0.931 . S
H439 C454 0.930 . S
C440 H428 0.930 . S
C440 C441 1.399 1_545 S
C440 C445 1.399 . S
C441 C440 1.399 1_565 S
C441 C442 1.376 . S
C442 H429 0.930 . S
C442 C441 1.376 . S
C442 C443 1.388 . S
C443 H430 0.930 . S
C443 C442 1.388 . S
C443 C444 1.390 . S
C444 C443 1.390 . S
C444 C445 1.394 1_565 S
C444 C450 1.465 . S
C445 C440 1.399 . S
C445 C444 1.394 1_545 S
C445 C446 1.516 . S
C446 C445 1.516 . S
C446 C447 1.502 . S
C446 C448 1.561 . S
C446 C449 1.526 . S
C447 H431 0.959 . S
C447 H432 0.959 . S
C447 H433 0.961 . S
C447 C446 1.502 . S
C448 H434 0.960 . S
C448 H435 0.961 . S
C448 H436 0.959 . S
C448 C446 1.561 . S
C449 C446 1.526 . S
C449 C450 1.396 1_545 S
C449 C454 1.390 . S
C450 C444 1.465 . S
C450 C449 1.396 1_565 S
C450 C451 1.399 . S
C451 H437 0.929 . S
C451 C450 1.399 . S
C451 C452 1.385 . S
C452 H438 0.931 . S
C452 C451 1.385 . S
C452 C453 1.389 . S
C453 C452 1.389 . S
C453 C454 1.387 1_565 S
C454 H439 0.930 . S
C454 C449 1.390 . S
C454 C453 1.387 1_545 S
H455 C467 0.930 . S
H456 C469 0.930 . S
H457 C470 0.930 1_655 S
H458 C474 0.959 . S
H459 C474 0.959 . S
H460 C474 0.961 . S
H461 C475 0.960 . S
H462 C475 0.961 . S
H463 C475 0.959 . S
H464 C478 0.929 1_655 S
H465 C479 0.931 1_655 S
H466 C481 0.930 . S
C467 H455 0.930 . S
C467 C468 1.399 . S
C467 C472 1.399 . S
C468 C467 1.399 . S
C468 C469 1.376 . S
C469 H456 0.930 . S
C469 C468 1.376 . S
C469 C470 1.388 . S
C470 H457 0.930 1_455 S
C470 C469 1.388 . S
C470 C471 1.390 . S
C471 C470 1.390 . S
C471 C472 1.394 . S
C471 C477 1.465 . S
C472 C467 1.399 . S
C472 C471 1.394 . S
C472 C473 1.516 . S
C473 C472 1.516 . S
C473 C474 1.502 . S
C473 C475 1.561 . S
C473 C476 1.526 . S
C474 H458 0.959 . S
C474 H459 0.959 . S
C474 H460 0.961 . S
C474 C473 1.502 . S
C475 H461 0.960 . S
C475 H462 0.961 . S
C475 H463 0.959 . S
C475 C473 1.561 . S
C476 C473 1.526 . S
C476 C477 1.396 . S
C476 C481 1.390 . S
C477 C471 1.465 . S
C477 C476 1.396 . S
C477 C478 1.399 . S
C478 H464 0.929 1_455 S
C478 C477 1.399 . S
C478 C479 1.385 . S
C479 H465 0.931 1_455 S
C479 C478 1.385 . S
C479 C480 1.389 . S
C480 C479 1.389 . S
C480 C481 1.387 . S
C481 H466 0.930 . S
C481 C476 1.390 . S
C481 C480 1.387 . S
H482 C494 0.930 . S
H483 C496 0.930 . S
H484 C497 0.930 . S
H485 C501 0.959 . S
H486 C501 0.959 . S
H487 C501 0.961 . S
H488 C502 0.960 . S
H489 C502 0.961 . S
H490 C502 0.959 . S
H491 C505 0.929 . S
H492 C506 0.931 . S
H493 C508 0.930 . S
C494 H482 0.930 . S
C494 C495 1.399 . S
C494 C499 1.399 . S
C495 C494 1.399 . S
C495 C496 1.376 . S
C496 H483 0.930 . S
C496 C495 1.376 . S
C496 C497 1.388 . S
C497 H484 0.930 . S
C497 C496 1.388 . S
C497 C498 1.390 . S
C498 C497 1.390 . S
C498 C499 1.394 . S
C498 C504 1.465 . S
C499 C494 1.399 . S
C499 C498 1.394 . S
C499 C500 1.516 . S
C500 C499 1.516 . S
C500 C501 1.502 . S
C500 C502 1.561 . S
C500 C503 1.526 . S
C501 H485 0.959 . S
C501 H486 0.959 . S
C501 H487 0.961 . S
C501 C500 1.502 . S
C502 H488 0.960 . S
C502 H489 0.961 . S
C502 H490 0.959 . S
C502 C500 1.561 . S
C503 C500 1.526 . S
C503 C504 1.396 . S
C503 C508 1.390 . S
C504 C498 1.465 . S
C504 C503 1.396 . S
C504 C505 1.399 . S
C505 H491 0.929 . S
C505 C504 1.399 . S
C505 C506 1.385 . S
C506 H492 0.931 . S
C506 C505 1.385 . S
C506 C507 1.389 . S
C507 C506 1.389 . S
C507 C508 1.387 . S
C508 H493 0.930 . S
C508 C503 1.390 . S
C508 C507 1.387 . S
H509 C521 0.930 . S
H510 C523 0.930 . S
H511 C524 0.930 . S
H512 C528 0.959 . S
H513 C528 0.959 . S
H514 C528 0.961 . S
H515 C529 0.960 . S
H516 C529 0.961 . S
H517 C529 0.959 . S
H518 C532 0.929 . S
H519 C533 0.931 . S
H520 C535 0.930 . S
C521 H509 0.930 . S
C521 C522 1.399 . S
C521 C526 1.399 . S
C522 C521 1.399 . S
C522 C523 1.376 . S
C523 H510 0.930 . S
C523 C522 1.376 . S
C523 C524 1.388 . S
C524 H511 0.930 . S
C524 C523 1.388 . S
C524 C525 1.390 . S
C525 C524 1.390 . S
C525 C526 1.394 . S
C525 C531 1.465 . S
C526 C521 1.399 . S
C526 C525 1.394 . S
C526 C527 1.516 . S
C527 C526 1.516 . S
C527 C528 1.502 . S
C527 C529 1.561 . S
C527 C530 1.526 . S
C528 H512 0.959 . S
C528 H513 0.959 . S
C528 H514 0.961 . S
C528 C527 1.502 . S
C529 H515 0.960 . S
C529 H516 0.961 . S
C529 H517 0.959 . S
C529 C527 1.561 . S
C530 C527 1.526 . S
C530 C531 1.396 . S
C530 C535 1.390 . S
C531 C525 1.465 . S
C531 C530 1.396 . S
C531 C532 1.399 . S
C532 H518 0.929 . S
C532 C531 1.399 . S
C532 C533 1.385 . S
C533 H519 0.931 . S
C533 C532 1.385 . S
C533 C534 1.389 . S
C534 C533 1.389 . S
C534 C535 1.387 . S
C535 H520 0.930 . S
C535 C530 1.390 . S
C535 C534 1.387 . S
H536 C548 0.930 . S
H537 C550 0.930 . S
H538 C551 0.930 . S
H539 C555 0.959 . S
H540 C555 0.959 . S
H541 C555 0.961 . S
H542 C556 0.960 . S
H543 C556 0.961 . S
H544 C556 0.959 . S
H545 C559 0.929 . S
H546 C560 0.931 . S
H547 C562 0.930 . S
C548 H536 0.930 . S
C548 C549 1.399 . S
C548 C553 1.399 . S
C549 C548 1.399 . S
C549 C550 1.376 . S
C550 H537 0.930 . S
C550 C549 1.376 . S
C550 C551 1.388 . S
C551 H538 0.930 . S
C551 C550 1.388 . S
C551 C552 1.390 . S
C552 C551 1.390 . S
C552 C553 1.394 . S
C552 C558 1.465 . S
C553 C548 1.399 . S
C553 C552 1.394 . S
C553 C554 1.516 . S
C554 C553 1.516 . S
C554 C555 1.502 . S
C554 C556 1.561 . S
C554 C557 1.526 . S
C555 H539 0.959 . S
C555 H540 0.959 . S
C555 H541 0.961 . S
C555 C554 1.502 . S
C556 H542 0.960 . S
C556 H543 0.961 . S
C556 H544 0.959 . S
C556 C554 1.561 . S
C557 C554 1.526 . S
C557 C558 1.396 . S
C557 C562 1.390 . S
C558 C552 1.465 . S
C558 C557 1.396 . S
C558 C559 1.399 . S
C559 H545 0.929 . S
C559 C558 1.399 . S
C559 C560 1.385 . S
C560 H546 0.931 . S
C560 C559 1.385 . S
C560 C561 1.389 . S
C561 C560 1.389 . S
C561 C562 1.387 . S
C562 H547 0.930 . S
C562 C557 1.390 . S
C562 C561 1.387 . S
H563 C575 0.930 . S
H564 C577 0.930 . S
H565 C578 0.930 . S
H566 C582 0.959 . S
H567 C582 0.959 . S
H568 C582 0.961 . S
H569 C583 0.960 . S
H570 C583 0.961 . S
H571 C583 0.959 . S
H572 C586 0.929 . S
H573 C587 0.931 . S
H574 C589 0.930 . S
C575 H563 0.930 . S
C575 C576 1.399 . S
C575 C580 1.399 . S
C576 C575 1.399 . S
C576 C577 1.376 . S
C577 H564 0.930 . S
C577 C576 1.376 . S
C577 C578 1.388 . S
C578 H565 0.930 . S
C578 C577 1.388 . S
C578 C579 1.390 . S
C579 C578 1.390 . S
C579 C580 1.394 . S
C579 C585 1.465 . S
C580 C575 1.399 . S
C580 C579 1.394 . S
C580 C581 1.516 . S
C581 C580 1.516 . S
C581 C582 1.502 . S
C581 C583 1.561 . S
C581 C584 1.526 . S
C582 H566 0.959 . S
C582 H567 0.959 . S
C582 H568 0.961 . S
C582 C581 1.502 . S
C583 H569 0.960 . S
C583 H570 0.961 . S
C583 H571 0.959 . S
C583 C581 1.561 . S
C584 C581 1.526 . S
C584 C585 1.396 . S
C584 C589 1.390 . S
C585 C579 1.465 . S
C585 C584 1.396 . S
C585 C586 1.399 . S
C586 H572 0.929 . S
C586 C585 1.399 . S
C586 C587 1.385 . S
C587 H573 0.931 . S
C587 C586 1.385 . S
C587 C588 1.389 . S
C588 C587 1.389 . S
C588 C589 1.387 . S
C589 H574 0.930 . S
C589 C584 1.390 . S
C589 C588 1.387 . S
H590 C602 0.930 . S
H591 C604 0.930 . S
H592 C605 0.930 . S
H593 C609 0.959 . S
H594 C609 0.959 . S
H595 C609 0.961 . S
H596 C610 0.960 . S
H597 C610 0.961 . S
H598 C610 0.959 . S
H599 C613 0.929 . S
H600 C614 0.931 . S
H601 C616 0.930 1_565 S
C602 H590 0.930 . S
C602 C603 1.384 1_565 S
C602 C607 1.399 . S
C603 C602 1.384 1_545 S
C603 C604 1.407 . S
C604 H591 0.930 . S
C604 C603 1.407 . S
C604 C605 1.388 . S
C605 H592 0.930 . S
C605 C604 1.388 . S
C605 C606 1.390 . S
C606 C605 1.390 . S
C606 C607 1.394 1_545 S
C606 C612 1.465 . S
C607 C602 1.399 . S
C607 C606 1.394 1_565 S
C607 C608 1.516 . S
C608 C607 1.516 . S
C608 C609 1.502 . S
C608 C610 1.561 . S
C608 C611 1.526 1_565 S
C609 H593 0.959 . S
C609 H594 0.959 . S
C609 H595 0.961 . S
C609 C608 1.502 . S
C610 H596 0.960 . S
C610 H597 0.961 . S
C610 H598 0.959 . S
C610 C608 1.561 . S
C611 C608 1.526 1_545 S
C611 C612 1.396 . S
C611 C616 1.390 . S
C612 C606 1.465 . S
C612 C611 1.396 . S
C612 C613 1.399 . S
C613 H599 0.929 . S
C613 C612 1.399 . S
C613 C614 1.385 . S
C614 H600 0.931 . S
C614 C613 1.385 . S
C614 C615 1.389 . S
C615 C614 1.389 . S
C615 C616 1.387 . S
C616 H601 0.930 1_545 S
C616 C611 1.390 . S
C616 C615 1.387 . S
H617 C629 0.930 . S
H618 C631 0.929 . S
H619 C632 0.930 . S
H620 C636 0.959 . S
H621 C636 0.959 . S
H622 C636 0.961 . S
H623 C637 0.960 . S
H624 C637 0.961 . S
H625 C637 0.959 . S
H626 C640 0.929 . S
H627 C641 0.931 . S
H628 C643 0.930 . S
C629 H617 0.930 . S
C629 C630 1.399 . S
C629 C634 1.399 . S
C630 C629 1.399 . S
C630 C631 1.379 1_455 S
C631 H618 0.929 . S
C631 C630 1.379 1_655 S
C631 C632 1.387 . S
C632 H619 0.930 . S
C632 C631 1.387 . S
C632 C633 1.390 1_655 S
C633 C632 1.390 1_455 S
C633 C634 1.394 . S
C633 C639 1.465 . S
C634 C629 1.399 . S
C634 C633 1.394 . S
C634 C635 1.516 . S
C635 C634 1.516 . S
C635 C636 1.502 . S
C635 C637 1.561 . S
C635 C638 1.526 . S
C636 H620 0.959 . S
C636 H621 0.959 . S
C636 H622 0.961 . S
C636 C635 1.502 . S
C637 H623 0.960 . S
C637 H624 0.961 . S
C637 H625 0.959 . S
C637 C635 1.561 . S
C638 C635 1.526 . S
C638 C639 1.396 . S
C638 C643 1.390 . S
C639 C633 1.465 . S
C639 C638 1.396 . S
C639 C640 1.399 1_455 S
C640 H626 0.929 . S
C640 C639 1.399 1_655 S
C640 C641 1.385 . S
C641 H627 0.931 . S
C641 C640 1.385 . S
C641 C642 1.389 1_655 S
C642 C641 1.389 1_455 S
C642 C643 1.387 . S
C643 H628 0.930 . S
C643 C638 1.390 . S
C643 C642 1.387 . S
H644 C656 0.930 . S
H645 C658 0.930 . S
H646 C659 0.930 . S
H647 C663 0.959 . S
H648 C663 0.959 . S
H649 C663 0.961 . S
H650 C664 0.960 . S
H651 C664 0.961 . S
H652 C664 0.959 . S
H653 C667 0.929 . S
H654 C668 0.931 . S
H655 C670 0.930 . S
C656 H644 0.930 . S
C656 C657 1.399 1_554 S
C656 C661 1.399 . S
C657 C656 1.399 1_556 S
C657 C658 1.376 . S
C658 H645 0.930 . S
C658 C657 1.376 . S
C658 C659 1.388 . S
C659 H646 0.930 . S
C659 C658 1.388 . S
C659 C660 1.390 . S
C660 C659 1.390 . S
C660 C661 1.394 1_556 S
C660 C666 1.465 . S
C661 C656 1.399 . S
C661 C660 1.394 1_554 S
C661 C662 1.516 . S
C662 C661 1.516 . S
C662 C663 1.502 . S
C662 C664 1.561 . S
C662 C665 1.526 . S
C663 H647 0.959 . S
C663 H648 0.959 . S
C663 H649 0.961 . S
C663 C662 1.502 . S
C664 H650 0.960 . S
C664 H651 0.961 . S
C664 H652 0.959 . S
C664 C662 1.561 . S
C665 C662 1.526 . S
C665 C666 1.396 1_554 S
C665 C670 1.390 . S
C666 C660 1.465 . S
C666 C665 1.396 1_556 S
C666 C667 1.399 . S
C667 H653 0.929 . S
C667 C666 1.399 . S
C667 C668 1.385 . S
C668 H654 0.931 . S
C668 C667 1.385 . S
C668 C669 1.389 . S
C669 C668 1.389 . S
C669 C670 1.387 1_556 S
C670 H655 0.930 . S
C670 C665 1.390 . S
C670 C669 1.387 1_554 S
H671 C683 0.930 . S
H672 C685 0.930 . S
H673 C686 0.930 . S
H674 C690 0.959 . S
H675 C690 0.959 . S
H676 C690 0.961 . S
H677 C691 0.960 . S
H678 C691 0.961 . S
H679 C691 0.959 . S
H680 C694 0.929 . S
H681 C695 0.931 . S
H682 C697 0.930 . S
C683 H671 0.930 . S
C683 C684 1.399 . S
C683 C688 1.399 . S
C684 C683 1.399 . S
C684 C685 1.376 . S
C685 H672 0.930 . S
C685 C684 1.376 . S
C685 C686 1.388 . S
C686 H673 0.930 . S
C686 C685 1.388 . S
C686 C687 1.390 . S
C687 C686 1.390 . S
C687 C688 1.394 . S
C687 C693 1.465 . S
C688 C683 1.399 . S
C688 C687 1.394 . S
C688 C689 1.516 . S
C689 C688 1.516 . S
C689 C690 1.502 . S
C689 C691 1.561 . S
C689 C692 1.526 . S
C690 H674 0.959 . S
C690 H675 0.959 . S
C690 H676 0.961 . S
C690 C689 1.502 . S
C691 H677 0.960 . S
C691 H678 0.961 . S
C691 H679 0.959 . S
C691 C689 1.561 . S
C692 C689 1.526 . S
C692 C693 1.396 . S
C692 C697 1.390 . S
C693 C687 1.465 . S
C693 C692 1.396 . S
C693 C694 1.399 . S
C694 H680 0.929 . S
C694 C693 1.399 . S
C694 C695 1.385 . S
C695 H681 0.931 . S
C695 C694 1.385 . S
C695 C696 1.389 . S
C696 C695 1.389 . S
C696 C697 1.387 . S
C697 H682 0.930 . S
C697 C692 1.390 . S
C697 C696 1.387 . S
H698 C710 0.930 . S
H699 C712 0.930 . S
H700 C713 0.930 . S
H701 C717 0.959 . S
H702 C717 0.959 . S
H703 C717 0.961 . S
H704 C718 0.960 . S
H705 C718 0.961 . S
H706 C718 0.959 . S
H707 C721 0.929 . S
H708 C722 0.931 . S
H709 C724 0.930 . S
C710 H698 0.930 . S
C710 C711 1.399 . S
C710 C715 1.399 . S
C711 C710 1.399 . S
C711 C712 1.376 . S
C712 H699 0.930 . S
C712 C711 1.376 . S
C712 C713 1.388 . S
C713 H700 0.930 . S
C713 C712 1.388 . S
C713 C714 1.390 . S
C714 C713 1.390 . S
C714 C715 1.394 . S
C714 C720 1.465 . S
C715 C710 1.399 . S
C715 C714 1.394 . S
C715 C716 1.516 . S
C716 C715 1.516 . S
C716 C717 1.502 . S
C716 C718 1.561 . S
C716 C719 1.526 . S
C717 H701 0.959 . S
C717 H702 0.959 . S
C717 H703 0.961 . S
C717 C716 1.502 . S
C718 H704 0.960 . S
C718 H705 0.961 . S
C718 H706 0.959 . S
C718 C716 1.561 . S
C719 C716 1.526 . S
C719 C720 1.396 . S
C719 C724 1.390 . S
C720 C714 1.465 . S
C720 C719 1.396 . S
C720 C721 1.399 . S
C721 H707 0.929 . S
C721 C720 1.399 . S
C721 C722 1.385 . S
C722 H708 0.931 . S
C722 C721 1.385 . S
C722 C723 1.389 . S
C723 C722 1.389 . S
C723 C724 1.387 . S
C724 H709 0.930 . S
C724 C719 1.390 . S
C724 C723 1.387 . S
H725 C737 0.930 . S
H726 C739 0.930 . S
H727 C740 0.930 . S
H728 C744 0.959 . S
H729 C744 0.959 . S
H730 C744 0.961 . S
H731 C745 0.960 . S
H732 C745 0.961 . S
H733 C745 0.959 . S
H734 C748 0.929 . S
H735 C749 0.931 . S
H736 C751 0.930 . S
C737 H725 0.930 . S
C737 C738 1.399 . S
C737 C742 1.399 . S
C738 C737 1.399 . S
C738 C739 1.376 . S
C739 H726 0.930 . S
C739 C738 1.376 . S
C739 C740 1.388 . S
C740 H727 0.930 . S
C740 C739 1.388 . S
C740 C741 1.390 . S
C741 C740 1.390 . S
C741 C742 1.394 . S
C741 C747 1.465 . S
C742 C737 1.399 . S
C742 C741 1.394 . S
C742 C743 1.516 . S
C743 C742 1.516 . S
C743 C744 1.502 . S
C743 C745 1.561 . S
C743 C746 1.526 . S
C744 H728 0.959 . S
C744 H729 0.959 . S
C744 H730 0.961 . S
C744 C743 1.502 . S
C745 H731 0.960 . S
C745 H732 0.961 . S
C745 H733 0.959 . S
C745 C743 1.561 . S
C746 C743 1.526 . S
C746 C747 1.396 . S
C746 C751 1.390 . S
C747 C741 1.465 . S
C747 C746 1.396 . S
C747 C748 1.399 . S
C748 H734 0.929 . S
C748 C747 1.399 . S
C748 C749 1.385 . S
C749 H735 0.931 . S
C749 C748 1.385 . S
C749 C750 1.389 . S
C750 C749 1.389 . S
C750 C751 1.387 . S
C751 H736 0.930 . S
C751 C746 1.390 . S
C751 C750 1.387 . S
H752 C764 0.930 . S
H753 C766 0.930 . S
H754 C767 0.930 . S
H755 C771 0.959 . S
H756 C771 0.959 . S
H757 C771 0.961 . S
H758 C772 0.960 . S
H759 C772 0.961 . S
H760 C772 0.959 . S
H761 C775 0.929 . S
H762 C776 0.931 . S
H763 C778 0.930 . S
C764 H752 0.930 . S
C764 C765 1.399 . S
C764 C769 1.399 . S
C765 C764 1.399 . S
C765 C766 1.376 . S
C766 H753 0.930 . S
C766 C765 1.376 . S
C766 C767 1.388 . S
C767 H754 0.930 . S
C767 C766 1.388 . S
C767 C768 1.390 . S
C768 C767 1.390 . S
C768 C769 1.394 . S
C768 C774 1.465 . S
C769 C764 1.399 . S
C769 C768 1.394 . S
C769 C770 1.516 . S
C770 C769 1.516 . S
C770 C771 1.502 . S
C770 C772 1.561 . S
C770 C773 1.526 . S
C771 H755 0.959 . S
C771 H756 0.959 . S
C771 H757 0.961 . S
C771 C770 1.502 . S
C772 H758 0.960 . S
C772 H759 0.961 . S
C772 H760 0.959 . S
C772 C770 1.561 . S
C773 C770 1.526 . S
C773 C774 1.396 . S
C773 C778 1.390 . S
C774 C768 1.465 . S
C774 C773 1.396 . S
C774 C775 1.399 . S
C775 H761 0.929 . S
C775 C774 1.399 . S
C775 C776 1.385 . S
C776 H762 0.931 . S
C776 C775 1.385 . S
C776 C777 1.389 . S
C777 C776 1.389 . S
C777 C778 1.387 . S
C778 H763 0.930 . S
C778 C773 1.390 . S
C778 C777 1.387 . S
H779 C791 0.930 . S
H780 C793 0.930 . S
H781 C794 0.930 . S
H782 C798 0.959 . S
H783 C798 0.959 . S
H784 C798 0.961 . S
H785 C799 0.960 . S
H786 C799 0.961 . S
H787 C799 0.959 . S
H788 C802 0.929 . S
H789 C803 0.931 . S
H790 C805 0.930 . S
C791 H779 0.930 . S
C791 C792 1.399 . S
C791 C796 1.399 . S
C792 C791 1.399 . S
C792 C793 1.376 . S
C793 H780 0.930 . S
C793 C792 1.376 . S
C793 C794 1.388 . S
C794 H781 0.930 . S
C794 C793 1.388 . S
C794 C795 1.390 . S
C795 C794 1.390 . S
C795 C796 1.394 . S
C795 C801 1.465 . S
C796 C791 1.399 . S
C796 C795 1.394 . S
C796 C797 1.516 . S
C797 C796 1.516 . S
C797 C798 1.502 . S
C797 C799 1.561 . S
C797 C800 1.526 . S
C798 H782 0.959 . S
C798 H783 0.959 . S
C798 H784 0.961 . S
C798 C797 1.502 . S
C799 H785 0.960 . S
C799 H786 0.961 . S
C799 H787 0.959 . S
C799 C797 1.561 . S
C800 C797 1.526 . S
C800 C801 1.396 . S
C800 C805 1.390 . S
C801 C795 1.465 . S
C801 C800 1.396 . S
C801 C802 1.399 . S
C802 H788 0.929 . S
C802 C801 1.399 . S
C802 C803 1.385 . S
C803 H789 0.931 . S
C803 C802 1.385 . S
C803 C804 1.389 . S
C804 C803 1.389 . S
C804 C805 1.387 . S
C805 H790 0.930 . S
C805 C800 1.390 . S
C805 C804 1.387 . S
H806 C818 0.930 . S
H807 C820 0.930 . S
H808 C821 0.930 . S
H809 C825 0.959 . S
H810 C825 0.959 . S
H811 C825 0.961 . S
H812 C826 0.960 . S
H813 C826 0.961 . S
H814 C826 0.959 . S
H815 C829 0.929 . S
H816 C830 0.931 . S
H817 C832 0.930 . S
C818 H806 0.930 . S
C818 C819 1.399 . S
C818 C823 1.399 . S
C819 C818 1.399 . S
C819 C820 1.376 . S
C820 H807 0.930 . S
C820 C819 1.376 . S
C820 C821 1.388 . S
C821 H808 0.930 . S
C821 C820 1.388 . S
C821 C822 1.390 . S
C822 C821 1.390 . S
C822 C823 1.394 . S
C822 C828 1.465 . S
C823 C818 1.399 . S
C823 C822 1.394 . S
C823 C824 1.516 . S
C824 C823 1.516 . S
C824 C825 1.502 . S
C824 C826 1.561 . S
C824 C827 1.526 . S
C825 H809 0.959 . S
C825 H810 0.959 . S
C825 H811 0.961 . S
C825 C824 1.502 . S
C826 H812 0.960 . S
C826 H813 0.961 . S
C826 H814 0.959 . S
C826 C824 1.561 . S
C827 C824 1.526 . S
C827 C828 1.396 . S
C827 C832 1.390 . S
C828 C822 1.465 . S
C828 C827 1.396 . S
C828 C829 1.399 . S
C829 H815 0.929 . S
C829 C828 1.399 . S
C829 C830 1.385 . S
C830 H816 0.931 . S
C830 C829 1.385 . S
C830 C831 1.389 . S
C831 C830 1.389 . S
C831 C832 1.387 . S
C832 H817 0.930 . S
C832 C827 1.390 . S
C832 C831 1.387 . S
H833 C845 0.930 . S
H834 C847 0.930 . S
H835 C848 0.930 . S
H836 C852 0.959 . S
H837 C852 0.959 . S
H838 C852 0.961 . S
H839 C853 0.960 . S
H840 C853 0.961 . S
H841 C853 0.959 . S
H842 C856 0.929 . S
H843 C857 0.931 . S
H844 C859 0.930 . S
C845 H833 0.930 . S
C845 C846 1.399 . S
C845 C850 1.399 . S
C846 C845 1.399 . S
C846 C847 1.376 . S
C847 H834 0.930 . S
C847 C846 1.376 . S
C847 C848 1.388 . S
C848 H835 0.930 . S
C848 C847 1.388 . S
C848 C849 1.390 . S
C849 C848 1.390 . S
C849 C850 1.394 . S
C849 C855 1.465 . S
C850 C845 1.399 . S
C850 C849 1.394 . S
C850 C851 1.516 . S
C851 C850 1.516 . S
C851 C852 1.502 . S
C851 C853 1.561 . S
C851 C854 1.526 . S
C852 H836 0.959 . S
C852 H837 0.959 . S
C852 H838 0.961 . S
C852 C851 1.502 . S
C853 H839 0.960 . S
C853 H840 0.961 . S
C853 H841 0.959 . S
C853 C851 1.561 . S
C854 C851 1.526 . S
C854 C855 1.396 . S
C854 C859 1.390 . S
C855 C849 1.465 . S
C855 C854 1.396 . S
C855 C856 1.399 . S
C856 H842 0.929 . S
C856 C855 1.399 . S
C856 C857 1.385 . S
C857 H843 0.931 . S
C857 C856 1.385 . S
C857 C858 1.389 . S
C858 C857 1.389 . S
C858 C859 1.387 . S
C859 H844 0.930 . S
C859 C854 1.390 . S
C859 C858 1.387 . S
H860 C872 0.930 . S
H861 C874 0.930 . S
H862 C875 0.930 . S
H863 C879 0.959 . S
H864 C879 0.959 . S
H865 C879 0.961 . S
H866 C880 0.960 . S
H867 C880 0.961 . S
H868 C880 0.959 . S
H869 C883 0.929 . S
H870 C884 0.931 . S
H871 C886 0.930 . S
C872 H860 0.930 . S
C872 C873 1.399 . S
C872 C877 1.399 . S
C873 C872 1.399 . S
C873 C874 1.376 . S
C874 H861 0.930 . S
C874 C873 1.376 . S
C874 C875 1.388 . S
C875 H862 0.930 . S
C875 C874 1.388 . S
C875 C876 1.390 . S
C876 C875 1.390 . S
C876 C877 1.394 . S
C876 C882 1.465 . S
C877 C872 1.399 . S
C877 C876 1.394 . S
C877 C878 1.516 . S
C878 C877 1.516 . S
C878 C879 1.502 . S
C878 C880 1.561 . S
C878 C881 1.526 . S
C879 H863 0.959 . S
C879 H864 0.959 . S
C879 H865 0.961 . S
C879 C878 1.502 . S
C880 H866 0.960 . S
C880 H867 0.961 . S
C880 H868 0.959 . S
C880 C878 1.561 . S
C881 C878 1.526 . S
C881 C882 1.396 . S
C881 C886 1.390 . S
C882 C876 1.465 . S
C882 C881 1.396 . S
C882 C883 1.399 . S
C883 H869 0.929 . S
C883 C882 1.399 . S
C883 C884 1.385 . S
C884 H870 0.931 . S
C884 C883 1.385 . S
C884 C885 1.389 . S
C885 C884 1.389 . S
C885 C886 1.387 . S
C886 H871 0.930 . S
C886 C881 1.390 . S
C886 C885 1.387 . S
H887 C899 0.927 . S
H888 C901 0.930 . S
H889 C902 0.930 . S
H890 C906 0.959 . S
H891 C906 0.959 . S
H892 C906 0.961 . S
H893 C907 0.960 . S
H894 C907 0.961 . S
H895 C907 0.959 1_655 S
H896 C910 0.929 . S
H897 C911 0.931 . S
H898 C913 0.930 . S
C899 H887 0.927 . S
C899 C900 1.401 1_455 S
C899 C904 1.400 1_455 S
C900 C899 1.401 1_655 S
C900 C901 1.376 . S
C901 H888 0.930 . S
C901 C900 1.376 . S
C901 C902 1.388 . S
C902 H889 0.930 . S
C902 C901 1.388 . S
C902 C903 1.390 . S
C903 C902 1.390 . S
C903 C904 1.394 . S
C903 C909 1.465 . S
C904 C899 1.400 1_655 S
C904 C903 1.394 . S
C904 C905 1.516 1_655 S
C905 C904 1.516 1_455 S
C905 C906 1.502 . S
C905 C907 1.561 . S
C905 C908 1.526 1_455 S
C906 H890 0.959 . S
C906 H891 0.959 . S
C906 H892 0.961 . S
C906 C905 1.502 . S
C907 H893 0.960 . S
C907 H894 0.961 . S
C907 H895 0.959 1_455 S
C907 C905 1.561 . S
C908 C905 1.526 1_655 S
C908 C909 1.396 . S
C908 C913 1.390 1_655 S
C909 C903 1.465 . S
C909 C908 1.396 . S
C909 C910 1.399 . S
C910 H896 0.929 . S
C910 C909 1.399 . S
C910 C911 1.385 . S
C911 H897 0.931 . S
C911 C910 1.385 . S
C911 C912 1.389 . S
C912 C911 1.389 . S
C912 C913 1.387 1_655 S
C913 H898 0.930 . S
C913 C908 1.390 1_455 S
C913 C912 1.387 1_455 S
H914 C926 0.930 . S
H915 C928 0.930 . S
H916 C929 0.930 . S
H917 C933 0.959 . S
H918 C933 0.959 . S
H919 C933 0.961 . S
H920 C934 0.960 . S
H921 C934 0.961 . S
H922 C934 0.959 . S
H923 C937 0.929 . S
H924 C938 0.931 . S
H925 C940 0.930 . S
C926 H914 0.930 . S
C926 C927 1.399 . S
C926 C931 1.399 . S
C927 C926 1.399 . S
C927 C928 1.376 . S
C928 H915 0.930 . S
C928 C927 1.376 . S
C928 C929 1.388 . S
C929 H916 0.930 . S
C929 C928 1.388 . S
C929 C930 1.390 . S
C930 C929 1.390 . S
C930 C931 1.394 . S
C930 C936 1.465 . S
C931 C926 1.399 . S
C931 C930 1.394 . S
C931 C932 1.516 . S
C932 C931 1.516 . S
C932 C933 1.502 . S
C932 C934 1.561 . S
C932 C935 1.526 . S
C933 H917 0.959 . S
C933 H918 0.959 . S
C933 H919 0.961 . S
C933 C932 1.502 . S
C934 H920 0.960 . S
C934 H921 0.961 . S
C934 H922 0.959 . S
C934 C932 1.561 . S
C935 C932 1.526 . S
C935 C936 1.396 . S
C935 C940 1.390 . S
C936 C930 1.465 . S
C936 C935 1.396 . S
C936 C937 1.399 . S
C937 H923 0.929 . S
C937 C936 1.399 . S
C937 C938 1.385 . S
C938 H924 0.931 . S
C938 C937 1.385 . S
C938 C939 1.389 . S
C939 C938 1.389 . S
C939 C940 1.387 . S
C940 H925 0.930 . S
C940 C935 1.390 . S
C940 C939 1.387 . S
H941 C953 0.930 . S
H942 C955 0.930 . S
H943 C956 0.930 . S
H944 C960 0.959 . S
H945 C960 0.959 . S
H946 C960 0.961 . S
H947 C961 0.960 . S
H948 C961 0.961 . S
H949 C961 0.959 . S
H950 C964 0.929 . S
H951 C965 0.931 . S
H952 C967 0.930 . S
C953 H941 0.930 . S
C953 C954 1.399 . S
C953 C958 1.399 . S
C954 C953 1.399 . S
C954 C955 1.376 . S
C955 H942 0.930 . S
C955 C954 1.376 . S
C955 C956 1.388 . S
C956 H943 0.930 . S
C956 C955 1.388 . S
C956 C957 1.390 . S
C957 C956 1.390 . S
C957 C958 1.394 . S
C957 C963 1.465 . S
C958 C953 1.399 . S
C958 C957 1.394 . S
C958 C959 1.516 . S
C959 C958 1.516 . S
C959 C960 1.502 . S
C959 C961 1.561 . S
C959 C962 1.526 . S
C960 H944 0.959 . S
C960 H945 0.959 . S
C960 H946 0.961 . S
C960 C959 1.502 . S
C961 H947 0.960 . S
C961 H948 0.961 . S
C961 H949 0.959 . S
C961 C959 1.561 . S
C962 C959 1.526 . S
C962 C963 1.396 . S
C962 C967 1.390 . S
C963 C957 1.465 . S
C963 C962 1.396 . S
C963 C964 1.399 . S
C964 H950 0.929 . S
C964 C963 1.399 . S
C964 C965 1.385 . S
C965 H951 0.931 . S
C965 C964 1.385 . S
C965 C966 1.389 . S
C966 C965 1.389 . S
C966 C967 1.387 . S
C967 H952 0.930 . S
C967 C962 1.390 . S
C967 C966 1.387 . S
H968 C980 0.930 . S
H969 C982 0.930 . S
H970 C983 0.930 . S
H971 C987 0.959 . S
H972 C987 0.959 . S
H973 C987 0.961 . S
H974 C988 0.960 . S
H975 C988 0.961 . S
H976 C988 0.959 . S
H977 C991 0.929 . S
H978 C992 0.931 . S
H979 C994 0.930 . S
C980 H968 0.930 . S
C980 C981 1.399 . S
C980 C985 1.399 . S
C981 C980 1.399 . S
C981 C982 1.376 . S
C982 H969 0.930 . S
C982 C981 1.376 . S
C982 C983 1.388 . S
C983 H970 0.930 . S
C983 C982 1.388 . S
C983 C984 1.390 . S
C984 C983 1.390 . S
C984 C985 1.394 . S
C984 C990 1.465 . S
C985 C980 1.399 . S
C985 C984 1.394 . S
C985 C986 1.516 . S
C986 C985 1.516 . S
C986 C987 1.502 . S
C986 C988 1.561 . S
C986 C989 1.526 . S
C987 H971 0.959 . S
C987 H972 0.959 . S
C987 H973 0.961 . S
C987 C986 1.502 . S
C988 H974 0.960 . S
C988 H975 0.961 . S
C988 H976 0.959 . S
C988 C986 1.561 . S
C989 C986 1.526 . S
C989 C990 1.396 . S
C989 C994 1.390 . S
C990 C984 1.465 . S
C990 C989 1.396 . S
C990 C991 1.399 . S
C991 H977 0.929 . S
C991 C990 1.399 . S
C991 C992 1.385 . S
C992 H978 0.931 . S
C992 C991 1.385 . S
C992 C993 1.389 . S
C993 C992 1.389 . S
C993 C994 1.387 . S
C994 H979 0.930 . S
C994 C989 1.390 . S
C994 C993 1.387 . S
H995 C1007 0.930 . S
H996 C1009 0.930 . S
H997 C1010 0.930 . S
H998 C1014 0.959 . S
H999 C1014 0.959 . S
H1000 C1014 0.961 . S
H1001 C1015 0.960 . S
H1002 C1015 0.961 . S
H1003 C1015 0.959 . S
H1004 C1018 0.929 . S
H1005 C1019 0.931 . S
H1006 C1021 0.930 . S
C1007 H995 0.930 . S
C1007 C1008 1.399 . S
C1007 C1012 1.399 . S
C1008 C1007 1.399 . S
C1008 C1009 1.376 . S
C1009 H996 0.930 . S
C1009 C1008 1.376 . S
C1009 C1010 1.388 . S
C1010 H997 0.930 . S
C1010 C1009 1.388 . S
C1010 C1011 1.390 . S
C1011 C1010 1.390 . S
C1011 C1012 1.394 . S
C1011 C1017 1.465 . S
C1012 C1007 1.399 . S
C1012 C1011 1.394 . S
C1012 C1013 1.516 . S
C1013 C1012 1.516 . S
C1013 C1014 1.502 . S
C1013 C1015 1.561 . S
C1013 C1016 1.526 . S
C1014 H998 0.959 . S
C1014 H999 0.959 . S
C1014 H1000 0.961 . S
C1014 C1013 1.502 . S
C1015 H1001 0.960 . S
C1015 H1002 0.961 . S
C1015 H1003 0.959 . S
C1015 C1013 1.561 . S
C1016 C1013 1.526 . S
C1016 C1017 1.396 . S
C1016 C1021 1.390 . S
C1017 C1011 1.465 . S
C1017 C1016 1.396 . S
C1017 C1018 1.399 . S
C1018 H1004 0.929 . S
C1018 C1017 1.399 . S
C1018 C1019 1.385 . S
C1019 H1005 0.931 . S
C1019 C1018 1.385 . S
C1019 C1020 1.389 . S
C1020 C1019 1.389 . S
C1020 C1021 1.387 . S
C1021 H1006 0.930 . S
C1021 C1016 1.390 . S
C1021 C1020 1.387 . S
H1022 C1034 0.930 . S
H1023 C1036 0.930 1_565 S
H1024 C1037 0.930 . S
H1025 C1041 0.959 . S
H1026 C1041 0.959 . S
H1027 C1041 0.961 . S
H1028 C1042 0.960 . S
H1029 C1042 0.961 . S
H1030 C1042 0.959 . S
H1031 C1045 0.929 . S
H1032 C1046 0.931 . S
H1033 C1048 0.930 . S
C1034 H1022 0.930 . S
C1034 C1035 1.399 . S
C1034 C1039 1.399 . S
C1035 C1034 1.399 . S
C1035 C1036 1.376 . S
C1036 H1023 0.930 1_545 S
C1036 C1035 1.376 . S
C1036 C1037 1.388 . S
C1037 H1024 0.930 . S
C1037 C1036 1.388 . S
C1037 C1038 1.390 . S
C1038 C1037 1.390 . S
C1038 C1039 1.394 . S
C1038 C1044 1.465 . S
C1039 C1034 1.399 . S
C1039 C1038 1.394 . S
C1039 C1040 1.516 . S
C1040 C1039 1.516 . S
C1040 C1041 1.502 . S
C1040 C1042 1.561 . S
C1040 C1043 1.526 . S
C1041 H1025 0.959 . S
C1041 H1026 0.959 . S
C1041 H1027 0.961 . S
C1041 C1040 1.502 . S
C1042 H1028 0.960 . S
C1042 H1029 0.961 . S
C1042 H1030 0.959 . S
C1042 C1040 1.561 . S
C1043 C1040 1.526 . S
C1043 C1044 1.396 . S
C1043 C1048 1.390 . S
C1044 C1038 1.465 . S
C1044 C1043 1.396 . S
C1044 C1045 1.399 . S
C1045 H1031 0.929 . S
C1045 C1044 1.399 . S
C1045 C1046 1.385 . S
C1046 H1032 0.931 . S
C1046 C1045 1.385 . S
C1046 C1047 1.389 . S
C1047 C1046 1.389 . S
C1047 C1048 1.387 . S
C1048 H1033 0.930 . S
C1048 C1043 1.390 . S
C1048 C1047 1.387 . S
H1049 C1061 0.930 1_556 S
H1050 C1063 0.930 . S
H1051 C1064 0.930 . S
H1052 C1068 0.959 . S
H1053 C1068 0.959 . S
H1054 C1068 0.961 . S
H1055 C1069 0.960 . S
H1056 C1069 0.961 . S
H1057 C1069 0.959 . S
H1058 C1072 0.929 . S
H1059 C1073 0.931 . S
H1060 C1075 0.930 . S
C1061 H1049 0.930 1_554 S
C1061 C1062 1.399 . S
C1061 C1066 1.399 . S
C1062 C1061 1.399 . S
C1062 C1063 1.376 . S
C1063 H1050 0.930 . S
C1063 C1062 1.376 . S
C1063 C1064 1.388 . S
C1064 H1051 0.930 . S
C1064 C1063 1.388 . S
C1064 C1065 1.390 . S
C1065 C1064 1.390 . S
C1065 C1066 1.394 . S
C1065 C1071 1.465 . S
C1066 C1061 1.399 . S
C1066 C1065 1.394 . S
C1066 C1067 1.516 1_554 S
C1067 C1066 1.516 1_556 S
C1067 C1068 1.502 . S
C1067 C1069 1.561 . S
C1067 C1070 1.526 1_556 S
C1068 H1052 0.959 . S
C1068 H1053 0.959 . S
C1068 H1054 0.961 . S
C1068 C1067 1.502 . S
C1069 H1055 0.960 . S
C1069 H1056 0.961 . S
C1069 H1057 0.959 . S
C1069 C1067 1.561 . S
C1070 C1067 1.526 1_554 S
C1070 C1071 1.396 . S
C1070 C1075 1.390 1_554 S
C1071 C1065 1.465 . S
C1071 C1070 1.396 . S
C1071 C1072 1.399 . S
C1072 H1058 0.929 . S
C1072 C1071 1.399 . S
C1072 C1073 1.385 . S
C1073 H1059 0.931 . S
C1073 C1072 1.385 . S
C1073 C1074 1.389 . S
C1074 C1073 1.389 . S
C1074 C1075 1.387 1_554 S
C1075 H1060 0.930 . S
C1075 C1070 1.390 1_556 S
C1075 C1074 1.387 1_556 S
H1076 C1088 0.930 . S
H1077 C1090 0.930 . S
H1078 C1091 0.930 . S
H1079 C1095 0.959 . S
H1080 C1095 0.959 . S
H1081 C1095 0.961 . S
H1082 C1096 0.960 . S
H1083 C1096 0.961 . S
H1084 C1096 0.959 . S
H1085 C1099 0.929 . S
H1086 C1100 0.931 . S
H1087 C1102 0.930 . S
C1088 H1076 0.930 . S
C1088 C1089 1.399 . S
C1088 C1093 1.399 . S
C1089 C1088 1.399 . S
C1089 C1090 1.376 . S
C1090 H1077 0.930 . S
C1090 C1089 1.376 . S
C1090 C1091 1.388 . S
C1091 H1078 0.930 . S
C1091 C1090 1.388 . S
C1091 C1092 1.390 . S
C1092 C1091 1.390 . S
C1092 C1093 1.394 . S
C1092 C1098 1.465 . S
C1093 C1088 1.399 . S
C1093 C1092 1.394 . S
C1093 C1094 1.516 . S
C1094 C1093 1.516 . S
C1094 C1095 1.502 . S
C1094 C1096 1.561 . S
C1094 C1097 1.526 . S
C1095 H1079 0.959 . S
C1095 H1080 0.959 . S
C1095 H1081 0.961 . S
C1095 C1094 1.502 . S
C1096 H1082 0.960 . S
C1096 H1083 0.961 . S
C1096 H1084 0.959 . S
C1096 C1094 1.561 . S
C1097 C1094 1.526 . S
C1097 C1098 1.396 . S
C1097 C1102 1.390 . S
C1098 C1092 1.465 . S
C1098 C1097 1.396 . S
C1098 C1099 1.399 . S
C1099 H1085 0.929 . S
C1099 C1098 1.399 . S
C1099 C1100 1.385 . S
C1100 H1086 0.931 . S
C1100 C1099 1.385 . S
C1100 C1101 1.389 . S
C1101 C1100 1.389 . S
C1101 C1102 1.387 . S
C1102 H1087 0.930 . S
C1102 C1097 1.390 . S
C1102 C1101 1.387 . S
H1103 C1115 0.930 . S
H1104 C1117 0.930 . S
H1105 C1118 0.930 . S
H1106 C1122 0.959 . S
H1107 C1122 0.959 . S
H1108 C1122 0.961 . S
H1109 C1123 0.960 . S
H1110 C1123 0.961 . S
H1111 C1123 0.959 . S
H1112 C1126 0.929 . S
H1113 C1127 0.931 . S
H1114 C1129 0.930 . S
C1115 H1103 0.930 . S
C1115 C1116 1.399 . S
C1115 C1120 1.399 . S
C1116 C1115 1.399 . S
C1116 C1117 1.376 . S
C1117 H1104 0.930 . S
C1117 C1116 1.376 . S
C1117 C1118 1.388 . S
C1118 H1105 0.930 . S
C1118 C1117 1.388 . S
C1118 C1119 1.390 . S
C1119 C1118 1.390 . S
C1119 C1120 1.394 . S
C1119 C1125 1.465 . S
C1120 C1115 1.399 . S
C1120 C1119 1.394 . S
C1120 C1121 1.516 . S
C1121 C1120 1.516 . S
C1121 C1122 1.502 . S
C1121 C1123 1.561 . S
C1121 C1124 1.526 . S
C1122 H1106 0.959 . S
C1122 H1107 0.959 . S
C1122 H1108 0.961 . S
C1122 C1121 1.502 . S
C1123 H1109 0.960 . S
C1123 H1110 0.961 . S
C1123 H1111 0.959 . S
C1123 C1121 1.561 . S
C1124 C1121 1.526 . S
C1124 C1125 1.396 . S
C1124 C1129 1.390 . S
C1125 C1119 1.465 . S
C1125 C1124 1.396 . S
C1125 C1126 1.399 . S
C1126 H1112 0.929 . S
C1126 C1125 1.399 . S
C1126 C1127 1.385 . S
C1127 H1113 0.931 . S
C1127 C1126 1.385 . S
C1127 C1128 1.389 . S
C1128 C1127 1.389 . S
C1128 C1129 1.387 . S
C1129 H1114 0.930 . S
C1129 C1124 1.390 . S
C1129 C1128 1.387 . S
H1130 C1142 0.930 . S
H1131 C1144 0.930 . S
H1132 C1145 0.930 . S
H1133 C1149 0.959 . S
H1134 C1149 0.959 . S
H1135 C1149 0.961 . S
H1136 C1150 0.960 . S
H1137 C1150 0.961 . S
H1138 C1150 0.959 . S
H1139 C1153 0.929 . S
H1140 C1154 0.931 . S
H1141 C1156 0.930 . S
C1142 H1130 0.930 . S
C1142 C1143 1.399 . S
C1142 C1147 1.399 . S
C1143 C1142 1.399 . S
C1143 C1144 1.376 . S
C1144 H1131 0.930 . S
C1144 C1143 1.376 . S
C1144 C1145 1.388 . S
C1145 H1132 0.930 . S
C1145 C1144 1.388 . S
C1145 C1146 1.390 . S
C1146 C1145 1.390 . S
C1146 C1147 1.394 . S
C1146 C1152 1.465 . S
C1147 C1142 1.399 . S
C1147 C1146 1.394 . S
C1147 C1148 1.516 . S
C1148 C1147 1.516 . S
C1148 C1149 1.502 . S
C1148 C1150 1.561 . S
C1148 C1151 1.526 . S
C1149 H1133 0.959 . S
C1149 H1134 0.959 . S
C1149 H1135 0.961 . S
C1149 C1148 1.502 . S
C1150 H1136 0.960 . S
C1150 H1137 0.961 . S
C1150 H1138 0.959 . S
C1150 C1148 1.561 . S
C1151 C1148 1.526 . S
C1151 C1152 1.396 . S
C1151 C1156 1.390 . S
C1152 C1146 1.465 . S
C1152 C1151 1.396 . S
C1152 C1153 1.399 . S
C1153 H1139 0.929 . S
C1153 C1152 1.399 . S
C1153 C1154 1.385 . S
C1154 H1140 0.931 . S
C1154 C1153 1.385 . S
C1154 C1155 1.389 . S
C1155 C1154 1.389 . S
C1155 C1156 1.387 . S
C1156 H1141 0.930 . S
C1156 C1151 1.390 . S
C1156 C1155 1.387 . S
H1157 C1169 0.930 . S
H1158 C1171 0.930 . S
H1159 C1172 0.930 . S
H1160 C1176 0.959 . S
H1161 C1176 0.959 . S
H1162 C1176 0.961 . S
H1163 C1177 0.960 . S
H1164 C1177 0.961 . S
H1165 C1177 0.959 . S
H1166 C1180 0.929 . S
H1167 C1181 0.931 . S
H1168 C1183 0.930 . S
C1169 H1157 0.930 . S
C1169 C1170 1.399 . S
C1169 C1174 1.399 . S
C1170 C1169 1.399 . S
C1170 C1171 1.376 . S
C1171 H1158 0.930 . S
C1171 C1170 1.376 . S
C1171 C1172 1.388 . S
C1172 H1159 0.930 . S
C1172 C1171 1.388 . S
C1172 C1173 1.390 . S
C1173 C1172 1.390 . S
C1173 C1174 1.394 . S
C1173 C1179 1.465 . S
C1174 C1169 1.399 . S
C1174 C1173 1.394 . S
C1174 C1175 1.516 . S
C1175 C1174 1.516 . S
C1175 C1176 1.502 . S
C1175 C1177 1.561 . S
C1175 C1178 1.526 . S
C1176 H1160 0.959 . S
C1176 H1161 0.959 . S
C1176 H1162 0.961 . S
C1176 C1175 1.502 . S
C1177 H1163 0.960 . S
C1177 H1164 0.961 . S
C1177 H1165 0.959 . S
C1177 C1175 1.561 . S
C1178 C1175 1.526 . S
C1178 C1179 1.396 . S
C1178 C1183 1.390 . S
C1179 C1173 1.465 . S
C1179 C1178 1.396 . S
C1179 C1180 1.399 . S
C1180 H1166 0.929 . S
C1180 C1179 1.399 . S
C1180 C1181 1.385 . S
C1181 H1167 0.931 . S
C1181 C1180 1.385 . S
C1181 C1182 1.389 . S
C1182 C1181 1.389 . S
C1182 C1183 1.387 . S
C1183 H1168 0.930 . S
C1183 C1178 1.390 . S
C1183 C1182 1.387 . S
H1184 C1196 0.930 . S
H1185 C1198 0.930 . S
H1186 C1199 0.930 . S
H1187 C1203 0.959 . S
H1188 C1203 0.959 . S
H1189 C1203 0.961 . S
H1190 C1204 0.960 . S
H1191 C1204 0.961 . S
H1192 C1204 0.959 . S
H1193 C1207 0.929 . S
H1194 C1208 0.931 . S
H1195 C1210 0.930 . S
C1196 H1184 0.930 . S
C1196 C1197 1.399 . S
C1196 C1201 1.399 . S
C1197 C1196 1.399 . S
C1197 C1198 1.376 . S
C1198 H1185 0.930 . S
C1198 C1197 1.376 . S
C1198 C1199 1.388 . S
C1199 H1186 0.930 . S
C1199 C1198 1.388 . S
C1199 C1200 1.390 . S
C1200 C1199 1.390 . S
C1200 C1201 1.394 . S
C1200 C1206 1.465 . S
C1201 C1196 1.399 . S
C1201 C1200 1.394 . S
C1201 C1202 1.516 . S
C1202 C1201 1.516 . S
C1202 C1203 1.502 . S
C1202 C1204 1.561 . S
C1202 C1205 1.526 . S
C1203 H1187 0.959 . S
C1203 H1188 0.959 . S
C1203 H1189 0.961 . S
C1203 C1202 1.502 . S
C1204 H1190 0.960 . S
C1204 H1191 0.961 . S
C1204 H1192 0.959 . S
C1204 C1202 1.561 . S
C1205 C1202 1.526 . S
C1205 C1206 1.396 . S
C1205 C1210 1.390 . S
C1206 C1200 1.465 . S
C1206 C1205 1.396 . S
C1206 C1207 1.399 . S
C1207 H1193 0.929 . S
C1207 C1206 1.399 . S
C1207 C1208 1.385 . S
C1208 H1194 0.931 . S
C1208 C1207 1.385 . S
C1208 C1209 1.389 . S
C1209 C1208 1.389 . S
C1209 C1210 1.387 . S
C1210 H1195 0.930 . S
C1210 C1205 1.390 . S
C1210 C1209 1.387 . S
H1211 C1223 0.930 . S
H1212 C1225 0.930 . S
H1213 C1226 0.930 . S
H1214 C1230 0.959 . S
H1215 C1230 0.959 . S
H1216 C1230 0.961 . S
H1217 C1231 0.960 . S
H1218 C1231 0.961 . S
H1219 C1231 0.959 . S
H1220 C1234 0.929 . S
H1221 C1235 0.931 . S
H1222 C1237 0.930 . S
C1223 H1211 0.930 . S
C1223 C1224 1.399 . S
C1223 C1228 1.399 . S
C1224 C1223 1.399 . S
C1224 C1225 1.376 . S
C1225 H1212 0.930 . S
C1225 C1224 1.376 . S
C1225 C1226 1.388 . S
C1226 H1213 0.930 . S
C1226 C1225 1.388 . S
C1226 C1227 1.390 . S
C1227 C1226 1.390 . S
C1227 C1228 1.394 . S
C1227 C1233 1.465 . S
C1228 C1223 1.399 . S
C1228 C1227 1.394 . S
C1228 C1229 1.516 . S
C1229 C1228 1.516 . S
C1229 C1230 1.502 . S
C1229 C1231 1.561 . S
C1229 C1232 1.526 . S
C1230 H1214 0.959 . S
C1230 H1215 0.959 . S
C1230 H1216 0.961 . S
C1230 C1229 1.502 . S
C1231 H1217 0.960 . S
C1231 H1218 0.961 . S
C1231 H1219 0.959 . S
C1231 C1229 1.561 . S
C1232 C1229 1.526 . S
C1232 C1233 1.396 . S
C1232 C1237 1.390 . S
C1233 C1227 1.465 . S
C1233 C1232 1.396 . S
C1233 C1234 1.399 . S
C1234 H1220 0.929 . S
C1234 C1233 1.399 . S
C1234 C1235 1.385 . S
C1235 H1221 0.931 . S
C1235 C1234 1.385 . S
C1235 C1236 1.389 . S
C1236 C1235 1.389 . S
C1236 C1237 1.387 . S
C1237 H1222 0.930 . S
C1237 C1232 1.390 . S
C1237 C1236 1.387 . S
H1238 C1250 0.930 . S
H1239 C1252 0.930 . S
H1240 C1253 0.930 . S
H1241 C1257 0.959 . S
H1242 C1257 0.959 . S
H1243 C1257 0.961 . S
H1244 C1258 0.960 . S
H1245 C1258 0.961 . S
H1246 C1258 0.959 . S
H1247 C1261 0.929 . S
H1248 C1262 0.931 . S
H1249 C1264 0.930 . S
C1250 H1238 0.930 . S
C1250 C1251 1.399 . S
C1250 C1255 1.399 . S
C1251 C1250 1.399 . S
C1251 C1252 1.376 . S
C1252 H1239 0.930 . S
C1252 C1251 1.376 . S
C1252 C1253 1.388 . S
C1253 H1240 0.930 . S
C1253 C1252 1.388 . S
C1253 C1254 1.390 . S
C1254 C1253 1.390 . S
C1254 C1255 1.394 . S
C1254 C1260 1.465 . S
C1255 C1250 1.399 . S
C1255 C1254 1.394 . S
C1255 C1256 1.516 . S
C1256 C1255 1.516 . S
C1256 C1257 1.502 . S
C1256 C1258 1.561 . S
C1256 C1259 1.526 . S
C1257 H1241 0.959 . S
C1257 H1242 0.959 . S
C1257 H1243 0.961 . S
C1257 C1256 1.502 . S
C1258 H1244 0.960 . S
C1258 H1245 0.961 . S
C1258 H1246 0.959 . S
C1258 C1256 1.561 . S
C1259 C1256 1.526 . S
C1259 C1260 1.396 . S
C1259 C1264 1.390 . S
C1260 C1254 1.465 . S
C1260 C1259 1.396 . S
C1260 C1261 1.399 . S
C1261 H1247 0.929 . S
C1261 C1260 1.399 . S
C1261 C1262 1.385 . S
C1262 H1248 0.931 . S
C1262 C1261 1.385 . S
C1262 C1263 1.389 . S
C1263 C1262 1.389 . S
C1263 C1264 1.387 . S
C1264 H1249 0.930 . S
C1264 C1259 1.390 . S
C1264 C1263 1.387 . S
H1265 C1277 0.930 . S
H1266 C1279 0.930 . S
H1267 C1280 0.930 . S
H1268 C1284 0.959 . S
H1269 C1284 0.959 . S
H1270 C1284 0.961 . S
H1271 C1285 0.960 . S
H1272 C1285 0.961 . S
H1273 C1285 0.959 . S
H1274 C1288 0.929 . S
H1275 C1289 0.931 . S
H1276 C1291 0.930 . S
C1277 H1265 0.930 . S
C1277 C1278 1.399 . S
C1277 C1282 1.399 . S
C1278 C1277 1.399 . S
C1278 C1279 1.376 . S
C1279 H1266 0.930 . S
C1279 C1278 1.376 . S
C1279 C1280 1.388 . S
C1280 H1267 0.930 . S
C1280 C1279 1.388 . S
C1280 C1281 1.390 . S
C1281 C1280 1.390 . S
C1281 C1282 1.394 . S
C1281 C1287 1.465 . S
C1282 C1277 1.399 . S
C1282 C1281 1.394 . S
C1282 C1283 1.516 . S
C1283 C1282 1.516 . S
C1283 C1284 1.502 . S
C1283 C1285 1.561 . S
C1283 C1286 1.526 . S
C1284 H1268 0.959 . S
C1284 H1269 0.959 . S
C1284 H1270 0.961 . S
C1284 C1283 1.502 . S
C1285 H1271 0.960 . S
C1285 H1272 0.961 . S
C1285 H1273 0.959 . S
C1285 C1283 1.561 . S
C1286 C1283 1.526 . S
C1286 C1287 1.396 . S
C1286 C1291 1.390 . S
C1287 C1281 1.465 . S
C1287 C1286 1.396 . S
C1287 C1288 1.399 . S
C1288 H1274 0.929 . S
C1288 C1287 1.399 . S
C1288 C1289 1.385 . S
C1289 H1275 0.931 . S
C1289 C1288 1.385 . S
C1289 C1290 1.389 . S
C1290 C1289 1.389 . S
C1290 C1291 1.387 . S
C1291 H1276 0.930 . S
C1291 C1286 1.390 . S
C1291 C1290 1.387 . S
H1292 C1304 0.930 . S
H1293 C1306 0.930 . S
H1294 C1307 0.930 . S
H1295 C1311 0.959 . S
H1296 C1311 0.959 . S
H1297 C1311 0.961 . S
H1298 C1312 0.960 . S
H1299 C1312 0.961 . S
H1300 C1312 0.959 . S
H1301 C1315 0.929 . S
H1302 C1316 0.931 . S
H1303 C1318 0.930 . S
C1304 H1292 0.930 . S
C1304 C1305 1.399 . S
C1304 C1309 1.399 . S
C1305 C1304 1.399 . S
C1305 C1306 1.376 . S
C1306 H1293 0.930 . S
C1306 C1305 1.376 . S
C1306 C1307 1.388 . S
C1307 H1294 0.930 . S
C1307 C1306 1.388 . S
C1307 C1308 1.390 . S
C1308 C1307 1.390 . S
C1308 C1309 1.394 . S
C1308 C1314 1.465 . S
C1309 C1304 1.399 . S
C1309 C1308 1.394 . S
C1309 C1310 1.516 . S
C1310 C1309 1.516 . S
C1310 C1311 1.502 . S
C1310 C1312 1.561 . S
C1310 C1313 1.526 . S
C1311 H1295 0.959 . S
C1311 H1296 0.959 . S
C1311 H1297 0.961 . S
C1311 C1310 1.502 . S
C1312 H1298 0.960 . S
C1312 H1299 0.961 . S
C1312 H1300 0.959 . S
C1312 C1310 1.561 . S
C1313 C1310 1.526 . S
C1313 C1314 1.396 . S
C1313 C1318 1.390 . S
C1314 C1308 1.465 . S
C1314 C1313 1.396 . S
C1314 C1315 1.399 . S
C1315 H1301 0.929 . S
C1315 C1314 1.399 . S
C1315 C1316 1.385 . S
C1316 H1302 0.931 . S
C1316 C1315 1.385 . S
C1316 C1317 1.389 . S
C1317 C1316 1.389 . S
C1317 C1318 1.387 . S
C1318 H1303 0.930 . S
C1318 C1313 1.390 . S
C1318 C1317 1.387 . S
H1319 C1331 0.930 1_556 S
H1320 C1333 0.930 . S
H1321 C1334 0.930 . S
H1322 C1338 0.959 . S
H1323 C1338 0.959 . S
H1324 C1338 0.961 . S
H1325 C1339 0.960 . S
H1326 C1339 0.961 . S
H1327 C1339 0.959 . S
H1328 C1342 0.929 . S
H1329 C1343 0.931 . S
H1330 C1345 0.930 . S
C1331 H1319 0.930 1_554 S
C1331 C1332 1.399 . S
C1331 C1336 1.399 . S
C1332 C1331 1.399 . S
C1332 C1333 1.376 . S
C1333 H1320 0.930 . S
C1333 C1332 1.376 . S
C1333 C1334 1.388 . S
C1334 H1321 0.930 . S
C1334 C1333 1.388 . S
C1334 C1335 1.390 . S
C1335 C1334 1.390 . S
C1335 C1336 1.394 . S
C1335 C1341 1.465 . S
C1336 C1331 1.399 . S
C1336 C1335 1.394 . S
C1336 C1337 1.516 1_554 S
C1337 C1336 1.516 1_556 S
C1337 C1338 1.502 . S
C1337 C1339 1.561 . S
C1337 C1340 1.526 1_556 S
C1338 H1322 0.959 . S
C1338 H1323 0.959 . S
C1338 H1324 0.961 . S
C1338 C1337 1.502 . S
C1339 H1325 0.960 . S
C1339 H1326 0.961 . S
C1339 H1327 0.959 . S
C1339 C1337 1.561 . S
C1340 C1337 1.526 1_554 S
C1340 C1341 1.396 . S
C1340 C1345 1.390 1_554 S
C1341 C1335 1.465 . S
C1341 C1340 1.396 . S
C1341 C1342 1.399 . S
C1342 H1328 0.929 . S
C1342 C1341 1.399 . S
C1342 C1343 1.385 . S
C1343 H1329 0.931 . S
C1343 C1342 1.385 . S
C1343 C1344 1.389 . S
C1344 C1343 1.389 . S
C1344 C1345 1.387 1_554 S
C1345 H1330 0.930 . S
C1345 C1340 1.390 1_556 S
C1345 C1344 1.387 1_556 S
H1346 C1358 0.930 . S
H1347 C1360 0.930 . S
H1348 C1361 0.930 . S
H1349 C1365 0.959 . S
H1350 C1365 0.959 . S
H1351 C1365 0.961 . S
H1352 C1366 0.960 . S
H1353 C1366 0.961 . S
H1354 C1366 0.959 . S
H1355 C1369 0.929 . S
H1356 C1370 0.931 . S
H1357 C1372 0.930 . S
C1358 H1346 0.930 . S
C1358 C1359 1.399 . S
C1358 C1363 1.399 . S
C1359 C1358 1.399 . S
C1359 C1360 1.376 . S
C1360 H1347 0.930 . S
C1360 C1359 1.376 . S
C1360 C1361 1.388 . S
C1361 H1348 0.930 . S
C1361 C1360 1.388 . S
C1361 C1362 1.390 . S
C1362 C1361 1.390 . S
C1362 C1363 1.394 . S
C1362 C1368 1.465 . S
C1363 C1358 1.399 . S
C1363 C1362 1.394 . S
C1363 C1364 1.516 . S
C1364 C1363 1.516 . S
C1364 C1365 1.502 . S
C1364 C1366 1.561 . S
C1364 C1367 1.526 . S
C1365 H1349 0.959 . S
C1365 H1350 0.959 . S
C1365 H1351 0.961 . S
C1365 C1364 1.502 . S
C1366 H1352 0.960 . S
C1366 H1353 0.961 . S
C1366 H1354 0.959 . S
C1366 C1364 1.561 . S
C1367 C1364 1.526 . S
C1367 C1368 1.396 . S
C1367 C1372 1.390 . S
C1368 C1362 1.465 . S
C1368 C1367 1.396 . S
C1368 C1369 1.399 . S
C1369 H1355 0.929 . S
C1369 C1368 1.399 . S
C1369 C1370 1.385 . S
C1370 H1356 0.931 . S
C1370 C1369 1.385 . S
C1370 C1371 1.389 . S
C1371 C1370 1.389 . S
C1371 C1372 1.387 . S
C1372 H1357 0.930 . S
C1372 C1367 1.390 . S
C1372 C1371 1.387 . S
H1373 C1385 0.930 . S
H1374 C1387 0.930 . S
H1375 C1388 0.930 . S
H1376 C1392 0.959 . S
H1377 C1392 0.959 . S
H1378 C1392 0.961 . S
H1379 C1393 0.960 . S
H1380 C1393 0.961 . S
H1381 C1393 0.959 . S
H1382 C1396 0.929 . S
H1383 C1397 0.931 . S
H1384 C1399 0.930 . S
C1385 H1373 0.930 . S
C1385 C1386 1.399 . S
C1385 C1390 1.399 . S
C1386 C1385 1.399 . S
C1386 C1387 1.376 . S
C1387 H1374 0.930 . S
C1387 C1386 1.376 . S
C1387 C1388 1.388 . S
C1388 H1375 0.930 . S
C1388 C1387 1.388 . S
C1388 C1389 1.390 . S
C1389 C1388 1.390 . S
C1389 C1390 1.394 . S
C1389 C1395 1.465 . S
C1390 C1385 1.399 . S
C1390 C1389 1.394 . S
C1390 C1391 1.516 . S
C1391 C1390 1.516 . S
C1391 C1392 1.502 . S
C1391 C1393 1.561 . S
C1391 C1394 1.526 . S
C1392 H1376 0.959 . S
C1392 H1377 0.959 . S
C1392 H1378 0.961 . S
C1392 C1391 1.502 . S
C1393 H1379 0.960 . S
C1393 H1380 0.961 . S
C1393 H1381 0.959 . S
C1393 C1391 1.561 . S
C1394 C1391 1.526 . S
C1394 C1395 1.396 . S
C1394 C1399 1.390 . S
C1395 C1389 1.465 . S
C1395 C1394 1.396 . S
C1395 C1396 1.399 . S
C1396 H1382 0.929 . S
C1396 C1395 1.399 . S
C1396 C1397 1.385 . S
C1397 H1383 0.931 . S
C1397 C1396 1.385 . S
C1397 C1398 1.389 . S
C1398 C1397 1.389 . S
C1398 C1399 1.387 . S
C1399 H1384 0.930 . S
C1399 C1394 1.390 . S
C1399 C1398 1.387 . S
H1400 C1412 0.930 . S
H1401 C1414 0.930 . S
H1402 C1415 0.930 . S
H1403 C1419 0.959 . S
H1404 C1419 0.959 . S
H1405 C1419 0.961 . S
H1406 C1420 0.960 . S
H1407 C1420 0.961 . S
H1408 C1420 0.959 . S
H1409 C1423 0.929 . S
H1410 C1424 0.931 . S
H1411 C1426 0.930 . S
C1412 H1400 0.930 . S
C1412 C1413 1.399 . S
C1412 C1417 1.399 . S
C1413 C1412 1.399 . S
C1413 C1414 1.376 . S
C1414 H1401 0.930 . S
C1414 C1413 1.376 . S
C1414 C1415 1.388 . S
C1415 H1402 0.930 . S
C1415 C1414 1.388 . S
C1415 C1416 1.390 . S
C1416 C1415 1.390 . S
C1416 C1417 1.394 . S
C1416 C1422 1.465 . S
C1417 C1412 1.399 . S
C1417 C1416 1.394 . S
C1417 C1418 1.516 . S
C1418 C1417 1.516 . S
C1418 C1419 1.502 . S
C1418 C1420 1.561 . S
C1418 C1421 1.526 . S
C1419 H1403 0.959 . S
C1419 H1404 0.959 . S
C1419 H1405 0.961 . S
C1419 C1418 1.502 . S
C1420 H1406 0.960 . S
C1420 H1407 0.961 . S
C1420 H1408 0.959 . S
C1420 C1418 1.561 . S
C1421 C1418 1.526 . S
C1421 C1422 1.396 . S
C1421 C1426 1.390 . S
C1422 C1416 1.465 . S
C1422 C1421 1.396 . S
C1422 C1423 1.399 . S
C1423 H1409 0.929 . S
C1423 C1422 1.399 . S
C1423 C1424 1.385 . S
C1424 H1410 0.931 . S
C1424 C1423 1.385 . S
C1424 C1425 1.389 . S
C1425 C1424 1.389 . S
C1425 C1426 1.387 . S
C1426 H1411 0.930 . S
C1426 C1421 1.390 . S
C1426 C1425 1.387 . S
H1427 C1439 0.930 . S
H1428 C1441 0.930 . S
H1429 C1442 0.930 . S
H1430 C1446 0.959 . S
H1431 C1446 0.959 . S
H1432 C1446 0.961 . S
H1433 C1447 0.960 . S
H1434 C1447 0.961 . S
H1435 C1447 0.959 . S
H1436 C1450 0.929 . S
H1437 C1451 0.931 . S
H1438 C1453 0.930 . S
C1439 H1427 0.930 . S
C1439 C1440 1.399 . S
C1439 C1444 1.399 . S
C1440 C1439 1.399 . S
C1440 C1441 1.376 . S
C1441 H1428 0.930 . S
C1441 C1440 1.376 . S
C1441 C1442 1.388 . S
C1442 H1429 0.930 . S
C1442 C1441 1.388 . S
C1442 C1443 1.390 . S
C1443 C1442 1.390 . S
C1443 C1444 1.394 . S
C1443 C1449 1.465 . S
C1444 C1439 1.399 . S
C1444 C1443 1.394 . S
C1444 C1445 1.516 . S
C1445 C1444 1.516 . S
C1445 C1446 1.502 . S
C1445 C1447 1.561 . S
C1445 C1448 1.526 . S
C1446 H1430 0.959 . S
C1446 H1431 0.959 . S
C1446 H1432 0.961 . S
C1446 C1445 1.502 . S
C1447 H1433 0.960 . S
C1447 H1434 0.961 . S
C1447 H1435 0.959 . S
C1447 C1445 1.561 . S
C1448 C1445 1.526 . S
C1448 C1449 1.396 . S
C1448 C1453 1.390 . S
C1449 C1443 1.465 . S
C1449 C1448 1.396 . S
C1449 C1450 1.399 . S
C1450 H1436 0.929 . S
C1450 C1449 1.399 . S
C1450 C1451 1.385 . S
C1451 H1437 0.931 . S
C1451 C1450 1.385 . S
C1451 C1452 1.389 . S
C1452 C1451 1.389 . S
C1452 C1453 1.387 . S
C1453 H1438 0.930 . S
C1453 C1448 1.390 . S
C1453 C1452 1.387 . S
H1454 C1466 0.930 . S
H1455 C1468 0.930 . S
H1456 C1469 0.930 . S
H1457 C1473 0.959 . S
H1458 C1473 0.959 . S
H1459 C1473 0.961 . S
H1460 C1474 0.960 . S
H1461 C1474 0.961 . S
H1462 C1474 0.959 . S
H1463 C1477 0.929 . S
H1464 C1478 0.931 . S
H1465 C1480 0.930 . S
C1466 H1454 0.930 . S
C1466 C1467 1.399 . S
C1466 C1471 1.399 . S
C1467 C1466 1.399 . S
C1467 C1468 1.376 1_556 S
C1468 H1455 0.930 . S
C1468 C1467 1.376 1_554 S
C1468 C1469 1.388 . S
C1469 H1456 0.930 . S
C1469 C1468 1.388 . S
C1469 C1470 1.390 . S
C1470 C1469 1.390 . S
C1470 C1471 1.394 1_554 S
C1470 C1476 1.465 . S
C1471 C1466 1.399 . S
C1471 C1470 1.394 1_556 S
C1471 C1472 1.516 . S
C1472 C1471 1.516 . S
C1472 C1473 1.502 . S
C1472 C1474 1.561 . S
C1472 C1475 1.526 . S
C1473 H1457 0.959 . S
C1473 H1458 0.959 . S
C1473 H1459 0.961 . S
C1473 C1472 1.502 . S
C1474 H1460 0.960 . S
C1474 H1461 0.961 . S
C1474 H1462 0.959 . S
C1474 C1472 1.561 . S
C1475 C1472 1.526 . S
C1475 C1476 1.396 1_556 S
C1475 C1480 1.390 . S
C1476 C1470 1.465 . S
C1476 C1475 1.396 1_554 S
C1476 C1477 1.399 . S
C1477 H1463 0.929 . S
C1477 C1476 1.399 . S
C1477 C1478 1.385 . S
C1478 H1464 0.931 . S
C1478 C1477 1.385 . S
C1478 C1479 1.359 1_554 S
C1479 C1478 1.359 1_556 S
C1479 C1480 1.412 . S
C1480 H1465 0.930 . S
C1480 C1475 1.390 . S
C1480 C1479 1.412 . S
H1481 C1493 0.930 . S
H1482 C1495 0.930 . S
H1483 C1496 0.930 . S
H1484 C1500 0.959 . S
H1485 C1500 0.959 . S
H1486 C1500 0.961 . S
H1487 C1501 0.960 . S
H1488 C1501 0.961 . S
H1489 C1501 0.959 . S
H1490 C1504 0.929 . S
H1491 C1505 0.931 . S
H1492 C1507 0.930 . S
C1493 H1481 0.930 . S
C1493 C1494 1.399 . S
C1493 C1498 1.399 . S
C1494 C1493 1.399 . S
C1494 C1495 1.376 . S
C1495 H1482 0.930 . S
C1495 C1494 1.376 . S
C1495 C1496 1.388 . S
C1496 H1483 0.930 . S
C1496 C1495 1.388 . S
C1496 C1497 1.390 . S
C1497 C1496 1.390 . S
C1497 C1498 1.394 . S
C1497 C1503 1.465 . S
C1498 C1493 1.399 . S
C1498 C1497 1.394 . S
C1498 C1499 1.516 . S
C1499 C1498 1.516 . S
C1499 C1500 1.502 . S
C1499 C1501 1.561 . S
C1499 C1502 1.526 . S
C1500 H1484 0.959 . S
C1500 H1485 0.959 . S
C1500 H1486 0.961 . S
C1500 C1499 1.502 . S
C1501 H1487 0.960 . S
C1501 H1488 0.961 . S
C1501 H1489 0.959 . S
C1501 C1499 1.561 . S
C1502 C1499 1.526 . S
C1502 C1503 1.396 . S
C1502 C1507 1.390 . S
C1503 C1497 1.465 . S
C1503 C1502 1.396 . S
C1503 C1504 1.399 . S
C1504 H1490 0.929 . S
C1504 C1503 1.399 . S
C1504 C1505 1.385 . S
C1505 H1491 0.931 . S
C1505 C1504 1.385 . S
C1505 C1506 1.389 . S
C1506 C1505 1.389 . S
C1506 C1507 1.387 . S
C1507 H1492 0.930 . S
C1507 C1502 1.390 . S
C1507 C1506 1.387 . S
H1508 C1520 0.930 . S
H1509 C1522 0.930 . S
H1510 C1523 0.930 . S
H1511 C1527 0.959 . S
H1512 C1527 0.959 . S
H1513 C1527 0.961 . S
H1514 C1528 0.960 . S
H1515 C1528 0.961 . S
H1516 C1528 0.959 . S
H1517 C1531 0.929 . S
H1518 C1532 0.931 . S
H1519 C1534 0.930 . S
C1520 H1508 0.930 . S
C1520 C1521 1.399 . S
C1520 C1525 1.399 . S
C1521 C1520 1.399 . S
C1521 C1522 1.376 . S
C1522 H1509 0.930 . S
C1522 C1521 1.376 . S
C1522 C1523 1.388 . S
C1523 H1510 0.930 . S
C1523 C1522 1.388 . S
C1523 C1524 1.390 . S
C1524 C1523 1.390 . S
C1524 C1525 1.394 . S
C1524 C1530 1.465 . S
C1525 C1520 1.399 . S
C1525 C1524 1.394 . S
C1525 C1526 1.516 . S
C1526 C1525 1.516 . S
C1526 C1527 1.502 . S
C1526 C1528 1.561 . S
C1526 C1529 1.526 . S
C1527 H1511 0.959 . S
C1527 H1512 0.959 . S
C1527 H1513 0.961 . S
C1527 C1526 1.502 . S
C1528 H1514 0.960 . S
C1528 H1515 0.961 . S
C1528 H1516 0.959 . S
C1528 C1526 1.561 . S
C1529 C1526 1.526 . S
C1529 C1530 1.396 . S
C1529 C1534 1.390 . S
C1530 C1524 1.465 . S
C1530 C1529 1.396 . S
C1530 C1531 1.399 . S
C1531 H1517 0.929 . S
C1531 C1530 1.399 . S
C1531 C1532 1.385 . S
C1532 H1518 0.931 . S
C1532 C1531 1.385 . S
C1532 C1533 1.389 . S
C1533 C1532 1.389 . S
C1533 C1534 1.387 . S
C1534 H1519 0.930 . S
C1534 C1529 1.390 . S
C1534 C1533 1.387 . S
H1535 C1547 0.930 . S
H1536 C1549 0.930 . S
H1537 C1550 0.930 . S
H1538 C1554 0.959 . S
H1539 C1554 0.959 . S
H1540 C1554 0.961 . S
H1541 C1555 0.960 . S
H1542 C1555 0.961 . S
H1543 C1555 0.959 . S
H1544 C1558 0.929 . S
H1545 C1559 0.931 . S
H1546 C1561 0.930 . S
C1547 H1535 0.930 . S
C1547 C1548 1.399 . S
C1547 C1552 1.399 . S
C1548 C1547 1.399 . S
C1548 C1549 1.376 . S
C1549 H1536 0.930 . S
C1549 C1548 1.376 . S
C1549 C1550 1.388 . S
C1550 H1537 0.930 . S
C1550 C1549 1.388 . S
C1550 C1551 1.390 . S
C1551 C1550 1.390 . S
C1551 C1552 1.394 . S
C1551 C1557 1.465 . S
C1552 C1547 1.399 . S
C1552 C1551 1.394 . S
C1552 C1553 1.516 . S
C1553 C1552 1.516 . S
C1553 C1554 1.502 . S
C1553 C1555 1.561 . S
C1553 C1556 1.526 . S
C1554 H1538 0.959 . S
C1554 H1539 0.959 . S
C1554 H1540 0.961 . S
C1554 C1553 1.502 . S
C1555 H1541 0.960 . S
C1555 H1542 0.961 . S
C1555 H1543 0.959 . S
C1555 C1553 1.561 . S
C1556 C1553 1.526 . S
C1556 C1557 1.396 . S
C1556 C1561 1.390 . S
C1557 C1551 1.465 . S
C1557 C1556 1.396 . S
C1557 C1558 1.399 . S
C1558 H1544 0.929 . S
C1558 C1557 1.399 . S
C1558 C1559 1.385 . S
C1559 H1545 0.931 . S
C1559 C1558 1.385 . S
C1559 C1560 1.389 . S
C1560 C1559 1.389 . S
C1560 C1561 1.387 . S
C1561 H1546 0.930 . S
C1561 C1556 1.390 . S
C1561 C1560 1.387 . S
H1562 C1574 0.930 . S
H1563 C1576 0.930 . S
H1564 C1577 0.930 . S
H1565 C1581 0.959 . S
H1566 C1581 0.959 . S
H1567 C1581 0.961 . S
H1568 C1582 0.960 . S
H1569 C1582 0.961 . S
H1570 C1582 0.959 . S
H1571 C1585 0.929 . S
H1572 C1586 0.928 1_545 S
H1573 C1588 0.930 . S
C1574 H1562 0.930 . S
C1574 C1575 1.399 . S
C1574 C1579 1.399 . S
C1575 C1574 1.399 . S
C1575 C1576 1.376 . S
C1576 H1563 0.930 . S
C1576 C1575 1.376 . S
C1576 C1577 1.388 . S
C1577 H1564 0.930 . S
C1577 C1576 1.388 . S
C1577 C1578 1.390 . S
C1578 C1577 1.390 . S
C1578 C1579 1.394 . S
C1578 C1584 1.465 . S
C1579 C1574 1.399 . S
C1579 C1578 1.394 . S
C1579 C1580 1.516 . S
C1580 C1579 1.516 . S
C1580 C1581 1.502 . S
C1580 C1582 1.561 . S
C1580 C1583 1.526 . S
C1581 H1565 0.959 . S
C1581 H1566 0.959 . S
C1581 H1567 0.961 . S
C1581 C1580 1.502 . S
C1582 H1568 0.960 . S
C1582 H1569 0.961 . S
C1582 H1570 0.959 . S
C1582 C1580 1.561 . S
C1583 C1580 1.526 . S
C1583 C1584 1.396 . S
C1583 C1588 1.390 . S
C1584 C1578 1.465 . S
C1584 C1583 1.396 . S
C1584 C1585 1.399 . S
C1585 H1571 0.929 . S
C1585 C1584 1.399 . S
C1585 C1586 1.385 . S
C1586 H1572 0.928 1_565 S
C1586 C1585 1.385 . S
C1586 C1587 1.389 . S
C1587 C1586 1.389 . S
C1587 C1588 1.387 . S
C1588 H1573 0.930 . S
C1588 C1583 1.390 . S
C1588 C1587 1.387 . S
H1589 C1601 0.930 . S
H1590 C1603 0.930 . S
H1591 C1604 0.930 . S
H1592 C1608 0.959 . S
H1593 C1608 0.959 . S
H1594 C1608 0.961 . S
H1595 C1609 0.960 . S
H1596 C1609 0.961 . S
H1597 C1609 0.959 . S
H1598 C1612 0.929 . S
H1599 C1613 0.931 . S
H1600 C1615 0.930 . S
C1601 H1589 0.930 . S
C1601 C1602 1.399 . S
C1601 C1606 1.399 . S
C1602 C1601 1.399 . S
C1602 C1603 1.376 . S
C1603 H1590 0.930 . S
C1603 C1602 1.376 . S
C1603 C1604 1.388 . S
C1604 H1591 0.930 . S
C1604 C1603 1.388 . S
C1604 C1605 1.390 . S
C1605 C1604 1.390 . S
C1605 C1606 1.394 . S
C1605 C1611 1.465 . S
C1606 C1601 1.399 . S
C1606 C1605 1.394 . S
C1606 C1607 1.516 . S
C1607 C1606 1.516 . S
C1607 C1608 1.502 . S
C1607 C1609 1.561 . S
C1607 C1610 1.526 . S
C1608 H1592 0.959 . S
C1608 H1593 0.959 . S
C1608 H1594 0.961 . S
C1608 C1607 1.502 . S
C1609 H1595 0.960 . S
C1609 H1596 0.961 . S
C1609 H1597 0.959 . S
C1609 C1607 1.561 . S
C1610 C1607 1.526 . S
C1610 C1611 1.396 . S
C1610 C1615 1.390 . S
C1611 C1605 1.465 . S
C1611 C1610 1.396 . S
C1611 C1612 1.399 . S
C1612 H1598 0.929 . S
C1612 C1611 1.399 . S
C1612 C1613 1.385 . S
C1613 H1599 0.931 . S
C1613 C1612 1.385 . S
C1613 C1614 1.389 . S
C1614 C1613 1.389 . S
C1614 C1615 1.387 . S
C1615 H1600 0.930 . S
C1615 C1610 1.390 . S
C1615 C1614 1.387 . S
C333 C2 0.665 . S
C345 C24 0.718 . S
C360 C42 0.827 . S
C372 C29 0.799 . S
C387 C64 1.019 . S
C399 C59 1.078 . S
C414 C19 0.798 . S
C426 C69 0.839 . S
C441 C18 0.789 . S
C453 C192 0.831 . S
C468 C144 0.568 . S
C480 C22 0.629 . S
C495 C44 0.947 . S
C507 C212 0.950 . S
C522 C62 1.184 . S
C534 C264 1.143 . S
C549 C178 0.766 . S
C561 C32 0.790 . S
C576 C242 1.295 . S
C588 C58 1.334 . S
C603 C284 0.784 . S
C615 C72 0.886 . S
C630 C4 0.678 . S
C642 C222 0.731 . S
C657 C9 0.663 . S
C669 C169 0.656 . S
C684 C259 1.856 . S
C696 C99 1.849 . S
C711 C112 0.558 . S
C723 C289 0.559 . S
C738 C239 1.567 . S
C750 C139 1.555 . S
C765 C49 0.712 . S
C777 C152 0.704 . S
C792 C198 1.625 . S
C804 C98 1.591 . S
C819 C138 1.669 . S
C831 C218 1.665 . S
C846 C118 1.160 . S
C858 C232 1.135 . S
C873 C182 0.548 . S
C885 C104 0.585 . S
C900 C224 0.847 . S
C912 C142 0.815 . S
C927 C119 1.417 . S
C939 C89 1.396 . S
C954 C184 0.763 . S
C966 C162 0.757 . S
C981 C279 1.175 . S
C993 C229 1.183 . S
C1008 C124 0.861 . S
C1020 C102 0.880 . S
C1035 C189 0.775 . S
C1047 C282 0.706 . S
C1062 C272 0.639 . S
C1074 C12 0.670 . S
C1089 C52 0.659 . S
C1101 C292 0.715 . S
C1116 C258 1.615 . S
C1128 C38 1.603 . S
C1143 C149 0.509 . S
C1155 C109 0.507 . S
C1170 C79 1.674 . S
C1182 C219 1.645 . S
C1197 C244 1.129 . S
C1209 C262 1.099 . S
C1224 C159 1.390 . S
C1236 C249 1.360 . S
C1251 C132 1.175 . S
C1263 C158 1.189 . S
C1278 C92 1.158 . S
C1290 C278 1.192 . S
C1305 C252 1.149 . S
C1317 C318 1.190 . S
C1332 C312 0.654 . S
C1344 C172 0.674 . S
C1359 C39 1.492 . S
C1371 C199 1.482 . S
C1386 C164 0.762 . S
C1398 C122 0.798 . S
C1413 C179 0.795 . S
C1425 C209 0.740 . S
C1440 C319 1.165 . S
C1452 C129 1.123 . S
C1467 C269 0.552 1_556 S
C1479 C309 0.549 1_556 S
C1494 C238 1.658 . S
C1506 C78 1.675 1_565 S
C1521 C204 1.037 . S
C1533 C299 1.077 . S
C1548 C202 1.175 . S
C1560 C304 1.086 . S
C1575 C82 1.304 . S
C1587 C298 1.334 . S
C1602 C302 1.112 . S
C1614 C84 1.135 . S
