# Generated by pormake.
# Topology nfa, (4)-cn, num edge types: 1
# Building blocks:
#     Node 0, Type 0, BuildingBlock: NAWXER_clean_sbu_0, # of connection points: 4
#     Node 1, Type 0, BuildingBlock: NAWXER_clean_sbu_0, # of connection points: 4
#     Node 2, Type 0, BuildingBlock: NAWXER_clean_sbu_0, # of connection points: 4
#     Node 3, Type 0, BuildingBlock: NAWXER_clean_sbu_0, # of connection points: 4
#     Node 4, Type 0, BuildingBlock: NAWXER_clean_sbu_0, # of connection points: 4
#     Node 5, Type 0, BuildingBlock: NAWXER_clean_sbu_0, # of connection points: 4
#     Node 6, Type 0, BuildingBlock: NAWXER_clean_sbu_0, # of connection points: 4
#     Node 7, Type 0, BuildingBlock: NAWXER_clean_sbu_0, # of connection points: 4
#     Node 8, Type 0, BuildingBlock: NAWXER_clean_sbu_0, # of connection points: 4
#     Node 9, Type 0, BuildingBlock: NAWXER_clean_sbu_0, # of connection points: 4
#     Node 10, Type 0, BuildingBlock: NAWXER_clean_sbu_0, # of connection points: 4
#     Node 11, Type 0, BuildingBlock: NAWXER_clean_sbu_0, # of connection points: 4
#     Node 12, Type 0, BuildingBlock: NAWXER_clean_sbu_0, # of connection points: 4
#     Node 13, Type 0, BuildingBlock: NAWXER_clean_sbu_0, # of connection points: 4
#     Node 14, Type 0, BuildingBlock: NAWXER_clean_sbu_0, # of connection points: 4
#     Node 15, Type 0, BuildingBlock: NAWXER_clean_sbu_0, # of connection points: 4
#     Node 16, Type 0, BuildingBlock: NAWXER_clean_sbu_0, # of connection points: 4
#     Node 17, Type 0, BuildingBlock: NAWXER_clean_sbu_0, # of connection points: 4
#     Node 18, Type 0, BuildingBlock: NAWXER_clean_sbu_0, # of connection points: 4
#     Node 19, Type 0, BuildingBlock: NAWXER_clean_sbu_0, # of connection points: 4
#     Node 20, Type 0, BuildingBlock: NAWXER_clean_sbu_0, # of connection points: 4
#     Node 21, Type 0, BuildingBlock: NAWXER_clean_sbu_0, # of connection points: 4
#     Node 22, Type 0, BuildingBlock: NAWXER_clean_sbu_0, # of connection points: 4
#     Node 23, Type 0, BuildingBlock: NAWXER_clean_sbu_0, # of connection points: 4
#     Edge 24, Type (0, 0), BuildingBlock: CIFDUS_clean_linker_0, # of connection points: 2
#     Edge 25, Type (0, 0), BuildingBlock: CIFDUS_clean_linker_0, # of connection points: 2
#     Edge 26, Type (0, 0), BuildingBlock: CIFDUS_clean_linker_0, # of connection points: 2
#     Edge 27, Type (0, 0), BuildingBlock: CIFDUS_clean_linker_0, # of connection points: 2
#     Edge 28, Type (0, 0), BuildingBlock: CIFDUS_clean_linker_0, # of connection points: 2
#     Edge 29, Type (0, 0), BuildingBlock: CIFDUS_clean_linker_0, # of connection points: 2
#     Edge 30, Type (0, 0), BuildingBlock: CIFDUS_clean_linker_0, # of connection points: 2
#     Edge 31, Type (0, 0), BuildingBlock: CIFDUS_clean_linker_0, # of connection points: 2
#     Edge 32, Type (0, 0), BuildingBlock: CIFDUS_clean_linker_0, # of connection points: 2
#     Edge 33, Type (0, 0), BuildingBlock: CIFDUS_clean_linker_0, # of connection points: 2
#     Edge 34, Type (0, 0), BuildingBlock: CIFDUS_clean_linker_0, # of connection points: 2
#     Edge 35, Type (0, 0), BuildingBlock: CIFDUS_clean_linker_0, # of connection points: 2
#     Edge 36, Type (0, 0), BuildingBlock: CIFDUS_clean_linker_0, # of connection points: 2
#     Edge 37, Type (0, 0), BuildingBlock: CIFDUS_clean_linker_0, # of connection points: 2
#     Edge 38, Type (0, 0), BuildingBlock: CIFDUS_clean_linker_0, # of connection points: 2
#     Edge 39, Type (0, 0), BuildingBlock: CIFDUS_clean_linker_0, # of connection points: 2
#     Edge 40, Type (0, 0), BuildingBlock: CIFDUS_clean_linker_0, # of connection points: 2
#     Edge 41, Type (0, 0), BuildingBlock: CIFDUS_clean_linker_0, # of connection points: 2
#     Edge 42, Type (0, 0), BuildingBlock: CIFDUS_clean_linker_0, # of connection points: 2
#     Edge 43, Type (0, 0), BuildingBlock: CIFDUS_clean_linker_0, # of connection points: 2
#     Edge 44, Type (0, 0), BuildingBlock: CIFDUS_clean_linker_0, # of connection points: 2
#     Edge 45, Type (0, 0), BuildingBlock: CIFDUS_clean_linker_0, # of connection points: 2
#     Edge 46, Type (0, 0), BuildingBlock: CIFDUS_clean_linker_0, # of connection points: 2
#     Edge 47, Type (0, 0), BuildingBlock: CIFDUS_clean_linker_0, # of connection points: 2
#     Edge 48, Type (0, 0), BuildingBlock: CIFDUS_clean_linker_0, # of connection points: 2
#     Edge 49, Type (0, 0), BuildingBlock: CIFDUS_clean_linker_0, # of connection points: 2
#     Edge 50, Type (0, 0), BuildingBlock: CIFDUS_clean_linker_0, # of connection points: 2
#     Edge 51, Type (0, 0), BuildingBlock: CIFDUS_clean_linker_0, # of connection points: 2
#     Edge 52, Type (0, 0), BuildingBlock: CIFDUS_clean_linker_0, # of connection points: 2
#     Edge 53, Type (0, 0), BuildingBlock: CIFDUS_clean_linker_0, # of connection points: 2
#     Edge 54, Type (0, 0), BuildingBlock: CIFDUS_clean_linker_0, # of connection points: 2
#     Edge 55, Type (0, 0), BuildingBlock: CIFDUS_clean_linker_0, # of connection points: 2
#     Edge 56, Type (0, 0), BuildingBlock: CIFDUS_clean_linker_0, # of connection points: 2
#     Edge 57, Type (0, 0), BuildingBlock: CIFDUS_clean_linker_0, # of connection points: 2
#     Edge 58, Type (0, 0), BuildingBlock: CIFDUS_clean_linker_0, # of connection points: 2
#     Edge 59, Type (0, 0), BuildingBlock: CIFDUS_clean_linker_0, # of connection points: 2
#     Edge 60, Type (0, 0), BuildingBlock: CIFDUS_clean_linker_0, # of connection points: 2
#     Edge 61, Type (0, 0), BuildingBlock: CIFDUS_clean_linker_0, # of connection points: 2
#     Edge 62, Type (0, 0), BuildingBlock: CIFDUS_clean_linker_0, # of connection points: 2
#     Edge 63, Type (0, 0), BuildingBlock: CIFDUS_clean_linker_0, # of connection points: 2
#     Edge 64, Type (0, 0), BuildingBlock: CIFDUS_clean_linker_0, # of connection points: 2
#     Edge 65, Type (0, 0), BuildingBlock: CIFDUS_clean_linker_0, # of connection points: 2
#     Edge 66, Type (0, 0), BuildingBlock: CIFDUS_clean_linker_0, # of connection points: 2
#     Edge 67, Type (0, 0), BuildingBlock: CIFDUS_clean_linker_0, # of connection points: 2
#     Edge 68, Type (0, 0), BuildingBlock: CIFDUS_clean_linker_0, # of connection points: 2
#     Edge 69, Type (0, 0), BuildingBlock: CIFDUS_clean_linker_0, # of connection points: 2
#     Edge 70, Type (0, 0), BuildingBlock: CIFDUS_clean_linker_0, # of connection points: 2
#     Edge 71, Type (0, 0), BuildingBlock: CIFDUS_clean_linker_0, # of connection points: 2
# Relax obj value: 0.171
# Max RMSD: 0.184
# Mean RMSD: 0.184
data_MOF--net-nfa--node1-NAWXER_clean_sbu_0--edge1-CIFDUS_clean_linker_0
_symmetry_space_group_name_H-M    P1
_symmetry_Int_Tables_number       1
_symmetry_cell_setting            triclinic
loop_
_symmetry_equiv_pos_as_xyz
'x, y, z'
_cell_length_a     34.840099
_cell_length_b     34.882238
_cell_length_c     34.985217
_cell_angle_alpha  90.010434
_cell_angle_beta   89.645106
_cell_angle_gamma 90.185853
loop_
_atom_site_label
_atom_site_type_symbol
_atom_site_fract_x
_atom_site_fract_y
_atom_site_fract_z
_atom_type_partial_charge
C0 C 0.1408 0.36097 0.45288 0.0
C1 C 0.09072 0.45049 0.35864 0.0
O2 O 0.12068 0.39077 0.45776 0.0
Zn3 Zn 0.11826 0.40737 0.40483 0.0
O4 O 0.15485 0.35392 0.41962 0.0
Zn5 Zn 0.15325 0.38176 0.36388 0.0
O6 O 0.20422 0.40329 0.35279 0.0
O7 O 0.17088 0.43874 0.39271 0.0
O8 O 0.11523 0.42734 0.34363 0.0
O9 O 0.08262 0.44798 0.39401 0.0
O10 O 0.09327 0.35747 0.37478 0.0
O11 O 0.13743 0.33906 0.33319 0.0
C12 C 0.20076 0.43423 0.37155 0.0
C13 C 0.10455 0.33418 0.34842 0.0
C14 C 0.92007 0.85816 0.64841 0.0
C15 C 0.81501 0.9429 0.68652 0.0
O16 O 0.92728 0.89392 0.64396 0.0
Zn17 Zn 0.90036 0.94812 0.65324 0.0
O18 O 0.88782 0.84738 0.66215 0.0
Zn19 Zn 0.86733 0.89821 0.67124 0.0
O20 O 0.85902 0.91569 0.61438 0.0
O21 O 0.89375 0.96704 0.60033 0.0
O22 O 0.81547 0.90671 0.69099 0.0
O23 O 0.84485 0.96038 0.67413 0.0
O24 O 0.93524 0.97097 0.69067 0.0
O25 O 0.90664 0.91885 0.71272 0.0
C26 C 0.8692 0.94166 0.59071 0.0
C27 C 0.93126 0.94585 0.71686 0.0
C28 C 0.37165 0.62246 0.93883 0.0
C29 C 0.35567 0.55483 0.81638 0.0
O30 O 0.39926 0.59992 0.93017 0.0
Zn31 Zn 0.41549 0.56161 0.88569 0.0
O32 O 0.34163 0.62312 0.9182 0.0
Zn33 Zn 0.36098 0.58975 0.87756 0.0
O34 O 0.35751 0.53365 0.90112 0.0
O35 O 0.4156 0.51024 0.9095 0.0
O36 O 0.33307 0.58025 0.82975 0.0
O37 O 0.38686 0.54747 0.83405 0.0
O38 O 0.46206 0.58846 0.86874 0.0
O39 O 0.40974 0.62307 0.86105 0.0
C40 C 0.37929 0.50599 0.9111 0.0
C41 C 0.44635 0.62028 0.86018 0.0
C42 C 0.51063 0.11631 0.12694 0.0
C43 C 0.61838 0.15894 0.04617 0.0
O44 O 0.53921 0.13027 0.14521 0.0
Zn45 Zn 0.5941 0.15501 0.13415 0.0
O46 O 0.51356 0.11046 0.09109 0.0
Zn47 Zn 0.56345 0.13614 0.08421 0.0
O48 O 0.60605 0.09715 0.10361 0.0
O49 O 0.633 0.12066 0.15542 0.0
O50 O 0.58649 0.14589 0.03393 0.0
O51 O 0.62264 0.16541 0.08181 0.0
O52 O 0.58429 0.20649 0.15422 0.0
O53 O 0.54793 0.19152 0.10488 0.0
C54 C 0.63234 0.09551 0.12896 0.0
C55 C 0.55656 0.21452 0.13204 0.0
C56 C 0.14115 0.61474 0.16354 0.0
C57 C 0.03066 0.70027 0.14915 0.0
O58 O 0.14147 0.64301 0.18708 0.0
Zn59 Zn 0.10529 0.69123 0.20167 0.0
O60 O 0.1149 0.61288 0.13844 0.0
Zn61 Zn 0.08502 0.65645 0.15546 0.0
O62 O 0.11827 0.70518 0.13869 0.0
O63 O 0.13545 0.73754 0.1902 0.0
O64 O 0.0364 0.66896 0.13135 0.0
O65 O 0.05322 0.71012 0.17618 0.0
O66 O 0.09096 0.67661 0.25413 0.0
O67 O 0.06969 0.63629 0.21067 0.0
C68 C 0.13438 0.73442 0.15394 0.0
C69 C 0.07426 0.64516 0.24583 0.0
C70 C 0.64667 0.88229 0.31258 0.0
C71 C 0.71062 0.90625 0.43497 0.0
O72 O 0.66908 0.85511 0.32265 0.0
Zn73 Zn 0.70449 0.84097 0.37044 0.0
O74 O 0.6442 0.91246 0.33293 0.0
Zn75 Zn 0.67711 0.8955 0.37409 0.0
O76 O 0.73466 0.89607 0.35063 0.0
O77 O 0.75636 0.83662 0.34941 0.0
O78 O 0.68551 0.9276 0.41955 0.0
O79 O 0.71806 0.8736 0.41998 0.0
O80 O 0.67698 0.79612 0.38966 0.0
O81 O 0.64188 0.84846 0.39266 0.0
C82 C 0.76187 0.87228 0.34385 0.0
C83 C 0.64477 0.81205 0.39614 0.0
C84 C 0.30334 0.44122 0.57388 0.0
C85 C 0.40142 0.34344 0.59218 0.0
O86 O 0.29071 0.41008 0.58871 0.0
Zn87 Zn 0.31097 0.35564 0.60569 0.0
O88 O 0.33771 0.44276 0.56139 0.0
Zn89 Zn 0.3537 0.3927 0.57976 0.0
O90 O 0.32964 0.35125 0.5424 0.0
O91 O 0.28454 0.31859 0.57291 0.0
O92 O 0.40694 0.37686 0.57849 0.0
O93 O 0.3679 0.33318 0.60346 0.0
O94 O 0.30101 0.36052 0.66092 0.0
O95 O 0.34493 0.40102 0.639 0.0
C96 C 0.30474 0.32418 0.54293 0.0
C97 C 0.32422 0.38828 0.66644 0.0
C98 C 0.82331 0.1255 0.94938 0.0
C99 C 0.91389 0.08655 0.84637 0.0
O100 O 0.82196 0.14295 0.91743 0.0
Zn101 Zn 0.84549 0.14498 0.86275 0.0
O102 O 0.84971 0.10081 0.95525 0.0
Zn103 Zn 0.87198 0.10294 0.90263 0.0
O104 O 0.89822 0.15708 0.90214 0.0
O105 O 0.86982 0.19689 0.86257 0.0
O106 O 0.91447 0.07236 0.88002 0.0
O107 O 0.88922 0.11221 0.83821 0.0
O108 O 0.79856 0.12648 0.83593 0.0
O109 O 0.82238 0.08279 0.87481 0.0
C110 C 0.89647 0.19013 0.88657 0.0
C111 C 0.79621 0.09354 0.85183 0.0
C112 C 0.34956 0.13749 0.27801 0.0
C113 C 0.29367 0.07475 0.39178 0.0
O114 O 0.37306 0.13028 0.30496 0.0
Zn115 Zn 0.37517 0.10282 0.35892 0.0
O116 O 0.31419 0.12865 0.28173 0.0
Zn117 Zn 0.31949 0.10492 0.33267 0.0
O118 O 0.3329 0.15241 0.36982 0.0
O119 O 0.39207 0.14465 0.39099 0.0
O120 O 0.27618 0.08195 0.36073 0.0
O121 O 0.32998 0.08031 0.39342 0.0
O122 O 0.4094 0.06016 0.34597 0.0
O123 O 0.35482 0.05861 0.3145 0.0
C124 C 0.36102 0.16382 0.39049 0.0
C125 C 0.38864 0.04552 0.31992 0.0
C126 C 0.11846 0.18333 0.59698 0.0
C127 C 0.15813 0.08319 0.68674 0.0
O128 O 0.13953 0.18612 0.62632 0.0
Zn129 Zn 0.13707 0.13251 0.64283 0.0
O130 O 0.10163 0.15126 0.59032 0.0
Zn131 Zn 0.09997 0.09464 0.61552 0.0
O132 O 0.04804 0.08719 0.63352 0.0
O133 O 0.08197 0.12395 0.67185 0.0
O134 O 0.13358 0.07065 0.6624 0.0
O135 O 0.16986 0.11767 0.68458 0.0
O136 O 0.16102 0.10212 0.59293 0.0
O137 O 0.1146 0.06436 0.57226 0.0
C138 C 0.05105 0.10512 0.66488 0.0
C139 C 0.1484 0.07755 0.5685 0.0
C140 C 0.15985 0.9752 0.88657 0.0
C141 C 0.11597 0.89231 0.99332 0.0
O142 O 0.1613 0.9391 0.88006 0.0
Zn143 Zn 0.14765 0.88619 0.9072 0.0
O144 O 0.14813 0.98693 0.91913 0.0
Zn145 Zn 0.13443 0.93652 0.94059 0.0
O146 O 0.18889 0.91103 0.95133 0.0
O147 O 0.19752 0.86136 0.913 0.0
O148 O 0.11269 0.92873 0.9927 0.0
O149 O 0.12628 0.87478 0.96287 0.0
O150 O 0.10849 0.86593 0.87336 0.0
O151 O 0.09052 0.91983 0.90123 0.0
C152 C 0.2089 0.88219 0.94066 0.0
C153 C 0.08431 0.89297 0.87701 0.0
C154 C 0.43512 0.91191 0.14512 0.0
C155 C 0.44561 0.78924 0.07608 0.0
O156 O 0.41719 0.88348 0.15959 0.0
Zn157 Zn 0.4078 0.82487 0.1518 0.0
O158 O 0.45445 0.90793 0.11428 0.0
Zn159 Zn 0.44533 0.85208 0.10887 0.0
O160 O 0.38629 0.85044 0.09543 0.0
O161 O 0.35216 0.82444 0.14235 0.0
O162 O 0.46465 0.81932 0.06732 0.0
O163 O 0.42562 0.78849 0.10686 0.0
O164 O 0.43281 0.80673 0.19845 0.0
O165 O 0.47403 0.83305 0.15804 0.0
C166 C 0.35401 0.83924 0.109 0.0
C167 C 0.46686 0.8178 0.19052 0.0
C168 C 0.38001 0.35379 0.17173 0.0
C169 C 0.29925 0.46072 0.21691 0.0
O170 O 0.39021 0.38714 0.16032 0.0
Zn171 Zn 0.37378 0.44548 0.16532 0.0
O172 O 0.34958 0.34965 0.19181 0.0
Zn173 Zn 0.3382 0.40455 0.1971 0.0
O174 O 0.31848 0.41813 0.14236 0.0
O175 O 0.35706 0.45853 0.11254 0.0
O176 O 0.29473 0.42564 0.22614 0.0
O177 O 0.32789 0.47067 0.19614 0.0
O178 O 0.42033 0.46456 0.19084 0.0
O179 O 0.38887 0.42184 0.22568 0.0
C180 C 0.32607 0.43889 0.11324 0.0
C181 C 0.41836 0.4432 0.22041 0.0
C182 C 0.81782 0.92902 0.14718 0.0
C183 C 0.81627 0.84706 0.03016 0.0
O184 O 0.83971 0.93748 0.11913 0.0
Zn185 Zn 0.85497 0.92337 0.06346 0.0
O186 O 0.79649 0.89918 0.14496 0.0
Zn187 Zn 0.81131 0.88556 0.0908 0.0
O188 O 0.86895 0.86859 0.09708 0.0
O189 O 0.90938 0.91018 0.07083 0.0
O190 O 0.79355 0.84212 0.05856 0.0
O191 O 0.8382 0.87652 0.02936 0.0
O192 O 0.83475 0.97037 0.03961 0.0
O193 O 0.78866 0.93461 0.06472 0.0
C194 C 0.90323 0.87873 0.08856 0.0
C195 C 0.79938 0.96532 0.04791 0.0
C196 C 0.04785 0.63712 0.60858 0.0
C197 C 0.16567 0.6548 0.53045 0.0
O198 O 0.07649 0.65195 0.6261 0.0
Zn199 Zn 0.13447 0.6699 0.61528 0.0
O200 O 0.05185 0.62602 0.57404 0.0
Zn201 Zn 0.10471 0.64544 0.56715 0.0
O202 O 0.13754 0.6064 0.59985 0.0
O203 O 0.16521 0.63713 0.64775 0.0
O204 O 0.13317 0.64325 0.5184 0.0
O205 O 0.1686 0.66634 0.56499 0.0
O206 O 0.12881 0.72438 0.62583 0.0
O207 O 0.09366 0.70443 0.5774 0.0
C208 C 0.15968 0.60643 0.62887 0.0
C209 C 0.10279 0.73072 0.60125 0.0
C210 C 0.64916 0.80819 0.90088 0.0
C211 C 0.60757 0.89699 0.79891 0.0
O212 O 0.62387 0.83288 0.91031 0.0
Zn213 Zn 0.59251 0.87853 0.88735 0.0
O214 O 0.66494 0.80987 0.86789 0.0
Zn215 Zn 0.63281 0.8515 0.84655 0.0
O216 O 0.65372 0.90261 0.87092 0.0
O217 O 0.61226 0.92593 0.91265 0.0
O218 O 0.63211 0.87039 0.79316 0.0
O219 O 0.59129 0.89999 0.83155 0.0
O220 O 0.54089 0.85483 0.89222 0.0
O221 O 0.57887 0.82434 0.85175 0.0
C222 C 0.64369 0.92922 0.89391 0.0
C223 C 0.54699 0.82644 0.86988 0.0
C224 C 0.86613 0.08958 0.29838 0.0
C225 C 0.90329 0.13174 0.42612 0.0
O226 O 0.9016 0.08364 0.3057 0.0
Zn227 Zn 0.94037 0.08999 0.35254 0.0
O228 O 0.84501 0.10679 0.32261 0.0
Zn229 Zn 0.88386 0.11111 0.36233 0.0
O230 O 0.92544 0.15359 0.34345 0.0
O231 O 0.98032 0.12393 0.33278 0.0
O232 O 0.86993 0.13181 0.41155 0.0
O233 O 0.93131 0.11645 0.40774 0.0
O234 O 0.95079 0.03541 0.36209 0.0
O235 O 0.89071 0.05174 0.37358 0.0
C236 C 0.96121 0.15496 0.33434 0.0
C237 C 0.9167 0.02606 0.3715 0.0
C238 C 0.65903 0.08983 0.61681 0.0
C239 C 0.54024 0.16452 0.6097 0.0
O240 O 0.65492 0.11503 0.64316 0.0
Zn241 Zn 0.61411 0.15614 0.66249 0.0
O242 O 0.635 0.08843 0.58947 0.0
Zn243 Zn 0.59934 0.12636 0.61012 0.0
O244 O 0.62819 0.17994 0.60276 0.0
O245 O 0.63981 0.2061 0.65918 0.0
O246 O 0.54952 0.13778 0.58668 0.0
O247 O 0.56148 0.17195 0.6384 0.0
O248 O 0.60031 0.13194 0.71103 0.0
O249 O 0.58549 0.0964 0.66099 0.0
C250 C 0.64081 0.20794 0.62283 0.0
C251 C 0.58847 0.10026 0.69717 0.0
C252 C 0.15401 0.39801 0.97442 0.0
C253 C 0.10939 0.3665 0.84644 0.0
O254 O 0.163 0.36406 0.96401 0.0
Zn255 Zn 0.15589 0.32784 0.91566 0.0
O256 O 0.13263 0.41842 0.95339 0.0
Zn257 Zn 0.12914 0.38244 0.91083 0.0
O258 O 0.09031 0.33709 0.92671 0.0
O259 O 0.12475 0.2847 0.93317 0.0
O260 O 0.10396 0.39768 0.86453 0.0
O261 O 0.12882 0.33937 0.86161 0.0
O262 O 0.21025 0.32149 0.90281 0.0
O263 O 0.18847 0.38036 0.89419 0.0
C264 C 0.0921 0.30097 0.93309 0.0
C265 C 0.21618 0.35632 0.89358 0.0
C266 C 0.37446 0.62707 0.4379 0.0
C267 C 0.48373 0.60286 0.34884 0.0
O268 O 0.37324 0.64287 0.40506 0.0
Zn269 Zn 0.40344 0.64721 0.35346 0.0
O270 O 0.40372 0.60716 0.44703 0.0
Zn271 Zn 0.43098 0.6103 0.39685 0.0
O272 O 0.45 0.66741 0.39588 0.0
O273 O 0.42022 0.70196 0.35253 0.0
O274 O 0.48071 0.58677 0.38155 0.0
O275 O 0.45643 0.62367 0.33643 0.0
O276 O 0.36483 0.62105 0.321 0.0
O277 O 0.39094 0.58128 0.3624 0.0
C278 C 0.44607 0.69912 0.37816 0.0
C279 C 0.36703 0.58759 0.33564 0.0
C280 C 0.89461 0.69458 0.8772 0.0
C281 C 0.92339 0.57086 0.81408 0.0
O282 O 0.86781 0.68192 0.8556 0.0
Zn283 Zn 0.85658 0.63354 0.81918 0.0
O284 O 0.92655 0.67685 0.87845 0.0
Zn285 Zn 0.912 0.63299 0.84667 0.0
O286 O 0.91185 0.65644 0.791 0.0
O287 O 0.85348 0.65407 0.76676 0.0
O288 O 0.94541 0.58828 0.83732 0.0
O289 O 0.89029 0.58455 0.80673 0.0
O290 O 0.81258 0.61227 0.84706 0.0
O291 O 0.86584 0.6118 0.88093 0.0
C292 C 0.88903 0.66202 0.7631 0.0
C293 C 0.82958 0.60633 0.8787 0.0
C294 C 0.62896 0.65107 0.06446 0.0
C295 C 0.66236 0.5483 0.15554 0.0
O296 O 0.65502 0.65949 0.08863 0.0
Zn297 Zn 0.68466 0.63508 0.13504 0.0
O298 O 0.61109 0.61921 0.0673 0.0
Zn299 Zn 0.64209 0.59707 0.10891 0.0
O300 O 0.62289 0.62418 0.15935 0.0
O301 O 0.6674 0.66319 0.18161 0.0
O302 O 0.63805 0.54429 0.12861 0.0
O303 O 0.68149 0.57948 0.1582 0.0
O304 O 0.73661 0.6359 0.11232 0.0
O305 O 0.69657 0.59758 0.08188 0.0
C306 C 0.63468 0.647 0.18532 0.0
C307 C 0.72958 0.61352 0.08428 0.0
C308 C 0.61916 0.3728 0.47295 0.0
C309 C 0.65843 0.45143 0.36175 0.0
O310 O 0.62952 0.35479 0.44283 0.0
Zn311 Zn 0.65004 0.36374 0.38702 0.0
O312 O 0.61535 0.40918 0.47178 0.0
Zn313 Zn 0.63601 0.41636 0.41905 0.0
O314 O 0.59251 0.39744 0.3816 0.0
O315 O 0.60937 0.34315 0.35371 0.0
O316 O 0.64789 0.46552 0.39383 0.0
O317 O 0.66097 0.41515 0.3577 0.0
O318 O 0.70214 0.34208 0.39448 0.0
O319 O 0.69098 0.39389 0.42902 0.0
C320 C 0.58561 0.37067 0.35763 0.0
C321 C 0.71277 0.36587 0.42012 0.0
C322 C 0.95478 0.31574 0.6901 0.0
C323 C 0.85825 0.34921 0.59449 0.0
O324 O 0.96833 0.3325 0.66036 0.0
Zn325 Zn 0.94889 0.35755 0.60843 0.0
O326 O 0.91908 0.30773 0.69201 0.0
Zn327 Zn 0.90501 0.33198 0.64417 0.0
O328 O 0.92898 0.29511 0.60204 0.0
O329 O 0.97446 0.32544 0.56977 0.0
O330 O 0.85207 0.33502 0.62747 0.0
O331 O 0.89238 0.3591 0.58476 0.0
O332 O 0.96261 0.41189 0.61943 0.0
O333 O 0.91933 0.38879 0.65939 0.0
C334 C 0.95423 0.29536 0.57529 0.0
C335 C 0.94197 0.41591 0.64941 0.0
H336 H 0.10551 0.29237 0.45272 0.0
H337 H 0.17745 0.36475 0.52179 0.0
H338 H 0.17625 0.31675 0.57328 0.0
H339 H 0.15442 0.25377 0.59847 0.0
H340 H 0.07909 0.18377 0.52979 0.0
H341 H 0.08121 0.2314 0.47895 0.0
C342 C 0.12114 0.29738 0.479 0.0
C343 C 0.14214 0.33157 0.48335 0.0
C344 C 0.1192 0.27027 0.5088 0.0
C345 C 0.16152 0.33835 0.51775 0.0
C346 C 0.16064 0.31099 0.54719 0.0
C347 C 0.13816 0.24908 0.57256 0.0
C348 C 0.1167 0.21493 0.56819 0.0
C349 C 0.13942 0.27684 0.54312 0.0
C350 C 0.09586 0.20957 0.53422 0.0
C351 C 0.09719 0.23678 0.5049 0.0
H352 H 0.95195 0.88222 0.7553 0.0
H353 H 0.9723 1.00413 0.75044 0.0
H354 H 0.01939 0.99854 0.8021 0.0
H355 H 0.0565 0.95843 0.84659 0.0
H356 H 0.04073 0.83575 0.84599 0.0
H357 H 0.98968 0.84216 0.79851 0.0
C358 C 0.96623 0.90775 0.7659 0.0
C359 C 0.95816 0.94375 0.74949 0.0
C360 C 0.99406 0.90405 0.7945 0.0
C361 C 0.97773 0.97628 0.76285 0.0
C362 C 1.00464 0.97303 0.7923 0.0
C363 C 0.04146 0.93316 0.83643 0.0
C364 C 0.05189 0.89664 0.85014 0.0
C365 C 0.01323 0.93701 0.80812 0.0
C366 C 0.033 0.86408 0.83601 0.0
C367 C 1.0039 0.86778 0.80888 0.0
H368 H 0.37969 0.75126 0.06498 0.0
H369 H 0.49655 0.75814 0.02393 0.0
H370 H 0.48364 0.70564 0.97878 0.0
H371 H 0.43899 0.658 0.95173 0.0
H372 H 0.32076 0.65546 0.98909 0.0
H373 H 0.33438 0.70638 0.03561 0.0
C374 C 0.40254 0.741 0.04644 0.0
C375 C 0.43934 0.75788 0.04832 0.0
C376 C 0.39458 0.71173 0.0202 0.0
C377 C 0.46821 0.74529 0.02325 0.0
C378 C 0.46079 0.71532 0.99756 0.0
C379 C 0.41627 0.66831 0.97038 0.0
C380 C 0.37903 0.65246 0.96772 0.0
C381 C 0.42412 0.69826 0.996 0.0
C382 C 0.34962 0.66692 0.99104 0.0
C383 C 0.35745 0.69598 0.01749 0.0
H384 H 0.35058 0.09749 0.2112 0.0
H385 H 0.39137 0.20094 0.26495 0.0
H386 H 0.44556 0.20356 0.22063 0.0
H387 H 0.48758 0.16928 0.17689 0.0
H388 H 0.44773 0.06779 0.11896 0.0
H389 H 0.3866 0.0716 0.15458 0.0
C390 C 0.37027 0.12161 0.21184 0.0
C391 C 0.36707 0.14903 0.24136 0.0
C392 C 0.40239 0.12209 0.187 0.0
C393 C 0.39306 0.17983 0.24226 0.0
C394 C 0.42452 0.18082 0.2175 0.0
C395 C 0.46551 0.14793 0.1718 0.0
C396 C 0.47266 0.11752 0.14629 0.0
C397 C 0.43063 0.15079 0.19157 0.0
C398 C 0.44333 0.09083 0.13927 0.0
C399 C 0.40848 0.09298 0.1597 0.0
H400 H 0.1573 0.82899 0.00586 0.0
H401 H 0.07957 0.90638 0.06306 0.0
H402 H 0.08403 0.86733 0.12157 0.0
H403 H 0.10538 0.80691 0.15377 0.0
H404 H 0.1832 0.73155 0.09417 0.0
H405 H 0.18444 0.77501 0.0395 0.0
C406 C 0.14098 0.83745 0.03097 0.0
C407 C 0.11717 0.87006 0.02964 0.0
C408 C 0.1443 0.81547 0.06425 0.0
C409 C 0.09746 0.88105 0.063 0.0
C410 C 0.10013 0.85874 0.09645 0.0
C411 C 0.1237 0.8009 0.12934 0.0
C412 C 0.14475 0.76635 0.12815 0.0
C413 C 0.12302 0.82546 0.0972 0.0
C414 C 0.16743 0.75823 0.09594 0.0
C415 C 0.16761 0.78276 0.06448 0.0
H416 H 0.57011 0.88176 0.32249 0.0
H417 H 0.65885 0.85864 0.23949 0.0
H418 H 0.61103 0.83204 0.19556 0.0
H419 H 0.5439 0.81558 0.18103 0.0
H420 H 0.45568 0.83497 0.26574 0.0
H421 H 0.50333 0.86234 0.30904 0.0
C422 C 0.57871 0.87171 0.29438 0.0
C423 C 0.61761 0.8734 0.28346 0.0
C424 C 0.55136 0.85467 0.27025 0.0
C425 C 0.62885 0.85868 0.24782 0.0
C426 C 0.60163 0.84297 0.22305 0.0
C427 C 0.53534 0.82467 0.20949 0.0
C428 C 0.49638 0.82274 0.22035 0.0
C429 C 0.56288 0.84045 0.23415 0.0
C430 C 0.48559 0.83512 0.25707 0.0
C431 C 0.51277 0.85129 0.28164 0.0
H432 H 0.36706 0.30532 0.50189 0.0
H433 H 0.24719 0.27691 0.51598 0.0
H434 H 0.25375 0.22609 0.46762 0.0
H435 H 0.29473 0.1882 0.42357 0.0
H436 H 0.41577 0.21374 0.41525 0.0
H437 H 0.40763 0.26755 0.45938 0.0
C438 C 0.34209 0.2885 0.49396 0.0
C439 C 0.30645 0.29531 0.51195 0.0
C440 C 0.34649 0.25872 0.46745 0.0
C441 C 0.27478 0.27242 0.50225 0.0
C442 C 0.27861 0.24337 0.47472 0.0
C443 C 0.31921 0.20589 0.4311 0.0
C444 C 0.3558 0.19734 0.41587 0.0
C445 C 0.31446 0.23606 0.45741 0.0
C446 C 0.3874 0.21985 0.42651 0.0
C447 C 0.38272 0.25058 0.45169 0.0
H448 H 0.06091 0.09576 0.74147 0.0
H449 H 0.9739 0.10173 0.65457 0.0
H450 H 0.92389 0.09132 0.70292 0.0
H451 H 0.90473 0.08405 0.7701 0.0
H452 H 0.99099 0.07535 0.85736 0.0
H453 H 0.04163 0.08199 0.80863 0.0
C454 C 0.03093 0.09516 0.73329 0.0
C455 C 0.02093 0.10058 0.69465 0.0
C456 C 1.00237 0.08797 0.76117 0.0
C457 C 0.98217 0.09833 0.68418 0.0
C458 C 0.95364 0.09215 0.71177 0.0
C459 C 0.93467 0.08269 0.77835 0.0
C460 C 0.94411 0.07911 0.81729 0.0
C461 C 0.96338 0.08721 0.75033 0.0
C462 C 0.98297 0.07746 0.82758 0.0
C463 C 0.01188 0.08197 0.79976 0.0
H464 H 0.20048 0.61032 0.21392 0.0
H465 H 0.14094 0.54481 0.12782 0.0
H466 H 0.18049 0.48898 0.14217 0.0
H467 H 0.23363 0.4593 0.17759 0.0
H468 H 0.2979 0.52708 0.25756 0.0
H469 H 0.25384 0.58077 0.24893 0.0
C470 C 0.1962 0.58392 0.19811 0.0
C471 C 0.16782 0.58204 0.16957 0.0
C472 C 0.21914 0.55187 0.20646 0.0
C473 C 0.16277 0.54739 0.14958 0.0
C474 C 0.18514 0.51526 0.15806 0.0
C475 C 0.23702 0.48542 0.19409 0.0
C476 C 0.26767 0.48858 0.21991 0.0
C477 C 0.21334 0.51713 0.1865 0.0
C478 C 0.27326 0.52326 0.2394 0.0
C479 C 0.24858 0.55427 0.23363 0.0
H480 H 0.75233 0.07351 0.91181 0.0
H481 H 0.76368 0.05729 0.79031 0.0
H482 H 0.71506 0.00594 0.79285 0.0
H483 H 0.67487 0.96164 0.83108 0.0
H484 H 0.6627 0.97866 0.95268 0.0
H485 H 0.70589 0.03458 0.94872 0.0
C486 C 0.74328 0.05947 0.88571 0.0
C487 C 0.76115 0.0694 0.85072 0.0
C488 C 0.71576 0.0299 0.8877 0.0
C489 C 0.74976 0.05063 0.81725 0.0
C490 C 0.72236 0.02101 0.81892 0.0
C491 C 0.68153 0.97768 0.8568 0.0
C492 C 0.66623 0.96553 0.89238 0.0
C493 C 0.70607 0.00972 0.85418 0.0
C494 C 0.67428 0.98718 0.92515 0.0
C495 C 0.69904 0.01899 0.92285 0.0
H496 H 0.89826 0.98324 0.31063 0.0
H497 H 0.90117 0.982 0.43363 0.0
H498 H 0.85767 0.92682 0.43469 0.0
H499 H 0.80938 0.88798 0.40123 0.0
H500 H 0.80057 0.89419 0.27893 0.0
H501 H 0.85705 0.93677 0.27648 0.0
C502 C 0.89079 0.96955 0.33753 0.0
C503 C 0.90359 0.9859 0.37204 0.0
C504 C 0.86411 0.93911 0.3379 0.0
C505 C 0.89247 0.96919 0.40681 0.0
C506 C 0.86713 0.938 0.40739 0.0
C507 C 0.82052 0.89792 0.37403 0.0
C508 C 0.80108 0.88809 0.34031 0.0
C509 C 0.85134 0.92402 0.37324 0.0
C510 C 0.81531 0.90131 0.30515 0.0
C511 C 0.84722 0.92598 0.30388 0.0
H512 H 0.64674 0.05569 0.06374 0.0
H513 H 0.69641 0.08319 0.17322 0.0
H514 H 0.75605 0.0512 0.15391 0.0
H515 H 0.79303 0.01365 0.10656 0.0
H516 H 0.742 0.98421 0.99872 0.0
H517 H 0.6843 0.02069 0.01599 0.0
C518 C 0.6703 0.05437 0.0838 0.0
C519 C 0.66657 0.07131 0.12038 0.0
C520 C 0.70473 0.03692 0.0721 0.0
C521 C 0.69803 0.06987 0.14529 0.0
C522 C 0.73234 0.05204 0.13402 0.0
C523 C 0.76982 0.01657 0.08629 0.0
C524 C 0.77222 0.99747 0.05083 0.0
C525 C 0.73603 0.03568 0.09742 0.0
C526 C 0.74137 0.99991 0.02544 0.0
C527 C 0.70814 0.02006 0.03571 0.0
H528 H 0.2323 0.60458 0.60497 0.0
H529 H 0.14286 0.53504 0.65484 0.0
H530 H 0.17946 0.47689 0.6401 0.0
H531 H 0.23383 0.44633 0.60837 0.0
H532 H 0.32198 0.51547 0.5546 0.0
H533 H 0.28789 0.57365 0.57394 0.0
C534 C 0.22159 0.57668 0.61366 0.0
C535 C 0.18572 0.57383 0.63205 0.0
C536 C 0.24164 0.54354 0.60287 0.0
C537 C 0.17109 0.5377 0.6419 0.0
C538 C 0.19162 0.50458 0.63275 0.0
C539 C 0.24559 0.47405 0.60043 0.0
C540 C 0.28035 0.47642 0.57967 0.0
C541 C 0.22632 0.5072 0.61223 0.0
C542 C 0.29508 0.51273 0.57005 0.0
C543 C 0.27585 0.54601 0.58153 0.0
H544 H 0.2728 0.43345 0.33856 0.0
H545 H 0.18912 0.50933 0.38926 0.0
H546 H 0.23037 0.56429 0.3758 0.0
H547 H 0.29165 0.59106 0.35266 0.0
H548 H 0.37872 0.51523 0.30911 0.0
H549 H 0.33477 0.46048 0.31561 0.0
C550 C 0.26367 0.46198 0.3468 0.0
C551 C 0.22789 0.46695 0.3653 0.0
C552 C 0.28799 0.49374 0.33953 0.0
C553 C 0.21663 0.50432 0.37557 0.0
C554 C 0.24009 0.53597 0.36753 0.0
C555 C 0.30044 0.56273 0.34338 0.0
C556 C 0.33783 0.55742 0.32898 0.0
C557 C 0.27587 0.53109 0.34963 0.0
C558 C 0.34963 0.52021 0.319 0.0
C559 C 0.3247 0.48881 0.32339 0.0
H560 H 0.34389 0.47228 0.85386 0.0
H561 H 0.37206 0.45543 0.97202 0.0
H562 H 0.3281 0.3999 0.97473 0.0
H563 H 0.27279 0.36483 0.94576 0.0
H564 H 0.24402 0.38602 0.82803 0.0
H565 H 0.2978 0.43075 0.82215 0.0
C566 C 0.34152 0.45554 0.87974 0.0
C567 C 0.36127 0.4676 0.91249 0.0
C568 C 0.31574 0.42474 0.88105 0.0
C569 C 0.35739 0.44638 0.94634 0.0
C570 C 0.33202 0.41489 0.94786 0.0
C571 C 0.27958 0.37794 0.91842 0.0
C572 C 0.25506 0.37171 0.88704 0.0
C573 C 0.30979 0.40489 0.91577 0.0
C574 C 0.26301 0.38989 0.85216 0.0
C575 C 0.29344 0.41577 0.84898 0.0
H576 H 0.59164 0.76689 0.93117 0.0
H577 H 0.71514 0.77486 0.92818 0.0
H578 H 0.71894 0.72523 0.97816 0.0
H579 H 0.68698 0.68374 0.02546 0.0
H580 H 0.56355 0.67404 0.02699 0.0
H581 H 0.55973 0.72043 0.9742 0.0
C582 C 0.61946 0.75743 0.9412 0.0
C583 C 0.65317 0.77464 0.9264 0.0
C584 C 0.6213 0.72903 0.96959 0.0
C585 C 0.68898 0.76191 0.93909 0.0
C586 C 0.69107 0.73383 0.96773 0.0
C587 C 0.6592 0.69173 0.01414 0.0
C588 C 0.62545 0.67613 0.0305 0.0
C589 C 0.65742 0.71788 0.98368 0.0
C590 C 0.58978 0.68585 0.01501 0.0
C591 C 0.58768 0.7124 0.98496 0.0
H592 H 0.56648 0.43704 0.32395 0.0
H593 H 0.53355 0.31793 0.3304 0.0
H594 H 0.47822 0.33083 0.28907 0.0
H595 H 0.43855 0.37647 0.2532 0.0
H596 H 0.47467 0.49439 0.242 0.0
H597 H 0.53003 0.48141 0.28322 0.0
C598 C 0.54711 0.41388 0.31632 0.0
C599 C 0.55353 0.37665 0.33073 0.0
C600 C 0.51608 0.42144 0.29204 0.0
C601 C 0.52897 0.34674 0.31986 0.0
C602 C 0.49736 0.35422 0.2964 0.0
C603 C 0.45835 0.39951 0.26003 0.0
C604 C 0.45205 0.43667 0.24529 0.0
C605 C 0.49042 0.39155 0.28278 0.0
C606 C 0.47861 0.4658 0.25338 0.0
C607 C 0.51015 0.45835 0.27694 0.0
H608 H 0.90115 0.23924 0.56969 0.0
H609 H 0.00823 0.27761 0.5198 0.0
H610 H 1.00393 0.22654 0.47166 0.0
H611 H 0.96646 0.17481 0.4406 0.0
H612 H 0.85657 0.14186 0.48789 0.0
H613 H 0.86543 0.18695 0.54069 0.0
C614 C 0.924 0.23627 0.54872 0.0
C615 C 0.95504 0.26234 0.54844 0.0
C616 C 0.92066 0.20784 0.52062 0.0
C617 C 0.98402 0.25805 0.52067 0.0
C618 C 0.98151 0.22889 0.49313 0.0
C619 C 0.9449 0.17694 0.463 0.0
C620 C 0.91104 0.15475 0.46071 0.0
C621 C 0.94953 0.20411 0.49239 0.0
C622 C 0.88286 0.15847 0.48924 0.0
C623 C 0.8879 0.18432 0.51929 0.0
H624 H 0.89263 0.6164 0.70038 0.0
H625 H 0.92961 0.72537 0.74528 0.0
H626 H 0.98124 0.72829 0.69785 0.0
H627 H 0.02274 0.69404 0.65331 0.0
H628 H 0.98726 0.5855 0.60628 0.0
H629 H 0.92799 0.58795 0.64499 0.0
C630 C 0.91081 0.64163 0.69838 0.0
C631 C 0.90708 0.67095 0.72594 0.0
C632 C 0.94151 0.64234 0.67184 0.0
C633 C 0.93157 0.7029 0.72396 0.0
C634 C 0.96151 0.70419 0.69731 0.0
C635 C 1.00177 0.67114 0.65093 0.0
C636 C 0.00973 0.63921 0.62761 0.0
C637 C 0.96794 0.6731 0.6727 0.0
C638 C 0.982 0.61013 0.6244 0.0
C639 C 0.94817 0.61159 0.64654 0.0
H640 H 0.66907 0.31722 0.48755 0.0
H641 H 0.57657 0.38005 0.54045 0.0
H642 H 0.58066 0.3381 0.59705 0.0
H643 H 0.60502 0.27727 0.62657 0.0
H644 H 0.69684 0.21619 0.57048 0.0
H645 H 0.69959 0.26482 0.52043 0.0
C646 C 0.64977 0.3221 0.51151 0.0
C647 C 0.62182 0.35113 0.50938 0.0
C648 C 0.65252 0.29828 0.54345 0.0
C649 C 0.59786 0.35753 0.54111 0.0
C650 C 0.60021 0.33345 0.57336 0.0
C651 C 0.62652 0.27555 0.6041 0.0
C652 C 0.65103 0.24341 0.60225 0.0
C653 C 0.62674 0.30295 0.57434 0.0
C654 C 0.67821 0.24093 0.57268 0.0
C655 C 0.67934 0.26839 0.5438 0.0
H656 H 0.03355 0.35561 0.84536 0.0
H657 H 0.13438 0.35381 0.77362 0.0
H658 H 0.09553 0.33234 0.71921 0.0
H659 H 0.03243 0.31671 0.69208 0.0
H660 H 0.93199 0.31603 0.76493 0.0
H661 H 0.97138 0.33447 0.81946 0.0
C662 C 0.04677 0.35086 0.81761 0.0
C663 C 0.08629 0.3574 0.81275 0.0
C664 C 0.02456 0.33714 0.7872 0.0
C665 C 0.10372 0.34992 0.77737 0.0
C666 C 0.08162 0.33726 0.74656 0.0
C667 C 0.0193 0.31963 0.72013 0.0
C668 C 0.9793 0.31507 0.72441 0.0
C669 C 0.042 0.33087 0.75118 0.0
C670 C 0.96272 0.31887 0.76091 0.0
C671 C 0.98516 0.32996 0.79202 0.0
H672 H 0.82563 0.71158 0.90926 0.0
H673 H 0.94405 0.74803 0.90675 0.0
H674 H 0.9293 0.79899 0.9528 0.0
H675 H 0.8832 0.83223 0.99428 0.0
H676 H 0.76575 0.79308 1.00112 0.0
H677 H 0.77985 0.74378 0.95265 0.0
C678 C 0.84814 0.73099 0.91845 0.0
C679 C 0.88586 0.72646 0.90405 0.0
C680 C 0.83962 0.75948 0.94577 0.0
C681 C 0.91486 0.7511 0.91711 0.0
C682 C 0.90639 0.78017 0.94346 0.0
C683 C 0.86041 0.81319 0.98497 0.0
C684 C 0.8232 0.81682 1.00088 0.0
C685 C 0.86892 0.78453 0.958 0.0
C686 C 0.79446 0.79113 0.98924 0.0
C687 C 0.80252 0.76301 0.96156 0.0
H688 H 0.52254 0.66554 0.32625 0.0
H689 H 0.52447 0.54222 0.31969 0.0
H690 H 0.57441 0.54575 0.26974 0.0
H691 H 0.61009 0.5844 0.22242 0.0
H692 H 0.61051 0.70768 0.23023 0.0
H693 H 0.56655 0.70402 0.28554 0.0
C694 C 0.53465 0.63942 0.31448 0.0
C695 C 0.51986 0.60354 0.32636 0.0
C696 C 0.563 0.64189 0.28576 0.0
C697 C 0.53562 0.56994 0.31111 0.0
C698 C 0.56381 0.57209 0.28234 0.0
C699 C 0.60129 0.61047 0.23678 0.0
C700 C 0.61326 0.64634 0.22213 0.0
C701 C 0.57662 0.60793 0.26859 0.0
C702 C 0.60168 0.67987 0.24095 0.0
C703 C 0.57647 0.67768 0.27241 0.0
H704 H 0.76562 0.94365 0.62851 0.0
H705 H 0.78773 0.99355 0.73886 0.0
H706 H 0.74111 0.04436 0.72587 0.0
H707 H 0.69987 0.07764 0.68109 0.0
H708 H 0.67843 0.02953 0.56943 0.0
H709 H 0.71945 0.97473 0.58506 0.0
C710 C 0.75892 0.96483 0.65027 0.0
C711 C 0.77897 0.96439 0.68509 0.0
C712 C 0.73357 0.99488 0.64181 0.0
C713 C 0.77163 0.99278 0.71246 0.0
C714 C 0.7456 0.02213 0.70472 0.0
C715 C 0.70441 0.05553 0.65974 0.0
C716 C 0.68673 0.05832 0.62365 0.0
C717 C 0.72755 0.02415 0.669 0.0
C718 C 0.69233 0.02867 0.59702 0.0
C719 C 0.71556 0.99723 0.60604 0.0
H720 H 0.05343 0.57166 0.23262 0.0
H721 H 0.08165 0.64944 0.32432 0.0
H722 H 0.08351 0.59538 0.36911 0.0
H723 H 0.08569 0.52512 0.37995 0.0
H724 H 0.06582 0.44843 0.28543 0.0
H725 H 0.05201 0.50298 0.24388 0.0
C726 C 0.05925 0.57716 0.26255 0.0
C727 C 0.06749 0.61477 0.27498 0.0
C728 C 0.06219 0.54589 0.28752 0.0
C729 C 0.07512 0.62093 0.31391 0.0
C730 C 0.07647 0.58994 0.33947 0.0
C731 C 0.07736 0.52047 0.35048 0.0
C732 C 0.07632 0.48287 0.33572 0.0
C733 C 0.07129 0.55216 0.3263 0.0
C734 C 0.06654 0.4771 0.29733 0.0
C735 C 0.05879 0.50828 0.27361 0.0
H736 H 0.81151 0.98627 0.56334 0.0
H737 H 0.88346 0.88945 0.53695 0.0
H738 H 0.83832 0.86828 0.48831 0.0
H739 H 0.77612 0.87333 0.45854 0.0
H740 H 0.70485 0.97227 0.47882 0.0
H741 H 0.75195 0.99665 0.52498 0.0
C742 C 0.81813 0.96173 0.54547 0.0
C743 C 0.85125 0.9399 0.55291 0.0
C744 C 0.79157 0.94939 0.51767 0.0
C745 C 0.85875 0.90719 0.53085 0.0
C746 C 0.83252 0.89463 0.50369 0.0
C747 C 0.77064 0.90037 0.4728 0.0
C748 C 0.73659 0.92064 0.46544 0.0
C749 C 0.79835 0.91481 0.49781 0.0
C750 C 0.73045 0.9557 0.48433 0.0
C751 C 0.75755 0.96977 0.5105 0.0
H752 H 0.38671 0.48596 0.80009 0.0
H753 H 0.29705 0.56272 0.76393 0.0
H754 H 0.27569 0.51494 0.71686 0.0
H755 H 0.28459 0.45183 0.68481 0.0
H756 H 0.37152 0.37469 0.72557 0.0
H757 H 0.3906 0.42153 0.77403 0.0
C758 C 0.36241 0.49253 0.78202 0.0
C759 C 0.34377 0.52823 0.78535 0.0
C760 C 0.34908 0.46428 0.75689 0.0
C761 C 0.31215 0.53571 0.76178 0.0
C762 C 0.29972 0.50823 0.7352 0.0
C763 C 0.30663 0.44483 0.70543 0.0
C764 C 0.32603 0.40953 0.70256 0.0
C765 C 0.31791 0.47232 0.73265 0.0
C766 C 0.35551 0.40115 0.72822 0.0
C767 C 0.36686 0.42823 0.75532 0.0
H768 H 0.7537 0.14891 0.92724 0.0
H769 H 0.81509 0.11089 0.02715 0.0
H770 H 0.75661 0.12019 0.06595 0.0
H771 H 0.68884 0.13975 0.07068 0.0
H772 H 0.62685 0.1714 0.96903 0.0
H773 H 0.68593 0.16438 0.9311 0.0
C774 C 0.75477 0.14301 0.95765 0.0
C775 C 0.78919 0.13013 0.97454 0.0
C776 C 0.72118 0.1475 0.97915 0.0
C777 C 0.78927 0.12132 0.01363 0.0
C778 C 0.75588 0.12667 0.03567 0.0
C779 C 0.68827 0.14556 0.04025 0.0
C780 C 0.65369 0.15704 0.02266 0.0
C781 C 0.72184 0.14002 0.01866 0.0
C782 C 0.65316 0.16319 0.98314 0.0
C783 C 0.68684 0.15903 0.9616 0.0
H784 H 0.21695 0.05815 0.40211 0.0
H785 H 0.32254 0.07579 0.46381 0.0
H786 H 0.28751 0.07646 0.524 0.0
H787 H 0.2262 0.07848 0.55919 0.0
H788 H 0.1208 0.05713 0.49877 0.0
H789 H 0.15627 0.05121 0.43864 0.0
C790 C 0.23236 0.06137 0.42876 0.0
C791 C 0.27236 0.0673 0.42808 0.0
C792 C 0.212 0.06149 0.46378 0.0
C793 C 0.29179 0.07122 0.46311 0.0
C794 C 0.27175 0.07186 0.49777 0.0
C795 C 0.21111 0.07199 0.53293 0.0
C796 C 0.17092 0.0686 0.53348 0.0
C797 C 0.23175 0.06806 0.49842 0.0
C798 C 0.15177 0.05981 0.49924 0.0
C799 C 0.17203 0.0566 0.46472 0.0
H800 H 0.1654 0.10576 0.76078 0.0
H801 H 0.17 0.00635 0.68766 0.0
H802 H 0.17553 0.96474 0.74357 0.0
H803 H 0.17271 0.95615 0.81259 0.0
H804 H 0.16169 0.05438 0.88685 0.0
H805 H 0.1653 0.09702 0.83117 0.0
C806 C 0.16858 0.07505 0.75717 0.0
C807 C 0.16781 0.05909 0.72012 0.0
C808 C 0.17009 0.05115 0.78963 0.0
C809 C 0.17083 0.01923 0.71583 0.0
C810 C 0.1738 0.99547 0.7478 0.0
C811 C 0.17167 0.98692 0.8169 0.0
C812 C 0.16696 1.00195 0.85408 0.0
C813 C 0.17251 0.01103 0.78479 0.0
C814 C 0.16537 0.04195 0.8587 0.0
C815 C 0.16731 0.06634 0.82681 0.0
H816 H 0.35273 0.82578 0.03351 0.0
H817 H 0.28054 0.86036 0.1279 0.0
H818 H 0.22906 0.87652 0.08305 0.0
H819 H 0.20769 0.88635 0.0171 0.0
H820 H 0.2777 0.84773 0.92266 0.0
H821 H 0.32794 0.82814 0.96768 0.0
C822 C 0.32551 0.83651 0.04425 0.0
C823 C 0.3204 0.84249 0.08383 0.0
C824 C 0.29638 0.84566 0.01837 0.0
C825 C 0.28496 0.8556 0.0976 0.0
C826 C 0.25582 0.86515 0.07195 0.0
C827 C 0.23393 0.87354 0.00631 0.0
C828 C 0.23953 0.86924 0.96657 0.0
C829 C 0.26173 0.8613 0.0323 0.0
C830 C 0.27313 0.85178 0.95304 0.0
C831 C 0.30165 0.84054 0.97876 0.0
H832 H 0.36431 0.0371 0.24754 0.0
H833 H 0.45105 0.99717 0.32533 0.0
H834 H 0.47828 0.95672 0.27444 0.0
H835 H 0.47363 0.92924 0.20912 0.0
H836 H 0.38696 0.97066 0.1324 0.0
H837 H 0.36324 0.01424 0.18182 0.0
C838 C 0.38912 0.01949 0.2536 0.0
C839 C 0.40509 0.01948 0.29054 0.0
C840 C 0.40505 0.99736 0.2241 0.0
C841 C 0.43784 0.99721 0.29739 0.0
C842 C 0.45356 0.97437 0.2682 0.0
C843 C 0.451 0.9495 0.20263 0.0
C844 C 0.43286 0.94787 0.16674 0.0
C845 C 0.43724 0.97411 0.23149 0.0
C846 C 0.40233 0.97268 0.15916 0.0
C847 C 0.38842 0.99711 0.18766 0.0
H848 H 0.48029 0.21301 0.12052 0.0
H849 H 0.57051 0.28438 0.16595 0.0
H850 H 0.52293 0.33355 0.18282 0.0
H851 H 0.4559 0.35611 0.18335 0.0
H852 H 0.3652 0.28109 0.14551 0.0
H853 H 0.41294 0.2323 0.12789 0.0
C854 C 0.48965 0.23934 0.13411 0.0
C855 C 0.52901 0.24541 0.14142 0.0
C856 C 0.46205 0.26628 0.14542 0.0
C857 C 0.54051 0.27931 0.15966 0.0
C858 C 0.51331 0.30723 0.16941 0.0
C859 C 0.44662 0.32888 0.17153 0.0
C860 C 0.40724 0.32213 0.16525 0.0
C861 C 0.47406 0.30098 0.16232 0.0
C862 C 0.39534 0.28674 0.1505 0.0
C863 C 0.42263 0.25912 0.14021 0.0
H864 H 0.96213 0.17551 0.92468 0.0
H865 H 0.90186 0.26741 0.86855 0.0
H866 H 0.95546 0.31108 0.88256 0.0
H867 H 0.02146 0.32155 0.90659 0.0
H868 H 0.08216 0.22756 0.95866 0.0
H869 H 0.02603 0.18628 0.95048 0.0
C870 C 0.96034 0.20517 0.91552 0.0
C871 C 0.92772 0.21807 0.89549 0.0
C872 C 0.99154 0.22965 0.92278 0.0
C873 C 0.92647 0.25658 0.88382 0.0
C874 C 0.95722 0.2815 0.89176 0.0
C875 C 0.02224 0.29219 0.91672 0.0
C876 C 0.05615 0.27774 0.93342 0.0
C877 C 0.99016 0.26819 0.91072 0.0
C878 C 0.05662 0.23949 0.94589 0.0
C879 C 0.02454 0.21583 0.94101 0.0
H880 H 0.03714 0.77725 0.15282 0.0
H881 H 0.96261 0.68712 0.11238 0.0
H882 H 0.91787 0.73525 0.08784 0.0
H883 H 0.89938 0.80265 0.07987 0.0
H884 H 0.97511 0.89291 0.11745 0.0
H885 H 0.0206 0.84474 0.14098 0.0
C886 C 0.01092 0.76811 0.13893 0.0
C887 C 1.00265 0.72866 0.13515 0.0
C888 C 0.98604 0.79587 0.12408 0.0
C889 C 0.96925 0.71725 0.11605 0.0
C890 C 0.94384 0.74474 0.10193 0.0
C891 C 0.92612 0.81175 0.09287 0.0
C892 C 0.93395 0.85116 0.09729 0.0
C893 C 0.95192 0.78405 0.10598 0.0
C894 C 0.96873 0.86275 0.11359 0.0
C895 C 0.9945 0.83523 0.1272 0.0
H896 H 0.51507 0.68711 0.41031 0.0
H897 H 0.44809 0.77587 0.35676 0.0
H898 H 0.50294 0.8201 0.3622 0.0
H899 H 0.57161 0.83138 0.37707 0.0
H900 H 0.6387 0.73957 0.42502 0.0
H901 H 0.58178 0.6984 0.42648 0.0
C902 C 0.51195 0.71629 0.4001 0.0
C903 C 0.47708 0.72819 0.38343 0.0
C904 C 0.54388 0.74077 0.4018 0.0
C905 C 0.47434 0.76593 0.36982 0.0
C906 C 0.50582 0.7911 0.37269 0.0
C907 C 0.57362 0.80258 0.3885 0.0
C908 C 0.60941 0.78866 0.40134 0.0
C909 C 0.54096 0.77858 0.38799 0.0
C910 C 0.61162 0.75102 0.41521 0.0
C911 C 0.57909 0.72747 0.41591 0.0
H912 H 0.02741 0.72731 0.58739 0.0
H913 H 0.11503 0.80303 0.63091 0.0
H914 H 0.06543 0.85001 0.64843 0.0
H915 H 0.99685 0.86751 0.65393 0.0
H916 H 0.91002 0.78663 0.61875 0.0
H917 H 0.95995 0.74255 0.59649 0.0
C918 C 0.03591 0.75435 0.60017 0.0
C919 C 0.07497 0.76209 0.60717 0.0
C920 C 0.00731 0.77963 0.61242 0.0
C921 C 0.08524 0.79676 0.62473 0.0
C922 C 0.05688 0.82333 0.63503 0.0
C923 C 0.98896 0.84021 0.64131 0.0
C924 C 0.9499 0.83032 0.63753 0.0
C925 C 0.0178 0.81474 0.6295 0.0
C926 C 0.93988 0.7947 0.62191 0.0
C927 C 0.96837 0.76973 0.60895 0.0
H928 H 0.02821 0.32111 0.36253 0.0
H929 H 0.12865 0.26951 0.31167 0.0
H930 H 0.09289 0.21039 0.30036 0.0
H931 H 0.03418 0.17141 0.30892 0.0
H932 H 0.93311 0.22403 0.35758 0.0
H933 H 0.96775 0.28425 0.3652 0.0
C934 C 0.04216 0.29708 0.34864 0.0
C935 C 0.08119 0.29985 0.33825 0.0
C936 C 0.02128 0.26307 0.34178 0.0
C937 C 0.09865 0.26838 0.31998 0.0
C938 C 0.07824 0.23438 0.31357 0.0
C939 C 0.01954 0.19621 0.32058 0.0
C940 C 0.98102 0.19289 0.33265 0.0
C941 C 0.03967 0.23113 0.32487 0.0
C942 C 0.96262 0.22554 0.34772 0.0
C943 C 0.98252 0.2601 0.3524 0.0
H944 H 0.42408 0.69232 0.8785 0.0
H945 H 0.52054 0.62825 0.83462 0.0
H946 H 0.55891 0.68724 0.83213 0.0
H947 H 0.56548 0.75581 0.84427 0.0
H948 H 0.47112 0.81966 0.89296 0.0
H949 H 0.4312 0.76144 0.89191 0.0
C950 C 0.45335 0.69132 0.8678 0.0
C951 C 0.46929 0.65596 0.85602 0.0
C952 C 0.47549 0.72511 0.8676 0.0
C953 C 0.50755 0.65503 0.84342 0.0
C954 C 0.52944 0.68874 0.84211 0.0
C955 C 0.53598 0.7574 0.85423 0.0
C956 C 0.52111 0.79245 0.86811 0.0
C957 C 0.51374 0.72381 0.85432 0.0
C958 C 0.48317 0.79332 0.88179 0.0
C959 C 0.46042 0.76001 0.88121 0.0
H960 H 0.58428 0.96764 0.81848 0.0
H961 H 0.62228 0.90151 0.72103 0.0
H962 H 0.61697 0.95897 0.6806 0.0
H963 H 0.60333 0.02795 0.67412 0.0
H964 H 0.57083 0.09414 0.77341 0.0
H965 H 0.57202 0.03582 0.81248 0.0
C966 C 0.59083 0.9653 0.78822 0.0
C967 C 0.60289 0.92993 0.77256 0.0
C968 C 0.58872 0.99836 0.76578 0.0
C969 C 0.61248 0.92814 0.73363 0.0
C970 C 0.60949 0.96098 0.71065 0.0
C971 C 0.59578 0.02955 0.7042 0.0
C972 C 0.58609 0.06523 0.72082 0.0
C973 C 0.59774 0.99621 0.72654 0.0
C974 C 0.57781 0.06703 0.76 0.0
C975 C 0.57862 0.03375 0.78223 0.0
H976 H 0.21792 0.44098 0.96848 0.0
H977 H 0.14111 0.38858 0.05024 0.0
H978 H 0.18754 0.40013 0.10128 0.0
H979 H 0.25228 0.41704 0.12032 0.0
H980 H 0.33172 0.4669 0.03908 0.0
H981 H 0.28139 0.46537 0.99 0.0
C982 C 0.21092 0.43351 0.99782 0.0
C983 C 0.17589 0.4148 0.00606 0.0
C984 C 0.23849 0.43888 0.02662 0.0
C985 C 0.16749 0.40381 0.04367 0.0
C986 C 0.19424 0.40996 0.07261 0.0
C987 C 0.25893 0.4276 0.09188 0.0
C988 C 0.2962 0.44114 0.08314 0.0
C989 C 0.2303 0.42606 0.06403 0.0
C990 C 0.30359 0.45572 0.04641 0.0
C991 C 0.27485 0.45473 0.01839 0.0
H992 H 0.81198 0.03313 0.29643 0.0
H993 H 0.88751 0.10104 0.22542 0.0
H994 H 0.87659 0.05773 0.17181 0.0
H995 H 0.85321 0.99747 0.14832 0.0
H996 H 0.77838 0.92622 0.21706 0.0
H997 H 0.78084 0.9745 0.26858 0.0
C998 C 0.82472 0.03911 0.2687 0.0
C999 C 0.85003 0.0706 0.26445 0.0
C1000 C 0.81932 0.01307 0.23823 0.0
C1001 C 0.8675 0.07744 0.22897 0.0
C1002 C 0.86161 0.05241 0.19855 0.0
C1003 C 0.83729 0.99194 0.17449 0.0
C1004 C 0.81655 0.95737 0.17913 0.0
C1005 C 0.83894 0.01944 0.20344 0.0
C1006 C 0.79533 0.95198 0.21298 0.0
C1007 C 0.79661 0.97972 0.24229 0.0
H1008 H 0.23909 0.65302 0.55627 0.0
H1009 H 0.17268 0.64515 0.45278 0.0
H1010 H 0.23171 0.6348 0.41581 0.0
H1011 H 0.30178 0.62863 0.41299 0.0
H1012 H 0.36817 0.63172 0.51655 0.0
H1013 H 0.30911 0.64273 0.55385 0.0
C1014 C 0.23741 0.64915 0.5256 0.0
C1015 C 0.20135 0.65035 0.50726 0.0
C1016 C 0.27134 0.64204 0.50478 0.0
C1017 C 0.1999 0.64475 0.46756 0.0
C1018 C 0.23365 0.63868 0.44648 0.0
C1019 C 0.30338 0.63154 0.4438 0.0
C1020 C 0.33939 0.62976 0.46203 0.0
C1021 C 0.26943 0.6373 0.46482 0.0
C1022 C 0.34089 0.63293 0.50194 0.0
C1023 C 0.30715 0.63945 0.52313 0.0
H1024 H 0.71243 0.58417 0.01485 0.0
H1025 H 0.80542 0.63596 0.07774 0.0
H1026 H 0.84548 0.63503 0.0198 0.0
H1027 H 0.85231 0.62317 0.95072 0.0
H1028 H 0.75712 0.57635 0.88735 0.0
H1029 H 0.71947 0.57151 0.94654 0.0
C1030 C 0.74168 0.59478 0.01629 0.0
C1031 C 0.756 0.60983 0.05092 0.0
C1032 C 0.76396 0.59517 0.98274 0.0
C1033 C 0.79374 0.62401 0.0517 0.0
C1034 C 0.81656 0.62357 0.01852 0.0
C1035 C 0.82354 0.61123 0.94988 0.0
C1036 C 0.80767 0.59963 0.91461 0.0
C1037 C 0.80175 0.60968 0.9838 0.0
C1038 C 0.77006 0.5852 0.91402 0.0
C1039 C 0.74855 0.58254 0.94785 0.0
H1040 H 0.63986 0.43007 0.29043 0.0
H1041 H 0.68496 0.5255 0.35479 0.0
H1042 H 0.69324 0.56203 0.29526 0.0
H1043 H 0.68748 0.56636 0.22601 0.0
H1044 H 0.63611 0.47372 0.16203 0.0
H1045 H 0.63127 0.43565 0.22096 0.0
C1046 C 0.65183 0.45881 0.29144 0.0
C1047 C 0.66253 0.47496 0.32686 0.0
C1048 C 0.65571 0.47964 0.25738 0.0
C1049 C 0.67681 0.51251 0.3279 0.0
C1050 C 0.68166 0.53319 0.2939 0.0
C1051 C 0.67576 0.53755 0.22454 0.0
C1052 C 0.66281 0.52257 0.1893 0.0
C1053 C 0.67141 0.51687 0.25857 0.0
C1054 C 0.64672 0.48568 0.18852 0.0
C1055 C 0.64373 0.46413 0.22224 0.0
H1056 H 0.86244 0.33609 0.51797 0.0
H1057 H 0.7839 0.36838 0.60814 0.0
H1058 H 0.73252 0.376 0.5614 0.0
H1059 H 0.71106 0.37626 0.49549 0.0
H1060 H 0.78585 0.33772 0.40478 0.0
H1061 H 0.8382 0.32986 0.4513 0.0
C1062 C 0.83404 0.34491 0.52724 0.0
C1063 C 0.82698 0.35245 0.56633 0.0
C1064 C 0.80436 0.34816 0.50026 0.0
C1065 C 0.78997 0.36277 0.57825 0.0
C1066 C 0.7607 0.36716 0.55155 0.0
C1067 C 0.73872 0.3658 0.48574 0.0
C1068 C 0.74478 0.35797 0.44665 0.0
C1069 C 0.76775 0.36033 0.51258 0.0
C1070 C 0.7806 0.34405 0.43466 0.0
C1071 C 0.81041 0.33969 0.46125 0.0
H1072 H 0.95688 0.57047 0.74415 0.0
H1073 H 0.91361 0.49625 0.83299 0.0
H1074 H 0.91707 0.4413 0.78949 0.0
H1075 H 0.92594 0.41607 0.7249 0.0
H1076 H 0.96963 0.48913 0.63503 0.0
H1077 H 0.97368 0.54268 0.68059 0.0
C1078 C 0.94956 0.54194 0.75424 0.0
C1079 C 0.93583 0.53705 0.79197 0.0
C1080 C 0.95089 0.51064 0.72869 0.0
C1081 C 0.92516 0.50036 0.80446 0.0
C1082 C 0.92665 0.46913 0.7794 0.0
C1083 C 0.93611 0.4438 0.71499 0.0
C1084 C 0.9464 0.44884 0.67618 0.0
C1085 C 0.93827 0.47423 0.74118 0.0
C1086 C 0.96083 0.48461 0.66443 0.0
C1087 C 0.96298 0.51525 0.69046 0.0
H1088 H 0.54508 0.23986 0.62025 0.0
H1089 H 0.4686 0.15233 0.57822 0.0
H1090 H 0.41869 0.2011 0.56796 0.0
H1091 H 0.39655 0.26835 0.57444 0.0
H1092 H 0.4755 0.35535 0.61326 0.0
H1093 H 0.52513 0.3066 0.62196 0.0
C1094 C 0.51744 0.23138 0.60887 0.0
C1095 C 0.51005 0.19256 0.6007 0.0
C1096 C 0.48965 0.25939 0.60263 0.0
C1097 C 0.47465 0.18203 0.58497 0.0
C1098 C 0.44626 0.20986 0.57924 0.0
C1099 C 0.42481 0.27654 0.58449 0.0
C1100 C 0.43252 0.31515 0.59368 0.0
C1101 C 0.45336 0.24855 0.58848 0.0
C1102 C 0.46918 0.32581 0.60601 0.0
C1103 C 0.49743 0.29801 0.61095 0.0
loop_
_geom_bond_atom_site_label_1
_geom_bond_atom_site_label_2
_geom_bond_distance
_geom_bond_site_symmetry_2
_ccdc_geom_bond_type
C0 O2 1.247 . S
C0 O4 1.258 . S
C1 O8 1.247 . S
C1 O9 1.258 . S
O2 C0 1.247 . S
O2 Zn3 2.028 . S
Zn3 O2 2.028 . S
Zn3 O7 2.035 . S
Zn3 O9 2.035 . S
Zn3 O10 2.028 . S
O4 C0 1.258 . S
O4 Zn5 2.035 . S
Zn5 O4 2.035 . S
Zn5 O6 2.028 . S
Zn5 O8 2.028 . S
Zn5 O11 2.035 . S
O6 Zn5 2.028 . S
O6 C12 1.247 . S
O7 Zn3 2.035 . S
O7 C12 1.258 . S
O8 C1 1.247 . S
O8 Zn5 2.028 . S
O9 C1 1.258 . S
O9 Zn3 2.035 . S
O10 Zn3 2.028 . S
O10 C13 1.247 . S
O11 Zn5 2.035 . S
O11 C13 1.258 . S
C12 O6 1.247 . S
C12 O7 1.258 . S
C13 O10 1.247 . S
C13 O11 1.258 . S
C14 O16 1.247 . S
C14 O18 1.258 . S
C15 O22 1.247 . S
C15 O23 1.258 . S
O16 C14 1.247 . S
O16 Zn17 2.028 . S
Zn17 O16 2.028 . S
Zn17 O21 2.035 . S
Zn17 O23 2.035 . S
Zn17 O24 2.028 . S
O18 C14 1.258 . S
O18 Zn19 2.035 . S
Zn19 O18 2.035 . S
Zn19 O20 2.028 . S
Zn19 O22 2.028 . S
Zn19 O25 2.035 . S
O20 Zn19 2.028 . S
O20 C26 1.247 . S
O21 Zn17 2.035 . S
O21 C26 1.258 . S
O22 C15 1.247 . S
O22 Zn19 2.028 . S
O23 C15 1.258 . S
O23 Zn17 2.035 . S
O24 Zn17 2.028 . S
O24 C27 1.247 . S
O25 Zn19 2.035 . S
O25 C27 1.258 . S
C26 O20 1.247 . S
C26 O21 1.258 . S
C27 O24 1.247 . S
C27 O25 1.258 . S
C28 O30 1.247 . S
C28 O32 1.258 . S
C29 O36 1.247 . S
C29 O37 1.258 . S
O30 C28 1.247 . S
O30 Zn31 2.028 . S
Zn31 O30 2.028 . S
Zn31 O35 2.035 . S
Zn31 O37 2.035 . S
Zn31 O38 2.028 . S
O32 C28 1.258 . S
O32 Zn33 2.035 . S
Zn33 O32 2.035 . S
Zn33 O34 2.028 . S
Zn33 O36 2.028 . S
Zn33 O39 2.035 . S
O34 Zn33 2.028 . S
O34 C40 1.247 . S
O35 Zn31 2.035 . S
O35 C40 1.258 . S
O36 C29 1.247 . S
O36 Zn33 2.028 . S
O37 C29 1.258 . S
O37 Zn31 2.035 . S
O38 Zn31 2.028 . S
O38 C41 1.247 . S
O39 Zn33 2.035 . S
O39 C41 1.258 . S
C40 O34 1.247 . S
C40 O35 1.258 . S
C41 O38 1.247 . S
C41 O39 1.258 . S
C42 O44 1.247 . S
C42 O46 1.258 . S
C43 O50 1.247 . S
C43 O51 1.258 . S
O44 C42 1.247 . S
O44 Zn45 2.028 . S
Zn45 O44 2.028 . S
Zn45 O49 2.035 . S
Zn45 O51 2.035 . S
Zn45 O52 2.028 . S
O46 C42 1.258 . S
O46 Zn47 2.035 . S
Zn47 O46 2.035 . S
Zn47 O48 2.028 . S
Zn47 O50 2.028 . S
Zn47 O53 2.035 . S
O48 Zn47 2.028 . S
O48 C54 1.247 . S
O49 Zn45 2.035 . S
O49 C54 1.258 . S
O50 C43 1.247 . S
O50 Zn47 2.028 . S
O51 C43 1.258 . S
O51 Zn45 2.035 . S
O52 Zn45 2.028 . S
O52 C55 1.247 . S
O53 Zn47 2.035 . S
O53 C55 1.258 . S
C54 O48 1.247 . S
C54 O49 1.258 . S
C55 O52 1.247 . S
C55 O53 1.258 . S
C56 O58 1.247 . S
C56 O60 1.258 . S
C57 O64 1.247 . S
C57 O65 1.258 . S
O58 C56 1.247 . S
O58 Zn59 2.028 . S
Zn59 O58 2.028 . S
Zn59 O63 2.035 . S
Zn59 O65 2.035 . S
Zn59 O66 2.028 . S
O60 C56 1.258 . S
O60 Zn61 2.035 . S
Zn61 O60 2.035 . S
Zn61 O62 2.028 . S
Zn61 O64 2.028 . S
Zn61 O67 2.035 . S
O62 Zn61 2.028 . S
O62 C68 1.247 . S
O63 Zn59 2.035 . S
O63 C68 1.258 . S
O64 C57 1.247 . S
O64 Zn61 2.028 . S
O65 C57 1.258 . S
O65 Zn59 2.035 . S
O66 Zn59 2.028 . S
O66 C69 1.247 . S
O67 Zn61 2.035 . S
O67 C69 1.258 . S
C68 O62 1.247 . S
C68 O63 1.258 . S
C69 O66 1.247 . S
C69 O67 1.258 . S
C70 O72 1.247 . S
C70 O74 1.258 . S
C71 O78 1.247 . S
C71 O79 1.258 . S
O72 C70 1.247 . S
O72 Zn73 2.028 . S
Zn73 O72 2.028 . S
Zn73 O77 2.035 . S
Zn73 O79 2.035 . S
Zn73 O80 2.028 . S
O74 C70 1.258 . S
O74 Zn75 2.035 . S
Zn75 O74 2.035 . S
Zn75 O76 2.028 . S
Zn75 O78 2.028 . S
Zn75 O81 2.035 . S
O76 Zn75 2.028 . S
O76 C82 1.247 . S
O77 Zn73 2.035 . S
O77 C82 1.258 . S
O78 C71 1.247 . S
O78 Zn75 2.028 . S
O79 C71 1.258 . S
O79 Zn73 2.035 . S
O80 Zn73 2.028 . S
O80 C83 1.247 . S
O81 Zn75 2.035 . S
O81 C83 1.258 . S
C82 O76 1.247 . S
C82 O77 1.258 . S
C83 O80 1.247 . S
C83 O81 1.258 . S
C84 O86 1.247 . S
C84 O88 1.258 . S
C85 O92 1.247 . S
C85 O93 1.258 . S
O86 C84 1.247 . S
O86 Zn87 2.028 . S
Zn87 O86 2.028 . S
Zn87 O91 2.035 . S
Zn87 O93 2.035 . S
Zn87 O94 2.028 . S
O88 C84 1.258 . S
O88 Zn89 2.035 . S
Zn89 O88 2.035 . S
Zn89 O90 2.028 . S
Zn89 O92 2.028 . S
Zn89 O95 2.035 . S
O90 Zn89 2.028 . S
O90 C96 1.247 . S
O91 Zn87 2.035 . S
O91 C96 1.258 . S
O92 C85 1.247 . S
O92 Zn89 2.028 . S
O93 C85 1.258 . S
O93 Zn87 2.035 . S
O94 Zn87 2.028 . S
O94 C97 1.247 . S
O95 Zn89 2.035 . S
O95 C97 1.258 . S
C96 O90 1.247 . S
C96 O91 1.258 . S
C97 O94 1.247 . S
C97 O95 1.258 . S
C98 O100 1.247 . S
C98 O102 1.258 . S
C99 O106 1.247 . S
C99 O107 1.258 . S
O100 C98 1.247 . S
O100 Zn101 2.028 . S
Zn101 O100 2.028 . S
Zn101 O105 2.035 . S
Zn101 O107 2.035 . S
Zn101 O108 2.028 . S
O102 C98 1.258 . S
O102 Zn103 2.035 . S
Zn103 O102 2.035 . S
Zn103 O104 2.028 . S
Zn103 O106 2.028 . S
Zn103 O109 2.035 . S
O104 Zn103 2.028 . S
O104 C110 1.247 . S
O105 Zn101 2.035 . S
O105 C110 1.258 . S
O106 C99 1.247 . S
O106 Zn103 2.028 . S
O107 C99 1.258 . S
O107 Zn101 2.035 . S
O108 Zn101 2.028 . S
O108 C111 1.247 . S
O109 Zn103 2.035 . S
O109 C111 1.258 . S
C110 O104 1.247 . S
C110 O105 1.258 . S
C111 O108 1.247 . S
C111 O109 1.258 . S
C112 O114 1.247 . S
C112 O116 1.258 . S
C113 O120 1.247 . S
C113 O121 1.258 . S
O114 C112 1.247 . S
O114 Zn115 2.028 . S
Zn115 O114 2.028 . S
Zn115 O119 2.035 . S
Zn115 O121 2.035 . S
Zn115 O122 2.028 . S
O116 C112 1.258 . S
O116 Zn117 2.035 . S
Zn117 O116 2.035 . S
Zn117 O118 2.028 . S
Zn117 O120 2.028 . S
Zn117 O123 2.035 . S
O118 Zn117 2.028 . S
O118 C124 1.247 . S
O119 Zn115 2.035 . S
O119 C124 1.258 . S
O120 C113 1.247 . S
O120 Zn117 2.028 . S
O121 C113 1.258 . S
O121 Zn115 2.035 . S
O122 Zn115 2.028 . S
O122 C125 1.247 . S
O123 Zn117 2.035 . S
O123 C125 1.258 . S
C124 O118 1.247 . S
C124 O119 1.258 . S
C125 O122 1.247 . S
C125 O123 1.258 . S
C126 O128 1.247 . S
C126 O130 1.258 . S
C127 O134 1.247 . S
C127 O135 1.258 . S
O128 C126 1.247 . S
O128 Zn129 2.028 . S
Zn129 O128 2.028 . S
Zn129 O133 2.035 . S
Zn129 O135 2.035 . S
Zn129 O136 2.028 . S
O130 C126 1.258 . S
O130 Zn131 2.035 . S
Zn131 O130 2.035 . S
Zn131 O132 2.028 . S
Zn131 O134 2.028 . S
Zn131 O137 2.035 . S
O132 Zn131 2.028 . S
O132 C138 1.247 . S
O133 Zn129 2.035 . S
O133 C138 1.258 . S
O134 C127 1.247 . S
O134 Zn131 2.028 . S
O135 C127 1.258 . S
O135 Zn129 2.035 . S
O136 Zn129 2.028 . S
O136 C139 1.247 . S
O137 Zn131 2.035 . S
O137 C139 1.258 . S
C138 O132 1.247 . S
C138 O133 1.258 . S
C139 O136 1.247 . S
C139 O137 1.258 . S
C140 O142 1.247 . S
C140 O144 1.258 . S
C141 O148 1.247 . S
C141 O149 1.258 . S
O142 C140 1.247 . S
O142 Zn143 2.028 . S
Zn143 O142 2.028 . S
Zn143 O147 2.035 . S
Zn143 O149 2.035 . S
Zn143 O150 2.028 . S
O144 C140 1.258 . S
O144 Zn145 2.035 . S
Zn145 O144 2.035 . S
Zn145 O146 2.028 . S
Zn145 O148 2.028 . S
Zn145 O151 2.035 . S
O146 Zn145 2.028 . S
O146 C152 1.247 . S
O147 Zn143 2.035 . S
O147 C152 1.258 . S
O148 C141 1.247 . S
O148 Zn145 2.028 . S
O149 C141 1.258 . S
O149 Zn143 2.035 . S
O150 Zn143 2.028 . S
O150 C153 1.247 . S
O151 Zn145 2.035 . S
O151 C153 1.258 . S
C152 O146 1.247 . S
C152 O147 1.258 . S
C153 O150 1.247 . S
C153 O151 1.258 . S
C154 O156 1.247 . S
C154 O158 1.258 . S
C155 O162 1.247 . S
C155 O163 1.258 . S
O156 C154 1.247 . S
O156 Zn157 2.028 . S
Zn157 O156 2.028 . S
Zn157 O161 2.035 . S
Zn157 O163 2.035 . S
Zn157 O164 2.028 . S
O158 C154 1.258 . S
O158 Zn159 2.035 . S
Zn159 O158 2.035 . S
Zn159 O160 2.028 . S
Zn159 O162 2.028 . S
Zn159 O165 2.035 . S
O160 Zn159 2.028 . S
O160 C166 1.247 . S
O161 Zn157 2.035 . S
O161 C166 1.258 . S
O162 C155 1.247 . S
O162 Zn159 2.028 . S
O163 C155 1.258 . S
O163 Zn157 2.035 . S
O164 Zn157 2.028 . S
O164 C167 1.247 . S
O165 Zn159 2.035 . S
O165 C167 1.258 . S
C166 O160 1.247 . S
C166 O161 1.258 . S
C167 O164 1.247 . S
C167 O165 1.258 . S
C168 O170 1.247 . S
C168 O172 1.258 . S
C169 O176 1.247 . S
C169 O177 1.258 . S
O170 C168 1.247 . S
O170 Zn171 2.028 . S
Zn171 O170 2.028 . S
Zn171 O175 2.035 . S
Zn171 O177 2.035 . S
Zn171 O178 2.028 . S
O172 C168 1.258 . S
O172 Zn173 2.035 . S
Zn173 O172 2.035 . S
Zn173 O174 2.028 . S
Zn173 O176 2.028 . S
Zn173 O179 2.035 . S
O174 Zn173 2.028 . S
O174 C180 1.247 . S
O175 Zn171 2.035 . S
O175 C180 1.258 . S
O176 C169 1.247 . S
O176 Zn173 2.028 . S
O177 C169 1.258 . S
O177 Zn171 2.035 . S
O178 Zn171 2.028 . S
O178 C181 1.247 . S
O179 Zn173 2.035 . S
O179 C181 1.258 . S
C180 O174 1.247 . S
C180 O175 1.258 . S
C181 O178 1.247 . S
C181 O179 1.258 . S
C182 O184 1.247 . S
C182 O186 1.258 . S
C183 O190 1.247 . S
C183 O191 1.258 . S
O184 C182 1.247 . S
O184 Zn185 2.028 . S
Zn185 O184 2.028 . S
Zn185 O189 2.035 . S
Zn185 O191 2.035 . S
Zn185 O192 2.028 . S
O186 C182 1.258 . S
O186 Zn187 2.035 . S
Zn187 O186 2.035 . S
Zn187 O188 2.028 . S
Zn187 O190 2.028 . S
Zn187 O193 2.035 . S
O188 Zn187 2.028 . S
O188 C194 1.247 . S
O189 Zn185 2.035 . S
O189 C194 1.258 . S
O190 C183 1.247 . S
O190 Zn187 2.028 . S
O191 C183 1.258 . S
O191 Zn185 2.035 . S
O192 Zn185 2.028 . S
O192 C195 1.247 . S
O193 Zn187 2.035 . S
O193 C195 1.258 . S
C194 O188 1.247 . S
C194 O189 1.258 . S
C195 O192 1.247 . S
C195 O193 1.258 . S
C196 O198 1.247 . S
C196 O200 1.258 . S
C197 O204 1.247 . S
C197 O205 1.258 . S
O198 C196 1.247 . S
O198 Zn199 2.028 . S
Zn199 O198 2.028 . S
Zn199 O203 2.035 . S
Zn199 O205 2.035 . S
Zn199 O206 2.028 . S
O200 C196 1.258 . S
O200 Zn201 2.035 . S
Zn201 O200 2.035 . S
Zn201 O202 2.028 . S
Zn201 O204 2.028 . S
Zn201 O207 2.035 . S
O202 Zn201 2.028 . S
O202 C208 1.247 . S
O203 Zn199 2.035 . S
O203 C208 1.258 . S
O204 C197 1.247 . S
O204 Zn201 2.028 . S
O205 C197 1.258 . S
O205 Zn199 2.035 . S
O206 Zn199 2.028 . S
O206 C209 1.247 . S
O207 Zn201 2.035 . S
O207 C209 1.258 . S
C208 O202 1.247 . S
C208 O203 1.258 . S
C209 O206 1.247 . S
C209 O207 1.258 . S
C210 O212 1.247 . S
C210 O214 1.258 . S
C211 O218 1.247 . S
C211 O219 1.258 . S
O212 C210 1.247 . S
O212 Zn213 2.028 . S
Zn213 O212 2.028 . S
Zn213 O217 2.035 . S
Zn213 O219 2.035 . S
Zn213 O220 2.028 . S
O214 C210 1.258 . S
O214 Zn215 2.035 . S
Zn215 O214 2.035 . S
Zn215 O216 2.028 . S
Zn215 O218 2.028 . S
Zn215 O221 2.035 . S
O216 Zn215 2.028 . S
O216 C222 1.247 . S
O217 Zn213 2.035 . S
O217 C222 1.258 . S
O218 C211 1.247 . S
O218 Zn215 2.028 . S
O219 C211 1.258 . S
O219 Zn213 2.035 . S
O220 Zn213 2.028 . S
O220 C223 1.247 . S
O221 Zn215 2.035 . S
O221 C223 1.258 . S
C222 O216 1.247 . S
C222 O217 1.258 . S
C223 O220 1.247 . S
C223 O221 1.258 . S
C224 O226 1.247 . S
C224 O228 1.258 . S
C225 O232 1.247 . S
C225 O233 1.258 . S
O226 C224 1.247 . S
O226 Zn227 2.028 . S
Zn227 O226 2.028 . S
Zn227 O231 2.035 . S
Zn227 O233 2.035 . S
Zn227 O234 2.028 . S
O228 C224 1.258 . S
O228 Zn229 2.035 . S
Zn229 O228 2.035 . S
Zn229 O230 2.028 . S
Zn229 O232 2.028 . S
Zn229 O235 2.035 . S
O230 Zn229 2.028 . S
O230 C236 1.247 . S
O231 Zn227 2.035 . S
O231 C236 1.258 . S
O232 C225 1.247 . S
O232 Zn229 2.028 . S
O233 C225 1.258 . S
O233 Zn227 2.035 . S
O234 Zn227 2.028 . S
O234 C237 1.247 . S
O235 Zn229 2.035 . S
O235 C237 1.258 . S
C236 O230 1.247 . S
C236 O231 1.258 . S
C237 O234 1.247 . S
C237 O235 1.258 . S
C238 O240 1.247 . S
C238 O242 1.258 . S
C239 O246 1.247 . S
C239 O247 1.258 . S
O240 C238 1.247 . S
O240 Zn241 2.028 . S
Zn241 O240 2.028 . S
Zn241 O245 2.035 . S
Zn241 O247 2.035 . S
Zn241 O248 2.028 . S
O242 C238 1.258 . S
O242 Zn243 2.035 . S
Zn243 O242 2.035 . S
Zn243 O244 2.028 . S
Zn243 O246 2.028 . S
Zn243 O249 2.035 . S
O244 Zn243 2.028 . S
O244 C250 1.247 . S
O245 Zn241 2.035 . S
O245 C250 1.258 . S
O246 C239 1.247 . S
O246 Zn243 2.028 . S
O247 C239 1.258 . S
O247 Zn241 2.035 . S
O248 Zn241 2.028 . S
O248 C251 1.247 . S
O249 Zn243 2.035 . S
O249 C251 1.258 . S
C250 O244 1.247 . S
C250 O245 1.258 . S
C251 O248 1.247 . S
C251 O249 1.258 . S
C252 O254 1.247 . S
C252 O256 1.258 . S
C253 O260 1.247 . S
C253 O261 1.258 . S
O254 C252 1.247 . S
O254 Zn255 2.028 . S
Zn255 O254 2.028 . S
Zn255 O259 2.035 . S
Zn255 O261 2.035 . S
Zn255 O262 2.028 . S
O256 C252 1.258 . S
O256 Zn257 2.035 . S
Zn257 O256 2.035 . S
Zn257 O258 2.028 . S
Zn257 O260 2.028 . S
Zn257 O263 2.035 . S
O258 Zn257 2.028 . S
O258 C264 1.247 . S
O259 Zn255 2.035 . S
O259 C264 1.258 . S
O260 C253 1.247 . S
O260 Zn257 2.028 . S
O261 C253 1.258 . S
O261 Zn255 2.035 . S
O262 Zn255 2.028 . S
O262 C265 1.247 . S
O263 Zn257 2.035 . S
O263 C265 1.258 . S
C264 O258 1.247 . S
C264 O259 1.258 . S
C265 O262 1.247 . S
C265 O263 1.258 . S
C266 O268 1.247 . S
C266 O270 1.258 . S
C267 O274 1.247 . S
C267 O275 1.258 . S
O268 C266 1.247 . S
O268 Zn269 2.028 . S
Zn269 O268 2.028 . S
Zn269 O273 2.035 . S
Zn269 O275 2.035 . S
Zn269 O276 2.028 . S
O270 C266 1.258 . S
O270 Zn271 2.035 . S
Zn271 O270 2.035 . S
Zn271 O272 2.028 . S
Zn271 O274 2.028 . S
Zn271 O277 2.035 . S
O272 Zn271 2.028 . S
O272 C278 1.247 . S
O273 Zn269 2.035 . S
O273 C278 1.258 . S
O274 C267 1.247 . S
O274 Zn271 2.028 . S
O275 C267 1.258 . S
O275 Zn269 2.035 . S
O276 Zn269 2.028 . S
O276 C279 1.247 . S
O277 Zn271 2.035 . S
O277 C279 1.258 . S
C278 O272 1.247 . S
C278 O273 1.258 . S
C279 O276 1.247 . S
C279 O277 1.258 . S
C280 O282 1.247 . S
C280 O284 1.258 . S
C281 O288 1.247 . S
C281 O289 1.258 . S
O282 C280 1.247 . S
O282 Zn283 2.028 . S
Zn283 O282 2.028 . S
Zn283 O287 2.035 . S
Zn283 O289 2.035 . S
Zn283 O290 2.028 . S
O284 C280 1.258 . S
O284 Zn285 2.035 . S
Zn285 O284 2.035 . S
Zn285 O286 2.028 . S
Zn285 O288 2.028 . S
Zn285 O291 2.035 . S
O286 Zn285 2.028 . S
O286 C292 1.247 . S
O287 Zn283 2.035 . S
O287 C292 1.258 . S
O288 C281 1.247 . S
O288 Zn285 2.028 . S
O289 C281 1.258 . S
O289 Zn283 2.035 . S
O290 Zn283 2.028 . S
O290 C293 1.247 . S
O291 Zn285 2.035 . S
O291 C293 1.258 . S
C292 O286 1.247 . S
C292 O287 1.258 . S
C293 O290 1.247 . S
C293 O291 1.258 . S
C294 O296 1.247 . S
C294 O298 1.258 . S
C295 O302 1.247 . S
C295 O303 1.258 . S
O296 C294 1.247 . S
O296 Zn297 2.028 . S
Zn297 O296 2.028 . S
Zn297 O301 2.035 . S
Zn297 O303 2.035 . S
Zn297 O304 2.028 . S
O298 C294 1.258 . S
O298 Zn299 2.035 . S
Zn299 O298 2.035 . S
Zn299 O300 2.028 . S
Zn299 O302 2.028 . S
Zn299 O305 2.035 . S
O300 Zn299 2.028 . S
O300 C306 1.247 . S
O301 Zn297 2.035 . S
O301 C306 1.258 . S
O302 C295 1.247 . S
O302 Zn299 2.028 . S
O303 C295 1.258 . S
O303 Zn297 2.035 . S
O304 Zn297 2.028 . S
O304 C307 1.247 . S
O305 Zn299 2.035 . S
O305 C307 1.258 . S
C306 O300 1.247 . S
C306 O301 1.258 . S
C307 O304 1.247 . S
C307 O305 1.258 . S
C308 O310 1.247 . S
C308 O312 1.258 . S
C309 O316 1.247 . S
C309 O317 1.258 . S
O310 C308 1.247 . S
O310 Zn311 2.028 . S
Zn311 O310 2.028 . S
Zn311 O315 2.035 . S
Zn311 O317 2.035 . S
Zn311 O318 2.028 . S
O312 C308 1.258 . S
O312 Zn313 2.035 . S
Zn313 O312 2.035 . S
Zn313 O314 2.028 . S
Zn313 O316 2.028 . S
Zn313 O319 2.035 . S
O314 Zn313 2.028 . S
O314 C320 1.247 . S
O315 Zn311 2.035 . S
O315 C320 1.258 . S
O316 C309 1.247 . S
O316 Zn313 2.028 . S
O317 C309 1.258 . S
O317 Zn311 2.035 . S
O318 Zn311 2.028 . S
O318 C321 1.247 . S
O319 Zn313 2.035 . S
O319 C321 1.258 . S
C320 O314 1.247 . S
C320 O315 1.258 . S
C321 O318 1.247 . S
C321 O319 1.258 . S
C322 O324 1.247 . S
C322 O326 1.258 . S
C323 O330 1.247 . S
C323 O331 1.258 . S
O324 C322 1.247 . S
O324 Zn325 2.028 . S
Zn325 O324 2.028 . S
Zn325 O329 2.035 . S
Zn325 O331 2.035 . S
Zn325 O332 2.028 . S
O326 C322 1.258 . S
O326 Zn327 2.035 . S
Zn327 O326 2.035 . S
Zn327 O328 2.028 . S
Zn327 O330 2.028 . S
Zn327 O333 2.035 . S
O328 Zn327 2.028 . S
O328 C334 1.247 . S
O329 Zn325 2.035 . S
O329 C334 1.258 . S
O330 C323 1.247 . S
O330 Zn327 2.028 . S
O331 C323 1.258 . S
O331 Zn325 2.035 . S
O332 Zn325 2.028 . S
O332 C335 1.247 . S
O333 Zn327 2.035 . S
O333 C335 1.258 . S
C334 O328 1.247 . S
C334 O329 1.258 . S
C335 O332 1.247 . S
C335 O333 1.258 . S
H336 C342 0.930 . S
H337 C345 0.930 . S
H338 C346 0.930 . S
H339 C347 0.930 . S
H340 C350 0.930 . S
H341 C351 0.930 . S
C342 H336 0.930 . S
C342 C343 1.355 . S
C342 C344 1.415 . S
C343 C342 1.355 . S
C343 C345 1.419 . S
C344 C342 1.415 . S
C344 C349 1.425 . S
C344 C351 1.409 . S
C345 H337 0.930 . S
C345 C343 1.419 . S
C345 C346 1.362 . S
C346 H338 0.930 . S
C346 C345 1.362 . S
C346 C349 1.409 . S
C347 H339 0.930 . S
C347 C348 1.355 . S
C347 C349 1.415 . S
C348 C347 1.355 . S
C348 C350 1.419 . S
C349 C344 1.425 . S
C349 C346 1.409 . S
C349 C347 1.415 . S
C350 H340 0.930 . S
C350 C348 1.419 . S
C350 C351 1.362 . S
C351 H341 0.930 . S
C351 C344 1.409 . S
C351 C350 1.362 . S
H352 C358 0.930 . S
H353 C361 0.930 . S
H354 C362 0.930 . S
H355 C363 0.930 . S
H356 C366 0.930 . S
H357 C367 0.930 . S
C358 H352 0.930 . S
C358 C359 1.355 . S
C358 C360 1.415 . S
C359 C358 1.355 . S
C359 C361 1.419 . S
C360 C358 1.415 . S
C360 C365 1.425 1_655 S
C360 C367 1.409 . S
C361 H353 0.930 . S
C361 C359 1.419 . S
C361 C362 1.362 1_655 S
C362 H354 0.930 . S
C362 C361 1.362 1_455 S
C362 C365 1.409 . S
C363 H355 0.930 . S
C363 C364 1.355 . S
C363 C365 1.415 . S
C364 C363 1.355 . S
C364 C366 1.419 . S
C365 C360 1.425 1_455 S
C365 C362 1.409 . S
C365 C363 1.415 . S
C366 H356 0.930 . S
C366 C364 1.419 . S
C366 C367 1.362 1_455 S
C367 H357 0.930 . S
C367 C360 1.409 . S
C367 C366 1.362 1_655 S
H368 C374 0.930 . S
H369 C377 0.930 . S
H370 C378 0.930 . S
H371 C379 0.930 . S
H372 C382 0.930 . S
H373 C383 0.930 . S
C374 H368 0.930 . S
C374 C375 1.355 . S
C374 C376 1.415 . S
C375 C374 1.355 . S
C375 C377 1.419 . S
C376 C374 1.415 . S
C376 C381 1.425 1_554 S
C376 C383 1.409 1_554 S
C377 H369 0.930 . S
C377 C375 1.419 . S
C377 C378 1.362 . S
C378 H370 0.930 . S
C378 C377 1.362 . S
C378 C381 1.409 1_554 S
C379 H371 0.930 . S
C379 C380 1.355 . S
C379 C381 1.415 . S
C380 C379 1.355 . S
C380 C382 1.419 . S
C381 C376 1.425 1_556 S
C381 C378 1.409 1_556 S
C381 C379 1.415 . S
C382 H372 0.930 . S
C382 C380 1.419 . S
C382 C383 1.362 . S
C383 H373 0.930 . S
C383 C376 1.409 1_556 S
C383 C382 1.362 . S
H384 C390 0.930 . S
H385 C393 0.930 . S
H386 C394 0.930 . S
H387 C395 0.930 . S
H388 C398 0.930 . S
H389 C399 0.930 . S
C390 H384 0.930 . S
C390 C391 1.355 . S
C390 C392 1.415 . S
C391 C390 1.355 . S
C391 C393 1.419 . S
C392 C390 1.415 . S
C392 C397 1.425 . S
C392 C399 1.409 . S
C393 H385 0.930 . S
C393 C391 1.419 . S
C393 C394 1.362 . S
C394 H386 0.930 . S
C394 C393 1.362 . S
C394 C397 1.409 . S
C395 H387 0.930 . S
C395 C396 1.355 . S
C395 C397 1.415 . S
C396 C395 1.355 . S
C396 C398 1.419 . S
C397 C392 1.425 . S
C397 C394 1.409 . S
C397 C395 1.415 . S
C398 H388 0.930 . S
C398 C396 1.419 . S
C398 C399 1.362 . S
C399 H389 0.930 . S
C399 C392 1.409 . S
C399 C398 1.362 . S
H400 C406 0.930 . S
H401 C409 0.930 . S
H402 C410 0.929 . S
H403 C411 0.930 . S
H404 C414 0.930 . S
H405 C415 0.930 . S
C406 H400 0.930 . S
C406 C407 1.355 . S
C406 C408 1.415 . S
C407 C406 1.355 . S
C407 C409 1.419 . S
C408 C406 1.415 . S
C408 C413 1.425 1_556 S
C408 C415 1.409 . S
C409 H401 0.930 . S
C409 C407 1.419 . S
C409 C410 1.364 1_556 S
C410 H402 0.929 . S
C410 C409 1.364 1_554 S
C410 C413 1.409 . S
C411 H403 0.930 . S
C411 C412 1.355 . S
C411 C413 1.415 . S
C412 C411 1.355 . S
C412 C414 1.419 . S
C413 C408 1.425 1_554 S
C413 C410 1.409 . S
C413 C411 1.415 . S
C414 H404 0.930 . S
C414 C412 1.419 . S
C414 C415 1.362 1_554 S
C415 H405 0.930 . S
C415 C408 1.409 . S
C415 C414 1.362 1_556 S
H416 C422 0.930 . S
H417 C425 0.930 . S
H418 C426 0.930 . S
H419 C427 0.930 . S
H420 C430 0.930 . S
H421 C431 0.930 . S
C422 H416 0.930 . S
C422 C423 1.355 . S
C422 C424 1.415 . S
C423 C422 1.355 . S
C423 C425 1.419 . S
C424 C422 1.415 . S
C424 C429 1.425 . S
C424 C431 1.409 . S
C425 H417 0.930 . S
C425 C423 1.419 . S
C425 C426 1.362 . S
C426 H418 0.930 . S
C426 C425 1.362 . S
C426 C429 1.409 . S
C427 H419 0.930 . S
C427 C428 1.355 . S
C427 C429 1.415 . S
C428 C427 1.355 . S
C428 C430 1.419 . S
C429 C424 1.425 . S
C429 C426 1.409 . S
C429 C427 1.415 . S
C430 H420 0.930 . S
C430 C428 1.419 . S
C430 C431 1.362 . S
C431 H421 0.930 . S
C431 C424 1.409 . S
C431 C430 1.362 . S
H432 C438 0.930 . S
H433 C441 0.930 . S
H434 C442 0.930 . S
H435 C443 0.930 . S
H436 C446 0.930 . S
H437 C447 0.930 . S
C438 H432 0.930 . S
C438 C439 1.355 . S
C438 C440 1.415 . S
C439 C438 1.355 . S
C439 C441 1.419 . S
C440 C438 1.415 . S
C440 C445 1.425 . S
C440 C447 1.409 . S
C441 H433 0.930 . S
C441 C439 1.419 . S
C441 C442 1.362 . S
C442 H434 0.930 . S
C442 C441 1.362 . S
C442 C445 1.409 . S
C443 H435 0.930 . S
C443 C444 1.355 . S
C443 C445 1.415 . S
C444 C443 1.355 . S
C444 C446 1.419 . S
C445 C440 1.425 . S
C445 C442 1.409 . S
C445 C443 1.415 . S
C446 H436 0.930 . S
C446 C444 1.419 . S
C446 C447 1.362 . S
C447 H437 0.930 . S
C447 C440 1.409 . S
C447 C446 1.362 . S
H448 C454 0.930 . S
H449 C457 0.930 . S
H450 C458 0.930 . S
H451 C459 0.930 . S
H452 C462 0.930 . S
H453 C463 0.930 . S
C454 H448 0.930 . S
C454 C455 1.355 . S
C454 C456 1.415 . S
C455 C454 1.355 . S
C455 C457 1.419 . S
C456 C454 1.415 . S
C456 C461 1.425 1_455 S
C456 C463 1.409 . S
C457 H449 0.930 . S
C457 C455 1.419 . S
C457 C458 1.362 1_455 S
C458 H450 0.930 . S
C458 C457 1.362 1_655 S
C458 C461 1.409 . S
C459 H451 0.930 . S
C459 C460 1.355 . S
C459 C461 1.415 . S
C460 C459 1.355 . S
C460 C462 1.419 . S
C461 C456 1.425 1_655 S
C461 C458 1.409 . S
C461 C459 1.415 . S
C462 H452 0.930 . S
C462 C460 1.419 . S
C462 C463 1.362 1_655 S
C463 H453 0.930 . S
C463 C456 1.409 . S
C463 C462 1.362 1_455 S
H464 C470 0.930 . S
H465 C473 0.930 . S
H466 C474 0.930 . S
H467 C475 0.930 . S
H468 C478 0.930 . S
H469 C479 0.930 . S
C470 H464 0.930 . S
C470 C471 1.355 . S
C470 C472 1.415 . S
C471 C470 1.355 . S
C471 C473 1.419 . S
C472 C470 1.415 . S
C472 C477 1.425 . S
C472 C479 1.409 . S
C473 H465 0.930 . S
C473 C471 1.419 . S
C473 C474 1.362 . S
C474 H466 0.930 . S
C474 C473 1.362 . S
C474 C477 1.409 . S
C475 H467 0.930 . S
C475 C476 1.355 . S
C475 C477 1.415 . S
C476 C475 1.355 . S
C476 C478 1.419 . S
C477 C472 1.425 . S
C477 C474 1.409 . S
C477 C475 1.415 . S
C478 H468 0.930 . S
C478 C476 1.419 . S
C478 C479 1.362 . S
C479 H469 0.930 . S
C479 C472 1.409 . S
C479 C478 1.362 . S
H480 C486 0.930 . S
H481 C489 0.930 . S
H482 C490 0.930 . S
H483 C491 0.930 . S
H484 C494 0.930 . S
H485 C495 0.930 . S
C486 H480 0.930 . S
C486 C487 1.355 . S
C486 C488 1.415 . S
C487 C486 1.355 . S
C487 C489 1.419 . S
C488 C486 1.415 . S
C488 C493 1.425 1_545 S
C488 C495 1.409 . S
C489 H481 0.930 . S
C489 C487 1.419 . S
C489 C490 1.362 1_545 S
C490 H482 0.930 . S
C490 C489 1.362 1_565 S
C490 C493 1.409 . S
C491 H483 0.930 . S
C491 C492 1.355 . S
C491 C493 1.415 . S
C492 C491 1.355 . S
C492 C494 1.419 . S
C493 C488 1.425 1_565 S
C493 C490 1.409 . S
C493 C491 1.415 . S
C494 H484 0.930 . S
C494 C492 1.419 . S
C494 C495 1.362 1_565 S
C495 H485 0.930 . S
C495 C488 1.409 . S
C495 C494 1.362 1_545 S
H496 C502 0.930 . S
H497 C505 0.930 . S
H498 C506 0.930 . S
H499 C507 0.930 . S
H500 C510 0.930 . S
H501 C511 0.930 . S
C502 H496 0.930 . S
C502 C503 1.355 . S
C502 C504 1.415 1_545 S
C503 C502 1.355 . S
C503 C505 1.419 . S
C504 C502 1.415 1_565 S
C504 C509 1.425 1_565 S
C504 C511 1.409 . S
C505 H497 0.930 . S
C505 C503 1.419 . S
C505 C506 1.362 . S
C506 H498 0.930 . S
C506 C505 1.362 . S
C506 C509 1.409 . S
C507 H499 0.930 . S
C507 C508 1.355 . S
C507 C509 1.415 1_565 S
C508 C507 1.355 . S
C508 C510 1.419 . S
C509 C504 1.425 1_545 S
C509 C506 1.409 . S
C509 C507 1.415 1_545 S
C510 H500 0.930 . S
C510 C508 1.419 . S
C510 C511 1.362 . S
C511 H501 0.930 . S
C511 C504 1.409 . S
C511 C510 1.362 . S
H512 C518 0.930 . S
H513 C521 0.930 . S
H514 C522 0.930 . S
H515 C523 0.930 . S
H516 C526 0.930 . S
H517 C527 0.930 . S
C518 H512 0.930 . S
C518 C519 1.355 . S
C518 C520 1.415 1_545 S
C519 C518 1.355 . S
C519 C521 1.419 . S
C520 C518 1.415 1_565 S
C520 C525 1.425 1_565 S
C520 C527 1.409 . S
C521 H513 0.930 . S
C521 C519 1.419 . S
C521 C522 1.362 . S
C522 H514 0.930 . S
C522 C521 1.362 . S
C522 C525 1.409 . S
C523 H515 0.930 . S
C523 C524 1.355 . S
C523 C525 1.415 1_565 S
C524 C523 1.355 . S
C524 C526 1.419 . S
C525 C520 1.425 1_545 S
C525 C522 1.409 . S
C525 C523 1.415 1_545 S
C526 H516 0.930 . S
C526 C524 1.419 . S
C526 C527 1.362 . S
C527 H517 0.930 . S
C527 C520 1.409 . S
C527 C526 1.362 . S
H528 C534 0.930 . S
H529 C537 0.930 . S
H530 C538 0.930 . S
H531 C539 0.930 . S
H532 C542 0.930 . S
H533 C543 0.930 . S
C534 H528 0.930 . S
C534 C535 1.355 . S
C534 C536 1.415 . S
C535 C534 1.355 . S
C535 C537 1.419 . S
C536 C534 1.415 . S
C536 C541 1.425 . S
C536 C543 1.409 . S
C537 H529 0.930 . S
C537 C535 1.419 . S
C537 C538 1.362 . S
C538 H530 0.930 . S
C538 C537 1.362 . S
C538 C541 1.409 . S
C539 H531 0.930 . S
C539 C540 1.355 . S
C539 C541 1.415 . S
C540 C539 1.355 . S
C540 C542 1.419 . S
C541 C536 1.425 . S
C541 C538 1.409 . S
C541 C539 1.415 . S
C542 H532 0.930 . S
C542 C540 1.419 . S
C542 C543 1.362 . S
C543 H533 0.930 . S
C543 C536 1.409 . S
C543 C542 1.362 . S
H544 C550 0.930 . S
H545 C553 0.930 . S
H546 C554 0.930 . S
H547 C555 0.930 . S
H548 C558 0.930 . S
H549 C559 0.930 . S
C550 H544 0.930 . S
C550 C551 1.355 . S
C550 C552 1.415 . S
C551 C550 1.355 . S
C551 C553 1.419 . S
C552 C550 1.415 . S
C552 C557 1.425 . S
C552 C559 1.409 . S
C553 H545 0.930 . S
C553 C551 1.419 . S
C553 C554 1.362 . S
C554 H546 0.930 . S
C554 C553 1.362 . S
C554 C557 1.409 . S
C555 H547 0.930 . S
C555 C556 1.355 . S
C555 C557 1.415 . S
C556 C555 1.355 . S
C556 C558 1.419 . S
C557 C552 1.425 . S
C557 C554 1.409 . S
C557 C555 1.415 . S
C558 H548 0.930 . S
C558 C556 1.419 . S
C558 C559 1.362 . S
C559 H549 0.930 . S
C559 C552 1.409 . S
C559 C558 1.362 . S
H560 C566 0.930 . S
H561 C569 0.930 . S
H562 C570 0.930 . S
H563 C571 0.930 . S
H564 C574 0.930 . S
H565 C575 0.930 . S
C566 H560 0.930 . S
C566 C567 1.355 . S
C566 C568 1.415 . S
C567 C566 1.355 . S
C567 C569 1.419 . S
C568 C566 1.415 . S
C568 C573 1.425 . S
C568 C575 1.409 . S
C569 H561 0.930 . S
C569 C567 1.419 . S
C569 C570 1.362 . S
C570 H562 0.930 . S
C570 C569 1.362 . S
C570 C573 1.409 . S
C571 H563 0.930 . S
C571 C572 1.355 . S
C571 C573 1.415 . S
C572 C571 1.355 . S
C572 C574 1.419 . S
C573 C568 1.425 . S
C573 C570 1.409 . S
C573 C571 1.415 . S
C574 H564 0.930 . S
C574 C572 1.419 . S
C574 C575 1.362 . S
C575 H565 0.930 . S
C575 C568 1.409 . S
C575 C574 1.362 . S
H576 C582 0.930 . S
H577 C585 0.930 . S
H578 C586 0.930 . S
H579 C587 0.930 . S
H580 C590 0.930 . S
H581 C591 0.930 . S
C582 H576 0.930 . S
C582 C583 1.355 . S
C582 C584 1.415 1_556 S
C583 C582 1.355 . S
C583 C585 1.419 . S
C584 C582 1.415 1_554 S
C584 C589 1.425 1_554 S
C584 C591 1.409 . S
C585 H577 0.930 . S
C585 C583 1.419 . S
C585 C586 1.362 . S
C586 H578 0.930 . S
C586 C585 1.362 . S
C586 C589 1.409 . S
C587 H579 0.930 . S
C587 C588 1.355 . S
C587 C589 1.415 1_554 S
C588 C587 1.355 . S
C588 C590 1.419 . S
C589 C584 1.425 1_556 S
C589 C586 1.409 . S
C589 C587 1.415 1_556 S
C590 H580 0.930 . S
C590 C588 1.419 . S
C590 C591 1.362 . S
C591 H581 0.930 . S
C591 C584 1.409 . S
C591 C590 1.362 . S
H592 C598 0.930 . S
H593 C601 0.930 . S
H594 C602 0.930 . S
H595 C603 0.930 . S
H596 C606 0.930 . S
H597 C607 0.930 . S
C598 H592 0.930 . S
C598 C599 1.355 . S
C598 C600 1.415 . S
C599 C598 1.355 . S
C599 C601 1.419 . S
C600 C598 1.415 . S
C600 C605 1.425 . S
C600 C607 1.409 . S
C601 H593 0.930 . S
C601 C599 1.419 . S
C601 C602 1.362 . S
C602 H594 0.930 . S
C602 C601 1.362 . S
C602 C605 1.409 . S
C603 H595 0.930 . S
C603 C604 1.355 . S
C603 C605 1.415 . S
C604 C603 1.355 . S
C604 C606 1.419 . S
C605 C600 1.425 . S
C605 C602 1.409 . S
C605 C603 1.415 . S
C606 H596 0.930 . S
C606 C604 1.419 . S
C606 C607 1.362 . S
C607 H597 0.930 . S
C607 C600 1.409 . S
C607 C606 1.362 . S
H608 C614 0.930 . S
H609 C617 0.930 . S
H610 C618 0.930 . S
H611 C619 0.930 . S
H612 C622 0.930 . S
H613 C623 0.930 . S
C614 H608 0.930 . S
C614 C615 1.355 . S
C614 C616 1.415 . S
C615 C614 1.355 . S
C615 C617 1.419 . S
C616 C614 1.415 . S
C616 C621 1.425 . S
C616 C623 1.409 . S
C617 H609 0.930 . S
C617 C615 1.419 . S
C617 C618 1.362 . S
C618 H610 0.930 . S
C618 C617 1.362 . S
C618 C621 1.409 . S
C619 H611 0.930 . S
C619 C620 1.355 . S
C619 C621 1.415 . S
C620 C619 1.355 . S
C620 C622 1.419 . S
C621 C616 1.425 . S
C621 C618 1.409 . S
C621 C619 1.415 . S
C622 H612 0.930 . S
C622 C620 1.419 . S
C622 C623 1.362 . S
C623 H613 0.930 . S
C623 C616 1.409 . S
C623 C622 1.362 . S
H624 C630 0.930 . S
H625 C633 0.930 . S
H626 C634 0.930 . S
H627 C635 0.930 . S
H628 C638 0.930 . S
H629 C639 0.930 . S
C630 H624 0.930 . S
C630 C631 1.355 . S
C630 C632 1.415 . S
C631 C630 1.355 . S
C631 C633 1.419 . S
C632 C630 1.415 . S
C632 C637 1.425 1_655 S
C632 C639 1.409 . S
C633 H625 0.930 . S
C633 C631 1.419 . S
C633 C634 1.362 1_655 S
C634 H626 0.930 . S
C634 C633 1.362 1_455 S
C634 C637 1.409 . S
C635 H627 0.930 . S
C635 C636 1.355 . S
C635 C637 1.415 . S
C636 C635 1.355 . S
C636 C638 1.419 . S
C637 C632 1.425 1_455 S
C637 C634 1.409 . S
C637 C635 1.415 . S
C638 H628 0.930 . S
C638 C636 1.419 . S
C638 C639 1.362 1_455 S
C639 H629 0.930 . S
C639 C632 1.409 . S
C639 C638 1.362 1_655 S
H640 C646 0.930 . S
H641 C649 0.930 . S
H642 C650 0.930 . S
H643 C651 0.930 . S
H644 C654 0.930 . S
H645 C655 0.930 . S
C646 H640 0.930 . S
C646 C647 1.355 . S
C646 C648 1.415 . S
C647 C646 1.355 . S
C647 C649 1.419 . S
C648 C646 1.415 . S
C648 C653 1.425 . S
C648 C655 1.409 . S
C649 H641 0.930 . S
C649 C647 1.419 . S
C649 C650 1.362 . S
C650 H642 0.930 . S
C650 C649 1.362 . S
C650 C653 1.409 . S
C651 H643 0.930 . S
C651 C652 1.355 . S
C651 C653 1.415 . S
C652 C651 1.355 . S
C652 C654 1.419 . S
C653 C648 1.425 . S
C653 C650 1.409 . S
C653 C651 1.415 . S
C654 H644 0.930 . S
C654 C652 1.419 . S
C654 C655 1.362 . S
C655 H645 0.930 . S
C655 C648 1.409 . S
C655 C654 1.362 . S
H656 C662 0.930 . S
H657 C665 0.930 . S
H658 C666 0.930 . S
H659 C667 0.930 . S
H660 C670 0.930 . S
H661 C671 0.930 . S
C662 H656 0.930 . S
C662 C663 1.355 . S
C662 C664 1.415 1_455 S
C663 C662 1.355 . S
C663 C665 1.419 . S
C664 C662 1.415 1_655 S
C664 C669 1.425 1_655 S
C664 C671 1.409 . S
C665 H657 0.930 . S
C665 C663 1.419 . S
C665 C666 1.362 . S
C666 H658 0.930 . S
C666 C665 1.362 . S
C666 C669 1.409 . S
C667 H659 0.930 . S
C667 C668 1.355 . S
C667 C669 1.415 1_655 S
C668 C667 1.355 . S
C668 C670 1.419 . S
C669 C664 1.425 1_455 S
C669 C666 1.409 . S
C669 C667 1.415 1_455 S
C670 H660 0.930 . S
C670 C668 1.419 . S
C670 C671 1.362 . S
C671 H661 0.930 . S
C671 C664 1.409 . S
C671 C670 1.362 . S
H672 C678 0.930 . S
H673 C681 0.930 . S
H674 C682 0.930 . S
H675 C683 0.930 . S
H676 C686 0.930 . S
H677 C687 0.930 . S
C678 H672 0.930 . S
C678 C679 1.355 . S
C678 C680 1.415 . S
C679 C678 1.355 . S
C679 C681 1.419 . S
C680 C678 1.415 . S
C680 C685 1.425 1_556 S
C680 C687 1.409 . S
C681 H673 0.930 . S
C681 C679 1.419 . S
C681 C682 1.362 1_556 S
C682 H674 0.930 . S
C682 C681 1.362 1_554 S
C682 C685 1.409 . S
C683 H675 0.930 . S
C683 C684 1.355 . S
C683 C685 1.415 . S
C684 C683 1.355 . S
C684 C686 1.419 . S
C685 C680 1.425 1_554 S
C685 C682 1.409 . S
C685 C683 1.415 . S
C686 H676 0.930 . S
C686 C684 1.419 . S
C686 C687 1.362 1_554 S
C687 H677 0.930 . S
C687 C680 1.409 . S
C687 C686 1.362 1_556 S
H688 C694 0.930 . S
H689 C697 0.930 . S
H690 C698 0.930 . S
H691 C699 0.930 . S
H692 C702 0.930 . S
H693 C703 0.930 . S
C694 H688 0.930 . S
C694 C695 1.355 . S
C694 C696 1.415 . S
C695 C694 1.355 . S
C695 C697 1.419 . S
C696 C694 1.415 . S
C696 C701 1.425 . S
C696 C703 1.409 . S
C697 H689 0.930 . S
C697 C695 1.419 . S
C697 C698 1.362 . S
C698 H690 0.930 . S
C698 C697 1.362 . S
C698 C701 1.409 . S
C699 H691 0.930 . S
C699 C700 1.355 . S
C699 C701 1.415 . S
C700 C699 1.355 . S
C700 C702 1.419 . S
C701 C696 1.425 . S
C701 C698 1.409 . S
C701 C699 1.415 . S
C702 H692 0.930 . S
C702 C700 1.419 . S
C702 C703 1.362 . S
C703 H693 0.930 . S
C703 C696 1.409 . S
C703 C702 1.362 . S
H704 C710 0.930 . S
H705 C713 0.930 . S
H706 C714 0.930 . S
H707 C715 0.930 . S
H708 C718 0.930 . S
H709 C719 0.930 . S
C710 H704 0.930 . S
C710 C711 1.355 . S
C710 C712 1.415 . S
C711 C710 1.355 . S
C711 C713 1.419 . S
C712 C710 1.415 . S
C712 C717 1.425 1_565 S
C712 C719 1.409 . S
C713 H705 0.930 . S
C713 C711 1.419 . S
C713 C714 1.362 1_565 S
C714 H706 0.930 . S
C714 C713 1.362 1_545 S
C714 C717 1.409 . S
C715 H707 0.930 . S
C715 C716 1.355 . S
C715 C717 1.415 . S
C716 C715 1.355 . S
C716 C718 1.419 . S
C717 C712 1.425 1_545 S
C717 C714 1.409 . S
C717 C715 1.415 . S
C718 H708 0.930 . S
C718 C716 1.419 . S
C718 C719 1.362 1_545 S
C719 H709 0.930 . S
C719 C712 1.409 . S
C719 C718 1.362 1_565 S
H720 C726 0.930 . S
H721 C729 0.930 . S
H722 C730 0.930 . S
H723 C731 0.930 . S
H724 C734 0.930 . S
H725 C735 0.930 . S
C726 H720 0.930 . S
C726 C727 1.355 . S
C726 C728 1.415 . S
C727 C726 1.355 . S
C727 C729 1.419 . S
C728 C726 1.415 . S
C728 C733 1.425 . S
C728 C735 1.409 . S
C729 H721 0.930 . S
C729 C727 1.419 . S
C729 C730 1.362 . S
C730 H722 0.930 . S
C730 C729 1.362 . S
C730 C733 1.409 . S
C731 H723 0.930 . S
C731 C732 1.355 . S
C731 C733 1.415 . S
C732 C731 1.355 . S
C732 C734 1.419 . S
C733 C728 1.425 . S
C733 C730 1.409 . S
C733 C731 1.415 . S
C734 H724 0.930 . S
C734 C732 1.419 . S
C734 C735 1.362 . S
C735 H725 0.930 . S
C735 C728 1.409 . S
C735 C734 1.362 . S
H736 C742 0.930 . S
H737 C745 0.930 . S
H738 C746 0.930 . S
H739 C747 0.930 . S
H740 C750 0.930 . S
H741 C751 0.930 . S
C742 H736 0.930 . S
C742 C743 1.355 . S
C742 C744 1.415 . S
C743 C742 1.355 . S
C743 C745 1.419 . S
C744 C742 1.415 . S
C744 C749 1.425 . S
C744 C751 1.409 . S
C745 H737 0.930 . S
C745 C743 1.419 . S
C745 C746 1.362 . S
C746 H738 0.930 . S
C746 C745 1.362 . S
C746 C749 1.409 . S
C747 H739 0.930 . S
C747 C748 1.355 . S
C747 C749 1.415 . S
C748 C747 1.355 . S
C748 C750 1.419 . S
C749 C744 1.425 . S
C749 C746 1.409 . S
C749 C747 1.415 . S
C750 H740 0.930 . S
C750 C748 1.419 . S
C750 C751 1.362 . S
C751 H741 0.930 . S
C751 C744 1.409 . S
C751 C750 1.362 . S
H752 C758 0.930 . S
H753 C761 0.930 . S
H754 C762 0.930 . S
H755 C763 0.930 . S
H756 C766 0.930 . S
H757 C767 0.930 . S
C758 H752 0.930 . S
C758 C759 1.355 . S
C758 C760 1.415 . S
C759 C758 1.355 . S
C759 C761 1.419 . S
C760 C758 1.415 . S
C760 C765 1.425 . S
C760 C767 1.409 . S
C761 H753 0.930 . S
C761 C759 1.419 . S
C761 C762 1.362 . S
C762 H754 0.930 . S
C762 C761 1.362 . S
C762 C765 1.409 . S
C763 H755 0.930 . S
C763 C764 1.355 . S
C763 C765 1.415 . S
C764 C763 1.355 . S
C764 C766 1.419 . S
C765 C760 1.425 . S
C765 C762 1.409 . S
C765 C763 1.415 . S
C766 H756 0.930 . S
C766 C764 1.419 . S
C766 C767 1.362 . S
C767 H757 0.930 . S
C767 C760 1.409 . S
C767 C766 1.362 . S
H768 C774 0.930 1_554 S
H769 C777 0.930 . S
H770 C778 0.930 . S
H771 C779 0.930 1_556 S
H772 C782 0.930 . S
H773 C783 0.930 . S
C774 H768 0.930 1_556 S
C774 C775 1.355 . S
C774 C776 1.415 1_556 S
C775 C774 1.355 . S
C775 C777 1.419 . S
C776 C774 1.415 1_554 S
C776 C781 1.425 1_554 S
C776 C783 1.409 . S
C777 H769 0.930 . S
C777 C775 1.419 . S
C777 C778 1.362 . S
C778 H770 0.930 . S
C778 C777 1.362 . S
C778 C781 1.409 . S
C779 H771 0.930 1_554 S
C779 C780 1.355 . S
C779 C781 1.415 1_554 S
C780 C779 1.355 . S
C780 C782 1.419 . S
C781 C776 1.425 1_556 S
C781 C778 1.409 . S
C781 C779 1.415 1_556 S
C782 H772 0.930 . S
C782 C780 1.419 . S
C782 C783 1.362 . S
C783 H773 0.930 . S
C783 C776 1.409 . S
C783 C782 1.362 . S
H784 C790 0.930 . S
H785 C793 0.930 . S
H786 C794 0.930 . S
H787 C795 0.930 . S
H788 C798 0.930 . S
H789 C799 0.930 . S
C790 H784 0.930 . S
C790 C791 1.355 . S
C790 C792 1.415 . S
C791 C790 1.355 . S
C791 C793 1.419 . S
C792 C790 1.415 . S
C792 C797 1.425 . S
C792 C799 1.409 . S
C793 H785 0.930 . S
C793 C791 1.419 . S
C793 C794 1.362 . S
C794 H786 0.930 . S
C794 C793 1.362 . S
C794 C797 1.409 . S
C795 H787 0.930 . S
C795 C796 1.355 . S
C795 C797 1.415 . S
C796 C795 1.355 . S
C796 C798 1.419 . S
C797 C792 1.425 . S
C797 C794 1.409 . S
C797 C795 1.415 . S
C798 H788 0.930 . S
C798 C796 1.419 . S
C798 C799 1.362 . S
C799 H789 0.930 . S
C799 C792 1.409 . S
C799 C798 1.362 . S
H800 C806 0.930 . S
H801 C809 0.930 . S
H802 C810 0.930 . S
H803 C811 0.930 . S
H804 C814 0.930 . S
H805 C815 0.930 . S
C806 H800 0.930 . S
C806 C807 1.355 . S
C806 C808 1.415 . S
C807 C806 1.355 . S
C807 C809 1.419 . S
C808 C806 1.415 . S
C808 C813 1.425 1_545 S
C808 C815 1.409 . S
C809 H801 0.930 . S
C809 C807 1.419 . S
C809 C810 1.362 1_545 S
C810 H802 0.930 . S
C810 C809 1.362 1_565 S
C810 C813 1.409 . S
C811 H803 0.930 . S
C811 C812 1.355 . S
C811 C813 1.415 . S
C812 C811 1.355 . S
C812 C814 1.419 . S
C813 C808 1.425 1_565 S
C813 C810 1.409 . S
C813 C811 1.415 . S
C814 H804 0.930 . S
C814 C812 1.419 . S
C814 C815 1.362 1_565 S
C815 H805 0.930 . S
C815 C808 1.409 . S
C815 C814 1.362 1_545 S
H816 C822 0.930 . S
H817 C825 0.930 . S
H818 C826 0.930 . S
H819 C827 0.930 . S
H820 C830 0.930 . S
H821 C831 0.930 . S
C822 H816 0.930 . S
C822 C823 1.355 . S
C822 C824 1.415 . S
C823 C822 1.355 . S
C823 C825 1.419 . S
C824 C822 1.415 . S
C824 C829 1.425 1_554 S
C824 C831 1.409 . S
C825 H817 0.930 . S
C825 C823 1.419 . S
C825 C826 1.362 1_554 S
C826 H818 0.930 . S
C826 C825 1.362 1_556 S
C826 C829 1.409 . S
C827 H819 0.930 . S
C827 C828 1.355 . S
C827 C829 1.415 . S
C828 C827 1.355 . S
C828 C830 1.419 . S
C829 C824 1.425 1_556 S
C829 C826 1.409 . S
C829 C827 1.415 . S
C830 H820 0.930 . S
C830 C828 1.419 . S
C830 C831 1.362 1_556 S
C831 H821 0.930 . S
C831 C824 1.409 . S
C831 C830 1.362 1_554 S
H832 C838 0.930 . S
H833 C841 0.931 . S
H834 C842 0.930 . S
H835 C843 0.930 . S
H836 C846 0.931 . S
H837 C847 0.930 . S
C838 H832 0.930 . S
C838 C839 1.355 . S
C838 C840 1.415 . S
C839 C838 1.355 . S
C839 C841 1.415 1_545 S
C840 C838 1.415 . S
C840 C845 1.425 1_545 S
C840 C847 1.409 . S
C841 H833 0.931 . S
C841 C839 1.415 1_565 S
C841 C842 1.365 . S
C842 H834 0.930 . S
C842 C841 1.365 . S
C842 C845 1.409 . S
C843 H835 0.930 . S
C843 C844 1.355 . S
C843 C845 1.415 . S
C844 C843 1.355 . S
C844 C846 1.415 1_565 S
C845 C840 1.425 1_565 S
C845 C842 1.409 . S
C845 C843 1.415 . S
C846 H836 0.931 . S
C846 C844 1.415 1_545 S
C846 C847 1.365 . S
C847 H837 0.930 . S
C847 C840 1.409 . S
C847 C846 1.365 . S
H848 C854 0.930 . S
H849 C857 0.930 . S
H850 C858 0.930 . S
H851 C859 0.930 . S
H852 C862 0.930 . S
H853 C863 0.930 . S
C854 H848 0.930 . S
C854 C855 1.355 . S
C854 C856 1.415 . S
C855 C854 1.355 . S
C855 C857 1.419 . S
C856 C854 1.415 . S
C856 C861 1.425 . S
C856 C863 1.409 . S
C857 H849 0.930 . S
C857 C855 1.419 . S
C857 C858 1.362 . S
C858 H850 0.930 . S
C858 C857 1.362 . S
C858 C861 1.409 . S
C859 H851 0.930 . S
C859 C860 1.355 . S
C859 C861 1.415 . S
C860 C859 1.355 . S
C860 C862 1.419 . S
C861 C856 1.425 . S
C861 C858 1.409 . S
C861 C859 1.415 . S
C862 H852 0.930 . S
C862 C860 1.419 . S
C862 C863 1.362 . S
C863 H853 0.930 . S
C863 C856 1.409 . S
C863 C862 1.362 . S
H864 C870 0.930 . S
H865 C873 0.930 . S
H866 C874 0.930 . S
H867 C875 0.930 . S
H868 C878 0.930 . S
H869 C879 0.930 . S
C870 H864 0.930 . S
C870 C871 1.355 . S
C870 C872 1.415 . S
C871 C870 1.355 . S
C871 C873 1.419 . S
C872 C870 1.415 . S
C872 C877 1.425 1_655 S
C872 C879 1.409 . S
C873 H865 0.930 . S
C873 C871 1.419 . S
C873 C874 1.362 1_655 S
C874 H866 0.930 . S
C874 C873 1.362 1_455 S
C874 C877 1.409 . S
C875 H867 0.930 . S
C875 C876 1.355 . S
C875 C877 1.415 . S
C876 C875 1.355 . S
C876 C878 1.419 . S
C877 C872 1.425 1_455 S
C877 C874 1.409 . S
C877 C875 1.415 . S
C878 H868 0.930 . S
C878 C876 1.419 . S
C878 C879 1.362 1_455 S
C879 H869 0.930 . S
C879 C872 1.409 . S
C879 C878 1.362 1_655 S
H880 C886 0.930 . S
H881 C889 0.930 . S
H882 C890 0.930 . S
H883 C891 0.930 . S
H884 C894 0.930 . S
H885 C895 0.930 . S
C886 H880 0.930 . S
C886 C887 1.355 . S
C886 C888 1.415 . S
C887 C886 1.355 . S
C887 C889 1.419 . S
C888 C886 1.415 . S
C888 C893 1.425 1_455 S
C888 C895 1.409 . S
C889 H881 0.930 . S
C889 C887 1.419 . S
C889 C890 1.362 1_455 S
C890 H882 0.930 . S
C890 C889 1.362 1_655 S
C890 C893 1.409 . S
C891 H883 0.930 . S
C891 C892 1.355 . S
C891 C893 1.415 . S
C892 C891 1.355 . S
C892 C894 1.419 . S
C893 C888 1.425 1_655 S
C893 C890 1.409 . S
C893 C891 1.415 . S
C894 H884 0.930 . S
C894 C892 1.419 . S
C894 C895 1.362 1_655 S
C895 H885 0.930 . S
C895 C888 1.409 . S
C895 C894 1.362 1_455 S
H896 C902 0.930 . S
H897 C905 0.930 . S
H898 C906 0.930 . S
H899 C907 0.930 . S
H900 C910 0.930 . S
H901 C911 0.930 . S
C902 H896 0.930 . S
C902 C903 1.355 . S
C902 C904 1.415 . S
C903 C902 1.355 . S
C903 C905 1.419 . S
C904 C902 1.415 . S
C904 C909 1.425 . S
C904 C911 1.409 . S
C905 H897 0.930 . S
C905 C903 1.419 . S
C905 C906 1.362 . S
C906 H898 0.930 . S
C906 C905 1.362 . S
C906 C909 1.409 . S
C907 H899 0.930 . S
C907 C908 1.355 . S
C907 C909 1.415 . S
C908 C907 1.355 . S
C908 C910 1.419 . S
C909 C904 1.425 . S
C909 C906 1.409 . S
C909 C907 1.415 . S
C910 H900 0.930 . S
C910 C908 1.419 . S
C910 C911 1.362 . S
C911 H901 0.930 . S
C911 C904 1.409 . S
C911 C910 1.362 . S
H912 C918 0.930 . S
H913 C921 0.930 . S
H914 C922 0.930 . S
H915 C923 0.930 . S
H916 C926 0.930 . S
H917 C927 0.930 . S
C918 H912 0.930 . S
C918 C919 1.355 . S
C918 C920 1.415 1_455 S
C919 C918 1.355 . S
C919 C921 1.419 . S
C920 C918 1.415 1_655 S
C920 C925 1.425 1_655 S
C920 C927 1.409 . S
C921 H913 0.930 . S
C921 C919 1.419 . S
C921 C922 1.362 . S
C922 H914 0.930 . S
C922 C921 1.362 . S
C922 C925 1.409 . S
C923 H915 0.930 . S
C923 C924 1.355 . S
C923 C925 1.415 1_655 S
C924 C923 1.355 . S
C924 C926 1.419 . S
C925 C920 1.425 1_455 S
C925 C922 1.409 . S
C925 C923 1.415 1_455 S
C926 H916 0.930 . S
C926 C924 1.419 . S
C926 C927 1.362 . S
C927 H917 0.930 . S
C927 C920 1.409 . S
C927 C926 1.362 . S
H928 C934 0.930 1_655 S
H929 C937 0.930 . S
H930 C938 0.930 . S
H931 C939 0.930 1_455 S
H932 C942 0.930 . S
H933 C943 0.930 . S
C934 H928 0.930 1_455 S
C934 C935 1.355 . S
C934 C936 1.415 1_455 S
C935 C934 1.355 . S
C935 C937 1.419 . S
C936 C934 1.415 1_655 S
C936 C941 1.425 1_655 S
C936 C943 1.409 . S
C937 H929 0.930 . S
C937 C935 1.419 . S
C937 C938 1.362 . S
C938 H930 0.930 . S
C938 C937 1.362 . S
C938 C941 1.409 . S
C939 H931 0.930 1_655 S
C939 C940 1.355 . S
C939 C941 1.415 1_655 S
C940 C939 1.355 . S
C940 C942 1.419 . S
C941 C936 1.425 1_455 S
C941 C938 1.409 . S
C941 C939 1.415 1_455 S
C942 H932 0.930 . S
C942 C940 1.419 . S
C942 C943 1.362 . S
C943 H933 0.930 . S
C943 C936 1.409 . S
C943 C942 1.362 . S
H944 C950 0.930 . S
H945 C953 0.930 . S
H946 C954 0.930 . S
H947 C955 0.930 . S
H948 C958 0.930 . S
H949 C959 0.930 . S
C950 H944 0.930 . S
C950 C951 1.355 . S
C950 C952 1.415 . S
C951 C950 1.355 . S
C951 C953 1.419 . S
C952 C950 1.415 . S
C952 C957 1.425 . S
C952 C959 1.409 . S
C953 H945 0.930 . S
C953 C951 1.419 . S
C953 C954 1.362 . S
C954 H946 0.930 . S
C954 C953 1.362 . S
C954 C957 1.409 . S
C955 H947 0.930 . S
C955 C956 1.355 . S
C955 C957 1.415 . S
C956 C955 1.355 . S
C956 C958 1.419 . S
C957 C952 1.425 . S
C957 C954 1.409 . S
C957 C955 1.415 . S
C958 H948 0.930 . S
C958 C956 1.419 . S
C958 C959 1.362 . S
C959 H949 0.930 . S
C959 C952 1.409 . S
C959 C958 1.362 . S
H960 C966 0.930 . S
H961 C969 0.930 . S
H962 C970 0.930 . S
H963 C971 0.930 . S
H964 C974 0.930 . S
H965 C975 0.930 . S
C966 H960 0.930 . S
C966 C967 1.355 . S
C966 C968 1.415 . S
C967 C966 1.355 . S
C967 C969 1.419 . S
C968 C966 1.415 . S
C968 C973 1.425 1_565 S
C968 C975 1.409 . S
C969 H961 0.930 . S
C969 C967 1.419 . S
C969 C970 1.362 1_565 S
C970 H962 0.930 . S
C970 C969 1.362 1_545 S
C970 C973 1.409 . S
C971 H963 0.930 . S
C971 C972 1.355 . S
C971 C973 1.415 . S
C972 C971 1.355 . S
C972 C974 1.419 . S
C973 C968 1.425 1_545 S
C973 C970 1.409 . S
C973 C971 1.415 . S
C974 H964 0.930 . S
C974 C972 1.419 . S
C974 C975 1.362 1_545 S
C975 H965 0.930 . S
C975 C968 1.409 . S
C975 C974 1.362 1_565 S
H976 C982 0.930 1_554 S
H977 C985 0.930 . S
H978 C986 0.930 . S
H979 C987 0.930 1_556 S
H980 C990 0.930 . S
H981 C991 0.930 . S
C982 H976 0.930 1_556 S
C982 C983 1.355 . S
C982 C984 1.415 1_556 S
C983 C982 1.355 . S
C983 C985 1.419 . S
C984 C982 1.415 1_554 S
C984 C989 1.425 1_554 S
C984 C991 1.409 . S
C985 H977 0.930 . S
C985 C983 1.419 . S
C985 C986 1.362 . S
C986 H978 0.930 . S
C986 C985 1.362 . S
C986 C989 1.409 . S
C987 H979 0.930 1_554 S
C987 C988 1.355 . S
C987 C989 1.415 1_554 S
C988 C987 1.355 . S
C988 C990 1.419 . S
C989 C984 1.425 1_556 S
C989 C986 1.409 . S
C989 C987 1.415 1_556 S
C990 H980 0.930 . S
C990 C988 1.419 . S
C990 C991 1.362 . S
C991 H981 0.930 . S
C991 C984 1.409 . S
C991 C990 1.362 . S
H992 C998 0.930 . S
H993 C1001 0.930 . S
H994 C1002 0.930 . S
H995 C1003 0.930 . S
H996 C1006 0.930 . S
H997 C1007 0.930 . S
C998 H992 0.930 . S
C998 C999 1.355 . S
C998 C1000 1.415 . S
C999 C998 1.355 . S
C999 C1001 1.419 . S
C1000 C998 1.415 . S
C1000 C1005 1.425 1_545 S
C1000 C1007 1.409 . S
C1001 H993 0.930 . S
C1001 C999 1.419 . S
C1001 C1002 1.362 1_545 S
C1002 H994 0.930 . S
C1002 C1001 1.362 1_565 S
C1002 C1005 1.409 . S
C1003 H995 0.930 . S
C1003 C1004 1.355 . S
C1003 C1005 1.415 . S
C1004 C1003 1.355 . S
C1004 C1006 1.419 . S
C1005 C1000 1.425 1_565 S
C1005 C1002 1.409 . S
C1005 C1003 1.415 . S
C1006 H996 0.930 . S
C1006 C1004 1.419 . S
C1006 C1007 1.362 1_565 S
C1007 H997 0.930 . S
C1007 C1000 1.409 . S
C1007 C1006 1.362 1_545 S
H1008 C1014 0.930 . S
H1009 C1017 0.930 . S
H1010 C1018 0.930 . S
H1011 C1019 0.930 . S
H1012 C1022 0.930 . S
H1013 C1023 0.930 . S
C1014 H1008 0.930 . S
C1014 C1015 1.355 . S
C1014 C1016 1.415 . S
C1015 C1014 1.355 . S
C1015 C1017 1.419 . S
C1016 C1014 1.415 . S
C1016 C1021 1.425 . S
C1016 C1023 1.409 . S
C1017 H1009 0.930 . S
C1017 C1015 1.419 . S
C1017 C1018 1.362 . S
C1018 H1010 0.930 . S
C1018 C1017 1.362 . S
C1018 C1021 1.409 . S
C1019 H1011 0.930 . S
C1019 C1020 1.355 . S
C1019 C1021 1.415 . S
C1020 C1019 1.355 . S
C1020 C1022 1.419 . S
C1021 C1016 1.425 . S
C1021 C1018 1.409 . S
C1021 C1019 1.415 . S
C1022 H1012 0.930 . S
C1022 C1020 1.419 . S
C1022 C1023 1.362 . S
C1023 H1013 0.930 . S
C1023 C1016 1.409 . S
C1023 C1022 1.362 . S
H1024 C1030 0.930 . S
H1025 C1033 0.930 . S
H1026 C1034 0.930 1_556 S
H1027 C1035 0.930 . S
H1028 C1038 0.930 . S
H1029 C1039 0.930 1_554 S
C1030 H1024 0.930 . S
C1030 C1031 1.355 . S
C1030 C1032 1.415 . S
C1031 C1030 1.355 . S
C1031 C1033 1.419 . S
C1032 C1030 1.415 . S
C1032 C1037 1.425 1_554 S
C1032 C1039 1.409 1_554 S
C1033 H1025 0.930 . S
C1033 C1031 1.419 . S
C1033 C1034 1.362 . S
C1034 H1026 0.930 1_554 S
C1034 C1033 1.362 . S
C1034 C1037 1.409 1_554 S
C1035 H1027 0.930 . S
C1035 C1036 1.355 . S
C1035 C1037 1.415 . S
C1036 C1035 1.355 . S
C1036 C1038 1.419 . S
C1037 C1032 1.425 1_556 S
C1037 C1034 1.409 1_556 S
C1037 C1035 1.415 . S
C1038 H1028 0.930 . S
C1038 C1036 1.419 . S
C1038 C1039 1.362 . S
C1039 H1029 0.930 1_556 S
C1039 C1032 1.409 1_556 S
C1039 C1038 1.362 . S
H1040 C1046 0.930 . S
H1041 C1049 0.930 . S
H1042 C1050 0.930 . S
H1043 C1051 0.930 . S
H1044 C1054 0.930 . S
H1045 C1055 0.930 . S
C1046 H1040 0.930 . S
C1046 C1047 1.355 . S
C1046 C1048 1.415 . S
C1047 C1046 1.355 . S
C1047 C1049 1.419 . S
C1048 C1046 1.415 . S
C1048 C1053 1.425 . S
C1048 C1055 1.409 . S
C1049 H1041 0.930 . S
C1049 C1047 1.419 . S
C1049 C1050 1.362 . S
C1050 H1042 0.930 . S
C1050 C1049 1.362 . S
C1050 C1053 1.409 . S
C1051 H1043 0.930 . S
C1051 C1052 1.355 . S
C1051 C1053 1.415 . S
C1052 C1051 1.355 . S
C1052 C1054 1.419 . S
C1053 C1048 1.425 . S
C1053 C1050 1.409 . S
C1053 C1051 1.415 . S
C1054 H1044 0.930 . S
C1054 C1052 1.419 . S
C1054 C1055 1.362 . S
C1055 H1045 0.930 . S
C1055 C1048 1.409 . S
C1055 C1054 1.362 . S
H1056 C1062 0.930 . S
H1057 C1065 0.930 . S
H1058 C1066 0.930 . S
H1059 C1067 0.930 . S
H1060 C1070 0.930 . S
H1061 C1071 0.930 . S
C1062 H1056 0.930 . S
C1062 C1063 1.355 . S
C1062 C1064 1.415 . S
C1063 C1062 1.355 . S
C1063 C1065 1.419 . S
C1064 C1062 1.415 . S
C1064 C1069 1.425 . S
C1064 C1071 1.409 . S
C1065 H1057 0.930 . S
C1065 C1063 1.419 . S
C1065 C1066 1.362 . S
C1066 H1058 0.930 . S
C1066 C1065 1.362 . S
C1066 C1069 1.409 . S
C1067 H1059 0.930 . S
C1067 C1068 1.355 . S
C1067 C1069 1.415 . S
C1068 C1067 1.355 . S
C1068 C1070 1.419 . S
C1069 C1064 1.425 . S
C1069 C1066 1.409 . S
C1069 C1067 1.415 . S
C1070 H1060 0.930 . S
C1070 C1068 1.419 . S
C1070 C1071 1.362 . S
C1071 H1061 0.930 . S
C1071 C1064 1.409 . S
C1071 C1070 1.362 . S
H1072 C1078 0.930 . S
H1073 C1081 0.930 . S
H1074 C1082 0.930 . S
H1075 C1083 0.930 . S
H1076 C1086 0.930 . S
H1077 C1087 0.930 . S
C1078 H1072 0.930 . S
C1078 C1079 1.355 . S
C1078 C1080 1.415 . S
C1079 C1078 1.355 . S
C1079 C1081 1.419 . S
C1080 C1078 1.415 . S
C1080 C1085 1.425 . S
C1080 C1087 1.409 . S
C1081 H1073 0.930 . S
C1081 C1079 1.419 . S
C1081 C1082 1.362 . S
C1082 H1074 0.930 . S
C1082 C1081 1.362 . S
C1082 C1085 1.409 . S
C1083 H1075 0.930 . S
C1083 C1084 1.355 . S
C1083 C1085 1.415 . S
C1084 C1083 1.355 . S
C1084 C1086 1.419 . S
C1085 C1080 1.425 . S
C1085 C1082 1.409 . S
C1085 C1083 1.415 . S
C1086 H1076 0.930 . S
C1086 C1084 1.419 . S
C1086 C1087 1.362 . S
C1087 H1077 0.930 . S
C1087 C1080 1.409 . S
C1087 C1086 1.362 . S
H1088 C1094 0.930 . S
H1089 C1097 0.930 . S
H1090 C1098 0.930 . S
H1091 C1099 0.930 . S
H1092 C1102 0.930 . S
H1093 C1103 0.930 . S
C1094 H1088 0.930 . S
C1094 C1095 1.355 . S
C1094 C1096 1.415 . S
C1095 C1094 1.355 . S
C1095 C1097 1.419 . S
C1096 C1094 1.415 . S
C1096 C1101 1.425 . S
C1096 C1103 1.409 . S
C1097 H1089 0.930 . S
C1097 C1095 1.419 . S
C1097 C1098 1.362 . S
C1098 H1090 0.930 . S
C1098 C1097 1.362 . S
C1098 C1101 1.409 . S
C1099 H1091 0.930 . S
C1099 C1100 1.355 . S
C1099 C1101 1.415 . S
C1100 C1099 1.355 . S
C1100 C1102 1.419 . S
C1101 C1096 1.425 . S
C1101 C1098 1.409 . S
C1101 C1099 1.415 . S
C1102 H1092 0.930 . S
C1102 C1100 1.419 . S
C1102 C1103 1.362 . S
C1103 H1093 0.930 . S
C1103 C1096 1.409 . S
C1103 C1102 1.362 . S
C343 C0 1.463 . S
C348 C126 1.459 . S
C359 C27 1.459 . S
C364 C153 1.464 . S
C375 C155 1.450 . S
C380 C28 1.450 . S
C391 C112 1.474 . S
C396 C42 1.474 . S
C407 C141 1.452 . S
C412 C68 1.455 . S
C423 C70 1.468 . S
C428 C167 1.463 . S
C439 C96 1.473 . S
C444 C124 1.474 . S
C455 C138 1.463 . S
C460 C99 1.458 . S
C471 C56 1.456 . S
C476 C169 1.461 . S
C487 C111 1.460 . S
C492 C222 1.455 . S
C503 C237 1.465 . S
C508 C82 1.459 . S
C519 C54 1.459 . S
C524 C195 1.465 . S
C535 C208 1.457 . S
C540 C84 1.454 . S
C551 C12 1.461 . S
C556 C279 1.466 . S
C567 C40 1.463 . S
C572 C265 1.468 . S
C583 C210 1.453 . S
C588 C294 1.457 . S
C599 C320 1.450 . S
C604 C181 1.454 . S
C615 C334 1.469 . S
C620 C225 1.472 . S
C631 C292 1.468 . S
C636 C196 1.464 . S
C647 C308 1.471 . S
C652 C250 1.473 . S
C663 C253 1.463 . S
C668 C322 1.458 . S
C679 C280 1.474 . S
C684 C183 1.474 . S
C695 C267 1.474 . S
C700 C306 1.474 . S
C711 C15 1.470 . S
C716 C238 1.465 . S
C727 C69 0.998 . S
C732 C1 1.002 . S
C743 C26 0.998 . S
C748 C71 0.999 . S
C759 C29 1.020 . S
C764 C97 1.001 . S
C775 C98 1.001 . S
C780 C43 0.998 . S
C791 C113 0.999 . S
C796 C139 0.999 . S
C807 C127 1.037 . S
C812 C140 1.017 . S
C823 C166 0.997 . S
C828 C152 1.011 . S
C839 C125 1.043 . S
C844 C154 1.045 . S
C855 C55 1.045 . S
C860 C168 1.042 . S
C871 C110 0.998 . S
C876 C264 1.012 . S
C887 C57 1.043 . S
C892 C194 1.027 . S
C903 C278 1.005 . S
C908 C83 1.025 . S
C919 C209 1.046 . S
C924 C14 1.038 . S
C935 C13 0.999 . S
C940 C236 1.012 . S
C951 C41 1.046 . S
C956 C223 1.035 . S
C967 C211 1.006 . S
C972 C251 0.997 . S
C983 C252 1.001 . S
C988 C180 0.996 . S
C999 C224 1.001 . S
C1004 C182 0.996 . S
C1015 C197 1.046 . S
C1020 C266 1.035 . S
C1031 C307 1.006 . S
C1036 C293 1.027 . S
C1047 C309 1.038 . S
C1052 C295 1.017 . S
C1063 C323 1.037 . S
C1068 C321 1.046 . S
C1079 C281 1.007 . S
C1084 C335 0.997 . S
C1095 C239 1.039 . S
C1100 C85 1.046 . S
